data_POSCAR
  _audit_creation_date              2014-09-24
  _audit_creation_method            'ToBaCCo'
  _symmetry_space_group_name_H-M    'P1'
  _symmetry_Int_Tables_number       1
  _symmetry_cell_setting            triclinic
  loop_
  _symmetry_equiv_pos_as_xyz
 x,y,z
_cell_length_a 47.7008
_cell_length_b 54.0473
_cell_length_c 49.1602
_cell_angle_alpha 90.302200
_cell_angle_beta 90.904100
_cell_angle_gamma 90.121700
loop_
  _atom_site_label
  _atom_site_type_symbol
  _atom_site_fract_x
  _atom_site_fract_y
  _atom_site_fract_z
C1 C 1.21934 0.27037 0.28302
 H2 H 1.21524 0.25082 0.28554
 C3 C 1.20457 0.28774 0.29829
 H4 H 1.18885 0.28142 0.31232
 C5 C 1.24480 0.30230 0.26162
 H6 H 1.26095 0.30797 0.24784
 C7 C 1.23045 0.32028 0.27636
 H8 H 1.23566 0.33961 0.27360
 N9 N 1.23877 0.27787 0.26484
 C10 C 1.24528 0.21669 0.20682
 H11 H 1.26777 0.21416 0.20749
 C12 C 1.22867 0.20187 0.18971
 H13 H 1.23857 0.18772 0.17752
 C14 C 1.20520 0.23805 0.22231
 H15 H 1.19619 0.25243 0.23475
 C16 C 1.18776 0.22359 0.20547
 H17 H 1.16540 0.22703 0.20511
 Zn18 Zn 1.25828 0.25326 0.24498
 N19 N 1.23339 0.23419 0.22288
 C20 C 1.27066 0.20827 0.27212
 N21 N 1.27723 0.23264 0.27032
 C22 C 1.29783 0.24274 0.28620
 C23 C 1.31441 0.22783 0.30303
 C24 C 1.28608 0.19273 0.28927
 C25 C 1.27452 0.28392 0.20216
 C26 C 1.29298 0.29665 0.18545
 C27 C 1.33159 0.27550 0.20751
 C28 C 1.31240 0.26315 0.22373
 N29 N 1.28451 0.26816 0.22146
 H30 H 1.25375 0.20065 0.25980
 H31 H 1.30201 0.26239 0.28508
 H32 H 1.33040 0.23692 0.31531
 H33 H 1.28089 0.17327 0.28852
 H34 H 1.25220 0.28716 0.20034
 H35 H 1.28470 0.30992 0.17100
 H36 H 1.35375 0.27157 0.20990
 H37 H 1.31997 0.24968 0.23817
 C38 C 1.19947 0.20518 0.18887
 C39 C 1.20996 0.31310 0.29493
 C40 C 1.32199 0.29285 0.18843
 C41 C 1.30919 0.20207 0.30468
 C42 C 0.72233 -0.23530 0.30335
 H43 H 0.73734 -0.24688 0.31380
 C44 C 0.70365 -0.22125 0.31857
 H45 H 0.70466 -0.22230 0.34055
 C46 C 0.70174 -0.22091 0.26230
 H47 H 0.70039 -0.22148 0.24037
 C48 C 0.68282 -0.20639 0.27672
 H49 H 0.66789 -0.19514 0.26554
 N50 N 0.72160 -0.23442 0.27568
 C51 C 0.73450 -0.27095 0.20211
 H52 H 0.75192 -0.25966 0.19581
 C53 C 0.71971 -0.28503 0.18280
 H54 H 0.72568 -0.28403 0.16168
 C55 C 0.70545 -0.28571 0.23719
 H56 H 0.70016 -0.28589 0.25851
 C57 C 0.69024 -0.30026 0.21859
 H58 H 0.67348 -0.31188 0.22590
 Zn59 Zn 0.74770 -0.25286 0.25482
 N60 N 0.72726 -0.27164 0.22874
 C61 C 0.76643 -0.29936 0.27476
 N62 N 0.76871 -0.27440 0.27786
 C63 C 0.78605 -0.26437 0.29722
 C64 C 0.80162 -0.27956 0.31463
 C65 C 0.78150 -0.31524 0.29185
 C66 C 0.76170 -0.21272 0.22085
 C67 C 0.77921 -0.19718 0.20618
 C68 C 0.81914 -0.21975 0.22368
 C69 C 0.80082 -0.23495 0.23797
 N70 N 0.77262 -0.23117 0.23645
 H71 H 0.75284 -0.30707 0.25911
 H72 H 0.78780 -0.24447 0.29908
 H73 H 0.81553 -0.27114 0.32964
 H74 H 0.77887 -0.33503 0.28937
 H75 H 0.73935 -0.21022 0.21928
 H76 H 0.77003 -0.18255 0.19403
 H77 H 0.84146 -0.22330 0.22481
 H78 H 0.80922 -0.25010 0.24973
 C79 C 0.69738 -0.30012 0.19095
 C80 C 0.68385 -0.20615 0.30529
 C81 C 0.80834 -0.20066 0.20739
 C82 C 0.79937 -0.30540 0.31217
 C83 C 0.70040 0.27112 -0.23999
 H84 H 0.69155 0.25691 -0.25297
 C85 C 0.68241 0.28658 -0.22559
 H86 H 0.66000 0.28356 -0.22721
 C87 C 0.73998 0.29276 -0.22249
 H88 H 0.76236 0.29573 -0.22212
 C89 C 0.72278 0.30864 -0.20777
 H90 H 0.73223 0.32349 -0.19592
 N91 N 0.72871 0.27409 -0.23778
 C92 C 0.73822 0.23234 -0.30845
 H93 H 0.75369 0.24475 -0.31659
 C94 C 0.72322 0.21667 -0.32610
 H95 H 0.72697 0.21763 -0.34773
 C96 C 0.71462 0.21586 -0.27056
 H97 H 0.71164 0.21544 -0.24879
 C98 C 0.69925 0.19985 -0.28744
 H99 H 0.68461 0.18706 -0.27843
 Zn100 Zn 0.75387 0.25334 -0.25708
 N101 N 0.73351 0.23188 -0.28122
 C102 C 0.77549 0.20878 -0.23482
 N103 N 0.77560 0.23388 -0.23210
 C104 C 0.79142 0.24513 -0.21227
 C105 C 0.80802 0.23112 -0.19447
 C106 C 0.79121 0.19407 -0.21704
 C107 C 0.76577 0.29016 -0.29522
 C108 C 0.78225 0.30672 -0.30975
 C109 C 0.82303 0.29133 -0.28561
 C110 C 0.80584 0.27445 -0.27240
 N111 N 0.77772 0.27437 -0.27708
 H112 H 0.76356 0.20001 -0.25100
 H113 H 0.79181 0.26502 -0.21059
 H114 H 0.82073 0.24032 -0.17900
 H115 H 0.79092 0.17414 -0.21949
 H116 H 0.74325 0.29001 -0.29825
 H117 H 0.77148 0.31942 -0.32323
 H118 H 0.84533 0.29008 -0.28162
 H119 H 0.81512 0.26146 -0.25833
 C120 C 0.70334 0.20019 -0.31566
 C121 C 0.69357 0.30553 -0.20903
 C122 C 0.81155 0.30806 -0.30485
 C123 C 0.80783 0.20529 -0.19672
 C124 C 1.19765 -0.22316 -0.21512
 H125 H 1.18649 -0.23651 -0.22757
 C126 C 1.18264 -0.20816 -0.19730
 H127 H 1.16018 -0.21067 -0.19594
 C128 C 1.24016 -0.20361 -0.20178
 H129 H 1.26249 -0.20140 -0.20414
 C130 C 1.22597 -0.18814 -0.18381
 H131 H 1.23767 -0.17425 -0.17243
 N132 N 1.22600 -0.22096 -0.21676
 C133 C 1.22612 -0.25741 -0.29188
 H134 H 1.24130 -0.24450 -0.29966
 C135 C 1.21041 -0.27192 -0.31012
 H136 H 1.21380 -0.27001 -0.33173
 C137 C 1.20430 -0.27647 -0.25444
 H138 H 1.20241 -0.27849 -0.23266
 C139 C 1.18820 -0.29141 -0.27196
 H140 H 1.17354 -0.30448 -0.26347
 Zn141 Zn 1.24701 -0.24150 -0.24057
 N142 N 1.22302 -0.26000 -0.26457
 C143 C 1.26733 -0.28841 -0.22331
 N144 N 1.26998 -0.26350 -0.21989
 C145 C 1.28994 -0.25383 -0.20278
 C146 C 1.30822 -0.26934 -0.18843
 C147 C 1.28477 -0.30458 -0.20894
 C148 C 1.25964 -0.20031 -0.27296
 C149 C 1.27649 -0.18499 -0.28867
 C150 C 1.31538 -0.21267 -0.28030
 C151 C 1.29777 -0.22753 -0.26495
 N152 N 1.27052 -0.22108 -0.26144
 H153 H 1.25207 -0.29592 -0.23751
 H154 H 1.29229 -0.23405 -0.20080
 H155 H 1.32414 -0.26139 -0.17506
 H156 H 1.28246 -0.32435 -0.21195
 H157 H 1.23785 -0.19570 -0.26992
 H158 H 1.26761 -0.16841 -0.29754
 H159 H 1.33695 -0.21820 -0.28308
 H160 H 1.30584 -0.24439 -0.25613
 C161 C 1.19136 -0.28940 -0.30023
 C162 C 1.19679 -0.19037 -0.18126
 C163 C 1.30478 -0.19109 -0.29238
 C164 C 1.30560 -0.29503 -0.19141
 C165 C 0.25835 0.20345 0.71815
 H166 H 0.23588 0.20115 0.71739
 C167 C 0.27513 0.18805 0.70236
 H168 H 0.26532 0.17423 0.68932
 C169 C 0.29857 0.22281 0.73749
 H170 H 0.30787 0.23583 0.75164
 C171 C 0.31610 0.20784 0.72212
 H172 H 0.33859 0.21012 0.72417
 N173 N 0.27020 0.22071 0.73502
 C174 C 0.19706 0.22540 0.78264
 H175 H 0.18752 0.24129 0.77297
 C176 C 0.18159 0.21115 0.80072
 H177 H 0.16038 0.21695 0.80477
 C178 C 0.23716 0.20057 0.79039
 H179 H 0.25896 0.19675 0.78635
 C180 C 0.22259 0.18587 0.80862
 H181 H 0.23350 0.17022 0.81732
 Zn182 Zn 0.24676 0.24089 0.75682
 N183 N 0.22438 0.22004 0.77811
 C184 C 0.20643 0.25173 0.71534
 N185 N 0.22382 0.26179 0.73464
 C186 C 0.22536 0.28676 0.73818
 C187 C 0.21040 0.30260 0.72104
 C188 C 0.19088 0.26693 0.69784
 C189 C 0.26723 0.25793 0.80791
 C190 C 0.28372 0.27226 0.82561
 C191 C 0.30412 0.29219 0.78673
 C192 C 0.28739 0.27737 0.76977
 N193 N 0.26937 0.26064 0.78052
 H194 H 0.20453 0.23192 0.71343
 H195 H 0.23833 0.29461 0.75417
 H196 H 0.21292 0.32238 0.72369
 H197 H 0.17721 0.25851 0.68261
 H198 H 0.25272 0.24469 0.81615
 H199 H 0.28195 0.26958 0.84733
 H200 H 0.31785 0.30575 0.77773
 H201 H 0.28858 0.27929 0.74792
 C202 C 0.19432 0.19112 0.81457
 C203 C 0.30444 0.19019 0.70424
 C204 C 0.30241 0.28972 0.81507
 C205 C 0.19310 0.29278 0.70028
 C206 C 0.76532 0.70756 0.71136
 H207 H 0.74311 0.70398 0.71312
 C208 C 0.78163 0.69238 0.69494
 H209 H 0.77183 0.67715 0.68395
 C210 C 0.80498 0.73206 0.72325
 H211 H 0.81403 0.74742 0.73447
 C212 C 0.82201 0.71754 0.70672
 H213 H 0.84413 0.72182 0.70537
 N214 N 0.77709 0.72708 0.72492
 C215 C 0.70206 0.72733 0.76765
 H216 H 0.69135 0.74114 0.75559
 C217 C 0.68673 0.71233 0.78509
 H218 H 0.66447 0.71572 0.78638
 C219 C 0.74429 0.70786 0.78135
 H220 H 0.76682 0.70632 0.77975
 C221 C 0.72989 0.69249 0.79903
 H222 H 0.74188 0.67864 0.80988
 Zn223 Zn 0.75256 0.74682 0.74576
 N224 N 0.73038 0.72520 0.76658
 C225 C 0.73235 0.76385 0.69480
 N226 N 0.73009 0.76639 0.72223
 C227 C 0.71307 0.78381 0.73323
 C228 C 0.69731 0.79945 0.71642
 C229 C 0.71699 0.77908 0.67728
 C230 C 0.76881 0.76617 0.79703
 C231 C 0.78192 0.78255 0.81517
 C232 C 0.80213 0.80369 0.77699
 C233 C 0.78852 0.78689 0.75951
 N234 N 0.77243 0.76844 0.76975
 H235 H 0.74629 0.75019 0.68640
 H236 H 0.71208 0.78576 0.75510
 H237 H 0.68427 0.81349 0.72556
 H238 H 0.71894 0.77662 0.65552
 H239 H 0.75543 0.75188 0.80491
 H240 H 0.77894 0.78023 0.83680
 H241 H 0.81463 0.81842 0.76851
 H242 H 0.79047 0.78873 0.73772
 C243 C 0.70056 0.69472 0.80170
 C244 C 0.81029 0.69746 0.69226
 C245 C 0.79878 0.80165 0.80525
 C246 C 0.69928 0.79727 0.68802
 C247 C 0.75613 0.21618 0.21986
 H248 H 0.73362 0.21375 0.21872
 C249 C 0.77351 0.20074 0.20481
 H250 H 0.76418 0.18623 0.19237
 C251 C 0.79549 0.23788 0.23791
 H252 H 0.80397 0.25264 0.25043
 C253 C 0.81367 0.22282 0.22318
 H254 H 0.83604 0.22616 0.22462
 N255 N 0.76730 0.23409 0.23629
 C256 C 0.69893 0.24415 0.29350
 H257 H 0.69468 0.26369 0.29131
 C258 C 0.68159 0.22952 0.30954
 H259 H 0.66404 0.23790 0.31981
 C260 C 0.72682 0.20935 0.28261
 H261 H 0.74448 0.20153 0.27214
 C262 C 0.71037 0.19417 0.29886
 H263 H 0.71532 0.17468 0.30046
 Zn264 Zn 0.74160 0.25385 0.25582
 N265 N 0.72050 0.23375 0.27972
 C266 C 0.68959 0.26435 0.22883
 N267 N 0.71763 0.26898 0.22961
 C268 C 0.72952 0.28468 0.21156
 C269 C 0.71280 0.29800 0.19328
 C270 C 0.67211 0.27709 0.21070
 C271 C 0.77980 0.27105 0.29597
 C272 C 0.79565 0.28849 0.31068
 C273 C 0.77117 0.32098 0.28667
 C274 C 0.75574 0.30295 0.27251
 N275 N 0.76080 0.27849 0.27679
 H276 H 0.68060 0.25096 0.24238
 H277 H 0.75197 0.28759 0.21216
 H278 H 0.72260 0.31143 0.18020
 H279 H 0.64980 0.27336 0.21067
 H280 H 0.78313 0.25151 0.29934
 H281 H 0.81134 0.28218 0.32519
 H282 H 0.76699 0.34034 0.28277
 H283 H 0.73981 0.30864 0.25804
 C284 C 0.68712 0.20415 0.31213
 C285 C 0.80273 0.20388 0.20643
 C286 C 0.79173 0.31385 0.30577
 C287 C 0.68357 0.29469 0.19309
 C288 C 0.26654 0.71489 0.19706
 H289 H 0.24423 0.71509 0.19274
 C290 C 0.28417 0.69994 0.18166
 H291 H 0.27513 0.68846 0.16567
 C292 C 0.30503 0.72868 0.22422
 H293 H 0.31302 0.73956 0.24115
 C294 C 0.32344 0.71422 0.20920
 H295 H 0.34557 0.71460 0.21441
 N296 N 0.27714 0.72860 0.21809
 C297 C 0.21233 0.73252 0.27984
 H298 H 0.20888 0.75219 0.28219
 C299 C 0.19702 0.71576 0.29542
 H300 H 0.18156 0.72269 0.30941
 C301 C 0.23655 0.69958 0.25878
 H302 H 0.25222 0.69317 0.24483
 C303 C 0.22170 0.68224 0.27381
 H304 H 0.22625 0.66277 0.27119
 Zn305 Zn 0.25213 0.74685 0.23983
 N306 N 0.23146 0.72422 0.26168
 C307 C 0.19970 0.76577 0.21947
 N308 N 0.22795 0.76508 0.21606
 C309 C 0.24004 0.77731 0.19515
 C310 C 0.22395 0.79199 0.17765
 C311 C 0.18273 0.78008 0.20226
 C312 C 0.27452 0.76690 0.28964
 C313 C 0.29183 0.78240 0.30549
 C314 C 0.30686 0.80226 0.26441
 C315 C 0.28920 0.78651 0.24953
 N316 N 0.27356 0.76912 0.26214
 H317 H 0.19020 0.75538 0.23559
 H318 H 0.26229 0.77565 0.19190
 H319 H 0.23435 0.80221 0.16184
 H320 H 0.16032 0.78033 0.20538
 H321 H 0.26253 0.75258 0.29938
 H322 H 0.29272 0.77873 0.32705
 H323 H 0.31770 0.81626 0.25300
 H324 H 0.28846 0.78798 0.22769
 C325 C 0.20147 0.69020 0.29230
 C326 C 0.31304 0.69928 0.18783
 C327 C 0.30899 0.80052 0.29311
 C328 C 0.19487 0.79381 0.18123
 N329 N 1.03777 0.02941 0.03944
 N330 N 1.05604 0.04705 0.04549
 N331 N 1.01954 -0.02322 0.05592
 N332 N 1.02458 -0.04069 0.07392
 N333 N 1.03928 -0.02267 0.03759
 N334 N 1.05834 -0.03984 0.04277
 N335 N 1.01789 0.02868 0.05762
 N336 N 1.02224 0.04572 0.07658
 C337 C 1.04601 0.05720 0.06862
 C338 C 1.04871 -0.05107 0.06545
 N339 N 0.94031 -0.02568 0.03459
 N340 N 0.92209 -0.04366 0.03846
 N341 N 0.95713 0.02680 0.05591
 N342 N 0.95145 0.04414 0.07405
 N343 N 0.93780 0.02624 0.03661
 N344 N 0.91858 0.04325 0.04097
 N345 N 0.95926 -0.02519 0.05425
 N346 N 0.95444 -0.04289 0.07200
 Mn347 Mn 0.98846 0.00183 0.05622
 C348 C 0.93130 -0.05441 0.06176
 C349 C 0.92737 0.05435 0.06435
 N350 N 1.04002 -0.02081 -0.02152
 N351 N 1.05918 -0.03764 -0.02730
 N352 N 1.01853 0.03165 -0.03789
 N353 N 1.02281 0.04958 -0.05538
 N354 N 1.03851 0.03122 -0.01923
 N355 N 1.05709 0.04888 -0.02370
 N356 N 1.02056 -0.02021 -0.04069
 N357 N 1.02576 -0.03664 -0.05981
 Mn358 Mn 1.03927 0.00422 0.00910
 C359 C 1.04978 -0.04753 -0.05121
 C360 C 1.04676 0.06035 -0.04620
 N361 N 0.93827 0.02792 -0.02172
 N362 N 0.91808 0.04393 -0.02693
 N363 N 0.96073 -0.02216 -0.04231
 N364 N 0.95730 -0.03889 -0.06164
 N365 N 0.94090 -0.02393 -0.02423
 N366 N 0.92317 -0.04187 -0.03101
 N367 N 0.95825 0.02981 -0.03963
 N368 N 0.95225 0.04729 -0.05747
 Mn369 Mn 0.93904 0.00104 0.00634
 Mn370 Mn 0.98954 0.00486 -0.04032
 Cl371 Cl 0.98910 0.00298 0.00786
 C372 C 0.92722 0.05610 -0.04910
 C373 C 0.93393 -0.05119 -0.05432
 N374 N 0.98035 0.52455 0.45056
 N375 N 0.96209 0.52914 0.43077
 N376 N 1.03807 0.54365 0.47176
 N377 N 1.05542 0.56197 0.46659
 N378 N 1.03913 0.52664 0.45257
 N379 N 1.05715 0.53324 0.43371
 N380 N 0.97921 0.54179 0.46946
 N381 N 0.96012 0.55849 0.46301
 C382 C 0.94936 0.55022 0.43897
 C383 C 1.06748 0.55518 0.44301
 N384 N 1.03691 0.52746 0.54942
 N385 N 1.05405 0.53387 0.56959
 N386 N 0.97792 0.54265 0.52826
 N387 N 0.95942 0.56002 0.53381
 N388 N 0.97801 0.52559 0.54720
 N389 N 0.95938 0.53081 0.56594
 N390 N 1.03666 0.54449 0.53045
 N391 N 1.05355 0.56296 0.53735
 Mn392 Mn 1.00795 0.54332 0.49994
 C393 C 1.06460 0.55590 0.56164
 C394 C 0.94767 0.55217 0.55714
 N395 N 1.04112 0.47274 0.45318
 N396 N 1.05978 0.46690 0.43459
 N397 N 0.98245 0.45455 0.47065
 N398 N 0.96309 0.43753 0.46634
 N399 N 0.98213 0.47097 0.45108
 N400 N 0.96250 0.46534 0.43270
 N401 N 1.04128 0.45624 0.47272
 N402 N 1.06011 0.43899 0.46808
 Mn403 Mn 1.01072 0.49872 0.45152
 C404 C 1.07178 0.44597 0.44443
 C405 C 0.95066 0.44446 0.44271
 N406 N 0.98014 0.47232 0.54791
 N407 N 0.96111 0.46679 0.56614
 N408 N 1.03984 0.45683 0.53123
 N409 N 1.05736 0.43916 0.53865
 N410 N 1.03883 0.47413 0.55005
 N411 N 1.05558 0.46858 0.57076
 N412 N 0.98083 0.45530 0.52880
 N413 N 0.96195 0.43795 0.53320
 Mn414 Mn 1.00848 0.49990 0.54884
 Mn415 Mn 1.01113 0.45558 0.50082
 Cl416 Cl 1.00964 0.49941 0.50026
 C417 C 0.94966 0.44551 0.55642
 C418 C 1.06740 0.44691 0.56315
 N419 N 0.54502 0.02391 0.53186
 N420 N 0.56369 0.04129 0.53766
 N421 N 0.52450 -0.02781 0.54977
 N422 N 0.52859 -0.04498 0.56835
 N423 N 0.54469 -0.02811 0.53194
 N424 N 0.56317 -0.04547 0.53803
 N425 N 0.52473 0.02420 0.54957
 N426 N 0.52901 0.04180 0.56789
 C427 C 0.55331 0.05244 0.56009
 C428 C 0.55270 -0.05600 0.56070
 N429 N 0.44574 -0.02811 0.52683
 N430 N 0.42606 -0.04469 0.53140
 N431 N 0.46437 0.02410 0.54650
 N432 N 0.45819 0.04116 0.56472
 N433 N 0.44566 0.02386 0.52665
 N434 N 0.42628 0.04079 0.53077
 N435 N 0.46435 -0.02785 0.54677
 N436 N 0.45787 -0.04429 0.56540
 Mn437 Mn 0.49450 -0.00181 0.54841
 C438 C 0.43406 -0.05487 0.55539
 C439 C 0.43451 0.05161 0.55449
 N440 N 0.54683 -0.02825 0.47325
 N441 N 0.56581 -0.04555 0.46944
 N442 N 0.52862 0.02398 0.45344
 N443 N 0.53523 0.04103 0.43540
 N444 N 0.54729 0.02360 0.47336
 N445 N 0.56704 0.04021 0.46939
 N446 N 0.52835 -0.02819 0.45316
 N447 N 0.53429 -0.04558 0.43516
 Mn448 Mn 0.54622 -0.00225 0.50260
 C449 C 0.55764 -0.05638 0.44573
 C450 C 0.55919 0.05115 0.44581
 N451 N 0.44764 0.02336 0.46828
 N452 N 0.42744 0.03883 0.46154
 N453 N 0.46769 -0.02826 0.45002
 N454 N 0.46297 -0.04584 0.43167
 N455 N 0.44806 -0.02844 0.46844
 N456 N 0.42962 -0.04609 0.46327
 N457 N 0.46775 0.02393 0.45033
 N458 N 0.46174 0.04009 0.43096
 Mn459 Mn 0.44658 -0.00236 0.49752
 Mn460 Mn 0.49813 -0.00209 0.45137
 Cl461 Cl 0.49637 -0.00211 0.49993
 C462 C 0.43665 0.04943 0.43852
 C463 C 0.43921 -0.05694 0.44039
 N464 N 0.54903 0.52807 0.02459
 N465 N 0.56609 0.54664 0.03062
 N466 N 0.53459 0.47432 0.04124
 N467 N 0.54028 0.45603 0.05806
 N468 N 0.55411 0.47627 0.02284
 N469 N 0.57364 0.45930 0.02668
 N470 N 0.52948 0.52608 0.04298
 N471 N 0.53260 0.54332 0.06188
 C472 C 0.55541 0.55613 0.05382
 C473 C 0.56466 0.44675 0.04872
 N474 N 0.45533 0.46852 0.02069
 N475 N 0.43847 0.44948 0.02398
 N476 N 0.46937 0.52132 0.04186
 N477 N 0.46357 0.53902 0.05947
 N478 N 0.45018 0.52030 0.02247
 N479 N 0.43085 0.53733 0.02626
 N480 N 0.47440 0.46948 0.04018
 N481 N 0.47090 0.45109 0.05743
 Mn482 Mn 0.50198 0.49779 0.04189
 C483 C 0.44849 0.43864 0.04686
 C484 C 0.43948 0.54889 0.04942
 N485 N 0.55421 0.47777 -0.03578
 N486 N 0.57426 0.46158 -0.04042
 N487 N 0.52944 0.52841 -0.05326
 N488 N 0.53286 0.54599 -0.07137
 N489 N 0.54914 0.52954 -0.03432
 N490 N 0.56667 0.54790 -0.03926
 N491 N 0.53488 0.47670 -0.05506
 N492 N 0.54129 0.45977 -0.07337
 Mn493 Mn 0.55197 0.50296 -0.00565
 C494 C 0.56587 0.45038 -0.06388
 C495 C 0.55597 0.55818 -0.06229
 N496 N 0.45009 0.52147 -0.03583
 N497 N 0.42928 0.53694 -0.04038
 N498 N 0.47473 0.47183 -0.05610
 N499 N 0.47197 0.45396 -0.07436
 N500 N 0.45545 0.46992 -0.03749
 N501 N 0.43904 0.45075 -0.04252
 N502 N 0.46934 0.52373 -0.05442
 N503 N 0.46218 0.54104 -0.07210
 Mn504 Mn 0.45251 0.49504 -0.00753
 Mn505 Mn 0.50211 0.50018 -0.05502
 Cl506 Cl 0.50218 0.49902 -0.00658
 C507 C 0.43717 0.54921 -0.06290
 C508 C 0.44967 0.44087 -0.06549
 C509 C 1.17434 0.16733 0.12801
 C510 C 1.14865 0.15723 0.13695
 C511 C 1.13950 0.16422 0.16321
 C512 C 1.15581 0.18013 0.17979
 C513 C 1.18151 0.18940 0.17082
 C514 C 1.19037 0.18303 0.14469
 C515 C 1.11429 0.15505 0.17300
 C516 C 1.09801 0.13873 0.15758
 C517 C 1.10634 0.13073 0.13153
 C518 C 1.13200 0.14028 0.12095
 C519 C 1.14036 0.13229 0.09491
 C520 C 1.12469 0.11522 0.07995
 C521 C 1.09996 0.10544 0.09010
 C522 C 1.09013 0.11320 0.11586
 C523 C 1.06462 0.10277 0.12489
 C524 C 1.05016 0.08501 0.10934
 C525 C 1.06045 0.07705 0.08429
 C526 C 1.08519 0.08761 0.07465
 H527 H 1.18284 0.16346 0.10830
 H528 H 1.14880 0.18477 0.20005
 H529 H 1.20985 0.19032 0.13699
 H530 H 1.10712 0.16041 0.19300
 H531 H 1.07901 0.13253 0.16692
 H532 H 1.15922 0.13864 0.08545
 H533 H 1.13219 0.10946 0.06020
 H534 H 1.05529 0.10770 0.14395
 H535 H 1.03098 0.07725 0.11719
 H536 H 1.09325 0.08169 0.05517
 C537 C 1.15044 0.68746 0.63785
 C538 C 1.14700 0.66193 0.64336
 C539 C 1.15801 0.65297 0.66840
 C540 C 1.17215 0.66890 0.68667
 C541 C 1.17563 0.69403 0.68071
 C542 C 1.16454 0.70311 0.65619
 C543 C 1.15501 0.62811 0.67513
 C544 C 1.14097 0.61181 0.65777
 C545 C 1.12942 0.61969 0.63264
 C546 C 1.13291 0.64508 0.62509
 C547 C 1.12231 0.65272 0.59950
 C548 C 1.10817 0.63644 0.58219
 C549 C 1.10382 0.61190 0.58957
 C550 C 1.11442 0.60305 0.61483
 C551 C 1.10911 0.57797 0.62132
 C552 C 1.09355 0.56269 0.60374
 C553 C 1.08287 0.57169 0.57906
 C554 C 1.08846 0.59623 0.57191
 H555 H 1.14235 0.69608 0.61967
 H556 H 1.18095 0.66157 0.70543
 H557 H 1.16654 0.72253 0.65124
 H558 H 1.16351 0.62115 0.69418
 H559 H 1.13973 0.59300 0.66470
 H560 H 1.12466 0.67129 0.59205
 H561 H 1.10028 0.64325 0.56283
 H562 H 1.11617 0.56957 0.64000
 H563 H 1.08954 0.54377 0.60974
 H564 H 1.08021 0.60340 0.55285
 C565 C 0.68516 0.15532 0.62707
 C566 C 0.65652 0.14996 0.63159
 C567 C 0.64362 0.16176 0.65398
 C568 C 0.65882 0.17829 0.67072
 C569 C 0.68717 0.18326 0.66601
 C570 C 0.70010 0.17164 0.64400
 C571 C 0.61565 0.15691 0.65974
 C572 C 0.60019 0.14007 0.64426
 C573 C 0.61206 0.12745 0.62201
 C574 C 0.64043 0.13305 0.61505
 C575 C 0.65171 0.12161 0.59178
 C576 C 0.63630 0.10465 0.57639
 C577 C 0.60915 0.09816 0.58360
 C578 C 0.59653 0.10942 0.60647
 C579 C 0.56905 0.10171 0.61309
 C580 C 0.55504 0.08356 0.59779
 C581 C 0.56773 0.07252 0.57534
 C582 C 0.59468 0.08012 0.56817
 H583 H 0.69691 0.14687 0.61099
 H584 H 0.64845 0.18740 0.68748
 H585 H 0.72211 0.17476 0.64014
 H586 H 0.60562 0.16606 0.67668
 H587 H 0.57876 0.13753 0.65021
 H588 H 0.67248 0.12549 0.58466
 H589 H 0.64595 0.09627 0.55878
 H590 H 0.55792 0.10889 0.63028
 H591 H 0.53421 0.07797 0.60378
 H592 H 0.60473 0.07160 0.55086
 C593 C 0.68250 0.65673 0.13132
 C594 C 0.65329 0.65247 0.13310
 C595 C 0.63885 0.66427 0.15456
 C596 C 0.65313 0.68005 0.17288
 C597 C 0.68208 0.68398 0.17086
 C598 C 0.69653 0.67214 0.14991
 C599 C 0.61028 0.66007 0.15786
 C600 C 0.59577 0.64365 0.14098
 C601 C 0.60925 0.63104 0.11963
 C602 C 0.63814 0.63644 0.11483
 C603 C 0.65085 0.62572 0.09187
 C604 C 0.63638 0.60931 0.07498
 C605 C 0.60885 0.60254 0.08048
 C606 C 0.59481 0.61324 0.10288
 C607 C 0.56717 0.60504 0.10801
 C608 C 0.55435 0.58689 0.09176
 C609 C 0.56840 0.57647 0.06975
 C610 C 0.59549 0.58468 0.06394
 H611 H 0.69536 0.64788 0.11634
 H612 H 0.64160 0.68927 0.18881
 H613 H 0.71901 0.67429 0.14821
 H614 H 0.59905 0.66927 0.17402
 H615 H 0.57378 0.64153 0.14499
 H616 H 0.67201 0.62993 0.08608
 H617 H 0.64709 0.60144 0.05768
 H618 H 0.55515 0.61165 0.12491
 H619 H 0.53339 0.58078 0.09669
 H620 H 0.60661 0.57654 0.04704
 C621 C 0.86948 -0.15974 0.18796
 C622 C 0.86218 -0.15251 0.16108
 C623 C 0.83698 -0.16224 0.14962
 C624 C 0.81989 -0.17811 0.16466
 C625 C 0.82718 -0.18464 0.19137
 C626 C 0.85225 -0.17552 0.20273
 C627 C 0.82872 -0.15598 0.12326
 C628 C 0.84449 -0.13973 0.10802
 C629 C 0.86940 -0.12895 0.11858
 C630 C 0.87868 -0.13578 0.14538
 C631 C 0.90396 -0.12546 0.15564
 C632 C 0.91922 -0.10852 0.14074
 C633 C 0.91003 -0.10109 0.11501
 C634 C 0.88516 -0.11132 0.10337
 C635 C 0.87689 -0.10306 0.07713
 C636 C 0.89223 -0.08504 0.06358
 C637 C 0.91637 -0.07469 0.07550
 C638 C 0.92541 -0.08309 0.10106
 H639 H 0.88815 -0.15334 0.19840
 H640 H 0.80077 -0.18546 0.15548
 H641 H 0.85829 -0.18018 0.22341
 H642 H 0.80960 -0.16356 0.11434
 H643 H 0.83637 -0.13594 0.08794
 H644 H 0.91260 -0.12997 0.17535
 H645 H 0.93833 -0.10091 0.14964
 H646 H 0.85845 -0.10976 0.06655
 H647 H 0.88486 -0.07895 0.04377
 H648 H 0.94416 -0.07521 0.11042
 C649 C 0.86998 0.35106 0.68098
 C650 C 0.86224 0.36063 0.65530
 C651 C 0.83760 0.35121 0.64262
 C652 C 0.82037 0.33434 0.65625
 C653 C 0.82802 0.32488 0.68209
 C654 C 0.85353 0.33338 0.69381
 C655 C 0.83051 0.35832 0.61613
 C656 C 0.84790 0.37395 0.60162
 C657 C 0.87248 0.38405 0.61359
 C658 C 0.87866 0.37860 0.64145
 C659 C 0.90064 0.39166 0.65470
 C660 C 0.91690 0.40863 0.64084
 C661 C 0.91274 0.41243 0.61304
 C662 C 0.89087 0.39978 0.59882
 C663 C 0.88901 0.40269 0.57023
 C664 C 0.90805 0.41765 0.55655
 C665 C 0.92881 0.43074 0.57095
 C666 C 0.93082 0.42838 0.59922
 H667 H 0.88915 0.35636 0.69139
 H668 H 0.80198 0.32735 0.64551
 H669 H 0.86045 0.32762 0.71385
 H670 H 0.81161 0.35129 0.60625
 H671 H 0.84102 0.37854 0.58127
 H672 H 0.90515 0.38974 0.67615
 H673 H 0.93342 0.41839 0.65188
 H674 H 0.87389 0.39279 0.55778
 H675 H 0.90654 0.41900 0.53459
 H676 H 0.94740 0.43804 0.61030
 C677 C 0.36798 -0.15466 0.68480
 C678 C 0.35888 -0.14495 0.65944
 C679 C 0.33138 -0.15109 0.65024
 C680 C 0.31382 -0.16587 0.66610
 C681 C 0.32320 -0.17516 0.69115
 C682 C 0.35041 -0.16950 0.70026
 C683 C 0.32147 -0.14252 0.62522
 C684 C 0.33818 -0.12792 0.60892
 C685 C 0.36563 -0.12103 0.61713
 C686 C 0.37604 -0.12945 0.64296
 C687 C 0.40310 -0.12181 0.65161
 C688 C 0.41936 -0.10639 0.63581
 C689 C 0.40960 -0.09812 0.61061
 C690 C 0.38282 -0.10560 0.60061
 C691 C 0.37439 -0.09712 0.57451
 C692 C 0.39134 -0.08118 0.55970
 C693 C 0.41724 -0.07321 0.57022
 C694 C 0.42645 -0.08208 0.59551
 H695 H 0.38857 -0.15135 0.69332
 H696 H 0.29292 -0.17052 0.65871
 H697 H 0.35809 -0.17639 0.71963
 H698 H 0.30047 -0.14716 0.61810
 H699 H 0.32864 -0.12201 0.59007
 H700 H 0.41232 -0.12707 0.67083
 H701 H 0.43985 -0.10078 0.64350
 H702 H 0.35483 -0.10235 0.56486
 H703 H 0.38387 -0.07478 0.54004
 H704 H 0.44664 -0.07619 0.60370
 C705 C 0.38425 0.33290 0.17075
 C706 C 0.37896 0.33870 0.14307
 C707 C 0.35495 0.32793 0.13032
 C708 C 0.33692 0.31255 0.14496
 C709 C 0.34212 0.30761 0.17249
 C710 C 0.36611 0.31766 0.18510
 C711 C 0.34872 0.33282 0.10313
 C712 C 0.36510 0.34899 0.08839
 C713 C 0.38859 0.36105 0.10033
 C714 C 0.39614 0.35526 0.12788
 C715 C 0.42033 0.36653 0.13941
 C716 C 0.43580 0.38378 0.12513
 C717 C 0.42789 0.39057 0.09882
 C718 C 0.40445 0.37906 0.08582
 C719 C 0.39741 0.38669 0.05906
 C720 C 0.41230 0.40547 0.04638
 C721 C 0.43481 0.41724 0.05969
 C722 C 0.44295 0.40931 0.08568
 H723 H 0.40185 0.34020 0.18220
 H724 H 0.31861 0.30454 0.13492
 H725 H 0.37047 0.31432 0.20645
 H726 H 0.33062 0.32436 0.09319
 H727 H 0.35854 0.35172 0.06759
 H728 H 0.42789 0.36260 0.15967
 H729 H 0.45390 0.39225 0.13504
 H730 H 0.38012 0.37903 0.04746
 H731 H 0.40574 0.41111 0.02615
 H732 H 0.46045 0.41828 0.09609
 C733 C 0.87083 0.17802 -0.16031
 C734 C 0.85876 0.15869 -0.14500
 C735 C 0.82913 0.15627 -0.14580
 C736 C 0.81272 0.17148 -0.16274
 C737 C 0.82516 0.18996 -0.17829
 C738 C 0.85418 0.19345 -0.17654
 C739 C 0.81598 0.13862 -0.12983
 C740 C 0.83152 0.12331 -0.11280
 C741 C 0.86109 0.12451 -0.11172
 C742 C 0.87498 0.14180 -0.12890
 C743 C 0.90452 0.14102 -0.13013
 C744 C 0.92001 0.12403 -0.11505
 C745 C 0.90684 0.10774 -0.09741
 C746 C 0.87727 0.10831 -0.09478
 C747 C 0.86516 0.09267 -0.07515
 C748 C 0.88158 0.07630 -0.05996
 C749 C 0.91050 0.07477 -0.06392
 C750 C 0.92309 0.09074 -0.08246
 H751 H 0.89298 0.18196 -0.15984
 H752 H 0.79014 0.16910 -0.16371
 H753 H 0.86408 0.20789 -0.18823
 H754 H 0.79335 0.13667 -0.13040
 H755 H 0.81970 0.10997 -0.10148
 H756 H 0.91632 0.15272 -0.14346
 H757 H 0.94260 0.12373 -0.11714
 H758 H 0.84311 0.09290 -0.07070
 H759 H 0.87143 0.06440 -0.04542
 H760 H 0.94559 0.09001 -0.08518
 C761 C 0.83518 0.66905 0.37550
 C762 C 0.84764 0.64695 0.36591
 C763 C 0.84304 0.64054 0.33818
 C764 C 0.82738 0.65604 0.32088
 C765 C 0.81564 0.67807 0.33064
 C766 C 0.81953 0.68423 0.35815
 C767 C 0.85423 0.61876 0.32771
 C768 C 0.87007 0.60308 0.34404
 C769 C 0.87572 0.60870 0.37168
 C770 C 0.86453 0.63112 0.38274
 C771 C 0.87107 0.63721 0.41010
 C772 C 0.88815 0.62220 0.42602
 C773 C 0.89919 0.60035 0.41559
 C774 C 0.89277 0.59296 0.38846
 C775 C 0.90396 0.57016 0.37929
 C776 C 0.92167 0.55609 0.39595
 C777 C 0.92877 0.56409 0.42227
 C778 C 0.91704 0.58603 0.43212
 H779 H 0.83686 0.67514 0.39635
 H780 H 0.82476 0.65112 0.29959
 H781 H 0.81015 0.70081 0.36645
 H782 H 0.85074 0.61376 0.30653
 H783 H 0.87806 0.58683 0.33410
 H784 H 0.86378 0.65383 0.41982
 H785 H 0.89292 0.62789 0.44677
 H786 H 0.89959 0.56264 0.35936
 H787 H 0.93023 0.53904 0.38795
 H788 H 0.92218 0.59224 0.45262
 C789 C 0.37180 0.17682 0.34049
 C790 C 0.36211 0.15358 0.34939
 C791 C 0.33352 0.14778 0.34456
 C792 C 0.31612 0.16385 0.32964
 C793 C 0.32601 0.18679 0.31997
 C794 C 0.35413 0.19310 0.32645
 C795 C 0.32224 0.12595 0.35476
 C796 C 0.33860 0.10993 0.37016
 C797 C 0.36732 0.11472 0.37524
 C798 C 0.37962 0.13617 0.36339
 C799 C 0.40902 0.13909 0.36531
 C800 C 0.42575 0.12197 0.37897
 C801 C 0.41379 0.10188 0.39225
 C802 C 0.38428 0.09840 0.39122
 C803 C 0.37285 0.07906 0.40683
 C804 C 0.39007 0.06350 0.42212
 C805 C 0.41922 0.06628 0.42202
 C806 C 0.43107 0.08541 0.40692
 H807 H 0.39292 0.18316 0.34446
 H808 H 0.29427 0.15875 0.32712
 H809 H 0.36356 0.21002 0.31933
 H810 H 0.30039 0.12129 0.35104
 H811 H 0.32833 0.09336 0.37698
 H812 H 0.41987 0.15406 0.35556
 H813 H 0.44826 0.12476 0.37958
 H814 H 0.35061 0.07598 0.40842
 H815 H 0.38047 0.04900 0.43396
 H816 H 0.45364 0.08794 0.40733
 C817 C 0.37164 0.67441 -0.16457
 C818 C 0.36090 0.65441 -0.14937
 C819 C 0.33135 0.65235 -0.14728
 C820 C 0.31357 0.66879 -0.16116
 C821 C 0.32459 0.68808 -0.17653
 C822 C 0.35368 0.69101 -0.17778
 C823 C 0.31961 0.63388 -0.13140
 C824 C 0.33652 0.61754 -0.11703
 C825 C 0.36603 0.61861 -0.11857
 C826 C 0.37838 0.63660 -0.13596
 C827 C 0.40763 0.63573 -0.13994
 C828 C 0.42431 0.61813 -0.12705
 C829 C 0.41275 0.60129 -0.10896
 C830 C 0.38356 0.60176 -0.10387
 C831 C 0.37315 0.58552 -0.08393
 C832 C 0.39078 0.56888 -0.07059
 C833 C 0.41928 0.56764 -0.07671
 C834 C 0.43024 0.58398 -0.09584
 H835 H 0.39377 0.67802 -0.16625
 H836 H 0.29100 0.66679 -0.15975
 H837 H 0.36256 0.70600 -0.18942
 H838 H 0.29704 0.63214 -0.12989
 H839 H 0.32569 0.60364 -0.10558
 H840 H 0.41820 0.64793 -0.15370
 H841 H 0.44659 0.61789 -0.13108
 H842 H 0.35161 0.58556 -0.07767
 H843 H 0.38189 0.55669 -0.05556
 H844 H 0.45243 0.58345 -0.10024
 C845 C 1.17813 -0.15166 -0.11935
 C846 C 1.15146 -0.14201 -0.12662
 C847 C 1.13990 -0.14912 -0.15225
 C848 C 1.15473 -0.16474 -0.16981
 C849 C 1.18118 -0.17394 -0.16240
 C850 C 1.19262 -0.16730 -0.13696
 C851 C 1.11362 -0.14055 -0.16045
 C852 C 1.09831 -0.12501 -0.14382
 C853 C 1.10879 -0.11715 -0.11816
 C854 C 1.13594 -0.12557 -0.10949
 C855 C 1.14677 -0.11697 -0.08423
 C856 C 1.13183 -0.10061 -0.06809
 C857 C 1.10535 -0.09231 -0.07618
 C858 C 1.09322 -0.10075 -0.10111
 C859 C 1.06597 -0.09227 -0.10798
 C860 C 1.05204 -0.07547 -0.09143
 C861 C 1.06449 -0.06655 -0.06733
 C862 C 1.09102 -0.07535 -0.05957
 H863 H 1.18838 -0.14770 -0.10015
 H864 H 1.14574 -0.16942 -0.18958
 H865 H 1.21280 -0.17448 -0.13042
 H866 H 1.10472 -0.14590 -0.18005
 H867 H 1.07838 -0.11919 -0.15206
 H868 H 1.16709 -0.12223 -0.07642
 H869 H 1.14120 -0.09431 -0.04905
 H870 H 1.05466 -0.09817 -0.12598
 H871 H 1.03138 -0.06927 -0.09776
 H872 H 1.10073 -0.06871 -0.04082
 C873 C 1.16986 0.37132 0.31307
 C874 C 1.16425 0.36799 0.34105
 C875 C 1.17451 0.34612 0.35353
 C876 C 1.18933 0.32843 0.33846
 C877 C 1.19445 0.33197 0.31079
 C878 C 1.18471 0.35362 0.29833
 C879 C 1.16990 0.34188 0.38101
 C880 C 1.15494 0.35863 0.39650
 C881 C 1.14376 0.38050 0.38510
 C882 C 1.14868 0.38539 0.35695
 C883 C 1.13761 0.40733 0.34561
 C884 C 1.12170 0.42362 0.36091
 C885 C 1.11618 0.41888 0.38814
 C886 C 1.12743 0.39745 0.40079
 C887 C 1.12138 0.39371 0.42859
 C888 C 1.10406 0.40992 0.44266
 C889 C 1.09230 0.43055 0.42980
 C890 C 1.09894 0.43524 0.40266
 H891 H 1.16301 0.38728 0.30181
 H892 H 1.19717 0.31192 0.34842
 H893 H 1.18819 0.35673 0.27690
 H894 H 1.17783 0.32526 0.39068
 H895 H 1.15234 0.35364 0.41747
 H896 H 1.14060 0.41247 0.32474
 H897 H 1.11334 0.44003 0.35116
 H898 H 1.12928 0.37829 0.44011
 H899 H 1.09949 0.40599 0.46372
 H900 H 1.08998 0.45123 0.39254
 C901 C 0.61979 -0.16956 0.32663
 C902 C 0.62951 -0.15703 0.35037
 C903 C 0.65723 -0.16205 0.35956
 C904 C 0.67461 -0.17805 0.34490
 C905 C 0.66488 -0.18986 0.32110
 C906 C 0.63721 -0.18564 0.31235
 C907 C 0.66772 -0.15091 0.38322
 C908 C 0.65135 -0.13482 0.39818
 C909 C 0.62374 -0.12883 0.38981
 C910 C 0.61281 -0.13973 0.36521
 C911 C 0.58589 -0.13247 0.35594
 C912 C 0.57022 -0.11514 0.37005
 C913 C 0.58038 -0.10466 0.39423
 C914 C 0.60699 -0.11175 0.40483
 C915 C 0.61573 -0.10133 0.43007
 C916 C 0.59937 -0.08384 0.44336
 C917 C 0.57374 -0.07611 0.43216
 C918 C 0.56413 -0.08688 0.40776
 H919 H 0.59876 -0.16761 0.31866
 H920 H 0.69604 -0.18089 0.35181
 H921 H 0.62882 -0.19497 0.29445
 H922 H 0.68893 -0.15465 0.39030
 H923 H 0.66137 -0.12686 0.41594
 H924 H 0.57650 -0.13938 0.33734
 H925 H 0.54987 -0.10985 0.36187
 H926 H 0.63501 -0.10635 0.44028
 H927 H 0.60710 -0.07609 0.46242
 H928 H 0.54409 -0.08126 0.39913
 C929 C 0.63247 0.34680 -0.19046
 C930 C 0.63955 0.35451 -0.16361
 C931 C 0.66495 0.34548 -0.15205
 C932 C 0.68220 0.32945 -0.16683
 C933 C 0.67490 0.32212 -0.19339
 C934 C 0.64987 0.33091 -0.20497
 C935 C 0.67316 0.35253 -0.12583
 C936 C 0.65705 0.36878 -0.11078
 C937 C 0.63177 0.37866 -0.12135
 C938 C 0.62258 0.37103 -0.14800
 C939 C 0.59676 0.38016 -0.15814
 C940 C 0.58081 0.39664 -0.14320
 C941 C 0.58986 0.40485 -0.11762
 C942 C 0.61540 0.39597 -0.10620
 C943 C 0.62362 0.40516 -0.08021
 C944 C 0.60733 0.42249 -0.06651
 C945 C 0.58231 0.43125 -0.07806
 C946 C 0.57355 0.42216 -0.10352
 H947 H 0.61387 0.35291 -0.20109
 H948 H 0.70136 0.32250 -0.15751
 H949 H 0.64390 0.32585 -0.22561
 H950 H 0.69246 0.34553 -0.11684
 H951 H 0.66509 0.37314 -0.09075
 H952 H 0.58808 0.37489 -0.17767
 H953 H 0.56120 0.40323 -0.15194
 H954 H 0.64269 0.39969 -0.06995
 H955 H 0.61456 0.42921 -0.04682
 H956 H 0.55418 0.42886 -0.11264
 C957 C 1.17933 0.15036 -0.12586
 C958 C 1.14978 0.14832 -0.12682
 C959 C 1.13534 0.16101 -0.14790
 C960 C 1.14999 0.17516 -0.16693
 C961 C 1.17946 0.17698 -0.16597
 C962 C 1.19373 0.16431 -0.14495
 C963 C 1.10625 0.15932 -0.15022
 C964 C 1.09110 0.14472 -0.13257
 C965 C 1.10448 0.13119 -0.11160
 C966 C 1.13419 0.13372 -0.10804
 C967 C 1.14729 0.12147 -0.08594
 C968 C 1.13223 0.10630 -0.06874
 C969 C 1.10359 0.10247 -0.07291
 C970 C 1.08919 0.11499 -0.09425
 C971 C 1.06019 0.11008 -0.09785
 C972 C 1.04652 0.09297 -0.08160
 C973 C 1.06101 0.08032 -0.06102
 C974 C 1.08940 0.08560 -0.05629
 H975 H 1.19213 0.14126 -0.11073
 H976 H 1.13812 0.18371 -0.18328
 H977 H 1.21622 0.16571 -0.14230
 H978 H 1.09501 0.16920 -0.16612
 H979 H 1.06875 0.14459 -0.13593
 H980 H 1.16932 0.12323 -0.08124
 H981 H 1.14329 0.09704 -0.05228
 H982 H 1.04752 0.11849 -0.11355
 H983 H 1.02449 0.08928 -0.08556
 H984 H 1.10079 0.07579 -0.04044
 C985 C 1.16065 0.63235 0.31038
 C986 C 1.15523 0.63579 0.33841
 C987 C 1.16512 0.65798 0.35082
 C988 C 1.17987 0.67568 0.33574
 C989 C 1.18524 0.67180 0.30811
 C990 C 1.17539 0.65002 0.29565
 C991 C 1.16037 0.66245 0.37829
 C992 C 1.14579 0.64555 0.39386
 C993 C 1.13528 0.62322 0.38258
 C994 C 1.14028 0.61814 0.35443
 C995 C 1.13013 0.59563 0.34328
 C996 C 1.11513 0.57891 0.35877
 C997 C 1.10955 0.58378 0.38601
 C998 C 1.11971 0.60589 0.39843
 C999 C 1.11345 0.60984 0.42619
 C1000 C 1.09720 0.59300 0.44052
 C1001 C 1.08672 0.57153 0.42796
 C1002 C 1.09340 0.56679 0.40079
 H1003 H 1.15375 0.61629 0.29909
 H1004 H 1.18763 0.69234 0.34569
 H1005 H 1.17886 0.64669 0.27422
 H1006 H 1.16796 0.67933 0.38792
 H1007 H 1.14314 0.65068 0.41483
 H1008 H 1.13333 0.59027 0.32245
 H1009 H 1.10758 0.56200 0.34918
 H1010 H 1.12037 0.62589 0.43748
 H1011 H 1.09251 0.59707 0.46156
 H1012 H 1.08536 0.55021 0.39087
 C1013 C 0.62181 0.17207 0.33725
 C1014 C 0.63283 0.15475 0.35613
 C1015 C 0.66216 0.15529 0.36141
 C1016 C 0.67964 0.17145 0.34711
 C1017 C 0.66843 0.18793 0.32799
 C1018 C 0.63938 0.18840 0.32356
 C1019 C 0.67400 0.13960 0.38079
 C1020 C 0.65742 0.12342 0.39536
 C1021 C 0.62819 0.12180 0.39063
 C1022 C 0.61584 0.13707 0.37001
 C1023 C 0.58715 0.13362 0.36340
 C1024 C 0.57103 0.11603 0.37658
 C1025 C 0.58250 0.10168 0.39745
 C1026 C 0.61105 0.10485 0.40530
 C1027 C 0.62120 0.09101 0.42772
 C1028 C 0.60410 0.07406 0.44087
 C1029 C 0.57636 0.07010 0.43217
 C1030 C 0.56558 0.08412 0.41053
 H1031 H 0.59970 0.17369 0.33284
 H1032 H 0.70209 0.17135 0.35099
 H1033 H 0.63026 0.20111 0.30895
 H1034 H 0.69641 0.13987 0.38484
 H1035 H 0.66842 0.11175 0.40963
 H1036 H 0.57667 0.14373 0.34740
 H1037 H 0.54924 0.11375 0.37046
 H1038 H 0.64212 0.09313 0.43598
 H1039 H 0.61286 0.06373 0.45780
 H1040 H 0.54395 0.08150 0.40401
 C1041 C 0.68481 0.65573 -0.13752
 C1042 C 0.65598 0.65035 -0.14113
 C1043 C 0.64223 0.66026 -0.16436
 C1044 C 0.65688 0.67486 -0.18298
 C1045 C 0.68567 0.68001 -0.17937
 C1046 C 0.69922 0.67016 -0.15617
 C1047 C 0.61390 0.65538 -0.16920
 C1048 C 0.59889 0.64040 -0.15183
 C1049 C 0.61165 0.62961 -0.12865
 C1050 C 0.64049 0.63517 -0.12281
 C1051 C 0.65291 0.62522 -0.09900
 C1052 C 0.63814 0.60958 -0.08208
 C1053 C 0.61046 0.60308 -0.08814
 C1054 C 0.59664 0.61317 -0.11132
 C1055 C 0.56855 0.60581 -0.11654
 C1056 C 0.55533 0.58859 -0.10006
 C1057 C 0.56938 0.57825 -0.07769
 C1058 C 0.59674 0.58601 -0.07143
 H1059 H 0.69707 0.64905 -0.12053
 H1060 H 0.64574 0.68115 -0.20099
 H1061 H 0.72097 0.67423 -0.15147
 H1062 H 0.60318 0.66307 -0.18682
 H1063 H 0.57716 0.63768 -0.15727
 H1064 H 0.67420 0.62909 -0.09274
 H1065 H 0.64872 0.60215 -0.06424
 H1066 H 0.55629 0.61245 -0.13354
 H1067 H 0.53406 0.58301 -0.10522
 H1068 H 0.60777 0.57806 -0.05412
 C1069 C 0.81085 -0.15504 -0.13480
 C1070 C 0.83906 -0.14747 -0.13800
 C1071 C 0.85354 -0.15682 -0.16085
 C1072 C 0.84029 -0.17314 -0.17932
 C1073 C 0.81250 -0.18059 -0.17561
 C1074 C 0.79794 -0.17131 -0.15326
 C1075 C 0.88123 -0.14993 -0.16520
 C1076 C 0.89500 -0.13371 -0.14758
 C1077 C 0.88160 -0.12366 -0.12461
 C1078 C 0.85327 -0.13091 -0.11951
 C1079 C 0.84016 -0.12139 -0.09611
 C1080 C 0.85385 -0.10491 -0.07867
 C1081 C 0.88113 -0.09713 -0.08373
 C1082 C 0.89552 -0.10647 -0.10666
 C1083 C 0.92317 -0.09787 -0.11083
 C1084 C 0.93552 -0.08042 -0.09344
 C1085 C 0.92101 -0.07098 -0.07117
 C1086 C 0.89396 -0.07971 -0.06614
 H1087 H 0.79800 -0.14867 -0.11839
 H1088 H 0.85182 -0.18041 -0.19643
 H1089 H 0.77627 -0.17646 -0.15016
 H1090 H 0.89244 -0.15711 -0.18256
 H1091 H 0.91634 -0.12951 -0.15265
 H1092 H 0.81915 -0.12630 -0.09056
 H1093 H 0.84281 -0.09798 -0.06110
 H1094 H 0.93582 -0.10385 -0.12755
 H1095 H 0.95655 -0.07408 -0.09771
 H1096 H 0.88257 -0.07246 -0.04894
 C1097 C 0.83727 0.37045 0.31908
 C1098 C 0.84445 0.36822 0.34705
 C1099 C 0.83311 0.34781 0.36125
 C1100 C 0.81583 0.33039 0.34782
 C1101 C 0.80931 0.33274 0.32009
 C1102 C 0.82003 0.35302 0.30596
 C1103 C 0.83915 0.34470 0.38881
 C1104 C 0.85668 0.36109 0.40269
 C1105 C 0.86911 0.38143 0.38951
 C1106 C 0.86265 0.38525 0.36128
 C1107 C 0.87487 0.40577 0.34823
 C1108 C 0.89330 0.42162 0.36194
 C1109 C 0.90036 0.41782 0.38922
 C1110 C 0.88812 0.39785 0.40352
 C1111 C 0.89589 0.39493 0.43122
 C1112 C 0.91557 0.41050 0.44369
 C1113 C 0.92816 0.42972 0.42930
 C1114 C 0.92004 0.43363 0.40216
 H1115 H 0.84478 0.38529 0.30659
 H1116 H 0.80730 0.31497 0.35905
 H1117 H 0.81554 0.35518 0.28444
 H1118 H 0.83038 0.32924 0.39980
 H1119 H 0.86017 0.35704 0.42387
 H1120 H 0.87083 0.41008 0.32718
 H1121 H 0.90239 0.43691 0.35091
 H1122 H 0.88757 0.38061 0.44390
 H1123 H 0.92121 0.40721 0.46480
 H1124 H 0.92964 0.44851 0.39087
 C1125 C 0.36776 -0.15676 0.31060
 C1126 C 0.36403 -0.15234 0.33863
 C1127 C 0.34134 -0.16444 0.35119
 C1128 C 0.32340 -0.18030 0.33619
 C1129 C 0.32689 -0.18446 0.30800
 C1130 C 0.34974 -0.17230 0.29578
 C1131 C 0.33627 -0.16042 0.37871
 C1132 C 0.35278 -0.14419 0.39398
 C1133 C 0.37537 -0.13128 0.38236
 C1134 C 0.38166 -0.13602 0.35444
 C1135 C 0.40529 -0.12422 0.34328
 C1136 C 0.42156 -0.10768 0.35843
 C1137 C 0.41492 -0.10195 0.38523
 C1138 C 0.39180 -0.11369 0.39768
 C1139 C 0.38571 -0.10682 0.42478
 C1140 C 0.40154 -0.08885 0.43853
 C1141 C 0.42411 -0.07717 0.42601
 C1142 C 0.43101 -0.08411 0.39948
 H1143 H 0.38439 -0.14840 0.29926
 H1144 H 0.30569 -0.18804 0.34668
 H1145 H 0.35510 -0.17542 0.27478
 H1146 H 0.31908 -0.16977 0.38858
 H1147 H 0.34727 -0.14232 0.41504
 H1148 H 0.41199 -0.12743 0.32276
 H1149 H 0.43934 -0.09897 0.34887
 H1150 H 0.36846 -0.11446 0.43584
 H1151 H 0.39579 -0.08387 0.45907
 H1152 H 0.44839 -0.07508 0.38958
 C1153 C 0.32358 0.33108 -0.12569
 C1154 C 0.35143 0.33780 -0.13201
 C1155 C 0.36290 0.32804 -0.15623
 C1156 C 0.34715 0.31193 -0.17294
 C1157 C 0.31952 0.30569 -0.16648
 C1158 C 0.30799 0.31537 -0.14269
 C1159 C 0.38987 0.33468 -0.16391
 C1160 C 0.40541 0.35170 -0.14873
 C1161 C 0.39471 0.36246 -0.12482
 C1162 C 0.36787 0.35444 -0.11562
 C1163 C 0.35835 0.36333 -0.09035
 C1164 C 0.37358 0.38066 -0.07541
 C1165 C 0.39870 0.39005 -0.08510
 C1166 C 0.40985 0.38105 -0.10982
 C1167 C 0.43523 0.39169 -0.11886
 C1168 C 0.44846 0.41070 -0.10418
 C1169 C 0.43700 0.41961 -0.08003
 C1170 C 0.41242 0.40886 -0.07036
 H1171 H 0.31280 0.33825 -0.10827
 H1172 H 0.35641 0.30434 -0.19117
 H1173 H 0.28649 0.31132 -0.13749
 H1174 H 0.39888 0.32703 -0.18223
 H1175 H 0.42598 0.35587 -0.15621
 H1176 H 0.33920 0.35706 -0.08132
 H1177 H 0.36526 0.38718 -0.05627
 H1178 H 0.44499 0.38634 -0.13759
 H1179 H 0.46748 0.41876 -0.11205
 H1180 H 0.40340 0.41565 -0.05164
 C1181 C 1.16889 -0.16962 0.11993
 C1182 C 1.14674 -0.15543 0.13078
 C1183 C 1.13965 -0.15960 0.15829
 C1184 C 1.15512 -0.17626 0.17440
 C1185 C 1.17759 -0.18958 0.16359
 C1186 C 1.18393 -0.18634 0.13607
 C1187 C 1.11734 -0.14693 0.16979
 C1188 C 1.10169 -0.13018 0.15465
 C1189 C 1.10807 -0.12498 0.12730
 C1190 C 1.13144 -0.13731 0.11537
 C1191 C 1.13919 -0.13060 0.08878
 C1192 C 1.12465 -0.11255 0.07430
 C1193 C 1.10139 -0.10085 0.08535
 C1194 C 1.09233 -0.10732 0.11175
 C1195 C 1.06778 -0.09583 0.12144
 C1196 C 1.05369 -0.07801 0.10611
 C1197 C 1.06343 -0.07089 0.08060
 C1198 C 1.08718 -0.08258 0.07017
 H1199 H 1.17495 -0.16849 0.09896
 H1200 H 1.15000 -0.17836 0.19566
 H1201 H 1.20058 -0.19689 0.12683
 H1202 H 1.11186 -0.14999 0.19084
 H1203 H 1.08514 -0.12102 0.16537
 H1204 H 1.15703 -0.13846 0.07877
 H1205 H 1.13169 -0.10774 0.05414
 H1206 H 1.05860 -0.10037 0.14066
 H1207 H 1.03515 -0.06956 0.11452
 H1208 H 1.09461 -0.07748 0.05024
 C1209 C 1.16219 0.31924 0.63506
 C1210 C 1.15108 0.34222 0.64372
 C1211 C 1.15397 0.34840 0.67170
 C1212 C 1.16699 0.33203 0.69001
 C1213 C 1.17801 0.30944 0.68105
 C1214 C 1.17541 0.30326 0.65341
 C1215 C 1.14397 0.37093 0.68136
 C1216 C 1.13131 0.38776 0.66388
 C1217 C 1.12780 0.38259 0.63585
 C1218 C 1.13738 0.35925 0.62567
 C1219 C 1.13257 0.35357 0.59791
 C1220 C 1.11879 0.36995 0.58069
 C1221 C 1.10958 0.39281 0.59021
 C1222 C 1.11440 0.39975 0.61775
 C1223 C 1.10540 0.42359 0.62597
 C1224 C 1.09100 0.43912 0.60799
 C1225 C 1.08520 0.43158 0.58122
 C1226 C 1.09509 0.40860 0.57231
 H1227 H 1.16155 0.31316 0.61418
 H1228 H 1.16849 0.33695 0.71139
 H1229 H 1.18422 0.28620 0.64573
 H1230 H 1.14604 0.37571 0.70275
 H1231 H 1.12403 0.40456 0.67322
 H1232 H 1.13868 0.33629 0.58881
 H1233 H 1.11521 0.36458 0.55964
 H1234 H 1.10904 0.43086 0.64615
 H1235 H 1.08388 0.45694 0.61529
 H1236 H 1.09098 0.40272 0.55150
 C1237 C 0.68163 -0.15992 0.62936
 C1238 C 0.65364 -0.15289 0.63468
 C1239 C 0.64098 -0.16283 0.65816
 C1240 C 0.65581 -0.17911 0.67528
 C1241 C 0.68349 -0.18581 0.66968
 C1242 C 0.69616 -0.17606 0.64656
 C1243 C 0.61359 -0.15645 0.66459
 C1244 C 0.59845 -0.14001 0.64855
 C1245 C 0.61010 -0.12926 0.62514
 C1246 C 0.63796 -0.13618 0.61778
 C1247 C 0.64921 -0.12614 0.59382
 C1248 C 0.63422 -0.10942 0.57800
 C1249 C 0.60747 -0.10188 0.58533
 C1250 C 0.59487 -0.11173 0.60890
 C1251 C 0.56769 -0.10324 0.61541
 C1252 C 0.55403 -0.08555 0.59947
 C1253 C 0.56678 -0.07573 0.57647
 C1254 C 0.59338 -0.08422 0.56931
 H1255 H 0.69316 -0.15309 0.61231
 H1256 H 0.64567 -0.18675 0.69296
 H1257 H 0.71769 -0.18057 0.64197
 H1258 H 0.60375 -0.16412 0.68241
 H1259 H 0.57749 -0.13619 0.65515
 H1260 H 0.66968 -0.13085 0.58654
 H1261 H 0.64386 -0.10211 0.55989
 H1262 H 0.55644 -0.10952 0.63289
 H1263 H 0.53343 -0.07934 0.60542
 H1264 H 0.60343 -0.07671 0.55152
 C1265 C 0.62285 0.33530 0.17077
 C1266 C 0.63095 0.34336 0.14467
 C1267 C 0.65666 0.33437 0.13447
 C1268 C 0.67322 0.31791 0.14982
 C1269 C 0.66506 0.31046 0.17582
 C1270 C 0.63966 0.31926 0.18597
 C1271 C 0.66600 0.34216 0.10918
 C1272 C 0.65096 0.35943 0.09411
 C1273 C 0.62556 0.36942 0.10358
 C1274 C 0.61485 0.36051 0.12878
 C1275 C 0.58844 0.36909 0.13730
 C1276 C 0.57362 0.38664 0.12254
 C1277 C 0.58448 0.39654 0.09882
 C1278 C 0.61049 0.38807 0.08880
 C1279 C 0.62055 0.39911 0.06471
 C1280 C 0.60551 0.41785 0.05155
 C1281 C 0.58001 0.42617 0.06181
 C1282 C 0.56948 0.41520 0.08527
 H1283 H 0.60410 0.34160 0.18051
 H1284 H 0.69268 0.31107 0.14157
 H1285 H 0.63306 0.31436 0.20622
 H1286 H 0.68550 0.33517 0.10114
 H1287 H 0.65982 0.36447 0.07490
 H1288 H 0.57838 0.36245 0.15530
 H1289 H 0.55355 0.39281 0.13005
 H1290 H 0.64023 0.39413 0.05579
 H1291 H 0.61410 0.42605 0.03342
 H1292 H 0.54971 0.42151 0.09337
 C1293 C 0.86362 0.16205 0.18849
 C1294 C 0.85655 0.15408 0.16172
 C1295 C 0.83153 0.16354 0.14981
 C1296 C 0.81447 0.18000 0.16425
 C1297 C 0.82158 0.18735 0.19085
 C1298 C 0.84640 0.17836 0.20269
 C1299 C 0.82343 0.15641 0.12357
 C1300 C 0.83920 0.13960 0.10893
 C1301 C 0.86397 0.12914 0.11994
 C1302 C 0.87312 0.13687 0.14657
 C1303 C 0.89841 0.12704 0.15719
 C1304 C 0.91386 0.10981 0.14273
 C1305 C 0.90482 0.10153 0.11716
 C1306 C 0.87984 0.11111 0.10527
 C1307 C 0.87159 0.10186 0.07932
 C1308 C 0.88727 0.08379 0.06613
 C1309 C 0.91172 0.07428 0.07813
 C1310 C 0.92055 0.08343 0.10356
 H1311 H 0.88205 0.15581 0.19931
 H1312 H 0.79554 0.18715 0.15469
 H1313 H 0.85227 0.18351 0.22333
 H1314 H 0.80445 0.16376 0.11429
 H1315 H 0.83124 0.13522 0.08887
 H1316 H 0.90698 0.13225 0.17677
 H1317 H 0.93303 0.10269 0.15184
 H1318 H 0.85294 0.10786 0.06869
 H1319 H 0.87999 0.07707 0.04645
 H1320 H 0.93948 0.07617 0.11302
 C1321 C 0.86135 0.67891 0.63766
 C1322 C 0.85968 0.65273 0.63787
 C1323 C 0.84216 0.64161 0.65741
 C1324 C 0.82609 0.65625 0.67494
 C1325 C 0.82768 0.68211 0.67407
 C1326 C 0.84566 0.69326 0.65554
 C1327 C 0.84079 0.61592 0.65945
 C1328 C 0.85695 0.60088 0.64296
 C1329 C 0.87472 0.61098 0.62316
 C1330 C 0.87512 0.63727 0.61975
 C1331 C 0.89055 0.64718 0.59808
 C1332 C 0.90599 0.63211 0.58099
 C1333 C 0.90727 0.60664 0.58514
 C1334 C 0.89191 0.59566 0.60642
 C1335 C 0.89504 0.56986 0.61048
 C1336 C 0.91273 0.55580 0.59417
 C1337 C 0.92753 0.56679 0.57306
 C1338 C 0.92437 0.59216 0.56840
 H1339 H 0.87496 0.68890 0.62430
 H1340 H 0.81258 0.64751 0.68962
 H1341 H 0.84727 0.71323 0.65458
 H1342 H 0.82729 0.60731 0.67422
 H1343 H 0.85449 0.58126 0.64582
 H1344 H 0.89065 0.66662 0.59335
 H1345 H 0.91748 0.64058 0.56461
 H1346 H 0.88491 0.56010 0.62666
 H1347 H 0.91503 0.53623 0.59828
 H1348 H 0.93610 0.60088 0.55232
 C1349 C 0.36476 0.14859 0.68487
 C1350 C 0.35871 0.14291 0.65723
 C1351 C 0.33384 0.15289 0.64555
 C1352 C 0.31630 0.16823 0.66090
 C1353 C 0.32284 0.17383 0.68811
 C1354 C 0.34714 0.16378 0.69991
 C1355 C 0.32652 0.14754 0.61862
 C1356 C 0.34300 0.13206 0.60298
 C1357 C 0.36784 0.12141 0.61362
 C1358 C 0.37620 0.12745 0.64098
 C1359 C 0.40183 0.11792 0.65114
 C1360 C 0.41822 0.10231 0.63561
 C1361 C 0.40980 0.09540 0.60940
 C1362 C 0.38460 0.10488 0.59787
 C1363 C 0.37704 0.09697 0.57121
 C1364 C 0.39356 0.08013 0.55704
 C1365 C 0.41816 0.07068 0.56879
 C1366 C 0.42637 0.07868 0.59482
 H1367 H 0.38270 0.14136 0.69572
 H1368 H 0.29762 0.17606 0.65151
 H1369 H 0.35238 0.16738 0.72108
 H1370 H 0.30763 0.15525 0.60954
 H1371 H 0.33568 0.12898 0.58242
 H1372 H 0.41007 0.12229 0.67110
 H1373 H 0.43761 0.09531 0.64439
 H1374 H 0.35824 0.10297 0.56083
 H1375 H 0.38678 0.07422 0.53689
 H1376 H 0.44540 0.07143 0.60409
 C1377 C 0.37105 0.65355 0.17298
 C1378 C 0.36733 0.64877 0.14482
 C1379 C 0.34517 0.66117 0.13103
 C1380 C 0.32808 0.67801 0.14490
 C1381 C 0.33201 0.68243 0.17283
 C1382 C 0.35365 0.67000 0.18664
 C1383 C 0.33990 0.65651 0.10351
 C1384 C 0.35547 0.63910 0.08947
 C1385 C 0.37745 0.62591 0.10233
 C1386 C 0.38431 0.63167 0.13010
 C1387 C 0.40800 0.62028 0.14217
 C1388 C 0.42368 0.60298 0.12810
 C1389 C 0.41618 0.59599 0.10166
 C1390 C 0.39292 0.60723 0.08834
 C1391 C 0.38574 0.59879 0.06179
 C1392 C 0.40102 0.58008 0.04922
 C1393 C 0.42403 0.56925 0.06248
 C1394 C 0.43168 0.57748 0.08860
 H1395 H 0.38663 0.64433 0.18533
 H1396 H 0.31158 0.68764 0.13389
 H1397 H 0.35677 0.67248 0.20835
 H1398 H 0.32319 0.66613 0.09278
 H1399 H 0.34998 0.63669 0.06829
 H1400 H 0.41535 0.62463 0.16246
 H1401 H 0.44164 0.59467 0.13826
 H1402 H 0.36798 0.60574 0.05042
 H1403 H 0.39464 0.57395 0.02904
 H1404 H 0.44938 0.56905 0.09909
   
