data_POSCAR
  _audit_creation_date              2014-09-24
  _audit_creation_method            'ToBaCCo'
  _symmetry_space_group_name_H-M    'P1'
  _symmetry_Int_Tables_number       1
  _symmetry_cell_setting            triclinic
  loop_
  _symmetry_equiv_pos_as_xyz
 x,y,z
_cell_length_a 61.4407
_cell_length_b 62.5393
_cell_length_c 63.3854
_cell_angle_alpha 90.053700
_cell_angle_beta 90.031200
_cell_angle_gamma 90.039000
loop_
  _atom_site_label
  _atom_site_type_symbol
  _atom_site_fract_x
  _atom_site_fract_y
  _atom_site_fract_z
O1 O 0.34710 0.37712 0.01874
 O2 O 0.37769 0.34844 -0.02230
 O3 O 0.34711 0.37756 -0.02205
 O4 O 0.37743 0.34763 0.01851
 O5 O 0.35204 0.32265 0.01827
 O6 O 0.32228 0.35213 -0.02290
 O7 O 0.35249 0.32326 -0.02292
 O8 O 0.32195 0.35191 0.01833
 Cu9 Cu 0.36485 0.36521 -0.00170
 Cu10 Cu 0.33467 0.33496 -0.00232
 C11 C 0.32924 0.36951 0.02545
 C12 C 0.37035 0.33094 -0.02959
 C13 C 0.32949 0.36997 -0.02949
 C14 C 0.36993 0.32997 0.02526
 O15 O 0.65457 0.62446 0.02127
 O16 O 0.62472 0.65474 -0.01920
 O17 O 0.65464 0.62545 -0.01966
 O18 O 0.62462 0.65423 0.02195
 O19 O 0.64975 0.67942 0.02196
 O20 O 0.68042 0.64992 -0.01850
 O21 O 0.65045 0.67935 -0.01896
 O22 O 0.67949 0.64986 0.02258
 Cu23 Cu 0.63706 0.63723 0.00110
 Cu24 Cu 0.66759 0.66712 0.00183
 C25 C 0.67213 0.63198 0.02883
 C26 C 0.63256 0.67217 -0.02611
 C27 C 0.67278 0.63268 -0.02616
 C28 C 0.63195 0.67190 0.02891
 O29 O 0.65275 0.37878 0.97826
 O30 O 0.62502 0.34788 1.01980
 O31 O 0.65414 0.37807 1.01948
 O32 O 0.62353 0.34828 0.97896
 O33 O 0.65054 0.32511 0.97650
 O34 O 0.67969 0.35337 1.01886
 O35 O 0.65050 0.32315 1.01768
 O36 O 0.67957 0.35531 0.97817
 Cu37 Cu 0.63626 0.36572 0.99920
 Cu38 Cu 0.66765 0.33677 0.99769
 C39 C 0.67110 0.37250 0.97139
 C40 C 0.63290 0.33009 1.02568
 C41 C 0.67213 0.37074 1.02627
 C42 C 0.63192 0.33169 0.97075
 O43 O 0.34758 0.62185 0.97964
 O44 O 0.37607 0.65155 1.02175
 O45 O 0.34676 0.62163 1.02090
 O46 O 0.37721 0.65200 0.98077
 O47 O 0.35075 0.67581 0.97945
 O48 O 0.32136 0.64648 1.02094
 O49 O 0.35083 0.67661 1.02038
 O50 O 0.32141 0.64597 0.97992
 Cu51 Cu 0.36447 0.63426 1.00075
 Cu52 Cu 0.33348 0.66364 1.00016
 C53 C 0.32949 0.62877 0.97270
 C54 C 0.36843 0.66932 1.02803
 C55 C 0.32890 0.62895 1.02799
 C56 C 0.36916 0.66908 0.97324
 O57 O 0.01957 0.34741 0.37894
 O58 O -0.02091 0.37761 0.34846
 O59 O -0.02267 0.34839 0.37797
 O60 O 0.02121 0.37609 0.34899
 O61 O 0.01967 0.35133 0.32424
 O62 O -0.02182 0.32234 0.35455
 O63 O -0.02270 0.35130 0.32524
 O64 O 0.02045 0.32271 0.35405
 Cu65 Cu -0.00067 0.36493 0.36603
 Cu66 Cu -0.00112 0.33437 0.33710
 C67 C 0.02705 0.32999 0.37166
 C68 C -0.02882 0.36954 0.33175
 C69 C -0.02952 0.33037 0.37139
 C70 C 0.02765 0.36860 0.33142
 O71 O 0.02066 0.65156 0.61896
 O72 O -0.02008 0.62208 0.65002
 O73 O -0.02173 0.65094 0.62037
 O74 O 0.02208 0.62277 0.64893
 O75 O 0.02130 0.64765 0.67360
 O76 O -0.01990 0.67729 0.64341
 O77 O -0.02100 0.64847 0.67315
 O78 O 0.02234 0.67623 0.64384
 Cu79 Cu 0.00021 0.63430 0.63213
 Cu80 Cu 0.00070 0.66497 0.66090
 C81 C 0.02862 0.66883 0.62620
 C82 C -0.02761 0.63030 0.66682
 C83 C -0.02808 0.66917 0.62680
 C84 C 0.02885 0.63019 0.66642
 O85 O 1.02309 0.62253 0.34784
 O86 O 0.98114 0.65190 0.37767
 O87 O 0.98084 0.62201 0.34873
 O88 O 1.02363 0.65191 0.37678
 O89 O 1.02337 0.67631 0.35172
 O90 O 0.97909 0.64749 0.32470
 O91 O 0.98114 0.67711 0.35336
 O92 O 1.02128 0.64676 0.32259
 Cu93 Cu 1.00220 0.63463 0.36527
 Cu94 Cu 1.00118 0.66441 0.33564
 C95 C 1.02911 0.62951 0.32995
 C96 C 0.97412 0.66966 0.37069
 C97 C 0.97264 0.62964 0.33194
 C98 C 1.03101 0.66918 0.36899
 O99 O 0.97664 0.34774 0.62277
 O100 O 1.01875 0.37701 0.65265
 O101 O 1.01919 0.34777 0.62336
 O102 O 0.97626 0.37721 0.65182
 O103 O 0.97538 0.35182 0.67592
 O104 O 1.01910 0.32312 0.64816
 O105 O 1.01751 0.35238 0.67754
 O106 O 0.97693 0.32230 0.64688
 Cu107 Cu 0.99776 0.36494 0.63518
 Cu108 Cu 0.99719 0.33490 0.66456
 C109 C 0.96975 0.32990 0.62966
 C110 C 1.02512 0.36979 0.67034
 C111 C 1.02656 0.33038 0.63089
 C112 C 0.96844 0.36952 0.66875
 O113 O 0.37847 0.02267 0.34602
 O114 O 0.34946 -0.01823 0.37707
 O115 O 0.37818 -0.01908 0.34695
 O116 O 0.34969 0.02352 0.37633
 O117 O 0.32354 0.02333 0.35248
 O118 O 0.35156 -0.01958 0.32360
 O119 O 0.32275 -0.01799 0.35376
 O120 O 0.35221 0.02197 0.32230
 Cu121 Cu 0.36662 0.00228 0.36395
 Cu122 Cu 0.33491 0.00190 0.33565
 C123 C 0.37033 0.02923 0.32876
 C124 C 0.33104 -0.02495 0.37077
 C125 C 0.36967 -0.02667 0.33027
 C126 C 0.33167 0.03066 0.36944
 O127 O 0.64952 -0.02204 0.62173
 O128 O 0.62024 0.01918 0.65208
 O129 O 0.64910 0.01987 0.62173
 O130 O 0.62083 -0.02225 0.65191
 O131 O 0.64685 -0.02116 0.67588
 O132 O 0.67605 0.01927 0.64475
 O133 O 0.64731 0.02041 0.67495
 O134 O 0.67551 -0.02214 0.64575
 Cu135 Cu 0.63231 -0.00129 0.63443
 Cu136 Cu 0.66407 -0.00085 0.66269
 C137 C 0.66744 -0.02931 0.62870
 C138 C 0.62878 0.02681 0.66872
 C139 C 0.66755 0.02656 0.62798
 C140 C 0.62892 -0.02874 0.66922
 O141 O 0.34731 1.02004 0.62514
 O142 O 0.37722 0.98026 0.65654
 O143 O 0.34810 0.97856 0.62650
 O144 O 0.37641 1.02176 0.65510
 O145 O 0.35082 1.02120 0.67949
 O146 O 0.32140 0.97976 0.64972
 O147 O 0.35039 0.97958 0.67968
 O148 O 0.32184 1.02136 0.64966
 Cu149 Cu 0.36489 1.00010 0.63842
 Cu150 Cu 0.33349 1.00049 0.66703
 C151 C 0.32955 1.02762 0.63214
 C152 C 0.36885 0.97304 0.67342
 C153 C 0.32973 0.97200 0.63305
 C154 C 0.36857 1.02870 0.67234
 O155 O 0.65034 1.02098 0.37550
 O156 O 0.62099 0.97866 0.34682
 O157 O 0.65035 0.97937 0.37686
 O158 O 0.62130 1.01991 0.34542
 O159 O 0.64793 1.01960 0.32206
 O160 O 0.67603 0.97781 0.35257
 O161 O 0.64701 0.97791 0.32284
 O162 O 0.67688 1.01945 0.35218
 Cu163 Cu 0.63316 0.99981 0.36358
 Cu164 Cu 0.66459 0.99863 0.33504
 C165 C 0.66875 1.02739 0.36889
 C166 C 0.62885 0.97124 0.32979
 C167 C 0.66810 0.97157 0.37001
 C168 C 0.62965 1.02665 0.32834
 C169 C 0.81858 0.79139 0.48771
 C170 C 0.81795 0.79003 0.50993
 C171 C 0.80337 0.80282 0.52125
 C172 C 0.78968 0.81747 0.51098
 C173 C 0.79038 0.81905 0.48865
 C174 C 0.80469 0.80577 0.47735
 H175 H 0.80541 0.80698 0.46030
 H176 H 0.80313 0.80177 0.53833
 C177 C 0.17812 0.20679 0.49160
 C178 C 0.17868 0.20644 0.51395
 C179 C 0.19290 0.19229 0.52418
 C180 C 0.20655 0.17844 0.51282
 C181 C 0.20635 0.17915 0.49048
 C182 C 0.19215 0.19332 0.48024
 H183 H 0.19175 0.19358 0.46314
 H184 H 0.19306 0.19178 0.54128
 C185 C 0.18126 0.79276 0.50856
 C186 C 0.18302 0.79264 0.48624
 C187 C 0.19760 0.80678 0.47643
 C188 C 0.21012 0.82120 0.48821
 C189 C 0.20861 0.82120 0.51044
 C190 C 0.19428 0.80691 0.52031
 H191 H 0.19295 0.80709 0.53737
 H192 H 0.19882 0.80696 0.45936
 C193 C 0.81551 0.20896 0.51076
 C194 C 0.81716 0.20791 0.48853
 C195 C 0.80386 0.19354 0.47741
 C196 C 0.78933 0.17992 0.48793
 C197 C 0.78774 0.18105 0.51017
 C198 C 0.80050 0.19586 0.52129
 H199 H 0.79976 0.19624 0.53838
 H200 H 0.80492 0.19287 0.46034
 C201 C 0.48806 0.82528 0.80000
 C202 C 0.51110 0.82474 0.79915
 C203 C 0.52243 0.81072 0.81243
 C204 C 0.51151 0.79722 0.82656
 C205 C 0.48846 0.79759 0.82734
 C206 C 0.47709 0.81148 0.81386
 H207 H 0.45949 0.81220 0.81482
 H208 H 0.54005 0.81018 0.81166
 C209 C 0.48933 0.17425 0.19837
 C210 C 0.51238 0.17335 0.19831
 C211 C 0.52400 0.18694 0.18476
 C212 C 0.51332 0.20107 0.17102
 C213 C 0.49026 0.20150 0.17060
 C214 C 0.47865 0.18820 0.18445
 H215 H 0.46100 0.18855 0.18427
 H216 H 0.54164 0.18640 0.18476
 C217 C 0.51303 0.17498 0.79808
 C218 C 0.49000 0.17656 0.79763
 C219 C 0.47955 0.19114 0.81109
 C220 C 0.49140 0.20421 0.82496
 C221 C 0.51436 0.20280 0.82516
 C222 C 0.52486 0.18824 0.81183
 H223 H 0.54247 0.18709 0.81233
 H224 H 0.46194 0.19217 0.81091
 C225 C 0.50859 0.82137 0.20597
 C226 C 0.48555 0.81987 0.20672
 C227 C 0.47485 0.80550 0.19320
 C228 C 0.48645 0.79288 0.17882
 C229 C 0.50940 0.79409 0.17824
 C230 C 0.52016 0.80825 0.19190
 H231 H 0.53776 0.80937 0.19127
 H232 H 0.45723 0.80450 0.19348
 C233 C 0.79150 0.49296 0.82035
 C234 C 0.79310 0.51549 0.82075
 C235 C 0.80745 0.52572 0.80682
 C236 C 0.82042 0.51401 0.79267
 C237 C 0.81856 0.49140 0.79214
 C238 C 0.80394 0.48125 0.80590
 H239 H 0.80265 0.46395 0.80578
 H240 H 0.80886 0.54300 0.80731
 C241 C 0.20521 0.48733 0.17626
 C242 C 0.20600 0.50997 0.17762
 C243 C 0.19267 0.52049 0.19231
 C244 C 0.17844 0.50912 0.20540
 C245 C 0.17783 0.48656 0.20433
 C246 C 0.19130 0.47598 0.18983
 H247 H 0.19063 0.45868 0.18883
 H248 H 0.19297 0.53781 0.19323
 C249 C 0.79880 0.51095 0.17466
 C250 C 0.79908 0.48827 0.17406
 C251 C 0.81299 0.47713 0.18772
 C252 C 0.82637 0.48793 0.20205
 C253 C 0.82600 0.51052 0.20293
 C254 C 0.81208 0.52171 0.18929
 H255 H 0.81220 0.53905 0.18953
 H256 H 0.81320 0.45979 0.18741
 C257 C 0.20565 0.51083 0.82109
 C258 C 0.20577 0.48813 0.82124
 C259 C 0.19216 0.47704 0.80713
 C260 C 0.17795 0.48794 0.79358
 C261 C 0.17761 0.51053 0.79363
 C262 C 0.19159 0.52164 0.80727
 H263 H 0.19157 0.53898 0.80708
 H264 H 0.19179 0.45970 0.80741
 C265 C 0.29212 0.40450 0.07136
 C266 C 0.28996 0.38219 0.06973
 C267 C 0.30196 0.37078 0.05474
 C268 C 0.31670 0.38142 0.04146
 C269 C 0.31912 0.40367 0.04334
 C270 C 0.30676 0.41513 0.05798
 C271 C 0.27908 0.41666 0.08683
 N272 N 0.27414 0.43753 0.08337
 N273 N 0.26233 0.44851 0.09726
 C274 C 0.25516 0.43911 0.11527
 N275 N 0.26017 0.41827 0.11878
 N276 N 0.27181 0.40723 0.10478
 C277 C 0.24225 0.45136 0.13077
 C278 C 0.24245 0.44563 0.15219
 C279 C 0.23056 0.45745 0.16692
 C280 C 0.21800 0.47504 0.16049
 C281 C 0.21732 0.48039 0.13897
 C282 C 0.22962 0.46889 0.12431
 H283 H 0.27872 0.37360 0.07980
 H284 H 0.29984 0.35362 0.05363
 H285 H 0.33029 0.41228 0.03321
 H286 H 0.30883 0.43230 0.05898
 H287 H 0.25209 0.43223 0.15761
 H288 H 0.23129 0.45296 0.18341
 H289 H 0.20727 0.49347 0.13351
 H290 H 0.22895 0.47347 0.10785
 C291 C 0.70864 0.59597 0.07433
 C292 C 0.69446 0.58558 0.06027
 C293 C 0.68220 0.59735 0.04581
 C294 C 0.68427 0.61969 0.04481
 C295 C 0.69844 0.63009 0.05887
 C296 C 0.71033 0.61836 0.07367
 C297 C 0.72187 0.58348 0.08935
 N298 N 0.72880 0.59230 0.10776
 N299 N 0.74087 0.58104 0.12121
 C300 C 0.74670 0.56060 0.11667
 N301 N 0.73984 0.55182 0.09823
 N302 N 0.72758 0.56300 0.08488
 C303 C 0.76026 0.54816 0.13145
 C304 C 0.77366 0.53164 0.12394
 C305 C 0.78651 0.51985 0.13789
 C306 C 0.78565 0.52386 0.15969
 C307 C 0.77241 0.54052 0.16716
 C308 C 0.75994 0.55266 0.15315
 H309 H 0.69277 0.56834 0.06053
 H310 H 0.67146 0.58894 0.03508
 H311 H 0.70027 0.64732 0.05846
 H312 H 0.72120 0.62676 0.08428
 H313 H 0.77445 0.52804 0.10725
 H314 H 0.79708 0.50753 0.13165
 H315 H 0.77154 0.54398 0.18389
 H316 H 0.74973 0.56530 0.15935
 C317 C 0.70595 0.40994 0.92570
 C318 C 0.71704 0.39583 0.93915
 C319 C 0.70563 0.38350 0.95379
 C320 C 0.68293 0.38534 0.95558
 C321 C 0.67181 0.39958 0.94227
 C322 C 0.68320 0.41160 0.92728
 C323 C 0.71817 0.42283 0.91017
 N324 N 0.70849 0.42992 0.89222
 N325 N 0.71973 0.44120 0.87810
 C326 C 0.74102 0.44600 0.88148
 N327 N 0.75063 0.43903 0.89950
 N328 N 0.73946 0.42760 0.91351
 C329 C 0.75363 0.45834 0.86581
 C330 C 0.77214 0.46994 0.87210
 C331 C 0.78429 0.48138 0.85730
 C332 C 0.77833 0.48114 0.83596
 C333 C 0.76000 0.46946 0.82956
 C334 C 0.74756 0.45835 0.84442
 H335 H 0.73456 0.39414 0.93821
 H336 H 0.71463 0.37272 0.96392
 H337 H 0.65430 0.40124 0.94331
 H338 H 0.67425 0.42241 0.91715
 H339 H 0.77714 0.47030 0.88848
 H340 H 0.79846 0.49029 0.86244
 H341 H 0.75524 0.46913 0.81310
 H342 H 0.73345 0.44944 0.83913
 C343 C 0.29431 0.59405 0.92481
 C344 C 0.28532 0.61234 0.93430
 C345 C 0.29682 0.62359 0.94972
 C346 C 0.31758 0.61681 0.95614
 C347 C 0.32667 0.59856 0.94664
 C348 C 0.31517 0.58732 0.93109
 C349 C 0.28176 0.58205 0.90868
 N350 N 0.29082 0.56553 0.89786
 N351 N 0.27930 0.55470 0.88355
 C352 C 0.25824 0.55993 0.87951
 N353 N 0.24924 0.57646 0.89030
 N354 N 0.26074 0.58729 0.90454
 C355 C 0.24512 0.54770 0.86399
 C356 C 0.22260 0.55134 0.86230
 C357 C 0.20998 0.53951 0.84819
 C358 C 0.21954 0.52380 0.83539
 C359 C 0.24211 0.52045 0.83664
 C360 C 0.25477 0.53218 0.85091
 H361 H 0.26933 0.61804 0.92984
 H362 H 0.28933 0.63758 0.95671
 H363 H 0.34265 0.59294 0.95122
 H364 H 0.32256 0.57329 0.92413
 H365 H 0.21461 0.56313 0.87211
 H366 H 0.19260 0.54234 0.84755
 H367 H 0.24987 0.50859 0.82671
 H368 H 0.27208 0.52908 0.85171
 C369 C 0.07360 0.29421 0.40775
 C370 C 0.07277 0.29207 0.38570
 C371 C 0.05758 0.30365 0.37392
 C372 C 0.04331 0.31794 0.38395
 C373 C 0.04443 0.32037 0.40595
 C374 C 0.05927 0.30844 0.41777
 C375 C 0.08918 0.28153 0.42029
 N376 N 0.08481 0.27656 0.44071
 N377 N 0.09874 0.26492 0.45198
 C378 C 0.11768 0.25797 0.44335
 N379 N 0.12210 0.26304 0.42297
 N380 N 0.10808 0.27451 0.41163
 C381 C 0.13310 0.24506 0.45583
 C382 C 0.15539 0.24515 0.45095
 C383 C 0.16999 0.23297 0.46279
 C384 C 0.16255 0.22022 0.47953
 C385 C 0.14019 0.21979 0.48413
 C386 C 0.12565 0.23236 0.47261
 H387 H 0.08359 0.28114 0.37760
 H388 H 0.05707 0.30153 0.35697
 H389 H 0.03353 0.33121 0.41408
 H390 H 0.05964 0.31048 0.43473
 H391 H 0.16157 0.25486 0.43814
 H392 H 0.18715 0.23353 0.45892
 H393 H 0.13395 0.20963 0.49656
 H394 H 0.10850 0.23180 0.47654
 C395 C 0.07583 0.70401 0.59021
 C396 C 0.06135 0.68992 0.58013
 C397 C 0.04630 0.67813 0.59188
 C398 C 0.04513 0.68058 0.61388
 C399 C 0.05956 0.69471 0.62396
 C400 C 0.07493 0.70614 0.61226
 C401 C 0.09162 0.71664 0.57780
 N402 N 0.11030 0.72388 0.58678
 N403 N 0.12443 0.73544 0.57567
 C404 C 0.12036 0.74042 0.55519
 N405 N 0.10165 0.73323 0.54622
 N406 N 0.08760 0.72149 0.55728
 C407 C 0.13590 0.75356 0.54302
 C408 C 0.12876 0.76587 0.52583
 C409 C 0.14339 0.77875 0.51472
 C410 C 0.16556 0.77903 0.52015
 C411 C 0.17269 0.76666 0.53729
 C412 C 0.15799 0.75416 0.54870
 H413 H 0.06177 0.68790 0.56316
 H414 H 0.03529 0.66742 0.58371
 H415 H 0.05903 0.69685 0.64091
 H416 H 0.08583 0.71695 0.62043
 H417 H 0.11177 0.76591 0.52127
 H418 H 0.13736 0.78859 0.50195
 H419 H 0.18969 0.76665 0.54183
 H420 H 0.16395 0.74478 0.56184
 C421 C 0.92648 0.70559 0.40573
 C422 C 0.93662 0.71442 0.38787
 C423 C 0.95198 0.70269 0.37650
 C424 C 0.95771 0.68190 0.38279
 C425 C 0.94764 0.67305 0.40066
 C426 C 0.93212 0.68474 0.41197
 C427 C 0.91020 0.71815 0.41773
 N428 N 0.89813 0.70893 0.43320
 N429 N 0.88350 0.72029 0.44393
 C430 C 0.88038 0.74136 0.43969
 N431 N 0.89247 0.75057 0.42424
 N432 N 0.90704 0.73920 0.41348
 C433 C 0.86425 0.75408 0.45171
 C434 C 0.86339 0.77644 0.44949
 C435 C 0.84843 0.78849 0.46107
 C436 C 0.83402 0.77844 0.47506
 C437 C 0.83452 0.75610 0.47699
 C438 C 0.84958 0.74403 0.46555
 H439 H 0.93263 0.73040 0.38257
 H440 H 0.95946 0.71000 0.36282
 H441 H 0.95169 0.65706 0.40588
 H442 H 0.92466 0.67748 0.42568
 H443 H 0.87444 0.78470 0.43898
 H444 H 0.84831 0.80572 0.45935
 H445 H 0.82320 0.74797 0.48733
 H446 H 0.84965 0.72684 0.46749
 C447 C 0.92221 0.29421 0.59436
 C448 C 0.92392 0.31647 0.59183
 C449 C 0.93952 0.32810 0.60315
 C450 C 0.95334 0.31774 0.61753
 C451 C 0.95141 0.29553 0.62026
 C452 C 0.93617 0.28386 0.60863
 C453 C 0.90614 0.28174 0.58208
 N454 N 0.90953 0.26066 0.57814
 N455 N 0.89518 0.24936 0.56700
 C456 C 0.87675 0.25862 0.55951
 N457 N 0.87329 0.27968 0.56354
 N458 N 0.88775 0.29105 0.57452
 C459 C 0.86092 0.24598 0.54711
 C460 C 0.83887 0.25194 0.54624
 C461 C 0.82395 0.23971 0.53470
 C462 C 0.83098 0.22169 0.52344
 C463 C 0.85296 0.21576 0.52420
 C464 C 0.86778 0.22769 0.53606
 H465 H 0.91344 0.32485 0.58087
 H466 H 0.94062 0.34522 0.60081
 H467 H 0.96192 0.28712 0.63118
 H468 H 0.93516 0.26674 0.61097
 H469 H 0.83312 0.26589 0.55470
 H470 H 0.80700 0.24445 0.53425
 H471 H 0.85860 0.20184 0.51562
 H472 H 0.88467 0.22277 0.53636
 C473 C 0.40459 0.07564 0.29109
 C474 C 0.41227 0.07009 0.31126
 C475 C 0.40116 0.05506 0.32354
 C476 C 0.38204 0.04535 0.31597
 C477 C 0.37426 0.05106 0.29591
 C478 C 0.38542 0.06597 0.28360
 C479 C 0.41659 0.09115 0.27777
 N480 N 0.41070 0.09436 0.25736
 N481 N 0.42164 0.10799 0.24521
 C482 C 0.43891 0.11906 0.25295
 N483 N 0.44476 0.11594 0.27340
 N484 N 0.43384 0.10226 0.28554
 C485 C 0.45134 0.13384 0.23921
 C486 C 0.46755 0.14725 0.24764
 C487 C 0.47961 0.16074 0.23449
 C488 C 0.47591 0.16083 0.21262
 C489 C 0.45947 0.14777 0.20423
 C490 C 0.44730 0.13443 0.21737
 H491 H 0.42700 0.07720 0.31751
 H492 H 0.40755 0.05103 0.33896
 H493 H 0.35959 0.04388 0.28960
 H494 H 0.37899 0.06990 0.26818
 H495 H 0.47097 0.14732 0.26440
 H496 H 0.49199 0.17094 0.24133
 H497 H 0.45636 0.14757 0.18741
 H498 H 0.43496 0.12433 0.21033
 C499 C 0.59408 0.07271 0.70629
 C500 C 0.58281 0.05895 0.69257
 C501 C 0.59414 0.04438 0.67996
 C502 C 0.61693 0.04299 0.68117
 C503 C 0.62820 0.05677 0.69487
 C504 C 0.61691 0.07164 0.70714
 C505 C 0.58209 0.08788 0.71986
 N506 N 0.59187 0.10592 0.72715
 N507 N 0.58110 0.11952 0.73949
 C508 C 0.56020 0.11553 0.74522
 N509 N 0.55044 0.09745 0.73800
 N510 N 0.56115 0.08394 0.72550
 C511 C 0.54829 0.13059 0.75897
 C512 C 0.53081 0.12348 0.77141
 C513 C 0.51961 0.13775 0.78445
 C514 C 0.52522 0.15953 0.78477
 C515 C 0.54279 0.16659 0.77245
 C516 C 0.55431 0.15225 0.75978
 H517 H 0.56523 0.05950 0.69152
 H518 H 0.58505 0.03387 0.66961
 H519 H 0.64578 0.05606 0.69606
 H520 H 0.62601 0.08201 0.71763
 H521 H 0.52601 0.10681 0.77130
 H522 H 0.50650 0.13179 0.79423
 H523 H 0.54746 0.18330 0.77247
 H524 H 0.56768 0.15818 0.75032
 C525 C 0.40395 0.92747 0.71097
 C526 C 0.41506 0.94114 0.69708
 C527 C 0.40359 0.95565 0.68456
 C528 C 0.38084 0.95709 0.68602
 C529 C 0.36971 0.94346 0.69993
 C530 C 0.38114 0.92862 0.71213
 C531 C 0.41612 0.91231 0.72436
 N532 N 0.40654 0.89417 0.73160
 N533 N 0.41757 0.88053 0.74369
 C534 C 0.43853 0.88461 0.74919
 N535 N 0.44807 0.90279 0.74202
 N536 N 0.43712 0.91633 0.72978
 C537 C 0.45080 0.86954 0.76260
 C538 C 0.46831 0.87681 0.77493
 C539 C 0.48008 0.86256 0.78745
 C540 C 0.47504 0.84065 0.78736
 C541 C 0.45733 0.83342 0.77528
 C542 C 0.44523 0.84776 0.76311
 H543 H 0.43262 0.94052 0.69580
 H544 H 0.41257 0.96604 0.67402
 H545 H 0.35216 0.94420 0.70131
 H546 H 0.37218 0.91832 0.72276
 H547 H 0.47276 0.89357 0.77508
 H548 H 0.49324 0.86863 0.79712
 H549 H 0.45306 0.81662 0.77504
 H550 H 0.43182 0.84173 0.75374
 C551 C 0.59287 0.92489 0.29382
 C552 C 0.61563 0.92612 0.29205
 C553 C 0.62736 0.94119 0.30375
 C554 C 0.61659 0.95497 0.31779
 C555 C 0.59388 0.95344 0.31988
 C556 C 0.58211 0.93870 0.30784
 C557 C 0.58038 0.90948 0.28091
 N558 N 0.55922 0.91331 0.27597
 N559 N 0.54802 0.89958 0.26410
 C560 C 0.55747 0.88137 0.25686
 N561 N 0.57859 0.87749 0.26190
 N562 N 0.58985 0.89132 0.27360
 C563 C 0.54503 0.86611 0.24376
 C564 C 0.55085 0.84440 0.24319
 C565 C 0.53889 0.82991 0.23103
 C566 C 0.52106 0.83688 0.21900
 C567 C 0.51562 0.85870 0.21911
 C568 C 0.52726 0.87311 0.23164
 H569 H 0.62433 0.91572 0.28130
 H570 H 0.64486 0.94201 0.30188
 H571 H 0.58517 0.96395 0.33052
 H572 H 0.56459 0.93803 0.30960
 H573 H 0.56444 0.83856 0.25241
 H574 H 0.54346 0.81319 0.23113
 H575 H 0.50234 0.86459 0.20950
 H576 H 0.52260 0.88981 0.23157
 C577 C 0.40704 0.29609 0.92413
 C578 C 0.41755 0.31003 0.93822
 C579 C 0.40554 0.32172 0.95296
 C580 C 0.38286 0.31928 0.95421
 C581 C 0.37233 0.30534 0.94014
 C582 C 0.38430 0.29404 0.92505
 C583 C 0.41983 0.28336 0.90893
 N584 N 0.41091 0.27675 0.89042
 N585 N 0.42238 0.26492 0.87693
 C586 C 0.44312 0.25904 0.88154
 N587 N 0.45201 0.26563 0.90005
 N588 N 0.44063 0.27765 0.91343
 C589 C 0.45562 0.24531 0.86698
 C590 C 0.47156 0.23138 0.87488
 C591 C 0.48299 0.21790 0.86129
 C592 C 0.47930 0.21862 0.83943
 C593 C 0.46334 0.23255 0.83152
 C594 C 0.45148 0.24567 0.84519
 H595 H 0.43507 0.31197 0.93779
 H596 H 0.41405 0.33231 0.96370
 H597 H 0.35484 0.30325 0.94074
 H598 H 0.37581 0.28331 0.91443
 H599 H 0.47478 0.23050 0.89166
 H600 H 0.49446 0.20665 0.86791
 H601 H 0.46009 0.23327 0.81474
 H602 H 0.43926 0.25627 0.83871
 C603 C 0.59775 0.70790 0.92667
 C604 C 0.59048 0.68752 0.93284
 C605 C 0.60181 0.67588 0.94812
 C606 C 0.62072 0.68430 0.95747
 C607 C 0.62812 0.70455 0.95113
 C608 C 0.61674 0.71623 0.93595
 C609 C 0.58545 0.72060 0.91096
 N610 N 0.59098 0.74123 0.90701
 N611 N 0.57972 0.75286 0.89325
 C612 C 0.56247 0.74437 0.88278
 N613 N 0.55698 0.72369 0.88663
 N614 N 0.56823 0.71205 0.90045
 C615 C 0.54971 0.75760 0.86787
 C616 C 0.53348 0.74841 0.85506
 C617 C 0.52124 0.76114 0.84134
 C618 C 0.52480 0.78330 0.84042
 C619 C 0.54117 0.79242 0.85297
 C620 C 0.55351 0.77972 0.86653
 H621 H 0.57591 0.68064 0.92604
 H622 H 0.59572 0.66029 0.95264
 H623 H 0.64263 0.71150 0.95802
 H624 H 0.62285 0.73185 0.93153
 H625 H 0.53024 0.73141 0.85561
 H626 H 0.50889 0.75375 0.83156
 H627 H 0.54416 0.80949 0.85253
 H628 H 0.56583 0.78735 0.87617
 C629 C 0.40325 0.70589 0.07454
 C630 C 0.40601 0.68362 0.07329
 C631 C 0.39477 0.67170 0.05810
 C632 C 0.38021 0.68178 0.04421
 C633 C 0.37718 0.70398 0.04571
 C634 C 0.38876 0.71595 0.06058
 C635 C 0.41556 0.71864 0.09014
 N636 N 0.41974 0.73965 0.08659
 N637 N 0.43096 0.75117 0.10053
 C638 C 0.43829 0.74220 0.11869
 N639 N 0.43403 0.72121 0.12231
 N640 N 0.42298 0.70963 0.10826
 C641 C 0.45067 0.75507 0.13415
 C642 C 0.45091 0.74942 0.15561
 C643 C 0.46233 0.76188 0.17023
 C644 C 0.47410 0.77983 0.16351
 C645 C 0.47404 0.78543 0.14211
 C646 C 0.46228 0.77325 0.12756
 H647 H 0.41714 0.67547 0.08381
 H648 H 0.39735 0.65459 0.05732
 H649 H 0.36613 0.71217 0.03514
 H650 H 0.38624 0.73307 0.06125
 H651 H 0.44202 0.73556 0.16113
 H652 H 0.46223 0.75741 0.18673
 H653 H 0.48303 0.79930 0.13672
 H654 H 0.46246 0.77792 0.11111
 C655 C 0.59899 0.29250 0.07215
 C656 C 0.59193 0.31327 0.06718
 C657 C 0.60298 0.32550 0.05216
 C658 C 0.62142 0.31728 0.04185
 C659 C 0.62863 0.29661 0.04698
 C660 C 0.61751 0.28434 0.06191
 C661 C 0.58693 0.27929 0.08765
 N662 N 0.59210 0.25838 0.09054
 N663 N 0.58102 0.24637 0.10415
 C664 C 0.56432 0.25474 0.11549
 N665 N 0.55921 0.27568 0.11268
 N666 N 0.57027 0.28769 0.09903
 C667 C 0.55170 0.24119 0.13026
 C668 C 0.53593 0.25023 0.14366
 C669 C 0.52371 0.23730 0.15718
 C670 C 0.52680 0.21506 0.15736
 C671 C 0.54276 0.20605 0.14428
 C672 C 0.55510 0.21897 0.13088
 H673 H 0.57772 0.32005 0.07474
 H674 H 0.59704 0.34139 0.04860
 H675 H 0.64277 0.28981 0.03931
 H676 H 0.62344 0.26843 0.06538
 H677 H 0.53300 0.26730 0.14369
 H678 H 0.51169 0.24461 0.16739
 H679 H 0.54541 0.18893 0.14416
 H680 H 0.56708 0.21146 0.12079
 C681 C 0.29424 0.07405 0.59587
 C682 C 0.29190 0.07320 0.61790
 C683 C 0.30331 0.05803 0.62969
 C684 C 0.31765 0.04376 0.61972
 C685 C 0.32029 0.04485 0.59774
 C686 C 0.30849 0.05970 0.58589
 C687 C 0.28169 0.08967 0.58336
 N688 N 0.27661 0.08561 0.56289
 N689 N 0.26496 0.09953 0.55171
 C690 C 0.25812 0.11816 0.56051
 N691 N 0.26333 0.12229 0.58093
 N692 N 0.27480 0.10827 0.59217
 C693 C 0.24511 0.13355 0.54817
 C694 C 0.24535 0.15539 0.55332
 C695 C 0.23304 0.16996 0.54165
 C696 C 0.22001 0.16292 0.52480
 C697 C 0.21941 0.14100 0.51995
 C698 C 0.23211 0.12650 0.53131
 H699 H 0.28095 0.08402 0.62598
 H700 H 0.30106 0.05756 0.64663
 H701 H 0.33117 0.03397 0.58967
 H702 H 0.31067 0.06008 0.56894
 H703 H 0.25528 0.16126 0.56622
 H704 H 0.23373 0.18677 0.54572
 H705 H 0.20903 0.13507 0.50744
 H706 H 0.23141 0.10970 0.52718
 C707 C 0.70372 0.07428 0.40339
 C708 C 0.68287 0.06784 0.40989
 C709 C 0.67128 0.05244 0.39848
 C710 C 0.68021 0.04317 0.38016
 C711 C 0.70101 0.04987 0.37354
 C712 C 0.71262 0.06516 0.38505
 C713 C 0.71623 0.09024 0.41576
 N714 N 0.73751 0.09409 0.41139
 N715 N 0.74885 0.10823 0.42264
 C716 C 0.73938 0.11917 0.43872
 N717 N 0.71807 0.11537 0.44306
 N718 N 0.70675 0.10118 0.43184
 C719 C 0.75207 0.13482 0.45129
 C720 C 0.74166 0.14841 0.46582
 C721 C 0.75369 0.16317 0.47761
 C722 C 0.77638 0.16443 0.47534
 C723 C 0.78679 0.15095 0.46080
 C724 C 0.77477 0.13632 0.44888
 H725 H 0.67553 0.07452 0.42395
 H726 H 0.65533 0.04780 0.40413
 H727 H 0.70849 0.04320 0.35954
 H728 H 0.72861 0.06982 0.37954
 H729 H 0.72419 0.14779 0.46796
 H730 H 0.74526 0.17370 0.48842
 H731 H 0.80429 0.15161 0.45882
 H732 H 0.78332 0.12607 0.43789
 C733 C 0.70189 0.92171 0.59452
 C734 C 0.71092 0.93100 0.61274
 C735 C 0.69967 0.94679 0.62382
 C736 C 0.67914 0.95377 0.61694
 C737 C 0.67002 0.94445 0.59877
 C738 C 0.68126 0.92855 0.58770
 C739 C 0.71419 0.90524 0.58265
 N740 N 0.70513 0.89483 0.56597
 N741 N 0.71645 0.88031 0.55518
 C742 C 0.73731 0.87562 0.56060
 N743 N 0.74630 0.88597 0.57730
 N744 N 0.73498 0.90043 0.58810
 C745 C 0.75029 0.85999 0.54832
 C746 C 0.77270 0.85778 0.55223
 C747 C 0.78527 0.84373 0.54026
 C748 C 0.77575 0.83151 0.52415
 C749 C 0.75326 0.83320 0.52053
 C750 C 0.74066 0.84743 0.53242
 H751 H 0.72675 0.92611 0.61849
 H752 H 0.70716 0.95362 0.63775
 H753 H 0.65420 0.94945 0.59309
 H754 H 0.67384 0.92175 0.57372
 H755 H 0.78069 0.86719 0.56432
 H756 H 0.80260 0.84274 0.54328
 H757 H 0.74554 0.82370 0.50834
 H758 H 0.72342 0.84864 0.52909
 C759 C 0.29578 0.92878 0.40741
 C760 C 0.31854 0.93024 0.40908
 C761 C 0.33004 0.94544 0.39733
 C762 C 0.31902 0.95910 0.38337
 C763 C 0.29630 0.95745 0.38153
 C764 C 0.28478 0.94260 0.39360
 C765 C 0.28350 0.91295 0.41996
 N766 N 0.26223 0.91632 0.42472
 N767 N 0.25105 0.90202 0.43588
 C768 C 0.26063 0.88368 0.44257
 N769 N 0.28189 0.88027 0.43777
 N770 N 0.29314 0.89467 0.42677
 C771 C 0.24802 0.86768 0.45460
 C772 C 0.25403 0.84599 0.45433
 C773 C 0.24161 0.83081 0.46515
 C774 C 0.22334 0.83717 0.47680
 C775 C 0.21745 0.85881 0.47733
 C776 C 0.22959 0.87393 0.46619
 H777 H 0.32742 0.91984 0.41967
 H778 H 0.34756 0.94634 0.39899
 H779 H 0.28740 0.96786 0.37095
 H780 H 0.26725 0.94176 0.39192
 H781 H 0.26809 0.84072 0.44544
 H782 H 0.24631 0.81413 0.46459
 H783 H 0.20332 0.86393 0.48621
 H784 H 0.22464 0.89054 0.46675
 C785 C 0.07198 0.40495 0.70696
 C786 C 0.05746 0.39075 0.71676
 C787 C 0.04246 0.37912 0.70479
 C788 C 0.04135 0.38180 0.68282
 C789 C 0.05575 0.39612 0.67300
 C790 C 0.07111 0.40741 0.68493
 C791 C 0.08782 0.41721 0.71971
 N792 N 0.10676 0.42428 0.71113
 N793 N 0.12106 0.43521 0.72273
 C794 C 0.11687 0.43969 0.74331
 N795 N 0.09789 0.43272 0.75184
 N796 N 0.08370 0.42161 0.74031
 C797 C 0.13260 0.45195 0.75619
 C798 C 0.12543 0.46380 0.77371
 C799 C 0.14021 0.47556 0.78581
 C800 C 0.16243 0.47537 0.78081
 C801 C 0.16973 0.46330 0.76357
 C802 C 0.15489 0.45188 0.75117
 H803 H 0.05783 0.38846 0.73369
 H804 H 0.03148 0.36825 0.71278
 H805 H 0.05528 0.39843 0.65607
 H806 H 0.08205 0.41832 0.67698
 H807 H 0.10834 0.46422 0.77788
 H808 H 0.13436 0.48480 0.79911
 H809 H 0.18686 0.46302 0.75955
 H810 H 0.16086 0.44279 0.73783
 C811 C 0.07511 0.59355 0.29326
 C812 C 0.06060 0.60774 0.28343
 C813 C 0.04593 0.61970 0.29542
 C814 C 0.04515 0.61736 0.31744
 C815 C 0.05958 0.60310 0.32729
 C816 C 0.07460 0.59147 0.31532
 C817 C 0.09050 0.58084 0.28048
 N818 N 0.10943 0.57357 0.28892
 N819 N 0.12332 0.56221 0.27730
 C820 C 0.11871 0.55747 0.25686
 N821 N 0.09973 0.56464 0.24848
 N822 N 0.08596 0.57617 0.26003
 C823 C 0.13403 0.54486 0.24392
 C824 C 0.12643 0.53307 0.22652
 C825 C 0.14089 0.52124 0.21416
 C826 C 0.16319 0.52130 0.21880
 C827 C 0.17090 0.53319 0.23601
 C828 C 0.15639 0.54468 0.24866
 H829 H 0.06071 0.60974 0.26646
 H830 H 0.03491 0.63052 0.28742
 H831 H 0.05936 0.60105 0.34425
 H832 H 0.08555 0.58058 0.32329
 H833 H 0.10928 0.53284 0.22257
 H834 H 0.13473 0.51218 0.20087
 H835 H 0.18811 0.53338 0.23973
 H836 H 0.16269 0.55371 0.26190
 C837 C 0.92522 0.40509 0.29512
 C838 C 0.92230 0.38305 0.29815
 C839 C 0.93736 0.37136 0.31000
 C840 C 0.95507 0.38172 0.31956
 C841 C 0.95763 0.40387 0.31700
 C842 C 0.94302 0.41540 0.30457
 C843 C 0.91017 0.41723 0.28166
 N844 N 0.91797 0.43183 0.26775
 N845 N 0.90447 0.44263 0.25526
 C846 C 0.88266 0.43947 0.25646
 N847 N 0.87481 0.42502 0.27051
 N848 N 0.88835 0.41396 0.28278
 C849 C 0.86787 0.45139 0.24255
 C850 C 0.84860 0.46035 0.25050
 C851 C 0.83509 0.47243 0.23735
 C852 C 0.84042 0.47511 0.21601
 C853 C 0.85927 0.46554 0.20790
 C854 C 0.87314 0.45412 0.22119
 H855 H 0.90872 0.37480 0.29087
 H856 H 0.93511 0.35428 0.31184
 H857 H 0.97127 0.41212 0.32416
 H858 H 0.94551 0.43242 0.30244
 H859 H 0.84431 0.45844 0.26696
 H860 H 0.82049 0.47965 0.24374
 H861 H 0.86348 0.46742 0.19142
 H862 H 0.88788 0.44720 0.21475
 C863 C 0.92574 0.59550 0.70384
 C864 C 0.92696 0.61789 0.70526
 C865 C 0.94216 0.62924 0.69326
 C866 C 0.95607 0.61845 0.67928
 C867 C 0.95457 0.59610 0.67758
 C868 C 0.93971 0.58472 0.68990
 C869 C 0.91011 0.58341 0.71694
 N870 N 0.91394 0.56264 0.72197
 N871 N 0.89997 0.55177 0.73392
 C872 C 0.88151 0.56117 0.74117
 N873 N 0.87763 0.58191 0.73605
 N874 N 0.89170 0.59284 0.72426
 C875 C 0.86596 0.54909 0.75434
 C876 C 0.84393 0.55503 0.75506
 C877 C 0.82917 0.54348 0.76735
 C878 C 0.83619 0.52593 0.77936
 C879 C 0.85833 0.52031 0.77904
 C880 C 0.87300 0.53156 0.76639
 H881 H 0.91644 0.62660 0.71594
 H882 H 0.94295 0.64647 0.69483
 H883 H 0.96518 0.58737 0.66700
 H884 H 0.93904 0.56748 0.68840
 H885 H 0.83804 0.56843 0.74589
 H886 H 0.81221 0.54816 0.76740
 H887 H 0.86427 0.50723 0.78863
 H888 H 0.88995 0.52680 0.76634
 C889 C 0.70806 0.59903 0.92690
 C890 C 0.68757 0.59171 0.93359
 C891 C 0.67594 0.60277 0.94909
 C892 C 0.68444 0.62157 0.95821
 C893 C 0.70492 0.62893 0.95134
 C894 C 0.71659 0.61776 0.93596
 C895 C 0.72052 0.58711 0.91067
 N896 N 0.74161 0.59210 0.90653
 N897 N 0.75287 0.58125 0.89211
 C898 C 0.74349 0.56500 0.88114
 N899 N 0.72238 0.56006 0.88522
 N900 N 0.71114 0.57086 0.89970
 C901 C 0.75609 0.55276 0.86527
 C902 C 0.74562 0.53814 0.85179
 C903 C 0.75755 0.52632 0.83708
 C904 C 0.78024 0.52863 0.83576
 C905 C 0.79070 0.54344 0.84897
 C906 C 0.77876 0.55541 0.86356
 H907 H 0.68053 0.57731 0.92699
 H908 H 0.66025 0.59654 0.95388
 H909 H 0.71208 0.64331 0.95790
 H910 H 0.73231 0.62388 0.93112
 H911 H 0.72817 0.53584 0.85253
 H912 H 0.74907 0.51533 0.82674
 H913 H 0.80820 0.54548 0.84823
 H914 H 0.78736 0.56651 0.87370
 C915 C 0.29388 0.40463 0.92466
 C916 C 0.28813 0.38352 0.92962
 C917 C 0.29976 0.37212 0.94488
 C918 C 0.31785 0.38139 0.95509
 C919 C 0.32385 0.40243 0.94965
 C920 C 0.31178 0.41401 0.93485
 C921 C 0.28107 0.41691 0.90913
 N922 N 0.27816 0.43829 0.91155
 N923 N 0.26624 0.44932 0.89778
 C924 C 0.25700 0.43945 0.88091
 N925 N 0.26007 0.41810 0.87838
 N926 N 0.27176 0.40701 0.89231
 C927 C 0.24376 0.45170 0.86571
 C928 C 0.24364 0.44619 0.84423
 C929 C 0.23145 0.45813 0.82980
 C930 C 0.21883 0.47554 0.83665
 C931 C 0.21835 0.48049 0.85829
 C932 C 0.23105 0.46897 0.87260
 H933 H 0.27432 0.37597 0.92203
 H934 H 0.29462 0.35597 0.94850
 H935 H 0.33761 0.41019 0.95713
 H936 H 0.31659 0.43026 0.93119
 H937 H 0.25333 0.43292 0.83854
 H938 H 0.23201 0.45389 0.81324
 H939 H 0.20817 0.49330 0.86414
 H940 H 0.23060 0.47331 0.88915
 C941 C 0.29408 0.59477 0.07489
 C942 C 0.31420 0.58719 0.06748
 C943 C 0.32570 0.59843 0.05201
 C944 C 0.31743 0.61765 0.04363
 C945 C 0.29735 0.62528 0.05125
 C946 C 0.28582 0.61396 0.06661
 C947 C 0.28159 0.58265 0.09096
 N948 N 0.26096 0.58850 0.09603
 N949 N 0.24954 0.57747 0.11017
 C950 C 0.25825 0.56014 0.11992
 N951 N 0.27893 0.55433 0.11494
 N952 N 0.29034 0.56534 0.10074
 C953 C 0.24523 0.54765 0.13529
 C954 C 0.25482 0.53135 0.14744
 C955 C 0.24226 0.51934 0.16154
 C956 C 0.21984 0.52319 0.16352
 C957 C 0.21034 0.53967 0.15166
 C958 C 0.22288 0.55178 0.13774
 H959 H 0.32102 0.57244 0.07349
 H960 H 0.34110 0.59199 0.04664
 H961 H 0.29037 0.63999 0.04528
 H962 H 0.27040 0.62031 0.07199
 H963 H 0.27202 0.52785 0.14606
 H964 H 0.24998 0.50690 0.17076
 H965 H 0.19307 0.54289 0.15288
 H966 H 0.21494 0.56417 0.12864
 C967 C 0.70806 0.40474 0.07253
 C968 C 0.68766 0.41225 0.06580
 C969 C 0.67571 0.40101 0.05060
 C970 C 0.68383 0.38189 0.04186
 C971 C 0.70414 0.37428 0.04891
 C972 C 0.71610 0.38559 0.06397
 C973 C 0.72113 0.41690 0.08814
 N974 N 0.74211 0.41139 0.09210
 N975 N 0.75404 0.42244 0.10584
 C976 C 0.74552 0.43945 0.11628
 N977 N 0.72450 0.44493 0.11240
 N978 N 0.71256 0.43391 0.09859
 C979 C 0.75901 0.45183 0.13135
 C980 C 0.74961 0.46733 0.14460
 C981 C 0.76251 0.47903 0.15868
 C982 C 0.78509 0.47568 0.15953
 C983 C 0.79446 0.46009 0.14645
 C984 C 0.78158 0.44828 0.13254
 H985 H 0.68100 0.42696 0.07207
 H986 H 0.66014 0.40742 0.04568
 H987 H 0.71100 0.35963 0.04267
 H988 H 0.73171 0.37928 0.06886
 H989 H 0.73226 0.47036 0.14418
 H990 H 0.75489 0.49074 0.16887
 H991 H 0.81185 0.45726 0.14682
 H992 H 0.78938 0.43652 0.12254
 C993 C 0.92475 0.70393 0.59216
 C994 C 0.92958 0.68268 0.58677
 C995 C 0.94522 0.67118 0.59811
 C996 C 0.95600 0.68053 0.61546
 C997 C 0.95069 0.70171 0.62106
 C998 C 0.93547 0.71332 0.60939
 C999 C 0.90884 0.71641 0.57977
 N1000 N 0.91073 0.73800 0.57829
 N1001 N 0.89651 0.74933 0.56706
 C1002 C 0.87968 0.73957 0.55703
 N1003 N 0.87770 0.71799 0.55858
 N1004 N 0.89208 0.70662 0.56963
 C1005 C 0.86386 0.75226 0.54474
 C1006 C 0.84222 0.74531 0.54247
 C1007 C 0.82715 0.75772 0.53133
 C1008 C 0.83369 0.77690 0.52182
 C1009 C 0.85531 0.78375 0.52384
 C1010 C 0.87023 0.77164 0.53538
 H1011 H 0.92158 0.67509 0.57350
 H1012 H 0.94875 0.65492 0.59331
 H1013 H 0.95857 0.70955 0.63426
 H1014 H 0.93194 0.72965 0.61396
 H1015 H 0.83686 0.73050 0.54963
 H1016 H 0.81047 0.75228 0.52992
 H1017 H 0.86054 0.79857 0.51660
 H1018 H 0.88683 0.77731 0.53681
 C1019 C 0.92340 0.29551 0.40614
 C1020 C 0.93231 0.28713 0.38749
 C1021 C 0.94759 0.29875 0.37593
 C1022 C 0.95455 0.31908 0.38278
 C1023 C 0.94545 0.32756 0.40140
 C1024 C 0.93001 0.31593 0.41289
 C1025 C 0.90752 0.28281 0.41851
 N1026 N 0.89634 0.29166 0.43483
 N1027 N 0.88215 0.28008 0.44590
 C1028 C 0.87862 0.25916 0.44119
 N1029 N 0.88983 0.25034 0.42491
 N1030 N 0.90393 0.26191 0.41380
 C1031 C 0.86292 0.24616 0.45347
 C1032 C 0.86195 0.22387 0.45066
 C1033 C 0.84714 0.21154 0.46210
 C1034 C 0.83292 0.22120 0.47656
 C1035 C 0.83370 0.24348 0.47928
 C1036 C 0.84866 0.25583 0.46796
 H1037 H 0.92751 0.27151 0.38176
 H1038 H 0.95410 0.29161 0.36170
 H1039 H 0.95031 0.34314 0.40721
 H1040 H 0.92346 0.32285 0.42720
 H1041 H 0.87273 0.21588 0.43969
 H1042 H 0.84689 0.19438 0.45979
 H1043 H 0.82260 0.25134 0.49003
 H1044 H 0.84886 0.27296 0.47039
 C1045 C 0.07498 0.29553 0.59781
 C1046 C 0.06760 0.31533 0.59014
 C1047 C 0.05171 0.32690 0.60107
 C1048 C 0.04288 0.31903 0.62006
 C1049 C 0.05058 0.29934 0.62784
 C1050 C 0.06633 0.28774 0.61683
 C1051 C 0.09128 0.28284 0.58591
 N1052 N 0.09575 0.26236 0.59154
 N1053 N 0.11001 0.25074 0.58065
 C1054 C 0.12050 0.25910 0.56370
 N1055 N 0.11614 0.27963 0.55812
 N1056 N 0.10180 0.29124 0.56897
 C1057 C 0.13598 0.24589 0.55135
 C1058 C 0.14931 0.25514 0.53579
 C1059 C 0.16352 0.24247 0.52389
 C1060 C 0.16441 0.22027 0.52709
 C1061 C 0.15137 0.21108 0.54283
 C1062 C 0.13735 0.22373 0.55485
 H1063 H 0.07390 0.32179 0.57552
 H1064 H 0.04631 0.34199 0.59453
 H1065 H 0.04430 0.29269 0.64239
 H1066 H 0.07170 0.27260 0.62325
 H1067 H 0.14879 0.27218 0.53279
 H1068 H 0.17368 0.24996 0.51205
 H1069 H 0.15174 0.19398 0.54555
 H1070 H 0.12732 0.21605 0.56666
 C1071 C 0.08022 0.70367 0.40136
 C1072 C 0.07267 0.68402 0.40921
 C1073 C 0.05651 0.67259 0.39850
 C1074 C 0.04755 0.68047 0.37957
 C1075 C 0.05541 0.70001 0.37159
 C1076 C 0.07147 0.71148 0.38239
 C1077 C 0.09677 0.71621 0.41312
 N1078 N 0.10159 0.73656 0.40732
 N1079 N 0.11595 0.74809 0.41819
 C1080 C 0.12619 0.73976 0.43531
 N1081 N 0.12151 0.71934 0.44103
 N1082 N 0.10708 0.70782 0.43018
 C1083 C 0.14159 0.75294 0.44779
 C1084 C 0.15444 0.74376 0.46378
 C1085 C 0.16834 0.75649 0.47599
 C1086 C 0.16938 0.77866 0.47266
 C1087 C 0.15690 0.78776 0.45644
 C1088 C 0.14320 0.77505 0.44412
 H1089 H 0.07904 0.67754 0.42379
 H1090 H 0.05100 0.65760 0.40519
 H1091 H 0.04904 0.70665 0.35707
 H1092 H 0.07696 0.72653 0.37585
 H1093 H 0.15371 0.72676 0.46692
 H1094 H 0.17807 0.74909 0.48822
 H1095 H 0.15740 0.80483 0.45361
 H1096 H 0.13355 0.78268 0.43198
 C1097 C 0.59479 0.92446 0.70653
 C1098 C 0.58712 0.93011 0.68638
 C1099 C 0.59824 0.94522 0.67420
 C1100 C 0.61733 0.95492 0.68184
 C1101 C 0.62513 0.94908 0.70186
 C1102 C 0.61397 0.93407 0.71407
 C1103 C 0.58275 0.90892 0.71979
 N1104 N 0.58878 0.90545 0.74011
 N1105 N 0.57781 0.89182 0.75222
 C1106 C 0.56035 0.88100 0.74455
 N1107 N 0.55435 0.88437 0.72418
 N1108 N 0.56530 0.89807 0.71207
 C1109 C 0.54797 0.86614 0.75826
 C1110 C 0.53145 0.85302 0.74993
 C1111 C 0.51964 0.83930 0.76308
 C1112 C 0.52393 0.83867 0.78484
 C1113 C 0.54058 0.85155 0.79311
 C1114 C 0.55248 0.86512 0.77999
 H1115 H 0.57240 0.92304 0.68009
 H1116 H 0.59183 0.94935 0.65882
 H1117 H 0.63978 0.95624 0.70823
 H1118 H 0.62040 0.93007 0.72948
 H1119 H 0.52765 0.85332 0.73325
 H1120 H 0.50707 0.82927 0.75631
 H1121 H 0.54414 0.85135 0.80985
 H1122 H 0.56505 0.87500 0.78697
 C1123 C 0.40259 0.92382 0.29529
 C1124 C 0.41073 0.93073 0.31489
 C1125 C 0.40005 0.94677 0.32629
 C1126 C 0.38093 0.95617 0.31840
 C1127 C 0.37268 0.94910 0.29892
 C1128 C 0.38340 0.93317 0.28749
 C1129 C 0.41415 0.90725 0.28282
 N1130 N 0.40776 0.90262 0.26282
 N1131 N 0.41835 0.88812 0.25138
 C1132 C 0.43576 0.87754 0.25944
 N1133 N 0.44209 0.88205 0.27950
 N1134 N 0.43152 0.89662 0.29095
 C1135 C 0.44789 0.86190 0.24634
 C1136 C 0.46432 0.84902 0.25516
 C1137 C 0.47621 0.83490 0.24248
 C1138 C 0.47213 0.83363 0.22071
 C1139 C 0.45541 0.84610 0.21200
 C1140 C 0.44341 0.86004 0.22466
 H1141 H 0.42548 0.92390 0.32135
 H1142 H 0.40680 0.95182 0.34127
 H1143 H 0.35799 0.95599 0.29239
 H1144 H 0.37662 0.92822 0.27249
 H1145 H 0.46807 0.84993 0.27183
 H1146 H 0.48883 0.82520 0.24959
 H1147 H 0.45200 0.84543 0.19524
 H1148 H 0.43090 0.86969 0.21731
 C1149 C 0.59487 0.07190 0.28999
 C1150 C 0.58368 0.05860 0.30418
 C1151 C 0.59506 0.04424 0.31697
 C1152 C 0.61781 0.04254 0.31549
 C1153 C 0.62900 0.05579 0.30126
 C1154 C 0.61766 0.07051 0.28881
 C1155 C 0.58277 0.08694 0.27635
 N1156 N 0.59247 0.10492 0.26884
 N1157 N 0.58154 0.11845 0.25655
 C1158 C 0.56054 0.11444 0.25109
 N1159 N 0.55088 0.09642 0.25851
 N1160 N 0.56175 0.08300 0.27097
 C1161 C 0.54841 0.12941 0.23739
 C1162 C 0.53098 0.12210 0.22497
 C1163 C 0.51954 0.13623 0.21199
 C1164 C 0.52483 0.15810 0.21169
 C1165 C 0.54236 0.16537 0.22401
 C1166 C 0.55413 0.15114 0.23661
 H1167 H 0.56613 0.05941 0.30550
 H1168 H 0.58601 0.03414 0.32772
 H1169 H 0.64654 0.05483 0.29985
 H1170 H 0.62669 0.08050 0.27796
 H1171 H 0.52639 0.10537 0.22505
 H1172 H 0.50651 0.13008 0.20220
 H1173 H 0.54681 0.18213 0.22403
 H1174 H 0.56747 0.15723 0.24606
 C1175 C 0.40304 0.07673 0.70791
 C1176 C 0.41043 0.07051 0.68783
 C1177 C 0.39919 0.05501 0.67620
 C1178 C 0.38024 0.04549 0.68434
 C1179 C 0.37270 0.05193 0.70428
 C1180 C 0.38397 0.06733 0.71594
 C1181 C 0.41529 0.09259 0.72065
 N1182 N 0.40959 0.09656 0.74097
 N1183 N 0.42083 0.11039 0.75266
 C1184 C 0.43825 0.12092 0.74453
 N1185 N 0.44390 0.11706 0.72416
 N1186 N 0.43267 0.10317 0.71247
 C1187 C 0.45106 0.13584 0.75783
 C1188 C 0.46757 0.14863 0.74903
 C1189 C 0.47998 0.16222 0.76182
 C1190 C 0.47632 0.16303 0.78367
 C1191 C 0.45960 0.15059 0.79240
 C1192 C 0.44709 0.13717 0.77964
 H1193 H 0.42506 0.07741 0.68118
 H1194 H 0.40540 0.05043 0.66087
 H1195 H 0.35815 0.04493 0.71101
 H1196 H 0.37776 0.07177 0.73131
 H1197 H 0.47096 0.14811 0.73227
 H1198 H 0.49259 0.17193 0.75471
 H1199 H 0.45650 0.15096 0.80922
 H1200 H 0.43453 0.12756 0.78696
 C1201 C 0.59575 0.70763 0.07528
 C1202 C 0.61447 0.71634 0.06586
 C1203 C 0.62629 0.70464 0.05099
 C1204 C 0.61962 0.68398 0.04507
 C1205 C 0.60095 0.67521 0.05453
 C1206 C 0.58919 0.68688 0.06952
 C1207 C 0.58310 0.72026 0.09085
 N1208 N 0.56659 0.71121 0.10195
 N1209 N 0.55520 0.72264 0.11584
 C1210 C 0.55979 0.74364 0.11916
 N1211 N 0.57629 0.75268 0.10805
 N1212 N 0.58771 0.74123 0.09422
 C1213 C 0.54704 0.75646 0.13448
 C1214 C 0.54979 0.77877 0.13568
 C1215 C 0.53762 0.79091 0.14994
 C1216 C 0.52248 0.78104 0.16332
 C1217 C 0.51994 0.75874 0.16242
 C1218 C 0.53198 0.74659 0.14805
 H1219 H 0.62004 0.73224 0.06996
 H1220 H 0.64057 0.71188 0.04400
 H1221 H 0.59540 0.65933 0.05032
 H1222 H 0.57484 0.67969 0.07645
 H1223 H 0.56122 0.78691 0.12546
 H1224 H 0.53984 0.80809 0.15035
 H1225 H 0.50868 0.75071 0.17289
 H1226 H 0.52957 0.72944 0.14768
 C1227 C 0.40611 0.29298 0.07043
 C1228 C 0.38335 0.29113 0.06920
 C1229 C 0.37158 0.30317 0.05452
 C1230 C 0.38228 0.31765 0.04114
 C1231 C 0.40498 0.31985 0.04269
 C1232 C 0.41681 0.30745 0.05702
 C1233 C 0.41863 0.27966 0.08540
 N1234 N 0.43966 0.27439 0.08133
 N1235 N 0.45084 0.26208 0.09462
 C1236 C 0.44152 0.25472 0.11263
 N1237 N 0.42053 0.26010 0.11677
 N1238 N 0.40928 0.27222 0.10337
 C1239 C 0.45393 0.24106 0.12738
 C1240 C 0.44863 0.24061 0.14894
 C1241 C 0.46054 0.22790 0.16293
 C1242 C 0.47778 0.21513 0.15561
 C1243 C 0.48266 0.21514 0.13395
 C1244 C 0.47110 0.22825 0.12004
 H1245 H 0.37468 0.28005 0.07927
 H1246 H 0.35408 0.30121 0.05368
 H1247 H 0.41365 0.33082 0.03249
 H1248 H 0.43433 0.30927 0.05771
 H1249 H 0.43551 0.25036 0.15504
 H1250 H 0.45641 0.22817 0.17953
 H1251 H 0.49543 0.20500 0.12777
 H1252 H 0.47535 0.22806 0.10346
 C1253 C 0.59675 0.29534 0.92464
 C1254 C 0.61909 0.29920 0.92202
 C1255 C 0.63061 0.31099 0.93710
 C1256 C 0.61977 0.31971 0.95459
 C1257 C 0.59731 0.31638 0.95688
 C1258 C 0.58595 0.30396 0.94220
 C1259 C 0.58486 0.28186 0.90946
 N1260 N 0.57039 0.26703 0.91637
 N1261 N 0.55992 0.25450 0.90273
 C1262 C 0.56327 0.25655 0.88167
 N1263 N 0.57759 0.27152 0.87473
 N1264 N 0.58834 0.28383 0.88839
 C1265 C 0.55157 0.24271 0.86668
 C1266 C 0.54248 0.25128 0.84820
 C1267 C 0.53038 0.23826 0.83460
 C1268 C 0.52779 0.21644 0.83902
 C1269 C 0.53758 0.20771 0.85704
 C1270 C 0.54903 0.22084 0.87100
 H1271 H 0.62772 0.29258 0.90863
 H1272 H 0.64793 0.31343 0.93506
 H1273 H 0.58869 0.32288 0.97034
 H1274 H 0.56870 0.30120 0.94446
 H1275 H 0.54421 0.26813 0.84465
 H1276 H 0.52293 0.24518 0.82070
 H1277 H 0.53573 0.19087 0.86060
 H1278 H 0.55604 0.21392 0.88512
 C1279 C 0.40492 0.70628 0.92797
 C1280 C 0.38210 0.70747 0.92884
 C1281 C 0.37048 0.69535 0.94354
 C1282 C 0.38141 0.68144 0.95733
 C1283 C 0.40418 0.67987 0.95614
 C1284 C 0.41584 0.69236 0.94176
 C1285 C 0.41725 0.71972 0.91297
 N1286 N 0.43820 0.72533 0.91705
 N1287 N 0.44919 0.73776 0.90373
 C1288 C 0.43975 0.74493 0.88569
 N1289 N 0.41885 0.73921 0.88155
 N1290 N 0.40779 0.72695 0.89497
 C1291 C 0.45199 0.75866 0.87088
 C1292 C 0.44642 0.75922 0.84938
 C1293 C 0.45830 0.77185 0.83531
 C1294 C 0.47580 0.78436 0.84248
 C1295 C 0.48089 0.78435 0.86410
 C1296 C 0.46934 0.77135 0.87810
 H1297 H 0.37326 0.71812 0.91846
 H1298 H 0.35292 0.69681 0.94408
 H1299 H 0.41301 0.66934 0.96666
 H1300 H 0.43341 0.69103 0.94136
 H1301 H 0.43313 0.74959 0.84338
 H1302 H 0.45399 0.77166 0.81873
 H1303 H 0.49387 0.79433 0.87014
 H1304 H 0.47378 0.77147 0.89463
 C1305 C 0.70303 0.92465 0.40622
 C1306 C 0.70543 0.92566 0.38420
 C1307 C 0.69411 0.94095 0.37246
 C1308 C 0.67976 0.95521 0.38244
 C1309 C 0.67702 0.95395 0.40441
 C1310 C 0.68874 0.93896 0.41622
 C1311 C 0.71556 0.90887 0.41865
 N1312 N 0.72042 0.91261 0.43924
 N1313 N 0.73209 0.89858 0.45029
 C1314 C 0.73919 0.88016 0.44126
 N1315 N 0.73420 0.87636 0.42072
 N1316 N 0.72272 0.89048 0.40961
 C1317 C 0.75222 0.86459 0.45347
 C1318 C 0.75245 0.84289 0.44774
 C1319 C 0.76468 0.82815 0.45930
 C1320 C 0.77716 0.83484 0.47667
 C1321 C 0.77737 0.85664 0.48208
 C1322 C 0.76474 0.87131 0.47081
 H1323 H 0.71640 0.91489 0.37608
 H1324 H 0.69647 0.94153 0.35554
 H1325 H 0.66613 0.96482 0.41250
 H1326 H 0.68649 0.93847 0.43315
 H1327 H 0.74293 0.83725 0.43447
 H1328 H 0.76432 0.81145 0.45476
 H1329 H 0.78735 0.86234 0.49500
 H1330 H 0.76511 0.88799 0.47541
 C1331 C 0.29438 0.92454 0.59754
 C1332 C 0.31577 0.93013 0.59187
 C1333 C 0.32732 0.94542 0.60347
 C1334 C 0.31779 0.95538 0.62107
 C1335 C 0.29652 0.94960 0.62690
 C1336 C 0.28494 0.93441 0.61525
 C1337 C 0.28187 0.90877 0.58494
 N1338 N 0.26042 0.90532 0.58885
 N1339 N 0.24906 0.89139 0.57737
 C1340 C 0.25867 0.88026 0.56150
 N1341 N 0.28015 0.88365 0.55763
 N1342 N 0.29150 0.89763 0.56908
 C1343 C 0.24595 0.86491 0.54860
 C1344 C 0.25634 0.85162 0.53379
 C1345 C 0.24427 0.83728 0.52156
 C1346 C 0.22156 0.83611 0.52367
 C1347 C 0.21117 0.84920 0.53856
 C1348 C 0.22322 0.86344 0.55091
 H1349 H 0.32354 0.92287 0.57832
 H1350 H 0.34368 0.94950 0.59858
 H1351 H 0.28870 0.95697 0.64037
 H1352 H 0.26853 0.93045 0.62012
 H1353 H 0.27381 0.85221 0.53171
 H1354 H 0.25268 0.82703 0.51046
 H1355 H 0.19366 0.84856 0.54044
 H1356 H 0.21468 0.87344 0.56213
 C1357 C 0.29629 0.07844 0.40448
 C1358 C 0.31720 0.07208 0.41099
 C1359 C 0.32882 0.05670 0.39956
 C1360 C 0.31982 0.04743 0.38131
 C1361 C 0.29907 0.05404 0.37465
 C1362 C 0.28744 0.06930 0.38611
 C1363 C 0.28352 0.09417 0.41688
 N1364 N 0.26240 0.09815 0.41194
 N1365 N 0.25067 0.11191 0.42322
 C1366 C 0.25955 0.12236 0.43993
 N1367 N 0.28072 0.11849 0.44484
 N1368 N 0.29245 0.10465 0.43357
 C1369 C 0.24621 0.13735 0.45265
 C1370 C 0.25574 0.15025 0.46834
 C1371 C 0.24293 0.16410 0.48045
 C1372 C 0.22032 0.16509 0.47730
 C1373 C 0.21085 0.15242 0.46149
 C1374 C 0.22363 0.13873 0.44929
 H1375 H 0.32450 0.07878 0.42507
 H1376 H 0.34478 0.05197 0.40509
 H1377 H 0.29165 0.04723 0.36067
 H1378 H 0.27144 0.07385 0.38056
 H1379 H 0.27309 0.14969 0.47126
 H1380 H 0.25062 0.17396 0.49237
 H1381 H 0.19344 0.15286 0.45882
 H1382 H 0.21571 0.12902 0.43739
 C1383 C 0.70255 0.07374 0.59211
 C1384 C 0.67981 0.07208 0.59029
 C1385 C 0.66838 0.05660 0.60177
 C1386 C 0.67944 0.04284 0.61562
 C1387 C 0.70213 0.04470 0.61761
 C1388 C 0.71359 0.05984 0.60582
 C1389 C 0.71484 0.08976 0.57974
 N1390 N 0.73621 0.08660 0.57526
 N1391 N 0.74739 0.10096 0.56420
 C1392 C 0.73774 0.11919 0.55731
 N1393 N 0.71638 0.12242 0.56185
 N1394 N 0.70512 0.10794 0.57276
 C1395 C 0.75033 0.13513 0.54514
 C1396 C 0.74408 0.15676 0.54484
 C1397 C 0.75639 0.17182 0.53369
 C1398 C 0.77479 0.16536 0.52228
 C1399 C 0.78098 0.14379 0.52242
 C1400 C 0.76896 0.12883 0.53387
 H1401 H 0.67090 0.08254 0.57978
 H1402 H 0.65088 0.05554 0.60000
 H1403 H 0.71110 0.03425 0.62809
 H1404 H 0.73109 0.06081 0.60763
 H1405 H 0.72987 0.16208 0.55348
 H1406 H 0.75145 0.18844 0.53373
 H1407 H 0.79520 0.13859 0.51372
 H1408 H 0.77412 0.11228 0.53374
 C1409 C 0.92500 0.59382 0.29701
 C1410 C 0.92573 0.61621 0.29548
 C1411 C 0.94115 0.62790 0.30693
 C1412 C 0.95576 0.61745 0.32049
 C1413 C 0.95459 0.59512 0.32249
 C1414 C 0.93952 0.58339 0.31068
 C1415 C 0.90971 0.58131 0.28388
 N1416 N 0.91461 0.56096 0.27812
 N1417 N 0.90126 0.54986 0.26569
 C1418 C 0.88236 0.55859 0.25868
 N1419 N 0.87733 0.57887 0.26461
 N1420 N 0.89081 0.59006 0.27687
 C1421 C 0.86786 0.54637 0.24450
 C1422 C 0.84538 0.55044 0.24398
 C1423 C 0.83177 0.53866 0.23061
 C1424 C 0.84043 0.52282 0.21732
 C1425 C 0.86300 0.51928 0.21739
 C1426 C 0.87652 0.53065 0.23110
 H1427 H 0.91479 0.62465 0.28499
 H1428 H 0.94167 0.64512 0.30516
 H1429 H 0.96573 0.58666 0.33277
 H1430 H 0.93924 0.56615 0.31224
 H1431 H 0.83829 0.56250 0.25414
 H1432 H 0.81444 0.54182 0.23069
 H1433 H 0.87025 0.50790 0.20664
 H1434 H 0.89384 0.52747 0.23087
 C1435 C 0.91955 0.40433 0.70337
 C1436 C 0.92839 0.38528 0.71144
 C1437 C 0.94404 0.37390 0.70008
 C1438 C 0.95132 0.38131 0.68039
 C1439 C 0.94234 0.40023 0.67218
 C1440 C 0.92659 0.41158 0.68352
 C1441 C 0.90347 0.41669 0.71587
 N1442 N 0.89330 0.43407 0.70761
 N1443 N 0.87923 0.44536 0.71911
 C1444 C 0.87480 0.43978 0.73938
 N1445 N 0.88492 0.42237 0.74758
 N1446 N 0.89891 0.41106 0.73608
 C1447 C 0.85971 0.45264 0.75253
 C1448 C 0.85812 0.44873 0.77432
 C1449 C 0.84456 0.46120 0.78698
 C1450 C 0.83220 0.47781 0.77819
 C1451 C 0.83330 0.48145 0.75635
 C1452 C 0.84705 0.46908 0.74365
 H1453 H 0.92332 0.37916 0.72664
 H1454 H 0.95060 0.35938 0.70686
 H1455 H 0.94758 0.40634 0.65703
 H1456 H 0.92014 0.42619 0.67683
 H1457 H 0.86763 0.43625 0.78171
 H1458 H 0.84404 0.45813 0.80379
 H1459 H 0.82368 0.49400 0.74918
 H1460 H 0.84778 0.47242 0.72691
 C1461 C 0.07568 0.59496 0.70321
 C1462 C 0.07011 0.58817 0.68275
 C1463 C 0.05506 0.59968 0.67069
 C1464 C 0.04536 0.61832 0.67878
 C1465 C 0.05119 0.62527 0.69910
 C1466 C 0.06611 0.61371 0.71118
 C1467 C 0.09110 0.58248 0.71636
 N1468 N 0.09416 0.58750 0.73700
 N1469 N 0.10777 0.57620 0.74895
 C1470 C 0.11896 0.55940 0.74078
 N1471 N 0.11595 0.55440 0.72011
 N1472 N 0.10228 0.56567 0.70816
 C1473 C 0.13403 0.54683 0.75419
 C1474 C 0.14780 0.53128 0.74530
 C1475 C 0.16206 0.51956 0.75803
 C1476 C 0.16262 0.52294 0.77993
 C1477 C 0.14896 0.53849 0.78882
 C1478 C 0.13483 0.55031 0.77611
 H1479 H 0.07716 0.57379 0.67612
 H1480 H 0.05094 0.59392 0.65508
 H1481 H 0.04402 0.63954 0.70582
 H1482 H 0.07007 0.61948 0.72684
 H1483 H 0.14773 0.52829 0.72847
 H1484 H 0.17277 0.50798 0.75075
 H1485 H 0.14911 0.54135 0.80568
 H1486 H 0.12444 0.56211 0.78351
 C1487 C 0.07511 0.40283 0.29448
 C1488 C 0.06485 0.38446 0.28642
 C1489 C 0.04970 0.37324 0.29854
 C1490 C 0.04432 0.38017 0.31898
 C1491 C 0.05468 0.39843 0.32714
 C1492 C 0.06997 0.40961 0.31505
 C1493 C 0.09083 0.41495 0.28134
 N1494 N 0.10272 0.43123 0.28966
 N1495 N 0.11665 0.44221 0.27773
 C1496 C 0.11923 0.43742 0.25697
 N1497 N 0.10734 0.42114 0.24867
 N1498 N 0.09347 0.41013 0.26060
 C1499 C 0.13450 0.44979 0.24358
 C1500 C 0.13477 0.44686 0.22157
 C1501 C 0.14891 0.45873 0.20890
 C1502 C 0.16311 0.47375 0.21794
 C1503 C 0.16316 0.47644 0.23993
 C1504 C 0.14891 0.46470 0.25262
 H1505 H 0.06847 0.37873 0.27068
 H1506 H 0.04200 0.35924 0.29176
 H1507 H 0.05091 0.40417 0.34284
 H1508 H 0.07755 0.42370 0.32174
 H1509 H 0.12390 0.43554 0.21407
 H1510 H 0.14858 0.45640 0.19197
 H1511 H 0.17429 0.48761 0.24730
 H1512 H 0.14927 0.46723 0.26951
   
