data_POSCAR
  _audit_creation_date              2014-09-24
  _audit_creation_method            'ToBaCCo'
  _symmetry_space_group_name_H-M    'P1'
  _symmetry_Int_Tables_number       1
  _symmetry_cell_setting            triclinic
  loop_
  _symmetry_equiv_pos_as_xyz
 x,y,z
_cell_length_a 51.5499
_cell_length_b 52.0537
_cell_length_c 46.3821
_cell_angle_alpha 90.857500
_cell_angle_beta 90.140100
_cell_angle_gamma 88.580800
loop_
  _atom_site_label
  _atom_site_type_symbol
  _atom_site_fract_x
  _atom_site_fract_y
  _atom_site_fract_z
C1 C 0.35015 0.00178 0.25261
 C2 C 0.14035 -0.00001 0.75076
 C3 C 0.64095 0.50382 0.24995
 C4 C 0.85592 0.49831 0.74397
 C5 C 0.25236 0.39084 0.99526
 C6 C 0.74290 0.11299 0.99939
 C7 C 0.24679 0.61215 0.49833
 C8 C 0.75669 0.89143 0.50032
 C9 C -0.00058 0.24778 0.37462
 C10 C -0.00014 0.74964 0.11575
 C11 C 0.50044 0.25208 0.61801
 C12 C 0.50270 0.74820 0.87805
 C13 C -0.25171 0.59743 0.99901
 C14 C -0.24798 0.40225 0.50914
 C15 C 0.24962 -0.10429 0.00561
 C16 C 0.25139 1.09642 0.49423
 C17 C 0.15088 0.50651 0.24689
 C18 C -0.14617 0.99923 0.25174
 C19 C 0.35474 0.49387 -0.25261
 C20 C 0.65165 0.00251 -0.24160
 C21 C 0.00131 0.24786 0.87414
 C22 C 0.49877 0.25033 0.12752
 C23 C 0.00045 0.74948 0.62501
 C24 C 0.50210 0.75352 0.37819
 B25 B -0.02350 0.01454 1.02300
 B26 B -0.03617 0.00949 0.99005
 B27 B -0.01189 0.03020 0.99432
 B28 B 0.00878 0.01862 1.01963
 B29 B -0.00298 -0.00990 1.03073
 B30 B -0.03106 -0.01557 1.01231
 B31 B 0.00839 -0.01441 0.97320
 B32 B 0.02104 -0.00938 1.00615
 B33 B -0.00322 -0.03009 1.00182
 B34 B -0.02391 -0.01851 0.97653
 B35 B -0.01213 0.01000 0.96544
 B36 B 0.01593 0.01566 0.98388
 B37 B 0.47852 0.51719 0.52158
 B38 B 0.46670 0.51098 0.48847
 B39 B 0.49045 0.53226 0.49267
 B40 B 0.51076 0.52181 0.51890
 B41 B 0.49930 0.49338 0.53068
 B42 B 0.47176 0.48667 0.51175
 B43 B 0.51201 0.48749 0.47363
 B44 B 0.52382 0.49370 0.50672
 B45 B 0.50006 0.47242 0.50248
 B46 B 0.47975 0.48287 0.47628
 B47 B 0.49123 0.51127 0.46450
 B48 B 0.51876 0.51800 0.48344
 B49 B 0.52642 0.99233 0.52325
 B50 B 0.53848 0.99620 0.49003
 B51 B 0.51612 0.97385 0.49547
 B52 B 0.49470 0.98529 0.52034
 B53 B 0.50396 1.01546 0.52994
 B54 B 0.53133 1.02224 0.51102
 B55 B 0.49207 1.01519 0.47237
 B56 B 0.48002 1.01124 0.50558
 B57 B 0.50236 1.03364 0.50006
 B58 B 0.52386 1.02218 0.47522
 B59 B 0.51452 0.99207 0.46563
 B60 B 0.48720 0.98528 0.48454
 B61 B 0.01896 0.48276 1.02522
 B62 B 0.02986 0.48708 0.99158
 B63 B 0.00681 0.46550 0.99747
 B64 B -0.01318 0.47718 1.02369
 B65 B -0.00223 0.50665 1.03374
 B66 B 0.02467 0.51275 1.01372
 B67 B -0.01638 0.50837 0.97682
 B68 B -0.02727 0.50414 1.01045
 B69 B -0.00417 0.52569 1.00451
 B70 B 0.01577 0.51397 0.97834
 B71 B 0.00481 0.48454 0.96833
 B72 B -0.02205 0.47841 0.98834
 B73 B 0.01714 0.51743 0.46709
 B74 B 0.02986 0.51197 0.49988
 B75 B 0.00513 0.53332 0.49627
 B76 B -0.01529 0.52232 0.47050
 B77 B -0.00278 0.49352 0.45840
 B78 B 0.02543 0.48713 0.47669
 B79 B -0.01408 0.48923 0.51577
 B80 B -0.02685 0.49456 0.48302
 B81 B -0.00200 0.47329 0.48663
 B82 B 0.01828 0.48431 0.51234
 B83 B 0.00579 0.51309 0.52442
 B84 B -0.02237 0.51951 0.50615
 B85 B 0.51702 0.01203 -0.01633
 B86 B 0.52929 0.00713 0.01677
 B87 B 0.50422 0.02800 0.01242
 B88 B 0.48447 0.01650 -0.01360
 B89 B 0.49760 -0.01219 -0.02515
 B90 B 0.52560 -0.01803 -0.00626
 B91 B 0.48545 -0.01630 0.03199
 B92 B 0.47311 -0.01131 -0.00105
 B93 B 0.49817 -0.03222 0.00318
 B94 B 0.51798 -0.02072 0.02925
 B95 B 0.50482 0.00797 0.04082
 B96 B 0.47684 0.01382 0.02195
 B97 B 0.48291 0.48129 -0.02644
 B98 B 0.47030 0.48837 0.00620
 B99 B 0.49455 0.46632 0.00310
 B100 B 0.51522 0.47574 -0.02272
 B101 B 0.50345 0.50430 -0.03541
 B102 B 0.47538 0.51214 -0.01741
 B103 B 0.51488 0.51073 0.02190
 B104 B 0.52752 0.50365 -0.01067
 B105 B 0.50324 0.52569 -0.00762
 B106 B 0.48259 0.51627 0.01821
 B107 B 0.49437 0.48772 0.03090
 B108 B 0.52240 0.47986 0.01291
 B109 B -0.01437 0.98199 0.47410
 B110 B -0.02627 0.98909 0.50705
 B111 B -0.00188 0.96729 0.50341
 B112 B 0.01805 0.97677 0.47696
 B113 B 0.00572 1.00517 0.46440
 B114 B -0.02202 1.01281 0.48312
 B115 B 0.01837 1.01202 0.52132
 B116 B 0.03034 1.00486 0.48845
 B117 B 0.00591 1.02670 0.49204
 B118 B -0.01405 1.01719 0.51848
 B119 B -0.00166 0.98884 0.53105
 B120 B 0.02602 0.98116 0.51235
 B121 B 0.75549 0.23271 0.23703
 B122 B 0.75087 0.22007 0.26963
 B123 B 0.77302 0.24286 0.26561
 B124 B 0.76174 0.26424 0.24128
 B125 B 0.73187 0.25446 0.23059
 B126 B 0.72509 0.22690 0.24829
 B127 B 0.73003 0.26530 0.28855
 B128 B 0.73474 0.27784 0.25586
 B129 B 0.71251 0.25512 0.25996
 B130 B 0.72381 0.23366 0.28434
 B131 B 0.75368 0.24345 0.29501
 B132 B 0.76047 0.27104 0.27729
 B133 B 0.74073 0.76797 0.73020
 B134 B 0.74597 0.77950 0.76367
 B135 B 0.72336 0.75723 0.75815
 B136 B 0.73405 0.73640 0.73218
 B137 B 0.76398 0.74603 0.72197
 B138 B 0.77137 0.77292 0.74161
 B139 B 0.76625 0.73343 0.77906
 B140 B 0.76102 0.72192 0.74556
 B141 B 0.78363 0.74421 0.75115
 B142 B 0.77292 0.76502 0.77710
 B143 B 0.74302 0.75538 0.78729
 B144 B 0.73561 0.72849 0.76765
 B145 B 0.26423 0.26127 0.76703
 B146 B 0.25826 0.27390 0.73453
 B147 B 0.27986 0.24936 0.73764
 B148 B 0.26920 0.22918 0.76298
 B149 B 0.24032 0.24154 0.77531
 B150 B 0.23348 0.26945 0.75761
 B151 B 0.23501 0.23033 0.71776
 B152 B 0.24102 0.21772 0.75029
 B153 B 0.21940 0.24222 0.74721
 B154 B 0.23004 0.26243 0.72183
 B155 B 0.25896 0.25008 0.70950
 B156 B 0.26578 0.22214 0.72720
 B157 B 0.23204 0.74175 0.27651
 B158 B 0.23955 0.72910 0.24398
 B159 B 0.21740 0.75323 0.24659
 B160 B 0.22665 0.77371 0.27306
 B161 B 0.25527 0.76196 0.28663
 B162 B 0.26325 0.73408 0.26850
 B163 B 0.26263 0.77305 0.22978
 B164 B 0.25507 0.78567 0.26231
 B165 B 0.27723 0.76151 0.25963
 B166 B 0.26795 0.74104 0.23315
 B167 B 0.23941 0.75283 0.21958
 B168 B 0.23138 0.78070 0.23771
 B169 B 0.26215 0.73105 0.73274
 B170 B 0.25690 0.71790 0.76497
 B171 B 0.27811 0.74171 0.76220
 B172 B 0.26672 0.76284 0.73760
 B173 B 0.23777 0.75177 0.72545
 B174 B 0.23168 0.72373 0.74252
 B175 B 0.23337 0.76203 0.78334
 B176 B 0.23861 0.77504 0.75102
 B177 B 0.21740 0.75124 0.75391
 B178 B 0.22879 0.73015 0.77855
 B179 B 0.25774 0.74119 0.79067
 B180 B 0.26385 0.76925 0.77355
 B181 B 0.23675 0.27012 0.22716
 B182 B 0.24165 0.28193 0.26055
 B183 B 0.21931 0.25940 0.25506
 B184 B 0.23036 0.23853 0.22938
 B185 B 0.26025 0.24837 0.21930
 B186 B 0.26726 0.27546 0.23875
 B187 B 0.26229 0.23621 0.27651
 B188 B 0.25736 0.22444 0.24309
 B189 B 0.27972 0.24695 0.24864
 B190 B 0.26866 0.26785 0.27433
 B191 B 0.23879 0.25800 0.28440
 B192 B 0.23178 0.23090 0.26494
 B193 B 0.76585 0.76538 0.26907
 B194 B 0.75997 0.77809 0.23658
 B195 B 0.78113 0.75319 0.23962
 B196 B 0.77019 0.73321 0.26501
 B197 B 0.74160 0.74610 0.27747
 B198 B 0.73522 0.77410 0.25978
 B199 B 0.73585 0.73495 0.21995
 B200 B 0.74175 0.72226 0.25245
 B201 B 0.72057 0.74714 0.24949
 B202 B 0.73149 0.76712 0.22402
 B203 B 0.76014 0.75426 0.21155
 B204 B 0.76651 0.72624 0.22925
 B205 B 0.73694 0.23573 0.76969
 B206 B 0.74514 0.22131 0.73828
 B207 B 0.72211 0.24481 0.73893
 B208 B 0.73038 0.26728 0.76361
 B209 B 0.75915 0.25741 0.77827
 B210 B 0.76846 0.22877 0.76247
 B211 B 0.76685 0.26503 0.72069
 B212 B 0.75819 0.27956 0.75208
 B213 B 0.78146 0.25619 0.75152
 B214 B 0.77327 0.23361 0.72670
 B215 B 0.74427 0.24325 0.71217
 B216 B 0.73521 0.27198 0.72763
 C217 C 0.40492 1.02299 0.32066
 C218 C 0.40271 0.99742 0.31160
 C219 C 0.38527 0.99097 0.28978
 C220 C 0.36896 1.00986 0.27706
 C221 C 0.37280 1.03586 0.28523
 C222 C 0.39024 1.04224 0.30716
 C223 C 0.42081 1.02882 0.34526
 C224 C 0.43318 1.03164 0.36708
 C225 C 0.44640 1.03183 0.39436
 C226 C 0.43599 1.01748 0.41646
 C227 C 0.44994 1.01351 0.44170
 C228 C 0.47454 1.02428 0.44577
 C229 C 0.48440 1.03979 0.42390
 C230 C 0.47043 1.04344 0.39821
 H231 H 0.41418 0.98234 0.32176
 H232 H 0.38405 0.97100 0.28316
 H233 H 0.36268 1.05154 0.27471
 H234 H 0.39212 1.06217 0.31372
 H235 H 0.41755 1.00820 0.41361
 H236 H 0.44172 1.00099 0.45747
 H237 H 0.50339 1.04803 0.42597
 H238 H 0.47878 1.05440 0.38104
 C239 C -0.10113 0.51481 0.82343
 C240 C -0.09576 0.49236 0.80739
 C241 C -0.10994 0.48699 0.78240
 C242 C -0.12924 0.50441 0.77229
 C243 C -0.13558 0.52603 0.79007
 C244 C -0.12138 0.53134 0.81503
 C245 C -0.08695 0.51996 0.84953
 C246 C -0.07550 0.52314 0.87192
 C247 C -0.06261 0.52461 0.89938
 C248 C -0.07371 0.51236 0.92266
 C249 C -0.05975 0.50911 0.94807
 C250 C -0.03440 0.51845 0.95101
 C251 C -0.02401 0.53230 0.92804
 C252 C -0.03801 0.53523 0.90228
 H253 H -0.08066 0.47894 0.81425
 H254 H -0.10541 0.46943 0.77045
 H255 H -0.15166 0.53894 0.78516
 H256 H -0.12641 0.54824 0.82796
 H257 H -0.09264 0.50389 0.92059
 H258 H -0.06840 0.49775 0.96466
 H259 H -0.00448 0.53942 0.92920
 H260 H -0.02915 0.54462 0.88424
 C261 C 0.09256 -0.02681 0.82156
 C262 C 0.11388 -0.01150 0.82734
 C263 C 0.12915 -0.00282 0.80493
 C264 C 0.12298 -0.00856 0.77588
 C265 C 0.10240 -0.02553 0.77058
 C266 C 0.08699 -0.03413 0.79315
 C267 C 0.07623 -0.03361 0.84523
 C268 C 0.06391 -0.03669 0.86690
 C269 C 0.05134 -0.03663 0.89455
 C270 C 0.06374 -0.02407 0.91726
 C271 C 0.05060 -0.01867 0.94281
 C272 C 0.02481 -0.02632 0.94670
 C273 C 0.01291 -0.04037 0.92428
 C274 C 0.02606 -0.04533 0.89821
 H275 H 0.11870 -0.00614 0.84935
 H276 H 0.14598 0.00815 0.81065
 H277 H 0.09803 -0.03184 0.74879
 H278 H 0.07075 -0.04633 0.78843
 H279 H 0.08314 -0.01691 0.91457
 H280 H 0.06039 -0.00706 0.95878
 H281 H -0.00704 -0.04614 0.92613
 H282 H 0.01613 -0.05479 0.88057
 C283 C 0.59581 0.47603 0.32235
 C284 C 0.61675 0.49201 0.32740
 C285 C 0.63112 0.50111 0.30446
 C286 C 0.62437 0.49509 0.27564
 C287 C 0.60416 0.47753 0.27107
 C288 C 0.58968 0.46852 0.29415
 C289 C 0.58034 0.46873 0.34651
 C290 C 0.56850 0.46524 0.36841
 C291 C 0.55609 0.46484 0.39611
 C292 C 0.56820 0.47760 0.41889
 C293 C 0.55479 0.48299 0.44429
 C294 C 0.52903 0.47515 0.44789
 C295 C 0.51754 0.46071 0.42550
 C296 C 0.53095 0.45577 0.39962
 H297 H 0.62199 0.49755 0.34923
 H298 H 0.64775 0.51257 0.30961
 H299 H 0.59941 0.47103 0.24946
 H300 H 0.57371 0.45583 0.29000
 H301 H 0.58749 0.48505 0.41629
 H302 H 0.56425 0.49488 0.46025
 H303 H 0.49764 0.45474 0.42713
 H304 H 0.52124 0.44615 0.38192
 C305 C 0.59599 0.53065 0.17569
 C306 C 0.62254 0.52501 0.17328
 C307 C 0.63670 0.51679 0.19725
 C308 C 0.62447 0.51317 0.22405
 C309 C 0.59805 0.52093 0.22661
 C310 C 0.58387 0.52908 0.20250
 C311 C 0.58105 0.53528 0.14996
 C312 C 0.56953 0.53681 0.12738
 C313 C 0.55734 0.53527 0.09950
 C314 C 0.53229 0.54533 0.09452
 C315 C 0.51933 0.53943 0.06869
 C316 C 0.53122 0.52313 0.04778
 C317 C 0.55684 0.51414 0.05281
 C318 C 0.56977 0.52038 0.07819
 H319 H 0.63221 0.52632 0.15266
 H320 H 0.65723 0.51250 0.19469
 H321 H 0.58815 0.52075 0.24711
 H322 H 0.56336 0.53373 0.20470
 H323 H 0.52236 0.55668 0.11106
 H324 H 0.49954 0.54637 0.06593
 H325 H 0.56662 0.50102 0.03791
 H326 H 0.58903 0.51223 0.08191
 C327 C 0.09796 1.02893 0.67567
 C328 C 0.08508 1.02719 0.70202
 C329 C 0.09841 1.01830 0.72639
 C330 C 0.12471 1.00997 0.72452
 C331 C 0.13773 1.01371 0.69820
 C332 C 0.12442 1.02266 0.67399
 C333 C 0.08384 1.03447 0.64961
 C334 C 0.07287 1.03678 0.62679
 C335 C 0.06102 1.03619 0.59869
 C336 C 0.07367 1.02206 0.57690
 C337 C 0.06074 1.01618 0.55138
 C338 C 0.03492 1.02476 0.54678
 C339 C 0.02293 1.04055 0.56809
 C340 C 0.03587 1.04607 0.59402
 H341 H 0.06463 1.03233 0.70366
 H342 H 0.08796 1.01805 0.74654
 H343 H 0.15822 1.00899 0.69620
 H344 H 0.13467 1.02409 0.65373
 H345 H 0.09301 1.01405 0.58038
 H346 H 0.07061 1.00345 0.53613
 H347 H 0.00301 1.04720 0.56567
 H348 H 0.02578 1.05683 0.61092
 C349 C -0.09454 0.47988 0.66980
 C350 C -0.12140 0.47739 0.66816
 C351 C -0.13691 0.48418 0.69175
 C352 C -0.12586 0.49285 0.71795
 C353 C -0.09883 0.49695 0.71849
 C354 C -0.08332 0.49016 0.69474
 C355 C -0.07909 0.47419 0.64471
 C356 C -0.06746 0.47093 0.62245
 C357 C -0.05551 0.46991 0.59455
 C358 C -0.06862 0.48206 0.57207
 C359 C -0.05604 0.48628 0.54623
 C360 C -0.03010 0.47786 0.54193
 C361 C -0.01758 0.46399 0.56407
 C362 C -0.03019 0.46020 0.59038
 H363 H -0.13040 0.47033 0.64855
 H364 H -0.15769 0.48191 0.68995
 H365 H -0.08946 0.50565 0.73691
 H366 H -0.06263 0.49328 0.69569
 H367 H -0.08813 0.48988 0.57516
 H368 H -0.06630 0.49779 0.53048
 H369 H 0.00247 0.45762 0.56189
 H370 H -0.01979 0.45093 0.60784
 C371 C 0.40382 -0.02433 0.18464
 C372 C 0.40260 0.00143 0.19357
 C373 C 0.38549 0.00944 0.21535
 C374 C 0.36852 -0.00796 0.22814
 C375 C 0.37139 -0.03428 0.22013
 C376 C 0.38850 -0.04223 0.19824
 C377 C 0.41912 -0.03156 0.15984
 C378 C 0.43082 -0.03543 0.13770
 C379 C 0.44301 -0.03657 0.10990
 C380 C 0.43019 -0.02424 0.08733
 C381 C 0.44314 -0.01964 0.06180
 C382 C 0.46918 -0.02787 0.05787
 C383 C 0.48143 -0.04197 0.08000
 C384 C 0.46845 -0.04610 0.10604
 H385 H 0.41454 0.01547 0.18330
 H386 H 0.38503 0.02951 0.22188
 H387 H 0.36077 -0.04904 0.23074
 H388 H 0.38958 -0.06231 0.19176
 H389 H 0.41062 -0.01650 0.09018
 H390 H 0.43304 -0.00807 0.04596
 H391 H 0.50151 -0.04830 0.07803
 H392 H 0.47867 -0.05545 0.12358
 C393 C 0.31963 0.43493 0.02258
 C394 C 0.29481 0.44259 0.03199
 C395 C 0.27327 0.42810 0.02387
 C396 C 0.27608 0.40664 0.00490
 C397 C 0.30165 0.39818 -0.00196
 C398 C 0.32293 0.41237 0.00631
 C399 C 0.34235 0.44974 0.02794
 C400 C 0.36340 0.45926 0.02892
 C401 C 0.38992 0.46670 0.02599
 C402 C 0.39891 0.49044 0.03583
 C403 C 0.42460 0.49725 0.03022
 C404 C 0.44141 0.48045 0.01452
 C405 C 0.43191 0.45662 0.00512
 C406 C 0.40659 0.44985 0.01090
 H407 H 0.29209 0.45971 0.04529
 H408 H 0.25427 0.43404 0.03175
 H409 H 0.30561 0.38044 -0.01371
 H410 H 0.34215 0.40577 -0.00033
 H411 H 0.38606 0.50377 0.04733
 H412 H 0.43105 0.51582 0.03771
 H413 H 0.44366 0.44327 -0.00759
 H414 H 0.39978 0.43154 0.00285
 C415 C -0.17537 0.93349 0.52925
 C416 C -0.20012 0.94173 0.53826
 C417 C -0.22187 0.92769 0.52992
 C418 C -0.21929 0.90619 0.51099
 C419 C -0.19386 0.89695 0.50478
 C420 C -0.17233 0.91067 0.51337
 C421 C -0.15260 0.94837 0.53397
 C422 C -0.13168 0.95816 0.53425
 C423 C -0.10544 0.96605 0.53027
 C424 C -0.09660 0.99000 0.53962
 C425 C -0.07130 0.99729 0.53285
 C426 C -0.05475 0.98076 0.51646
 C427 C -0.06412 0.95673 0.50755
 C428 C -0.08902 0.94948 0.51450
 H429 H -0.20265 0.95909 0.55121
 H430 H -0.24087 0.93419 0.53730
 H431 H -0.19028 0.87913 0.49304
 H432 H -0.15317 0.90366 0.50701
 H433 H -0.10930 1.00311 0.55163
 H434 H -0.06494 1.01599 0.54002
 H435 H -0.05261 0.94358 0.49434
 H436 H -0.09576 0.93103 0.50679
 C437 C -0.18886 0.06848 0.97033
 C438 C -0.18848 0.09523 0.97261
 C439 C -0.21080 0.10915 0.98062
 C440 C -0.23394 0.09658 0.98743
 C441 C -0.23475 0.06980 0.98191
 C442 C -0.21220 0.05581 0.97411
 C443 C -0.16455 0.05448 0.96783
 C444 C -0.14309 0.04478 0.96819
 C445 C -0.11663 0.03593 0.97160
 C446 C -0.10006 0.05122 0.98786
 C447 C -0.07468 0.04299 0.99323
 C448 C -0.06510 0.01921 0.98233
 C449 C -0.08186 0.00401 0.96555
 C450 C -0.10753 0.01232 0.96027
 H451 H -0.17058 0.10531 0.96949
 H452 H -0.20964 0.12980 0.98315
 H453 H -0.25246 0.05936 0.98400
 H454 H -0.21282 0.03509 0.97185
 H455 H -0.10692 0.06946 0.99694
 H456 H -0.06286 0.05520 1.00663
 H457 H -0.07536 -0.01445 0.95684
 H458 H -0.12028 0.00024 0.94773
 C459 C 0.31175 0.56139 0.47293
 C460 C 0.29973 0.57665 0.45200
 C461 C 0.27818 0.59229 0.45925
 C462 C 0.26905 0.59375 0.48800
 C463 C 0.28007 0.57637 0.50800
 C464 C 0.30136 0.56068 0.50065
 C465 C 0.33680 0.54958 0.46786
 C466 C 0.35883 0.54148 0.46650
 C467 C 0.38583 0.53434 0.46852
 C468 C 0.40205 0.55104 0.48334
 C469 C 0.42766 0.54386 0.48895
 C470 C 0.43783 0.51980 0.47961
 C471 C 0.42149 0.50330 0.46392
 C472 C 0.39556 0.51050 0.45853
 H473 H 0.30748 0.57709 0.43033
 H474 H 0.26917 0.60332 0.44227
 H475 H 0.27290 0.57597 0.52992
 H476 H 0.31048 0.54888 0.51704
 H477 H 0.39461 0.56939 0.49155
 H478 H 0.43903 0.55693 0.50177
 H479 H 0.42845 0.48457 0.45649
 H480 H 0.38301 0.49730 0.44727
 C481 C 0.18294 0.56167 0.51766
 C482 C 0.19466 0.57507 0.54032
 C483 C 0.21587 0.59055 0.53493
 C484 C 0.22494 0.59373 0.50645
 C485 C 0.21425 0.57812 0.48447
 C486 C 0.19329 0.56259 0.48995
 C487 C 0.15828 0.55000 0.52142
 C488 C 0.13659 0.54202 0.52191
 C489 C 0.10998 0.53493 0.51925
 C490 C 0.09321 0.55124 0.50404
 C491 C 0.06786 0.54419 0.49849
 C492 C 0.05855 0.52063 0.50819
 C493 C 0.07549 0.50450 0.52411
 C494 C 0.10112 0.51159 0.52952
 H495 H 0.18695 0.57419 0.56198
 H496 H 0.22468 0.60010 0.55316
 H497 H 0.22141 0.57903 0.46258
 H498 H 0.18441 0.55219 0.47223
 H499 H 0.09997 0.56923 0.49571
 H500 H 0.05594 0.55702 0.48569
 H501 H 0.06921 0.48617 0.53188
 H502 H 0.11408 0.49871 0.54113
 C503 C 0.67740 0.06797 0.02825
 C504 C 0.67317 0.08933 0.01089
 C505 C 0.69385 0.10387 0.00195
 C506 C 0.71969 0.09693 0.00931
 C507 C 0.72340 0.07660 0.02900
 C508 C 0.70251 0.06183 0.03783
 C509 C 0.65537 0.05270 0.03484
 C510 C 0.63482 0.04236 0.03704
 C511 C 0.60859 0.03366 0.03542
 C512 C 0.59075 0.04925 0.02080
 C513 C 0.56577 0.04102 0.01561
 C514 C 0.55765 0.01699 0.02527
 C515 C 0.57559 0.00152 0.04070
 C516 C 0.60103 0.00977 0.04562
 H517 H 0.65369 0.09474 0.00404
 H518 H 0.68921 0.12072 -0.01056
 H519 H 0.74264 0.07178 0.03696
 H520 H 0.70597 0.04566 0.05187
 H521 H 0.59646 0.06759 0.01237
 H522 H 0.55338 0.05327 0.00269
 H523 H 0.57026 -0.01719 0.04828
 H524 H 0.61481 -0.00262 0.05674
 C525 C 0.69124 0.93898 0.47040
 C526 C 0.71532 0.95034 0.47435
 C527 C 0.73694 0.93531 0.48263
 C528 C 0.73442 0.90889 0.48859
 C529 C 0.71055 0.89753 0.48167
 C530 C 0.68918 0.91244 0.47312
 C531 C 0.66773 0.95417 0.46755
 C532 C 0.64652 0.96442 0.46797
 C533 C 0.62007 0.97305 0.47205
 C534 C 0.60946 0.99506 0.45903
 C535 C 0.58349 1.00252 0.46441
 C536 C 0.56802 0.98802 0.48287
 C537 C 0.57924 0.96597 0.49556
 C538 C 0.60483 0.95863 0.49019
 H539 H 0.71724 0.97086 0.47179
 H540 H 0.75533 0.94466 0.48461
 H541 H 0.70811 0.87710 0.48434
 H542 H 0.67068 0.90335 0.46990
 H543 H 0.62117 1.00642 0.44494
 H544 H 0.57566 1.01962 0.45426
 H545 H 0.56843 0.95422 0.51003
 H546 H 0.61282 0.94160 0.50044
 C547 C 0.18390 0.43450 0.96653
 C548 C 0.18377 0.40778 0.96837
 C549 C 0.20618 0.39420 0.97627
 C550 C 0.22924 0.40704 0.98329
 C551 C 0.22986 0.43374 0.97810
 C552 C 0.20714 0.44744 0.97050
 C553 C 0.15935 0.44807 0.96460
 C554 C 0.13758 0.45699 0.96559
 C555 C 0.11084 0.46450 0.96991
 C556 C 0.09571 0.44868 0.98668
 C557 C 0.07012 0.45561 0.99296
 C558 C 0.05887 0.47858 0.98249
 C559 C 0.07417 0.49429 0.96514
 C560 C 0.10006 0.48729 0.95894
 H561 H 0.16594 0.39749 0.96514
 H562 H 0.20513 0.37358 0.97861
 H563 H 0.24750 0.44433 0.98030
 H564 H 0.20755 0.46814 0.96860
 H565 H 0.10389 0.43107 0.99547
 H566 H 0.05951 0.44313 1.00682
 H567 H 0.06638 0.51217 0.95676
 H568 H 0.11168 0.49976 0.94600
 C569 C 0.00091 0.31951 0.42531
 C570 C 0.00695 0.29627 0.43881
 C571 C 0.00682 0.27312 0.42299
 C572 C -0.00018 0.27269 0.39343
 C573 C -0.00470 0.29659 0.38000
 C574 C -0.00454 0.31959 0.39581
 C575 C 0.00031 0.34356 0.44115
 C576 C -0.00083 0.36463 0.45236
 C577 C -0.00286 0.39082 0.46282
 C578 C 0.00742 0.39837 0.48955
 C579 C 0.00680 0.42442 0.49792
 C580 C -0.00401 0.44318 0.47955
 C581 C -0.01479 0.43508 0.45306
 C582 C -0.01429 0.40923 0.44491
 H583 H 0.01190 0.29604 0.46152
 H584 H 0.01262 0.25579 0.43405
 H585 H -0.00889 0.29736 0.35714
 H586 H -0.00876 0.33751 0.38494
 H587 H 0.01639 0.38426 0.50359
 H588 H 0.01541 0.42986 0.51834
 H589 H -0.02337 0.44873 0.43824
 H590 H -0.02232 0.40366 0.42419
 C591 C 0.50479 -0.18281 -0.06659
 C592 C 0.51032 -0.20683 -0.05466
 C593 C 0.51010 -0.22905 -0.07206
 C594 C 0.50342 -0.22780 -0.10168
 C595 C 0.49962 -0.20314 -0.11354
 C596 C 0.49988 -0.18103 -0.09615
 C597 C 0.50384 -0.15978 -0.04892
 C598 C 0.50221 -0.13948 -0.03604
 C599 C 0.49924 -0.11396 -0.02380
 C600 C 0.51051 -0.10692 0.00263
 C601 C 0.50906 -0.08120 0.01233
 C602 C 0.49646 -0.06228 -0.00445
 C603 C 0.48468 -0.06999 -0.03057
 C604 C 0.48594 -0.09547 -0.03996
 H605 H 0.51486 -0.20839 -0.03193
 H606 H 0.51549 -0.24702 -0.06207
 H607 H 0.49582 -0.20110 -0.13638
 H608 H 0.49607 -0.16248 -0.10579
 H609 H 0.52096 -0.12110 0.01532
 H610 H 0.51855 -0.07603 0.03235
 H611 H 0.47490 -0.05623 -0.04437
 H612 H 0.47717 -0.10062 -0.06045
 C613 C -0.00226 -0.18408 1.05837
 C614 C -0.02473 -0.19074 1.07304
 C615 C -0.02461 -0.21229 1.09073
 C616 C -0.00162 -0.22717 1.09506
 C617 C 0.02013 -0.22149 1.07797
 C618 C 0.01999 -0.19989 1.06033
 C619 C -0.00146 -0.15990 1.04353
 C620 C -0.00061 -0.13882 1.03302
 C621 C 0.00069 -0.11268 1.02320
 C622 C -0.01026 -0.10499 0.99690
 C623 C -0.01059 -0.07895 0.98926
 C624 C -0.00008 -0.06029 1.00794
 C625 C 0.01138 -0.06854 1.03397
 C626 C 0.01184 -0.09439 1.04138
 H627 H -0.04227 -0.17897 1.07126
 H628 H -0.04262 -0.21699 1.10104
 H629 H 0.03770 -0.23327 1.07927
 H630 H 0.03745 -0.19518 1.04881
 H631 H -0.01907 -0.11897 0.98265
 H632 H -0.01974 -0.07340 0.96920
 H633 H 0.01972 -0.05498 1.04905
 H634 H 0.02034 -0.10002 1.06180
 C635 C 0.50336 0.31973 0.56298
 C636 C 0.48027 0.30655 0.56621
 C637 C 0.47967 0.28475 0.58347
 C638 C 0.50190 0.27622 0.59889
 C639 C 0.52545 0.28868 0.59352
 C640 C 0.52602 0.31043 0.57622
 C641 C 0.50358 0.34374 0.54784
 C642 C 0.50407 0.36464 0.53692
 C643 C 0.50499 0.39057 0.52647
 C644 C 0.49466 0.39738 0.49957
 C645 C 0.49403 0.42320 0.49115
 C646 C 0.50362 0.44250 0.50963
 C647 C 0.51448 0.43514 0.53630
 C648 C 0.51523 0.40950 0.54450
 H649 H 0.46263 0.31333 0.55577
 H650 H 0.46155 0.27484 0.58546
 H651 H 0.54364 0.28175 0.60247
 H652 H 0.54416 0.32017 0.57342
 H653 H 0.48659 0.38287 0.48543
 H654 H 0.48538 0.42807 0.47061
 H655 H 0.52212 0.44922 0.55125
 H656 H 0.52326 0.40453 0.56536
 C657 C 0.49512 1.18808 0.55605
 C658 C 0.47298 1.19660 0.57106
 C659 C 0.47418 1.21749 0.59025
 C660 C 0.49792 1.22976 0.59573
 C661 C 0.51937 1.22246 0.57822
 C662 C 0.51815 1.20149 0.55909
 C663 C 0.49476 1.16410 0.54015
 C664 C 0.49429 1.14299 0.52908
 C665 C 0.49352 1.11669 0.51905
 C666 C 0.48201 1.09877 0.53672
 C667 C 0.48376 1.07267 0.52981
 C668 C 0.49684 1.06384 0.50475
 C669 C 0.50752 1.08213 0.48641
 C670 C 0.50594 1.10842 0.49359
 H671 H 0.45488 1.18667 0.56848
 H672 H 0.45643 1.22372 0.60086
 H673 H 0.53751 1.23238 0.58033
 H674 H 0.53539 1.19529 0.54733
 H675 H 0.47247 1.10488 0.55655
 H676 H 0.47544 1.05939 0.54472
 H677 H 0.51801 1.07614 0.46718
 H678 H 0.51512 1.12215 0.47984
 C679 C -0.00134 0.68131 1.05936
 C680 C -0.02309 0.69778 1.06174
 C681 C -0.02210 0.72005 1.07893
 C682 C 0.00036 0.72587 1.09511
 C683 C 0.02284 0.71028 1.09025
 C684 C 0.02181 0.68801 1.07302
 C685 C -0.00336 0.65659 1.04508
 C686 C -0.00525 0.63520 1.03490
 C687 C -0.00759 0.60886 1.02520
 C688 C -0.01848 0.59124 1.04379
 C689 C -0.01855 0.56517 1.03646
 C690 C -0.00788 0.55605 1.01015
 C691 C 0.00213 0.57408 0.99100
 C692 C 0.00233 0.60031 0.99853
 H693 H -0.04107 0.69305 1.05099
 H694 H -0.03936 0.73224 1.08071
 H695 H 0.04127 0.71492 1.09988
 H696 H 0.03898 0.67571 1.07086
 H697 H -0.02620 0.59756 1.06449
 H698 H -0.02641 0.55208 1.05191
 H699 H 0.01070 0.56789 0.97071
 H700 H 0.01090 0.61375 0.98395
 C701 C 0.50309 0.67640 -0.07363
 C702 C 0.52080 0.67936 -0.09603
 C703 C 0.52077 0.70201 -0.11184
 C704 C 0.50348 0.72271 -0.10498
 C705 C 0.48469 0.71869 -0.08340
 C706 C 0.48477 0.69598 -0.06761
 C707 C 0.50325 0.65269 -0.05793
 C708 C 0.50406 0.63213 -0.04622
 C709 C 0.50573 0.60661 -0.03459
 C710 C 0.51784 0.58714 -0.05104
 C711 C 0.51798 0.56183 -0.04174
 C712 C 0.50617 0.55535 -0.01551
 C713 C 0.49473 0.57523 0.00145
 C714 C 0.49447 0.60072 -0.00808
 H715 H 0.53451 0.66397 -0.10157
 H716 H 0.53412 0.70282 -0.12969
 H717 H 0.47016 0.73346 -0.07846
 H718 H 0.47047 0.69367 -0.05083
 H719 H 0.52663 0.59141 -0.07157
 H720 H 0.52696 0.54726 -0.05558
 H721 H 0.48524 0.57105 0.02156
 H722 H 0.48498 0.61567 0.00484
 C723 C 0.00220 1.17722 0.42525
 C724 C 0.01919 1.17992 0.40213
 C725 C 0.01846 1.20224 0.38578
 C726 C 0.00118 1.22295 0.39271
 C727 C -0.01683 1.21923 0.41517
 C728 C -0.01606 1.19681 0.43153
 C729 C 0.00296 1.15366 0.44127
 C730 C 0.00434 1.13314 0.45309
 C731 C 0.00669 1.10765 0.46476
 C732 C 0.01878 1.08830 0.44808
 C733 C 0.01952 1.06299 0.45747
 C734 C 0.00835 1.05640 0.48400
 C735 C -0.00303 1.07617 0.50118
 C736 C -0.00389 1.10164 0.49157
 H737 H 0.03283 1.16452 0.39641
 H738 H 0.03120 1.20275 0.36736
 H739 H -0.03140 1.23395 0.42022
 H740 H -0.02984 1.19469 0.44888
 H741 H 0.02706 1.09265 0.42732
 H742 H 0.02841 1.04850 0.44345
 H743 H -0.01204 1.07190 0.52155
 H744 H -0.01335 1.11648 0.50469
 C745 C 0.77117 0.64876 0.93001
 C746 C 0.79015 0.63409 0.94414
 C747 C 0.78320 0.61766 0.96623
 C748 C 0.75684 0.61482 0.97402
 C749 C 0.73823 0.63107 0.96058
 C750 C 0.74526 0.64750 0.93855
 C751 C 0.77774 0.66388 0.90550
 C752 C 0.78143 0.67567 0.88379
 C753 C 0.78277 0.68833 0.85653
 C754 C 0.76947 0.67751 0.83334
 C755 C 0.76598 0.69114 0.80807
 C756 C 0.77622 0.71583 0.80505
 C757 C 0.79106 0.72597 0.82790
 C758 C 0.79417 0.71233 0.85363
 H759 H 0.81036 0.63525 0.93802
 H760 H 0.79878 0.60762 0.97727
 H761 H 0.71804 0.63069 0.96691
 H762 H 0.73038 0.65900 0.92791
 H763 H 0.76037 0.65908 0.83540
 H764 H 0.75384 0.68271 0.79159
 H765 H 0.79893 0.74501 0.82662
 H766 H 0.80436 0.72099 0.87161
 C767 C 0.27172 0.15010 0.42652
 C768 C 0.29133 0.13563 0.43987
 C769 C 0.28520 0.11848 0.46157
 C770 C 0.25907 0.11469 0.46969
 C771 C 0.23982 0.13077 0.45709
 C772 C 0.24602 0.14792 0.43547
 C773 C 0.27740 0.16585 0.40224
 C774 C 0.28025 0.17807 0.38068
 C775 C 0.28053 0.19108 0.35359
 C776 C 0.29164 0.21519 0.35052
 C777 C 0.28776 0.22895 0.32499
 C778 C 0.27247 0.21880 0.30253
 C779 C 0.26237 0.19407 0.30577
 C780 C 0.26661 0.18034 0.33083
 H781 H 0.31137 0.13750 0.43342
 H782 H 0.30122 0.10863 0.47203
 H783 H 0.21976 0.12967 0.46375
 H784 H 0.23066 0.15925 0.42543
 H785 H 0.30230 0.22378 0.36820
 H786 H 0.29551 0.24802 0.32354
 H787 H 0.24994 0.18562 0.28959
 H788 H 0.25772 0.16181 0.33305
 C789 C 0.72128 0.35151 0.44171
 C790 C 0.72437 0.37768 0.43688
 C791 C 0.73390 0.39362 0.45869
 C792 C 0.74140 0.38366 0.48572
 C793 C 0.73620 0.35755 0.49095
 C794 C 0.72676 0.34156 0.46895
 C795 C 0.71519 0.33486 0.41767
 C796 C 0.71232 0.32222 0.39593
 C797 C 0.71223 0.30919 0.36832
 C798 C 0.72598 0.32024 0.34606
 C799 C 0.73013 0.30686 0.32030
 C800 C 0.72010 0.28216 0.31575
 C801 C 0.70506 0.27161 0.33778
 C802 C 0.70128 0.28502 0.36405
 H803 H 0.72005 0.38569 0.41593
 H804 H 0.73616 0.41379 0.45420
 H805 H 0.73931 0.34927 0.51193
 H806 H 0.72410 0.32136 0.47309
 H807 H 0.73474 0.33881 0.34914
 H808 H 0.74235 0.31564 0.30449
 H809 H 0.69736 0.25254 0.33533
 H810 H 0.69074 0.27617 0.38129
 C811 C 0.22014 0.84631 0.93642
 C812 C 0.22606 0.87190 0.93129
 C813 C 0.23537 0.88747 0.95355
 C814 C 0.23986 0.87760 0.98136
 C815 C 0.23189 0.85226 0.98666
 C816 C 0.22267 0.83663 0.96425
 C817 C 0.21406 0.82980 0.91230
 C818 C 0.21136 0.81730 0.89046
 C819 C 0.21171 0.80460 0.86270
 C820 C 0.22478 0.81664 0.84061
 C821 C 0.23007 0.80360 0.81492
 C822 C 0.22178 0.77825 0.81019
 C823 C 0.20728 0.76668 0.83198
 C824 C 0.20243 0.77975 0.85825
 H825 H 0.22398 0.87971 0.90986
 H826 H 0.23960 0.90725 0.94890
 H827 H 0.23267 0.84436 1.00807
 H828 H 0.21781 0.81693 0.96857
 H829 H 0.23234 0.83572 0.84389
 H830 H 0.24199 0.81315 0.79944
 H831 H 0.20098 0.74709 0.82943
 H832 H 0.19250 0.77011 0.87540
 C833 C 0.28112 0.85446 0.07983
 C834 C 0.26619 0.87697 0.08397
 C835 C 0.25641 0.89040 0.06038
 C836 C 0.26060 0.88112 0.03196
 C837 C 0.27779 0.85972 0.02815
 C838 C 0.28742 0.84612 0.05188
 C839 C 0.28754 0.83919 0.10455
 C840 C 0.28993 0.82747 0.12664
 C841 C 0.28868 0.81529 0.15420
 C842 C 0.27394 0.82773 0.17562
 C843 C 0.26722 0.81479 0.20036
 C844 C 0.27567 0.78918 0.20476
 C845 C 0.29190 0.77725 0.18383
 C846 C 0.29821 0.79019 0.15853
 H847 H 0.26158 0.88388 0.10556
 H848 H 0.24536 0.90798 0.06461
 H849 H 0.28312 0.85303 0.00671
 H850 H 0.29930 0.82890 0.04839
 H851 H 0.26611 0.84698 0.17234
 H852 H 0.25402 0.82459 0.21517
 H853 H 0.29840 0.75745 0.18607
 H854 H 0.30934 0.78023 0.14184
 C855 C 0.78566 0.36094 0.58229
 C856 C 0.76939 0.38241 0.58722
 C857 C 0.75914 0.39618 0.56406
 C858 C 0.76413 0.38815 0.53529
 C859 C 0.78275 0.36808 0.53086
 C860 C 0.79290 0.35422 0.55409
 C861 C 0.79184 0.34409 0.60579
 C862 C 0.79435 0.32928 0.62539
 C863 C 0.79374 0.31084 0.64817
 C864 C 0.78086 0.28796 0.64303
 C865 C 0.77432 0.27237 0.66590
 C866 C 0.78040 0.27946 0.69455
 C867 C 0.79596 0.30104 0.69913
 C868 C 0.80214 0.31695 0.67613
 H869 H 0.76396 0.38806 0.60900
 H870 H 0.74700 0.41291 0.56895
 H871 H 0.78853 0.36239 0.50922
 H872 H 0.80570 0.33775 0.54998
 H873 H 0.77438 0.28293 0.62147
 H874 H 0.76320 0.25551 0.66095
 H875 H 0.80219 0.30648 0.72058
 H876 H 0.81231 0.33458 0.68037
 C877 C 0.22632 0.15046 0.56255
 C878 C 0.20801 0.13510 0.54897
 C879 C 0.21563 0.11795 0.52694
 C880 C 0.24205 0.11504 0.51875
 C881 C 0.25982 0.13212 0.53142
 C882 C 0.25213 0.14928 0.55337
 C883 C 0.21944 0.16564 0.58764
 C884 C 0.21572 0.17714 0.61002
 C885 C 0.21464 0.18900 0.63817
 C886 C 0.20491 0.21411 0.64265
 C887 C 0.20898 0.22671 0.66920
 C888 C 0.22322 0.21439 0.69125
 C889 C 0.23163 0.18867 0.68664
 C890 C 0.22710 0.17610 0.66058
 H891 H 0.18787 0.13615 0.55562
 H892 H 0.20051 0.10729 0.51641
 H893 H 0.27993 0.13169 0.52472
 H894 H 0.26647 0.16126 0.56362
 H895 H 0.19543 0.22438 0.62526
 H896 H 0.20255 0.24657 0.67167
 H897 H 0.24337 0.17856 0.70236
 H898 H 0.23498 0.15678 0.65727
 C899 C 0.72442 0.65358 0.06574
 C900 C 0.75024 0.65149 0.05669
 C901 C 0.75752 0.63369 0.03522
 C902 C 0.73931 0.61687 0.02289
 C903 C 0.71294 0.62067 0.03089
 C904 C 0.70572 0.63847 0.05246
 C905 C 0.71797 0.66937 0.09053
 C906 C 0.71469 0.68131 0.11273
 C907 C 0.71420 0.69350 0.14074
 C908 C 0.70489 0.71878 0.14514
 C909 C 0.70942 0.73148 0.17156
 C910 C 0.72371 0.71910 0.19353
 C911 C 0.73176 0.69327 0.18896
 C912 C 0.72676 0.68061 0.16308
 H913 H 0.76490 0.66324 0.06670
 H914 H 0.77767 0.63252 0.02866
 H915 H 0.69758 0.61018 0.02058
 H916 H 0.68559 0.64019 0.05903
 H917 H 0.69534 0.72905 0.12780
 H918 H 0.70326 0.75142 0.17399
 H919 H 0.74353 0.68307 0.20459
 H920 H 0.73433 0.66116 0.15984
 C921 C 0.19292 0.57579 0.22686
 C922 C 0.16746 0.57268 0.21735
 C923 C 0.15450 0.55020 0.22333
 C924 C 0.16693 0.52989 0.23829
 C925 C 0.19256 0.53360 0.24822
 C926 C 0.20546 0.55623 0.24228
 C927 C 0.20443 0.60048 0.22441
 C928 C 0.21217 0.62209 0.22400
 C929 C 0.21877 0.64869 0.22595
 C930 C 0.20095 0.66574 0.23896
 C931 C 0.20726 0.69123 0.24375
 C932 C 0.23157 0.70042 0.23542
 C933 C 0.24920 0.68321 0.22153
 C934 C 0.24285 0.65742 0.21691
 H935 H 0.15724 0.58807 0.20625
 H936 H 0.13444 0.54878 0.21666
 H937 H 0.20244 0.51964 0.26163
 H938 H 0.22484 0.55889 0.25073
 H939 H 0.18236 0.65912 0.24632
 H940 H 0.19334 0.70327 0.25532
 H941 H 0.26816 0.68939 0.21496
 H942 H 0.25686 0.64426 0.20693
 C943 C 0.69640 0.06926 0.73380
 C944 C 0.67534 0.07224 0.75245
 C945 C 0.66110 0.05115 0.76033
 C946 C 0.66804 0.02603 0.75058
 C947 C 0.68843 0.02359 0.73021
 C948 C 0.70281 0.04494 0.72229
 C949 C 0.71030 0.09198 0.72684
 C950 C 0.71910 0.11302 0.72397
 C951 C 0.72572 0.13972 0.72419
 C952 C 0.70752 0.15719 0.73581
 C953 C 0.71354 0.18287 0.73957
 C954 C 0.73794 0.19197 0.73148
 C955 C 0.75607 0.17432 0.71909
 C956 C 0.75003 0.14827 0.71559
 H957 H 0.66965 0.09112 0.76077
 H958 H 0.64423 0.05505 0.77360
 H959 H 0.69333 0.00501 0.72061
 H960 H 0.71870 0.04249 0.70719
 H961 H 0.68880 0.15076 0.74301
 H962 H 0.69927 0.19516 0.75023
 H963 H 0.77513 0.18043 0.71279
 H964 H 0.76442 0.13481 0.70683
 C965 C 0.80621 0.06689 0.27556
 C966 C 0.79485 0.04659 0.26054
 C967 C 0.80969 0.02469 0.25297
 C968 C 0.83619 0.02242 0.26089
 C969 C 0.84744 0.04363 0.27504
 C970 C 0.83255 0.06539 0.28266
 C971 C 0.79225 0.09085 0.27996
 C972 C 0.78267 0.11213 0.28180
 C973 C 0.77452 0.13867 0.28107
 C974 C 0.75148 0.14804 0.29383
 C975 C 0.74409 0.17407 0.29104
 C976 C 0.75967 0.19081 0.27538
 C977 C 0.78285 0.18083 0.26308
 C978 C 0.79017 0.15522 0.26600
 H979 H 0.77473 0.04806 0.25379
 H980 H 0.80045 0.01005 0.24010
 H981 H 0.86795 0.04332 0.28015
 H982 H 0.84181 0.08142 0.29331
 H983 H 0.73915 0.13527 0.30551
 H984 H 0.72604 0.18089 0.30064
 H985 H 0.79524 0.19247 0.25018
 H986 H 0.80794 0.14817 0.25586
 C987 C 0.30977 0.56346 0.77020
 C988 C 0.33012 0.55530 0.78805
 C989 C 0.34426 0.53276 0.78142
 C990 C 0.33792 0.51746 0.75705
 C991 C 0.31763 0.52643 0.73897
 C992 C 0.30354 0.54897 0.74567
 C993 C 0.29789 0.58846 0.77462
 C994 C 0.28947 0.61019 0.77665
 C995 C 0.28169 0.63687 0.77654
 C996 C 0.29787 0.65392 0.76288
 C997 C 0.29031 0.67955 0.76005
 C998 C 0.26635 0.68890 0.77103
 C999 C 0.25038 0.67166 0.78546
 C1000 C 0.25800 0.64573 0.78812
 H1001 H 0.33578 0.56694 0.80647
 H1002 H 0.36079 0.52810 0.79490
 H1003 H 0.31296 0.51611 0.71927
 H1004 H 0.28840 0.55558 0.73113
 H1005 H 0.31614 0.64724 0.75359
 H1006 H 0.30300 0.69166 0.74810
 H1007 H 0.23174 0.67797 0.79403
 H1008 H 0.24523 0.63258 0.79863
 C1009 C 0.31108 0.42531 0.72548
 C1010 C 0.29863 0.44571 0.74020
 C1011 C 0.31216 0.46795 0.74706
 C1012 C 0.33837 0.47044 0.73873
 C1013 C 0.35074 0.44918 0.72477
 C1014 C 0.33716 0.42708 0.71788
 C1015 C 0.29847 0.40121 0.72156
 C1016 C 0.28975 0.37999 0.71990
 C1017 C 0.28211 0.35367 0.72049
 C1018 C 0.25805 0.34571 0.71000
 C1019 C 0.25074 0.32012 0.71332
 C1020 C 0.26736 0.30235 0.72734
 C1021 C 0.29165 0.31081 0.73716
 C1022 C 0.29892 0.33605 0.73364
 H1023 H 0.27872 0.44410 0.74724
 H1024 H 0.30218 0.48267 0.75976
 H1025 H 0.37113 0.44971 0.71931
 H1026 H 0.34727 0.41103 0.70737
 H1027 H 0.24480 0.35932 0.69989
 H1028 H 0.23182 0.31452 0.70566
 H1029 H 0.30478 0.29845 0.74905
 H1030 H 0.31745 0.34205 0.74215
 C1031 C 0.81173 0.92992 0.22906
 C1032 C 0.83150 0.93801 0.21105
 C1033 C 0.84486 0.96036 0.21776
 C1034 C 0.83823 0.97552 0.24236
 C1035 C 0.81874 0.96646 0.26073
 C1036 C 0.80543 0.94415 0.25394
 C1037 C 0.80039 0.90528 0.22431
 C1038 C 0.79227 0.88386 0.22217
 C1039 C 0.78473 0.85750 0.22233
 C1040 C 0.76058 0.84977 0.21190
 C1041 C 0.75301 0.82428 0.21524
 C1042 C 0.76946 0.80637 0.22928
 C1043 C 0.79388 0.81455 0.23900
 C1044 C 0.80141 0.83972 0.23543
 H1045 H 0.83726 0.92653 0.19235
 H1046 H 0.86094 0.96506 0.20407
 H1047 H 0.81396 0.97664 0.28061
 H1048 H 0.79076 0.93756 0.26861
 H1049 H 0.74740 0.86351 0.20189
 H1050 H 0.73401 0.81889 0.20765
 H1051 H 0.80690 0.80202 0.25083
 H1052 H 0.82000 0.84557 0.24395
 C1053 C 0.69542 0.93371 0.78474
 C1054 C 0.66842 0.93384 0.78249
 C1055 C 0.65483 0.95623 0.77510
 C1056 C 0.66793 0.97906 0.76904
 C1057 C 0.69502 0.97925 0.77414
 C1058 C 0.70869 0.95658 0.78129
 C1059 C 0.70895 0.90931 0.78709
 C1060 C 0.71779 0.88764 0.78665
 C1061 C 0.72502 0.86092 0.78303
 C1062 C 0.70866 0.84564 0.76650
 C1063 C 0.71512 0.81999 0.76099
 C1064 C 0.73815 0.80874 0.77202
 C1065 C 0.75444 0.82419 0.78909
 C1066 C 0.74792 0.85019 0.79453
 H1067 H 0.65788 0.91629 0.78526
 H1068 H 0.63396 0.95545 0.77265
 H1069 H 0.70592 0.99658 0.77235
 H1070 H 0.72961 0.95678 0.78342
 H1071 H 0.69096 0.85373 0.75732
 H1072 H 0.70216 0.80927 0.74729
 H1073 H 0.77240 0.81639 0.79785
 H1074 H 0.76082 0.86191 0.80731
 C1075 C 0.19578 0.43800 0.27138
 C1076 C 0.17480 0.44639 0.28835
 C1077 C 0.16078 0.46872 0.28129
 C1078 C 0.16786 0.48359 0.25739
 C1079 C 0.18893 0.47451 0.24032
 C1080 C 0.20289 0.45216 0.24744
 C1081 C 0.20702 0.41280 0.27556
 C1082 C 0.21459 0.39080 0.27710
 C1083 C 0.22095 0.36379 0.27605
 C1084 C 0.20405 0.34782 0.26122
 C1085 C 0.21027 0.32193 0.25724
 C1086 C 0.23355 0.31117 0.26825
 C1087 C 0.25024 0.32732 0.28392
 C1088 C 0.24399 0.35355 0.28772
 H1089 H 0.16846 0.43498 0.30624
 H1090 H 0.14370 0.47348 0.29392
 H1091 H 0.19418 0.48447 0.22094
 H1092 H 0.21852 0.44533 0.23351
 H1093 H 0.18630 0.35558 0.25183
 H1094 H 0.19715 0.31074 0.24427
 H1095 H 0.26842 0.31992 0.29253
 H1096 H 0.25732 0.36587 0.29913
 C1097 C 0.06686 0.24269 0.81401
 C1098 C 0.05846 0.22049 0.82742
 C1099 C 0.03738 0.22172 0.84642
 C1100 C 0.02475 0.24546 0.85325
 C1101 C 0.03238 0.26728 0.83784
 C1102 C 0.05346 0.26600 0.81889
 C1103 C 0.09039 0.24186 0.79716
 C1104 C 0.11106 0.24097 0.78492
 C1105 C 0.13701 0.23945 0.77328
 C1106 C 0.15648 0.22793 0.78994
 C1107 C 0.18221 0.22811 0.78102
 C1108 C 0.18922 0.23960 0.75488
 C1109 C 0.16939 0.25051 0.73768
 C1110 C 0.14341 0.25051 0.74689
 H1111 H 0.06841 0.20221 0.82346
 H1112 H 0.03110 0.20393 0.85550
 H1113 H 0.02234 0.28560 0.84112
 H1114 H 0.05956 0.28332 0.80846
 H1115 H 0.15186 0.21936 0.81040
 H1116 H 0.19665 0.21947 0.79506
 H1117 H 0.17399 0.25967 0.71759
 H1118 H 0.12848 0.25961 0.73382
 C1119 C 0.57054 0.75367 0.32211
 C1120 C 0.57289 0.74836 0.35148
 C1121 C 0.55094 0.74858 0.36910
 C1122 C 0.52588 0.75327 0.35765
 C1123 C 0.52413 0.76018 0.32824
 C1124 C 0.54616 0.75994 0.31062
 C1125 C 0.59337 0.75260 0.30417
 C1126 C 0.61349 0.75097 0.29091
 C1127 C 0.63886 0.74806 0.27806
 C1128 C 0.64516 0.75948 0.25185
 C1129 C 0.67083 0.75808 0.24160
 C1130 C 0.69043 0.74539 0.25760
 C1131 C 0.68342 0.73346 0.28348
 C1132 C 0.65799 0.73467 0.29341
 H1133 H 0.59175 0.74398 0.36080
 H1134 H 0.55344 0.74459 0.39181
 H1135 H 0.50593 0.76622 0.31861
 H1136 H 0.54417 0.76479 0.28808
 H1137 H 0.63047 0.77000 0.23979
 H1138 H 0.67545 0.76767 0.22178
 H1139 H 0.69771 0.72360 0.29671
 H1140 H 0.65343 0.72578 0.31370
 C1141 C 0.56199 0.25564 0.19055
 C1142 C 0.55350 0.27758 0.17590
 C1143 C 0.53336 0.27616 0.15574
 C1144 C 0.52177 0.25246 0.14898
 C1145 C 0.52949 0.23091 0.16545
 C1146 C 0.54968 0.23237 0.18557
 C1147 C 0.58459 0.25678 0.20886
 C1148 C 0.60463 0.25817 0.22226
 C1149 C 0.62999 0.26041 0.23510
 C1150 C 0.64852 0.27399 0.22017
 C1151 C 0.67424 0.27358 0.22926
 C1152 C 0.68212 0.25987 0.25393
 C1153 C 0.66305 0.24728 0.26979
 C1154 C 0.63712 0.24744 0.26031
 H1155 H 0.56263 0.29583 0.17989
 H1156 H 0.52685 0.29383 0.14581
 H1157 H 0.52009 0.21270 0.16233
 H1158 H 0.55589 0.21526 0.19696
 H1159 H 0.64333 0.28397 0.20055
 H1160 H 0.68813 0.28321 0.21601
 H1161 H 0.66833 0.23628 0.28863
 H1162 H 0.62292 0.23669 0.27198
 C1163 C 0.06576 0.74902 0.68571
 C1164 C 0.04974 0.77086 0.68277
 C1165 C 0.02886 0.77066 0.66350
 C1166 C 0.02402 0.74887 0.64587
 C1167 C 0.03938 0.72643 0.65062
 C1168 C 0.06027 0.72669 0.66994
 C1169 C 0.08900 0.75018 0.70300
 C1170 C 0.10940 0.75165 0.71569
 C1171 C 0.13497 0.75401 0.72796
 C1172 C 0.15346 0.76703 0.71231
 C1173 C 0.17916 0.76724 0.72150
 C1174 C 0.18704 0.75464 0.74691
 C1175 C 0.16805 0.74247 0.76330
 C1176 C 0.14215 0.74208 0.75380
 H1177 H 0.05363 0.78824 0.69502
 H1178 H 0.01669 0.78783 0.66180
 H1179 H 0.03534 0.70848 0.63970
 H1180 H 0.07232 0.70950 0.67235
 H1181 H 0.14820 0.77629 0.69228
 H1182 H 0.19299 0.77672 0.70803
 H1183 H 0.17333 0.73240 0.78278
 H1184 H 0.12798 0.73183 0.76607
 C1185 C 0.93519 0.74672 0.68516
 C1186 C 0.95139 0.72518 0.68037
 C1187 C 0.97227 0.72644 0.66135
 C1188 C 0.97696 0.74903 0.64580
 C1189 C 0.96144 0.77111 0.65247
 C1190 C 0.94053 0.76979 0.67155
 C1191 C 0.91198 0.74458 0.70214
 C1192 C 0.89163 0.74245 0.71460
 C1193 C 0.86614 0.73964 0.72669
 C1194 C 0.84760 0.72690 0.71026
 C1195 C 0.82183 0.72692 0.71914
 C1196 C 0.81396 0.73947 0.74495
 C1197 C 0.83306 0.75109 0.76221
 C1198 C 0.85899 0.75127 0.75304
 H1199 H 0.94762 0.70724 0.69096
 H1200 H 0.98454 0.70945 0.65816
 H1201 H 0.96534 0.78954 0.64323
 H1202 H 0.92835 0.78674 0.67543
 H1203 H 0.85284 0.71789 0.68980
 H1204 H 0.80789 0.71795 0.70496
 H1205 H 0.82781 0.76113 0.78203
 H1206 H 0.87320 0.76130 0.76592
 C1207 C 0.43288 0.24553 0.18652
 C1208 C 0.44524 0.26883 0.18274
 C1209 C 0.46640 0.27013 0.16402
 C1210 C 0.47501 0.24836 0.14774
 C1211 C 0.46337 0.22465 0.15351
 C1212 C 0.44229 0.22340 0.17226
 C1213 C 0.40932 0.24452 0.20308
 C1214 C 0.38861 0.24326 0.21496
 C1215 C 0.36270 0.24135 0.22614
 C1216 C 0.35520 0.25306 0.25232
 C1217 C 0.32904 0.25345 0.26071
 C1218 C 0.31010 0.24230 0.24284
 C1219 C 0.31826 0.22983 0.21709
 C1220 C 0.34423 0.22925 0.20899
 H1221 H 0.43831 0.28609 0.19390
 H1222 H 0.47578 0.28836 0.16172
 H1223 H 0.47050 0.20685 0.14379
 H1224 H 0.43314 0.20514 0.17539
 H1225 H 0.36936 0.26261 0.26573
 H1226 H 0.32355 0.26343 0.28049
 H1227 H 0.30446 0.22117 0.20251
 H1228 H 0.34975 0.22020 0.18865
 C1229 C 0.42887 0.75667 0.32992
 C1230 C 0.43283 0.77399 0.35272
 C1231 C 0.45588 0.77300 0.36861
 C1232 C 0.47601 0.75509 0.36144
 C1233 C 0.47088 0.73665 0.33956
 C1234 C 0.44777 0.73770 0.32368
 C1235 C 0.40489 0.75798 0.31389
 C1236 C 0.38420 0.75968 0.30173
 C1237 C 0.35863 0.76225 0.28931
 C1238 C 0.33903 0.77447 0.30553
 C1239 C 0.31359 0.77529 0.29536
 C1240 C 0.30713 0.76404 0.26852
 C1241 C 0.32718 0.75260 0.25179
 C1242 C 0.35278 0.75166 0.26218
 H1243 H 0.41793 0.78820 0.35843
 H1244 H 0.45750 0.78617 0.38671
 H1245 H 0.48516 0.72170 0.33436
 H1246 H 0.44466 0.72370 0.30658
 H1247 H 0.34329 0.78276 0.32653
 H1248 H 0.29887 0.78428 0.30902
 H1249 H 0.32302 0.74356 0.23119
 H1250 H 0.36782 0.74211 0.24941
 C1251 C 0.93546 0.25736 0.81486
 C1252 C 0.94863 0.23367 0.81712
 C1253 C 0.96989 0.23102 0.83573
 C1254 C 0.97788 0.25174 0.85344
 C1255 C 0.96558 0.27599 0.84911
 C1256 C 0.94434 0.27860 0.83045
 C1257 C 0.91146 0.25932 0.79888
 C1258 C 0.89033 0.26066 0.78761
 C1259 C 0.86387 0.26176 0.77742
 C1260 C 0.84414 0.26337 0.79791
 C1261 C 0.81827 0.26241 0.78948
 C1262 C 0.81129 0.26030 0.76012
 C1263 C 0.83133 0.25892 0.73947
 C1264 C 0.85748 0.25970 0.74808
 H1265 H 0.94212 0.21709 0.80499
 H1266 H 0.97972 0.21244 0.83702
 H1267 H 0.97221 0.29312 0.85999
 H1268 H 0.93457 0.29717 0.82856
 H1269 H 0.84878 0.26462 0.82069
 H1270 H 0.80389 0.26251 0.80640
 H1271 H 0.82690 0.25640 0.71681
 H1272 H 0.87264 0.25810 0.73198
 C1273 C 0.60883 0.98548 0.67897
 C1274 C 0.62811 0.96823 0.68834
 C1275 C 0.64222 0.97354 0.71340
 C1276 C 0.63677 0.99597 0.73022
 C1277 C 0.61834 1.01388 0.71927
 C1278 C 0.60426 1.00849 0.69423
 C1279 C 0.59494 0.98056 0.65262
 C1280 C 0.58371 0.97788 0.63000
 C1281 C 0.57116 0.97719 0.60230
 C1282 C 0.54742 0.96512 0.59807
 C1283 C 0.53385 0.96816 0.57202
 C1284 C 0.54383 0.98354 0.55012
 C1285 C 0.56827 0.99461 0.55446
 C1286 C 0.58180 0.99129 0.58013
 H1287 H 0.63252 0.95081 0.67605
 H1288 H 0.65760 0.96006 0.71905
 H1289 H 0.61446 1.03192 0.73056
 H1290 H 0.58992 1.02240 0.68665
 H1291 H 0.53892 0.95427 0.61525
 H1292 H 0.51504 0.95958 0.56967
 H1293 H 0.57663 1.00691 0.53853
 H1294 H 0.60007 1.00085 0.58321
 C1295 C 0.10813 0.47361 1.17417
 C1296 C 0.10154 0.46747 1.20241
 C1297 C 0.11569 0.47757 1.22558
 C1298 C 0.13584 0.49503 1.22098
 C1299 C 0.14349 0.49911 1.19220
 C1300 C 0.12951 0.48888 1.16917
 C1301 C 0.09217 0.46638 1.15004
 C1302 C 0.07963 0.46308 1.12840
 C1303 C 0.06609 0.46290 1.10126
 C1304 C 0.04135 0.45263 1.09818
 C1305 C 0.02689 0.45709 1.07296
 C1306 C 0.03695 0.47219 1.05082
 C1307 C 0.06227 0.48146 1.05400
 C1308 C 0.07671 0.47662 1.07874
 H1309 H 0.08525 0.45533 1.20655
 H1310 H 0.11035 0.47243 1.24726
 H1311 H 0.16025 0.51028 1.18720
 H1312 H 0.13514 0.49332 1.14733
 H1313 H 0.03279 0.44223 1.11568
 H1314 H 0.00739 0.44995 1.07158
 H1315 H 0.07069 0.49365 1.03800
 H1316 H 0.09569 0.48495 1.08101
 C1317 C -0.10234 0.02889 1.17917
 C1318 C -0.12890 0.02461 1.17682
 C1319 C -0.14267 0.01567 1.20035
 C1320 C -0.13005 0.00994 1.22664
 C1321 C -0.10365 0.01647 1.22938
 C1322 C -0.08984 0.02534 1.20567
 C1323 C -0.08782 0.03429 1.15354
 C1324 C -0.07673 0.03666 1.13089
 C1325 C -0.06501 0.03640 1.10272
 C1326 C -0.07779 0.02363 1.08039
 C1327 C -0.06525 0.01851 1.05434
 C1328 C -0.03966 0.02647 1.04971
 C1329 C -0.02749 0.04083 1.07169
 C1330 C -0.04006 0.04561 1.09815
 H1331 H -0.13889 0.02748 1.15649
 H1332 H -0.16320 0.01232 1.19773
 H1333 H -0.09345 0.01475 1.24965
 H1334 H -0.06933 0.02898 1.20790
 H1335 H -0.09699 0.01619 1.08372
 H1336 H -0.07525 0.00690 1.03851
 H1337 H -0.00774 0.04700 1.06921
 H1338 H -0.02986 0.05536 1.11540
 C1339 C 0.39735 0.52492 0.67465
 C1340 C 0.40396 0.53184 0.70292
 C1341 C 0.39020 0.52193 0.72613
 C1342 C 0.37032 0.50401 0.72156
 C1343 C 0.36297 0.49872 0.69272
 C1344 C 0.37659 0.50871 0.66970
 C1345 C 0.41215 0.53301 0.65025
 C1346 C 0.42343 0.53716 0.62811
 C1347 C 0.43530 0.53842 0.60012
 C1348 C 0.46035 0.54766 0.59641
 C1349 C 0.47337 0.54340 0.57014
 C1350 C 0.46162 0.52943 0.54754
 C1351 C 0.43587 0.52161 0.55128
 C1352 C 0.42283 0.52632 0.57710
 H1353 H 0.41977 0.54473 0.70705
 H1354 H 0.39534 0.52794 0.74780
 H1355 H 0.34646 0.48710 0.68760
 H1356 H 0.37092 0.50364 0.64786
 H1357 H 0.47033 0.55682 0.61422
 H1358 H 0.49325 0.54942 0.56838
 H1359 H 0.42620 0.51012 0.53511
 H1360 H 0.40358 0.51878 0.57980
 C1361 C 0.40184 0.46489 -0.18087
 C1362 C 0.37504 0.46869 -0.17808
 C1363 C 0.36028 0.47746 -0.20135
 C1364 C 0.37205 0.48345 -0.22782
 C1365 C 0.39884 0.47747 -0.23097
 C1366 C 0.41364 0.46878 -0.20752
 C1367 C 0.41712 0.45977 -0.15546
 C1368 C 0.42871 0.45771 -0.13295
 C1369 C 0.44082 0.45845 -0.10494
 C1370 C 0.42811 0.47235 -0.08301
 C1371 C 0.44088 0.47785 -0.05729
 C1372 C 0.46663 0.46911 -0.05255
 C1373 C 0.47878 0.45371 -0.07411
 C1374 C 0.46598 0.44855 -0.10026
 H1375 H 0.36561 0.46560 -0.15762
 H1376 H 0.33959 0.48046 -0.19840
 H1377 H 0.40858 0.47949 -0.25138
 H1378 H 0.43436 0.46555 -0.21005
 H1379 H 0.40876 0.48036 -0.08645
 H1380 H 0.43090 0.49036 -0.04190
 H1381 H 0.49868 0.44699 -0.07159
 H1382 H 0.47613 0.43794 -0.11723
 C1383 C -0.09951 0.96927 0.32340
 C1384 C -0.09306 0.96248 0.29498
 C1385 C -0.10823 0.97186 0.27212
 C1386 C -0.12939 0.98919 0.27718
 C1387 C -0.13656 0.99413 0.30618
 C1388 C -0.12157 0.98465 0.32886
 C1389 C -0.08322 0.96217 0.34740
 C1390 C -0.07089 0.95898 0.36925
 C1391 C -0.05814 0.95897 0.39690
 C1392 C -0.03261 0.94967 0.40048
 C1393 C -0.01920 0.95476 0.42627
 C1394 C -0.03110 0.96955 0.44853
 C1395 C -0.05719 0.97764 0.44487
 C1396 C -0.07057 0.97213 0.41956
 H1397 H -0.07624 0.95021 0.29046
 H1398 H -0.10311 0.96604 0.25032
 H1399 H -0.15390 1.00521 0.31169
 H1400 H -0.12710 0.98958 0.35083
 H1401 H -0.02265 0.93972 0.38289
 H1402 H 0.00094 0.94858 0.42792
 H1403 H -0.06700 0.98978 0.46074
 H1404 H -0.09018 0.97975 0.41695
 C1405 C 0.10150 0.53716 0.31647
 C1406 C 0.12817 0.53343 0.32056
 C1407 C 0.14376 0.52424 0.29795
 C1408 C 0.13290 0.51767 0.27092
 C1409 C 0.10632 0.52388 0.26642
 C1410 C 0.09069 0.53298 0.28919
 C1411 C 0.08522 0.54192 0.34121
 C1412 C 0.07282 0.54335 0.36318
 C1413 C 0.05997 0.54154 0.39053
 C1414 C 0.07233 0.52701 0.41177
 C1415 C 0.05914 0.52072 0.43666
 C1416 C 0.03331 0.52931 0.44130
 C1417 C 0.02136 0.54507 0.42040
 C1418 C 0.03460 0.55103 0.39503
 H1419 H 0.13683 0.53676 0.34156
 H1420 H 0.16432 0.52124 0.30189
 H1421 H 0.09735 0.52158 0.24550
 H1422 H 0.07008 0.53615 0.28567
 H1423 H 0.09183 0.51930 0.40840
 H1424 H 0.06901 0.50806 0.45161
 H1425 H 0.00141 0.55167 0.42288
 H1426 H 0.02472 0.56206 0.37851
 C1427 C 0.60134 0.02225 -0.16823
 C1428 C 0.62820 0.02480 -0.16633
 C1429 C 0.64397 0.01789 -0.18972
 C1430 C 0.63319 0.00898 -0.21597
 C1431 C 0.60612 0.00503 -0.21681
 C1432 C 0.59039 0.01195 -0.19330
 C1433 C 0.58553 0.02773 -0.14331
 C1434 C 0.57330 0.03075 -0.12138
 C1435 C 0.56040 0.03153 -0.09396
 C1436 C 0.57304 0.01983 -0.07086
 C1437 C 0.55973 0.01549 -0.04549
 C1438 C 0.53349 0.02333 -0.04225
 C1439 C 0.52133 0.03661 -0.06506
 C1440 C 0.53470 0.04055 -0.09089
 H1441 H 0.63701 0.03190 -0.14663
 H1442 H 0.66474 0.02004 -0.18766
 H1443 H 0.59687 -0.00381 -0.23521
 H1444 H 0.56971 0.00881 -0.19449
 H1445 H 0.59281 0.01250 -0.07310
 H1446 H 0.56978 0.00440 -0.02921
 H1447 H 0.50107 0.04246 -0.06374
 H1448 H 0.52464 0.04942 -0.10884
 C1449 C 0.68319 0.54818 -0.02177
 C1450 C 0.69526 0.56116 -0.04402
 C1451 C 0.71699 0.57602 -0.03820
 C1452 C 0.72632 0.57903 -0.00965
 C1453 C 0.71541 0.56366 0.01183
 C1454 C 0.69385 0.54877 0.00593
 C1455 C 0.65807 0.53725 -0.02604
 C1456 C 0.63609 0.52996 -0.02751
 C1457 C 0.60907 0.52374 -0.02649
 C1458 C 0.59193 0.54145 -0.01340
 C1459 C 0.56610 0.53538 -0.00932
 C1460 C 0.55661 0.51142 -0.01843
 C1461 C 0.57391 0.49390 -0.03238
 C1462 C 0.60003 0.50000 -0.03629
 H1463 H 0.68740 0.56050 -0.06570
 H1464 H 0.72591 0.58538 -0.05612
 H1465 H 0.72274 0.56442 0.03372
 H1466 H 0.68478 0.53866 0.02334
 H1467 H 0.59875 0.55976 -0.00541
 H1468 H 0.55400 0.54922 0.00228
 H1469 H 0.56754 0.47520 -0.03953
 H1470 H 0.61322 0.48604 -0.04629
 C1471 C 0.18635 1.04725 0.47353
 C1472 C 0.19786 1.04684 0.50082
 C1473 C 0.21964 1.06147 0.50654
 C1474 C 0.22986 1.07759 0.48535
 C1475 C 0.21989 1.07533 0.45700
 C1476 C 0.19795 1.06074 0.45135
 C1477 C 0.16087 1.03702 0.46984
 C1478 C 0.13868 1.03028 0.46887
 C1479 C 0.11158 1.02447 0.47040
 C1480 C 0.09476 1.04244 0.48359
 C1481 C 0.06894 1.03659 0.48830
 C1482 C 0.05920 1.01258 0.47975
 C1483 C 0.07616 0.99485 0.46561
 C1484 C 0.10222 1.00074 0.46106
 H1485 H 0.18919 1.03629 0.51814
 H1486 H 0.22749 1.06165 0.52822
 H1487 H 0.22834 1.08526 0.43917
 H1488 H 0.18947 1.06081 0.42995
 H1489 H 0.10184 1.06077 0.49122
 H1490 H 0.05707 1.05058 0.49998
 H1491 H 0.06960 0.97611 0.45885
 H1492 H 0.11515 0.98658 0.45098
 C1493 C 0.17697 -0.06166 1.02197
 C1494 C 0.19646 -0.05031 1.00599
 C1495 C 0.22018 -0.06336 1.00136
 C1496 C 0.22508 -0.08790 1.01320
 C1497 C 0.20483 -0.09918 1.02871
 C1498 C 0.18126 -0.08607 1.03337
 C1499 C 0.15144 -0.04997 1.02365
 C1500 C 0.12938 -0.04175 1.02376
 C1501 C 0.10246 -0.03404 1.02189
 C1502 C 0.09327 -0.01034 1.03288
 C1503 C 0.06721 -0.00281 1.02889
 C1504 C 0.05009 -0.01888 1.01373
 C1505 C 0.05970 -0.04287 1.00341
 C1506 C 0.08552 -0.05034 1.00751
 H1507 H 0.19299 -0.03177 0.99618
 H1508 H 0.23416 -0.05455 0.98753
 H1509 H 0.20711 -0.11851 1.03679
 H1510 H 0.16601 -0.09542 1.04499
 H1511 H 0.10630 0.00249 1.04400
 H1512 H 0.06074 0.01585 1.03703
 H1513 H 0.04773 -0.05562 0.99089
 H1514 H 0.09246 -0.06864 0.99870
 C1515 C 0.67982 0.44479 0.52767
 C1516 C 0.68401 0.41997 0.53796
 C1517 C 0.70751 0.40695 0.53269
 C1518 C 0.72775 0.41868 0.51761
 C1519 C 0.72303 0.44377 0.50715
 C1520 C 0.69938 0.45672 0.51239
 C1521 C 0.65420 0.45619 0.52917
 C1522 C 0.63203 0.46402 0.52880
 C1523 C 0.60506 0.47108 0.52603
 C1524 C 0.58887 0.45409 0.51159
 C1525 C 0.56309 0.46095 0.50631
 C1526 C 0.55277 0.48501 0.51551
 C1527 C 0.56912 0.50180 0.53076
 C1528 C 0.59516 0.49488 0.53592
 H1529 H 0.66869 0.41022 0.54902
 H1530 H 0.70973 0.38731 0.53982
 H1531 H 0.73694 0.45309 0.49371
 H1532 H 0.69595 0.47560 0.50341
 H1533 H 0.59639 0.43571 0.50360
 H1534 H 0.55172 0.44766 0.49379
 H1535 H 0.56209 0.52054 0.53808
 H1536 H 0.60763 0.50825 0.54703
 C1537 C -0.18110 0.44564 0.48158
 C1538 C -0.19521 0.45328 0.50606
 C1539 C -0.21696 0.43968 0.51427
 C1540 C -0.22551 0.41845 0.49779
 C1541 C -0.21059 0.41073 0.47345
 C1542 C -0.18887 0.42439 0.46530
 C1543 C -0.15656 0.45702 0.47571
 C1544 C -0.13498 0.46484 0.47242
 C1545 C -0.10816 0.47168 0.47108
 C1546 C -0.10035 0.49551 0.46097
 C1547 C -0.07423 0.50235 0.46316
 C1548 C -0.05573 0.48550 0.47573
 C1549 C -0.06403 0.46137 0.48498
 C1550 C -0.08982 0.45455 0.48250
 H1551 H -0.18884 0.46917 0.51944
 H1552 H -0.22695 0.44547 0.53391
 H1553 H -0.21484 0.39352 0.46120
 H1554 H -0.17748 0.41766 0.44696
 H1555 H -0.11450 0.50904 0.45225
 H1556 H -0.06879 0.52119 0.45609
 H1557 H -0.05117 0.44815 0.49603
 H1558 H -0.09567 0.43621 0.49078
 C1559 C 0.31906 -0.06193 -0.01523
 C1560 C 0.30241 -0.05317 0.00672
 C1561 C 0.27970 -0.06624 0.01253
 C1562 C 0.27273 -0.08807 -0.00396
 C1563 C 0.29006 -0.09681 -0.02580
 C1564 C 0.31276 -0.08369 -0.03155
 C1565 C 0.34423 -0.05090 -0.01821
 C1566 C 0.36602 -0.04303 -0.01902
 C1567 C 0.39271 -0.03563 -0.01757
 C1568 C 0.40090 -0.01207 -0.02807
 C1569 C 0.42667 -0.00468 -0.02396
 C1570 C 0.44449 -0.02072 -0.00914
 C1571 C 0.43587 -0.04456 0.00066
 C1572 C 0.41039 -0.05191 -0.00361
 H1573 H 0.30750 -0.03684 0.02016
 H1574 H 0.26786 -0.05968 0.03056
 H1575 H 0.28681 -0.11445 -0.03772
 H1576 H 0.32598 -0.09121 -0.04791
 H1577 H 0.38729 0.00079 -0.03879
 H1578 H 0.43236 0.01388 -0.03165
 H1579 H 0.44837 -0.05727 0.01293
 H1580 H 0.40424 -0.07006 0.00489
 C1581 C 0.32034 1.05004 0.51555
 C1582 C 0.30922 1.04866 0.48809
 C1583 C 0.28633 1.06245 0.48212
 C1584 C 0.27454 1.07872 0.50323
 C1585 C 0.28440 1.07748 0.53169
 C1586 C 0.30742 1.06372 0.53759
 C1587 C 0.34652 1.04054 0.51964
 C1588 C 0.36918 1.03437 0.52102
 C1589 C 0.39671 1.02922 0.51998
 C1590 C 0.41205 1.04609 0.50483
 C1591 C 0.43843 1.04082 0.50115
 C1592 C 0.45024 1.01853 0.51270
 C1593 C 0.43471 1.00193 0.52864
 C1594 C 0.40807 1.00722 0.53219
 H1595 H 0.31893 1.03795 0.47086
 H1596 H 0.27868 1.06183 0.46035
 H1597 H 0.27494 1.08752 0.54944
 H1598 H 0.31563 1.06454 0.55910
 H1599 H 0.40344 1.06306 0.49505
 H1600 H 0.44918 1.05384 0.48810
 H1601 H 0.44288 0.98449 0.53773
 H1602 H 0.39631 0.99392 0.54386
 C1603 C -0.18478 0.54904 1.02267
 C1604 C -0.19739 0.56375 1.04412
 C1605 C -0.21976 0.57829 1.03747
 C1606 C -0.22922 0.57924 1.00882
 C1607 C -0.21777 0.56212 0.98833
 C1608 C -0.19556 0.54754 0.99506
 C1609 C -0.15906 0.53857 1.02739
 C1610 C -0.13665 0.53156 1.02904
 C1611 C -0.10930 0.52547 1.02797
 C1612 C -0.09334 0.54230 1.01358
 C1613 C -0.06728 0.53598 1.00909
 C1614 C -0.05639 0.51267 1.01912
 C1615 C -0.07247 0.49614 1.03448
 C1616 C -0.09881 0.50248 1.03877
 H1617 H -0.18943 0.56472 1.06574
 H1618 H -0.22903 0.58909 1.05479
 H1619 H -0.22515 0.56131 0.96645
 H1620 H -0.18608 0.53609 0.97827
 H1621 H -0.10129 0.56000 1.00478
 H1622 H -0.05620 0.54893 0.99632
 H1623 H -0.06500 0.47793 1.04234
 H1624 H -0.11108 0.48918 1.04977
 C1625 C 0.00203 0.68518 0.56286
 C1626 C -0.02099 0.69180 0.57730
 C1627 C -0.02186 0.71251 0.59684
 C1628 C 0.00064 0.72658 0.60323
 C1629 C 0.02310 0.72088 0.58664
 C1630 C 0.02394 0.70010 0.56714
 C1631 C 0.00369 0.66179 0.54582
 C1632 C 0.00519 0.64118 0.53355
 C1633 C 0.00731 0.61537 0.52190
 C1634 C -0.00423 0.60838 0.49561
 C1635 C -0.00398 0.58249 0.48651
 C1636 C 0.00770 0.56334 0.50372
 C1637 C 0.01968 0.57093 0.52977
 C1638 C 0.01960 0.59659 0.53859
 H1639 H -0.03824 0.68067 0.57381
 H1640 H -0.04030 0.71733 0.60684
 H1641 H 0.04033 0.73213 0.58949
 H1642 H 0.04185 0.69535 0.55587
 H1643 H -0.01400 0.62276 0.48257
 H1644 H -0.01365 0.57745 0.46656
 H1645 H 0.02879 0.55698 0.54387
 H1646 H 0.02849 0.60169 0.55902
 C1647 C 0.50459 0.18330 0.06944
 C1648 C 0.48133 0.19750 0.07202
 C1649 C 0.47996 0.21934 0.08995
 C1650 C 0.50155 0.22687 0.10666
 C1651 C 0.52543 0.21360 0.10175
 C1652 C 0.52677 0.19179 0.08376
 C1653 C 0.50519 0.15879 0.05449
 C1654 C 0.50578 0.13740 0.04403
 C1655 C 0.50675 0.11089 0.03452
 C1656 C 0.49741 0.10313 0.00742
 C1657 C 0.49715 0.07690 -0.00018
 C1658 C 0.50613 0.05817 0.01933
 C1659 C 0.51578 0.06646 0.04630
 C1660 C 0.51616 0.09245 0.05369
 H1661 H 0.46406 0.19133 0.06081
 H1662 H 0.46163 0.22984 0.09174
 H1663 H 0.54317 0.21977 0.11188
 H1664 H 0.54504 0.18121 0.08153
 H1665 H 0.48996 0.11725 -0.00759
 H1666 H 0.48948 0.07132 -0.02102
 H1667 H 0.52305 0.05288 0.06200
 H1668 H 0.52342 0.09817 0.07473
 C1669 C -0.00579 0.18129 0.93041
 C1670 C 0.01800 0.19331 0.92738
 C1671 C 0.02000 0.21472 0.90963
 C1672 C -0.00152 0.22402 0.89354
 C1673 C -0.02575 0.21268 0.89853
 C1674 C -0.02770 0.19134 0.91631
 C1675 C -0.00763 0.15780 0.94645
 C1676 C -0.00967 0.13738 0.95824
 C1677 C -0.01265 0.11198 0.96978
 C1678 C -0.00095 0.10455 0.99580
 C1679 C -0.00203 0.07893 1.00481
 C1680 C -0.01469 0.06038 0.98779
 C1681 C -0.02705 0.06848 0.96218
 C1682 C -0.02614 0.09393 0.95343
 H1683 H 0.03510 0.18597 0.93846
 H1684 H 0.03861 0.22376 0.90790
 H1685 H -0.04342 0.22023 0.88896
 H1686 H -0.04637 0.18255 0.91889
 H1687 H 0.00964 0.11833 1.00865
 H1688 H 0.00792 0.07349 1.02445
 H1689 H -0.03684 0.05498 0.94821
 H1690 H -0.03524 0.09934 0.93325
 C1691 C 0.49474 0.68285 0.42763
 C1692 C 0.51225 0.68344 0.40469
 C1693 C 0.51475 0.70574 0.38861
 C1694 C 0.50027 0.72841 0.39565
 C1695 C 0.48165 0.72694 0.41792
 C1696 C 0.47920 0.70457 0.43397
 C1697 C 0.49188 0.65938 0.44336
 C1698 C 0.48971 0.63899 0.45511
 C1699 C 0.48726 0.61361 0.46675
 C1700 C 0.49784 0.60706 0.49362
 C1701 C 0.49765 0.58149 0.50286
 C1702 C 0.48705 0.56214 0.48519
 C1703 C 0.47577 0.56931 0.45865
 C1704 C 0.47580 0.59472 0.44967
 H1705 H 0.52376 0.66644 0.39890
 H1706 H 0.52770 0.70476 0.37034
 H1707 H 0.46917 0.74339 0.42310
 H1708 H 0.46503 0.70418 0.45116
 H1709 H 0.50690 0.62153 0.50702
 H1710 H 0.50664 0.57676 0.52328
 H1711 H 0.46742 0.55518 0.44427
 H1712 H 0.46761 0.59947 0.42881
 C1713 C 0.51417 0.82230 0.43187
 C1714 C 0.51708 0.79804 0.44415
 C1715 C 0.51358 0.77583 0.42730
 C1716 C 0.50622 0.77746 0.39791
 C1717 C 0.50499 0.80215 0.38564
 C1718 C 0.50850 0.82424 0.40249
 C1719 C 0.51733 0.84543 0.44889
 C1720 C 0.51973 0.86578 0.46132
 C1721 C 0.52239 0.89131 0.47325
 C1722 C 0.50980 0.89917 0.49878
 C1723 C 0.50941 0.92518 0.50733
 C1724 C 0.52138 0.94363 0.49025
 C1725 C 0.53485 0.93509 0.46531
 C1726 C 0.53547 0.90926 0.45708
 H1727 H 0.52224 0.79626 0.46670
 H1728 H 0.51707 0.75755 0.43749
 H1729 H 0.50076 0.80431 0.36292
 H1730 H 0.50676 0.84291 0.39255
 H1731 H 0.49939 0.88544 0.51138
 H1732 H 0.49860 0.93094 0.52644
 H1733 H 0.54405 0.94849 0.45121
 H1734 H 0.54512 0.90350 0.43719
 C1735 C 0.00747 0.31215 0.93578
 C1736 C -0.01604 0.29970 0.93195
 C1737 C -0.01762 0.27872 0.91284
 C1738 C 0.00403 0.27040 0.89614
 C1739 C 0.02809 0.28183 0.90226
 C1740 C 0.02963 0.30274 0.92142
 C1741 C 0.00852 0.33591 0.95215
 C1742 C 0.00972 0.35676 0.96381
 C1743 C 0.01151 0.38278 0.97469
 C1744 C 0.00043 0.39066 1.00106
 C1745 C 0.00017 0.41674 1.00939
 C1746 C 0.01087 0.43524 0.99131
 C1747 C 0.02255 0.42675 0.96528
 C1748 C 0.02299 0.40088 0.95723
 H1749 H -0.03332 0.30657 0.94318
 H1750 H -0.03609 0.26951 0.91020
 H1751 H 0.04586 0.27489 0.89222
 H1752 H 0.04808 0.31191 0.92459
 H1753 H -0.00867 0.37682 1.01474
 H1754 H -0.00926 0.42248 1.02936
 H1755 H 0.03083 0.44019 0.95050
 H1756 H 0.03154 0.39510 0.93673
 C1757 C 0.49405 0.31553 0.06882
 C1758 C 0.47158 0.30722 0.08228
 C1759 C 0.47270 0.28618 0.10070
 C1760 C 0.49660 0.27351 0.10695
 C1761 C 0.51866 0.28095 0.09136
 C1762 C 0.51751 0.30203 0.07298
 C1763 C 0.49328 0.33900 0.05260
 C1764 C 0.49237 0.35953 0.04079
 C1765 C 0.49091 0.38516 0.02934
 C1766 C 0.47958 0.40475 0.04628
 C1767 C 0.47991 0.43015 0.03730
 C1768 C 0.49141 0.43663 0.01090
 C1769 C 0.50207 0.41667 -0.00655
 C1770 C 0.50188 0.39108 0.00268
 H1771 H 0.45318 0.31722 0.07882
 H1772 H 0.45470 0.28000 0.10992
 H1773 H 0.53708 0.27082 0.09414
 H1774 H 0.53502 0.30805 0.06243
 H1775 H 0.47106 0.40049 0.06695
 H1776 H 0.47148 0.44476 0.05150
 H1777 H 0.51126 0.42084 -0.02684
 H1778 H 0.51082 0.37606 -0.01062
 C1779 C -0.00113 0.81608 0.56816
 C1780 C -0.02309 0.80112 0.57125
 C1781 C -0.02230 0.77973 0.58919
 C1782 C 0.00018 0.77337 0.60539
 C1783 C 0.02267 0.78766 0.60032
 C1784 C 0.02185 0.80899 0.58234
 C1785 C -0.00254 0.83968 0.55224
 C1786 C -0.00370 0.86032 0.54066
 C1787 C -0.00518 0.88605 0.52953
 C1788 C -0.01527 0.90571 0.54729
 C1789 C -0.01493 0.93115 0.53848
 C1790 C -0.00464 0.93761 0.51146
 C1791 C 0.00483 0.91761 0.49326
 C1792 C 0.00463 0.89197 0.50230
 H1793 H -0.04095 0.80620 0.56013
 H1794 H -0.03953 0.76840 0.59101
 H1795 H 0.04111 0.78248 0.61003
 H1796 H 0.03914 0.82014 0.57974
 H1797 H -0.02287 0.90144 0.56840
 H1798 H -0.02250 0.94577 0.55323
 H1799 H 0.01303 0.92178 0.47244
 H1800 H 0.01262 0.87689 0.48837
 C1801 C 0.23112 0.34936 0.07276
 C1802 C 0.25441 0.34352 0.05847
 C1803 C 0.26122 0.35714 0.03402
 C1804 C 0.24444 0.37636 0.02269
 C1805 C 0.22180 0.38308 0.03867
 C1806 C 0.21507 0.36943 0.06311
 C1807 C 0.22492 0.33614 0.09871
 C1808 C 0.22130 0.32553 0.12118
 C1809 C 0.21985 0.31377 0.14891
 C1810 C 0.20834 0.28993 0.15251
 C1811 C 0.21156 0.27681 0.17853
 C1812 C 0.22663 0.28731 0.20096
 C1813 C 0.23689 0.31192 0.19730
 C1814 C 0.23331 0.32504 0.17169
 H1815 H 0.26747 0.32858 0.06639
 H1816 H 0.27947 0.35233 0.02353
 H1817 H 0.20927 0.39910 0.03278
 H1818 H 0.19752 0.37484 0.07476
 H1819 H 0.19803 0.28094 0.13482
 H1820 H 0.20363 0.25784 0.18032
 H1821 H 0.24912 0.32062 0.21351
 H1822 H 0.24249 0.34337 0.16906
 C1823 C 0.73415 0.84882 0.57659
 C1824 C 0.75686 0.84215 0.56158
 C1825 C 0.76397 0.85599 0.53742
 C1826 C 0.74807 0.87635 0.52705
 C1827 C 0.72595 0.88370 0.54357
 C1828 C 0.71891 0.86982 0.56778
 C1829 C 0.72797 0.83547 0.60252
 C1830 C 0.72457 0.82466 0.62493
 C1831 C 0.72346 0.81256 0.65254
 C1832 C 0.71177 0.78878 0.65605
 C1833 C 0.71519 0.77535 0.68186
 C1834 C 0.73063 0.78547 0.70420
 C1835 C 0.74113 0.80999 0.70065
 C1836 C 0.73736 0.82342 0.67526
 H1837 H 0.76932 0.82645 0.56881
 H1838 H 0.78186 0.85058 0.52650
 H1839 H 0.71417 0.90046 0.53836
 H1840 H 0.70184 0.87581 0.57996
 H1841 H 0.70112 0.78009 0.63843
 H1842 H 0.70706 0.75646 0.68356
 H1843 H 0.75360 0.81841 0.71683
 H1844 H 0.74669 0.84168 0.67272
 C1845 C 0.26997 0.66070 0.57138
 C1846 C 0.24417 0.66062 0.56200
 C1847 C 0.23712 0.64556 0.53821
 C1848 C 0.25556 0.62944 0.52389
 C1849 C 0.28192 0.63160 0.53221
 C1850 C 0.28890 0.64666 0.55604
 C1851 C 0.27636 0.67337 0.59812
 C1852 C 0.28002 0.68287 0.62157
 C1853 C 0.28149 0.69284 0.65057
 C1854 C 0.29155 0.71707 0.65672
 C1855 C 0.28794 0.72836 0.68411
 C1856 C 0.27385 0.71567 0.70542
 C1857 C 0.26534 0.69063 0.69926
 C1858 C 0.26933 0.67932 0.67224
 H1859 H 0.22934 0.67170 0.57355
 H1860 H 0.21697 0.64570 0.53155
 H1861 H 0.29742 0.62174 0.52059
 H1862 H 0.30903 0.64699 0.56277
 H1863 H 0.30088 0.72778 0.63998
 H1864 H 0.29455 0.74771 0.68780
 H1865 H 0.25389 0.68029 0.71453
 H1866 H 0.26129 0.66065 0.66768
 C1867 C 0.76302 0.15611 0.07774
 C1868 C 0.73984 0.16147 0.06308
 C1869 C 0.73355 0.14751 0.03819
 C1870 C 0.75071 0.12837 0.02681
 C1871 C 0.77339 0.12233 0.04293
 C1872 C 0.77960 0.13632 0.06782
 C1873 C 0.76847 0.16931 0.10443
 C1874 C 0.77151 0.17974 0.12751
 C1875 C 0.77242 0.19111 0.15590
 C1876 C 0.78378 0.21492 0.16111
 C1877 C 0.78045 0.22742 0.18791
 C1878 C 0.76546 0.21631 0.20959
 C1879 C 0.75525 0.19179 0.20424
 C1880 C 0.75891 0.17930 0.17784
 H1881 H 0.72639 0.17619 0.07114
 H1882 H 0.71529 0.15182 0.02753
 H1883 H 0.78625 0.10645 0.03695
 H1884 H 0.79709 0.13130 0.07969
 H1885 H 0.79415 0.22433 0.14412
 H1886 H 0.78830 0.24636 0.19097
 H1887 H 0.74313 0.18263 0.21986
 H1888 H 0.74987 0.16098 0.17399
 C1889 C 0.72130 0.16036 0.92547
 C1890 C 0.71731 0.13392 0.92509
 C1891 C 0.72452 0.11911 0.94875
 C1892 C 0.73523 0.13048 0.97381
 C1893 C 0.74024 0.15708 0.97322
 C1894 C 0.73304 0.17185 0.94942
 C1895 C 0.71638 0.17485 0.89980
 C1896 C 0.71415 0.18579 0.87718
 C1897 C 0.71467 0.19691 0.84903
 C1898 C 0.72877 0.18368 0.82770
 C1899 C 0.73414 0.19542 0.80181
 C1900 C 0.72493 0.22060 0.79615
 C1901 C 0.70939 0.23331 0.81716
 C1902 C 0.70441 0.22155 0.84359
 H1903 H 0.70911 0.12462 0.90622
 H1904 H 0.72150 0.09860 0.94770
 H1905 H 0.75034 0.16659 0.99061
 H1906 H 0.73728 0.19213 0.94940
 H1907 H 0.73711 0.16475 0.83179
 H1908 H 0.74704 0.18513 0.78712
 H1909 H 0.70246 0.25287 0.81402
 H1910 H 0.69368 0.23211 0.86016
 C1911 C 0.22240 0.66604 0.43135
 C1912 C 0.24822 0.66467 0.44063
 C1913 C 0.25564 0.64791 0.46257
 C1914 C 0.23758 0.63138 0.47498
 C1915 C 0.21115 0.63483 0.46705
 C1916 C 0.20379 0.65158 0.44508
 C1917 C 0.21578 0.68023 0.40591
 C1918 C 0.21210 0.69083 0.38330
 C1919 C 0.21089 0.70175 0.35504
 C1920 C 0.20072 0.72654 0.35040
 C1921 C 0.20482 0.73852 0.32394
 C1922 C 0.21955 0.72594 0.30212
 C1923 C 0.22818 0.70040 0.30673
 C1924 C 0.22365 0.68842 0.33274
 H1925 H 0.26280 0.67601 0.43033
 H1926 H 0.27581 0.64705 0.46916
 H1927 H 0.19588 0.62466 0.47753
 H1928 H 0.18364 0.65285 0.43843
 H1929 H 0.19096 0.73712 0.36767
 H1930 H 0.19815 0.75825 0.32150
 H1931 H 0.24030 0.69012 0.29122
 H1932 H 0.23183 0.66932 0.33616
 C1933 C 0.77786 0.84351 0.42536
 C1934 C 0.78319 0.86967 0.42621
 C1935 C 0.77586 0.88473 0.45006
 C1936 C 0.76371 0.87382 0.47412
 C1937 C 0.75714 0.84763 0.47212
 C1938 C 0.76448 0.83260 0.44812
 C1939 C 0.78351 0.82877 0.39963
 C1940 C 0.78657 0.81756 0.37696
 C1941 C 0.78725 0.80592 0.34872
 C1942 C 0.77497 0.81919 0.32645
 C1943 C 0.77016 0.80686 0.30031
 C1944 C 0.77809 0.78103 0.29551
 C1945 C 0.79216 0.76834 0.31742
 C1946 C 0.79654 0.78070 0.34401
 H1947 H 0.79268 0.87855 0.40822
 H1948 H 0.78008 0.90501 0.45005
 H1949 H 0.74592 0.83867 0.48865
 H1950 H 0.75921 0.81258 0.44706
 H1951 H 0.76745 0.83862 0.32995
 H1952 H 0.75855 0.81726 0.28471
 H1953 H 0.79819 0.74838 0.31484
 H1954 H 0.80589 0.77017 0.36130
 C1955 C 0.27483 0.34132 0.92210
 C1956 C 0.27840 0.36780 0.92148
 C1957 C 0.27056 0.38332 0.94475
 C1958 C 0.25969 0.37263 0.96967
 C1959 C 0.25483 0.34599 0.96917
 C1960 C 0.26265 0.33049 0.94574
 C1961 C 0.28087 0.32601 0.89691
 C1962 C 0.28417 0.31443 0.87453
 C1963 C 0.28496 0.30253 0.84646
 C1964 C 0.27245 0.31547 0.82411
 C1965 C 0.26776 0.30290 0.79811
 C1966 C 0.27609 0.27716 0.79349
 C1967 C 0.29031 0.26478 0.81550
 C1968 C 0.29456 0.27738 0.84199
 H1969 H 0.28691 0.37653 0.90279
 H1970 H 0.27348 0.40381 0.94365
 H1971 H 0.24456 0.33698 0.98642
 H1972 H 0.25870 0.31015 0.94579
 H1973 H 0.26468 0.33483 0.82745
 H1974 H 0.25596 0.31304 0.78247
 H1975 H 0.29660 0.24488 0.81309
 H1976 H 0.30406 0.26710 0.85936
 C1977 C 0.81251 0.42952 0.76433
 C1978 C 0.83459 0.42760 0.74712
 C1979 C 0.84852 0.44934 0.74091
 C1980 C 0.84022 0.47406 0.75084
 C1981 C 0.81914 0.47531 0.77034
 C1982 C 0.80500 0.45333 0.77648
 C1983 C 0.79799 0.40661 0.76849
 C1984 C 0.78749 0.38620 0.76949
 C1985 C 0.77680 0.36093 0.76808
 C1986 C 0.76136 0.35404 0.74453
 C1987 C 0.75459 0.32847 0.74014
 C1988 C 0.76360 0.30919 0.75899
 C1989 C 0.77779 0.31664 0.78357
 C1990 C 0.78458 0.34226 0.78791
 H1991 H 0.84111 0.40913 0.73835
 H1992 H 0.86606 0.44633 0.72847
 H1993 H 0.81332 0.49346 0.78038
 H1994 H 0.78827 0.45494 0.79052
 H1995 H 0.75540 0.36827 0.72887
 H1996 H 0.74331 0.32373 0.72117
 H1997 H 0.78415 0.30271 0.79923
 H1998 H 0.79660 0.34734 0.80621
 C1999 C 0.29922 0.93946 0.27518
 C2000 C 0.31343 0.95148 0.29699
 C2001 C 0.32888 0.97234 0.29057
 C2002 C 0.33126 0.98077 0.26185
 C2003 C 0.31463 0.97006 0.24087
 C2004 C 0.29914 0.94936 0.24736
 C2005 C 0.28813 0.91483 0.27981
 C2006 C 0.28089 0.89310 0.28143
 C2007 C 0.27490 0.86632 0.28040
 C2008 C 0.25066 0.85747 0.28869
 C2009 C 0.24466 0.83159 0.28419
 C2010 C 0.26279 0.81438 0.27109
 C2011 C 0.28728 0.82365 0.26359
 C2012 C 0.29325 0.84925 0.26832
 H2013 H 0.31333 0.94416 0.31873
 H2014 H 0.33923 0.98128 0.30817
 H2015 H 0.31487 0.97681 0.21890
 H2016 H 0.28810 0.94026 0.23029
 H2017 H 0.23620 0.87065 0.29785
 H2018 H 0.22554 0.82537 0.29009
 H2019 H 0.30156 0.81161 0.25258
 H2020 H 0.31194 0.85597 0.26143
 C2021 C 0.18422 0.92842 0.73480
 C2022 C 0.16469 0.93591 0.71555
 C2023 C 0.15086 0.95905 0.71999
 C2024 C 0.15677 0.97552 0.74351
 C2025 C 0.17612 0.96715 0.76311
 C2026 C 0.18991 0.94407 0.75857
 C2027 C 0.19599 0.90320 0.73254
 C2028 C 0.20458 0.88150 0.73247
 C2029 C 0.21286 0.85510 0.73487
 C2030 C 0.19710 0.83869 0.75007
 C2031 C 0.20510 0.81341 0.75469
 C2032 C 0.22909 0.80383 0.74408
 C2033 C 0.24471 0.82045 0.72830
 C2034 C 0.23664 0.84599 0.72379
 H2035 H 0.15945 0.92341 0.69768
 H2036 H 0.13495 0.96338 0.70550
 H2037 H 0.18035 0.97844 0.78227
 H2038 H 0.20441 0.93802 0.77418
 H2039 H 0.17875 0.84561 0.75897
 H2040 H 0.19260 0.80171 0.76741
 H2041 H 0.26333 0.81393 0.71985
 H2042 H 0.24907 0.85867 0.71211
 C2043 C 0.68496 0.43224 0.23495
 C2044 C 0.66514 0.43928 0.21582
 C2045 C 0.65146 0.46257 0.21974
 C2046 C 0.65773 0.47961 0.24262
 C2047 C 0.67758 0.47183 0.26192
 C2048 C 0.69123 0.44861 0.25789
 C2049 C 0.69619 0.40675 0.23377
 C2050 C 0.70425 0.38490 0.23476
 C2051 C 0.71186 0.35846 0.23846
 C2052 C 0.69642 0.34338 0.25571
 C2053 C 0.70360 0.31798 0.26095
 C2054 C 0.72645 0.30697 0.24898
 C2055 C 0.74184 0.32230 0.23134
 C2056 C 0.73458 0.34794 0.22616
 H2057 H 0.65949 0.42626 0.19861
 H2058 H 0.63524 0.46649 0.20553
 H2059 H 0.68213 0.48357 0.28063
 H2060 H 0.70596 0.44294 0.27341
 H2061 H 0.67887 0.35138 0.26548
 H2062 H 0.69122 0.30717 0.27481
 H2063 H 0.75956 0.31464 0.22174
 H2064 H 0.74674 0.35957 0.21283
 C2065 C 0.68523 0.57263 0.26834
 C2066 C 0.65918 0.57144 0.27628
 C2067 C 0.64535 0.54923 0.27063
 C2068 C 0.65746 0.52735 0.25766
 C2069 C 0.68362 0.52927 0.24893
 C2070 C 0.69740 0.55158 0.25457
 C2071 C 0.69817 0.59666 0.27082
 C2072 C 0.70739 0.61767 0.27115
 C2073 C 0.71588 0.64360 0.26897
 C2074 C 0.69983 0.66102 0.25444
 C2075 C 0.70785 0.68588 0.24987
 C2076 C 0.73215 0.69408 0.25992
 C2077 C 0.74807 0.67649 0.27512
 C2078 C 0.73998 0.65132 0.27955
 H2079 H 0.64929 0.58799 0.28602
 H2080 H 0.62496 0.54914 0.27620
 H2081 H 0.69338 0.51398 0.23686
 H2082 H 0.71728 0.55271 0.24725
 H2083 H 0.68125 0.65519 0.24592
 H2084 H 0.69514 0.69828 0.23745
 H2085 H 0.76694 0.68194 0.28307
 H2086 H 0.75263 0.63784 0.29074
 C2087 C 0.18545 0.06810 0.76988
 C2088 C 0.15932 0.06723 0.77758
 C2089 C 0.14527 0.04516 0.77194
 C2090 C 0.15723 0.02309 0.75917
 C2091 C 0.18356 0.02460 0.75094
 C2092 C 0.19755 0.04678 0.75656
 C2093 C 0.19845 0.09213 0.77174
 C2094 C 0.20765 0.11314 0.77139
 C2095 C 0.21602 0.13902 0.76829
 C2096 C 0.20005 0.15586 0.75283
 C2097 C 0.20785 0.18068 0.74763
 C2098 C 0.23186 0.18943 0.75793
 C2099 C 0.24774 0.17241 0.77396
 C2100 C 0.23986 0.14727 0.77905
 H2101 H 0.14950 0.08399 0.78697
 H2102 H 0.12480 0.04539 0.77714
 H2103 H 0.19328 0.00915 0.73908
 H2104 H 0.21751 0.04765 0.74944
 H2105 H 0.18165 0.14961 0.74420
 H2106 H 0.19515 0.19265 0.73470
 H2107 H 0.26637 0.17830 0.78217
 H2108 H 0.25245 0.13425 0.79096
 C2109 C 0.30113 0.06814 0.23015
 C2110 C 0.30092 0.05824 0.25796
 C2111 C 0.31586 0.03640 0.26443
 C2112 C 0.33204 0.02438 0.24341
 C2113 C 0.32986 0.03308 0.21471
 C2114 C 0.31497 0.05511 0.20833
 C2115 C 0.29036 0.09346 0.22554
 C2116 C 0.28326 0.11561 0.22413
 C2117 C 0.27734 0.14269 0.22567
 C2118 C 0.29444 0.15825 0.24086
 C2119 C 0.28845 0.18413 0.24553
 C2120 C 0.26521 0.19525 0.23490
 C2121 C 0.24835 0.17953 0.21887
 C2122 C 0.25436 0.15335 0.21438
 H2123 H 0.29017 0.06811 0.27504
 H2124 H 0.31597 0.02961 0.28639
 H2125 H 0.33988 0.02338 0.19710
 H2126 H 0.31496 0.06244 0.18659
 H2127 H 0.31215 0.15014 0.25000
 H2128 H 0.30170 0.19502 0.25866
 H2129 H 0.23019 0.18721 0.21049
 H2130 H 0.24086 0.14137 0.20275
 C2131 C 0.81148 0.56775 0.72103
 C2132 C 0.79836 0.54464 0.72339
 C2133 C 0.81222 0.52174 0.72930
 C2134 C 0.83932 0.52191 0.73427
 C2135 C 0.85223 0.54506 0.72922
 C2136 C 0.83848 0.56766 0.72305
 C2137 C 0.79788 0.59222 0.71979
 C2138 C 0.78908 0.61390 0.72100
 C2139 C 0.78184 0.64059 0.72526
 C2140 C 0.75888 0.65145 0.71406
 C2141 C 0.75240 0.67739 0.71984
 C2142 C 0.76880 0.69271 0.73696
 C2143 C 0.79189 0.68136 0.74771
 C2144 C 0.79830 0.65572 0.74187
 H2145 H 0.77744 0.54441 0.72135
 H2146 H 0.80146 0.50426 0.73024
 H2147 H 0.87310 0.54590 0.73158
 H2148 H 0.84892 0.58536 0.72104
 H2149 H 0.74593 0.63987 0.70119
 H2150 H 0.73440 0.68527 0.71128
 H2151 H 0.80491 0.69198 0.76142
 H2152 H 0.81606 0.64753 0.75081
 C2153 C 0.93473 0.75012 0.17639
 C2154 C 0.94185 0.72739 0.16173
 C2155 C 0.96285 0.72683 0.14271
 C2156 C 0.97669 0.74936 0.13704
 C2157 C 0.97052 0.77152 0.15393
 C2158 C 0.94946 0.77204 0.17291
 C2159 C 0.91097 0.75147 0.19272
 C2160 C 0.89005 0.75277 0.20435
 C2161 C 0.86389 0.75466 0.21519
 C2162 C 0.85693 0.74425 0.24171
 C2163 C 0.83079 0.74456 0.25026
 C2164 C 0.81137 0.75513 0.23226
 C2165 C 0.81890 0.76595 0.20596
 C2166 C 0.84482 0.76580 0.19766
 H2167 H 0.93087 0.71014 0.16463
 H2168 H 0.96805 0.70860 0.13260
 H2169 H 0.98160 0.78877 0.15169
 H2170 H 0.94433 0.78973 0.18438
 H2171 H 0.87155 0.73544 0.25542
 H2172 H 0.82578 0.73593 0.27052
 H2173 H 0.80475 0.77438 0.19140
 H2174 H 0.84991 0.77387 0.17708
 C2175 C 0.43476 0.25414 0.67792
 C2176 C 0.44255 0.27688 0.66520
 C2177 C 0.46394 0.27672 0.64667
 C2178 C 0.47744 0.25351 0.63955
 C2179 C 0.47069 0.23125 0.65470
 C2180 C 0.44928 0.23145 0.67317
 C2181 C 0.41054 0.25370 0.69343
 C2182 C 0.38930 0.25354 0.70435
 C2183 C 0.36283 0.25378 0.71438
 C2184 C 0.34351 0.26345 0.69612
 C2185 C 0.31751 0.26247 0.70392
 C2186 C 0.31009 0.25195 0.73043
 C2187 C 0.32971 0.24270 0.74906
 C2188 C 0.35595 0.24356 0.74103
 H2189 H 0.43176 0.29471 0.66914
 H2190 H 0.46959 0.29486 0.63792
 H2191 H 0.48145 0.21335 0.65124
 H2192 H 0.44366 0.21374 0.68313
 H2193 H 0.34852 0.27138 0.67544
 H2194 H 0.30323 0.26996 0.68889
 H2195 H 0.32481 0.23435 0.76950
 H2196 H 0.37077 0.23590 0.75533
 C2197 C 0.43099 0.74296 0.82744
 C2198 C 0.43231 0.76063 0.85035
 C2199 C 0.45490 0.76237 0.86691
 C2200 C 0.47715 0.74693 0.86036
 C2201 C 0.47483 0.72813 0.83820
 C2202 C 0.45218 0.72644 0.82167
 C2203 C 0.40722 0.74091 0.81123
 C2204 C 0.38653 0.73935 0.79916
 C2205 C 0.36076 0.73745 0.78731
 C2206 C 0.35354 0.74967 0.76165
 C2207 C 0.32752 0.74992 0.75253
 C2208 C 0.30845 0.73811 0.76913
 C2209 C 0.31632 0.72528 0.79440
 C2210 C 0.34214 0.72486 0.80323
 H2211 H 0.41567 0.77289 0.85573
 H2212 H 0.45448 0.77557 0.88510
 H2213 H 0.49090 0.71497 0.83340
 H2214 H 0.45116 0.71213 0.80453
 H2215 H 0.36780 0.75963 0.74921
 H2216 H 0.32225 0.76014 0.73315
 H2217 H 0.30242 0.71600 0.80797
 H2218 H 0.34742 0.71544 0.82316
 C2219 C 0.92718 0.24009 0.32556
 C2220 C 0.92842 0.25800 0.34822
 C2221 C 0.95115 0.26035 0.36437
 C2222 C 0.97364 0.24536 0.35759
 C2223 C 0.97139 0.22613 0.33589
 C2224 C 0.94856 0.22381 0.31974
 C2225 C 0.90330 0.23779 0.30964
 C2226 C 0.88239 0.23642 0.29805
 C2227 C 0.85629 0.23515 0.28707
 C2228 C 0.84870 0.24751 0.26163
 C2229 C 0.82241 0.24884 0.25367
 C2230 C 0.80343 0.23800 0.27124
 C2231 C 0.81162 0.22499 0.29626
 C2232 C 0.83771 0.22347 0.30393
 H2233 H 0.91164 0.27004 0.35367
 H2234 H 0.95071 0.27379 0.38234
 H2235 H 0.98765 0.21323 0.33104
 H2236 H 0.94759 0.20930 0.30282
 H2237 H 0.86294 0.25684 0.24852
 H2238 H 0.81690 0.25919 0.23445
 H2239 H 0.79782 0.21644 0.31056
 H2240 H 0.84328 0.21401 0.32374
 C2241 C 0.06772 0.25688 0.31996
 C2242 C 0.07031 0.25231 0.34945
 C2243 C 0.04836 0.24953 0.36656
 C2244 C 0.02317 0.25044 0.35446
 C2245 C 0.02093 0.25650 0.32486
 C2246 C 0.04300 0.25928 0.30776
 C2247 C 0.09069 0.25970 0.30280
 C2248 C 0.11099 0.26196 0.29032
 C2249 C 0.13655 0.26461 0.27844
 C2250 C 0.15503 0.27718 0.29510
 C2251 C 0.18091 0.27676 0.28666
 C2252 C 0.18894 0.26401 0.26103
 C2253 C 0.16996 0.25248 0.24356
 C2254 C 0.14390 0.25267 0.25232
 H2255 H 0.08937 0.25099 0.35930
 H2256 H 0.05100 0.24632 0.38940
 H2257 H 0.00227 0.25970 0.31473
 H2258 H 0.04074 0.26359 0.28510
 H2259 H 0.14965 0.28635 0.31543
 H2260 H 0.19476 0.28571 0.30096
 H2261 H 0.17535 0.24227 0.22389
 H2262 H 0.12973 0.24269 0.23933
 C2263 C 0.57187 0.75701 0.82455
 C2264 C 0.57406 0.75172 0.85393
 C2265 C 0.55185 0.74918 0.87074
 C2266 C 0.52679 0.75103 0.85841
 C2267 C 0.52501 0.75795 0.82901
 C2268 C 0.54730 0.76048 0.81223
 C2269 C 0.59504 0.75939 0.80756
 C2270 C 0.61536 0.76126 0.79501
 C2271 C 0.64088 0.76346 0.78281
 C2272 C 0.65974 0.77578 0.79917
 C2273 C 0.68551 0.77505 0.79032
 C2274 C 0.69309 0.76223 0.76455
 C2275 C 0.67374 0.75092 0.74741
 C2276 C 0.64778 0.75143 0.75658
 H2277 H 0.59300 0.74958 0.86392
 H2278 H 0.55419 0.74529 0.89348
 H2279 H 0.50653 0.76191 0.81878
 H2280 H 0.54536 0.76538 0.78970
 H2281 H 0.65472 0.78502 0.81957
 H2282 H 0.69963 0.78379 0.80444
 H2283 H 0.67878 0.74065 0.72766
 H2284 H 0.63333 0.74165 0.74380
 C2285 C 0.56865 0.24386 0.67404
 C2286 C 0.55460 0.26715 0.67296
 C2287 C 0.53249 0.26936 0.65553
 C2288 C 0.52454 0.24863 0.63782
 C2289 C 0.53775 0.22470 0.64114
 C2290 C 0.55981 0.22252 0.65861
 C2291 C 0.59301 0.24221 0.68933
 C2292 C 0.61412 0.24085 0.70063
 C2293 C 0.64015 0.23936 0.71204
 C2294 C 0.64621 0.25019 0.73899
 C2295 C 0.67208 0.25082 0.74834
 C2296 C 0.69225 0.24078 0.73074
 C2297 C 0.68570 0.22919 0.70412
 C2298 C 0.65993 0.22846 0.69496
 H2299 H 0.56099 0.28374 0.68516
 H2300 H 0.52199 0.28763 0.65507
 H2301 H 0.53124 0.20748 0.63035
 H2302 H 0.57019 0.20421 0.65978
 H2303 H 0.63105 0.25876 0.75240
 H2304 H 0.67627 0.25996 0.76887
 H2305 H 0.70051 0.22110 0.68993
 H2306 H 0.65553 0.22003 0.67406
 C2307 C 0.06623 0.75124 0.17513
 C2308 C 0.05160 0.72912 0.17189
 C2309 C 0.03037 0.72891 0.15303
 C2310 C 0.02383 0.75050 0.13607
 C2311 C 0.03781 0.77320 0.14121
 C2312 C 0.05900 0.77337 0.16010
 C2313 C 0.08967 0.75077 0.19221
 C2314 C 0.11021 0.75019 0.20481
 C2315 C 0.13592 0.74912 0.21718
 C2316 C 0.15603 0.73812 0.20073
 C2317 C 0.18151 0.73870 0.21065
 C2318 C 0.18758 0.75015 0.23752
 C2319 C 0.16710 0.76052 0.25444
 C2320 C 0.14140 0.76008 0.24426
 H2321 H 0.05679 0.71191 0.18364
 H2322 H 0.01925 0.71158 0.15120
 H2323 H 0.03242 0.79107 0.13100
 H2324 H 0.06989 0.79078 0.16281
 H2325 H 0.15210 0.72961 0.17975
 H2326 H 0.19651 0.73042 0.19685
 H2327 H 0.17097 0.76960 0.27510
 H2328 H 0.12597 0.76876 0.25719
   
