data_POSCAR
  _audit_creation_date              2014-09-24
  _audit_creation_method            'ToBaCCo'
  _symmetry_space_group_name_H-M    'P1'
  _symmetry_Int_Tables_number       1
  _symmetry_cell_setting            triclinic
  loop_
  _symmetry_equiv_pos_as_xyz
 x,y,z
_cell_length_a 45.5551
_cell_length_b 45.5432
_cell_length_c 45.5659
_cell_angle_alpha 90.022000
_cell_angle_beta 89.993900
_cell_angle_gamma 90.022000
loop_
  _atom_site_label
  _atom_site_type_symbol
  _atom_site_fract_x
  _atom_site_fract_y
  _atom_site_fract_z
C1 C 0.12527 -0.00040 0.25121
 C2 C 0.37500 0.00161 0.75098
 C3 C 0.87507 0.50019 0.24993
 C4 C 0.62510 0.49986 0.74885
 C5 C 0.25121 0.12491 0.99849
 C6 C 0.75127 0.37483 1.00065
 C7 C 0.24979 0.87483 0.50046
 C8 C 0.74985 0.62514 0.49980
 C9 C -0.00036 0.25178 0.12517
 C10 C -0.00034 0.74920 0.37495
 C11 C 0.49817 0.24725 0.87473
 C12 C 0.49994 0.75049 0.62503
 C13 C 0.87548 0.99971 0.75123
 C14 C 0.37569 0.49979 0.24877
 C15 C 0.62487 1.00001 0.25088
 C16 C 0.12476 0.50158 0.75007
 C17 C 0.75103 0.87461 -0.00019
 C18 C 0.24983 0.37496 0.49858
 C19 C 0.25136 0.62516 0.00044
 C20 C 0.74976 0.12466 0.50049
 C21 C 0.99993 0.75169 0.87510
 C22 C 0.49969 0.25040 0.37495
 C23 C 0.99813 0.24926 0.62516
 C24 C 0.49949 0.74752 0.12503
 O25 O 0.05816 0.99559 1.06512
 O26 O 0.06359 0.95088 1.04218
 O27 O 0.06485 1.05771 0.99374
 O28 O 0.04103 1.06839 0.95270
 O29 O -0.00570 1.06550 1.05819
 O30 O -0.05042 1.04009 1.06547
 O31 O -0.01511 0.98299 0.91797
 O32 O 0.03173 1.00002 0.91625
 O33 O -0.01703 0.91827 0.98472
 O34 O -0.00309 0.91662 1.03581
 O35 O -0.08231 0.98437 0.98364
 O36 O -0.08439 1.03510 0.99680
 O37 O -0.05592 1.00477 0.93674
 O38 O -0.06306 1.05280 0.96311
 O39 O -0.06368 0.94386 1.00580
 O40 O -0.03716 0.93748 1.05338
 O41 O 0.00403 0.93705 0.94366
 O42 O 0.05325 0.96027 0.94302
 O43 O 0.01712 1.01688 1.08402
 O44 O -0.03363 1.00262 1.08492
 O45 O 0.01647 1.08419 1.01767
 O46 O -0.00055 1.08335 0.96617
 O47 O 0.08345 1.01784 1.01717
 O48 O 0.08238 0.96686 0.99887
 Zr49 Zr 0.04758 0.98890 1.02072
 O50 O 0.02193 0.96066 0.99466
 Zr51 Zr 0.01992 1.04829 0.98878
 O52 O -0.00610 1.02241 0.96075
 Zr53 Zr -0.01189 1.02085 1.04820
 O54 O -0.04000 0.99440 1.02276
 Zr55 Zr 0.01308 0.98103 0.95435
 O56 O 0.04124 1.00839 0.97924
 Zr57 Zr -0.01941 0.95413 1.01379
 O58 O 0.00754 0.97950 1.04185
 Zr59 Zr -0.04640 1.01338 0.98121
 O60 O -0.02149 1.04194 1.00826
 O61 O 0.02871 1.02962 1.02939
 O62 O -0.02804 0.97234 0.97271
 C63 C 0.04307 1.00603 1.08660
 C64 C 0.08622 1.04317 1.00508
 C65 C 0.00512 1.08691 1.04334
 C66 C -0.04117 0.99352 0.91541
 C67 C -0.00693 0.91573 0.95851
 C68 C -0.08494 0.95843 0.99439
 H69 H 0.03263 0.94198 0.99183
 H70 H -0.05870 0.99180 1.03344
 H71 H 0.04132 1.04224 1.04182
 H72 H -0.00857 1.03282 0.94188
 H73 H 0.05022 1.00961 0.92248
 H74 H 0.03744 1.05564 0.93552
 H75 H -0.05420 0.94981 1.05876
 H76 H -0.02528 0.98277 1.08786
 H77 H 0.05074 0.95075 0.92359
 H78 H 0.10077 0.96956 1.01025
 H79 H -0.08816 1.02799 1.01695
 H80 H -0.05833 1.05306 1.04994
 H81 H 0.04729 0.94311 1.05426
 H82 H 0.01645 0.91207 1.02751
 H83 H -0.01893 1.08791 0.97684
 H84 H -0.05097 1.05783 0.94579
 O85 O 0.48401 0.48351 0.41600
 O86 O 0.53186 0.49920 0.41470
 O87 O 0.48410 0.41728 0.48411
 O88 O 0.49356 0.41438 0.53160
 O89 O 0.41622 0.48504 0.48271
 O90 O 0.41552 0.53503 0.49649
 O91 O 0.55791 0.49559 0.56278
 O92 O 0.56207 0.45059 0.54132
 O93 O 0.56367 0.55802 0.49495
 O94 O 0.53841 0.56604 0.44869
 O95 O 0.49513 0.56459 0.55680
 O96 O 0.44965 0.53974 0.56527
 O97 O 0.51725 0.51766 0.58151
 O98 O 0.46424 0.50234 0.58238
 O99 O 0.51690 0.58347 0.51618
 O100 O 0.50167 0.58403 0.46378
 O101 O 0.58219 0.51764 0.51752
 O102 O 0.58172 0.46793 0.49568
 O103 O 0.44369 0.50655 0.43438
 O104 O 0.43653 0.55225 0.46004
 O105 O 0.43473 0.44438 0.50477
 O106 O 0.46099 0.43990 0.55218
 O107 O 0.50510 0.43595 0.44293
 O108 O 0.55280 0.46168 0.43988
 Zr109 Zr 0.51210 0.48063 0.45247
 O110 O 0.53984 0.50766 0.47764
 Zr111 Zr 0.47936 0.45387 0.51184
 O112 O 0.50654 0.47899 0.53944
 Zr113 Zr 0.45268 0.51322 0.47928
 O114 O 0.47795 0.54109 0.50616
 Zr115 Zr 0.54666 0.48821 0.51878
 O116 O 0.52104 0.45954 0.49265
 Zr117 Zr 0.51931 0.54780 0.48693
 O118 O 0.49286 0.52226 0.45853
 Zr119 Zr 0.48733 0.52032 0.54627
 O120 O 0.45846 0.49404 0.52089
 O121 O 0.47116 0.47237 0.47103
 O122 O 0.52822 0.52923 0.52777
 C123 C 0.45848 0.49522 0.41312
 C124 C 0.49486 0.41452 0.45818
 C125 C 0.41341 0.45931 0.49393
 C126 C 0.54328 0.50697 0.58406
 C127 C 0.58486 0.54352 0.50665
 C128 C 0.50633 0.58596 0.54220
 H129 H 0.55860 0.51035 0.46704
 H130 H 0.46717 0.55970 0.50900
 H131 H 0.45866 0.45975 0.45849
 H132 H 0.50965 0.46817 0.55798
 H133 H 0.55749 0.43347 0.52872
 H134 H 0.51206 0.41894 0.54196
 H135 H 0.48356 0.59028 0.47400
 H136 H 0.45181 0.55914 0.44620
 H137 H 0.59953 0.46885 0.50817
 H138 H 0.54997 0.45038 0.42147
 H139 H 0.44136 0.55352 0.55070
 H140 H 0.41302 0.52781 0.51683
 H141 H 0.52504 0.51979 0.41352
 H142 H 0.55351 0.55216 0.44157
 H143 H 0.44500 0.45380 0.55704
 H144 H 0.47507 0.48479 0.58915
 O145 O 0.43514 -0.05681 0.49493
 O146 O 0.45811 -0.06236 0.45028
 O147 O 0.50648 -0.06371 0.55709
 O148 O 0.54764 -0.04003 0.56777
 O149 O 0.44230 0.00704 0.56494
 O150 O 0.43517 0.05181 0.53948
 O151 O 0.58254 0.01604 0.48244
 O152 O 0.58413 -0.03082 0.49956
 O153 O 0.51589 0.01804 0.41775
 O154 O 0.46461 0.00416 0.41614
 O155 O 0.51703 0.08341 0.48385
 O156 O 0.50388 0.08550 0.53459
 O157 O 0.56387 0.05694 0.50415
 O158 O 0.53761 0.06418 0.55219
 O159 O 0.49489 0.06478 0.44331
 O160 O 0.44731 0.03847 0.43679
 O161 O 0.55688 -0.00312 0.43659
 O162 O 0.55732 -0.05233 0.45978
 O163 O 0.41635 -0.01574 0.51629
 O164 O 0.41559 0.03498 0.50209
 O165 O 0.48277 -0.01525 0.58360
 O166 O 0.53429 0.00164 0.58277
 O167 O 0.48295 -0.08224 0.51723
 O168 O 0.50133 -0.08130 0.46633
 Zr169 Zr 0.47959 -0.04639 0.48832
 O170 O 0.50577 -0.02085 0.46011
 Zr171 Zr 0.51162 -0.01879 0.54771
 O172 O 0.53974 0.00715 0.52186
 Zr173 Zr 0.45229 0.01317 0.52029
 O174 O 0.47782 0.04118 0.49382
 Zr175 Zr 0.54609 -0.01209 0.48051
 O176 O 0.52109 -0.04017 0.50783
 Zr177 Zr 0.48676 0.02054 0.45357
 O178 O 0.45859 -0.00628 0.47894
 Zr179 Zr 0.51939 0.04750 0.51282
 O180 O 0.49226 0.02267 0.54137
 O181 O 0.47097 -0.02748 0.52903
 O182 O 0.52786 0.02907 0.47181
 C183 C 0.41370 -0.04168 0.50537
 C184 C 0.49502 -0.08504 0.54256
 C185 C 0.45714 -0.00382 0.58634
 C186 C 0.58515 0.04213 0.49291
 C187 C 0.54209 0.00786 0.41526
 C188 C 0.50631 0.08604 0.45791
 H189 H 0.50858 -0.03158 0.44144
 H190 H 0.46719 0.05991 0.49122
 H191 H 0.45848 -0.04005 0.54163
 H192 H 0.55862 0.00959 0.53227
 H193 H 0.57784 -0.04930 0.50912
 H194 H 0.56487 -0.03636 0.55511
 H195 H 0.44185 0.05541 0.44924
 H196 H 0.41271 0.02672 0.48220
 H197 H 0.57677 -0.04989 0.45032
 H198 H 0.48987 -0.09964 0.46900
 H199 H 0.48376 0.08937 0.52741
 H200 H 0.45070 0.05963 0.55252
 H201 H 0.44610 -0.04602 0.44250
 H202 H 0.47305 -0.01530 0.41144
 H203 H 0.52372 0.02008 0.58728
 H204 H 0.55489 0.05203 0.55722
 O205 O -0.05702 0.50721 1.06433
 O206 O -0.06255 0.55195 1.04148
 O207 O -0.06392 0.44513 0.99292
 O208 O -0.04036 0.43457 0.95171
 O209 O 0.00668 0.43730 1.05704
 O210 O 0.05152 0.46265 1.06421
 O211 O 0.01579 0.51997 0.91695
 O212 O -0.03109 0.50296 0.91534
 O213 O 0.01803 0.58458 0.98376
 O214 O 0.00441 0.58632 1.03479
 O215 O 0.08320 0.51822 0.98238
 O216 O 0.08526 0.46761 0.99533
 O217 O 0.05662 0.49813 0.93557
 O218 O 0.06364 0.44990 0.96179
 O219 O 0.06482 0.55879 1.00468
 O220 O 0.03828 0.56519 1.05240
 O221 O -0.00328 0.56587 0.94277
 O222 O -0.05249 0.54270 0.94228
 O223 O -0.01594 0.48582 1.08302
 O224 O 0.03480 0.50014 1.08378
 O225 O -0.01561 0.41867 1.01655
 O226 O 0.00132 0.41956 0.96497
 O227 O -0.08250 0.48498 1.01646
 O228 O -0.08143 0.53605 0.99818
 Zr229 Zr -0.04660 0.51396 1.01989
 O230 O -0.02096 0.54221 0.99381
 Zr231 Zr -0.01907 0.45459 0.98774
 O232 O 0.00685 0.48047 0.95965
 Zr233 Zr 0.01295 0.48194 1.04710
 O234 O 0.04101 0.50836 1.02160
 Zr235 Zr -0.01230 0.52189 0.95342
 O236 O -0.04040 0.49451 0.97835
 Zr237 Zr 0.02048 0.54868 1.01277
 O238 O -0.00645 0.52332 1.04087
 Zr239 Zr 0.04721 0.48939 0.98001
 O240 O 0.02239 0.46084 1.00712
 O241 O -0.02771 0.47323 1.02840
 O242 O 0.02891 0.53048 0.97163
 C243 C -0.04189 0.49666 1.08572
 C244 C -0.08525 0.45960 1.00442
 C245 C -0.00426 0.41593 1.04221
 C246 C 0.04184 0.50944 0.91432
 C247 C 0.00778 0.58717 0.95760
 C248 C 0.08599 0.54411 0.99320
 H249 H -0.03164 0.56091 0.99106
 H250 H 0.05975 0.51089 1.03223
 H251 H -0.04029 0.46061 1.04086
 H252 H 0.00924 0.47009 0.94074
 H253 H -0.04956 0.49338 0.92162
 H254 H -0.03679 0.44731 0.93453
 H255 H 0.05540 0.55291 1.05764
 H256 H 0.02642 0.51996 1.08682
 H257 H -0.05006 0.55222 0.92286
 H258 H -0.09980 0.53328 1.00957
 H259 H 0.08898 0.47450 1.01558
 H260 H 0.05928 0.44957 1.04869
 H261 H -0.04618 0.55973 1.05347
 H262 H -0.01530 0.59070 1.02682
 H263 H 0.01966 0.41489 0.97564
 H264 H 0.05165 0.44508 0.94434
 O265 O 0.01619 0.41600 0.51615
 O266 O 0.00047 0.41462 0.46825
 O267 O 0.08282 0.48388 0.51551
 O268 O 0.08584 0.53137 0.50576
 O269 O 0.01518 0.48320 0.58364
 O270 O -0.03481 0.49712 0.58432
 O271 O 0.00465 0.56277 0.44183
 O272 O 0.04956 0.54107 0.43761
 O273 O -0.05800 0.49491 0.43630
 O274 O -0.06595 0.44859 0.46178
 O275 O -0.06437 0.55693 0.50465
 O276 O -0.03902 0.56523 0.55044
 O277 O -0.01746 0.58157 0.48245
 O278 O -0.00230 0.58293 0.53504
 O279 O -0.08331 0.51626 0.48298
 O280 O -0.08405 0.46399 0.49833
 O281 O -0.01764 0.51746 0.41768
 O282 O 0.03196 0.49547 0.41803
 O283 O -0.00657 0.43473 0.55647
 O284 O -0.05204 0.46043 0.56369
 O285 O 0.05593 0.50495 0.56490
 O286 O 0.06059 0.55214 0.53855
 O287 O 0.06389 0.44263 0.49483
 O288 O 0.03815 0.43954 0.44723
 Zr289 Zr 0.01928 0.45237 0.48788
 O290 O -0.00766 0.47757 0.46008
 Zr291 Zr 0.04635 0.51182 0.52029
 O292 O 0.02121 0.53942 0.49317
 Zr293 Zr -0.01307 0.47958 0.54726
 O294 O -0.04094 0.50636 0.52193
 Zr295 Zr 0.01188 0.51869 0.45312
 O296 O 0.04048 0.49249 0.47871
 Zr297 Zr -0.04772 0.48697 0.48065
 O298 O -0.02226 0.45865 0.50721
 Zr299 Zr -0.02009 0.54641 0.51242
 O300 O 0.00627 0.52111 0.54125
 O301 O 0.02771 0.47109 0.52872
 O302 O -0.02909 0.52779 0.47161
 C303 C 0.00454 0.41332 0.54173
 C304 C 0.08542 0.45786 0.50488
 C305 C 0.04096 0.49434 0.58633
 C306 C -0.00674 0.58409 0.45644
 C307 C -0.04353 0.50661 0.41508
 C308 C -0.08577 0.54231 0.49348
 H309 H -0.01040 0.46692 0.44136
 H310 H -0.05953 0.50924 0.53273
 H311 H 0.04029 0.45856 0.54125
 H312 H 0.03205 0.55796 0.48999
 H313 H 0.06663 0.52840 0.44215
 H314 H 0.08115 0.54204 0.48747
 H315 H -0.09016 0.47418 0.51651
 H316 H -0.05914 0.44670 0.54841
 H317 H 0.03107 0.50795 0.40022
 H318 H 0.04929 0.42103 0.45009
 H319 H -0.05360 0.55113 0.55818
 H320 H -0.02748 0.51745 0.58670
 H321 H -0.02009 0.41348 0.47521
 H322 H -0.05226 0.44158 0.44645
 H323 H 0.04654 0.55727 0.55432
 H324 H 0.01569 0.58914 0.52459
 O325 O 0.51722 0.91454 0.01647
 O326 O 0.50174 0.91322 -0.03138
 O327 O 0.58361 0.98274 0.01631
 O328 O 0.58651 1.03024 0.00687
 O329 O 0.51574 0.98151 0.08424
 O330 O 0.46576 0.99516 0.08487
 O331 O 0.50535 1.06144 -0.05740
 O332 O 0.55038 1.03992 -0.06156
 O333 O 0.44292 0.99356 -0.06321
 O334 O 0.43497 0.94717 -0.03797
 O335 O 0.43635 1.05538 0.00522
 O336 O 0.46135 1.06366 0.05102
 O337 O 0.48316 1.08011 -0.01677
 O338 O 0.49836 1.08122 0.03602
 O339 O 0.41749 1.01473 -0.01657
 O340 O 0.41689 0.96231 -0.00126
 O341 O 0.48329 1.01623 -0.08168
 O342 O 0.53295 0.99431 -0.08129
 O343 O 0.49422 0.93301 0.05677
 O344 O 0.44864 0.95862 0.06395
 O345 O 0.55644 1.00351 0.06572
 O346 O 0.56103 1.05083 0.03943
 O347 O 0.56495 0.94150 -0.00463
 O348 O 0.53922 0.93843 -0.05231
 Zr349 Zr 0.52028 0.95103 -0.01162
 O350 O 0.49328 0.97621 -0.03939
 Zr351 Zr 0.54702 1.01046 0.02108
 O352 O 0.52192 1.03806 -0.00607
 Zr353 Zr 0.48764 0.97791 0.04776
 O354 O 0.45978 1.00474 0.02247
 Zr355 Zr 0.51273 1.01739 -0.04618
 O356 O 0.54136 0.99125 -0.02058
 Zr357 Zr 0.45314 0.98547 -0.01888
 O358 O 0.47864 0.95711 0.00759
 Zr359 Zr 0.48058 1.04487 0.01313
 O360 O 0.50686 1.01953 0.04197
 O361 O 0.52851 0.96963 0.02932
 O362 O 0.47172 1.02634 -0.02775
 C363 C 0.50544 0.91170 0.04197
 C364 C 0.58638 0.95680 0.00554
 C365 C 0.54144 0.99280 0.08707
 C366 C 0.49386 1.08268 -0.04278
 C367 C 0.45739 1.00539 -0.08435
 C368 C 0.41501 1.04079 -0.00607
 H369 H 0.49060 0.96561 -0.05815
 H370 H 0.44115 1.00757 0.03323
 H371 H 0.54111 0.95710 0.04184
 H372 H 0.53272 1.05663 -0.00918
 H373 H 0.56748 1.02728 -0.05703
 H374 H 0.58196 1.04062 -0.01162
 H375 H 0.41057 0.97258 0.01680
 H376 H 0.44166 0.94488 0.04863
 H377 H 0.53205 1.00684 -0.09907
 H378 H 0.55054 0.92003 -0.04949
 H379 H 0.44699 1.04938 0.05885
 H380 H 0.47288 1.01556 0.08728
 H381 H 0.48109 0.91211 -0.02469
 H382 H 0.44877 0.94017 -0.05321
 H383 H 0.54702 1.05580 0.05529
 H384 H 0.51613 1.08777 0.02538
 O385 O 0.55774 0.50357 -0.06536
 O386 O 0.56332 0.54822 -0.04239
 O387 O 0.56463 0.44132 0.00588
 O388 O 0.54097 0.43066 0.04703
 O389 O 0.49384 0.43358 -0.05827
 O390 O 0.44912 0.45908 -0.06538
 O391 O 0.48499 0.51605 0.08201
 O392 O 0.53181 0.49891 0.08357
 O393 O 0.48292 0.58079 0.01544
 O394 O 0.49677 0.58247 -0.03580
 O395 O 0.41756 0.51469 0.01656
 O396 O 0.41545 0.46395 0.00335
 O397 O 0.44409 0.49433 0.06335
 O398 O 0.43679 0.44630 0.03705
 O399 O 0.43619 0.55524 -0.00558
 O400 O 0.46252 0.56176 -0.05318
 O401 O 0.50414 0.56194 0.05638
 O402 O 0.55333 0.53870 0.05677
 O403 O 0.51665 0.48228 -0.08416
 O404 O 0.46594 0.49650 -0.08490
 O405 O 0.51612 0.41486 -0.01784
 O406 O 0.49930 0.41568 0.03370
 O407 O 0.58317 0.48123 -0.01756
 O408 O 0.58223 0.53217 0.00083
 Zr409 Zr 0.54733 0.51018 -0.02093
 O410 O 0.52181 0.53841 0.00526
 Zr411 Zr 0.51973 0.45075 0.01104
 O412 O 0.49382 0.47662 0.03918
 Zr413 Zr 0.48775 0.47826 -0.04824
 O414 O 0.45976 0.50472 -0.02269
 Zr415 Zr 0.51308 0.51798 0.04556
 O416 O 0.54112 0.49064 0.02054
 Zr417 Zr 0.48042 0.54498 -0.01372
 O418 O 0.50723 0.51961 -0.04190
 Zr419 Zr 0.45347 0.48570 0.01886
 O420 O 0.47826 0.45714 -0.00829
 O421 O 0.52840 0.46946 -0.02958
 O422 O 0.47191 0.52671 0.02735
 C423 C 0.54259 0.49317 -0.08681
 C424 C 0.58596 0.45588 -0.00553
 C425 C 0.50466 0.41215 -0.04346
 C426 C 0.45892 0.50558 0.08463
 C427 C 0.49311 0.58328 0.04163
 C428 C 0.41493 0.54065 0.00585
 H429 H 0.53254 0.55708 0.00808
 H430 H 0.44103 0.50734 -0.03330
 H431 H 0.54095 0.45685 -0.04208
 H432 H 0.49139 0.46620 0.05805
 H433 H 0.55028 0.48934 0.07727
 H434 H 0.53735 0.44334 0.06425
 H435 H 0.44554 0.54936 -0.05860
 H436 H 0.47423 0.51639 -0.08779
 H437 H 0.55090 0.54817 0.07623
 H438 H 0.60058 0.52949 -0.01062
 H439 H 0.41157 0.47114 -0.01675
 H440 H 0.44127 0.44606 -0.04985
 H441 H 0.54697 0.55605 -0.05435
 H442 H 0.51626 0.58711 -0.02742
 H443 H 0.48085 0.41118 0.02314
 H444 H 0.44895 0.44126 0.05431
 O445 O -0.08401 0.01462 0.51773
 O446 O -0.08535 -0.03331 0.50217
 O447 O -0.01585 0.01452 0.58399
 O448 O 0.03163 0.00497 0.58690
 O449 O -0.01720 0.08228 0.51615
 O450 O -0.00336 0.08295 0.46623
 O451 O 0.06285 -0.05943 0.50576
 O452 O 0.04133 -0.06361 0.55072
 O453 O -0.00508 -0.06517 0.44332
 O454 O -0.05125 -0.04004 0.43527
 O455 O 0.05681 0.00332 0.43678
 O456 O 0.06525 0.04893 0.46171
 O457 O 0.08153 -0.01876 0.48362
 O458 O 0.08255 0.03412 0.49889
 O459 O 0.01617 -0.01841 0.41789
 O460 O -0.03634 -0.00312 0.41744
 O461 O 0.01746 -0.08376 0.48368
 O462 O -0.00432 -0.08324 0.53340
 O463 O -0.06548 0.05488 0.49468
 O464 O -0.03986 0.06196 0.44902
 O465 O 0.00486 0.06385 0.55683
 O466 O 0.05226 0.03753 0.56137
 O467 O -0.05707 -0.00647 0.56538
 O468 O -0.06016 -0.05423 0.53968
 Zr469 Zr -0.04755 -0.01354 0.52071
 O470 O -0.02237 -0.04133 0.49369
 Zr471 Zr 0.01189 0.01918 0.54742
 O472 O 0.03946 -0.00805 0.52232
 Zr473 Zr -0.02063 0.04581 0.48804
 O474 O 0.00621 0.02052 0.46021
 Zr475 Zr 0.01879 -0.04819 0.51311
 O476 O -0.00733 -0.02252 0.54176
 Zr477 Zr -0.01308 -0.02083 0.45356
 O478 O -0.04146 0.00564 0.47907
 Zr479 Zr 0.04631 0.01115 0.48101
 O480 O 0.02097 0.04005 0.50726
 O481 O -0.02892 0.02739 0.52891
 O482 O 0.02778 -0.02975 0.47211
 C483 C -0.08680 0.04016 0.50598
 C484 C -0.04180 0.00379 0.58678
 C485 C -0.00599 0.08515 0.54186
 C486 C 0.08412 -0.04477 0.49434
 C487 C 0.00659 -0.08639 0.45780
 C488 C 0.04220 -0.00785 0.41541
 H489 H -0.03299 -0.06008 0.49101
 H490 H 0.00905 0.03129 0.44160
 H491 H -0.04145 0.03992 0.54150
 H492 H 0.05802 -0.01117 0.53313
 H493 H 0.02875 -0.05899 0.56783
 H494 H 0.04198 -0.01354 0.58235
 H495 H -0.02600 0.01487 0.41104
 H496 H -0.05375 0.04671 0.44215
 H497 H 0.00815 -0.10107 0.53246
 H498 H -0.07856 -0.05138 0.55099
 H499 H 0.05080 0.05704 0.44768
 H500 H 0.01698 0.08544 0.47346
 H501 H -0.08652 -0.02653 0.48157
 H502 H -0.05851 -0.05498 0.44925
 H503 H 0.05715 0.05349 0.54745
 H504 H 0.08919 0.02340 0.51656
 O505 O 0.73435 0.16663 0.26778
 O506 O 0.78228 0.16535 0.25225
 O507 O 0.73440 0.23476 0.33410
 O508 O 0.74399 0.28229 0.33700
 O509 O 0.66665 0.23348 0.26615
 O510 O 0.66605 0.24723 0.21623
 O511 O 0.80834 0.31358 0.25595
 O512 O 0.81245 0.29205 0.30094
 O513 O 0.81413 0.24565 0.19351
 O514 O 0.78895 0.19925 0.18557
 O515 O 0.74580 0.30743 0.18680
 O516 O 0.69995 0.31573 0.21180
 O517 O 0.76774 0.33223 0.23371
 O518 O 0.71494 0.33334 0.24877
 O519 O 0.76757 0.26674 0.16804
 O520 O 0.75223 0.21433 0.16748
 O521 O 0.83264 0.26831 0.23386
 O522 O 0.83216 0.24645 0.28356
 O523 O 0.69409 0.18510 0.24471
 O524 O 0.68702 0.21071 0.19907
 O525 O 0.68507 0.25553 0.30687
 O526 O 0.71136 0.30288 0.31151
 O527 O 0.75539 0.19356 0.31542
 O528 O 0.80313 0.19054 0.28983
 Zr529 Zr 0.76248 0.20313 0.27080
 O530 O 0.79030 0.22832 0.24385
 Zr531 Zr 0.72975 0.26254 0.29752
 O532 O 0.75695 0.29015 0.27242
 Zr533 Zr 0.70315 0.22998 0.23810
 O534 O 0.72848 0.25683 0.21027
 Zr535 Zr 0.79709 0.26951 0.26329
 O536 O 0.77143 0.24335 0.29189
 Zr537 Zr 0.76982 0.23754 0.20370
 O538 O 0.74331 0.20917 0.22916
 Zr539 Zr 0.73783 0.29696 0.23105
 O540 O 0.70894 0.27161 0.25732
 O541 O 0.72154 0.22172 0.27898
 O542 O 0.77871 0.27843 0.22225
 C543 C 0.70884 0.16380 0.25601
 C544 C 0.74514 0.20880 0.33685
 C545 C 0.66377 0.24472 0.29185
 C546 C 0.79373 0.33483 0.24447
 C547 C 0.83529 0.25746 0.20798
 C548 C 0.75709 0.29278 0.16549
 H549 H 0.80906 0.21772 0.24119
 H550 H 0.71775 0.25964 0.19164
 H551 H 0.70900 0.20918 0.29156
 H552 H 0.76005 0.30872 0.28323
 H553 H 0.80786 0.27944 0.31803
 H554 H 0.76241 0.29280 0.33242
 H555 H 0.73418 0.22460 0.16112
 H556 H 0.70230 0.19688 0.19218
 H557 H 0.84997 0.25896 0.28264
 H558 H 0.80029 0.17210 0.30109
 H559 H 0.69213 0.30144 0.19745
 H560 H 0.66364 0.26763 0.22337
 H561 H 0.77549 0.16416 0.23165
 H562 H 0.80413 0.19224 0.19941
 H563 H 0.69554 0.30785 0.29746
 H564 H 0.72548 0.33981 0.26662
 O565 O 0.75577 0.69254 0.68563
 O566 O 0.80048 0.68713 0.70851
 O567 O 0.69367 0.68532 0.75694
 O568 O 0.68298 0.70882 0.79817
 O569 O 0.68560 0.75610 0.69296
 O570 O 0.71085 0.80097 0.68586
 O571 O 0.76830 0.76516 0.83309
 O572 O 0.75135 0.71826 0.83464
 O573 O 0.83282 0.76765 0.76631
 O574 O 0.83447 0.75398 0.71511
 O575 O 0.76641 0.83267 0.76783
 O576 O 0.71577 0.83465 0.75481
 O577 O 0.74632 0.80596 0.81457
 O578 O 0.69811 0.81295 0.78833
 O579 O 0.80700 0.81432 0.74556
 O580 O 0.81349 0.78809 0.69780
 O581 O 0.81420 0.74621 0.80725
 O582 O 0.79109 0.69692 0.80766
 O583 O 0.73429 0.73357 0.66695
 O584 O 0.74836 0.78440 0.66629
 O585 O 0.66701 0.73371 0.73340
 O586 O 0.66789 0.75048 0.78503
 O587 O 0.73358 0.66696 0.73336
 O588 O 0.78454 0.66808 0.75173
 Zr589 Zr 0.76242 0.70293 0.73006
 O590 O 0.79059 0.72856 0.75621
 Zr591 Zr 0.70296 0.73023 0.76221
 O592 O 0.72878 0.75618 0.79036
 Zr593 Zr 0.73023 0.76242 0.70292
 O594 O 0.75658 0.79051 0.72849
 Zr595 Zr 0.77023 0.73712 0.79659
 O596 O 0.74293 0.70899 0.77159
 Zr597 Zr 0.79693 0.77004 0.73729
 O598 O 0.77165 0.74312 0.70913
 Zr599 Zr 0.73761 0.79661 0.77009
 O600 O 0.70913 0.77175 0.74292
 O601 O 0.72163 0.72170 0.72154
 O602 O 0.77872 0.77837 0.77844
 C603 C 0.74525 0.70767 0.66424
 C604 C 0.70824 0.66407 0.74540
 C605 C 0.66424 0.74514 0.70778
 C606 C 0.75770 0.79118 0.83578
 C607 C 0.83545 0.75737 0.79244
 C608 C 0.79233 0.83546 0.75709
 H609 H 0.80931 0.71791 0.75894
 H610 H 0.75909 0.80928 0.71791
 H611 H 0.70905 0.70912 0.70904
 H612 H 0.71839 0.75852 0.80927
 H613 H 0.74179 0.69977 0.82835
 H614 H 0.69573 0.71235 0.81536
 H615 H 0.80108 0.80511 0.69253
 H616 H 0.76824 0.77615 0.66330
 H617 H 0.80062 0.69936 0.82708
 H618 H 0.78189 0.64974 0.74027
 H619 H 0.72270 0.83846 0.73460
 H620 H 0.69783 0.80874 0.70142
 H621 H 0.80821 0.70352 0.69653
 H622 H 0.83913 0.73443 0.72332
 H623 H 0.66320 0.76887 0.77443
 H624 H 0.69329 0.80089 0.80573
 O625 O 0.23292 0.33426 0.73202
 O626 O 0.28086 0.33558 0.74749
 O627 O 0.23300 0.26612 0.66566
 O628 O 0.24256 0.21859 0.66276
 O629 O 0.16522 0.26735 0.73362
 O630 O 0.16465 0.25359 0.78358
 O631 O 0.30686 0.18735 0.74379
 O632 O 0.31096 0.20889 0.69877
 O633 O 0.31274 0.25526 0.80621
 O634 O 0.28756 0.30169 0.81414
 O635 O 0.24436 0.19349 0.81296
 O636 O 0.19845 0.18521 0.78794
 O637 O 0.26628 0.16869 0.76609
 O638 O 0.21351 0.16752 0.75104
 O639 O 0.26617 0.23417 0.83171
 O640 O 0.25086 0.28657 0.83230
 O641 O 0.33119 0.23257 0.76585
 O642 O 0.33074 0.25448 0.71618
 O643 O 0.19264 0.31575 0.75505
 O644 O 0.18558 0.29018 0.80068
 O645 O 0.18367 0.24536 0.69288
 O646 O 0.20989 0.19802 0.68826
 O647 O 0.25394 0.30736 0.68433
 O648 O 0.30170 0.31041 0.70991
 Zr649 Zr 0.26105 0.29779 0.72895
 O650 O 0.28888 0.27261 0.75588
 Zr651 Zr 0.22832 0.23835 0.70225
 O652 O 0.25550 0.21075 0.72733
 Zr653 Zr 0.20172 0.27089 0.76167
 O654 O 0.22706 0.24408 0.78950
 Zr655 Zr 0.29564 0.23141 0.73644
 O656 O 0.27000 0.25757 0.70786
 Zr657 Zr 0.26842 0.26338 0.79605
 O658 O 0.24189 0.29173 0.77060
 Zr659 Zr 0.23638 0.20394 0.76871
 O660 O 0.20750 0.22927 0.74245
 O661 O 0.22011 0.27917 0.72079
 O662 O 0.27727 0.22249 0.77749
 C663 C 0.20739 0.33707 0.74379
 C664 C 0.24371 0.29209 0.66291
 C665 C 0.16236 0.25613 0.70790
 C666 C 0.29227 0.16610 0.75532
 C667 C 0.33387 0.24341 0.79173
 C668 C 0.25567 0.20813 0.83426
 H669 H 0.30765 0.28320 0.75853
 H670 H 0.21633 0.24126 0.80814
 H671 H 0.20757 0.29170 0.70821
 H672 H 0.25859 0.19218 0.71653
 H673 H 0.30639 0.22153 0.68169
 H674 H 0.26094 0.20805 0.66736
 H675 H 0.23279 0.27632 0.83863
 H676 H 0.20089 0.30397 0.80760
 H677 H 0.34853 0.24195 0.71707
 H678 H 0.29885 0.32884 0.69864
 H679 H 0.19071 0.19945 0.80238
 H680 H 0.16221 0.23321 0.77641
 H681 H 0.27410 0.33675 0.76811
 H682 H 0.30278 0.30866 0.80032
 H683 H 0.19409 0.19303 0.70233
 H684 H 0.22402 0.16109 0.73315
 O685 O 0.18582 0.74367 0.30816
 O686 O 0.20870 0.69894 0.31355
 O687 O 0.25725 0.80574 0.31536
 O688 O 0.29845 0.81648 0.29182
 O689 O 0.19313 0.81387 0.24471
 O690 O 0.18599 0.78869 0.19983
 O691 O 0.33327 0.73116 0.23542
 O692 O 0.33487 0.74804 0.28235
 O693 O 0.26640 0.66664 0.23290
 O694 O 0.21526 0.66495 0.24665
 O695 O 0.26792 0.73311 0.16805
 O696 O 0.25490 0.78378 0.16611
 O697 O 0.31468 0.75319 0.19468
 O698 O 0.28847 0.80142 0.18777
 O699 O 0.24560 0.69250 0.18635
 O700 O 0.19783 0.68605 0.21266
 O701 O 0.30740 0.68523 0.25428
 O702 O 0.30789 0.70825 0.30361
 O703 O 0.16714 0.76518 0.26716
 O704 O 0.16642 0.75114 0.21635
 O705 O 0.23361 0.83244 0.26706
 O706 O 0.28525 0.83158 0.25023
 O707 O 0.23365 0.76584 0.33373
 O708 O 0.25197 0.71483 0.33253
 Zr709 Zr 0.23027 0.73701 0.29775
 O710 O 0.25638 0.70884 0.27207
 Zr711 Zr 0.26243 0.79649 0.27046
 O712 O 0.29055 0.77068 0.24449
 Zr713 Zr 0.20308 0.76925 0.23832
 O714 O 0.22860 0.74292 0.21020
 Zr715 Zr 0.29678 0.72919 0.26349
 O716 O 0.27182 0.75649 0.29165
 Zr717 Zr 0.23740 0.70255 0.23063
 O718 O 0.20928 0.72781 0.25759
 Zr719 Zr 0.27022 0.76189 0.20409
 O720 O 0.24309 0.79037 0.22898
 O721 O 0.22176 0.77782 0.27902
 O722 O 0.27856 0.72075 0.22228
 C723 C 0.16442 0.75420 0.29304
 C724 C 0.24574 0.79117 0.33661
 C725 C 0.20796 0.83522 0.25568
 C726 C 0.33592 0.74177 0.20941
 C727 C 0.29256 0.66400 0.24310
 C728 C 0.25715 0.70719 0.16524
 H729 H 0.25912 0.69011 0.28269
 H730 H 0.21800 0.74043 0.19144
 H731 H 0.20927 0.79039 0.29162
 H732 H 0.30947 0.78107 0.24214
 H733 H 0.32859 0.75757 0.30085
 H734 H 0.31560 0.80368 0.28834
 H735 H 0.19260 0.69842 0.19559
 H736 H 0.16340 0.73127 0.22461
 H737 H 0.32730 0.69870 0.30113
 H738 H 0.24054 0.71749 0.35089
 H739 H 0.23469 0.77682 0.16229
 H740 H 0.20157 0.80172 0.19206
 H741 H 0.19672 0.69121 0.29715
 H742 H 0.22345 0.66031 0.26620
 H743 H 0.27461 0.83631 0.23188
 H744 H 0.30588 0.80623 0.19982
 O745 O 0.16706 0.73431 0.76679
 O746 O 0.16568 0.75004 0.71897
 O747 O 0.23501 0.66783 0.76623
 O748 O 0.28250 0.66489 0.75652
 O749 O 0.23416 0.73544 0.83437
 O750 O 0.24799 0.78543 0.83512
 O751 O 0.31371 0.74609 0.69245
 O752 O 0.29210 0.70118 0.68827
 O753 O 0.24584 0.80868 0.68705
 O754 O 0.19954 0.81657 0.71262
 O755 O 0.30789 0.81519 0.75538
 O756 O 0.31646 0.79005 0.80087
 O757 O 0.33259 0.76817 0.73306
 O758 O 0.33374 0.75295 0.78588
 O759 O 0.26719 0.83405 0.73375
 O760 O 0.21499 0.83473 0.74911
 O761 O 0.26837 0.76832 0.66839
 O762 O 0.24646 0.71866 0.66878
 O763 O 0.18565 0.75717 0.80713
 O764 O 0.21143 0.80270 0.81442
 O765 O 0.25603 0.69477 0.81562
 O766 O 0.30324 0.69022 0.78922
 O767 O 0.19378 0.68670 0.74553
 O768 O 0.19067 0.71242 0.69793
 Zr769 Zr 0.20344 0.73133 0.73860
 O770 O 0.22858 0.75832 0.71081
 Zr771 Zr 0.26288 0.70436 0.77101
 O772 O 0.29045 0.72953 0.74385
 Zr773 Zr 0.23055 0.76371 0.79801
 O774 O 0.25734 0.79162 0.77268
 Zr775 Zr 0.26969 0.73883 0.70383
 O776 O 0.24356 0.71017 0.72943
 Zr777 Zr 0.23796 0.79840 0.73141
 O778 O 0.20965 0.77288 0.75795
 Zr779 Zr 0.29742 0.77085 0.76309
 O780 O 0.27211 0.74449 0.79196
 O781 O 0.22213 0.72292 0.77944
 O782 O 0.27878 0.77983 0.72230
 C783 C 0.16429 0.74600 0.79234
 C784 C 0.20900 0.66520 0.75559
 C785 C 0.24537 0.70969 0.83706
 C786 C 0.33506 0.75744 0.70703
 C787 C 0.25748 0.79419 0.66581
 C788 C 0.29322 0.83657 0.74427
 H789 H 0.21792 0.76105 0.69211
 H790 H 0.26022 0.81021 0.78348
 H791 H 0.20961 0.71031 0.79196
 H792 H 0.30898 0.71870 0.74065
 H793 H 0.27947 0.68408 0.69283
 H794 H 0.29304 0.66955 0.73815
 H795 H 0.22513 0.84079 0.76733
 H796 H 0.19764 0.80975 0.79918
 H797 H 0.25891 0.71959 0.65094
 H798 H 0.17219 0.70123 0.70078
 H799 H 0.30206 0.80410 0.80904
 H800 H 0.26834 0.77818 0.83749
 H801 H 0.16452 0.77061 0.72591
 H802 H 0.19256 0.80290 0.69726
 H803 H 0.30830 0.70421 0.80506
 H804 H 0.34022 0.73519 0.77520
 O805 O 0.25581 0.19196 0.18485
 O806 O 0.30043 0.18647 0.20784
 O807 O 0.19357 0.18550 0.25624
 O808 O 0.18294 0.20932 0.29726
 O809 O 0.18592 0.25593 0.19176
 O810 O 0.21144 0.30061 0.18439
 O811 O 0.26828 0.26541 0.33199
 O812 O 0.25119 0.21854 0.33370
 O813 O 0.33308 0.26724 0.26536
 O814 O 0.33482 0.25321 0.21427
 O815 O 0.26700 0.33256 0.26626
 O816 O 0.21639 0.33470 0.25311
 O817 O 0.24663 0.30625 0.31315
 O818 O 0.19856 0.31334 0.28673
 O819 O 0.30753 0.31391 0.24413
 O820 O 0.31400 0.28725 0.19660
 O821 O 0.31419 0.24625 0.30641
 O822 O 0.29103 0.19701 0.30700
 O823 O 0.23456 0.23300 0.16592
 O824 O 0.24888 0.28373 0.16498
 O825 O 0.16721 0.23383 0.23231
 O826 O 0.16804 0.25094 0.28377
 O827 O 0.23342 0.16675 0.23286
 O828 O 0.28442 0.16779 0.25116
 Zr829 Zr 0.26243 0.20258 0.22927
 O830 O 0.29067 0.22826 0.25534
 Zr831 Zr 0.20307 0.23039 0.26117
 O832 O 0.22893 0.25641 0.28920
 Zr833 Zr 0.23059 0.26207 0.20173
 O834 O 0.25704 0.29019 0.22717
 Zr835 Zr 0.27027 0.23717 0.29563
 O836 O 0.24292 0.20901 0.27073
 Zr837 Zr 0.29727 0.26959 0.23620
 O838 O 0.27191 0.24262 0.20814
 Zr839 Zr 0.23802 0.29667 0.26870
 O840 O 0.20947 0.27176 0.24164
 O841 O 0.22175 0.22150 0.22057
 O842 O 0.27901 0.27827 0.27725
 C843 C 0.24541 0.20703 0.16334
 C844 C 0.20806 0.16407 0.24493
 C845 C 0.16450 0.24516 0.20664
 C846 C 0.25782 0.29151 0.33450
 C847 C 0.33554 0.25720 0.29160
 C848 C 0.29294 0.33519 0.25551
 H849 H 0.30933 0.21755 0.25820
 H850 H 0.25966 0.30888 0.21647
 H851 H 0.20913 0.20889 0.20814
 H852 H 0.21851 0.25892 0.30807
 H853 H 0.24164 0.20002 0.32745
 H854 H 0.19565 0.21296 0.31445
 H855 H 0.30168 0.30428 0.19117
 H856 H 0.26872 0.27537 0.16209
 H857 H 0.30047 0.19953 0.32645
 H858 H 0.28166 0.14937 0.23984
 H859 H 0.22342 0.33837 0.23291
 H860 H 0.19844 0.30855 0.19989
 H861 H 0.30830 0.20278 0.19584
 H862 H 0.33933 0.23367 0.22258
 H863 H 0.16349 0.26930 0.27307
 H864 H 0.19360 0.30139 0.30417
 O865 O 0.74388 0.69228 0.31374
 O866 O 0.69917 0.68685 0.29068
 O867 O 0.80615 0.68550 0.24257
 O868 O 0.81691 0.70921 0.20146
 O869 O 0.81383 0.75613 0.30689
 O870 O 0.78839 0.80093 0.31401
 O871 O 0.73172 0.76539 0.16647
 O872 O 0.74873 0.71856 0.16481
 O873 O 0.66677 0.76720 0.23308
 O874 O 0.66505 0.75341 0.28423
 O875 O 0.73298 0.83266 0.23220
 O876 O 0.78366 0.83472 0.24538
 O877 O 0.75342 0.80623 0.18530
 O878 O 0.80135 0.81342 0.21169
 O879 O 0.69236 0.81402 0.25419
 O880 O 0.68574 0.78760 0.30169
 O881 O 0.68566 0.74609 0.19208
 O882 O 0.70897 0.69696 0.19152
 O883 O 0.76518 0.73335 0.33262
 O884 O 0.75092 0.78407 0.33348
 O885 O 0.83260 0.73389 0.26643
 O886 O 0.83191 0.75086 0.21492
 O887 O 0.76622 0.66694 0.26597
 O888 O 0.71537 0.66790 0.24747
 Zr889 Zr 0.73729 0.70280 0.26932
 O890 O 0.70915 0.72839 0.24314
 Zr891 Zr 0.79678 0.73042 0.23747
 O892 O 0.77099 0.75640 0.20936
 Zr893 Zr 0.76921 0.76232 0.29679
 O894 O 0.74282 0.79037 0.27127
 Zr895 Zr 0.72963 0.73720 0.20287
 O896 O 0.75690 0.70908 0.22787
 Zr897 Zr 0.70257 0.76975 0.26222
 O898 O 0.72787 0.74288 0.29038
 Zr899 Zr 0.76191 0.79673 0.22977
 O900 O 0.79041 0.77186 0.25689
 O901 O 0.77799 0.72169 0.27804
 O902 O 0.72089 0.77835 0.22117
 C903 C 0.75432 0.70739 0.33522
 C904 C 0.79160 0.66416 0.25398
 C905 C 0.83527 0.74525 0.29211
 C906 C 0.74227 0.79146 0.16394
 C907 C 0.66428 0.75698 0.20690
 C908 C 0.70703 0.83530 0.24291
 H909 H 0.69049 0.71765 0.24029
 H910 H 0.74021 0.80908 0.28194
 H911 H 0.79057 0.70911 0.29053
 H912 H 0.78145 0.75886 0.19052
 H913 H 0.75834 0.70009 0.17108
 H914 H 0.80430 0.71293 0.18421
 H915 H 0.69817 0.80455 0.30719
 H916 H 0.73105 0.77576 0.33635
 H917 H 0.69951 0.69941 0.17207
 H918 H 0.71797 0.64956 0.25893
 H919 H 0.77652 0.83851 0.26553
 H920 H 0.80152 0.80873 0.29856
 H921 H 0.69147 0.70313 0.30284
 H922 H 0.66051 0.73386 0.27593
 H923 H 0.83643 0.76927 0.22557
 H924 H 0.80645 0.80126 0.19444
 O925 O 0.68474 0.24337 0.80857
 O926 O 0.70782 0.19881 0.81417
 O927 O 0.75599 0.30581 0.81522
 O928 O 0.79703 0.31656 0.79150
 O929 O 0.69161 0.31328 0.74463
 O930 O 0.68445 0.28768 0.69994
 O931 O 0.83204 0.23118 0.73541
 O932 O 0.83370 0.24837 0.78226
 O933 O 0.76559 0.16622 0.73359
 O934 O 0.71445 0.16438 0.74746
 O935 O 0.76642 0.23239 0.66826
 O936 O 0.75303 0.28311 0.66623
 O937 O 0.81315 0.25278 0.69459
 O938 O 0.78686 0.30076 0.68741
 O939 O 0.74440 0.19174 0.68683
 O940 O 0.69681 0.18514 0.71340
 O941 O 0.80655 0.18523 0.75470
 O942 O 0.80703 0.20851 0.80385
 O943 O 0.66587 0.26458 0.76749
 O944 O 0.66500 0.25027 0.71687
 O945 O 0.73208 0.33212 0.76680
 O946 O 0.78361 0.33140 0.74986
 O947 O 0.73267 0.26590 0.83392
 O948 O 0.75110 0.21493 0.83291
 Zr949 Zr 0.72921 0.23686 0.79809
 O950 O 0.75539 0.20867 0.77248
 Zr951 Zr 0.76103 0.29632 0.77036
 O952 O 0.78916 0.27050 0.74441
 Zr953 Zr 0.70171 0.26863 0.73855
 O954 O 0.72724 0.24220 0.71051
 Zr955 Zr 0.79567 0.22917 0.76364
 O956 O 0.77066 0.25648 0.79174
 Zr957 Zr 0.73635 0.20198 0.73113
 O958 O 0.70819 0.22731 0.75802
 Zr959 Zr 0.76872 0.26136 0.70414
 O960 O 0.74158 0.28987 0.72897
 O961 O 0.72045 0.27753 0.77915
 O962 O 0.77736 0.22037 0.72253
 C963 C 0.66325 0.25371 0.79343
 C964 C 0.74468 0.29129 0.83662
 C965 C 0.70642 0.33476 0.75541
 C966 C 0.83451 0.24161 0.70931
 C967 C 0.79181 0.16382 0.74374
 C968 C 0.75577 0.20641 0.66559
 H969 H 0.75827 0.19001 0.78320
 H970 H 0.71657 0.23954 0.69181
 H971 H 0.70796 0.29012 0.79172
 H972 H 0.80802 0.28097 0.74192
 H973 H 0.82743 0.25793 0.80075
 H974 H 0.81427 0.30389 0.78790
 H975 H 0.69140 0.19742 0.69634
 H976 H 0.66220 0.23037 0.72514
 H977 H 0.82652 0.19912 0.80138
 H978 H 0.73973 0.21766 0.85130
 H979 H 0.73299 0.27573 0.66229
 H980 H 0.69992 0.30078 0.69207
 H981 H 0.69590 0.19089 0.79783
 H982 H 0.72273 0.15991 0.76702
 H983 H 0.77297 0.33589 0.73145
 H984 H 0.80416 0.30585 0.69951
 C985 C 0.08100 1.00185 1.17291
 C986 C 0.05328 1.01446 1.16897
 C987 C 0.04101 1.01615 1.14086
 C988 C 0.10720 0.99996 1.22462
 C989 C 0.08433 0.99281 1.12058
 C990 C 0.09649 0.99114 1.14866
 C991 C 0.09434 1.00072 1.20150
 C992 C 0.05640 1.00530 1.11630
 H993 H 0.04119 1.02301 1.18758
 H994 H 0.01945 1.02584 1.13841
 H995 H 0.09679 0.98418 1.10227
 H996 H 0.11807 0.98152 1.15145
 C997 C 0.58155 0.50341 0.67020
 C998 C 0.59723 0.49316 0.64587
 C999 C 0.58505 0.49487 0.61780
 C1000 C 0.60734 0.50066 0.72207
 C1001 C 0.54142 0.51749 0.63823
 C1002 C 0.55370 0.51576 0.66633
 C1003 C 0.59470 0.50183 0.69885
 C1004 C 0.55690 0.50690 0.61362
 H1005 H 0.61891 0.48376 0.64860
 H1006 H 0.59760 0.48648 0.59944
 H1007 H 0.51969 0.52683 0.63586
 H1008 H 0.54147 0.52396 0.68500
 C1009 C 0.41949 0.00041 0.67278
 C1010 C 0.44682 -0.01294 0.66861
 C1011 C 0.45901 -0.01459 0.64046
 C1012 C 0.39321 0.00172 0.72447
 C1013 C 0.41638 0.01030 0.62059
 C1014 C 0.40431 0.01195 0.64872
 C1015 C 0.40612 0.00128 0.70137
 C1016 C 0.44391 -0.00298 0.61608
 H1017 H 0.45865 -0.02215 0.68706
 H1018 H 0.48025 -0.02492 0.63783
 H1019 H 0.40417 0.01955 0.60242
 H1020 H 0.38302 0.02213 0.65168
 C1021 C -0.07989 0.49962 1.17206
 C1022 C -0.05223 0.48697 1.16793
 C1023 C -0.03990 0.48575 1.13982
 C1024 C -0.10647 0.50036 1.22361
 C1025 C -0.08303 0.50972 1.11992
 C1026 C -0.09525 0.51093 1.14800
 C1027 C -0.09339 0.50011 1.20060
 C1028 C -0.05518 0.49713 1.11544
 H1029 H -0.04025 0.47795 1.18638
 H1030 H -0.01841 0.47595 1.13721
 H1031 H -0.09541 0.51876 1.10175
 H1032 H -0.11679 0.52060 1.15093
 C1033 C -0.08173 0.50345 0.32885
 C1034 C -0.09718 0.49247 0.35302
 C1035 C -0.08506 0.49407 0.38113
 C1036 C -0.10731 0.50088 0.27683
 C1037 C -0.04198 0.51805 0.36109
 C1038 C -0.05420 0.51643 0.33295
 C1039 C -0.09479 0.50197 0.30014
 C1040 C -0.05721 0.50673 0.38552
 H1041 H -0.11863 0.48258 0.35012
 H1042 H -0.09740 0.48509 0.39935
 H1043 H -0.02048 0.52789 0.36362
 H1044 H -0.04215 0.52520 0.31442
 C1045 C 0.41890 1.00328 -0.17047
 C1046 C 0.40358 0.99191 -0.14641
 C1047 C 0.41583 0.99311 -0.11833
 C1048 C 0.39290 1.00173 -0.22231
 C1049 C 0.45880 1.01742 -0.13822
 C1050 C 0.44645 1.01620 -0.16632
 C1051 C 0.40563 1.00235 -0.19911
 C1052 C 0.44368 1.00574 -0.11388
 H1053 H 0.38213 0.98206 -0.14935
 H1054 H 0.40357 0.98386 -0.10019
 H1055 H 0.48029 1.02726 -0.13563
 H1056 H 0.45840 1.02528 -0.18477
 C1057 C 0.58036 0.49765 -0.17315
 C1058 C 0.59585 0.50838 -0.14891
 C1059 C 0.58373 0.50660 -0.12083
 C1060 C 0.60675 0.49955 -0.22475
 C1061 C 0.54044 0.48315 -0.14109
 C1062 C 0.55268 0.48494 -0.16921
 C1063 C 0.59375 0.49879 -0.20172
 C1064 C 0.55584 0.49400 -0.11653
 H1065 H 0.61740 0.51807 -0.15171
 H1066 H 0.59619 0.51525 -0.10252
 H1067 H 0.51892 0.47337 -0.13862
 H1068 H 0.54061 0.47636 -0.18782
 C1069 C 0.08091 -0.00386 0.32945
 C1070 C 0.05302 -0.01621 0.33311
 C1071 C 0.04057 -0.01808 0.36114
 C1072 C 0.10720 -0.00107 0.27781
 C1073 C 0.08411 0.00442 0.38190
 C1074 C 0.09645 0.00627 0.35392
 C1075 C 0.09430 -0.00223 0.30090
 C1076 C 0.05593 -0.00763 0.38588
 H1077 H 0.04089 -0.02433 0.31433
 H1078 H 0.01882 -0.02742 0.36337
 H1079 H 0.09658 0.01272 0.40036
 H1080 H 0.11816 0.01566 0.35135
 C1081 C 0.17268 1.08084 1.00026
 C1082 C 0.14863 1.09573 0.98831
 C1083 C 0.12050 1.08364 0.99012
 C1084 C 0.22447 1.10700 0.99859
 C1085 C 0.14034 1.04159 1.01598
 C1086 C 0.16849 1.05378 1.01416
 C1087 C 0.20129 1.09421 0.99920
 C1088 C 0.11598 1.05639 1.00397
 H1089 H 0.15160 1.11681 0.97768
 H1090 H 0.10235 1.09564 0.98057
 H1091 H 0.13770 1.02057 1.02676
 H1092 H 0.18692 1.04218 1.02369
 C1093 C 0.67119 0.58151 0.50323
 C1094 C 0.64703 0.59699 0.49230
 C1095 C 0.61889 0.58494 0.49400
 C1096 C 0.72315 0.60721 0.50055
 C1097 C 0.63888 0.54186 0.51799
 C1098 C 0.66706 0.55401 0.51627
 C1099 C 0.69991 0.59456 0.50169
 C1100 C 0.61445 0.55713 0.50671
 H1101 H 0.64996 0.61841 0.48237
 H1102 H 0.60068 0.59731 0.48504
 H1103 H 0.63631 0.52039 0.52787
 H1104 H 0.68558 0.54195 0.52502
 C1105 C 0.67246 0.41833 -0.00108
 C1106 C 0.66820 0.44542 -0.01488
 C1107 C 0.64004 0.45756 -0.01660
 C1108 C 0.72437 0.39246 0.00054
 C1109 C 0.62031 0.41539 0.00917
 C1110 C 0.64845 0.40335 0.01087
 C1111 C 0.70111 0.40509 -0.00006
 C1112 C 0.61572 0.44268 -0.00457
 H1113 H 0.68661 0.45711 -0.02440
 H1114 H 0.63736 0.47862 -0.02730
 H1115 H 0.60218 0.40333 0.01873
 H1116 H 0.65148 0.38224 0.02143
 C1117 C 0.17053 -0.08256 0.49759
 C1118 C 0.16636 -0.05492 0.48490
 C1119 C 0.13817 -0.04282 0.48329
 C1120 C 0.22271 -0.10782 0.49994
 C1121 C 0.11821 -0.08623 0.50675
 C1122 C 0.14639 -0.09824 0.50833
 C1123 C 0.19931 -0.09548 0.49898
 C1124 C 0.11375 -0.05829 0.49435
 H1125 H 0.18487 -0.04269 0.47632
 H1126 H 0.13559 -0.02125 0.47365
 H1127 H 0.10000 -0.09875 0.51551
 H1128 H 0.14935 -0.11977 0.51800
 C1129 C 0.32736 -0.07963 0.50134
 C1130 C 0.33136 -0.05202 0.51419
 C1131 C 0.35947 -0.03970 0.51579
 C1132 C 0.27594 -0.10645 0.50022
 C1133 C 0.37961 -0.08275 0.49181
 C1134 C 0.35154 -0.09495 0.49022
 C1135 C 0.29886 -0.09321 0.50058
 C1136 C 0.38397 -0.05495 0.50460
 H1137 H 0.31281 -0.04009 0.52309
 H1138 H 0.36199 -0.01825 0.52573
 H1139 H 0.39787 -0.09510 0.48290
 H1140 H 0.34871 -0.11645 0.48042
 C1141 C -0.17125 0.42073 1.00092
 C1142 C -0.16726 0.44789 1.01474
 C1143 C -0.13928 0.46055 1.01605
 C1144 C -0.22245 0.39340 1.00030
 C1145 C -0.11925 0.41880 0.98980
 C1146 C -0.14719 0.40625 0.98850
 C1147 C -0.19959 0.40677 1.00047
 C1148 C -0.11490 0.44611 1.00362
 H1149 H -0.18571 0.45918 1.02462
 H1150 H -0.13676 0.48160 1.02681
 H1151 H -0.10108 0.40706 0.97994
 H1152 H -0.15000 0.38511 0.97794
 C1153 C -0.17184 0.58085 0.49690
 C1154 C -0.14752 0.59634 0.50749
 C1155 C -0.11948 0.58406 0.50587
 C1156 C -0.22358 0.60702 0.49924
 C1157 C -0.13992 0.54070 0.48271
 C1158 C -0.16799 0.55308 0.48435
 C1159 C -0.20045 0.59417 0.49826
 C1160 C -0.11531 0.55601 0.49359
 H1161 H -0.15023 0.61796 0.51705
 H1162 H -0.10112 0.59647 0.51450
 H1163 H -0.13755 0.51905 0.47317
 H1164 H -0.18665 0.54100 0.47589
 C1165 C 0.32918 1.07997 -0.00350
 C1166 C 0.35354 1.09532 0.00718
 C1167 C 0.38148 1.08280 0.00588
 C1168 C 0.27768 1.10664 -0.00178
 C1169 C 0.36089 1.03943 -0.01712
 C1170 C 0.33290 1.05206 -0.01581
 C1171 C 0.30070 1.09357 -0.00249
 C1172 C 0.38553 1.05463 -0.00617
 H1173 H 0.35093 1.11704 0.01655
 H1174 H 0.39986 1.09514 0.01455
 H1175 H 0.36316 1.01770 -0.02650
 H1176 H 0.31421 1.04008 -0.02434
 C1177 C 0.00094 1.17329 1.08115
 C1178 C -0.01041 1.14916 1.09638
 C1179 C -0.00876 1.12105 1.08425
 C1180 C -0.00048 1.22505 1.10730
 C1181 C 0.01575 1.14108 1.04147
 C1182 C 0.01409 1.16921 1.05371
 C1183 C 0.00001 1.20188 1.09451
 C1184 C 0.00432 1.11664 1.05661
 H1185 H -0.02045 1.15206 1.11775
 H1186 H -0.01786 1.10283 1.09651
 H1187 H 0.02592 1.13851 1.02014
 H1188 H 0.02315 1.18773 1.04183
 C1189 C 0.50272 0.67200 0.58093
 C1190 C 0.51516 0.66825 0.55309
 C1191 C 0.51687 0.64019 0.54064
 C1192 C 0.50035 0.72375 0.60713
 C1193 C 0.49403 0.61957 0.58405
 C1194 C 0.49234 0.64759 0.59640
 C1195 C 0.50131 0.70058 0.59432
 C1196 C 0.50618 0.61551 0.55594
 H1197 H 0.52347 0.68697 0.54102
 H1198 H 0.52630 0.63791 0.51894
 H1199 H 0.48554 0.60116 0.59646
 H1200 H 0.48288 0.65022 0.61806
 C1201 C -0.00339 0.67040 0.41839
 C1202 C 0.00729 0.64619 0.40279
 C1203 C 0.00569 0.61805 0.41489
 C1204 C -0.00099 0.72241 0.39273
 C1205 C -0.01767 0.63820 0.45825
 C1206 C -0.01605 0.66635 0.44606
 C1207 C -0.00200 0.69913 0.40531
 C1208 C -0.00668 0.61370 0.44286
 H1209 H 0.01693 0.64906 0.38123
 H1210 H 0.01440 0.59979 0.40241
 H1211 H -0.02728 0.63570 0.47984
 H1212 H -0.02459 0.68492 0.45823
 C1213 C 0.49632 1.16884 -0.08117
 C1214 C 0.50722 1.14467 -0.09668
 C1215 C 0.50594 1.11659 -0.08444
 C1216 C 0.49794 1.22063 -0.10725
 C1217 C 0.48252 1.13670 -0.04109
 C1218 C 0.48381 1.16481 -0.05343
 C1219 C 0.49728 1.19747 -0.09445
 C1220 C 0.49370 1.11225 -0.05642
 H1221 H 0.51674 1.14753 -0.11829
 H1222 H 0.51479 1.09836 -0.09687
 H1223 H 0.47299 1.13420 -0.01946
 H1224 H 0.47510 1.18335 -0.04134
 C1225 C 0.50000 0.32566 -0.08108
 C1226 C 0.51335 0.32979 -0.05374
 C1227 C 0.51517 0.35795 -0.04158
 C1228 C 0.49826 0.27387 -0.10722
 C1229 C 0.49044 0.37794 -0.08423
 C1230 C 0.48863 0.34980 -0.09629
 C1231 C 0.49890 0.29703 -0.09439
 C1232 C 0.50371 0.38239 -0.05669
 H1233 H 0.52243 0.31128 -0.04188
 H1234 H 0.52548 0.36054 -0.02032
 H1235 H 0.48132 0.39616 -0.09646
 H1236 H 0.47844 0.34687 -0.11758
 C1237 C 0.00307 -0.17257 0.41938
 C1238 C 0.01590 -0.16864 0.44701
 C1239 C 0.01765 -0.14052 0.45933
 C1240 C 0.00039 -0.22431 0.39320
 C1241 C -0.00590 -0.12020 0.41617
 C1242 C -0.00762 -0.14827 0.40396
 C1243 C 0.00153 -0.20120 0.40610
 C1244 C 0.00661 -0.11596 0.44410
 H1245 H 0.02447 -0.18727 0.45904
 H1246 H 0.02735 -0.13810 0.48089
 H1247 H -0.01466 -0.10189 0.40382
 H1248 H -0.01738 -0.15103 0.38244
 C1249 C 0.49914 -0.17144 0.58031
 C1250 C 0.51142 -0.14748 0.59510
 C1251 C 0.50987 -0.11937 0.58297
 C1252 C 0.50016 -0.22304 0.60678
 C1253 C 0.48363 -0.13907 0.54106
 C1254 C 0.48520 -0.16720 0.55330
 C1255 C 0.49984 -0.19998 0.59379
 C1256 C 0.49595 -0.11478 0.55578
 H1257 H 0.52207 -0.15050 0.61615
 H1258 H 0.51964 -0.10126 0.59489
 H1259 H 0.47279 -0.13638 0.52008
 H1260 H 0.47541 -0.18558 0.54178
 C1261 C -0.00097 0.32970 1.08030
 C1262 C 0.01078 0.35374 1.09537
 C1263 C 0.00948 0.38180 1.08312
 C1264 C -0.00017 0.27820 1.10690
 C1265 C -0.01547 0.36188 1.04052
 C1266 C -0.01416 0.33380 1.05289
 C1267 C -0.00043 0.30121 1.09385
 C1268 C -0.00366 0.38624 1.05552
 H1269 H 0.02086 0.35082 1.11672
 H1270 H 0.01886 0.39997 1.09526
 H1271 H -0.02570 0.36448 1.01923
 H1272 H -0.02352 0.31535 1.04115
 C1273 C 0.75432 0.33126 0.07938
 C1274 C 0.76675 0.30346 0.08333
 C1275 C 0.76818 0.29110 0.11142
 C1276 C 0.75202 0.35710 0.02748
 C1277 C 0.74506 0.33455 0.13168
 C1278 C 0.74365 0.34681 0.10362
 C1279 C 0.75302 0.34446 0.05072
 C1280 C 0.75720 0.30646 0.13594
 H1281 H 0.77526 0.29131 0.06474
 H1282 H 0.77762 0.26942 0.11386
 H1283 H 0.73636 0.34700 0.14997
 H1284 H 0.73416 0.36844 0.10082
 C1285 C 0.25354 0.83201 0.57950
 C1286 C 0.24270 0.84753 0.60369
 C1287 C 0.24459 0.83556 0.63183
 C1288 C 0.25055 0.85734 0.52742
 C1289 C 0.26861 0.79250 0.61177
 C1290 C 0.26669 0.80457 0.58360
 C1291 C 0.25179 0.84493 0.55076
 C1292 C 0.25740 0.80779 0.63623
 H1293 H 0.23269 0.86891 0.60077
 H1294 H 0.23569 0.84793 0.65007
 H1295 H 0.27856 0.77106 0.61431
 H1296 H 0.27537 0.79248 0.56505
 C1297 C 0.74912 0.66981 0.57789
 C1298 C 0.76022 0.65443 0.60203
 C1299 C 0.75869 0.66660 0.63011
 C1300 C 0.75018 0.64335 0.52630
 C1301 C 0.73481 0.70972 0.61006
 C1302 C 0.73635 0.69744 0.58194
 C1303 C 0.74986 0.65634 0.54935
 C1304 C 0.74597 0.69442 0.63451
 H1305 H 0.76996 0.63292 0.59916
 H1306 H 0.76757 0.65421 0.64834
 H1307 H 0.72493 0.73120 0.61260
 H1308 H 0.72748 0.70943 0.56342
 C1309 C 0.24955 0.16906 0.07697
 C1310 C 0.26031 0.15359 0.10121
 C1311 C 0.25866 0.16576 0.12931
 C1312 C 0.25116 0.14289 0.02518
 C1313 C 0.23528 0.20906 0.10908
 C1314 C 0.23694 0.19679 0.08096
 C1315 C 0.25057 0.15571 0.04835
 C1316 C 0.24615 0.19369 0.13362
 H1317 H 0.26993 0.13201 0.09840
 H1318 H 0.26732 0.15331 0.14760
 H1319 H 0.22556 0.23062 0.11155
 H1320 H 0.22835 0.20887 0.06238
 C1321 C 0.25320 0.16939 0.92027
 C1322 C 0.26565 0.19720 0.91635
 C1323 C 0.26694 0.20966 0.88830
 C1324 C 0.25151 0.14306 0.97194
 C1325 C 0.24362 0.16632 0.86802
 C1326 C 0.24234 0.15396 0.89603
 C1327 C 0.25221 0.15597 0.94884
 C1328 C 0.25582 0.19440 0.86378
 H1329 H 0.27432 0.20924 0.93494
 H1330 H 0.27643 0.23133 0.88589
 H1331 H 0.23480 0.15394 0.84973
 H1332 H 0.23285 0.13231 0.89879
 C1333 C 0.75069 0.66939 0.42148
 C1334 C 0.76330 0.69711 0.41748
 C1335 C 0.76476 0.70942 0.38938
 C1336 C 0.74962 0.64311 0.47316
 C1337 C 0.74113 0.66616 0.36925
 C1338 C 0.73968 0.65395 0.39732
 C1339 C 0.74996 0.65597 0.45004
 C1340 C 0.75367 0.69407 0.36491
 H1341 H 0.77208 0.70914 0.43602
 H1342 H 0.77451 0.73096 0.38688
 H1343 H 0.73231 0.65374 0.35100
 H1344 H 0.73006 0.63238 0.40017
 C1345 C 0.24946 0.82925 0.42289
 C1346 C 0.26196 0.84388 0.39897
 C1347 C 0.26057 0.83161 0.37093
 C1348 C 0.25012 0.85623 0.47424
 C1349 C 0.23409 0.78983 0.39059
 C1350 C 0.23548 0.80222 0.41867
 C1351 C 0.24994 0.84297 0.45133
 C1352 C 0.24659 0.80443 0.36634
 H1353 H 0.27264 0.86494 0.40198
 H1354 H 0.27049 0.84345 0.35286
 H1355 H 0.22320 0.76886 0.38789
 H1356 H 0.22553 0.79082 0.43701
 C1357 C 0.74947 0.32959 0.92282
 C1358 C 0.73564 0.30243 0.91885
 C1359 C 0.73384 0.29000 0.89079
 C1360 C 0.75114 0.35642 0.97426
 C1361 C 0.75955 0.33201 0.87063
 C1362 C 0.76135 0.34432 0.89864
 C1363 C 0.75050 0.34326 0.95128
 C1364 C 0.74578 0.30467 0.86631
 H1365 H 0.72616 0.29094 0.93738
 H1366 H 0.72312 0.26892 0.88832
 H1367 H 0.76905 0.34392 0.85238
 H1368 H 0.77191 0.36547 0.90143
 C1369 C 0.83191 0.42114 0.24743
 C1370 C 0.80421 0.41705 0.23485
 C1371 C 0.79196 0.38890 0.23336
 C1372 C 0.85753 0.47321 0.24952
 C1373 C 0.83534 0.36884 0.25674
 C1374 C 0.84749 0.39697 0.25820
 C1375 C 0.84502 0.44987 0.24867
 C1376 C 0.80734 0.36444 0.24444
 H1377 H 0.79205 0.43559 0.22624
 H1378 H 0.77035 0.38638 0.22379
 H1379 H 0.84780 0.35060 0.26551
 H1380 H 0.86906 0.39987 0.26779
 C1381 C 0.33131 0.92289 0.74802
 C1382 C 0.34688 0.89863 0.75862
 C1383 C 0.33476 0.87051 0.75688
 C1384 C 0.35712 0.97485 0.75046
 C1385 C 0.29143 0.89073 0.73357
 C1386 C 0.30364 0.91888 0.73533
 C1387 C 0.34445 0.95160 0.74947
 C1388 C 0.30680 0.86619 0.74446
 H1389 H 0.36843 0.90147 0.76828
 H1390 H 0.34721 0.85221 0.76554
 H1391 H 0.26984 0.88826 0.72392
 H1392 H 0.29150 0.93749 0.72684
 C1393 C 0.16997 0.92152 0.25207
 C1394 C 0.15485 0.89744 0.24045
 C1395 C 0.16706 0.86937 0.24188
 C1396 C 0.14347 0.97310 0.25103
 C1397 C 0.20970 0.88932 0.26673
 C1398 C 0.19738 0.91743 0.26528
 C1399 C 0.15647 0.95005 0.25138
 C1400 C 0.19466 0.86493 0.25503
 H1401 H 0.13351 0.90036 0.23036
 H1402 H 0.15488 0.85118 0.23259
 H1403 H 0.23100 0.88673 0.27695
 H1404 H 0.20916 0.93590 0.27455
 C1405 C 0.66878 0.42118 0.75067
 C1406 C 0.65350 0.39701 0.73945
 C1407 C 0.66556 0.36888 0.74129
 C1408 C 0.64285 0.47305 0.74888
 C1409 C 0.70833 0.38897 0.76578
 C1410 C 0.69617 0.41712 0.76392
 C1411 C 0.65553 0.44982 0.74952
 C1412 C 0.69316 0.36449 0.75446
 H1413 H 0.63217 0.39989 0.72933
 H1414 H 0.65328 0.35062 0.73227
 H1415 H 0.72964 0.38644 0.77601
 H1416 H 0.70808 0.43567 0.77289
 C1417 C 0.67025 0.57771 0.74884
 C1418 C 0.65555 0.60160 0.76134
 C1419 C 0.66779 0.62968 0.76004
 C1420 C 0.64348 0.52624 0.74932
 C1421 C 0.70966 0.61011 0.73365
 C1422 C 0.69731 0.58200 0.73495
 C1423 C 0.65661 0.54923 0.74923
 C1424 C 0.69500 0.63432 0.74616
 H1425 H 0.63448 0.59855 0.77195
 H1426 H 0.65591 0.64773 0.76997
 H1427 H 0.73064 0.61285 0.72284
 H1428 H 0.70876 0.56368 0.72500
 C1429 C 0.16983 0.07785 0.24981
 C1430 C 0.15509 0.10203 0.26169
 C1431 C 0.16738 0.13006 0.25987
 C1432 C 0.14326 0.02627 0.25133
 C1433 C 0.20937 0.10989 0.23415
 C1434 C 0.19697 0.08182 0.23598
 C1435 C 0.15623 0.04936 0.25081
 C1436 C 0.19470 0.13438 0.24608
 H1437 H 0.13395 0.09923 0.27225
 H1438 H 0.15547 0.14832 0.26936
 H1439 H 0.23044 0.11237 0.22343
 H1440 H 0.20847 0.06328 0.22650
 C1441 C 0.33066 0.07991 0.75280
 C1442 C 0.34613 0.10408 0.74182
 C1443 C 0.33389 0.13216 0.74310
 C1444 C 0.35683 0.02814 0.75120
 C1445 C 0.29061 0.11208 0.76669
 C1446 C 0.30295 0.08397 0.76539
 C1447 C 0.34397 0.05128 0.75185
 C1448 C 0.30590 0.13652 0.75544
 H1449 H 0.36771 0.10121 0.73223
 H1450 H 0.34628 0.15039 0.73420
 H1451 H 0.26901 0.11459 0.77630
 H1452 H 0.29089 0.06544 0.77417
 C1453 C 0.82966 0.57786 0.25032
 C1454 C 0.84437 0.60180 0.23793
 C1455 C 0.83212 0.62987 0.23930
 C1456 C 0.85651 0.52644 0.24965
 C1457 C 0.79023 0.61017 0.26556
 C1458 C 0.80259 0.58207 0.26418
 C1459 C 0.84332 0.54939 0.24985
 C1460 C 0.80488 0.63444 0.25315
 H1461 H 0.86546 0.59881 0.22734
 H1462 H 0.84399 0.64796 0.22945
 H1463 H 0.76922 0.61284 0.27635
 H1464 H 0.79113 0.56371 0.27406
 C1465 C 0.92132 0.25477 0.16936
 C1466 C 0.89708 0.24390 0.15394
 C1467 C 0.86905 0.24534 0.16624
 C1468 C 0.97304 0.25244 0.14321
 C1469 C 0.88931 0.26892 0.20944
 C1470 C 0.91738 0.26746 0.19704
 C1471 C 0.94991 0.25345 0.15605
 C1472 C 0.86480 0.25771 0.19423
 H1473 H 0.89987 0.23423 0.13239
 H1474 H 0.85077 0.23646 0.15390
 H1475 H 0.88687 0.27854 0.23104
 H1476 H 0.93598 0.27614 0.20906
 C1477 C 0.42119 0.75357 0.66860
 C1478 C 0.39681 0.74329 0.65301
 C1479 C 0.36875 0.74509 0.66524
 C1480 C 0.47308 0.75097 0.64273
 C1481 C 0.38928 0.76785 0.70874
 C1482 C 0.41737 0.76603 0.69642
 C1483 C 0.44984 0.75201 0.65538
 C1484 C 0.36462 0.75725 0.69335
 H1485 H 0.39949 0.73382 0.63135
 H1486 H 0.35035 0.73669 0.65275
 H1487 H 0.38696 0.77728 0.73044
 H1488 H 0.43608 0.77426 0.70858
 C1489 C 0.41993 0.24548 0.83033
 C1490 C 0.39583 0.25677 0.84564
 C1491 C 0.36778 0.25559 0.83334
 C1492 C 0.47163 0.24704 0.85658
 C1493 C 0.38777 0.23144 0.79033
 C1494 C 0.41585 0.23264 0.80274
 C1495 C 0.44852 0.24640 0.84369
 C1496 C 0.36339 0.24304 0.80545
 H1497 H 0.39873 0.26655 0.86713
 H1498 H 0.34961 0.26478 0.84561
 H1499 H 0.38522 0.22167 0.76881
 H1500 H 0.43434 0.22362 0.79080
 C1501 C 0.92148 0.74886 0.33036
 C1502 C 0.89737 0.76046 0.34543
 C1503 C 0.86932 0.75904 0.33314
 C1504 C 0.97307 0.74966 0.35688
 C1505 C 0.88937 0.73429 0.29050
 C1506 C 0.91744 0.73571 0.30290
 C1507 C 0.94999 0.74946 0.34392
 C1508 C 0.86494 0.74594 0.30550
 H1509 H 0.90023 0.77049 0.36681
 H1510 H 0.85111 0.76831 0.34529
 H1511 H 0.88683 0.72410 0.26918
 H1512 H 0.93592 0.72646 0.29115
 C1513 C 0.07797 0.75029 0.33067
 C1514 C 0.08209 0.76309 0.30307
 C1515 C 0.11024 0.76466 0.29089
 C1516 C 0.02624 0.74904 0.35687
 C1517 C 0.13021 0.74076 0.33403
 C1518 C 0.10208 0.73921 0.34611
 C1519 C 0.04937 0.74946 0.34400
 C1520 C 0.13467 0.75349 0.30624
 H1521 H 0.06359 0.77194 0.29104
 H1522 H 0.11284 0.77455 0.26943
 H1523 H 0.14841 0.73188 0.34645
 H1524 H 0.09915 0.72945 0.36760
 C1525 C 0.57673 0.24925 0.83089
 C1526 C 0.58082 0.26197 0.80326
 C1527 C 0.60900 0.26375 0.79115
 C1528 C 0.52486 0.24744 0.85679
 C1529 C 0.62906 0.24026 0.83447
 C1530 C 0.60091 0.23849 0.84647
 C1531 C 0.54806 0.24812 0.84407
 C1532 C 0.63349 0.25287 0.80662
 H1533 H 0.56228 0.27057 0.79111
 H1534 H 0.61156 0.27355 0.76966
 H1535 H 0.64732 0.23159 0.84698
 H1536 H 0.59800 0.22879 0.86798
 C1537 C 0.57788 0.74908 0.66993
 C1538 C 0.60196 0.76069 0.65482
 C1539 C 0.63005 0.75913 0.66697
 C1540 C 0.52631 0.75042 0.64342
 C1541 C 0.61012 0.73419 0.70954
 C1542 C 0.58199 0.73575 0.69728
 C1543 C 0.54933 0.74991 0.65647
 C1544 C 0.63451 0.74588 0.69451
 H1545 H 0.59904 0.77086 0.63353
 H1546 H 0.64823 0.76843 0.65480
 H1547 H 0.61272 0.72389 0.73080
 H1548 H 0.56352 0.72649 0.70906
 C1549 C 0.07803 0.24965 0.16920
 C1550 C 0.10214 0.26094 0.15387
 C1551 C 0.13028 0.25917 0.16587
 C1552 C 0.02624 0.25149 0.14320
 C1553 C 0.11035 0.23463 0.20867
 C1554 C 0.08217 0.23641 0.19657
 C1555 C 0.04940 0.25077 0.15598
 C1556 C 0.13476 0.24603 0.19345
 H1557 H 0.09918 0.27105 0.13255
 H1558 H 0.14849 0.26824 0.15356
 H1559 H 0.11295 0.22442 0.22997
 H1560 H 0.06368 0.22740 0.20851
 C1561 C -0.07999 0.99730 0.82946
 C1562 C -0.09545 1.00754 0.85392
 C1563 C -0.08306 1.00577 0.88188
 C1564 C -0.10649 0.99960 0.77788
 C1565 C -0.03961 0.98313 0.86113
 C1566 C -0.05212 0.98492 0.83311
 C1567 C -0.09352 0.99873 0.80095
 C1568 C -0.05490 0.99367 0.88587
 H1569 H -0.11715 1.01695 0.85138
 H1570 H -0.09549 1.01415 0.90033
 H1571 H -0.01788 0.97374 0.86336
 H1572 H -0.04006 0.97669 0.81434
 C1573 C 0.42042 0.49892 0.32685
 C1574 C 0.44768 0.48539 0.33097
 C1575 C 0.46004 0.48391 0.35906
 C1576 C 0.39382 0.50001 0.27533
 C1577 C 0.41775 0.50938 0.37894
 C1578 C 0.40550 0.51084 0.35089
 C1579 C 0.40685 0.49965 0.29836
 C1580 C 0.44519 0.49591 0.38341
 H1581 H 0.45931 0.47588 0.31253
 H1582 H 0.48121 0.47344 0.36167
 H1583 H 0.40570 0.51891 0.39708
 H1584 H 0.38428 0.52118 0.34797
 C1585 C 0.58099 0.00388 0.32939
 C1586 C 0.55273 0.01541 0.33286
 C1587 C 0.54021 0.01737 0.36087
 C1588 C 0.60715 0.00070 0.27770
 C1589 C 0.58445 -0.00334 0.38197
 C1590 C 0.59685 -0.00527 0.35402
 C1591 C 0.59437 0.00201 0.30085
 C1592 C 0.55588 0.00782 0.38576
 H1593 H 0.54034 0.02277 0.31395
 H1594 H 0.51816 0.02600 0.36295
 H1595 H 0.59718 -0.01092 0.40055
 H1596 H 0.61884 -0.01402 0.35160
 C1597 C 0.08055 0.50549 0.82837
 C1598 C 0.05253 0.51757 0.83197
 C1599 C 0.04006 0.51947 0.86000
 C1600 C 0.10684 0.50239 0.77676
 C1601 C 0.08385 0.49759 0.88084
 C1602 C 0.09620 0.49571 0.85288
 C1603 C 0.09395 0.50371 0.79984
 C1604 C 0.05553 0.50933 0.88478
 H1605 H 0.04031 0.52542 0.81314
 H1606 H 0.01821 0.52857 0.86220
 H1607 H 0.09643 0.48954 0.89933
 H1608 H 0.11801 0.48654 0.85036
 C1609 C 0.07951 0.49910 0.67233
 C1610 C 0.05183 0.48627 0.66869
 C1611 C 0.03929 0.48439 0.64068
 C1612 C 0.10644 0.50124 0.72366
 C1613 C 0.08228 0.50799 0.61999
 C1614 C 0.09469 0.50986 0.64793
 C1615 C 0.09323 0.50038 0.70074
 C1616 C 0.05440 0.49526 0.61598
 H1617 H 0.03998 0.47768 0.68743
 H1618 H 0.01778 0.47453 0.63842
 H1619 H 0.09455 0.51665 0.60157
 H1620 H 0.11623 0.51964 0.65048
 C1621 C 0.57947 0.99788 0.17326
 C1622 C 0.59465 1.00885 0.14895
 C1623 C 0.58242 1.00686 0.12095
 C1624 C 0.60636 0.99990 0.22460
 C1625 C 0.53959 0.98274 0.14139
 C1626 C 0.55196 0.98473 0.16946
 C1627 C 0.59311 0.99913 0.20170
 C1628 C 0.55471 0.99381 0.11678
 H1629 H 0.61607 1.01886 0.15163
 H1630 H 0.59468 1.01570 0.10261
 H1631 H 0.51821 0.97263 0.13899
 H1632 H 0.54013 0.97594 0.18812
 C1633 C 0.42026 0.50212 0.17063
 C1634 C 0.40474 0.49178 0.14624
 C1635 C 0.41709 0.49344 0.11826
 C1636 C 0.39379 0.49995 0.22220
 C1637 C 0.46061 0.51615 0.13885
 C1638 C 0.44814 0.51447 0.16689
 C1639 C 0.40677 0.50080 0.19914
 C1640 C 0.44525 0.50551 0.11418
 H1641 H 0.38303 0.48240 0.14886
 H1642 H 0.40462 0.48499 0.09986
 H1643 H 0.48233 0.52552 0.13655
 H1644 H 0.46024 0.52277 0.18561
 C1645 C -0.07975 0.00021 0.67314
 C1646 C -0.09517 -0.01078 0.64898
 C1647 C -0.08294 -0.00940 0.62091
 C1648 C -0.10632 -0.00064 0.72471
 C1649 C -0.03962 0.01408 0.64103
 C1650 C -0.05196 0.01270 0.66914
 C1651 C -0.09329 -0.00039 0.70167
 C1652 C -0.05499 0.00305 0.61655
 H1653 H -0.11679 -0.02031 0.65181
 H1654 H -0.09540 -0.01816 0.60267
 H1655 H -0.01805 0.02378 0.63851
 H1656 H -0.03992 0.02147 0.68768
 C1657 C -0.17085 0.91941 0.99790
 C1658 C -0.16719 0.94728 0.98547
 C1659 C -0.13918 0.95987 0.98382
 C1660 C -0.22237 0.89272 0.99985
 C1661 C -0.11847 0.91654 1.00672
 C1662 C -0.14642 0.90406 1.00835
 C1663 C -0.19933 0.90578 0.99913
 C1664 C -0.11447 0.94467 0.99454
 H1665 H -0.18594 0.95926 0.97709
 H1666 H -0.13694 0.98157 0.97438
 H1667 H -0.10004 0.90419 1.01523
 H1668 H -0.14897 0.88238 1.01779
 C1669 C 0.32738 0.42063 0.49758
 C1670 C 0.33120 0.44821 0.48457
 C1671 C 0.35921 0.46081 0.48311
 C1672 C 0.27614 0.39345 0.49874
 C1673 C 0.37955 0.41812 0.50752
 C1674 C 0.35161 0.40565 0.50898
 C1675 C 0.29901 0.40679 0.49832
 C1676 C 0.38375 0.44588 0.49458
 H1677 H 0.31260 0.45989 0.47548
 H1678 H 0.36162 0.48221 0.47306
 H1679 H 0.39784 0.40600 0.51664
 H1680 H 0.34892 0.38420 0.51890
 C1681 C 0.32906 0.57974 0.00253
 C1682 C 0.35351 0.59508 -0.00791
 C1683 C 0.38144 0.58259 -0.00633
 C1684 C 0.27769 0.60667 0.00056
 C1685 C 0.36068 0.53922 0.01650
 C1686 C 0.33269 0.55184 0.01490
 C1687 C 0.30061 0.59343 0.00133
 C1688 C 0.38541 0.55443 0.00578
 H1689 H 0.35099 0.61679 -0.01731
 H1690 H 0.39988 0.59495 -0.01483
 H1691 H 0.36290 0.51750 0.02589
 H1692 H 0.31393 0.53986 0.02328
 C1693 C -0.17278 0.07886 0.50189
 C1694 C -0.14857 0.09357 0.49007
 C1695 C -0.12064 0.08109 0.49167
 C1696 C -0.22397 0.10611 0.50047
 C1697 C -0.14096 0.03896 0.51706
 C1698 C -0.16896 0.05156 0.51545
 C1699 C -0.20113 0.09274 0.50101
 C1700 C -0.11644 0.05362 0.50518
 H1701 H -0.15125 0.11481 0.47971
 H1702 H -0.10237 0.09301 0.48222
 H1703 H -0.13855 0.01777 0.52756
 H1704 H -0.18754 0.04010 0.52488
 C1705 C 0.67117 0.08081 0.49667
 C1706 C 0.64670 0.09647 0.50659
 C1707 C 0.61871 0.08412 0.50479
 C1708 C 0.72292 0.10693 0.49968
 C1709 C 0.63945 0.04036 0.48272
 C1710 C 0.66751 0.05281 0.48455
 C1711 C 0.69975 0.09416 0.49840
 C1712 C 0.61471 0.05582 0.49299
 H1713 H 0.64927 0.11825 0.51581
 H1714 H 0.60025 0.09669 0.51294
 H1715 H 0.63721 0.01852 0.47357
 H1716 H 0.68630 0.04059 0.47660
 C1717 C 0.17243 0.58189 0.99710
 C1718 C 0.14821 0.59753 1.00766
 C1719 C 0.12006 0.58551 1.00585
 C1720 C 0.22446 0.60750 0.99982
 C1721 C 0.14016 0.54211 0.98251
 C1722 C 0.16835 0.55423 0.98434
 C1723 C 0.20117 0.59493 0.99869
 C1724 C 0.11567 0.55756 0.99339
 H1725 H 0.15109 0.61907 1.01737
 H1726 H 0.10180 0.59804 1.01449
 H1727 H 0.13763 0.52053 0.97284
 H1728 H 0.18693 0.54203 0.97589
 C1729 C 0.17151 0.41939 0.50031
 C1730 C 0.16788 0.44735 0.51254
 C1731 C 0.13986 0.45987 0.51430
 C1732 C 0.22306 0.39280 0.49857
 C1733 C 0.11909 0.41633 0.49177
 C1734 C 0.14706 0.40393 0.49001
 C1735 C 0.19998 0.40576 0.49920
 C1736 C 0.11510 0.44448 0.50392
 H1737 H 0.18665 0.45942 0.52077
 H1738 H 0.13762 0.48158 0.52373
 H1739 H 0.10063 0.40384 0.48351
 H1740 H 0.14960 0.38219 0.48070
 C1741 C 0.67283 0.91916 0.00090
 C1742 C 0.66888 0.94691 0.01349
 C1743 C 0.64074 0.95914 0.01526
 C1744 C 0.72446 0.89273 -0.00048
 C1745 C 0.62048 0.91576 -0.00800
 C1746 C 0.64858 0.90364 -0.00977
 C1747 C 0.70139 0.90570 -0.00004
 C1748 C 0.61618 0.94368 0.00453
 H1749 H 0.68749 0.95901 0.02204
 H1750 H 0.63826 0.98069 0.02500
 H1751 H 0.60217 0.90323 -0.01655
 H1752 H 0.65136 0.88203 -0.01935
 C1753 C -0.00330 0.82975 0.91979
 C1754 C 0.00612 0.85429 0.90394
 C1755 C 0.00432 0.88229 0.91629
 C1756 C -0.00058 0.77816 0.89337
 C1757 C -0.01675 0.86137 0.96045
 C1758 C -0.01494 0.83332 0.94799
 C1759 C -0.00169 0.80120 0.90637
 C1760 C -0.00697 0.88620 0.94478
 H1761 H 0.01494 0.85179 0.88200
 H1762 H 0.01209 0.90081 0.90357
 H1763 H -0.02549 0.86355 0.98245
 H1764 H -0.02251 0.81447 0.96035
 C1765 C 0.49879 0.32823 0.42011
 C1766 C 0.48623 0.33213 0.44787
 C1767 C 0.48472 0.36022 0.46027
 C1768 C 0.49988 0.27679 0.39332
 C1769 C 0.50822 0.38050 0.41704
 C1770 C 0.50972 0.35246 0.40476
 C1771 C 0.49951 0.29976 0.40648
 C1772 C 0.49570 0.38477 0.44496
 H1773 H 0.47750 0.31353 0.45984
 H1774 H 0.47498 0.36268 0.48181
 H1775 H 0.51694 0.39880 0.40463
 H1776 H 0.51930 0.34970 0.38316
 C1777 C -0.00017 0.32731 0.58032
 C1778 C -0.01154 0.35163 0.59520
 C1779 C -0.00971 0.37958 0.58279
 C1780 C -0.00194 0.27589 0.60713
 C1781 C 0.01505 0.35906 0.54039
 C1782 C 0.01321 0.33105 0.55292
 C1783 C -0.00130 0.29889 0.59405
 C1784 C 0.00359 0.38368 0.55520
 H1785 H -0.02175 0.34900 0.61653
 H1786 H -0.01884 0.39794 0.59482
 H1787 H 0.02537 0.36139 0.51911
 H1788 H 0.02229 0.31238 0.54132
 C1789 C 0.50062 0.82539 0.07991
 C1790 C 0.48891 0.84955 0.09479
 C1791 C 0.49077 0.87760 0.08259
 C1792 C 0.49915 0.77394 0.10669
 C1793 C 0.51622 0.85749 0.04040
 C1794 C 0.51436 0.82939 0.05272
 C1795 C 0.49963 0.79691 0.09354
 C1796 C 0.50444 0.88196 0.05523
 H1797 H 0.47845 0.84673 0.11597
 H1798 H 0.48139 0.89583 0.09462
 H1799 H 0.52683 0.86001 0.01929
 H1800 H 0.52372 0.81085 0.04113
 C1801 C 0.49666 0.66915 0.08072
 C1802 C 0.50614 0.64455 0.09644
 C1803 C 0.50439 0.61661 0.08397
 C1804 C 0.49921 0.72078 0.10713
 C1805 C 0.48325 0.63765 0.03992
 C1806 C 0.48502 0.66565 0.05251
 C1807 C 0.49821 0.69767 0.09423
 C1808 C 0.49308 0.61278 0.05546
 H1809 H 0.51496 0.64698 0.11840
 H1810 H 0.51220 0.59804 0.09660
 H1811 H 0.47450 0.63555 0.01792
 H1812 H 0.47740 0.68453 0.04023
 C1813 C -0.00259 0.17136 0.58012
 C1814 C 0.00893 0.14724 0.59521
 C1815 C 0.00756 0.11922 0.58289
 C1816 C -0.00163 0.22279 0.60692
 C1817 C -0.01697 0.13928 0.54015
 C1818 C -0.01560 0.16736 0.55260
 C1819 C -0.00195 0.19981 0.59378
 C1820 C -0.00540 0.11486 0.55518
 H1821 H 0.01886 0.15008 0.61664
 H1822 H 0.01676 0.10101 0.59508
 H1823 H -0.02705 0.13674 0.51877
 H1824 H -0.02478 0.18587 0.54083
 C1825 C 0.50257 0.17200 0.41913
 C1826 C 0.49242 0.14752 0.40362
 C1827 C 0.49418 0.11955 0.41600
 C1828 C 0.50005 0.22364 0.39280
 C1829 C 0.51664 0.14033 0.45954
 C1830 C 0.51486 0.16836 0.44705
 C1831 C 0.50106 0.20053 0.40567
 C1832 C 0.50617 0.11558 0.44420
 H1833 H 0.48308 0.15006 0.38190
 H1834 H 0.48587 0.10108 0.40354
 H1835 H 0.52594 0.13811 0.48130
 H1836 H 0.52300 0.18715 0.45915
 C1837 C 0.00376 0.67323 0.91909
 C1838 C 0.01543 0.66965 0.94727
 C1839 C 0.01740 0.64158 0.95965
 C1840 C 0.00062 0.72498 0.89300
 C1841 C -0.00359 0.62065 0.91545
 C1842 C -0.00553 0.64866 0.90318
 C1843 C 0.00192 0.70183 0.90580
 C1844 C 0.00773 0.61673 0.94393
 H1845 H 0.02290 0.68851 0.95969
 H1846 H 0.02614 0.63940 0.98164
 H1847 H -0.01127 0.60212 0.90269
 H1848 H -0.01438 0.65117 0.88125
 C1849 C 0.24999 0.67095 0.92299
 C1850 C 0.23696 0.69854 0.91935
 C1851 C 0.23516 0.71116 0.89138
 C1852 C 0.25155 0.64369 0.97416
 C1853 C 0.25927 0.66845 0.87069
 C1854 C 0.26106 0.65597 0.89860
 C1855 C 0.25101 0.65706 0.95132
 C1856 C 0.24630 0.69622 0.86669
 H1857 H 0.22810 0.71023 0.93808
 H1858 H 0.22511 0.73258 0.88912
 H1859 H 0.26815 0.65632 0.85228
 H1860 H 0.27099 0.63450 0.90113
 C1861 C 0.74906 0.17044 0.42301
 C1862 C 0.73650 0.19822 0.41921
 C1863 C 0.73500 0.21073 0.39117
 C1864 C 0.75007 0.14329 0.47428
 C1865 C 0.75849 0.16756 0.37075
 C1866 C 0.75999 0.15518 0.39872
 C1867 C 0.74974 0.15664 0.45142
 C1868 C 0.74597 0.19551 0.36657
 H1869 H 0.72776 0.21013 0.43785
 H1870 H 0.72527 0.23229 0.38879
 H1871 H 0.76721 0.15520 0.35241
 H1872 H 0.76956 0.13356 0.40138
 C1873 C 0.25372 0.33047 0.42038
 C1874 C 0.24392 0.34604 0.39582
 C1875 C 0.24583 0.33361 0.36788
 C1876 C 0.25063 0.35692 0.47195
 C1877 C 0.26779 0.28991 0.38885
 C1878 C 0.26586 0.30246 0.41685
 C1879 C 0.25194 0.34396 0.44889
 C1880 C 0.25763 0.30530 0.36402
 H1881 H 0.23470 0.36784 0.39827
 H1882 H 0.23777 0.34611 0.34936
 H1883 H 0.27694 0.26807 0.38671
 H1884 H 0.27373 0.29031 0.43571
 C1885 C 0.75420 0.82986 0.92178
 C1886 C 0.74398 0.84540 0.89738
 C1887 C 0.74567 0.83304 0.86940
 C1888 C 0.75163 0.85637 0.97332
 C1889 C 0.76821 0.78947 0.89002
 C1890 C 0.76650 0.80195 0.91807
 C1891 C 0.75272 0.84333 0.95031
 C1892 C 0.75766 0.80485 0.86534
 H1893 H 0.73463 0.86712 0.89999
 H1894 H 0.73730 0.84554 0.85100
 H1895 H 0.77751 0.76772 0.88772
 H1896 H 0.77470 0.78982 0.93680
 C1897 C 0.74699 0.83021 0.07803
 C1898 C 0.75663 0.84584 0.10263
 C1899 C 0.75449 0.83347 0.13058
 C1900 C 0.75030 0.85660 0.02646
 C1901 C 0.73264 0.78973 0.10953
 C1902 C 0.73480 0.80221 0.08151
 C1903 C 0.74894 0.84367 0.04952
 C1904 C 0.74263 0.80518 0.13440
 H1905 H 0.76588 0.86763 0.10021
 H1906 H 0.76243 0.84603 0.14914
 H1907 H 0.72347 0.76790 0.11163
 H1908 H 0.72705 0.79002 0.06262
 C1909 C 0.24794 0.33017 0.57664
 C1910 C 0.23555 0.30231 0.58047
 C1911 C 0.23390 0.28992 0.60855
 C1912 C 0.24963 0.35678 0.52511
 C1913 C 0.25688 0.33338 0.62897
 C1914 C 0.25853 0.34565 0.60095
 C1915 C 0.24896 0.34372 0.54813
 C1916 C 0.24457 0.30533 0.63317
 H1917 H 0.22709 0.29023 0.56181
 H1918 H 0.22433 0.26829 0.61094
 H1919 H 0.26537 0.34589 0.64732
 H1920 H 0.26798 0.36732 0.59826
 C1921 C 0.75239 0.16807 0.57939
 C1922 C 0.74185 0.15250 0.60366
 C1923 C 0.74347 0.16472 0.63173
 C1924 C 0.75010 0.14222 0.52745
 C1925 C 0.76655 0.20818 0.61144
 C1926 C 0.76491 0.19585 0.58333
 C1927 C 0.75102 0.15484 0.55072
 C1928 C 0.75571 0.19279 0.63599
 H1929 H 0.73232 0.13088 0.60089
 H1930 H 0.73486 0.15225 0.65004
 H1931 H 0.77605 0.22984 0.61387
 H1932 H 0.77335 0.20800 0.56471
 C1933 C 0.25395 0.66892 0.07906
 C1934 C 0.24343 0.65333 0.10331
 C1935 C 0.24499 0.66554 0.13137
 C1936 C 0.25173 0.64291 0.02726
 C1937 C 0.26799 0.70907 0.11111
 C1938 C 0.26641 0.69674 0.08300
 C1939 C 0.25263 0.65565 0.05044
 C1940 C 0.25716 0.69364 0.13563
 H1941 H 0.23395 0.63168 0.10052
 H1942 H 0.23640 0.65303 0.14966
 H1943 H 0.27743 0.73075 0.11356
 H1944 H 0.27483 0.70890 0.06438
 C1945 C 0.17038 0.57917 0.75113
 C1946 C 0.15511 0.60359 0.74055
 C1947 C 0.16758 0.63153 0.74225
 C1948 C 0.14321 0.52792 0.74981
 C1949 C 0.21085 0.61078 0.76523
 C1950 C 0.19826 0.58278 0.76354
 C1951 C 0.15653 0.55080 0.75025
 C1952 C 0.19562 0.63552 0.75461
 H1953 H 0.13342 0.60106 0.73110
 H1954 H 0.15521 0.64997 0.73379
 H1955 H 0.23248 0.61303 0.77483
 H1956 H 0.21017 0.56402 0.77200
 C1957 C 0.67043 0.07764 0.25184
 C1958 C 0.65570 0.10178 0.23993
 C1959 C 0.66806 0.12977 0.24155
 C1960 C 0.64335 0.02634 0.25062
 C1961 C 0.71015 0.10966 0.26714
 C1962 C 0.69766 0.08161 0.26552
 C1963 C 0.65664 0.04924 0.25103
 C1964 C 0.69546 0.13411 0.25517
 H1965 H 0.63450 0.09899 0.22949
 H1966 H 0.65614 0.14799 0.23202
 H1967 H 0.73128 0.11217 0.27773
 H1968 H 0.70914 0.06309 0.27503
 C1969 C 0.83110 0.07804 0.74752
 C1970 C 0.80280 0.08140 0.73604
 C1971 C 0.79015 0.10937 0.73417
 C1972 C 0.85756 0.02644 0.75056
 C1973 C 0.83432 0.13066 0.75487
 C1974 C 0.84685 0.10275 0.75671
 C1975 C 0.84463 0.04953 0.74930
 C1976 C 0.80572 0.13434 0.74374
 H1977 H 0.79049 0.06243 0.72865
 H1978 H 0.76808 0.11136 0.72557
 H1979 H 0.84697 0.14930 0.76247
 H1980 H 0.86886 0.10043 0.76542
 C1981 C 0.33112 0.57792 0.24600
 C1982 C 0.34693 0.60234 0.25585
 C1983 C 0.33464 0.63037 0.25432
 C1984 C 0.35744 0.52627 0.24833
 C1985 C 0.29060 0.60975 0.23266
 C1986 C 0.30301 0.58167 0.23421
 C1987 C 0.34448 0.54934 0.24736
 C1988 C 0.30623 0.63444 0.24287
 H1989 H 0.36882 0.59971 0.26479
 H1990 H 0.34732 0.64878 0.26240
 H1991 H 0.26867 0.61205 0.22379
 H1992 H 0.29067 0.56292 0.22631
 C1993 C 0.33155 0.42130 0.25177
 C1994 C 0.34702 0.39690 0.24137
 C1995 C 0.33470 0.36888 0.24311
 C1996 C 0.35778 0.47305 0.24926
 C1997 C 0.29131 0.38945 0.26603
 C1998 C 0.30374 0.41752 0.26427
 C1999 C 0.34494 0.44989 0.25029
 C2000 C 0.30661 0.36478 0.25533
 H2001 H 0.36867 0.39954 0.23186
 H2002 H 0.34713 0.35047 0.23461
 H2003 H 0.26963 0.38714 0.27550
 H2004 H 0.29166 0.43624 0.27260
 C2005 C 0.83076 0.92163 0.75392
 C2006 C 0.84629 0.89732 0.74340
 C2007 C 0.83402 0.86928 0.74496
 C2008 C 0.85719 0.97325 0.75170
 C2009 C 0.79054 0.88965 0.76791
 C2010 C 0.80293 0.91775 0.76634
 C2011 C 0.84418 0.95020 0.75263
 C2012 C 0.80591 0.86507 0.75710
 H2013 H 0.86795 0.90004 0.73395
 H2014 H 0.84649 0.85095 0.73638
 H2015 H 0.76885 0.88724 0.77734
 H2016 H 0.79082 0.93641 0.77476
 C2017 C 0.66867 0.92142 0.24747
 C2018 C 0.65302 0.89693 0.25737
 C2019 C 0.66525 0.86890 0.25531
 C2020 C 0.64261 0.97319 0.25043
 C2021 C 0.70889 0.88965 0.23302
 C2022 C 0.69655 0.91774 0.23510
 C2023 C 0.65537 0.95001 0.24925
 C2024 C 0.69342 0.86489 0.24326
 H2025 H 0.63131 0.89950 0.26676
 H2026 H 0.65269 0.85043 0.26346
 H2027 H 0.73064 0.88740 0.22369
 H2028 H 0.70876 0.93654 0.22714
 C2029 C 0.16915 0.42326 0.74829
 C2030 C 0.15420 0.39904 0.75980
 C2031 C 0.16650 0.37103 0.75804
 C2032 C 0.14262 0.47483 0.75006
 C2033 C 0.20890 0.39128 0.73305
 C2034 C 0.19649 0.41935 0.73482
 C2035 C 0.15557 0.45175 0.74940
 C2036 C 0.19403 0.36676 0.74466
 H2037 H 0.13293 0.40180 0.77008
 H2038 H 0.15443 0.35275 0.76728
 H2039 H 0.23014 0.38883 0.72266
 H2040 H 0.20814 0.43793 0.72564
 C2041 C 0.07797 0.75056 0.83029
 C2042 C 0.08201 0.73694 0.80306
 C2043 C 0.11012 0.73516 0.79075
 C2044 C 0.02643 0.75198 0.85689
 C2045 C 0.13018 0.76047 0.83305
 C2046 C 0.10211 0.76225 0.84524
 C2047 C 0.04946 0.75151 0.84384
 C2048 C 0.13457 0.74692 0.80563
 H2049 H 0.06350 0.72760 0.79141
 H2050 H 0.11266 0.72463 0.76959
 H2051 H 0.14839 0.76984 0.84512
 H2052 H 0.09926 0.77263 0.86646
 C2053 C 0.57749 0.24879 0.32983
 C2054 C 0.60166 0.26008 0.34501
 C2055 C 0.62970 0.25847 0.33279
 C2056 C 0.52605 0.25031 0.35656
 C2057 C 0.60956 0.23409 0.28997
 C2058 C 0.58146 0.23571 0.30232
 C2059 C 0.54901 0.24972 0.34341
 C2060 C 0.63404 0.24547 0.30510
 H2061 H 0.59885 0.27006 0.36643
 H2062 H 0.64795 0.26753 0.34505
 H2063 H 0.61208 0.22399 0.26860
 H2064 H 0.56290 0.22669 0.29049
 C2065 C 0.57819 0.75199 0.16855
 C2066 C 0.60281 0.74296 0.15259
 C2067 C 0.63084 0.74526 0.16478
 C2068 C 0.52636 0.74831 0.14271
 C2069 C 0.60982 0.76611 0.20900
 C2070 C 0.58174 0.76379 0.19669
 C2071 C 0.54957 0.74981 0.15537
 C2072 C 0.63471 0.75668 0.19324
 H2073 H 0.60034 0.73403 0.13068
 H2074 H 0.64941 0.73775 0.15199
 H2075 H 0.61196 0.77492 0.23097
 H2076 H 0.56284 0.77107 0.20915
 C2077 C 0.07613 0.25175 0.66989
 C2078 C 0.08001 0.26467 0.69749
 C2079 C 0.10810 0.26642 0.70984
 C2080 C 0.02463 0.24970 0.64332
 C2081 C 0.12840 0.24252 0.66684
 C2082 C 0.10038 0.24078 0.65461
 C2083 C 0.04764 0.25056 0.65638
 C2084 C 0.13264 0.25533 0.69464
 H2085 H 0.06138 0.27343 0.70940
 H2086 H 0.11054 0.27636 0.73129
 H2087 H 0.14670 0.23369 0.65451
 H2088 H 0.09763 0.23092 0.63313
 C2089 C 0.92017 0.24553 0.66997
 C2090 C 0.91682 0.23366 0.69810
 C2091 C 0.88889 0.23178 0.71080
 C2092 C 0.97156 0.24853 0.64324
 C2093 C 0.86766 0.25329 0.66702
 C2094 C 0.89552 0.25514 0.65444
 C2095 C 0.94858 0.24727 0.65632
 C2096 C 0.86397 0.24175 0.69544
 H2097 H 0.93577 0.22595 0.71023
 H2098 H 0.88687 0.22284 0.73273
 H2099 H 0.84905 0.26119 0.65451
 H2100 H 0.89784 0.26416 0.63255
 C2101 C 0.42182 0.74503 0.17042
 C2102 C 0.41816 0.73267 0.19830
 C2103 C 0.39015 0.73107 0.21090
 C2104 C 0.47318 0.74720 0.14353
 C2105 C 0.36945 0.75388 0.16752
 C2106 C 0.39739 0.75546 0.15505
 C2107 C 0.45027 0.74631 0.15676
 C2108 C 0.36546 0.74179 0.19568
 H2109 H 0.43691 0.72431 0.21030
 H2110 H 0.38790 0.72169 0.23262
 H2111 H 0.35104 0.76238 0.15514
 H2112 H 0.39994 0.76485 0.13335
 C2113 C 0.42132 0.25380 0.33076
 C2114 C 0.41790 0.26516 0.30243
 C2115 C 0.38992 0.26690 0.28982
 C2116 C 0.47293 0.25098 0.35712
 C2117 C 0.36876 0.24633 0.33409
 C2118 C 0.39667 0.24461 0.34659
 C2119 C 0.44983 0.25214 0.34424
 C2120 C 0.36501 0.25732 0.30546
 H2121 H 0.43683 0.27254 0.29007
 H2122 H 0.38788 0.27540 0.26772
 H2123 H 0.35016 0.23874 0.34680
 H2124 H 0.39905 0.23600 0.36863
 C2125 C 0.92153 0.75400 0.83094
 C2126 C 0.91779 0.76592 0.80288
 C2127 C 0.88972 0.76763 0.79050
 C2128 C 0.97325 0.75176 0.85713
 C2129 C 0.86907 0.74585 0.83444
 C2130 C 0.89710 0.74416 0.84671
 C2131 C 0.95012 0.75261 0.84428
 C2132 C 0.86501 0.75745 0.80610
 H2133 H 0.93655 0.77383 0.79058
 H2134 H 0.88743 0.77661 0.76862
 H2135 H 0.85064 0.73777 0.84710
 H2136 H 0.89972 0.73512 0.86855
   
