data_POSCAR
  _audit_creation_date              2014-09-24
  _audit_creation_method            'ToBaCCo'
  _symmetry_space_group_name_H-M    'P1'
  _symmetry_Int_Tables_number       1
  _symmetry_cell_setting            triclinic
  loop_
  _symmetry_equiv_pos_as_xyz
 x,y,z
_cell_length_a 62.1829
_cell_length_b 65.5073
_cell_length_c 56.2988
_cell_angle_alpha 90.327200
_cell_angle_beta 90.063000
_cell_angle_gamma 90.118400
loop_
  _atom_site_label
  _atom_site_type_symbol
  _atom_site_fract_x
  _atom_site_fract_y
  _atom_site_fract_z
N1 N 0.36938 0.31981 0.32044
 N2 N 0.37410 0.33727 0.31024
 C3 C 0.39207 0.33508 0.29726
 C4 C 0.39911 0.31521 0.29933
 C5 C 0.38435 0.30586 0.31421
 H6 H 0.39926 0.34705 0.28676
 H7 H 0.38445 0.29014 0.31996
 Cu8 Cu 0.35628 0.36135 0.31357
 Cu9 Cu 0.34416 0.31697 0.34110
 Cu10 Cu 0.30807 0.35704 0.33934
 N11 N 0.33393 0.38152 0.30859
 N12 N 0.31477 0.37936 0.31807
 C13 C 0.30218 0.39493 0.31123
 C14 C 0.31416 0.40755 0.29679
 C15 C 0.33427 0.39865 0.29550
 H16 H 0.28561 0.39701 0.31650
 H17 H 0.34798 0.40402 0.28550
 N18 N 0.30411 0.33331 0.35990
 N19 N 0.31756 0.31775 0.36057
 C20 C 0.31069 0.30451 0.37726
 C21 C 0.29227 0.31242 0.38763
 C22 C 0.28862 0.33060 0.37619
 H23 H 0.31894 0.29066 0.38225
 H24 H 0.27585 0.34132 0.37988
 H25 H 0.32773 0.33692 0.32010
 H26 H 0.33917 0.34724 0.34861
 N27 N 0.37289 0.82151 -0.18483
 N28 N 0.37596 0.84001 -0.19306
 C29 C 0.39280 0.83993 -0.20802
 C30 C 0.40048 0.82021 -0.20951
 C31 C 0.38759 0.80888 -0.19441
 H32 H 0.39840 0.85314 -0.21768
 H33 H 0.38844 0.79265 -0.19112
 Cu34 Cu 0.35653 0.86215 -0.18537
 Cu35 Cu 0.34934 0.81589 -0.16320
 Cu36 Cu 0.30586 0.84597 -0.16766
 N37 N 0.33078 0.87899 -0.18822
 N38 N 0.31115 0.87255 -0.18333
 C39 C 0.29696 0.88657 -0.19118
 C40 C 0.30844 0.90235 -0.20164
 C41 C 0.32976 0.89709 -0.19912
 H42 H 0.27966 0.88506 -0.19006
 H43 H 0.34358 0.90509 -0.20607
 N44 N 0.30783 0.82438 -0.14364
 N45 N 0.32556 0.81365 -0.14115
 C46 C 0.32373 0.80150 -0.12214
 C47 C 0.30360 0.80432 -0.11247
 C48 C 0.29376 0.81883 -0.12658
 H49 H 0.33611 0.79128 -0.11585
 H50 H 0.27804 0.82552 -0.12399
 H51 H 0.33282 0.84095 -0.18922
 H52 H 0.33651 0.85091 -0.15838
 N53 N 0.87316 0.31936 -0.18609
 N54 N 0.87373 0.33616 -0.19870
 C55 C 0.88880 0.33439 -0.21567
 C56 C 0.89821 0.31541 -0.21369
 C57 C 0.88792 0.30620 -0.19469
 H58 H 0.89249 0.34604 -0.22859
 H59 H 0.89105 0.29119 -0.18756
 Cu60 Cu 0.85475 0.35888 -0.19206
 Cu61 Cu 0.85358 0.31699 -0.15908
 Cu62 Cu 0.80775 0.34666 -0.16613
 N63 N 0.83044 0.37709 -0.19279
 N64 N 0.81158 0.37215 -0.18394
 C65 C 0.79730 0.38688 -0.18965
 C66 C 0.80806 0.40178 -0.20255
 C67 C 0.82904 0.39506 -0.20397
 H68 H 0.78044 0.38665 -0.18495
 H69 H 0.84219 0.40214 -0.21340
 N70 N 0.80978 0.32406 -0.14268
 N71 N 0.82763 0.31348 -0.13957
 C72 C 0.82532 0.30130 -0.12062
 C73 C 0.80500 0.30409 -0.11139
 C74 C 0.79545 0.31853 -0.12585
 H75 H 0.83777 0.29152 -0.11360
 H76 H 0.77985 0.32548 -0.12328
 H77 H 0.83235 0.32976 -0.18164
 H78 H 0.83922 0.34616 -0.15541
 N79 N 0.86981 0.81807 0.30919
 N80 N 0.87324 0.83673 0.30166
 C81 C 0.88982 0.83662 0.28634
 C82 C 0.89701 0.81675 0.28410
 C83 C 0.88401 0.80536 0.29889
 H84 H 0.89622 0.85002 0.27768
 H85 H 0.88496 0.78913 0.30212
 Cu86 Cu 0.85624 0.85959 0.31320
 Cu87 Cu 0.84770 0.81245 0.33239
 Cu88 Cu 0.80782 0.84623 0.33987
 N89 N 0.83186 0.87844 0.31647
 N90 N 0.81286 0.87316 0.32493
 C91 C 0.79898 0.88870 0.32141
 C92 C 0.80999 0.90443 0.31027
 C93 C 0.83077 0.89740 0.30766
 H94 H 0.78215 0.88843 0.32624
 H95 H 0.84389 0.90496 0.29870
 N96 N 0.81196 0.82325 0.36174
 N97 N 0.82845 0.81086 0.35926
 C98 C 0.82840 0.79715 0.37687
 C99 C 0.81073 0.80079 0.39099
 C100 C 0.80046 0.81740 0.38087
 H101 H 0.84008 0.78507 0.37890
 H102 H 0.78602 0.82485 0.38716
 H103 H 0.83003 0.84079 0.31224
 H104 H 0.83979 0.84796 0.34248
 N105 N 0.62727 0.68887 0.30849
 N106 N 0.62542 0.67063 0.29890
 C107 C 0.60922 0.67071 0.28303
 C108 C 0.60054 0.69011 0.28264
 C109 C 0.61235 0.70127 0.29901
 H110 H 0.60433 0.65771 0.27241
 H111 H 0.61020 0.71716 0.30370
 Cu112 Cu 0.64469 0.64863 0.30738
 Cu113 Cu 0.64872 0.69479 0.33275
 Cu114 Cu 0.68929 0.65916 0.33959
 N115 N 0.66920 0.63049 0.30767
 N116 N 0.68700 0.63473 0.31936
 C117 C 0.70134 0.61963 0.31539
 C118 C 0.69182 0.60526 0.30051
 C119 C 0.67149 0.61269 0.29603
 H120 H 0.71733 0.61901 0.32292
 H121 H 0.65932 0.60583 0.28480
 N122 N 0.68785 0.68482 0.35844
 N123 N 0.67185 0.69791 0.35625
 C124 C 0.67379 0.71256 0.37293
 C125 C 0.69198 0.70872 0.38614
 C126 C 0.70066 0.69110 0.37646
 H127 H 0.66257 0.72495 0.37560
 H128 H 0.71460 0.68295 0.38285
 H129 H 0.67064 0.67514 0.31622
 H130 H 0.65711 0.66515 0.34358
 N131 N 0.63847 0.17997 -0.18450
 N132 N 0.63821 0.16439 -0.19938
 C133 C 0.61970 0.16470 -0.21188
 C134 C 0.60771 0.18114 -0.20404
 C135 C 0.62002 0.19048 -0.18668
 H136 H 0.61497 0.15340 -0.22497
 H137 H 0.61582 0.20385 -0.17631
 Cu138 Cu 0.66128 0.14418 -0.19945
 Cu139 Cu 0.66282 0.18509 -0.16329
 Cu140 Cu 0.68460 0.13927 -0.14588
 N141 N 0.67931 0.12075 -0.19192
 N142 N 0.68687 0.11831 -0.17030
 C143 C 0.69708 0.10030 -0.16898
 C144 C 0.69651 0.09117 -0.19117
 C145 C 0.68512 0.10459 -0.20540
 H146 H 0.70515 0.09479 -0.15325
 H147 H 0.68103 0.10261 -0.22396
 N148 N 0.68930 0.16511 -0.12839
 N149 N 0.68176 0.18288 -0.13549
 C150 C 0.68964 0.19776 -0.12128
 C151 C 0.70286 0.18882 -0.10450
 C152 C 0.70219 0.16815 -0.10952
 H153 H 0.68632 0.21386 -0.12329
 H154 H 0.71109 0.15624 -0.10068
 H155 H 0.68499 0.16137 -0.17132
 H156 H 0.65819 0.15523 -0.15804
 N157 N 0.13227 0.68183 -0.18521
 N158 N 0.12639 0.66499 -0.19630
 C159 C 0.10636 0.66732 -0.20487
 C160 C 0.09942 0.68672 -0.19905
 C161 C 0.11626 0.69558 -0.18664
 H162 H 0.09769 0.65594 -0.21508
 H163 H 0.11689 0.71086 -0.17928
 Cu164 Cu 0.14618 0.64236 -0.20017
 Cu165 Cu 0.16048 0.68458 -0.17027
 Cu166 Cu 0.18620 0.63826 -0.16101
 N167 N 0.16581 0.61938 -0.20127
 N168 N 0.18198 0.61825 -0.18629
 C169 C 0.19362 0.60148 -0.19124
 C170 C 0.18415 0.59157 -0.21030
 C171 C 0.16649 0.60327 -0.21621
 H172 H 0.20789 0.59687 -0.18169
 H173 H 0.15534 0.60051 -0.23064
 N174 N 0.19346 0.66332 -0.14339
 N175 N 0.18426 0.68112 -0.14740
 C176 C 0.19272 0.69514 -0.13244
 C177 C 0.20792 0.68560 -0.11841
 C178 C 0.20800 0.66550 -0.12587
 H179 H 0.18769 0.71091 -0.13130
 H180 H 0.21776 0.65327 -0.11889
 H181 H 0.17797 0.66006 -0.18466
 H182 H 0.15739 0.65496 -0.16134
 N183 N 0.14092 0.18779 0.30787
 N184 N 0.13861 0.17097 0.29518
 C185 C 0.12109 0.17274 0.28129
 C186 C 0.11201 0.19172 0.28534
 C187 C 0.12510 0.20094 0.30220
 H188 H 0.11530 0.16100 0.26928
 H189 H 0.12289 0.21580 0.31029
 Cu190 Cu 0.15857 0.14810 0.29817
 Cu191 Cu 0.16356 0.19044 0.33197
 Cu192 Cu 0.17659 0.14280 0.35346
 N193 N 0.17596 0.12448 0.30719
 N194 N 0.18159 0.12205 0.32950
 C195 C 0.19286 0.10474 0.33173
 C196 C 0.19505 0.09599 0.30955
 C197 C 0.18404 0.10885 0.29424
 H198 H 0.20006 0.09963 0.34815
 H199 H 0.18235 0.10715 0.27520
 N200 N 0.18199 0.16813 0.37123
 N201 N 0.17848 0.18651 0.36259
 C202 C 0.18782 0.20045 0.37705
 C203 C 0.19788 0.19013 0.39540
 C204 C 0.19365 0.16977 0.39122
 H205 H 0.18832 0.21669 0.37373
 H206 H 0.19994 0.15693 0.40098
 H207 H 0.18217 0.16382 0.32757
 H208 H 0.15387 0.16206 0.33836
 N209 N 0.64115 0.30277 0.69355
 N210 N 0.63873 0.31905 0.70708
 C211 C 0.62104 0.31679 0.72052
 C212 C 0.61196 0.29804 0.71522
 C213 C 0.62520 0.28944 0.69817
 H214 H 0.61503 0.32814 0.73285
 H215 H 0.62290 0.27502 0.68905
 Cu216 Cu 0.65841 0.34207 0.70523
 Cu217 Cu 0.66356 0.30135 0.66924
 Cu218 Cu 0.67543 0.35009 0.64993
 N219 N 0.67344 0.36704 0.69694
 N220 N 0.67912 0.37038 0.67482
 C221 C 0.68833 0.38886 0.67326
 C222 C 0.68892 0.39740 0.69569
 C223 C 0.67933 0.38318 0.71042
 H224 H 0.69488 0.39520 0.65710
 H225 H 0.67682 0.38448 0.72938
 N226 N 0.68089 0.32542 0.63087
 N227 N 0.67753 0.30669 0.63857
 C228 C 0.68534 0.29331 0.62250
 C229 C 0.69413 0.30430 0.60394
 C230 C 0.69095 0.32454 0.60981
 H231 H 0.68509 0.27689 0.62445
 H232 H 0.69642 0.33772 0.60004
 H233 H 0.68194 0.32831 0.67450
 H234 H 0.65342 0.32996 0.66439
 N235 N 0.63203 0.82065 1.17716
 N236 N 0.62592 0.83810 1.18660
 C237 C 0.60675 0.83569 1.19717
 C238 C 0.60045 0.81563 1.19428
 C239 C 0.61683 0.80645 1.18148
 H240 H 0.59835 0.84755 1.20683
 H241 H 0.61764 0.79067 1.17582
 Cu242 Cu 0.64413 0.86197 1.18638
 Cu243 Cu 0.65892 0.81821 1.15946
 Cu244 Cu 0.69269 0.86050 1.16125
 N245 N 0.66654 0.88089 1.19572
 N246 N 0.68591 0.88000 1.18648
 C247 C 0.69833 0.89446 1.19674
 C248 C 0.68595 0.90486 1.21327
 C249 C 0.66588 0.89587 1.21211
 H250 H 0.71502 0.89724 1.19242
 H251 H 0.65190 0.89970 1.22262
 N252 N 0.69909 0.83579 1.14243
 N253 N 0.68665 0.81941 1.14234
 C254 C 0.69495 0.80553 1.12714
 C255 C 0.71330 0.81370 1.11710
 C256 C 0.71548 0.83285 1.12722
 H257 H 0.68760 0.79102 1.12272
 H258 H 0.72778 0.84402 1.12332
 H259 H 0.67486 0.83987 1.17985
 H260 H 0.66272 0.84849 1.15131
 N261 N 0.14924 0.31295 1.18776
 N262 N 0.14601 0.32897 1.20151
 C263 C 0.12665 0.32713 1.21209
 C264 C 0.11738 0.30908 1.20431
 C265 C 0.13206 0.30052 1.18890
 H266 H 0.11930 0.33866 1.22325
 H267 H 0.12994 0.28678 1.17840
 Cu268 Cu 0.16630 0.35181 1.20161
 Cu269 Cu 0.17431 0.31061 1.16715
 Cu270 Cu 0.18935 0.35849 1.14831
 N271 N 0.18255 0.37653 1.19442
 N272 N 0.19042 0.37934 1.17300
 C273 C 0.19965 0.39787 1.17192
 C274 C 0.19795 0.40703 1.19396
 C275 C 0.18704 0.39307 1.20794
 H276 H 0.20769 0.40390 1.15644
 H277 H 0.18253 0.39491 1.22638
 N278 N 0.19599 0.33323 1.13054
 N279 N 0.19145 0.31480 1.13845
 C280 C 0.19926 0.30077 1.12318
 C281 C 0.20913 0.31098 1.10472
 C282 C 0.20677 0.33148 1.10995
 H283 H 0.19749 0.28444 1.12513
 H284 H 0.21276 0.34422 1.09975
 H285 H 0.19265 0.33744 1.17416
 H286 H 0.16537 0.33950 1.16053
 N287 N 0.12026 0.81271 0.69383
 N288 N 0.11752 0.83157 0.70126
 C289 C 0.10129 0.83216 0.71700
 C290 C 0.09346 0.81258 0.71961
 C291 C 0.10578 0.80058 0.70460
 H292 H 0.09606 0.84574 0.72633
 H293 H 0.10464 0.78423 0.70212
 Cu294 Cu 0.13649 0.85327 0.69142
 Cu295 Cu 0.14297 0.80564 0.67146
 Cu296 Cu 0.18326 0.84172 0.66415
 N297 N 0.16053 0.87185 0.69159
 N298 N 0.17927 0.86725 0.68219
 C299 C 0.19325 0.88253 0.68715
 C300 C 0.18244 0.89731 0.70025
 C301 C 0.16179 0.89000 0.70262
 H302 H 0.20995 0.88280 0.68182
 H303 H 0.14879 0.89693 0.71249
 N304 N 0.18322 0.81490 0.64737
 N305 N 0.16739 0.80159 0.64985
 C306 C 0.17019 0.78611 0.63443
 C307 C 0.18873 0.78962 0.62170
 C308 C 0.19674 0.80796 0.63038
 H309 H 0.15917 0.77347 0.63207
 H310 H 0.21059 0.81617 0.62380
 H311 H 0.16346 0.82705 0.68745
 H312 H 0.15156 0.83460 0.65814
 N313 N 0.36363 0.68389 0.69491
 N314 N 0.36849 0.66725 0.70669
 C315 C 0.38696 0.67020 0.71861
 C316 C 0.39400 0.68979 0.71422
 C317 C 0.37883 0.69815 0.69915
 H318 H 0.39456 0.65902 0.72988
 H319 H 0.37879 0.71338 0.69184
 Cu320 Cu 0.34960 0.64379 0.70669
 Cu321 Cu 0.33772 0.68549 0.67542
 Cu322 Cu 0.31608 0.63798 0.66089
 N323 N 0.33137 0.61997 0.70393
 N324 N 0.31748 0.61802 0.68645
 C325 C 0.30633 0.60055 0.68933
 C326 C 0.31390 0.59111 0.70960
 C327 C 0.32979 0.60378 0.71837
 H328 H 0.29379 0.59511 0.67754
 H329 H 0.33907 0.60161 0.73440
 N330 N 0.31057 0.66284 0.64237
 N331 N 0.31781 0.68109 0.64857
 C332 C 0.31092 0.69488 0.63263
 C333 C 0.29900 0.68473 0.61551
 C334 C 0.29908 0.66449 0.62222
 H335 H 0.31496 0.71095 0.63293
 H336 H 0.29132 0.65190 0.61312
 H337 H 0.31959 0.65994 0.68592
 H338 H 0.34356 0.65602 0.66655
 N339 N 0.36010 0.19235 1.19333
 N340 N 0.36256 0.17659 1.20749
 C341 C 0.38120 0.17879 1.21958
 C342 C 0.39080 0.19684 1.21245
 C343 C 0.37706 0.20494 1.19575
 H344 H 0.38797 0.16746 1.23130
 H345 H 0.37980 0.21843 1.18516
 Cu346 Cu 0.34239 0.15357 1.20624
 Cu347 Cu 0.33646 0.19411 1.17055
 Cu348 Cu 0.32238 0.14584 1.15163
 N349 N 0.32580 0.12896 1.19853
 N350 N 0.31898 0.12584 1.17669
 C351 C 0.30894 0.10771 1.17534
 C352 C 0.30898 0.09905 1.19761
 C353 C 0.31983 0.11293 1.21204
 H354 H 0.30149 0.10165 1.15942
 H355 H 0.32319 0.11144 1.23081
 N356 N 0.31708 0.17056 1.13279
 N357 N 0.32113 0.18921 1.14056
 C358 C 0.31382 0.20278 1.12455
 C359 C 0.30478 0.19199 1.10582
 C360 C 0.30716 0.17167 1.11163
 H361 H 0.31508 0.21918 1.12637
 H362 H 0.30148 0.15861 1.10160
 H363 H 0.31776 0.16755 1.17675
 H364 H 0.34575 0.16517 1.16515
 N365 N 0.88127 0.67637 1.17469
 N366 N 0.87685 0.67172 1.19686
 C367 C 0.89255 0.67927 1.21101
 C368 C 0.90766 0.68869 1.19662
 C369 C 0.90011 0.68632 1.17378
 H370 H 0.89296 0.67799 1.23015
 H371 H 0.90712 0.69247 1.15775
 Cu372 Cu 0.85123 0.65562 1.20417
 Cu373 Cu 0.86120 0.67183 1.14885
 Cu374 Cu 0.81011 0.65832 1.16566
 N375 N 0.82837 0.63503 1.20388
 N376 N 0.81265 0.63588 1.18822
 C377 C 0.80070 0.61882 1.18967
 C378 C 0.80915 0.60679 1.20738
 C379 C 0.82662 0.61751 1.21623
 H380 H 0.78721 0.61519 1.17824
 H381 H 0.83794 0.61240 1.22952
 N382 N 0.81586 0.67308 1.13619
 N383 N 0.83568 0.67667 1.12895
 C384 C 0.83495 0.68750 1.10878
 C385 C 0.81369 0.69116 1.10329
 C386 C 0.80192 0.68173 1.12097
 H387 H 0.84891 0.69367 1.09987
 H388 H 0.78463 0.68175 1.12308
 H389 H 0.83748 0.67707 1.17260
 H390 H 0.84108 0.65011 1.16245
 N391 N 0.86241 0.18219 0.67676
 N392 N 0.86699 0.16490 0.68740
 C393 C 0.88475 0.16736 0.70073
 C394 C 0.89176 0.18724 0.69840
 C395 C 0.87724 0.19629 0.68304
 H396 H 0.89191 0.15555 0.71147
 H397 H 0.87754 0.21187 0.67680
 Cu398 Cu 0.84952 0.14056 0.68382
 Cu399 Cu 0.83796 0.18457 0.65499
 Cu400 Cu 0.80208 0.14436 0.65606
 N401 N 0.82691 0.12050 0.68821
 N402 N 0.80796 0.12265 0.67822
 C403 C 0.79514 0.10713 0.68473
 C404 C 0.80679 0.09449 0.69939
 C405 C 0.82692 0.10333 0.70124
 H406 H 0.77875 0.10491 0.67880
 H407 H 0.84045 0.09785 0.71146
 N408 N 0.79888 0.16747 0.63464
 N409 N 0.81214 0.18323 0.63435
 C410 C 0.80599 0.19597 0.61685
 C411 C 0.78831 0.18744 0.60553
 C412 C 0.78428 0.16948 0.61724
 H413 H 0.81436 0.20978 0.61188
 H414 H 0.77193 0.15842 0.61297
 H415 H 0.82136 0.16484 0.67590
 H416 H 0.83369 0.15425 0.64795
 N417 N 0.32096 0.37179 0.69141
 N418 N 0.33930 0.37239 0.70299
 C419 C 0.33858 0.38761 0.71919
 C420 C 0.31862 0.39682 0.71766
 C421 C 0.30788 0.38639 0.69989
 H422 H 0.35146 0.39148 0.73135
 H423 H 0.29176 0.38929 0.69355
 Cu424 Cu 0.36201 0.35283 0.69618
 Cu425 Cu 0.31542 0.35238 0.66606
 Cu426 Cu 0.35121 0.31247 0.66011
 N427 N 0.38005 0.32865 0.69553
 N428 N 0.37565 0.31273 0.68201
 C429 C 0.39066 0.29825 0.68569
 C430 C 0.40518 0.30558 0.70235
 C431 C 0.39795 0.32489 0.70818
 H432 H 0.39107 0.28356 0.67684
 H433 H 0.40503 0.33536 0.72089
 N434 N 0.32552 0.31553 0.63963
 N435 N 0.31245 0.33131 0.64150
 C436 C 0.29731 0.33006 0.62451
 C437 C 0.30080 0.31256 0.61144
 C438 C 0.31875 0.30358 0.62149
 H439 H 0.28452 0.34098 0.62193
 H440 H 0.32651 0.28968 0.61567
 H441 H 0.33364 0.32998 0.68319
 H442 H 0.34696 0.34337 0.65774
 N443 N 0.31210 0.87362 0.17853
 N444 N 0.32976 0.87168 0.19122
 C445 C 0.33123 0.88756 0.20646
 C446 C 0.31342 0.89984 0.20332
 C447 C 0.30156 0.89052 0.18556
 H448 H 0.34413 0.88994 0.21909
 H449 H 0.28664 0.89590 0.17796
 Cu450 Cu 0.34888 0.84840 0.18665
 Cu451 Cu 0.30495 0.85501 0.15265
 Cu452 Cu 0.33686 0.81223 0.14601
 N453 N 0.36753 0.82487 0.18146
 N454 N 0.36315 0.81147 0.16464
 C455 C 0.37911 0.79771 0.16339
 C456 C 0.39404 0.80244 0.18066
 C457 C 0.38625 0.81969 0.19196
 H458 H 0.37976 0.78505 0.15099
 H459 H 0.39399 0.82812 0.20616
 N460 N 0.30964 0.81587 0.12877
 N461 N 0.29768 0.83241 0.13084
 C462 C 0.28059 0.83064 0.11624
 C463 C 0.28188 0.81207 0.10459
 C464 C 0.30041 0.80308 0.11297
 H465 H 0.26810 0.84195 0.11427
 H466 H 0.30686 0.78845 0.10760
 H467 H 0.31874 0.83020 0.16894
 H468 H 0.33558 0.84339 0.14620
 N469 N 0.81614 0.37716 0.19204
 N470 N 0.83339 0.37567 0.20546
 C471 C 0.83407 0.39183 0.22043
 C472 C 0.81615 0.40383 0.21631
 C473 C 0.80511 0.39403 0.19827
 H474 H 0.84653 0.39460 0.23347
 H475 H 0.79034 0.39903 0.19001
 Cu476 Cu 0.85316 0.35257 0.20228
 Cu477 Cu 0.80965 0.35770 0.16686
 Cu478 Cu 0.84592 0.31865 0.15738
 N479 N 0.87379 0.33068 0.19589
 N480 N 0.87148 0.31840 0.17748
 C481 C 0.88873 0.30608 0.17594
 C482 C 0.90236 0.31052 0.19464
 C483 C 0.89240 0.32614 0.20706
 H484 H 0.89115 0.29457 0.16236
 H485 H 0.89867 0.33407 0.22249
 N486 N 0.81906 0.32137 0.13891
 N487 N 0.80559 0.33667 0.14215
 C488 C 0.78936 0.33498 0.12638
 C489 C 0.79258 0.31766 0.11282
 C490 C 0.81150 0.30930 0.12125
 H491 H 0.77604 0.34548 0.12496
 H492 H 0.81933 0.29568 0.11465
 H493 H 0.82564 0.33284 0.18119
 H494 H 0.84152 0.34972 0.16100
 N495 N 0.81552 0.86710 0.67685
 N496 N 0.83377 0.87325 0.68632
 C497 C 0.83170 0.89243 0.69437
 C498 C 0.81090 0.89868 0.69029
 C499 C 0.80089 0.88222 0.67919
 H500 H 0.84412 0.90081 0.70371
 H501 H 0.78430 0.88127 0.67350
 Cu502 Cu 0.85775 0.85516 0.69108
 Cu503 Cu 0.81301 0.83988 0.66225
 Cu504 Cu 0.85927 0.81026 0.66349
 N505 N 0.87583 0.83333 0.70260
 N506 N 0.87630 0.81544 0.69196
 C507 C 0.89002 0.80317 0.70364
 C508 C 0.89846 0.81406 0.72265
 C509 C 0.88916 0.83314 0.72141
 H510 H 0.89364 0.78760 0.69859
 H511 H 0.89174 0.84591 0.73334
 N512 N 0.83494 0.80436 0.64236
 N513 N 0.81689 0.81497 0.64231
 C514 C 0.80359 0.80693 0.62571
 C515 C 0.81403 0.79071 0.61479
 C516 C 0.83379 0.78957 0.62581
 H517 H 0.78788 0.81285 0.62130
 H518 H 0.84652 0.77886 0.62193
 H519 H 0.83631 0.82500 0.68216
 H520 H 0.84523 0.83872 0.65482
 N521 N 0.68244 0.62605 0.67986
 N522 N 0.66282 0.62217 0.68765
 C523 C 0.66258 0.60388 0.69828
 C524 C 0.68299 0.59577 0.69737
 C525 C 0.69527 0.61018 0.68550
 H526 H 0.64880 0.59752 0.70732
 H527 H 0.71233 0.60945 0.68192
 Cu528 Cu 0.63924 0.64210 0.68783
 Cu529 Cu 0.68986 0.65209 0.66384
 Cu530 Cu 0.65189 0.68807 0.66760
 N531 N 0.62236 0.66599 0.69622
 N532 N 0.62755 0.68417 0.68833
 C533 C 0.61320 0.69788 0.69627
 C534 C 0.59817 0.68770 0.70983
 C535 C 0.60438 0.66744 0.70941
 H536 H 0.61353 0.71400 0.69225
 H537 H 0.59642 0.65472 0.71787
 N538 N 0.67276 0.68814 0.64228
 N539 N 0.68859 0.67489 0.64114
 C540 C 0.70145 0.67992 0.62269
 C541 C 0.69269 0.69692 0.61165
 C542 C 0.67455 0.70159 0.62454
 H543 H 0.71573 0.67164 0.61744
 H544 H 0.66364 0.71415 0.62154
 H545 H 0.66664 0.65948 0.68992
 H546 H 0.65804 0.65193 0.65939
 N547 N 0.68456 0.12456 0.17862
 N548 N 0.67563 0.12718 0.19956
 C549 C 0.68060 0.11123 0.21353
 C550 C 0.69295 0.09777 0.20035
 C551 C 0.69503 0.10662 0.17826
 H552 H 0.67529 0.10934 0.23167
 H553 H 0.70397 0.10074 0.16324
 Cu554 Cu 0.65718 0.15050 0.20563
 Cu555 Cu 0.68254 0.14503 0.15378
 Cu556 Cu 0.66100 0.19169 0.17080
 N557 N 0.63476 0.17112 0.20517
 N558 N 0.63643 0.18763 0.19209
 C559 C 0.61912 0.19955 0.19597
 C560 C 0.60584 0.18977 0.21208
 C561 C 0.61627 0.17179 0.21751
 H562 H 0.61634 0.21412 0.18755
 H563 H 0.61098 0.16017 0.22977
 N564 N 0.67984 0.18851 0.14279
 N565 N 0.68722 0.17051 0.13598
 C566 C 0.69973 0.17295 0.11676
 C567 C 0.70031 0.19343 0.11109
 C568 C 0.68746 0.20292 0.12793
 H569 H 0.70832 0.16073 0.10798
 H570 H 0.68410 0.21907 0.12942
 H571 H 0.68235 0.16764 0.17910
 H572 H 0.65603 0.16211 0.16447
 N573 N 0.18622 0.63248 0.18557
 N574 N 0.16713 0.62870 0.19484
 C575 C 0.16791 0.61127 0.20719
 C576 C 0.18848 0.60365 0.20593
 C577 C 0.19980 0.61740 0.19202
 H578 H 0.15469 0.60522 0.21744
 H579 H 0.21663 0.61667 0.18728
 Cu580 Cu 0.14305 0.64788 0.19436
 Cu581 Cu 0.19167 0.65696 0.16582
 Cu582 Cu 0.15177 0.69135 0.16609
 N583 N 0.12670 0.67225 0.20178
 N584 N 0.13020 0.68956 0.19079
 C585 C 0.11676 0.70384 0.19942
 C586 C 0.10421 0.69486 0.21674
 C587 C 0.11083 0.67478 0.21769
 H588 H 0.11613 0.71952 0.19353
 H589 H 0.10469 0.66289 0.22910
 N590 N 0.17129 0.68901 0.13949
 N591 N 0.18793 0.67662 0.13983
 C592 C 0.19960 0.67955 0.11991
 C593 C 0.18920 0.69409 0.10632
 C594 C 0.17133 0.69967 0.11920
 H595 H 0.21408 0.67129 0.11533
 H596 H 0.15945 0.71095 0.11436
 H597 H 0.16929 0.66644 0.19169
 H598 H 0.15970 0.65493 0.16322
 N599 N 0.18283 0.12212 0.67750
 N600 N 0.16315 0.11976 0.68552
 C601 C 0.16219 0.10265 0.69860
 C602 C 0.18241 0.09395 0.69883
 C603 C 0.19513 0.10667 0.68529
 H604 H 0.14797 0.09722 0.70765
 H605 H 0.21204 0.10482 0.68141
 Cu606 Cu 0.14098 0.13976 0.67910
 Cu607 Cu 0.19076 0.14476 0.65721
 Cu608 Cu 0.15450 0.18456 0.65347
 N609 N 0.12274 0.16362 0.68140
 N610 N 0.12803 0.18122 0.67189
 C611 C 0.11269 0.19505 0.67721
 C612 C 0.09709 0.18550 0.69079
 C613 C 0.10400 0.16560 0.69306
 H614 H 0.11297 0.21087 0.67184
 H615 H 0.09623 0.15352 0.70288
 N616 N 0.18227 0.18435 0.63622
 N617 N 0.19580 0.16888 0.63751
 C618 C 0.21231 0.17211 0.62263
 C619 C 0.20921 0.19054 0.61150
 C620 C 0.19007 0.19803 0.62056
 H621 H 0.22543 0.16161 0.61968
 H622 H 0.18202 0.21192 0.61536
 H623 H 0.16982 0.16434 0.67527
 H624 H 0.16030 0.15438 0.64575
 N625 N 0.31724 0.63279 0.32620
 N626 N 0.33593 0.62847 0.31650
 C627 C 0.33453 0.61079 0.30449
 C628 C 0.31383 0.60350 0.30646
 C629 C 0.30316 0.61779 0.32043
 H630 H 0.34746 0.60424 0.29416
 H631 H 0.28645 0.61741 0.32575
 Cu632 Cu 0.35998 0.64706 0.31724
 Cu633 Cu 0.31352 0.65760 0.34568
 Cu634 Cu 0.35358 0.69402 0.33939
 N635 N 0.37855 0.66925 0.30787
 N636 N 0.37568 0.68791 0.31588
 C637 C 0.38977 0.70046 0.30509
 C638 C 0.40201 0.68891 0.28952
 C639 C 0.39451 0.66918 0.29181
 H640 H 0.39083 0.71676 0.30809
 H641 H 0.39974 0.65585 0.28200
 N642 N 0.32970 0.69709 0.36196
 N643 N 0.31391 0.68368 0.36399
 C644 C 0.30077 0.68982 0.38175
 C645 C 0.30902 0.70770 0.39142
 C646 C 0.32729 0.71180 0.37846
 H647 H 0.28704 0.68131 0.38814
 H648 H 0.33838 0.72431 0.38133
 H649 H 0.33302 0.67302 0.32275
 H650 H 0.34532 0.66450 0.35154
 N651 N 0.31020 0.12540 0.81893
 N652 N 0.32179 0.12315 0.79956
 C653 C 0.31592 0.10562 0.78861
 C654 C 0.30019 0.09638 0.80219
 C655 C 0.29702 0.10926 0.82129
 H656 H 0.32286 0.09979 0.77233
 H657 H 0.28559 0.10723 0.83555
 Cu658 Cu 0.34419 0.14279 0.79122
 Cu659 Cu 0.31181 0.14956 0.83888
 Cu660 Cu 0.35303 0.18329 0.82758
 N661 N 0.36896 0.16087 0.78730
 N662 N 0.37199 0.17672 0.80136
 C663 C 0.38961 0.18693 0.79438
 C664 C 0.39828 0.17691 0.77505
 C665 C 0.38486 0.16036 0.77100
 H666 H 0.39572 0.20066 0.80276
 H667 H 0.38637 0.14906 0.75703
 N668 N 0.33218 0.18744 0.85330
 N669 N 0.31594 0.17491 0.85711
 C670 C 0.30389 0.18234 0.87504
 C671 C 0.31325 0.20022 0.88304
 C672 C 0.33116 0.20300 0.86899
 H673 H 0.28954 0.17521 0.88199
 H674 H 0.34236 0.21562 0.86989
 H675 H 0.32574 0.16904 0.81443
 H676 H 0.34442 0.15313 0.83279
 N677 N 0.80630 0.62271 0.82087
 N678 N 0.82279 0.62411 0.80640
 C679 C 0.82235 0.60834 0.79100
 C680 C 0.80448 0.59663 0.79600
 C681 C 0.79459 0.60613 0.81502
 H682 H 0.83392 0.60573 0.77700
 H683 H 0.78021 0.60121 0.82415
 Cu684 Cu 0.84294 0.64654 0.80903
 Cu685 Cu 0.80240 0.64170 0.84715
 Cu686 Cu 0.82984 0.68778 0.84132
 N687 N 0.86329 0.66845 0.81432
 N688 N 0.85805 0.68506 0.82618
 C689 C 0.87449 0.69849 0.82496
 C690 C 0.89086 0.68955 0.81187
 C691 C 0.88322 0.67052 0.80553
 H692 H 0.87440 0.71364 0.83270
 H693 H 0.89126 0.65931 0.79455
 N694 N 0.80552 0.68383 0.86353
 N695 N 0.79575 0.66607 0.86615
 C696 C 0.78092 0.66768 0.88337
 C697 C 0.78129 0.68737 0.89211
 C698 C 0.79703 0.69730 0.87913
 H699 H 0.77064 0.65535 0.88919
 H700 H 0.80234 0.71292 0.88139
 H701 H 0.81168 0.66451 0.82513
 H702 H 0.83177 0.65771 0.84839
 N703 N 0.81447 0.13508 0.30943
 N704 N 0.83235 0.13081 0.29797
 C705 C 0.83117 0.11168 0.28926
 C706 C 0.81137 0.10364 0.29530
 C707 C 0.80109 0.11891 0.30797
 H708 H 0.84353 0.10436 0.27877
 H709 H 0.78519 0.11828 0.31573
 Cu710 Cu 0.85459 0.15132 0.29372
 Cu711 Cu 0.81039 0.16130 0.32555
 Cu712 Cu 0.85828 0.18756 0.33525
 N713 N 0.87731 0.17169 0.29271
 N714 N 0.87816 0.18647 0.30857
 C715 C 0.89489 0.19881 0.30362
 C716 C 0.90508 0.19122 0.28365
 C717 C 0.89360 0.17397 0.27722
 H718 H 0.89947 0.21208 0.31399
 H719 H 0.89670 0.16402 0.26222
 N720 N 0.83232 0.19185 0.35445
 N721 N 0.81371 0.18285 0.34997
 C722 C 0.79916 0.18923 0.36613
 C723 C 0.80930 0.20264 0.38156
 C724 C 0.83023 0.20397 0.37364
 H725 H 0.78279 0.18373 0.36732
 H726 H 0.84305 0.21299 0.38138
 H727 H 0.83501 0.17983 0.31180
 H728 H 0.84202 0.15948 0.33350
 N729 N 0.67849 0.38258 0.32826
 N730 N 0.67241 0.38118 0.30594
 C731 C 0.68031 0.39737 0.29399
 C732 C 0.69157 0.40955 0.31001
 C733 C 0.68981 0.39982 0.33154
 H734 H 0.67813 0.40002 0.27520
 H735 H 0.69735 0.40423 0.34812
 Cu736 Cu 0.65420 0.35835 0.29572
 Cu737 Cu 0.67417 0.36060 0.35063
 Cu738 Cu 0.66163 0.31419 0.32492
 N739 N 0.63451 0.33529 0.29172
 N740 N 0.63784 0.31783 0.30258
 C741 C 0.62172 0.30484 0.29725
 C742 C 0.60736 0.31478 0.28256
 C743 C 0.61600 0.33407 0.27934
 H744 H 0.62015 0.28960 0.30434
 H745 H 0.60914 0.34641 0.26917
 N746 N 0.67700 0.31649 0.35539
 N747 N 0.68024 0.33434 0.36578
 C748 C 0.69160 0.33161 0.38576
 C749 C 0.69589 0.31108 0.38808
 C750 C 0.68624 0.30180 0.36862
 H751 H 0.69744 0.34389 0.39696
 H752 H 0.68659 0.28576 0.36397
 H753 H 0.67928 0.34168 0.32258
 H754 H 0.65136 0.34189 0.33466
 N755 N 0.69165 0.86718 0.82497
 N756 N 0.68037 0.86730 0.80520
 C757 C 0.68660 0.88326 0.79187
 C758 C 0.70237 0.89376 0.80419
 C759 C 0.70517 0.88322 0.82510
 H760 H 0.67974 0.88728 0.77487
 H761 H 0.71622 0.88693 0.83933
 Cu762 Cu 0.65784 0.84737 0.79926
 Cu763 Cu 0.68809 0.84633 0.84900
 Cu764 Cu 0.64375 0.81493 0.84295
 N765 N 0.63124 0.83184 0.79807
 N766 N 0.62609 0.81890 0.81491
 C767 C 0.60782 0.80918 0.80882
 C768 C 0.60108 0.81661 0.78718
 C769 C 0.61621 0.83104 0.78085
 H770 H 0.60017 0.79737 0.81918
 H771 H 0.61665 0.83972 0.76458
 N772 N 0.66375 0.81323 0.86993
 N773 N 0.68141 0.82437 0.87145
 C774 C 0.69279 0.81841 0.89054
 C775 C 0.68146 0.80313 0.90174
 C776 C 0.66312 0.80024 0.88836
 H777 H 0.70810 0.82474 0.89600
 H778 H 0.65073 0.78895 0.89135
 H779 H 0.67278 0.82411 0.82867
 H780 H 0.65546 0.84448 0.84214
 N781 N 0.18282 0.36582 0.82439
 N782 N 0.17256 0.36650 0.80397
 C783 C 0.17717 0.38427 0.79315
 C784 C 0.19061 0.39537 0.80793
 C785 C 0.19381 0.38331 0.82759
 H786 H 0.17108 0.38887 0.77600
 H787 H 0.20410 0.38669 0.84261
 Cu788 Cu 0.15365 0.34444 0.79384
 Cu789 Cu 0.18311 0.34152 0.84394
 Cu790 Cu 0.14536 0.30454 0.83059
 N791 N 0.12950 0.32586 0.78969
 N792 N 0.12662 0.31007 0.80367
 C793 C 0.10930 0.29948 0.79622
 C794 C 0.10074 0.30930 0.77674
 C795 C 0.11388 0.32602 0.77309
 H796 H 0.10325 0.28574 0.80446
 H797 H 0.11239 0.33727 0.75920
 N798 N 0.16600 0.30195 0.85699
 N799 N 0.18093 0.31580 0.86150
 C800 C 0.19345 0.30922 0.87940
 C801 C 0.18579 0.29053 0.88673
 C802 C 0.16833 0.28637 0.87230
 H803 H 0.20707 0.31743 0.88669
 H804 H 0.15847 0.27276 0.87255
 H805 H 0.17230 0.32015 0.81916
 H806 H 0.15128 0.33526 0.83541
 N807 N 0.19207 0.87463 0.33608
 N808 N 0.17998 0.87654 0.31702
 C809 C 0.18690 0.89276 0.30447
 C810 C 0.20390 0.90158 0.31663
 C811 C 0.20671 0.88977 0.33659
 H812 H 0.17969 0.89820 0.28821
 H813 H 0.21858 0.89201 0.35042
 Cu814 Cu 0.15535 0.85856 0.31144
 Cu815 Cu 0.18807 0.85276 0.35888
 Cu816 Cu 0.14619 0.81938 0.34865
 N817 N 0.12972 0.84140 0.30855
 N818 N 0.12655 0.82612 0.32320
 C819 C 0.10867 0.81598 0.31680
 C820 C 0.10005 0.82533 0.29713
 C821 C 0.11370 0.84151 0.29232
 H822 H 0.10265 0.80244 0.32547
 H823 H 0.11251 0.85201 0.27763
 N824 N 0.16771 0.81508 0.37356
 N825 N 0.18423 0.82740 0.37710
 C826 C 0.19671 0.81959 0.39443
 C827 C 0.18725 0.80175 0.40230
 C828 C 0.16893 0.79939 0.38879
 H829 H 0.21144 0.82641 0.40095
 H830 H 0.15761 0.78688 0.38967
 H831 H 0.17378 0.83306 0.33500
 H832 H 0.15516 0.84932 0.35323
 C833 C 0.27417 0.95623 0.24497
 C834 C 0.25965 0.94576 0.25948
 C835 C 0.24491 0.95621 0.27375
 C836 C 0.24368 0.97773 0.27253
 C837 C 0.25790 0.98858 0.25746
 C838 C 0.27333 0.97781 0.24375
 C839 C 0.28733 0.98889 0.22906
 C840 C 0.28623 1.01011 0.22787
 C841 C 0.27089 1.02112 0.24109
 C842 C 0.25687 1.01025 0.25637
 C843 C 0.22829 0.98863 0.28568
 C844 C 0.22733 1.00980 0.28467
 C845 C 0.24186 1.02099 0.27066
 C846 C 0.24149 1.04261 0.27026
 C847 C 0.25501 1.05310 0.25463
 C848 C 0.26944 1.04271 0.23979
 H849 H 0.29922 0.98125 0.21819
 H850 H 0.29777 1.01778 0.21667
 H851 H 0.21663 0.98085 0.29666
 H852 H 0.21479 1.01726 0.29476
 H853 H 0.26086 0.92929 0.26095
 H854 H 0.25430 1.06963 0.25404
 C855 C 0.27051 0.44978 0.75365
 C856 C 0.25328 0.43983 0.76458
 C857 C 0.23544 0.45067 0.77293
 C858 C 0.23409 0.47193 0.76907
 C859 C 0.25129 0.48219 0.75768
 C860 C 0.26966 0.47111 0.75011
 C861 C 0.28642 0.48159 0.73868
 C862 C 0.28559 0.50263 0.73565
 C863 C 0.26785 0.51399 0.74368
 C864 C 0.25022 0.50359 0.75407
 C865 C 0.21589 0.48315 0.77605
 C866 C 0.21466 0.50407 0.77211
 C867 C 0.23164 0.51460 0.76112
 C868 C 0.23081 0.53592 0.75751
 C869 C 0.24856 0.54603 0.74788
 C870 C 0.26712 0.53544 0.74126
 H871 H 0.30034 0.47365 0.73181
 H872 H 0.29889 0.50985 0.72658
 H873 H 0.20227 0.47580 0.78440
 H874 H 0.20034 0.51193 0.77804
 H875 H 0.25433 0.42355 0.76780
 H876 H 0.24806 0.56249 0.74598
 C877 C 0.76168 -0.04078 0.28064
 C878 C 0.74484 -0.05189 0.27024
 C879 C 0.72795 -0.04211 0.25847
 C880 C 0.72815 -0.02061 0.25616
 C881 C 0.74483 -0.00909 0.26703
 C882 C 0.76119 -0.01915 0.28004
 C883 C 0.77652 -0.00726 0.29226
 C884 C 0.77689 0.01388 0.29009
 C885 C 0.76205 0.02401 0.27546
 C886 C 0.74546 0.01248 0.26440
 C887 C 0.71249 -0.01035 0.24271
 C888 C 0.71333 0.01072 0.23980
 C889 C 0.72990 0.02240 0.25012
 C890 C 0.73130 0.04374 0.24656
 C891 C 0.74751 0.05494 0.25799
 C892 C 0.76320 0.04536 0.27183
 H893 H 0.78828 -0.01419 0.30385
 H894 H 0.78893 0.02222 0.30009
 H895 H 0.69964 -0.01853 0.23385
 H896 H 0.70077 0.01777 0.22940
 H897 H 0.74508 -0.06843 0.27078
 H898 H 0.74898 0.07114 0.25445
 C899 C 0.75987 0.45494 0.76342
 C900 C 0.74402 0.44400 0.75104
 C901 C 0.72826 0.45404 0.73769
 C902 C 0.72724 0.47562 0.73810
 C903 C 0.74302 0.48692 0.75070
 C904 C 0.75931 0.47659 0.76351
 C905 C 0.77463 0.48820 0.77611
 C906 C 0.77493 0.50938 0.77467
 C907 C 0.75951 0.51985 0.76117
 C908 C 0.74290 0.50861 0.74985
 C909 C 0.71095 0.48620 0.72600
 C910 C 0.71070 0.50741 0.72535
 C911 C 0.72643 0.51900 0.73730
 C912 C 0.72646 0.54065 0.73664
 C913 C 0.74344 0.55141 0.74721
 C914 C 0.76003 0.54131 0.75906
 H915 H 0.78660 0.48103 0.78723
 H916 H 0.78724 0.51750 0.78453
 H917 H 0.69812 0.47818 0.71687
 H918 H 0.69826 0.51454 0.71489
 H919 H 0.74520 0.42751 0.74993
 H920 H 0.74376 0.56794 0.74625
 C921 C 0.23388 0.54988 0.24506
 C922 C 0.25037 0.56012 0.25722
 C923 C 0.26712 0.54944 0.26815
 C924 C 0.26707 0.52779 0.26753
 C925 C 0.25102 0.51725 0.25437
 C926 C 0.23443 0.52832 0.24298
 C927 C 0.21904 0.51754 0.22949
 C928 C 0.21967 0.49637 0.22760
 C929 C 0.23604 0.48508 0.23859
 C930 C 0.25167 0.49559 0.25243
 C931 C 0.28242 0.51636 0.28007
 C932 C 0.28296 0.49518 0.27834
 C933 C 0.26814 0.48452 0.26404
 C934 C 0.26905 0.46304 0.26150
 C935 C 0.25327 0.45286 0.24822
 C936 C 0.23712 0.46355 0.23626
 H937 H 0.20644 0.52534 0.21992
 H938 H 0.20706 0.48897 0.21748
 H939 H 0.29403 0.52364 0.29168
 H940 H 0.29503 0.48724 0.28858
 H941 H 0.25021 0.57666 0.25805
 H942 H 0.25448 0.43646 0.24577
 C943 C 0.73672 0.95033 0.75808
 C944 C 0.75046 0.94092 0.74168
 C945 C 0.76334 0.95245 0.72634
 C946 C 0.76145 0.97402 0.72646
 C947 C 0.74740 0.98370 0.74284
 C948 C 0.73471 0.97182 0.75839
 C949 C 0.72034 0.98174 0.77389
 C950 C 0.71933 1.00296 0.77501
 C951 C 0.73289 1.01508 0.76093
 C952 C 0.74673 1.00534 0.74438
 C953 C 0.77332 0.98621 0.71070
 C954 C 0.77323 1.00736 0.71275
 C955 C 0.76063 1.01717 0.73008
 C956 C 0.76156 1.03851 0.73337
 C957 C 0.74716 1.04805 0.74890
 C958 C 0.73301 1.03665 0.76293
 H959 H 0.70964 0.97316 0.78526
 H960 H 0.70790 1.00975 0.78716
 H961 H 0.78295 0.97952 0.69670
 H962 H 0.78300 1.01602 0.70048
 H963 H 0.75261 0.92451 0.74241
 H964 H 0.74829 1.06442 0.75167
 C965 C 0.74079 0.54912 0.27148
 C966 C 0.75736 0.55917 0.25950
 C967 C 0.77356 0.54832 0.24765
 C968 C 0.77404 0.52671 0.24900
 C969 C 0.75772 0.51631 0.26171
 C970 C 0.74108 0.52754 0.27300
 C971 C 0.72512 0.51690 0.28555
 C972 C 0.72490 0.49571 0.28611
 C973 C 0.74113 0.48422 0.27499
 C974 C 0.75773 0.49458 0.26268
 C975 C 0.79041 0.51523 0.23807
 C976 C 0.79049 0.49396 0.23912
 C977 C 0.77432 0.48329 0.25135
 C978 C 0.77401 0.46164 0.25221
 C979 C 0.75706 0.45168 0.26378
 C980 C 0.74101 0.46262 0.27568
 H981 H 0.71258 0.52484 0.29514
 H982 H 0.71165 0.48848 0.29523
 H983 H 0.80342 0.52262 0.22867
 H984 H 0.80325 0.48596 0.22996
 H985 H 0.75653 0.57561 0.25757
 H986 H 0.75716 0.43516 0.26494
 C987 C 0.26153 -0.04632 0.75929
 C988 C 0.24544 -0.05710 0.74711
 C989 C 0.22863 -0.04691 0.73565
 C990 C 0.22845 -0.02527 0.73539
 C991 C 0.24397 -0.01422 0.74873
 C992 C 0.26031 -0.02478 0.76112
 C993 C 0.27480 -0.01355 0.77531
 C994 C 0.27383 0.00764 0.77651
 C995 C 0.25811 0.01847 0.76386
 C996 C 0.24309 0.00746 0.74976
 C997 C 0.21343 -0.01436 0.72177
 C998 C 0.21277 0.00685 0.72247
 C999 C 0.22704 0.01806 0.73690
 C1000 C 0.22606 0.03960 0.73834
 C1001 C 0.24145 0.05028 0.75169
 C1002 C 0.25711 0.04002 0.76483
 H1003 H 0.28689 -0.02099 0.78599
 H1004 H 0.28567 0.01543 0.78736
 H1005 H 0.20227 -0.02210 0.71002
 H1006 H 0.20107 0.01438 0.71132
 H1007 H 0.24597 -0.07364 0.74665
 H1008 H 0.24033 0.06677 0.75315
 C1009 C 0.24309 0.26409 1.04427
 C1010 C 0.25646 0.25045 1.05650
 C1011 C 0.26885 0.23600 1.04413
 C1012 C 0.26948 0.23667 1.01900
 C1013 C 0.25440 0.24879 1.00669
 C1014 C 0.24041 0.26180 1.01944
 C1015 C 0.22397 0.27197 1.00706
 C1016 C 0.22167 0.26963 0.98257
 C1017 C 0.23637 0.25783 0.96944
 C1018 C 0.25331 0.24790 0.98156
 C1019 C 0.28490 0.22571 1.00587
 C1020 C 0.28499 0.22621 0.98114
 C1021 C 0.26916 0.23707 0.96863
 C1022 C 0.26859 0.23719 0.94354
 C1023 C 0.25112 0.24607 0.93181
 C1024 C 0.23477 0.25589 0.94450
 H1025 H 0.21232 0.28133 1.01633
 H1026 H 0.20862 0.27761 0.97393
 H1027 H 0.29741 0.21710 1.01463
 H1028 H 0.29722 0.21752 0.97193
 H1029 H 0.25719 0.25108 1.07572
 H1030 H 0.25029 0.24540 0.91257
 C1031 C 0.26526 0.74076 0.45626
 C1032 C 0.24864 0.75151 0.44522
 C1033 C 0.23227 0.76071 0.45850
 C1034 C 0.23265 0.75962 0.48357
 C1035 C 0.24898 0.74824 0.49498
 C1036 C 0.26527 0.73864 0.48129
 C1037 C 0.28087 0.72686 0.49297
 C1038 C 0.28029 0.72432 0.51750
 C1039 C 0.26418 0.73357 0.53136
 C1040 C 0.24886 0.74624 0.52011
 C1041 C 0.21729 0.76985 0.49755
 C1042 C 0.21760 0.76844 0.52221
 C1043 C 0.23300 0.75640 0.53385
 C1044 C 0.23297 0.75427 0.55885
 C1045 C 0.24807 0.74153 0.56970
 C1046 C 0.26296 0.73042 0.55619
 H1047 H 0.29346 0.71913 0.48320
 H1048 H 0.29277 0.71518 0.52555
 H1049 H 0.20503 0.77931 0.48958
 H1050 H 0.20556 0.77686 0.53206
 H1051 H 0.24844 0.75273 0.42601
 H1052 H 0.24692 0.73885 0.58865
 C1053 C 0.22510 0.73452 0.04277
 C1054 C 0.23365 0.75065 0.05622
 C1055 C 0.24456 0.76680 0.04545
 C1056 C 0.24803 0.76654 0.02065
 C1057 C 0.24009 0.75002 0.00683
 C1058 C 0.22843 0.73402 0.01787
 C1059 C 0.22070 0.71782 0.00376
 C1060 C 0.22408 0.71747 -0.02067
 C1061 C 0.23583 0.73301 -0.03194
 C1062 C 0.24381 0.74950 -0.01809
 C1063 C 0.25951 0.78225 0.00937
 C1064 C 0.26331 0.78163 -0.01497
 C1065 C 0.25589 0.76525 -0.02900
 C1066 C 0.26019 0.76427 -0.05368
 C1067 C 0.25142 0.74835 -0.06730
 C1068 C 0.23975 0.73255 -0.05671
 H1069 H 0.21210 0.70512 0.01147
 H1070 H 0.21734 0.70480 -0.03062
 H1071 H 0.26586 0.79511 0.01930
 H1072 H 0.27201 0.79427 -0.02271
 H1073 H 0.23070 0.75128 0.07520
 H1074 H 0.25518 0.74736 -0.08609
 C1075 C 0.24472 0.23639 0.55187
 C1076 C 0.25433 0.25298 0.56343
 C1077 C 0.26268 0.26945 0.55066
 C1078 C 0.26175 0.26925 0.52552
 C1079 C 0.25178 0.25262 0.51359
 C1080 C 0.24300 0.23626 0.52683
 C1081 C 0.23230 0.22042 0.51474
 C1082 C 0.23092 0.22024 0.49010
 C1083 C 0.24061 0.23567 0.47646
 C1084 C 0.25067 0.25228 0.48836
 C1085 C 0.27098 0.28495 0.51197
 C1086 C 0.26990 0.28463 0.48727
 C1087 C 0.25955 0.26857 0.47509
 C1088 C 0.25821 0.26818 0.44998
 C1089 C 0.24870 0.25148 0.43846
 C1090 C 0.24004 0.23520 0.45130
 H1091 H 0.22456 0.20811 0.52424
 H1092 H 0.22190 0.20794 0.48196
 H1093 H 0.27944 0.29754 0.52029
 H1094 H 0.27755 0.29700 0.47783
 H1095 H 0.25537 0.25304 0.58267
 H1096 H 0.24791 0.25121 0.41922
 C1097 C 0.74672 0.73165 0.95445
 C1098 C 0.73288 0.74615 0.94475
 C1099 C 0.72346 0.76125 0.95898
 C1100 C 0.72887 0.76271 0.98332
 C1101 C 0.74338 0.74844 0.99323
 C1102 C 0.75213 0.73270 0.97882
 C1103 C 0.76619 0.71850 0.98909
 C1104 C 0.77158 0.71974 1.01301
 C1105 C 0.76350 0.73549 1.02753
 C1106 C 0.74904 0.74981 1.01764
 C1107 C 0.72041 0.77822 0.99792
 C1108 C 0.72616 0.77971 1.02179
 C1109 C 0.74051 0.76568 1.03199
 C1110 C 0.74650 0.76707 1.05620
 C1111 C 0.76047 0.75261 1.06586
 C1112 C 0.76942 0.73719 1.05171
 H1113 H 0.77331 0.70632 0.97872
 H1114 H 0.78211 0.70809 1.01999
 H1115 H 0.70944 0.78950 0.99093
 H1116 H 0.71916 0.79193 1.03222
 H1117 H 0.72832 0.74488 0.92619
 H1118 H 0.76552 0.75417 1.08424
 C1119 C 0.76153 0.23557 0.44267
 C1120 C 0.74939 0.25011 0.43037
 C1121 C 0.73551 0.26334 0.44245
 C1122 C 0.73282 0.26145 0.46727
 C1123 C 0.74465 0.24658 0.47984
 C1124 C 0.75869 0.23328 0.46747
 C1125 C 0.76966 0.21813 0.48028
 C1126 C 0.76756 0.21669 0.50484
 C1127 C 0.75453 0.23043 0.51759
 C1128 C 0.74310 0.24558 0.50498
 C1129 C 0.71855 0.27413 0.47988
 C1130 C 0.71751 0.27353 0.50450
 C1131 C 0.73045 0.26002 0.51748
 C1132 C 0.73084 0.26039 0.54260
 C1133 C 0.74168 0.24499 0.55484
 C1134 C 0.75297 0.22973 0.54265
 H1135 H 0.77994 0.20719 0.47139
 H1136 H 0.77677 0.20502 0.51378
 H1137 H 0.70812 0.28477 0.47084
 H1138 H 0.70626 0.28366 0.51323
 H1139 H 0.75227 0.25243 0.41157
 H1140 H 0.74139 0.24490 0.57410
 C1141 C 0.73801 0.23913 -0.04826
 C1142 C 0.74997 0.25391 -0.06040
 C1143 C 0.76070 0.26963 -0.04813
 C1144 C 0.75815 0.27147 -0.02315
 C1145 C 0.74605 0.25666 -0.01067
 C1146 C 0.73583 0.24055 -0.02327
 C1147 C 0.72359 0.22625 -0.01052
 C1148 C 0.72288 0.22675 0.01415
 C1149 C 0.73412 0.24176 0.02712
 C1150 C 0.74484 0.25748 0.01458
 C1151 C 0.76753 0.28769 -0.01028
 C1152 C 0.76580 0.28883 0.01439
 C1153 C 0.75475 0.27373 0.02723
 C1154 C 0.75378 0.27415 0.05240
 C1155 C 0.74414 0.25791 0.06455
 C1156 C 0.73469 0.24155 0.05228
 H1157 H 0.71445 0.21443 -0.01949
 H1158 H 0.71321 0.21532 0.02294
 H1159 H 0.77623 0.29973 -0.01921
 H1160 H 0.77368 0.30146 0.02334
 H1161 H 0.75258 0.25204 -0.07933
 H1162 H 0.74425 0.25790 0.08381
 C1163 C 0.76906 0.76199 0.45230
 C1164 C 0.75227 0.75309 0.43931
 C1165 C 0.73591 0.74212 0.45052
 C1166 C 0.73633 0.73968 0.47546
 C1167 C 0.75308 0.74883 0.48895
 C1168 C 0.76943 0.76016 0.47737
 C1169 C 0.78542 0.76971 0.49121
 C1170 C 0.78578 0.76761 0.51580
 C1171 C 0.77009 0.75599 0.52760
 C1172 C 0.75343 0.74672 0.51409
 C1173 C 0.72071 0.72795 0.48721
 C1174 C 0.72116 0.72575 0.51178
 C1175 C 0.73706 0.73541 0.52566
 C1176 C 0.73724 0.73378 0.55076
 C1177 C 0.75390 0.74287 0.56381
 C1178 C 0.77032 0.75380 0.55260
 H1179 H 0.79768 0.77918 0.48324
 H1180 H 0.79838 0.77547 0.52549
 H1181 H 0.70812 0.72013 0.47748
 H1182 H 0.70898 0.71617 0.51970
 H1183 H 0.75193 0.75466 0.42015
 H1184 H 0.75401 0.74160 0.58301
 C1185 C 0.96267 0.27011 0.23041
 C1186 C 0.95143 0.25398 0.24094
 C1187 C 0.96224 0.23775 0.25169
 C1188 C 0.98495 0.23801 0.25318
 C1189 C 0.99660 0.25448 0.24321
 C1190 C 0.98544 0.27063 0.23187
 C1191 C 0.99734 0.28700 0.22260
 C1192 C 1.01974 0.28720 0.22374
 C1193 C 1.03117 0.27090 0.23389
 C1194 C 1.01949 0.25456 0.24412
 C1195 C 0.99628 0.22236 0.26470
 C1196 C 1.01865 0.22242 0.26557
 C1197 C 1.03063 0.23809 0.25487
 C1198 C 1.05343 0.23789 0.25498
 C1199 C 1.06466 0.25441 0.24534
 C1200 C 1.05396 0.27063 0.23434
 H1201 H 0.98942 0.29997 0.21466
 H1202 H 1.02798 0.30042 0.21674
 H1203 H 0.98794 0.20997 0.27340
 H1204 H 1.02644 0.21015 0.27501
 H1205 H 0.93408 0.25323 0.23910
 H1206 H 1.08208 0.25386 0.24476
 C1207 C 0.46043 0.25358 0.72701
 C1208 C 0.44838 0.23625 0.73275
 C1209 C 0.45821 0.21832 0.74070
 C1210 C 0.48082 0.21772 0.74359
 C1211 C 0.49333 0.23497 0.73726
 C1212 C 0.48316 0.25271 0.72824
 C1213 C 0.49602 0.26899 0.72041
 C1214 C 0.51826 0.26852 0.72294
 C1215 C 0.52853 0.25184 0.73368
 C1216 C 0.51602 0.23471 0.74048
 C1217 C 0.49120 0.20062 0.75332
 C1218 C 0.51338 0.20057 0.75702
 C1219 C 0.52608 0.21756 0.75104
 C1220 C 0.54858 0.21786 0.75517
 C1221 C 0.56071 0.23462 0.74760
 C1222 C 0.55101 0.25169 0.73742
 H1223 H 0.48905 0.28219 0.71192
 H1224 H 0.52732 0.28140 0.71633
 H1225 H 0.48224 0.18722 0.75855
 H1226 H 0.52053 0.18698 0.76445
 H1227 H 0.43097 0.23690 0.73174
 H1228 H 0.57782 0.23511 0.75133
 C1229 C -0.04897 0.26955 0.74454
 C1230 C -0.06069 0.25238 0.73717
 C1231 C -0.05046 0.23518 0.72767
 C1232 C -0.02782 0.23522 0.72491
 C1233 C -0.01564 0.25224 0.73297
 C1234 C -0.02623 0.26945 0.74289
 C1235 C -0.01373 0.28583 0.75149
 C1236 C 0.00861 0.28555 0.74984
 C1237 C 0.01941 0.26883 0.73965
 C1238 C 0.00719 0.25192 0.73133
 C1239 C -0.01706 0.21890 0.71382
 C1240 C 0.00525 0.21861 0.71218
 C1241 C 0.01777 0.23458 0.72167
 C1242 C 0.04056 0.23389 0.72132
 C1243 C 0.05231 0.25080 0.72936
 C1244 C 0.04212 0.26824 0.73827
 H1245 H -0.02103 0.29891 0.76002
 H1246 H 0.01734 0.29847 0.75705
 H1247 H -0.02579 0.20623 0.70602
 H1248 H 0.01253 0.20579 0.70310
 H1249 H -0.07805 0.25235 0.73897
 H1250 H 0.06974 0.25027 0.72906
 C1251 C 0.45537 0.26769 0.26575
 C1252 C 0.44387 0.25109 0.25639
 C1253 C 0.45431 0.23472 0.24520
 C1254 C 0.47712 0.23424 0.24472
 C1255 C 0.48905 0.25088 0.25423
 C1256 C 0.47817 0.26761 0.26487
 C1257 C 0.49042 0.28365 0.27469
 C1258 C 0.51272 0.28406 0.27251
 C1259 C 0.52377 0.26815 0.26102
 C1260 C 0.51193 0.25096 0.25275
 C1261 C 0.48835 0.21752 0.23508
 C1262 C 0.51074 0.21741 0.23406
 C1263 C 0.52289 0.23391 0.24289
 C1264 C 0.54568 0.23404 0.24180
 C1265 C 0.55695 0.25152 0.24902
 C1266 C 0.54640 0.26866 0.25821
 H1267 H 0.48294 0.29605 0.28434
 H1268 H 0.52123 0.29681 0.28042
 H1269 H 0.47994 0.20420 0.22842
 H1270 H 0.51836 0.20435 0.22583
 H1271 H 0.42645 0.25174 0.25610
 H1272 H 0.57434 0.25177 0.24756
 C1273 C 1.04059 0.73661 0.78260
 C1274 C 1.05148 0.75335 0.77303
 C1275 C 1.04046 0.77083 0.76572
 C1276 C 1.01775 0.77145 0.76729
 C1277 C 1.00655 0.75483 0.77759
 C1278 C 1.01807 0.73763 0.78590
 C1279 C 1.00678 0.72206 0.79762
 C1280 C 0.98448 0.72248 0.79923
 C1281 C 0.97255 0.73836 0.78893
 C1282 C 0.98373 0.75515 0.77900
 C1283 C 1.00586 0.78782 0.75803
 C1284 C 0.98353 0.78811 0.75935
 C1285 C 0.97213 0.77198 0.76989
 C1286 C 0.94940 0.77183 0.77069
 C1287 C 0.93857 0.75483 0.77968
 C1288 C 0.94978 0.73798 0.78847
 H1289 H 1.01509 0.70945 0.80586
 H1290 H 0.97671 0.71021 0.80873
 H1291 H 1.01358 0.80039 0.74905
 H1292 H 0.97531 0.80095 0.75151
 H1293 H 1.06878 0.75263 0.77078
 H1294 H 0.92114 0.75452 0.77918
 C1295 C 0.54501 0.73305 0.24174
 C1296 C 0.55559 0.75002 0.23225
 C1297 C 0.54410 0.76617 0.22216
 C1298 C 0.52144 0.76483 0.22026
 C1299 C 0.51047 0.74830 0.23097
 C1300 C 0.52226 0.73261 0.24226
 C1301 C 0.51101 0.71724 0.25438
 C1302 C 0.48865 0.71694 0.25475
 C1303 C 0.47661 0.73166 0.24246
 C1304 C 0.48763 0.74753 0.23052
 C1305 C 0.50946 0.77943 0.20769
 C1306 C 0.48714 0.77828 0.20653
 C1307 C 0.47589 0.76254 0.21798
 C1308 C 0.45318 0.76152 0.21734
 C1309 C 0.44246 0.74631 0.23010
 C1310 C 0.45386 0.73120 0.24222
 H1311 H 0.51936 0.70558 0.26429
 H1312 H 0.48095 0.70507 0.26497
 H1313 H 0.51724 0.79174 0.19825
 H1314 H 0.47877 0.79010 0.19687
 H1315 H 0.57300 0.75075 0.23298
 H1316 H 0.42506 0.74539 0.22921
 C1317 C 0.04583 0.77903 0.25995
 C1318 C 0.05836 0.76172 0.25541
 C1319 C 0.04903 0.74328 0.24830
 C1320 C 0.02660 0.74208 0.24471
 C1321 C 0.01362 0.75939 0.24944
 C1322 C 0.02321 0.77786 0.25747
 C1323 C 0.00988 0.79437 0.26349
 C1324 C -0.01237 0.79293 0.26111
 C1325 C -0.02215 0.77515 0.25192
 C1326 C -0.00901 0.75818 0.24619
 C1327 C 0.01684 0.72409 0.23623
 C1328 C -0.00521 0.72302 0.23273
 C1329 C -0.01843 0.73998 0.23719
 C1330 C -0.04084 0.73907 0.23307
 C1331 C -0.05375 0.75559 0.23977
 C1332 C -0.04472 0.77361 0.24888
 H1333 H 0.01649 0.80844 0.27055
 H1334 H -0.02177 0.80595 0.26673
 H1335 H 0.02614 0.71064 0.23194
 H1336 H -0.01181 0.70858 0.22677
 H1337 H 0.07567 0.76253 0.25765
 H1338 H -0.07094 0.75488 0.23656
 C1339 C 0.45280 0.77522 0.75008
 C1340 C 0.44133 0.75761 0.74382
 C1341 C 0.45186 0.73962 0.73731
 C1342 C 0.47457 0.73930 0.73620
 C1343 C 0.48644 0.75683 0.74317
 C1344 C 0.47556 0.77489 0.75017
 C1345 C 0.48775 0.79180 0.75790
 C1346 C 0.51010 0.79122 0.75798
 C1347 C 0.52117 0.77358 0.75080
 C1348 C 0.50926 0.75613 0.74364
 C1349 C 0.48571 0.72202 0.72796
 C1350 C 0.50802 0.72131 0.72848
 C1351 C 0.52010 0.73789 0.73719
 C1352 C 0.54275 0.73696 0.73901
 C1353 C 0.55427 0.75439 0.74581
 C1354 C 0.54385 0.77268 0.75136
 H1355 H 0.48022 0.80558 0.76440
 H1356 H 0.51859 0.80464 0.76426
 H1357 H 0.47731 0.70887 0.72083
 H1358 H 0.51565 0.70766 0.72172
 H1359 H 0.42390 0.75776 0.74462
 H1360 H 0.57168 0.75372 0.74687
 N1361 N 0.44668 0.30488 0.26544
 N1362 N 0.43183 0.31724 0.27402
 C1363 C 0.41815 0.30637 0.28756
 C1364 C 0.42462 0.28610 0.28759
 C1365 C 0.44297 0.28588 0.27349
 H1366 H 0.41690 0.27331 0.29618
 H1367 H 0.45873 0.30936 0.25364
 H1368 H 0.43099 0.33280 0.27023
 N1369 N 0.44276 0.81217 0.74890
 N1370 N 0.42807 0.82479 0.76053
 C1371 C 0.41696 0.81312 0.77592
 C1372 C 0.42416 0.79315 0.77454
 C1373 C 0.44036 0.79325 0.75770
 H1374 H 0.41848 0.78015 0.78454
 H1375 H 0.45327 0.81679 0.73550
 H1376 H 0.42619 0.84036 0.75730
 N1377 N -0.05940 0.30635 0.74446
 N1378 N -0.07345 0.31831 0.75524
 C1379 C -0.08446 0.30720 0.77124
 C1380 C -0.07715 0.28724 0.77057
 C1381 C -0.06114 0.28741 0.75342
 H1382 H -0.08284 0.27437 0.78078
 H1383 H -0.04915 0.31104 0.73085
 H1384 H -0.07547 0.33378 0.75148
 N1385 N -0.05776 0.80963 0.24561
 N1386 N -0.07316 0.82100 0.25492
 C1387 C -0.08490 0.80935 0.26973
 C1388 C -0.07674 0.78973 0.26976
 C1389 C -0.05938 0.79064 0.25450
 H1390 H -0.08223 0.77674 0.27991
 H1391 H -0.04636 0.81485 0.23345
 H1392 H -0.07543 0.83645 0.25121
 N1393 N 0.55553 0.69631 0.24358
 N1394 N 0.57026 0.68504 0.25413
 C1395 C 0.58254 0.69725 0.26792
 C1396 C 0.57543 0.71720 0.26596
 C1397 C 0.55816 0.71588 0.25048
 H1398 H 0.58182 0.73073 0.27457
 H1399 H 0.54406 0.69068 0.23164
 H1400 H 0.57177 0.66928 0.25186
 N1401 N 0.55336 0.19821 0.79256
 N1402 N 0.56930 0.18895 0.80366
 C1403 C 0.58595 0.18702 0.78859
 C1404 C 0.58048 0.19551 0.76698
 C1405 C 0.55962 0.20258 0.77023
 H1406 H 0.59098 0.19822 0.75201
 H1407 H 0.53920 0.20299 0.80083
 H1408 H 0.56917 0.18511 0.82164
 N1409 N 1.04708 0.69911 0.77881
 N1410 N 1.06266 0.68603 0.78336
 C1411 C 1.07882 0.69607 0.79431
 C1412 C 1.07331 0.71644 0.79688
 C1413 C 1.05297 0.71770 0.78692
 H1414 H 1.08297 0.72871 0.80419
 H1415 H 1.03305 0.69544 0.76948
 H1416 H 1.06230 0.67063 0.77851
 N1417 N 1.06256 0.20071 0.25417
 N1418 N 1.07822 0.18871 0.26160
 C1419 C 1.09216 0.19989 0.27463
 C1420 C 1.08504 0.21994 0.27552
 C1421 C 1.06610 0.21980 0.26239
 H1422 H 1.09285 0.23292 0.28383
 H1423 H 1.05015 0.19600 0.24288
 H1424 H 1.07940 0.17320 0.25744
 N1425 N 0.56113 0.28834 0.74287
 N1426 N 0.57745 0.30041 0.73755
 C1427 C 0.59171 0.28971 0.72449
 C1428 C 0.58419 0.26997 0.72139
 C1429 C 0.56468 0.26979 0.73321
 H1430 H 0.59195 0.25741 0.71226
 H1431 H 0.54812 0.29263 0.75348
 H1432 H 0.57876 0.31563 0.74295
 N1433 N 0.55034 0.80378 0.22223
 N1434 N 0.56522 0.81675 0.21509
 C1435 C 0.58079 0.80626 0.20377
 C1436 C 0.57561 0.78569 0.20368
 C1437 C 0.55605 0.78480 0.21544
 H1438 H 0.58493 0.77312 0.19658
 H1439 H 0.53686 0.80787 0.23222
 H1440 H 0.56477 0.83245 0.21836
 N1441 N 1.06440 0.28912 0.19755
 N1442 N 1.08133 0.29913 0.18955
 C1443 C 1.09518 0.30215 0.20762
 C1444 C 1.08683 0.29356 0.22802
 C1445 C 1.06719 0.28542 0.22088
 H1446 H 1.09479 0.29174 0.24498
 H1447 H 1.05198 0.28361 0.18676
 H1448 H 1.08386 0.30281 0.17174
 N1449 N 1.05185 0.80742 0.76313
 N1450 N 1.06580 0.81839 0.75095
 C1451 C 1.07641 0.80593 0.73589
 C1452 C 1.06896 0.78618 0.73862
 C1453 C 1.05324 0.78783 0.75589
 H1454 H 1.07416 0.77253 0.72936
 H1455 H 1.04180 0.81325 0.77637
 H1456 H 1.06805 0.83409 0.75315
 N1457 N 0.44261 0.70313 0.74463
 N1458 N 0.42732 0.69008 0.73868
 C1459 C 0.41336 0.69949 0.72410
 C1460 C 0.42000 0.71943 0.72061
 C1461 C 0.43876 0.72102 0.73378
 H1462 H 0.41225 0.73114 0.71019
 H1463 H 0.45517 0.69990 0.75635
 H1464 H 0.42644 0.67509 0.74483
 N1465 N 0.44440 0.21589 0.20811
 N1466 N 0.42754 0.20607 0.19945
 C1467 C 0.41295 0.20371 0.21684
 C1468 C 0.42077 0.21257 0.23754
 C1469 C 0.44090 0.22013 0.23126
 H1470 H 0.41228 0.21480 0.25412
 H1471 H 0.45733 0.22088 0.19784
 H1472 H 0.42563 0.20202 0.18159
 N1473 N -0.04287 0.71626 0.19771
 N1474 N -0.05634 0.70297 0.18820
 C1475 C -0.07296 0.70024 0.20316
 C1476 C -0.07001 0.71241 0.22315
 C1477 C -0.05062 0.72232 0.21894
 H1478 H -0.08098 0.71470 0.23784
 H1479 H -0.02913 0.72177 0.18922
 H1480 H -0.05447 0.69646 0.17136
 N1481 N -0.05980 0.19821 0.73062
 N1482 N -0.07506 0.18570 0.72312
 C1483 C -0.08913 0.19631 0.70981
 C1484 C -0.08258 0.21654 0.70887
 C1485 C -0.06377 0.21701 0.72215
 H1486 H -0.09033 0.22909 0.69986
 H1487 H -0.04708 0.19394 0.74164
 H1488 H -0.07573 0.17019 0.72719
 N1489 N 0.30809 0.45470 0.26558
 N1490 N 0.31996 0.43987 0.27444
 C1491 C 0.30690 0.42636 0.28520
 C1492 C 0.28580 0.43280 0.28305
 C1493 C 0.28728 0.45089 0.27059
 H1494 H 0.27137 0.42520 0.28915
 H1495 H 0.31413 0.46687 0.25570
 H1496 H 0.33667 0.43900 0.27289
 N1497 N 0.30064 -0.05258 0.76448
 N1498 N 0.31369 -0.06687 0.77558
 C1499 C 0.30078 -0.08068 0.78611
 C1500 C 0.27940 -0.07557 0.78208
 C1501 C 0.28007 -0.05779 0.76872
 H1502 H 0.26521 -0.08368 0.78797
 H1503 H 0.30617 -0.04041 0.75424
 H1504 H 0.33047 -0.06661 0.77514
 N1505 N 0.79906 0.44807 0.76614
 N1506 N 0.81242 0.43304 0.77530
 C1507 C 0.79998 0.41946 0.78688
 C1508 C 0.77856 0.42553 0.78546
 C1509 C 0.77873 0.44354 0.77241
 H1510 H 0.76461 0.41757 0.79225
 H1511 H 0.80411 0.45991 0.75511
 H1512 H 0.82905 0.43262 0.77287
 N1513 N 0.80104 -0.04731 0.28322
 N1514 N 0.81445 -0.06283 0.29115
 C1515 C 0.80206 -0.07704 0.30173
 C1516 C 0.78068 -0.07084 0.30104
 C1517 C 0.78073 -0.05218 0.28927
 H1518 H 0.76678 -0.07926 0.30716
 H1519 H 0.80600 -0.03513 0.27267
 H1520 H 0.83103 -0.06326 0.28833
 N1521 N 0.30538 0.54645 0.74452
 N1522 N 0.31763 0.56136 0.73646
 C1523 C 0.30628 0.57216 0.72050
 C1524 C 0.28593 0.56381 0.71826
 C1525 C 0.28602 0.54752 0.73385
 H1526 H 0.27256 0.56952 0.70794
 H1527 H 0.30991 0.53641 0.75797
 H1528 H 0.33324 0.56438 0.74238
 N1529 N 0.28199 1.05070 0.19880
 N1530 N 0.29220 1.06557 0.18776
 C1531 C 0.29868 1.07954 0.20392
 C1532 C 0.29229 1.07327 0.22633
 C1533 C 0.28178 1.05481 0.22226
 H1534 H 0.29412 1.08139 0.24300
 H1535 H 0.27452 1.03841 0.19020
 H1536 H 0.29418 1.06627 0.16937
 N1537 N 0.78816 0.55605 0.20759
 N1538 N 0.79699 0.57182 0.19680
 C1539 C 0.80225 0.58598 0.21322
 C1540 C 0.79646 0.57901 0.23547
 C1541 C 0.78743 0.55992 0.23112
 H1542 H 0.79669 0.58746 0.25205
 H1543 H 0.78123 0.54362 0.19874
 H1544 H 0.79840 0.57323 0.17840
 N1545 N 0.80044 1.04605 0.72741
 N1546 N 0.81243 1.06104 0.71910
 C1547 C 0.79937 1.07546 0.71020
 C1548 C 0.77816 1.06951 0.71304
 C1549 C 0.77958 1.05071 0.72394
 H1550 H 0.76376 1.07784 0.70838
 H1551 H 0.80648 1.03315 0.73595
 H1552 H 0.82922 1.06135 0.71969
 N1553 N 0.70162 0.55706 0.27224
 N1554 N 0.68887 0.57188 0.27955
 C1555 C 0.70076 0.58606 0.29102
 C1556 C 0.72213 0.57997 0.29100
 C1557 C 0.72192 0.56135 0.27902
 H1558 H 0.73591 0.58817 0.29797
 H1559 H 0.69653 0.54461 0.26200
 H1560 H 0.67235 0.57233 0.27628
 N1561 N 0.72453 1.04389 0.80524
 N1562 N 0.71504 1.05970 0.81810
 C1563 C 0.70617 1.07270 0.80243
 C1564 C 0.70966 1.06554 0.77947
 C1565 C 0.72135 1.04760 0.78201
 H1566 H 0.70568 1.07311 0.76301
 H1567 H 0.73412 1.03245 0.81254
 H1568 H 0.71557 1.06113 0.83657
 N1569 N 0.19227 0.54644 0.75459
 N1570 N 0.18005 0.56141 0.76272
 C1571 C 0.19184 0.57303 0.77769
 C1572 C 0.21243 0.56522 0.77910
 C1573 C 0.21202 0.54837 0.76422
 H1574 H 0.22601 0.57130 0.78889
 H1575 H 0.18733 0.53550 0.74216
 H1576 H 0.16403 0.56369 0.75784
 N1577 N 0.22841 1.05157 0.31079
 N1578 N 0.21617 1.06548 0.32102
 C1579 C 0.20810 1.07782 0.30416
 C1580 C 0.21558 1.07148 0.28211
 C1581 C 0.22833 1.05464 0.28717
 H1582 H 0.21270 1.07841 0.26500
 H1583 H 0.23713 1.04052 0.31999
 H1584 H 0.21378 1.06660 0.33933
 N1585 N 0.71466 0.44616 0.69709
 N1586 N 0.70448 0.43121 0.68601
 C1587 C 0.69883 0.41703 0.70206
 C1588 C 0.70569 0.42319 0.72441
 C1589 C 0.71560 0.44185 0.72044
 H1590 H 0.70459 0.41488 0.74093
 H1591 H 0.72164 0.45864 0.68855
 H1592 H 0.70201 0.43059 0.66767
 N1593 N 0.68967 -0.05301 0.25395
 N1594 N 0.67866 -0.06707 0.24220
 C1595 C 0.69243 -0.07814 0.22890
 C1596 C 0.71313 -0.07092 0.23244
 C1597 C 0.71061 -0.05491 0.24835
 H1598 H 0.72791 -0.07646 0.22459
 H1599 H 0.68294 -0.04245 0.26574
 H1600 H 0.66201 -0.06891 0.24331
 N1601 N 0.22187 0.45670 0.19604
 N1602 N 0.21186 0.44168 0.18484
 C1603 C 0.20689 0.42706 0.20065
 C1604 C 0.21405 0.43303 0.22296
 C1605 C 0.22349 0.45199 0.21923
 H1606 H 0.21381 0.42425 0.23918
 H1607 H 0.22853 0.46939 0.18761
 H1608 H 0.20919 0.44122 0.16653
 N1609 N 0.18975 -0.05498 0.73050
 N1610 N 0.17771 -0.06961 0.72129
 C1611 C 0.19055 -0.08356 0.71087
 C1612 C 0.21182 -0.07752 0.71353
 C1613 C 0.21055 -0.05917 0.72599
 H1614 H 0.22612 -0.08559 0.70793
 H1615 H 0.18376 -0.04275 0.74044
 H1616 H 0.16097 -0.07009 0.72265
 N1617 N 0.25756 0.30454 0.43747
 N1618 N 0.26625 0.31605 0.42087
 C1619 C 0.27984 0.30455 0.40784
 C1620 C 0.27973 0.28477 0.41644
 C1621 C 0.26541 0.28550 0.43531
 H1622 H 0.28853 0.27170 0.40978
 H1623 H 0.24617 0.30961 0.44978
 H1624 H 0.26285 0.33152 0.41862
 N1625 N 0.29683 0.77920 -0.05684
 N1626 N 0.30834 0.78938 -0.07249
 C1627 C 0.29556 0.79461 -0.09077
 C1628 C 0.27494 0.78733 -0.08670
 C1629 C 0.27648 0.77761 -0.06489
 H1630 H 0.26122 0.78789 -0.09851
 H1631 H 0.30312 0.77257 -0.04150
 H1632 H 0.32482 0.79220 -0.07090
 N1633 N 0.79825 0.28169 -0.05403
 N1634 N 0.80994 0.29017 -0.07086
 C1635 C 0.79698 0.29538 -0.08899
 C1636 C 0.77598 0.28988 -0.08351
 C1637 C 0.77753 0.28121 -0.06104
 H1638 H 0.76188 0.29099 -0.09471
 H1639 H 0.80458 0.27544 -0.03851
 H1640 H 0.82662 0.29195 -0.07004
 N1641 N 0.80733 0.76692 0.44048
 N1642 N 0.81822 0.77696 0.42416
 C1643 C 0.80450 0.78883 0.41191
 C1644 C 0.78392 0.78621 0.42075
 C1645 C 0.78646 0.77217 0.43892
 H1646 H 0.76911 0.79271 0.41414
 H1647 H 0.81400 0.75603 0.45178
 H1648 H 0.83471 0.77530 0.42119
 N1649 N 0.72485 0.29737 0.55085
 N1650 N 0.71521 0.30887 0.56689
 C1651 C 0.70587 0.29666 0.58308
 C1652 C 0.70977 0.27645 0.57712
 C1653 C 0.72167 0.27760 0.55634
 H1654 H 0.70476 0.26288 0.58651
 H1655 H 0.73382 0.30306 0.53667
 H1656 H 0.71537 0.32480 0.56678
 N1657 N 0.74876 0.80357 1.06835
 N1658 N 0.74037 0.81576 1.08462
 C1659 C 0.72648 0.80491 1.09792
 C1660 C 0.72612 0.78485 1.08987
 C1661 C 0.74047 0.78474 1.07109
 H1662 H 0.71669 0.77222 1.09654
 H1663 H 0.75999 0.80809 1.05563
 H1664 H 0.74391 0.83129 1.08624
 N1665 N 0.23478 0.30103 1.04903
 N1666 N 0.22617 0.31338 1.06495
 C1667 C 0.21958 0.30222 1.08360
 C1668 C 0.22430 0.28181 1.07943
 C1669 C 0.23380 0.28174 1.05715
 H1670 H 0.22136 0.26893 1.09093
 H1671 H 0.24160 0.30587 1.03307
 H1672 H 0.22494 0.32917 1.06296
 N1673 N 0.19487 0.75593 0.57187
 N1674 N 0.18337 0.76487 0.58862
 C1675 C 0.19628 0.77734 0.60137
 C1676 C 0.21705 0.77618 0.59244
 C1677 C 0.21535 0.76241 0.57368
 H1678 H 0.23133 0.78387 0.59891
 H1679 H 0.18883 0.74526 0.55971
 H1680 H 0.16693 0.76243 0.59115
 N1681 N 0.27385 0.69399 0.55944
 N1682 N 0.28277 0.68187 0.57527
 C1683 C 0.28910 0.69322 0.59403
 C1684 C 0.28396 0.71350 0.59002
 C1685 C 0.27435 0.71332 0.56777
 H1686 H 0.28610 0.72637 0.60193
 H1687 H 0.26673 0.68891 0.54366
 H1688 H 0.28413 0.66607 0.57331
 N1689 N 0.27813 0.19945 1.05021
 N1690 N 0.28735 0.18791 1.06638
 C1691 C 0.29428 0.19991 1.08432
 C1692 C 0.28921 0.22008 1.07936
 C1693 C 0.27911 0.21910 1.05736
 H1694 H 0.29212 0.23344 1.09030
 H1695 H 0.27073 0.19379 1.03486
 H1696 H 0.28853 0.17205 1.06514
 N1697 N 0.80668 0.72344 1.05290
 N1698 N 0.81829 0.71128 1.06637
 C1699 C 0.80585 0.70439 1.08420
 C1700 C 0.78542 0.71261 1.08211
 C1701 C 0.78666 0.72451 1.06191
 H1702 H 0.77174 0.71047 1.09370
 H1703 H 0.81249 0.73107 1.03797
 H1704 H 0.83448 0.70794 1.06338
 N1705 N 0.75680 0.19308 0.55285
 N1706 N 0.76578 0.18201 0.56964
 C1707 C 0.77699 0.19447 0.58423
 C1708 C 0.77502 0.21440 0.57650
 C1709 C 0.76206 0.21278 0.55651
 H1710 H 0.78141 0.22812 0.58467
 H1711 H 0.74670 0.18727 0.53959
 H1712 H 0.76403 0.16621 0.57111
 N1713 N 0.69762 0.74069 0.43761
 N1714 N 0.68619 0.73227 0.42036
 C1715 C 0.69916 0.72025 0.40721
 C1716 C 0.71983 0.72114 0.41637
 C1717 C 0.71809 0.73428 0.43567
 H1718 H 0.73416 0.71377 0.40963
 H1719 H 0.69158 0.75105 0.45009
 H1720 H 0.66980 0.73484 0.41768
 N1721 N 0.73720 0.20162 -0.05547
 N1722 N 0.72799 0.18846 -0.07011
 C1723 C 0.71579 0.19878 -0.08575
 C1724 C 0.71746 0.21957 -0.08095
 C1725 C 0.73104 0.22062 -0.06140
 H1726 H 0.70964 0.23204 -0.09001
 H1727 H 0.74751 0.19760 -0.04161
 H1728 H 0.73002 0.17266 -0.06917
 N1729 N 0.24107 0.69566 -0.06759
 N1730 N 0.23292 0.68336 -0.08395
 C1731 C 0.22044 0.69440 -0.09864
 C1732 C 0.22078 0.71468 -0.09143
 C1733 C 0.23392 0.71472 -0.07154
 H1734 H 0.21240 0.72747 -0.09920
 H1735 H 0.25135 0.69102 -0.05397
 H1736 H 0.23576 0.66767 -0.08477
 N1737 N 0.23652 0.19811 0.44174
 N1738 N 0.22525 0.18632 0.42728
 C1739 C 0.21257 0.19819 0.41371
 C1740 C 0.21599 0.21848 0.41972
 C1741 C 0.23107 0.21768 0.43788
 H1742 H 0.20834 0.23184 0.41233
 H1743 H 0.24781 0.19276 0.45396
 H1744 H 0.22648 0.17044 0.42670
 N1745 N 0.30947 0.44027 0.75528
 N1746 N 0.32212 0.42609 0.74607
 C1747 C 0.31026 0.41403 0.73168
 C1748 C 0.28915 0.42069 0.73184
 C1749 C 0.28938 0.43741 0.74688
 H1750 H 0.27552 0.41436 0.72234
 H1751 H 0.31451 0.45156 0.76723
 H1752 H 0.33857 0.42487 0.74953
 N1753 N 0.31225 0.94600 0.23776
 N1754 N 0.32258 0.93071 0.22748
 C1755 C 0.30816 0.91883 0.21604
 C1756 C 0.28778 0.92684 0.21921
 C1757 C 0.29109 0.94409 0.23309
 H1758 H 0.27259 0.92047 0.21333
 H1759 H 0.31950 0.95700 0.24865
 H1760 H 0.33914 0.92833 0.22867
 N1761 N 0.81241 0.45038 0.25007
 N1762 N 0.82339 0.43479 0.24130
 C1763 C 0.80997 0.42298 0.22837
 C1764 C 0.78954 0.43140 0.22899
 C1765 C 0.79178 0.44881 0.24291
 H1766 H 0.77492 0.42528 0.22128
 H1767 H 0.81880 0.46141 0.26156
 H1768 H 0.83971 0.43221 0.24446
 N1769 N 0.80171 0.94833 0.71462
 N1770 N 0.81415 0.93418 0.70521
 C1771 C 0.80187 0.91827 0.69830
 C1772 C 0.78052 0.92254 0.70342
 C1773 C 0.78112 0.94189 0.71375
 H1774 H 0.76680 0.91247 0.70155
 H1775 H 0.80751 0.96158 0.72283
 H1776 H 0.83091 0.93516 0.70454
 N1777 N 0.68778 0.54954 0.73067
 N1778 N 0.67643 0.56402 0.72038
 C1779 C 0.68993 0.57681 0.70906
 C1780 C 0.71085 0.57009 0.71221
 C1781 C 0.70875 0.55262 0.72592
 H1782 H 0.72554 0.57728 0.70619
 H1783 H 0.68124 0.53827 0.74158
 H1784 H 0.65975 0.56532 0.72175
 N1785 N 0.71756 0.04866 0.20541
 N1786 N 0.70799 0.06314 0.19308
 C1787 C 0.70232 0.07831 0.20802
 C1788 C 0.70859 0.07333 0.23089
 C1789 C 0.71824 0.05436 0.22844
 H1790 H 0.70757 0.08272 0.24673
 H1791 H 0.72453 0.03564 0.19791
 H1792 H 0.70595 0.06281 0.17467
 N1793 N 0.19509 0.55843 0.24057
 N1794 N 0.18323 0.57250 0.23024
 C1795 C 0.19625 0.58547 0.21854
 C1796 C 0.21742 0.57942 0.22157
 C1797 C 0.21590 0.56208 0.23554
 H1798 H 0.23183 0.58670 0.21494
 H1799 H 0.18900 0.54680 0.25126
 H1800 H 0.16650 0.57320 0.23152
 N1801 N 0.18722 0.04762 0.73185
 N1802 N 0.17570 0.06213 0.72180
 C1803 C 0.18919 0.07541 0.71129
 C1804 C 0.21018 0.06914 0.71483
 C1805 C 0.20821 0.05139 0.72784
 H1806 H 0.22484 0.07667 0.70931
 H1807 H 0.18078 0.03572 0.74188
 H1808 H 0.15894 0.06298 0.72245
 N1809 N 0.30608 0.55738 0.27306
 N1810 N 0.31824 0.57153 0.28305
 C1811 C 0.30555 0.58495 0.29461
 C1812 C 0.28424 0.57902 0.29188
 C1813 C 0.28535 0.56130 0.27818
 H1814 H 0.27001 0.58676 0.29829
 H1815 H 0.31193 0.54563 0.26225
 H1816 H 0.33496 0.57208 0.28147
 N1817 N 0.26986 0.05006 0.80514
 N1818 N 0.28084 0.06514 0.81502
 C1819 C 0.28881 0.07707 0.79773
 C1820 C 0.28254 0.06936 0.77582
 C1821 C 0.27051 0.05219 0.78138
 H1822 H 0.28519 0.07597 0.75849
 H1823 H 0.26124 0.03908 0.81459
 H1824 H 0.28237 0.06745 0.83332
 N1825 N 0.79867 0.55133 0.76084
 N1826 N 0.81036 0.56621 0.77016
 C1827 C 0.79745 0.57811 0.78351
 C1828 C 0.77667 0.57064 0.78259
 C1829 C 0.77817 0.55365 0.76801
 H1830 H 0.76237 0.57704 0.79064
 H1831 H 0.80455 0.54021 0.74918
 H1832 H 0.82680 0.56821 0.76720
 N1833 N 0.80256 0.05261 0.27434
 N1834 N 0.81520 0.06810 0.28005
 C1835 C 0.80301 0.08337 0.28874
 C1836 C 0.78164 0.07735 0.28859
 C1837 C 0.78206 0.05767 0.27935
 H1838 H 0.76769 0.08634 0.29332
 H1839 H 0.80785 0.03923 0.26606
 H1840 H 0.83182 0.06830 0.27741
 N1841 N 0.72356 0.45481 0.31433
 N1842 N 0.71056 0.44092 0.32329
 C1843 C 0.70434 0.42810 0.30579
 C1844 C 0.71385 0.43406 0.28465
 C1845 C 0.72587 0.45118 0.29091
 H1846 H 0.71298 0.42654 0.26751
 H1847 H 0.73130 0.46613 0.32432
 H1848 H 0.70650 0.44004 0.34125
 N1849 N 0.73167 0.94062 0.80034
 N1850 N 0.72313 0.92546 0.81248
 C1851 C 0.71337 0.91259 0.79715
 C1852 C 0.71589 0.91974 0.77421
 C1853 C 0.72754 0.93761 0.77709
 H1854 H 0.71059 0.91268 0.75779
 H1855 H 0.74071 0.95247 0.80785
 H1856 H 0.72412 0.92398 0.83091
 N1857 N 0.21632 0.44408 0.81088
 N1858 N 0.20489 0.42920 0.82035
 C1859 C 0.20066 0.41520 0.80338
 C1860 C 0.20989 0.42127 0.78222
 C1861 C 0.21975 0.43967 0.78779
 H1862 H 0.21077 0.41278 0.76570
 H1863 H 0.22271 0.45639 0.82042
 H1864 H 0.20072 0.42837 0.83828
 N1865 N 0.23557 0.94724 0.31536
 N1866 N 0.22532 0.93254 0.32666
 C1867 C 0.21596 0.92014 0.31052
 C1868 C 0.22055 0.92714 0.28789
 C1869 C 0.23305 0.94439 0.29181
 H1870 H 0.21625 0.92019 0.27105
 H1871 H 0.24481 0.95854 0.32366
 H1872 H 0.22501 0.93095 0.34511
 N1873 N 0.45318 0.29077 0.73305
 N1874 N 0.43852 0.30430 0.72688
 C1875 C 0.42428 0.29528 0.71212
 C1876 C 0.43015 0.27506 0.70873
 C1877 C 0.44871 0.27285 0.72222
 H1878 H 0.42182 0.26347 0.69847
 H1879 H 0.46556 0.29364 0.74518
 H1880 H 0.43818 0.31934 0.73310
 N1881 N 0.44264 0.77367 0.17728
 N1882 N 0.42678 0.78405 0.16755
 C1883 C 0.41428 0.79165 0.18497
 C1884 C 0.42236 0.78572 0.20680
 C1885 C 0.44039 0.77428 0.20106
 H1886 H 0.41541 0.78825 0.22418
 H1887 H 0.45419 0.76549 0.16772
 H1888 H 0.42431 0.78546 0.14928
 N1889 N 0.95387 0.28632 0.19167
 N1890 N 0.93766 0.29635 0.18209
 C1891 C 0.92346 0.30114 0.19925
 C1892 C 0.93087 0.29369 0.22076
 C1893 C 0.95028 0.28430 0.21515
 H1894 H 0.92258 0.29369 0.23765
 H1895 H 0.96650 0.27987 0.18200
 H1896 H 0.93607 0.29928 0.16395
 N1897 N 0.93708 0.80808 0.76937
 N1898 N 0.92355 0.81917 0.75678
 C1899 C 0.91411 0.80704 0.74037
 C1900 C 0.92179 0.78734 0.74273
 C1901 C 0.93639 0.78873 0.76123
 H1902 H 0.91761 0.77396 0.73234
 H1903 H 0.94657 0.81370 0.78327
 H1904 H 0.92104 0.83478 0.75935
 N1905 N 0.55563 0.30589 0.25598
 N1906 N 0.57192 0.31792 0.26184
 C1907 C 0.58673 0.30680 0.27350
 C1908 C 0.57953 0.28684 0.27515
 C1909 C 0.55968 0.28690 0.26390
 H1910 H 0.58779 0.27395 0.28286
 H1911 H 0.54236 0.31052 0.24599
 H1912 H 0.57292 0.33338 0.25758
 N1913 N 0.55828 0.80795 0.74570
 N1914 N 0.57374 0.81944 0.75486
 C1915 C 0.58270 0.80934 0.77314
 C1916 C 0.57266 0.79065 0.77568
 C1917 C 0.55731 0.79037 0.75795
 H1918 H 0.57652 0.77859 0.78803
 H1919 H 0.54909 0.81184 0.73086
 H1920 H 0.57820 0.83377 0.74846
 N1921 N 0.05561 0.30425 0.73739
 N1922 N 0.07137 0.31497 0.74718
 C1923 C 0.08191 0.30298 0.76268
 C1924 C 0.07255 0.28380 0.76269
 C1925 C 0.05591 0.28527 0.74646
 H1926 H 0.07747 0.27049 0.77260
 H1927 H 0.04523 0.30972 0.72430
 H1928 H 0.07486 0.33016 0.74314
 N1929 N 0.05696 0.81569 0.25606
 N1930 N 0.07175 0.82785 0.26550
 C1931 C 0.08156 0.81782 0.28329
 C1932 C 0.07268 0.79855 0.28525
 C1933 C 0.05720 0.79776 0.26769
 H1934 H 0.07762 0.78632 0.29688
 H1935 H 0.04766 0.81929 0.24121
 H1936 H 0.07538 0.84247 0.25939
 N1937 N 0.55078 0.69962 0.74325
 N1938 N 0.56550 0.68661 0.73561
 C1939 C 0.57943 0.69674 0.72164
 C1940 C 0.57339 0.71698 0.72032
 C1941 C 0.55505 0.71815 0.73404
 H1942 H 0.58117 0.72920 0.71071
 H1943 H 0.53831 0.69588 0.75486
 H1944 H 0.56602 0.67118 0.74014
 N1945 N 0.55617 0.19720 0.24327
 N1946 N 0.57225 0.18567 0.23582
 C1947 C 0.58527 0.19699 0.22201
 C1948 C 0.57705 0.21656 0.22049
 C1949 C 0.55852 0.21608 0.23423
 H1950 H 0.58415 0.22960 0.21174
 H1951 H 0.54447 0.19244 0.25534
 H1952 H 0.57452 0.17050 0.24081
 N1953 N 0.06106 0.70761 0.25607
 N1954 N 0.07557 0.69479 0.24765
 C1955 C 0.08721 0.70446 0.23094
 C1956 C 0.07995 0.72430 0.22871
 C1957 C 0.06322 0.72555 0.24478
 H1958 H 0.08545 0.73592 0.21655
 H1959 H 0.04971 0.70399 0.26906
 H1960 H 0.07717 0.67966 0.25309
 N1961 N 0.04846 0.19647 0.72250
 N1962 N 0.06341 0.18384 0.71465
 C1963 C 0.07763 0.19443 0.70150
 C1964 C 0.07142 0.21472 0.70090
 C1965 C 0.05269 0.21534 0.71430
 H1966 H 0.07961 0.22734 0.69246
 H1967 H 0.03605 0.19228 0.73398
 H1968 H 0.06401 0.16833 0.71877
 N1969 N 0.44442 0.69444 0.24707
 N1970 N 0.43076 0.68334 0.25947
 C1971 C 0.41892 0.69589 0.27323
 C1972 C 0.42520 0.71590 0.26935
 C1973 C 0.44155 0.71424 0.25278
 H1974 H 0.41892 0.72966 0.27745
 H1975 H 0.45538 0.68853 0.23480
 H1976 H 0.42969 0.66745 0.25842
 N1977 N 0.44426 0.18247 0.73708
 N1978 N 0.42810 0.17165 0.74575
 C1979 C 0.41739 0.18329 0.76160
 C1980 C 0.42705 0.20229 0.76300
 C1981 C 0.44402 0.20114 0.74725
 H1982 H 0.42217 0.21533 0.77357
 H1983 H 0.45489 0.17729 0.72403
 H1984 H 0.42449 0.15665 0.74077
 N1985 N 0.94216 0.70062 0.78632
 N1986 N 0.92664 0.68794 0.79239
 C1987 C 0.91146 0.69843 0.80433
 C1988 C 0.91763 0.71872 0.80606
 C1989 C 0.93732 0.71943 0.79448
 H1990 H 0.90868 0.73130 0.81368
 H1991 H 0.95531 0.69655 0.77580
 H1992 H 0.92628 0.67250 0.78772
 N1993 N 0.95226 0.20093 0.24909
 N1994 N 0.93694 0.18878 0.25705
 C1995 C 0.92417 0.19956 0.27177
 C1996 C 0.93157 0.21950 0.27318
 C1997 C 0.94947 0.21967 0.25855
 H1998 H 0.92462 0.23218 0.28287
 H1999 H 0.96403 0.19657 0.23687
 H2000 H 0.93525 0.17342 0.25229
 N2001 N 0.26437 0.30610 0.56268
 N2002 N 0.27418 0.31737 0.57893
 C2003 C 0.28789 0.30545 0.59114
 C2004 C 0.28674 0.28570 0.58236
 C2005 C 0.27164 0.28681 0.56428
 H2006 H 0.29506 0.27231 0.58873
 H2007 H 0.25241 0.31143 0.55125
 H2008 H 0.27125 0.33289 0.58172
 N2009 N 0.24239 0.80295 0.05936
 N2010 N 0.25201 0.81484 0.07517
 C2011 C 0.26713 0.80384 0.08648
 C2012 C 0.26703 0.78405 0.07767
 C2013 C 0.25116 0.78421 0.06048
 H2014 H 0.27719 0.77142 0.08277
 H2015 H 0.23007 0.80763 0.04802
 H2016 H 0.24844 0.83025 0.07782
 N2017 N 0.75498 0.31068 0.06509
 N2018 N 0.76486 0.32201 0.08126
 C2019 C 0.77886 0.31022 0.09323
 C2020 C 0.77773 0.29043 0.08442
 C2021 C 0.76238 0.29143 0.06655
 H2022 H 0.78647 0.27714 0.09041
 H2023 H 0.74305 0.31599 0.05362
 H2024 H 0.76199 0.33755 0.08397
 N2025 N 0.80853 0.75620 0.56552
 N2026 N 0.81992 0.76567 0.58205
 C2027 C 0.80674 0.77783 0.59480
 C2028 C 0.78596 0.77592 0.58610
 C2029 C 0.78789 0.76207 0.56748
 H2030 H 0.77153 0.78334 0.59246
 H2031 H 0.81478 0.74567 0.55338
 H2032 H 0.83644 0.76377 0.58443
 N2033 N 0.30349 0.73912 0.44335
 N2034 N 0.31485 0.73080 0.42604
 C2035 C 0.30178 0.71903 0.41261
 C2036 C 0.28107 0.71999 0.42168
 C2037 C 0.28293 0.73292 0.44123
 H2038 H 0.26667 0.71280 0.41475
 H2039 H 0.30965 0.74928 0.45601
 H2040 H 0.33129 0.73325 0.42352
 N2041 N 0.30679 0.23632 0.93040
 N2042 N 0.31849 0.22690 0.91415
 C2043 C 0.30585 0.21351 0.90242
 C2044 C 0.28515 0.21453 0.91140
 C2045 C 0.28650 0.22918 0.92914
 H2046 H 0.27108 0.20608 0.90565
 H2047 H 0.31254 0.24771 0.94183
 H2048 H 0.33483 0.22963 0.91128
 N2049 N 0.74756 0.69499 0.94288
 N2050 N 0.75647 0.68339 0.92639
 C2051 C 0.76839 0.69528 0.91201
 C2052 C 0.76687 0.71542 0.91955
 C2053 C 0.75357 0.71446 0.93925
 H2054 H 0.77455 0.72875 0.91208
 H2055 H 0.73760 0.68962 0.95641
 H2056 H 0.75457 0.66757 0.92533
 N2057 N 0.80026 0.22749 0.43735
 N2058 N 0.81287 0.21935 0.42105
 C2059 C 0.80058 0.21231 0.40308
 C2060 C 0.77914 0.21621 0.40807
 C2061 C 0.77969 0.22582 0.43008
 H2062 H 0.76526 0.21313 0.39699
 H2063 H 0.80578 0.23469 0.45281
 H2064 H 0.82962 0.21882 0.42224
 N2065 N 0.73097 0.30061 0.43682
 N2066 N 0.72041 0.31311 0.42278
 C2067 C 0.70969 0.30199 0.40639
 C2068 C 0.71374 0.28141 0.41002
 C2069 C 0.72712 0.28129 0.42975
 H2070 H 0.70741 0.26845 0.40026
 H2071 H 0.74050 0.30528 0.45116
 H2072 H 0.72059 0.32898 0.42462
 N2073 N 0.68557 0.77238 0.95378
 N2074 N 0.67432 0.78295 0.93820
 C2075 C 0.68804 0.79152 0.92267
 C2076 C 0.70888 0.78612 0.92842
 C2077 C 0.70657 0.77394 0.94824
 H2078 H 0.72348 0.78948 0.91873
 H2079 H 0.67887 0.76349 0.96723
 H2080 H 0.65756 0.78386 0.93796
 N2081 N 0.19602 0.25492 0.93336
 N2082 N 0.18319 0.26366 0.91772
 C2083 C 0.19459 0.27768 0.90565
 C2084 C 0.21563 0.27778 0.91374
 C2085 C 0.21580 0.26311 0.93130
 H2086 H 0.22897 0.28689 0.90745
 H2087 H 0.19140 0.24325 0.94485
 H2088 H 0.16694 0.26006 0.91546
 N2089 N 0.19373 0.76384 0.44721
 N2090 N 0.18194 0.77445 0.43220
 C2091 C 0.19476 0.78784 0.42089
 C2092 C 0.21569 0.78560 0.42888
 C2093 C 0.21427 0.77021 0.44559
 H2094 H 0.22994 0.79361 0.42301
 H2095 H 0.18786 0.75214 0.45795
 H2096 H 0.16542 0.77242 0.42975
 N2097 N 0.69867 0.72961 0.56143
 N2098 N 0.68706 0.72001 0.57748
 C2099 C 0.70012 0.70823 0.59068
 C2100 C 0.72109 0.71046 0.58271
 C2101 C 0.71939 0.72417 0.56403
 H2102 H 0.73555 0.70389 0.59012
 H2103 H 0.69254 0.74031 0.54952
 H2104 H 0.67050 0.72191 0.57959
 N2105 N 0.73366 0.20427 0.06081
 N2106 N 0.72472 0.19171 0.07616
 C2107 C 0.71274 0.20265 0.09157
 C2108 C 0.71424 0.22321 0.08580
 C2109 C 0.72750 0.22348 0.06594
 H2110 H 0.70663 0.23604 0.09455
 H2111 H 0.74396 0.19968 0.04715
 H2112 H 0.72691 0.17592 0.07597
 N2113 N 0.19013 0.71679 0.04892
 N2114 N 0.18058 0.70629 0.06586
 C2115 C 0.19507 0.70220 0.08296
 C2116 C 0.21472 0.71059 0.07676
 C2117 C 0.21087 0.71978 0.05498
 H2118 H 0.22912 0.71155 0.08752
 H2119 H 0.18216 0.72299 0.03431
 H2120 H 0.16417 0.70286 0.06619
 N2121 N 0.24645 0.20009 0.56438
 N2122 N 0.23737 0.18814 0.58029
 C2123 C 0.22275 0.19908 0.59258
 C2124 C 0.22261 0.21895 0.58428
 C2125 C 0.23788 0.21886 0.56635
 H2126 H 0.21289 0.23162 0.59035
 H2127 H 0.25844 0.19547 0.55255
 H2128 H 0.24106 0.17272 0.58244
   
