data_POSCAR
  _audit_creation_date              2014-09-24
  _audit_creation_method            'ToBaCCo'
  _symmetry_space_group_name_H-M    'P1'
  _symmetry_Int_Tables_number       1
  _symmetry_cell_setting            triclinic
  loop_
  _symmetry_equiv_pos_as_xyz
 x,y,z
_cell_length_a 31.9113
_cell_length_b 31.9096
_cell_length_c 31.9220
_cell_angle_alpha 89.782400
_cell_angle_beta 90.199600
_cell_angle_gamma 89.849700
loop_
  _atom_site_label
  _atom_site_type_symbol
  _atom_site_fract_x
  _atom_site_fract_y
  _atom_site_fract_z
C1 C 0.23810 0.95746 -0.02957
 C2 C 0.25402 0.95665 0.01197
 C3 C 0.26614 0.99439 0.03042
 C4 C 0.25533 1.03343 0.01359
 C5 C 0.23906 1.03508 -0.02776
 C6 C 0.22842 0.99693 -0.04732
 H7 H 0.21430 0.99785 -0.07821
 H8 H 0.28060 0.99319 0.06120
 C9 C 0.73025 0.45471 0.51585
 C10 C 0.73980 0.45427 0.47242
 C11 C 0.74914 0.49276 0.45273
 C12 C 0.74645 0.53133 0.47358
 C13 C 0.73745 0.53108 0.51672
 C14 C 0.72542 0.49352 0.53560
 H15 H 0.71645 0.49399 0.56830
 H16 H 0.75819 0.49286 0.42011
 C17 C 0.77237 1.01403 0.95689
 C18 C 0.76133 0.97108 0.95600
 C19 C 0.75217 0.95110 0.99425
 C20 C 0.75719 0.97103 1.03316
 C21 C 0.76840 1.01382 1.03337
 C22 C 0.78014 1.03272 0.99570
 H23 H 0.79037 1.06507 0.99620
 H24 H 0.74198 0.91876 0.99371
 C25 C 0.25650 0.47423 0.53198
 C26 C 0.24300 0.51630 0.53066
 C27 C 0.23374 0.53436 0.49191
 C28 C 0.24427 0.51523 0.45399
 C29 C 0.25782 0.47286 0.45467
 C30 C 0.26557 0.45405 0.49396
 H31 H 0.27741 0.42226 0.49485
 H32 H 0.22142 0.56604 0.49121
 C33 C 1.03223 0.24559 0.02775
 C34 C 1.03175 0.23504 -0.01532
 C35 C 0.99381 0.22235 -0.03321
 C36 C 0.95524 0.22933 -0.01366
 C37 C 0.95500 0.24022 0.02932
 C38 C 0.99356 0.24979 0.04851
 H39 H 0.99349 0.25973 0.08090
 H40 H 0.99366 0.21194 -0.06550
 C41 C 0.45611 0.75235 0.48551
 C42 C 0.45638 0.73805 0.52766
 C43 C 0.49547 0.72906 0.54638
 C44 C 0.53372 0.73822 0.52669
 C45 C 0.53286 0.75227 0.48481
 C46 C 0.49434 0.76199 0.46650
 H47 H 0.49403 0.77457 0.43491
 H48 H 0.49611 0.71636 0.57783
 C49 C 0.01376 0.74605 0.04456
 C50 C -0.02782 0.76190 0.04463
 C51 C -0.04643 0.77180 0.00560
 C52 C -0.02764 0.76128 -0.03284
 C53 C 0.01352 0.74498 -0.03200
 C54 C 0.03146 0.73428 0.00643
 H55 H 0.06246 0.72028 0.00665
 H56 H -0.07737 0.78584 0.00528
 C57 C 0.47147 0.25860 0.46872
 C58 C 0.51291 0.24308 0.47014
 C59 C 0.53084 0.23371 0.50896
 C60 C 0.51245 0.24566 0.54672
 C61 C 0.47057 0.26048 0.54606
 C62 C 0.45183 0.26869 0.50680
 H63 H 0.42048 0.28163 0.50606
 H64 H 0.56201 0.22014 0.50981
 C65 C 0.96841 0.02636 0.24431
 C66 C 0.96893 -0.01641 0.23332
 C67 C 1.00672 -0.03395 0.21992
 C68 C 1.04535 -0.01419 0.22658
 C69 C 1.04547 0.02881 0.23806
 C70 C 1.00675 0.04748 0.24832
 H71 H 1.00618 0.07979 0.25859
 H72 H 1.00675 -0.06615 0.20919
 C73 C 0.46738 0.48544 0.73717
 C74 C 0.46758 0.52861 0.74612
 C75 C 0.50636 0.54898 0.74960
 C76 C 0.54471 0.52868 0.74135
 C77 C 0.54384 0.48525 0.73200
 C78 C 0.50491 0.46607 0.72591
 H79 H 0.50422 0.43337 0.71689
 H80 H 0.50657 0.58176 0.75819
 C81 C 1.02591 0.97030 0.75476
 C82 C 0.98350 0.96964 0.76681
 C83 C 0.96457 1.00696 0.77939
 C84 C 0.98287 1.04614 0.77170
 C85 C 1.02585 1.04731 0.76042
 C86 C 1.04578 1.00923 0.75040
 H87 H 1.07804 1.00979 0.74004
 H88 H 0.93242 1.00587 0.79019
 C89 C 0.52733 0.46710 0.26070
 C90 C 0.48548 0.46900 0.24662
 C91 C 0.46808 0.50795 0.23712
 C92 C 0.48772 0.54569 0.24746
 C93 C 0.52984 0.54447 0.26187
 C94 C 0.54788 0.50489 0.27016
 H95 H 0.57933 0.50346 0.28279
 H96 H 0.43657 0.50899 0.22438
 O97 O 0.26572 0.14330 0.17402
 O98 O 0.31541 0.13261 0.23400
 O99 O 0.15777 0.18889 0.23495
 O100 O 0.14253 0.24324 0.27924
 O101 O 0.20579 0.25210 0.12540
 O102 O 0.26467 0.29997 0.11530
 O103 O 0.26348 0.31054 0.34084
 O104 O 0.21491 0.25086 0.35166
 O105 O 0.37257 0.25316 0.29274
 O106 O 0.38321 0.20126 0.23303
 O107 O 0.32332 0.35705 0.23744
 O108 O 0.26200 0.36828 0.18411
 O109 O 0.26435 0.36023 0.28958
 O110 O 0.22040 0.37367 0.23230
 O111 O 0.37347 0.30628 0.23501
 O112 O 0.38712 0.24839 0.19011
 O113 O 0.32175 0.25399 0.34256
 O114 O 0.27029 0.20879 0.35878
 O115 O 0.26500 0.19472 0.12424
 O116 O 0.30982 0.25185 0.11245
 O117 O 0.15593 0.24824 0.17617
 O118 O 0.14372 0.29535 0.23337
 O119 O 0.20939 0.13953 0.23351
 O120 O 0.26693 0.12686 0.27749
 Zr121 Zr 0.26449 0.17516 0.23200
 O122 O 0.30198 0.21136 0.27243
 Zr123 Zr 0.18955 0.24722 0.23279
 O124 O 0.22488 0.28795 0.27110
 Zr125 Zr 0.26284 0.24996 0.15894
 O126 O 0.30256 0.28811 0.19492
 Zr127 Zr 0.26533 0.25232 0.30883
 O128 O 0.22719 0.21087 0.27338
 Zr129 Zr 0.33917 0.25095 0.23567
 O130 O 0.30407 0.21243 0.19493
 Zr131 Zr 0.26546 0.32498 0.23446
 O132 O 0.22515 0.28908 0.19587
 O133 O 0.22488 0.20984 0.19346
 O134 O 0.30465 0.29089 0.27422
 C135 C 0.26576 0.15630 0.13577
 C136 C 0.17082 0.15057 0.23496
 C137 C 0.16756 0.25087 0.13782
 C138 C 0.26358 0.34896 0.32807
 C139 C 0.36017 0.25429 0.33093
 C140 C 0.36165 0.34446 0.23692
 H141 H 0.31905 0.19261 0.29041
 H142 H 0.32002 0.30533 0.17605
 H143 H 0.20705 0.19187 0.17560
 H144 H 0.20574 0.30527 0.28814
 H145 H 0.19745 0.22631 0.34430
 H146 H 0.15068 0.26209 0.30238
 H147 H 0.37908 0.26759 0.16704
 H148 H 0.33275 0.23331 0.12238
 H149 H 0.27375 0.18090 0.34594
 H150 H 0.24716 0.13485 0.29994
 H151 H 0.28940 0.36839 0.16971
 H152 H 0.24248 0.32003 0.12350
 H153 H 0.33419 0.14008 0.21053
 H154 H 0.38083 0.18462 0.25912
 H155 H 0.15277 0.31676 0.21281
 H156 H 0.19579 0.36394 0.24833
 O157 O 0.74997 0.87245 0.20542
 O158 O 0.70385 0.88361 0.26578
 O159 O 0.86032 0.82466 0.26545
 O160 O 0.87412 0.77103 0.31268
 O161 O 0.81350 0.76185 0.15852
 O162 O 0.75282 0.71539 0.14684
 O163 O 0.75414 0.70712 0.37426
 O164 O 0.80406 0.76464 0.38272
 O165 O 0.64675 0.76238 0.32518
 O166 O 0.63550 0.81535 0.26351
 O167 O 0.69234 0.65838 0.26617
 O168 O 0.75603 0.64597 0.21809
 O169 O 0.74915 0.65711 0.32385
 O170 O 0.79458 0.64027 0.26797
 O171 O 0.64278 0.70969 0.26718
 O172 O 0.62896 0.76622 0.22283
 O173 O 0.69786 0.76319 0.37508
 O174 O 0.74957 0.80889 0.38880
 O175 O 0.75390 0.82126 0.15599
 O176 O 0.70923 0.76391 0.14262
 O177 O 0.86334 0.76546 0.20962
 O178 O 0.87321 0.71797 0.26595
 O179 O 0.80903 0.87435 0.26096
 O180 O 0.75366 0.88728 0.30886
 Zr181 Zr 0.75360 0.83979 0.26282
 O182 O 0.71581 0.80438 0.30341
 Zr183 Zr 0.82816 0.76683 0.26488
 O184 O 0.79224 0.72687 0.30333
 Zr185 Zr 0.75518 0.76506 0.19044
 O186 O 0.71465 0.72754 0.22662
 Zr187 Zr 0.75294 0.76391 0.34034
 O188 O 0.79131 0.80439 0.30451
 Zr189 Zr 0.67832 0.76464 0.26718
 O190 O 0.71379 0.80257 0.22593
 Zr191 Zr 0.75085 0.69021 0.26705
 O192 O 0.79187 0.72532 0.22825
 O193 O 0.79307 0.80459 0.22491
 O194 O 0.71271 0.72507 0.30646
 C195 C 0.75118 0.85973 0.16732
 C196 C 0.84744 0.86285 0.26235
 C197 C 0.85195 0.76286 0.17122
 C198 C 0.75150 0.66888 0.36215
 C199 C 0.65956 0.76212 0.36342
 C200 C 0.65396 0.67120 0.26661
 H201 H 0.69885 0.82340 0.32094
 H202 H 0.69697 0.71063 0.20767
 H203 H 0.81070 0.82208 0.20640
 H204 H 0.81103 0.70932 0.32078
 H205 H 0.82162 0.78913 0.37532
 H206 H 0.86728 0.75009 0.33451
 H207 H 0.63891 0.75115 0.19774
 H208 H 0.68606 0.78218 0.15218
 H209 H 0.74356 0.83616 0.37536
 H210 H 0.77577 0.87982 0.32945
 H211 H 0.73083 0.64877 0.20014
 H212 H 0.77459 0.69493 0.15547
 H213 H 0.68344 0.87573 0.24377
 H214 H 0.63539 0.82975 0.29091
 H215 H 0.86287 0.69598 0.24675
 H216 H 0.81929 0.64986 0.28401
 O217 O 0.74806 0.13861 0.80610
 O218 O 0.71091 0.12314 0.74943
 O219 O 0.86018 0.19638 0.75078
 O220 O 0.87484 0.25339 0.71333
 O221 O 0.80261 0.25168 0.86298
 O222 O 0.74553 0.28788 0.87833
 O223 O 0.74569 0.30105 0.63989
 O224 O 0.78533 0.24711 0.62509
 O225 O 0.63686 0.25136 0.70019
 O226 O 0.62257 0.21204 0.75599
 O227 O 0.69654 0.36124 0.75140
 O228 O 0.75247 0.37659 0.78777
 O229 O 0.74378 0.35362 0.68774
 O230 O 0.80272 0.36358 0.74815
 O231 O 0.64437 0.31305 0.74753
 O232 O 0.63449 0.25254 0.80600
 O233 O 0.68469 0.24888 0.64760
 O234 O 0.74856 0.19495 0.63797
 O235 O 0.75100 0.18712 0.85813
 O236 O 0.69610 0.24751 0.86683
 O237 O 0.85476 0.24848 0.81458
 O238 O 0.86376 0.30266 0.75383
 O239 O 0.81202 0.14397 0.75393
 O240 O 0.75113 0.13406 0.70000
 Zr241 Zr 0.75224 0.17465 0.75224
 O242 O 0.70915 0.21014 0.71652
 Zr243 Zr 0.82369 0.24997 0.75499
 O244 O 0.78760 0.28528 0.71196
 Zr245 Zr 0.74884 0.24664 0.82687
 O246 O 0.71300 0.28934 0.79095
 Zr247 Zr 0.74496 0.24806 0.67735
 O248 O 0.78862 0.21218 0.71281
 Zr249 Zr 0.67425 0.25313 0.75304
 O250 O 0.70973 0.20985 0.78944
 Zr251 Zr 0.74949 0.32409 0.74785
 O252 O 0.78596 0.28913 0.79143
 O253 O 0.78936 0.20951 0.79242
 O254 O 0.70808 0.28971 0.71116
 C255 C 0.75019 0.14894 0.84453
 C256 C 0.85010 0.15784 0.75284
 C257 C 0.84109 0.24958 0.85271
 C258 C 0.74340 0.33958 0.64976
 C259 C 0.64671 0.25007 0.66165
 C260 C 0.65815 0.35113 0.74811
 H261 H 0.69065 0.19094 0.70077
 H262 H 0.69698 0.30795 0.80979
 H263 H 0.80743 0.19170 0.81039
 H264 H 0.80628 0.30139 0.69322
 H265 H 0.81394 0.25105 0.63635
 H266 H 0.86438 0.24286 0.68614
 H267 H 0.63008 0.28188 0.81493
 H268 H 0.68199 0.22006 0.86392
 H269 H 0.72008 0.18298 0.63549
 H270 H 0.77851 0.13680 0.68574
 H271 H 0.75099 0.36532 0.81661
 H272 H 0.75411 0.31565 0.86755
 H273 H 0.68356 0.13358 0.75959
 H274 H 0.63372 0.18379 0.74994
 H275 H 0.86064 0.31709 0.78106
 H276 H 0.81094 0.36877 0.71872
 O277 O 0.23690 0.84450 0.81023
 O278 O 0.28335 0.85653 0.74935
 O279 O 0.12661 0.79637 0.74619
 O280 O 0.11301 0.74299 0.70276
 O281 O 0.17508 0.73668 0.85643
 O282 O 0.23504 0.68798 0.86803
 O283 O 0.23640 0.67777 0.64297
 O284 O 0.18433 0.73569 0.63228
 O285 O 0.34151 0.73749 0.68905
 O286 O 0.35325 0.78616 0.75252
 O287 O 0.29317 0.62929 0.75003
 O288 O 0.23204 0.61889 0.79916
 O289 O 0.23668 0.62807 0.69432
 O290 O 0.19031 0.61506 0.75161
 O291 O 0.34309 0.67996 0.74649
 O292 O 0.35970 0.73598 0.79097
 O293 O 0.29041 0.73476 0.63933
 O294 O 0.23883 0.77997 0.62525
 O295 O 0.23406 0.79334 0.86001
 O296 O 0.27945 0.73688 0.87195
 O297 O 0.12540 0.73821 0.80497
 O298 O 0.11578 0.69001 0.74875
 O299 O 0.17736 0.84626 0.75097
 O300 O 0.23500 0.86095 0.70648
 Zr301 Zr 0.23399 0.81251 0.75186
 O302 O 0.27185 0.77663 0.71132
 Zr303 Zr 0.15995 0.73946 0.74969
 O304 O 0.19564 0.69927 0.71175
 Zr305 Zr 0.23301 0.73818 0.82460
 O306 O 0.27314 0.70018 0.78874
 Zr307 Zr 0.23546 0.73571 0.67464
 O308 O 0.19711 0.77670 0.70999
 Zr309 Zr 0.30960 0.73658 0.74743
 O310 O 0.27431 0.77514 0.78852
 Zr311 Zr 0.23618 0.66281 0.74946
 O312 O 0.19580 0.69853 0.78771
 O313 O 0.19457 0.77759 0.78962
 O314 O 0.27505 0.69675 0.70928
 C315 C 0.23618 0.83181 0.84869
 C316 C 0.13901 0.83460 0.74785
 C317 C 0.13688 0.73692 0.84334
 C318 C 0.23694 0.63955 0.65595
 C319 C 0.32883 0.73610 0.65066
 C320 C 0.33139 0.64158 0.74826
 H321 H 0.28861 0.79568 0.69357
 H322 H 0.29088 0.68319 0.80777
 H323 H 0.17674 0.79560 0.80740
 H324 H 0.17689 0.68182 0.69438
 H325 H 0.16677 0.76040 0.63906
 H326 H 0.12066 0.72323 0.68023
 H327 H 0.34948 0.72178 0.81653
 H328 H 0.30276 0.75454 0.86169
 H329 H 0.24236 0.80768 0.63844
 H330 H 0.21445 0.85321 0.68455
 H331 H 0.25691 0.62247 0.81738
 H332 H 0.21186 0.66880 0.86062
 H333 H 0.30379 0.84827 0.77129
 H334 H 0.35046 0.80385 0.72714
 H335 H 0.12511 0.66908 0.76980
 H336 H 0.16790 0.62266 0.73147
 O337 O 0.24864 0.37591 0.70771
 O338 O 0.19935 0.38650 0.76598
 O339 O 0.35540 0.32660 0.76829
 O340 O 0.36889 0.27242 0.81487
 O341 O 0.30915 0.26486 0.66022
 O342 O 0.24833 0.21889 0.64788
 O343 O 0.24506 0.20926 0.87513
 O344 O 0.29684 0.26386 0.88529
 O345 O 0.14075 0.26470 0.82527
 O346 O 0.13114 0.31948 0.76382
 O347 O 0.18665 0.16178 0.76869
 O348 O 0.24895 0.14880 0.71873
 O349 O 0.24435 0.15944 0.82428
 O350 O 0.28930 0.14336 0.76736
 O351 O 0.13730 0.21328 0.76553
 O352 O 0.12393 0.27051 0.72298
 O353 O 0.19144 0.26393 0.87561
 O354 O 0.24646 0.31262 0.88904
 O355 O 0.24946 0.32488 0.65794
 O356 O 0.20537 0.26756 0.64331
 O357 O 0.35859 0.26744 0.71179
 O358 O 0.36762 0.21957 0.76794
 O359 O 0.30439 0.37672 0.76530
 O360 O 0.24812 0.38884 0.81179
 Zr361 Zr 0.24895 0.34241 0.76474
 O362 O 0.21023 0.30712 0.80460
 Zr363 Zr 0.32306 0.26889 0.76689
 O364 O 0.28646 0.22916 0.80489
 Zr365 Zr 0.25068 0.26832 0.69176
 O366 O 0.20964 0.23084 0.72729
 Zr367 Zr 0.24686 0.26621 0.84162
 O368 O 0.28605 0.30634 0.80640
 Zr369 Zr 0.17303 0.26799 0.76756
 O370 O 0.20925 0.30591 0.72701
 Zr371 Zr 0.24532 0.19307 0.76784
 O372 O 0.28680 0.22807 0.72956
 O373 O 0.28861 0.30720 0.72695
 O374 O 0.20693 0.22804 0.80679
 C375 C 0.24898 0.36336 0.66953
 C376 C 0.34270 0.36492 0.76624
 C377 C 0.34750 0.26517 0.67327
 C378 C 0.24389 0.17107 0.86266
 C379 C 0.15327 0.26262 0.86359
 C380 C 0.14837 0.17478 0.76706
 H381 H 0.19284 0.32605 0.82175
 H382 H 0.19201 0.21414 0.70810
 H383 H 0.30672 0.32467 0.70891
 H384 H 0.30488 0.21137 0.82252
 H385 H 0.31638 0.28677 0.87784
 H386 H 0.36204 0.25111 0.83636
 H387 H 0.13416 0.25614 0.69759
 H388 H 0.18211 0.28582 0.65266
 H389 H 0.22731 0.33538 0.88017
 H390 H 0.26676 0.37864 0.83452
 H391 H 0.22313 0.15138 0.70166
 H392 H 0.26940 0.19791 0.65701
 H393 H 0.18000 0.37914 0.74286
 H394 H 0.12922 0.33230 0.79193
 H395 H 0.35742 0.19797 0.74823
 H396 H 0.31334 0.15204 0.78490
 O397 O 0.76808 0.64216 0.67638
 O398 O 0.81772 0.63194 0.73637
 O399 O 0.66012 0.68839 0.73677
 O400 O 0.64422 0.74321 0.77990
 O401 O 0.70851 0.74838 0.62627
 O402 O 0.76644 0.79822 0.61617
 O403 O 0.76710 0.81095 0.84113
 O404 O 0.71675 0.75264 0.85270
 O405 O 0.87441 0.75303 0.79418
 O406 O 0.88576 0.70144 0.73437
 O407 O 0.82469 0.85684 0.73804
 O408 O 0.76372 0.86688 0.68367
 O409 O 0.76530 0.86024 0.78946
 O410 O 0.72190 0.87294 0.73172
 O411 O 0.87515 0.80627 0.73887
 O412 O 0.88917 0.74904 0.69133
 O413 O 0.82344 0.75424 0.84385
 O414 O 0.77057 0.70900 0.86020
 O415 O 0.76640 0.69309 0.62609
 O416 O 0.81282 0.74975 0.61434
 O417 O 0.65841 0.74710 0.67698
 O418 O 0.64590 0.79488 0.73373
 O419 O 0.71183 0.63902 0.73618
 O420 O 0.76939 0.62715 0.78042
 Zr421 Zr 0.76693 0.67462 0.73409
 O422 O 0.80430 0.71128 0.77410
 Zr423 Zr 0.69167 0.74669 0.73386
 O424 O 0.72676 0.78771 0.77190
 Zr425 Zr 0.76524 0.74856 0.66023
 O426 O 0.80468 0.78740 0.69583
 Zr427 Zr 0.76724 0.75239 0.80994
 O428 O 0.72927 0.71069 0.77484
 Zr429 Zr 0.84128 0.75072 0.73702
 O430 O 0.80649 0.71153 0.69667
 Zr431 Zr 0.76712 0.82444 0.73475
 O432 O 0.72717 0.78804 0.69639
 O433 O 0.72733 0.70889 0.69531
 O434 O 0.80625 0.79074 0.77490
 C435 C 0.76674 0.65480 0.63801
 C436 C 0.67325 0.65011 0.73738
 C437 C 0.67026 0.74757 0.63859
 C438 C 0.76607 0.84921 0.82802
 C439 C 0.86184 0.75464 0.83229
 C440 C 0.86302 0.84439 0.74015
 H441 H 0.82152 0.69274 0.79214
 H442 H 0.82215 0.80465 0.67700
 H443 H 0.70945 0.69059 0.67788
 H444 H 0.70761 0.80517 0.78881
 H445 H 0.69865 0.72852 0.84547
 H446 H 0.65204 0.76243 0.80286
 H447 H 0.88179 0.76952 0.66917
 H448 H 0.83557 0.73130 0.62483
 H449 H 0.77979 0.68198 0.84836
 H450 H 0.75021 0.63600 0.80305
 H451 H 0.79146 0.86757 0.66995
 H452 H 0.74335 0.81755 0.62361
 H453 H 0.83669 0.63944 0.71305
 H454 H 0.88310 0.68448 0.76023
 H455 H 0.65479 0.81586 0.71265
 H456 H 0.69735 0.86342 0.74797
 O457 O 0.25510 0.63920 0.30058
 O458 O 0.21492 0.62478 0.24560
 O459 O 0.36403 0.70003 0.25290
 O460 O 0.37782 0.75473 0.21190
 O461 O 0.30251 0.74806 0.36101
 O462 O 0.24769 0.78884 0.37445
 O463 O 0.24721 0.80389 0.13691
 O464 O 0.29040 0.75166 0.12251
 O465 O 0.14020 0.75274 0.19505
 O466 O 0.12589 0.71209 0.24995
 O467 O 0.19821 0.86246 0.24539
 O468 O 0.25128 0.87763 0.28613
 O469 O 0.25111 0.85617 0.18499
 O470 O 0.30379 0.86649 0.24949
 O471 O 0.14641 0.81378 0.24269
 O472 O 0.13604 0.75277 0.30027
 O473 O 0.18862 0.75017 0.14304
 O474 O 0.25383 0.69847 0.13320
 O475 O 0.24693 0.68700 0.35269
 O476 O 0.19683 0.75018 0.36267
 O477 O 0.35522 0.75521 0.31367
 O478 O 0.36608 0.80551 0.25045
 O479 O 0.31662 0.64738 0.24565
 O480 O 0.25389 0.63621 0.19508
 Zr481 Zr 0.25606 0.67649 0.24754
 O482 O 0.21284 0.71182 0.21179
 Zr483 Zr 0.32619 0.75269 0.25308
 O484 O 0.29051 0.78774 0.20952
 Zr485 Zr 0.24984 0.74730 0.32313
 O486 O 0.21451 0.79028 0.28702
 Zr487 Zr 0.24863 0.75061 0.17367
 O488 O 0.29244 0.71511 0.20947
 Zr489 Zr 0.17687 0.75412 0.24815
 O490 O 0.21218 0.71062 0.28438
 Zr491 Zr 0.25160 0.82591 0.24507
 O492 O 0.28732 0.79080 0.28912
 O493 O 0.29174 0.71115 0.28920
 O494 O 0.21100 0.79163 0.20732
 C495 C 0.24994 0.64904 0.33880
 C496 C 0.35449 0.66161 0.24855
 C497 C 0.34095 0.75246 0.35151
 C498 C 0.24913 0.84235 0.14694
 C499 C 0.15045 0.75124 0.15669
 C500 C 0.15992 0.85198 0.24254
 H501 H 0.19479 0.69255 0.19560
 H502 H 0.19790 0.80862 0.30561
 H503 H 0.30960 0.69325 0.30735
 H504 H 0.30952 0.80404 0.19129
 H505 H 0.31862 0.75598 0.13459
 H506 H 0.36798 0.74230 0.18528
 H507 H 0.13124 0.78198 0.30942
 H508 H 0.18113 0.72372 0.35898
 H509 H 0.22585 0.68536 0.13091
 H510 H 0.28059 0.63965 0.17974
 H511 H 0.24692 0.86592 0.31450
 H512 H 0.25977 0.81554 0.36433
 H513 H 0.18808 0.63475 0.25745
 H514 H 0.13759 0.68414 0.24352
 H515 H 0.36282 0.82085 0.27715
 H516 H 0.31618 0.86924 0.22124
 O517 O 0.73352 0.33914 0.31220
 O518 O 0.78087 0.35194 0.25240
 O519 O 0.62452 0.29018 0.25185
 O520 O 0.61229 0.23814 0.20451
 O521 O 0.67432 0.23136 0.35850
 O522 O 0.73414 0.18208 0.36953
 O523 O 0.73736 0.17376 0.14432
 O524 O 0.68312 0.22924 0.13390
 O525 O 0.84031 0.23260 0.19064
 O526 O 0.85214 0.28208 0.25335
 O527 O 0.79312 0.12490 0.25214
 O528 O 0.73128 0.11355 0.29999
 O529 O 0.73997 0.12386 0.19543
 O530 O 0.69046 0.10968 0.25123
 O531 O 0.84247 0.17605 0.24761
 O532 O 0.85822 0.23317 0.29317
 O533 O 0.78906 0.23322 0.14094
 O534 O 0.73440 0.27658 0.12759
 O535 O 0.73476 0.28762 0.36176
 O536 O 0.77856 0.23061 0.37380
 O537 O 0.62443 0.23062 0.30720
 O538 O 0.61511 0.18364 0.25057
 O539 O 0.67518 0.34041 0.25234
 O540 O 0.73285 0.35568 0.20848
 Zr541 Zr 0.73204 0.30730 0.25390
 O542 O 0.77035 0.27224 0.21328
 Zr543 Zr 0.65873 0.23356 0.25186
 O544 O 0.69487 0.19413 0.21334
 Zr545 Zr 0.73221 0.23254 0.32640
 O546 O 0.77264 0.19522 0.29026
 Zr547 Zr 0.73412 0.23140 0.17637
 O548 O 0.69520 0.27148 0.21211
 Zr549 Zr 0.80856 0.23235 0.24910
 O550 O 0.77286 0.27022 0.29033
 Zr551 Zr 0.73591 0.15791 0.25075
 O552 O 0.69526 0.19281 0.28940
 O553 O 0.69331 0.27172 0.29177
 O554 O 0.77417 0.19271 0.21078
 C555 C 0.73492 0.32617 0.35052
 C556 C 0.63680 0.32852 0.25212
 C557 C 0.63605 0.23053 0.34555
 C558 C 0.74054 0.13561 0.15717
 C559 C 0.82755 0.23322 0.15224
 C560 C 0.83115 0.13759 0.24971
 H561 H 0.78699 0.29164 0.19583
 H562 H 0.79048 0.17824 0.30922
 H563 H 0.67553 0.28945 0.30987
 H564 H 0.67653 0.17652 0.19570
 H565 H 0.66425 0.25285 0.14101
 H566 H 0.61877 0.21703 0.18284
 H567 H 0.84990 0.21512 0.31696
 H568 H 0.80266 0.24674 0.36291
 H569 H 0.74496 0.30298 0.13968
 H570 H 0.71340 0.34706 0.18588
 H571 H 0.75561 0.11752 0.31883
 H572 H 0.71068 0.16318 0.36224
 H573 H 0.80150 0.34328 0.27401
 H574 H 0.84901 0.29967 0.22794
 H575 H 0.62588 0.16173 0.26986
 H576 H 0.66955 0.11604 0.22916
 C577 C 0.22269 0.10304 0.08971
 C578 C 0.23293 0.10998 0.04287
 C579 C 0.25699 0.06807 0.04218
 C580 C 0.24615 0.06092 0.08910
 C581 C 0.29799 0.08994 0.05490
 C582 C 0.27413 0.13243 0.05557
 C583 C 0.26375 0.12468 0.10194
 C584 C 0.28735 0.08287 0.10169
 H585 H 0.19181 0.10858 0.10467
 H586 H 0.20894 0.12199 0.02084
 H587 H 0.23368 0.03195 0.10379
 H588 H 0.32909 0.08464 0.04035
 H589 H 0.28580 0.16230 0.04209
 H590 H 0.30950 0.07185 0.12627
 C591 C 0.79458 0.59330 0.58763
 C592 C 0.76287 0.55716 0.59119
 C593 C 0.74693 0.56676 0.54615
 C594 C 0.77904 0.60252 0.54247
 C595 C 0.71372 0.59680 0.56369
 C596 C 0.72944 0.58736 0.60860
 C597 C 0.76121 0.62311 0.60470
 C598 C 0.74567 0.63313 0.56007
 H599 H 0.82779 0.59202 0.59801
 H600 H 0.77089 0.52610 0.60485
 H601 H 0.80062 0.60910 0.51625
 H602 H 0.68040 0.59833 0.55368
 H603 H 0.70935 0.58115 0.63626
 H604 H 0.73868 0.66489 0.54747
 C605 C 0.73655 0.93748 0.13516
 C606 C 0.77743 0.95144 0.11283
 C607 C 0.75547 0.94537 0.07016
 C608 C 0.71480 0.93157 0.09189
 C609 C 0.77091 0.89931 0.06898
 C610 C 0.79237 0.90529 0.11181
 C611 C 0.75165 0.89180 0.13338
 C612 C 0.73010 0.88552 0.09080
 H613 H 0.72243 0.95284 0.16290
 H614 H 0.79811 0.97743 0.12261
 H615 H 0.68278 0.94251 0.08360
 H616 H 0.78588 0.88287 0.04230
 H617 H 0.82427 0.89405 0.12029
 H618 H 0.71075 0.85808 0.08190
 C619 C 0.28195 0.39153 0.59930
 C620 C 0.24575 0.39990 0.56826
 C621 C 0.25464 0.44748 0.57120
 C622 C 0.29077 0.43906 0.60214
 C623 C 0.22315 0.45109 0.60758
 C624 C 0.21460 0.40348 0.60481
 C625 C 0.25070 0.39533 0.63558
 C626 C 0.25938 0.44250 0.63913
 H627 H 0.30610 0.36670 0.59608
 H628 H 0.23932 0.38112 0.53976
 H629 H 0.32230 0.45363 0.60090
 H630 H 0.19823 0.47503 0.61119
 H631 H 0.18326 0.38853 0.60617
 H632 H 0.26485 0.45965 0.66884
 C633 C 0.78668 0.07737 0.86514
 C634 C 0.80027 0.07846 0.91161
 C635 C 0.76647 0.04544 0.92166
 C636 C 0.75265 0.04423 0.87541
 C637 C 0.73440 0.08116 0.92990
 C638 C 0.76840 0.11410 0.92000
 C639 C 0.75494 0.11281 0.87401
 C640 C 0.72096 0.08017 0.88348
 H641 H 0.80851 0.07632 0.83817
 H642 H 0.83329 0.07755 0.92264
 H643 H 0.74507 0.01679 0.85576
 H644 H 0.71215 0.08256 0.95652
 H645 H 0.77433 0.14280 0.93860
 H646 H 0.68805 0.08149 0.87217
 C647 C 0.23326 0.61304 0.41350
 C648 C 0.20828 0.57240 0.40498
 C649 C 0.24676 0.54582 0.41771
 C650 C 0.27196 0.58659 0.42596
 C651 C 0.26249 0.54553 0.37214
 C652 C 0.22375 0.57226 0.35912
 C653 C 0.24850 0.61267 0.36821
 C654 C 0.28720 0.58647 0.38027
 H655 H 0.22154 0.64090 0.43063
 H656 H 0.17551 0.56627 0.41475
 H657 H 0.29255 0.59259 0.45340
 H658 H 0.27572 0.51901 0.35420
 H659 H 0.20362 0.56682 0.33124
 H660 H 0.31983 0.59299 0.37022
 C661 C 0.21233 0.90542 0.88116
 C662 C 0.19838 0.89901 0.92720
 C663 C 0.23789 0.92201 0.94247
 C664 C 0.25204 0.92847 0.89636
 C665 C 0.26273 0.88051 0.94429
 C666 C 0.22300 0.85694 0.92879
 C667 C 0.23683 0.86398 0.88303
 C668 C 0.27642 0.88676 0.89811
 H669 H 0.19180 0.91580 0.85493
 H670 H 0.16620 0.90375 0.93942
 H671 H 0.26476 0.95758 0.88217
 H672 H 0.28406 0.86996 0.96976
 H673 H 0.21092 0.82704 0.94184
 H674 H 0.30851 0.88181 0.88574
 C675 C 0.76092 0.39886 0.38228
 C676 C 0.72206 0.42296 0.39790
 C677 C 0.73708 0.41639 0.44382
 C678 C 0.77569 0.39221 0.42807
 C679 C 0.71140 0.37560 0.44626
 C680 C 0.69688 0.38194 0.40026
 C681 C 0.73571 0.35812 0.38479
 C682 C 0.75026 0.35087 0.43034
 H683 H 0.78108 0.40857 0.35571
 H684 H 0.70937 0.45217 0.38366
 H685 H 0.80819 0.39623 0.43985
 H686 H 0.69033 0.36601 0.47214
 H687 H 0.66445 0.37766 0.38833
 H688 H 0.76196 0.32069 0.44331
 C689 C 0.11169 0.20985 0.09240
 C690 C 0.06901 0.23138 0.09897
 C691 C 0.06965 0.24706 0.05296
 C692 C 0.11219 0.22500 0.04631
 C693 C 0.09173 0.28759 0.06665
 C694 C 0.09116 0.27205 0.11261
 C695 C 0.13362 0.25043 0.10573
 C696 C 0.13488 0.26576 0.06012
 H697 H 0.12019 0.17787 0.10339
 H698 H 0.04255 0.21638 0.11578
 H699 H 0.12164 0.20425 0.02029
 H700 H 0.08339 0.31973 0.05607
 H701 H 0.08262 0.29132 0.14019
 H702 H 0.16247 0.27987 0.04443
 C703 C 0.60481 0.78044 0.59872
 C704 C 0.60814 0.77274 0.55105
 C705 C 0.57260 0.74019 0.55394
 C706 C 0.56911 0.74820 0.60162
 C707 C 0.60447 0.70479 0.56202
 C708 C 0.64061 0.73729 0.55927
 C709 C 0.63654 0.74513 0.60650
 C710 C 0.60112 0.71276 0.60966
 H711 H 0.60521 0.81156 0.61413
 H712 H 0.61123 0.79820 0.52760
 H713 H 0.54036 0.75348 0.62036
 H714 H 0.60417 0.67346 0.54703
 H715 H 0.67057 0.73296 0.54222
 H716 H 0.59844 0.68816 0.63420
 C717 C 0.10328 0.71486 0.91664
 C718 C 0.08971 0.75579 0.93836
 C719 C 0.04311 0.74384 0.93121
 C720 C 0.05678 0.70310 0.90954
 C721 C 0.04327 0.76777 0.88924
 C722 C 0.08983 0.77919 0.89620
 C723 C 0.10302 0.73837 0.87478
 C724 C 0.05692 0.72682 0.86700
 H725 H 0.12837 0.69334 0.92775
 H726 H 0.10391 0.76863 0.96739
 H727 H 0.04285 0.67172 0.91501
 H728 H 0.02043 0.79101 0.87726
 H729 H 0.10411 0.81040 0.89054
 H730 H 0.04377 0.71474 0.83717
 C731 C 0.55591 0.22149 0.36959
 C732 C 0.55555 0.19902 0.41281
 C733 C 0.54235 0.24054 0.43331
 C734 C 0.54270 0.26320 0.39066
 C735 C 0.58910 0.25217 0.44005
 C736 C 0.60221 0.21047 0.41952
 C737 C 0.60217 0.23273 0.37701
 C738 C 0.58939 0.27431 0.39723
 H739 H 0.54260 0.20868 0.34015
 H740 H 0.54119 0.16801 0.41917
 H741 H 0.52002 0.28628 0.37806
 H742 H 0.60351 0.26579 0.46862
 H743 H 0.62707 0.18899 0.43124
 H744 H 0.60398 0.30520 0.39068
 C745 C 0.88370 0.78688 0.09775
 C746 C 0.92973 0.80108 0.10369
 C747 C 0.94489 0.76171 0.08049
 C748 C 0.89878 0.74729 0.07454
 C749 C 0.94733 0.73676 0.12189
 C750 C 0.93192 0.77636 0.14568
 C751 C 0.88615 0.76229 0.13908
 C752 C 0.90113 0.72283 0.11614
 H753 H 0.85725 0.80729 0.08772
 H754 H 0.94177 0.83334 0.09885
 H755 H 0.88430 0.73454 0.04560
 H756 H 0.97303 0.71553 0.13207
 H757 H 0.94523 0.78838 0.17546
 H758 H 0.88894 0.69067 0.12123
 C759 C 0.39746 0.22361 0.62009
 C760 C 0.39565 0.24660 0.57762
 C761 C 0.44157 0.26139 0.58371
 C762 C 0.44347 0.23797 0.62601
 C763 C 0.42585 0.30147 0.60531
 C764 C 0.38000 0.28686 0.59921
 C765 C 0.38197 0.26379 0.64143
 C766 C 0.42757 0.27829 0.64815
 H767 H 0.38534 0.19158 0.62612
 H768 H 0.38178 0.23282 0.54886
 H769 H 0.46914 0.21724 0.63724
 H770 H 0.43782 0.33359 0.59947
 H771 H 0.35363 0.30662 0.58787
 H772 H 0.44046 0.29142 0.67764
 C773 C 0.91688 0.23278 0.88701
 C774 C 0.92645 0.26690 0.91986
 C775 C 0.91928 0.23456 0.95562
 C776 C 0.90950 0.20065 0.92267
 C777 C 0.87275 0.24741 0.95737
 C778 C 0.87978 0.27937 0.92139
 C779 C 0.87066 0.24527 0.88882
 C780 C 0.86276 0.21326 0.92428
 H781 H 0.93527 0.22725 0.85810
 H782 H 0.95258 0.28974 0.91817
 H783 H 0.92118 0.16785 0.92339
 H784 H 0.85326 0.25444 0.98506
 H785 H 0.86780 0.31204 0.92025
 H786 H 0.83622 0.19090 0.92558
 C787 C 0.36237 0.77801 0.42843
 C788 C 0.37325 0.73866 0.45525
 C789 C 0.41965 0.75184 0.45500
 C790 C 0.40905 0.79096 0.42835
 C791 C 0.42658 0.72626 0.41429
 C792 C 0.38010 0.71351 0.41438
 C793 C 0.37018 0.75279 0.38808
 C794 C 0.41627 0.76554 0.38777
 H795 H 0.33562 0.79962 0.43377
 H796 H 0.35455 0.72665 0.48182
 H797 H 0.42060 0.82316 0.43443
 H798 H 0.45292 0.70428 0.40836
 H799 H 0.36828 0.68147 0.40792
 H800 H 0.43407 0.77634 0.35995
 C801 C 0.14595 0.07093 0.25145
 C802 C 0.10358 0.07343 0.27510
 C803 C 0.08112 0.05640 0.23598
 C804 C 0.12294 0.05368 0.21206
 C805 C 0.07475 0.10186 0.21943
 C806 C 0.09715 0.11878 0.25882
 C807 C 0.13894 0.11604 0.23541
 C808 C 0.11682 0.09927 0.19608
 H809 H 0.17573 0.05858 0.26474
 H810 H 0.09840 0.06252 0.30773
 H811 H 0.13368 0.02759 0.19185
 H812 H 0.04580 0.11532 0.20536
 H813 H 0.08637 0.14577 0.27783
 H814 H 0.12229 0.11041 0.16356
 C815 C 0.61980 0.59833 0.69884
 C816 C 0.62519 0.55311 0.71602
 C817 C 0.58295 0.55681 0.73906
 C818 C 0.57737 0.60189 0.72137
 C819 C 0.60488 0.57455 0.77816
 C820 C 0.64765 0.57103 0.75540
 C821 C 0.64136 0.61577 0.73817
 C822 C 0.59918 0.61952 0.76071
 H823 H 0.62602 0.60863 0.66619
 H824 H 0.63599 0.52636 0.69673
 H825 H 0.54882 0.61526 0.70642
 H826 H 0.59892 0.56444 0.81090
 H827 H 0.67706 0.55869 0.76951
 H828 H 0.58835 0.64706 0.77889
 C829 C 0.91808 0.11869 0.72223
 C830 C 0.95484 0.12608 0.75321
 C831 C 0.95317 0.07975 0.76683
 C832 C 0.91667 0.07220 0.73540
 C833 C 0.92106 0.09008 0.80136
 C834 C 0.92254 0.13666 0.78796
 C835 C 0.88633 0.12840 0.75691
 C836 C 0.88465 0.08235 0.77014
 H837 H 0.91622 0.13023 0.68943
 H838 H 0.98223 0.14552 0.74495
 H839 H 0.91428 0.04578 0.71299
 H840 H 0.92244 0.07888 0.83431
 H841 H 0.92447 0.16353 0.80986
 H842 H 0.85581 0.06408 0.77654
 C843 C 0.43136 0.64020 0.22292
 C844 C 0.45826 0.62883 0.26208
 C845 C 0.45770 0.58253 0.24853
 C846 C 0.43097 0.59366 0.20960
 C847 C 0.41700 0.57562 0.27420
 C848 C 0.41740 0.62198 0.28731
 C849 C 0.39103 0.63235 0.24820
 C850 C 0.39043 0.58640 0.23509
 H851 H 0.43679 0.66712 0.20152
 H852 H 0.48501 0.64730 0.27407
 H853 H 0.43686 0.58240 0.17729
 H854 H 0.41097 0.54911 0.29599
 H855 H 0.41110 0.63355 0.31945
 H856 H 0.36247 0.56881 0.22426
 C857 C 0.09433 0.89074 0.78890
 C858 C 0.09954 0.93315 0.76637
 C859 C 0.05310 0.93145 0.75228
 C860 C 0.04783 0.88918 0.77522
 C861 C 0.06585 0.90893 0.71173
 C862 C 0.11228 0.91051 0.72572
 C863 C 0.10676 0.86835 0.74832
 C864 C 0.06069 0.86606 0.73449
 H865 H 0.10648 0.88300 0.82065
 H866 H 0.11625 0.96026 0.78026
 H867 H 0.02221 0.87989 0.79660
 H868 H 0.05405 0.91660 0.67986
 H869 H 0.13913 0.91912 0.70544
 H870 H 0.04498 0.83801 0.72137
 C871 C 0.55755 0.35939 0.26219
 C872 C 0.56110 0.39573 0.29437
 C873 C 0.55362 0.42754 0.25877
 C874 C 0.54991 0.39182 0.22652
 C875 C 0.60135 0.43000 0.25062
 C876 C 0.60879 0.39808 0.28627
 C877 C 0.60486 0.36247 0.25422
 C878 C 0.59764 0.39413 0.21870
 H879 H 0.53986 0.32983 0.26679
 H880 H 0.54619 0.39655 0.32572
 H881 H 0.52635 0.38903 0.20113
 H882 H 0.62064 0.45836 0.24507
 H883 H 0.63342 0.40050 0.31080
 H884 H 0.61296 0.39323 0.18754
 C885 C 0.86895 0.94135 0.24220
 C886 C 0.90058 0.95799 0.27516
 C887 C 0.93546 0.95495 0.24203
 C888 C 0.90442 0.93839 0.20919
 C889 C 0.94518 0.90944 0.25664
 C890 C 0.90992 0.91241 0.28934
 C891 C 0.87907 0.89629 0.25639
 C892 C 0.91393 0.89300 0.22362
 H893 H 0.83709 0.95424 0.23641
 H894 H 0.89464 0.98359 0.29765
 H895 H 0.90203 0.94912 0.17615
 H896 H 0.97622 0.89516 0.26344
 H897 H 0.91204 0.90123 0.32225
 H898 H 0.91937 0.86581 0.20271
 C899 C 0.40393 0.41560 0.79421
 C900 C 0.44039 0.41149 0.76301
 C901 C 0.43128 0.45641 0.74641
 C902 C 0.39516 0.46064 0.77802
 C903 C 0.40151 0.43863 0.71306
 C904 C 0.41050 0.39385 0.72942
 C905 C 0.37442 0.39826 0.76069
 C906 C 0.36481 0.44277 0.74450
 H907 H 0.40478 0.40560 0.82754
 H908 H 0.47121 0.39766 0.77154
 H909 H 0.38853 0.48725 0.79911
 H910 H 0.40042 0.44829 0.67963
 H911 H 0.41679 0.36594 0.70972
 H912 H 0.33320 0.45541 0.73699
 C913 C 0.08589 0.22449 0.89371
 C914 C 0.09542 0.20974 0.93900
 C915 C 0.06533 0.24327 0.95595
 C916 C 0.05561 0.25822 0.91051
 C917 C 0.10103 0.27558 0.95876
 C918 C 0.13171 0.24192 0.94179
 C919 C 0.12155 0.25642 0.89686
 C920 C 0.09166 0.29005 0.91331
 H921 H 0.07969 0.20382 0.86649
 H922 H 0.09715 0.17661 0.94963
 H923 H 0.02464 0.26595 0.89650
 H924 H 0.10771 0.29810 0.98414
 H925 H 0.16352 0.23527 0.95440
 H926 H 0.09023 0.32303 0.90219
 C927 C 0.58548 0.78230 0.39576
 C928 C 0.56409 0.74111 0.40922
 C929 C 0.57013 0.75353 0.45580
 C930 C 0.59148 0.79452 0.44223
 C931 C 0.61251 0.73032 0.45669
 C932 C 0.60667 0.71841 0.41008
 C933 C 0.62774 0.75949 0.39699
 C934 C 0.63440 0.77154 0.44311
 H935 H 0.57450 0.80348 0.37031
 H936 H 0.53549 0.72770 0.39463
 H937 H 0.58523 0.82591 0.45574
 H938 H 0.62438 0.70758 0.48009
 H939 H 0.61311 0.68719 0.39622
 H940 H 0.66379 0.78418 0.45676
 C941 C 0.90100 0.72116 0.89743
 C942 C 0.94878 0.72825 0.89432
 C943 C 0.94628 0.76025 0.93036
 C944 C 0.89842 0.75278 0.93364
 C945 C 0.93877 0.79631 0.89907
 C946 C 0.94110 0.76436 0.86240
 C947 C 0.89375 0.75712 0.86625
 C948 C 0.89092 0.78889 0.90216
 H949 H 0.88514 0.69025 0.89651
 H950 H 0.97168 0.70239 0.89070
 H951 H 0.87954 0.74718 0.96225
 H952 H 0.95426 0.82740 0.89982
 H953 H 0.95819 0.76900 0.83252
 H954 H 0.86669 0.81373 0.90516
 C955 C 0.43985 0.26209 0.36135
 C956 C 0.43805 0.29412 0.39794
 C957 C 0.44456 0.25799 0.42942
 C958 C 0.44654 0.22592 0.39342
 C959 C 0.39655 0.25170 0.43236
 C960 C 0.39006 0.28786 0.40077
 C961 C 0.39227 0.25599 0.36491
 C962 C 0.39857 0.21993 0.39623
 H963 H 0.45730 0.26629 0.33161
 H964 H 0.45428 0.32483 0.39875
 H965 H 0.46918 0.19975 0.39020
 H966 H 0.37736 0.24659 0.46084
 H967 H 0.36656 0.31337 0.40358
 H968 H 0.38202 0.18939 0.39533
 C969 C 0.08734 0.78911 0.11595
 C970 C 0.08614 0.77374 0.07026
 C971 C 0.04562 0.74855 0.07979
 C972 C 0.04666 0.76437 0.12529
 C973 C 0.07262 0.71011 0.09178
 C974 C 0.11303 0.73507 0.08206
 C975 C 0.11397 0.75046 0.12729
 C976 C 0.07375 0.72568 0.13753
 H977 H 0.09411 0.82177 0.12571
 H978 H 0.09124 0.79428 0.04261
 H979 H 0.02051 0.77723 0.14401
 H980 H 0.06620 0.67729 0.08234
 H981 H 0.14038 0.72338 0.06414
 H982 H 0.06901 0.70553 0.16554
 C983 C 0.61029 0.23349 0.58720
 C984 C 0.56917 0.20951 0.59621
 C985 C 0.54335 0.24824 0.58275
 C986 C 0.58460 0.27247 0.57396
 C987 C 0.54339 0.26488 0.62798
 C988 C 0.56934 0.22588 0.64172
 C989 C 0.61028 0.24968 0.63218
 C990 C 0.58483 0.28865 0.61938
 H991 H 0.63790 0.22092 0.57028
 H992 H 0.56238 0.17667 0.58711
 H993 H 0.59096 0.29233 0.54607
 H994 H 0.51695 0.27870 0.64559
 H995 H 0.56344 0.20640 0.66997
 H996 H 0.59200 0.32134 0.62878
 C997 C 0.85217 0.25067 0.07297
 C998 C 0.89385 0.27549 0.07571
 C999 C 0.91736 0.23720 0.05830
 C1000 C 0.87620 0.21213 0.05538
 C1001 C 0.92421 0.22042 0.10355
 C1002 C 0.90073 0.25896 0.12087
 C1003 C 0.85962 0.23433 0.11792
 C1004 C 0.88281 0.19582 0.10078
 H1005 H 0.82204 0.26320 0.06067
 H1006 H 0.89815 0.30835 0.06508
 H1007 H 0.86599 0.19225 0.02881
 H1008 H 0.95361 0.20712 0.11682
 H1009 H 0.91101 0.27800 0.14805
 H1010 H 0.87829 0.16302 0.11156
 C1011 C 0.40168 0.71095 0.61747
 C1012 C 0.39486 0.69850 0.57108
 C1013 C 0.41875 0.73788 0.55683
 C1014 C 0.42557 0.75052 0.60332
 C1015 C 0.37784 0.76367 0.55582
 C1016 C 0.35339 0.72409 0.57024
 C1017 C 0.36087 0.73642 0.61634
 C1018 C 0.38449 0.77588 0.60232
 H1019 H 0.41159 0.68946 0.64311
 H1020 H 0.39886 0.66660 0.55790
 H1021 H 0.45485 0.76236 0.61792
 H1022 H 0.36788 0.78589 0.53088
 H1023 H 0.32319 0.71305 0.55694
 H1024 H 0.38030 0.80770 0.61562
 C1025 C 0.23497 0.14031 0.94193
 C1026 C 0.20344 0.10322 0.93940
 C1027 C 0.23990 0.07230 0.94658
 C1028 C 0.27149 0.10876 0.94920
 C1029 C 0.24716 0.06956 0.89865
 C1030 C 0.21067 0.10064 0.89154
 C1031 C 0.24200 0.13698 0.89453
 C1032 C 0.27834 0.10618 0.90138
 H1033 H 0.23004 0.16996 0.95935
 H1034 H 0.17240 0.10196 0.95493
 H1035 H 0.29763 0.11258 0.97173
 H1036 H 0.25308 0.04123 0.87946
 H1037 H 0.18573 0.09750 0.86742
 H1038 H 0.30916 0.10761 0.88541
 C1039 C 0.77268 0.59268 0.38744
 C1040 C 0.78840 0.59326 0.43329
 C1041 C 0.74810 0.57085 0.44712
 C1042 C 0.73225 0.57022 0.40122
 C1043 C 0.72584 0.61325 0.45396
 C1044 C 0.76636 0.63624 0.43998
 C1045 C 0.75077 0.63501 0.39443
 C1046 C 0.71041 0.61276 0.40794
 H1047 H 0.79188 0.58428 0.35976
 H1048 H 0.82062 0.58506 0.44371
 H1049 H 0.71747 0.54360 0.38450
 H1050 H 0.70559 0.62222 0.48057
 H1051 H 0.78034 0.66388 0.45570
 H1052 H 0.67831 0.62104 0.39714
 C1053 C 0.76129 0.05726 0.13566
 C1054 C 0.72771 0.04057 0.10473
 C1055 C 0.76012 0.04355 0.06921
 C1056 C 0.79360 0.06023 0.09955
 C1057 C 0.74541 0.08906 0.05970
 C1058 C 0.71341 0.08608 0.09553
 C1059 C 0.74697 0.10229 0.12566
 C1060 C 0.77904 0.10561 0.09021
 H1061 H 0.76778 0.04445 0.16742
 H1062 H 0.70534 0.01490 0.11099
 H1063 H 0.82665 0.04945 0.10132
 H1064 H 0.73786 0.10322 0.02877
 H1065 H 0.68047 0.09726 0.09401
 H1066 H 0.79982 0.13284 0.08429
 C1067 C 0.21520 0.60670 0.58238
 C1068 C 0.25583 0.59217 0.56070
 C1069 C 0.24257 0.54588 0.56753
 C1070 C 0.20215 0.56052 0.58916
 C1071 C 0.26632 0.54516 0.60962
 C1072 C 0.27908 0.59147 0.60300
 C1073 C 0.23855 0.60566 0.62435
 C1074 C 0.22567 0.55982 0.63179
 H1075 H 0.19440 0.63240 0.57126
 H1076 H 0.26915 0.60619 0.53179
 H1077 H 0.17043 0.54747 0.58352
 H1078 H 0.28871 0.52144 0.62154
 H1079 H 0.31065 0.60484 0.60884
 H1080 H 0.21316 0.54680 0.66150
 C1081 C 0.74864 0.92847 0.85303
 C1082 C 0.72499 0.92523 0.89532
 C1083 C 0.76377 0.94280 0.91792
 C1084 C 0.78770 0.94624 0.87617
 C1085 C 0.78107 0.89765 0.92405
 C1086 C 0.74203 0.88018 0.90153
 C1087 C 0.76549 0.88363 0.85983
 C1088 C 0.80450 0.90093 0.88208
 H1089 H 0.73523 0.94083 0.82331
 H1090 H 0.69219 0.93555 0.90057
 H1091 H 0.80716 0.97303 0.86564
 H1092 H 0.79526 0.88432 0.95300
 H1093 H 0.72348 0.85276 0.91214
 H1094 H 0.83722 0.89044 0.87661
 C1095 C 0.27785 0.42865 0.35346
 C1096 C 0.23708 0.44563 0.37397
 C1097 C 0.25888 0.44364 0.41711
 C1098 C 0.29938 0.42680 0.39713
 C1099 C 0.24290 0.39808 0.42303
 C1100 C 0.22157 0.39998 0.37972
 C1101 C 0.26219 0.38341 0.36001
 C1102 C 0.28359 0.38131 0.40307
 H1103 H 0.29245 0.44099 0.32441
 H1104 H 0.21703 0.47138 0.36174
 H1105 H 0.33153 0.43812 0.40403
 H1106 H 0.22774 0.38483 0.45139
 H1107 H 0.18953 0.38849 0.37264
 H1108 H 0.30232 0.35462 0.41538
 C1109 C 0.26541 0.91701 0.11028
 C1110 C 0.28991 0.90781 0.06954
 C1111 C 0.25139 0.92073 0.04310
 C1112 C 0.22665 0.92970 0.08398
 C1113 C 0.23505 0.87534 0.04342
 C1114 C 0.27384 0.86218 0.06996
 C1115 C 0.24952 0.87189 0.11053
 C1116 C 0.21076 0.88413 0.08447
 H1117 H 0.27753 0.93432 0.13785
 H1118 H 0.32278 0.91706 0.06307
 H1119 H 0.20647 0.95746 0.08981
 H1120 H 0.22177 0.85726 0.01702
 H1121 H 0.29360 0.83403 0.06455
 H1122 H 0.17806 0.87459 0.09134
 C1123 C 0.72980 0.41592 0.61504
 C1124 C 0.76498 0.42356 0.58283
 C1125 C 0.73299 0.41824 0.54645
 C1126 C 0.69795 0.41032 0.57879
 C1127 C 0.74318 0.37103 0.54494
 C1128 C 0.77479 0.37633 0.58149
 C1129 C 0.73963 0.36905 0.61344
 C1130 C 0.70793 0.36287 0.57743
 H1131 H 0.72480 0.43463 0.64382
 H1132 H 0.78919 0.44840 0.58506
 H1133 H 0.66590 0.42388 0.57753
 H1134 H 0.74987 0.35101 0.51757
 H1135 H 0.80672 0.36251 0.58318
 H1136 H 0.68413 0.33760 0.57573
 C1137 C 0.06893 0.15044 0.75034
 C1138 C 0.07158 0.10887 0.72540
 C1139 C 0.05441 0.08520 0.76371
 C1140 C 0.05158 0.12624 0.78893
 C1141 C 0.09978 0.07838 0.78024
 C1142 C 0.11682 0.10197 0.74164
 C1143 C 0.11396 0.14296 0.76637
 C1144 C 0.09709 0.11966 0.80494
 H1145 H 0.05656 0.18061 0.73798
 H1146 H 0.06076 0.10467 0.69261
 H1147 H 0.02507 0.13635 0.80893
 H1148 H 0.11319 0.04900 0.79344
 H1149 H 0.14393 0.09183 0.72245
 H1150 H 0.10808 0.12414 0.83765
 C1151 C 0.61997 0.59816 0.29087
 C1152 C 0.57343 0.60513 0.30278
 C1153 C 0.55952 0.58176 0.26300
 C1154 C 0.60614 0.57475 0.25092
 C1155 C 0.55917 0.62295 0.23763
 C1156 C 0.57324 0.64689 0.27759
 C1157 C 0.61947 0.63926 0.26579
 C1158 C 0.60578 0.61612 0.22595
 H1159 H 0.64525 0.58785 0.31259
 H1160 H 0.55980 0.60089 0.33445
 H1161 H 0.62071 0.54552 0.23900
 H1162 H 0.53456 0.63332 0.21521
 H1163 H 0.56003 0.67705 0.28876
 H1164 H 0.61952 0.62055 0.19435
 C1165 C 0.08410 0.88651 0.22545
 C1166 C 0.07436 0.91773 0.26100
 C1167 C 0.08151 0.95503 0.23039
 C1168 C 0.09149 0.92369 0.19503
 C1169 C 0.12802 0.95629 0.24349
 C1170 C 0.12092 0.91888 0.27366
 C1171 C 0.13027 0.88794 0.23815
 C1172 C 0.13825 0.92484 0.20788
 H1173 H 0.06594 0.85776 0.21832
 H1174 H 0.04831 0.91488 0.28378
 H1175 H 0.07985 0.92590 0.16228
 H1176 H 0.14758 0.98346 0.25221
 H1177 H 0.13281 0.91627 0.30628
 H1178 H 0.16488 0.92725 0.18570
 C1179 C 0.61902 0.41812 0.77954
 C1180 C 0.62617 0.45561 0.74944
 C1181 C 0.57973 0.45424 0.73615
 C1182 C 0.57250 0.41691 0.76666
 C1183 C 0.58992 0.42302 0.70077
 C1184 C 0.63662 0.42425 0.71383
 C1185 C 0.62863 0.38728 0.74400
 C1186 C 0.58249 0.38578 0.73109
 H1187 H 0.63080 0.41548 0.81220
 H1188 H 0.64547 0.48290 0.75839
 H1189 H 0.54628 0.41391 0.78923
 H1190 H 0.57839 0.42527 0.66799
 H1191 H 0.66331 0.42678 0.69180
 H1192 H 0.56443 0.35701 0.72382
 C1193 C 0.86378 0.06015 0.26450
 C1194 C 0.88640 0.04611 0.22387
 C1195 C 0.92894 0.05278 0.24592
 C1196 C 0.90689 0.06675 0.28632
 C1197 C 0.92975 0.09868 0.23003
 C1198 C 0.88705 0.09212 0.20843
 C1199 C 0.86517 0.10568 0.24889
 C1200 C 0.90762 0.11260 0.27055
 H1201 H 0.83617 0.04452 0.27865
 H1202 H 0.87700 0.01981 0.20342
 H1203 H 0.91524 0.05633 0.31850
 H1204 H 0.95645 0.11518 0.21513
 H1205 H 0.87857 0.10293 0.17639
 H1206 H 0.91621 0.14030 0.28965
 C1207 C 0.38735 0.59463 0.70811
 C1208 C 0.42990 0.60117 0.73005
 C1209 C 0.42846 0.55560 0.74682
 C1210 C 0.38608 0.54892 0.72447
 C1211 C 0.40612 0.57056 0.78669
 C1212 C 0.40748 0.61610 0.77006
 C1213 C 0.36517 0.60925 0.74806
 C1214 C 0.36317 0.56402 0.76456
 H1215 H 0.37936 0.60494 0.67578
 H1216 H 0.45692 0.61713 0.71513
 H1217 H 0.37679 0.52202 0.70472
 H1218 H 0.41399 0.56057 0.81912
 H1219 H 0.41621 0.64406 0.78872
 H1220 H 0.33523 0.54899 0.77870
 C1221 C 0.89276 0.91147 0.77851
 C1222 C 0.93845 0.90269 0.79238
 C1223 C 0.95419 0.93346 0.75884
 C1224 C 0.90839 0.94240 0.74481
 C1225 C 0.95720 0.89814 0.72624
 C1226 C 0.94142 0.86678 0.75988
 C1227 C 0.89608 0.87623 0.74621
 C1228 C 0.91137 0.90678 0.71259
 H1229 H 0.86575 0.91690 0.79967
 H1230 H 0.94977 0.90094 0.82526
 H1231 H 0.89377 0.97322 0.73769
 H1232 H 0.98262 0.89229 0.70353
 H1233 H 0.95472 0.83515 0.76601
 H1234 H 0.89969 0.90829 0.67983
 C1235 C 0.39511 0.41835 0.21652
 C1236 C 0.40899 0.43957 0.25764
 C1237 C 0.45549 0.43249 0.24533
 C1238 C 0.44150 0.41136 0.20441
 C1239 C 0.45539 0.39019 0.26870
 C1240 C 0.40888 0.39704 0.28051
 C1241 C 0.39537 0.37617 0.23949
 C1242 C 0.44141 0.36852 0.22756
 H1243 H 0.36991 0.42980 0.19529
 H1244 H 0.39501 0.46850 0.27092
 H1245 H 0.45525 0.41721 0.17305
 H1246 H 0.47855 0.37788 0.29147
 H1247 H 0.39480 0.39099 0.31171
 H1248 H 0.45448 0.33884 0.21505
   
