data_POSCAR
  _audit_creation_date              2014-09-24
  _audit_creation_method            'ToBaCCo'
  _symmetry_space_group_name_H-M    'P1'
  _symmetry_Int_Tables_number       1
  _symmetry_cell_setting            triclinic
  loop_
  _symmetry_equiv_pos_as_xyz
 x,y,z
_cell_length_a 45.4293
_cell_length_b 45.3320
_cell_length_c 47.6542
_cell_angle_alpha 89.883000
_cell_angle_beta 89.969200
_cell_angle_gamma 89.500500
loop_
  _atom_site_label
  _atom_site_type_symbol
  _atom_site_fract_x
  _atom_site_fract_y
  _atom_site_fract_z
C1 C 0.43607 0.02164 0.28683
 H2 H 0.43665 0.04030 0.27266
 C3 C 0.45383 0.02137 0.31096
 H4 H 0.46777 0.04002 0.31549
 C5 C 0.41651 -0.02491 0.29903
 H6 H 0.40169 -0.04281 0.29483
 C7 C 0.43389 -0.02609 0.32319
 H8 H 0.43208 -0.04475 0.33732
 N9 N 0.41793 -0.00140 0.28120
 C10 C 0.40456 -0.00845 0.19030
 H11 H 0.38109 -0.01230 0.18996
 C12 C 0.42029 -0.00711 0.16511
 H13 H 0.40887 -0.01028 0.14541
 C14 C 0.44790 0.00113 0.21624
 H15 H 0.45863 0.00456 0.23616
 C16 C 0.46450 0.00269 0.19142
 H17 H 0.48786 0.00716 0.19241
 Zn18 Zn 0.39381 -0.00157 0.24803
 N19 N 0.41832 -0.00376 0.21523
 C20 C 0.37482 0.05278 0.22300
 N21 N 0.37092 0.03484 0.24574
 C22 C 0.35236 0.04320 0.26683
 C23 C 0.33673 0.07010 0.26527
 C24 C 0.35966 0.07975 0.22064
 C25 C 0.38323 -0.06287 0.24497
 C26 C 0.36820 -0.08951 0.24854
 C27 C 0.32449 -0.06170 0.26058
 C28 C 0.34042 -0.03550 0.25680
 N29 N 0.36943 -0.03646 0.24946
 H30 H 0.39009 0.04658 0.20667
 H31 H 0.34991 0.02917 0.28506
 H32 H 0.32221 0.07649 0.28228
 H33 H 0.36329 0.09368 0.20249
 H34 H 0.40630 -0.06326 0.23929
 H35 H 0.37977 -0.11019 0.24503
 H36 H 0.30149 -0.06045 0.26656
 H37 H 0.32966 -0.01448 0.26029
 C38 C 0.45046 -0.00105 0.16555
 C39 C 0.45280 -0.00283 0.32930
 C40 C 0.33854 -0.08913 0.25676
 C41 C 0.34036 0.08867 0.24192
 C42 C 0.08051 0.02242 0.69914
 H43 H 0.09415 0.04144 0.70283
 C44 C 0.06404 0.02066 0.67439
 H45 H 0.06509 0.03840 0.65917
 C46 C 0.06368 -0.02461 0.71345
 H47 H 0.06410 -0.04242 0.72859
 C48 C 0.04695 -0.02729 0.68889
 H49 H 0.03458 -0.04721 0.68512
 N50 N 0.08019 -0.00012 0.71804
 C51 C 0.09615 0.00183 0.80844
 H52 H 0.11996 0.00109 0.80853
 C53 C 0.08078 0.00516 0.83365
 H54 H 0.09283 0.00644 0.85321
 C55 C 0.05144 0.00183 0.78283
 H56 H 0.04012 0.00124 0.76290
 C57 C 0.03515 0.00514 0.80769
 H58 H 0.01135 0.00643 0.80686
 Zn59 Zn 0.10495 0.00006 0.75044
 N60 N 0.08143 0.00018 0.78366
 C61 C 0.11260 0.06121 0.75619
 N62 N 0.12789 0.03552 0.75245
 C63 C 0.15790 0.03522 0.75280
 C64 C 0.17355 0.06151 0.75677
 C65 C 0.12736 0.08788 0.76024
 C66 C 0.12684 -0.05681 0.76766
 C67 C 0.14215 -0.08359 0.76436
 C68 C 0.16222 -0.06536 0.72087
 C69 C 0.14651 -0.03886 0.72496
 N70 N 0.12920 -0.03500 0.74808
 H71 H 0.08879 0.06092 0.75637
 H72 H 0.16975 0.01459 0.75041
 H73 H 0.19739 0.06101 0.75684
 H74 H 0.11481 0.10810 0.76301
 H75 H 0.11252 -0.05380 0.78555
 H76 H 0.13989 -0.10075 0.78005
 H77 H 0.17576 -0.06812 0.70233
 H78 H 0.14768 -0.02154 0.70936
 C79 C 0.05000 0.00704 0.83335
 C80 C 0.04729 -0.00453 0.66903
 C81 C 0.15990 -0.08813 0.74065
 C82 C 0.15817 0.08817 0.76068
 C83 C 0.58136 0.52108 0.19894
 H84 H 0.59500 0.54008 0.20269
 C85 C 0.56497 0.51936 0.17414
 H86 H 0.56608 0.53713 0.15894
 C87 C 0.56441 0.47406 0.21315
 H88 H 0.56475 0.45624 0.22829
 C89 C 0.54777 0.47142 0.18855
 H90 H 0.53536 0.45153 0.18473
 N91 N 0.58093 0.49853 0.21782
 C92 C 0.59644 0.50058 0.30822
 H93 H 0.62025 0.49985 0.30839
 C94 C 0.58098 0.50399 0.33336
 H95 H 0.59297 0.50532 0.35296
 C96 C 0.55182 0.50051 0.28246
 H97 H 0.54057 0.49987 0.26250
 C98 C 0.53544 0.50390 0.30725
 H99 H 0.51164 0.50519 0.30635
 Zn100 Zn 0.60548 0.49872 0.25034
 N101 N 0.58180 0.49887 0.28340
 C102 C 0.61300 0.55984 0.25616
 N103 N 0.62836 0.53418 0.25250
 C104 C 0.65837 0.53392 0.25309
 C105 C 0.67394 0.56023 0.25723
 C106 C 0.62767 0.58652 0.26037
 C107 C 0.62722 0.44193 0.26779
 C108 C 0.64260 0.41516 0.26467
 C109 C 0.66307 0.43333 0.22132
 C110 C 0.64730 0.45981 0.22523
 N111 N 0.62976 0.46370 0.24819
 H112 H 0.58919 0.55950 0.25615
 H113 H 0.67026 0.51332 0.25077
 H114 H 0.69778 0.55978 0.25748
 H115 H 0.61507 0.60672 0.26307
 H116 H 0.61273 0.44496 0.28555
 H117 H 0.64019 0.39803 0.28037
 H118 H 0.67679 0.43054 0.20291
 H119 H 0.64860 0.47711 0.20962
 C120 C 0.55021 0.50587 0.33296
 C121 C 0.54820 0.49421 0.16871
 C122 C 0.66058 0.41060 0.24113
 C123 C 0.65847 0.58685 0.26106
 C124 C 0.93828 0.52266 0.78788
 H125 H 0.93908 0.54120 0.77358
 C126 C 0.95569 0.52260 0.81226
 H127 H 0.96960 0.54130 0.81674
 C128 C 0.91839 0.47632 0.80027
 H129 H 0.90353 0.45845 0.79608
 C130 C 0.93540 0.47533 0.82468
 H131 H 0.93326 0.45678 0.83891
 N132 N 0.92010 0.49964 0.78225
 C133 C 0.90619 0.49214 0.69132
 H134 H 0.88277 0.48798 0.69131
 C135 C 0.92154 0.49343 0.66592
 H136 H 0.90989 0.48991 0.64639
 C137 C 0.94973 0.50257 0.71663
 H138 H 0.96066 0.50639 0.73638
 C139 C 0.96597 0.50410 0.69157
 H140 H 0.98926 0.50892 0.69221
 Zn141 Zn 0.89595 0.49939 0.74902
 N142 N 0.92022 0.49723 0.71604
 C143 C 0.87664 0.55359 0.72396
 N144 N 0.87294 0.53570 0.74677
 C145 C 0.85441 0.54400 0.76790
 C146 C 0.83860 0.57080 0.76632
 C147 C 0.86129 0.58046 0.72158
 C148 C 0.88542 0.43805 0.74626
 C149 C 0.87029 0.41146 0.74977
 C150 C 0.82649 0.43935 0.76117
 C151 C 0.84247 0.46553 0.75747
 N152 N 0.87159 0.46450 0.75049
 H153 H 0.89186 0.54742 0.70758
 H154 H 0.85210 0.53000 0.78616
 H155 H 0.82411 0.57715 0.78337
 H156 H 0.86475 0.59435 0.70338
 H157 H 0.90855 0.43761 0.74083
 H158 H 0.88177 0.39070 0.74653
 H159 H 0.80343 0.44051 0.76688
 H160 H 0.83167 0.48656 0.76072
 C161 C 0.95163 0.49989 0.66590
 C162 C 0.95428 0.49863 0.83088
 C163 C 0.84058 0.41193 0.75763
 C164 C 0.84202 0.58931 0.74290
 C165 C 0.21229 0.39840 0.97482
 H166 H 0.22939 0.39900 0.95902
 C167 C 0.18580 0.41394 0.97043
 H168 H 0.18283 0.42688 0.95150
 C169 C 0.19485 0.38007 1.01826
 H170 H 0.19805 0.36626 1.03653
 C171 C 0.16807 0.39526 1.01469
 H172 H 0.15110 0.39349 1.03057
 N173 N 0.21638 0.38180 0.99842
 C174 C 0.31226 0.36355 1.00466
 H175 H 0.31149 0.33971 1.00523
 C176 C 0.33927 0.37784 1.00797
 H177 H 0.35924 0.36491 1.01057
 C178 C 0.28714 0.40941 1.00117
 H179 H 0.26673 0.42165 0.99907
 C180 C 0.31377 0.42460 1.00440
 H181 H 0.31375 0.44849 1.00421
 Zn182 Zn 0.25100 0.35707 1.00068
 N183 N 0.28684 0.37935 1.00127
 C184 C 0.27101 0.33144 0.94924
 N185 N 0.24931 0.33167 0.96892
 C186 C 0.22432 0.31567 0.96533
 C187 C 0.22018 0.29902 0.94094
 C188 C 0.26779 0.31501 0.92463
 C189 C 0.25430 0.34970 1.05873
 C190 C 0.25851 0.33491 1.08417
 C191 C 0.25738 0.28856 1.05932
 C192 C 0.25322 0.30429 1.03420
 N193 N 0.25174 0.33435 1.03438
 H194 H 0.29040 0.34473 0.95214
 H195 H 0.20719 0.31660 0.98109
 H196 H 0.19985 0.28713 0.93792
 H197 H 0.28485 0.31566 0.90874
 H198 H 0.25369 0.37356 1.05826
 H199 H 0.26054 0.34745 1.10339
 H200 H 0.25856 0.26469 1.05902
 H201 H 0.25190 0.29248 1.01458
 C202 C 0.34015 0.40870 1.00801
 C203 C 0.16326 0.41219 0.99043
 C204 C 0.26031 0.30407 1.08453
 C205 C 0.24201 0.29892 0.92024
 C206 C 0.78916 0.10094 0.97513
 H207 H 0.77264 0.09948 0.95886
 C208 C 0.81623 0.08608 0.97189
 H209 H 0.82015 0.07284 0.95334
 C210 C 0.80459 0.12071 1.01859
 H211 H 0.80039 0.13481 1.03643
 C212 C 0.83191 0.10625 1.01619
 H213 H 0.84822 0.10892 1.03256
 N214 N 0.78379 0.11792 0.99819
 C215 C 0.68704 0.13315 1.00188
 H216 H 0.68698 0.15702 1.00186
 C217 C 0.66046 0.11799 1.00510
 H218 H 0.64002 0.13030 1.00703
 C219 C 0.71375 0.08813 1.00004
 H220 H 0.73460 0.07654 0.99865
 C221 C 0.68758 0.07208 1.00322
 H222 H 0.68844 0.04820 1.00369
 Zn223 Zn 0.74835 0.14167 0.99912
 N224 N 0.71308 0.11820 0.99937
 C225 C 0.72914 0.16601 0.94655
 N226 N 0.75024 0.16681 0.96680
 C227 C 0.77482 0.18352 0.96340
 C228 C 0.77913 0.19989 0.93873
 C229 C 0.73255 0.18211 0.92165
 C230 C 0.74332 0.14907 1.05704
 C231 C 0.73917 0.16371 1.08253
 C232 C 0.74112 0.21021 1.05786
 C233 C 0.74518 0.19464 1.03267
 N234 N 0.74634 0.16457 1.03274
 H235 H 0.71008 0.15220 0.94927
 H236 H 0.79154 0.18344 0.97956
 H237 H 0.79911 0.21244 0.93600
 H238 H 0.71592 0.18070 0.90543
 H239 H 0.74378 0.12521 1.05651
 H240 H 0.73698 0.15102 1.10170
 H241 H 0.74043 0.23410 1.05766
 H242 H 0.74697 0.20659 1.01310
 C243 C 0.66058 0.08711 1.00599
 C244 C 0.83805 0.08892 0.99250
 C245 C 0.73793 0.19456 1.08306
 C246 C 0.75791 0.19898 0.91748
 C247 C 0.28825 0.60203 0.47418
 H248 H 0.27179 0.60071 0.45784
 C249 C 0.31523 0.58699 0.47104
 H250 H 0.31920 0.57375 0.45250
 C251 C 0.30362 0.62158 0.51775
 H252 H 0.29944 0.63566 0.53561
 C253 C 0.33084 0.60692 0.51542
 H254 H 0.34714 0.60938 0.53182
 N255 N 0.28289 0.61899 0.49725
 C256 C 0.18616 0.63429 0.50073
 H257 H 0.18606 0.65816 0.50072
 C258 C 0.15960 0.61908 0.50391
 H259 H 0.13913 0.63134 0.50581
 C260 C 0.21296 0.58932 0.49895
 H261 H 0.23383 0.57776 0.49761
 C262 C 0.18682 0.57322 0.50207
 H263 H 0.18772 0.54934 0.50255
 Zn264 Zn 0.24752 0.64285 0.49812
 N265 N 0.21223 0.61939 0.49828
 C266 C 0.22841 0.66731 0.44555
 N267 N 0.24951 0.66802 0.46580
 C268 C 0.27410 0.68471 0.46244
 C269 C 0.27843 0.70115 0.43782
 C270 C 0.23183 0.68347 0.42069
 C271 C 0.24235 0.65024 0.55605
 C272 C 0.23821 0.66488 0.58155
 C273 C 0.24035 0.71139 0.55689
 C274 C 0.24440 0.69581 0.53170
 N275 N 0.24547 0.66573 0.53176
 H276 H 0.20933 0.65351 0.44824
 H277 H 0.29082 0.68457 0.47861
 H278 H 0.29842 0.71369 0.43512
 H279 H 0.21520 0.68213 0.40447
 H280 H 0.24275 0.62638 0.55553
 H281 H 0.23596 0.65220 0.60071
 H282 H 0.23974 0.73527 0.55670
 H283 H 0.24627 0.70776 0.51214
 C284 C 0.15979 0.58819 0.50479
 C285 C 0.33694 0.58960 0.49174
 C286 C 0.23707 0.69574 0.58209
 C287 C 0.25721 0.70034 0.41656
 C288 C 0.71225 0.89734 0.47485
 H289 H 0.72935 0.89793 0.45905
 C290 C 0.68572 0.91279 0.47041
 H291 H 0.68271 0.92565 0.45144
 C292 C 0.69487 0.87913 0.51835
 H293 H 0.69811 0.86540 0.53668
 C294 C 0.66804 0.89423 0.51473
 H295 H 0.65109 0.89248 0.53063
 N296 N 0.71639 0.88084 0.49851
 C297 C 0.81240 0.86326 0.50480
 H298 H 0.81181 0.83941 0.50541
 C299 C 0.83929 0.87777 0.50807
 H300 H 0.85937 0.86499 0.51069
 C301 C 0.78693 0.90891 0.50122
 H302 H 0.76643 0.92100 0.49911
 C303 C 0.81344 0.92432 0.50442
 H304 H 0.81323 0.94821 0.50418
 Zn305 Zn 0.75116 0.85631 0.50087
 N306 N 0.78685 0.87885 0.50138
 C307 C 0.77129 0.83072 0.44942
 N308 N 0.74963 0.83078 0.46915
 C309 C 0.72476 0.81459 0.46559
 C310 C 0.72069 0.79792 0.44119
 C311 C 0.76814 0.81428 0.42480
 C312 C 0.75448 0.84923 0.55898
 C313 C 0.75876 0.83459 0.58449
 C314 C 0.75792 0.78811 0.55987
 C315 C 0.75368 0.80367 0.53467
 N316 N 0.75202 0.83373 0.53469
 H317 H 0.79058 0.84416 0.45229
 H318 H 0.70765 0.81539 0.48138
 H319 H 0.70045 0.78587 0.43821
 H320 H 0.78516 0.81507 0.40889
 H321 H 0.75373 0.87308 0.55839
 H322 H 0.76070 0.84726 0.60365
 H323 H 0.75923 0.76424 0.55969
 H324 H 0.75243 0.79175 0.51510
 C325 C 0.83994 0.90863 0.50806
 C326 C 0.66318 0.91106 0.49042
 C327 C 0.76074 0.80376 0.58502
 C328 C 0.74247 0.79799 0.42044
 C329 C 0.02049 0.28595 0.40824
 H330 H 0.03927 0.27116 0.40949
 C331 C 0.02023 0.31210 0.42326
 H332 H 0.03879 0.31776 0.43641
 C333 C -0.02630 0.29747 0.38842
 H334 H -0.04388 0.29201 0.37417
 C335 C -0.02746 0.32384 0.40306
 H336 H -0.04607 0.33871 0.40042
 N337 N -0.00256 0.27929 0.39136
 C338 C 0.00257 0.18689 0.37764
 H339 H 0.00281 0.18694 0.35493
 C340 C 0.00246 0.16049 0.39222
 H341 H 0.00272 0.13978 0.38087
 C342 C 0.00143 0.21406 0.42033
 H343 H 0.00044 0.23504 0.43098
 C344 C 0.00129 0.18810 0.43581
 H345 H 0.00057 0.18892 0.45854
 Zn346 Zn 0.00144 0.24596 0.36983
 N347 N 0.00245 0.21279 0.39187
 C348 C 0.05802 0.22969 0.35480
 N349 N 0.03601 0.24956 0.35021
 C350 C 0.03968 0.27387 0.33389
 C351 C 0.06658 0.27869 0.32085
 C352 C 0.08513 0.23364 0.34224
 C353 C -0.05568 0.23559 0.36027
 C354 C -0.08166 0.23326 0.34546
 C355 C -0.05470 0.24293 0.30249
 C356 C -0.02901 0.24491 0.31820
 N357 N -0.03034 0.24202 0.34656
 H358 H 0.05493 0.21121 0.36875
 H359 H 0.02185 0.28965 0.33148
 H360 H 0.06972 0.29799 0.30778
 H361 H 0.10275 0.21782 0.34592
 H362 H -0.05565 0.23311 0.38285
 H363 H -0.10208 0.22914 0.35651
 H364 H -0.05416 0.24629 0.27998
 H365 H -0.00832 0.24932 0.30791
 C366 C 0.00189 0.16130 0.42145
 C367 C -0.00386 0.33110 0.42033
 C368 C -0.08109 0.23749 0.31653
 C369 C 0.08929 0.25834 0.32532
 C370 C 0.02305 0.71220 0.09828
 H371 H 0.04044 0.72835 0.09832
 C372 C 0.02601 0.68653 0.08267
 H373 H 0.04571 0.68255 0.07038
 C374 C -0.02411 0.69734 0.11449
 H375 H -0.04331 0.70146 0.12728
 C376 C -0.02205 0.67143 0.09926
 H377 H -0.03981 0.65563 0.09997
 N378 N -0.00199 0.71725 0.11318
 C379 C -0.01086 0.81012 0.12120
 H380 H -0.01433 0.81124 0.14363
 C381 C -0.01110 0.83562 0.10525
 H382 H -0.01470 0.85681 0.11523
 C383 C -0.00164 0.78097 0.08059
 H384 H 0.00165 0.75956 0.07119
 C385 C -0.00165 0.80603 0.06379
 H386 H 0.00203 0.80418 0.04140
 Zn387 Zn -0.00467 0.75202 0.13280
 N388 N -0.00547 0.78372 0.10876
 C389 C 0.04673 0.77660 0.15302
 N390 N 0.02762 0.75392 0.15588
 C391 C 0.03318 0.73050 0.17298
 C392 C 0.05943 0.72905 0.18785
 C393 C 0.07306 0.77610 0.16756
 C394 C -0.06373 0.75621 0.13693
 C395 C -0.09098 0.75793 0.14978
 C396 C -0.06654 0.75553 0.19506
 C397 C -0.03966 0.75391 0.18126
 N398 N -0.03902 0.75373 0.15277
 H399 H 0.04227 0.79445 0.13862
 H400 H 0.01768 0.71255 0.17414
 H401 H 0.06446 0.71002 0.20084
 H402 H 0.08872 0.79375 0.16468
 H403 H -0.06210 0.75651 0.11428
 H404 H -0.11074 0.75930 0.13706
 H405 H -0.06725 0.75509 0.21780
 H406 H -0.01948 0.75268 0.19319
 C407 C -0.00607 0.83339 0.07650
 C408 C 0.00306 0.66632 0.08312
 C409 C -0.09223 0.75731 0.17901
 C410 C 0.07949 0.75191 0.18461
 C411 C 0.52409 0.21122 0.59663
 H412 H 0.54179 0.22702 0.59670
 C413 C 0.52646 0.18562 0.58085
 H414 H 0.54605 0.18133 0.56848
 C415 C 0.47673 0.19715 0.61300
 H416 H 0.45770 0.20155 0.62594
 C417 C 0.47820 0.17133 0.59758
 H418 H 0.46018 0.15584 0.59832
 N419 N 0.49925 0.21661 0.61174
 C420 C 0.49252 0.30946 0.62081
 H421 H 0.48952 0.31038 0.64332
 C422 C 0.49219 0.33511 0.60510
 H423 H 0.48900 0.35624 0.61534
 C424 C 0.50042 0.28062 0.57976
 H425 H 0.50316 0.25926 0.57010
 C426 C 0.50028 0.30585 0.56319
 H427 H 0.50331 0.30418 0.54069
 Zn428 Zn 0.49751 0.25117 0.63171
 N429 N 0.49722 0.28312 0.60801
 C430 C 0.54954 0.27438 0.65177
 N431 N 0.52995 0.25212 0.65463
 C432 C 0.53494 0.22864 0.67180
 C433 C 0.56104 0.22677 0.68690
 C434 C 0.57572 0.27345 0.66652
 C435 C 0.43859 0.25670 0.63615
 C436 C 0.41148 0.25915 0.64913
 C437 C 0.43604 0.25604 0.69427
 C438 C 0.46282 0.25370 0.68038
 N439 N 0.46332 0.25352 0.65188
 H440 H 0.54553 0.29226 0.63728
 H441 H 0.51906 0.21104 0.67295
 H442 H 0.56557 0.20775 0.70006
 H443 H 0.59171 0.29082 0.66373
 H444 H 0.44011 0.25699 0.61349
 H445 H 0.39162 0.26103 0.63663
 H446 H 0.43527 0.25556 0.71699
 H447 H 0.48301 0.25194 0.69223
 C448 C 0.49640 0.33311 0.57622
 C449 C 0.50315 0.16584 0.58132
 C450 C 0.41039 0.25856 0.67832
 C451 C 0.58151 0.24928 0.68379
 C452 C 0.52039 0.78690 0.90644
 H453 H 0.53906 0.77198 0.90774
 C454 C 0.52021 0.81299 0.92153
 H455 H 0.53874 0.81850 0.93477
 C456 C 0.47368 0.79867 0.88655
 H457 H 0.45608 0.79329 0.87230
 C458 C 0.47261 0.82500 0.90127
 H459 H 0.45404 0.83993 0.89868
 N460 N 0.49731 0.78035 0.88954
 C461 C 0.50154 0.68778 0.87694
 H462 H 0.50189 0.68747 0.85424
 C463 C 0.50120 0.66162 0.89191
 H464 H 0.50142 0.64071 0.88092
 C465 C 0.50040 0.71561 0.91925
 H466 H 0.49951 0.73674 0.92961
 C467 C 0.50005 0.68989 0.93508
 H468 H 0.49928 0.69098 0.95778
 Zn469 Zn 0.50105 0.74678 0.86836
 N470 N 0.50158 0.71389 0.89081
 C471 C 0.55759 0.72982 0.85384
 N472 N 0.53577 0.74982 0.84891
 C473 C 0.53982 0.77406 0.83259
 C474 C 0.56699 0.77876 0.82002
 C475 C 0.58495 0.73366 0.84175
 C476 C 0.44393 0.73681 0.85871
 C477 C 0.41796 0.73460 0.84388
 C478 C 0.44506 0.74384 0.80090
 C479 C 0.47075 0.74569 0.81664
 N480 N 0.46934 0.74294 0.84501
 H481 H 0.55417 0.71140 0.86778
 H482 H 0.52213 0.78994 0.82991
 H483 H 0.57046 0.79805 0.80701
 H484 H 0.60244 0.71778 0.84575
 H485 H 0.44389 0.73447 0.88130
 H486 H 0.39748 0.73071 0.85492
 H487 H 0.44565 0.74709 0.77838
 H488 H 0.49149 0.74990 0.80637
 C489 C 0.50056 0.66291 0.92110
 C490 C 0.49618 0.83207 0.91865
 C491 C 0.41861 0.73868 0.81493
 C492 C 0.58955 0.75836 0.82495
 C493 C -0.22840 0.68845 0.96397
 H494 H -0.20982 0.68896 0.97815
 C495 C -0.22865 0.70642 0.93992
 H496 H -0.21005 0.72046 0.93545
 C497 C -0.27477 0.66882 0.95168
 H498 H -0.29261 0.65390 0.95582
 C499 C -0.27592 0.68642 0.92760
 H500 H -0.29449 0.68466 0.91346
 N501 N -0.25135 0.67015 0.96950
 C502 C -0.25957 0.65595 1.06014
 H503 H -0.26345 0.63243 1.06028
 C504 C -0.25856 0.67145 1.08544
 H505 H -0.26205 0.65975 1.10501
 C506 C -0.24948 0.69960 1.03458
 H507 H -0.24567 0.71050 1.01477
 C508 C -0.24823 0.71600 1.05951
 H509 H -0.24363 0.73939 1.05865
 Zn510 Zn -0.25155 0.64570 1.00253
 N511 N -0.25447 0.66997 1.03536
 C512 C -0.19749 0.62723 1.02811
 N513 N -0.21493 0.62334 1.00509
 C514 C -0.20597 0.60511 0.98397
 C515 C -0.17896 0.58979 0.98577
 C516 C -0.17043 0.61237 1.03072
 C517 C -0.31253 0.63398 1.00530
 C518 C -0.33879 0.61847 1.00144
 C519 C -0.31022 0.57542 0.98889
 C520 C -0.28438 0.59177 0.99297
 N521 N -0.28591 0.62071 1.00070
 H522 H -0.20418 0.64224 1.04449
 H523 H -0.21961 0.60268 0.96553
 H524 H -0.17209 0.57552 0.96874
 H525 H -0.15690 0.61596 1.04910
 H526 H -0.31338 0.65698 1.01128
 H527 H -0.35970 0.62951 1.00498
 H528 H -0.30866 0.55252 0.98259
 H529 H -0.26321 0.58142 0.98939
 C530 C -0.25237 0.70168 1.08526
 C531 C -0.25273 0.70546 0.92157
 C532 C -0.33781 0.58895 0.99282
 C533 C -0.16091 0.59341 1.00942
 C534 C -0.22753 0.33160 0.55248
 H535 H -0.20852 0.34515 0.54848
 C536 C -0.22927 0.31617 0.57645
 H537 H -0.21156 0.31731 0.59163
 C538 C -0.27431 0.31458 0.53687
 H539 H -0.29207 0.31470 0.52175
 C540 C -0.27724 0.29727 0.56314
 H541 H -0.29720 0.28496 0.56695
 N542 N -0.25109 0.33067 0.53233
 C543 C -0.24843 0.34619 0.44165
 H544 H -0.24937 0.37004 0.44145
 C545 C -0.24476 0.33075 0.41653
 H546 H -0.24341 0.34280 0.39692
 C547 C -0.24831 0.30145 0.46747
 H548 H -0.24900 0.29014 0.48743
 C549 C -0.24465 0.28509 0.44268
 H550 H -0.24319 0.26125 0.44363
 Zn551 Zn -0.25085 0.35526 0.49964
 N552 N -0.25018 0.33149 0.46651
 C553 C -0.18978 0.36341 0.49435
 N554 N -0.21559 0.37856 0.49768
 C555 C -0.21611 0.40863 0.49694
 C556 C -0.18995 0.42449 0.49295
 C557 C -0.16324 0.37838 0.49030
 C558 C -0.30765 0.37662 0.48188
 C559 C -0.33454 0.39177 0.48486
 C560 C -0.31692 0.41241 0.52827
 C561 C -0.29031 0.39685 0.52448
 N562 N -0.28609 0.37933 0.50156
 H563 H -0.18988 0.33955 0.49447
 H564 H -0.23681 0.42037 0.49901
 H565 H -0.19064 0.44837 0.49255
 H566 H -0.14294 0.36593 0.48783
 H567 H -0.30436 0.36215 0.46415
 H568 H -0.35146 0.38918 0.46904
 H569 H -0.31989 0.42610 0.54668
 H570 H -0.27318 0.39829 0.54016
 C571 C -0.24264 0.29991 0.41694
 C572 C -0.25569 0.29823 0.58235
 C573 C -0.33947 0.40974 0.50838
 C574 C -0.16317 0.40925 0.48944
 C575 C 0.27213 -0.16744 0.05163
 H576 H 0.29122 -0.15398 0.04768
 C577 C 0.27015 -0.18272 0.07567
 H578 H 0.28775 -0.18155 0.09096
 C579 C 0.22539 -0.18438 0.03580
 H580 H 0.20772 -0.18423 0.02060
 C581 C 0.22221 -0.20153 0.06214
 H582 H 0.20217 -0.21373 0.06589
 N583 N 0.24869 -0.16838 0.03135
 C584 C 0.25136 -0.15266 -0.05926
 H585 H 0.25040 -0.12880 -0.05941
 C586 C 0.25503 -0.16803 -0.08443
 H587 H 0.25635 -0.15592 -0.10401
 C588 C 0.25155 -0.19746 -0.03355
 H589 H 0.25088 -0.20882 -0.01361
 C590 C 0.25521 -0.21376 -0.05837
 H591 H 0.25670 -0.23760 -0.05748
 Zn592 Zn 0.24901 -0.14375 -0.00127
 N593 N 0.24965 -0.16742 -0.03444
 C594 C 0.31007 -0.13567 -0.00651
 N595 N 0.28428 -0.12048 -0.00317
 C596 C 0.28382 -0.09041 -0.00390
 C597 C 0.31000 -0.07459 -0.00788
 C598 C 0.33664 -0.12075 -0.01055
 C599 C 0.19212 -0.12248 -0.01879
 C600 C 0.16514 -0.10754 -0.01557
 C601 C 0.18291 -0.08701 0.02784
 C602 C 0.20960 -0.10235 0.02380
 N603 N 0.21378 -0.11973 0.00078
 H604 H 0.30993 -0.15953 -0.00639
 H605 H 0.26313 -0.07864 -0.00182
 H606 H 0.30936 -0.05070 -0.00826
 H607 H 0.35692 -0.13323 -0.01302
 H608 H 0.19540 -0.13686 -0.03660
 H609 H 0.14815 -0.11018 -0.03130
 H610 H 0.17996 -0.07345 0.04634
 H611 H 0.22681 -0.10090 0.03941
 C612 C 0.25719 -0.19886 -0.08408
 C613 C 0.24360 -0.20050 0.08149
 C614 C 0.16024 -0.08976 0.00808
 C615 C 0.33675 -0.08987 -0.01140
 C616 C 0.27151 1.18785 0.46293
 H617 H 0.29014 1.18842 0.47705
 C618 C 0.27109 1.20590 0.43894
 H619 H 0.28962 1.22002 0.43442
 C620 C 0.22515 1.16809 0.45079
 H621 H 0.20738 1.15311 0.45498
 C622 C 0.22383 1.18576 0.42676
 H623 H 0.20520 1.18398 0.41269
 N624 N 0.24863 1.16948 0.46852
 C625 C 0.24114 1.15593 0.55930
 H626 H 0.23755 1.13237 0.55972
 C627 C 0.24224 1.17174 0.58442
 H628 H 0.23912 1.16030 0.60417
 C629 C 0.25039 1.19942 0.53320
 H630 H 0.25379 1.21018 0.51325
 C631 C 0.25170 1.21610 0.55794
 H632 H 0.25595 1.23955 0.55687
 Zn633 Zn 0.24858 1.14522 0.50166
 N634 N 0.24580 1.16973 0.53433
 C635 C 0.30279 1.12689 0.52705
 N636 N 0.28518 1.12283 0.50418
 C637 C 0.29392 1.10435 0.48317
 C638 C 0.32087 1.08891 0.48497
 C639 C 0.32980 1.11192 0.52965
 C640 C 0.18760 1.13356 0.50460
 C641 C 0.16133 1.11800 0.50093
 C642 C 0.18989 1.07478 0.48892
 C643 C 0.21573 1.09118 0.49278
 N644 N 0.21421 1.12022 0.50014
 H645 H 0.29629 1.14211 0.54331
 H646 H 0.28015 1.10179 0.46484
 H647 H 0.32755 1.07442 0.46804
 H648 H 0.34346 1.11564 0.54791
 H649 H 0.18675 1.15664 0.51030
 H650 H 0.14042 1.12910 0.50434
 H651 H 0.19144 1.05179 0.48290
 H652 H 0.23689 1.08077 0.48934
 C653 C 0.24803 1.20203 0.58386
 C654 C 0.24691 1.20492 0.42070
 C655 C 0.16231 1.08837 0.49268
 C656 C 0.33907 1.09267 0.50848
 C657 C 0.14698 0.46423 0.27393
 H658 H 0.14709 0.48125 0.28981
 C659 C 0.16294 0.43793 0.27831
 H660 H 0.17567 0.43505 0.29735
 C661 C 0.12953 0.44676 0.23027
 H662 H 0.11592 0.44986 0.21188
 C663 C 0.14516 0.42017 0.23384
 H664 H 0.14389 0.40326 0.21787
 N665 N 0.13060 0.46822 0.25022
 C666 C 0.11164 0.56433 0.24411
 H667 H 0.08785 0.56349 0.24344
 C668 C 0.12585 0.59148 0.24099
 H669 H 0.11291 0.61148 0.23842
 C670 C 0.15743 0.53928 0.24769
 H671 H 0.16971 0.51886 0.24975
 C672 C 0.17254 0.56604 0.24464
 H673 H 0.19638 0.56607 0.24492
 Zn674 Zn 0.10545 0.50268 0.24787
 N675 N 0.12744 0.53886 0.24746
 C676 C 0.07949 0.52218 0.29944
 N677 N 0.07989 0.50057 0.27967
 C678 C 0.06416 0.47536 0.28329
 C679 C 0.04767 0.47089 0.30780
 C680 C 0.06322 0.51864 0.32416
 C681 C 0.09863 0.50619 0.18967
 C682 C 0.08413 0.51011 0.16405
 C683 C 0.03758 0.50802 0.18847
 C684 C 0.05304 0.50417 0.21376
 N685 N 0.08306 0.50328 0.21390
 H686 H 0.09257 0.54176 0.29654
 H687 H 0.06520 0.45828 0.26750
 H688 H 0.03601 0.45039 0.31081
 H689 H 0.06377 0.53565 0.34009
 H690 H 0.12243 0.50602 0.19037
 H691 H 0.09701 0.51237 0.14501
 H692 H 0.01372 0.50866 0.18867
 H693 H 0.04104 0.50254 0.23328
 C694 C 0.15665 0.59247 0.24108
 C695 C 0.16188 0.41546 0.25820
 C696 C 0.05329 0.51126 0.16332
 C697 C 0.04742 0.49262 0.32861
 C698 C -0.14565 1.03680 0.27500
 H699 H -0.14696 1.02008 0.29118
 C700 C -0.16043 1.06389 0.27855
 H701 H -0.17348 1.06770 0.29725
 C702 C -0.12638 1.05265 0.23138
 H703 H -0.11252 1.04858 0.21334
 C704 C -0.14079 1.08000 0.23413
 H705 H -0.13837 1.09653 0.21786
 N706 N -0.12897 1.03162 0.25169
 C707 C -0.11468 0.93470 0.24729
 H708 H -0.09086 0.93435 0.24714
 C709 C -0.13015 0.90829 0.24402
 H710 H -0.11814 0.88767 0.24189
 C711 C -0.15927 0.96200 0.24960
 H712 H -0.17057 0.98302 0.25117
 C713 C -0.17562 0.93602 0.24638
 H714 H -0.19944 0.93718 0.24609
 Zn715 Zn -0.10552 0.99599 0.25031
 N716 N -0.12927 0.96093 0.25006
 C717 C -0.08113 0.97605 0.30255
 N718 N -0.08026 0.99735 0.28241
 C719 C -0.06338 1.02182 0.28581
 C720 C -0.04697 1.02585 0.31041
 C721 C -0.06499 0.97917 0.32739
 C722 C -0.09850 0.99133 0.19235
 C723 C -0.08409 0.98704 0.16676
 C724 C -0.03751 0.98817 0.19114
 C725 C -0.05289 0.99239 0.21642
 N726 N -0.08288 0.99402 0.21654
 H727 H -0.09508 0.95708 0.29983
 H728 H -0.06341 1.03870 0.26973
 H729 H -0.03434 1.04578 0.31318
 H730 H -0.06650 0.96242 0.34356
 H731 H -0.12230 0.99215 0.19303
 H732 H -0.09694 0.98512 0.14770
 H733 H -0.01368 0.98711 0.19125
 H734 H -0.04086 0.99389 0.23592
 C735 C -0.16096 0.90883 0.24336
 C736 C -0.15783 1.08590 0.25804
 C737 C -0.05330 0.98529 0.16602
 C738 C -0.04799 1.00445 0.33158
 C739 C 0.35306 0.53790 -0.22508
 H740 H 0.35157 0.52134 -0.20878
 C741 C 0.33840 0.56510 -0.22182
 H742 H 0.32526 0.56915 -0.20322
 C743 C 0.37268 0.55328 -0.26871
 H744 H 0.38663 0.54900 -0.28664
 C745 C 0.35839 0.58072 -0.26626
 H746 H 0.36100 0.59710 -0.28264
 N747 N 0.36987 0.53244 -0.24825
 C748 C 0.38489 0.43388 -0.25204
 H749 H 0.40871 0.43354 -0.25160
 C750 C 0.37013 0.40861 -0.25554
 H751 H 0.38213 0.38798 -0.25765
 C752 C 0.34072 0.46265 -0.25015
 H753 H 0.32937 0.48368 -0.24914
 C754 C 0.32346 0.43514 -0.25358
 H755 H 0.29963 0.43645 -0.25381
 Zn756 Zn 0.39322 0.49671 -0.24923
 N757 N 0.36943 0.46164 -0.24936
 C758 C 0.41759 0.47703 -0.19688
 N759 N 0.41837 0.49829 -0.21706
 C760 C 0.43522 0.52279 -0.21377
 C761 C 0.45176 0.52687 -0.18926
 C762 C 0.43385 0.48020 -0.17212
 C763 C 0.40068 0.49164 -0.30714
 C764 C 0.41535 0.48727 -0.33259
 C765 C 0.46167 0.48855 -0.30783
 C766 C 0.44607 0.49286 -0.28269
 N767 N 0.41607 0.49446 -0.28283
 H768 H 0.40367 0.45802 -0.19954
 H769 H 0.43513 0.53962 -0.22990
 H770 H 0.46441 0.54680 -0.18658
 H771 H 0.43245 0.46347 -0.15592
 H772 H 0.37688 0.49245 -0.30666
 H773 H 0.40276 0.48525 -0.35178
 H774 H 0.48550 0.48751 -0.30758
 H775 H 0.45792 0.49447 -0.26310
 C776 C 0.33755 0.40909 -0.25651
 C777 C 0.34124 0.58693 -0.24249
 C778 C 0.44613 0.48557 -0.33303
 C779 C 0.45088 0.50549 -0.16806
 C780 C 0.65028 -0.03660 -0.22410
 H781 H 0.65101 -0.01934 -0.20846
 C782 C 0.66513 -0.06202 -0.21985
 H783 H 0.67799 -0.06503 -0.20090
 C784 C 0.63138 -0.05283 -0.26808
 H785 H 0.61733 -0.04987 -0.28617
 C786 C 0.64772 -0.08107 -0.26441
 H787 H 0.64617 -0.09780 -0.28056
 N788 N 0.63278 -0.03224 -0.24905
 C789 C 0.61410 0.06390 -0.25505
 H790 H 0.59031 0.06314 -0.25560
 C791 C 0.62839 0.09099 -0.25829
 H792 H 0.61544 0.11101 -0.26082
 C793 C 0.65982 0.03868 -0.25166
 H794 H 0.67202 0.01821 -0.24961
 C795 C 0.67503 0.06537 -0.25482
 H796 H 0.69888 0.06524 -0.25463
 Zn797 Zn 0.60774 0.00229 -0.25119
 N798 N 0.62983 0.03839 -0.25174
 C799 C 0.58175 0.02196 -0.19967
 N800 N 0.58230 0.00024 -0.21933
 C801 C 0.56652 -0.02494 -0.21573
 C802 C 0.54973 -0.02924 -0.19140
 C803 C 0.56518 0.01859 -0.17511
 C804 C 0.60031 0.00586 -0.30935
 C805 C 0.58546 0.00981 -0.33477
 C806 C 0.53927 0.00788 -0.30980
 C807 C 0.55503 0.00399 -0.28470
 N808 N 0.58505 0.00300 -0.28494
 H809 H 0.59484 0.04152 -0.20256
 H810 H 0.56767 -0.04209 -0.23146
 H811 H 0.53798 -0.04969 -0.18842
 H812 H 0.56554 0.03569 -0.15927
 H813 H 0.62412 0.00562 -0.30895
 H814 H 0.59794 0.01203 -0.35404
 H815 H 0.51544 0.00861 -0.30943
 H816 H 0.54327 0.00242 -0.26505
 C817 C 0.65921 0.09188 -0.25836
 C818 C 0.66369 -0.08580 -0.24106
 C819 C 0.55466 0.01105 -0.33508
 C820 C 0.54925 -0.00737 -0.17074
 C821 C 0.03671 0.27248 0.84491
 H822 H 0.02127 0.29073 0.84350
 C823 C 0.06285 0.27308 0.82992
 H824 H 0.06788 0.29180 0.81663
 C825 C 0.04956 0.22589 0.86474
 H826 H 0.04452 0.20798 0.87886
 C827 C 0.07594 0.22560 0.85013
 H828 H 0.09124 0.20731 0.85264
 N829 N 0.03060 0.24901 0.86162
 C830 C -0.06216 0.24943 0.87188
 H831 H -0.06314 0.24954 0.89456
 C832 C -0.08776 0.24818 0.85628
 H833 H -0.10892 0.24754 0.86676
 C834 C -0.03315 0.24985 0.83026
 H835 H -0.01175 0.24991 0.82041
 C836 C -0.05830 0.24863 0.81379
 H837 H -0.05654 0.24826 0.79112
 Zn838 Zn -0.00364 0.25114 0.88199
 N839 N -0.03573 0.25070 0.85866
 C840 C -0.02311 0.30696 0.89694
 N841 N -0.00254 0.28569 0.90192
 C842 C 0.02119 0.29031 0.91864
 C843 C 0.02490 0.31756 0.93134
 C844 C -0.02027 0.33443 0.90919
 C845 C -0.01161 0.19336 0.89074
 C846 C -0.01376 0.16710 0.90528
 C847 C -0.00745 0.19402 0.94879
 C848 C -0.00558 0.22000 0.93333
 N849 N -0.00698 0.21885 0.90487
 H850 H -0.04115 0.30309 0.88274
 H851 H 0.03753 0.27304 0.92139
 H852 H 0.04390 0.32153 0.94449
 H853 H -0.03650 0.35155 0.90503
 H854 H -0.01296 0.19353 0.86808
 H855 H -0.01659 0.14661 0.89395
 H856 H -0.00542 0.19447 0.97144
 H857 H -0.00256 0.24080 0.94391
 C858 C -0.08562 0.24792 0.82712
 C859 C 0.08243 0.24943 0.83272
 C860 C -0.01122 0.16754 0.93438
 C861 C 0.00404 0.33965 0.92621
 C862 C 0.46274 0.27081 0.15717
 H863 H 0.47829 0.28875 0.15756
 C864 C 0.43682 0.27269 0.17247
 H865 H 0.43207 0.29209 0.18498
 C866 C 0.44940 0.22364 0.13970
 H867 H 0.45415 0.20496 0.12639
 C868 C 0.42326 0.22460 0.15465
 H869 H 0.40787 0.20653 0.15321
 N870 N 0.46853 0.24641 0.14155
 C871 C 0.56115 0.24286 0.13058
 H872 H 0.56171 0.24089 0.10796
 C873 C 0.58704 0.24250 0.14578
 H874 H 0.60799 0.24035 0.13505
 C875 C 0.53296 0.24805 0.17243
 H876 H 0.51176 0.24975 0.18257
 C877 C 0.55844 0.24783 0.18852
 H878 H 0.55713 0.24974 0.21114
 Zn879 Zn 0.50270 0.24635 0.12099
 N880 N 0.53500 0.24617 0.14404
 C881 C 0.52376 0.30001 0.10219
 N882 N 0.50223 0.27969 0.09905
 C883 C 0.47862 0.28431 0.08206
 C884 C 0.47608 0.31053 0.06709
 C885 C 0.52213 0.32637 0.08762
 C886 C 0.50952 0.18764 0.11461
 C887 C 0.51195 0.16097 0.10077
 C888 C 0.50751 0.18711 0.05646
 C889 C 0.50523 0.21342 0.07120
 N890 N 0.50562 0.21291 0.09970
 H891 H 0.54172 0.29628 0.11659
 H892 H 0.46157 0.26785 0.08070
 H893 H 0.45712 0.31458 0.05380
 H894 H 0.53908 0.34279 0.09040
 H895 H 0.51024 0.18836 0.13729
 H896 H 0.51425 0.14066 0.11264
 H897 H 0.50641 0.18713 0.03375
 H898 H 0.50295 0.23403 0.05998
 C899 C 0.58548 0.24526 0.17484
 C900 C 0.41715 0.24931 0.17108
 C901 C 0.51058 0.16088 0.07158
 C902 C 0.49802 0.33158 0.07022
 C903 C -0.03812 0.77177 0.65861
 H904 H -0.02250 0.78966 0.65882
 C905 C -0.06278 0.77362 0.67354
 H906 H -0.06741 0.79303 0.68607
 C907 C -0.05057 0.72415 0.64052
 H908 H -0.04610 0.70551 0.62709
 C909 C -0.07793 0.72517 0.65665
 H910 H -0.09321 0.70697 0.65531
 N911 N -0.03224 0.74596 0.64204
 C912 C 0.06020 0.74281 0.63013
 H913 H 0.06061 0.74096 0.60750
 C914 C 0.08621 0.74269 0.64515
 H915 H 0.10710 0.74081 0.63428
 C916 C 0.03228 0.74760 0.67219
 H917 H 0.01114 0.74909 0.68246
 C918 C 0.05787 0.74761 0.68809
 H919 H 0.05671 0.74948 0.71073
 Zn920 Zn 0.00162 0.74618 0.62105
 N921 N 0.03414 0.74585 0.64378
 C922 C 0.02229 0.80019 0.60291
 N923 N 0.00082 0.77985 0.59957
 C924 C -0.02290 0.78465 0.58275
 C925 C -0.02556 0.81106 0.56809
 C926 C 0.02054 0.82673 0.58866
 C927 C 0.00868 0.68763 0.61394
 C928 C 0.01113 0.66114 0.59982
 C929 C 0.00587 0.68771 0.55582
 C930 C 0.00361 0.71384 0.57084
 N931 N 0.00440 0.71303 0.59933
 H932 H 0.04032 0.79632 0.61718
 H933 H -0.03991 0.76817 0.58125
 H934 H -0.04454 0.81523 0.55487
 H935 H 0.03749 0.84314 0.59153
 H936 H 0.00973 0.68810 0.63662
 H937 H 0.01376 0.64072 0.61146
 H938 H 0.00447 0.68795 0.53312
 H939 H 0.00102 0.73456 0.55986
 C940 C 0.08483 0.74541 0.67423
 C941 C -0.08362 0.74894 0.67237
 C942 C 0.00936 0.66134 0.57065
 C943 C -0.00363 0.83210 0.57137
 C944 C 0.53629 0.77139 0.34384
 H945 H 0.52098 0.78974 0.34228
 C946 C 0.56268 0.77191 0.32926
 H947 H 0.56803 0.79064 0.31609
 C948 C 0.54861 0.72471 0.36377
 H949 H 0.54329 0.70681 0.37779
 C950 C 0.57524 0.72433 0.34956
 H951 H 0.59042 0.70598 0.35226
 N952 N 0.52982 0.74794 0.36044
 C953 C 0.43699 0.74916 0.37044
 H954 H 0.43599 0.74909 0.39313
 C955 C 0.41139 0.74829 0.35482
 H956 H 0.39021 0.74775 0.36529
 C957 C 0.46603 0.74970 0.32885
 H958 H 0.48744 0.74968 0.31901
 C959 C 0.44086 0.74886 0.31235
 H960 H 0.44264 0.74869 0.28968
 Zn961 Zn 0.49548 0.75036 0.38065
 N962 N 0.46344 0.75031 0.35725
 C963 C 0.47635 0.80624 0.39598
 N964 N 0.49685 0.78483 0.40072
 C965 C 0.52061 0.78916 0.41748
 C966 C 0.52439 0.81622 0.43053
 C967 C 0.47926 0.83351 0.40859
 C968 C 0.48700 0.69259 0.38946
 C969 C 0.48495 0.66634 0.40405
 C970 C 0.49153 0.69334 0.44748
 C971 C 0.49330 0.71928 0.43197
 N972 N 0.49178 0.71809 0.40352
 H973 H 0.45829 0.80259 0.38176
 H974 H 0.53689 0.77180 0.42005
 H975 H 0.54340 0.81995 0.44374
 H976 H 0.46309 0.85074 0.40464
 H977 H 0.48558 0.69272 0.36680
 H978 H 0.48209 0.64583 0.39276
 H979 H 0.49374 0.69382 0.47011
 H980 H 0.49643 0.74008 0.44251
 C981 C 0.41353 0.74829 0.32566
 C982 C 0.58214 0.74818 0.33234
 C983 C 0.48774 0.66683 0.43313
 C984 C 0.50357 0.83842 0.42571
 Zr985 Zr 0.02222 -0.02620 1.03782
 O986 O 0.05218 -0.01424 1.06977
 O987 O 0.01506 -0.07055 1.04709
 O988 O 0.00272 -0.02715 1.07855
 O989 O 0.07597 -0.03597 0.98643
 O990 O -0.04096 -0.00250 1.07267
 O991 O 0.06467 -0.04596 1.03218
 O992 O -0.01863 -0.08525 1.01446
 O993 O -0.02279 -0.03167 1.02949
 O994 O 0.01902 -0.04454 0.99766
 O995 O 0.00305 0.01610 1.04086
 O996 O 0.04394 0.00341 1.01072
 Zr997 Zr -0.02539 0.02241 0.96318
 Zr998 Zr -0.04143 0.01067 1.03052
 Zr999 Zr 0.03836 -0.01440 0.97049
 Zr1000 Zr -0.02560 -0.04837 0.98875
 O1001 O 0.07633 0.00997 0.95993
 O1002 O -0.06721 -0.06265 1.00343
 O1003 O -0.00606 -0.01994 0.95960
 O1004 O -0.04652 -0.00722 0.99036
 O1005 O -0.02231 0.04107 1.00326
 O1006 O 0.01954 0.02772 0.97165
 C1007 C -0.00207 -0.08948 1.03585
 C1008 C 0.08200 -0.04702 1.01061
 C1009 C -0.02195 -0.01641 1.08769
 O1010 O -0.08075 -0.01238 1.03902
 O1011 O -0.07738 0.03564 1.01552
 O1012 O -0.06701 0.04367 0.96924
 C1013 C -0.08356 0.04632 0.99122
 O1014 O 0.05495 0.04724 1.04414
 Zr1015 Zr 0.02256 0.04463 1.01209
 O1016 O -0.01997 0.06726 0.95510
 O1017 O -0.04760 0.04803 1.05651
 O1018 O 0.00792 0.07662 1.04151
 O1019 O 0.06172 0.06214 0.99473
 O1020 O 0.01036 0.08294 0.99021
 C1021 C -0.00605 0.08711 0.96870
 O1022 O -0.05624 0.01073 0.93192
 O1023 O 0.04638 -0.05283 0.94639
 O1024 O -0.00681 0.02166 0.92207
 O1025 O 0.03584 -0.00487 0.92757
 O1026 O -0.00956 -0.08292 0.96281
 O1027 O -0.05297 -0.05260 0.95284
 C1028 C 0.01696 0.00927 0.91261
 H1029 H 0.02897 -0.06398 0.99612
 H1030 H -0.06752 -0.00948 0.98534
 H1031 H 0.02925 0.04094 0.95799
 H1032 H 0.00551 0.02437 1.05992
 H1033 H -0.06908 -0.08380 0.99858
 H1034 H -0.09197 -0.00045 1.05285
 H1035 H -0.06689 0.04569 1.06595
 H1036 H 0.01990 0.09456 1.03873
 H1037 H -0.02228 -0.10028 0.96592
 H1038 H 0.06571 -0.05027 0.93707
 H1039 H 0.08743 -0.00190 0.94598
 H1040 H 0.06265 0.08317 1.00028
 H1041 H -0.06223 -0.07229 0.95291
 H1042 H -0.06015 0.02867 0.92050
 H1043 H 0.05622 -0.03222 1.08108
 H1044 H 0.06145 0.06793 1.04610
 Zr1045 Zr 0.52270 0.47389 0.53752
 O1046 O 0.55261 0.48629 0.56935
 O1047 O 0.51584 0.42956 0.54703
 O1048 O 0.50320 0.47300 0.57823
 O1049 O 0.57643 0.46385 0.48617
 O1050 O 0.45943 0.49745 0.57227
 O1051 O 0.56517 0.45417 0.53199
 O1052 O 0.48222 0.41446 0.51449
 O1053 O 0.47770 0.46817 0.52928
 O1054 O 0.51953 0.45527 0.49748
 O1055 O 0.50337 0.51614 0.54034
 O1056 O 0.54431 0.50340 0.51024
 Zr1057 Zr 0.47485 0.52177 0.46266
 Zr1058 Zr 0.45890 0.51045 0.53007
 Zr1059 Zr 0.53876 0.48529 0.47012
 Zr1060 Zr 0.47492 0.45119 0.48865
 O1061 O 0.57664 0.50973 0.45944
 O1062 O 0.43344 0.43683 0.50359
 O1063 O 0.49434 0.47948 0.45932
 O1064 O 0.45383 0.49226 0.49003
 O1065 O 0.47789 0.54072 0.50261
 O1066 O 0.51977 0.52733 0.47104
 C1067 C 0.49888 0.41045 0.53585
 C1068 C 0.58248 0.45294 0.51042
 C1069 C 0.47848 0.48365 0.58733
 O1070 O 0.41961 0.48739 0.53868
 O1071 O 0.42291 0.53531 0.51496
 O1072 O 0.43323 0.54303 0.46862
 C1073 C 0.41671 0.54585 0.49060
 O1074 O 0.55516 0.54752 0.54336
 Zr1075 Zr 0.52274 0.54454 0.51136
 O1076 O 0.48007 0.56656 0.45423
 O1077 O 0.45266 0.54791 0.55592
 O1078 O 0.50803 0.57667 0.54061
 O1079 O 0.56178 0.56214 0.49385
 O1080 O 0.51029 0.58264 0.48926
 C1081 C 0.49385 0.58658 0.46772
 O1082 O 0.44398 0.50967 0.43155
 O1083 O 0.54692 0.44676 0.44620
 O1084 O 0.49336 0.52082 0.42154
 O1085 O 0.53614 0.49454 0.42716
 O1086 O 0.49098 0.41655 0.46283
 O1087 O 0.44746 0.44661 0.45285
 C1088 C 0.51717 0.50848 0.41214
 H1089 H 0.52955 0.43586 0.49602
 H1090 H 0.43283 0.48991 0.48505
 H1091 H 0.52940 0.54051 0.45729
 H1092 H 0.50580 0.52452 0.55935
 H1093 H 0.43165 0.41564 0.49890
 H1094 H 0.40838 0.49937 0.55246
 H1095 H 0.43338 0.54557 0.56537
 H1096 H 0.51990 0.59465 0.53768
 H1097 H 0.47832 0.39917 0.46606
 H1098 H 0.56624 0.44935 0.43687
 H1099 H 0.58778 0.49782 0.44555
 H1100 H 0.56260 0.58322 0.49925
 H1101 H 0.43817 0.42693 0.45313
 H1102 H 0.43996 0.52750 0.42000
 H1103 H 0.55676 0.46842 0.58079
 H1104 H 0.56159 0.56824 0.54517
 Zr1105 Zr 0.47877 1.02740 0.53548
 O1106 O 0.44810 1.01352 0.56614
 O1107 O 0.48614 1.07083 0.54759
 O1108 O 0.49758 1.02589 0.57647
 O1109 O 0.42645 1.04147 0.48353
 O1110 O 0.54104 1.00100 0.57009
 O1111 O 0.43653 1.04773 0.53010
 O1112 O 0.52135 1.08708 0.51707
 O1113 O 0.52403 1.03272 0.52841
 O1114 O 0.48322 1.04849 0.49659
 O1115 O 0.49729 0.98473 0.53658
 O1116 O 0.45738 1.00011 0.50621
 Zr1117 Zr 0.52754 0.98320 0.45920
 Zr1118 Zr 0.54205 0.99016 0.52742
 Zr1119 Zr 0.46423 1.02057 0.46721
 Zr1120 Zr 0.52812 1.05219 0.48888
 O1121 O 0.42600 0.99784 0.45448
 O1122 O 0.56971 1.06467 0.50496
 O1123 O 0.50899 1.02608 0.45761
 O1124 O 0.54839 1.01064 0.48848
 O1125 O 0.52322 0.96192 0.49806
 O1126 O 0.48235 0.97817 0.46652
 C1127 C 0.50412 1.09010 0.53820
 C1128 C 0.41977 1.05054 0.50826
 C1129 C 0.52205 1.01449 0.58542
 O1130 O 0.58168 1.01178 0.53775
 O1131 O 0.57780 0.96544 0.51189
 O1132 O 0.56861 0.96071 0.46500
 C1133 C 0.58444 0.95623 0.48722
 O1134 O 0.44513 0.95403 0.53709
 Zr1135 Zr 0.47812 0.95857 0.50577
 O1136 O 0.52169 0.93916 0.44805
 O1137 O 0.54689 0.95124 0.55165
 O1138 O 0.49206 0.92431 0.53322
 O1139 O 0.43888 0.94294 0.48708
 O1140 O 0.48985 0.92197 0.48133
 C1141 C 0.50663 0.91887 0.45991
 O1142 O 0.55921 0.99694 0.42942
 O1143 O 0.45781 1.06071 0.44518
 O1144 O 0.50955 0.98619 0.41796
 O1145 O 0.46734 1.01332 0.42391
 O1146 O 0.51305 1.08887 0.46502
 O1147 O 0.55631 1.05867 0.45383
 C1148 C 0.48604 0.99926 0.40870
 H1149 H 0.47356 1.06814 0.49606
 H1150 H 0.56954 1.01285 0.48405
 H1151 H 0.47264 0.96603 0.45204
 H1152 H 0.49430 0.97531 0.55512
 H1153 H 0.57194 1.08611 0.50155
 H1154 H 0.59235 0.99883 0.55118
 H1155 H 0.56601 0.95262 0.56156
 H1156 H 0.48010 0.90668 0.52899
 H1157 H 0.52581 1.10580 0.46965
 H1158 H 0.43866 1.05925 0.43534
 H1159 H 0.41546 1.01084 0.44102
 H1160 H 0.43756 0.92158 0.49131
 H1161 H 0.56556 1.07831 0.45514
 H1162 H 0.56328 0.97982 0.41703
 H1163 H 0.44395 1.03075 0.57838
 H1164 H 0.43879 0.93321 0.53806
 Zr1165 Zr -0.02103 0.52830 1.03621
 O1166 O -0.05174 0.51427 1.06677
 O1167 O -0.01356 0.57160 1.04867
 O1168 O -0.00224 0.52636 1.07722
 O1169 O -0.07330 0.54285 0.98428
 O1170 O 0.04118 0.50145 1.07067
 O1171 O -0.06328 0.54867 1.03093
 O1172 O 0.02173 0.58804 1.01833
 O1173 O 0.02424 0.53361 1.02921
 O1174 O -0.01653 0.54971 0.99747
 O1175 O -0.00259 0.48559 1.03699
 O1176 O -0.04244 0.50131 1.00668
 Zr1177 Zr 0.02771 0.48466 0.95959
 Zr1178 Zr 0.04219 0.49103 1.02789
 Zr1179 Zr -0.03553 0.52207 0.96783
 Zr1180 Zr 0.02838 0.55341 0.98982
 O1181 O -0.07380 0.49953 0.95490
 O1182 O 0.07001 0.56567 1.00595
 O1183 O 0.00925 0.52759 0.95831
 O1184 O 0.04857 0.51183 0.98911
 O1185 O 0.02332 0.46308 0.99831
 O1186 O -0.01749 0.47965 0.96686
 C1187 C 0.00450 0.59090 1.03948
 C1188 C -0.08002 0.55167 1.00909
 C1189 C 0.02220 0.51482 1.08611
 O1190 O 0.08183 0.51252 1.03843
 O1191 O 0.07791 0.46642 1.01218
 O1192 O 0.06877 0.46211 0.96524
 C1193 C 0.08457 0.45743 0.98744
 O1194 O -0.05485 0.45506 1.03719
 Zr1195 Zr -0.02178 0.45974 1.00596
 O1196 O 0.02187 0.44069 0.94818
 O1197 O 0.04696 0.45188 1.05179
 O1198 O -0.00798 0.42524 1.03320
 O1199 O -0.06101 0.44430 0.98709
 O1200 O -0.01003 0.42332 0.98132
 C1201 C 0.00680 0.42034 0.95992
 O1202 O 0.05937 0.49864 0.92992
 O1203 O -0.04182 0.56241 0.94611
 O1204 O 0.00970 0.48791 0.91837
 O1205 O -0.03244 0.51511 0.92445
 O1206 O 0.01333 0.59034 0.96630
 O1207 O 0.05657 0.56015 0.95482
 C1208 C -0.01379 0.50106 0.90916
 H1209 H -0.02617 0.56938 0.99711
 H1210 H 0.06974 0.51405 0.98470
 H1211 H -0.02721 0.46762 0.95229
 H1212 H -0.00560 0.47602 1.05545
 H1213 H 0.07229 0.58714 1.00271
 H1214 H 0.09249 0.49943 1.05174
 H1215 H 0.06608 0.45313 1.06172
 H1216 H -0.01998 0.40768 1.02884
 H1217 H 0.02612 0.60720 0.97106
 H1218 H -0.06096 0.56108 0.93625
 H1219 H -0.08430 0.51267 0.94153
 H1220 H -0.06235 0.42291 0.99118
 H1221 H 0.06579 0.57980 0.95624
 H1222 H 0.06344 0.48162 0.91741
 H1223 H -0.05586 0.53141 1.07912
 H1224 H -0.06124 0.43425 1.03802
 Zr1225 Zr -0.02519 0.47424 0.45938
 O1226 O -0.05598 0.48910 0.42904
 O1227 O -0.01909 0.43035 0.44761
 O1228 O -0.00679 0.47522 0.41818
 O1229 O -0.07718 0.46191 0.51183
 O1230 O 0.03712 0.49864 0.42412
 O1231 O -0.06751 0.45499 0.46523
 O1232 O 0.01553 0.41295 0.47844
 O1233 O 0.02006 0.46743 0.46601
 O1234 O -0.02072 0.45335 0.49840
 O1235 O -0.00604 0.51631 0.45802
 O1236 O -0.04598 0.50240 0.48870
 Zr1237 Zr 0.02484 0.51714 0.53509
 Zr1238 Zr 0.03873 0.50946 0.46678
 Zr1239 Zr -0.03912 0.48197 0.52775
 Zr1240 Zr 0.02416 0.44811 0.50565
 O1241 O -0.07687 0.50614 0.54051
 O1242 O 0.06498 0.43407 0.48843
 O1243 O 0.00563 0.47494 0.53696
 O1244 O 0.04509 0.48896 0.50574
 O1245 O 0.02051 0.53837 0.49618
 O1246 O -0.02032 0.52374 0.52819
 C1247 C -0.00203 0.41027 0.45757
 C1248 C -0.08404 0.45265 0.48725
 C1249 C 0.01768 0.48595 0.40895
 O1250 O 0.07799 0.48656 0.45626
 O1251 O 0.07488 0.53336 0.48191
 O1252 O 0.06599 0.53861 0.52883
 C1253 C 0.08170 0.54265 0.50649
 O1254 O -0.05784 0.54866 0.45786
 Zr1255 Zr -0.02458 0.54326 0.48886
 O1256 O 0.01969 0.56135 0.54601
 O1257 O 0.04395 0.54809 0.44232
 O1258 O -0.01055 0.57688 0.46100
 O1259 O -0.06329 0.56029 0.50801
 O1260 O -0.01183 0.57970 0.51276
 C1261 C 0.00518 0.58221 0.53404
 O1262 O 0.05671 0.50260 0.56453
 O1263 O -0.04615 0.44227 0.55015
 O1264 O 0.00738 0.51456 0.57660
 O1265 O -0.03547 0.48916 0.57101
 O1266 O 0.00920 0.41235 0.53047
 O1267 O 0.05311 0.44089 0.54007
 C1268 C -0.01625 0.50228 0.58610
 H1269 H -0.03068 0.43404 0.49929
 H1270 H 0.06626 0.48612 0.51000
 H1271 H -0.02966 0.53625 0.54275
 H1272 H -0.00905 0.52578 0.43949
 H1273 H 0.06684 0.41255 0.49177
 H1274 H 0.08871 0.49911 0.44268
 H1275 H 0.06298 0.54607 0.43227
 H1276 H -0.02227 0.59489 0.46519
 H1277 H 0.02162 0.39493 0.52587
 H1278 H -0.06520 0.44448 0.56010
 H1279 H -0.08752 0.49361 0.55414
 H1280 H -0.06431 0.58167 0.50370
 H1281 H 0.06246 0.42116 0.53834
 H1282 H 0.06112 0.51964 0.57682
 H1283 H -0.06054 0.47199 0.41689
 H1284 H -0.06409 0.56963 0.45703
 Zr1285 Zr 0.47515 -0.02530 -0.04070
 O1286 O 0.44465 -0.00989 -0.07105
 O1287 O 0.48100 -0.06909 -0.05284
 O1288 O 0.49383 -0.02423 -0.08177
 O1289 O 0.42283 -0.03773 0.01140
 O1290 O 0.53790 -0.00123 -0.07543
 O1291 O 0.43268 -0.04433 -0.03520
 O1292 O 0.51539 -0.08701 -0.02204
 O1293 O 0.52032 -0.03252 -0.03390
 O1294 O 0.47928 -0.04658 -0.00184
 O1295 O 0.49465 0.01662 -0.04165
 O1296 O 0.45443 0.00277 -0.01128
 Zr1297 Zr 0.52514 0.01654 0.03558
 Zr1298 Zr 0.53932 0.00934 -0.03272
 Zr1299 Zr 0.46094 -0.01806 0.02763
 Zr1300 Zr 0.52407 -0.05222 0.00560
 O1301 O 0.42329 0.00627 0.04037
 O1302 O 0.56491 -0.06641 -0.01147
 O1303 O 0.50558 -0.02552 0.03702
 O1304 O 0.54532 -0.01154 0.00612
 O1305 O 0.52117 0.03814 -0.00318
 O1306 O 0.48006 0.02355 0.02849
 C1307 C 0.49793 -0.08936 -0.04303
 C1308 C 0.41603 -0.04675 -0.01327
 C1309 C 0.51848 -0.01370 -0.09077
 O1310 O 0.57849 -0.01373 -0.04317
 O1311 O 0.57554 0.03287 -0.01726
 O1312 O 0.56648 0.03778 0.02966
 C1313 C 0.58231 0.04191 0.00741
 O1314 O 0.44313 0.04943 -0.04181
 Zr1315 Zr 0.47616 0.04345 -0.01069
 O1316 O 0.52028 0.06068 0.04687
 O1317 O 0.54493 0.04809 -0.05692
 O1318 O 0.49064 0.07719 -0.03820
 O1319 O 0.43747 0.06062 0.00839
 O1320 O 0.48907 0.07955 0.01361
 C1321 C 0.50600 0.08174 0.03499
 O1322 O 0.55673 0.00148 0.06505
 O1323 O 0.45352 -0.05789 0.04971
 O1324 O 0.50740 0.01378 0.07697
 O1325 O 0.46439 -0.01125 0.07093
 O1326 O 0.50867 -0.08812 0.02998
 O1327 O 0.55272 -0.06000 0.04013
 C1328 C 0.48360 0.00162 0.08622
 H1329 H 0.46917 -0.06582 -0.00116
 H1330 H 0.56645 -0.01457 0.01045
 H1331 H 0.47074 0.03600 0.04310
 H1332 H 0.49182 0.02625 -0.06013
 H1333 H 0.56659 -0.08798 -0.00831
 H1334 H 0.58937 -0.00117 -0.05661
 H1335 H 0.56399 0.04600 -0.06689
 H1336 H 0.47907 0.09526 -0.03390
 H1337 H 0.52098 -0.10559 0.02527
 H1338 H 0.43442 -0.05562 0.05959
 H1339 H 0.41247 -0.00628 0.05386
 H1340 H 0.43667 0.08205 0.00427
 H1341 H 0.56191 -0.07979 0.03831
 H1342 H 0.56122 0.01837 0.07749
 H1343 H 0.44001 -0.02684 -0.08337
 H1344 H 0.43707 0.07045 -0.04250
 Zr1345 Zr 0.52521 0.52195 -0.03784
 O1346 O 0.55591 0.50834 -0.06874
 O1347 O 0.51812 0.56594 -0.04880
 O1348 O 0.50636 0.52162 -0.07890
 O1349 O 0.57768 0.53358 0.01426
 O1350 O 0.46272 0.49769 -0.07284
 O1351 O 0.56731 0.54174 -0.03205
 O1352 O 0.48372 0.58228 -0.01726
 O1353 O 0.48000 0.52817 -0.03050
 O1354 O 0.52102 0.54183 0.00161
 O1355 O 0.50642 0.47974 -0.03975
 O1356 O 0.54661 0.49324 -0.00932
 Zr1357 Zr 0.47649 0.47669 0.03762
 Zr1358 Zr 0.46171 0.48598 -0.03034
 Zr1359 Zr 0.54006 0.51263 0.03018
 Zr1360 Zr 0.47622 0.54646 0.00956
 O1361 O 0.57817 0.48847 0.04197
 O1362 O 0.43489 0.56052 -0.00655
 O1363 O 0.49537 0.51900 0.04008
 O1364 O 0.45566 0.50545 0.00907
 O1365 O 0.48050 0.45645 -0.00172
 O1366 O 0.52162 0.47069 0.03008
 C1367 C 0.50081 0.58553 -0.03842
 C1368 C 0.58409 0.54371 -0.01016
 C1369 C 0.48186 0.51087 -0.08803
 O1370 O 0.42229 0.50895 -0.04017
 O1371 O 0.42577 0.46181 -0.01516
 O1372 O 0.43527 0.45544 0.03154
 C1373 C 0.41924 0.45206 0.00936
 O1374 O 0.55844 0.44782 -0.04116
 Zr1375 Zr 0.52555 0.45219 -0.00965
 O1376 O 0.48210 0.43221 0.04768
 O1377 O 0.45643 0.44779 -0.05525
 O1378 O 0.51145 0.41912 -0.03794
 O1379 O 0.56466 0.43505 0.00869
 O1380 O 0.51347 0.41508 0.01377
 C1381 C 0.49677 0.41183 0.03521
 O1382 O 0.44492 0.49014 0.06780
 O1383 O 0.54702 0.55180 0.05328
 O1384 O 0.49432 0.47855 0.07894
 O1385 O 0.53695 0.50436 0.07333
 O1386 O 0.49135 0.58182 0.03464
 O1387 O 0.44792 0.55245 0.04466
 C1388 C 0.51791 0.49084 0.08839
 H1389 H 0.53075 0.56124 0.00270
 H1390 H 0.43454 0.50806 0.01363
 H1391 H 0.53123 0.45791 0.04431
 H1392 H 0.50930 0.47074 -0.05847
 H1393 H 0.43282 0.58190 -0.00264
 H1394 H 0.41143 0.49661 -0.05376
 H1395 H 0.43728 0.44989 -0.06504
 H1396 H 0.52335 0.40112 -0.03420
 H1397 H 0.47863 0.59919 0.03060
 H1398 H 0.56619 0.54948 0.06301
 H1399 H 0.58887 0.50072 0.05575
 H1400 H 0.56580 0.41379 0.00399
 H1401 H 0.43846 0.57218 0.04360
 H1402 H 0.44081 0.47274 0.07981
 H1403 H 0.56005 0.52581 -0.08064
 H1404 H 0.56485 0.42693 -0.04244
 Zr1405 Zr 0.02537 1.02138 0.46218
 O1406 O 0.05619 1.00720 0.43162
 O1407 O 0.01866 1.06530 0.45076
 O1408 O 0.00679 1.02078 0.42104
 O1409 O 0.07755 1.03338 0.51445
 O1410 O -0.03701 0.99712 0.42704
 O1411 O 0.06751 1.04105 0.46801
 O1412 O -0.01584 1.08216 0.48195
 O1413 O -0.01986 1.02792 0.46918
 O1414 O 0.02103 1.04171 0.50141
 O1415 O 0.00638 0.97926 0.46057
 O1416 O 0.04645 0.99288 0.49110
 Zr1417 Zr -0.02407 0.97722 0.53780
 Zr1418 Zr -0.03836 0.98583 0.46964
 Zr1419 Zr 0.03974 1.01274 0.53037
 Zr1420 Zr -0.02381 1.04666 0.50904
 O1421 O 0.07768 0.98852 0.54257
 O1422 O -0.06492 1.06076 0.49248
 O1423 O -0.00497 1.01945 0.53994
 O1424 O -0.04457 1.00575 0.50884
 O1425 O -0.01990 0.95654 0.49868
 O1426 O 0.02108 0.97089 0.53058
 C1427 C 0.00143 1.08510 0.46088
 C1428 C 0.08415 1.04320 0.48996
 C1429 C -0.01771 1.01007 0.41185
 O1430 O -0.07764 1.00884 0.45941
 O1431 O -0.07446 0.96189 0.48485
 O1432 O -0.06530 0.95601 0.53167
 C1433 C -0.08117 0.95240 0.50942
 O1434 O 0.05827 0.94704 0.45982
 Zr1435 Zr 0.02517 0.95194 0.49105
 O1436 O -0.01879 0.93284 0.54836
 O1437 O -0.04365 0.94743 0.44503
 O1438 O 0.01110 0.91865 0.46299
 O1439 O 0.06403 0.93475 0.50983
 O1440 O 0.01264 0.91516 0.51476
 C1441 C -0.00422 0.91224 0.53613
 O1442 O -0.05577 0.99123 0.56762
 O1443 O 0.04675 1.05211 0.55316
 O1444 O -0.00645 0.97941 0.57920
 O1445 O 0.03635 1.00492 0.57357
 O1446 O -0.00871 1.08221 0.53390
 O1447 O -0.05236 1.05318 0.54387
 C1448 C 0.01716 0.99166 0.58866
 H1449 H 0.03085 1.06108 0.50238
 H1450 H -0.06571 1.00850 0.51324
 H1451 H 0.03053 0.95822 0.54498
 H1452 H 0.00933 0.97005 0.44195
 H1453 H -0.06690 1.08220 0.49614
 H1454 H -0.08846 0.99641 0.44586
 H1455 H -0.06273 0.94952 0.43511
 H1456 H 0.02286 0.90062 0.46701
 H1457 H -0.02131 1.09960 0.52960
 H1458 H 0.06585 1.04980 0.56300
 H1459 H 0.08836 1.00086 0.55628
 H1460 H 0.06505 0.91342 0.50536
 H1461 H -0.06175 1.07293 0.54252
 H1462 H -0.06006 0.97401 0.57979
 H1463 H 0.06053 1.02451 0.41956
 H1464 H 0.06458 0.92611 0.45879
 Zr1465 Zr 0.72632 0.27142 0.21232
 O1466 O 0.73859 0.30133 0.18029
 O1467 O 0.68212 0.26432 0.20294
 O1468 O 0.72554 0.25172 0.17171
 O1469 O 0.71597 0.32539 0.26334
 O1470 O 0.75022 0.20804 0.17786
 O1471 O 0.70641 0.31387 0.21760
 O1472 O 0.66719 0.23069 0.23572
 O1473 O 0.72082 0.22633 0.22082
 O1474 O 0.70773 0.26829 0.25241
 O1475 O 0.76858 0.25230 0.20955
 O1476 O 0.75560 0.29334 0.23945
 Zr1477 Zr 0.77427 0.22403 0.28743
 Zr1478 Zr 0.76312 0.20775 0.22007
 Zr1479 Zr 0.73753 0.28783 0.27963
 Zr1480 Zr 0.70387 0.22360 0.26150
 O1481 O 0.76171 0.32596 0.29004
 O1482 O 0.68978 0.18192 0.24679
 O1483 O 0.73196 0.24333 0.29070
 O1484 O 0.74498 0.20272 0.26019
 O1485 O 0.79318 0.22704 0.24741
 O1486 O 0.77959 0.26904 0.27877
 C1487 C 0.66310 0.24731 0.21429
 C1488 C 0.70508 0.33128 0.23907
 C1489 C 0.73633 0.22699 0.16272
 O1490 O 0.74033 0.16822 0.21172
 O1491 O 0.78808 0.17189 0.23533
 O1492 O 0.79567 0.18237 0.28162
 C1493 C 0.79858 0.16579 0.25969
 O1494 O 0.79957 0.30441 0.20624
 Zr1495 Zr 0.79677 0.27197 0.23838
 O1496 O 0.81894 0.22954 0.29570
 O1497 O 0.80057 0.20161 0.19423
 O1498 O 0.82893 0.25732 0.20914
 O1499 O 0.81412 0.31123 0.25568
 O1500 O 0.83485 0.25974 0.26044
 C1501 C 0.83886 0.24337 0.28207
 O1502 O 0.76244 0.19314 0.31876
 O1503 O 0.69900 0.29591 0.30354
 O1504 O 0.77308 0.24277 0.32848
 O1505 O 0.74667 0.28549 0.32261
 O1506 O 0.66922 0.23960 0.28733
 O1507 O 0.69942 0.19613 0.29743
 C1508 C 0.76062 0.26662 0.33776
 H1509 H 0.68830 0.27824 0.25385
 H1510 H 0.74273 0.18167 0.26529
 H1511 H 0.79266 0.27881 0.29245
 H1512 H 0.77694 0.25472 0.19050
 H1513 H 0.66863 0.18004 0.25150
 H1514 H 0.75235 0.15698 0.19798
 H1515 H 0.79836 0.18225 0.18487
 H1516 H 0.84679 0.26935 0.21196
 H1517 H 0.65194 0.22681 0.28420
 H1518 H 0.70144 0.31535 0.31271
 H1519 H 0.74973 0.33715 0.30384
 H1520 H 0.83515 0.31215 0.25022
 H1521 H 0.67982 0.18674 0.29723
 H1522 H 0.78026 0.18930 0.33028
 H1523 H 0.72076 0.30536 0.16884
 H1524 H 0.82021 0.31096 0.20435
 Zr1525 Zr 0.77741 0.72926 0.71531
 O1526 O 0.76277 0.69847 0.68515
 O1527 O 0.82096 0.73533 0.70307
 O1528 O 0.77616 0.74762 0.67409
 O1529 O 0.79061 0.67712 0.76781
 O1530 O 0.75237 0.79181 0.68004
 O1531 O 0.79700 0.68668 0.72112
 O1532 O 0.83812 0.77022 0.73339
 O1533 O 0.78377 0.77457 0.72177
 O1534 O 0.79853 0.73367 0.75410
 O1535 O 0.73525 0.74876 0.71415
 O1536 O 0.74972 0.70870 0.74490
 Zr1537 Zr 0.73450 0.77990 0.79114
 Zr1538 Zr 0.74168 0.79358 0.72274
 Zr1539 Zr 0.77032 0.71551 0.78374
 Zr1540 Zr 0.80328 0.77864 0.76123
 O1541 O 0.74674 0.67783 0.79681
 O1542 O 0.81670 0.81963 0.74417
 O1543 O 0.77685 0.76034 0.79279
 O1544 O 0.76228 0.79990 0.76153
 O1545 O 0.71315 0.77563 0.75240
 O1546 O 0.72843 0.73466 0.78439
 C1547 C 0.84076 0.75263 0.71250
 C1548 C 0.79962 0.67008 0.74314
 C1549 C 0.76525 0.77225 0.66488
 O1550 O 0.76408 0.83273 0.71192
 O1551 O 0.71758 0.82998 0.73790
 O1552 O 0.71268 0.82133 0.78491
 C1553 C 0.70840 0.83700 0.76250
 O1554 O 0.70344 0.69711 0.71444
 Zr1555 Zr 0.70874 0.73047 0.74526
 O1556 O 0.69046 0.77527 0.80254
 O1557 O 0.70298 0.79905 0.69850
 O1558 O 0.67488 0.74476 0.71764
 O1559 O 0.69214 0.69185 0.76462
 O1560 O 0.67251 0.74364 0.76952
 C1561 C 0.66983 0.76072 0.79078
 O1562 O 0.74908 0.81167 0.82038
 O1563 O 0.81015 0.70838 0.80587
 O1564 O 0.73714 0.76223 0.83258
 O1565 O 0.76315 0.71923 0.82701
 O1566 O 0.83941 0.76322 0.78550
 O1567 O 0.81040 0.80738 0.79570
 C1568 C 0.74962 0.73846 0.84206
 H1569 H 0.81792 0.72357 0.75478
 H1570 H 0.76492 0.82110 0.76569
 H1571 H 0.71608 0.72539 0.79902
 H1572 H 0.72575 0.74577 0.69570
 H1573 H 0.83816 0.82140 0.74740
 H1574 H 0.75138 0.84354 0.69840
 H1575 H 0.70476 0.81808 0.68838
 H1576 H 0.65702 0.73326 0.72211
 H1577 H 0.85661 0.77555 0.78069
 H1578 H 0.80825 0.68932 0.81590
 H1579 H 0.75945 0.66710 0.81038
 H1580 H 0.67078 0.69108 0.76051
 H1581 H 0.83008 0.81643 0.79399
 H1582 H 0.73213 0.81630 0.83281
 H1583 H 0.77982 0.69376 0.67288
 H1584 H 0.68255 0.69111 0.71372
 Zr1585 Zr 0.22350 0.22624 0.78994
 O1586 O 0.23836 0.19517 0.82011
 O1587 O 0.17999 0.23296 0.80237
 O1588 O 0.22490 0.24453 0.83106
 O1589 O 0.21011 0.17445 0.73769
 O1590 O 0.24870 0.28829 0.82490
 O1591 O 0.20385 0.18405 0.78437
 O1592 O 0.16275 0.26820 0.77201
 O1593 O 0.21717 0.27168 0.78340
 O1594 O 0.20220 0.23110 0.75124
 O1595 O 0.26570 0.24494 0.79085
 O1596 O 0.25102 0.20518 0.76030
 Zr1597 Zr 0.26607 0.27613 0.71377
 Zr1598 Zr 0.25929 0.28990 0.78217
 Zr1599 Zr 0.23025 0.21245 0.72154
 Zr1600 Zr 0.19746 0.27616 0.74404
 O1601 O 0.25371 0.17439 0.70836
 O1602 O 0.18418 0.31733 0.76115
 O1603 O 0.22369 0.25740 0.71240
 O1604 O 0.23849 0.29665 0.74346
 O1605 O 0.28762 0.27141 0.75242
 O1606 O 0.27215 0.23078 0.72061
 C1607 C 0.16015 0.25059 0.79293
 C1608 C 0.20117 0.16755 0.76239
 C1609 C 0.23586 0.26894 0.84015
 O1610 O 0.23706 0.32951 0.79293
 O1611 O 0.28341 0.32587 0.76679
 O1612 O 0.28802 0.31711 0.71980
 C1613 C 0.29247 0.33270 0.74211
 O1614 O 0.29742 0.19272 0.79064
 Zr1615 Zr 0.29203 0.22615 0.75968
 O1616 O 0.30999 0.27049 0.70224
 O1617 O 0.29810 0.29457 0.80625
 O1618 O 0.32607 0.23982 0.78705
 O1619 O 0.30834 0.18717 0.74039
 O1620 O 0.32821 0.23847 0.73520
 C1621 C 0.33071 0.25557 0.71391
 O1622 O 0.25155 0.30828 0.68451
 O1623 O 0.19027 0.20601 0.69967
 O1624 O 0.26301 0.25871 0.67234
 O1625 O 0.23706 0.21615 0.67824
 O1626 O 0.16120 0.26152 0.71992
 O1627 O 0.19018 0.30515 0.70958
 C1628 C 0.25038 0.23520 0.66302
 H1629 H 0.18280 0.22135 0.75065
 H1630 H 0.23586 0.31790 0.73924
 H1631 H 0.28437 0.22129 0.70592
 H1632 H 0.27528 0.24176 0.80928
 H1633 H 0.16270 0.31947 0.75807
 H1634 H 0.24983 0.34003 0.80640
 H1635 H 0.29638 0.31360 0.81635
 H1636 H 0.34386 0.22792 0.78260
 H1637 H 0.14404 0.27415 0.72480
 H1638 H 0.19212 0.18692 0.68968
 H1639 H 0.24090 0.16392 0.69490
 H1640 H 0.32971 0.18589 0.74443
 H1641 H 0.17056 0.31462 0.71142
 H1642 H 0.26847 0.31257 0.67202
 H1643 H 0.22139 0.19072 0.83248
 H1644 H 0.31830 0.18629 0.79126
 Zr1645 Zr 0.27348 0.77566 0.28645
 O1646 O 0.26150 0.80617 0.31812
 O1647 O 0.31752 0.76745 0.29615
 O1648 O 0.27356 0.75621 0.32735
 O1649 O 0.28461 0.82890 0.23465
 O1650 O 0.24860 0.71311 0.32142
 O1651 O 0.29364 0.81769 0.28064
 O1652 O 0.33238 0.73312 0.26390
 O1653 O 0.27855 0.73035 0.27850
 O1654 O 0.29229 0.77167 0.24649
 O1655 O 0.23102 0.75771 0.28916
 O1656 O 0.24464 0.79812 0.25882
 Zr1657 Zr 0.22543 0.72892 0.21158
 Zr1658 Zr 0.23606 0.71293 0.27915
 Zr1659 Zr 0.26287 0.79172 0.21879
 Zr1660 Zr 0.29576 0.72679 0.23796
 O1661 O 0.23919 0.83044 0.20773
 O1662 O 0.30930 0.68487 0.25330
 O1663 O 0.26801 0.74697 0.20833
 O1664 O 0.25440 0.70707 0.23921
 O1665 O 0.20632 0.73281 0.25145
 O1666 O 0.22062 0.77415 0.21969
 C1667 C 0.33647 0.74986 0.28514
 C1668 C 0.29528 0.83485 0.25892
 C1669 C 0.26244 0.73180 0.33651
 O1670 O 0.25845 0.67287 0.28809
 O1671 O 0.21093 0.67755 0.26419
 O1672 O 0.20362 0.68789 0.21777
 C1673 C 0.20051 0.67152 0.23984
 O1674 O 0.20055 0.81057 0.29182
 Zr1675 Zr 0.20327 0.77793 0.25994
 O1676 O 0.18086 0.73572 0.20282
 O1677 O 0.19835 0.70806 0.30479
 O1678 O 0.17066 0.76430 0.28897
 O1679 O 0.18660 0.81769 0.24229
 O1680 O 0.16534 0.76692 0.23755
 C1681 C 0.16116 0.75056 0.21607
 O1682 O 0.23717 0.69741 0.18071
 O1683 O 0.30166 0.79836 0.19503
 O1684 O 0.22704 0.74722 0.17034
 O1685 O 0.25387 0.78926 0.17575
 O1686 O 0.33067 0.74165 0.21212
 O1687 O 0.30027 0.69882 0.20244
 C1688 C 0.23977 0.77062 0.16080
 H1689 H 0.31181 0.78109 0.24506
 H1690 H 0.25648 0.68593 0.23437
 H1691 H 0.20776 0.78421 0.20583
 H1692 H 0.22253 0.76052 0.30811
 H1693 H 0.33047 0.68237 0.24879
 H1694 H 0.24622 0.66204 0.30185
 H1695 H 0.20026 0.68871 0.31437
 H1696 H 0.15294 0.77679 0.28588
 H1697 H 0.34785 0.72851 0.21555
 H1698 H 0.29951 0.81774 0.18554
 H1699 H 0.25135 0.84111 0.19380
 H1700 H 0.16555 0.81929 0.24759
 H1701 H 0.31980 0.68897 0.20288
 H1702 H 0.21939 0.69394 0.16912
 H1703 H 0.27936 0.80974 0.32956
 H1704 H 0.17994 0.81761 0.29361
 Zr1705 Zr 0.22565 0.77268 0.71135
 O1706 O 0.23774 0.80261 0.67928
 O1707 O 0.18145 0.76545 0.70207
 O1708 O 0.22480 0.75296 0.67076
 O1709 O 0.21542 0.82667 0.76241
 O1710 O 0.24955 0.70930 0.67686
 O1711 O 0.20568 0.81512 0.71671
 O1712 O 0.16671 0.73180 0.73491
 O1713 O 0.22025 0.72759 0.71991
 O1714 O 0.20720 0.76956 0.75151
 O1715 O 0.26792 0.75359 0.70846
 O1716 O 0.25500 0.79465 0.73837
 Zr1717 Zr 0.27392 0.72540 0.78635
 Zr1718 Zr 0.26255 0.70904 0.71904
 Zr1719 Zr 0.23708 0.78915 0.77862
 Zr1720 Zr 0.20343 0.72488 0.76065
 O1721 O 0.26127 0.82731 0.78893
 O1722 O 0.18935 0.68313 0.74610
 O1723 O 0.23160 0.74466 0.78974
 O1724 O 0.24455 0.70403 0.75923
 O1725 O 0.29269 0.72839 0.74626
 O1726 O 0.27916 0.77040 0.77763
 C1727 C 0.16253 0.74837 0.71346
 C1728 C 0.20442 0.83254 0.73818
 C1729 C 0.23560 0.72822 0.66175
 O1730 O 0.23974 0.66951 0.71075
 O1731 O 0.28752 0.67316 0.73429
 O1732 O 0.29524 0.68371 0.78055
 C1733 C 0.29805 0.66707 0.75865
 O1734 O 0.29879 0.80576 0.70503
 Zr1735 Zr 0.29619 0.77332 0.73719
 O1736 O 0.31863 0.73093 0.79441
 O1737 O 0.29996 0.70290 0.69315
 O1738 O 0.32825 0.75874 0.70782
 O1739 O 0.31357 0.81259 0.75443
 O1740 O 0.33438 0.76112 0.75907
 C1741 C 0.33849 0.74475 0.78067
 O1742 O 0.26225 0.69456 0.81778
 O1743 O 0.19862 0.79720 0.80264
 O1744 O 0.27285 0.74416 0.82738
 O1745 O 0.24636 0.78684 0.82158
 O1746 O 0.16881 0.74089 0.78650
 O1747 O 0.19913 0.69750 0.79667
 C1748 C 0.26038 0.76799 0.83669
 H1749 H 0.18776 0.77947 0.75299
 H1750 H 0.24233 0.68299 0.76435
 H1751 H 0.29228 0.78019 0.79127
 H1752 H 0.27622 0.75601 0.68940
 H1753 H 0.16822 0.68123 0.75089
 H1754 H 0.25174 0.65826 0.69700
 H1755 H 0.29774 0.68354 0.68380
 H1756 H 0.34610 0.77082 0.71055
 H1757 H 0.15155 0.72807 0.78343
 H1758 H 0.20107 0.81664 0.81181
 H1759 H 0.24933 0.83849 0.80277
 H1760 H 0.33457 0.81354 0.74889
 H1761 H 0.17954 0.68811 0.79657
 H1762 H 0.28012 0.69075 0.82924
 H1763 H 0.21986 0.80660 0.66789
 H1764 H 0.31941 0.81238 0.70308
 Zr1765 Zr 0.27655 0.22907 0.21455
 O1766 O 0.26181 0.19838 0.18434
 O1767 O 0.32012 0.23506 0.20229
 O1768 O 0.27537 0.24751 0.17337
 O1769 O 0.28954 0.17678 0.26696
 O1770 O 0.25172 0.29175 0.17940
 O1771 O 0.29598 0.18640 0.22028
 O1772 O 0.33732 0.26992 0.23263
 O1773 O 0.28301 0.27435 0.22108
 O1774 O 0.29770 0.23337 0.25334
 O1775 O 0.23443 0.24868 0.21343
 O1776 O 0.24879 0.20855 0.24410
 Zr1777 Zr 0.23378 0.27972 0.29046
 Zr1778 Zr 0.24097 0.29347 0.22207
 Zr1779 Zr 0.26943 0.21523 0.28294
 Zr1780 Zr 0.30254 0.27831 0.26053
 O1781 O 0.24573 0.17762 0.29601
 O1782 O 0.31605 0.31932 0.24358
 O1783 O 0.27608 0.26003 0.29206
 O1784 O 0.26160 0.29970 0.26086
 O1785 O 0.21241 0.27555 0.25172
 O1786 O 0.22759 0.23450 0.28364
 C1787 C 0.33993 0.25236 0.21171
 C1788 C 0.29852 0.16974 0.24228
 C1789 C 0.26456 0.27219 0.16421
 O1790 O 0.26344 0.33261 0.21136
 O1791 O 0.21688 0.32988 0.23726
 O1792 O 0.21198 0.32117 0.28426
 C1793 C 0.20768 0.33686 0.26187
 O1794 O 0.20242 0.19714 0.21365
 Zr1795 Zr 0.20786 0.23043 0.24452
 O1796 O 0.18977 0.27516 0.30190
 O1797 O 0.20231 0.29905 0.19779
 O1798 O 0.17404 0.24488 0.21693
 O1799 O 0.19117 0.19183 0.26383
 O1800 O 0.17167 0.24367 0.26883
 C1801 C 0.16908 0.26071 0.29014
 O1802 O 0.24845 0.31144 0.31970
 O1803 O 0.30927 0.20793 0.30502
 O1804 O 0.23644 0.26199 0.33188
 O1805 O 0.26234 0.21892 0.32621
 O1806 O 0.33867 0.26274 0.28472
 O1807 O 0.30974 0.30694 0.29508
 C1808 C 0.24888 0.23817 0.34130
 H1809 H 0.31706 0.22321 0.25398
 H1810 H 0.26428 0.32089 0.26506
 H1811 H 0.21523 0.22524 0.29827
 H1812 H 0.22492 0.24575 0.19497
 H1813 H 0.33752 0.32103 0.24682
 H1814 H 0.25078 0.34346 0.19783
 H1815 H 0.20415 0.31809 0.18770
 H1816 H 0.15614 0.23345 0.22140
 H1817 H 0.35589 0.27505 0.27992
 H1818 H 0.30731 0.18887 0.31503
 H1819 H 0.25842 0.16683 0.30955
 H1820 H 0.16980 0.19113 0.25975
 H1821 H 0.32945 0.31593 0.29340
 H1822 H 0.23152 0.31609 0.33214
 H1823 H 0.27885 0.19364 0.17206
 H1824 H 0.18151 0.19121 0.21295
 Zr1825 Zr 0.72368 0.72501 0.29026
 O1826 O 0.73860 0.69401 0.32046
 O1827 O 0.68020 0.73177 0.30279
 O1828 O 0.72525 0.74342 0.33134
 O1829 O 0.71006 0.67316 0.23811
 O1830 O 0.74918 0.78708 0.32503
 O1831 O 0.70402 0.68281 0.28481
 O1832 O 0.66293 0.76699 0.27242
 O1833 O 0.71743 0.77045 0.28367
 O1834 O 0.70225 0.72985 0.25161
 O1835 O 0.76594 0.74361 0.29097
 O1836 O 0.75104 0.70386 0.26053
 Zr1837 Zr 0.76605 0.77467 0.21384
 Zr1838 Zr 0.75960 0.78857 0.28225
 Zr1839 Zr 0.73014 0.71111 0.22182
 Zr1840 Zr 0.69758 0.77491 0.24437
 O1841 O 0.75346 0.67299 0.20858
 O1842 O 0.68445 0.81610 0.26155
 O1843 O 0.72363 0.75605 0.21265
 O1844 O 0.73865 0.79530 0.24361
 O1845 O 0.78777 0.76997 0.25241
 O1846 O 0.77207 0.72933 0.22072
 C1847 C 0.66034 0.74938 0.29334
 C1848 C 0.70125 0.66629 0.26286
 C1849 C 0.73631 0.76782 0.34036
 O1850 O 0.73752 0.82825 0.29302
 O1851 O 0.78375 0.82443 0.26672
 O1852 O 0.78815 0.81558 0.21972
 C1853 C 0.79273 0.83119 0.24199
 O1854 O 0.79758 0.69135 0.29074
 Zr1855 Zr 0.79210 0.72471 0.25972
 O1856 O 0.80990 0.76886 0.20212
 O1857 O 0.79851 0.79317 0.30619
 O1858 O 0.82630 0.73842 0.28690
 O1859 O 0.80819 0.68562 0.24048
 O1860 O 0.82819 0.73683 0.23502
 C1861 C 0.83063 0.75388 0.21369
 O1862 O 0.75149 0.80684 0.18461
 O1863 O 0.69004 0.70471 0.20015
 O1864 O 0.76277 0.75722 0.17243
 O1865 O 0.73675 0.71474 0.17848
 O1866 O 0.66122 0.76034 0.22036
 O1867 O 0.69022 0.80394 0.20995
 C1868 C 0.75005 0.73374 0.16319
 H1869 H 0.68284 0.72012 0.25110
 H1870 H 0.73606 0.81655 0.23937
 H1871 H 0.78419 0.71978 0.20599
 H1872 H 0.77558 0.74045 0.30937
 H1873 H 0.66295 0.81828 0.25855
 H1874 H 0.75037 0.83877 0.30642
 H1875 H 0.79689 0.81224 0.31624
 H1876 H 0.84405 0.72648 0.28240
 H1877 H 0.64409 0.77300 0.22528
 H1878 H 0.69180 0.68561 0.19017
 H1879 H 0.74057 0.66253 0.19517
 H1880 H 0.82958 0.68429 0.24442
 H1881 H 0.67062 0.81344 0.21187
 H1882 H 0.76836 0.81106 0.17204
 H1883 H 0.72165 0.68961 0.33288
 H1884 H 0.81846 0.68493 0.29132
 Zr1885 Zr 0.77430 0.27400 0.78730
 O1886 O 0.76189 0.30449 0.81885
 O1887 O 0.81832 0.26610 0.79726
 O1888 O 0.77430 0.25462 0.82821
 O1889 O 0.78545 0.32726 0.73554
 O1890 O 0.74975 0.21130 0.82220
 O1891 O 0.79428 0.31612 0.78158
 O1892 O 0.83363 0.23186 0.76510
 O1893 O 0.77978 0.22873 0.77941
 O1894 O 0.79337 0.27012 0.74744
 O1895 O 0.73198 0.25573 0.78982
 O1896 O 0.74546 0.29623 0.75953
 Zr1897 Zr 0.72706 0.22685 0.71222
 Zr1898 Zr 0.73743 0.21098 0.77987
 Zr1899 Zr 0.76396 0.28996 0.71959
 Zr1900 Zr 0.79723 0.22527 0.73895
 O1901 O 0.74010 0.32855 0.70849
 O1902 O 0.81099 0.18344 0.75435
 O1903 O 0.76951 0.24523 0.70916
 O1904 O 0.75602 0.20523 0.74002
 O1905 O 0.70771 0.23063 0.75200
 O1906 O 0.72185 0.27205 0.72030
 C1907 C 0.83746 0.24863 0.78637
 C1908 C 0.79596 0.33327 0.75986
 C1909 C 0.76334 0.23014 0.83734
 O1910 O 0.76005 0.17109 0.78891
 O1911 O 0.71258 0.17546 0.76482
 O1912 O 0.70546 0.18570 0.71835
 C1913 C 0.70230 0.16936 0.74043
 O1914 O 0.70108 0.30838 0.79228
 Zr1915 Zr 0.70423 0.27572 0.76045
 O1916 O 0.68251 0.23324 0.70324
 O1917 O 0.69964 0.20583 0.80535
 O1918 O 0.67159 0.26185 0.78934
 O1919 O 0.68730 0.31530 0.74268
 O1920 O 0.66653 0.26432 0.73788
 C1921 C 0.66261 0.24791 0.71638
 O1922 O 0.73931 0.19545 0.68144
 O1923 O 0.80279 0.29682 0.69595
 O1924 O 0.72860 0.24524 0.67100
 O1925 O 0.75507 0.28749 0.67653
 O1926 O 0.83221 0.24036 0.71332
 O1927 O 0.80213 0.19734 0.70345
 C1928 C 0.74112 0.26878 0.66152
 H1929 H 0.81283 0.27967 0.74610
 H1930 H 0.75827 0.18409 0.73520
 H1931 H 0.70897 0.28202 0.70639
 H1932 H 0.72336 0.25849 0.80872
 H1933 H 0.83221 0.18110 0.74995
 H1934 H 0.74784 0.16018 0.80262
 H1935 H 0.70166 0.18650 0.81496
 H1936 H 0.65378 0.27419 0.78614
 H1937 H 0.84945 0.22733 0.71684
 H1938 H 0.80056 0.31619 0.68646
 H1939 H 0.75225 0.33932 0.69463
 H1940 H 0.66620 0.31671 0.74787
 H1941 H 0.82173 0.18762 0.70399
 H1942 H 0.72163 0.19180 0.66976
 H1943 H 0.77964 0.30820 0.83040
 H1944 H 0.68040 0.31524 0.79397
 C1945 C 0.46822 0.99734 0.35590
 C1946 C 0.47840 0.99765 0.37937
 C1947 C -0.03154 0.49907 0.85627
 C1948 C -0.02144 0.49949 0.87980
 C1949 C 0.03442 0.00987 0.85974
 C1950 C 0.02431 0.01084 0.88323
 C1951 C 0.53457 0.50881 0.35928
 C1952 C 0.52447 0.50989 0.38275
 C1953 C 0.53408 0.49103 0.14167
 C1954 C 0.52477 0.48980 0.11790
 C1955 C 0.03317 0.99219 0.64199
 C1956 C 0.02391 0.99082 0.61821
 C1957 C -0.03307 0.50223 0.63928
 C1958 C -0.02322 0.50320 0.61565
 C1959 C 0.46618 0.00135 0.13918
 C1960 C 0.47636 0.00241 0.11570
 C1961 C 0.36813 0.42382 0.01060
 C1962 C 0.39158 0.43648 0.01135
 C1963 C -0.13219 0.92397 0.51063
 C1964 C -0.10881 0.93677 0.51138
 C1965 C -0.13514 0.07475 0.98998
 C1966 C -0.11144 0.06208 0.98922
 C1967 C 0.36524 0.57447 0.48914
 C1968 C 0.38888 0.56168 0.48852
 C1969 C 0.13226 0.57209 0.50744
 C1970 C 0.10915 0.55875 0.50830
 C1971 C 0.63302 0.07108 0.00863
 C1972 C 0.60984 0.05785 0.00942
 C1973 C 0.63534 0.92671 0.48658
 C1974 C 0.61199 0.93994 0.48526
 C1975 C 0.13545 0.42789 0.98663
 C1976 C 0.11211 0.44115 0.98538
 C1977 C -0.00353 0.35886 0.43373
 C1978 C -0.00292 0.38242 0.44465
 C1979 C 0.49646 -0.14037 -0.06760
 C1980 C 0.49704 -0.11700 -0.05633
 C1981 C -0.00455 -0.14040 1.06056
 C1982 C -0.00324 -0.11742 1.04859
 C1983 C 0.49735 0.35943 0.56043
 C1984 C 0.49817 0.38248 0.54855
 C1985 C 0.50462 1.13963 0.56539
 C1986 C 0.50484 1.11716 0.55255
 C1987 C 0.00491 0.64020 1.06707
 C1988 C 0.00525 0.61783 1.05407
 C1989 C 0.50046 0.63628 -0.06356
 C1990 C 0.50055 0.61325 -0.05161
 C1991 C 0.00169 1.13584 0.43570
 C1992 C 0.00154 1.11277 0.44758
 C1993 C 0.74754 0.72097 0.89498
 C1994 C 0.74792 0.73110 0.87146
 C1995 C 0.24699 0.22055 0.39417
 C1996 C 0.24726 0.23077 0.37069
 C1997 C 0.76055 0.28426 0.39061
 C1998 C 0.76184 0.27407 0.36716
 C1999 C 0.26037 0.78556 0.88956
 C2000 C 0.26165 0.77542 0.86609
 C2001 C 0.24030 0.78672 0.10739
 C2002 C 0.23879 0.77757 0.13125
 C2003 C 0.74128 0.28523 0.60818
 C2004 C 0.73998 0.27589 0.63200
 C2005 C 0.25028 0.21782 0.61014
 C2006 C 0.25125 0.22802 0.63358
 C2007 C 0.74974 0.71634 0.11029
 C2008 C 0.75079 0.72653 0.13374
 C2009 C 0.17176 0.62057 0.23860
 C2010 C 0.18457 0.64400 0.23789
 C2011 C 0.67359 0.11839 0.73929
 C2012 C 0.68641 0.14181 0.73849
 C2013 C 0.82717 0.11426 0.26099
 C2014 C 0.81443 0.13795 0.26180
 C2015 C 0.32640 0.61540 0.76019
 C2016 C 0.31379 0.63916 0.76083
 C2017 C 0.32222 0.38313 0.74103
 C2018 C 0.30876 0.36006 0.74016
 C2019 C 0.82267 0.88147 0.24071
 C2020 C 0.80910 0.85847 0.23994
 C2021 C 0.67879 0.88798 0.76261
 C2022 C 0.69216 0.86466 0.76414
 C2023 C 0.17794 0.38778 0.26209
 C2024 C 0.19138 0.36449 0.26354
 C2025 C 0.10965 0.24997 0.81842
 C2026 C 0.13274 0.25034 0.80666
 C2027 C 0.60963 0.74868 0.31847
 C2028 C 0.63287 0.74907 0.30697
 C2029 C 0.61199 0.24596 0.19021
 C2030 C 0.63512 0.24663 0.20180
 C2031 C 0.11142 0.74648 0.68943
 C2032 C 0.13456 0.74745 0.70097
 C2033 C 0.89098 0.75076 0.68656
 C2034 C 0.86812 0.75193 0.69870
 C2035 C 0.39023 0.25089 0.18585
 C2036 C 0.36729 0.25178 0.19788
 C2037 C 0.38733 0.74833 0.30977
 C2038 C 0.36438 0.74882 0.29782
 C2039 C 0.88820 0.24760 0.81122
 C2040 C 0.86530 0.24783 0.79919
 C2041 C 0.53957 1.01438 0.63831
 C2042 C 0.52962 1.01574 0.61477
 C2043 C 0.03985 0.51423 1.13902
 C2044 C 0.02981 0.51579 1.11549
 C2045 C -0.03939 -0.01759 1.14063
 C2046 C -0.02955 -0.01857 1.11701
 C2047 C 0.46103 0.48241 0.64025
 C2048 C 0.47087 0.48149 0.61664
 C2049 C 0.46511 0.51008 -0.14119
 C2050 C 0.47461 0.51203 -0.11751
 C2051 C -0.03401 1.00905 0.35856
 C2052 C -0.02474 1.01105 0.38232
 C2053 C 0.03362 0.48761 0.35560
 C2054 C 0.02451 0.48531 0.37939
 C2055 C 0.53503 -0.01218 -0.14392
 C2056 C 0.52560 -0.01437 -0.12025
 C2057 C 0.63496 0.57257 -0.01070
 C2058 C 0.61184 0.55928 -0.01198
 C2059 C 0.13508 1.07196 0.48932
 C2060 C 0.11195 1.05869 0.48813
 C2061 C 0.13373 -0.07518 1.01135
 C2062 C 0.11011 -0.06238 1.01256
 C2063 C 0.63410 0.42455 0.51142
 C2064 C 0.61055 0.43751 0.51246
 C2065 C -0.13554 0.42500 0.48633
 C2066 C -0.11212 0.43775 0.48531
 C2067 C 0.36443 -0.07418 -0.01446
 C2068 C 0.38789 -0.06151 -0.01540
 C2069 C 0.36755 1.07773 0.51035
 C2070 C 0.39143 1.06538 0.51071
 C2071 C -0.13235 0.57862 1.01128
 C2072 C -0.10841 0.56639 1.01162
 C2073 C 0.00898 0.63408 0.55646
 C2074 C 0.00764 0.61049 0.54575
 C2075 C 0.51011 0.13350 0.05760
 C2076 C 0.50864 0.10992 0.04688
 C2077 C -0.01021 0.14022 0.94864
 C2078 C -0.00855 0.11620 0.95860
 C2079 C 0.48910 0.63955 0.44743
 C2080 C 0.49107 0.61559 0.45749
 C2081 C 0.50679 0.86654 0.43799
 C2082 C 0.50770 0.89053 0.44798
 C2083 C 0.00717 0.36794 0.93815
 C2084 C 0.00799 0.39201 0.94798
 C2085 C 0.49564 0.35931 0.05684
 C2086 C 0.49532 0.38325 0.04661
 C2087 C -0.00588 0.85986 0.55803
 C2088 C -0.00598 0.88377 0.54773
 C2089 C 0.26400 0.28907 0.11115
 C2090 C 0.26560 0.27933 0.13477
 C2091 C 0.76452 0.78893 0.61173
 C2092 C 0.76621 0.77931 0.63539
 C2093 C 0.23416 0.71061 0.60886
 C2094 C 0.23337 0.72047 0.63247
 C2095 C 0.73498 0.20942 0.10983
 C2096 C 0.73416 0.21926 0.13344
 C2097 C 0.76265 0.21313 0.89052
 C2098 C 0.76461 0.22266 0.86680
 C2099 C 0.26193 0.71460 0.38964
 C2100 C 0.26384 0.72423 0.36596
 C2101 C 0.73780 0.78402 0.39355
 C2102 C 0.73567 0.77480 0.36983
 C2103 C 0.23729 0.28499 0.89335
 C2104 C 0.23516 0.27583 0.86962
 C2105 C 0.82456 0.38437 0.76078
 C2106 C 0.81148 0.36108 0.76182
 C2107 C 0.32402 0.88589 0.25958
 C2108 C 0.31089 0.86262 0.26078
 C2109 C 0.17571 0.88402 0.73715
 C2110 C 0.18880 0.86053 0.73608
 C2111 C 0.67643 0.38276 0.23782
 C2112 C 0.68952 0.35927 0.23688
 C2113 C 0.67392 0.61464 0.26416
 C2114 C 0.68648 0.63817 0.26508
 C2115 C 0.17370 0.11594 0.76367
 C2116 C 0.18633 0.13944 0.76455
 C2117 C 0.32535 0.11719 0.24031
 C2118 C 0.31307 0.14116 0.24001
 C2119 C 0.82680 0.61772 0.74126
 C2120 C 0.81435 0.64160 0.74093
 C2121 C 0.88244 0.75697 0.19108
 C2122 C 0.85875 0.75593 0.20162
 C2123 C 0.38263 0.25865 0.69159
 C2124 C 0.35889 0.25769 0.70199
 C2125 C 0.39145 0.74011 0.80060
 C2126 C 0.36751 0.74207 0.79066
 C2127 C 0.89174 0.23882 0.30221
 C2128 C 0.86783 0.24072 0.29220
 C2129 C 0.11706 0.26198 0.31253
 C2130 C 0.14088 0.26260 0.30222
 C2131 C 0.61759 0.76197 0.81270
 C2132 C 0.64157 0.76261 0.80271
 C2133 C 0.60953 0.24707 0.69643
 C2134 C 0.63375 0.24670 0.70587
 C2135 C 0.10779 0.74991 0.19674
 C2136 C 0.13217 0.74953 0.20581
   
