data_POSCAR
  _audit_creation_date              2014-09-24
  _audit_creation_method            'ToBaCCo'
  _symmetry_space_group_name_H-M    'P1'
  _symmetry_Int_Tables_number       1
  _symmetry_cell_setting            triclinic
  loop_
  _symmetry_equiv_pos_as_xyz
 x,y,z
_cell_length_a 65.1222
_cell_length_b 65.2923
_cell_length_c 65.2331
_cell_angle_alpha 89.963800
_cell_angle_beta 89.980400
_cell_angle_gamma 89.980600
loop_
  _atom_site_label
  _atom_site_type_symbol
  _atom_site_fract_x
  _atom_site_fract_y
  _atom_site_fract_z
C1 C 0.25024 0.99771 -0.01370
 C2 C 0.25018 0.99795 0.00715
 C3 C 0.24860 0.97896 0.01956
 C4 C 0.25201 1.01719 0.01921
 C5 C 0.24996 1.01680 -0.02606
 C6 C 0.25055 0.97838 -0.02575
 C7 C 0.23301 0.97762 0.03432
 C8 C 0.23240 0.96125 0.04800
 C9 C 0.24737 0.94578 0.04718
 C10 C 0.26263 0.94673 0.03193
 C11 C 0.26337 0.96332 0.01833
 C12 C 0.26755 1.01857 0.03397
 C13 C 0.26879 1.03545 0.04696
 C14 C 0.25447 1.05164 0.04554
 C15 C 0.23915 1.05042 0.03022
 C16 C 0.23779 1.03325 0.01739
 C17 C 0.26547 1.03166 -0.02445
 C18 C 0.26534 1.04882 -0.03735
 C19 C 0.24996 1.05110 -0.05232
 C20 C 0.23446 1.03622 -0.05375
 C21 C 0.23445 1.01931 -0.04074
 C22 C 0.23506 0.96351 -0.02392
 C23 C 0.23490 0.94643 -0.03694
 C24 C 0.24998 0.94421 -0.05224
 C25 C 0.26559 0.95898 -0.05375
 C26 C 0.26587 0.97581 -0.04064
 H27 H 0.22155 0.98958 0.03556
 H28 H 0.22036 0.96090 0.05944
 H29 H 0.27443 0.93508 0.03102
 H30 H 0.27577 0.96429 0.00731
 H31 H 0.27865 1.00632 0.03567
 H32 H 0.28098 1.03554 0.05825
 H33 H 0.22541 1.03231 0.00636
 H34 H 0.27784 1.02978 -0.01352
 H35 H 0.27757 1.05997 -0.03601
 H36 H 0.22233 1.03757 -0.06503
 H37 H 0.22241 1.00797 -0.04229
 H38 H 0.22283 0.96540 -0.01283
 H39 H 0.22261 0.93536 -0.03549
 H40 H 0.27751 0.95767 -0.06524
 H41 H 0.27791 0.98713 -0.04237
 H42 H 0.22777 1.06239 0.02844
 C43 C 0.74863 0.49334 0.48447
 C44 C 0.74987 0.49367 0.50529
 C45 C 0.75005 0.51310 0.51712
 C46 C 0.75074 0.47475 0.51797
 C47 C 0.74726 0.47393 0.47264
 C48 C 0.74873 0.51244 0.47198
 C49 C 0.76548 0.52791 0.51445
 C50 C 0.76623 0.54512 0.52726
 C51 C 0.75181 0.54751 0.54315
 C52 C 0.73622 0.53283 0.54545
 C53 C 0.73534 0.51587 0.53257
 C54 C 0.73496 0.46009 0.51761
 C55 C 0.73477 0.44404 0.53192
 C56 C 0.75015 0.44268 0.54702
 C57 C 0.76621 0.45703 0.54686
 C58 C 0.76651 0.47282 0.53249
 C59 C 0.73149 0.47179 0.45816
 C60 C 0.73091 0.45488 0.44516
 C61 C 0.74606 0.43962 0.44637
 C62 C 0.76155 0.44139 0.46130
 C63 C 0.76226 0.45853 0.47421
 C64 C 0.76305 0.51434 0.45602
 C65 C 0.76283 0.53140 0.44315
 C66 C 0.74831 0.54707 0.44599
 C67 C 0.73409 0.54534 0.46213
 C68 C 0.73414 0.52804 0.47488
 H69 H 0.77720 0.52586 0.50286
 H70 H 0.77848 0.55613 0.52520
 H71 H 0.72479 0.53430 0.55742
 H72 H 0.72335 0.50461 0.53491
 H73 H 0.72240 0.46152 0.50682
 H74 H 0.72216 0.43325 0.53171
 H75 H 0.77878 0.48401 0.53311
 H76 H 0.71980 0.48350 0.45664
 H77 H 0.71869 0.45392 0.43394
 H78 H 0.77351 0.42993 0.46250
 H79 H 0.77482 0.46007 0.48497
 H80 H 0.77437 0.50245 0.45343
 H81 H 0.77405 0.53228 0.43094
 H82 H 0.72260 0.55708 0.46458
 H83 H 0.72261 0.52669 0.48676
 H84 H 0.77839 0.45631 0.55814
 C85 C 0.75335 1.00373 0.99427
 C86 C 0.75388 0.98294 0.99527
 C87 C 0.75622 0.97015 0.97658
 C88 C 0.75231 0.97157 1.01499
 C89 C 0.75206 1.01692 1.01275
 C90 C 0.75371 1.01481 0.97445
 C91 C 0.74146 0.97039 0.96089
 C92 C 0.74325 0.95712 0.94415
 C93 C 0.75953 0.94301 0.94309
 C94 C 0.77424 0.94279 0.95885
 C95 C 0.77260 0.95626 0.97538
 C96 C 0.73747 0.95614 1.01688
 C97 C 0.73627 0.94430 1.03464
 C98 C 0.74992 0.94759 1.05100
 C99 C 0.76466 0.96326 1.04924
 C100 C 0.76597 0.97503 1.03130
 C101 C 0.76688 1.03223 1.01565
 C102 C 0.76519 1.04600 1.03184
 C103 C 0.74871 1.04471 1.04565
 C104 C 0.73411 1.02904 1.04314
 C105 C 0.73565 1.01536 1.02666
 C106 C 0.77234 1.02054 0.96537
 C107 C 0.77252 1.03418 0.94879
 C108 C 0.75399 1.04186 0.94062
 C109 C 0.73532 1.03494 0.94912
 C110 C 0.73524 1.02197 0.96614
 H111 H 0.72824 0.98037 0.96187
 H112 H 0.73153 0.95746 0.93239
 H113 H 0.78697 0.93213 0.95847
 H114 H 0.78401 0.95565 0.98746
 H115 H 0.72683 0.95315 1.00448
 H116 H 0.72467 0.93245 1.03546
 H117 H 0.77785 0.98656 1.03001
 H118 H 0.77975 1.03368 1.00526
 H119 H 0.77680 1.05775 1.03348
 H120 H 0.72119 1.02775 1.05351
 H121 H 0.72387 1.00387 1.02452
 H122 H 0.78675 1.01521 0.97172
 H123 H 0.78722 1.03888 0.94261
 H124 H 0.72069 1.04037 0.94338
 H125 H 0.72074 1.01787 0.97317
 H126 H 0.77550 0.96608 1.06150
 C127 C 0.24935 0.50706 0.49669
 C128 C 0.25056 0.48627 0.49716
 C129 C 0.24967 0.47466 0.51672
 C130 C 0.25229 0.47358 0.47831
 C131 C 0.24819 0.51890 0.47731
 C132 C 0.24918 0.51966 0.51566
 C133 C 0.23432 0.45984 0.51919
 C134 C 0.23348 0.44795 0.53689
 C135 C 0.24800 0.45061 0.55259
 C136 C 0.26330 0.46565 0.55024
 C137 C 0.26424 0.47747 0.53234
 C138 C 0.26799 0.45891 0.47718
 C139 C 0.26891 0.44519 0.46085
 C140 C 0.25418 0.44585 0.44515
 C141 C 0.23871 0.46090 0.44595
 C142 C 0.23764 0.47452 0.46252
 C143 C 0.26394 0.51826 0.46260
 C144 C 0.26366 0.53181 0.44592
 C145 C 0.24785 0.54638 0.44398
 C146 C 0.23183 0.54644 0.45838
 C147 C 0.23200 0.53283 0.47481
 C148 C 0.23373 0.51766 0.53057
 C149 C 0.23314 0.53100 0.54738
 C150 C 0.24771 0.54680 0.54925
 C151 C 0.26323 0.54855 0.53440
 C152 C 0.26396 0.53511 0.51784
 H153 H 0.22298 0.45741 0.50728
 H154 H 0.22144 0.43659 0.53821
 H155 H 0.27480 0.46795 0.56200
 H156 H 0.27644 0.48860 0.53055
 H157 H 0.27938 0.45783 0.48924
 H158 H 0.28109 0.43390 0.46065
 H159 H 0.22509 0.48537 0.46330
 H160 H 0.27677 0.50787 0.46445
 H161 H 0.27625 0.53148 0.43507
 H162 H 0.21933 0.55731 0.45721
 H163 H 0.21974 0.53359 0.48602
 H164 H 0.22191 0.50612 0.52895
 H165 H 0.22092 0.52937 0.55852
 H166 H 0.27475 0.56045 0.53545
 H167 H 0.27594 0.53698 0.50646
 H168 H 0.22706 0.46170 0.43414
 C169 C 0.99719 0.24900 -0.00631
 C170 C 0.99635 0.24844 0.01450
 C171 C 0.97652 0.24659 0.02545
 C172 C 1.01493 0.24923 0.02772
 C173 C 1.01675 0.25139 -0.01781
 C174 C 0.97844 0.24716 -0.01918
 C175 C 0.96836 0.26377 0.03541
 C176 C 0.95063 0.26199 0.04729
 C177 C 0.94120 0.24284 0.04999
 C178 C 0.94933 0.22564 0.03989
 C179 C 0.96674 0.22756 0.02745
 C180 C 1.02959 0.26492 0.02593
 C181 C 1.04662 0.26546 0.03904
 C182 C 1.04900 0.25065 0.05463
 C183 C 1.03409 0.23512 0.05638
 C184 C 1.01741 0.23439 0.04306
 C185 C 1.03306 0.23749 -0.01562
 C186 C 1.05048 0.23911 -0.02814
 C187 C 1.05168 0.25439 -0.04342
 C188 C 1.03536 0.26845 -0.04517
 C189 C 1.01819 0.26695 -0.03253
 C190 C 0.97787 0.23225 -0.03462
 C191 C 0.96168 0.23165 -0.04859
 C192 C 0.94550 0.24594 -0.04741
 C193 C 0.94580 0.26050 -0.03143
 C194 C 0.96226 0.26128 -0.01767
 H195 H 0.97589 0.27851 0.03413
 H196 H 0.94476 0.27544 0.05506
 H197 H 0.94229 0.21073 0.04173
 H198 H 0.97302 0.21414 0.01998
 H199 H 1.02776 0.27685 0.01454
 H200 H 1.05762 0.27776 0.03722
 H201 H 1.00636 0.22213 0.04479
 H202 H 1.03210 0.22512 -0.00461
 H203 H 1.06265 0.22797 -0.02625
 H204 H 1.03559 0.28056 -0.05652
 H205 H 1.00574 0.27779 -0.03450
 H206 H 0.99029 0.22131 -0.03615
 H207 H 0.96208 0.22009 -0.06048
 H208 H 0.93375 0.27184 -0.02997
 H209 H 0.96269 0.27335 -0.00633
 H210 H 1.03525 0.22333 0.06801
 C211 C 0.49477 0.74913 0.51665
 C212 C 0.49520 0.74923 0.49582
 C213 C 0.47626 0.74708 0.48329
 C214 C 0.51452 0.75134 0.48392
 C215 C 0.51368 0.75019 0.52940
 C216 C 0.47515 0.74747 0.52798
 C217 C 0.47534 0.73151 0.46852
 C218 C 0.45935 0.73093 0.45431
 C219 C 0.44386 0.74591 0.45461
 C220 C 0.44432 0.76105 0.46994
 C221 C 0.46051 0.76176 0.48404
 C222 C 0.53068 0.73721 0.48583
 C223 C 0.54776 0.73843 0.47282
 C224 C 0.54871 0.75356 0.45747
 C225 C 0.53268 0.76788 0.45595
 C226 C 0.51581 0.76678 0.46903
 C227 C 0.52825 0.76591 0.52696
 C228 C 0.54577 0.76656 0.53942
 C229 C 0.54873 0.75181 0.55486
 C230 C 0.53401 0.73628 0.55737
 C231 C 0.51677 0.73546 0.54476
 C232 C 0.46677 0.76494 0.53722
 C233 C 0.44920 0.76338 0.54941
 C234 C 0.44016 0.74421 0.55309
 C235 C 0.44850 0.72672 0.54369
 C236 C 0.46574 0.72838 0.53097
 H237 H 0.48742 0.72014 0.46757
 H238 H 0.45938 0.71899 0.44280
 H239 H 0.43268 0.77289 0.47047
 H240 H 0.46123 0.77427 0.49489
 H241 H 0.52980 0.72493 0.49697
 H242 H 0.55983 0.72712 0.47429
 H243 H 0.50347 0.77777 0.46726
 H244 H 0.52599 0.77774 0.51555
 H245 H 0.55676 0.77882 0.53727
 H246 H 0.53588 0.72462 0.56903
 H247 H 0.50584 0.72317 0.54698
 H248 H 0.47400 0.77973 0.53516
 H249 H 0.44317 0.77707 0.55660
 H250 H 0.44175 0.71178 0.54627
 H251 H 0.47216 0.71474 0.52404
 H252 H 0.53299 0.77982 0.44442
 C253 C 0.00447 0.75129 0.00507
 C254 C -0.01640 0.75133 0.00496
 C255 C -0.02820 0.75249 0.02432
 C256 C -0.02870 0.75067 -0.01425
 C257 C 0.01695 0.74912 -0.01386
 C258 C 0.01646 0.75376 0.02427
 C259 C -0.03605 0.73452 0.03299
 C260 C -0.04863 0.73541 0.05030
 C261 C -0.05436 0.75443 0.05880
 C262 C -0.04615 0.77245 0.05009
 C263 C -0.03294 0.77144 0.03321
 C264 C -0.02611 0.73515 -0.02894
 C265 C -0.03798 0.73504 -0.04688
 C266 C -0.05307 0.75019 -0.05023
 C267 C -0.05571 0.76549 -0.03524
 C268 C -0.04366 0.76575 -0.01761
 C269 C 0.01513 0.76281 -0.03036
 C270 C 0.02838 0.76128 -0.04722
 C271 C 0.04407 0.74637 -0.04762
 C272 C 0.04557 0.73260 -0.03105
 C273 C 0.03217 0.73395 -0.01447
 C274 C 0.03042 0.77004 0.02574
 C275 C 0.04427 0.77106 0.04200
 C276 C 0.04443 0.75581 0.05721
 C277 C 0.02989 0.73992 0.05619
 C278 C 0.01615 0.73877 0.03971
 H279 H -0.03258 0.71979 0.02619
 H280 H -0.05452 0.72116 0.05645
 H281 H -0.04995 0.78738 0.05624
 H282 H -0.02695 0.78545 0.02663
 H283 H -0.01495 0.72309 -0.02651
 H284 H -0.03551 0.72290 -0.05791
 H285 H -0.04598 0.77795 -0.00664
 H286 H 0.00378 0.77492 -0.03000
 H287 H 0.02668 0.77222 -0.05959
 H288 H 0.05724 0.72078 -0.03068
 H289 H 0.03389 0.72329 -0.00186
 H290 H 0.03103 0.78163 0.01386
 H291 H 0.05519 0.78356 0.04241
 H292 H 0.02975 0.72785 0.06758
 H293 H 0.00598 0.72572 0.03855
 H294 H -0.06702 0.77752 -0.03707
 C295 C 0.48597 0.25231 0.50395
 C296 C 0.50682 0.25192 0.50415
 C297 C 0.51930 0.24951 0.48524
 C298 C 0.51873 0.25424 0.52342
 C299 C 0.47403 0.25366 0.52320
 C300 C 0.47374 0.25180 0.48474
 C301 C 0.53418 0.23400 0.48460
 C302 C 0.54755 0.23240 0.46800
 C303 C 0.54630 0.24627 0.45158
 C304 C 0.53107 0.26156 0.45196
 C305 C 0.51780 0.26330 0.46877
 C306 C 0.51745 0.23977 0.53929
 C307 C 0.53065 0.24103 0.55619
 C308 C 0.54561 0.25653 0.55723
 C309 C 0.54650 0.27122 0.54151
 C310 C 0.53320 0.27008 0.52481
 C311 C 0.47054 0.27259 0.53272
 C312 C 0.45721 0.27391 0.54950
 C313 C 0.44767 0.25622 0.55727
 C314 C 0.45185 0.23720 0.54813
 C315 C 0.46466 0.23600 0.53102
 C316 C 0.45914 0.26722 0.48129
 C317 C 0.44666 0.26675 0.46398
 C318 C 0.44852 0.25089 0.44957
 C319 C 0.46336 0.23556 0.45278
 C320 C 0.47573 0.23589 0.47037
 H321 H 0.53566 0.22328 0.49720
 H322 H 0.55900 0.22038 0.46815
 H323 H 0.52983 0.27255 0.43959
 H324 H 0.50672 0.27567 0.46916
 H325 H 0.50682 0.22708 0.53824
 H326 H 0.52970 0.22939 0.56798
 H327 H 0.53453 0.28130 0.51264
 H328 H 0.47758 0.28637 0.52672
 H329 H 0.45426 0.28873 0.55635
 H330 H 0.44458 0.22337 0.55373
 H331 H 0.46710 0.22131 0.52368
 H332 H 0.45734 0.27969 0.49206
 H333 H 0.43551 0.27888 0.46190
 H334 H 0.46503 0.22306 0.44200
 H335 H 0.48664 0.22362 0.47289
 H336 H 0.55776 0.28341 0.54190
 C337 C 1.00443 0.01280 0.24840
 C338 C 1.00419 -0.00799 0.24948
 C339 C 1.02335 -0.02024 0.25140
 C340 C 0.98485 -0.02008 0.24900
 C341 C 0.98539 0.02533 0.24737
 C342 C 1.02396 0.02440 0.24886
 C343 C 1.03883 -0.01942 0.23644
 C344 C 1.05542 -0.03305 0.23719
 C345 C 1.05655 -0.04819 0.25259
 C346 C 1.04119 -0.04852 0.26782
 C347 C 1.02489 -0.03469 0.26723
 C348 C 0.98313 -0.03616 0.23490
 C349 C 0.96633 -0.04934 0.23543
 C350 C 0.95065 -0.04675 0.25010
 C351 C 0.95209 -0.03013 0.26385
 C352 C 0.96916 -0.01708 0.26346
 C353 C 0.98266 0.04128 0.26151
 C354 C 0.96537 0.05379 0.26060
 C355 C 0.95025 0.05062 0.24557
 C356 C 0.95282 0.03454 0.23147
 C357 C 0.97038 0.02213 0.23221
 C358 C 1.03434 0.02776 0.26739
 C359 C 1.05146 0.04070 0.26796
 C360 C 1.05871 0.04999 0.24991
 C361 C 1.04869 0.04597 0.23128
 C362 C 1.03124 0.03356 0.23084
 H363 H 1.03768 -0.00883 0.22373
 H364 H 1.06684 -0.03222 0.22515
 H365 H 1.04147 -0.05971 0.28007
 H366 H 1.01304 -0.03567 0.27885
 H367 H 0.99511 -0.03879 0.22367
 H368 H 0.96587 -0.06174 0.22443
 H369 H 0.97038 -0.00502 0.27477
 H370 H 0.99395 0.04406 0.27336
 H371 H 0.96382 0.06595 0.27177
 H372 H 0.94151 0.03185 0.21961
 H373 H 0.97234 0.01018 0.22087
 H374 H 1.02875 0.02093 0.28146
 H375 H 1.05897 0.04355 0.28249
 H376 H 1.05387 0.05307 0.21719
 H377 H 1.02324 0.03123 0.21646
 H378 H 0.94041 -0.02755 0.27539
 C379 C 0.50337 0.49586 0.74891
 C380 C 0.50354 0.51667 0.74913
 C381 C 0.48414 0.52869 0.74820
 C382 C 0.52282 0.52883 0.74967
 C383 C 0.52225 0.48310 0.74832
 C384 C 0.48387 0.48429 0.74932
 C385 C 0.48132 0.54275 0.73219
 C386 C 0.46372 0.55494 0.73139
 C387 C 0.44849 0.55327 0.74657
 C388 C 0.45125 0.53908 0.76256
 C389 C 0.46904 0.52707 0.76350
 C390 C 0.53839 0.52628 0.73496
 C391 C 0.55555 0.53923 0.73493
 C392 C 0.55719 0.55518 0.74933
 C393 C 0.54168 0.55747 0.76413
 C394 C 0.52475 0.54443 0.76430
 C395 C 0.53728 0.48421 0.76373
 C396 C 0.55364 0.47022 0.76397
 C397 C 0.55496 0.45473 0.74903
 C398 C 0.54019 0.45411 0.73337
 C399 C 0.52409 0.46815 0.73301
 C400 C 0.47755 0.47506 0.76766
 C401 C 0.46014 0.46263 0.76805
 C402 C 0.44921 0.45868 0.74993
 C403 C 0.45548 0.46806 0.73157
 C404 C 0.47257 0.48102 0.73133
 H405 H 0.49285 0.54436 0.72032
 H406 H 0.46207 0.56569 0.71886
 H407 H 0.43992 0.53763 0.77463
 H408 H 0.47119 0.51682 0.77636
 H409 H 0.53701 0.51468 0.72320
 H410 H 0.56717 0.53718 0.72324
 H411 H 0.51289 0.54674 0.77573
 H412 H 0.53599 0.49543 0.77588
 H413 H 0.56478 0.47103 0.77626
 H414 H 0.54088 0.44255 0.72150
 H415 H 0.51276 0.46702 0.72092
 H416 H 0.48627 0.47733 0.78161
 H417 H 0.45572 0.45544 0.78235
 H418 H 0.44724 0.46524 0.71743
 H419 H 0.47742 0.48795 0.71703
 H420 H 0.54252 0.56950 0.77552
 C421 C 1.01524 1.00656 0.75109
 C422 C 0.99439 1.00571 0.75018
 C423 C 0.98287 0.98611 0.75097
 C424 C 0.98148 1.02441 0.74814
 C425 C 1.02623 1.02640 0.75108
 C426 C 1.02843 0.98794 0.75155
 C427 C 0.98560 0.97074 0.73615
 C428 C 0.97295 0.95338 0.73618
 C429 C 0.95716 0.95135 0.75079
 C430 C 0.95483 0.96660 0.76579
 C431 C 0.96754 0.98375 0.76587
 C432 C 0.96691 1.02532 0.73235
 C433 C 0.95270 1.04127 0.73146
 C434 C 0.95276 1.05692 0.74633
 C435 C 0.96793 1.05635 0.76177
 C436 C 0.98192 1.04010 0.76283
 C437 C 1.03505 1.03353 0.76932
 C438 C 1.04697 1.05130 0.76932
 C439 C 1.05084 1.06181 0.75094
 C440 C 1.04186 1.05473 0.73268
 C441 C 1.02939 1.03727 0.73280
 C442 C 1.02567 0.97233 0.76612
 C443 C 1.03849 0.95509 0.76614
 C444 C 1.05475 0.95338 0.75193
 C445 C 1.05758 0.96930 0.73763
 C446 C 1.04456 0.98623 0.73740
 H447 H 0.99710 0.97246 0.72428
 H448 H 0.97504 0.94193 0.72436
 H449 H 0.94294 0.96547 0.77735
 H450 H 0.96514 0.99548 0.77737
 H451 H 0.96620 1.01330 0.72092
 H452 H 0.94149 1.04110 0.71921
 H453 H 0.99255 1.03941 0.77555
 H454 H 1.03286 1.02517 0.78350
 H455 H 1.05386 1.05634 0.78356
 H456 H 1.04461 1.06261 0.71833
 H457 H 1.02281 1.03180 0.71857
 H458 H 1.01367 0.97352 0.77755
 H459 H 1.03584 0.94331 0.77753
 H460 H 1.06979 0.96873 0.72636
 H461 H 1.04708 0.99803 0.72600
 H462 H 0.96853 1.06799 0.77357
 C463 C 0.51476 0.50221 0.25271
 C464 C 0.49390 0.50187 0.25294
 C465 C 0.48237 0.48234 0.25310
 C466 C 0.48111 0.52067 0.25295
 C467 C 0.52684 0.52154 0.25215
 C468 C 0.52695 0.48297 0.25343
 C469 C 0.47284 0.47562 0.23506
 C470 C 0.46040 0.45823 0.23526
 C471 C 0.45669 0.44771 0.25367
 C472 C 0.46634 0.45440 0.27174
 C473 C 0.47934 0.47147 0.27140
 C474 C 0.48267 0.53545 0.23736
 C475 C 0.46892 0.55195 0.23671
 C476 C 0.45320 0.55366 0.25141
 C477 C 0.45205 0.53909 0.26720
 C478 C 0.46586 0.52284 0.26798
 C479 C 0.52420 0.53702 0.26688
 C480 C 0.53717 0.55415 0.26701
 C481 C 0.55323 0.55585 0.25267
 C482 C 0.55557 0.54047 0.23780
 C483 C 0.54251 0.52356 0.23753
 C484 C 0.54150 0.48032 0.26905
 C485 C 0.55418 0.46311 0.26930
 C486 C 0.55252 0.44811 0.25394
 C487 C 0.53775 0.45063 0.23842
 C488 C 0.52526 0.46805 0.23803
 H489 H 0.47490 0.48402 0.22088
 H490 H 0.45300 0.45349 0.22117
 H491 H 0.46372 0.44650 0.28611
 H492 H 0.48645 0.47663 0.28548
 H493 H 0.49410 0.53388 0.22541
 H494 H 0.47011 0.56292 0.22431
 H495 H 0.46439 0.51170 0.28020
 H496 H 0.51252 0.53557 0.27861
 H497 H 0.53508 0.56568 0.27874
 H498 H 0.56767 0.54135 0.22645
 H499 H 0.54488 0.51179 0.22608
 H500 H 0.54317 0.49175 0.28096
 H501 H 0.56537 0.46159 0.28148
 H502 H 0.53630 0.43946 0.22625
 H503 H 0.51464 0.47012 0.22544
 H504 H 0.44027 0.54008 0.27888
 O505 O 0.25788 0.19763 0.21292
 O506 O 0.28058 0.19101 0.24119
 O507 O 0.20412 0.22084 0.24521
 O508 O 0.19789 0.24559 0.26668
 O509 O 0.22738 0.25188 0.19047
 O510 O 0.25486 0.27554 0.18596
 O511 O 0.25911 0.27667 0.29676
 O512 O 0.23534 0.24925 0.30220
 O513 O 0.31111 0.24949 0.27005
 O514 O 0.31592 0.22690 0.23922
 O515 O 0.28512 0.30274 0.24692
 O516 O 0.25869 0.30804 0.22068
 O517 O 0.25755 0.30197 0.27277
 O518 O 0.23123 0.30556 0.24463
 O519 O 0.30988 0.27836 0.24329
 O520 O 0.31598 0.25320 0.21918
 O521 O 0.28692 0.24963 0.29524
 O522 O 0.25912 0.22548 0.30194
 O523 O 0.25543 0.22290 0.18899
 O524 O 0.27935 0.25139 0.18410
 O525 O 0.20344 0.24947 0.21586
 O526 O 0.20056 0.27444 0.24445
 O527 O 0.22911 0.19655 0.24219
 O528 O 0.25807 0.19002 0.26389
 Zr529 Zr 0.25686 0.21313 0.24121
 O530 O 0.27630 0.23019 0.26049
 Zr531 Zr 0.22039 0.24863 0.24339
 O532 O 0.23840 0.26729 0.26269
 Zr533 Zr 0.25550 0.25018 0.20625
 O534 O 0.27494 0.26873 0.22413
 Zr535 Zr 0.25874 0.24921 0.27972
 O536 O 0.23918 0.23021 0.26215
 Zr537 Zr 0.29382 0.25048 0.24270
 O538 O 0.27608 0.23168 0.22302
 Zr539 Zr 0.25742 0.28616 0.24474
 O540 O 0.23772 0.26904 0.22542
 O541 O 0.23713 0.23050 0.22331
 O542 O 0.27725 0.26887 0.26285
 C543 C 0.25695 0.20400 0.19429
 C544 C 0.21028 0.20213 0.24430
 C545 C 0.20874 0.25127 0.19694
 C546 C 0.25834 0.29563 0.29138
 C547 C 0.30561 0.24950 0.28898
 C548 C 0.30397 0.29700 0.24553
 H549 H 0.28510 0.22070 0.26837
 H550 H 0.28322 0.27763 0.21502
 H551 H 0.22818 0.22184 0.21465
 H552 H 0.22934 0.27549 0.27167
 H553 H 0.22466 0.23957 0.29743
 H554 H 0.20091 0.25595 0.27732
 H555 H 0.30972 0.24719 0.20675
 H556 H 0.27351 0.24816 0.17041
 H557 H 0.26954 0.21529 0.29778
 H558 H 0.24914 0.19467 0.27526
 H559 H 0.26142 0.32170 0.22672
 H560 H 0.24512 0.28565 0.19173
 H561 H 0.29117 0.19599 0.23151
 H562 H 0.31436 0.21726 0.25082
 H563 H 0.18643 0.26985 0.24110
 H564 H 0.23526 0.31921 0.24989
 O565 O 0.74970 0.81257 0.23276
 O566 O 0.72728 0.81768 0.26155
 O567 O 0.80308 0.78565 0.25903
 O568 O 0.80911 0.76050 0.28076
 O569 O 0.77636 0.76033 0.20534
 O570 O 0.74952 0.73737 0.19964
 O571 O 0.74817 0.72808 0.31144
 O572 O 0.77283 0.75424 0.31771
 O573 O 0.69630 0.75765 0.28815
 O574 O 0.68827 0.77937 0.26135
 O575 O 0.72070 0.70519 0.25938
 O576 O 0.74726 0.70122 0.23349
 O577 O 0.74797 0.70425 0.28596
 O578 O 0.77447 0.70202 0.25753
 O579 O 0.69616 0.73002 0.26023
 O580 O 0.69188 0.76167 0.23552
 O581 O 0.72118 0.75547 0.31254
 O582 O 0.74995 0.77909 0.31923
 O583 O 0.74773 0.78861 0.20750
 O584 O 0.72313 0.76006 0.20300
 O585 O 0.80133 0.75747 0.22969
 O586 O 0.80539 0.73239 0.25751
 O587 O 0.77865 0.81054 0.26173
 O588 O 0.74986 0.81617 0.28438
 Zr589 Zr 0.75035 0.79495 0.25993
 O590 O 0.73104 0.77692 0.27853
 Zr591 Zr 0.78587 0.75845 0.25812
 O592 O 0.76830 0.73909 0.27716
 Zr593 Zr 0.74909 0.76021 0.22268
 O594 O 0.73036 0.74039 0.23999
 Zr595 Zr 0.74885 0.75643 0.29597
 O596 O 0.76837 0.77602 0.27889
 Zr597 Zr 0.71255 0.75790 0.26029
 O598 O 0.72989 0.77803 0.24157
 Zr599 Zr 0.74846 0.72161 0.25881
 O600 O 0.76734 0.73971 0.23964
 O601 O 0.76870 0.77827 0.24006
 O602 O 0.72951 0.73803 0.27859
 C603 C 0.74822 0.80723 0.21383
 C604 C 0.79743 0.80444 0.26087
 C605 C 0.79521 0.75855 0.21097
 C606 C 0.74789 0.70949 0.30495
 C607 C 0.70232 0.75632 0.30686
 C608 C 0.70191 0.71118 0.25985
 H609 H 0.72258 0.78600 0.28721
 H610 H 0.72185 0.73205 0.23061
 H611 H 0.77745 0.78721 0.23148
 H612 H 0.77747 0.73022 0.28538
 H613 H 0.78366 0.76390 0.31325
 H614 H 0.80650 0.74955 0.29093
 H615 H 0.69118 0.74852 0.22802
 H616 H 0.72741 0.76482 0.18920
 H617 H 0.73872 0.78899 0.31676
 H618 H 0.75932 0.81078 0.29497
 H619 H 0.74457 0.68719 0.23866
 H620 H 0.75792 0.72592 0.20499
 H621 H 0.71648 0.81362 0.25167
 H622 H 0.69373 0.79181 0.26806
 H623 H 0.81950 0.73700 0.25412
 H624 H 0.77039 0.68821 0.26236
 O625 O 0.74834 0.19625 0.77952
 O626 O 0.72674 0.19027 0.75115
 O627 O 0.80234 0.22207 0.75129
 O628 O 0.80809 0.24694 0.72935
 O629 O 0.77737 0.25007 0.80549
 O630 O 0.75023 0.27112 0.81231
 O631 O 0.74614 0.27898 0.69991
 O632 O 0.76994 0.25274 0.69292
 O633 O 0.69462 0.25095 0.72586
 O634 O 0.68724 0.23026 0.75257
 O635 O 0.72149 0.30384 0.75263
 O636 O 0.74891 0.30785 0.77705
 O637 O 0.74748 0.30356 0.72463
 O638 O 0.77529 0.30563 0.75222
 O639 O 0.69647 0.27952 0.75254
 O640 O 0.69379 0.24889 0.77964
 O641 O 0.71866 0.25213 0.70054
 O642 O 0.74741 0.22778 0.69334
 O643 O 0.75024 0.22015 0.80485
 O644 O 0.72419 0.24846 0.80934
 O645 O 0.80192 0.24951 0.78056
 O646 O 0.80527 0.27518 0.75262
 O647 O 0.77769 0.19730 0.75021
 O648 O 0.74801 0.19222 0.72770
 Zr649 Zr 0.74949 0.21333 0.75222
 O650 O 0.72962 0.23138 0.73433
 Zr651 Zr 0.78548 0.24935 0.75260
 O652 O 0.76758 0.26852 0.73365
 Zr653 Zr 0.74972 0.24848 0.78911
 O654 O 0.73093 0.26858 0.77212
 Zr655 Zr 0.74712 0.25113 0.71592
 O656 O 0.76718 0.23173 0.73256
 Zr657 Zr 0.71211 0.25110 0.75286
 O658 O 0.72973 0.23069 0.77102
 Zr659 Zr 0.74875 0.28675 0.75230
 O660 O 0.76775 0.26860 0.77135
 O661 O 0.76862 0.22996 0.77137
 O662 O 0.72881 0.27026 0.73361
 C663 C 0.74904 0.20155 0.79846
 C664 C 0.79654 0.20330 0.75017
 C665 C 0.79615 0.25019 0.79944
 C666 C 0.74643 0.29774 0.70582
 C667 C 0.69998 0.25174 0.70693
 C668 C 0.70261 0.29825 0.75268
 H669 H 0.72070 0.22229 0.72613
 H670 H 0.72275 0.27711 0.78164
 H671 H 0.77756 0.22106 0.77981
 H672 H 0.77658 0.27706 0.72491
 H673 H 0.78135 0.24382 0.69751
 H674 H 0.80525 0.25776 0.71912
 H675 H 0.68197 0.25834 0.77819
 H676 H 0.72865 0.24306 0.82285
 H677 H 0.73567 0.21853 0.69595
 H678 H 0.75807 0.19689 0.71732
 H679 H 0.74672 0.32185 0.77156
 H680 H 0.75656 0.28343 0.80613
 H681 H 0.71560 0.19472 0.76046
 H682 H 0.69255 0.21725 0.74696
 H683 H 0.81937 0.27042 0.75583
 H684 H 0.77148 0.31931 0.74682
 O685 O 0.24245 0.79532 0.78008
 O686 O 0.26443 0.80095 0.75133
 O687 O 0.18732 0.77206 0.75216
 O688 O 0.18053 0.74760 0.72968
 O689 O 0.21257 0.74209 0.80514
 O690 O 0.23932 0.71925 0.81035
 O691 O 0.24060 0.71445 0.69828
 O692 O 0.21654 0.74141 0.69288
 O693 O 0.29298 0.73990 0.72261
 O694 O 0.30145 0.76169 0.75052
 O695 O 0.26670 0.68823 0.74938
 O696 O 0.23987 0.68426 0.77492
 O697 O 0.23937 0.68951 0.72269
 O698 O 0.21268 0.68728 0.75100
 O699 O 0.29192 0.71236 0.74963
 O700 O 0.29791 0.74245 0.77502
 O701 O 0.26817 0.74202 0.69815
 O702 O 0.23986 0.76566 0.69227
 O703 O 0.24113 0.77060 0.80469
 O704 O 0.26604 0.74167 0.80771
 O705 O 0.18765 0.74395 0.78066
 O706 O 0.18300 0.71885 0.75274
 O707 O 0.21285 0.79594 0.75122
 O708 O 0.24180 0.80148 0.72881
 Zr709 Zr 0.24048 0.77912 0.75222
 O710 O 0.25908 0.76117 0.73294
 Zr711 Zr 0.20346 0.74416 0.75247
 O712 O 0.22039 0.72480 0.73282
 Zr713 Zr 0.24003 0.74290 0.78814
 O714 O 0.25815 0.72313 0.77011
 Zr715 Zr 0.24050 0.74218 0.71474
 O716 O 0.22173 0.76184 0.73247
 Zr717 Zr 0.27668 0.74072 0.75050
 O718 O 0.26006 0.76065 0.77002
 Zr719 Zr 0.23950 0.70577 0.75050
 O720 O 0.22114 0.72385 0.77025
 O721 O 0.22134 0.76247 0.77135
 O722 O 0.25906 0.72231 0.73138
 C723 C 0.24241 0.78938 0.79888
 C724 C 0.19381 0.79065 0.75136
 C725 C 0.19368 0.74276 0.79939
 C726 C 0.23999 0.69559 0.70397
 C727 C 0.28700 0.74078 0.70385
 C728 C 0.28567 0.69372 0.74914
 H729 H 0.26787 0.77027 0.72459
 H730 H 0.26629 0.71410 0.77918
 H731 H 0.21288 0.77144 0.78020
 H732 H 0.21094 0.71662 0.72424
 H733 H 0.20583 0.75098 0.69780
 H734 H 0.18241 0.73646 0.71958
 H735 H 0.29717 0.72944 0.78275
 H736 H 0.26187 0.74609 0.82165
 H737 H 0.25062 0.77575 0.69573
 H738 H 0.23186 0.79721 0.71816
 H739 H 0.24190 0.67036 0.76913
 H740 H 0.23116 0.70795 0.80440
 H741 H 0.27546 0.79562 0.76030
 H742 H 0.29724 0.77363 0.74219
 H743 H 0.16904 0.72400 0.75599
 H744 H 0.21615 0.67354 0.74555
 O745 O 0.25115 0.31412 0.73257
 O746 O 0.22939 0.31926 0.76177
 O747 O 0.30487 0.28667 0.75705
 O748 O 0.31103 0.26138 0.77894
 O749 O 0.27682 0.26175 0.70414
 O750 O 0.24961 0.23917 0.69886
 O751 O 0.25169 0.22932 0.81059
 O752 O 0.27560 0.25565 0.81663
 O753 O 0.19854 0.25950 0.78867
 O754 O 0.19008 0.28133 0.76213
 O755 O 0.22166 0.20688 0.75811
 O756 O 0.24830 0.20278 0.73256
 O757 O 0.24873 0.20565 0.78513
 O758 O 0.27538 0.20313 0.75668
 O759 O 0.19750 0.23198 0.76054
 O760 O 0.19293 0.26381 0.73622
 O761 O 0.22388 0.25635 0.81247
 O762 O 0.25276 0.28022 0.81868
 O763 O 0.24842 0.29037 0.70718
 O764 O 0.22354 0.26204 0.70292
 O765 O 0.30224 0.25866 0.72799
 O766 O 0.30671 0.23341 0.75551
 O767 O 0.28065 0.31161 0.76096
 O768 O 0.25235 0.31742 0.78411
 Zr769 Zr 0.25221 0.29632 0.75954
 O770 O 0.23316 0.27839 0.77843
 Zr771 Zr 0.28739 0.25960 0.75669
 O772 O 0.27005 0.24026 0.77595
 Zr773 Zr 0.24990 0.26184 0.72207
 O774 O 0.23134 0.24213 0.73965
 Zr775 Zr 0.25122 0.25768 0.79531
 O776 O 0.27053 0.27719 0.77796
 Zr777 Zr 0.21415 0.25966 0.76045
 O778 O 0.23125 0.27971 0.74148
 Zr779 Zr 0.24961 0.22304 0.75799
 O780 O 0.26830 0.24108 0.73854
 O781 O 0.26999 0.27965 0.73915
 O782 O 0.23128 0.23952 0.77830
 C783 C 0.24918 0.30892 0.71367
 C784 C 0.29934 0.30546 0.75933
 C785 C 0.29577 0.25983 0.70939
 C786 C 0.25019 0.21081 0.80409
 C787 C 0.20492 0.25768 0.80721
 C788 C 0.20298 0.21310 0.75923
 H789 H 0.22497 0.28749 0.78736
 H790 H 0.22258 0.23397 0.73035
 H791 H 0.27861 0.28856 0.73040
 H792 H 0.27935 0.23127 0.78389
 H793 H 0.28641 0.26517 0.81183
 H794 H 0.30857 0.25034 0.78905
 H795 H 0.19206 0.25078 0.72853
 H796 H 0.22757 0.26690 0.68908
 H797 H 0.24121 0.28987 0.81677
 H798 H 0.26179 0.31179 0.79457
 H799 H 0.24559 0.18872 0.73766
 H800 H 0.25800 0.22760 0.70395
 H801 H 0.21834 0.31536 0.75211
 H802 H 0.19577 0.29367 0.76882
 H803 H 0.32080 0.23797 0.75197
 H804 H 0.27116 0.18942 0.76165
 O805 O 0.76122 0.69614 0.71034
 O806 O 0.78410 0.68965 0.73836
 O807 O 0.70821 0.72106 0.74061
 O808 O 0.70223 0.74590 0.76213
 O809 O 0.73295 0.75024 0.68607
 O810 O 0.75999 0.77258 0.68056
 O811 O 0.76379 0.77658 0.79258
 O812 O 0.73972 0.74983 0.79839
 O813 O 0.81558 0.74850 0.76666
 O814 O 0.82285 0.72799 0.73869
 O815 O 0.79008 0.80191 0.74195
 O816 O 0.76343 0.80716 0.71615
 O817 O 0.76286 0.80164 0.76830
 O818 O 0.73623 0.80500 0.74018
 O819 O 0.81471 0.77728 0.73933
 O820 O 0.81845 0.74651 0.71376
 O821 O 0.79115 0.74960 0.79160
 O822 O 0.76284 0.72534 0.79820
 O823 O 0.76142 0.72102 0.68586
 O824 O 0.78623 0.74967 0.68216
 O825 O 0.70871 0.74935 0.71130
 O826 O 0.70556 0.77450 0.73966
 O827 O 0.73278 0.69621 0.73949
 O828 O 0.76185 0.68989 0.76167
 Zr829 Zr 0.76086 0.71226 0.73824
 O830 O 0.78056 0.72946 0.75710
 Zr831 Zr 0.72509 0.74845 0.73913
 O832 O 0.74305 0.76707 0.75846
 Zr833 Zr 0.76079 0.74868 0.70251
 O834 O 0.77998 0.76772 0.72023
 Zr835 Zr 0.76308 0.74899 0.77588
 O836 O 0.74324 0.73007 0.75855
 Zr837 Zr 0.79846 0.74937 0.73921
 O838 O 0.78065 0.73012 0.72005
 Zr839 Zr 0.76234 0.78550 0.74042
 O840 O 0.74296 0.76821 0.72100
 O841 O 0.74182 0.72965 0.71966
 O842 O 0.78190 0.76826 0.75887
 C843 C 0.76165 0.70218 0.69159
 C844 C 0.71399 0.70222 0.74060
 C845 C 0.71422 0.75036 0.69238
 C846 C 0.76350 0.79547 0.78699
 C847 C 0.80990 0.74910 0.78554
 C848 C 0.80888 0.79603 0.74089
 H849 H 0.78928 0.72004 0.76515
 H850 H 0.78819 0.77656 0.71104
 H851 H 0.73286 0.72102 0.71098
 H852 H 0.73402 0.77549 0.76729
 H853 H 0.72873 0.74049 0.79363
 H854 H 0.70529 0.75627 0.77275
 H855 H 0.81849 0.75975 0.70638
 H856 H 0.78159 0.74549 0.66829
 H857 H 0.77399 0.71561 0.79491
 H858 H 0.75255 0.69474 0.77266
 H859 H 0.76621 0.82088 0.72202
 H860 H 0.75233 0.78404 0.68688
 H861 H 0.79472 0.69427 0.72852
 H862 H 0.81775 0.71534 0.74532
 H863 H 0.69144 0.77003 0.73614
 H864 H 0.74028 0.81862 0.74554
 O865 O 0.25190 0.69640 0.27724
 O866 O 0.22903 0.69018 0.24959
 O867 O 0.30486 0.72217 0.24756
 O868 O 0.31082 0.74732 0.22661
 O869 O 0.27935 0.75028 0.30227
 O870 O 0.25216 0.77306 0.30746
 O871 O 0.25021 0.77766 0.19586
 O872 O 0.27370 0.75047 0.19030
 O873 O 0.19749 0.74959 0.22148
 O874 O 0.19178 0.72657 0.25030
 O875 O 0.22250 0.80244 0.24676
 O876 O 0.24900 0.80747 0.27270
 O877 O 0.24925 0.80250 0.22034
 O878 O 0.27615 0.80588 0.24839
 O879 O 0.19786 0.77778 0.24885
 O880 O 0.19256 0.75140 0.27293
 O881 O 0.22174 0.75110 0.19639
 O882 O 0.24686 0.72694 0.18986
 O883 O 0.25113 0.72090 0.30203
 O884 O 0.22712 0.74987 0.30708
 O885 O 0.30407 0.74984 0.27751
 O886 O 0.30702 0.77550 0.24905
 O887 O 0.28041 0.69723 0.24858
 O888 O 0.25005 0.69060 0.22629
 Zr889 Zr 0.25208 0.71297 0.24968
 O890 O 0.23249 0.73036 0.23084
 Zr891 Zr 0.28774 0.74929 0.24942
 O892 O 0.26973 0.76799 0.23013
 Zr893 Zr 0.25175 0.74891 0.28579
 O894 O 0.23263 0.76797 0.26813
 Zr895 Zr 0.24986 0.75007 0.21235
 O896 O 0.26978 0.73097 0.22958
 Zr897 Zr 0.21432 0.74994 0.24890
 O898 O 0.23202 0.73053 0.26805
 Zr899 Zr 0.25025 0.78614 0.24819
 O900 O 0.26963 0.76875 0.26761
 O901 O 0.27095 0.73020 0.26857
 O902 O 0.23088 0.76907 0.22945
 C903 C 0.25127 0.70213 0.29605
 C904 C 0.29917 0.70334 0.24745
 C905 C 0.29816 0.75056 0.29636
 C906 C 0.24965 0.79647 0.20158
 C907 C 0.20301 0.75043 0.20261
 C908 C 0.20371 0.79656 0.24761
 H909 H 0.22415 0.72103 0.22229
 H910 H 0.22416 0.77654 0.27737
 H911 H 0.27992 0.72150 0.27719
 H912 H 0.27878 0.77656 0.22149
 H913 H 0.28374 0.73988 0.19450
 H914 H 0.30698 0.75688 0.21549
 H915 H 0.19780 0.74254 0.28408
 H916 H 0.23219 0.74534 0.32070
 H917 H 0.25637 0.71583 0.19378
 H918 H 0.26226 0.69215 0.21740
 H919 H 0.24622 0.82127 0.26698
 H920 H 0.26076 0.78411 0.30162
 H921 H 0.21809 0.69501 0.25897
 H922 H 0.19536 0.71606 0.23999
 H923 H 0.32107 0.77121 0.25306
 H924 H 0.27190 0.81948 0.24312
 O925 O 0.74320 0.29197 0.27773
 O926 O 0.76506 0.29843 0.24808
 O927 O 0.68858 0.26855 0.24880
 O928 O 0.68154 0.24401 0.22722
 O929 O 0.71432 0.23869 0.30228
 O930 O 0.74069 0.21556 0.30710
 O931 O 0.74187 0.21218 0.19485
 O932 O 0.71799 0.23934 0.18981
 O933 O 0.79469 0.23694 0.21974
 O934 O 0.80119 0.26065 0.24466
 O935 O 0.76853 0.18551 0.24471
 O936 O 0.74227 0.18094 0.27106
 O937 O 0.74063 0.18691 0.21891
 O938 O 0.71456 0.18398 0.24763
 O939 O 0.79363 0.20974 0.24635
 O940 O 0.79822 0.23692 0.27303
 O941 O 0.76976 0.23970 0.19538
 O942 O 0.74133 0.26345 0.18961
 O943 O 0.74361 0.26691 0.30200
 O944 O 0.76774 0.23728 0.30459
 O945 O 0.68926 0.24034 0.27791
 O946 O 0.68481 0.21520 0.24964
 O947 O 0.71387 0.29266 0.24960
 O948 O 0.74225 0.29860 0.22643
 Zr949 Zr 0.74162 0.27606 0.24971
 O950 O 0.76030 0.25842 0.23026
 Zr951 Zr 0.70491 0.24080 0.24960
 O952 O 0.72189 0.22190 0.22959
 Zr953 Zr 0.74169 0.23942 0.28513
 O954 O 0.75972 0.22000 0.26670
 Zr955 Zr 0.74189 0.23965 0.21173
 O956 O 0.72298 0.25889 0.22979
 Zr957 Zr 0.77816 0.23793 0.24742
 O958 O 0.76158 0.25765 0.26726
 Zr959 Zr 0.74117 0.20275 0.24694
 O960 O 0.72283 0.22045 0.26706
 O961 O 0.72270 0.25902 0.26869
 O962 O 0.76054 0.21972 0.22809
 C963 C 0.74410 0.28578 0.29642
 C964 C 0.69490 0.28721 0.24897
 C965 C 0.69539 0.23922 0.29663
 C966 C 0.74114 0.19325 0.20028
 C967 C 0.78861 0.23817 0.20103
 C968 C 0.78747 0.19109 0.24511
 H969 H 0.76919 0.26765 0.22216
 H970 H 0.76809 0.21096 0.27558
 H971 H 0.71427 0.26785 0.27770
 H972 H 0.71244 0.21379 0.22093
 H973 H 0.70716 0.24862 0.19504
 H974 H 0.68391 0.23345 0.21661
 H975 H 0.81213 0.23338 0.26796
 H976 H 0.76380 0.24179 0.31857
 H977 H 0.75198 0.27356 0.19335
 H978 H 0.73210 0.29433 0.21597
 H979 H 0.74447 0.16717 0.26504
 H980 H 0.73282 0.20422 0.30084
 H981 H 0.77522 0.29500 0.25881
 H982 H 0.79898 0.27043 0.25601
 H983 H 0.67089 0.22001 0.25349
 H984 H 0.71813 0.17031 0.24209
 C985 C 0.25624 0.09851 0.08683
 N986 N 0.24246 0.09878 0.07121
 N987 N 0.24192 0.08355 0.05759
 C988 C 0.25525 0.06751 0.05892
 N989 N 0.26916 0.06757 0.07449
 N990 N 0.26958 0.08265 0.08818
 C991 C 0.25649 0.11469 0.10246
 N992 N 0.26685 0.11175 0.12027
 N993 N 0.26696 0.12613 0.13473
 C994 C 0.25688 0.14408 0.13184
 N995 N 0.24660 0.14711 0.11397
 N996 N 0.24633 0.13263 0.09956
 C997 C 0.25697 0.15977 0.14796
 N998 N 0.25096 0.17927 0.14390
 N999 N 0.25112 0.19343 0.15862
 C1000 C 0.25714 0.18855 0.17796
 N1001 N 0.26307 0.16903 0.18201
 N1002 N 0.26309 0.15494 0.16726
 C1003 C 0.75651 0.59505 0.58609
 N1004 N 0.76572 0.59682 0.56748
 N1005 N 0.76426 0.58177 0.55373
 C1006 C 0.75338 0.56452 0.55803
 N1007 N 0.74415 0.56290 0.57662
 N1008 N 0.74573 0.57782 0.59039
 C1009 C 0.75814 0.61126 0.60157
 N1010 N 0.75195 0.60757 0.62108
 N1011 N 0.75315 0.62212 0.63530
 C1012 C 0.76044 0.64098 0.63050
 N1013 N 0.76662 0.64474 0.61096
 N1014 N 0.76556 0.63010 0.59674
 C1015 C 0.76131 0.65696 0.64628
 N1016 N 0.76494 0.67681 0.64124
 N1017 N 0.76513 0.69127 0.65567
 C1018 C 0.76184 0.68634 0.67564
 N1019 N 0.75836 0.66648 0.68065
 N1020 N 0.75803 0.65207 0.66623
 C1021 C 0.74773 0.90874 0.10236
 N1022 N 0.75863 0.92646 0.10309
 N1023 N 0.75931 0.93892 0.08686
 C1024 C 0.74903 0.93417 0.06935
 N1025 N 0.73807 0.91648 0.06877
 N1026 N 0.73748 0.90401 0.08490
 C1027 C 0.74729 0.89444 0.11978
 N1028 N 0.73892 0.87557 0.11738
 N1029 N 0.73873 0.86223 0.13280
 C1030 C 0.74676 0.86727 0.15131
 N1031 N 0.75504 0.88621 0.15383
 N1032 N 0.75535 0.89955 0.13831
 C1033 C 0.74686 0.85205 0.16794
 N1034 N 0.75204 0.85720 0.18746
 N1035 N 0.75225 0.84305 0.20225
 C1036 C 0.74741 0.82325 0.19800
 N1037 N 0.74225 0.81818 0.17850
 N1038 N 0.74190 0.83230 0.16380
 C1039 C 0.24656 0.41157 0.60369
 N1040 N 0.25805 0.42892 0.60412
 N1041 N 0.25851 0.44146 0.58796
 C1042 C 0.24740 0.43714 0.57085
 N1043 N 0.23586 0.41983 0.57058
 N1044 N 0.23549 0.40729 0.58664
 C1045 C 0.24640 0.39716 0.62095
 N1046 N 0.23748 0.37853 0.61864
 N1047 N 0.23757 0.36502 0.63390
 C1048 C 0.24645 0.36965 0.65211
 N1049 N 0.25526 0.38835 0.65454
 N1050 N 0.25529 0.40187 0.63919
 C1051 C 0.24690 0.35425 0.66848
 N1052 N 0.25279 0.35909 0.68786
 N1053 N 0.25330 0.34476 0.70245
 C1054 C 0.24809 0.32509 0.69808
 N1055 N 0.24224 0.32031 0.67871
 N1056 N 0.24157 0.33463 0.66423
 C1057 C 0.75355 0.08745 0.89674
 N1058 N 0.73601 0.07747 0.90181
 N1059 N 0.73622 0.06260 0.91579
 C1060 C 0.75402 0.05685 0.92507
 N1061 N 0.77164 0.06665 0.91963
 N1062 N 0.77139 0.08175 0.90587
 C1063 C 0.75304 0.10447 0.88202
 N1064 N 0.76744 0.11950 0.88263
 N1065 N 0.76652 0.13527 0.86968
 C1066 C 0.75132 0.13644 0.85548
 N1067 N 0.73704 0.12133 0.85476
 N1068 N 0.73777 0.10572 0.86791
 C1069 C 0.75042 0.15360 0.84094
 N1070 N 0.74088 0.15129 0.82259
 N1071 N 0.74036 0.16665 0.80915
 C1072 C 0.74903 0.18499 0.81370
 N1073 N 0.75839 0.18739 0.83214
 N1074 N 0.75919 0.17192 0.84548
 C1075 C 0.24994 0.59244 0.39919
 N1076 N 0.26064 0.57477 0.39654
 N1077 N 0.25999 0.56002 0.41068
 C1078 C 0.24844 0.56234 0.42789
 N1079 N 0.23771 0.58000 0.43041
 N1080 N 0.23849 0.59477 0.41638
 C1081 C 0.25068 0.60889 0.38388
 N1082 N 0.24302 0.62770 0.38839
 N1083 N 0.24346 0.64269 0.37455
 C1084 C 0.25143 0.63937 0.35563
 N1085 N 0.25908 0.62055 0.35109
 N1086 N 0.25878 0.60559 0.36500
 C1087 C 0.25154 0.65577 0.34025
 N1088 N 0.25579 0.65151 0.32035
 N1089 N 0.25561 0.66632 0.30631
 C1090 C 0.25129 0.68595 0.31166
 N1091 N 0.24714 0.69025 0.33159
 N1092 N 0.24716 0.67540 0.34562
 C1093 C 0.24750 0.89665 0.90454
 N1094 N 0.25859 0.91384 0.90086
 N1095 N 0.25945 0.92877 0.91470
 C1096 C 0.24917 0.92721 0.93275
 N1097 N 0.23800 0.91001 0.93642
 N1098 N 0.23725 0.89496 0.92261
 C1099 C 0.24660 0.88039 0.88901
 N1100 N 0.23855 0.86171 0.89345
 N1101 N 0.23796 0.84706 0.87923
 C1102 C 0.24525 0.85060 0.86004
 N1103 N 0.25321 0.86929 0.85561
 N1104 N 0.25394 0.88387 0.86985
 C1105 C 0.24455 0.83460 0.84423
 N1106 N 0.24860 0.83929 0.82435
 N1107 N 0.24792 0.82488 0.80992
 C1108 C 0.24334 0.80521 0.81485
 N1109 N 0.23938 0.80049 0.83475
 N1110 N 0.23991 0.81494 0.84917
 C1111 C 0.74649 0.39219 0.40296
 N1112 N 0.73591 0.40974 0.39949
 N1113 N 0.73566 0.42462 0.41341
 C1114 C 0.74609 0.42263 0.43133
 N1115 N 0.75675 0.40506 0.43479
 N1116 N 0.75687 0.39007 0.42090
 C1117 C 0.74674 0.37604 0.38730
 N1118 N 0.75405 0.35701 0.39153
 N1119 N 0.75397 0.34247 0.37717
 C1120 C 0.74673 0.34650 0.35805
 N1121 N 0.73954 0.36554 0.35384
 N1122 N 0.73948 0.38001 0.36821
 C1123 C 0.74648 0.33063 0.34211
 N1124 N 0.74239 0.33575 0.32236
 N1125 N 0.74183 0.32147 0.30781
 C1126 C 0.74519 0.30149 0.31249
 N1127 N 0.74927 0.29634 0.33226
 N1128 N 0.74998 0.31066 0.34680
 C1129 C 0.09725 0.25256 0.09558
 N1130 N 0.08183 0.23883 0.09789
 N1131 N 0.06641 0.23818 0.08455
 C1132 C 0.06561 0.25134 0.06842
 N1133 N 0.08110 0.26515 0.06617
 N1134 N 0.09668 0.26569 0.07943
 C1135 C 0.11404 0.25313 0.11055
 N1136 N 0.13187 0.26313 0.10647
 N1137 N 0.14710 0.26319 0.12013
 C1138 C 0.14495 0.25342 0.13840
 N1139 N 0.12708 0.24356 0.14249
 N1140 N 0.11196 0.24333 0.12878
 C1141 C 0.16158 0.25330 0.15356
 N1142 N 0.15777 0.24729 0.17311
 N1143 N 0.17279 0.24682 0.18694
 C1144 C 0.19223 0.25215 0.18167
 N1145 N 0.19608 0.25812 0.16209
 N1146 N 0.18099 0.25877 0.14829
 C1147 C 0.59962 0.75327 0.59431
 N1148 N 0.58224 0.74312 0.59958
 N1149 N 0.56618 0.74272 0.58701
 C1150 C 0.56674 0.75257 0.56869
 N1151 N 0.58412 0.76287 0.56343
 N1152 N 0.60030 0.76316 0.57598
 C1153 C 0.61719 0.75342 0.60843
 N1154 N 0.63595 0.76033 0.60247
 N1155 N 0.65177 0.76002 0.61548
 C1156 C 0.64932 0.75291 0.63492
 N1157 N 0.63055 0.74611 0.64083
 N1158 N 0.61482 0.74629 0.62782
 C1159 C 0.66644 0.75252 0.64957
 N1160 N 0.66269 0.74839 0.66960
 N1161 N 0.67796 0.74781 0.68312
 C1162 C 0.69763 0.75118 0.67713
 N1163 N 0.70146 0.75526 0.65706
 N1164 N 0.68611 0.75599 0.64351
 C1165 C 0.08696 0.74446 0.90584
 N1166 N 0.08868 0.73202 0.92238
 N1167 N 0.07465 0.73248 0.93720
 C1168 C 0.05838 0.74550 0.93623
 N1169 N 0.05669 0.75794 0.91957
 N1170 N 0.07065 0.75737 0.90462
 C1171 C 0.10275 0.74413 0.88981
 N1172 N 0.09950 0.75334 0.87143
 N1173 N 0.11396 0.75297 0.85697
 C1174 C 0.13223 0.74356 0.86044
 N1175 N 0.13549 0.73443 0.87885
 N1176 N 0.12098 0.73464 0.89323
 C1177 C 0.14821 0.74326 0.84460
 N1178 N 0.16776 0.73774 0.84931
 N1179 N 0.18230 0.73760 0.83493
 C1180 C 0.17775 0.74276 0.81529
 N1181 N 0.15818 0.74817 0.81058
 N1182 N 0.14369 0.74850 0.82498
 C1183 C 0.58987 0.24339 0.40427
 N1184 N 0.57202 0.25381 0.40154
 N1185 N 0.55810 0.25473 0.41651
 C1186 C 0.56145 0.24513 0.43470
 N1187 N 0.57929 0.23466 0.43731
 N1188 N 0.59324 0.23386 0.42243
 C1189 C 0.60546 0.24255 0.38805
 N1190 N 0.62444 0.23495 0.39209
 N1191 N 0.63872 0.23424 0.37750
 C1192 C 0.63451 0.24098 0.35828
 N1193 N 0.61551 0.24853 0.35419
 N1194 N 0.60125 0.24936 0.36884
 C1195 C 0.65030 0.24025 0.34224
 N1196 N 0.64537 0.24409 0.32240
 N1197 N 0.65972 0.24355 0.30786
 C1198 C 0.67956 0.23925 0.31265
 N1199 N 0.68450 0.23543 0.33250
 N1200 N 0.67011 0.23585 0.34702
 C1201 C 0.90290 0.75681 0.10547
 N1202 N 0.90883 0.77417 0.09567
 N1203 N 0.92297 0.77347 0.08091
 C1204 C 0.93151 0.75536 0.07512
 N1205 N 0.92550 0.73803 0.08503
 N1206 N 0.91161 0.73875 0.09999
 C1207 C 0.88701 0.75740 0.12140
 N1208 N 0.88611 0.74252 0.13592
 N1209 N 0.87149 0.74282 0.15021
 C1210 C 0.85705 0.75781 0.15029
 N1211 N 0.85787 0.77263 0.13570
 N1212 N 0.87267 0.77250 0.12158
 C1213 C 0.84087 0.75796 0.16594
 N1214 N 0.82260 0.76733 0.16235
 N1215 N 0.80790 0.76729 0.17658
 C1216 C 0.81106 0.75812 0.19500
 N1217 N 0.82938 0.74887 0.19862
 N1218 N 0.84395 0.74864 0.18429
 C1219 C 0.40347 0.25894 0.60385
 N1220 N 0.41609 0.24248 0.60215
 N1221 N 0.43032 0.24174 0.58750
 C1222 C 0.43267 0.25756 0.57417
 N1223 N 0.42020 0.27415 0.57605
 N1224 N 0.40580 0.27478 0.59056
 C1225 C 0.38733 0.25932 0.61955
 N1226 N 0.37094 0.27206 0.61772
 N1227 N 0.35606 0.27197 0.63176
 C1228 C 0.35714 0.25927 0.64822
 N1229 N 0.37360 0.24664 0.65009
 N1230 N 0.38834 0.24656 0.63594
 C1231 C 0.34098 0.25927 0.66390
 N1232 N 0.34479 0.25139 0.68277
 N1233 N 0.33031 0.25155 0.69718
 C1234 C 0.31140 0.25933 0.69319
 N1235 N 0.30751 0.26707 0.67426
 N1236 N 0.32209 0.26714 0.65989
 C1237 C 0.90060 0.24724 0.90798
 N1238 N 0.89921 0.25958 0.92466
 N1239 N 0.91361 0.25908 0.93917
 C1240 C 0.92987 0.24608 0.93768
 N1241 N 0.93102 0.23360 0.92103
 N1242 N 0.91674 0.23422 0.90645
 C1243 C 0.88510 0.24812 0.89169
 N1244 N 0.88881 0.23932 0.87320
 N1245 N 0.87484 0.24019 0.85831
 C1246 C 0.85660 0.24975 0.86143
 N1247 N 0.85286 0.25849 0.87994
 N1248 N 0.86691 0.25779 0.89477
 C1249 C 0.84105 0.25034 0.84517
 N1250 N 0.82137 0.25555 0.84957
 N1251 N 0.80711 0.25560 0.83494
 C1252 C 0.81206 0.25064 0.81534
 N1253 N 0.83178 0.24559 0.81090
 N1254 N 0.84601 0.24536 0.82557
 C1255 C 0.40013 0.74808 0.40740
 N1256 N 0.39672 0.75804 0.42535
 N1257 N 0.41049 0.75726 0.44045
 C1258 C 0.42811 0.74632 0.43824
 N1259 N 0.43139 0.73627 0.42030
 N1260 N 0.41771 0.73716 0.40517
 C1261 C 0.38516 0.74913 0.39060
 N1262 N 0.39008 0.74205 0.37165
 N1263 N 0.37652 0.74292 0.35638
 C1264 C 0.35750 0.75080 0.35954
 N1265 N 0.35256 0.75785 0.37849
 N1266 N 0.36617 0.75712 0.39372
 C1267 C 0.34230 0.75126 0.34291
 N1268 N 0.32234 0.75552 0.34704
 N1269 N 0.30838 0.75542 0.33214
 C1270 C 0.31387 0.75123 0.31251
 N1271 N 0.33388 0.74713 0.30830
 N1272 N 0.34784 0.74708 0.32326
 C1273 C 0.10626 0.09320 0.25062
 N1274 N 0.09346 0.09124 0.26693
 N1275 N 0.07867 0.07713 0.26693
 C1276 C 0.07599 0.06462 0.25052
 N1277 N 0.08882 0.06659 0.23422
 N1278 N 0.10377 0.08052 0.23433
 C1279 C 0.12212 0.10918 0.25027
 N1280 N 0.13819 0.10788 0.23707
 N1281 N 0.15235 0.12259 0.23641
 C1282 C 0.15080 0.13929 0.24871
 N1283 N 0.13469 0.14063 0.26186
 N1284 N 0.12067 0.12579 0.26270
 C1285 C 0.16623 0.15565 0.24767
 N1286 N 0.16198 0.17470 0.25486
 N1287 N 0.17593 0.18959 0.25366
 C1288 C 0.19473 0.18588 0.24543
 N1289 N 0.19901 0.16680 0.23836
 N1290 N 0.18498 0.15200 0.23933
 C1291 C 0.60535 0.59783 0.74682
 N1292 N 0.58786 0.60202 0.75730
 N1293 N 0.57273 0.58836 0.75820
 C1294 C 0.57440 0.56999 0.74858
 N1295 N 0.59192 0.56581 0.73804
 N1296 N 0.60715 0.57944 0.73724
 C1297 C 0.62183 0.61316 0.74579
 N1298 N 0.64062 0.60834 0.73814
 N1299 N 0.65545 0.62239 0.73734
 C1300 C 0.65197 0.64179 0.74403
 N1301 N 0.63317 0.64659 0.75160
 N1302 N 0.61841 0.63252 0.75253
 C1303 C 0.66817 0.65741 0.74311
 N1304 N 0.66364 0.67738 0.74673
 N1305 N 0.67823 0.69165 0.74590
 C1306 C 0.69794 0.68645 0.74156
 N1307 N 0.70250 0.66646 0.73799
 N1308 N 0.68787 0.65220 0.73869
 C1309 C 0.90721 0.10092 0.74651
 N1310 N 0.92323 0.10220 0.75976
 N1311 N 0.93803 0.08810 0.75963
 C1312 C 0.93753 0.07225 0.74611
 N1313 N 0.92155 0.07120 0.73273
 N1314 N 0.90665 0.08518 0.73298
 C1315 C 0.89059 0.11611 0.74696
 N1316 N 0.87248 0.11234 0.73737
 N1317 N 0.85730 0.12603 0.73793
 C1318 C 0.85978 0.14407 0.74795
 N1319 N 0.87792 0.14788 0.75747
 N1320 N 0.89302 0.13411 0.75708
 C1321 C 0.84322 0.15933 0.74843
 N1322 N 0.84725 0.17888 0.75416
 N1323 N 0.83235 0.19284 0.75456
 C1324 C 0.81281 0.18774 0.74942
 N1325 N 0.80872 0.16814 0.74378
 N1326 N 0.82369 0.15421 0.74319
 C1327 C 0.40771 0.59894 0.24742
 N1328 N 0.42607 0.60163 0.23790
 N1329 N 0.44062 0.58728 0.23909
 C1330 C 0.43737 0.56983 0.25000
 N1331 N 0.41900 0.56726 0.25951
 N1332 N 0.40445 0.58149 0.25820
 C1333 C 0.39151 0.61451 0.24628
 N1334 N 0.37230 0.61008 0.25303
 N1335 N 0.35754 0.62416 0.25246
 C1336 C 0.36147 0.64325 0.24525
 N1337 N 0.38068 0.64772 0.23849
 N1338 N 0.39544 0.63357 0.23893
 C1339 C 0.34524 0.65884 0.24524
 N1340 N 0.34974 0.67881 0.24163
 N1341 N 0.33503 0.69299 0.24226
 C1342 C 0.31529 0.68768 0.24639
 N1343 N 0.31079 0.66768 0.24986
 N1344 N 0.32551 0.65353 0.24937
 C1345 C 0.09422 0.90385 0.75190
 N1346 N 0.09753 0.92009 0.73939
 N1347 N 0.08470 0.93594 0.73936
 C1348 C 0.06807 0.93637 0.75197
 N1349 N 0.06482 0.92005 0.76457
 N1350 N 0.07759 0.90407 0.76447
 C1351 C 0.10868 0.88658 0.75186
 N1352 N 0.10387 0.86848 0.76096
 N1353 N 0.11714 0.85291 0.76068
 C1354 C 0.13573 0.85497 0.75144
 N1355 N 0.14053 0.87308 0.74244
 N1356 N 0.12721 0.88855 0.74256
 C1357 C 0.15063 0.83808 0.75131
 N1358 N 0.17048 0.84167 0.74606
 N1359 N 0.18417 0.82653 0.74604
 C1360 C 0.17850 0.80717 0.75106
 N1361 N 0.15861 0.80352 0.75620
 N1362 N 0.14493 0.81872 0.75640
 C1363 C 0.59345 0.39852 0.25286
 N1364 N 0.59782 0.41564 0.26379
 N1365 N 0.58468 0.43125 0.26428
 C1366 C 0.56671 0.43042 0.25377
 N1367 N 0.56235 0.41327 0.24281
 N1368 N 0.57544 0.39757 0.24243
 C1369 C 0.60825 0.38159 0.25213
 N1370 N 0.60299 0.36311 0.24414
 N1371 N 0.61660 0.34787 0.24351
 C1372 C 0.63598 0.35063 0.25068
 N1373 N 0.64122 0.36912 0.25859
 N1374 N 0.62758 0.38429 0.25937
 C1375 C 0.65117 0.33405 0.24991
 N1376 N 0.67124 0.33807 0.25376
 N1377 N 0.68514 0.32314 0.25325
 C1378 C 0.67948 0.30359 0.24903
 N1379 N 0.65938 0.29953 0.24523
 N1380 N 0.64548 0.31452 0.24558
 C1381 C 0.90409 0.91057 0.25440
 N1382 N 0.90371 0.92770 0.26620
 N1383 N 0.91864 0.94161 0.26474
 C1384 C 0.93443 0.93904 0.25131
 N1385 N 0.93454 0.92195 0.23941
 N1386 N 0.91975 0.90799 0.24097
 C1387 C 0.88814 0.89480 0.25625
 N1388 N 0.89109 0.87607 0.24773
 N1389 N 0.87678 0.86161 0.24927
 C1390 C 0.85890 0.86538 0.25927
 N1391 N 0.85590 0.88413 0.26776
 N1392 N 0.87031 0.89857 0.26637
 C1393 C 0.84304 0.84947 0.26047
 N1394 N 0.82356 0.85416 0.26624
 N1395 N 0.80905 0.83978 0.26656
 C1396 C 0.81354 0.82015 0.26131
 N1397 N 0.83306 0.81543 0.25574
 N1398 N 0.84751 0.82984 0.25525
 C1399 C 0.40255 0.41469 0.75166
 N1400 N 0.40555 0.42750 0.76775
 N1401 N 0.42017 0.44174 0.76706
 C1402 C 0.43213 0.44389 0.75014
 N1403 N 0.42891 0.43125 0.73392
 N1404 N 0.41445 0.41684 0.73471
 C1405 C 0.38716 0.39836 0.75289
 N1406 N 0.38832 0.38181 0.74036
 N1407 N 0.37467 0.36669 0.74190
 C1408 C 0.35927 0.36769 0.75589
 N1409 N 0.35802 0.38431 0.76831
 N1410 N 0.37182 0.39931 0.76695
 C1411 C 0.34402 0.35125 0.75737
 N1412 N 0.32557 0.35477 0.76638
 N1413 N 0.31143 0.34007 0.76720
 C1414 C 0.31535 0.32123 0.75933
 N1415 N 0.33389 0.31762 0.75053
 N1416 N 0.34795 0.33242 0.74948
 C1417 C 0.09938 0.25620 0.91491
 N1418 N 0.09990 0.24284 0.93087
 N1419 N 0.08462 0.24234 0.94450
 C1420 C 0.06831 0.25528 0.94279
 N1421 N 0.06808 0.26877 0.92691
 N1422 N 0.08322 0.26917 0.91323
 C1423 C 0.11556 0.25634 0.89924
 N1424 N 0.11246 0.26637 0.88128
 N1425 N 0.12683 0.26638 0.86677
 C1426 C 0.14491 0.25650 0.86973
 N1427 N 0.14810 0.24654 0.88774
 N1428 N 0.13363 0.24638 0.90222
 C1429 C 0.16059 0.25659 0.85356
 N1430 N 0.18018 0.25069 0.85754
 N1431 N 0.19436 0.25108 0.84279
 C1432 C 0.18940 0.25721 0.82352
 N1433 N 0.16978 0.26298 0.81954
 N1434 N 0.15567 0.26277 0.83431
 C1435 C 0.59599 0.75420 0.41376
 N1436 N 0.57820 0.76446 0.41044
 N1437 N 0.56337 0.76439 0.42446
 C1438 C 0.56566 0.75398 0.44235
 N1439 N 0.58349 0.74367 0.44567
 N1440 N 0.59842 0.74384 0.43166
 C1441 C 0.61207 0.75421 0.39800
 N1442 N 0.63112 0.74673 0.40199
 N1443 N 0.64560 0.74693 0.38754
 C1444 C 0.64150 0.75446 0.36856
 N1445 N 0.62244 0.76185 0.36458
 N1446 N 0.60802 0.76178 0.37904
 C1447 C 0.65734 0.75475 0.35256
 N1448 N 0.65231 0.75943 0.33291
 N1449 N 0.66662 0.75984 0.31833
 C1450 C 0.68653 0.75573 0.32290
 N1451 N 0.69158 0.75108 0.34257
 N1452 N 0.67723 0.75054 0.35713
 C1453 C 0.90974 0.75011 0.89848
 N1454 N 0.90675 0.76379 0.91380
 N1455 N 0.91890 0.76386 0.93018
 C1456 C 0.93448 0.75013 0.93210
 N1457 N 0.93746 0.73640 0.91667
 N1458 N 0.92537 0.73643 0.90014
 C1459 C 0.89571 0.75000 0.88085
 N1460 N 0.90017 0.73951 0.86341
 N1461 N 0.88708 0.73956 0.84766
 C1462 C 0.86903 0.74995 0.84890
 N1463 N 0.86464 0.76036 0.86634
 N1464 N 0.87776 0.76047 0.88195
 C1465 C 0.85403 0.74969 0.83209
 N1466 N 0.83443 0.75566 0.83574
 N1467 N 0.82050 0.75542 0.82084
 C1468 C 0.82567 0.74942 0.80162
 N1469 N 0.84534 0.74355 0.79785
 N1470 N 0.85927 0.74359 0.81286
 C1471 C 0.40807 0.24959 0.39954
 N1472 N 0.40355 0.26045 0.41666
 N1473 N 0.41649 0.26085 0.43241
 C1474 C 0.43443 0.25028 0.43178
 N1475 N 0.43895 0.23930 0.41465
 N1476 N 0.42603 0.23902 0.39878
 C1477 C 0.39341 0.24929 0.38245
 N1478 N 0.39859 0.24165 0.36377
 N1479 N 0.38502 0.24170 0.34844
 C1480 C 0.36579 0.24928 0.35132
 N1481 N 0.36067 0.25684 0.36999
 N1482 N 0.37424 0.25692 0.38522
 C1483 C 0.35047 0.24923 0.33482
 N1484 N 0.33055 0.25337 0.33927
 N1485 N 0.31638 0.25341 0.32460
 C1486 C 0.32158 0.24948 0.30486
 N1487 N 0.34154 0.24542 0.30031
 N1488 N 0.35574 0.24522 0.31506
 C1489 C 0.09114 0.75489 0.10151
 N1490 N 0.07353 0.74415 0.10451
 N1491 N 0.05857 0.74456 0.09057
 C1492 C 0.06057 0.75589 0.07320
 N1493 N 0.07814 0.76674 0.07035
 N1494 N 0.09314 0.76622 0.08419
 C1495 C 0.10790 0.75409 0.11655
 N1496 N 0.12671 0.76173 0.11183
 N1497 N 0.14201 0.76088 0.12536
 C1498 C 0.13902 0.75247 0.14415
 N1499 N 0.12019 0.74488 0.14890
 N1500 N 0.10493 0.74559 0.13531
 C1501 C 0.15578 0.75174 0.15919
 N1502 N 0.15185 0.74678 0.17901
 N1503 N 0.16694 0.74636 0.19277
 C1504 C 0.18656 0.75071 0.18721
 N1505 N 0.19053 0.75556 0.16736
 N1506 N 0.17539 0.75614 0.15361
 C1507 C 0.59032 0.25630 0.60353
 N1508 N 0.57247 0.24585 0.60607
 N1509 N 0.55813 0.24603 0.59149
 C1510 C 0.56104 0.25682 0.57389
 N1511 N 0.57885 0.26738 0.57150
 N1512 N 0.59322 0.26708 0.58599
 C1513 C 0.60650 0.25568 0.61919
 N1514 N 0.62553 0.26300 0.61490
 N1515 N 0.64039 0.26226 0.62890
 C1516 C 0.63672 0.25429 0.64776
 N1517 N 0.61766 0.24704 0.65211
 N1518 N 0.60283 0.24765 0.63804
 C1519 C 0.65315 0.25351 0.66314
 N1520 N 0.64889 0.24887 0.68298
 N1521 N 0.66381 0.24833 0.69693
 C1522 C 0.68357 0.25225 0.69153
 N1523 N 0.68784 0.25681 0.67167
 N1524 N 0.67289 0.25750 0.65775
 C1525 C 0.89305 0.23825 0.09228
 N1526 N 0.89496 0.25508 0.08022
 N1527 N 0.91008 0.25639 0.06652
 C1528 C 0.92367 0.24079 0.06417
 N1529 N 0.92157 0.22382 0.07604
 N1530 N 0.90660 0.22262 0.08993
 C1531 C 0.87706 0.23738 0.10812
 N1532 N 0.87896 0.22457 0.12442
 N1533 N 0.86486 0.22445 0.13923
 C1534 C 0.84825 0.23698 0.13816
 N1535 N 0.84627 0.24965 0.12177
 N1536 N 0.86049 0.24995 0.10709
 C1537 C 0.83278 0.23707 0.15452
 N1538 N 0.81379 0.24490 0.15101
 N1539 N 0.79973 0.24514 0.16583
 C1540 C 0.80422 0.23783 0.18480
 N1541 N 0.82325 0.23010 0.18836
 N1542 N 0.83724 0.22963 0.17345
 C1543 C 0.39219 0.74038 0.59574
 N1544 N 0.40589 0.72483 0.59377
 N1545 N 0.42083 0.72580 0.57983
 C1546 C 0.42276 0.74247 0.56750
 N1547 N 0.40902 0.75800 0.56948
 N1548 N 0.39394 0.75691 0.58323
 C1549 C 0.37615 0.73971 0.61155
 N1550 N 0.35943 0.75205 0.61020
 N1551 N 0.34511 0.75183 0.62478
 C1552 C 0.34713 0.73947 0.64141
 N1553 N 0.36388 0.72717 0.64281
 N1554 N 0.37808 0.72720 0.62808
 C1555 C 0.33151 0.73962 0.65765
 N1556 N 0.33593 0.73249 0.67672
 N1557 N 0.32181 0.73298 0.69152
 C1558 C 0.30270 0.74040 0.68771
 N1559 N 0.29826 0.74738 0.66861
 N1560 N 0.31245 0.74712 0.65389
 C1561 C 0.25073 0.09976 0.90571
 N1562 N 0.23987 0.08249 0.90178
 N1563 N 0.23959 0.06716 0.91521
 C1564 C 0.25026 0.06840 0.93305
 N1565 N 0.26122 0.08568 0.93695
 N1566 N 0.26138 0.10112 0.92355
 C1567 C 0.25089 0.11651 0.89073
 N1568 N 0.25884 0.13512 0.89554
 N1569 N 0.25871 0.15028 0.88184
 C1570 C 0.25076 0.14730 0.86282
 N1571 N 0.24291 0.12868 0.85802
 N1572 N 0.24290 0.11359 0.87174
 C1573 C 0.25063 0.16386 0.84763
 N1574 N 0.24564 0.15991 0.82782
 N1575 N 0.24552 0.17488 0.81394
 C1576 C 0.25024 0.19437 0.81941
 N1577 N 0.25514 0.19834 0.83924
 N1578 N 0.25540 0.18334 0.85310
 C1579 C 0.74709 0.59673 0.40505
 N1580 N 0.75666 0.57898 0.40001
 N1581 N 0.75708 0.56333 0.41308
 C1582 C 0.74783 0.56471 0.43169
 N1583 N 0.73816 0.58247 0.43672
 N1584 N 0.73785 0.59822 0.42367
 C1585 C 0.74677 0.61385 0.39041
 N1586 N 0.74030 0.63279 0.39611
 N1587 N 0.74032 0.64823 0.38269
 C1588 C 0.74669 0.64522 0.36308
 N1589 N 0.75306 0.62626 0.35741
 N1590 N 0.75317 0.61090 0.37084
 C1591 C 0.74678 0.66206 0.34812
 N1592 N 0.75021 0.65810 0.32798
 N1593 N 0.75047 0.67322 0.31428
 C1594 C 0.74747 0.69292 0.32021
 N1595 N 0.74408 0.69692 0.34037
 N1596 N 0.74368 0.68175 0.35407
 C1597 C 0.74344 0.08889 0.09196
 N1598 N 0.75453 0.09269 0.07479
 N1599 N 0.75616 0.07859 0.06018
 C1600 C 0.74667 0.06017 0.06207
 N1601 N 0.73542 0.05641 0.07922
 N1602 N 0.73391 0.07049 0.09395
 C1603 C 0.74211 0.10449 0.10808
 N1604 N 0.73449 0.09989 0.12690
 N1605 N 0.73392 0.11406 0.14159
 C1606 C 0.74081 0.13335 0.13792
 N1607 N 0.74828 0.13797 0.11906
 N1608 N 0.74899 0.12378 0.10444
 C1609 C 0.74055 0.14894 0.15410
 N1610 N 0.74468 0.16882 0.14960
 N1611 N 0.74475 0.18297 0.16429
 C1612 C 0.74086 0.17772 0.18405
 N1613 N 0.73677 0.15783 0.18856
 N1614 N 0.73656 0.14369 0.17384
 C1615 C 0.24407 0.59046 0.59629
 N1616 N 0.25486 0.59432 0.57893
 N1617 N 0.25607 0.58036 0.56414
 C1618 C 0.24645 0.56200 0.56603
 N1619 N 0.23557 0.55815 0.58339
 N1620 N 0.23447 0.57209 0.59829
 C1621 C 0.24288 0.60603 0.61246
 N1622 N 0.23521 0.60146 0.63127
 N1623 N 0.23448 0.61569 0.64591
 C1624 C 0.24127 0.63501 0.64220
 N1625 N 0.24884 0.63958 0.62337
 N1626 N 0.24970 0.62534 0.60880
 C1627 C 0.24065 0.65073 0.65826
 N1628 N 0.24455 0.67063 0.65361
 N1629 N 0.24421 0.68493 0.66815
 C1630 C 0.24009 0.67985 0.68791
 N1631 N 0.23623 0.65994 0.69257
 N1632 N 0.23644 0.64565 0.67800
 C1633 C 0.76246 0.89996 0.89543
 N1634 N 0.75135 0.91742 0.89319
 N1635 N 0.75048 0.93116 0.90827
 C1636 C 0.76080 0.92804 0.92610
 N1637 N 0.77200 0.91061 0.92823
 N1638 N 0.77276 0.89681 0.91323
 C1639 C 0.76307 0.88454 0.87906
 N1640 N 0.77094 0.86563 0.88272
 N1641 N 0.77121 0.85149 0.86801
 C1642 C 0.76377 0.85579 0.84905
 N1643 N 0.75600 0.87474 0.84536
 N1644 N 0.75558 0.88884 0.86012
 C1645 C 0.76393 0.84015 0.83289
 N1646 N 0.75968 0.84526 0.81317
 N1647 N 0.75969 0.83103 0.79854
 C1648 C 0.76380 0.81116 0.80311
 N1649 N 0.76801 0.80604 0.82284
 N1650 N 0.76815 0.82029 0.83745
 C1651 C 0.25528 0.40133 0.39874
 N1652 N 0.24474 0.41909 0.39602
 N1653 N 0.24435 0.43329 0.41071
 C1654 C 0.25464 0.43033 0.42860
 N1655 N 0.26521 0.41258 0.43120
 N1656 N 0.26548 0.39835 0.41661
 C1657 C 0.25565 0.38552 0.38272
 N1658 N 0.26336 0.36662 0.38680
 N1659 N 0.26376 0.35222 0.37234
 C1660 C 0.25660 0.35624 0.35322
 N1661 N 0.24894 0.37516 0.34911
 N1662 N 0.24841 0.38952 0.36362
 C1663 C 0.25717 0.34042 0.33721
 N1664 N 0.25317 0.34536 0.31740
 N1665 N 0.25370 0.33107 0.30284
 C1666 C 0.25810 0.31129 0.30755
 N1667 N 0.26205 0.30633 0.32738
 N1668 N 0.26167 0.32066 0.34193
 C1669 C 0.24823 0.90030 0.09257
 N1670 N 0.23766 0.91796 0.09542
 N1671 N 0.23726 0.93223 0.08086
 C1672 C 0.24748 0.92948 0.06292
 N1673 N 0.25811 0.91178 0.06009
 N1674 N 0.25840 0.89741 0.07462
 C1675 C 0.24869 0.88476 0.10881
 N1676 N 0.25626 0.86574 0.10517
 N1677 N 0.25649 0.85169 0.11999
 C1678 C 0.24930 0.85621 0.13901
 N1679 N 0.24182 0.87526 0.14266
 N1680 N 0.24146 0.88925 0.12781
 C1681 C 0.24948 0.84075 0.15532
 N1682 N 0.24541 0.84606 0.17503
 N1683 N 0.24554 0.83199 0.18984
 C1684 C 0.24959 0.81209 0.18541
 N1685 N 0.25359 0.80678 0.16569
 N1686 N 0.25361 0.82087 0.15092
 C1687 C 0.74676 0.39957 0.59470
 N1688 N 0.75841 0.41666 0.59660
 N1689 N 0.75958 0.43017 0.58135
 C1690 C 0.74908 0.42720 0.56361
 N1691 N 0.73733 0.41010 0.56173
 N1692 N 0.73627 0.39649 0.57696
 C1693 C 0.74569 0.38470 0.61159
 N1694 N 0.73726 0.36590 0.60872
 N1695 N 0.73678 0.35232 0.62398
 C1696 C 0.74454 0.35709 0.64271
 N1697 N 0.75282 0.37594 0.64561
 N1698 N 0.75344 0.38946 0.63032
 C1699 C 0.74450 0.34189 0.65934
 N1700 N 0.74943 0.34733 0.67884
 N1701 N 0.74982 0.33337 0.69377
 C1702 C 0.74547 0.31344 0.68969
 N1703 N 0.74054 0.30805 0.67020
 N1704 N 0.73999 0.32202 0.65533
 C1705 C 0.09350 0.10980 0.75156
 N1706 N 0.08065 0.10685 0.76768
 N1707 N 0.06684 0.09180 0.76734
 C1708 C 0.06517 0.07933 0.75076
 N1709 N 0.07783 0.08250 0.73452
 N1710 N 0.09182 0.09738 0.73496
 C1711 C 0.10951 0.12560 0.75244
 N1712 N 0.12633 0.12432 0.74021
 N1713 N 0.14124 0.13822 0.74151
 C1714 C 0.13978 0.15403 0.75493
 N1715 N 0.12287 0.15543 0.76703
 N1716 N 0.10808 0.14138 0.76592
 C1717 C 0.15626 0.16930 0.75636
 N1718 N 0.15262 0.18803 0.76463
 N1719 N 0.16753 0.20198 0.76562
 C1720 C 0.18668 0.19759 0.75864
 N1721 N 0.19036 0.17879 0.75055
 N1722 N 0.17539 0.16494 0.74933
 C1723 C 0.59628 0.60363 0.25566
 N1724 N 0.57776 0.60553 0.26507
 N1725 N 0.56399 0.59042 0.26412
 C1726 C 0.56817 0.57294 0.25359
 N1727 N 0.58667 0.57118 0.24415
 N1728 N 0.60046 0.58618 0.24521
 C1729 C 0.61178 0.61994 0.25682
 N1730 N 0.63124 0.61630 0.25031
 N1731 N 0.64546 0.63091 0.25122
 C1732 C 0.64074 0.64978 0.25855
 N1733 N 0.62126 0.65348 0.26503
 N1734 N 0.60704 0.63879 0.26425
 C1735 C 0.65655 0.66582 0.25926
 N1736 N 0.65152 0.68562 0.26319
 N1737 N 0.66595 0.70011 0.26340
 C1738 C 0.68593 0.69529 0.25983
 N1739 N 0.69094 0.67547 0.25602
 N1740 N 0.67651 0.66103 0.25567
 C1741 C 0.10088 0.90664 0.25096
 N1742 N 0.10172 0.92268 0.23774
 N1743 N 0.08754 0.93739 0.23836
 C1744 C 0.07206 0.93678 0.25237
 N1745 N 0.07149 0.92080 0.26574
 N1746 N 0.08554 0.90600 0.26500
 C1747 C 0.11606 0.89006 0.24995
 N1748 N 0.11257 0.87203 0.25973
 N1749 N 0.12624 0.85688 0.25878
 C1750 C 0.14399 0.85928 0.24814
 N1751 N 0.14753 0.87734 0.23841
 N1752 N 0.13376 0.89242 0.23920
 C1753 C 0.15929 0.84279 0.24750
 N1754 N 0.17878 0.84671 0.24129
 N1755 N 0.19286 0.83192 0.24125
 C1756 C 0.18793 0.81261 0.24720
 N1757 N 0.16838 0.80862 0.25323
 N1758 N 0.15433 0.82348 0.25347
 C1759 C 0.59952 0.40834 0.75192
 N1760 N 0.60261 0.42643 0.76174
 N1761 N 0.58850 0.44125 0.76091
 C1762 C 0.57090 0.43858 0.75004
 N1763 N 0.56793 0.42048 0.74022
 N1764 N 0.58191 0.40565 0.74118
 C1765 C 0.61486 0.39186 0.75272
 N1766 N 0.61007 0.37284 0.74578
 N1767 N 0.62392 0.35784 0.74618
 C1768 C 0.64314 0.36133 0.75340
 N1769 N 0.64796 0.38035 0.76033
 N1770 N 0.63404 0.39533 0.76007
 C1771 C 0.65852 0.34486 0.75343
 N1772 N 0.67859 0.34910 0.75706
 N1773 N 0.69259 0.33422 0.75677
 C1774 C 0.68704 0.31454 0.75296
 N1775 N 0.66695 0.31027 0.74942
 N1776 N 0.65296 0.32518 0.74957
 C1777 C 0.89972 0.09047 0.24331
 N1778 N 0.89875 0.07187 0.23402
 N1779 N 0.91480 0.05915 0.23458
 C1780 C 0.93232 0.06453 0.24457
 N1781 N 0.93316 0.08312 0.25383
 N1782 N 0.91723 0.09584 0.25316
 C1783 C 0.88239 0.10485 0.24284
 N1784 N 0.88515 0.12432 0.24952
 N1785 N 0.86968 0.13761 0.24944
 C1786 C 0.85079 0.13195 0.24281
 N1787 N 0.84793 0.11244 0.23614
 N1788 N 0.86349 0.09912 0.23610
 C1789 C 0.83401 0.14698 0.24300
 N1790 N 0.81418 0.14145 0.23956
 N1791 N 0.79920 0.15540 0.24023
 C1792 C 0.80357 0.17535 0.24426
 N1793 N 0.82339 0.18080 0.24757
 N1794 N 0.83829 0.16690 0.24703
 C1795 C 0.39730 0.59239 0.74530
 N1796 N 0.41438 0.59673 0.73421
 N1797 N 0.43048 0.58417 0.73448
 C1798 C 0.43024 0.56683 0.74598
 N1799 N 0.41312 0.56248 0.75710
 N1800 N 0.39692 0.57499 0.75672
 C1801 C 0.37991 0.60674 0.74530
 N1802 N 0.36153 0.60157 0.75372
 N1803 N 0.34601 0.61492 0.75389
 C1804 C 0.34838 0.63394 0.74577
 N1805 N 0.36674 0.63905 0.73737
 N1806 N 0.38217 0.62568 0.73706
 C1807 C 0.33175 0.64914 0.74647
 N1808 N 0.33591 0.66907 0.74236
 N1809 N 0.32116 0.68314 0.74323
 C1810 C 0.30161 0.67782 0.74807
 N1811 N 0.29734 0.65784 0.75205
 N1812 N 0.31219 0.64375 0.75135
 C1813 C 0.91448 0.90330 0.74789
 N1814 N 0.91050 0.92041 0.75896
 N1815 N 0.92420 0.93547 0.76001
 C1816 C 0.94242 0.93411 0.74997
 N1817 N 0.94641 0.91696 0.73885
 N1818 N 0.93273 0.90179 0.73789
 C1819 C 0.89902 0.88700 0.74661
 N1820 N 0.90357 0.86850 0.73825
 N1821 N 0.88934 0.85385 0.73723
 C1822 C 0.87005 0.85724 0.74441
 N1823 N 0.86553 0.87575 0.75270
 N1824 N 0.87976 0.89032 0.75384
 C1825 C 0.85423 0.84127 0.74329
 N1826 N 0.83435 0.84585 0.74755
 N1827 N 0.81991 0.83145 0.74667
 C1828 C 0.82483 0.81189 0.74163
 N1829 N 0.84473 0.80728 0.73742
 N1830 N 0.85917 0.82172 0.73817
 C1831 C 0.41308 0.40060 0.25360
 N1832 N 0.41520 0.41297 0.27019
 N1833 N 0.42947 0.42760 0.27045
 C1834 C 0.44198 0.43054 0.25405
 N1835 N 0.43986 0.41813 0.23748
 N1836 N 0.42578 0.40334 0.23733
 C1837 C 0.39695 0.38492 0.25292
 N1838 N 0.39814 0.36925 0.23932
 N1839 N 0.38330 0.35525 0.23833
 C1840 C 0.36659 0.35658 0.25070
 N1841 N 0.36535 0.37230 0.26426
 N1842 N 0.38032 0.38617 0.26543
 C1843 C 0.35020 0.34122 0.24936
 N1844 N 0.33112 0.34519 0.25679
 N1845 N 0.31626 0.33122 0.25537
 C1846 C 0.32003 0.31271 0.24666
 N1847 N 0.33913 0.30873 0.23934
 N1848 N 0.35390 0.32277 0.24054
   
