data_POSCAR
  _audit_creation_date              2014-09-24
  _audit_creation_method            'ToBaCCo'
  _symmetry_space_group_name_H-M    'P1'
  _symmetry_Int_Tables_number       1
  _symmetry_cell_setting            triclinic
  loop_
  _symmetry_equiv_pos_as_xyz
 x,y,z
_cell_length_a 46.0281
_cell_length_b 46.0337
_cell_length_c 44.6004
_cell_angle_alpha 89.915900
_cell_angle_beta 90.508200
_cell_angle_gamma 90.335500
loop_
  _atom_site_label
  _atom_site_type_symbol
  _atom_site_fract_x
  _atom_site_fract_y
  _atom_site_fract_z
C1 C 0.30383 0.45498 0.92880
 C2 C 0.33275 0.45946 0.93776
 C3 C 0.34632 0.44112 0.95902
 C4 C 0.32972 0.41877 0.97210
 C5 C 0.30046 0.41425 0.96374
 C6 C 0.28764 0.43277 0.94256
 H7 H 0.34436 0.47719 0.92740
 H8 H 0.34029 0.40396 0.98750
 H9 H 0.26519 0.42899 0.93642
 C10 C 0.43787 0.84639 0.44560
 C11 C 0.41582 0.83054 0.46010
 C12 C 0.40613 0.80349 0.44896
 C13 C 0.41808 0.79264 0.42247
 C14 C 0.43928 0.80841 0.40673
 C15 C 0.44932 0.83492 0.41870
 H16 H 0.40589 0.83969 0.47984
 H17 H 0.41043 0.77185 0.41432
 H18 H 0.46509 0.84692 0.40580
 C19 C 0.94320 0.89602 0.80765
 C20 C 0.91745 0.90214 0.79173
 C21 C 0.90369 0.92887 0.79459
 C22 C 0.91484 0.94938 0.81517
 C23 C 0.94040 0.94388 0.83176
 C24 C 0.95452 0.91692 0.82754
 H25 H 0.90739 0.88598 0.77738
 H26 H 0.90331 0.96949 0.81885
 H27 H 0.97353 0.91111 0.84055
 C28 C 0.43378 -0.09560 0.30014
 C29 C 0.44793 -0.07774 0.32098
 C30 C 0.43640 -0.05068 0.32895
 C31 C 0.40972 -0.04201 0.31625
 C32 C 0.39436 -0.06018 0.29602
 C33 C 0.40693 -0.08676 0.28781
 H34 H 0.46768 -0.08565 0.33130
 H35 H 0.40111 -0.02116 0.32263
 H36 H 0.39510 -0.10107 0.27275
 C37 C 0.80002 0.30984 0.33418
 C38 C 0.79136 0.33686 0.32254
 C39 C 0.80696 0.35016 0.29901
 C40 C 0.83172 0.33604 0.28781
 C41 C 0.84042 0.30875 0.29921
 C42 C 0.82410 0.29590 0.32196
 H43 H 0.77300 0.34760 0.33234
 H44 H 0.84446 0.34692 0.27087
 H45 H 0.83098 0.27521 0.33118
 C46 C -0.20286 0.82890 0.79985
 C47 C -0.17846 0.81684 0.78532
 C48 C -0.16341 0.79325 0.79775
 C49 C -0.17242 0.78169 0.82522
 C50 C -0.19686 0.79226 0.83984
 C51 C -0.21195 0.81606 0.82696
 H52 H -0.16989 0.82602 0.76494
 H53 H -0.15990 0.76474 0.83599
 H54 H -0.23000 0.82583 0.83845
 C55 C 0.95050 0.34460 0.45172
 C56 C 0.92723 0.32997 0.46491
 C57 C 0.91644 0.30398 0.45274
 C58 C 0.92985 0.29213 0.42722
 C59 C 0.95371 0.30647 0.41398
 C60 C 0.96430 0.33211 0.42697
 H61 H 0.91660 0.33959 0.48407
 H62 H 0.92208 0.27178 0.41808
 H63 H 0.98310 0.34252 0.41719
 C64 C 0.45387 0.44410 0.83293
 C65 C 0.46446 0.41793 0.82043
 C66 C 0.44996 0.40458 0.79589
 C67 C 0.42472 0.41723 0.78430
 C68 C 0.41362 0.44268 0.79650
 C69 C 0.42879 0.45645 0.82008
 H70 H 0.48286 0.40714 0.83040
 H71 H 0.41300 0.40656 0.76616
 H72 H 0.42084 0.47674 0.82897
 C73 C 0.80233 0.90403 0.93098
 C74 C 0.79470 0.91640 0.90331
 C75 C 0.81162 0.93869 0.89057
 C76 C 0.83698 0.94775 0.90531
 C77 C 0.84504 0.93611 0.93339
 C78 C 0.82771 0.91399 0.94595
 H79 H 0.77593 0.90784 0.89142
 H80 H 0.85065 0.96357 0.89424
 H81 H 0.83459 0.90410 0.96684
 C82 C 0.29296 0.83565 0.30201
 C83 C 0.31629 0.82007 0.29005
 C84 C 0.32802 0.79590 0.30522
 C85 C 0.31672 0.78813 0.33335
 C86 C 0.29415 0.80420 0.34639
 C87 C 0.28212 0.82734 0.33028
 H88 H 0.32539 0.82734 0.26907
 H89 H 0.32587 0.76963 0.34494
 H90 H 0.26553 0.83984 0.34125
 C91 C 0.80551 0.41988 0.46078
 C92 C 0.79140 0.43632 0.43849
 C93 C 0.80462 0.46106 0.42595
 C94 C 0.83176 0.47012 0.43701
 C95 C 0.84655 0.45440 0.45957
 C96 C 0.83305 0.42923 0.47130
 H97 H 0.77027 0.42918 0.43064
 H98 H 0.84142 0.48897 0.42665
 H99 H 0.84439 0.41690 0.48835
 C100 C 0.94697 0.85134 -0.04340
 C101 C 0.92174 0.84076 -0.02964
 C102 C 0.90745 0.81587 -0.04005
 C103 C 0.91893 0.80080 -0.06487
 C104 C 0.94470 0.81064 -0.07873
 C105 C 0.95853 0.83575 -0.06761
 H106 H 0.91240 0.85260 -0.01106
 H107 H 0.90717 0.78250 -0.07410
 H108 H 0.97800 0.84317 -0.07862
 C109 C 0.31415 0.34198 0.80109
 C110 C 0.33976 0.33025 0.78911
 C111 C 0.35297 0.30548 0.80168
 C112 C 0.33999 0.29235 0.82673
 C113 C 0.31487 0.30386 0.83958
 C114 C 0.30178 0.32845 0.82635
 H115 H 0.34979 0.34081 0.77006
 H116 H 0.34956 0.27348 0.83714
 H117 H 0.28237 0.33724 0.83596
 C118 C 0.16590 0.56104 0.55373
 C119 C 0.17485 0.54448 0.57883
 C120 C 0.19631 0.55515 0.59875
 C121 C 0.20860 0.58274 0.59337
 C122 C 0.20027 0.59934 0.56852
 C123 C 0.17856 0.58842 0.54906
 H124 H 0.16446 0.52389 0.58373
 H125 H 0.22399 0.59215 0.60910
 H126 H 0.17041 0.60147 0.53070
 C127 C 0.59596 0.68869 0.06419
 C128 C 0.59047 0.66296 0.04777
 C129 C 0.56587 0.64561 0.05378
 C130 C 0.54686 0.65443 0.07667
 C131 C 0.55177 0.68022 0.09260
 C132 C 0.57684 0.69676 0.08673
 H133 H 0.60568 0.65601 0.03086
 H134 H 0.52850 0.64105 0.08294
 H135 H 0.58198 0.71582 0.09999
 C136 C 0.70410 0.19058 0.65997
 C137 C 0.68235 0.20385 0.67696
 C138 C 0.66939 0.18933 0.70116
 C139 C 0.67930 0.16189 0.70937
 C140 C 0.70103 0.14783 0.69316
 C141 C 0.71355 0.16248 0.66833
 H142 H 0.67530 0.22548 0.67090
 H143 H 0.66904 0.15088 0.72808
 H144 H 0.73023 0.15225 0.65544
 C145 C 1.07703 0.05933 0.19541
 C146 C 1.06461 0.08599 0.20355
 C147 C 1.04175 0.09813 0.18649
 C148 C 1.03141 0.08343 0.16126
 C149 C 1.04354 0.05685 0.15230
 C150 C 1.06647 0.04514 0.16946
 H151 H 1.07368 0.09771 0.22249
 H152 H 1.01483 0.09407 0.14806
 H153 H 1.07659 0.02542 0.16175
 C154 C 0.04857 0.17380 1.03703
 C155 C 0.03429 0.18381 1.06296
 C156 C 0.04612 0.20675 1.08035
 C157 C 0.07249 0.21951 1.07099
 C158 C 0.08702 0.20960 1.04568
 C159 C 0.07488 0.18680 1.02882
 H160 H 0.01466 0.17309 1.07045
 H161 H 0.08319 0.23629 1.08386
 H162 H 0.08643 0.17791 1.00998
 C163 C 0.16135 0.70310 0.71618
 C164 C 0.17219 0.67806 0.73040
 C165 C 0.19732 0.66443 0.72019
 C166 C 0.21183 0.67619 0.69523
 C167 C 0.20142 0.70114 0.68060
 C168 C 0.17604 0.71441 0.69131
 H169 H 0.16037 0.66796 0.74851
 H170 H 0.23049 0.66537 0.68598
 H171 H 0.16664 0.73277 0.67972
 C172 C 1.18302 0.14720 0.18829
 C173 C 1.16074 0.15938 0.20541
 C174 C 1.14938 0.18656 0.19827
 C175 C 1.15981 0.20146 0.17285
 C176 C 1.18147 0.18918 0.15483
 C177 C 1.19266 0.16175 0.16272
 H178 H 1.15145 0.14757 0.22403
 H179 H 1.15038 0.22205 0.16634
 H180 H 1.20848 0.15102 0.14892
 C181 C 0.66833 1.05422 0.52907
 C182 C 0.68183 1.07943 0.51787
 C183 C 0.70812 1.08993 0.53019
 C184 C 0.72201 1.07352 0.55250
 C185 C 0.70943 1.04823 0.56413
 C186 C 0.68245 1.03861 0.55239
 H187 H 0.67111 1.09106 0.49991
 H188 H 0.74232 1.08135 0.56217
 H189 H 0.67243 1.01962 0.56196
 C190 C 0.54521 0.55126 0.16160
 C191 C 0.53393 0.57559 0.17640
 C192 C 0.54905 0.58852 0.20064
 C193 C 0.57593 0.57701 0.20947
 C194 C 0.58766 0.55258 0.19504
 C195 C 0.57218 0.54000 0.17110
 H196 H 0.51397 0.58493 0.16796
 H197 H 0.58804 0.58814 0.22691
 H198 H 0.58198 0.52219 0.15912
 C199 C 0.64953 0.70370 0.19984
 C200 C 0.66031 0.68151 0.21871
 C201 C 0.68694 0.66805 0.21296
 C202 C 0.70278 0.67633 0.18749
 C203 C 0.69274 0.69823 0.16836
 C204 C 0.66602 0.71183 0.17466
 H205 H 0.64780 0.67357 0.23741
 H206 H 0.72249 0.66505 0.18163
 H207 H 0.65730 0.72791 0.15936
 C208 C 0.15403 0.05934 1.05335
 C209 C 0.16615 0.04657 1.07929
 C210 C 0.19291 0.05611 1.09121
 C211 C 0.20768 0.07877 1.07689
 C212 C 0.19641 0.09210 1.05100
 C213 C 0.16957 0.08218 1.03918
 H214 H 0.15393 0.02990 1.09084
 H215 H 0.22801 0.08658 1.08647
 H216 H 0.16073 0.09277 1.01967
 C217 C 0.59173 0.20163 0.54460
 C218 C 0.57972 0.21537 0.56972
 C219 C 0.55496 0.20416 0.58377
 C220 C 0.54091 0.17967 0.57121
 C221 C 0.55198 0.16580 0.54572
 C222 C 0.57758 0.17699 0.53265
 H223 H 0.58977 0.23469 0.57898
 H224 H 0.52140 0.17094 0.58114
 H225 H 0.58738 0.16626 0.51379
 C226 C 0.08953 0.54296 0.70186
 C227 C 0.07771 0.53351 0.67449
 C228 C 0.05147 0.54489 0.66349
 C229 C 0.03699 0.56581 0.68043
 C230 C 0.04824 0.57582 0.70790
 C231 C 0.07442 0.56386 0.71884
 H232 H 0.08995 0.51823 0.66135
 H233 H 0.01709 0.57514 0.67158
 H234 H 0.08296 0.57069 0.74031
 C235 C 0.66779 0.54762 0.04787
 C236 C 0.67616 0.57493 0.03729
 C237 C 0.69546 0.59244 0.05356
 C238 C 0.70667 0.58227 0.08127
 C239 C 0.69900 0.55436 0.09197
 C240 C 0.68004 0.53711 0.07470
 H241 H 0.66669 0.58314 0.01661
 H242 H 0.72003 0.59644 0.09494
 H243 H 0.67439 0.51569 0.08284
 C244 C 0.06552 0.69574 0.60445
 C245 C 0.05383 0.66943 0.59358
 C246 C 0.06247 0.65787 0.56618
 C247 C 0.08411 0.67238 0.54975
 C248 C 0.09653 0.69840 0.56017
 C249 C 0.08703 0.71003 0.58765
 H250 H 0.03856 0.65697 0.60671
 H251 H 0.09247 0.66305 0.52936
 H252 H 0.09703 0.72946 0.59677
 C253 C 0.55227 1.04594 0.65138
 C254 C 0.53959 1.07071 0.66449
 C255 C 0.55213 1.08411 0.68983
 C256 C 0.57756 1.07180 0.70252
 C257 C 0.59020 1.04679 0.69012
 C258 C 0.57715 1.03411 0.66478
 H259 H 0.52034 1.08042 0.65492
 H260 H 0.58828 1.08172 0.72156
 H261 H 0.58715 1.01576 0.65404
 C262 C 0.45460 0.32408 0.95577
 C263 C 0.47132 0.30875 0.93462
 C264 C 0.46059 0.28321 0.92116
 C265 C 0.43390 0.27180 0.93060
 C266 C 0.41747 0.28583 0.95242
 C267 C 0.42790 0.31203 0.96476
 H268 H 0.49247 0.31648 0.92832
 H269 H 0.42531 0.25227 0.92013
 H270 H 0.41458 0.32401 0.98028
 C271 C 0.95520 0.45796 0.32584
 C272 C 0.92779 0.46954 0.31800
 C273 C 0.91189 0.45816 0.29338
 C274 C 0.92359 0.43532 0.27677
 C275 C 0.95008 0.42298 0.28492
 C276 C 0.96626 0.43515 0.30871
 H277 H 0.91863 0.48679 0.33114
 H278 H 0.91111 0.42584 0.25847
 H279 H 0.98732 0.42636 0.31459
 C280 C 0.29638 0.95782 0.41656
 C281 C 0.28524 0.93272 0.43063
 C282 C 0.30133 0.91779 0.45247
 C283 C 0.32886 0.92843 0.46086
 C284 C 0.34039 0.95355 0.44748
 C285 C 0.32386 0.96830 0.42567
 H286 H 0.26446 0.92362 0.42423
 H287 H 0.34206 0.91669 0.47692
 H288 H 0.33241 0.98780 0.41535
 O289 O 0.32519 0.49608 0.80744
 O290 O 0.31822 0.54630 0.80797
 O291 O 0.24369 0.46362 0.84106
 O292 O 0.19717 0.46313 0.82760
 O293 O 0.28568 0.42428 0.76543
 O294 O 0.28532 0.43512 0.71352
 O295 O 0.17833 0.54655 0.75920
 O296 O 0.18356 0.54117 0.80967
 O297 O 0.25791 0.58044 0.72772
 O298 O 0.30769 0.56703 0.73169
 O299 O 0.21720 0.51182 0.68292
 O300 O 0.21442 0.46219 0.68796
 O301 O 0.17654 0.51252 0.72231
 O302 O 0.18606 0.45675 0.72345
 O303 O 0.25594 0.54256 0.68626
 O304 O 0.30880 0.53455 0.70176
 O305 O 0.21960 0.58151 0.75953
 O306 O 0.22204 0.56913 0.81603
 O307 O 0.32679 0.46425 0.76845
 O308 O 0.31716 0.46783 0.71397
 O309 O 0.24776 0.42410 0.79776
 O310 O 0.19516 0.43902 0.78724
 O311 O 0.28169 0.49523 0.84552
 O312 O 0.28214 0.54803 0.83630
 Zr313 Zr 0.28440 0.51537 0.80311
 O314 O 0.26356 0.54593 0.77549
 Zr315 Zr 0.23093 0.46696 0.79601
 O316 O 0.20643 0.49659 0.77013
 Zr317 Zr 0.28532 0.46672 0.74787
 O318 O 0.26233 0.49445 0.71853
 Zr319 Zr 0.21867 0.53981 0.77947
 O320 O 0.23940 0.51039 0.80910
 Zr321 Zr 0.27231 0.53749 0.73016
 O322 O 0.29706 0.50983 0.75809
 Zr323 Zr 0.21711 0.49083 0.72488
 O324 O 0.24010 0.45931 0.75063
 O325 O 0.27557 0.47225 0.79282
 O326 O 0.22732 0.53399 0.73412
 C327 C 0.33809 0.47712 0.79144
 C328 C 0.26442 0.47567 0.85598
 C329 C 0.26941 0.41175 0.78488
 C330 C 0.16559 0.53368 0.73734
 C331 C 0.23651 0.59326 0.74004
 C332 C 0.23421 0.53134 0.67210
 H333 H 0.26974 0.56574 0.78134
 H334 H 0.26756 0.49001 0.69759
 H335 H 0.28663 0.45909 0.80618
 H336 H 0.18553 0.49336 0.77393
 H337 H 0.18896 0.52862 0.82685
 H338 H 0.18458 0.48025 0.82476
 H339 H 0.30413 0.52041 0.68573
 H340 H 0.32953 0.48509 0.71793
 H341 H 0.23645 0.58438 0.81105
 H342 H 0.26320 0.54561 0.84637
 H343 H 0.23418 0.45447 0.68501
 H344 H 0.26568 0.42624 0.71322
 H345 H 0.32819 0.54719 0.78841
 H346 H 0.30764 0.57639 0.75163
 H347 H 0.20090 0.42593 0.77076
 H348 H 0.17034 0.46172 0.73751
 O349 O 0.22806 -0.04302 0.33659
 O350 O 0.17697 -0.04211 0.32307
 O351 O 0.26661 -0.08470 0.26202
 O352 O 0.26798 -0.07792 0.21179
 O353 O 0.30412 -0.00606 0.29727
 O354 O 0.29140 0.04446 0.29248
 O355 O 0.19319 -0.01006 0.17544
 O356 O 0.19942 -0.06000 0.18597
 O357 O 0.15221 0.02812 0.24565
 O358 O 0.15889 0.02216 0.30334
 O359 O 0.22392 0.06630 0.21561
 O360 O 0.27769 0.05751 0.22050
 O361 O 0.22601 0.02705 0.17651
 O362 O 0.27851 0.02663 0.18836
 O363 O 0.19029 0.06677 0.25271
 O364 O 0.18717 0.05623 0.30445
 O365 O 0.15351 -0.00957 0.21279
 O366 O 0.16462 -0.06214 0.21962
 O367 O 0.26262 -0.00744 0.33688
 O368 O 0.25838 0.04350 0.32486
 O369 O 0.30671 -0.04254 0.26305
 O370 O 0.29744 -0.03966 0.20906
 O371 O 0.22956 -0.08457 0.29557
 O372 O 0.17909 -0.07559 0.29163
 Zr373 Zr 0.21166 -0.04304 0.29234
 O374 O 0.18382 -0.01956 0.26374
 Zr375 Zr 0.26508 -0.04297 0.24237
 O376 O 0.23941 -0.01918 0.21151
 Zr377 Zr 0.26138 0.00953 0.29319
 O378 O 0.23569 0.03556 0.26492
 Zr379 Zr 0.19513 -0.02740 0.21898
 O380 O 0.22075 -0.05388 0.24748
 Zr381 Zr 0.19153 0.02485 0.27023
 O382 O 0.21708 0.00146 0.30147
 Zr383 Zr 0.24441 0.02558 0.21989
 O384 O 0.27283 0.00182 0.24836
 O385 O 0.25579 -0.03479 0.28694
 O386 O 0.20037 0.01713 0.22524
 C387 C 0.24822 -0.02802 0.34948
 C388 C 0.25089 -0.09675 0.28237
 C389 C 0.31782 -0.02646 0.28387
 C390 C 0.20625 0.01167 0.16340
 C391 C 0.14122 0.01274 0.22425
 C392 C 0.20380 0.07851 0.23087
 H393 H 0.16337 -0.02474 0.26777
 H394 H 0.23981 0.05614 0.26974
 H395 H 0.26810 -0.04654 0.30056
 H396 H 0.24469 -0.02428 0.19075
 H397 H 0.20931 -0.07658 0.19577
 H398 H 0.25783 -0.07204 0.19313
 H399 H 0.20615 0.06627 0.30649
 H400 H 0.23962 0.04086 0.33522
 H401 H 0.15015 -0.05823 0.23535
 H402 H 0.17988 -0.08472 0.27158
 H403 H 0.27370 0.07099 0.23720
 H404 H 0.30178 0.04315 0.27318
 H405 H 0.17739 -0.02266 0.33248
 H406 H 0.14313 0.00936 0.29576
 H407 H 0.30679 -0.02038 0.21149
 H408 H 0.27749 0.00846 0.17659
 O409 O 0.55903 0.70935 0.25192
 O410 O 0.54213 0.70874 0.30155
 O411 O 0.48417 0.66744 0.20713
 O412 O 0.43939 0.67736 0.19520
 O413 O 0.52704 0.74504 0.16800
 O414 O 0.52667 0.79477 0.17938
 O415 O 0.40343 0.74990 0.27438
 O416 O 0.40968 0.69905 0.26897
 O417 O 0.47232 0.78363 0.32025
 O418 O 0.52324 0.78442 0.31644
 O419 O 0.44457 0.82119 0.23713
 O420 O 0.45102 0.81025 0.18569
 O421 O 0.40654 0.78283 0.23647
 O422 O 0.42324 0.77575 0.18149
 O423 O 0.47305 0.82163 0.27906
 O424 O 0.52921 0.81133 0.28048
 O425 O 0.43770 0.74831 0.31688
 O426 O 0.44190 0.69521 0.30629
 O427 O 0.56348 0.74236 0.21417
 O428 O 0.55260 0.79479 0.21812
 O429 O 0.49454 0.70767 0.16459
 O430 O 0.43944 0.71555 0.16920
 O431 O 0.51886 0.66820 0.24382
 O432 O 0.50837 0.67861 0.29726
 Zr433 Zr 0.51478 0.71002 0.26328
 O434 O 0.48705 0.73664 0.28856
 Zr435 Zr 0.47013 0.71049 0.20445
 O436 O 0.43934 0.73526 0.22785
 Zr437 Zr 0.52165 0.76124 0.21137
 O438 O 0.49255 0.78924 0.23310
 Zr439 Zr 0.44401 0.72936 0.27440
 O440 O 0.47146 0.70073 0.25075
 Zr441 Zr 0.49451 0.78093 0.27934
 O442 O 0.52559 0.75435 0.25787
 Zr443 Zr 0.44942 0.77917 0.22063
 O444 O 0.47891 0.75443 0.19524
 O445 O 0.51311 0.71728 0.21745
 O446 O 0.45158 0.77333 0.26692
 C447 C 0.57386 0.72278 0.23189
 C448 C 0.50448 0.65552 0.22254
 C449 C 0.51536 0.72347 0.15425
 C450 C 0.39306 0.77061 0.25828
 C451 C 0.45061 0.76929 0.33070
 C452 C 0.45458 0.83334 0.26085
 H453 H 0.48993 0.73231 0.31008
 H454 H 0.49761 0.80963 0.22836
 H455 H 0.52682 0.70471 0.20655
 H456 H 0.41938 0.73026 0.22118
 H457 H 0.41812 0.68174 0.25929
 H458 H 0.42348 0.67981 0.20970
 H459 H 0.52443 0.82731 0.26645
 H460 H 0.56166 0.79138 0.23801
 H461 H 0.45747 0.69839 0.32137
 H462 H 0.49067 0.66749 0.29164
 H463 H 0.46974 0.82075 0.18763
 H464 H 0.50819 0.79560 0.16791
 H465 H 0.55057 0.72846 0.30366
 H466 H 0.52426 0.76498 0.32584
 H467 H 0.44708 0.73078 0.15564
 H468 H 0.40662 0.76277 0.18596
 O469 O 0.07631 0.70430 0.77682
 O470 O 0.05898 0.70682 0.82906
 O471 O 0.00814 0.65351 0.73630
 O472 O -0.04056 0.65576 0.73397
 O473 O 0.03866 0.72902 0.69138
 O474 O 0.03260 0.77974 0.69824
 O475 O -0.08313 0.72967 0.79782
 O476 O -0.06771 0.67901 0.79956
 O477 O -0.01750 0.77630 0.84124
 O478 O 0.03283 0.77517 0.84006
 O479 O -0.04594 0.80507 0.75774
 O480 O -0.03992 0.78882 0.70578
 O481 O -0.08218 0.76407 0.76117
 O482 O -0.06860 0.75572 0.70760
 O483 O -0.01581 0.81140 0.79793
 O484 O 0.03495 0.80733 0.79875
 O485 O -0.04877 0.73792 0.84188
 O486 O -0.04073 0.68886 0.84030
 O487 O 0.07605 0.73439 0.73634
 O488 O 0.06049 0.78586 0.73392
 O489 O 0.00558 0.69205 0.69137
 O490 O -0.04618 0.68946 0.69984
 O491 O 0.04097 0.65967 0.77422
 O492 O 0.03144 0.67201 0.82603
 Zr493 Zr 0.03266 0.70212 0.79020
 O494 O 0.00265 0.72759 0.81396
 Zr495 Zr -0.01388 0.69333 0.73373
 O496 O -0.04603 0.71792 0.75512
 Zr497 Zr 0.03286 0.74894 0.73345
 O498 O 0.00267 0.77596 0.75464
 Zr499 Zr -0.03992 0.71574 0.80174
 O500 O -0.00996 0.68778 0.78053
 Zr501 Zr 0.00615 0.77142 0.80137
 O502 O 0.03928 0.74667 0.78042
 Zr503 Zr -0.03977 0.76198 0.74434
 O504 O -0.00961 0.73696 0.72024
 O505 O 0.02863 0.70525 0.74387
 O506 O -0.03641 0.75964 0.79084
 C507 C 0.08886 0.71734 0.75499
 C508 C 0.02929 0.64462 0.75294
 C509 C 0.02534 0.70754 0.67886
 C510 C -0.09506 0.74954 0.78178
 C511 C -0.03809 0.76134 0.85320
 C512 C -0.03512 0.82036 0.77911
 H513 H 0.00605 0.72539 0.83578
 H514 H 0.00642 0.79624 0.74834
 H515 H 0.04296 0.69355 0.73281
 H516 H -0.06553 0.71073 0.74922
 H517 H -0.05530 0.66187 0.79591
 H518 H -0.05846 0.66077 0.74485
 H519 H 0.05444 0.79947 0.79462
 H520 H 0.07342 0.78413 0.75166
 H521 H -0.02035 0.68509 0.84608
 H522 H 0.01482 0.65876 0.82206
 H523 H -0.02355 0.80271 0.70785
 H524 H 0.01432 0.77657 0.68682
 H525 H 0.07146 0.72412 0.82605
 H526 H 0.05196 0.76714 0.83475
 H527 H -0.04579 0.70779 0.68822
 H528 H -0.08149 0.73909 0.71231
 O529 O -0.01366 0.09200 0.02085
 O530 O -0.06223 0.07618 0.01294
 O531 O 0.02683 0.02281 0.06681
 O532 O 0.03242 -0.02724 0.05853
 O533 O 0.06916 0.06039 -0.01028
 O534 O 0.06141 0.05793 -0.06248
 O535 O -0.03133 -0.06517 -0.01768
 O536 O -0.03545 -0.05354 0.03566
 O537 O -0.07656 0.00386 -0.05894
 O538 O -0.07055 0.05434 -0.06349
 O539 O 0.00563 -0.02688 -0.09140
 O540 O 0.05585 -0.01706 -0.07724
 O541 O 0.00651 -0.06280 -0.04996
 O542 O 0.05823 -0.04412 -0.04134
 O543 O -0.03573 -0.00037 -0.09527
 O544 O -0.03376 0.05711 -0.08941
 O545 O -0.07456 -0.03186 -0.02368
 O546 O -0.06858 -0.02543 0.03214
 O547 O 0.02444 0.09575 -0.01117
 O548 O 0.02405 0.08413 -0.06576
 O549 O 0.07061 0.02735 0.02773
 O550 O 0.06541 -0.02557 0.02688
 O551 O -0.01285 0.05189 0.06265
 O552 O -0.06266 0.04322 0.04570
 Zr553 Zr -0.02619 0.04821 0.01760
 O554 O -0.04858 0.01902 -0.01054
 Zr555 Zr 0.03078 0.00433 0.02411
 O556 O 0.01029 -0.02748 -0.00258
 Zr557 Zr 0.02818 0.05379 -0.03035
 O558 O 0.00899 0.02348 -0.06025
 Zr559 Zr -0.03522 -0.02335 -0.00018
 O560 O -0.01467 0.00571 0.03004
 Zr561 Zr -0.03624 0.02494 -0.05549
 O562 O -0.01727 0.05742 -0.02768
 Zr563 Zr 0.02022 -0.01906 -0.04759
 O564 O 0.04291 0.01141 -0.02065
 O565 O 0.01880 0.04666 0.01450
 O566 O -0.02494 -0.01755 -0.04508
 C567 C 0.00714 0.10626 0.00868
 C568 C 0.00830 0.04066 0.07755
 C569 C 0.08185 0.04808 0.01208
 C570 C -0.01427 -0.07647 -0.03695
 C571 C -0.08719 -0.01834 -0.04542
 C572 C -0.01770 -0.01938 -0.10513
 H573 H -0.06967 0.02178 -0.00778
 H574 H 0.01477 0.02782 -0.08107
 H575 H 0.02895 0.06039 0.02810
 H576 H 0.01688 -0.04692 0.00386
 H577 H -0.01620 -0.06296 0.03638
 H578 H 0.01216 -0.03014 0.06524
 H579 H -0.02210 0.04931 -0.10607
 H580 H 0.00445 0.09270 -0.06417
 H581 H -0.08363 -0.01117 0.02638
 H582 H -0.05953 0.02522 0.05744
 H583 H 0.05307 -0.00002 -0.09045
 H584 H 0.07187 0.03921 -0.06238
 H585 H -0.06039 0.08572 -0.00687
 H586 H -0.08055 0.05695 -0.04415
 H587 H 0.07734 -0.02259 0.00875
 H588 H 0.05437 -0.05854 -0.02538
 O589 O 0.09167 0.53655 0.49780
 O590 O 0.08099 0.53696 0.44313
 O591 O 0.02211 0.57711 0.53689
 O592 O -0.02674 0.57253 0.53864
 O593 O 0.05130 0.49307 0.56888
 O594 O 0.04404 0.44391 0.55013
 O595 O -0.06630 0.51258 0.45745
 O596 O -0.05210 0.56234 0.46895
 O597 O 0.00056 0.47776 0.40876
 O598 O 0.05231 0.47500 0.41369
 O599 O -0.03066 0.43173 0.48187
 O600 O -0.02491 0.43726 0.53785
 O601 O -0.06708 0.47277 0.48769
 O602 O -0.05542 0.46823 0.54051
 O603 O 0.00143 0.43459 0.44349
 O604 O 0.05596 0.44244 0.44473
 O605 O -0.03087 0.51505 0.41546
 O606 O -0.02227 0.56442 0.43048
 O607 O 0.09030 0.49582 0.52680
 O608 O 0.07592 0.44687 0.51666
 O609 O 0.02058 0.53121 0.57443
 O610 O -0.03107 0.53274 0.56587
 O611 O 0.05340 0.57908 0.49765
 O612 O 0.05252 0.57217 0.44561
 Zr613 Zr 0.04970 0.53833 0.47754
 O614 O 0.01995 0.51925 0.44710
 Zr615 Zr 0.00086 0.53650 0.53215
 O616 O -0.03056 0.51631 0.50446
 Zr617 Zr 0.04696 0.48171 0.52329
 O618 O 0.01793 0.45950 0.49455
 Zr619 Zr -0.02309 0.52806 0.45978
 O620 O 0.00671 0.55073 0.48768
 Zr621 Zr 0.02320 0.47404 0.45011
 O622 O 0.05534 0.49316 0.47833
 Zr623 Zr -0.02477 0.47095 0.50549
 O624 O 0.00421 0.49099 0.53630
 O625 O 0.04348 0.52670 0.52202
 O626 O -0.01977 0.48296 0.46078
 C627 C 0.10322 0.51845 0.51655
 C628 C 0.04143 0.59001 0.52078
 C629 C 0.03938 0.51306 0.58457
 C630 C -0.07919 0.49057 0.46935
 C631 C -0.02002 0.49463 0.39973
 C632 C -0.01854 0.42165 0.45824
 H633 H 0.02399 0.52605 0.42653
 H634 H 0.02136 0.43842 0.49659
 H635 H 0.05678 0.53697 0.53601
 H636 H -0.05027 0.52196 0.51076
 H637 H -0.04061 0.57789 0.47889
 H638 H -0.04534 0.56835 0.52819
 H639 H 0.05264 0.42706 0.45985
 H640 H 0.08468 0.44984 0.49670
 H641 H -0.00529 0.56260 0.41723
 H642 H 0.03332 0.58175 0.44539
 H643 H -0.01018 0.42284 0.53193
 H644 H 0.02637 0.44595 0.56243
 H645 H 0.09102 0.51806 0.44496
 H646 H 0.05786 0.49550 0.41034
 H647 H -0.03052 0.51244 0.57319
 H648 H -0.06495 0.48735 0.54215
 O649 O 0.58442 0.03614 0.49266
 O650 O 0.57828 0.03126 0.43802
 O651 O 0.50979 0.08519 0.51633
 O652 O 0.46065 0.08062 0.50633
 O653 O 0.53171 0.01102 0.56649
 O654 O 0.52580 -0.04151 0.55796
 O655 O 0.43196 0.00656 0.43662
 O656 O 0.44535 0.05685 0.43888
 O657 O 0.50673 -0.03610 0.40687
 O658 O 0.56002 -0.03391 0.42423
 O659 O 0.46256 -0.06830 0.47823
 O660 O 0.46220 -0.05438 0.53437
 O661 O 0.42681 -0.02668 0.47397
 O662 O 0.43124 -0.02406 0.52733
 O663 O 0.50199 -0.07207 0.44816
 O664 O 0.55368 -0.06491 0.45563
 O665 O 0.47254 -0.00095 0.40173
 O666 O 0.48125 0.05178 0.40636
 O667 O 0.57731 0.00357 0.53040
 O668 O 0.56282 -0.04507 0.53156
 O669 O 0.49978 0.04801 0.55939
 O670 O 0.45112 0.04712 0.54215
 O671 O 0.54751 0.08032 0.48406
 O672 O 0.55082 0.06708 0.43363
 Zr673 Zr 0.54430 0.03722 0.46897
 O674 O 0.51947 0.01211 0.43851
 Zr675 Zr 0.48800 0.04453 0.51422
 O676 O 0.46110 0.01841 0.48668
 Zr677 Zr 0.53410 -0.01003 0.52448
 O678 O 0.51026 -0.03805 0.49608
 Zr679 Zr 0.47499 0.02202 0.44218
 O680 O 0.50040 0.05037 0.46935
 Zr681 Zr 0.52247 -0.03156 0.45121
 O682 O 0.54946 -0.00683 0.48015
 Zr683 Zr 0.46643 -0.02602 0.49721
 O684 O 0.48998 0.00056 0.52779
 O685 O 0.53174 0.03371 0.51342
 O686 O 0.47834 -0.02195 0.45261
 C687 C 0.59316 0.02156 0.51575
 C688 C 0.53256 0.09496 0.50285
 C689 C 0.51717 0.03310 0.57572
 C690 C 0.41722 -0.01257 0.45116
 C691 C 0.48635 -0.02320 0.39225
 C692 C 0.47858 -0.08220 0.45953
 H693 H 0.52662 0.01512 0.41793
 H694 H 0.51311 -0.05839 0.50250
 H695 H 0.54383 0.04589 0.52695
 H696 H 0.44071 0.02467 0.48879
 H697 H 0.45544 0.07434 0.44679
 H698 H 0.44295 0.07350 0.49589
 H699 H 0.54999 -0.07507 0.47479
 H700 H 0.57306 -0.04799 0.51239
 H701 H 0.49857 0.04589 0.39498
 H702 H 0.53135 0.07458 0.42823
 H703 H 0.47596 -0.07059 0.53175
 H704 H 0.50645 -0.03708 0.56625
 H705 H 0.58716 0.01225 0.44274
 H706 H 0.55773 -0.02005 0.40741
 H707 H 0.44972 0.02839 0.55299
 H708 H 0.42228 -0.00470 0.52503
 O709 O 0.50840 0.56139 0.03595
 O710 O 0.45823 0.54926 0.03022
 O711 O 0.53938 0.48355 0.08147
 O712 O 0.53936 0.43597 0.07181
 O713 O 0.58874 0.52011 0.00930
 O714 O 0.58341 0.52150 -0.04375
 O715 O 0.47435 0.40884 -0.01233
 O716 O 0.47355 0.41614 0.04121
 O717 O 0.43968 0.48545 -0.04908
 O718 O 0.45138 0.53609 -0.04742
 O719 O 0.51729 0.44769 -0.08121
 O720 O 0.56876 0.45158 -0.06484
 O721 O 0.51422 0.40936 -0.04208
 O722 O 0.56654 0.42111 -0.03236
 O723 O 0.48162 0.48145 -0.08455
 O724 O 0.48759 0.53656 -0.07300
 O725 O 0.43508 0.44921 -0.01470
 O726 O 0.43843 0.44839 0.03737
 O727 O 0.54895 0.56222 0.00709
 O728 O 0.55077 0.55320 -0.04662
 O729 O 0.58400 0.48510 0.04508
 O730 O 0.57304 0.43345 0.03710
 O731 O 0.50735 0.52090 0.07782
 O732 O 0.45640 0.51605 0.06205
 Zr733 Zr 0.49230 0.51873 0.03289
 O734 O 0.46759 0.49430 0.00197
 Zr735 Zr 0.54241 0.46761 0.03750
 O736 O 0.51958 0.44053 0.00738
 Zr737 Zr 0.54849 0.52058 -0.01331
 O738 O 0.52650 0.49541 -0.04603
 Zr739 Zr 0.47497 0.44975 0.00883
 O740 O 0.49738 0.47416 0.04220
 Zr741 Zr 0.48169 0.50205 -0.04211
 O742 O 0.50378 0.52973 -0.01140
 Zr743 Zr 0.53201 0.45105 -0.03660
 O744 O 0.55715 0.47617 -0.00623
 O745 O 0.53667 0.51189 0.03057
 O746 O 0.48727 0.45769 -0.03525
 C747 C 0.53086 0.57417 0.02515
 C748 C 0.52567 0.50519 0.09254
 C749 C 0.59833 0.50513 0.03163
 C750 C 0.49161 0.39700 -0.03121
 C751 C 0.42526 0.46516 -0.03616
 C752 C 0.49671 0.46052 -0.09545
 H753 H 0.44693 0.49944 0.00448
 H754 H 0.53344 0.50049 -0.06627
 H755 H 0.54787 0.52406 0.04488
 H756 H 0.52336 0.41996 0.01240
 H757 H 0.47978 0.42482 0.06055
 H758 H 0.52834 0.41927 0.06354
 H759 H 0.50200 0.53044 -0.08802
 H760 H 0.53152 0.56267 -0.04718
 H761 H 0.43165 0.46855 0.03993
 H762 H 0.45851 0.49773 0.07350
 H763 H 0.56720 0.46864 -0.07826
 H764 H 0.59142 0.50160 -0.04403
 H765 H 0.46033 0.55931 0.01072
 H766 H 0.43894 0.53603 -0.02946
 H767 H 0.58658 0.43747 0.02046
 H768 H 0.56154 0.40727 -0.01619
 O769 O 0.75098 0.30955 0.43021
 O770 O 0.70245 0.31124 0.44987
 O771 O 0.80401 0.32414 0.50763
 O772 O 0.80855 0.30462 0.55372
 O773 O 0.82370 0.25500 0.44744
 O774 O 0.80472 0.20714 0.44036
 O775 O 0.72765 0.23723 0.57972
 O776 O 0.74035 0.28735 0.58278
 O777 O 0.67361 0.22718 0.50569
 O778 O 0.67548 0.24201 0.45316
 O779 O 0.74396 0.17249 0.51682
 O780 O 0.79724 0.17696 0.50823
 O781 O 0.75521 0.19912 0.56491
 O782 O 0.80582 0.19797 0.54687
 O783 O 0.70480 0.18571 0.48867
 O784 O 0.70192 0.21039 0.43827
 O785 O 0.68478 0.25174 0.54850
 O786 O 0.70281 0.30205 0.55579
 O787 O 0.77776 0.27071 0.41569
 O788 O 0.76824 0.21908 0.41488
 O789 O 0.83544 0.27919 0.49037
 O790 O 0.83132 0.26377 0.54304
 O791 O 0.76491 0.33769 0.47942
 O792 O 0.71341 0.33378 0.48990
 Zr793 Zr 0.73980 0.29942 0.47485
 O794 O 0.71169 0.27184 0.49901
 Zr795 Zr 0.79696 0.27950 0.51573
 O796 O 0.77123 0.25147 0.54221
 Zr797 Zr 0.77989 0.24343 0.45336
 O798 O 0.75397 0.21360 0.47688
 Zr799 Zr 0.72803 0.26584 0.54273
 O800 O 0.75457 0.29625 0.51963
 Zr801 Zr 0.71165 0.23010 0.48005
 O802 O 0.73687 0.25864 0.45352
 Zr803 Zr 0.76888 0.21053 0.52148
 O804 O 0.79724 0.23765 0.49677
 O805 O 0.78219 0.28466 0.47199
 O806 O 0.72604 0.22445 0.52411
 C807 C 0.76593 0.29553 0.41083
 C808 C 0.78937 0.34303 0.49261
 C809 C 0.84165 0.26892 0.46436
 C810 C 0.73901 0.21204 0.58397
 C811 C 0.66743 0.23660 0.53195
 C812 C 0.71967 0.16703 0.50354
 H813 H 0.69195 0.28014 0.49906
 H814 H 0.75442 0.19470 0.46643
 H815 H 0.79468 0.29793 0.46022
 H816 H 0.77924 0.25028 0.56280
 H817 H 0.75147 0.30487 0.57679
 H818 H 0.79892 0.29575 0.57125
 H819 H 0.71571 0.19425 0.43538
 H820 H 0.74870 0.22572 0.40859
 H821 H 0.68779 0.30546 0.54023
 H822 H 0.71939 0.33778 0.51088
 H823 H 0.79010 0.16930 0.48879
 H824 H 0.81705 0.20196 0.45784
 H825 H 0.69830 0.29493 0.43602
 H826 H 0.66777 0.26045 0.46106
 H827 H 0.83785 0.24531 0.53402
 H828 H 0.80812 0.21178 0.56371
 O829 O 0.74447 0.78705 -0.07476
 O830 O 0.69862 0.79277 -0.06359
 O831 O 0.78363 0.83258 0.00399
 O832 O 0.78569 0.82433 0.05383
 O833 O 0.82567 0.75382 -0.02986
 O834 O 0.81676 0.70780 -0.03403
 O835 O 0.70927 0.75787 0.08398
 O836 O 0.70299 0.80355 0.07046
 O837 O 0.67343 0.71356 0.00321
 O838 O 0.68489 0.70826 -0.04350
 O839 O 0.75173 0.68010 0.04929
 O840 O 0.79814 0.69234 0.05189
 O841 O 0.74114 0.72043 0.08624
 O842 O 0.79769 0.73139 0.07779
 O843 O 0.71470 0.67712 0.01535
 O844 O 0.72355 0.68500 -0.04341
 O845 O 0.67201 0.74474 0.04260
 O846 O 0.67919 0.80230 0.03110
 O847 O 0.78363 0.75717 -0.07331
 O848 O 0.77928 0.70236 -0.05862
 O849 O 0.82488 0.79220 0.00219
 O850 O 0.81240 0.78850 0.05832
 O851 O 0.75185 0.82994 -0.03526
 O852 O 0.69698 0.81828 -0.02584
 Zr853 Zr 0.73146 0.78848 -0.03053
 O854 O 0.70415 0.76056 -0.00595
 Zr855 Zr 0.78276 0.79062 0.02186
 O856 O 0.75550 0.76706 0.05113
 Zr857 Zr 0.78312 0.73843 -0.02945
 O858 O 0.76035 0.71069 -0.00019
 Zr859 Zr 0.71105 0.77018 0.03927
 O860 O 0.73800 0.79915 0.01463
 Zr861 Zr 0.71632 0.71654 -0.00977
 O862 O 0.73902 0.74395 -0.03977
 Zr863 Zr 0.76483 0.72310 0.04527
 O864 O 0.79291 0.74660 0.01640
 O865 O 0.77566 0.78236 -0.02335
 O866 O 0.72066 0.72627 0.03560
 C867 C 0.76630 0.77504 -0.08683
 C868 C 0.77142 0.84324 -0.01939
 C869 C 0.83760 0.77565 -0.01703
 C870 C 0.72098 0.73644 0.09750
 C871 C 0.66089 0.72455 0.02580
 C872 C 0.73066 0.66659 0.03671
 H873 H 0.68374 0.76364 -0.01228
 H874 H 0.76667 0.69043 -0.00331
 H875 H 0.78812 0.79423 -0.03663
 H876 H 0.75908 0.77362 0.07195
 H877 H 0.72197 0.81308 0.07429
 H878 H 0.76548 0.83029 0.05782
 H879 H 0.73333 0.66817 -0.03400
 H880 H 0.76488 0.70756 -0.07433
 H881 H 0.66165 0.79251 0.02291
 H882 H 0.70372 0.83357 -0.01177
 H883 H 0.81263 0.69623 0.03613
 H884 H 0.81886 0.69831 -0.01423
 H885 H 0.68982 0.77326 -0.06595
 H886 H 0.68612 0.72482 -0.05759
 H887 H 0.82662 0.77315 0.05354
 H888 H 0.78865 0.74101 0.09517
 O889 O 1.00508 0.18326 0.20642
 O890 O 0.95198 0.19698 0.20366
 O891 O 1.04356 0.26161 0.17115
 O892 O 1.04372 0.30957 0.18341
 O893 O 1.07587 0.21925 0.24871
 O894 O 1.06027 0.22433 0.30341
 O895 O 0.96815 0.33737 0.24950
 O896 O 0.97912 0.32967 0.19591
 O897 O 0.92054 0.26540 0.27464
 O898 O 0.92913 0.20968 0.26523
 O899 O 0.98945 0.28919 0.32719
 O900 O 1.04543 0.28419 0.32091
 O901 O 0.99663 0.33152 0.29103
 O902 O 1.04556 0.32182 0.29677
 O903 O 0.95300 0.25655 0.31901
 O904 O 0.95184 0.20722 0.30475
 O905 O 0.92686 0.30171 0.24070
 O906 O 0.93838 0.30056 0.19298
 O907 O 1.03322 0.18060 0.24853
 O908 O 1.03143 0.18967 0.29814
 O909 O 1.08071 0.25751 0.21668
 O910 O 1.07225 0.30767 0.22364
 O911 O 1.00943 0.22601 0.16540
 O912 O 0.95894 0.22555 0.16939
 Zr913 Zr 0.98763 0.22607 0.20666
 O914 O 0.95784 0.25254 0.22963
 Zr915 Zr 1.03946 0.27606 0.21570
 O916 O 1.01288 0.30305 0.24154
 Zr917 Zr 1.03279 0.22262 0.26516
 O918 O 1.00343 0.24593 0.29173
 Zr919 Zr 0.96983 0.29670 0.22757
 O920 O 0.99652 0.27088 0.19995
 Zr921 Zr 0.96040 0.24224 0.27532
 O922 O 0.98915 0.21441 0.25224
 Zr923 Zr 1.01357 0.29000 0.28693
 O924 O 1.04430 0.26652 0.26177
 O925 O 1.03058 0.23186 0.21960
 O926 O 0.97042 0.28628 0.27304
 C927 C 1.02183 0.16955 0.22500
 C928 C 1.03038 0.24188 0.15568
 C929 C 1.09043 0.23488 0.22994
 C930 C 0.97966 0.34638 0.27427
 C931 C 0.91169 0.28791 0.25995
 C932 C 0.96658 0.27505 0.33538
 H933 H 0.93806 0.24961 0.22129
 H934 H 1.00522 0.23924 0.31274
 H935 H 1.04335 0.21952 0.20731
 H936 H 1.01910 0.32350 0.23911
 H937 H 0.98603 0.31990 0.17755
 H938 H 1.03427 0.32716 0.19136
 H939 H 0.96950 0.20442 0.31718
 H940 H 1.01084 0.18355 0.29950
 H941 H 0.94409 0.28677 0.17720
 H942 H 0.96027 0.24492 0.15988
 H943 H 1.03815 0.26924 0.33497
 H944 H 1.07485 0.23981 0.29979
 H945 H 0.95344 0.18371 0.22109
 H946 H 0.91470 0.21800 0.25111
 H947 H 1.07968 0.30443 0.24427
 H948 H 1.05137 0.33060 0.27747
 O949 O 0.71364 0.98089 0.64664
 O950 O 0.71572 0.93178 0.65846
 O951 O 0.67429 1.02060 0.72175
 O952 O 0.68257 1.02242 0.77241
 O953 O 0.75298 1.05874 0.68552
 O954 O 0.79959 1.04859 0.68293
 O955 O 0.74860 0.94923 0.80722
 O956 O 0.70018 0.94564 0.79426
 O957 O 0.78963 0.90786 0.73192
 O958 O 0.79277 0.91565 0.68156
 O959 O 0.82659 0.98837 0.76735
 O960 O 0.81544 1.03475 0.76776
 O961 O 0.78703 0.98044 0.80614
 O962 O 0.77714 1.03616 0.79453
 O963 O 0.82723 0.94828 0.73763
 O964 O 0.81853 0.95217 0.67867
 O965 O 0.75619 0.90859 0.76908
 O966 O 0.70040 0.91755 0.75906
 O967 O 0.74829 1.01628 0.64556
 O968 O 0.80254 1.00962 0.65918
 O969 O 0.71658 1.06063 0.71963
 O970 O 0.71796 1.05041 0.77514
 O971 O 0.67374 0.98270 0.68904
 O972 O 0.68679 0.93007 0.69426
 Zr973 Zr 0.71630 0.96529 0.69079
 O974 O 0.74292 0.93883 0.71809
 Zr975 Zr 0.71603 1.01910 0.74048
 O976 O 0.73957 0.99362 0.77136
 Zr977 Zr 0.76757 1.01610 0.68890
 O978 O 0.79496 0.99380 0.71899
 Zr979 Zr 0.73416 0.94881 0.76285
 O980 O 0.70619 0.97432 0.73564
 Zr981 Zr 0.78729 0.94930 0.71314
 O982 O 0.76085 0.97160 0.68143
 Zr983 Zr 0.78369 1.00161 0.76395
 O984 O 0.76023 1.02846 0.73392
 O985 O 0.72348 1.00963 0.69579
 O986 O 0.77841 0.95701 0.75802
 C987 C 0.72750 1.00137 0.63340
 C988 C 0.66162 1.00428 0.70235
 C989 C 0.73269 1.07206 0.69911
 C990 C 0.77075 0.96151 0.81926
 C991 C 0.77688 0.89640 0.75443
 C992 C 0.83886 0.96580 0.75696
 H993 H 0.73907 0.91815 0.71345
 H994 H 0.81536 0.99935 0.71500
 H995 H 0.71117 1.02173 0.68252
 H996 H 0.73373 0.99870 0.79197
 H997 H 0.69584 0.96569 0.80071
 H998 H 0.67434 1.00264 0.77469
 H999 H 0.83501 0.96406 0.68620
 H1000 H 0.79669 0.99384 0.64528
 H1001 H 0.70791 0.90075 0.74776
 H1002 H 0.67421 0.93410 0.71163
 H1003 H 0.81034 1.04957 0.75254
 H1004 H 0.81018 1.05011 0.70223
 H1005 H 0.73551 0.93112 0.65000
 H1006 H 0.77303 0.90915 0.67563
 H1007 H 0.73490 1.06311 0.77106
 H1008 H 0.76771 1.02826 0.81268
 O1009 O 0.67179 0.55047 0.25901
 O1010 O 0.67954 0.54792 0.31068
 O1011 O 0.75301 0.59288 0.23201
 O1012 O 0.80016 0.58283 0.23367
 O1013 O 0.71752 0.52215 0.18039
 O1014 O 0.71739 0.47062 0.18688
 O1015 O 0.82087 0.50757 0.30915
 O1016 O 0.81353 0.55687 0.30899
 O1017 O 0.74314 0.46884 0.33769
 O1018 O 0.69104 0.47489 0.32235
 O1019 O 0.78446 0.43635 0.26494
 O1020 O 0.78757 0.44678 0.21383
 O1021 O 0.82372 0.47629 0.26987
 O1022 O 0.81467 0.48211 0.21299
 O1023 O 0.74461 0.43401 0.29461
 O1024 O 0.69271 0.44670 0.28803
 O1025 O 0.77902 0.50246 0.34414
 O1026 O 0.77502 0.55743 0.33799
 O1027 O 0.67353 0.51973 0.21911
 O1028 O 0.68361 0.46783 0.21797
 O1029 O 0.75335 0.55591 0.18635
 O1030 O 0.80466 0.54726 0.20272
 O1031 O 0.71291 0.59094 0.26152
 O1032 O 0.71393 0.57755 0.31515
 Zr1033 Zr 0.71315 0.54819 0.27872
 O1034 O 0.73481 0.51937 0.30785
 Zr1035 Zr 0.76798 0.54995 0.23091
 O1036 O 0.79273 0.52232 0.25869
 Zr1037 Zr 0.71536 0.50096 0.22232
 O1038 O 0.73835 0.47053 0.24869
 Zr1039 Zr 0.77970 0.52600 0.30360
 O1040 O 0.75800 0.55690 0.27641
 Zr1041 Zr 0.72764 0.47633 0.29393
 O1042 O 0.70250 0.50494 0.26733
 Zr1043 Zr 0.78331 0.47895 0.24727
 O1044 O 0.76051 0.50674 0.21721
 O1045 O 0.72331 0.54392 0.23365
 O1046 O 0.77248 0.48263 0.29223
 C1047 C 0.66040 0.53812 0.23596
 C1048 C 0.73043 0.60428 0.24376
 C1049 C 0.73361 0.54306 0.17064
 C1050 C 0.83436 0.48886 0.29334
 C1051 C 0.76360 0.48078 0.35311
 C1052 C 0.76729 0.42279 0.28287
 H1053 H 0.72822 0.52243 0.32862
 H1054 H 0.73376 0.45064 0.24169
 H1055 H 0.71200 0.55736 0.22081
 H1056 H 0.81353 0.52723 0.25638
 H1057 H 0.80709 0.57478 0.29864
 H1058 H 0.81434 0.57673 0.24918
 H1059 H 0.69633 0.43546 0.26957
 H1060 H 0.67187 0.46835 0.23645
 H1061 H 0.75948 0.55097 0.35168
 H1062 H 0.73271 0.58811 0.31426
 H1063 H 0.76774 0.44180 0.20680
 H1064 H 0.73738 0.47177 0.17894
 H1065 H 0.67144 0.52796 0.31068
 H1066 H 0.69398 0.48948 0.33838
 H1067 H 0.80067 0.53158 0.18805
 H1068 H 0.82938 0.49662 0.21944
 O1069 O 0.44056 0.24595 0.80159
 O1070 O 0.45386 0.19405 0.79963
 O1071 O 0.51970 0.28545 0.83197
 O1072 O 0.56722 0.28342 0.81744
 O1073 O 0.47408 0.32113 0.75882
 O1074 O 0.47050 0.30731 0.70487
 O1075 O 0.58947 0.21257 0.74242
 O1076 O 0.58652 0.21970 0.79737
 O1077 O 0.51463 0.16675 0.71957
 O1078 O 0.46048 0.17567 0.73226
 O1079 O 0.53751 0.23936 0.67120
 O1080 O 0.53262 0.29388 0.68058
 O1081 O 0.58159 0.24462 0.70439
 O1082 O 0.56992 0.29543 0.70493
 O1083 O 0.50473 0.20295 0.67845
 O1084 O 0.45585 0.20185 0.69560
 O1085 O 0.55388 0.17091 0.75059
 O1086 O 0.55840 0.17986 0.79971
 O1087 O 0.43481 0.27968 0.76470
 O1088 O 0.43765 0.27600 0.71241
 O1089 O 0.51419 0.32366 0.78898
 O1090 O 0.56375 0.31451 0.77851
 O1091 O 0.48618 0.24939 0.83789
 O1092 O 0.48785 0.19829 0.83021
 Zr1093 Zr 0.48304 0.22946 0.79567
 O1094 O 0.50675 0.20134 0.76790
 Zr1095 Zr 0.53196 0.28206 0.78665
 O1096 O 0.55676 0.25698 0.75700
 Zr1097 Zr 0.47415 0.27820 0.74141
 O1098 O 0.49578 0.25131 0.71064
 Zr1099 Zr 0.55098 0.21304 0.76771
 O1100 O 0.52808 0.23813 0.79941
 Zr1101 Zr 0.49293 0.20726 0.72343
 O1102 O 0.46724 0.23382 0.75153
 Zr1103 Zr 0.54028 0.26101 0.71291
 O1104 O 0.51836 0.28962 0.74199
 O1105 O 0.48765 0.27322 0.78553
 O1106 O 0.53715 0.21697 0.72333
 C1107 C 0.42572 0.26549 0.78760
 C1108 C 0.50124 0.27103 0.84768
 C1109 C 0.49147 0.33472 0.77694
 C1110 C 0.59712 0.22592 0.71833
 C1111 C 0.53810 0.15680 0.73176
 C1112 C 0.52280 0.21709 0.66224
 H1113 H 0.50409 0.18104 0.77466
 H1114 H 0.48767 0.25452 0.69032
 H1115 H 0.47657 0.28578 0.79925
 H1116 H 0.57742 0.26283 0.75852
 H1117 H 0.57841 0.22579 0.81687
 H1118 H 0.58427 0.27482 0.80754
 H1119 H 0.45249 0.22056 0.68526
 H1120 H 0.42992 0.25595 0.71406
 H1121 H 0.54017 0.17748 0.81096
 H1122 H 0.50751 0.20116 0.83895
 H1123 H 0.51555 0.28801 0.66835
 H1124 H 0.48823 0.31959 0.70516
 H1125 H 0.44035 0.19519 0.78229
 H1126 H 0.46862 0.16142 0.74663
 H1127 H 0.55920 0.32301 0.75863
 H1128 H 0.58365 0.29618 0.72210
 O1129 O 0.21161 0.76424 0.59458
 O1130 O 0.21980 0.81546 0.58195
 O1131 O 0.17320 0.73028 0.51560
 O1132 O 0.18361 0.73544 0.46501
 O1133 O 0.24135 0.68413 0.55433
 O1134 O 0.29367 0.69113 0.55777
 O1135 O 0.26517 0.79494 0.43840
 O1136 O 0.21228 0.79714 0.44526
 O1137 O 0.29756 0.83412 0.51922
 O1138 O 0.28851 0.82338 0.57371
 O1139 O 0.33125 0.75980 0.48481
 O1140 O 0.31718 0.70532 0.49186
 O1141 O 0.29690 0.75749 0.44315
 O1142 O 0.29002 0.70652 0.45529
 O1143 O 0.33238 0.79302 0.52246
 O1144 O 0.31837 0.79109 0.57544
 O1145 O 0.26764 0.83546 0.47843
 O1146 O 0.21888 0.83506 0.47637
 O1147 O 0.24152 0.72507 0.59730
 O1148 O 0.29276 0.72251 0.59185
 O1149 O 0.21072 0.68757 0.51409
 O1150 O 0.21595 0.69930 0.46325
 O1151 O 0.17397 0.76619 0.55064
 O1152 O 0.18849 0.81632 0.54786
 Zr1153 Zr 0.21733 0.78081 0.55094
 O1154 O 0.24730 0.80577 0.52633
 Zr1155 Zr 0.21594 0.73002 0.49855
 O1156 O 0.24674 0.75198 0.47207
 Zr1157 Zr 0.26286 0.72497 0.55571
 O1158 O 0.29534 0.74802 0.53233
 Zr1159 Zr 0.24367 0.79667 0.48020
 O1160 O 0.21042 0.77500 0.50447
 Zr1161 Zr 0.28958 0.79294 0.53821
 O1162 O 0.25963 0.76976 0.56502
 Zr1163 Zr 0.28920 0.74134 0.48620
 O1164 O 0.25831 0.71608 0.50967
 O1165 O 0.22070 0.73626 0.54440
 O1166 O 0.28596 0.78596 0.49212
 C1167 C 0.22243 0.74223 0.60838
 C1168 C 0.16117 0.74564 0.53619
 C1169 C 0.22228 0.67358 0.53590
 C1170 C 0.28536 0.77833 0.42835
 C1171 C 0.28731 0.84652 0.49563
 C1172 C 0.34388 0.77992 0.50023
 H1173 H 0.24399 0.82663 0.53026
 H1174 H 0.31482 0.74173 0.53904
 H1175 H 0.20677 0.72460 0.55622
 H1176 H 0.24315 0.74727 0.45073
 H1177 H 0.19309 0.79382 0.45460
 H1178 H 0.19306 0.74434 0.44738
 H1179 H 0.32867 0.77232 0.57468
 H1180 H 0.29405 0.74228 0.60047
 H1181 H 0.20659 0.83585 0.49437
 H1182 H 0.17781 0.81431 0.52860
 H1183 H 0.33308 0.71101 0.50575
 H1184 H 0.29344 0.68175 0.53781
 H1185 H 0.23688 0.81170 0.59501
 H1186 H 0.27414 0.83847 0.56836
 H1187 H 0.23450 0.68863 0.46486
 H1188 H 0.27372 0.70933 0.44099
 O1189 O 0.33052 0.25619 0.96799
 O1190 O 0.31864 0.20696 0.95847
 O1191 O 0.25731 0.30141 0.92994
 O1192 O 0.20968 0.30372 0.93681
 O1193 O 0.29197 0.32418 1.01742
 O1194 O 0.28550 0.30383 1.06613
 O1195 O 0.17356 0.21759 0.98697
 O1196 O 0.18695 0.22866 0.93873
 O1197 O 0.24184 0.16901 1.02429
 O1198 O 0.29622 0.17573 1.02401
 O1199 O 0.20938 0.23384 1.07425
 O1200 O 0.21199 0.28539 1.07573
 O1201 O 0.17313 0.24220 1.03118
 O1202 O 0.18635 0.29581 1.04026
 O1203 O 0.24476 0.19982 1.07018
 O1204 O 0.29772 0.20071 1.06100
 O1205 O 0.20851 0.17729 0.98744
 O1206 O 0.22123 0.19557 0.93427
 O1207 O 0.33008 0.28257 1.01113
 O1208 O 0.31572 0.26988 1.06174
 O1209 O 0.25934 0.33287 0.97994
 O1210 O 0.20557 0.32295 0.98025
 O1211 O 0.29112 0.26599 0.92424
 O1212 O 0.28735 0.21343 0.92498
 Zr1213 Zr 0.28772 0.24032 0.96336
 O1214 O 0.26009 0.20847 0.98199
 Zr1215 Zr 0.23884 0.29253 0.97179
 O1216 O 0.20866 0.26280 0.98954
 Zr1217 Zr 0.28691 0.27958 1.02595
 O1218 O 0.25851 0.25018 1.04693
 Zr1219 Zr 0.21688 0.22055 0.97395
 O1220 O 0.24444 0.25102 0.95268
 Zr1221 Zr 0.26455 0.20856 1.02889
 O1222 O 0.29521 0.23748 1.00998
 Zr1223 Zr 0.21511 0.26033 1.03619
 O1224 O 0.24358 0.29242 1.01873
 O1225 O 0.28203 0.28210 0.97965
 O1226 O 0.22116 0.21838 1.02045
 C1227 C 0.34288 0.27220 0.98807
 C1228 C 0.27734 0.28870 0.91516
 C1229 C 0.27957 0.34094 0.99827
 C1230 C 0.16092 0.22667 1.01059
 C1231 C 0.22004 0.16125 1.00789
 C1232 C 0.22340 0.21156 1.08381
 H1233 H 0.26434 0.18919 0.97349
 H1234 H 0.26224 0.25072 1.06878
 H1235 H 0.29557 0.29605 0.97017
 H1236 H 0.18882 0.26913 0.98407
 H1237 H 0.19688 0.24163 0.92430
 H1238 H 0.19407 0.28889 0.93672
 H1239 H 0.29574 0.21532 1.07709
 H1240 H 0.32585 0.25176 1.05625
 H1241 H 0.23147 0.17733 0.93923
 H1242 H 0.26873 0.21707 0.91441
 H1243 H 0.23085 0.28398 1.08638
 H1244 H 0.26670 0.31418 1.06595
 H1245 H 0.32451 0.20120 0.97903
 H1246 H 0.29206 0.16511 1.00518
 H1247 H 0.20946 0.33125 1.00036
 H1248 H 0.17268 0.29520 1.02303
 C1249 C 0.30268 0.36962 0.78795
 C1250 C 0.27710 0.38199 0.79487
 H1251 H 0.31686 0.38100 0.77256
 H1252 H 0.26213 0.37128 0.80982
 C1253 C 0.28279 -0.13962 0.28652
 C1254 C 0.25816 -0.12584 0.29341
 H1255 H 0.29591 -0.13095 0.26847
 H1256 H 0.24307 -0.13500 0.30930
 C1257 C 0.78261 0.85424 0.78948
 C1258 C 0.78817 0.86761 0.76332
 H1259 H 0.76650 0.86395 0.80389
 H1260 H 0.80312 0.85831 0.74758
 C1261 C 0.44693 0.87587 0.29334
 C1262 C 0.44304 0.86241 0.26712
 H1263 H 0.46079 0.86603 0.31027
 H1264 H 0.43000 0.87251 0.24972
 C1265 C -0.04243 0.86729 0.80519
 C1266 C -0.04620 0.85011 0.78124
 H1267 H -0.02880 0.86003 0.82364
 H1268 H -0.05873 0.85760 0.76215
 C1269 C -0.04189 -0.12187 -0.03333
 C1270 C -0.01984 -0.10685 -0.04564
 H1271 H -0.05339 -0.11175 -0.01500
 H1272 H -0.00702 -0.11548 -0.06367
 C1273 C -0.04079 0.37333 0.46364
 C1274 C -0.02765 0.39334 0.44669
 H1275 H -0.04631 0.37850 0.48660
 H1276 H -0.02267 0.38896 0.42349
 C1277 C 0.44666 -0.12643 0.45781
 C1278 C 0.47019 -0.11148 0.44883
 H1279 H 0.43395 -0.11733 0.47584
 H1280 H 0.48474 -0.12068 0.43260
 C1281 C 0.46258 0.35162 -0.03275
 C1282 C 0.48553 0.36735 -0.04189
 H1283 H 0.44843 0.36131 -0.01627
 H1284 H 0.50024 0.35936 -0.05861
 C1285 C 0.79108 0.39230 0.47051
 C1286 C 0.80278 0.37215 0.48875
 H1287 H 0.77015 0.38749 0.46029
 H1288 H 0.82370 0.37575 0.49929
 C1289 C 0.78467 0.87909 -0.05801
 C1290 C 0.78296 0.87165 -0.02909
 H1291 H 0.77356 0.86576 -0.07459
 H1292 H 0.79389 0.88481 -0.01230
 C1293 C 0.78601 0.29566 0.36018
 C1294 C 0.77172 0.30974 0.38179
 H1295 H 0.79079 0.27282 0.36342
 H1296 H 0.76688 0.33262 0.37968
 C1297 C 0.79608 0.77953 -0.13234
 C1298 C 0.77138 0.78434 -0.11784
 H1299 H 0.81167 0.76498 -0.12193
 H1300 H 0.75435 0.79719 -0.12797
 C1301 C 0.29271 0.47213 0.90292
 C1302 C 0.26963 0.46419 0.88629
 H1303 H 0.30625 0.48984 0.89498
 H1304 H 0.25596 0.44621 0.89294
 C1305 C 0.28247 -0.02862 0.39201
 C1306 C 0.25692 -0.03706 0.37984
 H1307 H 0.29443 -0.01144 0.38079
 H1308 H 0.24340 -0.05342 0.39010
 C1309 C -0.05040 -0.03546 -0.14660
 C1310 C -0.02440 -0.03588 -0.13271
 H1311 H -0.06556 -0.01861 -0.14033
 H1312 H -0.00777 -0.05077 -0.13984
 C1313 C -0.02824 0.46636 0.35338
 C1314 C -0.03349 0.48997 0.36990
 H1315 H -0.01158 0.45149 0.36110
 H1316 H -0.04956 0.50556 0.36262
 C1317 C 0.44998 -0.03239 0.35275
 C1318 C 0.47701 -0.03628 0.36367
 H1319 H 0.43616 -0.01642 0.36323
 H1320 H 0.49158 -0.05173 0.35367
 C1321 C 0.46563 0.45760 -0.14105
 C1322 C 0.48920 0.44883 -0.12554
 H1323 H 0.45386 0.47597 -0.13213
 H1324 H 0.50240 0.43118 -0.13349
 C1325 C 0.45119 0.79838 0.37750
 C1326 C 0.43914 0.77741 0.36037
 H1327 H 0.47022 0.80969 0.36920
 H1328 H 0.41967 0.76622 0.36742
 C1329 C -0.04270 0.79723 0.89391
 C1330 C -0.05096 0.77190 0.88152
 H1331 H -0.02548 0.80939 0.88309
 H1332 H -0.06777 0.75878 0.89165
 C1333 C 0.35357 0.77970 0.29383
 C1334 C 0.36451 0.78258 0.26612
 H1335 H 0.36482 0.76582 0.30973
 H1336 H 0.35403 0.79612 0.24952
 C1337 C -0.13636 0.78302 0.78349
 C1338 C -0.12519 0.75666 0.78888
 H1339 H -0.12433 0.79841 0.76991
 H1340 H -0.13718 0.74072 0.80171
 C1341 C 0.89024 0.29122 0.46674
 C1342 C 0.87061 0.27505 0.45190
 H1343 H 0.88530 0.29832 0.48929
 H1344 H 0.87445 0.26858 0.42896
 C1345 C 0.87923 0.80835 -0.02594
 C1346 C 0.86752 0.78182 -0.02674
 H1347 H 0.86745 0.82557 -0.01489
 H1348 H 0.87907 0.76431 -0.03747
 C1349 C -0.12770 -0.05423 -0.05119
 C1350 C -0.11594 -0.02796 -0.05631
 H1351 H -0.11693 -0.06916 -0.03599
 H1352 H -0.12728 -0.01256 -0.07044
 C1353 C -0.12513 0.46197 0.46971
 C1354 C -0.10976 0.48539 0.46053
 H1355 H -0.11480 0.44739 0.48562
 H1356 H -0.11884 0.50124 0.44537
 C1357 C 0.36999 -0.03701 0.45672
 C1358 C 0.38725 -0.01899 0.44103
 H1359 H 0.37844 -0.04664 0.47718
 H1360 H 0.37995 -0.00938 0.42018
 C1361 C 0.37592 0.44378 -0.03275
 C1362 C 0.39516 0.46111 -0.04667
 H1363 H 0.38372 0.43066 -0.01416
 H1364 H 0.38919 0.47367 -0.06617
 C1365 C 0.38531 0.45319 0.78498
 C1366 C 0.36743 0.46930 0.80143
 H1367 H 0.37802 0.44556 0.76317
 H1368 H 0.37378 0.47641 0.82365
 C1369 C 0.36496 -0.05288 0.28363
 C1370 C 0.34788 -0.03185 0.29452
 H1371 H 0.35647 -0.06643 0.26569
 H1372 H 0.35530 -0.01856 0.31302
 C1373 C 0.11815 0.53096 0.71106
 C1374 C 0.13656 0.54478 0.72952
 H1375 H 0.12498 0.51077 0.70087
 H1376 H 0.13056 0.56535 0.73933
 C1377 C 0.10259 0.04847 0.21288
 C1378 C 0.11320 0.02142 0.21067
 H1379 H 0.11376 0.06386 0.22738
 H1380 H 0.10241 0.00544 0.19672
 C1381 C 0.62025 0.71701 0.20419
 C1382 C 0.60451 0.71380 0.22924
 H1383 H 0.61085 0.72893 0.18554
 H1384 H 0.61335 0.70233 0.24834
 C1385 C 0.13286 0.71565 0.72425
 C1386 C 0.11962 0.71051 0.75038
 H1387 H 0.12164 0.72818 0.70715
 H1388 H 0.13058 0.69876 0.76814
 C1389 C 0.61942 0.21175 0.53082
 C1390 C 0.63890 0.22907 0.54480
 H1391 H 0.62464 0.20325 0.50888
 H1392 H 0.63499 0.23680 0.56725
 C1393 C 0.62217 0.70691 0.05926
 C1394 C 0.63217 0.71186 0.03180
 H1395 H 0.63335 0.71622 0.07850
 H1396 H 0.62061 0.70255 0.01279
 C1397 C 0.12644 0.04904 0.04362
 C1398 C 0.11106 0.05933 0.02019
 H1399 H 0.11667 0.03157 0.05647
 H1400 H 0.11931 0.07674 0.00639
 C1401 C 0.14124 0.55236 0.53377
 C1402 C 0.13192 0.52498 0.53007
 H1403 H 0.12936 0.56968 0.52273
 H1404 H 0.14336 0.50732 0.54091
 C1405 C 0.64063 0.04695 0.51713
 C1406 C 0.62305 0.02588 0.52736
 H1407 H 0.63229 0.06038 0.49903
 H1408 H 0.62950 0.01211 0.54583
 C1409 C 0.64404 0.53247 0.03165
 C1410 C 0.62674 0.51274 0.04450
 H1411 H 0.63817 0.54077 0.00966
 H1412 H 0.63152 0.50418 0.06655
 C1413 C 0.03530 0.04300 0.12538
 C1414 C 0.01227 0.05069 0.10848
 H1415 H 0.04908 0.02568 0.11735
 H1416 H -0.00362 0.06600 0.11630
 C1417 C 0.03981 0.53794 0.63323
 C1418 C 0.04908 0.51610 0.61594
 H1419 H 0.02328 0.55237 0.62438
 H1420 H 0.06486 0.50068 0.62419
 C1421 C 0.54278 0.03337 0.62417
 C1422 C 0.52159 0.04370 0.60651
 H1423 H 0.55489 0.01493 0.61589
 H1424 H 0.50863 0.06205 0.61305
 C1425 C 0.53018 0.54031 0.13415
 C1426 C 0.53382 0.51337 0.12345
 H1427 H 0.51715 0.55561 0.12142
 H1428 H 0.54625 0.49772 0.13625
 C1429 C 0.20363 0.53865 0.62653
 C1430 C 0.22864 0.54277 0.64173
 H1431 H 0.18746 0.52378 0.63531
 H1432 H 0.24542 0.55662 0.63254
 C1433 C 0.20491 0.04498 0.12005
 C1434 C 0.19687 0.01982 0.13284
 H1435 H 0.22062 0.05868 0.13162
 H1436 H 0.18184 0.00531 0.12153
 C1437 C 0.71485 0.20676 0.63311
 C1438 C 0.73249 0.19605 0.61203
 H1439 H 0.70635 0.22845 0.62975
 H1440 H 0.74129 0.17445 0.61416
 C1441 C 0.70948 0.70457 0.14068
 C1442 C 0.70919 0.73061 0.12753
 H1443 H 0.72190 0.68719 0.13071
 H1444 H 0.69721 0.74809 0.13783
 C1445 C 0.53171 0.68837 0.11690
 C1446 C 0.52850 0.71594 0.12560
 H1447 H 0.52059 0.67113 0.12889
 H1448 H 0.53925 0.73333 0.11359
 C1449 C 0.05715 0.70745 0.63423
 C1450 C 0.03272 0.69922 0.64813
 H1451 H 0.07179 0.72266 0.64522
 H1452 H 0.01727 0.68495 0.63713
 C1453 C 0.53918 0.61570 0.21541
 C1454 C 0.51202 0.62578 0.21349
 H1455 H 0.55538 0.62862 0.22723
 H1456 H 0.49536 0.61344 0.20186
 C1457 C 0.03259 0.60015 0.72258
 C1458 C 0.04276 0.61641 0.74542
 H1459 H 0.01241 0.60671 0.71191
 H1460 H 0.06279 0.61086 0.75682
 C1461 C 0.03916 0.14772 0.01973
 C1462 C 0.01270 0.13561 0.02081
 H1463 H 0.05560 0.13711 0.00642
 H1464 H -0.00424 0.14554 0.03388
 C1465 C 0.04971 0.62961 0.55677
 C1466 C 0.05151 0.61922 0.52894
 H1467 H 0.03866 0.61669 0.57359
 H1468 H 0.06208 0.63161 0.51153
 C1469 C 0.53732 0.13848 0.53529
 C1470 C 0.54380 0.12435 0.50993
 H1471 H 0.52127 0.12887 0.54999
 H1472 H 0.55965 0.13319 0.49467
 C1473 C 0.56152 0.61751 0.03752
 C1474 C 0.53549 0.60430 0.03550
 H1475 H 0.58036 0.60699 0.02811
 H1476 H 0.51647 0.61499 0.04416
 C1477 C 0.72038 0.11706 0.52277
 C1478 C 0.70742 0.13758 0.50599
 H1479 H 0.74106 0.12253 0.53324
 H1480 H 0.68652 0.13408 0.49543
 C1481 C 0.70137 0.62189 0.04148
 C1482 C 0.72514 0.63719 0.04837
 H1483 H 0.68590 0.63092 0.02558
 H1484 H 0.74121 0.62822 0.06359
 C1485 C 0.20559 0.63635 0.73427
 C1486 C 0.23101 0.62316 0.72994
 H1487 H 0.18941 0.62552 0.74791
 H1488 H 0.24783 0.63348 0.71687
 C1489 C 0.19562 0.11864 0.19583
 C1490 C 0.19512 0.10808 0.22367
 H1491 H 0.20522 0.10594 0.17805
 H1492 H 0.18615 0.12061 0.24183
 C1493 C 0.70804 1.11931 0.70227
 C1494 C 0.72774 1.10225 0.68939
 H1495 H 0.69618 1.11024 0.72105
 H1496 H 0.74073 1.10990 0.67092
 C1497 C 0.69585 0.64293 0.23169
 C1498 C 0.72337 0.63379 0.23368
 H1499 H 0.67879 0.63030 0.24223
 H1500 H 0.74069 0.64634 0.22361
 C1501 C 0.53886 0.11187 0.70061
 C1502 C 0.54892 0.12757 0.72385
 H1503 H 0.52067 0.12044 0.68786
 H1504 H 0.56713 0.11993 0.73699
 C1505 C 1.02967 0.12731 0.19249
 C1506 C 1.02992 0.13924 0.21962
 H1507 H 1.02053 0.13943 0.17382
 H1508 H 1.03857 0.12722 0.23854
 C1509 C 0.21334 0.62872 0.56488
 C1510 C 0.21211 0.64352 0.53914
 H1511 H 0.22406 0.63858 0.58411
 H1512 H 0.20206 0.63401 0.51947
 C1513 C 0.21263 0.11775 1.03914
 C1514 C 0.20593 0.13292 1.01426
 H1515 H 0.23055 0.12550 1.05294
 H1516 H 0.18832 0.12614 0.99966
 C1517 C 0.21598 0.71059 0.65253
 C1518 C 0.21081 0.73581 0.63838
 H1519 H 0.23096 0.69542 0.64251
 H1520 H 0.19649 0.75176 0.64795
 C1521 C 0.19074 0.20463 1.12717
 C1522 C 0.21508 0.19805 1.11236
 H1523 H 0.17690 0.22178 1.11862
 H1524 H 0.22981 0.18180 1.12095
 C1525 C 0.70756 0.54301 0.12206
 C1526 C 0.72840 0.55419 0.13987
 H1527 H 0.69545 0.52434 0.13014
 H1528 H 0.74152 0.57230 0.13236
 C1529 C 0.72388 1.03514 0.59087
 C1530 C 0.71682 1.00957 0.60325
 H1531 H 0.74030 1.04834 0.60201
 H1532 H 0.70078 0.99556 0.59280
 C1533 C 0.54585 0.21790 0.61239
 C1534 C 0.52734 0.20570 0.63178
 H1535 H 0.55675 0.23790 0.61888
 H1536 H 0.51647 0.18548 0.62648
 C1537 C 1.03260 0.21461 0.10757
 C1538 C 1.04137 0.23685 0.12523
 H1539 H 1.01456 0.20131 0.11511
 H1540 H 1.05806 0.25187 0.11832
 C1541 C 0.64414 0.20100 0.71737
 C1542 C 0.62507 0.21902 0.70460
 H1543 H 0.63940 0.19194 0.73926
 H1544 H 0.62876 0.22751 0.68232
 C1545 C 1.12472 0.19718 0.21617
 C1546 C 1.11907 0.22530 0.21991
 H1547 H 1.10996 0.18110 0.22540
 H1548 H 1.13358 0.24153 0.21065
 C1549 C 0.12162 0.71050 0.54341
 C1550 C 0.13191 0.73760 0.54662
 H1551 H 0.13327 0.69559 0.52912
 H1552 H 0.12070 0.75300 0.56062
 C1553 C 0.11633 0.22159 1.03975
 C1554 C 0.13047 0.21793 1.01403
 H1555 H 0.12710 0.23320 1.05789
 H1556 H 0.12019 0.20718 0.99516
 C1557 C 0.61697 0.54111 0.20279
 C1558 C 0.63035 0.54664 0.22897
 H1559 H 0.62798 0.52804 0.18624
 H1560 H 0.61938 0.55880 0.24617
 C1561 C 0.61859 1.03627 0.70215
 C1562 C 0.63151 1.01138 0.69370
 H1563 H 0.63003 1.05056 0.71760
 H1564 H 0.62069 0.99606 0.67905
 C1565 C 0.88246 0.46809 0.28462
 C1566 C 0.86414 0.48162 0.30296
 H1567 H 0.87493 0.46238 0.26227
 H1568 H 0.87070 0.48749 0.32550
 C1569 C 0.87667 0.93386 0.77704
 C1570 C 0.86801 0.96034 0.76899
 H1571 H 0.86336 0.91521 0.77098
 H1572 H 0.88106 0.97915 0.77488
 C1573 C 0.38086 0.29503 0.78874
 C1574 C 0.39683 0.27283 0.79962
 H1575 H 0.38918 0.30711 0.76976
 H1576 H 0.38969 0.26028 0.81864
 C1577 C 0.86762 0.29380 0.29034
 C1578 C 0.88268 0.30007 0.26568
 H1579 H 0.87603 0.27730 0.30542
 H1580 H 0.87475 0.31621 0.25003
 C1581 C 0.38151 0.78725 0.46239
 C1582 C 0.37254 0.79067 0.49065
 H1583 H 0.36925 0.77297 0.44760
 H1584 H 0.38450 0.80455 0.50600
 C1585 C 0.38815 0.27421 0.95916
 C1586 C 0.37346 0.28072 0.98402
 H1587 H 0.37807 0.26019 0.94250
 H1588 H 0.38349 0.29371 1.00150
 C1589 C 0.79225 0.47716 0.39988
 C1590 C 0.77058 0.46732 0.38229
 H1591 H 0.80337 0.49696 0.39328
 H1592 H 0.75911 0.44748 0.38764
 C1593 C 0.80442 0.95186 0.86110
 C1594 C 0.77741 0.95229 0.84999
 H1595 H 0.82193 0.96124 0.84809
 H1596 H 0.75959 0.94336 0.86278
 C1597 C 0.28273 0.79847 0.37700
 C1598 C 0.29672 0.78292 0.39789
 H1599 H 0.26233 0.80852 0.38297
 H1600 H 0.31724 0.77281 0.39288
 C1601 C 0.30392 0.28978 0.86737
 C1602 C 0.28535 0.30215 0.88638
 H1603 H 0.31294 0.26881 0.87328
 H1604 H 0.27625 0.32326 0.88165
 C1605 C 0.47488 0.26903 0.89532
 C1606 C 0.49501 0.28184 0.87802
 H1607 H 0.46570 0.24845 0.88806
 H1608 H 0.50452 0.30254 0.88407
 C1609 C 0.96767 0.29668 0.38590
 C1610 C 0.95413 0.28050 0.36516
 H1611 H 0.98899 0.30545 0.38087
 H1612 H 0.93255 0.27202 0.36924
 C1613 C 0.45842 0.37602 0.78333
 C1614 C 0.48489 0.36463 0.78625
 H1615 H 0.44182 0.36365 0.77147
 H1616 H 0.50198 0.37666 0.79761
 C1617 C 0.95880 0.39563 0.27030
 C1618 C 0.97313 0.37531 0.28569
 H1619 H 0.95090 0.39096 0.24784
 H1620 H 0.97969 0.37935 0.30869
 C1621 C 0.28936 0.88985 0.46362
 C1622 C 0.29933 0.87521 0.48756
 H1623 H 0.27128 0.88072 0.45098
 H1624 H 0.31661 0.88398 0.50147
 C1625 C 0.28386 0.38803 0.97285
 C1626 C 0.29135 0.37063 0.99569
 H1627 H 0.26589 0.38159 0.95839
 H1628 H 0.30853 0.37684 1.01113
 C1629 C 0.79940 0.37961 0.28718
 C1630 C 0.77362 0.39243 0.29148
 H1631 H 0.81599 0.39134 0.27492
 H1632 H 0.75645 0.38097 0.30297
   
