data_POSCAR
  _audit_creation_date              2014-09-24
  _audit_creation_method            'ToBaCCo'
  _symmetry_space_group_name_H-M    'P1'
  _symmetry_Int_Tables_number       1
  _symmetry_cell_setting            triclinic
  loop_
  _symmetry_equiv_pos_as_xyz
 x,y,z
_cell_length_a 54.8562
_cell_length_b 54.8729
_cell_length_c 54.8421
_cell_angle_alpha 89.951800
_cell_angle_beta 90.090000
_cell_angle_gamma 89.976900
loop_
  _atom_site_label
  _atom_site_type_symbol
  _atom_site_fract_x
  _atom_site_fract_y
  _atom_site_fract_z
C1 C 0.13300 -0.03479 0.25544
 C2 C 0.12354 -0.01149 0.26011
 C3 C 0.11362 -0.00626 0.28303
 C4 C 0.11285 -0.02413 0.30126
 C5 C 0.12250 -0.04732 0.29644
 C6 C 0.13310 -0.05305 0.27366
 C7 C 0.12462 0.00772 0.24121
 C8 C 0.11483 0.00357 0.21791
 C9 C 0.11487 0.02206 0.19992
 C10 C 0.12587 0.04458 0.20592
 C11 C 0.13589 0.04886 0.22911
 C12 C 0.13499 0.03037 0.24670
 H13 H 0.14161 -0.03784 0.23798
 H14 H 0.10649 0.01180 0.28663
 H15 H 0.10592 -0.01370 0.21467
 H16 H 0.14241 0.03355 0.26474
 H17 H 0.12052 -0.06120 0.31031
 H18 H 0.12792 0.05864 0.19225
 C19 C 0.36598 -0.03194 0.74499
 C20 C 0.37638 -0.00902 0.74047
 C21 C 0.38698 -0.00420 0.71770
 C22 C 0.38751 -0.02218 0.69953
 C23 C 0.37673 -0.04491 0.70420
 C24 C 0.36572 -0.04990 0.72676
 C25 C 0.37578 0.01011 0.75939
 C26 C 0.38549 0.00564 0.78265
 C27 C 0.38573 0.02399 0.80075
 C28 C 0.37505 0.04672 0.79488
 C29 C 0.36508 0.05130 0.77171
 C30 C 0.36579 0.03295 0.75400
 H31 H 0.35729 -0.03540 0.76238
 H32 H 0.39538 0.01337 0.71442
 H33 H 0.39410 -0.01182 0.78580
 H34 H 0.35843 0.03635 0.73596
 H35 H 0.37680 -0.05876 0.69014
 H36 H 0.37317 0.06069 0.80864
 C37 C 0.86573 0.46867 0.24490
 C38 C 0.87527 0.49198 0.24051
 C39 C 0.88536 0.49739 0.21765
 C40 C 0.88618 0.47966 0.19922
 C41 C 0.87639 0.45646 0.20384
 C42 C 0.86591 0.45084 0.22652
 C43 C 0.87433 0.51088 0.25969
 C44 C 0.88405 0.50620 0.28292
 C45 C 0.88410 0.52433 0.30123
 C46 C 0.87324 0.54703 0.29563
 C47 C 0.86332 0.55185 0.27251
 C48 C 0.86415 0.53371 0.25457
 H49 H 0.85739 0.46475 0.26237
 H50 H 0.89260 0.51544 0.21426
 H51 H 0.89284 0.48880 0.28587
 H52 H 0.85678 0.53730 0.23657
 H53 H 0.87739 0.44254 0.18988
 H54 H 0.87123 0.56081 0.30956
 C55 C 0.63534 0.46721 0.75566
 C56 C 0.62532 0.49028 0.76021
 C57 C 0.61539 0.49541 0.78319
 C58 C 0.61509 0.47755 0.80156
 C59 C 0.62537 0.45459 0.79678
 C60 C 0.63573 0.44930 0.77396
 C61 C 0.62539 0.50911 0.74095
 C62 C 0.61539 0.50404 0.71796
 C63 C 0.61531 0.52182 0.69953
 C64 C 0.62586 0.54467 0.70426
 C65 C 0.63628 0.54990 0.72708
 C66 C 0.63567 0.53207 0.74546
 H67 H 0.64354 0.46354 0.73808
 H68 H 0.60778 0.51329 0.78668
 H69 H 0.60759 0.48623 0.71450
 H70 H 0.64392 0.53570 0.76305
 H71 H 0.62478 0.44056 0.81067
 H72 H 0.62544 0.55865 0.69031
 C73 C 0.24581 0.13376 1.03270
 C74 C 0.24114 0.12347 1.00981
 C75 C 0.21809 0.11356 1.00480
 C76 C 0.19945 0.11355 1.02257
 C77 C 0.20468 0.12422 1.04543
 C78 C 0.22757 0.13449 1.05053
 C79 C 0.26025 0.12361 0.99085
 C80 C 0.28336 0.11378 0.99579
 C81 C 0.30201 0.11402 0.97804
 C82 C 0.29675 0.12494 0.95527
 C83 C 0.27379 0.13514 0.95024
 C84 C 0.25554 0.13412 0.96806
 H85 H 0.26343 0.14195 1.03627
 H86 H 0.21479 0.10651 0.98668
 H87 H 0.28667 0.10658 1.01386
 H88 H 0.23787 0.14226 0.96456
 H89 H 0.19146 0.12358 1.06002
 H90 H 0.30999 0.12455 0.94070
 C91 C 0.75458 0.36541 1.03288
 C92 C 0.75930 0.37535 1.00979
 C93 C 0.78210 0.38570 1.00491
 C94 C 0.80012 0.38651 1.02303
 C95 C 0.79529 0.37624 1.04599
 C96 C 0.77254 0.36544 1.05138
 C97 C 0.74018 0.37524 0.99078
 C98 C 0.71716 0.38528 0.99557
 C99 C 0.69855 0.38520 0.97772
 C100 C 0.70376 0.37423 0.95500
 C101 C 0.72667 0.36386 0.95011
 C102 C 0.74488 0.36474 0.96802
 H103 H 0.73654 0.35824 1.03631
 H104 H 0.78546 0.39383 0.98722
 H105 H 0.71388 0.39253 1.01360
 H106 H 0.76252 0.35651 0.96462
 H107 H 0.81001 0.37566 1.05911
 H108 H 0.69055 0.37471 0.94036
 C109 C 0.25616 0.86483 0.53151
 C110 C 0.26019 0.87481 0.50836
 C111 C 0.28305 0.88476 0.50269
 C112 C 0.30212 0.88517 0.52006
 C113 C 0.29754 0.87476 0.54320
 C114 C 0.27482 0.86447 0.54898
 C115 C 0.24048 0.87459 0.48995
 C116 C 0.21758 0.88450 0.49554
 C117 C 0.19869 0.88436 0.47824
 C118 C 0.20286 0.87373 0.45533
 C119 C 0.22557 0.86340 0.44955
 C120 C 0.24441 0.86420 0.46692
 H121 H 0.23865 0.85667 0.53560
 H122 H 0.28584 0.89163 0.48441
 H123 H 0.21455 0.89239 0.51339
 H124 H 0.26193 0.85601 0.46287
 H125 H 0.31110 0.87570 0.55749
 H126 H 0.18855 0.87402 0.44170
 C127 C 0.74487 0.63511 0.53166
 C128 C 0.74025 0.62490 0.50868
 C129 C 0.71721 0.61501 0.50362
 C130 C 0.69886 0.61495 0.52146
 C131 C 0.70373 0.62541 0.54434
 C132 C 0.72659 0.63572 0.54955
 C133 C 0.75948 0.62476 0.48984
 C134 C 0.78243 0.61466 0.49498
 C135 C 0.80117 0.61453 0.47733
 C136 C 0.79619 0.62536 0.45447
 C137 C 0.77340 0.63583 0.44923
 C138 C 0.75502 0.63515 0.46694
 H139 H 0.76249 0.64328 0.53528
 H140 H 0.71367 0.60726 0.48580
 H141 H 0.78555 0.60751 0.51311
 H142 H 0.73747 0.64345 0.46327
 H143 H 0.68986 0.62499 0.55837
 H144 H 0.80950 0.62467 0.43997
 C145 C -0.03170 0.25582 0.13438
 C146 C -0.00876 0.25985 0.12399
 C147 C -0.00330 0.28266 0.11378
 C148 C -0.02066 0.30170 0.11359
 C149 C -0.04359 0.29713 0.12439
 C150 C -0.04915 0.27447 0.13494
 C151 C 0.00986 0.24038 0.12442
 C152 C 0.00460 0.21729 0.11476
 C153 C 0.02208 0.19836 0.11521
 C154 C 0.04489 0.20333 0.12616
 C155 C 0.05023 0.22627 0.13619
 C156 C 0.03268 0.24479 0.13497
 H157 H -0.03560 0.23838 0.14280
 H158 H 0.01486 0.28547 0.10666
 H159 H -0.01349 0.21423 0.10750
 H160 H 0.03643 0.26245 0.14295
 H161 H -0.05788 0.31068 0.12363
 H162 H 0.05929 0.18987 0.12590
 C163 C -0.03406 0.74530 0.36541
 C164 C -0.01108 0.73998 0.37535
 C165 C -0.00655 0.71673 0.38501
 C166 C -0.02492 0.69888 0.38512
 C167 C -0.04772 0.70441 0.37476
 C168 C -0.05246 0.72753 0.36483
 C169 C 0.00807 0.75891 0.37590
 C170 C 0.00319 0.78178 0.38622
 C171 C 0.02112 0.80003 0.38658
 C172 C 0.04396 0.79523 0.37609
 C173 C 0.04903 0.77255 0.36535
 C174 C 0.03105 0.75432 0.36566
 H175 H -0.03754 0.76332 0.35808
 H176 H 0.01103 0.71288 0.39320
 H177 H -0.01462 0.78533 0.39396
 H178 H 0.03455 0.73686 0.35715
 H179 H -0.06165 0.69045 0.37395
 H180 H 0.05805 0.80905 0.37672
 C181 C 0.46795 0.24466 0.86493
 C182 C 0.49079 0.23990 0.87529
 C183 C 0.49572 0.21681 0.88513
 C184 C 0.47790 0.19821 0.88506
 C185 C 0.45508 0.20350 0.87426
 C186 C 0.45006 0.22647 0.86405
 C187 C 0.50978 0.25901 0.87547
 C188 C 0.50483 0.28196 0.88556
 C189 C 0.52265 0.30056 0.88580
 C190 C 0.54550 0.29540 0.87508
 C191 C 0.55054 0.27259 0.86461
 C192 C 0.53264 0.25439 0.86516
 H193 H 0.46445 0.26233 0.85681
 H194 H 0.51382 0.21346 0.89224
 H195 H 0.48671 0.28521 0.89262
 H196 H 0.53616 0.23683 0.85684
 H197 H 0.44046 0.19030 0.87477
 H198 H 0.56011 0.30859 0.87584
 C199 C 0.46760 0.75486 0.63376
 C200 C 0.49062 0.75989 0.62389
 C201 C 0.49526 0.78287 0.61371
 C202 C 0.47697 0.80077 0.61306
 C203 C 0.45410 0.79559 0.62336
 C204 C 0.44926 0.77272 0.63384
 C205 C 0.50983 0.74104 0.62410
 C206 C 0.50534 0.71805 0.61387
 C207 C 0.52359 0.70009 0.61378
 C208 C 0.54619 0.70521 0.62468
 C209 C 0.55082 0.72803 0.63530
 C210 C 0.53262 0.74601 0.63460
 H211 H 0.46407 0.73703 0.64150
 H212 H 0.51290 0.78646 0.60559
 H213 H 0.48789 0.71445 0.60533
 H214 H 0.53584 0.76362 0.64294
 H215 H 0.44022 0.80963 0.62376
 H216 H 0.56025 0.69135 0.62493
 C217 C 0.86512 1.03214 0.75501
 C218 C 0.87555 1.00944 0.75993
 C219 C 0.88617 1.00501 0.78272
 C220 C 0.88692 1.02321 0.80092
 C221 C 0.87577 1.04592 0.79562
 C222 C 0.86477 1.05042 0.77282
 C223 C 0.87525 0.99018 0.74116
 C224 C 0.88528 0.99463 0.71813
 C225 C 0.88578 0.97634 0.70002
 C226 C 0.87527 0.95347 0.70575
 C227 C 0.86485 0.94895 0.72875
 C228 C 0.86523 0.96737 0.74642
 H229 H 0.85708 1.03546 0.73725
 H230 H 0.89328 0.98694 0.78616
 H231 H 0.89394 1.01209 0.71519
 H232 H 0.85763 0.96404 0.76435
 H233 H 0.87603 1.06053 0.80882
 H234 H 0.87387 0.93941 0.69201
 C235 C 0.36342 0.53120 0.25496
 C236 C 0.37404 0.50850 0.25979
 C237 C 0.38454 0.50402 0.28263
 C238 C 0.38485 0.52217 0.30066
 C239 C 0.37377 0.54480 0.29573
 C240 C 0.36284 0.54941 0.27293
 C241 C 0.37417 0.48937 0.24093
 C242 C 0.38468 0.49390 0.21814
 C243 C 0.38538 0.47564 0.20022
 C244 C 0.37464 0.45286 0.20520
 C245 C 0.36368 0.44823 0.22794
 C246 C 0.36389 0.46655 0.24581
 H247 H 0.35546 0.53457 0.23717
 H248 H 0.39259 0.48635 0.28628
 H249 H 0.39248 0.51167 0.21447
 H250 H 0.35595 0.46314 0.26357
 H251 H 0.37366 0.55881 0.30962
 H252 H 0.37484 0.43876 0.19141
 C253 C 0.63568 1.03414 0.24474
 C254 C 0.62504 1.01147 0.23990
 C255 C 0.61497 1.00689 0.21688
 C256 C 0.61522 1.02489 0.19865
 C257 C 0.62620 1.04754 0.20369
 C258 C 0.63670 1.05223 0.22665
 C259 C 0.62471 0.99244 0.25894
 C260 C 0.61472 0.99739 0.28190
 C261 C 0.61412 0.97944 0.30039
 C262 C 0.62454 0.95641 0.29510
 C263 C 0.63489 0.95139 0.27219
 C264 C 0.63453 0.96946 0.25413
 H265 H 0.64336 1.03758 0.26263
 H266 H 0.60631 0.98948 0.21345
 H267 H 0.60626 1.01500 0.28454
 H268 H 0.64215 0.96576 0.23629
 H269 H 0.62719 1.06125 0.18950
 H270 H 0.62597 0.94262 0.30913
 C271 C 0.13608 0.53324 0.74421
 C272 C 0.12554 0.51046 0.73974
 C273 C 0.11491 0.50568 0.71703
 C274 C 0.11438 0.52364 0.69878
 C275 C 0.12537 0.54637 0.70335
 C276 C 0.13644 0.55125 0.72601
 C277 C 0.12556 0.49158 0.75888
 C278 C 0.11512 0.49639 0.78163
 C279 C 0.11456 0.47840 0.79984
 C280 C 0.12541 0.45559 0.79520
 C281 C 0.13633 0.45068 0.77249
 C282 C 0.13594 0.46874 0.75433
 H283 H 0.14413 0.53685 0.76190
 H284 H 0.10691 0.48794 0.71367
 H285 H 0.10724 0.51418 0.78503
 H286 H 0.14383 0.46511 0.73660
 H287 H 0.12530 0.56024 0.68929
 H288 H 0.12533 0.44168 0.80922
 C289 C 0.74673 0.86503 -0.03292
 C290 C 0.74141 0.87548 -0.01028
 C291 C 0.71828 0.88543 -0.00610
 C292 C 0.70042 0.88522 -0.02447
 C293 C 0.70592 0.87442 -0.04709
 C294 C 0.72900 0.86405 -0.05138
 C295 C 0.76003 0.87571 0.00916
 C296 C 0.78305 0.88585 0.00482
 C297 C 0.80115 0.88632 0.02318
 C298 C 0.79542 0.87566 0.04600
 C299 C 0.77245 0.86513 0.05039
 C300 C 0.75478 0.86561 0.03194
 H301 H 0.76470 0.85744 -0.03604
 H302 H 0.71449 0.89395 0.01131
 H303 H 0.78601 0.89452 -0.01265
 H304 H 0.73690 0.85786 0.03516
 H305 H 0.69201 0.87347 -0.06109
 H306 H 0.80915 0.87418 0.06009
 C307 C 0.24508 0.36395 0.46745
 C308 C 0.24008 0.37428 0.49025
 C309 C 0.21721 0.38469 0.49463
 C310 C 0.19931 0.38521 0.47632
 C311 C 0.20441 0.37445 0.45360
 C312 C 0.22726 0.36367 0.44903
 C313 C 0.25880 0.37425 0.50957
 C314 C 0.28161 0.38481 0.50531
 C315 C 0.29933 0.38564 0.52380
 C316 C 0.29414 0.37493 0.54657
 C317 C 0.27138 0.36389 0.55096
 C318 C 0.25372 0.36400 0.53239
 H319 H 0.26264 0.35544 0.46440
 H320 H 0.21345 0.39254 0.51236
 H321 H 0.28543 0.39262 0.48756
 H322 H 0.23593 0.35604 0.53561
 H323 H 0.19083 0.37503 0.43925
 H324 H 0.30778 0.37523 0.56086
 C325 C 0.25452 0.63584 -0.03300
 C326 C 0.25883 0.62499 -0.01029
 C327 C 0.28142 0.61408 -0.00553
 C328 C 0.29969 0.61360 -0.02344
 C329 C 0.29526 0.62489 -0.04609
 C330 C 0.27274 0.63624 -0.05094
 C331 C 0.23965 0.62512 0.00851
 C332 C 0.21672 0.61510 0.00345
 C333 C 0.19814 0.61465 0.02125
 C334 C 0.20327 0.62527 0.04423
 C335 C 0.22616 0.63568 0.04935
 C336 C 0.24433 0.63516 0.03144
 H337 H 0.23693 0.64411 -0.03659
 H338 H 0.28467 0.60585 0.01215
 H339 H 0.21423 0.60645 -0.01409
 H340 H 0.26218 0.64276 0.03522
 H341 H 0.30932 0.62485 -0.05992
 H342 H 0.18916 0.62677 0.05790
 C343 C 0.75517 0.13547 0.46785
 C344 C 0.75953 0.12486 0.49060
 C345 C 0.78219 0.11415 0.49551
 C346 C 0.80082 0.11358 0.47775
 C347 C 0.79607 0.12488 0.45499
 C348 C 0.77343 0.13592 0.45001
 C349 C 0.74048 0.12539 0.50954
 C350 C 0.71742 0.11551 0.50486
 C351 C 0.69928 0.11557 0.52291
 C352 C 0.70443 0.12620 0.54571
 C353 C 0.72744 0.13654 0.55051
 C354 C 0.74543 0.13572 0.53235
 H355 H 0.73755 0.14363 0.46417
 H356 H 0.78520 0.10693 0.51362
 H357 H 0.71394 0.10705 0.48734
 H358 H 0.76337 0.14321 0.53587
 H359 H 0.80961 0.12473 0.44070
 H360 H 0.69033 0.12698 0.55949
 C361 C 1.03312 0.75518 0.86522
 C362 C 1.01040 0.75996 0.87562
 C363 C 1.00576 0.78280 0.88600
 C364 C 1.02377 0.80122 0.88640
 C365 C 1.04655 0.79596 0.87543
 C366 C 1.05123 0.77316 0.86467
 C367 C 0.99130 0.74100 0.87544
 C368 C 0.99602 0.71787 0.88520
 C369 C 0.97797 0.69950 0.88531
 C370 C 0.95507 0.70509 0.87467
 C371 C 0.95030 0.72818 0.86453
 C372 C 0.96846 0.74610 0.86537
 H373 H 1.03658 0.73742 0.85729
 H374 H 0.98837 0.78540 0.89489
 H375 H 1.01351 0.71502 0.89387
 H376 H 0.96494 0.76408 0.85795
 H377 H 1.06035 0.80993 0.87389
 H378 H 0.94122 0.69119 0.87291
 C379 C 0.53355 0.25598 0.36399
 C380 C 0.51077 0.26043 0.37455
 C381 C 0.50606 0.28303 0.38536
 C382 C 0.52408 0.30118 0.38607
 C383 C 0.54680 0.29664 0.37505
 C384 C 0.55162 0.27410 0.36380
 C385 C 0.49186 0.24137 0.37441
 C386 C 0.49667 0.21852 0.38469
 C387 C 0.47863 0.20039 0.38519
 C388 C 0.45577 0.20521 0.37447
 C389 C 0.45086 0.22802 0.36373
 C390 C 0.46896 0.24610 0.36415
 H391 H 0.53711 0.23837 0.35581
 H392 H 0.48833 0.28637 0.39339
 H393 H 0.51449 0.21498 0.39249
 H394 H 0.46534 0.26391 0.35639
 H395 H 0.56071 0.31064 0.37525
 H396 H 0.44183 0.19125 0.37452
 C397 C 1.03211 0.24496 0.63610
 C398 C 1.00930 0.24028 0.62574
 C399 C 1.00450 0.21746 0.61542
 C400 C 1.02246 0.19900 0.61485
 C401 C 1.04528 0.20408 0.62585
 C402 C 1.05019 0.22692 0.63649
 C403 C 0.99034 0.25937 0.62559
 C404 C 0.99517 0.28210 0.61506
 C405 C 0.97723 0.30058 0.61423
 C406 C 0.95439 0.29562 0.62520
 C407 C 0.94945 0.27288 0.63605
 C408 C 0.96751 0.25481 0.63590
 H409 H 1.03546 0.26251 0.64450
 H410 H 0.98636 0.21424 0.60836
 H411 H 1.01331 0.28525 0.60804
 H412 H 0.96414 0.23733 0.64448
 H413 H 1.05994 0.19093 0.62511
 H414 H 0.93976 0.30879 0.62428
 C415 C 0.53038 0.74497 0.13491
 C416 C 0.50767 0.74013 0.12433
 C417 C 0.50318 0.71728 0.11392
 C418 C 0.52138 0.69925 0.11368
 C419 C 0.54403 0.70422 0.12472
 C420 C 0.54861 0.72701 0.13557
 C421 C 0.48853 0.75900 0.12434
 C422 C 0.49310 0.78192 0.11409
 C423 C 0.47503 0.80005 0.11399
 C424 C 0.45231 0.79505 0.12482
 C425 C 0.44762 0.77219 0.13550
 C426 C 0.46579 0.75416 0.13482
 H427 H 0.53375 0.76275 0.14282
 H428 H 0.48549 0.71361 0.10592
 H429 H 0.51059 0.78533 0.10557
 H430 H 0.46237 0.73635 0.14264
 H431 H 0.55808 0.69035 0.12489
 H432 H 0.43855 0.80918 0.12554
 O433 O -0.00793 0.93133 0.98076
 O434 O 0.01248 0.92952 1.01968
 O435 O -0.06802 0.98009 0.99376
 O436 O -0.07387 1.01809 1.00662
 O437 O -0.01924 0.99259 0.93191
 O438 O 0.02087 1.00876 0.92874
 O439 O -0.00340 1.04634 1.05520
 O440 O -0.03896 1.02395 1.05981
 O441 O 0.05386 0.99633 1.04800
 O442 O 0.05909 0.95869 1.02017
 O443 O 0.04741 1.05333 0.99792
 O444 O 0.02156 1.06106 0.96196
 O445 O 0.00966 1.06711 1.02165
 O446 O -0.00823 1.07175 0.98009
 O447 O 0.06822 1.01966 1.01042
 O448 O 0.07354 0.98000 0.99369
 O449 O 0.02055 1.01013 1.06850
 O450 O -0.01834 0.98685 1.07074
 O451 O 0.00534 0.95231 0.94741
 O452 O 0.03971 0.97806 0.94039
 O453 O -0.05293 1.00478 0.95278
 O454 O -0.05827 1.04045 0.97923
 O455 O -0.04701 0.94597 1.00488
 O456 O -0.02272 0.94295 1.04159
 Zr457 Zr -0.01082 0.95822 1.00801
 O458 O 0.01149 0.97922 1.03123
 Zr459 Zr -0.04124 1.00727 0.98926
 O460 O -0.02035 1.03013 1.01197
 Zr461 Zr 0.00776 0.98884 0.95900
 O462 O 0.03085 1.01101 0.98019
 Zr463 Zr -0.00735 1.01057 1.04220
 O464 O -0.03074 0.98845 1.02100
 Zr465 Zr 0.04170 0.99212 1.01175
 O466 O 0.02079 0.96900 0.98909
 Zr467 Zr 0.01126 1.04117 0.99339
 O468 O -0.01108 1.02049 0.96959
 O469 O -0.02315 0.97644 0.97695
 O470 O 0.02374 1.02307 1.02434
 C471 C -0.00054 0.93258 0.95857
 C472 C -0.06677 0.95755 1.00008
 C473 C -0.04155 0.99953 0.93306
 C474 C 0.00360 1.06579 1.04423
 C475 C 0.04303 1.00382 1.06733
 C476 C 0.06691 1.04227 1.00467
 H477 H 0.01636 0.96930 1.04549
 H478 H 0.04498 1.01603 0.97023
 H479 H -0.03361 0.96611 0.96648
 H480 H -0.03039 1.04413 1.01723
 H481 H -0.05213 1.01206 1.05651
 H482 H -0.06911 1.02655 1.02181
 H483 H 0.07397 0.98800 0.97754
 H484 H 0.04834 0.96650 0.95127
 H485 H -0.01693 0.99586 1.08635
 H486 H -0.02917 0.92633 1.03864
 H487 H 0.03524 1.05229 0.95416
 H488 H 0.01287 1.02492 0.92938
 H489 H 0.00374 0.91377 1.01818
 H490 H 0.05273 0.95296 1.03604
 H491 H -0.04823 1.04775 0.96614
 H492 H -0.02260 1.07417 0.99068
 O493 O 0.47897 0.49147 0.43218
 O494 O 0.51780 0.51195 0.43016
 O495 O 0.49243 0.43171 0.48125
 O496 O 0.50523 0.42605 0.51938
 O497 O 0.43041 0.48052 0.49349
 O498 O 0.42723 0.52068 0.50958
 O499 O 0.55385 0.49672 0.54707
 O500 O 0.55842 0.46101 0.52494
 O501 O 0.54636 0.55357 0.49655
 O502 O 0.51822 0.55861 0.45899
 O503 O 0.49669 0.54748 0.55389
 O504 O 0.46065 0.52181 0.56177
 O505 O 0.52033 0.50979 0.56783
 O506 O 0.47879 0.49199 0.57260
 O507 O 0.50902 0.56804 0.52003
 O508 O 0.49199 0.57328 0.48045
 O509 O 0.56697 0.52038 0.51061
 O510 O 0.56916 0.48134 0.48763
 O511 O 0.44568 0.50490 0.45311
 O512 O 0.43870 0.53939 0.47869
 O513 O 0.45139 0.44688 0.50580
 O514 O 0.47793 0.44181 0.54161
 O515 O 0.50330 0.45257 0.44697
 O516 O 0.53987 0.47684 0.44373
 Zr517 Zr 0.50635 0.48878 0.45904
 O518 O 0.52960 0.51118 0.47986
 Zr519 Zr 0.48784 0.45862 0.50830
 O520 O 0.51059 0.47963 0.53102
 Zr521 Zr 0.45741 0.50750 0.48962
 O522 O 0.47864 0.53072 0.51162
 Zr523 Zr 0.54072 0.49251 0.51133
 O524 O 0.51948 0.46902 0.48937
 Zr525 Zr 0.51010 0.54144 0.49260
 O526 O 0.48739 0.52042 0.46964
 Zr527 Zr 0.49199 0.51130 0.54190
 O528 O 0.46816 0.48884 0.52138
 O529 O 0.47539 0.47655 0.47737
 O530 O 0.52284 0.52365 0.52366
 C531 C 0.45678 0.49887 0.43341
 C532 C 0.49866 0.43287 0.45869
 C533 C 0.43163 0.45822 0.50048
 C534 C 0.54292 0.50378 0.56651
 C535 C 0.56574 0.54279 0.50407
 C536 C 0.50347 0.56686 0.54268
 H537 H 0.54380 0.51599 0.46987
 H538 H 0.46871 0.54489 0.51659
 H539 H 0.46492 0.46602 0.46710
 H540 H 0.51592 0.46967 0.54508
 H541 H 0.55509 0.44776 0.51314
 H542 H 0.52048 0.43084 0.52771
 H543 H 0.47585 0.57372 0.48844
 H544 H 0.44953 0.54798 0.46711
 H545 H 0.58480 0.48280 0.49660
 H546 H 0.53687 0.47035 0.42712
 H547 H 0.45286 0.53548 0.55295
 H548 H 0.42797 0.51275 0.52578
 H549 H 0.51624 0.50314 0.41445
 H550 H 0.53407 0.55226 0.45325
 H551 H 0.46477 0.45184 0.54881
 H552 H 0.48939 0.47761 0.57509
 O553 O 0.45315 -0.05315 0.49449
 O554 O 0.47725 -0.05587 0.45754
 O555 O 0.50509 -0.04740 0.55177
 O556 O 0.53781 -0.02423 0.56069
 O557 O 0.44680 0.00480 0.54660
 O558 O 0.44026 0.04002 0.52129
 O559 O 0.56903 0.02018 0.49030
 O560 O 0.57274 -0.01707 0.50868
 O561 O 0.52028 0.00954 0.43087
 O562 O 0.47662 -0.00916 0.42966
 O563 O 0.50913 0.06878 0.47923
 O564 O 0.49276 0.07289 0.52018
 O565 O 0.54795 0.05362 0.50305
 O566 O 0.52147 0.06106 0.53873
 O567 O 0.49629 0.04824 0.44555
 O568 O 0.46310 0.02456 0.43629
 O569 O 0.55427 -0.00186 0.45183
 O570 O 0.55688 -0.04021 0.47534
 O571 O 0.43227 -0.01949 0.50712
 O572 O 0.42837 0.02093 0.49030
 O573 O 0.48049 -0.00823 0.56713
 O574 O 0.52101 0.01048 0.56990
 O575 O 0.49127 -0.06773 0.51822
 O576 O 0.51285 -0.06916 0.47937
 Zr577 Zr 0.48934 -0.04070 0.49108
 O578 O 0.51162 -0.01942 0.46822
 Zr579 Zr 0.50785 -0.01074 0.54046
 O580 O 0.53093 0.01154 0.51949
 Zr581 Zr 0.45880 0.00811 0.51025
 O582 O 0.47977 0.03125 0.48804
 Zr583 Zr 0.54192 -0.00676 0.48778
 O584 O 0.52106 -0.03024 0.51023
 Zr585 Zr 0.49277 0.01206 0.45757
 O586 O 0.46933 -0.01039 0.47842
 Zr587 Zr 0.51150 0.04199 0.50669
 O588 O 0.48895 0.02110 0.53016
 O589 O 0.47709 -0.02274 0.52213
 O590 O 0.52403 0.02449 0.47537
 C591 C 0.43353 -0.04198 0.50073
 C592 C 0.49811 -0.06678 0.54059
 C593 C 0.45805 -0.00174 0.56609
 C594 C 0.56769 0.04255 0.49703
 C595 C 0.54291 0.00371 0.43215
 C596 C 0.50248 0.06775 0.45680
 H597 H 0.51666 -0.02945 0.45412
 H598 H 0.46962 0.04533 0.48317
 H599 H 0.46670 -0.03320 0.53250
 H600 H 0.54515 0.01625 0.52953
 H601 H 0.56814 -0.03204 0.51765
 H602 H 0.55275 -0.01759 0.55313
 H603 H 0.45196 0.03331 0.44742
 H604 H 0.42819 0.01182 0.47473
 H605 H 0.57360 -0.03701 0.46926
 H606 H 0.50427 -0.08497 0.48102
 H607 H 0.47709 0.07407 0.51132
 H608 H 0.45089 0.04818 0.53340
 H609 H 0.47105 -0.07258 0.46053
 H610 H 0.48866 -0.02158 0.42457
 H611 H 0.51065 0.02524 0.57073
 H612 H 0.53517 0.05218 0.54642
 O613 O -0.04751 0.44665 0.99537
 O614 O -0.02374 0.44365 0.95816
 O615 O 0.00502 0.45292 1.05206
 O616 O 0.03734 0.47646 1.06103
 O617 O -0.05361 0.50521 1.04659
 O618 O -0.06011 0.54020 1.02093
 O619 O 0.06846 0.51972 0.98972
 O620 O 0.07216 0.48270 1.00862
 O621 O 0.01963 0.50860 0.93066
 O622 O -0.02405 0.49000 0.92967
 O623 O 0.00858 0.56841 0.97844
 O624 O -0.00760 0.57288 1.01942
 O625 O 0.04750 0.55336 1.00215
 O626 O 0.02127 0.56126 1.03789
 O627 O -0.00435 0.54753 0.94501
 O628 O -0.03758 0.52373 0.93606
 O629 O 0.05362 0.49723 0.95165
 O630 O 0.05612 0.45916 0.97561
 O631 O -0.06823 0.48057 1.00753
 O632 O -0.07214 0.52076 0.99020
 O633 O -0.01998 0.49219 1.06721
 O634 O 0.02059 0.51113 1.06964
 O635 O -0.00904 0.43223 1.01883
 O636 O 0.01198 0.43040 0.97980
 Zr637 Zr -0.01133 0.45903 0.99149
 O638 O 0.01092 0.48002 0.96832
 Zr639 Zr 0.00739 0.48952 1.04050
 O640 O 0.03046 0.51150 1.01921
 Zr641 Zr -0.04166 0.50813 1.01020
 O642 O -0.02074 0.53098 0.98767
 Zr643 Zr 0.04131 0.49281 0.98767
 O644 O 0.02046 0.46966 1.01044
 Zr645 Zr -0.00785 0.51145 0.95738
 O646 O -0.03128 0.48926 0.97854
 Zr647 Zr 0.01106 0.54186 1.00613
 O648 O -0.01147 0.52128 1.02990
 O649 O -0.02343 0.47735 1.02239
 O650 O 0.02347 0.52399 0.97497
 C651 C -0.06706 0.45798 1.00154
 C652 C -0.00189 0.43339 1.04110
 C653 C -0.04239 0.49877 1.06612
 C654 C 0.06718 0.54217 0.99616
 C655 C 0.04225 0.50269 0.93195
 C656 C 0.00184 0.56717 0.95605
 H657 H 0.01591 0.46984 0.95432
 H658 H -0.03088 0.54502 0.98270
 H659 H -0.03373 0.46696 1.03294
 H660 H 0.04473 0.51628 1.02913
 H661 H 0.06755 0.46783 1.01777
 H662 H 0.05228 0.48265 1.05312
 H663 H -0.04867 0.53263 0.94711
 H664 H -0.07239 0.51146 0.97474
 H665 H 0.07285 0.46222 0.96947
 H666 H 0.00334 0.41463 0.98159
 H667 H -0.02329 0.57403 1.01059
 H668 H -0.04948 0.54843 1.03299
 H669 H -0.03002 0.42701 0.96133
 H670 H -0.01208 0.47746 0.92473
 H671 H 0.01014 0.52582 1.07039
 H672 H 0.03491 0.55237 1.04567
 O673 O 0.00780 0.43069 0.51924
 O674 O -0.01290 0.42902 0.48044
 O675 O 0.06781 0.47936 0.50587
 O676 O 0.07362 0.51739 0.49297
 O677 O 0.01950 0.49172 0.56805
 O678 O -0.02055 0.50799 0.57156
 O679 O 0.00261 0.54593 0.44494
 O680 O 0.03829 0.52361 0.44010
 O681 O -0.05445 0.49600 0.45256
 O682 O -0.05960 0.45835 0.48028
 O683 O -0.04753 0.55285 0.50263
 O684 O -0.02139 0.56037 0.53848
 O685 O -0.01012 0.56658 0.47866
 O686 O 0.00826 0.57109 0.52007
 O687 O -0.06846 0.51928 0.49017
 O688 O -0.07366 0.47949 0.50707
 O689 O -0.02127 0.50977 0.43183
 O690 O 0.01762 0.48650 0.42925
 O691 O -0.00521 0.45160 0.55271
 O692 O -0.03953 0.47735 0.55997
 O693 O 0.05305 0.50394 0.54696
 O694 O 0.05824 0.53970 0.52053
 O695 O 0.04670 0.44530 0.49483
 O696 O 0.02213 0.44245 0.45829
 Zr697 Zr 0.01051 0.45765 0.49197
 O698 O -0.01196 0.47877 0.46897
 Zr699 Zr 0.04110 0.50659 0.51057
 O700 O 0.02008 0.52957 0.48806
 Zr701 Zr -0.00770 0.48814 0.54117
 O702 O -0.03092 0.51043 0.52021
 Zr703 Zr 0.00683 0.51013 0.45790
 O704 O 0.03035 0.48789 0.47888
 Zr705 Zr -0.04202 0.49165 0.48870
 O706 O -0.02095 0.46841 0.51114
 Zr707 Zr -0.01138 0.54059 0.50692
 O708 O 0.01111 0.51979 0.53051
 O709 O 0.02307 0.47576 0.52296
 O710 O -0.02410 0.52260 0.47604
 C711 C 0.00059 0.43190 0.54150
 C712 C 0.06651 0.45684 0.49954
 C713 C 0.04181 0.49862 0.56675
 C714 C -0.00438 0.56533 0.45600
 C715 C -0.04375 0.50354 0.43317
 C716 C -0.06707 0.54188 0.49592
 H717 H -0.01694 0.46891 0.45472
 H718 H -0.04498 0.51546 0.53027
 H719 H 0.03360 0.46537 0.53335
 H720 H 0.03007 0.54359 0.48273
 H721 H 0.05149 0.51169 0.44325
 H722 H 0.06876 0.52595 0.47787
 H723 H -0.07411 0.48768 0.52311
 H724 H -0.04826 0.46587 0.54911
 H725 H 0.01611 0.49558 0.41367
 H726 H 0.02859 0.42581 0.46117
 H727 H -0.03509 0.55165 0.54631
 H728 H -0.01253 0.52414 0.57088
 H729 H -0.00417 0.41325 0.48189
 H730 H -0.05319 0.45255 0.46447
 H731 H 0.04829 0.54699 0.53369
 H732 H 0.02248 0.57358 0.50929
 O733 O 0.56921 0.97917 0.00739
 O734 O 0.57098 1.01800 -0.01309
 O735 O 0.52074 0.99258 0.06765
 O736 O 0.48272 1.00526 0.07360
 O737 O 0.50792 0.93051 0.01890
 O738 O 0.49155 0.92732 -0.02112
 O739 O 0.45424 1.05386 0.00307
 O740 O 0.47679 1.05845 0.03862
 O741 O 0.50407 1.04643 -0.05426
 O742 O 0.54147 1.01849 -0.05975
 O743 O 0.44681 0.99680 -0.04756
 O744 O 0.43930 0.96066 -0.02179
 O745 O 0.43333 1.02033 -0.00977
 O746 O 0.42878 0.97878 0.00813
 O747 O 0.48041 1.00917 -0.06848
 O748 O 0.52008 0.99195 -0.07392
 O749 O 0.49037 1.06700 -0.02096
 O750 O 0.51383 1.06927 0.01787
 O751 O 0.54812 0.94588 -0.00585
 O752 O 0.52216 0.93890 -0.04012
 O753 O 0.49601 0.95149 0.05264
 O754 O 0.46033 0.97800 0.05806
 O755 O 0.55479 1.00350 0.04651
 O756 O 0.55776 1.04005 0.02208
 Zr757 Zr 0.54236 1.00649 0.01033
 O758 O 0.52127 1.02969 -0.01195
 Zr759 Zr 0.49344 0.98793 0.04093
 O760 O 0.47049 1.01064 0.02009
 Zr761 Zr 0.51158 0.95755 -0.00812
 O762 O 0.48929 0.97873 -0.03118
 Zr763 Zr 0.49002 1.04078 0.00698
 O764 O 0.51224 1.01958 0.03033
 Zr765 Zr 0.50818 1.01020 -0.04211
 O766 O 0.53139 0.98755 -0.02123
 Zr767 Zr 0.45924 0.99203 -0.01148
 O768 O 0.48003 0.96825 0.01082
 O769 O 0.52418 0.97551 0.02276
 O770 O 0.47734 1.02289 -0.02404
 C771 C 0.56790 0.95700 -0.00003
 C772 C 0.54328 0.99888 0.06633
 C773 C 0.50111 0.93173 0.04125
 C774 C 0.43472 1.04292 -0.00382
 C775 C 0.49663 1.06578 -0.04343
 C776 C 0.45776 1.00365 -0.06707
 H777 H 0.53119 1.04391 -0.01687
 H778 H 0.48415 0.96880 -0.04530
 H779 H 0.53456 0.96505 0.03321
 H780 H 0.45654 1.01595 0.03017
 H781 H 0.48876 1.05518 0.05176
 H782 H 0.47443 1.02055 0.06887
 H783 H 0.51171 0.97601 -0.07451
 H784 H 0.53358 0.94980 -0.04885
 H785 H 0.50482 1.08488 0.01649
 H786 H 0.57442 1.03708 0.02848
 H787 H 0.44787 0.95299 -0.03566
 H788 H 0.47537 0.92813 -0.01320
 H789 H 0.58678 1.01648 -0.00439
 H790 H 0.54746 1.03417 -0.05318
 H791 H 0.45300 0.96487 0.04809
 H792 H 0.42644 0.98940 0.02251
 O793 O 0.47951 0.50719 0.06897
 O794 O 0.51853 0.48702 0.07079
 O795 O 0.49218 0.56729 0.02011
 O796 O 0.50490 0.57318 -0.01796
 O797 O 0.43052 0.51820 0.00788
 O798 O 0.42746 0.47813 -0.00841
 O799 O 0.55375 0.50288 -0.04616
 O800 O 0.55822 0.53855 -0.02386
 O801 O 0.54685 0.44574 0.00396
 O802 O 0.51917 0.44026 0.04155
 O803 O 0.49675 0.45192 -0.05310
 O804 O 0.46061 0.47749 -0.06079
 O805 O 0.52021 0.48970 -0.06690
 O806 O 0.47853 0.50746 -0.07147
 O807 O 0.50944 0.43120 -0.01942
 O808 O 0.49258 0.42583 0.02036
 O809 O 0.56719 0.47913 -0.00993
 O810 O 0.56932 0.51804 0.01330
 O811 O 0.44620 0.49367 0.04805
 O812 O 0.43930 0.45927 0.02229
 O813 O 0.45123 0.55198 -0.00440
 O814 O 0.47753 0.55740 -0.04024
 O815 O 0.50345 0.54639 0.05428
 O816 O 0.54027 0.52228 0.05726
 Zr817 Zr 0.50671 0.51021 0.04204
 O818 O 0.52995 0.48800 0.02102
 Zr819 Zr 0.48773 0.54048 -0.00705
 O820 O 0.51048 0.51971 -0.02993
 Zr821 Zr 0.45772 0.49134 0.01150
 O822 O 0.47894 0.46836 -0.01072
 Zr823 Zr 0.54079 0.50688 -0.01038
 O824 O 0.51955 0.53017 0.01176
 Zr825 Zr 0.51057 0.45769 0.00816
 O826 O 0.48790 0.47850 0.03132
 Zr827 Zr 0.49200 0.48801 -0.04092
 O828 O 0.46815 0.51022 -0.02021
 O829 O 0.47558 0.52234 0.02384
 O830 O 0.52302 0.47571 -0.02283
 C831 C 0.45737 0.49966 0.06776
 C832 C 0.49852 0.56611 0.04266
 C833 C 0.43158 0.54053 0.00096
 C834 C 0.54278 0.49581 -0.06560
 C835 C 0.56611 0.45666 -0.00358
 C836 C 0.50369 0.43248 -0.04205
 H837 H 0.54425 0.48321 0.03094
 H838 H 0.46905 0.45417 -0.01573
 H839 H 0.46509 0.53274 0.03420
 H840 H 0.51568 0.52976 -0.04396
 H841 H 0.55490 0.55171 -0.01197
 H842 H 0.52009 0.56851 -0.02640
 H843 H 0.47655 0.42515 0.01211
 H844 H 0.45026 0.45069 0.03381
 H845 H 0.58491 0.51671 0.00426
 H846 H 0.53732 0.52875 0.07388
 H847 H 0.45288 0.46380 -0.05197
 H848 H 0.42806 0.48615 -0.02458
 H849 H 0.51701 0.49577 0.08653
 H850 H 0.53488 0.44690 0.04740
 H851 H 0.46441 0.54733 -0.04747
 H852 H 0.48913 0.52182 -0.07398
 O853 O -0.06877 0.01952 0.50964
 O854 O -0.07059 -0.01936 0.48928
 O855 O -0.01981 0.00644 0.56966
 O856 O 0.01832 -0.00625 0.57546
 O857 O -0.00768 0.06836 0.52072
 O858 O 0.00855 0.07153 0.48058
 O859 O 0.04637 -0.05482 0.50494
 O860 O 0.02420 -0.05939 0.54066
 O861 O -0.00402 -0.04770 0.44793
 O862 O -0.04166 -0.01972 0.44270
 O863 O 0.05309 0.00233 0.45404
 O864 O 0.06080 0.03839 0.47975
 O865 O 0.06704 -0.02126 0.49182
 O866 O 0.07167 0.02028 0.50957
 O867 O 0.01936 -0.01024 0.43338
 O868 O -0.02023 0.00652 0.42798
 O869 O 0.00999 -0.06817 0.48126
 O870 O -0.01303 -0.07036 0.52026
 O871 O -0.04790 0.05286 0.49620
 O872 O -0.02225 0.05991 0.46178
 O873 O 0.00462 0.04750 0.55446
 O874 O 0.04050 0.02119 0.55972
 O875 O -0.05399 -0.00462 0.54870
 O876 O -0.05703 -0.04128 0.52451
 Zr877 Zr -0.04182 -0.00772 0.51251
 O878 O -0.02086 -0.03091 0.49023
 Zr879 Zr 0.00729 0.01106 0.54281
 O880 O 0.03014 -0.01161 0.52192
 Zr881 Zr -0.01135 0.04130 0.49376
 O882 O 0.01077 0.02013 0.47065
 Zr883 Zr 0.01059 -0.04184 0.50904
 O884 O -0.01151 -0.02067 0.53242
 Zr885 Zr -0.00811 -0.01144 0.45994
 O886 O -0.03119 0.01122 0.48084
 Zr887 Zr 0.04103 0.00696 0.49021
 O888 O 0.02038 0.03073 0.51257
 O889 O -0.02362 0.02333 0.52474
 O890 O 0.02294 -0.02400 0.47787
 C891 C -0.06758 0.04170 0.50219
 C892 C -0.04235 0.00012 0.56845
 C893 C -0.00075 0.06720 0.54306
 C894 C 0.06578 -0.04384 0.49788
 C895 C 0.00350 -0.06702 0.45882
 C896 C 0.04197 -0.00451 0.43461
 H897 H -0.03079 -0.04517 0.48543
 H898 H 0.01573 0.03006 0.45647
 H899 H -0.03397 0.03377 0.53520
 H900 H 0.04420 -0.01686 0.53193
 H901 H 0.01237 -0.05610 0.55388
 H902 H 0.02683 -0.02139 0.57072
 H903 H -0.01237 0.02273 0.42757
 H904 H -0.03378 0.04902 0.45317
 H905 H -0.00400 -0.08596 0.51889
 H906 H -0.07365 -0.03834 0.53096
 H907 H 0.05199 0.04612 0.46602
 H908 H 0.02470 0.07091 0.48863
 H909 H -0.08632 -0.01786 0.49804
 H910 H -0.04734 -0.03561 0.44905
 H911 H 0.04770 0.03431 0.54965
 H912 H 0.07412 0.00975 0.52402
 O913 O 0.73211 0.18267 0.25868
 O914 O 0.77105 0.18101 0.23839
 O915 O 0.74490 0.23134 0.31881
 O916 O 0.75784 0.26936 0.32470
 O917 O 0.68312 0.24363 0.26991
 O918 O 0.67982 0.25994 0.22981
 O919 O 0.80620 0.29794 0.25403
 O920 O 0.81083 0.27569 0.28984
 O921 O 0.79901 0.24800 0.19701
 O922 O 0.77141 0.21030 0.19166
 O923 O 0.74872 0.30479 0.20339
 O924 O 0.71277 0.31231 0.22927
 O925 O 0.77254 0.31856 0.24095
 O926 O 0.73105 0.32310 0.25902
 O927 O 0.76141 0.27122 0.18261
 O928 O 0.74469 0.23142 0.17729
 O929 O 0.81952 0.26176 0.23038
 O930 O 0.82189 0.23855 0.26935
 O931 O 0.69868 0.20355 0.24535
 O932 O 0.69157 0.22929 0.21095
 O933 O 0.70396 0.25592 0.30365
 O934 O 0.73028 0.29169 0.30906
 O935 O 0.75615 0.19730 0.29782
 O936 O 0.79292 0.19451 0.27365
 Zr937 Zr 0.75929 0.20965 0.26165
 O938 O 0.78239 0.23077 0.23937
 Zr939 Zr 0.74041 0.25859 0.29204
 O940 O 0.76301 0.28158 0.27119
 Zr941 Zr 0.71016 0.24010 0.24295
 O942 O 0.73122 0.26238 0.21990
 Zr943 Zr 0.79327 0.26215 0.25823
 O944 O 0.77220 0.23990 0.28160
 Zr945 Zr 0.76282 0.24362 0.20911
 O946 O 0.74029 0.22038 0.22999
 Zr947 Zr 0.74432 0.29256 0.23954
 O948 O 0.72064 0.27176 0.26184
 O949 O 0.72820 0.22774 0.27390
 O950 O 0.77530 0.27459 0.22712
 C951 C 0.70990 0.18386 0.25127
 C952 C 0.75123 0.20881 0.31757
 C953 C 0.68426 0.25054 0.29223
 C954 C 0.79516 0.31732 0.24688
 C955 C 0.81833 0.25553 0.20789
 C956 C 0.75555 0.29380 0.18392
 H957 H 0.79668 0.22091 0.23453
 H958 H 0.72122 0.26739 0.20574
 H959 H 0.71776 0.21735 0.28433
 H960 H 0.76825 0.29560 0.28120
 H961 H 0.80763 0.26379 0.30304
 H962 H 0.77288 0.27806 0.31996
 H963 H 0.72861 0.23955 0.17671
 H964 H 0.70249 0.21781 0.20233
 H965 H 0.83746 0.24763 0.26797
 H966 H 0.79003 0.17787 0.28011
 H967 H 0.70502 0.30357 0.21553
 H968 H 0.68038 0.27606 0.23789
 H969 H 0.76959 0.16525 0.24714
 H970 H 0.78721 0.20454 0.19819
 H971 H 0.71721 0.29899 0.29896
 H972 H 0.74176 0.32560 0.27333
 O973 O 0.75447 0.69608 0.70183
 O974 O 0.79183 0.69303 0.72555
 O975 O 0.69793 0.70177 0.75421
 O976 O 0.68922 0.72481 0.78701
 O977 O 0.70303 0.75462 0.69623
 O978 O 0.72857 0.78968 0.68995
 O979 O 0.76030 0.76827 0.81837
 O980 O 0.74157 0.73111 0.82181
 O981 O 0.81917 0.75779 0.76941
 O982 O 0.82013 0.73945 0.72562
 O983 O 0.77114 0.81739 0.75897
 O984 O 0.73002 0.82186 0.74266
 O985 O 0.74764 0.80203 0.79766
 O986 O 0.71177 0.81002 0.77155
 O987 O 0.80460 0.79675 0.74580
 O988 O 0.81347 0.77327 0.71227
 O989 O 0.79837 0.74611 0.80335
 O990 O 0.77468 0.70786 0.80559
 O991 O 0.74201 0.73010 0.68136
 O992 O 0.75931 0.77035 0.67774
 O993 O 0.68263 0.74129 0.72982
 O994 O 0.68024 0.75970 0.77057
 O995 O 0.73126 0.68133 0.74009
 O996 O 0.77036 0.67940 0.76118
 Zr997 Zr 0.75850 0.70820 0.73810
 O998 O 0.78164 0.72907 0.76052
 Zr999 Zr 0.70943 0.73835 0.75712
 O1000 O 0.73069 0.76023 0.78035
 Zr1001 Zr 0.73945 0.75748 0.70815
 O1002 O 0.76194 0.78023 0.72924
 Zr1003 Zr 0.76235 0.74156 0.79102
 O1004 O 0.73962 0.71848 0.77001
 Zr1005 Zr 0.79236 0.76068 0.74195
 O1006 O 0.77123 0.73862 0.71835
 Zr1007 Zr 0.74354 0.79077 0.76114
 O1008 O 0.71980 0.77030 0.73847
 O1009 O 0.72748 0.72653 0.72618
 O1010 O 0.77482 0.77290 0.77338
 C1011 C 0.74807 0.70750 0.68237
 C1012 C 0.70896 0.68236 0.74708
 C1013 C 0.68359 0.74805 0.70745
 C1014 C 0.75380 0.79073 0.81724
 C1015 C 0.81799 0.75177 0.79201
 C1016 C 0.79351 0.81627 0.75226
 H1017 H 0.79571 0.71891 0.76543
 H1018 H 0.76683 0.79438 0.71922
 H1019 H 0.71693 0.71624 0.71579
 H1020 H 0.72081 0.76487 0.79466
 H1021 H 0.73251 0.71623 0.81709
 H1022 H 0.69702 0.73111 0.80199
 H1023 H 0.80233 0.78225 0.70128
 H1024 H 0.77477 0.76103 0.67740
 H1025 H 0.78086 0.71083 0.82234
 H1026 H 0.76858 0.66371 0.75241
 H1027 H 0.73899 0.82332 0.72711
 H1028 H 0.71658 0.79783 0.70068
 H1029 H 0.78871 0.67644 0.71913
 H1030 H 0.82517 0.72687 0.73753
 H1031 H 0.67943 0.77454 0.76032
 H1032 H 0.70409 0.80100 0.78513
 O1033 O 0.30331 0.20323 0.74636
 O1034 O 0.30593 0.22726 0.70930
 O1035 O 0.29784 0.25520 0.80347
 O1036 O 0.27463 0.28786 0.81250
 O1037 O 0.24561 0.19691 0.79848
 O1038 O 0.21016 0.19060 0.77338
 O1039 O 0.23016 0.31920 0.74192
 O1040 O 0.26740 0.32285 0.76037
 O1041 O 0.24054 0.27055 0.68270
 O1042 O 0.25912 0.22684 0.68150
 O1043 O 0.18131 0.25935 0.73125
 O1044 O 0.17743 0.24313 0.77230
 O1045 O 0.19667 0.29828 0.75481
 O1046 O 0.18929 0.27193 0.79062
 O1047 O 0.20178 0.24656 0.69754
 O1048 O 0.22541 0.21343 0.68822
 O1049 O 0.25222 0.30446 0.70354
 O1050 O 0.29056 0.30692 0.72709
 O1051 O 0.26961 0.18244 0.75903
 O1052 O 0.22910 0.17867 0.74230
 O1053 O 0.25878 0.23051 0.81898
 O1054 O 0.23994 0.27106 0.82174
 O1055 O 0.31803 0.24133 0.76989
 O1056 O 0.31937 0.26284 0.73097
 Zr1057 Zr 0.29090 0.23943 0.74284
 O1058 O 0.26959 0.26175 0.71998
 Zr1059 Zr 0.26111 0.25795 0.79228
 O1060 O 0.23882 0.28112 0.77130
 Zr1061 Zr 0.24207 0.20903 0.76217
 O1062 O 0.21890 0.23006 0.73998
 Zr1063 Zr 0.25706 0.29207 0.73953
 O1064 O 0.28056 0.27114 0.76198
 Zr1065 Zr 0.23802 0.24302 0.70944
 O1066 O 0.26050 0.21952 0.73028
 Zr1067 Zr 0.20826 0.26180 0.75860
 O1068 O 0.22919 0.23917 0.78207
 O1069 O 0.27300 0.22721 0.77395
 O1070 O 0.22571 0.27429 0.72721
 C1071 C 0.29211 0.18365 0.75265
 C1072 C 0.31719 0.24819 0.79224
 C1073 C 0.25232 0.20807 0.81794
 C1074 C 0.20779 0.31794 0.74866
 C1075 C 0.24651 0.29314 0.68390
 C1076 C 0.18227 0.25266 0.70884
 H1077 H 0.27960 0.26677 0.70585
 H1078 H 0.20480 0.21994 0.73518
 H1079 H 0.28351 0.21681 0.78430
 H1080 H 0.23416 0.29535 0.78129
 H1081 H 0.28237 0.31821 0.76936
 H1082 H 0.26802 0.30281 0.80489
 H1083 H 0.21673 0.20226 0.69939
 H1084 H 0.23820 0.17844 0.72673
 H1085 H 0.28741 0.32366 0.72100
 H1086 H 0.33518 0.25422 0.73259
 H1087 H 0.17622 0.22743 0.76355
 H1088 H 0.20215 0.20118 0.78560
 H1089 H 0.32264 0.22101 0.71226
 H1090 H 0.27156 0.23883 0.67637
 H1091 H 0.22522 0.26067 0.82263
 H1092 H 0.19831 0.28551 0.79831
 O1093 O 0.26797 0.68027 0.24130
 O1094 O 0.22901 0.67834 0.26153
 O1095 O 0.25508 0.72934 0.18143
 O1096 O 0.24216 0.76741 0.17571
 O1097 O 0.31676 0.74139 0.23056
 O1098 O 0.31987 0.75753 0.27073
 O1099 O 0.19341 0.79524 0.24620
 O1100 O 0.18893 0.77312 0.21039
 O1101 O 0.20061 0.74493 0.30315
 O1102 O 0.22838 0.70733 0.30843
 O1103 O 0.25050 0.80202 0.29720
 O1104 O 0.28659 0.80983 0.27164
 O1105 O 0.22692 0.81592 0.25947
 O1106 O 0.26856 0.82063 0.24170
 O1107 O 0.23797 0.76824 0.31776
 O1108 O 0.25497 0.72845 0.32294
 O1109 O 0.18017 0.75892 0.26980
 O1110 O 0.17799 0.73588 0.23074
 O1111 O 0.30126 0.70115 0.25491
 O1112 O 0.30817 0.72673 0.28947
 O1113 O 0.29594 0.75380 0.19683
 O1114 O 0.26955 0.78964 0.19158
 O1115 O 0.24394 0.69510 0.20220
 O1116 O 0.20715 0.69199 0.22629
 Zr1117 Zr 0.24068 0.70718 0.23844
 O1118 O 0.21744 0.72806 0.26076
 Zr1119 Zr 0.25947 0.75639 0.20837
 O1120 O 0.23670 0.77914 0.22926
 Zr1121 Zr 0.28964 0.73766 0.25744
 O1122 O 0.26841 0.75973 0.28055
 Zr1123 Zr 0.20648 0.75952 0.24201
 O1124 O 0.22773 0.73752 0.21860
 Zr1125 Zr 0.23686 0.74078 0.29114
 O1126 O 0.25955 0.71776 0.27021
 Zr1127 Zr 0.25523 0.79000 0.26102
 O1128 O 0.27908 0.76942 0.23869
 O1129 O 0.27174 0.72545 0.22638
 O1130 O 0.22429 0.77182 0.27324
 C1131 C 0.29013 0.68147 0.24881
 C1132 C 0.24882 0.70679 0.18252
 C1133 C 0.31563 0.74837 0.20825
 C1134 C 0.20434 0.81463 0.25340
 C1135 C 0.18131 0.75253 0.29226
 C1136 C 0.24362 0.79087 0.31659
 H1137 H 0.20317 0.71812 0.26552
 H1138 H 0.27832 0.76469 0.29476
 H1139 H 0.28223 0.71516 0.21592
 H1140 H 0.23144 0.79321 0.21927
 H1141 H 0.19226 0.76131 0.19716
 H1142 H 0.22699 0.77589 0.18044
 H1143 H 0.27096 0.73673 0.32367
 H1144 H 0.29726 0.71517 0.29800
 H1145 H 0.16238 0.74489 0.23214
 H1146 H 0.21013 0.67541 0.21976
 H1147 H 0.29436 0.80096 0.28531
 H1148 H 0.31921 0.77372 0.26276
 H1149 H 0.23055 0.66264 0.25270
 H1150 H 0.21265 0.70152 0.30178
 H1151 H 0.28267 0.79683 0.20169
 H1152 H 0.25791 0.82320 0.22736
 O1153 O 0.18171 0.74263 0.76894
 O1154 O 0.18000 0.76317 0.73001
 O1155 O 0.23056 0.68272 0.75608
 O1156 O 0.26867 0.67690 0.74342
 O1157 O 0.24275 0.73157 0.81797
 O1158 O 0.25896 0.77170 0.82117
 O1159 O 0.29694 0.74734 0.69491
 O1160 O 0.27462 0.71167 0.69029
 O1161 O 0.24702 0.80450 0.70186
 O1162 O 0.20911 0.80969 0.72942
 O1163 O 0.30373 0.79818 0.75216
 O1164 O 0.31134 0.77241 0.78822
 O1165 O 0.31759 0.76051 0.72851
 O1166 O 0.32214 0.74260 0.77012
 O1167 O 0.27004 0.81891 0.73953
 O1168 O 0.23027 0.82421 0.75606
 O1169 O 0.26087 0.77114 0.68148
 O1170 O 0.23753 0.73228 0.67914
 O1171 O 0.20258 0.75600 0.80235
 O1172 O 0.22820 0.79048 0.80939
 O1173 O 0.25501 0.69786 0.79717
 O1174 O 0.29087 0.69256 0.77094
 O1175 O 0.19644 0.70366 0.74478
 O1176 O 0.19343 0.72795 0.70813
 Zr1177 Zr 0.20867 0.73985 0.74174
 O1178 O 0.22973 0.76213 0.71858
 Zr1179 Zr 0.25772 0.70952 0.76071
 O1180 O 0.28064 0.73039 0.73809
 Zr1181 Zr 0.23912 0.75853 0.79086
 O1182 O 0.26133 0.78161 0.76975
 Zr1183 Zr 0.26115 0.74330 0.70778
 O1184 O 0.23897 0.71994 0.72890
 Zr1185 Zr 0.24253 0.79238 0.73809
 O1186 O 0.21935 0.77149 0.76068
 Zr1187 Zr 0.29158 0.76204 0.75671
 O1188 O 0.27084 0.73971 0.78043
 O1189 O 0.22682 0.72760 0.77286
 O1190 O 0.27354 0.77441 0.72568
 C1191 C 0.18290 0.74999 0.79115
 C1192 C 0.20804 0.68393 0.74966
 C1193 C 0.24964 0.70925 0.81686
 C1194 C 0.31634 0.75445 0.70593
 C1195 C 0.25465 0.79363 0.68260
 C1196 C 0.29265 0.81763 0.74532
 H1197 H 0.21987 0.76698 0.70426
 H1198 H 0.26630 0.79577 0.77971
 H1199 H 0.21646 0.71712 0.78329
 H1200 H 0.29469 0.72037 0.73289
 H1201 H 0.26270 0.69851 0.69353
 H1202 H 0.27721 0.68164 0.72830
 H1203 H 0.23820 0.82467 0.77226
 H1204 H 0.21663 0.79904 0.79847
 H1205 H 0.24661 0.73365 0.66358
 H1206 H 0.17679 0.72155 0.71104
 H1207 H 0.30252 0.78610 0.79595
 H1208 H 0.27511 0.76365 0.82064
 H1209 H 0.16424 0.75446 0.73151
 H1210 H 0.20357 0.80342 0.71344
 H1211 H 0.29810 0.70263 0.78407
 H1212 H 0.32464 0.72826 0.75950
 O1213 O 0.25442 0.19468 0.20310
 O1214 O 0.29170 0.19191 0.22688
 O1215 O 0.19785 0.20043 0.25566
 O1216 O 0.18891 0.22379 0.28814
 O1217 O 0.20256 0.25272 0.19711
 O1218 O 0.22775 0.28800 0.19063
 O1219 O 0.25986 0.26765 0.31917
 O1220 O 0.24140 0.23045 0.32287
 O1221 O 0.31877 0.25712 0.27012
 O1222 O 0.31970 0.23850 0.22645
 O1223 O 0.27042 0.31646 0.25928
 O1224 O 0.22937 0.32071 0.24321
 O1225 O 0.24700 0.30121 0.29825
 O1226 O 0.21106 0.30882 0.27201
 O1227 O 0.30396 0.29588 0.24621
 O1228 O 0.31292 0.27218 0.21292
 O1229 O 0.29810 0.24557 0.30418
 O1230 O 0.27456 0.20725 0.30675
 O1231 O 0.24181 0.22852 0.18242
 O1232 O 0.25866 0.26890 0.17853
 O1233 O 0.18225 0.23957 0.23082
 O1234 O 0.17983 0.25844 0.27142
 O1235 O 0.23119 0.18003 0.24151
 O1236 O 0.27029 0.17848 0.26261
 Zr1237 Zr 0.25829 0.20703 0.23930
 O1238 O 0.28136 0.22820 0.26152
 Zr1239 Zr 0.20911 0.23710 0.25814
 O1240 O 0.23030 0.25923 0.28120
 Zr1241 Zr 0.23895 0.25601 0.20902
 O1242 O 0.26135 0.27903 0.22992
 Zr1243 Zr 0.26206 0.24080 0.29197
 O1244 O 0.23941 0.21747 0.27115
 Zr1245 Zr 0.29189 0.25972 0.24271
 O1246 O 0.27083 0.23739 0.21932
 Zr1247 Zr 0.24298 0.28972 0.26178
 O1248 O 0.21929 0.26897 0.23928
 O1249 O 0.22717 0.22512 0.22727
 O1250 O 0.27436 0.27209 0.27410
 C1251 C 0.24806 0.20598 0.18356
 C1252 C 0.20894 0.18101 0.24865
 C1253 C 0.18316 0.24610 0.20837
 C1254 C 0.25318 0.29005 0.31792
 C1255 C 0.31768 0.25121 0.29275
 C1256 C 0.29278 0.31541 0.25248
 H1257 H 0.29549 0.21813 0.26648
 H1258 H 0.26615 0.29312 0.21978
 H1259 H 0.21670 0.21466 0.21696
 H1260 H 0.22040 0.26392 0.29549
 H1261 H 0.23237 0.21552 0.31825
 H1262 H 0.19680 0.23008 0.30307
 H1263 H 0.30174 0.28108 0.20190
 H1264 H 0.27421 0.25973 0.17822
 H1265 H 0.28077 0.21037 0.32345
 H1266 H 0.26859 0.16270 0.25398
 H1267 H 0.23800 0.32186 0.22744
 H1268 H 0.21567 0.29610 0.20130
 H1269 H 0.28865 0.17524 0.22061
 H1270 H 0.32485 0.22603 0.23843
 H1271 H 0.17887 0.27313 0.26097
 H1272 H 0.20346 0.29989 0.28570
 O1273 O 0.67950 0.75940 0.23035
 O1274 O 0.67786 0.73914 0.26935
 O1275 O 0.72838 0.81940 0.24302
 O1276 O 0.76647 0.82519 0.25591
 O1277 O 0.74038 0.77052 0.18131
 O1278 O 0.75664 0.73041 0.17811
 O1279 O 0.79494 0.75469 0.30441
 O1280 O 0.77268 0.79041 0.30901
 O1281 O 0.74487 0.69764 0.29742
 O1282 O 0.70702 0.69241 0.26983
 O1283 O 0.80155 0.70389 0.24718
 O1284 O 0.80906 0.72966 0.21109
 O1285 O 0.81549 0.74152 0.27080
 O1286 O 0.81995 0.75942 0.22923
 O1287 O 0.76792 0.68319 0.25986
 O1288 O 0.72806 0.67796 0.24316
 O1289 O 0.75881 0.73097 0.31782
 O1290 O 0.73559 0.76991 0.32014
 O1291 O 0.70029 0.74601 0.19695
 O1292 O 0.72596 0.71161 0.18989
 O1293 O 0.75277 0.80421 0.20210
 O1294 O 0.78867 0.80952 0.22835
 O1295 O 0.69428 0.79851 0.25430
 O1296 O 0.69149 0.77435 0.29113
 Zr1297 Zr 0.70654 0.76233 0.25753
 O1298 O 0.72766 0.74002 0.28068
 Zr1299 Zr 0.75554 0.79258 0.23856
 O1300 O 0.77852 0.77170 0.26121
 Zr1301 Zr 0.73686 0.74357 0.20843
 O1302 O 0.75913 0.72047 0.22955
 Zr1303 Zr 0.75911 0.75881 0.29151
 O1304 O 0.73688 0.78221 0.27038
 Zr1305 Zr 0.74039 0.70975 0.26119
 O1306 O 0.71717 0.73066 0.23860
 Zr1307 Zr 0.78940 0.74004 0.24261
 O1308 O 0.76861 0.76238 0.21887
 O1309 O 0.72461 0.77452 0.22639
 O1310 O 0.77144 0.72768 0.27363
 C1311 C 0.68063 0.75196 0.20816
 C1312 C 0.70585 0.81822 0.24936
 C1313 C 0.74732 0.79283 0.18242
 C1314 C 0.81430 0.74756 0.29339
 C1315 C 0.75253 0.70850 0.31669
 C1316 C 0.79050 0.68445 0.25404
 H1317 H 0.71782 0.73520 0.29500
 H1318 H 0.76408 0.70631 0.21960
 H1319 H 0.71421 0.78497 0.21594
 H1320 H 0.79258 0.78170 0.26641
 H1321 H 0.76078 0.80360 0.30576
 H1322 H 0.77517 0.82043 0.27097
 H1323 H 0.73616 0.67736 0.22707
 H1324 H 0.71449 0.70300 0.20083
 H1325 H 0.74471 0.76851 0.33570
 H1326 H 0.67486 0.78084 0.28822
 H1327 H 0.80026 0.71595 0.20339
 H1328 H 0.77278 0.73846 0.17867
 H1329 H 0.66212 0.74791 0.26787
 H1330 H 0.70137 0.69888 0.28568
 H1331 H 0.79589 0.79943 0.21527
 H1332 H 0.82247 0.77378 0.23982
 O1333 O 0.70280 0.24535 0.80407
 O1334 O 0.72676 0.20818 0.80684
 O1335 O 0.75489 0.30228 0.79851
 O1336 O 0.78752 0.31133 0.77531
 O1337 O 0.69659 0.29717 0.74610
 O1338 O 0.69039 0.27201 0.71066
 O1339 O 0.81902 0.24079 0.73135
 O1340 O 0.82253 0.25924 0.76857
 O1341 O 0.77034 0.18151 0.74178
 O1342 O 0.72657 0.18031 0.76024
 O1343 O 0.75923 0.22987 0.68232
 O1344 O 0.74298 0.27083 0.67812
 O1345 O 0.79810 0.25354 0.69772
 O1346 O 0.77169 0.28926 0.69005
 O1347 O 0.74637 0.19621 0.70286
 O1348 O 0.71322 0.18692 0.72641
 O1349 O 0.80423 0.20241 0.75346
 O1350 O 0.80658 0.22598 0.79176
 O1351 O 0.68211 0.25786 0.77018
 O1352 O 0.67840 0.24098 0.72974
 O1353 O 0.73016 0.31769 0.75935
 O1354 O 0.77074 0.32046 0.74054
 O1355 O 0.74098 0.26876 0.81881
 O1356 O 0.76234 0.22981 0.82042
 Zr1357 Zr 0.73903 0.24168 0.79178
 O1358 O 0.76145 0.21882 0.77065
 Zr1359 Zr 0.75764 0.29104 0.76182
 O1360 O 0.78085 0.27006 0.73971
 Zr1361 Zr 0.70874 0.26089 0.74272
 O1362 O 0.72983 0.23866 0.71974
 Zr1363 Zr 0.79179 0.23836 0.75814
 O1364 O 0.77079 0.26081 0.78146
 Zr1365 Zr 0.74278 0.20819 0.73905
 O1366 O 0.71919 0.22905 0.76134
 Zr1367 Zr 0.76159 0.25728 0.70913
 O1368 O 0.73891 0.28077 0.72986
 O1369 O 0.72688 0.27272 0.77368
 O1370 O 0.77407 0.22596 0.72677
 C1371 C 0.68326 0.25166 0.79275
 C1372 C 0.74787 0.29109 0.81788
 C1373 C 0.70772 0.31662 0.75283
 C1374 C 0.81777 0.24749 0.70893
 C1375 C 0.79294 0.18276 0.74781
 C1376 C 0.75254 0.20748 0.68333
 H1377 H 0.76646 0.20472 0.78074
 H1378 H 0.71973 0.23382 0.70561
 H1379 H 0.71648 0.28310 0.78412
 H1380 H 0.79509 0.28006 0.73506
 H1381 H 0.81783 0.26825 0.78348
 H1382 H 0.80249 0.30372 0.76881
 H1383 H 0.70201 0.19807 0.71773
 H1384 H 0.67812 0.22546 0.73895
 H1385 H 0.82333 0.21990 0.78869
 H1386 H 0.75365 0.23144 0.83617
 H1387 H 0.72725 0.26211 0.67694
 H1388 H 0.70097 0.28426 0.70268
 H1389 H 0.72043 0.21116 0.82350
 H1390 H 0.73857 0.17517 0.77271
 H1391 H 0.76032 0.32134 0.72581
 H1392 H 0.78525 0.29699 0.69909
 C1393 C 0.08085 1.01126 1.13093
 C1394 C 0.08354 1.03472 1.14036
 C1395 C 0.09488 1.03829 1.16288
 C1396 C 0.10385 1.01837 1.17667
 C1397 C 0.10108 0.99475 1.16665
 C1398 C 0.08971 0.99130 1.14405
 C1399 C 0.06819 1.00784 1.10817
 C1400 C 0.05703 1.00565 1.08935
 H1401 H 0.07645 1.05031 1.13048
 H1402 H 0.09537 1.05673 1.16979
 H1403 H 0.10830 0.97879 1.17570
 H1404 H 0.08781 0.97302 1.13684
 C1405 C 0.58064 0.50941 0.63032
 C1406 C 0.56988 0.50078 0.65177
 C1407 C 0.58136 0.50443 0.67424
 C1408 C 0.60376 0.51683 0.67554
 C1409 C 0.61464 0.52508 0.65382
 C1410 C 0.60312 0.52141 0.63136
 C1411 C 0.56802 0.50691 0.60745
 C1412 C 0.55689 0.50525 0.58856
 H1413 H 0.55240 0.49161 0.65118
 H1414 H 0.57238 0.49815 0.69065
 H1415 H 0.63202 0.53442 0.65421
 H1416 H 0.61159 0.52818 0.61486
 C1417 C 0.42200 -0.00917 0.63045
 C1418 C 0.40765 0.00905 0.64106
 C1419 C 0.39646 0.00493 0.66362
 C1420 C 0.39951 -0.01749 0.67575
 C1421 C 0.41406 -0.03559 0.66493
 C1422 C 0.42520 -0.03144 0.64246
 C1423 C 0.43386 -0.00523 0.60742
 C1424 C 0.44449 -0.00302 0.58834
 H1425 H 0.40509 0.02637 0.63192
 H1426 H 0.38517 0.01911 0.67141
 H1427 H 0.41707 -0.05287 0.67400
 H1428 H 0.43640 -0.04560 0.63447
 C1429 C -0.07961 0.49359 1.13015
 C1430 C -0.10168 0.48085 1.13111
 C1431 C -0.11305 0.47668 1.15353
 C1432 C -0.10243 0.48516 1.17530
 C1433 C -0.08046 0.49833 1.17409
 C1434 C -0.06912 0.50247 1.15165
 C1435 C -0.06703 0.49632 1.10732
 C1436 C -0.05605 0.49788 1.08837
 H1437 H -0.10993 0.47384 1.11458
 H1438 H -0.13011 0.46677 1.15384
 H1439 H -0.07169 0.50482 1.19055
 H1440 H -0.05194 0.51218 1.15113
 C1441 C -0.08193 0.51200 0.36997
 C1442 C -0.08448 0.53564 0.36095
 C1443 C -0.09581 0.53972 0.33852
 C1444 C -0.10493 0.52012 0.32441
 C1445 C -0.10232 0.49629 0.33402
 C1446 C -0.09094 0.49234 0.35654
 C1447 C -0.06919 0.50809 0.39258
 C1448 C -0.05792 0.50560 0.41130
 H1449 H -0.07727 0.55099 0.37108
 H1450 H -0.09618 0.55829 0.33192
 H1451 H -0.10966 0.48056 0.32471
 H1452 H -0.08914 0.47392 0.36343
 C1453 C 0.41971 1.01206 -0.13041
 C1454 C 0.41731 1.03564 -0.13965
 C1455 C 0.40596 1.03960 -0.16211
 C1456 C 0.39668 1.01994 -0.17602
 C1457 C 0.39912 0.99618 -0.16618
 C1458 C 0.41051 0.99235 -0.14364
 C1459 C 0.43243 1.00822 -0.10776
 C1460 C 0.44366 1.00573 -0.08901
 H1461 H 0.42466 1.05103 -0.12968
 H1462 H 0.40571 1.05811 -0.16888
 H1463 H 0.39163 0.98042 -0.17531
 H1464 H 0.41216 0.97398 -0.13658
 C1465 C 0.58043 0.49014 -0.12935
 C1466 C 0.60276 0.47784 -0.13033
 C1467 C 0.61428 0.47411 -0.15275
 C1468 C 0.60355 0.48260 -0.17449
 C1469 C 0.58130 0.49529 -0.17325
 C1470 C 0.56982 0.49899 -0.15082
 C1471 C 0.56780 0.49269 -0.10652
 C1472 C 0.55668 0.49437 -0.08766
 H1473 H 0.61111 0.47088 -0.11382
 H1474 H 0.63154 0.46454 -0.15309
 H1475 H 0.57243 0.50176 -0.18968
 H1476 H 0.55246 0.50839 -0.15028
 C1477 C 0.07904 -0.01073 0.37060
 C1478 C 0.10111 -0.02346 0.36944
 C1479 C 0.11233 -0.02748 0.34694
 C1480 C 0.10157 -0.01883 0.32527
 C1481 C 0.07960 -0.00568 0.32669
 C1482 C 0.06841 -0.00170 0.34921
 C1483 C 0.06667 -0.00795 0.39354
 C1484 C 0.05574 -0.00611 0.41249
 H1485 H 0.10947 -0.03056 0.38589
 H1486 H 0.12940 -0.03739 0.34645
 H1487 H 0.07073 0.00094 0.31032
 H1488 H 0.05124 0.00805 0.34990
 C1489 C 0.13064 1.07998 1.01026
 C1490 C 0.13272 1.09913 1.02686
 C1491 C 0.15520 1.11048 1.03061
 C1492 C 0.17628 1.10284 1.01784
 C1493 C 0.17358 1.08381 1.00064
 C1494 C 0.15103 1.07250 0.99701
 C1495 C 0.10786 1.06726 1.00770
 C1496 C 0.08900 1.05613 1.00607
 H1497 H 0.11696 1.10520 1.03709
 H1498 H 0.15564 1.12568 1.04313
 H1499 H 0.18899 1.07651 0.99080
 H1500 H 0.14965 1.05750 0.98424
 C1501 C 0.62957 0.58042 0.50936
 C1502 C 0.63070 0.60287 0.52138
 C1503 C 0.65318 0.61436 0.52493
 C1504 C 0.67484 0.60348 0.51653
 C1505 C 0.67344 0.58111 0.50408
 C1506 C 0.65095 0.56967 0.50056
 C1507 C 0.60669 0.56783 0.50700
 C1508 C 0.58780 0.55672 0.50544
 H1509 H 0.61426 0.61135 0.52829
 H1510 H 0.65364 0.63171 0.53430
 H1511 H 0.68980 0.57212 0.49769
 H1512 H 0.65030 0.55221 0.49136
 C1513 C 0.62983 0.41901 -0.01001
 C1514 C 0.65032 0.42654 0.00310
 C1515 C 0.67284 0.41523 -0.00060
 C1516 C 0.67543 0.39609 -0.01771
 C1517 C 0.65428 0.38848 -0.03044
 C1518 C 0.63181 0.39986 -0.02662
 C1519 C 0.60703 0.43167 -0.00720
 C1520 C 0.58818 0.44278 -0.00530
 H1521 H 0.64903 0.44157 0.01584
 H1522 H 0.68831 0.42258 0.00915
 H1523 H 0.65464 0.37325 -0.04293
 H1524 H 0.61598 0.39376 -0.03676
 C1525 C 0.12962 -0.08134 0.49194
 C1526 C 0.15120 -0.07038 0.50002
 C1527 C 0.17363 -0.08175 0.49601
 C1528 C 0.17477 -0.10425 0.48377
 C1529 C 0.15293 -0.11534 0.47612
 C1530 C 0.13051 -0.10393 0.48016
 C1531 C 0.10676 -0.06879 0.49464
 C1532 C 0.08786 -0.05772 0.49640
 H1533 H 0.15072 -0.05281 0.50901
 H1534 H 0.19013 -0.07262 0.50184
 H1535 H 0.15320 -0.13280 0.46693
 H1536 H 0.11392 -0.11255 0.47380
 C1537 C 0.37015 -0.08033 0.50612
 C1538 C 0.36871 -0.09939 0.52293
 C1539 C 0.34650 -0.11108 0.52717
 C1540 C 0.32503 -0.10388 0.51472
 C1541 C 0.32709 -0.08497 0.49725
 C1542 C 0.34938 -0.07331 0.49313
 C1543 C 0.39265 -0.06717 0.50325
 C1544 C 0.41140 -0.05584 0.50165
 H1545 H 0.38475 -0.10511 0.53297
 H1546 H 0.34655 -0.12617 0.53986
 H1547 H 0.31136 -0.07801 0.48761
 H1548 H 0.35025 -0.05838 0.48021
 C1549 C -0.13103 0.42133 1.00963
 C1550 C -0.14300 0.42464 1.03188
 C1551 C -0.16535 0.41331 1.03618
 C1552 C -0.17607 0.39843 1.01826
 C1553 C -0.16393 0.39520 0.99589
 C1554 C -0.14151 0.40660 0.99162
 C1555 C -0.10818 0.43345 1.00549
 C1556 C -0.08923 0.44428 1.00308
 H1557 H -0.13510 0.43612 1.04589
 H1558 H -0.17442 0.41646 1.05342
 H1559 H -0.17164 0.38367 0.98184
 H1560 H -0.13238 0.40392 0.97432
 C1561 C -0.13047 0.58014 0.49004
 C1562 C -0.13223 0.59938 0.47347
 C1563 C -0.15456 0.61100 0.46958
 C1564 C -0.17581 0.60355 0.48218
 C1565 C -0.17343 0.58440 0.49935
 C1566 C -0.15103 0.57283 0.50311
 C1567 C -0.10784 0.56717 0.49275
 C1568 C -0.08908 0.55587 0.49448
 H1569 H -0.11633 0.60533 0.46338
 H1570 H -0.15475 0.62626 0.45710
 H1571 H -0.18900 0.57722 0.50904
 H1572 H -0.14990 0.55776 0.51585
 C1573 C 0.37098 1.08066 -0.00957
 C1574 C 0.36885 1.09988 -0.02613
 C1575 C 0.34631 1.11114 -0.02994
 C1576 C 0.32522 1.10335 -0.01727
 C1577 C 0.32797 1.08421 -0.00015
 C1578 C 0.35056 1.07300 0.00354
 C1579 C 0.39381 1.06801 -0.00692
 C1580 C 0.41267 1.05688 -0.00523
 H1581 H 0.38461 1.10608 -0.03627
 H1582 H 0.34583 1.12640 -0.04241
 H1583 H 0.31256 1.07675 0.00958
 H1584 H 0.35197 1.05793 0.01625
 C1585 C 0.00928 1.12950 1.08195
 C1586 C 0.02568 1.13147 1.10134
 C1587 C 0.02957 1.15397 1.11260
 C1588 C 0.01716 1.17518 1.10464
 C1589 C 0.00014 1.17259 1.08538
 C1590 C -0.00363 1.15003 1.07416
 C1591 C 0.00665 1.10671 1.06927
 C1592 C 0.00498 1.08786 1.05814
 H1593 H 0.03565 1.11562 1.10766
 H1594 H 0.04192 1.15433 1.12798
 H1595 H -0.00942 1.18809 1.07782
 H1596 H -0.01623 1.14874 1.05898
 C1597 C 0.51164 0.63080 0.57936
 C1598 C 0.53387 0.64292 0.57648
 C1599 C 0.53771 0.66543 0.58767
 C1600 C 0.51934 0.67615 0.60195
 C1601 C 0.49700 0.66386 0.60474
 C1602 C 0.49319 0.64129 0.59350
 C1603 C 0.50784 0.60789 0.56725
 C1604 C 0.50543 0.58895 0.55643
 H1605 H 0.54821 0.63504 0.56543
 H1606 H 0.55494 0.67462 0.58485
 H1607 H 0.48261 0.67157 0.61582
 H1608 H 0.47590 0.63205 0.59581
 C1609 C -0.01281 0.62920 0.41900
 C1610 C -0.03509 0.64125 0.42191
 C1611 C -0.03900 0.66382 0.41081
 C1612 C -0.02066 0.67471 0.39659
 C1613 C 0.00169 0.66244 0.39370
 C1614 C 0.00557 0.63980 0.40485
 C1615 C -0.00888 0.60629 0.43118
 C1616 C -0.00638 0.58738 0.44211
 H1617 H -0.04939 0.63329 0.43296
 H1618 H -0.05625 0.67297 0.41373
 H1619 H 0.01606 0.67024 0.38267
 H1620 H 0.02290 0.63063 0.40251
 C1621 C 0.49032 1.12939 -0.08131
 C1622 C 0.50353 1.14981 -0.07382
 C1623 C 0.49980 1.17235 -0.08511
 C1624 C 0.48257 1.17505 -0.10417
 C1625 C 0.46976 1.15396 -0.11177
 C1626 C 0.47360 1.13146 -0.10042
 C1627 C 0.49308 1.10661 -0.06861
 C1628 C 0.49495 1.08778 -0.05743
 H1629 H 0.51636 1.14844 -0.05884
 H1630 H 0.50963 1.18777 -0.07778
 H1631 H 0.45717 1.15439 -0.12695
 H1632 H 0.46338 1.11569 -0.10649
 C1633 C 0.51012 0.36899 -0.08000
 C1634 C 0.49691 0.34849 -0.07276
 C1635 C 0.50067 0.32607 -0.08423
 C1636 C 0.51795 0.32359 -0.10322
 C1637 C 0.53075 0.34476 -0.11056
 C1638 C 0.52688 0.36713 -0.09903
 C1639 C 0.50729 0.39168 -0.06718
 C1640 C 0.50538 0.41046 -0.05597
 H1641 H 0.48403 0.34970 -0.05784
 H1642 H 0.49083 0.31056 -0.07710
 H1643 H 0.54337 0.34450 -0.12568
 H1644 H 0.53709 0.38297 -0.10491
 C1645 C 0.00899 -0.13086 0.42131
 C1646 C 0.00021 -0.15228 0.43202
 C1647 C 0.00377 -0.17472 0.42053
 C1648 C 0.01624 -0.17603 0.39818
 C1649 C 0.02465 -0.15433 0.38736
 C1650 C 0.02106 -0.13191 0.39888
 C1651 C 0.00656 -0.10800 0.43390
 C1652 C 0.00494 -0.08910 0.44496
 H1653 H -0.00903 -0.15167 0.44946
 H1654 H -0.00265 -0.19111 0.42945
 H1655 H 0.03403 -0.15472 0.37000
 H1656 H 0.02794 -0.11543 0.39044
 C1657 C 0.49000 -0.13052 0.57774
 C1658 C 0.46764 -0.14242 0.57481
 C1659 C 0.46340 -0.16467 0.58641
 C1660 C 0.48149 -0.17535 0.60115
 C1661 C 0.50391 -0.16321 0.60408
 C1662 C 0.50812 -0.14091 0.59243
 C1663 C 0.49414 -0.10781 0.56531
 C1664 C 0.49659 -0.08895 0.55432
 H1665 H 0.45353 -0.13459 0.56339
 H1666 H 0.44611 -0.17373 0.58348
 H1667 H 0.51809 -0.17086 0.61552
 H1668 H 0.52548 -0.13181 0.59484
 C1669 C -0.00693 0.36988 1.07927
 C1670 C -0.02347 0.36836 1.09852
 C1671 C -0.02767 0.34609 1.11012
 C1672 C -0.01544 0.32464 1.10264
 C1673 C 0.00175 0.32676 1.08351
 C1674 C 0.00583 0.34911 1.07194
 C1675 C -0.00413 0.39245 1.06622
 C1676 C -0.00264 0.41125 1.05495
 H1677 H -0.03334 0.38440 1.10447
 H1678 H -0.04014 0.34609 1.12537
 H1679 H 0.01120 0.31105 1.07633
 H1680 H 0.01853 0.35005 1.05686
 C1681 C 0.76093 0.33164 0.12022
 C1682 C 0.74757 0.32414 0.09987
 C1683 C 0.75100 0.33551 0.07732
 C1684 C 0.76810 0.35463 0.07456
 C1685 C 0.78102 0.36225 0.09559
 C1686 C 0.77747 0.35084 0.11808
 C1687 C 0.75850 0.31889 0.14300
 C1688 C 0.75692 0.30771 0.16185
 H1689 H 0.73486 0.30910 0.10129
 H1690 H 0.74108 0.32818 0.06194
 H1691 H 0.79350 0.37749 0.09510
 H1692 H 0.78779 0.35692 0.13381
 C1693 C 0.26326 0.83072 0.61881
 C1694 C 0.28533 0.82748 0.60649
 C1695 C 0.28910 0.83856 0.58388
 C1696 C 0.27080 0.85307 0.57323
 C1697 C 0.24868 0.85633 0.58580
 C1698 C 0.24495 0.84520 0.60846
 C1699 C 0.25938 0.81851 0.64171
 C1700 C 0.25682 0.80757 0.66059
 H1701 H 0.29957 0.81618 0.61426
 H1702 H 0.30617 0.83541 0.57451
 H1703 H 0.23436 0.86761 0.57819
 H1704 H 0.22777 0.84780 0.61784
 C1705 C 0.73964 0.67069 0.61846
 C1706 C 0.71730 0.67368 0.60651
 C1707 C 0.71305 0.66222 0.58419
 C1708 C 0.73113 0.64755 0.57348
 C1709 C 0.75355 0.64458 0.58566
 C1710 C 0.75776 0.65609 0.60804
 C1711 C 0.74381 0.68300 0.64124
 C1712 C 0.74634 0.69388 0.66016
 H1713 H 0.70318 0.68504 0.61436
 H1714 H 0.69576 0.66517 0.57510
 H1715 H 0.76772 0.63319 0.57799
 H1716 H 0.77512 0.65364 0.61716
 C1717 C 0.24039 0.16931 0.11953
 C1718 C 0.21822 0.17259 0.10734
 C1719 C 0.21410 0.16124 0.08495
 C1720 C 0.23213 0.14638 0.07441
 C1721 C 0.25441 0.14319 0.08678
 C1722 C 0.25850 0.15459 0.10924
 C1723 C 0.24436 0.18147 0.14241
 C1724 C 0.24664 0.19230 0.16137
 H1725 H 0.20413 0.18405 0.11508
 H1726 H 0.19692 0.16436 0.07570
 H1727 H 0.26854 0.13168 0.07922
 H1728 H 0.27574 0.15195 0.11854
 C1729 C 0.26053 0.17085 0.88169
 C1730 C 0.24256 0.15588 0.89186
 C1731 C 0.24681 0.14416 0.91415
 C1732 C 0.26913 0.14728 0.92647
 C1733 C 0.28704 0.16236 0.91604
 C1734 C 0.28275 0.17403 0.89382
 C1735 C 0.25638 0.18330 0.85896
 C1736 C 0.25392 0.19429 0.84009
 H1737 H 0.22530 0.15329 0.88260
 H1738 H 0.23278 0.13248 0.92162
 H1739 H 0.30424 0.16543 0.92525
 H1740 H 0.29674 0.18567 0.88616
 C1741 C 0.76116 0.67103 0.38024
 C1742 C 0.74291 0.65642 0.39043
 C1743 C 0.74682 0.64486 0.41286
 C1744 C 0.76908 0.64782 0.42533
 C1745 C 0.78728 0.66254 0.41488
 C1746 C 0.78333 0.67404 0.39251
 C1747 C 0.75722 0.68348 0.35749
 C1748 C 0.75467 0.69454 0.33867
 H1749 H 0.72567 0.65399 0.38108
 H1750 H 0.73257 0.63345 0.42034
 H1751 H 0.80444 0.66547 0.42420
 H1752 H 0.79752 0.68544 0.38486
 C1753 C 0.23614 0.82811 0.38040
 C1754 C 0.25464 0.84271 0.39019
 C1755 C 0.25126 0.85428 0.41267
 C1756 C 0.22930 0.85137 0.42560
 C1757 C 0.21084 0.83667 0.41554
 C1758 C 0.21426 0.82515 0.39311
 C1759 C 0.23956 0.81568 0.35757
 C1760 C 0.24176 0.80468 0.33868
 H1761 H 0.27166 0.84511 0.38049
 H1762 H 0.26570 0.86567 0.41983
 H1763 H 0.19390 0.83375 0.42520
 H1764 H 0.19987 0.81377 0.38577
 C1765 C 0.73988 0.32814 0.88166
 C1766 C 0.75792 0.34299 0.89193
 C1767 C 0.75368 0.35471 0.91418
 C1768 C 0.73130 0.35173 0.92637
 C1769 C 0.71333 0.33678 0.91584
 C1770 C 0.71761 0.32510 0.89366
 C1771 C 0.74400 0.31573 0.85895
 C1772 C 0.74640 0.30477 0.84007
 H1773 H 0.77522 0.34548 0.88277
 H1774 H 0.76777 0.36630 0.92173
 H1775 H 0.69608 0.33381 0.92495
 H1776 H 0.70356 0.31356 0.88591
 C1777 C 0.83221 0.38110 0.23844
 C1778 C 0.84621 0.39175 0.25694
 C1779 C 0.85734 0.41439 0.25309
 C1780 C 0.85458 0.42660 0.23067
 C1781 C 0.84054 0.41564 0.21220
 C1782 C 0.82947 0.39307 0.21608
 C1783 C 0.81999 0.35823 0.24237
 C1784 C 0.80906 0.33935 0.24487
 H1785 H 0.84843 0.38265 0.27434
 H1786 H 0.86823 0.42225 0.26757
 H1787 H 0.83773 0.42474 0.19490
 H1788 H 0.81854 0.38506 0.20169
 C1789 C 0.32993 0.88138 0.73808
 C1790 C 0.32737 0.89372 0.71591
 C1791 C 0.33898 0.91605 0.71230
 C1792 C 0.35338 0.92638 0.73085
 C1793 C 0.35580 0.91391 0.75316
 C1794 C 0.34414 0.89150 0.75673
 C1795 C 0.31752 0.85857 0.74156
 C1796 C 0.30651 0.83969 0.74368
 H1797 H 0.31628 0.88612 0.70142
 H1798 H 0.33641 0.92540 0.69509
 H1799 H 0.36692 0.92133 0.76768
 H1800 H 0.34619 0.88210 0.77399
 C1801 C 0.16662 0.87807 0.26147
 C1802 C 0.15753 0.89146 0.24179
 C1803 C 0.14630 0.91403 0.24569
 C1804 C 0.14391 0.92372 0.26950
 C1805 C 0.15311 0.90965 0.28913
 C1806 C 0.16429 0.88717 0.28510
 C1807 C 0.17920 0.85538 0.25763
 C1808 C 0.19034 0.83660 0.25526
 H1809 H 0.15916 0.88450 0.22338
 H1810 H 0.13889 0.92332 0.22994
 H1811 H 0.15293 0.91631 0.30767
 H1812 H 0.17157 0.87708 0.30047
 C1813 C 0.67053 0.38031 0.76107
 C1814 C 0.67341 0.39215 0.78346
 C1815 C 0.66196 0.41448 0.78768
 C1816 C 0.64742 0.42531 0.76951
 C1817 C 0.64452 0.41322 0.74705
 C1818 C 0.65602 0.39084 0.74287
 C1819 C 0.68292 0.35759 0.75691
 C1820 C 0.69391 0.33874 0.75442
 H1821 H 0.68469 0.38421 0.79763
 H1822 H 0.66486 0.42349 0.80500
 H1823 H 0.63324 0.42099 0.73281
 H1824 H 0.65366 0.38181 0.72547
 C1825 C 0.67173 0.61864 0.73951
 C1826 C 0.65715 0.60839 0.75777
 C1827 C 0.64550 0.58606 0.75377
 C1828 C 0.64829 0.57375 0.73143
 C1829 C 0.66295 0.58427 0.71323
 C1830 C 0.67455 0.60654 0.71726
 C1831 C 0.68417 0.64137 0.74343
 C1832 C 0.69517 0.66023 0.74570
 H1833 H 0.65484 0.61763 0.77507
 H1834 H 0.63413 0.57853 0.76804
 H1835 H 0.66577 0.57508 0.69600
 H1836 H 0.68589 0.61426 0.70305
 C1837 C 0.17123 0.11728 0.24330
 C1838 C 0.14897 0.11674 0.23083
 C1839 C 0.13726 0.09453 0.22656
 C1840 C 0.14771 0.07255 0.23469
 C1841 C 0.16989 0.07333 0.24759
 C1842 C 0.18158 0.09556 0.25183
 C1843 C 0.18410 0.13994 0.24614
 C1844 C 0.19524 0.15879 0.24775
 H1845 H 0.14083 0.13344 0.22410
 H1846 H 0.12005 0.09453 0.21685
 H1847 H 0.17853 0.05670 0.25381
 H1848 H 0.19890 0.09577 0.26134
 C1849 C 0.32991 0.11996 0.75800
 C1850 C 0.35216 0.11925 0.77051
 C1851 C 0.36383 0.09697 0.77462
 C1852 C 0.35334 0.07509 0.76631
 C1853 C 0.33117 0.07605 0.75340
 C1854 C 0.31954 0.09835 0.74932
 C1855 C 0.31708 0.14266 0.75526
 C1856 C 0.30590 0.16149 0.75365
 H1857 H 0.36032 0.13587 0.77736
 H1858 H 0.38102 0.09682 0.78436
 H1859 H 0.32249 0.05951 0.74706
 H1860 H 0.30222 0.09869 0.73978
 C1861 C 0.82824 0.62073 0.25979
 C1862 C 0.81784 0.59926 0.25077
 C1863 C 0.82945 0.57689 0.25451
 C1864 C 0.85162 0.57572 0.26740
 C1865 C 0.86213 0.59746 0.27603
 C1866 C 0.85049 0.61981 0.27226
 C1867 C 0.81551 0.64351 0.25722
 C1868 C 0.80437 0.66236 0.25553
 H1869 H 0.80054 0.59977 0.24123
 H1870 H 0.82077 0.56045 0.24791
 H1871 H 0.87933 0.59716 0.28575
 H1872 H 0.85869 0.63633 0.27934
 C1873 C 0.88183 0.26343 0.17029
 C1874 C 0.89173 0.24497 0.15575
 C1875 C 0.91415 0.24851 0.14413
 C1876 C 0.92691 0.27059 0.14695
 C1877 C 0.91674 0.28901 0.16158
 C1878 C 0.89437 0.28544 0.17315
 C1879 C 0.85909 0.25984 0.18282
 C1880 C 0.84030 0.25751 0.19392
 H1881 H 0.88217 0.22786 0.15344
 H1882 H 0.92141 0.23409 0.13279
 H1883 H 0.92628 0.30605 0.16442
 H1884 H 0.88694 0.29979 0.18449
 C1885 C 0.38012 0.76029 0.66841
 C1886 C 0.40157 0.75157 0.67916
 C1887 C 0.42401 0.75525 0.66772
 C1888 C 0.42530 0.76778 0.64536
 C1889 C 0.40358 0.77616 0.63451
 C1890 C 0.38114 0.77245 0.64600
 C1891 C 0.35727 0.75771 0.68098
 C1892 C 0.33840 0.75598 0.69206
 H1893 H 0.40099 0.74228 0.69659
 H1894 H 0.44042 0.74888 0.67669
 H1895 H 0.40396 0.78560 0.61717
 H1896 H 0.36464 0.77931 0.63754
 C1897 C 0.38123 0.23997 0.82897
 C1898 C 0.39164 0.25790 0.84383
 C1899 C 0.41402 0.25356 0.85535
 C1900 C 0.42619 0.23121 0.85213
 C1901 C 0.41552 0.21334 0.83716
 C1902 C 0.39321 0.21771 0.82569
 C1903 C 0.35840 0.24420 0.81673
 C1904 C 0.33944 0.24667 0.80587
 H1905 H 0.38249 0.27519 0.84651
 H1906 H 0.42167 0.26757 0.86696
 H1907 H 0.42461 0.19611 0.83402
 H1908 H 0.38536 0.20375 0.81413
 C1909 C 0.87825 0.74114 0.33076
 C1910 C 0.87935 0.72847 0.35288
 C1911 C 0.90184 0.72438 0.36420
 C1912 C 0.92353 0.73289 0.35349
 C1913 C 0.92217 0.74597 0.33145
 C1914 C 0.89967 0.75002 0.32016
 C1915 C 0.85534 0.74401 0.31828
 C1916 C 0.83641 0.74592 0.30725
 H1917 H 0.86288 0.72148 0.36122
 H1918 H 0.90228 0.71453 0.38132
 H1919 H 0.93855 0.75247 0.32259
 H1920 H 0.89902 0.75971 0.30295
 C1921 C 0.11780 0.76060 0.32980
 C1922 C 0.10748 0.74208 0.34400
 C1923 C 0.08511 0.74589 0.35565
 C1924 C 0.07285 0.76831 0.35324
 C1925 C 0.08344 0.78677 0.33892
 C1926 C 0.10574 0.78292 0.32732
 C1927 C 0.14052 0.75682 0.31729
 C1928 C 0.15932 0.75444 0.30620
 H1929 H 0.11667 0.72472 0.34602
 H1930 H 0.07752 0.73143 0.36673
 H1931 H 0.07428 0.80407 0.33636
 H1932 H 0.11349 0.79733 0.31625
 C1933 C 0.61940 0.25961 0.82963
 C1934 C 0.60743 0.28192 0.82661
 C1935 C 0.58511 0.28612 0.83806
 C1936 C 0.57442 0.26803 0.85274
 C1937 C 0.58660 0.24563 0.85572
 C1938 C 0.60898 0.24146 0.84422
 C1939 C 0.64219 0.25553 0.81735
 C1940 C 0.66109 0.25314 0.80645
 H1941 H 0.61528 0.29605 0.81526
 H1942 H 0.57602 0.30340 0.83510
 H1943 H 0.57893 0.23145 0.86710
 H1944 H 0.61811 0.22412 0.84668
 C1945 C 0.61940 0.74103 0.67088
 C1946 C 0.60733 0.71880 0.67397
 C1947 C 0.58503 0.71465 0.66244
 C1948 C 0.57446 0.73271 0.64760
 C1949 C 0.58664 0.75510 0.64467
 C1950 C 0.60903 0.75921 0.65625
 C1951 C 0.64230 0.74489 0.68304
 C1952 C 0.66132 0.74698 0.69384
 H1953 H 0.61514 0.70466 0.68537
 H1954 H 0.57591 0.69741 0.66539
 H1955 H 0.57902 0.76925 0.63319
 H1956 H 0.61824 0.77649 0.65376
 C1957 C 0.11908 0.23864 0.17159
 C1958 C 0.10912 0.25665 0.15647
 C1959 C 0.08673 0.25270 0.14487
 C1960 C 0.07407 0.23064 0.14827
 C1961 C 0.08428 0.21269 0.16351
 C1962 C 0.10661 0.21668 0.17506
 C1963 C 0.14193 0.24248 0.18387
 C1964 C 0.16090 0.24471 0.19474
 H1965 H 0.11865 0.27371 0.15366
 H1966 H 0.07943 0.26675 0.13306
 H1967 H 0.07481 0.19569 0.16679
 H1968 H 0.11410 0.20266 0.18682
 C1969 C -0.07794 1.00940 0.86888
 C1970 C -0.09651 1.02679 0.86738
 C1971 C -0.10811 1.03144 0.84510
 C1972 C -0.10140 1.01868 0.82371
 C1973 C -0.08248 1.00118 0.82574
 C1974 C -0.07097 0.99666 0.84803
 C1975 C -0.06546 1.00519 0.89161
 C1976 C -0.05467 1.00214 0.91055
 H1977 H -0.10210 1.03676 0.88347
 H1978 H -0.12293 1.04442 0.84513
 H1979 H -0.07557 0.99156 0.81002
 H1980 H -0.05634 0.98341 0.84889
 C1981 C 0.42025 0.50797 0.36925
 C1982 C 0.39798 0.52045 0.36870
 C1983 C 0.38641 0.52516 0.34643
 C1984 C 0.39701 0.51741 0.32441
 C1985 C 0.41940 0.50488 0.32519
 C1986 C 0.43091 0.50022 0.34745
 C1987 C 0.43267 0.50392 0.39203
 C1988 C 0.44349 0.50112 0.41098
 H1989 H 0.38961 0.52663 0.38548
 H1990 H 0.36908 0.53460 0.34643
 H1991 H 0.42821 0.49901 0.30855
 H1992 H 0.44825 0.49075 0.34763
 C1993 C 0.57973 -0.00582 0.36837
 C1994 C 0.58182 -0.02976 0.35997
 C1995 C 0.59340 -0.03468 0.33784
 C1996 C 0.60315 -0.01566 0.32340
 C1997 C 0.60113 0.00844 0.33248
 C1998 C 0.58954 0.01324 0.35466
 C1999 C 0.56712 -0.00103 0.39087
 C2000 C 0.55623 0.00191 0.40972
 H2001 H 0.57413 -0.04467 0.37039
 H2002 H 0.59349 -0.05341 0.33172
 H2003 H 0.60911 0.02376 0.32301
 H2004 H 0.58825 0.03185 0.36112
 C2005 C 0.07901 0.49374 0.86801
 C2006 C 0.10111 0.48094 0.86778
 C2007 C 0.11272 0.47585 0.84564
 C2008 C 0.10234 0.48352 0.82345
 C2009 C 0.08011 0.49637 0.82393
 C2010 C 0.06856 0.50142 0.84604
 C2011 C 0.06646 0.49801 0.89065
 C2012 C 0.05556 0.50081 0.90953
 H2013 H 0.10931 0.47479 0.88469
 H2014 H 0.12992 0.46616 0.84589
 H2015 H 0.07145 0.50219 0.80715
 H2016 H 0.05134 0.51110 0.84597
 C2017 C 0.07851 0.50856 0.63067
 C2018 C 0.06804 0.50101 0.65264
 C2019 C 0.07970 0.50596 0.67475
 C2020 C 0.10205 0.51857 0.67519
 C2021 C 0.11244 0.52612 0.65300
 C2022 C 0.10072 0.52113 0.63088
 C2023 C 0.06595 0.50419 0.60802
 C2024 C 0.05508 0.50114 0.58915
 H2025 H 0.05075 0.49147 0.65271
 H2026 H 0.07105 0.50024 0.69154
 H2027 H 0.12973 0.53563 0.65274
 H2028 H 0.10894 0.52714 0.61396
 C2029 C 0.57992 1.01019 0.13011
 C2030 C 0.59428 0.99225 0.14122
 C2031 C 0.60609 0.99714 0.16331
 C2032 C 0.60367 1.02006 0.17460
 C2033 C 0.58945 1.03806 0.16311
 C2034 C 0.57766 1.03313 0.14104
 C2035 C 0.56729 1.00517 0.10762
 C2036 C 0.55644 1.00171 0.08879
 H2037 H 0.59625 0.97447 0.13288
 H2038 H 0.61717 0.98300 0.17153
 H2039 H 0.58698 1.05576 0.17146
 H2040 H 0.56656 1.04716 0.13261
 C2041 C 0.42097 0.49004 0.13185
 C2042 C 0.43136 0.49810 0.15371
 C2043 C 0.41979 0.49335 0.17589
 C2044 C 0.39762 0.48045 0.17655
 C2045 C 0.38732 0.47238 0.15448
 C2046 C 0.39893 0.47716 0.13227
 C2047 C 0.43341 0.49426 0.10913
 C2048 C 0.44419 0.49722 0.09021
 H2049 H 0.44851 0.50788 0.15363
 H2050 H 0.42839 0.49948 0.19258
 H2051 H 0.37016 0.46264 0.15437
 H2052 H 0.39077 0.47076 0.11546
 C2053 C -0.07917 -0.01015 0.63215
 C2054 C -0.08916 0.00913 0.64537
 C2055 C -0.10101 0.00471 0.66748
 C2056 C -0.10312 -0.01922 0.67697
 C2057 C -0.09326 -0.03851 0.66299
 C2058 C -0.08139 -0.03396 0.64091
 C2059 C -0.06636 -0.00560 0.60971
 C2060 C -0.05545 -0.00245 0.59091
 H2061 H -0.08780 0.02763 0.63859
 H2062 H -0.10912 0.02019 0.67656
 H2063 H -0.09346 -0.05713 0.66945
 H2064 H -0.07360 -0.04904 0.63084
 C2065 C -0.13068 0.92095 1.01002
 C2066 C -0.13951 0.91870 1.03380
 C2067 C -0.16171 0.90702 1.03822
 C2068 C -0.17576 0.89737 1.01884
 C2069 C -0.16623 0.89954 0.99493
 C2070 C -0.14399 0.91121 0.99064
 C2071 C -0.10812 0.93360 1.00561
 C2072 C -0.08924 0.94443 1.00257
 H2073 H -0.12938 0.92633 1.04896
 H2074 H -0.16819 0.90678 1.05683
 H2075 H -0.17537 0.89161 0.97937
 H2076 H -0.13719 0.91261 0.97216
 C2077 C 0.36759 0.42170 0.51011
 C2078 C 0.36719 0.39969 0.52307
 C2079 C 0.34501 0.38793 0.52765
 C2080 C 0.32296 0.39806 0.51928
 C2081 C 0.32361 0.42021 0.50632
 C2082 C 0.34575 0.43192 0.50179
 C2083 C 0.39028 0.43423 0.50598
 C2084 C 0.40918 0.44505 0.50302
 H2085 H 0.38399 0.39166 0.52967
 H2086 H 0.34514 0.37080 0.53745
 H2087 H 0.30693 0.42868 0.49998
 H2088 H 0.34582 0.44904 0.49193
 C2089 C 0.36757 0.57715 -0.00865
 C2090 C 0.36748 0.59950 -0.02100
 C2091 C 0.34544 0.61141 -0.02587
 C2092 C 0.32319 0.60107 -0.01842
 C2093 C 0.32351 0.57861 -0.00601
 C2094 C 0.34554 0.56675 -0.00118
 C2095 C 0.39016 0.56447 -0.00440
 C2096 C 0.40906 0.55361 -0.00146
 H2097 H 0.38444 0.60768 -0.02694
 H2098 H 0.34581 0.62879 -0.03521
 H2099 H 0.30667 0.57001 -0.00036
 H2100 H 0.34537 0.54936 0.00820
 C2101 C -0.13151 0.07843 0.49258
 C2102 C -0.13268 0.09723 0.47542
 C2103 C -0.15485 0.10887 0.47050
 C2104 C -0.17647 0.10196 0.48274
 C2105 C -0.17477 0.08290 0.50012
 C2106 C -0.15258 0.07133 0.50491
 C2107 C -0.10890 0.06580 0.49686
 C2108 C -0.09002 0.05492 0.49981
 H2109 H -0.11642 0.10293 0.46579
 H2110 H -0.15455 0.12385 0.45770
 H2111 H -0.19067 0.07589 0.50938
 H2112 H -0.15195 0.05653 0.51799
 C2113 C 0.63111 0.07980 0.50781
 C2114 C 0.64210 0.07743 0.53076
 C2115 C 0.66401 0.08943 0.53584
 C2116 C 0.67528 0.10397 0.51799
 C2117 C 0.66391 0.10652 0.49507
 C2118 C 0.64197 0.09451 0.49004
 C2119 C 0.60878 0.06697 0.50269
 C2120 C 0.59005 0.05593 0.49936
 H2121 H 0.63385 0.06609 0.54466
 H2122 H 0.67244 0.08683 0.55351
 H2123 H 0.67196 0.11784 0.48105
 H2124 H 0.63358 0.09659 0.47227
 C2125 C 0.13060 0.57950 1.00620
 C2126 C 0.13877 0.58191 1.03022
 C2127 C 0.16073 0.59379 1.03526
 C2128 C 0.17521 0.60351 1.01626
 C2129 C 0.16633 0.60121 0.99208
 C2130 C 0.14432 0.58933 0.98718
 C2131 C 0.10828 0.56661 1.00128
 C2132 C 0.08954 0.55555 0.99818
 H2133 H 0.12832 0.57422 1.04511
 H2134 H 0.16671 0.59411 1.05404
 H2135 H 0.17582 0.60919 0.97677
 H2136 H 0.13801 0.58782 0.96851
 C2137 C 0.13072 0.42060 0.49010
 C2138 C 0.15246 0.43107 0.49832
 C2139 C 0.17473 0.41957 0.49378
 C2140 C 0.17557 0.39739 0.48094
 C2141 C 0.15361 0.38699 0.47270
 C2142 C 0.13132 0.39854 0.47728
 C2143 C 0.10792 0.43295 0.49415
 C2144 C 0.08897 0.44369 0.49704
 H2145 H 0.15224 0.44824 0.50806
 H2146 H 0.19133 0.42824 0.50002
 H2147 H 0.15364 0.36982 0.46299
 H2148 H 0.11459 0.39032 0.47076
 C2149 C 0.63163 0.92024 -0.01074
 C2150 C 0.64241 0.90572 0.00728
 C2151 C 0.66456 0.89397 0.00268
 C2152 C 0.67625 0.89662 -0.02002
 C2153 C 0.66507 0.91097 -0.03812
 C2154 C 0.64293 0.92270 -0.03348
 C2155 C 0.60912 0.93288 -0.00596
 C2156 C 0.59030 0.94376 -0.00268
 H2157 H 0.63378 0.90359 0.02490
 H2158 H 0.67254 0.88278 0.01688
 H2159 H 0.67373 0.91360 -0.05565
 H2160 H 0.63475 0.93392 -0.04756
 C2161 C 0.00977 0.86895 0.92160
 C2162 C -0.00948 0.85533 0.91204
 C2163 C -0.00492 0.83324 0.90019
 C2164 C 0.01913 0.82415 0.89765
 C2165 C 0.03837 0.83850 0.90715
 C2166 C 0.03367 0.86055 0.91900
 C2167 C 0.00512 0.89139 0.93439
 C2168 C 0.00197 0.91018 0.94533
 H2169 H -0.02807 0.86179 0.91370
 H2170 H -0.02041 0.82387 0.89240
 H2171 H 0.05709 0.83236 0.90664
 H2172 H 0.04874 0.87091 0.92649
 C2173 C 0.50894 0.36895 0.42230
 C2174 C 0.50145 0.34691 0.43267
 C2175 C 0.50646 0.32491 0.42091
 C2176 C 0.51906 0.32464 0.39856
 C2177 C 0.52657 0.34690 0.38829
 C2178 C 0.52152 0.36891 0.40010
 C2179 C 0.50444 0.39151 0.43488
 C2180 C 0.50128 0.41037 0.44567
 H2181 H 0.49190 0.34671 0.44995
 H2182 H 0.50077 0.30806 0.42946
 H2183 H 0.53607 0.34729 0.37100
 H2184 H 0.52748 0.38589 0.39196
 C2185 C -0.00861 0.36810 0.57858
 C2186 C -0.02598 0.36686 0.59715
 C2187 C -0.03066 0.34474 0.60897
 C2188 C -0.01797 0.32325 0.60247
 C2189 C -0.00039 0.32503 0.58364
 C2190 C 0.00416 0.34717 0.57190
 C2191 C -0.00452 0.39065 0.56577
 C2192 C -0.00168 0.40948 0.55478
 H2193 H -0.03596 0.38303 0.60254
 H2194 H -0.04367 0.34496 0.62375
 H2195 H 0.00922 0.30922 0.57691
 H2196 H 0.01742 0.34784 0.55728
 C2197 C 0.48982 0.86814 0.07806
 C2198 C 0.50765 0.85732 0.09277
 C2199 C 0.50273 0.83538 0.10480
 C2200 C 0.47988 0.82396 0.10224
 C2201 C 0.46198 0.83517 0.08766
 C2202 C 0.46695 0.85710 0.07565
 C2203 C 0.49487 0.89052 0.06530
 C2204 C 0.49832 0.90929 0.05440
 H2205 H 0.52538 0.86577 0.09488
 H2206 H 0.51678 0.82737 0.11615
 H2207 H 0.44433 0.82670 0.08508
 H2208 H 0.45300 0.86532 0.06429
 C2209 C 0.50748 0.63049 0.07869
 C2210 C 0.52002 0.63118 0.10094
 C2211 C 0.52458 0.65351 0.11239
 C2212 C 0.51665 0.67544 0.10168
 C2213 C 0.50404 0.67451 0.07932
 C2214 C 0.49951 0.65220 0.06793
 C2215 C 0.50355 0.60764 0.06641
 C2216 C 0.50081 0.58863 0.05574
 H2217 H 0.52634 0.61448 0.10939
 H2218 H 0.53409 0.65361 0.12970
 H2219 H 0.49801 0.69109 0.07044
 H2220 H 0.48998 0.65191 0.05061
 C2221 C 0.00851 0.13120 0.57972
 C2222 C 0.02585 0.13260 0.59836
 C2223 C 0.03045 0.15481 0.61002
 C2224 C 0.01772 0.17623 0.60328
 C2225 C 0.00017 0.17428 0.58438
 C2226 C -0.00431 0.15205 0.57281
 C2227 C 0.00448 0.10855 0.56708
 C2228 C 0.00163 0.08967 0.55622
 H2229 H 0.03585 0.11650 0.60393
 H2230 H 0.04344 0.15472 0.62486
 H2231 H -0.00948 0.19002 0.57748
 H2232 H -0.01754 0.15125 0.55814
 C2233 C 0.49375 0.13193 0.42035
 C2234 C 0.48094 0.13240 0.39824
 C2235 C 0.47594 0.15463 0.38675
 C2236 C 0.48373 0.17668 0.39725
 C2237 C 0.49661 0.17597 0.41947
 C2238 C 0.50157 0.15376 0.43091
 C2239 C 0.49791 0.10919 0.43279
 C2240 C 0.50063 0.09024 0.44360
 H2241 H 0.47469 0.11560 0.38996
 H2242 H 0.46622 0.15457 0.36955
 H2243 H 0.50252 0.19264 0.42821
 H2244 H 0.51127 0.15363 0.44814
 C2245 C -0.00787 0.63103 0.91920
 C2246 C -0.03177 0.63952 0.91683
 C2247 C -0.03652 0.66179 0.90538
 C2248 C -0.01734 0.67629 0.89605
 C2249 C 0.00672 0.66709 0.89829
 C2250 C 0.01133 0.64478 0.90975
 C2251 C -0.00320 0.60845 0.93179
 C2252 C -0.00020 0.58958 0.94269
 H2253 H -0.04680 0.62907 0.92424
 H2254 H -0.05523 0.66797 0.90508
 H2255 H 0.02216 0.67659 0.89059
 H2256 H 0.02992 0.63826 0.91124
 C2257 C 0.25895 0.67262 0.88092
 C2258 C 0.25128 0.68309 0.90284
 C2259 C 0.25584 0.67127 0.92496
 C2260 C 0.26816 0.64877 0.92547
 C2261 C 0.27585 0.63838 0.90333
 C2262 C 0.27126 0.65025 0.88120
 C2263 C 0.25487 0.68524 0.85826
 C2264 C 0.25201 0.69610 0.83935
 H2265 H 0.24193 0.70049 0.90286
 H2266 H 0.25001 0.67991 0.94171
 H2267 H 0.28514 0.62097 0.90312
 H2268 H 0.27735 0.64202 0.86432
 C2269 C 0.75992 0.17206 0.38167
 C2270 C 0.75226 0.18266 0.40354
 C2271 C 0.75665 0.17088 0.42571
 C2272 C 0.76881 0.14829 0.42634
 C2273 C 0.77641 0.13773 0.40425
 C2274 C 0.77198 0.14956 0.38206
 C2275 C 0.75612 0.18469 0.35896
 C2276 C 0.75345 0.19558 0.34004
 H2277 H 0.74309 0.20016 0.40348
 H2278 H 0.75088 0.17963 0.44243
 H2279 H 0.78554 0.12023 0.40412
 H2280 H 0.77805 0.14122 0.36523
 C2281 C 0.24278 0.32719 0.38140
 C2282 C 0.26054 0.34188 0.39233
 C2283 C 0.25541 0.35405 0.41415
 C2284 C 0.23242 0.35166 0.42531
 C2285 C 0.21464 0.33706 0.41402
 C2286 C 0.21980 0.32492 0.39223
 C2287 C 0.24789 0.31438 0.35907
 C2288 C 0.25108 0.30337 0.34032
 H2289 H 0.27834 0.34388 0.38404
 H2290 H 0.26939 0.36540 0.42224
 H2291 H 0.19690 0.33458 0.42230
 H2292 H 0.20592 0.31359 0.38393
 C2293 C 0.74505 0.82787 0.88096
 C2294 C 0.75296 0.81787 0.90307
 C2295 C 0.74777 0.82968 0.92502
 C2296 C 0.73456 0.85168 0.92518
 C2297 C 0.72673 0.86164 0.90286
 C2298 C 0.73196 0.84979 0.88089
 C2299 C 0.74933 0.81503 0.85849
 C2300 C 0.75204 0.80401 0.83968
 H2301 H 0.76287 0.80079 0.90336
 H2302 H 0.75371 0.82134 0.94192
 H2303 H 0.71675 0.87866 0.90238
 H2304 H 0.72564 0.85763 0.86388
 C2305 C 0.75692 0.82940 0.11843
 C2306 C 0.74930 0.81900 0.09643
 C2307 C 0.75432 0.83065 0.07435
 C2308 C 0.76706 0.85292 0.07396
 C2309 C 0.77461 0.86327 0.09617
 C2310 C 0.76956 0.85157 0.11827
 C2311 C 0.75263 0.81680 0.14105
 C2312 C 0.74969 0.80596 0.15994
 H2313 H 0.73971 0.80174 0.09633
 H2314 H 0.74860 0.82202 0.05754
 H2315 H 0.78424 0.88050 0.09646
 H2316 H 0.77562 0.85973 0.13521
 C2317 C 0.25530 0.32946 0.61961
 C2318 C 0.26787 0.35167 0.61912
 C2319 C 0.27316 0.36293 0.59683
 C2320 C 0.26593 0.35208 0.57473
 C2321 C 0.25326 0.32978 0.57547
 C2322 C 0.24801 0.31857 0.59774
 C2323 C 0.25101 0.31717 0.64242
 C2324 C 0.24827 0.30642 0.66141
 H2325 H 0.27373 0.36020 0.63594
 H2326 H 0.28268 0.38021 0.59688
 H2327 H 0.24777 0.32077 0.55878
 H2328 H 0.23852 0.30126 0.59787
 C2329 C 0.74326 0.17133 0.61904
 C2330 C 0.72994 0.14957 0.61855
 C2331 C 0.72470 0.13821 0.59630
 C2332 C 0.73275 0.14852 0.57424
 C2333 C 0.74613 0.17040 0.57496
 C2334 C 0.75133 0.18170 0.59719
 C2335 C 0.74767 0.18365 0.64180
 C2336 C 0.75056 0.19436 0.66079
 H2337 H 0.72348 0.14144 0.63535
 H2338 H 0.71459 0.12127 0.59636
 H2339 H 0.75226 0.17901 0.55829
 H2340 H 0.76142 0.19868 0.59732
 C2341 C 0.24007 0.67076 0.11810
 C2342 C 0.22724 0.64871 0.11739
 C2343 C 0.22271 0.63723 0.09506
 C2344 C 0.23098 0.64768 0.07315
 C2345 C 0.24391 0.66982 0.07410
 C2346 C 0.24841 0.68125 0.09641
 C2347 C 0.24393 0.68309 0.14094
 C2348 C 0.24661 0.69377 0.15996
 H2349 H 0.22064 0.64046 0.13407
 H2350 H 0.21293 0.62009 0.09494
 H2351 H 0.25019 0.67852 0.05753
 H2352 H 0.25817 0.69841 0.09672
 C2353 C 0.17188 0.61972 0.74015
 C2354 C 0.18253 0.59791 0.74798
 C2355 C 0.17101 0.57569 0.74333
 C2356 C 0.14863 0.57496 0.73074
 C2357 C 0.13806 0.59698 0.72291
 C2358 C 0.14963 0.61922 0.72760
 C2359 C 0.18425 0.64248 0.74428
 C2360 C 0.19496 0.66144 0.74720
 H2361 H 0.19984 0.59805 0.75752
 H2362 H 0.17979 0.55903 0.74927
 H2363 H 0.12074 0.59703 0.71342
 H2364 H 0.14127 0.63601 0.72138
 C2365 C 0.67305 0.12006 0.24161
 C2366 C 0.65113 0.11994 0.22848
 C2367 C 0.63926 0.09791 0.22355
 C2368 C 0.64918 0.07572 0.23173
 C2369 C 0.67122 0.07607 0.24492
 C2370 C 0.68304 0.09808 0.24981
 C2371 C 0.68576 0.14260 0.24590
 C2372 C 0.69669 0.16143 0.24887
 H2373 H 0.64327 0.13686 0.22196
 H2374 H 0.62221 0.09826 0.21357
 H2375 H 0.67953 0.05927 0.25114
 H2376 H 0.70011 0.09793 0.25979
 C2377 C 0.82962 0.11872 0.75684
 C2378 C 0.85199 0.11844 0.76918
 C2379 C 0.86349 0.09627 0.77446
 C2380 C 0.85270 0.07409 0.76746
 C2381 C 0.83022 0.07461 0.75504
 C2382 C 0.81878 0.09676 0.74979
 C2383 C 0.81715 0.14142 0.75247
 C2384 C 0.80628 0.16033 0.74966
 H2385 H 0.86048 0.13534 0.77484
 H2386 H 0.88090 0.09647 0.78378
 H2387 H 0.82129 0.05784 0.74971
 H2388 H 0.80135 0.09673 0.74047
 C2389 C 0.32691 0.61753 0.25809
 C2390 C 0.31651 0.59560 0.25031
 C2391 C 0.32822 0.57350 0.25514
 C2392 C 0.35053 0.57300 0.26785
 C2393 C 0.36087 0.59515 0.27558
 C2394 C 0.34912 0.61727 0.27072
 C2395 C 0.31429 0.64017 0.25394
 C2396 C 0.30340 0.65905 0.25109
 H2397 H 0.29923 0.59557 0.24072
 H2398 H 0.31960 0.55674 0.24927
 H2399 H 0.37814 0.59538 0.28517
 H2400 H 0.35729 0.63414 0.27691
 C2401 C 0.32896 0.37966 0.24344
 C2402 C 0.31815 0.40150 0.25089
 C2403 C 0.32944 0.42375 0.24580
 C2404 C 0.35175 0.42448 0.23315
 C2405 C 0.36250 0.40242 0.22573
 C2406 C 0.35115 0.38016 0.23086
 C2407 C 0.31667 0.35688 0.24772
 C2408 C 0.30595 0.33790 0.25053
 H2409 H 0.30086 0.40136 0.26040
 H2410 H 0.32051 0.44042 0.25143
 H2411 H 0.37977 0.40238 0.21621
 H2412 H 0.35962 0.36335 0.22490
 C2413 C 0.83011 0.88041 0.74428
 C2414 C 0.85221 0.88092 0.73154
 C2415 C 0.86361 0.90317 0.72654
 C2416 C 0.85301 0.92522 0.73422
 C2417 C 0.83085 0.92447 0.74713
 C2418 C 0.81950 0.90222 0.75210
 C2419 C 0.81766 0.85765 0.74822
 C2420 C 0.80682 0.83870 0.75069
 H2421 H 0.86052 0.86414 0.72530
 H2422 H 0.88076 0.90315 0.71680
 H2423 H 0.82204 0.94113 0.75297
 H2424 H 0.80228 0.90206 0.76174
 C2425 C 0.66973 0.88259 0.25810
 C2426 C 0.68032 0.90426 0.24988
 C2427 C 0.66896 0.92658 0.25441
 C2428 C 0.64678 0.92756 0.26726
 C2429 C 0.63622 0.90566 0.27542
 C2430 C 0.64764 0.88332 0.27085
 C2431 C 0.68205 0.85974 0.25426
 C2432 C 0.69275 0.84073 0.25159
 H2433 H 0.69752 0.90393 0.24018
 H2434 H 0.67774 0.94313 0.24822
 H2435 H 0.61906 0.90582 0.28515
 H2436 H 0.63932 0.86665 0.27738
 C2437 C 0.17133 0.38208 0.75768
 C2438 C 0.18199 0.40390 0.74993
 C2439 C 0.17063 0.42614 0.75484
 C2440 C 0.14839 0.42692 0.76760
 C2441 C 0.13781 0.40490 0.77537
 C2442 C 0.14923 0.38262 0.77042
 C2443 C 0.18368 0.35930 0.75348
 C2444 C 0.19447 0.34036 0.75067
 H2445 H 0.19922 0.40373 0.74030
 H2446 H 0.17944 0.44279 0.74895
 H2447 H 0.12059 0.40488 0.78499
 H2448 H 0.14087 0.36584 0.77662
 C2449 C 0.11911 0.75889 0.82816
 C2450 C 0.11898 0.77142 0.85040
 C2451 C 0.09694 0.77609 0.86234
 C2452 C 0.07474 0.76825 0.85216
 C2453 C 0.07509 0.75565 0.82981
 C2454 C 0.09712 0.75102 0.81792
 C2455 C 0.14166 0.75490 0.81538
 C2456 C 0.16049 0.75216 0.80441
 H2457 H 0.13591 0.77768 0.85845
 H2458 H 0.09727 0.78562 0.87962
 H2459 H 0.05829 0.74971 0.82131
 H2460 H 0.09697 0.74150 0.80062
 C2461 C 0.62006 0.25995 0.32838
 C2462 C 0.61960 0.27227 0.35073
 C2463 C 0.59737 0.27697 0.36229
 C2464 C 0.57531 0.26938 0.35161
 C2465 C 0.57601 0.25703 0.32913
 C2466 C 0.59822 0.25237 0.31762
 C2467 C 0.64282 0.25583 0.31602
 C2468 C 0.66178 0.25294 0.30531
 H2469 H 0.63642 0.27830 0.35918
 H2470 H 0.59744 0.28628 0.37969
 H2471 H 0.55933 0.25128 0.32026
 H2472 H 0.59834 0.24302 0.30023
 C2473 C 0.61665 0.74218 0.17154
 C2474 C 0.61647 0.72951 0.14938
 C2475 C 0.59437 0.72450 0.13763
 C2476 C 0.57217 0.73213 0.14793
 C2477 C 0.57259 0.74485 0.17021
 C2478 C 0.59467 0.74982 0.18191
 C2479 C 0.63928 0.74654 0.18413
 C2480 C 0.65816 0.74955 0.19499
 H2481 H 0.63339 0.72343 0.14124
 H2482 H 0.59466 0.71491 0.12038
 H2483 H 0.55580 0.75063 0.17879
 H2484 H 0.59458 0.75943 0.19916
 C2485 C 0.11833 0.24217 0.67233
 C2486 C 0.10752 0.25980 0.65738
 C2487 C 0.08555 0.25475 0.64542
 C2488 C 0.07409 0.23195 0.64827
 C2489 C 0.08526 0.21426 0.66312
 C2490 C 0.10721 0.21936 0.67506
 C2491 C 0.14082 0.24724 0.68494
 C2492 C 0.15970 0.25048 0.69575
 H2493 H 0.11602 0.27747 0.65502
 H2494 H 0.07756 0.26864 0.63386
 H2495 H 0.07676 0.19668 0.66593
 H2496 H 0.11542 0.20556 0.68659
 C2497 C 0.88138 0.25796 0.67199
 C2498 C 0.89250 0.28080 0.67446
 C2499 C 0.91440 0.28579 0.66247
 C2500 C 0.92555 0.26797 0.64782
 C2501 C 0.91408 0.24515 0.64521
 C2502 C 0.89215 0.24020 0.65722
 C2503 C 0.85899 0.25295 0.68473
 C2504 C 0.84020 0.24973 0.69567
 H2505 H 0.88432 0.29470 0.68585
 H2506 H 0.92291 0.30340 0.66509
 H2507 H 0.92204 0.23116 0.63381
 H2508 H 0.88365 0.22251 0.65506
 C2509 C 0.37960 0.75770 0.17162
 C2510 C 0.37983 0.77052 0.14954
 C2511 C 0.40191 0.77526 0.13771
 C2512 C 0.42407 0.76719 0.14786
 C2513 C 0.42360 0.75429 0.17006
 C2514 C 0.40153 0.74959 0.18183
 C2515 C 0.35699 0.75360 0.18427
 C2516 C 0.33811 0.75075 0.19513
 H2517 H 0.36295 0.77695 0.14151
 H2518 H 0.40166 0.78501 0.12054
 H2519 H 0.44036 0.74817 0.17854
 H2520 H 0.40159 0.73984 0.19902
 C2521 C 0.38205 0.24298 0.32907
 C2522 C 0.40378 0.25087 0.31837
 C2523 C 0.42611 0.24598 0.32965
 C2524 C 0.42703 0.23307 0.35184
 C2525 C 0.40507 0.22523 0.36249
 C2526 C 0.38273 0.23016 0.35116
 C2527 C 0.35921 0.24701 0.31674
 C2528 C 0.34019 0.24958 0.30599
 H2529 H 0.40350 0.26057 0.30115
 H2530 H 0.44270 0.25194 0.32080
 H2531 H 0.40517 0.21550 0.37967
 H2532 H 0.36601 0.22385 0.35953
 C2533 C 0.88200 0.74349 0.82899
 C2534 C 0.88238 0.73036 0.85090
 C2535 C 0.90455 0.72539 0.86255
 C2536 C 0.92665 0.73349 0.85239
 C2537 C 0.92603 0.74674 0.83039
 C2538 C 0.90387 0.75168 0.81879
 C2539 C 0.85934 0.74752 0.81633
 C2540 C 0.84044 0.75010 0.80537
 H2541 H 0.86555 0.72383 0.85889
 H2542 H 0.90442 0.71537 0.87956
 H2543 H 0.94274 0.75290 0.82190
 H2544 H 0.90383 0.76162 0.80172
   
