data_POSCAR
  _audit_creation_date              2014-09-24
  _audit_creation_method            'ToBaCCo'
  _symmetry_space_group_name_H-M    'P1'
  _symmetry_Int_Tables_number       1
  _symmetry_cell_setting            triclinic
  loop_
  _symmetry_equiv_pos_as_xyz
 x,y,z
_cell_length_a 55.0050
_cell_length_b 56.2959
_cell_length_c 55.5773
_cell_angle_alpha 89.543800
_cell_angle_beta 89.573200
_cell_angle_gamma 90.216600
loop_
  _atom_site_label
  _atom_site_type_symbol
  _atom_site_fract_x
  _atom_site_fract_y
  _atom_site_fract_z
N1 N 0.36719 1.35899 0.30674
 N2 N 0.34990 1.37435 0.31140
 C3 C 0.34938 1.39062 0.29340
 C4 C 0.36733 1.38499 0.27673
 C5 C 0.37824 1.36479 0.28592
 H6 H 0.33685 1.40535 0.29234
 H7 H 0.39305 1.35485 0.27815
 Cu8 Cu 0.32984 1.37063 0.34045
 Cu9 Cu 0.37454 1.33235 0.32755
 Cu10 Cu 0.34040 1.32585 0.37977
 N11 N 0.31079 1.36697 0.37011
 N12 N 0.31474 1.34925 0.38515
 C13 C 0.29847 1.35023 0.40338
 C14 C 0.28353 1.36962 0.39971
 C15 C 0.29195 1.37991 0.37838
 H16 H 0.29740 1.33763 0.41814
 H17 H 0.28462 1.39527 0.36924
 N18 N 0.36721 1.30413 0.37084
 N19 N 0.37968 1.30646 0.35057
 C20 C 0.39589 1.28871 0.34890
 C21 C 0.39381 1.27464 0.36912
 C22 C 0.37543 1.28482 0.38275
 H23 H 0.40835 1.28606 0.33404
 H24 H 0.36820 1.27834 0.39971
 H25 H 0.34013 1.32855 0.34294
 H26 H 0.36222 1.34777 0.35923
 N27 N 0.35606 0.83008 0.78952
 N28 N 0.34998 0.85223 0.79365
 C29 C 0.36008 0.86631 0.77667
 C30 C 0.37314 0.85207 0.76102
 C31 C 0.36996 0.82919 0.76954
 H32 H 0.35790 0.88537 0.77580
 H33 H 0.37765 0.81314 0.76213
 Cu34 Cu 0.32901 0.86029 0.82049
 Cu35 Cu 0.34617 0.80467 0.81122
 Cu36 Cu 0.32459 0.82233 0.86712
 N37 N 0.30315 0.86310 0.84411
 N38 N 0.30134 0.84875 0.86287
 C39 C 0.28187 0.85536 0.87619
 C40 C 0.27100 0.87470 0.86484
 C41 C 0.28501 0.87897 0.84462
 H42 H 0.27585 0.84648 0.89251
 H43 H 0.28211 0.89263 0.83115
 N44 N 0.34131 0.79149 0.86184
 N45 N 0.34732 0.78430 0.84002
 C46 C 0.35942 0.76370 0.84161
 C47 C 0.36180 0.75771 0.86549
 C48 C 0.34994 0.77561 0.87802
 H49 H 0.36791 0.75482 0.82656
 H50 H 0.34862 0.77751 0.89733
 H51 H 0.31863 0.81945 0.83221
 H52 H 0.35060 0.82773 0.83949
 N53 N 0.86577 1.33242 0.79950
 N54 N 0.84967 1.34965 0.79741
 C55 C 0.85713 1.36477 0.77990
 C56 C 0.87895 1.35646 0.77049
 C57 C 0.88384 1.33603 0.78343
 H58 H 0.84701 1.38014 0.77399
 H59 H 0.89913 1.32428 0.78079
 Cu60 Cu 0.81904 1.35010 0.81641
 Cu61 Cu 0.86152 1.30540 0.82181
 Cu62 Cu 0.80533 1.29847 0.84465
 N63 N 0.79008 1.34634 0.83689
 N64 N 0.78426 1.32569 0.84661
 C65 C 0.76393 1.32795 0.85988
 C66 C 0.75666 1.35128 0.85878
 C67 C 0.77357 1.36259 0.84391
 H68 H 0.75577 1.31390 0.87065
 H69 H 0.77414 1.38120 0.83897
 N70 N 0.83127 1.27703 0.85303
 N71 N 0.85353 1.28031 0.84490
 C72 C 0.86827 1.26432 0.85534
 C73 C 0.85436 1.25037 0.87088
 C74 C 0.83098 1.25881 0.86882
 H75 H 0.88761 1.26317 0.85203
 H76 H 0.81511 1.25275 0.87874
 H77 H 0.82669 1.31477 0.80994
 H78 H 0.83714 1.32764 0.83924
 N79 N 0.84565 0.82863 0.28516
 N80 N 0.83807 0.84929 0.29311
 C81 C 0.84796 0.86665 0.27921
 C82 C 0.86249 0.85597 0.26179
 C83 C 0.86031 0.83195 0.26603
 H84 H 0.84505 0.88544 0.28184
 H85 H 0.86982 0.81792 0.25671
 Cu86 Cu 0.81584 0.85109 0.32092
 Cu87 Cu 0.83999 0.79938 0.30258
 Cu88 Cu 0.81884 0.80240 0.35901
 N89 N 0.79856 0.84953 0.35246
 N90 N 0.79974 0.83066 0.36667
 C91 C 0.78478 0.83354 0.38562
 C92 C 0.77359 0.85523 0.38345
 C93 C 0.78271 0.86506 0.36220
 H94 H 0.78147 0.82041 0.39959
 H95 H 0.77734 0.88164 0.35389
 N96 N 0.83870 0.77624 0.34800
 N97 N 0.84614 0.77432 0.32560
 C98 C 0.86108 0.75552 0.32374
 C99 C 0.86338 0.74549 0.34632
 C100 C 0.84867 0.75887 0.36124
 H101 H 0.87104 0.75073 0.30764
 H102 H 0.84618 0.75684 0.38046
 H103 H 0.80642 0.81573 0.32611
 H104 H 0.83702 0.82606 0.33628
 N105 N 0.64221 0.66218 0.28440
 N106 N 0.65351 0.64204 0.28858
 C107 C 0.64542 0.62567 0.27285
 C108 C 0.62813 0.63640 0.25826
 C109 C 0.62674 0.65948 0.26607
 H110 H 0.65163 0.60748 0.27212
 H111 H 0.61480 0.67319 0.25931
 Cu112 Cu 0.67815 0.63984 0.31394
 Cu113 Cu 0.64658 0.68973 0.30437
 Cu114 Cu 0.67125 0.68207 0.35872
 N115 N 0.69655 0.63870 0.34455
 N116 N 0.69341 0.65454 0.36172
 C117 C 0.70895 0.64983 0.37973
 C118 C 0.72271 0.63027 0.37368
 C119 C 0.71432 0.62356 0.35123
 H120 H 0.71087 0.66039 0.39578
 H121 H 0.72099 0.60911 0.34035
 N122 N 0.64885 0.70818 0.35177
 N123 N 0.64030 0.71176 0.33003
 C124 C 0.62577 0.73091 0.33003
 C125 C 0.62495 0.73981 0.35305
 C126 C 0.63992 0.72504 0.36647
 H127 H 0.61590 0.73744 0.31458
 H128 H 0.64402 0.72638 0.38540
 H129 H 0.68328 0.67508 0.32416
 H130 H 0.65505 0.65940 0.33435
 N131 N 0.64893 0.15611 0.78700
 N132 N 0.67091 0.14847 0.78174
 C133 C 0.66993 0.13347 0.76313
 C134 C 0.64606 0.13078 0.75651
 C135 C 0.63300 0.14561 0.77191
 H136 H 0.68534 0.12374 0.75614
 H137 H 0.61354 0.14826 0.77241
 Cu138 Cu 0.69825 0.15320 0.80275
 Cu139 Cu 0.64404 0.17906 0.81351
 Cu140 Cu 0.68682 0.17281 0.85824
 N141 N 0.71967 0.14588 0.82911
 N142 N 0.71410 0.15222 0.85115
 C143 C 0.72978 0.14209 0.86649
 C144 C 0.74592 0.12852 0.85326
 C145 C 0.73917 0.13153 0.82959
 H146 H 0.72911 0.14415 0.88580
 H147 H 0.74691 0.12281 0.81405
 N148 N 0.65848 0.19353 0.86166
 N149 N 0.64258 0.19725 0.84434
 C150 C 0.62791 0.21534 0.85105
 C151 C 0.63502 0.22297 0.87375
 C152 C 0.65420 0.20861 0.87980
 H153 H 0.61365 0.22276 0.84004
 H154 H 0.66522 0.21013 0.89576
 H155 H 0.67946 0.18629 0.82359
 H156 H 0.66570 0.15675 0.83183
 N157 N 1.12508 0.63804 0.81116
 N158 N 1.14497 0.62524 0.81242
 C159 C 1.14509 0.60977 0.79396
 C160 C 1.12416 0.61320 0.78061
 C161 C 1.11194 0.63126 0.79213
 H162 H 1.15946 0.59724 0.79020
 H163 H 1.09513 0.63950 0.78668
 Cu164 Cu 1.16875 0.63078 0.83794
 Cu165 Cu 1.11819 0.66400 0.83265
 Cu166 Cu 1.16128 0.67695 0.87554
 N167 N 1.19030 0.63577 0.86546
 N168 N 1.18720 0.65390 0.87994
 C169 C 1.20484 0.65389 0.89660
 C170 C 1.21982 0.63469 0.89258
 C171 C 1.21005 0.62349 0.87263
 H172 H 1.20685 0.66709 0.91049
 H173 H 1.21708 0.60796 0.86369
 N174 N 1.13066 0.69476 0.87223
 N175 N 1.11431 0.68976 0.85576
 C176 C 1.09610 0.70560 0.85709
 C177 C 1.10101 0.72110 0.87544
 C178 C 1.12305 0.71376 0.88476
 H179 H 1.08056 0.70619 0.84530
 H180 H 1.13318 0.72210 0.89902
 H181 H 1.15397 0.67174 0.83927
 H182 H 1.13854 0.65173 0.86171
 N183 N 1.13283 0.16906 0.29189
 N184 N 1.14685 0.15032 0.29055
 C185 C 1.13819 0.13568 0.27360
 C186 C 1.11767 0.14605 0.26384
 C187 C 1.11482 0.16720 0.27579
 H188 H 1.14676 0.11931 0.26812
 H189 H 1.10118 0.18060 0.27247
 Cu190 Cu 1.17629 0.14818 0.30939
 Cu191 Cu 1.14080 0.19552 0.31223
 Cu192 Cu 1.18200 0.18384 0.35783
 N193 N 1.19946 0.14142 0.33446
 N194 N 1.20171 0.15479 0.35364
 C195 C 1.21953 0.14560 0.36752
 C196 C 1.22875 0.12552 0.35620
 C197 C 1.21552 0.12353 0.33540
 H198 H 1.22579 0.15333 0.38412
 H199 H 1.21765 0.11005 0.32179
 N200 N 1.16009 0.21219 0.35761
 N201 N 1.14523 0.21646 0.33953
 C202 C 1.13393 0.23721 0.34290
 C203 C 1.14165 0.24669 0.36414
 C204 C 1.15821 0.23041 0.37334
 H205 H 1.12083 0.24498 0.33077
 H206 H 1.16858 0.23213 0.38970
 H207 H 1.17766 0.18984 0.32230
 H208 H 1.15372 0.17187 0.33791
 N209 N 0.61385 1.35584 0.67952
 N210 N 0.62559 1.37623 0.67887
 C211 C 0.61988 1.38879 0.69860
 C212 C 0.60364 1.37553 0.71236
 C213 C 0.60023 1.35475 0.69973
 H214 H 0.62738 1.40604 0.70275
 H215 H 0.58890 1.33984 0.70505
 Cu216 Cu 0.64785 1.38431 0.65283
 Cu217 Cu 0.61758 1.33206 0.65441
 Cu218 Cu 0.66216 1.34327 0.61158
 N219 N 0.67564 1.38821 0.63145
 N220 N 0.68073 1.37225 0.61507
 C221 C 0.70114 1.37861 0.60330
 C222 C 0.70942 1.39971 0.61288
 C223 C 0.69283 1.40532 0.63073
 H224 H 0.70978 1.36807 0.58954
 H225 H 0.69364 1.42031 0.64276
 N226 N 0.64153 1.31491 0.61109
 N227 N 0.62446 1.31049 0.62734
 C228 C 0.61405 1.28941 0.62240
 C229 C 0.62527 1.28024 0.60210
 C230 C 0.64255 1.29680 0.59548
 H231 H 0.59977 1.28118 0.63305
 H232 H 0.65513 1.29552 0.58052
 H233 H 0.65307 1.34182 0.64795
 H234 H 0.62956 1.35420 0.62721
 N235 N 0.63699 0.82686 1.21140
 N236 N 0.65278 0.84389 1.21544
 C237 C 0.64433 0.85798 1.23294
 C238 C 0.62196 0.84927 1.24042
 C239 C 0.61792 0.82934 1.22654
 H240 H 0.65394 0.87328 1.23974
 H241 H 0.60219 0.81776 1.22716
 Cu242 Cu 0.68296 0.84651 1.19764
 Cu243 Cu 0.64296 0.80347 1.18630
 Cu244 Cu 0.68113 0.82577 1.14132
 N245 N 0.70664 0.85635 1.17390
 N246 N 0.70539 0.84927 1.15145
 C247 C 0.72245 0.86099 1.13841
 C248 C 0.73497 0.87603 1.15373
 C249 C 0.72460 0.87241 1.17608
 H250 H 0.72546 0.85874 1.11931
 H251 H 0.72913 0.88152 1.19253
 N252 N 0.66006 0.79736 1.13701
 N253 N 0.64586 0.78889 1.15436
 C254 C 0.63434 0.76935 1.14653
 C255 C 0.64165 0.76513 1.12305
 C256 C 0.65799 0.78321 1.11763
 H257 H 0.62168 0.75900 1.15730
 H258 H 0.66781 0.78569 1.10086
 H259 H 0.67908 0.81001 1.17451
 H260 H 0.65484 0.83203 1.16746
 N261 N 1.13931 1.33761 1.21054
 N262 N 1.14632 1.35930 1.20497
 C263 C 1.13940 1.37418 1.22244
 C264 C 1.12744 1.36098 1.24001
 C265 C 1.12773 1.33785 1.23193
 H266 H 1.14334 1.39300 1.22249
 H267 H 1.12024 1.32236 1.24097
 Cu268 Cu 1.16554 1.36579 1.17659
 Cu269 Cu 1.14648 1.31097 1.18974
 Cu270 Cu 1.17026 1.32508 1.13326
 N271 N 1.19168 1.36698 1.15334
 N272 N 1.19367 1.35152 1.13582
 C273 C 1.21359 1.35708 1.12253
 C274 C 1.22454 1.37690 1.13270
 C275 C 1.21017 1.38255 1.15214
 H276 H 1.21993 1.34710 1.10718
 H277 H 1.21306 1.39688 1.16467
 N278 N 1.15303 1.29477 1.14035
 N279 N 1.14524 1.28923 1.16224
 C280 C 1.13339 1.26835 1.16165
 C281 C 1.13342 1.26032 1.13833
 C282 C 1.14616 1.27743 1.12516
 H283 H 1.12413 1.26021 1.17686
 H284 H 1.14955 1.27765 1.10597
 H285 H 1.17501 1.32422 1.16866
 H286 H 1.14349 1.33238 1.15967
 N287 N 1.13464 0.85085 0.70252
 N288 N 1.15308 0.86491 0.69735
 C289 C 1.15351 0.88285 0.71328
 C290 C 1.13420 0.87979 0.72912
 C291 C 1.12270 0.85921 0.72180
 H292 H 1.16691 0.89695 0.71344
 H293 H 1.10708 0.85059 0.73001
 Cu294 Cu 1.17502 0.85777 0.67076
 Cu295 Cu 1.12803 0.82223 0.68464
 Cu296 Cu 1.15408 0.82112 0.62766
 N297 N 1.19092 0.85528 0.63958
 N298 N 1.18251 0.84145 0.62259
 C299 C 1.19721 0.84321 0.60313
 C300 C 1.21577 0.85900 0.60820
 C301 C 1.21114 0.86634 0.63155
 H302 H 1.19485 0.83344 0.58662
 H303 H 1.22166 0.87867 0.64207
 N304 N 1.12564 0.80152 0.63717
 N305 N 1.11665 0.80118 0.65925
 C306 C 1.09872 0.78491 0.66076
 C307 C 1.09618 0.77454 0.63856
 C308 C 1.11356 0.78543 0.62398
 H309 H 1.08839 0.78074 0.67689
 H310 H 1.11777 0.78127 0.60546
 H311 H 1.15952 0.81742 0.66349
 H312 H 1.13789 0.84127 0.65440
 N313 N 0.35206 0.65616 0.71730
 N314 N 0.32969 0.65012 0.72314
 C315 C 0.33005 0.63609 0.74283
 C316 C 0.35398 0.63292 0.74935
 C317 C 0.36752 0.64603 0.73284
 H318 H 0.31414 0.62828 0.75134
 H319 H 0.38705 0.64803 0.73198
 Cu320 Cu 0.30240 0.66019 0.70372
 Cu321 Cu 0.35885 0.67665 0.69003
 Cu322 Cu 0.31752 0.68051 0.64629
 N323 N 0.27964 0.65963 0.67672
 N324 N 0.28579 0.66521 0.65434
 C325 C 0.26812 0.65746 0.63956
 C326 C 0.25011 0.64663 0.65355
 C327 C 0.25790 0.64870 0.67689
 H328 H 0.26878 0.65879 0.62015
 H329 H 0.24940 0.64080 0.69266
 N330 N 0.34540 0.70271 0.64790
 N331 N 0.36088 0.70131 0.66579
 C332 C 0.37765 0.71857 0.66359
 C333 C 0.37286 0.73143 0.64305
 C334 C 0.35223 0.72093 0.63333
 H335 H 0.39241 0.72148 0.67600
 H336 H 0.34266 0.72635 0.61728
 H337 H 0.31663 0.68685 0.68126
 H338 H 0.32413 0.65546 0.67381
 N339 N 0.37826 0.12421 1.18163
 N340 N 0.36348 0.10677 1.17553
 C341 C 0.36307 0.09033 1.19329
 C342 C 0.37834 0.09775 1.21140
 C343 C 0.38769 0.11930 1.20338
 H344 H 0.35233 0.07420 1.19317
 H345 H 0.40049 0.13057 1.21258
 Cu346 Cu 0.34503 0.10687 1.14523
 Cu347 Cu 0.38499 0.15203 1.16080
 Cu348 Cu 0.35621 0.15258 1.10774
 N349 N 0.32293 0.11523 1.11926
 N350 N 0.32715 0.13330 1.10469
 C351 C 0.30864 0.13538 1.08911
 C352 C 0.29202 0.11752 1.09404
 C353 C 0.30170 0.10499 1.11329
 H354 H 0.30724 0.14903 1.07538
 H355 H 0.29372 0.08998 1.12274
 N356 N 0.37852 0.17767 1.11645
 N357 N 0.38931 0.17776 1.13746
 C358 C 0.40277 0.19768 1.13925
 C359 C 0.40022 0.21072 1.11827
 C360 C 0.38467 0.19749 1.10414
 H361 H 0.41345 0.20248 1.15475
 H362 H 0.37782 0.20209 1.08654
 H363 H 0.35031 0.14243 1.14991
 H364 H 0.37653 0.12609 1.13669
 N365 N 0.88175 0.62120 1.18118
 N366 N 0.86343 0.60668 1.17751
 C367 C 0.86438 0.58872 1.19364
 C368 C 0.88438 0.59220 1.20806
 C369 C 0.89504 0.61297 1.19961
 H370 H 0.85087 0.57481 1.19558
 H371 H 0.91032 0.62230 1.20724
 Cu372 Cu 0.83877 0.61360 1.15368
 Cu373 Cu 0.88496 0.65147 1.16466
 Cu374 Cu 0.83876 0.66725 1.12586
 N375 N 0.81295 0.62316 1.13211
 N376 N 0.81265 0.64414 1.12158
 C377 C 0.79238 0.64593 1.10821
 C378 C 0.77937 0.62495 1.11049
 C379 C 0.79296 0.61091 1.12584
 H380 H 0.78741 0.66133 1.09760
 H381 H 0.78853 0.59324 1.13224
 N382 N 0.86697 0.68800 1.13247
 N383 N 0.88497 0.68151 1.14661
 C384 C 0.90159 0.69910 1.14734
 C385 C 0.89364 0.71765 1.13318
 C386 C 0.87163 0.71003 1.12391
 H387 H 0.91811 0.69872 1.15775
 H388 H 0.85995 0.71970 1.11178
 H389 H 0.84772 0.65554 1.15997
 H390 H 0.86525 0.64297 1.13410
 N391 N 0.85434 0.16651 0.71473
 N392 N 0.84473 0.14568 0.70984
 C393 C 0.85313 0.12962 0.72602
 C394 C 0.86877 0.14136 0.74163
 C395 C 0.86883 0.16461 0.73395
 H396 H 0.84838 0.11096 0.72629
 H397 H 0.87955 0.17899 0.74121
 Cu398 Cu 0.82187 0.14242 0.68271
 Cu399 Cu 0.85067 0.19388 0.69403
 Cu400 Cu 0.83090 0.18498 0.63812
 N401 N 0.80485 0.14153 0.65105
 N402 N 0.80931 0.15744 0.63395
 C403 C 0.79447 0.15354 0.61528
 C404 C 0.77960 0.13451 0.62073
 C405 C 0.78666 0.12716 0.64361
 H406 H 0.79350 0.16457 0.59930
 H407 H 0.77868 0.11298 0.65430
 N408 N 0.85228 0.21133 0.64604
 N409 N 0.85874 0.21570 0.66827
 C410 C 0.87301 0.23514 0.66860
 C411 C 0.87580 0.24324 0.64527
 C412 C 0.86227 0.22782 0.63136
 H413 H 0.88148 0.24229 0.68451
 H414 H 0.85984 0.22845 0.61209
 H415 H 0.81628 0.17747 0.67211
 H416 H 0.84585 0.16304 0.66434
 N417 N 1.35861 0.36179 0.69089
 N418 N 1.37326 0.34342 0.68939
 C419 C 1.38988 0.34470 0.70699
 C420 C 1.38562 0.36500 0.72017
 C421 C 1.36562 0.37553 0.70939
 H422 H 1.40400 0.33173 0.71011
 H423 H 1.35652 0.39164 0.71481
 Cu424 Cu 1.36949 0.31959 0.66439
 Cu425 Cu 1.33128 0.36575 0.66869
 Cu426 Cu 1.31259 0.31155 0.64596
 N427 N 1.36119 0.29389 0.64252
 N428 N 1.33857 0.29058 0.63583
 C429 C 1.33729 0.27141 0.62161
 C430 C 1.36041 0.26233 0.61888
 C431 C 1.37524 0.27702 0.63249
 H432 H 1.32074 0.26473 0.61365
 H433 H 1.39463 0.27553 0.63516
 N434 N 1.29177 0.33980 0.64650
 N435 N 1.29914 0.36092 0.65369
 C436 C 1.28181 0.37702 0.64837
 C437 C 1.26279 0.36525 0.63723
 C438 C 1.26970 0.34179 0.63654
 H439 H 1.28329 0.39587 0.65171
 H440 H 1.25996 0.32743 0.62805
 H441 H 1.32770 0.33089 0.67419
 H442 H 1.33665 0.33915 0.64276
 N443 N 1.34668 0.86943 1.19598
 N444 N 1.36613 0.85639 1.19953
 C445 C 1.37850 0.86527 1.21832
 C446 C 1.36586 0.88480 1.22704
 C447 C 1.34580 0.88679 1.21245
 H448 H 1.39512 0.85781 1.22528
 H449 H 1.33177 0.90017 1.21355
 Cu450 Cu 1.37226 0.82840 1.17977
 Cu451 Cu 1.32448 0.86393 1.16960
 Cu452 Cu 1.33941 0.81917 1.12990
 N453 N 1.37854 0.80117 1.15902
 N454 N 1.36547 0.79777 1.13962
 C455 C 1.37300 0.77789 1.12860
 C456 C 1.39184 0.76809 1.14186
 C457 C 1.39484 0.78339 1.16104
 H458 H 1.36507 0.77112 1.11229
 H459 H 1.40785 0.78155 1.17542
 N460 N 1.31016 0.83913 1.12621
 N461 N 1.30451 0.85594 1.14166
 C462 C 1.28404 0.86673 1.13447
 C463 C 1.27629 0.85625 1.11345
 C464 C 1.29317 0.83868 1.10880
 H465 H 1.27543 0.88119 1.14387
 H466 H 1.29318 0.82667 1.09370
 H467 H 1.33094 0.82775 1.16472
 H468 H 1.35074 0.84943 1.14796
 N469 N 0.85445 0.37628 1.18972
 N470 N 0.86995 0.35933 1.19507
 C471 C 0.88327 0.36576 1.21414
 C472 C 0.87576 0.38803 1.22144
 C473 C 0.85739 0.39416 1.20552
 H474 H 0.89739 0.35492 1.22194
 H475 H 0.84700 0.41045 1.20545
 Cu476 Cu 0.87203 0.33030 1.17684
 Cu477 Cu 0.83181 0.37334 1.16248
 Cu478 Cu 0.84258 0.32586 1.12467
 N479 N 0.88133 0.30698 1.15313
 N480 N 0.87005 0.30570 1.13244
 C481 C 0.87976 0.28807 1.11941
 C482 C 0.89814 0.27772 1.13272
 C483 C 0.89859 0.29010 1.15406
 H484 H 0.87334 0.28274 1.10193
 H485 H 0.91037 0.28687 1.16923
 N486 N 0.81559 0.34801 1.11974
 N487 N 0.81139 0.36642 1.13375
 C488 C 0.79127 0.37764 1.12571
 C489 C 0.78250 0.36545 1.10587
 C490 C 0.79832 0.34683 1.10278
 H491 H 0.78316 0.39297 1.13412
 H492 H 0.79701 0.33317 1.08928
 H493 H 0.83225 0.33717 1.15913
 H494 H 0.85715 0.35439 1.14377
 N495 N 0.87035 0.86807 0.69600
 N496 N 0.88984 0.85721 0.68799
 C497 C 0.90779 0.85936 0.70419
 C498 C 0.89897 0.87226 0.72340
 C499 C 0.87516 0.87759 0.71753
 H500 H 0.92573 0.85175 0.70236
 H501 H 0.86223 0.88766 0.72799
 Cu502 Cu 0.88915 0.84010 0.65797
 Cu503 Cu 0.84039 0.86955 0.67776
 Cu504 Cu 0.83767 0.83546 0.62614
 N505 N 0.88414 0.81444 0.63558
 N506 N 0.86371 0.81166 0.62375
 C507 C 0.86507 0.79132 0.61103
 C508 C 0.88760 0.78104 0.61534
 C509 C 0.89911 0.79627 0.63083
 H510 H 0.85079 0.78456 0.59966
 H511 H 0.91688 0.79392 0.63867
 N512 N 0.81089 0.85692 0.63648
 N513 N 0.81181 0.86901 0.65675
 C514 C 0.79152 0.88208 0.65905
 C515 C 0.77724 0.87855 0.63918
 C516 C 0.78996 0.86240 0.62515
 H517 H 0.78776 0.89416 0.67362
 H518 H 0.78451 0.85534 0.60796
 H519 H 0.84530 0.83670 0.66169
 H520 H 0.85445 0.86342 0.64370
 N521 N 0.63549 0.63741 0.69597
 N522 N 0.62778 0.65945 0.69483
 C523 C 0.61287 0.66362 0.71366
 C524 C 0.61096 0.64300 0.72715
 C525 C 0.62565 0.62673 0.71546
 H526 H 0.60400 0.68036 0.71722
 H527 H 0.62935 0.60864 0.72091
 Cu528 Cu 0.63757 0.68053 0.66874
 Cu529 Cu 0.65837 0.62441 0.67269
 Cu530 Cu 0.66806 0.65811 0.62132
 N531 N 0.63932 0.69695 0.63800
 N532 N 0.65094 0.68810 0.61940
 C533 C 0.64883 0.70307 0.60053
 C534 C 0.63507 0.72223 0.60769
 C535 C 0.62933 0.71778 0.63163
 H536 H 0.65658 0.70020 0.58285
 H537 H 0.61856 0.72862 0.64357
 N538 N 0.68387 0.62739 0.62691
 N539 N 0.68072 0.61470 0.64676
 C540 C 0.69590 0.59598 0.64624
 C541 C 0.70906 0.59692 0.62498
 C542 C 0.70094 0.61706 0.61317
 H543 H 0.69799 0.58313 0.66063
 H544 H 0.70798 0.62448 0.59652
 H545 H 0.67223 0.65578 0.65844
 H546 H 0.64283 0.64452 0.64582
 N547 N 0.64489 1.14729 1.19987
 N548 N 0.63065 1.16586 1.20214
 C549 C 0.61532 1.16264 1.22070
 C550 C 0.61964 1.14074 1.23071
 C551 C 0.63859 1.13118 1.21708
 H552 H 0.60189 1.17542 1.22652
 H553 H 0.64728 1.11415 1.21959
 Cu554 Cu 0.63235 1.19295 1.18112
 Cu555 Cu 0.67011 1.14685 1.17430
 Cu556 Cu 0.68258 1.20255 1.14900
 N557 N 0.64001 1.22406 1.16905
 N558 N 0.65949 1.22775 1.15575
 C559 C 0.65812 1.24949 1.14570
 C560 C 0.63668 1.25985 1.15339
 C561 C 0.62579 1.24338 1.16840
 H562 H 0.67057 1.25636 1.13217
 H563 H 0.60763 1.24432 1.17593
 N564 N 0.70357 1.17484 1.14409
 N565 N 0.69875 1.15336 1.15275
 C566 C 0.71567 1.13821 1.14407
 C567 C 0.73169 1.15099 1.12938
 C568 C 0.72349 1.17398 1.13001
 H569 H 0.71619 1.11937 1.14800
 H570 H 0.73122 1.18890 1.12022
 H571 H 0.67495 1.18213 1.17978
 H572 H 0.65917 1.17389 1.15157
 N573 N 0.15162 0.63122 1.18890
 N574 N 0.14097 0.65012 1.19809
 C575 C 0.13088 0.64397 1.21951
 C576 C 0.13548 0.61996 1.22375
 C577 C 0.14830 0.61255 1.20381
 H578 H 0.12173 0.65624 1.23136
 H579 H 0.15633 0.59523 1.20126
 Cu580 Cu 0.14369 0.68194 1.18232
 Cu581 Cu 0.17462 0.63264 1.16164
 Cu582 Cu 0.19227 0.68753 1.14579
 N583 N 0.14620 0.70792 1.15815
 N584 N 0.16600 0.71014 1.14488
 C585 C 0.16389 0.72881 1.12993
 C586 C 0.14144 0.73891 1.13351
 C587 C 0.13051 0.72529 1.15173
 H588 H 0.17744 0.73414 1.11671
 H589 H 0.11263 0.72765 1.15956
 N590 N 0.21156 0.66015 1.13786
 N591 N 0.20410 0.63853 1.14316
 C592 C 0.21977 0.62281 1.13378
 C593 C 0.23805 0.63542 1.12204
 C594 C 0.23232 0.65904 1.12504
 H595 H 0.21786 0.60374 1.13541
 H596 H 0.24211 0.67424 1.11784
 H597 H 0.17776 0.66465 1.17993
 H598 H 0.15592 0.66397 1.15416
 N599 N 0.15009 1.13205 0.68798
 N600 N 0.13843 1.14998 0.69798
 C601 C 0.12727 1.14187 0.71830
 C602 C 0.13212 1.11762 0.72083
 C603 C 0.14631 1.11219 0.70110
 H604 H 0.11708 1.15291 0.73058
 H605 H 0.15488 1.09529 0.69757
 Cu606 Cu 0.14149 1.18304 0.68435
 Cu607 Cu 0.17472 1.13605 0.66234
 Cu608 Cu 0.19421 1.19201 0.65444
 N609 N 0.14693 1.21160 0.66337
 N610 N 0.16859 1.21536 0.65382
 C611 C 0.16848 1.23536 0.64054
 C612 C 0.14544 1.24469 0.64090
 C613 C 0.13199 1.22925 0.65578
 H614 H 0.18378 1.24177 0.62994
 H615 H 0.11289 1.23049 0.66035
 N616 N 0.21322 1.16539 0.64360
 N617 N 0.20488 1.14355 0.64541
 C618 C 0.22006 1.12889 0.63371
 C619 C 0.23888 1.14244 0.62404
 C620 C 0.23406 1.16546 0.63082
 H621 H 0.21733 1.10994 0.63220
 H622 H 0.24430 1.18122 0.62585
 H623 H 0.17579 1.16638 0.68410
 H624 H 0.15732 1.16854 0.65570
 N625 N 1.37043 0.62653 0.31112
 N626 N 1.38207 0.64695 0.30955
 C627 C 1.39592 0.64709 0.28945
 C628 C 1.39281 0.62560 0.27787
 C629 C 1.37656 0.61293 0.29222
 H630 H 1.40723 0.66180 0.28352
 H631 H 1.36930 0.59537 0.28905
 Cu632 Cu 1.37783 0.67132 0.33410
 Cu633 Cu 1.34755 0.61956 0.33724
 Cu634 Cu 1.32321 0.67102 0.36084
 N635 N 1.36842 0.69612 0.35675
 N636 N 1.34655 0.69618 0.36645
 C637 C 1.34410 0.71525 0.38064
 C638 C 1.36575 0.72767 0.38033
 C639 C 1.38089 0.71508 0.36485
 H640 H 1.32789 0.71942 0.39091
 H641 H 1.39942 0.71932 0.35974
 N642 N 1.30749 0.63983 0.36405
 N643 N 1.31715 0.61996 0.35606
 C644 C 1.30290 0.60157 0.36289
 C645 C 1.28354 0.61038 0.37604
 C646 C 1.28700 0.63471 0.37633
 H647 H 1.30645 0.58314 0.35881
 H648 H 1.27585 0.64780 0.38523
 H649 H 1.33757 0.65315 0.33115
 H650 H 1.35177 0.64814 0.36118
 N651 N 1.33527 1.13395 0.79200
 N652 N 1.35676 1.14402 0.78969
 C653 C 1.36909 1.13332 0.77187
 C654 C 1.35435 1.11571 0.76244
 C655 C 1.33293 1.11681 0.77542
 H656 H 1.38723 1.13823 0.76601
 H657 H 1.31707 1.10559 0.77341
 Cu658 Cu 1.36597 1.17078 0.80960
 Cu659 Cu 1.31283 1.14305 0.81739
 Cu660 Cu 1.34101 1.17180 0.86473
 N661 N 1.37490 1.19506 0.83254
 N662 N 1.36529 1.19526 0.85428
 C663 C 1.37470 1.21359 0.86656
 C664 C 1.39092 1.22565 0.85156
 C665 C 1.39052 1.21341 0.83012
 H666 H 1.36959 1.21803 0.88479
 H667 H 1.40072 1.21769 0.81394
 N668 N 1.31015 1.15400 0.86840
 N669 N 1.29916 1.14399 0.85001
 C670 C 1.27909 1.13266 0.85789
 C671 C 1.27729 1.13556 0.88251
 C672 C 1.29713 1.14941 0.88857
 H673 H 1.26717 1.12248 0.84650
 H674 H 1.30202 1.15516 0.90642
 H675 H 1.32738 1.17480 0.83140
 H676 H 1.34304 1.14613 0.83787
 N677 N 0.83695 0.65350 0.79323
 N678 N 0.84807 0.67353 0.78757
 C679 C 0.86137 0.67066 0.76750
 C680 C 0.85874 0.64759 0.75997
 C681 C 0.84303 0.63701 0.77666
 H682 H 0.87266 0.68426 0.75922
 H683 H 0.83651 0.61887 0.77674
 Cu684 Cu 0.84629 0.70135 0.80741
 Cu685 Cu 0.81496 0.65136 0.82145
 Cu686 Cu 0.81129 0.70239 0.85622
 N687 N 0.85276 0.72327 0.83324
 N688 N 0.83910 0.72330 0.85269
 C689 C 0.84766 0.73952 0.86810
 C690 C 0.86797 0.75009 0.85771
 C691 C 0.87061 0.73949 0.83553
 H692 H 0.83963 0.74323 0.88548
 H693 H 0.88465 0.74303 0.82224
 N694 N 0.79178 0.67406 0.86280
 N695 N 0.79351 0.65413 0.85051
 C696 C 0.77787 0.63813 0.86035
 C697 C 0.76595 0.64877 0.87960
 C698 C 0.77522 0.67142 0.88048
 H699 H 0.77490 0.62038 0.85365
 H700 H 0.77021 0.68506 0.89317
 H701 H 0.80687 0.68642 0.82227
 H702 H 0.83297 0.67677 0.84109
 N703 N 0.84824 1.13611 0.31122
 N704 N 0.86555 1.15183 0.30708
 C705 C 0.87798 1.14540 0.28715
 C706 C 0.86757 1.12466 0.27842
 C707 C 0.84880 1.11939 0.29413
 H708 H 0.89301 1.15534 0.27939
 H709 H 0.83633 1.10453 0.29311
 Cu710 Cu 0.86930 1.17968 0.32798
 Cu711 Cu 0.82640 1.13848 0.33851
 Cu712 Cu 0.81339 1.19417 0.35310
 N713 N 0.86251 1.21093 0.34264
 N714 N 0.84050 1.21684 0.35010
 C715 C 0.84139 1.23833 0.36037
 C716 C 0.86509 1.24616 0.36001
 C717 C 0.87814 1.22847 0.34845
 H718 H 0.82632 1.24660 0.36964
 H719 H 0.89758 1.22785 0.34551
 N720 N 0.79496 1.16764 0.36629
 N721 N 0.80058 1.14562 0.36107
 C722 C 0.78536 1.13079 0.37282
 C723 C 0.76926 1.14441 0.38608
 C724 C 0.77572 1.16769 0.38135
 H725 H 0.78579 1.11167 0.37139
 H726 H 0.76717 1.18348 0.38842
 H727 H 0.83332 1.17947 0.32500
 H728 H 0.84405 1.17377 0.35629
 N729 N 0.64913 0.37056 0.31329
 N730 N 0.63085 0.35527 0.31252
 C731 C 0.61922 0.35831 0.29128
 C732 C 0.63100 0.37637 0.27831
 C733 C 0.64984 0.38339 0.29281
 H734 H 0.60316 0.34858 0.28600
 H735 H 0.66248 0.39774 0.28909
 Cu736 Cu 0.62297 0.33385 0.34063
 Cu737 Cu 0.66898 0.37598 0.34201
 Cu738 Cu 0.64919 0.35001 0.39260
 N739 N 0.62276 0.31286 0.36957
 N740 N 0.63128 0.32066 0.39014
 C741 C 0.62913 0.30371 0.40714
 C742 C 0.61916 0.28380 0.39694
 C743 C 0.61505 0.29017 0.37294
 H744 H 0.63580 0.30529 0.42533
 H745 H 0.60740 0.27919 0.35901
 N746 N 0.67753 0.37028 0.39258
 N747 N 0.68608 0.37924 0.37233
 C748 C 0.70782 0.38929 0.37644
 C749 C 0.71326 0.38620 0.40058
 C750 C 0.69350 0.37431 0.41034
 H751 H 0.71913 0.39737 0.36264
 H752 H 0.69171 0.36752 0.42854
 H753 H 0.65704 0.34180 0.35064
 H754 H 0.63430 0.36608 0.35455
 N755 N 0.66460 0.85513 0.78679
 N756 N 0.64215 0.84840 0.79143
 C757 C 0.62744 0.85759 0.77453
 C758 C 0.64158 0.87087 0.75861
 C759 C 0.66505 0.86876 0.76682
 H760 H 0.60796 0.85502 0.77413
 H761 H 0.68110 0.87741 0.75949
 Cu762 Cu 0.63401 0.82833 0.81910
 Cu763 Cu 0.69047 0.84870 0.80908
 Cu764 Cu 0.67867 0.82245 0.86235
 N765 N 0.62985 0.80833 0.84812
 N766 N 0.64699 0.80539 0.86441
 C767 C 0.63961 0.78846 0.88025
 C768 C 0.61672 0.78054 0.87349
 C769 C 0.61116 0.79363 0.85323
 H770 H 0.65040 0.78190 0.89504
 H771 H 0.59512 0.79159 0.84229
 N772 N 0.70574 0.84509 0.85797
 N773 N 0.71104 0.85375 0.83651
 C774 C 0.73034 0.86831 0.83792
 C775 C 0.73750 0.86925 0.86153
 C776 C 0.72161 0.85418 0.87395
 H777 H 0.73791 0.87841 0.82299
 H778 H 0.72146 0.85024 0.89303
 H779 H 0.66837 0.81527 0.82712
 H780 H 0.65992 0.84455 0.84040
 N781 N 0.14541 0.37994 0.81202
 N782 N 0.12684 0.36571 0.80834
 C783 C 0.11374 0.37443 0.78986
 C784 C 0.12496 0.39511 0.78162
 C785 C 0.14495 0.39797 0.79604
 H786 H 0.09787 0.36593 0.78239
 H787 H 0.15842 0.41197 0.79466
 Cu788 Cu 0.12303 0.33637 0.82711
 Cu789 Cu 0.16950 0.37389 0.83651
 Cu790 Cu 0.16301 0.32257 0.87072
 N791 N 0.11920 0.30764 0.84676
 N792 N 0.13499 0.30242 0.86363
 C793 C 0.12866 0.28168 0.87415
 C794 C 0.10769 0.27330 0.86328
 C795 C 0.10221 0.29029 0.84600
 H796 H 0.13876 0.27339 0.88853
 H797 H 0.08709 0.28986 0.83369
 N798 N 0.19003 0.34539 0.87504
 N799 N 0.19216 0.36502 0.86205
 C800 C 0.21215 0.37692 0.86886
 C801 C 0.22326 0.36422 0.88705
 C802 C 0.20882 0.34429 0.89050
 H803 H 0.21836 0.39340 0.86083
 H804 H 0.21194 0.33003 0.90323
 H805 H 0.16623 0.33707 0.83680
 H806 H 0.14731 0.35356 0.85910
 N807 N 0.12213 0.87642 0.31750
 N808 N 0.10811 0.85791 0.32183
 C809 C 0.09065 0.85706 0.30494
 C810 C 0.09393 0.87619 0.28948
 C811 C 0.11408 0.88806 0.29802
 H812 H 0.07701 0.84327 0.30352
 H813 H 0.12300 0.90338 0.29008
 Cu814 Cu 0.11534 0.83635 0.34832
 Cu815 Cu 0.15109 0.88324 0.33572
 Cu816 Cu 0.16421 0.84541 0.38332
 N817 N 0.12245 0.81566 0.37552
 N818 N 0.14178 0.81897 0.38889
 C819 C 0.14300 0.80146 0.40550
 C820 C 0.12336 0.78641 0.40242
 C821 C 0.11063 0.79605 0.38324
 H822 H 0.15728 0.79959 0.41865
 H823 H 0.09442 0.78904 0.37500
 N824 N 0.18445 0.87325 0.37453
 N825 N 0.17959 0.88736 0.35613
 C826 C 0.19719 0.90393 0.35398
 C827 C 0.21373 0.90030 0.37204
 C828 C 0.20520 0.88069 0.38478
 H829 H 0.19809 0.91758 0.34021
 H830 H 0.21383 0.87205 0.39989
 H831 H 0.15788 0.84862 0.34697
 H832 H 0.13912 0.86737 0.36751
 O833 O 0.97275 0.91120 0.88845
 O834 O 0.97094 0.88241 0.86184
 C835 C 0.96364 0.90234 0.86958
 C836 C 0.94380 0.91503 0.85709
 C837 C 0.93439 0.90648 0.83533
 H838 H 0.94222 0.89081 0.82726
 O839 O 1.02529 1.07832 0.87913
 O840 O 1.02475 1.10606 0.85093
 C841 C 1.03354 1.08695 0.85952
 C842 C 1.05453 1.07570 0.84719
 C843 C 1.06586 1.08760 0.82796
 H844 H 1.05825 1.10415 0.82138
 O845 O 0.87502 0.97583 0.92086
 O846 O 0.84628 0.97567 0.89341
 C847 C 0.85487 0.96794 0.91307
 C848 C 0.84178 0.94925 0.92693
 C849 C 0.81963 0.93958 0.91882
 H850 H 0.81147 0.94636 0.90250
 O851 O 1.12194 1.01580 0.91169
 O852 O 1.15038 1.01306 0.88370
 C853 C 1.14224 1.02239 0.90286
 C854 C 1.15582 1.04189 0.91443
 C855 C 1.17735 1.05082 0.90401
 H856 H 1.18481 1.04246 0.88810
 O857 O 0.90793 0.88602 0.98874
 O858 O 0.87849 0.85933 0.99007
 C859 C 0.89850 0.86690 0.98123
 C860 C 0.91043 0.85369 0.96151
 C861 C 0.89989 0.83271 0.95286
 H862 H 0.88346 0.82572 0.96120
 O863 O 1.09161 1.11159 0.97184
 O864 O 1.12085 1.13849 0.97031
 C865 C 1.10062 1.13046 0.96281
 C866 C 1.08766 1.14300 0.94317
 C867 C 1.09620 1.16498 0.93463
 H868 H 1.11198 1.17293 0.94296
 O869 O 0.90999 1.02043 0.88621
 O870 O 0.88125 1.02017 0.85875
 C871 C 0.90144 1.02798 0.86641
 C872 C 0.91469 1.04643 0.85232
 C873 C 0.90572 1.05386 0.82997
 H874 H 0.88971 1.04537 0.82264
 O875 O 1.08533 0.97100 0.88094
 O876 O 1.11332 0.96829 0.85250
 C877 C 1.09318 0.96162 0.86173
 C878 C 1.07914 0.94209 0.85071
 C879 C 1.08598 0.93280 0.82828
 H880 H 1.10076 0.94112 0.81842
 O881 O 1.01883 0.87798 0.92209
 O882 O 1.01707 0.84892 0.89578
 C883 C 1.02580 0.85775 0.91483
 C884 C 1.04450 0.84472 0.92865
 C885 C 1.05149 0.82152 0.92237
 H886 H 1.04244 0.81277 0.90767
 O887 O 0.97887 1.11127 0.91359
 O888 O 0.97866 1.13879 0.88515
 C889 C 0.97075 1.13067 0.90515
 C890 C 0.95142 1.14380 0.91808
 C891 C 0.94396 1.16593 0.90912
 H892 H 0.95303 1.17369 0.89354
 O893 O 0.87912 1.08510 0.98300
 O894 O 0.85208 1.11388 0.98125
 C895 C 0.85970 1.09371 0.97448
 C896 C 0.84640 1.08063 0.95575
 C897 C 0.82414 1.08922 0.94732
 H898 H 0.81595 1.10469 0.95552
 O899 O 1.11436 0.90951 0.98314
 O900 O 1.14140 0.88071 0.98370
 C901 C 1.13339 0.89998 0.97456
 C902 C 1.14630 0.91093 0.95352
 C903 C 1.16846 0.90130 0.94582
 H904 H 1.17621 0.88649 0.95568
 O905 O 0.97726 1.08025 0.87935
 O906 O 0.97671 1.10762 0.85080
 C907 C 0.96815 1.08863 0.86009
 C908 C 0.94692 1.07645 0.84908
 C909 C 0.93705 1.08420 0.82697
 H910 H 0.94546 1.09885 0.81725
 O911 O 1.02015 0.90983 0.88785
 O912 O 1.01833 0.88093 0.86137
 C913 C 1.02754 0.90037 0.86848
 C914 C 1.04724 0.91193 0.85428
 C915 C 1.05432 0.90286 0.83188
 H916 H 1.04491 0.88755 0.82469
 O917 O 1.11827 0.96957 0.91387
 O918 O 1.14663 0.96644 0.88588
 C919 C 1.13734 0.95959 0.90588
 C920 C 1.14842 0.93958 0.91989
 C921 C 1.17062 0.92931 0.91248
 H922 H 1.17999 0.93655 0.89689
 O923 O 0.87764 1.02201 0.92046
 O924 O 0.84883 1.02194 0.89307
 C925 C 0.85792 1.03026 0.91223
 C926 C 0.84579 1.05005 0.92481
 C927 C 0.82373 1.05922 0.91630
 H928 H 0.81501 1.05118 0.90096
 O929 O 0.91364 1.11616 0.97926
 O930 O 0.88679 1.14511 0.97743
 C931 C 0.90603 1.13523 0.96961
 C932 C 0.91948 1.14589 0.94893
 C933 C 0.91206 1.16781 0.93923
 H934 H 0.89694 1.17718 0.94730
 O935 O 1.08085 0.87724 0.98671
 O936 O 1.10778 0.84832 0.98740
 C937 C 1.08826 0.85721 0.97939
 C938 C 1.07457 0.84449 0.96072
 C939 C 1.08115 0.82138 0.95441
 H940 H 1.09558 0.81250 0.96412
 O941 O 1.08936 1.01736 0.87834
 O942 O 1.11762 1.01524 0.85016
 C943 C 1.09852 1.02494 0.85860
 C944 C 1.08685 1.04573 0.84627
 C945 C 1.09794 1.05808 0.82662
 H946 H 1.11511 1.05201 0.81930
 O947 O 0.90935 0.97424 0.88880
 O948 O 0.88068 0.97401 0.86126
 C949 C 0.90039 0.96580 0.86971
 C950 C 0.91272 0.94592 0.85746
 C951 C 0.90351 0.93707 0.83588
 H952 H 0.88774 0.94531 0.82779
 O953 O 1.02638 1.11265 0.91001
 O954 O 1.02595 1.14028 0.88169
 C955 C 1.03479 1.13190 0.90102
 C956 C 1.05551 1.14406 0.91293
 C957 C 1.06448 1.16620 0.90453
 H958 H 1.05568 1.17481 0.88950
 O959 O 0.97175 0.88129 0.92385
 O960 O 0.96983 0.85237 0.89737
 C961 C 0.96225 0.86208 0.91658
 C962 C 0.94160 0.85133 0.93005
 C963 C 0.93087 0.83029 0.92183
 H964 H 0.93896 0.82120 0.90670
 O965 O 1.12496 1.07918 0.97256
 O966 O 1.15427 1.10599 0.97109
 C967 C 1.14494 1.08677 0.96372
 C968 C 1.15702 1.07356 0.94411
 C969 C 1.17850 1.08235 0.93339
 H970 H 1.18638 1.09854 0.94018
 O971 O 0.87403 0.91793 0.98824
 O972 O 0.84473 0.89109 0.99012
 C973 C 0.85380 0.90979 0.98092
 C974 C 0.84112 0.92145 0.96078
 C975 C 0.81873 0.91254 0.95295
 H976 H 0.81001 0.89803 0.96267
 Cu977 Cu 0.99620 0.89799 0.90817
 Cu978 Cu 0.99394 0.86324 0.87643
 Cu979 Cu 1.00200 1.09281 0.89825
 Cu980 Cu 1.00136 1.12582 0.86424
 Cu981 Cu 0.89582 0.99814 0.90689
 Cu982 Cu 0.86141 0.99801 0.87382
 Cu983 Cu 1.10090 0.99376 0.89889
 Cu984 Cu 1.13480 0.99038 0.86524
 C985 C 0.93303 0.93497 0.86782
 H986 H 0.93996 0.94149 0.88474
 C987 C 0.91427 0.91757 0.82460
 C988 C 1.06499 1.05472 0.85605
 H989 H 1.05646 1.04585 0.87129
 C990 C 1.08745 1.07931 0.81763
 C991 C 0.85228 0.94005 0.94796
 H992 H 0.86965 0.94682 0.95395
 C993 C 0.80811 0.92108 0.93183
 C994 C 1.14603 1.05316 0.93471
 H995 H 1.12920 1.04663 0.94260
 C996 C 1.18882 1.07107 0.91326
 C997 C 0.93138 0.86284 0.95005
 H998 H 0.93932 0.87931 0.95625
 C999 C 0.90965 0.82121 0.93276
 C1000 C 1.06717 1.13279 0.93237
 H1001 H 1.06065 1.11568 0.93877
 C1002 C 1.08489 1.17683 0.91544
 C1003 C 0.93550 1.05753 0.86154
 H1004 H 0.94241 1.05185 0.87885
 C1005 C 0.91641 1.07283 0.81735
 C1006 C 1.05964 0.93166 0.86345
 H1007 H 1.05452 0.93851 0.88093
 C1008 C 1.07373 0.91300 0.81879
 C1009 C 1.05607 0.85594 0.94796
 H1010 H 1.05118 0.87396 0.95263
 C1011 C 1.07002 0.80980 0.93518
 C1012 C 0.93926 1.13396 0.93822
 H1013 H 0.94479 1.11679 0.94514
 C1014 C 0.92413 1.17776 0.91920
 C1015 C 0.85693 1.06080 0.94465
 H1016 H 0.87430 1.05428 0.95090
 C1017 C 0.81302 1.07895 0.92738
 C1018 C 1.13646 0.93021 0.94054
 H1019 H 1.11925 0.93764 0.94626
 C1020 C 1.18072 0.91006 0.92540
 O1021 O 1.01738 0.91737 1.12773
 O1022 O 1.01709 0.89127 1.15757
 C1023 C 1.02566 0.90997 1.14765
 C1024 C 1.04580 0.92301 1.15901
 C1025 C 1.05220 0.91816 1.18292
 H1026 H 1.04138 0.90560 1.19323
 O1027 O 0.98005 1.09195 1.11803
 O1028 O 0.98240 1.12072 1.14462
 C1029 C 0.97269 1.10157 1.13735
 C1030 C 0.95243 1.09073 1.15141
 C1031 C 0.94529 1.10065 1.17338
 H1032 H 0.95508 1.11590 1.18022
 O1033 O 0.87885 1.03049 1.09481
 O1034 O 0.85107 1.03221 1.12356
 C1035 C 0.85932 1.03912 1.10331
 C1036 C 0.84645 1.05789 1.08986
 C1037 C 0.82346 1.06549 1.09742
 H1038 H 0.81462 1.05682 1.11265
 O1039 O 1.11994 0.97360 1.08921
 O1040 O 1.14801 0.97403 1.11734
 C1041 C 1.13943 0.96543 1.09816
 C1042 C 1.15184 0.94541 1.08633
 C1043 C 1.17427 0.93708 1.09464
 H1044 H 1.18302 0.94598 1.10950
 O1045 O 1.08208 0.87967 1.03370
 O1046 O 1.10912 0.85087 1.03434
 C1047 C 1.09000 0.86043 1.04284
 C1048 C 1.07700 0.84947 1.06382
 C1049 C 1.08508 0.82803 1.07440
 H1050 H 1.10052 0.81896 1.06664
 O1051 O 0.91470 1.11984 1.02575
 O1052 O 0.88789 1.14883 1.02403
 C1053 C 0.90757 1.14026 1.03214
 C1054 C 0.92221 1.15396 1.04940
 C1055 C 0.91616 1.17743 1.05505
 H1056 H 0.90089 1.18585 1.04626
 O1057 O 0.91195 0.98525 1.12931
 O1058 O 0.88434 0.98747 1.15818
 C1059 C 0.90347 0.97826 1.14948
 C1060 C 0.91512 0.95835 1.16237
 C1061 C 0.90554 0.95038 1.18447
 H1062 H 0.89061 0.95984 1.19282
 O1063 O 1.08756 1.02223 1.11890
 O1064 O 1.11574 1.02268 1.14695
 C1065 C 1.09625 1.03083 1.13807
 C1066 C 1.08388 1.05076 1.15003
 C1067 C 1.09157 1.05821 1.17273
 H1068 H 1.10613 1.04886 1.18176
 O1069 O 0.96924 0.88373 1.09836
 O1070 O 0.96871 0.85709 1.12765
 C1071 C 0.96055 0.86489 1.10780
 C1072 C 0.94029 0.85268 1.09557
 C1073 C 0.93047 0.83105 1.10427
 H1074 H 0.93820 0.82269 1.12004
 O1075 O 1.02950 1.12056 1.08311
 O1076 O 1.03175 1.14929 1.10975
 C1077 C 1.03928 1.13963 1.09054
 C1078 C 1.05994 1.15031 1.07691
 C1079 C 1.07016 1.17220 1.08379
 H1080 H 1.06229 1.18182 1.09871
 O1081 O 0.87665 0.92100 1.03501
 O1082 O 0.84725 0.89425 1.03646
 C1083 C 0.85664 0.91356 1.04376
 C1084 C 0.84436 0.92704 1.06305
 C1085 C 0.82106 0.92030 1.07071
 H1086 H 0.81168 0.90593 1.06176
 O1087 O 1.12446 1.07995 1.01952
 O1088 O 1.15413 1.10639 1.01807
 C1089 C 1.14469 1.08767 1.02713
 C1090 C 1.15688 1.07484 1.04706
 C1091 C 1.18094 1.08028 1.05368
 H1092 H 1.19097 1.09357 1.04351
 O1093 O 1.02712 1.08864 1.11689
 O1094 O 1.02947 1.11718 1.14376
 C1095 C 1.03604 1.09697 1.13605
 C1096 C 1.05458 1.08316 1.14913
 C1097 C 1.06249 1.09038 1.17189
 H1098 H 1.05392 1.10546 1.18032
 O1099 O 0.97022 0.91801 1.12933
 O1100 O 0.96974 0.89154 1.15880
 C1101 C 0.96203 0.91077 1.14956
 C1102 C 0.94305 0.92472 1.16213
 C1103 C 0.93287 0.91673 1.18408
 H1104 H 0.93960 0.90061 1.19238
 O1105 O 1.12062 1.01970 1.08564
 O1106 O 1.14889 1.02004 1.11359
 C1107 C 1.14073 1.02740 1.09354
 C1108 C 1.15469 1.04525 1.07942
 C1109 C 1.17864 1.05078 1.08568
 H1110 H 1.18702 1.04151 1.10063
 O1111 O 0.87830 0.98440 1.09721
 O1112 O 0.85043 0.98596 1.12587
 C1113 C 0.85851 0.97690 1.10648
 C1114 C 0.84525 0.95730 1.09446
 C1115 C 0.82215 0.94954 1.10255
 H1116 H 0.81352 0.95795 1.11783
 O1117 O 1.09304 1.11415 1.01862
 O1118 O 1.12258 1.14074 1.01703
 C1119 C 1.10251 1.13345 1.02580
 C1120 C 1.09049 1.14731 1.04496
 C1121 C 1.10009 1.16937 1.05175
 H1122 H 1.11574 1.17668 1.04228
 O1123 O 0.90664 0.88552 1.03577
 O1124 O 0.87719 0.85883 1.03685
 C1125 C 0.89727 0.86663 1.04456
 C1126 C 0.90938 0.85389 1.06438
 C1127 C 0.89974 0.83247 1.07322
 H1128 H 0.88390 0.82478 1.06475
 O1129 O 1.08555 0.97615 1.12135
 O1130 O 1.11354 0.97679 1.14957
 C1131 C 1.09342 0.96909 1.14159
 C1132 C 1.07907 0.95172 1.15594
 C1133 C 1.08531 0.94656 1.17985
 H1134 H 1.10064 0.95555 1.18793
 O1135 O 0.91349 1.03163 1.12602
 O1136 O 0.88597 1.03406 1.15492
 C1137 C 0.90571 1.04126 1.14514
 C1138 C 0.91962 1.06142 1.15549
 C1139 C 0.91267 1.07177 1.17750
 H1140 H 0.89748 1.06424 1.18740
 O1141 O 0.98206 1.12303 1.08359
 O1142 O 0.98418 1.15195 1.11004
 C1143 C 0.97502 1.14307 1.09119
 C1144 C 0.95535 1.15553 1.07831
 C1145 C 0.94893 1.17896 1.08401
 H1146 H 0.95939 1.18853 1.09722
 O1147 O 1.01661 0.88367 1.09674
 O1148 O 1.01631 0.85729 1.12629
 C1149 C 1.02473 0.86474 1.10623
 C1150 C 1.04471 0.85159 1.09432
 C1151 C 1.05282 0.83012 1.10428
 H1152 H 1.04371 0.82278 1.12004
 O1153 O 1.11787 0.90973 1.03009
 O1154 O 1.14499 0.88099 1.03062
 C1155 C 1.13753 0.90093 1.03802
 C1156 C 1.15113 0.91377 1.05672
 C1157 C 1.17363 0.90549 1.06522
 H1158 H 1.18169 0.89008 1.05695
 O1159 O 0.87880 1.08987 1.02957
 O1160 O 0.85172 1.11860 1.02805
 C1161 C 0.85950 1.09952 1.03754
 C1162 C 0.84652 1.08822 1.05821
 C1163 C 0.82364 1.09621 1.06649
 H1164 H 0.81481 1.11093 1.05750
 Cu1165 Cu 0.99322 0.90330 1.11004
 Cu1166 Cu 0.99296 0.87159 1.14553
 Cu1167 Cu 1.00450 1.10326 1.09764
 Cu1168 Cu 1.00722 1.13770 1.12971
 Cu1169 Cu 0.89430 0.90530 1.01180
 Cu1170 Cu 0.85901 0.87320 1.01357
 Cu1171 Cu 1.09608 0.89691 1.00850
 Cu1172 Cu 1.12852 0.86236 1.00897
 Cu1173 Cu 0.89918 1.09980 1.00474
 Cu1174 Cu 0.86689 1.13451 1.00252
 Cu1175 Cu 1.10563 1.09349 0.99582
 Cu1176 Cu 1.14089 1.12559 0.99397
 Cu1177 Cu 0.89845 1.00778 1.10901
 Cu1178 Cu 0.86525 1.01015 1.14362
 Cu1179 Cu 1.10060 0.99779 1.10091
 Cu1180 Cu 1.13439 0.99845 1.13469
 C1181 C 1.05919 0.93994 1.14571
 H1182 H 1.05444 0.94359 1.12717
 C1183 C 1.07209 0.92976 1.19343
 C1184 C 0.93961 1.07103 1.14268
 H1185 H 0.94493 1.06346 1.12559
 C1186 C 0.92546 1.09156 1.18653
 C1187 C 0.85764 1.06908 1.07012
 H1188 H 0.87545 1.06315 1.06435
 C1189 C 0.81199 1.08469 1.08614
 C1190 C 1.14061 0.93383 1.06722
 H1191 H 1.12312 0.94004 1.06098
 C1192 C 1.18536 0.91711 1.08432
 C1193 C 1.05674 0.86102 1.07398
 H1194 H 1.05065 0.87772 1.06637
 C1195 C 1.07307 0.81835 1.09482
 C1196 C 0.94197 1.14328 1.06092
 H1197 H 0.94654 1.12505 1.05679
 C1198 C 0.92921 1.18998 1.07246
 C1199 C 0.93408 0.94562 1.15151
 H1200 H 0.94130 0.95156 1.13429
 C1201 C 0.91383 0.92938 1.19515
 C1202 C 1.06524 1.06319 1.13840
 H1203 H 1.05953 1.05772 1.12066
 C1204 C 1.08131 1.07816 1.18361
 C1205 C 0.92976 0.86369 1.07544
 H1206 H 0.93695 0.88046 1.06878
 C1207 C 0.91015 0.82081 1.09294
 C1208 C 1.07026 1.13806 1.05743
 H1209 H 1.06291 1.12095 1.05234
 C1210 C 1.09036 1.18175 1.07129
 C1211 C 0.85617 0.94580 1.07471
 H1212 H 0.87419 0.95108 1.06872
 C1213 C 0.81001 0.93110 1.09049
 C1214 C 1.14403 1.05720 1.05998
 H1215 H 1.12542 1.05310 1.05524
 C1216 C 1.19195 1.06820 1.07306
 O1217 O 0.99041 0.41256 0.38132
 O1218 O 0.99488 0.38483 0.35386
 C1219 C 0.98424 0.40340 0.36140
 C1220 C 0.96407 0.41416 0.34730
 C1221 C 0.95615 0.40390 0.32565
 H1222 H 0.96535 0.38836 0.31876
 O1223 O 1.02905 0.58843 0.38260
 O1224 O 1.02918 0.61677 0.35495
 C1225 C 1.03850 0.59818 0.36409
 C1226 C 1.06094 0.58833 0.35343
 C1227 C 1.07220 0.60005 0.33408
 H1228 H 1.06395 0.61586 0.32649
 O1229 O 0.88829 0.47309 0.40445
 O1230 O 0.86249 0.47137 0.37429
 C1231 C 0.86957 0.46419 0.39480
 C1232 C 0.85623 0.44497 0.40735
 C1233 C 0.83381 0.43714 0.39872
 H1234 H 0.82585 0.44572 0.38314
 O1235 O 1.12514 0.53151 0.42291
 O1236 O 1.15595 0.53275 0.39731
 C1237 C 1.14521 0.54047 0.41600
 C1238 C 1.15561 0.56072 0.42926
 C1239 C 1.17780 0.57087 0.42194
 H1240 H 1.18740 0.56325 0.40685
 O1241 O 0.91985 0.37932 0.46994
 O1242 O 0.89268 0.35048 0.46859
 C1243 C 0.91267 0.35959 0.46152
 C1244 C 0.92774 0.34754 0.44307
 C1245 C 0.92012 0.32621 0.43235
 H1246 H 0.90320 0.31793 0.43801
 O1247 O 1.08114 0.62564 0.48134
 O1248 O 1.10728 0.65538 0.48308
 C1249 C 1.08881 0.64570 0.47373
 C1250 C 1.07617 0.65755 0.45358
 C1251 C 1.08192 0.68103 0.44657
 H1252 H 1.09534 0.69084 0.45660
 O1253 O 0.92283 0.51901 0.37223
 O1254 O 0.89762 0.51713 0.34162
 C1255 C 0.91621 0.52606 0.35156
 C1256 C 0.92996 0.54535 0.33949
 C1257 C 0.92566 0.55142 0.31534
 H1258 H 0.91297 0.54085 0.30520
 O1259 O 1.09656 0.48472 0.38750
 O1260 O 1.12701 0.48594 0.36146
 C1261 C 1.10690 0.47710 0.36862
 C1262 C 1.09574 0.45723 0.35546
 C1263 C 1.10524 0.44994 0.33320
 H1264 H 1.12039 0.45947 0.32505
 O1265 O 1.03796 0.38430 0.41835
 O1266 O 1.04271 0.35659 0.39094
 C1267 C 1.04859 0.36566 0.41097
 C1268 C 1.06818 0.35475 0.42575
 C1269 C 1.07952 0.33346 0.41869
 H1270 H 1.07358 0.32452 0.40257
 O1271 O 0.97579 0.61578 0.41113
 O1272 O 0.97562 0.64380 0.38316
 C1273 C 0.96664 0.63449 0.40214
 C1274 C 0.94530 0.64546 0.41382
 C1275 C 0.93629 0.66728 0.40538
 H1276 H 0.94516 0.67635 0.39044
 O1277 O 0.87423 0.57904 0.46652
 O1278 O 0.84468 0.60525 0.46375
 C1279 C 0.85528 0.58677 0.45608
 C1280 C 0.84603 0.57458 0.43432
 C1281 C 0.82484 0.58256 0.42269
 H1282 H 0.81512 0.59741 0.43021
 O1283 O 1.12726 0.42212 0.48869
 O1284 O 1.15720 0.39633 0.49098
 C1285 C 1.14782 0.41471 0.48137
 C1286 C 1.16040 0.42726 0.46096
 C1287 C 1.18294 0.41909 0.45192
 H1288 H 1.19159 0.40408 0.46052
 O1289 O 0.98225 0.58471 0.37737
 O1290 O 0.98250 0.61266 0.34931
 C1291 C 0.97551 0.59246 0.35696
 C1292 C 0.95899 0.57796 0.34226
 C1293 C 0.95453 0.58392 0.31817
 H1294 H 0.96384 0.59900 0.31003
 O1295 O 1.03735 0.41746 0.38545
 O1296 O 1.04183 0.38988 0.35782
 C1297 C 1.04756 0.40995 0.36646
 C1298 C 1.06669 0.42439 0.35459
 C1299 C 1.07618 0.41753 0.33228
 H1300 H 1.06818 0.40252 0.32318
 O1301 O 1.12693 0.48505 0.42292
 O1302 O 1.15751 0.48620 0.39707
 C1303 C 1.14755 0.47750 0.41594
 C1304 C 1.15995 0.45800 0.42932
 C1305 C 1.18243 0.44967 0.42096
 H1306 H 1.19082 0.45809 0.40536
 O1307 O 0.88617 0.51916 0.40201
 O1308 O 0.86082 0.51749 0.37151
 C1309 C 0.86700 0.52628 0.39155
 C1310 C 0.85196 0.54520 0.40266
 C1311 C 0.83069 0.55331 0.39140
 H1312 H 0.82494 0.54526 0.37473
 O1313 O 0.90694 0.61168 0.47100
 O1314 O 0.87750 0.63804 0.46819
 C1315 C 0.89849 0.63070 0.46212
 C1316 C 0.91269 0.64398 0.44385
 C1317 C 0.90447 0.66608 0.43569
 H1318 H 0.88844 0.67400 0.44373
 O1319 O 1.09522 0.38852 0.48827
 O1320 O 1.12493 0.36247 0.49092
 C1321 C 1.10542 0.36964 0.48114
 C1322 C 1.09518 0.35642 0.46060
 C1323 C 1.10568 0.33489 0.45359
 H1324 H 1.12034 0.32729 0.46403
 O1325 O 1.09655 0.53112 0.38619
 O1326 O 1.12725 0.53252 0.36050
 C1327 C 1.10663 0.54001 0.36744
 C1328 C 1.09438 0.55982 0.35443
 C1329 C 1.10529 0.57167 0.33449
 H1330 H 1.12270 0.56581 0.32756
 O1331 O 0.92408 0.47269 0.37425
 O1332 O 0.89844 0.47080 0.34401
 C1333 C 0.91746 0.46347 0.35453
 C1334 C 0.93155 0.44358 0.34403
 C1335 C 0.92394 0.43301 0.32252
 H1336 H 0.90805 0.44001 0.31373
 O1337 O 1.02262 0.62087 0.41447
 O1338 O 1.02223 0.64917 0.38675
 C1339 C 1.02953 0.64115 0.40683
 C1340 C 1.04675 0.65525 0.42113
 C1341 C 1.05246 0.67865 0.41444
 H1342 H 1.04343 0.68670 0.39916
 O1343 O 0.99061 0.38097 0.41531
 O1344 O 0.99523 0.35320 0.38790
 C1345 C 0.98447 0.36115 0.40644
 C1346 C 0.96367 0.34794 0.41694
 C1347 C 0.95624 0.32633 0.40701
 H1348 H 0.96686 0.31835 0.39270
 O1349 O 1.11562 0.59436 0.48410
 O1350 O 1.14185 0.62403 0.48558
 C1351 C 1.13540 0.60404 0.47723
 C1352 C 1.15070 0.59209 0.45897
 C1353 C 1.17300 0.60200 0.45145
 H1354 H 1.17954 0.61821 0.45962
 O1355 O 0.88561 0.41087 0.46783
 O1356 O 0.85820 0.38222 0.46666
 C1357 C 0.86654 0.40191 0.45884
 C1358 C 0.85447 0.41445 0.43876
 C1359 C 0.83175 0.40696 0.43008
 H1360 H 0.82253 0.39197 0.43844
 Cu1361 Cu 1.01370 0.40154 0.40289
 Cu1362 Cu 1.01927 0.36832 0.36993
 Cu1363 Cu 1.00231 0.59958 0.39920
 Cu1364 Cu 1.00229 0.63340 0.36567
 Cu1365 Cu 0.90795 0.49629 0.39124
 Cu1366 Cu 0.87730 0.49405 0.35477
 Cu1367 Cu 1.10820 0.50802 0.40737
 Cu1368 Cu 1.14508 0.50936 0.37659
 C1369 C 0.95172 0.43415 0.35616
 H1370 H 0.95742 0.44203 0.37292
 C1371 C 0.93609 0.41315 0.31304
 C1372 C 1.07201 0.56818 0.36338
 H1373 H 1.06348 0.55941 0.37869
 C1374 C 1.09414 0.59196 0.32439
 C1375 C 0.86634 0.43371 0.42749
 H1376 H 0.88392 0.43949 0.43392
 C1377 C 0.82134 0.41845 0.41010
 C1378 C 1.14237 0.57124 0.44802
 H1379 H 1.12502 0.56368 0.45346
 C1380 C 1.18678 0.59142 0.43309
 C1381 C 0.94958 0.35817 0.43523
 H1382 H 0.95523 0.37495 0.44283
 C1383 C 0.93434 0.31563 0.41419
 C1384 C 1.05849 0.64494 0.44083
 H1385 H 1.05429 0.62674 0.44586
 C1386 C 1.07005 0.69170 0.42688
 C1387 C 0.94682 0.55855 0.35268
 H1388 H 0.94993 0.55416 0.37142
 C1389 C 0.93785 0.57086 0.30454
 C1390 C 1.07637 0.44441 0.36596
 H1391 H 1.06930 0.44958 0.38338
 C1392 C 1.09578 0.42991 0.32170
 C1393 C 1.07622 0.36606 0.44678
 H1394 H 1.06817 0.38278 0.45206
 C1395 C 1.09837 0.32355 0.43256
 C1396 C 0.93340 0.63393 0.43312
 H1397 H 0.93980 0.61678 0.43931
 C1398 C 0.91586 0.67754 0.41629
 C1399 C 0.85928 0.55579 0.42423
 H1400 H 0.87576 0.54979 0.43289
 C1401 C 0.81688 0.57192 0.40119
 C1402 C 1.14912 0.44678 0.44946
 H1403 H 1.13162 0.45294 0.45587
 C1404 C 1.19401 0.43020 0.43175
 O1405 O 1.01708 0.42073 0.62201
 O1406 O 1.01605 0.39320 0.65046
 C1407 C 1.02399 0.41297 0.64230
 C1408 C 1.04186 0.42670 0.65638
 C1409 C 1.04755 0.41945 0.67979
 H1410 H 1.03814 0.40433 0.68776
 O1411 O 0.95977 0.58738 0.61994
 O1412 O 0.95606 0.61555 0.64703
 C1413 C 0.94952 0.59559 0.63866
 C1414 C 0.92920 0.58200 0.65000
 C1415 C 0.91794 0.58963 0.67139
 H1416 H 0.92521 0.60496 0.68053
 O1417 O 0.86998 0.51898 0.58007
 O1418 O 0.83903 0.51663 0.60545
 C1419 C 0.84867 0.52510 0.58642
 C1420 C 0.83525 0.54249 0.57162
 C1421 C 0.81113 0.54859 0.57725
 H1422 H 0.80202 0.53954 0.59199
 O1423 O 1.11496 0.48766 0.59668
 O1424 O 1.14065 0.48957 0.62688
 C1425 C 1.13435 0.48082 0.60686
 C1426 C 1.14928 0.46195 0.59570
 C1427 C 1.17131 0.45488 0.60615
 H1428 H 1.17801 0.46393 0.62193
 O1429 O 1.09345 0.38818 0.53532
 O1430 O 1.12317 0.36222 0.53823
 C1431 C 1.10237 0.36956 0.54491
 C1432 C 1.08820 0.35690 0.56421
 C1433 C 1.09622 0.33536 0.57486
 H1434 H 1.11299 0.32734 0.56873
 O1435 O 0.90032 0.61210 0.51744
 O1436 O 0.87068 0.63820 0.51451
 C1437 C 0.88986 0.63088 0.52471
 C1438 C 0.89992 0.64425 0.54533
 C1439 C 0.88929 0.66576 0.55249
 H1440 H 0.87387 0.67277 0.54273
 O1441 O 0.90375 0.47562 0.61614
 O1442 O 0.87287 0.47325 0.64160
 C1443 C 0.89389 0.46671 0.63489
 C1444 C 0.90671 0.44805 0.64858
 C1445 C 0.89712 0.43947 0.67043
 H1446 H 0.88071 0.44733 0.67773
 O1447 O 1.07582 0.53215 0.62573
 O1448 O 1.10151 0.53393 0.65593
 C1449 C 1.08212 0.54084 0.64576
 C1450 C 1.06727 0.55967 0.65709
 C1451 C 1.07375 0.56852 0.67968
 H1452 H 1.08854 0.56018 0.68915
 O1453 O 0.97488 0.38511 0.58616
 O1454 O 0.97361 0.35752 0.61452
 C1455 C 0.96684 0.36540 0.59414
 C1456 C 0.94902 0.35182 0.57981
 C1457 C 0.94053 0.32955 0.58785
 H1458 H 0.94789 0.32179 0.60412
 O1459 O 1.00672 0.62202 0.58786
 O1460 O 1.00329 0.65058 0.61457
 C1461 C 1.01323 0.64214 0.59577
 C1462 C 1.03293 0.65546 0.58315
 C1463 C 1.03843 0.67911 0.58925
 H1464 H 1.02778 0.68802 0.60291
 O1465 O 0.88300 0.41120 0.51458
 O1466 O 0.85569 0.38244 0.51345
 C1467 C 0.86304 0.40214 0.52179
 C1468 C 0.84837 0.41448 0.54028
 C1469 C 0.82450 0.40698 0.54538
 H1470 H 0.81673 0.39237 0.53541
 O1471 O 1.11210 0.59483 0.53085
 O1472 O 1.13846 0.62439 0.53229
 C1473 C 1.13068 0.60449 0.54009
 C1474 C 1.14316 0.59280 0.56041
 C1475 C 1.16560 0.60147 0.56823
 H1476 H 1.17428 0.61615 0.55872
 O1477 O 1.00720 0.59028 0.62179
 O1478 O 1.00388 0.61851 0.64886
 C1479 C 1.01401 0.59964 0.64135
 C1480 C 1.03429 0.58866 0.65503
 C1481 C 1.04142 0.59758 0.67752
 H1482 H 1.03169 0.61239 0.68530
 O1483 O 0.96989 0.41598 0.62054
 O1484 O 0.96903 0.38835 0.64888
 C1485 C 0.96049 0.40719 0.63967
 C1486 C 0.93912 0.41872 0.65095
 C1487 C 0.92924 0.41024 0.67289
 H1488 H 0.93811 0.39567 0.68198
 O1489 O 1.11242 0.53397 0.59622
 O1490 O 1.13833 0.53607 0.62620
 C1491 C 1.13089 0.54348 0.60588
 C1492 C 1.14326 0.56355 0.59321
 C1493 C 1.16541 0.57317 0.60140
 H1494 H 1.17404 0.56580 0.61724
 O1495 O 0.87532 0.47338 0.57944
 O1496 O 0.84424 0.47102 0.60469
 C1497 C 0.85530 0.46395 0.58589
 C1498 C 0.84470 0.44455 0.57150
 C1499 C 0.82082 0.43691 0.57618
 H1500 H 0.81053 0.44590 0.58993
 O1501 O 1.07575 0.62394 0.52782
 O1502 O 1.10194 0.65365 0.52943
 C1503 C 1.08204 0.64396 0.53608
 C1504 C 1.06626 0.65614 0.55374
 C1505 C 1.07102 0.67981 0.55964
 H1506 H 1.08580 0.68926 0.55075
 O1507 O 0.91775 0.38065 0.51670
 O1508 O 0.89070 0.35165 0.51565
 C1509 C 0.90951 0.36107 0.52480
 C1510 C 0.92137 0.34960 0.54563
 C1511 C 0.91342 0.32725 0.55377
 H1512 H 0.89935 0.31787 0.54408
 O1513 O 1.07889 0.48591 0.62696
 O1514 O 1.10433 0.48750 0.65736
 C1515 C 1.08588 0.47829 0.64733
 C1516 C 1.07249 0.45823 0.65900
 C1517 C 1.07824 0.45036 0.68242
 H1518 H 1.09216 0.45952 0.69243
 O1519 O 0.90060 0.52190 0.61539
 O1520 O 0.86972 0.51954 0.64084
 C1521 C 0.88957 0.52919 0.63407
 C1522 C 0.89977 0.54943 0.64762
 C1523 C 0.88880 0.55722 0.66903
 H1524 H 0.87304 0.54788 0.67621
 O1525 O 0.95944 0.61836 0.58538
 O1526 O 0.95576 0.64682 0.61217
 C1527 C 0.94918 0.63721 0.59260
 C1528 C 0.92904 0.64763 0.57828
 C1529 C 0.91824 0.66925 0.58499
 H1530 H 0.92489 0.67846 0.60065
 O1531 O 1.02223 0.38664 0.59137
 O1532 O 1.02069 0.35905 0.61973
 C1533 C 1.03060 0.36780 0.60096
 C1534 C 1.05249 0.35616 0.59082
 C1535 C 1.06037 0.33455 0.60058
 H1536 H 1.04972 0.32598 0.61469
 O1537 O 1.12375 0.42374 0.53586
 O1538 O 1.15373 0.39800 0.53843
 C1539 C 1.14336 0.41686 0.54555
 C1540 C 1.15365 0.43054 0.56583
 C1541 C 1.17551 0.42357 0.57670
 H1542 H 1.18563 0.40883 0.56932
 O1543 O 0.86968 0.57724 0.51354
 O1544 O 0.83999 0.60331 0.51073
 C1545 C 0.84878 0.58446 0.51980
 C1546 C 0.83517 0.57128 0.53863
 C1547 C 0.81115 0.57731 0.54449
 H1548 H 0.80205 0.59113 0.53433
 Cu1549 Cu 0.99600 0.40483 0.60215
 Cu1550 Cu 0.99478 0.37176 0.63618
 Cu1551 Cu 0.98364 0.60169 0.60113
 Cu1552 Cu 0.97943 0.63569 0.63337
 Cu1553 Cu 0.90429 0.39838 0.49223
 Cu1554 Cu 0.87161 0.36375 0.49100
 Cu1555 Cu 1.10702 0.40821 0.51193
 Cu1556 Cu 1.14278 0.37722 0.51490
 Cu1557 Cu 0.89064 0.59228 0.49247
 Cu1558 Cu 0.85522 0.62380 0.48900
 Cu1559 Cu 1.09354 0.60670 0.50578
 Cu1560 Cu 1.12505 0.64231 0.50787
 Cu1561 Cu 0.89061 0.49785 0.59532
 Cu1562 Cu 0.85341 0.49483 0.62577
 Cu1563 Cu 1.09302 0.50972 0.60837
 Cu1564 Cu 1.12376 0.51195 0.64465
 C1565 C 1.05420 0.44626 0.64620
 H1566 H 1.04995 0.45180 0.62801
 C1567 C 1.06578 0.43084 0.69285
 C1568 C 0.92004 0.56180 0.63844
 H1569 H 0.92836 0.55602 0.62176
 C1570 C 0.89752 0.57740 0.68094
 C1571 C 0.84695 0.55372 0.55214
 H1572 H 0.86566 0.54931 0.54795
 C1573 C 0.79901 0.56624 0.56388
 C1574 C 1.14076 0.44985 0.57540
 H1575 H 1.12364 0.45503 0.56746
 C1576 C 1.18432 0.43552 0.59705
 C1577 C 1.06630 0.36704 0.57249
 H1578 H 1.06017 0.38378 0.56500
 C1579 C 1.08215 0.32406 0.59312
 C1580 C 0.91988 0.63544 0.55824
 H1581 H 0.92796 0.61872 0.55301
 C1582 C 0.89850 0.67860 0.57196
 C1583 C 0.92782 0.43775 0.63912
 H1584 H 0.93507 0.44410 0.62206
 C1585 C 0.90807 0.42054 0.68276
 C1586 C 1.04740 0.56968 0.64500
 H1587 H 1.04247 0.56299 0.62748
 C1588 C 1.06130 0.58778 0.68991
 C1589 C 0.93941 0.36165 0.55857
 H1590 H 0.94542 0.37906 0.55253
 C1591 C 0.92254 0.31733 0.57500
 C1592 C 1.04695 0.64417 0.56529
 H1593 H 1.04324 0.62582 0.56081
 C1594 C 1.05747 0.69133 0.57741
 C1595 C 0.85831 0.43341 0.55335
 H1596 H 0.87681 0.43914 0.54976
 C1597 C 0.81051 0.41807 0.56324
 C1598 C 1.13233 0.57361 0.57270
 H1599 H 1.11499 0.56686 0.56658
 C1600 C 1.17668 0.59204 0.58871
 O1601 O 0.47862 0.91614 0.38205
 O1602 O 0.47951 0.88917 0.35351
 C1603 C 0.47078 0.90817 0.36224
 C1604 C 0.45095 0.92056 0.34930
 C1605 C 0.44388 0.91235 0.32671
 H1606 H 0.45358 0.89765 0.31865
 O1607 O 0.52769 1.08475 0.37973
 O1608 O 0.52871 1.11254 0.35155
 C1609 C 0.53654 1.09308 0.36021
 C1610 C 0.55671 1.08018 0.34823
 C1611 C 0.56575 1.08715 0.32543
 H1612 H 0.55705 1.10157 0.31587
 O1613 O 0.37863 0.97919 0.41138
 O1614 O 0.35073 0.97923 0.38310
 C1615 C 0.35886 0.97126 0.40294
 C1616 C 0.34572 0.95223 0.41631
 C1617 C 0.32134 0.94660 0.41117
 H1618 H 0.31175 0.95674 0.39763
 O1619 O 0.62376 1.02253 0.41794
 O1620 O 0.65288 1.02307 0.39043
 C1621 C 0.64388 1.03063 0.41005
 C1622 C 0.65676 1.04927 0.42360
 C1623 C 0.68026 1.05635 0.41670
 H1624 H 0.68932 1.04769 0.40178
 O1625 O 0.41014 0.87921 0.47270
 O1626 O 0.38154 0.85176 0.47071
 C1627 C 0.40180 0.86024 0.46357
 C1628 C 0.41601 0.84834 0.44438
 C1629 C 0.40948 0.82572 0.43571
 H1630 H 0.39397 0.81652 0.44347
 O1631 O 0.59184 1.11845 0.47890
 O1632 O 0.62006 1.14632 0.47901
 C1633 C 0.60075 1.13758 0.47015
 C1634 C 0.58874 1.14904 0.44899
 C1635 C 0.59801 1.17014 0.43822
 H1636 H 0.61374 1.17888 0.44577
 O1637 O 0.41363 1.02453 0.37842
 O1638 O 0.38643 1.02474 0.34949
 C1639 C 0.40603 1.03266 0.35850
 C1640 C 0.41994 1.05195 0.34627
 C1641 C 0.41275 1.06091 0.32371
 H1642 H 0.39708 1.05324 0.31505
 O1643 O 0.59157 0.97672 0.38390
 O1644 O 0.62065 0.97708 0.35635
 C1645 C 0.60063 0.96888 0.36445
 C1646 C 0.58798 0.94967 0.35150
 C1647 C 0.59762 0.94064 0.32998
 H1648 H 0.61412 0.94828 0.32240
 O1649 O 0.52582 0.88222 0.41414
 O1650 O 0.52661 0.85532 0.38553
 C1651 C 0.53450 0.86324 0.40534
 C1652 C 0.55438 0.85070 0.41804
 C1653 C 0.56330 0.82876 0.40975
 H1654 H 0.55498 0.82043 0.39436
 O1655 O 0.48105 1.11771 0.41300
 O1656 O 0.48177 1.14598 0.38532
 C1657 C 0.47330 1.13744 0.40492
 C1658 C 0.45398 1.15008 0.41846
 C1659 C 0.44737 1.17361 0.41265
 H1660 H 0.45688 1.18301 0.39834
 O1661 O 0.38094 1.08578 0.47404
 O1662 O 0.35354 1.11428 0.47442
 C1663 C 0.36167 1.09505 0.46576
 C1664 C 0.34874 1.08369 0.44557
 C1665 C 0.32651 1.09284 0.43780
 H1666 H 0.31857 1.10778 0.44717
 O1667 O 0.62433 0.91259 0.47866
 O1668 O 0.65221 0.88454 0.47845
 C1669 C 0.64412 0.90415 0.47047
 C1670 C 0.65723 0.91720 0.45104
 C1671 C 0.67992 0.90948 0.44216
 H1672 H 0.68850 0.89421 0.45036
 O1673 O 0.48011 1.08490 0.38031
 O1674 O 0.48116 1.11300 0.35246
 C1675 C 0.47228 1.09371 0.36073
 C1676 C 0.45235 1.08176 0.34762
 C1677 C 0.44495 1.09040 0.32510
 H1678 H 0.45443 1.10541 0.31701
 O1679 O 0.52626 0.91553 0.38166
 O1680 O 0.52686 0.88855 0.35310
 C1681 C 0.53502 0.90759 0.36209
 C1682 C 0.55563 0.91997 0.35020
 C1683 C 0.56536 0.91131 0.32856
 H1684 H 0.55635 0.89668 0.31980
 O1685 O 0.62447 0.97632 0.41693
 O1686 O 0.65351 0.97712 0.38934
 C1687 C 0.64453 0.96864 0.40866
 C1688 C 0.65728 0.94916 0.42115
 C1689 C 0.67998 0.94152 0.41275
 H1690 H 0.68860 0.95070 0.39771
 O1691 O 0.37871 1.02553 0.40969
 O1692 O 0.35109 1.02604 0.38118
 C1693 C 0.35942 1.03420 0.40075
 C1694 C 0.34731 1.05431 0.41335
 C1695 C 0.32506 1.06412 0.40546
 H1696 H 0.31597 1.05654 0.39011
 O1697 O 0.41614 1.11632 0.47622
 O1698 O 0.38888 1.14496 0.47652
 C1699 C 0.40867 1.13626 0.46862
 C1700 C 0.42282 1.14932 0.45007
 C1701 C 0.41691 1.17283 0.44445
 H1702 H 0.40251 1.18160 0.45437
 O1703 O 0.58930 0.88180 0.47773
 O1704 O 0.61701 0.85358 0.47801
 C1705 C 0.59758 0.86242 0.46961
 C1706 C 0.58489 0.85033 0.44978
 C1707 C 0.59314 0.82828 0.44162
 H1708 H 0.60826 0.81969 0.45052
 O1709 O 0.59173 1.02287 0.38369
 O1710 O 0.62083 1.02311 0.35616
 C1711 C 0.60072 1.03086 0.36410
 C1712 C 0.58796 1.04958 0.35047
 C1713 C 0.59650 1.05647 0.32766
 H1714 H 0.61201 1.04749 0.31981
 O1715 O 0.41259 0.97827 0.37899
 O1716 O 0.38526 0.97790 0.35020
 C1717 C 0.40470 0.96979 0.35941
 C1718 C 0.41828 0.95007 0.34770
 C1719 C 0.41124 0.94113 0.32511
 H1720 H 0.39604 0.94905 0.31583
 O1721 O 0.52852 1.11563 0.41392
 O1722 O 0.52923 1.14348 0.38582
 C1723 C 0.53741 1.13476 0.40530
 C1724 C 0.55785 1.14696 0.41742
 C1725 C 0.56765 1.16755 0.40692
 H1726 H 0.55982 1.17464 0.39053
 O1727 O 0.47820 0.88186 0.41344
 O1728 O 0.47930 0.85491 0.38486
 C1729 C 0.47037 0.86268 0.40437
 C1730 C 0.45017 0.84956 0.41609
 C1731 C 0.44372 0.82695 0.40798
 H1732 H 0.45433 0.81874 0.39379
 O1733 O 0.62351 1.08481 0.48140
 O1734 O 0.65220 1.11227 0.48172
 C1735 C 0.64366 1.09285 0.47370
 C1736 C 0.65675 1.07974 0.45469
 C1737 C 0.68017 1.08672 0.44738
 H1738 H 0.68921 1.10112 0.45656
 O1739 O 0.37902 0.91380 0.47340
 O1740 O 0.35003 0.88667 0.47205
 C1741 C 0.35907 0.90638 0.46497
 C1742 C 0.34615 0.92070 0.44679
 C1743 C 0.32185 0.91564 0.44174
 H1744 H 0.31258 0.90151 0.45155
 Cu1745 Cu 0.50221 0.90162 0.40074
 Cu1746 Cu 0.50306 0.86934 0.36635
 Cu1747 Cu 0.50416 1.09792 0.39948
 Cu1748 Cu 0.50524 1.13159 0.36602
 Cu1749 Cu 0.39854 1.00188 0.39745
 Cu1750 Cu 0.36564 1.00191 0.36308
 Cu1751 Cu 0.60494 0.99961 0.40342
 Cu1752 Cu 0.63990 1.00025 0.37029
 C1753 C 0.43822 0.93959 0.35960
 H1754 H 0.44356 0.94592 0.37714
 C1755 C 0.42407 0.92215 0.31456
 C1756 C 0.56793 1.06128 0.36048
 H1757 H 0.56152 1.05608 0.37824
 C1758 C 0.58585 1.07532 0.31509
 C1759 C 0.35791 0.93922 0.43425
 H1760 H 0.37678 0.94313 0.43810
 C1761 C 0.30932 0.92832 0.42405
 C1762 C 0.64523 1.06087 0.44280
 H1763 H 0.62694 1.05567 0.44800
 C1764 C 0.69188 1.07522 0.42821
 C1765 C 0.43642 0.86001 0.43443
 H1766 H 0.44133 0.87759 0.44058
 C1767 C 0.42342 0.81494 0.41741
 C1768 C 0.56843 1.13782 0.43847
 H1769 H 0.56117 1.12159 0.44632
 C1770 C 0.58745 1.17932 0.41701
 C1771 C 0.43992 1.06236 0.35792
 H1772 H 0.44538 1.05581 0.37543
 C1773 C 0.42534 1.08012 0.31290
 C1774 C 0.56689 0.93929 0.36139
 H1775 H 0.55965 0.94579 0.37827
 C1776 C 0.58668 0.92124 0.31856
 C1777 C 0.56531 0.86126 0.43810
 H1778 H 0.55897 0.87837 0.44428
 C1779 C 0.58276 0.81751 0.42154
 C1780 C 0.44157 1.13817 0.43725
 H1781 H 0.44610 1.11992 0.44155
 C1782 C 0.42882 1.18505 0.42578
 C1783 C 0.35886 1.06433 0.43345
 H1784 H 0.37612 1.05735 0.43945
 C1785 C 0.31455 1.08349 0.41781
 C1786 C 0.64620 0.93713 0.44045
 H1787 H 0.62852 0.94291 0.44677
 C1788 C 0.69136 0.92161 0.42280
 O1789 O 0.51865 0.91015 0.61489
 O1790 O 0.51802 0.88255 0.64329
 C1791 C 0.52647 0.90194 0.63471
 C1792 C 0.54600 0.91456 0.64779
 C1793 C 0.55309 0.90616 0.67048
 H1794 H 0.54368 0.89117 0.67870
 O1795 O 0.47612 1.07875 0.61805
 O1796 O 0.47493 1.10563 0.64671
 C1797 C 0.46715 1.08648 0.63756
 C1798 C 0.44699 1.07360 0.64950
 C1799 C 0.43944 1.08025 0.67256
 H1800 H 0.44922 1.09407 0.68199
 O1801 O 0.37653 1.01858 0.58131
 O1802 O 0.34771 1.01860 0.60912
 C1803 C 0.35666 1.02661 0.58954
 C1804 C 0.34434 1.04606 0.57665
 C1805 C 0.32130 1.05369 0.58408
 H1806 H 0.31187 1.04447 0.59861
 O1807 O 0.62293 0.97390 0.58964
 O1808 O 0.64990 0.97241 0.61873
 C1809 C 0.64216 0.96508 0.59864
 C1810 C 0.65494 0.94573 0.58562
 C1811 C 0.67787 0.93712 0.59296
 H1812 H 0.68695 0.94506 0.60814
 O1813 O 0.58897 0.87999 0.52447
 O1814 O 0.61687 0.85196 0.52489
 C1815 C 0.59694 0.86041 0.53267
 C1816 C 0.58306 0.84772 0.55180
 C1817 C 0.59216 0.82676 0.56229
 H1818 H 0.60930 0.81968 0.55600
 O1819 O 0.41307 1.11601 0.52302
 O1820 O 0.38568 1.14452 0.52324
 C1821 C 0.40491 1.13532 0.53159
 C1822 C 0.41782 1.14688 0.55165
 C1823 C 0.41084 1.16945 0.56005
 H1824 H 0.39616 1.17887 0.55135
 O1825 O 0.40912 0.97262 0.61472
 O1826 O 0.38057 0.97273 0.64284
 C1827 C 0.40042 0.96472 0.63442
 C1828 C 0.41320 0.94558 0.64731
 C1829 C 0.40547 0.93837 0.67030
 H1830 H 0.39058 0.94750 0.67909
 O1831 O 0.58872 1.01948 0.62260
 O1832 O 0.61539 1.01823 0.65199
 C1833 C 0.59638 1.02705 0.64274
 C1834 C 0.58316 1.04672 0.65482
 C1835 C 0.59121 1.05664 0.67670
 H1836 H 0.60712 1.04953 0.68553
 O1837 O 0.47177 0.87614 0.58277
 O1838 O 0.47107 0.84852 0.61111
 C1839 C 0.46309 0.85687 0.59142
 C1840 C 0.44300 0.84472 0.57860
 C1841 C 0.43278 0.82315 0.58707
 H1842 H 0.44046 0.81454 0.60272
 O1843 O 0.52407 1.11323 0.58742
 O1844 O 0.52253 1.14019 0.61600
 C1845 C 0.53142 1.13264 0.59637
 C1846 C 0.55063 1.14649 0.58395
 C1847 C 0.55645 1.16943 0.59157
 H1848 H 0.54639 1.17715 0.60640
 O1849 O 0.37595 0.90980 0.52003
 O1850 O 0.34719 0.88246 0.51874
 C1851 C 0.35591 0.90127 0.52780
 C1852 C 0.34325 0.91323 0.54802
 C1853 C 0.32162 0.90390 0.55821
 H1854 H 0.31371 0.88797 0.55079
 O1855 O 0.62299 1.08666 0.52819
 O1856 O 0.65128 1.11444 0.52908
 C1857 C 0.64235 1.09509 0.53727
 C1858 C 0.65399 1.08226 0.55785
 C1859 C 0.67481 1.09136 0.56950
 H1860 H 0.68283 1.10786 0.56320
 O1861 O 0.52354 1.07998 0.62016
 O1862 O 0.52195 1.10704 0.64861
 C1863 C 0.53085 1.08808 0.64014
 C1864 C 0.55046 1.07597 0.65343
 C1865 C 0.55805 1.08490 0.67558
 H1866 H 0.54862 1.09984 0.68350
 O1867 O 0.47141 0.90925 0.61503
 O1868 O 0.47088 0.88170 0.64348
 C1869 C 0.46297 0.90106 0.63476
 C1870 C 0.44348 0.91407 0.64738
 C1871 C 0.43530 0.90679 0.67029
 H1872 H 0.44389 0.89190 0.67922
 O1873 O 0.62077 1.02050 0.58827
 O1874 O 0.64757 1.01939 0.61754
 C1875 C 0.63985 1.02853 0.59798
 C1876 C 0.65262 1.04936 0.58712
 C1877 C 0.67322 1.05870 0.59830
 H1878 H 0.68037 1.04988 0.61413
 O1879 O 0.37599 0.97226 0.58209
 O1880 O 0.34737 0.97232 0.61009
 C1881 C 0.35618 0.96406 0.59071
 C1882 C 0.34364 0.94420 0.57860
 C1883 C 0.32212 0.93479 0.58838
 H1884 H 0.31420 0.94287 0.60424
 O1885 O 0.58881 1.11807 0.52584
 O1886 O 0.61672 1.14626 0.52653
 C1887 C 0.59670 1.13751 0.53413
 C1888 C 0.58259 1.14926 0.55340
 C1889 C 0.58834 1.17228 0.56127
 H1890 H 0.60282 1.18195 0.55228
 O1891 O 0.41007 0.87848 0.51940
 O1892 O 0.38146 0.85099 0.51776
 C1893 C 0.40104 0.85894 0.52673
 C1894 C 0.41293 0.84582 0.54648
 C1895 C 0.40326 0.82423 0.55483
 H1896 H 0.38768 0.81655 0.54590
 O1897 O 0.58534 0.97319 0.61821
 O1898 O 0.61195 0.97178 0.64765
 C1899 C 0.59251 0.96422 0.63790
 C1900 C 0.57844 0.94450 0.64931
 C1901 C 0.58545 0.93538 0.67182
 H1902 H 0.60061 0.94332 0.68117
 O1903 O 0.40874 1.01861 0.61519
 O1904 O 0.38003 1.01869 0.64312
 C1905 C 0.40012 1.02650 0.63485
 C1906 C 0.41361 1.04499 0.64807
 C1907 C 0.40589 1.05235 0.67105
 H1908 H 0.39009 1.04417 0.67943
 O1909 O 0.47682 1.11286 0.58652
 O1910 O 0.47572 1.13966 0.61527
 C1911 C 0.46828 1.13192 0.59525
 C1912 C 0.44921 1.14514 0.58237
 C1913 C 0.44240 1.16778 0.59018
 H1914 H 0.45178 1.17585 0.60515
 O1915 O 0.51947 0.87746 0.58258
 O1916 O 0.51883 0.84980 0.61091
 C1917 C 0.52783 0.85842 0.59159
 C1918 C 0.54896 0.84673 0.58024
 C1919 C 0.55828 0.82586 0.59038
 H1920 H 0.54908 0.81765 0.60565
 O1921 O 0.62203 0.91295 0.52550
 O1922 O 0.65007 0.88504 0.52532
 C1923 C 0.64161 0.90431 0.53365
 C1924 C 0.65448 0.91644 0.55335
 C1925 C 0.67747 0.90864 0.56040
 H1926 H 0.68618 0.89430 0.55072
 O1927 O 0.37969 1.08348 0.52082
 O1928 O 0.35216 1.11187 0.52120
 C1929 C 0.35986 1.09193 0.52875
 C1930 C 0.34606 1.07852 0.54732
 C1931 C 0.32319 1.08631 0.55537
 H1932 H 0.31506 1.10195 0.54735
 Cu1933 Cu 0.49520 0.89591 0.59586
 Cu1934 Cu 0.49469 0.86280 0.62998
 Cu1935 Cu 0.50033 1.09343 0.60014
 Cu1936 Cu 0.49866 1.12577 0.63460
 Cu1937 Cu 0.39665 0.89803 0.49648
 Cu1938 Cu 0.36217 0.86520 0.49449
 Cu1939 Cu 0.60341 0.89967 0.50158
 Cu1940 Cu 0.63683 0.86593 0.50172
 Cu1941 Cu 0.40021 1.09753 0.49859
 Cu1942 Cu 0.36730 1.13177 0.49880
 Cu1943 Cu 0.60398 1.09936 0.50360
 Cu1944 Cu 0.63790 1.13263 0.50412
 Cu1945 Cu 0.39546 0.99560 0.59546
 Cu1946 Cu 0.36094 0.99562 0.62905
 Cu1947 Cu 0.60185 0.99686 0.60186
 Cu1948 Cu 0.63390 0.99523 0.63679
 C1949 C 0.55861 0.93396 0.63739
 H1950 H 0.55339 0.94043 0.61977
 C1951 C 0.57296 0.91608 0.68233
 C1952 C 0.43422 1.05572 0.63748
 H1953 H 0.43997 1.05061 0.61957
 C1954 C 0.41884 1.07004 0.68332
 C1955 C 0.35639 1.05830 0.55798
 H1956 H 0.37431 1.05256 0.55234
 C1957 C 0.31083 1.07394 0.57384
 C1958 C 0.64352 0.93518 0.56578
 H1959 H 0.62570 0.94120 0.56031
 C1960 C 0.68926 0.91861 0.58014
 C1961 C 0.56128 0.85741 0.56075
 H1962 H 0.55438 0.87379 0.55312
 C1963 C 0.57978 0.81577 0.58165
 C1964 C 0.43706 1.13494 0.56294
 H1965 H 0.44225 1.11739 0.55696
 C1966 C 0.42318 1.17997 0.57939
 C1967 C 0.43238 0.93354 0.63610
 H1968 H 0.43825 0.93893 0.61821
 C1969 C 0.41616 0.91885 0.68174
 C1970 C 0.56278 1.05666 0.64341
 H1971 H 0.55685 1.04979 0.62627
 C1972 C 0.57853 1.07581 0.68713
 C1973 C 0.43297 0.85572 0.55821
 H1974 H 0.44032 0.87252 0.55185
 C1975 C 0.41274 0.81284 0.57519
 C1976 C 0.56359 1.13665 0.56476
 H1977 H 0.55925 1.11878 0.55906
 C1978 C 0.57521 1.18252 0.58047
 C1979 C 0.35390 0.93351 0.55827
 H1980 H 0.37072 0.94059 0.55085
 C1981 C 0.31096 0.91469 0.57853
 C1982 C 0.64327 1.06112 0.56680
 H1983 H 0.62711 1.05413 0.55834
 C1984 C 0.68449 1.07956 0.58986
 O1985 O 0.47688 0.41643 0.87178
 O1986 O 0.47701 0.39100 0.84181
 C1987 C 0.46855 0.40949 0.85174
 C1988 C 0.44853 0.42291 0.84024
 C1989 C 0.43855 0.41557 0.81822
 H1990 H 0.44637 0.40045 0.80921
 O1991 O 0.52623 0.59690 0.88868
 O1992 O 0.52613 0.62581 0.86165
 C1993 C 0.53401 0.60586 0.86901
 C1994 C 0.55218 0.59266 0.85462
 C1995 C 0.55804 0.59968 0.83088
 H1996 H 0.54919 0.61495 0.82292
 O1997 O 0.38352 0.47867 0.91006
 O1998 O 0.35571 0.48119 0.88177
 C1999 C 0.36384 0.47143 0.90080
 C2000 C 0.35075 0.45109 0.91205
 C2001 C 0.32785 0.44389 0.90372
 H2002 H 0.31933 0.45370 0.88922
 O2003 O 0.61913 0.52619 0.91296
 O2004 O 0.64684 0.52917 0.88419
 C2005 C 0.63878 0.53511 0.90476
 C2006 C 0.65231 0.55296 0.91886
 C2007 C 0.67516 0.56077 0.91075
 H2008 H 0.68317 0.55303 0.89476
 O2009 O 0.41529 0.37866 0.96613
 O2010 O 0.38668 0.35114 0.96467
 C2011 C 0.40666 0.35980 0.95706
 C2012 C 0.41978 0.34795 0.93726
 C2013 C 0.41304 0.32510 0.93008
 H2014 H 0.39850 0.31586 0.93959
 O2015 O 0.59061 0.61842 0.98371
 O2016 O 0.62033 0.64465 0.98622
 C2017 C 0.60024 0.63804 0.97728
 C2018 C 0.58828 0.65288 0.95867
 C2019 C 0.59890 0.67425 0.95067
 H2020 H 0.61551 0.68044 0.95894
 O2021 O 0.41853 0.52732 0.88210
 O2022 O 0.39091 0.53021 0.85369
 C2023 C 0.41046 0.53750 0.86339
 C2024 C 0.42335 0.55851 0.85324
 C2025 C 0.41593 0.56823 0.83119
 H2026 H 0.40171 0.55957 0.82108
 O2027 O 0.58597 0.48278 0.87602
 O2028 O 0.61381 0.48598 0.84741
 C2029 C 0.59436 0.47667 0.85560
 C2030 C 0.58178 0.45806 0.84157
 C2031 C 0.58976 0.45229 0.81824
 H2032 H 0.60474 0.46208 0.81009
 O2033 O 0.52560 0.38321 0.90205
 O2034 O 0.52587 0.35787 0.87200
 C2035 C 0.53435 0.36495 0.89194
 C2036 C 0.55500 0.35209 0.90300
 C2037 C 0.56413 0.33166 0.89202
 H2038 H 0.55544 0.32496 0.87598
 O2039 O 0.47867 0.62743 0.92303
 O2040 O 0.47846 0.65681 0.89661
 C2041 C 0.46981 0.64689 0.91543
 C2042 C 0.44864 0.65724 0.92834
 C2043 C 0.43825 0.67906 0.92131
 H2044 H 0.44625 0.68927 0.90664
 O2045 O 0.37965 0.58415 0.97861
 O2046 O 0.35017 0.61046 0.98105
 C2047 C 0.35959 0.59245 0.97105
 C2048 C 0.34756 0.58105 0.95022
 C2049 C 0.32450 0.58846 0.94200
 H2050 H 0.31498 0.60240 0.95141
 O2051 O 0.62267 0.41346 0.96587
 O2052 O 0.65153 0.38647 0.96396
 C2053 C 0.64250 0.40605 0.95691
 C2054 C 0.65446 0.42000 0.93743
 C2055 C 0.67584 0.41194 0.92620
 H2056 H 0.68456 0.39599 0.93282
 O2057 O 0.47954 0.59502 0.89046
 O2058 O 0.47926 0.62402 0.86353
 C2059 C 0.47151 0.60392 0.87106
 C2060 C 0.45288 0.59096 0.85713
 C2061 C 0.44530 0.60011 0.83490
 H2062 H 0.45336 0.61632 0.82778
 O2063 O 0.52404 0.41814 0.87170
 O2064 O 0.52441 0.39304 0.84143
 C2065 C 0.53224 0.41184 0.85135
 C2066 C 0.55150 0.42629 0.83951
 C2067 C 0.55961 0.42087 0.81620
 H2068 H 0.55059 0.40685 0.80650
 O2069 O 0.61993 0.48028 0.90814
 O2070 O 0.64767 0.48347 0.87942
 C2071 C 0.63966 0.47345 0.89842
 C2072 C 0.65299 0.45316 0.90888
 C2073 C 0.67453 0.44507 0.89809
 H2074 H 0.68207 0.45438 0.88258
 O2075 O 0.38248 0.52497 0.91245
 O2076 O 0.35492 0.52731 0.88391
 C2077 C 0.36289 0.53372 0.90420
 C2078 C 0.34939 0.55192 0.91791
 C2079 C 0.32642 0.55929 0.91018
 H2080 H 0.31834 0.55094 0.89463
 O2081 O 0.41264 0.61710 0.98246
 O2082 O 0.38325 0.64352 0.98494
 C2083 C 0.40359 0.63695 0.97637
 C2084 C 0.41649 0.65223 0.95863
 C2085 C 0.40699 0.67439 0.95209
 H2086 H 0.39072 0.68092 0.96092
 O2087 O 0.59112 0.37916 0.96342
 O2088 O 0.61976 0.35194 0.96186
 C2089 C 0.59997 0.36052 0.95397
 C2090 C 0.58722 0.34948 0.93316
 C2091 C 0.59606 0.32876 0.92181
 H2092 H 0.61224 0.32021 0.92859
 O2093 O 0.58522 0.52918 0.88092
 O2094 O 0.61291 0.53198 0.85210
 C2095 C 0.59335 0.53910 0.86189
 C2096 C 0.58034 0.55940 0.85112
 C2097 C 0.58556 0.56636 0.82742
 H2098 H 0.59846 0.55622 0.81686
 O2099 O 0.41581 0.48091 0.87601
 O2100 O 0.38813 0.48403 0.84769
 C2101 C 0.40727 0.47452 0.85581
 C2102 C 0.41897 0.45511 0.84212
 C2103 C 0.40927 0.44758 0.82011
 H2104 H 0.39384 0.45685 0.81255
 O2105 O 0.52660 0.62730 0.92357
 O2106 O 0.52698 0.65635 0.89677
 C2107 C 0.53545 0.64677 0.91573
 C2108 C 0.55648 0.65747 0.92846
 C2109 C 0.56747 0.67884 0.92052
 H2110 H 0.55980 0.68811 0.90529
 O2111 O 0.47813 0.38142 0.90229
 O2112 O 0.47825 0.35573 0.87255
 C2113 C 0.47008 0.36255 0.89278
 C2114 C 0.45062 0.34905 0.90546
 C2115 C 0.44337 0.32618 0.89813
 H2116 H 0.45265 0.31780 0.88323
 O2117 O 0.62228 0.58458 0.98075
 O2118 O 0.65214 0.61067 0.98299
 C2119 C 0.64249 0.59273 0.97302
 C2120 C 0.65432 0.58145 0.95185
 C2121 C 0.67705 0.58948 0.94298
 H2122 H 0.68656 0.60359 0.95214
 O2123 O 0.38246 0.41155 0.96836
 O2124 O 0.35378 0.38416 0.96653
 C2125 C 0.36264 0.40397 0.95965
 C2126 C 0.35016 0.41813 0.94092
 C2127 C 0.32720 0.41125 0.93248
 H2128 H 0.31824 0.39615 0.94079
 Cu2129 Cu 0.50102 0.40228 0.88999
 Cu2130 Cu 0.50146 0.37181 0.85395
 Cu2131 Cu 0.50290 0.60904 0.90937
 Cu2132 Cu 0.50263 0.64385 0.87712
 Cu2133 Cu 0.40290 0.50269 0.89791
 Cu2134 Cu 0.36978 0.50599 0.86388
 Cu2135 Cu 0.59968 0.50424 0.89734
 Cu2136 Cu 0.63305 0.50806 0.86288
 C2137 C 0.43868 0.44276 0.85191
 H2138 H 0.44600 0.44828 0.86903
 C2139 C 0.41866 0.42772 0.80807
 C2140 C 0.56343 0.57245 0.86455
 H2141 H 0.55936 0.56709 0.88291
 C2142 C 0.57468 0.58641 0.81718
 C2143 C 0.36166 0.43814 0.93073
 H2144 H 0.37949 0.44334 0.93701
 C2145 C 0.31595 0.42393 0.91369
 C2146 C 0.64216 0.56312 0.93960
 H2147 H 0.62444 0.55717 0.94582
 C2148 C 0.68750 0.57913 0.92233
 C2149 C 0.43872 0.35965 0.92507
 H2150 H 0.44383 0.37739 0.93057
 C2151 C 0.42456 0.31407 0.91058
 C2152 C 0.56691 0.64491 0.94772
 H2153 H 0.55886 0.62828 0.95369
 C2154 C 0.58875 0.68747 0.93169
 C2155 C 0.44197 0.56996 0.86612
 H2156 H 0.44749 0.56289 0.88342
 C2157 C 0.42663 0.58915 0.82214
 C2158 C 0.56255 0.44503 0.85196
 H2159 H 0.55658 0.44910 0.87008
 C2160 C 0.57899 0.43360 0.80550
 C2161 C 0.56650 0.36075 0.92364
 H2162 H 0.55968 0.37678 0.93191
 C2163 C 0.58444 0.31977 0.90112
 C2164 C 0.43755 0.64406 0.94705
 H2165 H 0.44486 0.62691 0.95210
 C2166 C 0.41742 0.68770 0.93330
 C2167 C 0.35970 0.56271 0.93803
 H2168 H 0.37754 0.55713 0.94390
 C2169 C 0.31379 0.57752 0.92185
 C2170 C 0.64330 0.44071 0.92871
 H2171 H 0.62652 0.44677 0.93689
 C2172 C 0.68580 0.42430 0.90629
 O2173 O 0.52397 0.40042 1.11372
 O2174 O 0.52334 0.37019 1.13922
 C2175 C 0.53165 0.39030 1.13274
 C2176 C 0.55085 0.40182 1.14708
 C2177 C 0.55790 0.39226 1.16931
 H2178 H 0.54853 0.37669 1.17636
 O2179 O 0.47578 0.57507 1.12219
 O2180 O 0.47553 0.60046 1.15219
 C2181 C 0.46729 0.58182 1.14232
 C2182 C 0.44720 0.56823 1.15404
 C2183 C 0.43821 0.57502 1.17670
 H2184 H 0.44709 0.58940 1.18599
 O2185 O 0.38115 0.51103 1.08554
 O2186 O 0.35217 0.50894 1.11314
 C2187 C 0.36096 0.51808 1.09397
 C2188 C 0.34785 0.53752 1.08173
 C2189 C 0.32481 0.54444 1.09003
 H2190 H 0.31623 0.53502 1.10493
 O2191 O 0.61667 0.46492 1.08367
 O2192 O 0.64531 0.46357 1.11117
 C2193 C 0.63683 0.45692 1.09104
 C2194 C 0.65086 0.43983 1.07628
 C2195 C 0.67462 0.43417 1.08291
 H2196 H 0.68257 0.44263 1.09847
 O2197 O 0.58865 0.37804 1.01040
 O2198 O 0.61773 0.35120 1.00931
 C2199 C 0.59776 0.35879 1.01801
 C2200 C 0.58604 0.34586 1.03828
 C2201 C 0.59834 0.32684 1.04902
 H2202 H 0.61541 0.32070 1.04147
 O2203 O 0.41195 0.61203 1.02898
 O2204 O 0.38268 0.63860 1.03140
 C2205 C 0.40277 0.63025 1.03880
 C2206 C 0.41546 0.64188 1.05908
 C2207 C 0.40737 0.66384 1.06756
 H2208 H 0.39203 0.67231 1.05890
 O2209 O 0.41428 0.46385 1.11697
 O2210 O 0.38552 0.46175 1.14477
 C2211 C 0.40545 0.45440 1.13593
 C2212 C 0.41815 0.43412 1.14725
 C2213 C 0.41042 0.42494 1.16960
 H2214 H 0.39560 0.43359 1.17880
 O2215 O 0.58373 0.50894 1.12016
 O2216 O 0.61244 0.50746 1.14760
 C2217 C 0.59270 0.51623 1.13975
 C2218 C 0.58084 0.53585 1.15302
 C2219 C 0.59083 0.54385 1.17466
 H2220 H 0.60635 0.53478 1.18230
 O2221 O 0.47775 0.37094 1.07689
 O2222 O 0.47781 0.34040 1.10198
 C2223 C 0.46975 0.35061 1.08326
 C2224 C 0.45044 0.33905 1.06908
 C2225 C 0.44299 0.31567 1.07437
 H2226 H 0.45251 0.30573 1.08807
 O2227 O 0.52395 0.61016 1.09188
 O2228 O 0.52355 0.63569 1.12174
 C2229 C 0.53237 0.62866 1.10183
 C2230 C 0.55326 0.64157 1.09069
 C2231 C 0.56266 0.66204 1.10150
 H2232 H 0.55381 0.66903 1.11742
 O2233 O 0.38240 0.40826 1.01529
 O2234 O 0.35373 0.38085 1.01335
 C2235 C 0.36251 0.39937 1.02293
 C2236 C 0.34965 0.41018 1.04354
 C2237 C 0.32688 0.40134 1.05075
 H2238 H 0.31843 0.38722 1.04059
 O2239 O 0.62107 0.57963 1.02778
 O2240 O 0.65091 0.60573 1.03013
 C2241 C 0.64112 0.58623 1.03677
 C2242 C 0.65293 0.57152 1.05561
 C2243 C 0.67605 0.57787 1.06411
 H2244 H 0.68556 0.59264 1.05574
 O2245 O 0.52323 0.57532 1.12266
 O2246 O 0.52319 0.60074 1.15263
 C2247 C 0.53150 0.58209 1.14278
 C2248 C 0.55144 0.56843 1.15437
 C2249 C 0.56202 0.57632 1.17589
 H2250 H 0.55481 0.59190 1.18467
 O2251 O 0.47676 0.40117 1.11192
 O2252 O 0.47624 0.37085 1.13730
 C2253 C 0.46821 0.39100 1.13063
 C2254 C 0.44858 0.40279 1.14447
 C2255 C 0.44064 0.39378 1.16683
 H2256 H 0.44928 0.37813 1.17431
 O2257 O 0.61835 0.51115 1.08815
 O2258 O 0.64694 0.50938 1.11571
 C2259 C 0.63830 0.51871 1.09673
 C2260 C 0.65147 0.53878 1.08487
 C2261 C 0.67458 0.54556 1.09307
 H2262 H 0.68296 0.53573 1.10764
 O2263 O 0.38124 0.46499 1.08408
 O2264 O 0.35231 0.46280 1.11171
 C2265 C 0.36136 0.45608 1.09179
 C2266 C 0.34900 0.43747 1.07750
 C2267 C 0.32617 0.42822 1.08458
 H2268 H 0.31718 0.43542 1.10025
 O2269 O 0.59003 0.61410 1.03037
 O2270 O 0.61968 0.64038 1.03311
 C2271 C 0.59929 0.63220 1.04036
 C2272 C 0.58629 0.64331 1.06093
 C2273 C 0.59549 0.66382 1.07213
 H2274 H 0.61211 0.67179 1.06533
 O2275 O 0.41514 0.37551 1.01280
 O2276 O 0.38653 0.34801 1.01115
 C2277 C 0.40642 0.35565 1.01968
 C2278 C 0.41938 0.34157 1.03807
 C2279 C 0.41209 0.31823 1.04361
 H2280 H 0.39716 0.31022 1.03392
 O2281 O 0.58636 0.46228 1.12001
 O2282 O 0.61480 0.46071 1.14768
 C2283 C 0.59507 0.45293 1.13905
 C2284 C 0.58220 0.43238 1.15048
 C2285 C 0.58928 0.42247 1.17285
 H2286 H 0.60406 0.43061 1.18254
 O2287 O 0.41326 0.51034 1.11938
 O2288 O 0.38448 0.50834 1.14716
 C2289 C 0.40417 0.51742 1.13915
 C2290 C 0.41634 0.53683 1.15254
 C2291 C 0.40752 0.54405 1.17516
 H2292 H 0.39208 0.53492 1.18323
 O2293 O 0.47611 0.61054 1.09217
 O2294 O 0.47560 0.63616 1.12195
 C2295 C 0.46740 0.62906 1.10190
 C2296 C 0.44705 0.64178 1.08991
 C2297 C 0.43849 0.66389 1.09830
 H2298 H 0.44741 0.67223 1.11332
 O2299 O 0.52520 0.37342 1.07622
 O2300 O 0.52547 0.34326 1.10178
 C2301 C 0.53408 0.35383 1.08322
 C2302 C 0.55536 0.34374 1.07041
 C2303 C 0.56829 0.32500 1.08099
 H2304 H 0.56183 0.31711 1.09770
 O2305 O 0.62295 0.40925 1.01299
 O2306 O 0.65229 0.38274 1.01137
 C2307 C 0.64282 0.40094 1.02106
 C2308 C 0.65432 0.41237 1.04234
 C2309 C 0.67811 0.40645 1.04987
 H2310 H 0.68870 0.39374 1.03976
 O2311 O 0.38010 0.57817 1.02529
 O2312 O 0.35073 0.60462 1.02775
 C2313 C 0.35993 0.58489 1.03408
 C2314 C 0.34736 0.57006 1.05242
 C2315 C 0.32434 0.57667 1.06097
 H2316 H 0.31520 0.59172 1.05291
 Cu2317 Cu 0.50087 0.38950 1.09216
 Cu2318 Cu 0.50060 0.35302 1.12246
 Cu2319 Cu 0.49977 0.59034 1.10420
 Cu2320 Cu 0.49943 0.62083 1.14008
 Cu2321 Cu 0.40169 0.39630 0.99077
 Cu2322 Cu 0.36722 0.36334 0.98874
 Cu2323 Cu 0.60359 0.39768 0.98818
 Cu2324 Cu 0.63818 0.36536 0.98648
 Cu2325 Cu 0.39896 0.59516 1.00348
 Cu2326 Cu 0.36374 0.62692 1.00659
 Cu2327 Cu 0.60308 0.59656 1.00539
 Cu2328 Cu 0.63880 0.62791 1.00840
 Cu2329 Cu 0.40045 0.48773 1.09881
 Cu2330 Cu 0.36578 0.48530 1.13206
 Cu2331 Cu 0.59833 0.48687 1.10039
 Cu2332 Cu 0.63263 0.48503 1.13330
 C2333 C 0.56286 0.42194 1.13803
 H2334 H 0.55751 0.42915 1.12075
 C2335 C 0.57700 0.40229 1.18249
 C2336 C 0.43624 0.54903 1.14220
 H2337 H 0.44291 0.54389 1.12462
 C2338 C 0.41814 0.56325 1.18731
 C2339 C 0.35894 0.55029 1.06275
 H2340 H 0.37694 0.54537 1.05658
 C2341 C 0.31322 0.56423 1.08009
 C2342 C 0.64093 0.42911 1.05579
 H2343 H 0.62255 0.43353 1.05057
 C2344 C 0.68838 0.41762 1.07011
 C2345 C 0.56439 0.35417 1.04899
 H2346 H 0.55508 0.36924 1.04114
 C2347 C 0.59011 0.31703 1.07072
 C2348 C 0.43543 0.63109 1.07020
 H2349 H 0.44163 0.61402 1.06378
 C2350 C 0.41861 0.67511 1.08700
 C2351 C 0.43736 0.42309 1.13498
 H2352 H 0.44315 0.42997 1.11760
 C2353 C 0.42164 0.40475 1.17966
 C2354 C 0.56099 0.54811 1.14312
 H2355 H 0.55344 0.54223 1.12623
 C2356 C 0.58198 0.56424 1.18595
 C2357 C 0.43866 0.35177 1.05080
 H2358 H 0.44411 0.36991 1.04687
 C2359 C 0.42362 0.30518 1.06184
 C2360 C 0.56504 0.63254 1.07024
 H2361 H 0.55806 0.61654 1.06202
 C2362 C 0.58367 0.67337 1.09247
 C2363 C 0.36050 0.42836 1.05687
 H2364 H 0.37823 0.43505 1.05147
 C2365 C 0.31506 0.40994 1.07127
 C2366 C 0.64081 0.55182 1.06601
 H2367 H 0.62286 0.54698 1.05979
 C2368 C 0.68691 0.56516 1.08303
 C2369 C 1.10307 1.13795 1.24349
 C2370 C 1.10412 1.11568 1.23564
 C2371 C 1.09062 1.10847 1.21424
 C2372 C 1.09155 1.08604 1.20672
 H2373 H 1.11543 1.10273 1.24471
 H2374 H 1.08119 1.12195 1.20398
 H2375 H 1.09126 1.15069 1.23473
 H2376 H 1.10206 1.07328 1.21699
 C2377 C 1.11730 0.60122 0.75809
 C2378 C 1.09610 0.60542 0.74708
 C2379 C 1.09005 0.59420 0.72402
 C2380 C 1.06851 0.59806 0.71343
 H2381 H 1.08300 0.61741 0.75498
 H2382 H 1.10377 0.58330 0.71562
 H2383 H 1.13013 0.58888 0.75025
 H2384 H 1.05572 0.60989 0.72212
 C2385 C 0.63839 1.11498 0.73875
 C2386 C 0.61520 1.10975 0.73407
 C2387 C 0.60919 1.09311 0.71444
 C2388 C 0.58610 1.08778 0.70954
 H2389 H 0.60068 1.11784 0.74438
 H2390 H 0.62361 1.08656 0.70290
 H2391 H 0.65245 1.10601 0.72851
 H2392 H 0.57190 1.09549 0.72062
 C2393 C 0.61347 0.62669 1.23854
 C2394 C 0.61188 0.60361 1.23349
 C2395 C 0.59665 0.59568 1.21331
 C2396 C 0.59479 0.57272 1.20767
 H2397 H 0.62176 0.59067 1.24410
 H2398 H 0.58778 0.60899 1.20231
 H2399 H 0.60305 0.63929 1.22799
 H2400 H 0.60485 0.55981 1.21818
 C2401 C 0.87744 0.86589 1.24398
 C2402 C 0.88123 0.88915 1.24093
 C2403 C 0.89719 0.89748 1.22115
 C2404 C 0.90098 0.92057 1.21697
 H2405 H 0.87256 0.90195 1.25263
 H2406 H 0.90478 0.88445 1.20900
 H2407 H 0.88677 0.85365 1.23210
 H2408 H 0.89214 0.93345 1.22848
 C2409 C 0.89297 0.36524 0.75126
 C2410 C 0.88736 0.38487 0.73880
 C2411 C 0.90195 0.39240 0.71765
 C2412 C 0.89607 0.41208 0.70538
 H2413 H 0.87163 0.39531 0.74378
 H2414 H 0.91684 0.38127 0.71192
 H2415 H 0.90900 0.35528 0.74608
 H2416 H 0.88075 0.42235 0.71188
 C2417 C 0.38753 0.85913 0.73975
 C2418 C 0.39174 0.88186 0.73419
 C2419 C 0.40487 0.88852 0.71206
 C2420 C 0.40632 0.91129 0.70532
 H2421 H 0.38487 0.89581 0.74565
 H2422 H 0.41189 0.87467 0.70052
 H2423 H 0.39467 0.84524 0.72832
 H2424 H 0.39780 0.92468 0.71647
 C2425 C 0.37290 0.39709 1.25525
 C2426 C 0.39068 0.38993 1.24033
 C2427 C 0.39638 0.40239 1.21757
 C2428 C 0.41413 0.39419 1.20318
 H2429 H 0.40139 0.37443 1.24468
 H2430 H 0.38593 0.41794 1.21292
 H2431 H 0.36235 0.41268 1.25062
 H2432 H 0.42389 0.37847 1.20901
 C2433 C 0.88346 1.13261 0.76194
 C2434 C 0.88720 1.10973 0.76705
 C2435 C 0.90236 1.10299 0.78790
 C2436 C 0.90486 1.08028 0.79449
 H2437 H 0.87897 1.09607 0.75612
 H2438 H 0.91032 1.11684 0.79880
 H2439 H 0.89219 1.14595 0.77293
 H2440 H 0.89561 1.06675 0.78416
 C2441 C 0.89037 0.57867 0.22998
 C2442 C 0.91027 0.58337 0.24271
 C2443 C 0.91432 0.57225 0.26635
 C2444 C 0.93357 0.57861 0.27940
 H2445 H 0.92330 0.59644 0.23623
 H2446 H 0.90067 0.56017 0.27343
 H2447 H 0.87756 0.56530 0.23632
 H2448 H 0.94624 0.59146 0.27172
 C2449 C 0.38331 1.08504 0.23419
 C2450 C 0.39807 1.09397 0.25087
 C2451 C 0.40318 1.08125 0.27356
 C2452 C 0.41828 1.09098 0.28955
 H2453 H 0.40670 1.11106 0.24786
 H2454 H 0.39494 1.06404 0.27676
 H2455 H 0.37460 1.06797 0.23726
 H2456 H 0.42652 1.10799 0.28500
 C2457 C 0.36267 0.61815 0.76937
 C2458 C 0.38630 0.61501 0.77345
 C2459 C 0.39452 0.60098 0.79411
 C2460 C 0.41802 0.60057 0.79989
 H2461 H 0.39983 0.62330 0.76186
 H2462 H 0.38111 0.59213 0.80545
 H2463 H 0.34927 0.60978 0.78110
 H2464 H 0.43096 0.61086 0.78926
 C2465 C 1.12808 0.89474 0.74995
 C2466 C 1.10718 0.89195 0.76208
 C2467 C 1.10165 0.90557 0.78391
 C2468 C 1.08053 0.90199 0.79555
 H2469 H 1.09393 0.87904 0.75612
 H2470 H 1.11532 0.91753 0.79078
 H2471 H 1.14108 0.90811 0.75549
 H2472 H 1.06783 0.88923 0.78817
 C2473 C 1.11701 0.36915 0.26284
 C2474 C 1.11764 0.39191 0.26935
 C2475 C 1.10682 0.39928 0.29224
 C2476 C 1.10679 0.42206 0.29882
 H2477 H 1.12593 0.40526 0.25777
 H2478 H 1.09909 0.38570 0.30394
 H2479 H 1.10853 0.35602 0.27459
 H2480 H 1.11589 0.43520 0.28753
 C2481 C 0.60602 0.85883 0.25939
 C2482 C 0.60945 0.88059 0.26825
 C2483 C 0.59481 0.88955 0.28843
 C2484 C 0.59861 0.91152 0.29676
 H2485 H 0.62361 0.89196 0.26085
 H2486 H 0.58195 0.87760 0.29705
 H2487 H 0.59132 0.84776 0.26622
 H2488 H 0.61237 0.92249 0.28800
 C2489 C 0.59272 0.38128 0.73589
 C2490 C 0.59612 0.40219 0.74664
 C2491 C 0.58543 0.40690 0.77049
 C2492 C 0.58853 0.42794 0.78115
 H2493 H 0.60693 0.41593 0.73794
 H2494 H 0.57561 0.39267 0.77948
 H2495 H 0.58160 0.36778 0.74465
 H2496 H 0.59941 0.44140 0.77200
 C2497 C 1.26856 1.11388 1.08190
 C2498 C 1.25466 1.09485 1.08638
 C2499 C 1.23053 1.09188 1.07543
 C2500 C 1.21724 1.07264 1.08097
 H2501 H 1.26094 1.08126 1.09873
 H2502 H 1.22350 1.10577 1.06388
 H2503 H 1.26253 1.12727 1.06918
 H2504 H 1.22501 1.05964 1.09319
 C2505 C 1.22854 0.63288 0.64639
 C2506 C 1.22556 0.62422 0.62434
 C2507 C 1.20400 0.60968 0.61864
 C2508 C 1.19995 0.60275 0.59614
 H2509 H 1.23903 0.62782 0.61044
 H2510 H 1.19063 0.60585 0.63259
 H2511 H 1.21523 0.62864 0.66028
 H2512 H 1.21270 0.60801 0.58208
 C2513 C 0.75956 1.12624 0.60524
 C2514 C 0.74246 1.11083 0.61248
 C2515 C 0.72217 1.10407 0.59647
 C2516 C 0.70528 1.08860 0.60420
 H2517 H 0.74317 1.10337 0.63050
 H2518 H 0.72143 1.11139 0.57842
 H2519 H 0.75842 1.13392 0.58733
 H2520 H 0.70729 1.08127 0.62219
 C2521 C 0.75586 0.61939 1.09916
 C2522 C 0.74519 0.59807 1.10140
 C2523 C 0.72146 0.59306 1.09037
 C2524 C 0.71112 0.57156 1.09277
 H2525 H 0.75393 0.58405 1.11154
 H2526 H 0.71232 0.60728 1.08092
 H2527 H 0.74713 0.63324 1.08872
 H2528 H 0.72047 0.55814 1.10328
 C2529 C 1.24890 0.88816 0.87121
 C2530 C 1.23717 0.88586 0.89222
 C2531 C 1.21500 0.89984 0.89727
 C2532 C 1.20397 0.89823 0.91875
 H2533 H 1.24393 0.87368 0.90577
 H2534 H 1.20750 0.91082 0.88311
 H2535 H 1.24225 0.90081 0.85803
 H2536 H 1.21193 0.88652 0.93211
 C2537 C 1.26385 0.37630 0.41437
 C2538 C 1.25053 0.39577 0.41015
 C2539 C 1.22902 0.40197 0.42499
 C2540 C 1.21724 0.42230 0.42044
 H2541 H 1.25526 0.40743 0.39523
 H2542 H 1.22259 0.38964 0.43865
 H2543 H 1.25929 0.36511 0.42973
 H2544 H 1.22464 0.43373 0.40635
 C2545 C 0.75401 0.86364 0.39943
 C2546 C 0.74475 0.88544 0.39805
 C2547 C 0.72363 0.89212 0.41301
 C2548 C 0.71464 0.91408 0.41163
 H2549 H 0.75228 0.89822 0.38532
 H2550 H 0.71470 0.87860 0.42386
 H2551 H 0.74672 0.85118 0.41263
 H2552 H 0.72384 0.92682 0.39994
 C2553 C 0.73610 0.36108 0.87247
 C2554 C 0.73235 0.38430 0.87522
 C2555 C 0.71185 0.39251 0.89013
 C2556 C 0.70737 0.41562 0.89300
 H2557 H 0.74446 0.39717 0.86680
 H2558 H 0.69979 0.37937 0.89819
 H2559 H 0.72405 0.34849 0.88144
 H2560 H 0.71877 0.42854 0.88369
 C2561 C 0.75496 0.89274 1.14828
 C2562 C 0.75959 0.90060 1.12603
 C2563 C 0.78081 0.91589 1.12073
 C2564 C 0.78601 0.92186 1.09800
 H2565 H 0.74810 0.89501 1.11134
 H2566 H 0.79338 0.92026 1.13498
 H2567 H 0.76595 0.89893 1.16309
 H2568 H 0.77386 0.91606 1.08390
 C2569 C 0.73221 0.41236 0.60721
 C2570 C 0.74689 0.40551 0.58932
 C2571 C 0.77065 0.41685 0.58528
 C2572 C 0.78551 0.40901 0.56789
 H2573 H 0.74175 0.39090 0.57786
 H2574 H 0.77588 0.43098 0.59720
 H2575 H 0.73734 0.42718 0.61844
 H2576 H 0.77917 0.39462 0.55666
 C2577 C 0.23622 0.86586 0.59212
 C2578 C 0.25309 0.88153 0.59890
 C2579 C 0.27379 0.88872 0.58338
 C2580 C 0.28924 0.90521 0.59144
 H2581 H 0.25171 0.88951 0.61651
 H2582 H 0.27604 0.88087 0.56580
 H2583 H 0.23739 0.85788 0.57447
 H2584 H 0.28552 0.91276 0.60900
 C2585 C 0.24717 0.38943 1.12609
 C2586 C 0.25847 0.38674 1.10502
 C2587 C 0.28114 0.39989 1.09970
 C2588 C 0.29136 0.39889 1.07788
 H2589 H 0.25092 0.37499 1.09162
 H2590 H 0.28967 0.40976 1.11399
 H2591 H 0.25446 0.40186 1.13901
 H2592 H 0.28244 0.38826 1.06431
 C2593 C 0.76522 1.11285 0.86213
 C2594 C 0.76736 1.10755 0.88545
 C2595 C 0.78737 1.09278 0.89418
 C2596 C 0.79101 1.09023 0.91777
 H2597 H 0.75459 1.11463 0.89844
 H2598 H 0.80013 1.08541 0.88132
 H2599 H 0.77782 1.10540 0.84916
 H2600 H 0.77896 1.09908 0.93034
 C2601 C 0.74279 0.62048 0.38825
 C2602 C 0.75810 0.60368 0.38055
 C2603 C 0.77863 0.59581 0.39574
 C2604 C 0.79509 0.58020 0.38760
 H2605 H 0.75593 0.59617 0.36281
 H2606 H 0.78009 0.60313 0.41358
 H2607 H 0.74551 0.62811 0.40589
 H2608 H 0.79249 0.57300 0.36975
 C2609 C 0.24938 1.11000 0.36265
 C2610 C 0.26005 1.11016 0.38412
 C2611 C 0.28144 1.09502 0.38918
 C2612 C 0.29127 1.09505 0.41109
 H2613 H 0.25320 1.12178 0.39804
 H2614 H 0.28971 1.08498 0.37476
 H2615 H 0.25596 1.09788 0.34903
 H2616 H 0.28262 1.10591 0.42473
 C2617 C 0.24204 0.62895 0.90631
 C2618 C 0.25474 0.60904 0.90291
 C2619 C 0.27757 0.60419 0.91602
 C2620 C 0.28959 0.58396 0.91195
 H2621 H 0.24842 0.59616 0.88997
 H2622 H 0.28481 0.61746 0.92801
 H2623 H 0.24813 0.64162 0.91957
 H2624 H 0.28170 0.57159 0.89928
 C2625 C 1.12044 1.23887 1.13034
 C2626 C 1.11761 1.23305 1.10730
 C2627 C 1.10379 1.21150 1.10099
 C2628 C 1.10212 1.20439 1.07819
 H2629 H 1.12541 1.24409 1.09315
 H2630 H 1.09576 1.20083 1.11531
 H2631 H 1.11234 1.22767 1.14422
 H2632 H 1.11147 1.21454 1.06424
 C2633 C 1.08002 0.75445 0.63296
 C2634 C 1.07684 0.74699 0.61050
 C2635 C 1.06399 0.72463 0.60546
 C2636 C 1.06446 0.71595 0.58319
 H2637 H 1.08519 0.75666 0.59564
 H2638 H 1.05647 0.71422 0.62024
 H2639 H 1.07131 0.74504 0.64780
 H2640 H 1.07338 0.72626 0.56907
 C2641 C 0.62113 1.25740 0.59011
 C2642 C 0.60263 1.24313 0.59603
 C2643 C 0.59929 1.22009 0.58419
 C2644 C 0.58009 1.20657 0.58998
 H2645 H 0.58978 1.24839 0.60984
 H2646 H 0.61283 1.21424 0.57137
 H2647 H 0.63365 1.25228 0.57593
 H2648 H 0.56735 1.21333 0.60324
 C2649 C 0.63417 0.74551 1.10708
 C2650 C 0.61770 0.72919 1.11395
 C2651 C 0.61018 0.70945 1.09824
 C2652 C 0.59305 0.69414 1.10599
 H2653 H 0.60942 0.73028 1.13163
 H2654 H 0.61844 0.70778 1.08062
 H2655 H 0.64236 0.74454 1.08933
 H2656 H 0.58497 0.69718 1.12357
 C2657 C 0.86215 1.23100 0.88691
 C2658 C 0.88553 1.22624 0.89074
 C2659 C 0.89272 1.20596 0.90583
 C2660 C 0.91611 1.20002 0.90761
 H2661 H 0.89958 1.23697 0.88221
 H2662 H 0.87873 1.19495 0.91410
 H2663 H 0.84820 1.22041 0.89581
 H2664 H 0.92965 1.21052 0.89797
 C2665 C 0.88014 0.72645 0.35329
 C2666 C 0.88689 0.72369 0.37613
 C2667 C 0.90213 0.70382 0.38381
 C2668 C 0.90513 0.69967 0.40725
 H2669 H 0.88041 0.73587 0.38972
 H2670 H 0.90908 0.69151 0.37055
 H2671 H 0.88719 0.71479 0.33950
 H2672 H 0.89657 0.71130 0.42025
 C2673 C 0.40780 1.25285 0.37371
 C2674 C 0.40845 1.24249 0.39532
 C2675 C 0.42111 1.21977 0.39908
 C2676 C 0.42076 1.20961 0.42083
 H2677 H 0.39896 1.25050 0.41034
 H2678 H 0.42905 1.21070 0.38382
 H2679 H 0.41790 1.24522 0.35886
 H2680 H 0.41173 1.21888 0.43541
 C2681 C 0.37679 0.73776 0.87409
 C2682 C 0.38424 0.73513 0.89675
 C2683 C 0.40010 0.71499 0.90323
 C2684 C 0.40523 0.71000 0.92614
 H2685 H 0.37864 0.74763 0.91041
 H2686 H 0.40644 0.70320 0.88920
 H2687 H 0.38283 0.72514 0.86069
 H2688 H 0.39742 0.72088 0.94021
 C2689 C 1.08646 0.74202 0.88181
 C2690 C 1.08955 0.75343 0.90247
 C2691 C 1.07634 0.77548 0.90774
 C2692 C 1.07921 0.78589 0.92903
 H2693 H 1.10241 0.74672 0.91553
 H2694 H 1.06565 0.78367 0.89371
 H2695 H 1.07295 0.74818 0.86913
 H2696 H 1.09063 0.77713 0.94221
 C2697 C 1.13336 0.26983 0.37302
 C2698 C 1.12980 0.27471 0.39620
 C2699 C 1.11672 0.29662 0.40277
 C2700 C 1.11113 0.30151 0.42559
 H2701 H 1.13497 0.26204 0.41001
 H2702 H 1.11148 0.30893 0.38864
 H2703 H 1.12706 0.28238 0.35955
 H2704 H 1.11754 0.28982 0.43976
 C2705 C 0.61063 0.76054 0.36071
 C2706 C 0.60798 0.76660 0.38373
 C2707 C 0.59428 0.78801 0.39054
 C2708 C 0.59320 0.79468 0.41353
 H2709 H 0.61636 0.75599 0.39772
 H2710 H 0.58634 0.79898 0.37658
 H2711 H 0.60190 0.77106 0.34685
 H2712 H 0.60241 0.78393 0.42691
 C2713 C 0.62655 0.24301 0.88865
 C2714 C 0.61278 0.26071 0.88040
 C2715 C 0.60643 0.28110 0.89595
 C2716 C 0.59317 0.29897 0.88717
 H2717 H 0.60661 0.26046 0.86193
 H2718 H 0.61219 0.28118 0.91454
 H2719 H 0.63316 0.24380 0.90696
 H2720 H 0.58716 0.29773 0.86866
 C2721 C 0.90649 0.74041 1.12924
 C2722 C 0.89606 0.75879 1.11817
 C2723 C 0.90931 0.78116 1.11337
 C2724 C 0.89824 0.79858 1.10129
 H2725 H 0.87745 0.75727 1.11214
 H2726 H 0.92816 0.78281 1.11858
 H2727 H 0.92495 0.74207 1.13574
 H2728 H 0.87962 0.79571 1.09565
 C2729 C 0.89057 0.26373 0.63747
 C2730 C 0.89534 0.26819 0.61432
 C2731 C 0.90908 0.28945 0.60690
 C2732 C 0.91205 0.29463 0.58359
 H2733 H 0.88862 0.25639 0.60056
 H2734 H 0.91536 0.30159 0.62057
 H2735 H 0.89772 0.27538 0.65118
 H2736 H 0.90432 0.28283 0.57030
 C2737 C 0.38718 0.75218 0.63485
 C2738 C 0.38583 0.76138 0.61274
 C2739 C 0.40075 0.78226 0.60584
 C2740 C 0.40053 0.79058 0.58327
 H2741 H 0.37380 0.75346 0.59966
 H2742 H 0.41111 0.79126 0.61954
 H2743 H 0.39993 0.75975 0.64749
 H2744 H 0.38928 0.78147 0.57028
 C2745 C 0.41112 0.23419 1.11315
 C2746 C 0.40809 0.24552 1.09218
 C2747 C 0.41841 0.26936 1.08799
 C2748 C 0.41489 0.28072 1.06706
 H2749 H 0.39769 0.23734 1.07798
 H2750 H 0.42814 0.27779 1.10247
 H2751 H 0.42172 0.24245 1.12719
 H2752 H 0.40408 0.27206 1.05341
 C2753 C 1.12613 1.10129 0.73928
 C2754 C 1.11521 1.10705 0.76003
 C2755 C 1.10910 1.08875 0.77867
 C2756 C 1.09907 1.09544 0.79953
 H2757 H 1.11055 1.12542 0.76341
 H2758 H 1.11135 1.07005 0.77479
 H2759 H 1.13131 1.08292 0.73666
 H2760 H 1.09635 1.11431 0.80227
 C2761 C 1.13040 0.60566 0.24395
 C2762 C 1.12067 0.61385 0.26435
 C2763 C 1.11517 0.59779 0.28494
 C2764 C 1.10501 0.60660 0.30482
 H2765 H 1.11637 0.63255 0.26593
 H2766 H 1.11783 0.57881 0.28324
 H2767 H 1.13514 0.58700 0.24300
 H2768 H 1.10158 0.62556 0.30545
 C2769 C 0.60683 1.13196 0.25063
 C2770 C 0.60973 1.11043 0.26029
 C2771 C 0.59569 1.10387 0.28211
 C2772 C 0.59702 1.08212 0.29163
 H2773 H 0.62241 1.09791 0.25249
 H2774 H 0.58510 1.11745 0.29099
 H2775 H 0.59348 1.14369 0.25868
 H2776 H 0.60849 1.06916 0.28276
 C2777 C 0.59721 0.63969 0.74981
 C2778 C 0.59310 0.61806 0.75897
 C2779 C 0.58214 0.61430 0.78294
 C2780 C 0.58120 0.59227 0.79201
 H2781 H 0.59891 0.60260 0.74900
 H2782 H 0.57679 0.62941 0.79367
 H2783 H 0.59087 0.65526 0.75929
 H2784 H 0.58787 0.57779 0.78103
 C2785 C 0.91232 0.87857 0.74534
 C2786 C 0.90136 0.88947 0.76366
 C2787 C 0.91452 0.89640 0.78545
 C2788 C 0.90286 0.90867 0.80245
 H2789 H 0.88221 0.89367 0.76266
 H2790 H 0.93363 0.89219 0.78711
 H2791 H 0.93145 0.87415 0.74643
 H2792 H 0.88401 0.91343 0.79949
 C2793 C 0.88438 0.40161 0.24069
 C2794 C 0.90229 0.39430 0.25532
 C2795 C 0.91038 0.40870 0.27595
 C2796 C 0.92766 0.40069 0.29096
 H2797 H 0.91098 0.37732 0.25250
 H2798 H 0.90185 0.42572 0.27863
 H2799 H 0.87596 0.41869 0.24388
 H2800 H 0.93603 0.38373 0.28701
 C2801 C 0.37116 0.89957 0.24647
 C2802 C 0.39165 0.89778 0.25909
 C2803 C 0.39625 0.91266 0.28035
 C2804 C 0.41779 0.91123 0.29120
 H2805 H 0.40530 0.88492 0.25397
 H2806 H 0.38182 0.92356 0.28758
 H2807 H 0.35800 0.91303 0.25137
 H2808 H 0.43139 0.89971 0.28324
 C2809 C 0.39943 0.37247 0.74156
 C2810 C 0.39587 0.39316 0.75273
 C2811 C 0.40976 0.39934 0.77453
 C2812 C 0.40670 0.42037 0.78528
 H2813 H 0.38256 0.40559 0.74590
 H2814 H 0.42191 0.38619 0.78196
 H2815 H 0.41310 0.36037 0.74833
 H2816 H 0.39383 0.43270 0.77741
 C2817 C 1.08060 0.88123 1.26717
 C2818 C 1.08432 0.90140 1.25484
 C2819 C 1.07381 0.90538 1.23098
 C2820 C 1.07972 0.92500 1.21847
 H2821 H 1.09617 0.91499 1.26195
 H2822 H 1.06256 0.89161 1.22334
 H2823 H 1.06828 0.86784 1.26037
 H2824 H 1.09197 0.93775 1.22656
 C2825 C 1.11891 0.41021 0.76078
 C2826 C 1.09755 0.40889 0.74973
 C2827 C 1.09279 0.42281 0.72771
 C2828 C 1.07122 0.42106 0.71701
 H2829 H 1.08360 0.39692 0.75657
 H2830 H 1.10741 0.43305 0.71954
 H2831 H 1.13256 0.42271 0.75433
 H2832 H 1.05740 0.40991 0.72544
 C2833 C 0.63399 0.88531 0.73786
 C2834 C 0.61068 0.88923 0.73281
 C2835 C 0.60386 0.90318 0.71148
 C2836 C 0.58056 0.90518 0.70528
 H2837 H 0.59646 0.88177 0.74418
 H2838 H 0.61806 0.91059 0.70004
 H2839 H 0.64808 0.89309 0.72651
 H2840 H 0.56676 0.89637 0.71622
 C2841 C 0.62570 0.38719 1.25611
 C2842 C 0.60646 0.38209 1.24246
 C2843 C 0.60238 0.39523 1.21954
 C2844 C 0.58284 0.39072 1.20606
 H2845 H 0.59357 0.36855 1.24821
 H2846 H 0.61560 0.40840 1.21378
 H2847 H 0.63802 0.40109 1.24993
 H2848 H 0.57036 0.37709 1.21250
 C2849 C 0.87360 1.11086 1.25678
 C2850 C 0.89351 1.11476 1.24349
 C2851 C 0.89842 1.10056 1.22179
 C2852 C 0.91909 1.10373 1.20936
 H2853 H 0.90631 1.12847 1.24861
 H2854 H 0.88477 1.08807 1.21591
 H2855 H 0.86121 1.09672 1.25182
 H2856 H 0.93192 1.11682 1.21590
 C2857 C 0.87107 0.63795 0.73856
 C2858 C 0.87069 0.61515 0.73213
 C2859 C 0.88432 0.60774 0.71045
 C2860 C 0.88470 0.58516 0.70316
 H2861 H 0.86068 0.60215 0.74276
 H2862 H 0.89371 0.62129 0.69998
 H2863 H 0.88149 0.65050 0.72770
 H2864 H 0.87414 0.57205 0.71315
 C2865 C 0.35980 1.09944 0.74256
 C2866 C 0.38262 1.09530 0.73561
 C2867 C 0.38830 1.08120 0.71416
 C2868 C 0.41142 1.07909 0.70709
 H2869 H 0.39752 1.10327 0.74538
 H2870 H 0.37364 1.07450 0.70317
 H2871 H 0.34481 1.09085 0.73348
 H2872 H 0.42551 1.08705 0.71802
 C2873 C 0.40403 0.61866 1.25475
 C2874 C 0.40022 0.59749 1.24459
 C2875 C 0.41143 0.59157 1.22118
 C2876 C 0.40783 0.57029 1.21105
 H2877 H 0.38871 0.58440 1.25346
 H2878 H 0.42218 0.60509 1.21212
 H2879 H 0.41571 0.63155 1.24575
 H2880 H 0.39607 0.55760 1.22025
 C2881 C 1.09465 1.25228 0.86810
 C2882 C 1.10135 1.23671 0.88516
 C2883 C 1.08781 1.21443 0.89028
 C2884 C 1.09584 1.19990 0.90770
 H2885 H 1.11734 1.24024 0.89580
 H2886 H 1.07177 1.21023 0.88000
 H2887 H 1.07859 1.24859 0.85755
 H2888 H 1.11201 1.20540 0.91729
 C2889 C 1.11857 0.76547 0.41538
 C2890 C 1.09890 0.75205 0.41136
 C2891 C 1.09494 0.72901 0.42356
 C2892 C 1.07519 0.71619 0.41821
 H2893 H 1.08555 0.75769 0.39831
 H2894 H 1.10864 0.72227 0.43567
 H2895 H 1.13150 0.75988 0.42890
 H2896 H 1.06244 0.72366 0.40543
 C2897 C 0.61564 1.26230 0.40937
 C2898 C 0.60828 1.24213 0.39922
 C2899 C 0.60438 1.22037 0.41399
 C2900 C 0.59663 1.20046 0.40365
 H2901 H 0.60475 1.24163 0.38007
 H2902 H 0.60623 1.22111 0.43337
 H2903 H 0.61958 1.26209 0.42848
 H2904 H 0.59398 1.20067 0.38432
 C2905 C 0.60157 0.76099 0.88339
 C2906 C 0.60918 0.74574 0.90024
 C2907 C 0.59379 0.72536 0.90786
 C2908 C 0.60213 0.70920 0.92353
 H2909 H 0.62714 0.74775 0.90786
 H2910 H 0.57582 0.72367 0.90030
 H2911 H 0.58374 0.75848 0.87559
 H2912 H 0.62009 0.71205 0.93094
 C2913 C 0.91272 1.25667 1.12671
 C2914 C 0.91236 1.24721 1.10477
 C2915 C 0.92428 1.22448 1.09960
 C2916 C 0.92121 1.21433 1.07817
 H2917 H 0.90218 1.25576 1.09054
 H2918 H 0.93387 1.21537 1.11387
 H2919 H 0.92328 1.24837 1.14083
 H2920 H 0.91040 1.22352 1.06478
 C2921 C 0.89824 0.75858 0.60683
 C2922 C 0.88583 0.74156 0.59558
 C2923 C 0.89816 0.71911 0.58936
 C2924 C 0.88651 0.70128 0.57858
 H2925 H 0.86672 0.74387 0.59160
 H2926 H 0.91728 0.71737 0.59346
 H2927 H 0.91723 0.75561 0.61106
 H2928 H 0.86771 0.70377 0.57349
 C2929 C 0.36641 1.24235 0.60530
 C2930 C 0.38914 1.23436 0.60282
 C2931 C 0.39431 1.21233 0.58954
 C2932 C 0.41684 1.20356 0.58915
 H2933 H 0.40411 1.24363 0.61120
 H2934 H 0.37947 1.20262 0.58147
 H2935 H 0.35175 1.23286 0.59659
 H2936 H 0.43103 1.21316 0.59848
 C2937 C 0.40496 0.74716 1.13753
 C2938 C 0.40093 0.73352 1.11827
 C2939 C 0.41401 0.71100 1.11383
 C2940 C 0.40853 0.69855 1.09411
 H2941 H 0.38738 0.73881 1.10528
 H2942 H 0.42724 0.70467 1.12664
 H2943 H 0.41871 0.74186 1.15034
 H2944 H 0.39486 0.70592 1.08225
 C2945 C 0.88367 0.76868 0.86765
 C2946 C 0.88241 0.77497 0.89073
 C2947 C 0.89760 0.79431 0.89990
 C2948 C 0.89659 0.80039 0.92309
 H2949 H 0.86994 0.76600 0.90297
 H2950 H 0.90873 0.80426 0.88720
 H2951 H 0.89670 0.77727 0.85569
 H2952 H 0.88430 0.79082 0.93508
 C2953 C 0.87374 0.26724 0.37293
 C2954 C 0.89668 0.27001 0.37999
 C2955 C 0.90352 0.29051 0.39485
 C2956 C 0.92650 0.29398 0.40150
 H2957 H 0.91029 0.25690 0.37537
 H2958 H 0.88971 0.30335 0.39967
 H2959 H 0.86021 0.28015 0.37832
 H2960 H 0.94041 0.28181 0.39534
 C2961 C 0.37036 0.74831 0.39337
 C2962 C 0.39207 0.75901 0.39372
 C2963 C 0.39588 0.78123 0.40710
 C2964 C 0.41791 0.79128 0.40727
 H2965 H 0.40726 0.75156 0.38386
 H2966 H 0.38053 0.78979 0.41566
 H2967 H 0.35555 0.75578 0.40380
 H2968 H 0.43255 0.78242 0.39775
 C2969 C 0.40478 0.24761 0.85632
 C2970 C 0.40565 0.25721 0.87819
 C2971 C 0.41765 0.28024 0.88257
 C2972 C 0.41627 0.28981 0.90447
 H2973 H 0.39666 0.24833 0.89317
 H2974 H 0.42612 0.28982 0.86773
 H2975 H 0.41409 0.25627 0.84138
 H2976 H 0.40669 0.27995 0.91850
 C2977 C 1.13294 0.75835 1.12023
 C2978 C 1.11050 0.76718 1.12191
 C2979 C 1.10358 0.78792 1.10696
 C2980 C 1.08089 0.79626 1.10734
 H2981 H 1.09725 0.75923 1.13409
 H2982 H 1.11748 0.79684 1.09631
 H2983 H 1.14549 0.76642 1.10738
 H2984 H 1.06765 0.78736 1.11889
 C2985 C 1.13883 0.26474 0.62729
 C2986 C 1.11616 0.27269 0.62450
 C2987 C 1.11148 0.29400 0.60924
 C2988 C 1.08877 0.30130 0.60524
 H2989 H 1.10107 0.26352 0.63318
 H2990 H 1.12669 0.30421 0.60217
 H2991 H 1.15335 0.27400 0.61773
 H2992 H 1.07403 0.29105 0.61328
 C2993 C 0.62790 0.74257 0.59254
 C2994 C 0.61327 0.75949 0.60089
 C2995 C 0.60549 0.77959 0.58584
 C2996 C 0.58936 0.79491 0.59475
 H2997 H 0.60651 0.75848 0.61922
 H2998 H 0.61246 0.78141 0.56765
 H2999 H 0.63447 0.74342 0.57412
 H3000 H 0.58215 0.79167 0.61272
 C3001 C 0.62397 0.27989 1.14241
 C3002 C 0.62491 0.28329 1.11869
 C3003 C 0.60836 0.29995 1.10698
 C3004 C 0.60576 0.29982 1.08315
 H3005 H 0.63656 0.27230 1.10760
 H3006 H 0.59823 0.31233 1.11798
 H3007 H 0.61095 0.28956 1.15326
 H3008 H 0.61687 0.28806 1.07233
 C3009 C 1.25890 1.12525 0.89903
 C3010 C 1.24378 1.10805 0.89195
 C3011 C 1.22472 1.09821 0.90789
 C3012 C 1.21005 1.08098 0.89989
 H3013 H 1.24520 1.10113 0.87388
 H3014 H 1.22269 1.10538 0.92577
 H3015 H 1.25798 1.13172 0.91733
 H3016 H 1.21351 1.07391 0.88208
 C3017 C 1.26375 0.59649 0.38737
 C3018 C 1.24712 0.60653 0.40165
 C3019 C 1.22662 0.59276 0.41161
 C3020 C 1.20928 0.60345 0.42458
 H3021 H 1.24812 0.62530 0.40560
 H3022 H 1.22565 0.57396 0.40782
 H3023 H 1.26276 0.57763 0.38369
 H3024 H 1.21149 0.62209 0.42891
 C3025 C 0.74878 1.13644 0.40121
 C3026 C 0.74426 1.11349 0.40538
 C3027 C 0.72225 1.10599 0.41838
 C3028 C 0.71575 1.08313 0.41897
 H3029 H 0.75621 1.10000 0.39819
 H3030 H 0.71036 1.11944 0.42576
 H3031 H 0.73673 1.14981 0.40851
 H3032 H 0.72714 1.07016 0.41002
 C3033 C 0.74639 0.63972 0.89550
 C3034 C 0.73943 0.61702 0.89637
 C3035 C 0.71853 0.60960 0.91152
 C3036 C 0.71087 0.58708 0.91149
 H3037 H 0.74867 0.60401 0.88537
 H3038 H 0.70837 0.62295 0.92125
 H3039 H 0.73727 0.65247 0.90694
 H3040 H 0.72077 0.57438 0.90064
 C3041 C 1.25472 0.86243 1.09903
 C3042 C 1.24237 0.88248 1.10295
 C3043 C 1.22011 0.88867 1.08973
 C3044 C 1.20881 0.90914 1.09464
 H3045 H 1.24863 0.89476 1.11648
 H3046 H 1.21287 0.87620 1.07693
 H3047 H 1.24901 0.85041 1.08501
 H3048 H 1.21692 0.92066 1.10797
 C3049 C 1.24062 0.37462 0.62595
 C3050 C 1.23541 0.39770 0.62401
 C3051 C 1.21340 0.40516 0.61102
 C3052 C 1.20680 0.42794 0.60946
 H3053 H 1.24741 0.41096 0.63155
 H3054 H 1.20212 0.39157 0.60301
 H3055 H 1.22835 0.36171 0.61816
 H3056 H 1.21736 0.44126 0.61878
 C3057 C 0.75407 0.89085 0.63452
 C3058 C 0.74488 0.89337 0.61251
 C3059 C 0.72195 0.90638 0.60842
 C3060 C 0.71355 0.90902 0.58609
 H3061 H 0.75449 0.88593 0.59724
 H3062 H 0.71146 0.91269 0.62365
 H3063 H 0.74493 0.89910 0.64963
 H3064 H 0.72406 0.90159 0.57137
 C3065 C 0.76029 0.36940 1.09155
 C3066 C 0.74796 0.38976 1.09176
 C3067 C 0.72507 0.39269 1.07817
 C3068 C 0.71346 0.41347 1.07883
 H3069 H 0.75459 0.40440 1.10246
 H3070 H 0.71704 0.37761 1.06915
 H3071 H 0.75408 0.35503 1.08024
 H3072 H 0.72181 0.42783 1.08879
 C3073 C 0.75301 1.14327 1.11521
 C3074 C 0.75885 1.12060 1.11161
 C3075 C 0.78097 1.11446 1.09773
 C3076 C 0.78800 1.09188 1.09587
 H3077 H 0.74764 1.10656 1.11931
 H3078 H 0.79238 1.12856 1.09045
 H3079 H 0.76425 1.15708 1.10711
 H3080 H 0.77692 1.07820 1.10444
 C3081 C 0.72977 0.58177 0.61834
 C3082 C 0.74021 0.58320 0.59660
 C3083 C 0.76323 0.57108 0.59124
 C3084 C 0.77412 0.57441 0.56986
 H3085 H 0.73243 0.59449 0.58283
 H3086 H 0.77189 0.56108 0.60546
 H3087 H 0.73721 0.57003 0.63194
 H3088 H 0.76502 0.58535 0.55655
 C3089 C 0.25940 1.13485 0.60893
 C3090 C 0.26174 1.11254 0.60141
 C3091 C 0.28325 1.10526 0.58761
 C3092 C 0.28755 1.08230 0.58380
 H3093 H 0.24820 1.09927 0.60617
 H3094 H 0.29654 1.11858 0.58219
 H3095 H 0.27307 1.14799 0.60406
 H3096 H 0.27490 1.06911 0.59086
 C3097 C 0.25908 0.62642 1.10862
 C3098 C 0.26308 0.60329 1.10561
 C3099 C 0.28480 0.59536 1.09260
 C3100 C 0.29019 0.57233 1.09096
 H3101 H 0.25064 0.59016 1.11304
 H3102 H 0.29716 0.60869 1.08535
 H3103 H 0.27173 0.63934 1.10106
 H3104 H 0.27848 0.55927 1.09968
 C3105 C 0.75751 0.88426 0.87025
 C3106 C 0.76081 0.88946 0.89336
 C3107 C 0.78133 0.90477 0.90047
 C3108 C 0.78562 0.90925 0.92360
 H3109 H 0.74855 0.88235 0.90699
 H3110 H 0.79385 0.91123 0.88674
 H3111 H 0.76962 0.89198 0.85680
 H3112 H 0.77365 0.90151 0.93717
 C3113 C 0.73618 0.39150 0.41298
 C3114 C 0.75604 0.39823 0.40080
 C3115 C 0.77922 0.40302 0.41281
 C3116 C 0.79800 0.41102 0.39973
 H3117 H 0.75538 0.40025 0.38143
 H3118 H 0.78063 0.40095 0.43215
 H3119 H 0.73692 0.38906 0.43233
 H3120 H 0.79557 0.41407 0.38060
 C3121 C 0.23634 0.91380 0.37557
 C3122 C 0.24841 0.91258 0.39620
 C3123 C 0.27222 0.92408 0.39916
 C3124 C 0.28376 0.92150 0.42002
 H3125 H 0.24098 0.90223 0.41106
 H3126 H 0.28085 0.93290 0.38394
 H3127 H 0.24319 0.92479 0.36090
 H3128 H 0.27466 0.91175 0.43444
 C3129 C 0.24611 0.36999 0.89950
 C3130 C 0.25758 0.39077 0.89610
 C3131 C 0.28098 0.39605 0.90762
 C3132 C 0.29188 0.41712 0.90390
 H3133 H 0.24980 0.40418 0.88444
 H3134 H 0.28936 0.38232 0.91839
 H3135 H 0.25370 0.35679 0.91157
 H3136 H 0.28300 0.42995 0.89228
   
