data_POSCAR
  _audit_creation_date              2014-09-24
  _audit_creation_method            'ToBaCCo'
  _symmetry_space_group_name_H-M    'P1'
  _symmetry_Int_Tables_number       1
  _symmetry_cell_setting            triclinic
  loop_
  _symmetry_equiv_pos_as_xyz
 x,y,z
_cell_length_a 65.3968
_cell_length_b 65.9293
_cell_length_c 60.1357
_cell_angle_alpha 91.077100
_cell_angle_beta 89.957100
_cell_angle_gamma 91.269000
loop_
  _atom_site_label
  _atom_site_type_symbol
  _atom_site_fract_x
  _atom_site_fract_y
  _atom_site_fract_z
C1 C 0.37273 0.01961 0.28573
 C2 C 0.35818 0.03646 0.27913
 C3 C 0.34577 0.03145 0.26158
 C4 C 0.34916 0.01002 0.25193
 C5 C 0.35882 0.00103 0.28936
 C6 C 0.34631 -0.00403 0.27196
 C7 C 0.38435 0.01482 0.26416
 C8 C 0.37220 0.00975 0.24641
 H9 H 0.35871 0.05162 0.28631
 H10 H 0.33898 0.00617 0.23766
 H11 H 0.35918 -0.00751 0.30455
 H12 H 0.40087 0.01559 0.26312
 C13 C 0.12601 -0.02062 0.77194
 C14 C 0.14186 -0.03624 0.76516
 C15 C 0.15391 -0.03064 0.74784
 C16 C 0.14885 -0.00980 0.73853
 C17 C 0.13847 -0.00089 0.77615
 C18 C 0.15057 0.00478 0.75879
 C19 C 0.11456 -0.01685 0.75171
 C20 C 0.12698 -0.01066 0.73318
 H21 H 0.14351 -0.05051 0.77358
 H22 H 0.15914 -0.00580 0.72460
 H23 H 0.13780 0.00767 0.79167
 H24 H 0.09830 -0.01447 0.75182
 C25 C 0.62802 0.48689 0.26784
 C26 C 0.64304 0.47063 0.26056
 C27 C 0.65443 0.47540 0.24245
 C28 C 0.64964 0.49612 0.23275
 C29 C 0.64112 0.50632 0.27059
 C30 C 0.65280 0.51110 0.25257
 C31 C 0.61514 0.49071 0.24705
 C32 C 0.62629 0.49546 0.22860
 H33 H 0.64482 0.45662 0.26943
 H34 H 0.65906 0.49957 0.21791
 H35 H 0.64075 0.51564 0.28560
 H36 H 0.59868 0.49157 0.24720
 C37 C 0.87619 0.51920 0.78458
 C38 C 0.86404 0.53700 0.77608
 C39 C 0.85308 0.53284 0.75728
 C40 C 0.85520 0.51097 0.74848
 C41 C 0.86043 0.50183 0.78696
 C42 C 0.84925 0.49749 0.76830
 C43 C 0.88925 0.51237 0.76466
 C44 C 0.87848 0.50841 0.74558
 H45 H 0.86402 0.55166 0.78452
 H46 H 0.84609 0.50790 0.73321
 H47 H 0.85925 0.49290 0.80185
 H48 H 0.90539 0.50948 0.76580
 C49 C 0.26775 0.40562 1.00186
 C50 C 0.26143 0.39001 1.01934
 C51 C 0.24642 0.37668 1.01251
 C52 C 0.23885 0.38029 0.98872
 C53 C 0.27313 0.39306 0.98118
 C54 C 0.25822 0.37977 0.97424
 C55 C 0.24756 0.41580 0.99609
 C56 C 0.23228 0.40271 0.98893
 H57 H 0.26718 0.39039 1.03622
 H58 H 0.22707 0.36910 0.98299
 H59 H 0.28801 0.39407 0.97331
 H60 H 0.24521 0.43172 0.99950
 C61 C 0.76865 0.09959 0.97833
 C62 C 0.76234 0.11626 0.96239
 C63 C 0.74737 0.12838 0.97053
 C64 C 0.73981 0.12245 0.99385
 C65 C 0.77427 0.11087 0.99998
 C66 C 0.75938 0.12299 1.00814
 C67 C 0.74965 0.08865 0.98297
 C68 C 0.73356 0.10096 0.99178
 H69 H 0.76845 0.11777 0.94575
 H70 H 0.72828 0.13294 1.00054
 H71 H 0.78893 0.10932 1.00806
 H72 H 0.74686 0.07346 0.97646
 C73 C 0.27383 0.59425 0.48160
 C74 C 0.26666 0.60970 0.46475
 C75 C 0.25245 0.62267 0.47279
 C76 C 0.24630 0.61883 0.49707
 C77 C 0.28082 0.60696 0.50184
 C78 C 0.26659 0.61984 0.50998
 C79 C 0.25391 0.58355 0.48901
 C80 C 0.23951 0.59627 0.49746
 H81 H 0.27192 0.60997 0.44767
 H82 H 0.23498 0.62971 0.50351
 H83 H 0.29567 0.60529 0.50948
 H84 H 0.25075 0.56759 0.48594
 C85 C 0.77710 0.90703 0.51212
 C86 C 0.76942 0.89337 0.53094
 C87 C 0.75465 0.87951 0.52462
 C88 C 0.74894 0.88053 0.49987
 C89 C 0.78374 0.89242 0.49366
 C90 C 0.76919 0.87861 0.48701
 C91 C 0.75745 0.91653 0.50341
 C92 C 0.74262 0.90272 0.49710
 H93 H 0.77433 0.89539 0.54803
 H94 H 0.73697 0.86934 0.49442
 H95 H 0.79902 0.89294 0.48669
 H96 H 0.75445 0.93256 0.50510
 C97 C -0.00102 0.27615 0.39807
 C98 C 0.01628 0.27564 0.38076
 C99 C 0.01576 0.25901 0.36689
 C100 C -0.00194 0.24394 0.37225
 C101 C -0.01975 0.27345 0.38540
 C102 C -0.02052 0.25591 0.37091
 C103 C 0.00143 0.25626 0.41049
 C104 C 0.00067 0.23927 0.39725
 H105 H 0.02846 0.28700 0.38023
 H106 H -0.00215 0.22999 0.36177
 H107 H -0.03111 0.28514 0.38529
 H108 H 0.00478 0.25573 0.42808
 C109 C 0.00599 0.76335 0.10188
 C110 C -0.01199 0.76440 0.11820
 C111 C -0.01356 0.74863 0.13246
 C112 C 0.00376 0.73329 0.12961
 C113 C 0.02467 0.76182 0.11714
 C114 C 0.02374 0.74609 0.13147
 C115 C 0.00377 0.74241 0.09060
 C116 C 0.00263 0.72661 0.10490
 H117 H -0.02233 0.77700 0.11870
 H118 H 0.00302 0.72048 0.14129
 H119 H 0.03698 0.77301 0.11799
 H120 H 0.00267 0.74044 0.07272
 C121 C 0.50413 0.25951 0.60085
 C122 C 0.48634 0.26081 0.61739
 C123 C 0.48417 0.24460 0.63100
 C124 C 0.50077 0.22862 0.62734
 C125 C 0.52282 0.25665 0.61579
 C126 C 0.52126 0.24047 0.62944
 C127 C 0.50091 0.23905 0.58876
 C128 C 0.49921 0.22283 0.60242
 H129 H 0.47653 0.27380 0.61848
 H130 H 0.49959 0.21545 0.63851
 H131 H 0.53574 0.26713 0.61676
 H132 H 0.49978 0.23772 0.57083
 C133 C 0.49789 0.77736 0.90202
 C134 C 0.51648 0.77700 0.88626
 C135 C 0.51718 0.76015 0.87277
 C136 C 0.49912 0.74512 0.87633
 C137 C 0.47959 0.77489 0.88616
 C138 C 0.48009 0.75807 0.87269
 C139 C 0.49857 0.75848 0.91390
 C140 C 0.49925 0.74047 0.90013
 H141 H 0.52759 0.78925 0.88484
 H142 H 0.49932 0.73200 0.86464
 H143 H 0.46747 0.78578 0.88545
 H144 H 0.50052 0.75852 0.93175
 C145 C -0.23392 0.62754 0.97125
 C146 C -0.21679 0.61350 0.97805
 C147 C -0.22167 0.60092 0.99500
 C148 C -0.24352 0.60350 1.00386
 C149 C -0.25231 0.61335 0.96642
 C150 C -0.25733 0.60054 0.98318
 C151 C -0.23989 0.63869 0.99291
 C152 C -0.24467 0.62624 1.01011
 H153 H -0.20176 0.61407 0.97046
 H154 H -0.24726 0.59309 1.01760
 H155 H -0.26105 0.61407 0.95118
 H156 H -0.24143 0.65491 0.99444
 C157 C -0.25893 0.38016 0.48664
 C158 C -0.27708 0.39289 0.49391
 C159 C -0.27328 0.40527 0.51178
 C160 C -0.25154 0.40366 0.52113
 C161 C -0.24142 0.39562 0.48315
 C162 C -0.23761 0.40811 0.50101
 C163 C -0.25292 0.36933 0.50638
 C164 C -0.24894 0.38206 0.52571
 H165 H -0.29167 0.39232 0.48536
 H166 H -0.24904 0.41448 0.53517
 H167 H -0.23237 0.39608 0.46806
 H168 H -0.24796 0.35386 0.50546
 C169 C 0.23570 -0.12235 -0.01558
 C170 C 0.21730 -0.11005 -0.00829
 C171 C 0.22040 -0.09870 0.01051
 C172 C 0.24178 -0.10090 0.02066
 C173 C 0.25334 -0.10670 -0.01730
 C174 C 0.25650 -0.09530 0.00156
 C175 C 0.24106 -0.13429 0.00355
 C176 C 0.24433 -0.12274 0.02384
 H177 H 0.20311 -0.11001 -0.01760
 H178 H 0.24372 -0.09088 0.03547
 H179 H 0.26314 -0.10555 -0.03178
 H180 H 0.24633 -0.14960 0.00153
 C181 C 0.27765 1.12459 0.45949
 C182 C 0.29380 1.10945 0.46662
 C183 C 0.28783 1.09743 0.48373
 C184 C 0.26619 1.10173 0.49242
 C185 C 0.25843 1.11152 0.45475
 C186 C 0.25228 1.09962 0.47187
 C187 C 0.27279 1.13640 0.48103
 C188 C 0.26657 1.12457 0.49820
 H189 H 0.30926 1.10931 0.46030
 H190 H 0.26144 1.09204 0.50646
 H191 H 0.25051 1.11169 0.43895
 H192 H 0.27355 1.15280 0.48224
 C193 C 0.15880 0.52308 0.24360
 C194 C 0.14517 0.51468 0.22460
 C195 C 0.13175 0.49971 0.23078
 C196 C 0.13327 0.49437 0.25546
 C197 C 0.14395 0.52937 0.26197
 C198 C 0.13057 0.51453 0.26824
 C199 C 0.16922 0.50411 0.25236
 C200 C 0.15588 0.48898 0.25842
 H201 H 0.14656 0.51968 0.20761
 H202 H 0.12234 0.48225 0.26059
 H203 H 0.14455 0.54430 0.26982
 H204 H 0.18543 0.50159 0.25064
 C205 C -0.15968 1.02212 0.26575
 C206 C -0.14372 1.01639 0.28311
 C207 C -0.13051 1.00202 0.27589
 C208 C -0.13478 0.99433 0.25194
 C209 C -0.14720 1.02808 0.24529
 C210 C -0.13409 1.01371 0.23798
 C211 C -0.16975 1.00295 0.25974
 C212 C -0.15629 0.98742 0.25187
 H213 H -0.14352 1.02226 0.30005
 H214 H -0.12343 0.98328 0.24607
 H215 H -0.14904 1.04240 0.23705
 H216 H -0.18549 0.99986 0.26431
 C217 C 0.33496 0.51546 -0.24041
 C218 C 0.35040 0.50888 -0.22296
 C219 C 0.36362 0.49465 -0.23038
 C220 C 0.35990 0.48773 -0.25463
 C221 C 0.34793 0.52177 -0.26038
 C222 C 0.36101 0.50745 -0.26787
 C223 C 0.32423 0.49551 -0.24779
 C224 C 0.33714 0.48095 -0.25550
 H225 H 0.35065 0.51467 -0.20599
 H226 H 0.37088 0.47626 -0.26056
 H227 H 0.34637 0.53630 -0.26826
 H228 H 0.30806 0.49259 -0.24535
 C229 C 0.65923 0.02344 -0.24986
 C230 C 0.64478 0.01524 -0.26819
 C231 C 0.63179 0.00003 -0.26165
 C232 C 0.63439 -0.00558 -0.23711
 C233 C 0.64528 0.02940 -0.23060
 C234 C 0.63238 0.01439 -0.22368
 C235 C 0.67013 0.00441 -0.24204
 C236 C 0.65718 -0.01086 -0.23545
 H237 H 0.64572 0.02014 -0.28525
 H238 H 0.62385 -0.01786 -0.23149
 H239 H 0.64562 0.04450 -0.22318
 H240 H 0.68634 0.00218 -0.24433
 C241 C 0.02088 0.23834 0.85208
 C242 C 0.02233 0.25513 0.87015
 C243 C 0.00540 0.25652 0.88331
 C244 C -0.01146 0.24058 0.87727
 C245 C 0.01635 0.21907 0.86538
 C246 C -0.00059 0.22007 0.87851
 C247 C 0.00220 0.24214 0.84010
 C248 C -0.01590 0.24335 0.85356
 H249 H 0.03560 0.26507 0.87230
 H250 H -0.02474 0.24102 0.88860
 H251 H 0.02663 0.20646 0.86606
 H252 H 0.00261 0.24546 0.82257
 C253 C 0.51908 0.26491 0.13956
 C254 C 0.51922 0.24545 0.12525
 C255 C 0.50325 0.24326 0.11084
 C256 C 0.48827 0.26089 0.11207
 C257 C 0.51758 0.28207 0.12286
 C258 C 0.50177 0.27994 0.10822
 C259 C 0.49807 0.26452 0.15099
 C260 C 0.48193 0.26211 0.13678
 H261 H 0.53140 0.23462 0.12611
 H262 H 0.47523 0.25901 0.10038
 H263 H 0.52822 0.29489 0.12276
 H264 H 0.49581 0.26683 0.16862
 C265 C 0.02055 0.76479 0.63945
 C266 C 0.01957 0.74507 0.62549
 C267 C 0.00273 0.74294 0.61226
 C268 C -0.01171 0.76103 0.61395
 C269 C 0.01889 0.78141 0.62203
 C270 C 0.00212 0.77952 0.60870
 C271 C 0.00027 0.76514 0.65206
 C272 C -0.01668 0.76298 0.63899
 H273 H 0.03179 0.73425 0.62521
 H274 H -0.02536 0.75933 0.60306
 H275 H 0.03052 0.79300 0.61932
 H276 H -0.00043 0.76686 0.66998
 C277 C 0.52382 0.73430 0.35547
 C278 C 0.52514 0.75162 0.37287
 C279 C 0.50821 0.75353 0.38597
 C280 C 0.49150 0.73720 0.38082
 C281 C 0.51930 0.71544 0.36941
 C282 C 0.50235 0.71675 0.38251
 C283 C 0.50399 0.73784 0.34279
 C284 C 0.48705 0.73937 0.35583
 H285 H 0.53868 0.76121 0.37491
 H286 H 0.47762 0.73819 0.39133
 H287 H 0.52936 0.70270 0.37030
 H288 H 0.50364 0.73964 0.32493
 B289 B -0.01869 0.00989 1.02121
 B290 B -0.02633 0.00551 0.99477
 B291 B -0.00718 0.02235 1.00032
 B292 B 0.00699 0.01361 1.02134
 B293 B -0.00366 -0.00906 1.02897
 B294 B -0.02447 -0.01408 1.01249
 B295 B 0.00916 -0.01272 0.98574
 B296 B 0.01694 -0.00841 1.01208
 B297 B -0.00228 -0.02509 1.00676
 B298 B -0.01647 -0.01632 0.98562
 B299 B -0.00567 0.00636 0.97805
 B300 B 0.01518 0.01109 0.99456
 B301 B 0.48467 0.50471 0.52048
 B302 B 0.47787 0.50061 0.49374
 B303 B 0.49597 0.51826 0.50031
 B304 B 0.51011 0.50975 0.52148
 B305 B 0.50051 0.48638 0.52813
 B306 B 0.48037 0.48072 0.51089
 B307 B 0.51450 0.48452 0.48521
 B308 B 0.52145 0.48856 0.51186
 B309 B 0.50326 0.47105 0.50551
 B310 B 0.48909 0.47961 0.48423
 B311 B 0.49884 0.50298 0.47765
 B312 B 0.51904 0.50836 0.49489
 B313 B 0.51042 0.96519 0.53771
 B314 B 0.52099 0.96973 0.51271
 B315 B 0.50156 0.95282 0.51478
 B316 B 0.48495 0.96130 0.53434
 B317 B 0.49450 0.98408 0.54422
 B318 B 0.51700 0.98909 0.53074
 B319 B 0.48649 0.98778 0.49981
 B320 B 0.47589 0.98313 0.52481
 B321 B 0.49534 1.00015 0.52265
 B322 B 0.51188 0.99171 0.50322
 B323 B 0.50243 0.96903 0.49326
 B324 B 0.48002 0.96370 0.50668
 B325 B 0.00220 0.46608 1.03765
 B326 B 0.01268 0.47148 1.01256
 B327 B -0.00774 0.45551 1.01425
 B328 B -0.02347 0.46401 1.03458
 B329 B -0.01242 0.48571 1.04564
 B330 B 0.01014 0.48997 1.03212
 B331 B -0.02075 0.49224 1.00186
 B332 B -0.03124 0.48697 1.02674
 B333 B -0.01079 0.50286 1.02515
 B334 B 0.00485 0.49438 1.00486
 B335 B -0.00621 0.47280 0.99372
 B336 B -0.02865 0.46834 1.00740
 B337 B 0.00786 0.52162 0.48118
 B338 B 0.01902 0.51972 0.50618
 B339 B 0.00019 0.53627 0.50275
 B340 B -0.01729 0.52587 0.48503
 B341 B -0.00907 0.50236 0.47762
 B342 B 0.01365 0.49854 0.49079
 B343 B -0.01575 0.50323 0.52259
 B344 B -0.02695 0.50519 0.49767
 B345 B -0.00812 0.48859 0.50098
 B346 B 0.00936 0.49898 0.51875
 B347 B 0.00112 0.52251 0.52618
 B348 B -0.02154 0.52633 0.51301
 B349 B 0.49868 0.02210 -0.01871
 B350 B 0.51332 0.01796 0.00371
 B351 B 0.49524 0.03579 0.00475
 B352 B 0.47473 0.02741 -0.01006
 B353 B 0.48033 0.00388 -0.02016
 B354 B 0.50443 -0.00188 -0.01182
 B355 B 0.48051 0.00234 0.02515
 B356 B 0.46590 0.00656 0.00282
 B357 B 0.48396 -0.01133 0.00170
 B358 B 0.50449 -0.00293 0.01654
 B359 B 0.49884 0.02057 0.02666
 B360 B 0.47482 0.02636 0.01830
 B361 B 0.49385 0.49022 -0.03143
 B362 B 0.48297 0.49470 -0.00655
 B363 B 0.50107 0.47714 -0.00909
 B364 B 0.51882 0.48534 -0.02754
 B365 B 0.51142 0.50852 -0.03627
 B366 B 0.48902 0.51429 -0.02317
 B367 B 0.51858 0.51108 0.00861
 B368 B 0.52938 0.50672 -0.01630
 B369 B 0.51122 0.52424 -0.01371
 B370 B 0.49359 0.51600 0.00474
 B371 B 0.50095 0.49283 0.01342
 B372 B 0.52332 0.48702 0.00032
 B373 B 0.00130 0.99178 0.47358
 B374 B -0.00911 0.99660 0.49862
 B375 B 0.00875 0.97882 0.49594
 B376 B 0.02630 0.98665 0.47707
 B377 B 0.01900 1.00982 0.46822
 B378 B -0.00314 1.01595 0.48165
 B379 B 0.02686 1.01278 0.51293
 B380 B 0.03725 1.00804 0.48790
 B381 B 0.01930 1.02578 0.49057
 B382 B 0.00188 1.01790 0.50944
 B383 B 0.00915 0.99475 0.51827
 B384 B 0.03125 0.98856 0.50484
 B385 B 0.76482 0.24112 0.22704
 B386 B 0.75925 0.23170 0.25211
 B387 B 0.77827 0.24905 0.24963
 B388 B 0.77151 0.26594 0.23029
 B389 B 0.74775 0.25880 0.22095
 B390 B 0.74015 0.23739 0.23454
 B391 B 0.74504 0.26795 0.26544
 B392 B 0.75060 0.27747 0.24039
 B393 B 0.73165 0.26005 0.24287
 B394 B 0.73843 0.24321 0.26215
 B395 B 0.76213 0.25036 0.27153
 B396 B 0.76973 0.27179 0.25796
 B397 B 0.72795 0.76165 0.72271
 B398 B 0.73365 0.77244 0.74754
 B399 B 0.71756 0.75225 0.74613
 B400 B 0.72563 0.73625 0.72583
 B401 B 0.74726 0.74684 0.71472
 B402 B 0.75221 0.76947 0.72823
 B403 B 0.75456 0.73934 0.75860
 B404 B 0.74886 0.72851 0.73382
 B405 B 0.76494 0.74875 0.73516
 B406 B 0.75686 0.76469 0.75548
 B407 B 0.73526 0.75409 0.76660
 B408 B 0.73027 0.73150 0.75311
 B409 B 0.26371 0.25119 0.76308
 B410 B 0.26137 0.26130 0.73781
 B411 B 0.27834 0.24297 0.74180
 B412 B 0.26827 0.22618 0.75987
 B413 B 0.24455 0.23431 0.76692
 B414 B 0.24025 0.25628 0.75317
 B415 B 0.24498 0.22601 0.72211
 B416 B 0.24738 0.21588 0.74734
 B417 B 0.23037 0.23419 0.74344
 B418 B 0.24042 0.25100 0.72533
 B419 B 0.26417 0.24286 0.71827
 B420 B 0.26846 0.22093 0.73201
 B421 B 0.23678 0.74848 0.27738
 B422 B 0.24247 0.73802 0.25252
 B423 B 0.22462 0.75589 0.25433
 B424 B 0.23196 0.77330 0.27394
 B425 B 0.25491 0.76591 0.28416
 B426 B 0.26137 0.74386 0.27080
 B427 B 0.25956 0.77353 0.23981
 B428 B 0.25397 0.78395 0.26469
 B429 B 0.27177 0.76599 0.26283
 B430 B 0.26438 0.74872 0.24322
 B431 B 0.24148 0.75609 0.23303
 B432 B 0.23495 0.77810 0.24640
 B433 B 0.26659 0.73748 0.72736
 B434 B 0.26051 0.72799 0.75228
 B435 B 0.27937 0.74556 0.75031
 B436 B 0.27287 0.76235 0.73074
 B437 B 0.24942 0.75490 0.72071
 B438 B 0.24178 0.73342 0.73414
 B439 B 0.24557 0.76408 0.76510
 B440 B 0.25158 0.77361 0.74018
 B441 B 0.23279 0.75595 0.74218
 B442 B 0.23932 0.73926 0.76170
 B443 B 0.26271 0.74670 0.77174
 B444 B 0.27037 0.76820 0.75833
 B445 B 0.22395 0.26020 0.21354
 B446 B 0.22976 0.27144 0.23812
 B447 B 0.21377 0.25116 0.23723
 B448 B 0.22181 0.23485 0.21721
 B449 B 0.24331 0.24536 0.20571
 B450 B 0.24819 0.26825 0.21872
 B451 B 0.25092 0.23868 0.24969
 B452 B 0.24513 0.22738 0.22520
 B453 B 0.26108 0.24774 0.22598
 B454 B 0.25305 0.26395 0.24604
 B455 B 0.23159 0.25344 0.25756
 B456 B 0.22664 0.23061 0.24456
 B457 B 0.77051 0.75501 0.27444
 B458 B 0.76668 0.76755 0.25082
 B459 B 0.78414 0.74925 0.25151
 B460 B 0.77533 0.73045 0.26786
 B461 B 0.75193 0.73741 0.27730
 B462 B 0.74646 0.76055 0.26665
 B463 B 0.74998 0.73365 0.23194
 B464 B 0.75411 0.72105 0.25551
 B465 B 0.73645 0.73928 0.25492
 B466 B 0.74521 0.75807 0.23845
 B467 B 0.76878 0.75131 0.22916
 B468 B 0.77411 0.72817 0.23953
 B469 B 0.73207 0.25294 0.77661
 B470 B 0.73954 0.23983 0.75361
 B471 B 0.72150 0.25765 0.75182
 B472 B 0.72764 0.27717 0.76931
 B473 B 0.74983 0.27110 0.78228
 B474 B 0.75705 0.24782 0.77268
 B475 B 0.75763 0.27366 0.73774
 B476 B 0.75021 0.28678 0.76050
 B477 B 0.76813 0.26892 0.76253
 B478 B 0.76201 0.24955 0.74485
 B479 B 0.73972 0.25553 0.73202
 B480 B 0.73271 0.27879 0.74160
 C481 C 0.41503 1.01348 0.32879
 C482 C 0.41009 1.02804 0.34500
 C483 C 0.39342 1.04056 0.34174
 C484 C 0.38161 1.03843 0.32241
 C485 C 0.38647 1.02385 0.30584
 C486 C 0.40325 1.01128 0.30952
 C487 C 0.42095 1.02855 0.36581
 C488 C 0.42976 1.02765 0.38334
 C489 C 0.43966 1.02489 0.40386
 C490 C 0.44763 1.02092 0.42126
 C491 C 0.45643 1.01415 0.44166
 C492 C 0.44891 0.99612 0.45069
 C493 C 0.45812 0.98810 0.46934
 C494 C 0.47490 0.99815 0.47969
 C495 C 0.48237 1.01639 0.47047
 C496 C 0.47312 1.02438 0.45163
 H497 H 0.42762 1.00337 0.33137
 H498 H 0.38914 1.05153 0.35446
 H499 H 0.36827 1.04769 0.32108
 H500 H 0.40695 0.99930 0.29774
 H501 H 0.43623 0.98787 0.44287
 H502 H 0.45242 0.97361 0.47500
 H503 H 0.49557 1.02431 0.47756
 H504 H 0.47927 1.03823 0.44458
 C505 C -0.11424 0.53089 0.84626
 C506 C -0.09299 0.53358 0.84704
 C507 C -0.08161 0.53280 0.82738
 C508 C -0.09134 0.52864 0.80705
 C509 C -0.11263 0.52471 0.80618
 C510 C -0.12400 0.52673 0.82600
 C511 C -0.08278 0.53513 0.86818
 C512 C -0.07447 0.53494 0.88603
 C513 C -0.06517 0.53276 0.90695
 C514 C -0.05774 0.52903 0.92469
 C515 C -0.04969 0.52220 0.94540
 C516 C -0.05943 0.50574 0.95552
 C517 C -0.05063 0.49679 0.97386
 C518 C -0.03201 0.50432 0.98276
 C519 C -0.02255 0.52131 0.97279
 C520 C -0.03135 0.53018 0.95420
 H521 H -0.12322 0.53153 0.86140
 H522 H -0.06515 0.53502 0.82779
 H523 H -0.08199 0.52858 0.79226
 H524 H -0.14047 0.52463 0.82586
 H525 H -0.07345 0.49921 0.94861
 H526 H -0.05810 0.48337 0.98025
 H527 H -0.00808 0.52741 0.97894
 H528 H -0.02354 0.54279 0.94631
 C529 C 0.08294 -0.03740 0.81206
 C530 C 0.09373 -0.03771 0.83212
 C531 C 0.11477 -0.03367 0.83234
 C532 C 0.12490 -0.02867 0.81272
 C533 C 0.11414 -0.02729 0.79250
 C534 C 0.09306 -0.03242 0.79233
 C535 C 0.08309 -0.04044 0.85277
 C536 C 0.07440 -0.04148 0.87037
 C537 C 0.06436 -0.04115 0.89108
 C538 C 0.05576 -0.03948 0.90869
 C539 C 0.04536 -0.03580 0.92936
 C540 C 0.05461 -0.02323 0.94558
 C541 C 0.04343 -0.01676 0.96407
 C542 C 0.02283 -0.02294 0.96676
 C543 C 0.01391 -0.03613 0.95061
 C544 C 0.02512 -0.04254 0.93210
 H545 H 0.06663 -0.04064 0.81174
 H546 H 0.12329 -0.03390 0.84778
 H547 H 0.14119 -0.02540 0.81339
 H548 H 0.08415 -0.03261 0.77723
 H549 H 0.07019 -0.01767 0.94344
 H550 H 0.05077 -0.00627 0.97577
 H551 H -0.00202 -0.04070 0.95150
 H552 H 0.01770 -0.05197 0.91941
 C553 C 0.58679 0.47147 0.31060
 C554 C 0.59859 0.47066 0.32993
 C555 C 0.61963 0.47457 0.32896
 C556 C 0.62881 0.47960 0.30880
 C557 C 0.61709 0.48107 0.28925
 C558 C 0.59594 0.47650 0.29035
 C559 C 0.58901 0.46703 0.35102
 C560 C 0.58101 0.46492 0.36888
 C561 C 0.57152 0.46372 0.38985
 C562 C 0.56313 0.46392 0.40767
 C563 C 0.55266 0.46578 0.42857
 C564 C 0.56094 0.47839 0.44536
 C565 C 0.54928 0.48331 0.46405
 C566 C 0.52914 0.47558 0.46633
 C567 C 0.52134 0.46217 0.44974
 C568 C 0.53303 0.45731 0.43102
 H569 H 0.57045 0.46840 0.31121
 H570 H 0.62893 0.47399 0.34383
 H571 H 0.64517 0.48257 0.30848
 H572 H 0.58627 0.47663 0.27584
 H573 H 0.57604 0.48524 0.44349
 H574 H 0.55578 0.49392 0.47620
 H575 H 0.50580 0.45631 0.45042
 H576 H 0.52636 0.44777 0.41794
 C577 C 0.58724 0.49816 0.18201
 C578 C 0.59633 0.51266 0.16824
 C579 C 0.61560 0.52093 0.17367
 C580 C 0.62558 0.51501 0.19299
 C581 C 0.61639 0.50081 0.20726
 C582 C 0.59718 0.49225 0.20132
 C583 C 0.58610 0.51847 0.14821
 C584 C 0.57752 0.52259 0.13119
 C585 C 0.56764 0.52614 0.11081
 C586 C 0.55959 0.52766 0.09290
 C587 C 0.55072 0.52718 0.07099
 C588 C 0.56041 0.51591 0.05438
 C589 C 0.55071 0.51199 0.03413
 C590 C 0.53115 0.51959 0.02979
 C591 C 0.52192 0.53186 0.04623
 C592 C 0.53163 0.53555 0.06677
 H593 H 0.57245 0.49140 0.17780
 H594 H 0.62290 0.53201 0.16301
 H595 H 0.64023 0.52193 0.19687
 H596 H 0.58981 0.48089 0.21153
 H597 H 0.57507 0.50915 0.05751
 H598 H 0.55826 0.50205 0.02237
 H599 H 0.50676 0.53766 0.04377
 H600 H 0.52386 0.54414 0.07964
 C601 C 0.12063 1.01673 0.67952
 C602 C 0.10054 1.01113 0.67388
 C603 C 0.08938 0.99813 0.68763
 C604 C 0.09815 0.99084 0.70701
 C605 C 0.11841 0.99639 0.71312
 C606 C 0.12952 1.00947 0.69889
 C607 C 0.09159 1.01789 0.65351
 C608 C 0.08397 1.02265 0.63617
 C609 C 0.07503 1.02681 0.61543
 C610 C 0.06757 1.02876 0.59728
 C611 C 0.05912 1.02875 0.57518
 C612 C 0.04023 1.03746 0.57081
 C613 C 0.03058 1.03392 0.55022
 C614 C 0.03966 1.02143 0.53388
 C615 C 0.05913 1.01363 0.53827
 C616 C 0.06877 1.01739 0.55859
 H617 H 0.12945 1.02680 0.66896
 H618 H 0.07390 0.99341 0.68325
 H619 H 0.08907 0.98035 0.71672
 H620 H 0.14479 1.01495 0.70287
 H621 H 0.03249 1.04612 0.58365
 H622 H 0.01553 1.03995 0.54769
 H623 H 0.06656 1.00358 0.52652
 H624 H 0.08328 1.01038 0.56183
 C625 C -0.08130 0.50379 0.70017
 C626 C -0.09179 0.49226 0.68393
 C627 C -0.11207 0.48604 0.68768
 C628 C -0.12179 0.49127 0.70764
 C629 C -0.11135 0.50272 0.72423
 C630 C -0.09097 0.50903 0.72010
 C631 C -0.08206 0.48799 0.66296
 C632 C -0.07378 0.48544 0.64526
 C633 C -0.06413 0.48386 0.62434
 C634 C -0.05613 0.48399 0.60629
 C635 C -0.04713 0.48615 0.58462
 C636 C -0.05658 0.49867 0.56945
 C637 C -0.04695 0.50336 0.54949
 C638 C -0.02771 0.49538 0.54409
 C639 C -0.01859 0.48222 0.55918
 C640 C -0.02825 0.47767 0.57936
 H641 H -0.06571 0.50901 0.69728
 H642 H -0.12043 0.47732 0.67508
 H643 H -0.13741 0.48624 0.70992
 H644 H -0.08253 0.51842 0.73200
 H645 H -0.07110 0.50548 0.57342
 H646 H -0.05447 0.51372 0.53857
 H647 H -0.00368 0.47606 0.55588
 H648 H -0.02068 0.46813 0.59113
 C649 C 0.40763 0.00991 0.19638
 C650 C 0.39815 -0.00460 0.18235
 C651 C 0.37971 -0.01392 0.18886
 C652 C 0.37101 -0.00898 0.20950
 C653 C 0.38070 0.00524 0.22396
 C654 C 0.39899 0.01483 0.21696
 C655 C 0.40756 -0.00965 0.16136
 C656 C 0.41626 -0.01295 0.14402
 C657 C 0.42730 -0.01545 0.12401
 C658 C 0.43736 -0.01611 0.10720
 C659 C 0.44994 -0.01479 0.08760
 C660 C 0.44450 -0.02499 0.06778
 C661 C 0.45525 -0.02092 0.04812
 C662 C 0.47124 -0.00621 0.04796
 C663 C 0.47737 0.00282 0.06840
 C664 C 0.46679 -0.00141 0.08795
 H665 H 0.42178 0.01740 0.19143
 H666 H 0.37217 -0.02511 0.17808
 H667 H 0.35700 -0.01665 0.21426
 H668 H 0.40663 0.02625 0.22732
 H669 H 0.43147 -0.03542 0.06730
 H670 H 0.45018 -0.02841 0.03289
 H671 H 0.48972 0.01399 0.06934
 H672 H 0.47120 0.00653 0.10320
 C673 C 0.31973 0.42421 0.02429
 C674 C 0.32217 0.44287 0.01386
 C675 C 0.30625 0.45026 0.00100
 C676 C 0.28816 0.43878 -0.00187
 C677 C 0.28556 0.41980 0.00834
 C678 C 0.30172 0.41269 0.02141
 C679 C 0.34187 0.45305 0.01417
 C680 C 0.35883 0.46057 0.01363
 C681 C 0.37911 0.46818 0.01206
 C682 C 0.39670 0.47367 0.00991
 C683 C 0.41789 0.47901 0.00633
 C684 C 0.42977 0.46629 -0.00699
 C685 C 0.45028 0.47117 -0.01093
 C686 C 0.45943 0.48893 -0.00163
 C687 C 0.44730 0.50161 0.01188
 C688 C 0.42668 0.49667 0.01581
 H689 H 0.33214 0.41810 0.03383
 H690 H 0.30816 0.46446 -0.00761
 H691 H 0.27666 0.44436 -0.01299
 H692 H 0.30096 0.39776 0.02855
 H693 H 0.42314 0.45257 -0.01443
 H694 H 0.45885 0.46095 -0.02143
 H695 H 0.45362 0.51541 0.01938
 H696 H 0.41761 0.50664 0.02616
 C697 C -0.17189 0.92725 0.53537
 C698 C -0.16921 0.94530 0.52379
 C699 C -0.18474 0.95187 0.50987
 C700 C -0.20266 0.94015 0.50703
 C701 C -0.20547 0.92174 0.51833
 C702 C -0.18976 0.91549 0.53255
 C703 C -0.14953 0.95549 0.52391
 C704 C -0.13260 0.96302 0.52304
 C705 C -0.11239 0.97064 0.52092
 C706 C -0.09488 0.97610 0.51818
 C707 C -0.07381 0.98134 0.51380
 C708 C -0.06239 0.96848 0.50017
 C709 C -0.04201 0.97326 0.49544
 C710 C -0.03254 0.99105 0.50426
 C711 C -0.04422 1.00389 0.51807
 C712 C -0.06471 0.99905 0.52279
 H713 H -0.15976 0.92176 0.54577
 H714 H -0.18260 0.96557 0.50038
 H715 H -0.21376 0.94505 0.49507
 H716 H -0.19077 0.90100 0.54066
 H717 H -0.06928 0.95473 0.49309
 H718 H -0.03380 0.96294 0.48470
 H719 H -0.03764 1.01772 0.52524
 H720 H -0.07344 1.00914 0.53338
 C721 C -0.17955 0.08481 0.95408
 C722 C -0.17781 0.06496 0.96148
 C723 C -0.19396 0.05579 0.97304
 C724 C -0.21165 0.06656 0.97765
 C725 C -0.21366 0.08665 0.97037
 C726 C -0.19723 0.09563 0.95863
 C727 C -0.15855 0.05501 0.95987
 C728 C -0.14216 0.04710 0.95995
 C729 C -0.12281 0.03837 0.96172
 C730 C -0.10621 0.03136 0.96462
 C731 C -0.08648 0.02356 0.96969
 C732 C -0.08502 0.00666 0.98322
 C733 C -0.06592 0.00053 0.99055
 C734 C -0.04803 0.01161 0.98504
 C735 C -0.04962 0.02756 0.96990
 C736 C -0.06874 0.03372 0.96262
 H737 H -0.16688 0.09224 0.94565
 H738 H -0.19252 0.04061 0.97939
 H739 H -0.22330 0.05939 0.98780
 H740 H -0.19759 0.11134 0.95381
 H741 H -0.09867 -0.00154 0.98849
 H742 H -0.06533 -0.01283 1.00066
 H743 H -0.03617 0.03556 0.96390
 H744 H -0.06969 0.04666 0.95184
 C745 C 0.32445 0.57817 0.45581
 C746 C 0.32584 0.55821 0.46292
 C747 C 0.30976 0.54934 0.47488
 C748 C 0.29248 0.56055 0.48017
 C749 C 0.29091 0.58078 0.47326
 C750 C 0.30723 0.58942 0.46107
 C751 C 0.34483 0.54787 0.46066
 C752 C 0.36116 0.53983 0.46019
 C753 C 0.38057 0.53113 0.46136
 C754 C 0.39728 0.52429 0.46384
 C755 C 0.41721 0.51680 0.46856
 C756 C 0.41914 0.50012 0.48233
 C757 C 0.43841 0.49451 0.48963
 C758 C 0.45602 0.50588 0.48380
 C759 C 0.45400 0.52159 0.46843
 C760 C 0.43469 0.52723 0.46118
 H761 H 0.33707 0.58536 0.44705
 H762 H 0.31096 0.53406 0.48100
 H763 H 0.28098 0.55356 0.49060
 H764 H 0.30708 0.60518 0.45638
 H765 H 0.40569 0.49174 0.48787
 H766 H 0.43935 0.48134 0.49997
 H767 H 0.46726 0.52992 0.46241
 H768 H 0.43338 0.54006 0.45031
 C769 C 0.18258 0.59404 0.51027
 C770 C 0.17981 0.57380 0.51636
 C771 C 0.19669 0.56126 0.51774
 C772 C 0.21619 0.56875 0.51232
 C773 C 0.21906 0.58886 0.50515
 C774 C 0.20204 0.60155 0.50483
 C775 C 0.15948 0.56561 0.51943
 C776 C 0.14224 0.55897 0.52084
 C777 C 0.12185 0.55160 0.52112
 C778 C 0.10429 0.54578 0.52018
 C779 C 0.08321 0.53955 0.51765
 C780 C 0.07542 0.52222 0.52805
 C781 C 0.05505 0.51599 0.52459
 C782 C 0.04222 0.52700 0.51062
 C783 C 0.05034 0.54448 0.50044
 C784 C 0.07061 0.55067 0.50393
 H785 H 0.16958 0.60388 0.50913
 H786 H 0.19473 0.54558 0.52254
 H787 H 0.22893 0.55865 0.51360
 H788 H 0.20343 0.61710 0.49975
 H789 H 0.08511 0.51344 0.53865
 H790 H 0.04949 0.50246 0.53276
 H791 H 0.04119 0.55339 0.48948
 H792 H 0.07651 0.56406 0.49570
 C793 C 0.69038 0.06349 -0.00024
 C794 C 0.67365 0.07617 0.00138
 C795 C 0.67676 0.09720 0.00122
 C796 C 0.69649 0.10554 -0.00122
 C797 C 0.71359 0.09293 -0.00394
 C798 C 0.71008 0.07170 -0.00272
 C799 C 0.65331 0.06750 0.00255
 C800 C 0.63633 0.06004 0.00316
 C801 C 0.61643 0.05134 0.00365
 C802 C 0.59932 0.04419 0.00405
 C803 C 0.57866 0.03624 0.00469
 C804 C 0.56597 0.04147 0.02249
 C805 C 0.54551 0.03504 0.02256
 C806 C 0.53724 0.02355 0.00462
 C807 C 0.55048 0.01737 -0.01260
 C808 C 0.57098 0.02389 -0.01269
 H809 H 0.68819 0.04716 0.00022
 H810 H 0.66387 0.10720 0.00258
 H811 H 0.69776 0.12184 -0.00177
 H812 H 0.72245 0.06112 -0.00336
 H813 H 0.57183 0.05078 0.03620
 H814 H 0.53624 0.03928 0.03667
 H815 H 0.54486 0.00810 -0.02644
 H816 H 0.58073 0.01961 -0.02650
 C817 C 0.69705 0.93334 0.47961
 C818 C 0.68081 0.92159 0.48799
 C819 C 0.68473 0.90317 0.49817
 C820 C 0.70481 0.89673 0.50048
 C821 C 0.72129 0.90865 0.49263
 C822 C 0.71718 0.92691 0.48189
 C823 C 0.66024 0.92889 0.48755
 C824 C 0.64291 0.93475 0.48818
 C825 C 0.62254 0.94123 0.49003
 C826 C 0.60509 0.94635 0.49252
 C827 C 0.58423 0.95190 0.49656
 C828 C 0.57671 0.97012 0.48868
 C829 C 0.55665 0.97569 0.49358
 C830 C 0.54380 0.96312 0.50649
 C831 C 0.55161 0.94474 0.51410
 C832 C 0.57160 0.93921 0.50918
 H833 H 0.69420 0.94766 0.47175
 H834 H 0.67230 0.89404 0.50489
 H835 H 0.70740 0.88284 0.50925
 H836 H 0.72955 0.93634 0.47554
 H837 H 0.58641 0.98011 0.47895
 H838 H 0.55135 0.98995 0.48736
 H839 H 0.54245 0.93464 0.52420
 H840 H 0.57728 0.92511 0.51547
 C841 C 0.18698 0.43666 0.97776
 C842 C 0.17056 0.42278 0.97878
 C843 C 0.17433 0.40218 0.98130
 C844 C 0.19434 0.39555 0.98369
 C845 C 0.21105 0.40945 0.98394
 C846 C 0.20704 0.43007 0.98014
 C847 C 0.14984 0.42973 0.97887
 C848 C 0.13246 0.43539 0.98000
 C849 C 0.11216 0.44193 0.98253
 C850 C 0.09494 0.44749 0.98570
 C851 C 0.07461 0.45419 0.99072
 C852 C 0.05745 0.44358 0.98231
 C853 C 0.03779 0.44930 0.98870
 C854 C 0.03501 0.46536 1.00412
 C855 C 0.05243 0.47663 1.01141
 C856 C 0.07202 0.47092 1.00497
 H857 H 0.18427 0.45266 0.97561
 H858 H 0.16173 0.39125 0.98200
 H859 H 0.19629 0.37956 0.98590
 H860 H 0.21928 0.44131 0.97918
 H861 H 0.05926 0.43077 0.97098
 H862 H 0.02485 0.44106 0.98154
 H863 H 0.05106 0.48950 1.02269
 H864 H 0.08518 0.47937 1.01144
 C865 C -0.01058 0.31262 0.44759
 C866 C -0.00395 0.33120 0.43902
 C867 C 0.00355 0.33199 0.41726
 C868 C 0.00464 0.31429 0.40420
 C869 C -0.00133 0.29530 0.41282
 C870 C -0.00950 0.29486 0.43456
 C871 C -0.00556 0.34969 0.45203
 C872 C -0.00691 0.36560 0.46211
 C873 C -0.00850 0.38480 0.47273
 C874 C -0.00988 0.40172 0.48052
 C875 C -0.01155 0.42253 0.48794
 C876 C -0.00037 0.43017 0.50623
 C877 C -0.00020 0.45102 0.51136
 C878 C -0.01119 0.46449 0.49820
 C879 C -0.02281 0.45639 0.48025
 C880 C -0.02307 0.43566 0.47530
 H881 H -0.01687 0.31189 0.46424
 H882 H 0.00829 0.34636 0.41024
 H883 H 0.00983 0.31560 0.38720
 H884 H -0.01545 0.28089 0.44144
 H885 H 0.00880 0.42017 0.51601
 H886 H 0.00930 0.45660 0.52495
 H887 H -0.03121 0.46614 0.46943
 H888 H -0.03165 0.42997 0.46100
 C889 C 0.50975 -0.17336 -0.06420
 C890 C 0.49089 -0.16999 -0.05396
 C891 C 0.47483 -0.18411 -0.05703
 C892 C 0.47744 -0.20118 -0.07081
 C893 C 0.49604 -0.20427 -0.08219
 C894 C 0.51241 -0.19040 -0.07801
 C895 C 0.48774 -0.15144 -0.04147
 C896 C 0.48525 -0.13537 -0.03204
 C897 C 0.48256 -0.11590 -0.02241
 C898 C 0.48056 -0.09870 -0.01567
 C899 C 0.47863 -0.07755 -0.00976
 C900 C 0.47254 -0.06423 -0.02613
 C901 C 0.47320 -0.04335 -0.02206
 C902 C 0.47966 -0.03526 -0.00130
 C903 C 0.48519 -0.04887 0.01537
 C904 C 0.48466 -0.06988 0.01116
 H905 H 0.52238 -0.16264 -0.06173
 H906 H 0.46018 -0.18176 -0.04908
 H907 H 0.46474 -0.21186 -0.07294
 H908 H 0.52736 -0.19249 -0.08515
 H909 H 0.46815 -0.06994 -0.04250
 H910 H 0.46967 -0.03367 -0.03576
 H911 H 0.49077 -0.04330 0.03134
 H912 H 0.48968 -0.08004 0.02390
 C913 C 0.02357 -0.19124 1.06663
 C914 C 0.00493 -0.18504 1.05800
 C915 C -0.01283 -0.19669 1.06172
 C916 C -0.01212 -0.21385 1.07498
 C917 C 0.00628 -0.21937 1.08527
 C918 C 0.02433 -0.20837 1.07993
 C919 C 0.00381 -0.16587 1.04703
 C920 C 0.00298 -0.14927 1.03904
 C921 C 0.00215 -0.12930 1.03104
 C922 C 0.00158 -0.11186 1.02540
 C923 C 0.00111 -0.09066 1.02012
 C924 C -0.00728 -0.08426 1.00010
 C925 C -0.00823 -0.06352 0.99566
 C926 C -0.00062 -0.04889 1.01110
 C927 C 0.00753 -0.05563 1.03129
 C928 C 0.00851 -0.07628 1.03565
 H929 H 0.03749 -0.18252 1.06355
 H930 H -0.02735 -0.19216 1.05495
 H931 H -0.02615 -0.22242 1.07790
 H932 H 0.03910 -0.21266 1.08604
 H933 H -0.01332 -0.09526 0.98808
 H934 H -0.01532 -0.05904 0.98036
 H935 H 0.01322 -0.04496 1.04383
 H936 H 0.01487 -0.08104 1.05130
 C937 C 0.52442 0.30378 0.56553
 C938 C 0.50618 0.31156 0.55753
 C939 C 0.48761 0.30155 0.56200
 C940 C 0.48718 0.28436 0.57527
 C941 C 0.50529 0.27720 0.58482
 C942 C 0.52404 0.28661 0.57882
 C943 C 0.50644 0.33063 0.54627
 C944 C 0.50672 0.34713 0.53795
 C945 C 0.50706 0.36699 0.52957
 C946 C 0.50733 0.38435 0.52363
 C947 C 0.50759 0.40549 0.51809
 C948 C 0.49934 0.41196 0.49803
 C949 C 0.49843 0.43270 0.49366
 C950 C 0.50588 0.44728 0.50925
 C951 C 0.51416 0.44047 0.52934
 C952 C 0.51512 0.41980 0.53362
 H953 H 0.53893 0.31123 0.56187
 H954 H 0.47339 0.30731 0.55570
 H955 H 0.47258 0.27697 0.57859
 H956 H 0.53851 0.28096 0.58433
 H957 H 0.49320 0.40100 0.48601
 H958 H 0.49130 0.43723 0.47839
 H959 H 0.51970 0.45110 0.54201
 H960 H 0.52136 0.41499 0.54930
 C961 C 0.50258 1.17581 0.56533
 C962 C 0.49066 1.16176 0.57707
 C963 C 0.48158 1.16763 0.59723
 C964 C 0.48439 1.18748 0.60557
 C965 C 0.49631 1.20171 0.59381
 C966 C 0.50539 1.19561 0.57360
 C967 C 0.48840 1.14121 0.56864
 C968 C 0.48723 1.12401 0.56146
 C969 C 0.48679 1.10379 0.55319
 C970 C 0.48736 1.08641 0.54657
 C971 C 0.48930 1.06552 0.53955
 C972 C 0.50620 1.05484 0.54667
 C973 C 0.50820 1.03442 0.54086
 C974 C 0.49329 1.02409 0.52770
 C975 C 0.47648 1.03515 0.52023
 C976 C 0.47448 1.05569 0.52616
 H977 H 0.50984 1.17141 0.54982
 H978 H 0.47237 1.15686 0.60651
 H979 H 0.47699 1.19176 0.62101
 H980 H 0.51495 1.20606 0.56432
 H981 H 0.51779 1.06227 0.55703
 H982 H 0.52141 1.02677 0.54714
 H983 H 0.46451 1.02786 0.51038
 H984 H 0.46126 1.06378 0.52057
 C985 C -0.01447 0.67112 1.10165
 C986 C -0.00549 0.66477 1.08161
 C987 C 0.00639 0.67854 1.06943
 C988 C 0.00917 0.69856 1.07710
 C989 C 0.00009 0.70516 1.09713
 C990 C -0.01168 0.69119 1.10938
 C991 C -0.00816 0.64410 1.07356
 C992 C -0.00994 0.62683 1.06663
 C993 C -0.01141 0.60654 1.05854
 C994 C -0.01202 0.58912 1.05191
 C995 C -0.01181 0.56814 1.04462
 C996 C -0.02701 0.55993 1.03051
 C997 C -0.02669 0.53941 1.02398
 C998 C -0.01115 0.52671 1.03150
 C999 C 0.00409 0.53533 1.04559
 C1000 C 0.00374 0.55577 1.05202
 H1001 H -0.02368 0.66061 1.11126
 H1002 H 0.01355 0.67380 1.05399
 H1003 H 0.01860 0.70882 1.06743
 H1004 H -0.01910 0.69583 1.12469
 H1005 H -0.03924 0.56932 1.02474
 H1006 H -0.03898 0.53345 1.01362
 H1007 H 0.01631 0.52633 1.05202
 H1008 H 0.01559 0.56189 1.06297
 C1009 C 0.50887 0.68465 -0.09470
 C1010 C 0.50497 0.68181 -0.07211
 C1011 C 0.49856 0.69811 -0.05895
 C1012 C 0.49637 0.71724 -0.06817
 C1013 C 0.50069 0.72068 -0.09091
 C1014 C 0.50669 0.70379 -0.10406
 C1015 C 0.50754 0.66220 -0.06233
 C1016 C 0.50963 0.64581 -0.05410
 C1017 C 0.51194 0.62647 -0.04472
 C1018 C 0.51372 0.60971 -0.03729
 C1019 C 0.51551 0.58925 -0.02953
 C1020 C 0.50606 0.58318 -0.00976
 C1021 C 0.50582 0.56271 -0.00382
 C1022 C 0.51496 0.54801 -0.01767
 C1023 C 0.52516 0.55454 -0.03703
 C1024 C 0.52546 0.57494 -0.04283
 H1025 H 0.51382 0.67209 -0.10511
 H1026 H 0.49519 0.69606 -0.04148
 H1027 H 0.49078 0.72906 -0.05725
 H1028 H 0.51047 0.70507 -0.12142
 H1029 H 0.49825 0.59412 0.00067
 H1030 H 0.49768 0.55836 0.01107
 H1031 H 0.53237 0.54381 -0.04821
 H1032 H 0.53282 0.57942 -0.05818
 C1033 C -0.00218 1.19572 0.43771
 C1034 C 0.00828 1.18057 0.42613
 C1035 C 0.01541 1.18422 0.40456
 C1036 C 0.01248 1.20310 0.39484
 C1037 C 0.00251 1.21863 0.40661
 C1038 C -0.00509 1.21455 0.42805
 C1039 C 0.01184 1.16143 0.43657
 C1040 C 0.01472 1.14547 0.44547
 C1041 C 0.01789 1.12665 0.45572
 C1042 C 0.02034 1.11030 0.46394
 C1043 C 0.02283 1.09026 0.47266
 C1044 C 0.03321 1.07578 0.46001
 C1045 C 0.03333 1.05560 0.46660
 C1046 C 0.02311 1.04946 0.48611
 C1047 C 0.01367 1.06440 0.49939
 C1048 C 0.01348 1.08464 0.49266
 H1049 H -0.00795 1.19305 0.45432
 H1050 H 0.02347 1.17258 0.39537
 H1051 H 0.01855 1.20563 0.37842
 H1052 H -0.01328 1.22595 0.43744
 H1053 H 0.04048 1.07990 0.44449
 H1054 H 0.04071 1.04467 0.45581
 H1055 H 0.00552 1.06035 0.51438
 H1056 H 0.00534 1.09571 0.50259
 C1057 C 0.78025 0.67241 0.93339
 C1058 C 0.78266 0.66230 0.91295
 C1059 C 0.78051 0.64117 0.91169
 C1060 C 0.77548 0.63025 0.93067
 C1061 C 0.77223 0.64025 0.95126
 C1062 C 0.77523 0.66152 0.95245
 C1063 C 0.78575 0.67359 0.89294
 C1064 C 0.78712 0.68269 0.87580
 C1065 C 0.78708 0.69281 0.85535
 C1066 C 0.78538 0.70086 0.83764
 C1067 C 0.78110 0.70956 0.81644
 C1068 C 0.76859 0.69856 0.80155
 C1069 C 0.76118 0.70770 0.78260
 C1070 C 0.76643 0.72802 0.77786
 C1071 C 0.77981 0.73872 0.79249
 C1072 C 0.78705 0.72954 0.81170
 H1073 H 0.78195 0.68879 0.93455
 H1074 H 0.78232 0.63316 0.89594
 H1075 H 0.77378 0.61390 0.92922
 H1076 H 0.77381 0.67001 0.96783
 H1077 H 0.76365 0.68317 0.80519
 H1078 H 0.75057 0.69899 0.77222
 H1079 H 0.78382 0.75449 0.78983
 H1080 H 0.79652 0.73830 0.82330
 C1081 C 0.30232 0.14661 0.40662
 C1082 C 0.28923 0.16257 0.40241
 C1083 C 0.27302 0.16647 0.41690
 C1084 C 0.26976 0.15438 0.43540
 C1085 C 0.28281 0.13826 0.44000
 C1086 C 0.29913 0.13447 0.42521
 C1087 C 0.29101 0.17376 0.38218
 C1088 C 0.29109 0.18282 0.36498
 C1089 C 0.28936 0.19291 0.34464
 C1090 C 0.28617 0.20093 0.32720
 C1091 C 0.28020 0.20961 0.30651
 C1092 C 0.26669 0.19855 0.29273
 C1093 C 0.25815 0.20754 0.27427
 C1094 C 0.26321 0.22776 0.26892
 C1095 C 0.27731 0.23862 0.28257
 C1096 C 0.28574 0.22958 0.30127
 H1097 H 0.31464 0.14317 0.39520
 H1098 H 0.26253 0.17854 0.41355
 H1099 H 0.25668 0.15735 0.44593
 H1100 H 0.30907 0.12181 0.42724
 H1101 H 0.26205 0.18318 0.29680
 H1102 H 0.24702 0.19874 0.26465
 H1103 H 0.28115 0.25435 0.27952
 H1104 H 0.29593 0.23841 0.31206
 C1105 C 0.72854 0.36788 0.42583
 C1106 C 0.72671 0.34675 0.42549
 C1107 C 0.72885 0.33607 0.44520
 C1108 C 0.73326 0.34649 0.46518
 C1109 C 0.73597 0.36780 0.46559
 C1110 C 0.73297 0.37831 0.44568
 C1111 C 0.72386 0.33613 0.40462
 C1112 C 0.72245 0.32772 0.38674
 C1113 C 0.72212 0.31830 0.36553
 C1114 C 0.72310 0.31049 0.34733
 C1115 C 0.72593 0.30131 0.32573
 C1116 C 0.71666 0.28255 0.32035
 C1117 C 0.72181 0.27239 0.30058
 C1118 C 0.73630 0.28090 0.28590
 C1119 C 0.74504 0.30009 0.29129
 C1120 C 0.73980 0.31022 0.31097
 H1121 H 0.72684 0.37631 0.41067
 H1122 H 0.72730 0.31967 0.44510
 H1123 H 0.73435 0.33768 0.48006
 H1124 H 0.73428 0.39471 0.44547
 H1125 H 0.70610 0.27539 0.33184
 H1126 H 0.71515 0.25746 0.29748
 H1127 H 0.75650 0.30704 0.28072
 H1128 H 0.74724 0.32466 0.31510
 C1129 C 0.22659 0.86665 0.92255
 C1130 C 0.22218 0.84582 0.92215
 C1131 C 0.22155 0.83514 0.94199
 C1132 C 0.22577 0.84517 0.96220
 C1133 C 0.23120 0.86603 0.96276
 C1134 C 0.23083 0.87671 0.94268
 C1135 C 0.21956 0.83529 0.90121
 C1136 C 0.21847 0.82661 0.88347
 C1137 C 0.21867 0.81663 0.86260
 C1138 C 0.22028 0.80825 0.84477
 C1139 C 0.22403 0.79843 0.82371
 C1140 C 0.21556 0.77921 0.81883
 C1141 C 0.22163 0.76860 0.79968
 C1142 C 0.23620 0.77714 0.78511
 C1143 C 0.24429 0.79668 0.79013
 C1144 C 0.23813 0.80726 0.80916
 H1145 H 0.22697 0.87509 0.90726
 H1146 H 0.21793 0.81902 0.94184
 H1147 H 0.22456 0.83650 0.97723
 H1148 H 0.23394 0.89291 0.94255
 H1149 H 0.20491 0.77210 0.83025
 H1150 H 0.21557 0.75338 0.79696
 H1151 H 0.25590 0.80363 0.77975
 H1152 H 0.24501 0.82202 0.81298
 C1153 C 0.26570 0.87086 0.08133
 C1154 C 0.26545 0.84976 0.08285
 C1155 C 0.25767 0.83784 0.06529
 C1156 C 0.25046 0.84690 0.04612
 C1157 C 0.25100 0.86827 0.04387
 C1158 C 0.25849 0.88005 0.06217
 C1159 C 0.27181 0.84030 0.10298
 C1160 C 0.27610 0.83221 0.12010
 C1161 C 0.27950 0.82274 0.14054
 C1162 C 0.28059 0.81488 0.15840
 C1163 C 0.27927 0.80608 0.18005
 C1164 C 0.28730 0.78701 0.18428
 C1165 C 0.28241 0.77714 0.20411
 C1166 C 0.26927 0.78620 0.21981
 C1167 C 0.26201 0.80573 0.21555
 C1168 C 0.26714 0.81559 0.19603
 H1169 H 0.27137 0.88027 0.09505
 H1170 H 0.25689 0.82146 0.06653
 H1171 H 0.24397 0.83685 0.03350
 H1172 H 0.25928 0.89637 0.06211
 H1173 H 0.29647 0.77935 0.17183
 H1174 H 0.28794 0.76199 0.20646
 H1175 H 0.25141 0.81311 0.22670
 H1176 H 0.26058 0.83021 0.19281
 C1177 C 0.76264 0.34524 0.57052
 C1178 C 0.77091 0.35798 0.58713
 C1179 C 0.77249 0.37884 0.58366
 C1180 C 0.76592 0.38693 0.56358
 C1181 C 0.75767 0.37424 0.54637
 C1182 C 0.75605 0.35319 0.55048
 C1183 C 0.77663 0.34946 0.60804
 C1184 C 0.78030 0.34125 0.62529
 C1185 C 0.78294 0.33041 0.64507
 C1186 C 0.78339 0.32016 0.66144
 C1187 C 0.78136 0.30686 0.68006
 C1188 C 0.78795 0.31276 0.70142
 C1189 C 0.78220 0.30114 0.71979
 C1190 C 0.76914 0.28397 0.71707
 C1191 C 0.76425 0.27734 0.69525
 C1192 C 0.77026 0.28871 0.67700
 H1193 H 0.76095 0.32908 0.57319
 H1194 H 0.77872 0.38891 0.59653
 H1195 H 0.76785 0.40308 0.56186
 H1196 H 0.74908 0.34260 0.53869
 H1197 H 0.79672 0.32673 0.70399
 H1198 H 0.78706 0.30630 0.73616
 H1199 H 0.75481 0.26392 0.69207
 H1200 H 0.76520 0.28388 0.66054
 C1201 C 0.26226 0.15957 0.54862
 C1202 C 0.24591 0.15054 0.56006
 C1203 C 0.23658 0.13272 0.55155
 C1204 C 0.24348 0.12408 0.53154
 C1205 C 0.25979 0.13319 0.51984
 C1206 C 0.26916 0.15098 0.52866
 C1207 C 0.23933 0.15940 0.58085
 C1208 C 0.23487 0.16715 0.59845
 C1209 C 0.23117 0.17640 0.61938
 C1210 C 0.22960 0.18423 0.63756
 C1211 C 0.22999 0.19321 0.65955
 C1212 C 0.24160 0.18405 0.67587
 C1213 C 0.24531 0.19400 0.69613
 C1214 C 0.23724 0.21329 0.70069
 C1215 C 0.22470 0.22199 0.68455
 C1216 C 0.22118 0.21202 0.66405
 H1217 H 0.26974 0.17324 0.55517
 H1218 H 0.22397 0.12556 0.56032
 H1219 H 0.23576 0.11055 0.52501
 H1220 H 0.28194 0.15818 0.52024
 H1221 H 0.24867 0.16959 0.67252
 H1222 H 0.25524 0.18679 0.70784
 H1223 H 0.21844 0.23688 0.68725
 H1224 H 0.21234 0.21937 0.65142
 C1225 C 0.73107 0.63156 0.06750
 C1226 C 0.73930 0.65031 0.07474
 C1227 C 0.75307 0.66087 0.06117
 C1228 C 0.75842 0.65291 0.04035
 C1229 C 0.74998 0.63425 0.03264
 C1230 C 0.73643 0.62355 0.04661
 C1231 C 0.73410 0.65889 0.09615
 C1232 C 0.73086 0.66707 0.11386
 C1233 C 0.72868 0.67776 0.13425
 C1234 C 0.72852 0.68777 0.15123
 C1235 C 0.73068 0.70063 0.17072
 C1236 C 0.74385 0.71752 0.16965
 C1237 C 0.74887 0.72865 0.18884
 C1238 C 0.74087 0.72307 0.20969
 C1239 C 0.72634 0.70696 0.21031
 C1240 C 0.72149 0.69562 0.19098
 H1241 H 0.72049 0.62319 0.07793
 H1242 H 0.75974 0.67528 0.06670
 H1243 H 0.76935 0.66135 0.03042
 H1244 H 0.72967 0.60920 0.04137
 H1245 H 0.75098 0.72162 0.15403
 H1246 H 0.75975 0.74114 0.18724
 H1247 H 0.71940 0.70246 0.22583
 H1248 H 0.71117 0.68259 0.19201
 C1249 C 0.17588 0.57437 0.22080
 C1250 C 0.19504 0.57736 0.23071
 C1251 C 0.20328 0.56207 0.24354
 C1252 C 0.19216 0.54401 0.24691
 C1253 C 0.17266 0.54091 0.23725
 C1254 C 0.16472 0.55641 0.22417
 C1255 C 0.20486 0.59707 0.22999
 C1256 C 0.21194 0.61409 0.23024
 C1257 C 0.21891 0.63445 0.23157
 C1258 C 0.22376 0.65211 0.23365
 C1259 C 0.22829 0.67335 0.23728
 C1260 C 0.24649 0.68225 0.22956
 C1261 C 0.25086 0.70280 0.23404
 C1262 C 0.23708 0.71474 0.24638
 C1263 C 0.21872 0.70551 0.25377
 C1264 C 0.21440 0.68507 0.24925
 H1265 H 0.16913 0.58630 0.21126
 H1266 H 0.21790 0.56445 0.25175
 H1267 H 0.19849 0.53306 0.25797
 H1268 H 0.14944 0.55505 0.21731
 H1269 H 0.25738 0.67328 0.22029
 H1270 H 0.26517 0.70918 0.22804
 H1271 H 0.20774 0.71390 0.26347
 H1272 H 0.20027 0.67832 0.25538
 C1273 C 0.70290 0.06322 0.75023
 C1274 C 0.69453 0.07827 0.73716
 C1275 C 0.67556 0.07484 0.72694
 C1276 C 0.66471 0.05668 0.73024
 C1277 C 0.67280 0.04140 0.74354
 C1278 C 0.69209 0.04497 0.75353
 C1279 C 0.70408 0.09809 0.73627
 C1280 C 0.71108 0.11515 0.73621
 C1281 C 0.71817 0.13550 0.73690
 C1282 C 0.72337 0.15312 0.73813
 C1283 C 0.72864 0.17435 0.74037
 C1284 C 0.71740 0.18863 0.72894
 C1285 C 0.72114 0.20935 0.73270
 C1286 C 0.73582 0.21613 0.74844
 C1287 C 0.74792 0.20157 0.75879
 C1288 C 0.74414 0.18085 0.75500
 H1289 H 0.71737 0.06593 0.75865
 H1290 H 0.66872 0.08657 0.71720
 H1291 H 0.64953 0.05504 0.72319
 H1292 H 0.69845 0.03419 0.76478
 H1293 H 0.70553 0.18375 0.71735
 H1294 H 0.71241 0.21997 0.72331
 H1295 H 0.75983 0.20610 0.77045
 H1296 H 0.75304 0.16992 0.76384
 C1297 C 0.79548 0.05850 0.26559
 C1298 C 0.80286 0.07420 0.27951
 C1299 C 0.82160 0.07235 0.29033
 C1300 C 0.83323 0.05510 0.28679
 C1301 C 0.82613 0.03915 0.27265
 C1302 C 0.80706 0.04119 0.26204
 C1303 C 0.79295 0.09340 0.27999
 C1304 C 0.78585 0.11005 0.27921
 C1305 C 0.77903 0.12998 0.27695
 C1306 C 0.77448 0.14728 0.27389
 C1307 C 0.77052 0.16804 0.26899
 C1308 C 0.75320 0.17762 0.27734
 C1309 C 0.74961 0.19781 0.27206
 C1310 C 0.76333 0.20866 0.25833
 C1311 C 0.78070 0.19872 0.25015
 C1312 C 0.78424 0.17863 0.25544
 H1313 H 0.78125 0.06006 0.25662
 H1314 H 0.82774 0.08471 0.30061
 H1315 H 0.84825 0.05487 0.29426
 H1316 H 0.80148 0.02986 0.25014
 H1317 H 0.74247 0.16951 0.28785
 H1318 H 0.73606 0.20480 0.27875
 H1319 H 0.79163 0.20634 0.23952
 H1320 H 0.79769 0.17132 0.24886
 C1321 C 0.29061 0.55246 0.76215
 C1322 C 0.29929 0.56836 0.77492
 C1323 C 0.31870 0.56636 0.78417
 C1324 C 0.32970 0.54881 0.78013
 C1325 C 0.32133 0.53268 0.76710
 C1326 C 0.30157 0.53478 0.75815
 C1327 C 0.28994 0.58784 0.77578
 C1328 C 0.28353 0.60479 0.77551
 C1329 C 0.27764 0.62512 0.77403
 C1330 C 0.27386 0.64273 0.77176
 C1331 C 0.27068 0.66383 0.76789
 C1332 C 0.25314 0.67337 0.77571
 C1333 C 0.25004 0.69377 0.77106
 C1334 C 0.26447 0.70491 0.75848
 C1335 C 0.28215 0.69507 0.75097
 C1336 C 0.28520 0.67475 0.75565
 H1337 H 0.27581 0.55411 0.75438
 H1338 H 0.32580 0.57882 0.79355
 H1339 H 0.34522 0.54838 0.78630
 H1340 H 0.29494 0.52333 0.74707
 H1341 H 0.24179 0.66501 0.78520
 H1342 H 0.23622 0.70065 0.77718
 H1343 H 0.29358 0.70289 0.74114
 H1344 H 0.29883 0.66747 0.74946
 C1345 C 0.30225 0.43769 0.72386
 C1346 C 0.31468 0.42097 0.72674
 C1347 C 0.33483 0.42392 0.73407
 C1348 C 0.34236 0.44345 0.73919
 C1349 C 0.32977 0.46035 0.73724
 C1350 C 0.30975 0.45725 0.72896
 C1351 C 0.30643 0.40069 0.72378
 C1352 C 0.29974 0.38354 0.72241
 C1353 C 0.29235 0.36328 0.72214
 C1354 C 0.28659 0.34583 0.72309
 C1355 C 0.28055 0.32490 0.72569
 C1356 C 0.26303 0.31671 0.71526
 C1357 C 0.25702 0.29651 0.71887
 C1358 C 0.26845 0.28425 0.73302
 C1359 C 0.28612 0.29278 0.74320
 C1360 C 0.29208 0.31285 0.73956
 H1361 H 0.28663 0.43560 0.71812
 H1362 H 0.34459 0.41106 0.73641
 H1363 H 0.35781 0.44506 0.74533
 H1364 H 0.29976 0.46989 0.72656
 H1365 H 0.25393 0.32596 0.70454
 H1366 H 0.24333 0.29063 0.71070
 H1367 H 0.29534 0.28411 0.75432
 H1368 H 0.30561 0.31906 0.74782
 C1369 C 0.84251 0.93109 0.24104
 C1370 C 0.82152 0.92730 0.23869
 C1371 C 0.80810 0.94344 0.23918
 C1372 C 0.81551 0.96324 0.24279
 C1373 C 0.83661 0.96741 0.24631
 C1374 C 0.85004 0.95091 0.24462
 C1375 C 0.81358 0.90679 0.23725
 C1376 C 0.80684 0.88964 0.23696
 C1377 C 0.79911 0.86952 0.23765
 C1378 C 0.79287 0.85226 0.23909
 C1379 C 0.78615 0.83154 0.24181
 C1380 C 0.79783 0.81880 0.25474
 C1381 C 0.79157 0.79871 0.25776
 C1382 C 0.77343 0.79088 0.24790
 C1383 C 0.76171 0.80392 0.23496
 C1384 C 0.76804 0.82412 0.23196
 H1385 H 0.85306 0.91864 0.24068
 H1386 H 0.79180 0.94070 0.23711
 H1387 H 0.80444 0.97515 0.24256
 H1388 H 0.86631 0.95270 0.24699
 H1389 H 0.81185 0.82440 0.26252
 H1390 H 0.80109 0.78936 0.26787
 H1391 H 0.74770 0.79859 0.22704
 H1392 H 0.75884 0.83390 0.22194
 C1393 C 0.66013 0.93181 0.76383
 C1394 C 0.67932 0.92897 0.77342
 C1395 C 0.69087 0.94577 0.78118
 C1396 C 0.68343 0.96537 0.77892
 C1397 C 0.66436 0.96838 0.76882
 C1398 C 0.65268 0.95136 0.76155
 C1399 C 0.68753 0.90890 0.77396
 C1400 C 0.69413 0.89197 0.77345
 C1401 C 0.70143 0.87201 0.77174
 C1402 C 0.70722 0.85487 0.76934
 C1403 C 0.71347 0.83432 0.76533
 C1404 C 0.70028 0.82077 0.75401
 C1405 C 0.70650 0.80117 0.74873
 C1406 C 0.72612 0.79465 0.75466
 C1407 C 0.73917 0.80838 0.76640
 C1408 C 0.73289 0.82807 0.77165
 H1409 H 0.65114 0.91893 0.75759
 H1410 H 0.70577 0.94376 0.78858
 H1411 H 0.69270 0.97817 0.78484
 H1412 H 0.63816 0.95312 0.75327
 H1413 H 0.68526 0.82548 0.74887
 H1414 H 0.69603 0.79139 0.73940
 H1415 H 0.75438 0.80410 0.77129
 H1416 H 0.74329 0.83849 0.78035
 C1417 C 0.15800 0.43164 0.25624
 C1418 C 0.17683 0.42828 0.26638
 C1419 C 0.18837 0.44471 0.27507
 C1420 C 0.18129 0.46449 0.27316
 C1421 C 0.16260 0.46802 0.26247
 C1422 C 0.15092 0.45134 0.25428
 C1423 C 0.18471 0.40807 0.26646
 C1424 C 0.19098 0.39102 0.26548
 C1425 C 0.19791 0.37097 0.26320
 C1426 C 0.20347 0.35381 0.26038
 C1427 C 0.20967 0.33330 0.25601
 C1428 C 0.22910 0.32703 0.26222
 C1429 C 0.23536 0.30739 0.25682
 C1430 C 0.22228 0.29370 0.24505
 C1431 C 0.20266 0.30024 0.23917
 C1432 C 0.19645 0.31983 0.24460
 H1433 H 0.14903 0.41905 0.24927
 H1434 H 0.20301 0.44229 0.28290
 H1435 H 0.19055 0.47702 0.27975
 H1436 H 0.13672 0.45348 0.24551
 H1437 H 0.23950 0.33738 0.27098
 H1438 H 0.25057 0.30310 0.26170
 H1439 H 0.19216 0.29044 0.22989
 H1440 H 0.18141 0.32456 0.23956
 C1441 C 0.06284 0.21808 0.81302
 C1442 C 0.07324 0.23598 0.80724
 C1443 C 0.06631 0.25463 0.81534
 C1444 C 0.04941 0.25535 0.82959
 C1445 C 0.03939 0.23736 0.83650
 C1446 C 0.04593 0.21875 0.82727
 C1447 C 0.09150 0.23512 0.79380
 C1448 C 0.10724 0.23425 0.78336
 C1449 C 0.12631 0.23306 0.77233
 C1450 C 0.14317 0.23189 0.76429
 C1451 C 0.16403 0.23032 0.75675
 C1452 C 0.17772 0.21966 0.76968
 C1453 C 0.19851 0.22001 0.76462
 C1454 C 0.20615 0.23084 0.74627
 C1455 C 0.19212 0.24086 0.73276
 C1456 C 0.17119 0.24063 0.73801
 H1457 H 0.06786 0.20356 0.80660
 H1458 H 0.07406 0.26864 0.81076
 H1459 H 0.04420 0.27005 0.83520
 H1460 H 0.03799 0.20464 0.83084
 H1461 H 0.17243 0.21173 0.78429
 H1462 H 0.20867 0.21232 0.77571
 H1463 H 0.19735 0.24962 0.71875
 H1464 H 0.16074 0.24908 0.72795
 C1465 C 0.56745 0.75130 0.31687
 C1466 C 0.57645 0.73291 0.31101
 C1467 C 0.56795 0.71474 0.31881
 C1468 C 0.55089 0.71494 0.33287
 C1469 C 0.54226 0.73345 0.33982
 C1470 C 0.55038 0.75156 0.33091
 C1471 C 0.59509 0.73276 0.29817
 C1472 C 0.61126 0.73264 0.28845
 C1473 C 0.63090 0.73255 0.27860
 C1474 C 0.64831 0.73255 0.27191
 C1475 C 0.66981 0.73268 0.26650
 C1476 C 0.68370 0.72981 0.28368
 C1477 C 0.70464 0.73133 0.27975
 C1478 C 0.71234 0.73539 0.25833
 C1479 C 0.69821 0.73819 0.24101
 C1480 C 0.67706 0.73676 0.24506
 H1481 H 0.57377 0.76549 0.31082
 H1482 H 0.57463 0.70037 0.31419
 H1483 H 0.54455 0.70051 0.33800
 H1484 H 0.54365 0.76601 0.33503
 H1485 H 0.67832 0.72695 0.30041
 H1486 H 0.71465 0.72998 0.29390
 H1487 H 0.70344 0.74202 0.22451
 H1488 H 0.66643 0.73929 0.23165
 C1489 C 0.55561 0.26551 0.19003
 C1490 C 0.57443 0.26889 0.17954
 C1491 C 0.57519 0.27109 0.15650
 C1492 C 0.55725 0.26994 0.14396
 C1493 C 0.53808 0.26680 0.15424
 C1494 C 0.53757 0.26436 0.17752
 C1495 C 0.59314 0.26942 0.19211
 C1496 C 0.60929 0.26966 0.20176
 C1497 C 0.62873 0.26970 0.21188
 C1498 C 0.64581 0.26951 0.21937
 C1499 C 0.66669 0.26897 0.22677
 C1500 C 0.68208 0.27733 0.21343
 C1501 C 0.70258 0.27507 0.21899
 C1502 C 0.70812 0.26460 0.23823
 C1503 C 0.69246 0.25656 0.25178
 C1504 C 0.67188 0.25877 0.24609
 H1505 H 0.55490 0.26347 0.20785
 H1506 H 0.58972 0.27347 0.14815
 H1507 H 0.55834 0.27134 0.12608
 H1508 H 0.52353 0.26108 0.18628
 H1509 H 0.67825 0.28508 0.19831
 H1510 H 0.71407 0.28120 0.20787
 H1511 H 0.69598 0.24790 0.26630
 H1512 H 0.66007 0.25199 0.25638
 C1513 C 0.06795 0.78483 0.67168
 C1514 C 0.07404 0.76730 0.68233
 C1515 C 0.06207 0.74953 0.68039
 C1516 C 0.04454 0.74907 0.66711
 C1517 C 0.03895 0.76624 0.65506
 C1518 C 0.05044 0.78442 0.65837
 C1519 C 0.09324 0.76722 0.69398
 C1520 C 0.10977 0.76698 0.70279
 C1521 C 0.12958 0.76650 0.71197
 C1522 C 0.14687 0.76586 0.71881
 C1523 C 0.16785 0.76481 0.72574
 C1524 C 0.17302 0.75489 0.74523
 C1525 C 0.19357 0.75253 0.75085
 C1526 C 0.20928 0.76017 0.73709
 C1527 C 0.20379 0.77022 0.71756
 C1528 C 0.18328 0.77261 0.71204
 H1529 H 0.07695 0.79878 0.67337
 H1530 H 0.06652 0.73590 0.68876
 H1531 H 0.03558 0.73508 0.66582
 H1532 H 0.04612 0.79840 0.65081
 H1533 H 0.16118 0.74854 0.75581
 H1534 H 0.19703 0.74415 0.76559
 H1535 H 0.21533 0.77607 0.70632
 H1536 H 0.17946 0.78015 0.69679
 C1537 C 0.92576 0.76722 0.64645
 C1538 C 0.92288 0.75839 0.66727
 C1539 C 0.93964 0.75077 0.67856
 C1540 C 0.95919 0.75213 0.66926
 C1541 C 0.96236 0.76123 0.64849
 C1542 C 0.94537 0.76858 0.63708
 C1543 C 0.90281 0.75705 0.67717
 C1544 C 0.88614 0.75572 0.68572
 C1545 C 0.86659 0.75396 0.69569
 C1546 C 0.84976 0.75233 0.70380
 C1547 C 0.82932 0.75026 0.71264
 C1548 C 0.82415 0.75909 0.73320
 C1549 C 0.80391 0.75801 0.74088
 C1550 C 0.78856 0.74804 0.72809
 C1551 C 0.79413 0.73895 0.70760
 C1552 C 0.81429 0.73999 0.70004
 H1553 H 0.91289 0.77314 0.63751
 H1554 H 0.93761 0.74375 0.69458
 H1555 H 0.97179 0.74581 0.67830
 H1556 H 0.94724 0.77570 0.62114
 H1557 H 0.83565 0.76717 0.74307
 H1558 H 0.80027 0.76550 0.75648
 H1559 H 0.78286 0.73122 0.69713
 H1560 H 0.81807 0.73312 0.68410
 C1561 C 0.43643 0.24880 0.17335
 C1562 C 0.42023 0.25664 0.16131
 C1563 C 0.42407 0.26586 0.14088
 C1564 C 0.44409 0.26745 0.13267
 C1565 C 0.46052 0.25997 0.14489
 C1566 C 0.45639 0.25041 0.16521
 C1567 C 0.39977 0.25526 0.17016
 C1568 C 0.38280 0.25397 0.17795
 C1569 C 0.36298 0.25234 0.18721
 C1570 C 0.34597 0.25088 0.19490
 C1571 C 0.32545 0.24909 0.20350
 C1572 C 0.31052 0.23842 0.19116
 C1573 C 0.29033 0.23752 0.19866
 C1574 C 0.28467 0.24713 0.21884
 C1575 C 0.29992 0.25764 0.23126
 C1576 C 0.32016 0.25857 0.22366
 H1577 H 0.43365 0.24149 0.18908
 H1578 H 0.41162 0.27194 0.13137
 H1579 H 0.44669 0.27490 0.11704
 H1580 H 0.46858 0.24399 0.17481
 H1581 H 0.31440 0.23107 0.17550
 H1582 H 0.27911 0.22943 0.18844
 H1583 H 0.29620 0.26568 0.24651
 H1584 H 0.33159 0.26700 0.23329
 C1585 C 0.44182 0.73984 0.31635
 C1586 C 0.42835 0.75243 0.32788
 C1587 C 0.43383 0.76034 0.34889
 C1588 C 0.45280 0.75585 0.35819
 C1589 C 0.46654 0.74343 0.34655
 C1590 C 0.46076 0.73536 0.32558
 C1591 C 0.40892 0.75708 0.31809
 C1592 C 0.39265 0.76062 0.30968
 C1593 C 0.37346 0.76429 0.29988
 C1594 C 0.35684 0.76694 0.29185
 C1595 C 0.33658 0.76939 0.28297
 C1596 C 0.32175 0.77896 0.29592
 C1597 C 0.30142 0.77902 0.28880
 C1598 C 0.29553 0.76952 0.26852
 C1599 C 0.31080 0.76081 0.25511
 C1600 C 0.33116 0.76072 0.26232
 H1601 H 0.43771 0.73350 0.30016
 H1602 H 0.42352 0.77010 0.35799
 H1603 H 0.45690 0.76250 0.37422
 H1604 H 0.47083 0.72548 0.31634
 H1605 H 0.32573 0.78570 0.31195
 H1606 H 0.29022 0.78590 0.29966
 H1607 H 0.30696 0.75319 0.23954
 H1608 H 0.34250 0.75318 0.25217
 C1609 C 0.92870 0.25729 0.84863
 C1610 C 0.92579 0.25583 0.82563
 C1611 C 0.94191 0.24980 0.81202
 C1612 C 0.96090 0.24550 0.82123
 C1613 C 0.96442 0.24722 0.84447
 C1614 C 0.94770 0.25297 0.85799
 C1615 C 0.90623 0.26023 0.81592
 C1616 C 0.88984 0.26368 0.80771
 C1617 C 0.87046 0.26735 0.79832
 C1618 C 0.85360 0.27004 0.79086
 C1619 C 0.83297 0.27256 0.78303
 C1620 C 0.81747 0.27621 0.79848
 C1621 C 0.79707 0.27622 0.79173
 C1622 C 0.79166 0.27285 0.76923
 C1623 C 0.80748 0.26977 0.75367
 C1624 C 0.82797 0.26966 0.76053
 H1625 H 0.91627 0.26187 0.85940
 H1626 H 0.93978 0.24830 0.79419
 H1627 H 0.97248 0.24029 0.80981
 H1628 H 0.94899 0.25481 0.87577
 H1629 H 0.82108 0.27822 0.81598
 H1630 H 0.78555 0.27790 0.80450
 H1631 H 0.80402 0.26647 0.73637
 H1632 H 0.83982 0.26657 0.74841
 C1633 C 0.61339 0.97374 0.68532
 C1634 C 0.59351 0.96759 0.69110
 C1635 C 0.58639 0.97123 0.71276
 C1636 C 0.59901 0.98138 0.72841
 C1637 C 0.61872 0.98825 0.72241
 C1638 C 0.62590 0.98395 0.70082
 C1639 C 0.58019 0.95937 0.67396
 C1640 C 0.56985 0.95384 0.65829
 C1641 C 0.55879 0.94925 0.63860
 C1642 C 0.55033 0.94726 0.62086
 C1643 C 0.54156 0.94755 0.59891
 C1644 C 0.52176 0.93997 0.59451
 C1645 C 0.51234 0.94394 0.57413
 C1646 C 0.52254 0.95575 0.55807
 C1647 C 0.54280 0.96238 0.56246
 C1648 C 0.55222 0.95816 0.58253
 H1649 H 0.61907 0.97106 0.66861
 H1650 H 0.57097 0.96669 0.71738
 H1651 H 0.59310 0.98445 0.74490
 H1652 H 0.64120 0.98855 0.69584
 H1653 H 0.51327 0.93191 0.60718
 H1654 H 0.49666 0.93882 0.57160
 H1655 H 0.55113 0.97192 0.55098
 H1656 H 0.56745 0.96430 0.58581
 C1657 C 0.11212 0.47406 1.17790
 C1658 C 0.09231 0.46811 1.18417
 C1659 C 0.08554 0.47200 1.20589
 C1660 C 0.09848 0.48208 1.22121
 C1661 C 0.11823 0.48853 1.21484
 C1662 C 0.12501 0.48419 1.19312
 C1663 C 0.07859 0.45965 1.16759
 C1664 C 0.06751 0.45377 1.15272
 C1665 C 0.05508 0.44859 1.13424
 C1666 C 0.04499 0.44590 1.11767
 C1667 C 0.03369 0.44508 1.09717
 C1668 C 0.04433 0.44610 1.07707
 C1669 C 0.03410 0.45076 1.05753
 C1670 C 0.01302 0.45463 1.05771
 C1671 C 0.00216 0.45149 1.07772
 C1672 C 0.01245 0.44697 1.09732
 H1673 H 0.11748 0.47121 1.16110
 H1674 H 0.07015 0.46765 1.21084
 H1675 H 0.09283 0.48535 1.23779
 H1676 H 0.14029 0.48858 1.18787
 H1677 H 0.06080 0.44459 1.07671
 H1678 H 0.04308 0.45209 1.04271
 H1679 H -0.01411 0.45406 1.07874
 H1680 H 0.00403 0.44629 1.11282
 C1681 C -0.10121 0.03936 1.19432
 C1682 C -0.09789 0.02328 1.17937
 C1683 C -0.10558 0.00382 1.18409
 C1684 C -0.11693 0.00054 1.20349
 C1685 C -0.12079 0.01674 1.21830
 C1686 C -0.11255 0.03612 1.21367
 C1687 C -0.08729 0.02686 1.15878
 C1688 C -0.07880 0.02945 1.14123
 C1689 C -0.06928 0.03150 1.12030
 C1690 C -0.06151 0.03187 1.10213
 C1691 C -0.05273 0.03012 1.08025
 C1692 C -0.03412 0.03978 1.07498
 C1693 C -0.02405 0.03479 1.05509
 C1694 C -0.03238 0.01986 1.04041
 C1695 C -0.05170 0.01127 1.04543
 C1696 C -0.06178 0.01643 1.06506
 H1697 H -0.09528 0.05445 1.19088
 H1698 H -0.10314 -0.00873 1.17258
 H1699 H -0.12325 -0.01448 1.20648
 H1700 H -0.11496 0.04883 1.22496
 H1701 H -0.02691 0.05038 1.08669
 H1702 H -0.00922 0.04177 1.05190
 H1703 H -0.05853 -0.00058 1.03515
 H1704 H -0.07610 0.00872 1.06902
 C1705 C 0.39511 0.53371 0.69001
 C1706 C 0.39865 0.51788 0.67480
 C1707 C 0.39059 0.49842 0.67880
 C1708 C 0.37870 0.49488 0.69773
 C1709 C 0.37467 0.51081 0.71283
 C1710 C 0.38322 0.53021 0.70891
 C1711 C 0.41000 0.52164 0.65475
 C1712 C 0.41918 0.52421 0.63761
 C1713 C 0.42955 0.52602 0.61715
 C1714 C 0.43808 0.52604 0.59939
 C1715 C 0.44779 0.52371 0.57806
 C1716 C 0.46531 0.53509 0.57242
 C1717 C 0.47629 0.53012 0.55311
 C1718 C 0.46995 0.51358 0.53937
 C1719 C 0.45178 0.50296 0.54487
 C1720 C 0.44079 0.50807 0.56390
 H1721 H 0.40134 0.54880 0.68712
 H1722 H 0.39321 0.48606 0.66709
 H1723 H 0.37214 0.47986 0.70017
 H1724 H 0.38069 0.54271 0.72045
 H1725 H 0.47095 0.54718 0.58338
 H1726 H 0.49025 0.53859 0.54956
 H1727 H 0.44656 0.48981 0.53541
 H1728 H 0.42738 0.49902 0.56821
 C1729 C 0.40652 0.49557 -0.18858
 C1730 C 0.40951 0.47487 -0.18551
 C1731 C 0.39850 0.46049 -0.19844
 C1732 C 0.38408 0.46688 -0.21390
 C1733 C 0.38042 0.48764 -0.21628
 C1734 C 0.39207 0.50192 -0.20381
 C1735 C 0.42238 0.46894 -0.16750
 C1736 C 0.43256 0.46585 -0.15128
 C1737 C 0.44368 0.46456 -0.13130
 C1738 C 0.45238 0.46548 -0.11366
 C1739 C 0.46174 0.46905 -0.09228
 C1740 C 0.48071 0.46099 -0.08702
 C1741 C 0.49059 0.46689 -0.06719
 C1742 C 0.48161 0.48097 -0.05242
 C1743 C 0.46234 0.48861 -0.05785
 C1744 C 0.45247 0.48258 -0.07746
 H1745 H 0.41487 0.50683 -0.17861
 H1746 H 0.40056 0.44442 -0.19603
 H1747 H 0.37513 0.45562 -0.22311
 H1748 H 0.38964 0.51802 -0.20552
 H1749 H 0.48816 0.45071 -0.09855
 H1750 H 0.50559 0.46104 -0.06397
 H1751 H 0.45500 0.49973 -0.04725
 H1752 H 0.43790 0.48912 -0.08147
 C1753 C -0.09562 0.96707 0.30685
 C1754 C -0.08512 0.98102 0.32077
 C1755 C -0.08853 1.00179 0.31886
 C1756 C -0.10284 1.00859 0.30372
 C1757 C -0.11396 0.99470 0.29019
 C1758 C -0.10992 0.97390 0.29149
 C1759 C -0.07215 0.97448 0.33844
 C1760 C -0.06183 0.97079 0.35439
 C1761 C -0.05049 0.96871 0.37412
 C1762 C -0.04155 0.96895 0.39164
 C1763 C -0.03192 0.97175 0.41300
 C1764 C -0.04108 0.98464 0.42857
 C1765 C -0.03089 0.99019 0.44814
 C1766 C -0.01139 0.98266 0.45281
 C1767 C -0.00253 0.96916 0.43731
 C1768 C -0.01274 0.96376 0.41750
 H1769 H -0.09322 0.95094 0.30832
 H1770 H -0.08054 1.01272 0.32958
 H1771 H -0.10550 1.02471 0.30284
 H1772 H -0.11844 0.96291 0.28143
 H1773 H -0.05579 0.99114 0.42514
 H1774 H -0.03812 1.00098 0.45923
 H1775 H 0.01265 0.96348 0.43990
 H1776 H -0.00535 0.95401 0.40538
 C1777 C 0.09276 0.54017 0.30681
 C1778 C 0.08836 0.52472 0.32180
 C1779 C 0.09698 0.50561 0.31864
 C1780 C 0.11031 0.50209 0.30085
 C1781 C 0.11526 0.51771 0.28607
 C1782 C 0.10608 0.53669 0.28903
 C1783 C 0.07602 0.52874 0.34113
 C1784 C 0.06630 0.53177 0.35786
 C1785 C 0.05571 0.53449 0.37811
 C1786 C 0.04743 0.53567 0.39598
 C1787 C 0.03858 0.53527 0.41788
 C1788 C 0.04876 0.52490 0.43441
 C1789 C 0.03946 0.52168 0.45490
 C1790 C 0.01979 0.52905 0.45947
 C1791 C 0.01000 0.54030 0.44304
 C1792 C 0.01934 0.54334 0.42232
 H1793 H 0.08618 0.55501 0.30907
 H1794 H 0.09376 0.49357 0.33024
 H1795 H 0.11729 0.48741 0.29917
 H1796 H 0.10932 0.54892 0.27770
 H1797 H 0.06360 0.51847 0.43113
 H1798 H 0.04746 0.51264 0.46678
 H1799 H -0.00525 0.54591 0.44571
 H1800 H 0.01124 0.55128 0.40954
 C1801 C 0.58534 0.01207 -0.18662
 C1802 C 0.59140 0.02501 -0.16896
 C1803 C 0.61104 0.03381 -0.16885
 C1804 C 0.62444 0.03001 -0.18643
 C1805 C 0.61839 0.01736 -0.20450
 C1806 C 0.59878 0.00821 -0.20427
 C1807 C 0.57771 0.02914 -0.15074
 C1808 C 0.56655 0.03245 -0.13518
 C1809 C 0.55367 0.03567 -0.11665
 C1810 C 0.54269 0.03732 -0.10064
 C1811 C 0.52953 0.03738 -0.08144
 C1812 C 0.53513 0.04793 -0.06187
 C1813 C 0.52416 0.04467 -0.04218
 C1814 C 0.50783 0.03038 -0.04170
 C1815 C 0.50137 0.02126 -0.06200
 C1816 C 0.51217 0.02469 -0.08160
 H1817 H 0.57019 0.00507 -0.18681
 H1818 H 0.61599 0.04366 -0.15516
 H1819 H 0.63960 0.03693 -0.18580
 H1820 H 0.59365 -0.00149 -0.21794
 H1821 H 0.54854 0.05787 -0.06155
 H1822 H 0.52938 0.05234 -0.02710
 H1823 H 0.48866 0.01049 -0.06276
 H1824 H 0.50760 0.01652 -0.09667
 C1825 C 0.70171 0.56505 -0.04154
 C1826 C 0.69009 0.56038 -0.02273
 C1827 C 0.69644 0.56766 -0.00179
 C1828 C 0.71394 0.58011 0.00027
 C1829 C 0.72527 0.58566 -0.01863
 C1830 C 0.71922 0.57751 -0.03952
 C1831 C 0.67075 0.54968 -0.02502
 C1832 C 0.65402 0.54173 -0.02651
 C1833 C 0.63386 0.53369 -0.02751
 C1834 C 0.61621 0.52801 -0.02747
 C1835 C 0.59477 0.52280 -0.02608
 C1836 C 0.58192 0.53610 -0.01478
 C1837 C 0.56126 0.53121 -0.01218
 C1838 C 0.55287 0.51285 -0.02089
 C1839 C 0.56591 0.49966 -0.03261
 C1840 C 0.58674 0.50461 -0.03516
 H1841 H 0.69697 0.55950 -0.05785
 H1842 H 0.68751 0.56421 0.01290
 H1843 H 0.71803 0.58594 0.01655
 H1844 H 0.72785 0.58093 -0.05440
 H1845 H 0.58796 0.55018 -0.00756
 H1846 H 0.55210 0.54166 -0.00262
 H1847 H 0.56017 0.48536 -0.03948
 H1848 H 0.59659 0.49415 -0.04392
 C1849 C 0.19820 1.08144 0.45852
 C1850 C 0.19694 1.06320 0.46998
 C1851 C 0.21390 1.05665 0.48187
 C1852 C 0.23202 1.06838 0.48237
 C1853 C 0.23334 1.08681 0.47099
 C1854 C 0.21622 1.09317 0.45902
 C1855 C 0.17779 1.05200 0.47037
 C1856 C 0.16119 1.04369 0.47083
 C1857 C 0.14118 1.03528 0.47179
 C1858 C 0.12367 1.02934 0.47323
 C1859 C 0.10239 1.02389 0.47600
 C1860 C 0.09406 1.00573 0.46716
 C1861 C 0.07333 1.00078 0.47054
 C1862 C 0.06070 1.01395 0.48281
 C1863 C 0.06940 1.03223 0.49137
 C1864 C 0.08996 1.03711 0.48798
 H1865 H 0.18510 1.08679 0.44949
 H1866 H 0.21305 1.04259 0.49090
 H1867 H 0.24499 1.06296 0.49152
 H1868 H 0.21654 1.10746 0.45045
 H1869 H 0.10357 0.99537 0.45782
 H1870 H 0.06733 0.98655 0.46373
 H1871 H 0.06052 1.04271 0.50121
 H1872 H 0.09624 1.05119 0.49496
 C1873 C 0.17825 -0.06074 1.01093
 C1874 C 0.17200 -0.06103 1.03316
 C1875 C 0.18282 -0.07234 1.04857
 C1876 C 0.19942 -0.08393 1.04148
 C1877 C 0.20494 -0.08452 1.01890
 C1878 C 0.19457 -0.07242 1.00383
 C1879 C 0.15303 -0.05163 1.03889
 C1880 C 0.13638 -0.04446 1.04125
 C1881 C 0.11634 -0.03703 1.04128
 C1882 C 0.09900 -0.03161 1.03915
 C1883 C 0.07830 -0.02632 1.03424
 C1884 C 0.07002 -0.00823 1.04228
 C1885 C 0.05042 -0.00271 1.03564
 C1886 C 0.03890 -0.01516 1.02073
 C1887 C 0.04743 -0.03345 1.01312
 C1888 C 0.06687 -0.03895 1.01982
 H1889 H 0.16994 -0.05214 0.99884
 H1890 H 0.17798 -0.07280 1.06579
 H1891 H 0.20724 -0.09320 1.05333
 H1892 H 0.19877 -0.07242 0.98640
 H1893 H 0.07882 0.00176 1.05332
 H1894 H 0.04452 0.01149 1.04193
 H1895 H 0.03933 -0.04347 1.00156
 H1896 H 0.07320 -0.05291 1.01332
 C1897 C 0.68420 0.44274 0.51193
 C1898 C 0.67839 0.44296 0.53430
 C1899 C 0.68976 0.43234 0.54986
 C1900 C 0.70643 0.42086 0.54277
 C1901 C 0.71145 0.41966 0.52008
 C1902 C 0.70059 0.43115 0.50484
 C1903 C 0.65919 0.45184 0.54007
 C1904 C 0.64227 0.45840 0.54241
 C1905 C 0.62191 0.46493 0.54234
 C1906 C 0.60432 0.46947 0.54004
 C1907 C 0.58340 0.47367 0.53486
 C1908 C 0.57393 0.49101 0.54325
 C1909 C 0.55412 0.49554 0.53636
 C1910 C 0.54359 0.48283 0.52087
 C1911 C 0.55331 0.46528 0.51290
 C1912 C 0.57296 0.46077 0.51986
 H1913 H 0.67546 0.45079 0.49974
 H1914 H 0.68524 0.43225 0.56719
 H1915 H 0.71464 0.41205 0.55474
 H1916 H 0.70439 0.43063 0.48730
 H1917 H 0.58196 0.50120 0.55476
 H1918 H 0.54729 0.50920 0.54293
 H1919 H 0.54598 0.45511 0.50091
 H1920 H 0.58022 0.44737 0.51310
 C1921 C -0.19185 0.44065 0.51844
 C1922 C -0.18715 0.45044 0.49855
 C1923 C -0.19993 0.44766 0.48007
 C1924 C -0.21689 0.43450 0.48119
 C1925 C -0.22121 0.42389 0.50079
 C1926 C -0.20885 0.42749 0.51959
 C1927 C -0.16807 0.46140 0.49636
 C1928 C -0.15147 0.46942 0.49446
 C1929 C -0.13141 0.47737 0.49255
 C1930 C -0.11379 0.48294 0.49158
 C1931 C -0.09236 0.48811 0.49160
 C1932 C -0.08476 0.50540 0.48098
 C1933 C -0.06389 0.51049 0.48219
 C1934 C -0.05038 0.49834 0.49410
 C1935 C -0.05832 0.48077 0.50426
 C1936 C -0.07906 0.47573 0.50299
 H1937 H -0.18191 0.44256 0.53277
 H1938 H -0.19637 0.45509 0.46458
 H1939 H -0.22637 0.43226 0.46655
 H1940 H -0.21167 0.41938 0.53478
 H1941 H -0.09499 0.51510 0.47209
 H1942 H -0.05850 0.52418 0.47422
 H1943 H -0.04874 0.47112 0.51391
 H1944 H -0.08480 0.46232 0.51133
 C1945 C 0.30151 -0.06444 0.02434
 C1946 C 0.30734 -0.05332 0.00570
 C1947 C 0.29576 -0.05493 -0.01382
 C1948 C 0.27877 -0.06812 -0.01493
 C1949 C 0.27322 -0.07989 0.00347
 C1950 C 0.28450 -0.07762 0.02326
 C1951 C 0.32622 -0.04178 0.00588
 C1952 C 0.34254 -0.03300 0.00560
 C1953 C 0.36214 -0.02376 0.00489
 C1954 C 0.37927 -0.01676 0.00405
 C1955 C 0.40008 -0.00944 0.00289
 C1956 C 0.41231 -0.01519 -0.01513
 C1957 C 0.43302 -0.00964 -0.01549
 C1958 C 0.44191 0.00147 0.00235
 C1959 C 0.42916 0.00807 0.01985
 C1960 C 0.40845 0.00245 0.02022
 H1961 H 0.31051 -0.06345 0.03946
 H1962 H 0.30019 -0.04644 -0.02837
 H1963 H 0.27017 -0.06935 -0.03030
 H1964 H 0.28080 -0.08668 0.03754
 H1965 H 0.40590 -0.02424 -0.02875
 H1966 H 0.44197 -0.01420 -0.02973
 H1967 H 0.43527 0.01704 0.03367
 H1968 H 0.39908 0.00704 0.03422
 C1969 C 0.32928 1.05874 0.48905
 C1970 C 0.33056 1.05680 0.51213
 C1971 C 0.31699 1.06728 0.52599
 C1972 C 0.30252 1.08004 0.51675
 C1973 C 0.30167 1.08257 0.49360
 C1974 C 0.31497 1.07151 0.47985
 C1975 C 0.34674 1.04499 0.52116
 C1976 C 0.36112 1.03536 0.52717
 C1977 C 0.37877 1.02443 0.53232
 C1978 C 0.39438 1.01539 0.53502
 C1979 C 0.41349 1.00503 0.53609
 C1980 C 0.42968 1.01297 0.54900
 C1981 C 0.44925 1.00499 0.54672
 C1982 C 0.45302 0.98953 0.53085
 C1983 C 0.43620 0.98040 0.51966
 C1984 C 0.41666 0.98827 0.52204
 H1985 H 0.33968 1.05071 0.47816
 H1986 H 0.31791 1.06596 0.54388
 H1987 H 0.29258 1.08852 0.52773
 H1988 H 0.31445 1.07293 0.46194
 H1989 H 0.42739 1.02584 0.56011
 H1990 H 0.46159 1.01173 0.55651
 H1991 H 0.43809 0.96755 0.50851
 H1992 H 0.40420 0.98179 0.51218
 C1993 C -0.17822 0.56423 0.99837
 C1994 C -0.17660 0.56163 1.02133
 C1995 C -0.19046 0.57109 1.03573
 C1996 C -0.20560 0.58347 1.02715
 C1997 C -0.20687 0.58660 1.00413
 C1998 C -0.19321 0.57661 0.98982
 C1999 C -0.15997 0.55005 1.02969
 C2000 C -0.14528 0.54057 1.03506
 C2001 C -0.12739 0.52973 1.03938
 C2002 C -0.11168 0.52070 1.04128
 C2003 C -0.09261 0.51022 1.04129
 C2004 C -0.07563 0.51831 1.05282
 C2005 C -0.05632 0.51004 1.04947
 C2006 C -0.05361 0.49414 1.03383
 C2007 C -0.07116 0.48490 1.02414
 C2008 C -0.09042 0.49307 1.02758
 H2009 H -0.16761 0.55697 0.98707
 H2010 H -0.18929 0.56925 1.05354
 H2011 H -0.21581 0.59114 1.03855
 H2012 H -0.19403 0.57848 0.97199
 H2013 H -0.07717 0.53145 1.06374
 H2014 H -0.04344 0.51669 1.05846
 H2015 H -0.07006 0.47170 1.01331
 H2016 H -0.10351 0.48645 1.01883
 C2017 C -0.00962 0.71058 0.56087
 C2018 C -0.00322 0.69152 0.56768
 C2019 C 0.00406 0.68919 0.58932
 C2020 C 0.00545 0.70583 0.60394
 C2021 C -0.00043 0.72513 0.59715
 C2022 C -0.00831 0.72733 0.57559
 C2023 C -0.00340 0.67420 0.55269
 C2024 C -0.00277 0.65885 0.54150
 C2025 C -0.00130 0.63998 0.53015
 C2026 C 0.00037 0.62318 0.52215
 C2027 C 0.00266 0.60240 0.51491
 C2028 C 0.01385 0.58953 0.52822
 C2029 C 0.01404 0.56876 0.52352
 C2030 C 0.00317 0.56038 0.50518
 C2031 C -0.00729 0.57362 0.49123
 C2032 C -0.00760 0.59449 0.49613
 H2033 H -0.01528 0.71256 0.54415
 H2034 H 0.00896 0.67451 0.59482
 H2035 H 0.01126 0.70361 0.62056
 H2036 H -0.01277 0.74206 0.56987
 H2037 H 0.02176 0.59543 0.54288
 H2038 H 0.02211 0.55920 0.53485
 H2039 H -0.01606 0.56781 0.47717
 H2040 H -0.01644 0.60430 0.48577
 C2041 C 0.49277 0.21151 0.05854
 C2042 C 0.49916 0.19242 0.06523
 C2043 C 0.50616 0.18990 0.08695
 C2044 C 0.50714 0.20636 0.10184
 C2045 C 0.50111 0.22567 0.09524
 C2046 C 0.49370 0.22807 0.07351
 C2047 C 0.49875 0.17513 0.05024
 C2048 C 0.49896 0.15966 0.03923
 C2049 C 0.49965 0.14048 0.02846
 C2050 C 0.50042 0.12329 0.02135
 C2051 C 0.50135 0.10201 0.01573
 C2052 C 0.49582 0.09433 -0.00534
 C2053 C 0.49486 0.07329 -0.00932
 C2054 C 0.49953 0.05970 0.00771
 C2055 C 0.50529 0.06782 0.02868
 C2056 C 0.50638 0.08869 0.03253
 H2057 H 0.48729 0.21362 0.04177
 H2058 H 0.51099 0.17517 0.09237
 H2059 H 0.51257 0.20394 0.11856
 H2060 H 0.48916 0.24282 0.06790
 H2061 H 0.49164 0.10452 -0.01842
 H2062 H 0.48972 0.06769 -0.02545
 H2063 H 0.50807 0.05819 0.04264
 H2064 H 0.51037 0.09443 0.04900
 C2065 C -0.01741 0.19152 0.93006
 C2066 C -0.01440 0.17137 0.92316
 C2067 C -0.00807 0.16723 0.90134
 C2068 C -0.00421 0.18306 0.88670
 C2069 C -0.00661 0.20337 0.89360
 C2070 C -0.01362 0.20745 0.91533
 C2071 C -0.01656 0.15480 0.93846
 C2072 C -0.01738 0.14019 0.95032
 C2073 C -0.01718 0.12229 0.96299
 C2074 C -0.01597 0.10640 0.97258
 C2075 C -0.01315 0.08677 0.98226
 C2076 C 0.00447 0.07617 0.97682
 C2077 C 0.00669 0.05622 0.98358
 C2078 C -0.00871 0.04629 0.99601
 C2079 C -0.02595 0.05748 1.00247
 C2080 C -0.02823 0.07752 0.99547
 H2081 H -0.02221 0.19495 0.94693
 H2082 H -0.00568 0.15174 0.89576
 H2083 H 0.00092 0.17941 0.86999
 H2084 H -0.01539 0.22293 0.92120
 H2085 H 0.01626 0.08310 0.96661
 H2086 H 0.02027 0.04844 0.97819
 H2087 H -0.03826 0.05047 1.01179
 H2088 H -0.04202 0.08552 0.99973
 C2089 C 0.48338 0.68765 0.43286
 C2090 C 0.48649 0.66757 0.42581
 C2091 C 0.49358 0.66365 0.40424
 C2092 C 0.49812 0.67963 0.39001
 C2093 C 0.49569 0.69989 0.39712
 C2094 C 0.48785 0.70372 0.41854
 C2095 C 0.48381 0.65089 0.44083
 C2096 C 0.48271 0.63620 0.45252
 C2097 C 0.48280 0.61823 0.46503
 C2098 C 0.48415 0.60230 0.47446
 C2099 C 0.48745 0.58268 0.48392
 C2100 C 0.50607 0.57336 0.47982
 C2101 C 0.50900 0.55340 0.48609
 C2102 C 0.49331 0.54217 0.49668
 C2103 C 0.47499 0.55211 0.50196
 C2104 C 0.47201 0.57216 0.49541
 H2105 H 0.47799 0.69091 0.44956
 H2106 H 0.49604 0.64820 0.39855
 H2107 H 0.50377 0.67613 0.37348
 H2108 H 0.48593 0.71908 0.42457
 H2109 H 0.51816 0.58131 0.47096
 H2110 H 0.52343 0.54666 0.48175
 H2111 H 0.46250 0.54409 0.50998
 H2112 H 0.45746 0.57918 0.49863
 C2113 C 0.51480 0.80481 0.41538
 C2114 C 0.50292 0.80221 0.43450
 C2115 C 0.49237 0.78378 0.43766
 C2116 C 0.49389 0.76796 0.42185
 C2117 C 0.50611 0.77032 0.40273
 C2118 C 0.51635 0.78909 0.39964
 C2119 C 0.50158 0.81876 0.45045
 C2120 C 0.50112 0.83341 0.46278
 C2121 C 0.50131 0.85151 0.47580
 C2122 C 0.50203 0.86778 0.48538
 C2123 C 0.50351 0.88814 0.49453
 C2124 C 0.49402 0.89364 0.51460
 C2125 C 0.49422 0.91403 0.52183
 C2126 C 0.50384 0.92915 0.50899
 C2127 C 0.51375 0.92319 0.48916
 C2128 C 0.51367 0.90295 0.48213
 H2129 H 0.52286 0.81908 0.41259
 H2130 H 0.48301 0.78161 0.45233
 H2131 H 0.48572 0.75389 0.42486
 H2132 H 0.52539 0.79182 0.38487
 H2133 H 0.48601 0.88230 0.52432
 H2134 H 0.48626 0.91800 0.53703
 H2135 H 0.52124 0.93422 0.47863
 H2136 H 0.52104 0.89894 0.46656
 C2137 C -0.01652 0.29723 0.92132
 C2138 C 0.00092 0.30407 0.93300
 C2139 C 0.01957 0.29458 0.92930
 C2140 C 0.02092 0.27871 0.91363
 C2141 C 0.00360 0.27212 0.90133
 C2142 C -0.01520 0.28133 0.90565
 C2143 C -0.00003 0.32167 0.94759
 C2144 C -0.00077 0.33688 0.95906
 C2145 C -0.00179 0.35525 0.97153
 C2146 C -0.00297 0.37143 0.98116
 C2147 C -0.00497 0.39135 0.99119
 C2148 C 0.00862 0.39862 1.00763
 C2149 C 0.00739 0.41866 1.01574
 C2150 C -0.00734 0.43181 1.00736
 C2151 C -0.02123 0.42399 0.99122
 C2152 C -0.02004 0.40404 0.98329
 H2153 H -0.03103 0.30454 0.92391
 H2154 H 0.03319 0.29971 0.93819
 H2155 H 0.03557 0.27172 0.91100
 H2156 H -0.02872 0.27684 0.89632
 H2157 H 0.02049 0.38899 1.01379
 H2158 H 0.01854 0.42396 1.02779
 H2159 H -0.03278 0.43337 0.98407
 H2160 H -0.03060 0.39866 0.97050
 C2161 C 0.47702 0.31479 0.06703
 C2162 C 0.49428 0.32393 0.05726
 C2163 C 0.51380 0.31768 0.06311
 C2164 C 0.51615 0.30292 0.07918
 C2165 C 0.49897 0.29422 0.08976
 C2166 C 0.47935 0.29989 0.08310
 C2167 C 0.49231 0.34108 0.04299
 C2168 C 0.49149 0.35625 0.03216
 C2169 C 0.49125 0.37489 0.02099
 C2170 C 0.49145 0.39152 0.01296
 C2171 C 0.49198 0.41214 0.00549
 C2172 C 0.50337 0.41784 -0.01320
 C2173 C 0.50566 0.43839 -0.01852
 C2174 C 0.49658 0.45349 -0.00516
 C2175 C 0.48494 0.44740 0.01340
 C2176 C 0.48256 0.42698 0.01853
 H2177 H 0.46181 0.31962 0.06275
 H2178 H 0.52728 0.32465 0.05571
 H2179 H 0.53147 0.29853 0.08355
 H2180 H 0.46587 0.29349 0.09092
 H2181 H 0.51102 0.40648 -0.02324
 H2182 H 0.51517 0.44240 -0.03255
 H2183 H 0.47796 0.45844 0.02440
 H2184 H 0.47392 0.42280 0.03320
 C2185 C 0.01337 0.81470 0.56111
 C2186 C -0.00556 0.82376 0.55824
 C2187 C -0.02255 0.81690 0.57045
 C2188 C -0.02037 0.80162 0.58614
 C2189 C -0.00112 0.79333 0.58995
 C2190 C 0.01558 0.79958 0.57681
 C2191 C -0.00668 0.84157 0.54481
 C2192 C -0.00661 0.85721 0.53469
 C2193 C -0.00565 0.87626 0.52432
 C2194 C -0.00436 0.89314 0.51695
 C2195 C -0.00255 0.91396 0.51019
 C2196 C -0.01024 0.92908 0.52422
 C2197 C -0.00698 0.94947 0.51937
 C2198 C 0.00386 0.95527 0.50013
 C2199 C 0.01132 0.93992 0.48589
 C2200 C 0.00813 0.91939 0.49090
 H2201 H 0.02664 0.81989 0.55183
 H2202 H -0.03725 0.82391 0.56851
 H2203 H -0.03342 0.79711 0.59609
 H2204 H 0.03052 0.79317 0.57912
 H2205 H -0.01834 0.92511 0.53931
 H2206 H -0.01284 0.96068 0.53095
 H2207 H 0.02010 0.94369 0.47125
 H2208 H 0.01441 0.90780 0.48005
 C2209 C 0.24209 0.33724 0.05723
 C2210 C 0.22087 0.33439 0.05879
 C2211 C 0.20802 0.34443 0.04424
 C2212 C 0.21638 0.35769 0.02857
 C2213 C 0.23763 0.36115 0.02742
 C2214 C 0.25043 0.35054 0.04167
 C2215 C 0.21257 0.32264 0.07674
 C2216 C 0.20697 0.31348 0.09288
 C2217 C 0.20239 0.30364 0.11296
 C2218 C 0.20055 0.29610 0.13096
 C2219 C 0.20128 0.28832 0.15312
 C2220 C 0.19551 0.26823 0.15760
 C2221 C 0.20082 0.25969 0.17793
 C2222 C 0.21226 0.27110 0.19384
 C2223 C 0.21687 0.29162 0.18946
 C2224 C 0.21124 0.30015 0.16945
 H2225 H 0.25219 0.32964 0.06849
 H2226 H 0.19156 0.34253 0.04548
 H2227 H 0.20616 0.36593 0.01817
 H2228 H 0.26687 0.35280 0.04103
 H2229 H 0.18803 0.25882 0.14493
 H2230 H 0.19729 0.24378 0.18039
 H2231 H 0.22619 0.30086 0.20072
 H2232 H 0.21608 0.31562 0.16607
 C2233 C 0.72669 0.83467 0.55043
 C2234 C 0.72281 0.84229 0.57187
 C2235 C 0.72871 0.86224 0.57755
 C2236 C 0.73885 0.87438 0.56211
 C2237 C 0.74332 0.86673 0.54071
 C2238 C 0.73677 0.84688 0.53487
 C2239 C 0.71470 0.82935 0.58891
 C2240 C 0.70935 0.81920 0.60441
 C2241 C 0.70517 0.80827 0.62390
 C2242 C 0.70375 0.79992 0.64150
 C2243 C 0.70501 0.79137 0.66327
 C2244 C 0.71541 0.80267 0.67971
 C2245 C 0.72126 0.79359 0.69932
 C2246 C 0.71642 0.77303 0.70323
 C2247 C 0.70469 0.76210 0.68718
 C2248 C 0.69914 0.77120 0.66722
 H2249 H 0.72238 0.81917 0.54591
 H2250 H 0.72588 0.86828 0.59413
 H2251 H 0.74320 0.88977 0.56697
 H2252 H 0.73998 0.84058 0.51856
 H2253 H 0.72032 0.81820 0.67673
 H2254 H 0.73082 0.80248 0.71067
 H2255 H 0.70100 0.74617 0.68927
 H2256 H 0.69133 0.76220 0.65445
 C2257 C 0.25831 0.64819 0.56446
 C2258 C 0.27794 0.65624 0.56875
 C2259 C 0.29370 0.65299 0.55345
 C2260 C 0.28993 0.64145 0.53410
 C2261 C 0.27033 0.63299 0.52985
 C2262 C 0.25450 0.63665 0.54511
 C2263 C 0.28193 0.66728 0.58918
 C2264 C 0.28461 0.67617 0.60665
 C2265 C 0.28657 0.68617 0.62748
 C2266 C 0.28684 0.69435 0.64555
 C2267 C 0.28508 0.70361 0.66727
 C2268 C 0.29450 0.72240 0.67231
 C2269 C 0.28986 0.73265 0.69224
 C2270 C 0.27563 0.72424 0.70727
 C2271 C 0.26696 0.70492 0.70229
 C2272 C 0.27176 0.69469 0.68258
 H2273 H 0.24602 0.65057 0.57626
 H2274 H 0.30893 0.65920 0.55658
 H2275 H 0.30235 0.63915 0.52248
 H2276 H 0.23935 0.63011 0.54246
 H2277 H 0.30469 0.72954 0.66043
 H2278 H 0.29656 0.74760 0.69519
 H2279 H 0.25566 0.69800 0.71308
 H2280 H 0.26423 0.68023 0.67876
 C2281 C 0.74965 0.15083 0.06276
 C2282 C 0.76908 0.15925 0.06741
 C2283 C 0.78508 0.15638 0.05235
 C2284 C 0.78181 0.14486 0.03291
 C2285 C 0.76246 0.13599 0.02828
 C2286 C 0.74632 0.13930 0.04326
 C2287 C 0.77279 0.17034 0.08791
 C2288 C 0.77576 0.17932 0.10530
 C2289 C 0.77857 0.18945 0.12598
 C2290 C 0.77987 0.19773 0.14398
 C2291 C 0.77953 0.20704 0.16580
 C2292 C 0.78949 0.22571 0.17025
 C2293 C 0.78625 0.23595 0.19055
 C2294 C 0.77287 0.22768 0.20655
 C2295 C 0.76375 0.20844 0.20212
 C2296 C 0.76717 0.19822 0.18205
 H2297 H 0.73715 0.15293 0.07436
 H2298 H 0.80015 0.16288 0.05572
 H2299 H 0.79445 0.14294 0.02148
 H2300 H 0.73133 0.13253 0.04022
 H2301 H 0.79901 0.23275 0.15769
 H2302 H 0.79330 0.25081 0.19312
 H2303 H 0.75304 0.20161 0.21364
 H2304 H 0.75927 0.18385 0.17876
 C2305 C 0.74514 0.17249 0.93158
 C2306 C 0.72405 0.17518 0.92983
 C2307 C 0.71054 0.16343 0.94261
 C2308 C 0.71815 0.14863 0.95662
 C2309 C 0.73928 0.14533 0.95771
 C2310 C 0.75272 0.15767 0.94539
 C2311 C 0.71665 0.18844 0.91308
 C2312 C 0.71203 0.19885 0.89771
 C2313 C 0.70866 0.21005 0.87837
 C2314 C 0.70765 0.21858 0.86089
 C2315 C 0.70883 0.22735 0.83921
 C2316 C 0.71213 0.21455 0.82088
 C2317 C 0.71799 0.22259 0.80053
 C2318 C 0.72061 0.24366 0.79795
 C2319 C 0.71564 0.25648 0.81617
 C2320 C 0.71000 0.24838 0.83670
 H2321 H 0.75572 0.18141 0.92167
 H2322 H 0.69417 0.16521 0.94118
 H2323 H 0.70750 0.13916 0.96573
 H2324 H 0.76908 0.15559 0.94615
 H2325 H 0.71128 0.19822 0.82261
 H2326 H 0.72088 0.21203 0.78723
 H2327 H 0.71733 0.27280 0.81507
 H2328 H 0.70764 0.25847 0.85084
 C2329 C 0.24948 0.66433 0.43089
 C2330 C 0.22836 0.66686 0.42928
 C2331 C 0.21508 0.65591 0.44311
 C2332 C 0.22295 0.64203 0.45805
 C2333 C 0.24410 0.63886 0.45905
 C2334 C 0.25731 0.65041 0.44564
 C2335 C 0.22071 0.67917 0.41180
 C2336 C 0.21610 0.68889 0.39589
 C2337 C 0.21308 0.69948 0.37607
 C2338 C 0.21274 0.70775 0.35840
 C2339 C 0.21522 0.71658 0.33687
 C2340 C 0.22811 0.70701 0.32164
 C2341 C 0.23399 0.71671 0.30225
 C2342 C 0.22677 0.73610 0.29739
 C2343 C 0.21303 0.74526 0.31240
 C2344 C 0.20735 0.73557 0.33208
 H2345 H 0.25990 0.67264 0.42018
 H2346 H 0.19868 0.65758 0.44182
 H2347 H 0.21246 0.63310 0.46793
 H2348 H 0.27369 0.64836 0.44625
 H2349 H 0.23454 0.69244 0.32533
 H2350 H 0.24497 0.70927 0.29157
 H2351 H 0.20751 0.76035 0.30962
 H2352 H 0.19760 0.74326 0.34395
 C2353 C 0.78967 0.85474 0.43386
 C2354 C 0.78062 0.83535 0.43426
 C2355 C 0.76755 0.83009 0.45179
 C2356 C 0.76365 0.84417 0.46893
 C2357 C 0.77281 0.86366 0.46872
 C2358 C 0.78579 0.86879 0.45090
 C2359 C 0.78387 0.82153 0.41585
 C2360 C 0.78624 0.81091 0.39956
 C2361 C 0.78812 0.79971 0.37947
 C2362 C 0.78847 0.79134 0.36149
 C2363 C 0.78685 0.78301 0.33927
 C2364 C 0.79494 0.76416 0.33329
 C2365 C 0.79096 0.75565 0.31211
 C2366 C 0.77878 0.76588 0.29678
 C2367 C 0.77130 0.78506 0.30300
 C2368 C 0.77544 0.79355 0.32388
 H2369 H 0.79953 0.85911 0.42020
 H2370 H 0.76028 0.81517 0.45214
 H2371 H 0.75372 0.83967 0.48240
 H2372 H 0.79274 0.88380 0.44987
 H2373 H 0.80369 0.75579 0.34518
 H2374 H 0.79664 0.74071 0.30818
 H2375 H 0.76148 0.79334 0.29209
 H2376 H 0.76899 0.80807 0.32835
 C2377 C 0.25706 0.33213 0.93781
 C2378 C 0.26867 0.33850 0.91954
 C2379 C 0.27631 0.35845 0.91891
 C2380 C 0.27261 0.37194 0.93654
 C2381 C 0.26117 0.36565 0.95511
 C2382 C 0.25332 0.34564 0.95552
 C2383 C 0.27223 0.32496 0.90095
 C2384 C 0.27497 0.31435 0.88473
 C2385 C 0.27742 0.30281 0.86496
 C2386 C 0.27841 0.29378 0.84739
 C2387 C 0.27777 0.28412 0.82575
 C2388 C 0.26693 0.29344 0.80893
 C2389 C 0.26358 0.28342 0.78866
 C2390 C 0.27128 0.26390 0.78457
 C2391 C 0.28300 0.25498 0.80128
 C2392 C 0.28618 0.26503 0.82179
 H2393 H 0.25097 0.31673 0.93840
 H2394 H 0.28510 0.36362 0.90474
 H2395 H 0.27860 0.38734 0.93558
 H2396 H 0.24471 0.34029 0.96972
 H2397 H 0.26025 0.30816 0.81183
 H2398 H 0.25418 0.29078 0.77654
 H2399 H 0.28889 0.23988 0.79897
 H2400 H 0.29451 0.25762 0.83478
 C2401 C 0.81073 0.45704 0.78620
 C2402 C 0.80873 0.44524 0.76672
 C2403 C 0.81866 0.45142 0.74730
 C2404 C 0.83115 0.46892 0.74754
 C2405 C 0.83404 0.48039 0.76726
 C2406 C 0.82322 0.47453 0.78646
 C2407 C 0.79786 0.42603 0.76707
 C2408 C 0.78954 0.40953 0.76736
 C2409 C 0.78066 0.38983 0.76756
 C2410 C 0.77375 0.37273 0.76749
 C2411 C 0.76627 0.35203 0.76694
 C2412 C 0.75444 0.34484 0.74900
 C2413 C 0.74869 0.32433 0.74742
 C2414 C 0.75500 0.31057 0.76360
 C2415 C 0.76607 0.31821 0.78210
 C2416 C 0.77178 0.33875 0.78367
 H2417 H 0.80308 0.45244 0.80133
 H2418 H 0.81727 0.44237 0.73213
 H2419 H 0.83916 0.47284 0.73253
 H2420 H 0.82467 0.48325 0.80183
 H2421 H 0.75006 0.35498 0.73595
 H2422 H 0.73997 0.31920 0.73301
 H2423 H 0.77058 0.30837 0.79527
 H2424 H 0.78084 0.34418 0.79773
 C2425 C 0.31383 0.94988 0.25473
 C2426 C 0.30590 0.94376 0.27523
 C2427 C 0.31002 0.95547 0.29438
 C2428 C 0.32257 0.97285 0.29318
 C2429 C 0.33137 0.97866 0.27280
 C2430 C 0.32639 0.96726 0.25350
 C2431 C 0.29518 0.92456 0.27685
 C2432 C 0.28728 0.90792 0.27793
 C2433 C 0.27939 0.88785 0.27857
 C2434 C 0.27393 0.87028 0.27830
 C2435 C 0.26911 0.84891 0.27668
 C2436 C 0.25029 0.84089 0.28388
 C2437 C 0.24568 0.82016 0.28080
 C2438 C 0.25983 0.80722 0.27040
 C2439 C 0.27881 0.81558 0.26369
 C2440 C 0.28338 0.83614 0.26683
 H2441 H 0.31082 0.94086 0.23980
 H2442 H 0.30396 0.95090 0.31034
 H2443 H 0.32557 0.98156 0.30831
 H2444 H 0.33277 0.97121 0.23759
 H2445 H 0.23909 0.85069 0.29150
 H2446 H 0.23086 0.81443 0.28610
 H2447 H 0.28998 0.80652 0.25507
 H2448 H 0.29793 0.84219 0.26103
 C2449 C 0.19802 0.93368 0.74870
 C2450 C 0.19954 0.92802 0.72625
 C2451 C 0.18749 0.93754 0.71041
 C2452 C 0.17331 0.95205 0.71725
 C2453 C 0.17088 0.95673 0.73996
 C2454 C 0.18377 0.94789 0.75553
 C2455 C 0.21111 0.91037 0.72055
 C2456 C 0.21967 0.89450 0.71799
 C2457 C 0.22810 0.87500 0.71751
 C2458 C 0.23374 0.85783 0.71913
 C2459 C 0.23841 0.83703 0.72331
 C2460 C 0.25631 0.82816 0.71539
 C2461 C 0.26055 0.80804 0.72063
 C2462 C 0.24694 0.79660 0.73392
 C2463 C 0.22901 0.80587 0.74163
 C2464 C 0.22482 0.82579 0.73637
 H2465 H 0.20713 0.92631 0.76112
 H2466 H 0.18837 0.93308 0.69302
 H2467 H 0.16346 0.95869 0.70502
 H2468 H 0.18232 0.95150 0.77311
 H2469 H 0.26701 0.83679 0.70535
 H2470 H 0.27451 0.80156 0.71434
 H2471 H 0.21811 0.79787 0.75195
 H2472 H 0.21096 0.83253 0.74271
 C2473 C 0.69841 0.43963 0.24364
 C2474 C 0.69853 0.43216 0.22173
 C2475 C 0.68563 0.44053 0.20586
 C2476 C 0.67199 0.45572 0.21222
 C2477 C 0.67096 0.46223 0.23455
 C2478 C 0.68469 0.45452 0.25003
 C2479 C 0.70964 0.41398 0.21697
 C2480 C 0.71796 0.39790 0.21526
 C2481 C 0.72632 0.37837 0.21576
 C2482 C 0.73207 0.36130 0.21812
 C2483 C 0.73708 0.34072 0.22304
 C2484 C 0.75449 0.33154 0.21428
 C2485 C 0.75893 0.31154 0.21983
 C2486 C 0.74602 0.30052 0.23428
 C2487 C 0.72862 0.31012 0.24293
 C2488 C 0.72424 0.32994 0.23737
 H2489 H 0.70818 0.43318 0.25609
 H2490 H 0.68544 0.43468 0.18890
 H2491 H 0.66146 0.46146 0.20009
 H2492 H 0.68426 0.45950 0.26730
 H2493 H 0.76461 0.33979 0.20321
 H2494 H 0.77244 0.30477 0.21275
 H2495 H 0.71815 0.30237 0.25396
 H2496 H 0.71074 0.33690 0.24432
 C2497 C 0.68465 0.55658 0.23388
 C2498 C 0.69263 0.56387 0.25414
 C2499 C 0.68871 0.55322 0.27361
 C2500 C 0.67629 0.53573 0.27296
 C2501 C 0.66740 0.52871 0.25281
 C2502 C 0.67223 0.53905 0.23319
 C2503 C 0.70367 0.58294 0.25525
 C2504 C 0.71221 0.59928 0.25635
 C2505 C 0.72140 0.61879 0.25762
 C2506 C 0.72861 0.63574 0.25850
 C2507 C 0.73649 0.65625 0.25905
 C2508 C 0.73036 0.66977 0.27584
 C2509 C 0.73651 0.69018 0.27522
 C2510 C 0.74859 0.69743 0.25758
 C2511 C 0.75555 0.68339 0.24145
 C2512 C 0.74937 0.66302 0.24207
 H2513 H 0.68763 0.56472 0.21868
 H2514 H 0.69492 0.55867 0.28938
 H2515 H 0.67358 0.52783 0.28832
 H2516 H 0.66601 0.53409 0.21739
 H2517 H 0.72052 0.66462 0.28919
 H2518 H 0.73161 0.70021 0.28847
 H2519 H 0.76516 0.68822 0.22778
 H2520 H 0.75425 0.65267 0.22902
 C2521 C 0.19483 0.04173 0.74934
 C2522 C 0.18808 0.05894 0.76093
 C2523 C 0.16915 0.05844 0.77172
 C2524 C 0.15695 0.04083 0.77097
 C2525 C 0.16356 0.02343 0.75941
 C2526 C 0.18262 0.02403 0.74858
 C2527 C 0.19987 0.07757 0.76100
 C2528 C 0.20862 0.09382 0.76098
 C2529 C 0.21746 0.11347 0.76055
 C2530 C 0.22374 0.13072 0.75955
 C2531 C 0.22966 0.15167 0.75731
 C2532 C 0.21761 0.16395 0.74424
 C2533 C 0.22301 0.18427 0.74146
 C2534 C 0.24063 0.19281 0.75173
 C2535 C 0.25257 0.18032 0.76510
 C2536 C 0.24710 0.15986 0.76786
 H2537 H 0.20943 0.04203 0.74082
 H2538 H 0.16368 0.07176 0.78050
 H2539 H 0.14219 0.04099 0.77911
 H2540 H 0.18821 0.01079 0.73979
 H2541 H 0.20406 0.15775 0.73600
 H2542 H 0.21345 0.19310 0.73087
 H2543 H 0.26627 0.18620 0.77324
 H2544 H 0.25652 0.15045 0.77807
 C2545 C 0.31591 0.06230 0.22059
 C2546 C 0.30582 0.07568 0.23502
 C2547 C 0.30790 0.07377 0.25803
 C2548 C 0.32047 0.05901 0.26663
 C2549 C 0.33116 0.04589 0.25232
 C2550 C 0.32845 0.04737 0.22921
 C2551 C 0.29485 0.09263 0.22667
 C2552 C 0.28642 0.10783 0.22121
 C2553 C 0.27763 0.12667 0.21669
 C2554 C 0.27123 0.14353 0.21456
 C2555 C 0.26517 0.16437 0.21419
 C2556 C 0.27882 0.17921 0.22247
 C2557 C 0.27273 0.19920 0.22511
 C2558 C 0.25281 0.20493 0.21938
 C2559 C 0.23934 0.18995 0.21030
 C2560 C 0.24547 0.16978 0.20782
 H2561 H 0.31457 0.06377 0.20275
 H2562 H 0.30025 0.08409 0.26935
 H2563 H 0.32204 0.05801 0.28450
 H2564 H 0.33666 0.03758 0.21781
 H2565 H 0.29401 0.17518 0.22777
 H2566 H 0.28348 0.20983 0.23280
 H2567 H 0.22384 0.19361 0.20582
 H2568 H 0.23468 0.15834 0.20158
 C2569 C 0.83553 0.58359 0.73738
 C2570 C 0.81575 0.57880 0.72984
 C2571 C 0.80857 0.55861 0.72992
 C2572 C 0.82101 0.54338 0.73811
 C2573 C 0.84059 0.54832 0.74653
 C2574 C 0.84786 0.56850 0.74566
 C2575 C 0.80267 0.59513 0.72397
 C2576 C 0.79285 0.61001 0.72053
 C2577 C 0.78286 0.62863 0.71831
 C2578 C 0.77578 0.64535 0.71803
 C2579 C 0.76925 0.66602 0.71972
 C2580 C 0.74964 0.67168 0.71328
 C2581 C 0.74333 0.69167 0.71702
 C2582 C 0.75652 0.70619 0.72737
 C2583 C 0.77630 0.70020 0.73332
 C2584 C 0.78257 0.68042 0.72948
 H2585 H 0.84125 0.59915 0.73743
 H2586 H 0.79323 0.55475 0.72428
 H2587 H 0.81503 0.52795 0.73872
 H2588 H 0.86300 0.57267 0.75170
 H2589 H 0.73912 0.66060 0.70584
 H2590 H 0.72795 0.69554 0.71229
 H2591 H 0.78686 0.71050 0.74182
 H2592 H 0.79770 0.67618 0.73476
 C2593 C 0.93380 0.75367 0.15812
 C2594 C 0.93662 0.74558 0.17918
 C2595 C 0.95552 0.73743 0.18470
 C2596 C 0.97167 0.73785 0.16934
 C2597 C 0.96914 0.74664 0.14840
 C2598 C 0.94985 0.75415 0.14285
 C2599 C 0.91993 0.74606 0.19481
 C2600 C 0.90508 0.74719 0.20665
 C2601 C 0.88676 0.74910 0.21889
 C2602 C 0.87036 0.75097 0.22780
 C2603 C 0.84995 0.75323 0.23637
 C2604 C 0.84323 0.74258 0.25502
 C2605 C 0.82251 0.74252 0.26099
 C2606 C 0.80822 0.75299 0.24824
 C2607 C 0.81544 0.76443 0.23018
 C2608 C 0.83609 0.76459 0.22438
 H2609 H 0.91919 0.75980 0.15353
 H2610 H 0.95783 0.73099 0.20092
 H2611 H 0.98617 0.73178 0.17411
 H2612 H 0.94708 0.76044 0.12666
 H2613 H 0.85381 0.73363 0.26436
 H2614 H 0.81762 0.73340 0.27486
 H2615 H 0.80503 0.77262 0.21982
 H2616 H 0.84108 0.77283 0.20986
 C2617 C 0.43149 0.24994 0.65647
 C2618 C 0.43377 0.24056 0.67694
 C2619 C 0.45241 0.23175 0.68222
 C2620 C 0.46881 0.23268 0.66717
 C2621 C 0.46676 0.24258 0.64679
 C2622 C 0.44776 0.25091 0.64152
 C2623 C 0.41667 0.24023 0.69208
 C2624 C 0.40142 0.24075 0.70336
 C2625 C 0.38257 0.24210 0.71474
 C2626 C 0.36572 0.24367 0.72269
 C2627 C 0.34483 0.24584 0.72982
 C2628 C 0.33725 0.23619 0.74877
 C2629 C 0.31627 0.23638 0.75359
 C2630 C 0.30259 0.24612 0.73939
 C2631 C 0.31064 0.25638 0.72087
 C2632 C 0.33151 0.25631 0.71624
 H2633 H 0.41708 0.25661 0.65206
 H2634 H 0.45432 0.22433 0.69798
 H2635 H 0.48312 0.22602 0.67172
 H2636 H 0.44535 0.25809 0.62573
 H2637 H 0.34741 0.22791 0.75934
 H2638 H 0.31072 0.22810 0.76781
 H2639 H 0.30074 0.26387 0.70934
 H2640 H 0.33715 0.26375 0.70146
 C2641 C 0.43964 0.76562 0.82869
 C2642 C 0.43243 0.74575 0.82479
 C2643 C 0.44152 0.72969 0.83579
 C2644 C 0.45745 0.73358 0.85098
 C2645 C 0.46429 0.75361 0.85548
 C2646 C 0.45544 0.76954 0.84387
 C2647 C 0.41476 0.74229 0.81077
 C2648 C 0.39939 0.74028 0.79975
 C2649 C 0.38072 0.73878 0.78791
 C2650 C 0.36420 0.73805 0.77894
 C2651 C 0.34376 0.73770 0.76993
 C2652 C 0.33929 0.74752 0.75011
 C2653 C 0.31894 0.74919 0.74313
 C2654 C 0.30278 0.74111 0.75595
 C2655 C 0.30764 0.73081 0.77555
 C2656 C 0.32788 0.72906 0.78236
 H2657 H 0.43275 0.77818 0.82032
 H2658 H 0.43598 0.71424 0.83302
 H2659 H 0.46390 0.72105 0.85977
 H2660 H 0.46065 0.78508 0.84663
 H2661 H 0.35145 0.75448 0.74045
 H2662 H 0.31590 0.75750 0.72820
 H2663 H 0.29576 0.72453 0.78608
 H2664 H 0.33109 0.72158 0.79783
 C2665 C 0.94886 0.23674 0.32157
 C2666 C 0.93010 0.24594 0.32560
 C2667 C 0.92758 0.25775 0.34486
 C2668 C 0.94370 0.26070 0.35986
 C2669 C 0.96294 0.25191 0.35600
 C2670 C 0.96511 0.23961 0.33662
 C2671 C 0.91320 0.24349 0.31027
 C2672 C 0.89826 0.24215 0.29848
 C2673 C 0.87987 0.24122 0.28607
 C2674 C 0.86342 0.24079 0.27691
 C2675 C 0.84289 0.24059 0.26807
 C2676 C 0.82711 0.23215 0.28078
 C2677 C 0.80680 0.23405 0.27430
 C2678 C 0.80174 0.24428 0.25473
 C2679 C 0.81779 0.25208 0.24154
 C2680 C 0.83824 0.25030 0.24822
 H2681 H 0.95103 0.22756 0.30666
 H2682 H 0.91305 0.26475 0.34835
 H2683 H 0.94065 0.26954 0.37476
 H2684 H 0.97951 0.23287 0.33226
 H2685 H 0.83045 0.22472 0.29625
 H2686 H 0.79504 0.22794 0.28511
 H2687 H 0.81457 0.26026 0.22655
 H2688 H 0.85032 0.25707 0.23830
 C2689 C 0.05438 0.27135 0.32164
 C2690 C 0.06136 0.25210 0.31570
 C2691 C 0.05254 0.23491 0.32551
 C2692 C 0.03721 0.23702 0.34166
 C2693 C 0.03072 0.25638 0.34842
 C2694 C 0.03917 0.27349 0.33778
 C2695 C 0.07867 0.25035 0.30095
 C2696 C 0.09383 0.24964 0.28951
 C2697 C 0.11235 0.24958 0.27735
 C2698 C 0.12883 0.25010 0.26829
 C2699 C 0.14929 0.25136 0.25937
 C2700 C 0.16464 0.26077 0.27227
 C2701 C 0.18483 0.26118 0.26488
 C2702 C 0.19018 0.25228 0.24425
 C2703 C 0.17454 0.24322 0.23107
 C2704 C 0.15422 0.24275 0.23861
 H2705 H 0.06104 0.28479 0.31416
 H2706 H 0.05786 0.21991 0.32112
 H2707 H 0.03106 0.22354 0.34930
 H2708 H 0.03416 0.28861 0.34204
 H2709 H 0.16105 0.26750 0.28835
 H2710 H 0.19628 0.26833 0.27560
 H2711 H 0.17803 0.23608 0.21522
 H2712 H 0.14246 0.23537 0.22847
 C2713 C 0.55707 0.73611 0.83532
 C2714 C 0.56478 0.75303 0.82401
 C2715 C 0.55631 0.77206 0.82798
 C2716 C 0.54057 0.77429 0.84350
 C2717 C 0.53307 0.75750 0.85537
 C2718 C 0.54124 0.73832 0.85085
 C2719 C 0.58232 0.75133 0.80958
 C2720 C 0.59757 0.75063 0.79829
 C2721 C 0.61613 0.75057 0.78620
 C2722 C 0.63261 0.75109 0.77714
 C2723 C 0.65308 0.75235 0.76824
 C2724 C 0.66844 0.76155 0.78129
 C2725 C 0.68864 0.76198 0.77391
 C2726 C 0.69397 0.75333 0.75313
 C2727 C 0.67832 0.74449 0.73983
 C2728 C 0.65799 0.74398 0.74736
 H2729 H 0.56361 0.72132 0.83254
 H2730 H 0.56215 0.78527 0.81938
 H2731 H 0.53433 0.78920 0.84625
 H2732 H 0.53592 0.72517 0.85984
 H2733 H 0.66487 0.76809 0.79746
 H2734 H 0.70009 0.76897 0.78474
 H2735 H 0.68180 0.73753 0.72387
 H2736 H 0.64621 0.73678 0.73711
 C2737 C 0.57469 0.23469 0.65190
 C2738 C 0.57089 0.23064 0.67429
 C2739 C 0.55068 0.22811 0.68172
 C2740 C 0.53435 0.23032 0.66689
 C2741 C 0.53813 0.23535 0.64463
 C2742 C 0.55847 0.23703 0.63720
 C2743 C 0.58790 0.23087 0.68953
 C2744 C 0.60298 0.23224 0.70106
 C2745 C 0.62143 0.23509 0.71305
 C2746 C 0.63772 0.23852 0.72192
 C2747 C 0.65767 0.24371 0.73077
 C2748 C 0.66646 0.23249 0.74766
 C2749 C 0.68642 0.23714 0.75490
 C2750 C 0.69799 0.25299 0.74524
 C2751 C 0.68867 0.26435 0.72853
 C2752 C 0.66878 0.25975 0.72144
 H2753 H 0.59023 0.23669 0.64594
 H2754 H 0.54754 0.22507 0.69904
 H2755 H 0.51886 0.22908 0.67307
 H2756 H 0.56183 0.24063 0.62006
 H2757 H 0.65807 0.21990 0.75491
 H2758 H 0.69292 0.22776 0.76738
 H2759 H 0.69678 0.27663 0.72042
 H2760 H 0.66220 0.26853 0.70828
 C2761 C 0.07688 0.74486 0.15624
 C2762 C 0.07274 0.73984 0.17830
 C2763 C 0.05256 0.73546 0.18480
 C2764 C 0.03656 0.73668 0.16938
 C2765 C 0.04057 0.74250 0.14740
 C2766 C 0.06098 0.74616 0.14092
 C2767 C 0.08938 0.74001 0.19402
 C2768 C 0.10425 0.74080 0.20592
 C2769 C 0.12268 0.74223 0.21819
 C2770 C 0.13922 0.74364 0.22704
 C2771 C 0.15986 0.74532 0.23538
 C2772 C 0.16460 0.75591 0.25521
 C2773 C 0.18508 0.75884 0.26175
 C2774 C 0.20105 0.75122 0.24849
 C2775 C 0.19592 0.74045 0.22872
 C2776 C 0.17559 0.73745 0.22236
 H2777 H 0.09243 0.74815 0.15094
 H2778 H 0.04916 0.73152 0.20184
 H2779 H 0.02107 0.73385 0.17490
 H2780 H 0.06464 0.75029 0.12401
 H2781 H 0.15255 0.76230 0.26532
 H2782 H 0.18836 0.76752 0.27680
 H2783 H 0.20762 0.73444 0.21786
 H2784 H 0.17217 0.72938 0.20689
   
