data_POSCAR
  _audit_creation_date              2014-09-24
  _audit_creation_method            'ToBaCCo'
  _symmetry_space_group_name_H-M    'P1'
  _symmetry_Int_Tables_number       1
  _symmetry_cell_setting            triclinic
  loop_
  _symmetry_equiv_pos_as_xyz
 x,y,z
_cell_length_a 54.1510
_cell_length_b 51.2786
_cell_length_c 50.2164
_cell_angle_alpha 89.772700
_cell_angle_beta 90.145000
_cell_angle_gamma 89.980900
loop_
  _atom_site_label
  _atom_site_type_symbol
  _atom_site_fract_x
  _atom_site_fract_y
  _atom_site_fract_z
O1 O 0.33943 0.37480 0.03111
 O2 O 0.36728 0.32958 -0.01726
 O3 O 0.33759 0.36916 -0.02055
 O4 O 0.37042 0.33636 0.03405
 O5 O 0.33960 0.30845 0.03833
 O6 O 0.30544 0.34345 -0.01467
 O7 O 0.33544 0.30308 -0.01261
 O8 O 0.30832 0.34750 0.03654
 Cu9 Cu 0.35680 0.35518 0.00630
 Cu10 Cu 0.31902 0.32293 0.01239
 C11 C 0.31905 0.36882 0.04206
 C12 C 0.35616 0.30850 -0.02303
 C13 C 0.31577 0.36237 -0.02676
 C14 C 0.36086 0.31657 0.04518
 O15 O 0.66287 0.62838 0.01709
 O16 O 0.62913 0.65792 -0.03880
 O17 O 0.66228 0.62125 -0.03442
 O18 O 0.63166 0.66628 0.01244
 O19 O 0.66179 0.69469 0.00640
 O20 O 0.69233 0.64976 -0.03960
 O21 O 0.65897 0.68675 -0.04427
 O22 O 0.69341 0.65639 0.01148
 Cu23 Cu 0.64347 0.64059 -0.01046
 Cu24 Cu 0.67966 0.67470 -0.01713
 C25 C 0.68383 0.63724 0.02386
 C26 C 0.63799 0.67760 -0.05082
 C27 C 0.68282 0.62772 -0.04480
 C28 C 0.64155 0.68826 0.01725
 O29 O 0.68032 0.35972 0.98896
 O30 O 0.65140 0.31326 1.03565
 O31 O 0.68630 0.34886 1.03922
 O32 O 0.64531 0.32602 0.98583
 O33 O 0.67233 0.29540 0.97550
 O34 O 0.71423 0.31968 1.02799
 O35 O 0.67927 0.28369 1.02512
 O36 O 0.70785 0.32974 0.97827
 Cu37 Cu 0.66309 0.33989 1.01378
 Cu38 Cu 0.69616 0.30404 1.00082
 C39 C 0.69904 0.35255 0.97565
 C40 C 0.66003 0.29029 1.03781
 C41 C 0.70769 0.33903 1.04210
 C42 C 0.65179 0.30684 0.97159
 O43 O 0.33952 0.62119 0.96870
 O44 O 0.36935 0.66581 1.01650
 O45 O 0.33987 0.62628 1.02051
 O46 O 0.37084 0.65944 0.96519
 O47 O 0.34013 0.68772 0.96234
 O48 O 0.30781 0.65249 1.01652
 O49 O 0.33758 0.69269 1.01306
 O50 O 0.30849 0.64883 0.96480
 Cu51 Cu 0.35798 0.64040 0.99307
 Cu52 Cu 0.32024 0.67303 0.98876
 C53 C 0.31880 0.62749 0.95858
 C54 C 0.35861 0.68700 1.02264
 C55 C 0.31856 0.63344 1.02805
 C56 C 0.36115 0.67958 0.95481
 O57 O -0.02133 0.36239 0.31090
 O58 O 0.02574 0.33188 0.35402
 O59 O 0.02672 0.36154 0.31195
 O60 O -0.02264 0.33322 0.35303
 O61 O -0.02267 0.29804 0.32799
 O62 O 0.02592 0.32697 0.28587
 O63 O 0.02566 0.29707 0.32838
 O64 O -0.02159 0.32741 0.28540
 Cu65 Cu 0.00220 0.35069 0.33511
 Cu66 Cu 0.00185 0.30875 0.30451
 C67 C -0.02935 0.35019 0.29067
 C68 C 0.03387 0.30930 0.34850
 C69 C 0.03439 0.34936 0.29162
 C70 C -0.03131 0.31086 0.34752
 O71 O 0.02745 0.67792 0.65159
 O72 O -0.02018 0.64687 0.69320
 O73 O -0.02075 0.67714 0.65171
 O74 O 0.02765 0.64707 0.69294
 O75 O 0.02709 0.68097 0.71989
 O76 O -0.02016 0.71199 0.67723
 O77 O -0.02050 0.68132 0.71943
 O78 O 0.02747 0.71213 0.67814
 Cu79 Cu 0.00360 0.65886 0.66967
 Cu80 Cu 0.00346 0.70008 0.70129
 C81 C 0.03540 0.70046 0.65761
 C82 C -0.02820 0.65863 0.71366
 C83 C -0.02852 0.69989 0.65707
 C84 C 0.03519 0.65851 0.71381
 O85 O 1.02132 0.64020 0.32772
 O86 O 0.97677 0.67030 0.37406
 O87 O 0.97343 0.63790 0.33476
 O88 O 1.02461 0.67059 0.36878
 O89 O 1.01988 0.70501 0.34285
 O90 O 0.97008 0.67079 0.30642
 O91 O 0.97247 0.70339 0.34619
 O92 O 1.01753 0.67419 0.30086
 Cu93 Cu 0.99947 0.65133 0.35397
 Cu94 Cu 0.99471 0.69168 0.32128
 C95 C 1.02687 0.65212 0.30630
 C96 C 0.96710 0.69215 0.36797
 C97 C 0.96309 0.64858 0.31483
 C98 C 1.03062 0.69368 0.36231
 O99 O 1.01840 0.36533 0.65569
 O100 O 0.97373 0.32074 0.62382
 O101 O 0.97037 0.35873 0.65770
 O102 O 1.02075 0.32988 0.61952
 O103 O 1.02534 0.29915 0.64996
 O104 O 0.97710 0.33108 0.69074
 O105 O 0.97896 0.29260 0.65676
 O106 O 1.02508 0.33570 0.68685
 Cu107 Cu 0.99513 0.34665 0.63611
 Cu108 Cu 1.00232 0.31191 0.67446
 C109 C 1.02966 0.35782 0.67661
 C110 C 0.96900 0.29888 0.63477
 C111 C 0.96515 0.35011 0.68070
 C112 C 1.03119 0.30914 0.62757
 O113 O 0.36138 0.01691 0.33136
 O114 O 0.32775 -0.03628 0.36387
 O115 O 0.36678 -0.03375 0.33442
 O116 O 0.32117 0.01363 0.35963
 O117 O 0.29901 0.00861 0.32304
 O118 O 0.34393 -0.03926 0.29844
 O119 O 0.30426 -0.04082 0.32811
 O120 O 0.33974 0.01115 0.29453
 Cu121 Cu 0.34662 -0.00924 0.35087
 Cu122 Cu 0.31960 -0.01555 0.30726
 C123 C 0.35660 0.02294 0.30738
 C124 C 0.30993 -0.04717 0.35184
 C125 C 0.36297 -0.04479 0.31216
 C126 C 0.30200 0.01870 0.34587
 O127 O 0.62946 0.03462 0.65973
 O128 O 0.66455 -0.01981 0.63138
 O129 O 0.63271 -0.01503 0.66999
 O130 O 0.66208 0.03041 0.62246
 O131 O 0.69184 0.03770 0.65158
 O132 O 0.66302 -0.00821 0.69859
 O133 O 0.69501 -0.01232 0.65962
 O134 O 0.65898 0.04098 0.68948
 Cu135 Cu 0.64424 0.00674 0.64296
 Cu136 Cu 0.68032 0.01518 0.67764
 C137 C 0.63805 0.04679 0.67965
 C138 C 0.68589 -0.02516 0.64036
 C139 C 0.64267 -0.01902 0.69260
 C140 C 0.68193 0.04199 0.62903
 O141 O 0.36586 0.98193 0.66390
 O142 O 0.33351 1.03829 0.63553
 O143 O 0.36530 1.03206 0.67392
 O144 O 0.33183 0.98798 0.62791
 O145 O 0.30248 0.98328 0.65796
 O146 O 0.33540 1.02705 0.70330
 O147 O 0.30330 1.03319 0.66454
 O148 O 0.33676 0.97737 0.69429
 Cu149 Cu 0.35211 1.01056 0.64738
 Cu150 Cu 0.31655 1.00479 0.68303
 C151 C 0.35703 0.97011 0.68395
 C152 C 0.31274 1.04513 0.64478
 C153 C 0.35597 1.03689 0.69661
 C154 C 0.31129 0.97823 0.63518
 O155 O 0.61823 0.96099 0.35343
 O156 O 0.65139 1.01444 0.38629
 O157 O 0.61583 1.01188 0.35200
 O158 O 0.65401 0.96375 0.38786
 O159 O 0.68106 0.96420 0.35503
 O160 O 0.64317 1.01300 0.31953
 O161 O 0.67924 1.01424 0.35435
 O162 O 0.64484 0.96215 0.32024
 Cu163 Cu 0.63210 0.98764 0.37312
 Cu164 Cu 0.66470 0.98843 0.33388
 C165 C 0.62574 0.95255 0.33114
 C166 C 0.67124 1.02325 0.37625
 C167 C 0.62307 1.02087 0.32975
 C168 C 0.67420 0.95604 0.37775
 O169 O 0.84139 0.88320 0.53543
 O170 O 0.87561 0.84775 0.48403
 O171 O 0.83930 0.88088 0.48375
 O172 O 0.87702 0.84965 0.53607
 O173 O 0.85040 0.81707 0.53802
 O174 O 0.81235 0.84868 0.48640
 O175 O 0.84908 0.81515 0.48652
 O176 O 0.81432 0.85108 0.53776
 Cu177 Cu 0.86107 0.86856 0.50952
 Cu178 Cu 0.82886 0.82971 0.51239
 C179 C 0.82191 0.87335 0.54523
 C180 C 0.86834 0.82540 0.47658
 C181 C 0.81919 0.87030 0.47644
 C182 C 0.87013 0.82799 0.54591
 O183 O 0.13857 0.15998 0.46038
 O184 O 0.16909 0.12823 0.51706
 O185 O 0.13245 0.15969 0.51221
 O186 O 0.17754 0.12989 0.46614
 O187 O 0.20172 0.16420 0.47098
 O188 O 0.15682 0.19403 0.51601
 O189 O 0.19379 0.16218 0.52173
 O190 O 0.16248 0.19453 0.46501
 Cu191 Cu 0.15193 0.14108 0.48821
 Cu192 Cu 0.18118 0.18216 0.49366
 C193 C 0.14482 0.18283 0.45335
 C194 C 0.18653 0.13970 0.52916
 C195 C 0.13720 0.18193 0.52210
 C196 C 0.19772 0.14174 0.46141
 O197 O 0.11979 0.85287 0.52920
 O198 O 0.15449 0.88444 0.47503
 O199 O 0.11895 0.85109 0.47713
 O200 O 0.15527 0.88700 0.52690
 O201 O 0.18317 0.85558 0.52743
 O202 O 0.14582 0.81872 0.47880
 O203 O 0.18165 0.85233 0.47609
 O204 O 0.14720 0.82103 0.53050
 Cu205 Cu 0.13436 0.87204 0.50207
 Cu206 Cu 0.16717 0.83366 0.50346
 C207 C 0.12748 0.83148 0.53900
 C208 C 0.17396 0.87369 0.46624
 C209 C 0.12623 0.82886 0.46934
 C210 C 0.17558 0.87769 0.53531
 O211 O 0.82388 0.13658 0.46227
 O212 O 0.85610 0.18204 0.50730
 O213 O 0.82485 0.14390 0.51365
 O214 O 0.85703 0.17255 0.45649
 O215 O 0.82754 0.20208 0.45211
 O216 O 0.79402 0.17168 0.50836
 O217 O 0.82561 0.21030 0.50262
 O218 O 0.79384 0.16544 0.45751
 Cu219 Cu 0.84347 0.15590 0.48548
 Cu220 Cu 0.80721 0.19024 0.47964
 C221 C 0.80316 0.14331 0.45249
 C222 C 0.84647 0.20411 0.51229
 C223 C 0.80382 0.15244 0.52046
 C224 C 0.84810 0.19244 0.44491
 O225 O 0.47543 0.86760 0.82669
 O226 O 0.52866 0.83282 0.85469
 O227 O 0.52247 0.86638 0.81607
 O228 O 0.48088 0.83255 0.86320
 O229 O 0.47544 0.80123 0.83377
 O230 O 0.51720 0.83444 0.78728
 O231 O 0.52300 0.80058 0.82633
 O232 O 0.47038 0.83658 0.79676
 Cu233 Cu 0.50254 0.85293 0.84312
 Cu234 Cu 0.49608 0.81497 0.80816
 C235 C 0.46390 0.85822 0.80690
 C236 C 0.53482 0.81071 0.84561
 C237 C 0.52657 0.85629 0.79341
 C238 C 0.47076 0.81123 0.85628
 O239 O 0.52730 0.17017 0.13671
 O240 O 0.48130 0.12371 0.16319
 O241 O 0.47967 0.16331 0.13122
 O242 O 0.52900 0.12916 0.16755
 O243 O 0.52257 0.15411 0.20259
 O244 O 0.47414 0.18969 0.16534
 O245 O 0.47521 0.14977 0.19741
 O246 O 0.52134 0.19559 0.17148
 Cu247 Cu 0.50503 0.14407 0.14618
 Cu248 Cu 0.49785 0.17489 0.18768
 C249 C 0.53196 0.19096 0.14950
 C250 C 0.47032 0.12894 0.18488
 C251 C 0.46846 0.18225 0.14200
 C252 C 0.53387 0.13536 0.19143
 O253 O 0.51860 0.14744 0.82542
 O254 O 0.47274 0.19197 0.85465
 O255 O 0.47204 0.15630 0.81692
 O256 O 0.51939 0.18146 0.86260
 O257 O 0.52908 0.21206 0.83337
 O258 O 0.48190 0.18632 0.78723
 O259 O 0.48271 0.22211 0.82511
 O260 O 0.52813 0.17761 0.79563
 Cu261 Cu 0.49438 0.16636 0.84287
 Cu262 Cu 0.50621 0.20267 0.80739
 C263 C 0.53124 0.15503 0.80557
 C264 C 0.47038 0.21491 0.84530
 C265 C 0.46946 0.16633 0.79391
 C266 C 0.53258 0.20077 0.85565
 O267 O 0.47948 0.79859 0.14416
 O268 O 0.52652 0.84084 0.17477
 O269 O 0.52716 0.79952 0.14466
 O270 O 0.47832 0.84032 0.17312
 O271 O 0.47821 0.81608 0.20956
 O272 O 0.52661 0.77424 0.18035
 O273 O 0.52614 0.81600 0.21075
 O274 O 0.47921 0.77379 0.18022
 Cu275 Cu 0.50296 0.82240 0.15565
 Cu276 Cu 0.50257 0.79265 0.19894
 C277 C 0.47171 0.77869 0.15676
 C278 C 0.53417 0.83574 0.19815
 C279 C 0.53470 0.77947 0.15718
 C280 C 0.46994 0.83529 0.19615
 O281 O 0.84027 0.47209 0.87113
 O282 O 0.86844 0.51993 0.82551
 O283 O 0.83581 0.52225 0.86312
 O284 O 0.87365 0.47009 0.83419
 O285 O 0.84445 0.46241 0.80449
 O286 O 0.80618 0.51439 0.83390
 O287 O 0.83930 0.51195 0.79580
 O288 O 0.81069 0.46491 0.84168
 Cu289 Cu 0.85746 0.49687 0.85147
 Cu290 Cu 0.82222 0.48765 0.81597
 C291 C 0.82052 0.46055 0.86423
 C292 C 0.85881 0.52388 0.80274
 C293 C 0.81453 0.52708 0.85365
 C294 C 0.86564 0.45747 0.81425
 O295 O 0.17719 0.48568 0.14812
 O296 O 0.14750 0.53484 0.19057
 O297 O 0.17622 0.53662 0.14877
 O298 O 0.14815 0.48436 0.18904
 O299 O 0.18044 0.48466 0.21601
 O300 O 0.20903 0.53605 0.17495
 O301 O 0.18005 0.53475 0.21712
 O302 O 0.20980 0.48564 0.17459
 Cu303 Cu 0.15905 0.51050 0.16639
 Cu304 Cu 0.19816 0.51037 0.19827
 C305 C 0.19857 0.47729 0.15410
 C306 C 0.15840 0.54262 0.21151
 C307 C 0.19765 0.54485 0.15467
 C308 C 0.15927 0.47595 0.20966
 O309 O 0.82671 0.52534 0.13319
 O310 O 0.85492 0.47747 0.17871
 O311 O 0.81899 0.47610 0.14390
 O312 O 0.86174 0.52678 0.16864
 O313 O 0.83477 0.53705 0.19978
 O314 O 0.79218 0.48701 0.17497
 O315 O 0.82830 0.48824 0.21001
 O316 O 0.79954 0.53568 0.16411
 Cu317 Cu 0.84325 0.50029 0.15298
 Cu318 Cu 0.81098 0.51299 0.19032
 C319 C 0.80821 0.53856 0.14078
 C320 C 0.84681 0.47505 0.20229
 C321 C 0.79808 0.47325 0.15501
 C322 C 0.85559 0.54035 0.18870
 O323 O 0.16946 0.51666 0.86093
 O324 O 0.13455 0.46473 0.82794
 O325 O 0.16745 0.46600 0.86559
 O326 O 0.13771 0.51521 0.82225
 O327 O 0.16779 0.51067 0.79301
 O328 O 0.19735 0.46179 0.83609
 O329 O 0.16401 0.46079 0.79784
 O330 O 0.19990 0.51200 0.83214
 Cu331 Cu 0.14929 0.49108 0.84713
 Cu332 Cu 0.18530 0.48581 0.81185
 C333 C 0.19065 0.52309 0.85240
 C334 C 0.14307 0.45421 0.80708
 C335 C 0.18768 0.45575 0.85827
 C336 C 0.14762 0.52111 0.80011
 C337 C 0.28178 0.38624 0.06508
 C338 C 0.27043 0.40377 0.08258
 C339 C 0.28501 0.42182 0.09690
 C340 C 0.31066 0.42230 0.09306
 C341 C 0.32175 0.40516 0.07510
 C342 C 0.30745 0.38691 0.06110
 C343 C 0.27370 0.43924 0.11457
 C344 C 0.24794 0.43929 0.11758
 C345 C 0.23333 0.42163 0.10277
 C346 C 0.24469 0.40376 0.08565
 C347 C 0.20755 0.42234 0.10509
 C348 C 0.19628 0.44051 0.12176
 C349 C 0.21061 0.45788 0.13683
 C350 C 0.23648 0.45703 0.13482
 H351 H 0.27055 0.37244 0.05410
 H352 H 0.32212 0.43607 0.10377
 H353 H 0.34157 0.40598 0.07235
 H354 H 0.28490 0.45298 0.12568
 H355 H 0.23349 0.39012 0.07443
 H356 H 0.19608 0.40903 0.09380
 H357 H 0.17632 0.44085 0.12306
 H358 H 0.24763 0.47063 0.14613
 C359 C 0.72295 0.62260 0.04591
 C360 C 0.73527 0.60857 0.06605
 C361 C 0.72158 0.59751 0.08725
 C362 C 0.69587 0.60050 0.08786
 C363 C 0.68372 0.61371 0.06732
 C364 C 0.69709 0.62478 0.04620
 C365 C 0.73369 0.58302 0.10709
 C366 C 0.75920 0.57861 0.10554
 C367 C 0.77287 0.58937 0.08420
 C368 C 0.76090 0.60468 0.06485
 C369 C 0.79820 0.58406 0.08220
 C370 C 0.80975 0.56773 0.10078
 C371 C 0.79631 0.55696 0.12204
 C372 C 0.77110 0.56285 0.12455
 H373 H 0.73332 0.63082 0.02946
 H374 H 0.68510 0.59210 0.10390
 H375 H 0.66377 0.61528 0.06791
 H376 H 0.72315 0.57453 0.12330
 H377 H 0.77139 0.61290 0.04847
 H378 H 0.80897 0.59208 0.06595
 H379 H 0.82923 0.56348 0.09852
 H380 H 0.76053 0.55435 0.14071
 C381 C 0.73672 0.37073 0.95425
 C382 C 0.74832 0.38838 0.93694
 C383 C 0.73385 0.40590 0.92166
 C384 C 0.70810 0.40602 0.92464
 C385 C 0.69676 0.38890 0.94254
 C386 C 0.71095 0.37096 0.95718
 C387 C 0.74535 0.42311 0.90383
 C388 C 0.77117 0.42355 0.90167
 C389 C 0.78569 0.40671 0.91769
 C390 C 0.77415 0.38896 0.93493
 C391 C 0.81153 0.40806 0.91631
 C392 C 0.82291 0.42588 0.89917
 C393 C 0.80862 0.44210 0.88267
 C394 C 0.78275 0.44081 0.88394
 H395 H 0.74776 0.35715 0.96586
 H396 H 0.69674 0.41945 0.91324
 H397 H 0.67686 0.38931 0.94459
 H398 H 0.73425 0.43633 0.89186
 H399 H 0.78526 0.37581 0.94697
 H400 H 0.82293 0.39544 0.92858
 H401 H 0.84288 0.42668 0.89842
 H402 H 0.77168 0.45364 0.87151
 C403 C 0.28090 0.61289 0.93448
 C404 C 0.26844 0.59562 0.91756
 C405 C 0.28154 0.57515 0.90518
 C406 C 0.30691 0.57227 0.91013
 C407 C 0.31911 0.58929 0.92745
 C408 C 0.30623 0.60974 0.93977
 C409 C 0.26898 0.55768 0.88847
 C410 C 0.24337 0.56002 0.88462
 C411 C 0.23030 0.58038 0.89732
 C412 C 0.24297 0.59824 0.91336
 C413 C 0.20463 0.58220 0.89428
 C414 C 0.19188 0.56368 0.87935
 C415 C 0.20461 0.54341 0.86663
 C416 C 0.23044 0.54192 0.86893
 H417 H 0.27070 0.62844 0.94405
 H418 H 0.31726 0.55667 0.90087
 H419 H 0.33864 0.58650 0.93117
 H420 H 0.27900 0.54195 0.87898
 H421 H 0.23290 0.61382 0.92306
 H422 H 0.19436 0.59763 0.90393
 H423 H 0.17197 0.56516 0.87775
 H424 H 0.24031 0.52608 0.85943
 C425 C 0.05905 0.27063 0.36289
 C426 C 0.07667 0.25890 0.37968
 C427 C 0.08874 0.27399 0.39930
 C428 C 0.08299 0.30052 0.40177
 C429 C 0.06520 0.31195 0.38523
 C430 C 0.05300 0.29716 0.36569
 C431 C 0.10603 0.26222 0.41643
 C432 C 0.11093 0.23541 0.41465
 C433 C 0.09878 0.22032 0.39506
 C434 C 0.08199 0.23222 0.37749
 C435 C 0.10308 0.19340 0.39386
 C436 C 0.11862 0.18136 0.41242
 C437 C 0.13062 0.19609 0.43211
 C438 C 0.12714 0.22324 0.43275
 H439 H 0.04974 0.25895 0.34798
 H440 H 0.09204 0.31238 0.41670
 H441 H 0.06100 0.33244 0.38775
 H442 H 0.11519 0.27379 0.43156
 H443 H 0.07263 0.22060 0.36255
 H444 H 0.09391 0.18154 0.37901
 H445 H 0.12106 0.16041 0.41160
 H446 H 0.13604 0.23468 0.44814
 C447 C 0.05418 0.74097 0.63881
 C448 C 0.06980 0.75366 0.62067
 C449 C 0.08552 0.73880 0.60416
 C450 C 0.08516 0.71149 0.60596
 C451 C 0.06903 0.69900 0.62355
 C452 C 0.05342 0.71359 0.64009
 C453 C 0.10091 0.75143 0.58574
 C454 C 0.10023 0.77867 0.58305
 C455 C 0.08424 0.79348 0.59931
 C456 C 0.06942 0.78092 0.61829
 C457 C 0.08299 0.82061 0.59595
 C458 C 0.09713 0.83294 0.57639
 C459 C 0.11316 0.81845 0.56022
 C460 C 0.11485 0.79131 0.56389
 H461 H 0.04194 0.75237 0.65124
 H462 H 0.09702 0.69979 0.59341
 H463 H 0.06874 0.67789 0.62423
 H464 H 0.11297 0.74003 0.57309
 H465 H 0.05718 0.79230 0.63076
 H466 H 0.07079 0.83224 0.60819
 H467 H 0.09559 0.85388 0.57395
 H468 H 0.12697 0.77994 0.55129
 C469 C 0.94594 0.73212 0.38441
 C470 C 0.93026 0.74496 0.40222
 C471 C 0.91775 0.73056 0.42209
 C472 C 0.92146 0.70351 0.42395
 C473 C 0.93756 0.69092 0.40642
 C474 C 0.94984 0.70509 0.38646
 C475 C 0.90206 0.74349 0.43994
 C476 C 0.89928 0.77070 0.43857
 C477 C 0.91221 0.78507 0.41894
 C478 C 0.92732 0.77208 0.40069
 C479 C 0.91017 0.81230 0.41814
 C480 C 0.89577 0.82530 0.43687
 C481 C 0.88269 0.81128 0.45632
 C482 C 0.88424 0.78391 0.45688
 H483 H 0.95555 0.74330 0.36928
 H484 H 0.91211 0.69215 0.43911
 H485 H 0.94027 0.67007 0.40835
 H486 H 0.89239 0.73246 0.45516
 H487 H 0.93714 0.78313 0.38559
 H488 H 0.92002 0.82358 0.40328
 H489 H 0.89476 0.84639 0.43610
 H490 H 0.87443 0.77303 0.47209
 C491 C 0.93478 0.28844 0.60288
 C492 C 0.91991 0.27020 0.58955
 C493 C 0.92319 0.24324 0.59454
 C494 C 0.94065 0.23501 0.61339
 C495 C 0.95503 0.25327 0.62690
 C496 C 0.95248 0.28006 0.62152
 C497 C 0.90913 0.22491 0.58048
 C498 C 0.89152 0.23318 0.56178
 C499 C 0.88757 0.26016 0.55750
 C500 C 0.90192 0.27849 0.57125
 C501 C 0.86945 0.26834 0.53935
 C502 C 0.85564 0.25001 0.52523
 C503 C 0.85997 0.22318 0.52871
 C504 C 0.87787 0.21488 0.54715
 H505 H 0.93256 0.30909 0.59879
 H506 H 0.94332 0.21445 0.61757
 H507 H 0.96864 0.24635 0.64111
 H508 H 0.91195 0.20424 0.58402
 H509 H 0.89915 0.29916 0.56765
 H510 H 0.86607 0.28892 0.53592
 H511 H 0.84200 0.25684 0.51102
 H512 H 0.88116 0.19421 0.55010
 C513 C 0.37690 0.04212 0.26715
 C514 C 0.39300 0.06035 0.25551
 C515 C 0.40283 0.08075 0.27119
 C516 C 0.39652 0.08254 0.29816
 C517 C 0.38112 0.06391 0.30973
 C518 C 0.37128 0.04354 0.29440
 C519 C 0.41927 0.09870 0.25989
 C520 C 0.42657 0.09616 0.23328
 C521 C 0.41699 0.07568 0.21759
 C522 C 0.40001 0.05807 0.22871
 C523 C 0.42488 0.07296 0.19115
 C524 C 0.44227 0.09022 0.18046
 C525 C 0.45182 0.11068 0.19591
 C526 C 0.44370 0.11359 0.22230
 H527 H 0.36961 0.02622 0.25532
 H528 H 0.40392 0.09802 0.31045
 H529 H 0.37695 0.06533 0.33076
 H530 H 0.42678 0.11432 0.27196
 H531 H 0.39266 0.04233 0.21670
 H532 H 0.41778 0.05736 0.17882
 H533 H 0.44817 0.08761 0.16005
 H534 H 0.45104 0.12918 0.23450
 C535 C 0.62090 0.06838 0.71974
 C536 C 0.60484 0.08635 0.73157
 C537 C 0.59171 0.10431 0.71539
 C538 C 0.59455 0.10363 0.68765
 C539 C 0.60984 0.08498 0.67600
 C540 C 0.62313 0.06736 0.69195
 C541 C 0.57551 0.12218 0.72712
 C542 C 0.57153 0.12167 0.75470
 C543 C 0.58416 0.10328 0.77080
 C544 C 0.60109 0.08607 0.75919
 C545 C 0.57928 0.10210 0.79819
 C546 C 0.56188 0.11882 0.80950
 C547 C 0.54957 0.13739 0.79371
 C548 C 0.55465 0.13889 0.76635
 H549 H 0.63083 0.05441 0.73202
 H550 H 0.58453 0.11712 0.67496
 H551 H 0.61136 0.08431 0.65450
 H552 H 0.56555 0.13603 0.71474
 H553 H 0.61086 0.07204 0.77155
 H554 H 0.58868 0.08805 0.81080
 H555 H 0.55823 0.11747 0.83066
 H556 H 0.54495 0.15298 0.75402
 C557 C 0.37138 0.94417 0.72320
 C558 C 0.38709 0.92531 0.73446
 C559 C 0.40173 0.90946 0.71773
 C560 C 0.40037 0.91273 0.69004
 C561 C 0.38539 0.93217 0.67907
 C562 C 0.37095 0.94813 0.69553
 C563 C 0.41816 0.89131 0.72892
 C564 C 0.42097 0.88960 0.75664
 C565 C 0.40645 0.90558 0.77337
 C566 C 0.38923 0.92290 0.76220
 C567 C 0.41007 0.90467 0.80100
 C568 C 0.42850 0.88883 0.81190
 C569 C 0.44313 0.87307 0.79544
 C570 C 0.43887 0.87302 0.76786
 H571 H 0.36052 0.95669 0.73599
 H572 H 0.41148 0.90081 0.67692
 H573 H 0.38522 0.93492 0.65767
 H574 H 0.42947 0.87929 0.71606
 H575 H 0.37822 0.93523 0.77505
 H576 H 0.39916 0.91679 0.81412
 H577 H 0.43149 0.88903 0.83323
 H578 H 0.45034 0.86113 0.75505
 C579 C 0.61303 0.92865 0.28998
 C580 C 0.59873 0.90959 0.27715
 C581 C 0.58367 0.89272 0.29244
 C582 C 0.58302 0.89529 0.32020
 C583 C 0.59683 0.91469 0.33272
 C584 C 0.61189 0.93153 0.31777
 C585 C 0.56910 0.87389 0.27974
 C586 C 0.56883 0.87220 0.25189
 C587 C 0.58365 0.88923 0.23654
 C588 C 0.59878 0.90758 0.24928
 C589 C 0.58265 0.88797 0.20865
 C590 C 0.56675 0.87038 0.19610
 C591 C 0.55197 0.85339 0.21122
 C592 C 0.55340 0.85417 0.23914
 H593 H 0.62442 0.94174 0.27828
 H594 H 0.57155 0.88255 0.33220
 H595 H 0.59576 0.91650 0.35417
 H596 H 0.55756 0.86098 0.29150
 H597 H 0.61015 0.92065 0.23751
 H598 H 0.59383 0.90090 0.19656
 H599 H 0.56596 0.87009 0.17455
 H600 H 0.54184 0.84136 0.25099
 C601 C 0.38494 0.29825 0.93952
 C602 C 0.39689 0.28021 0.92298
 C603 C 0.39191 0.25326 0.92589
 C604 C 0.37436 0.24494 0.94454
 C605 C 0.36224 0.26305 0.96059
 C606 C 0.36772 0.28977 0.95855
 C607 C 0.40477 0.23508 0.91038
 C608 C 0.42240 0.24350 0.89182
 C609 C 0.42662 0.27050 0.88815
 C610 C 0.41393 0.28866 0.90382
 C611 C 0.44381 0.27888 0.86915
 C612 C 0.45729 0.26071 0.85450
 C613 C 0.45401 0.23382 0.85874
 C614 C 0.43622 0.22534 0.87720
 H615 H 0.38908 0.31886 0.93763
 H616 H 0.37019 0.22439 0.94693
 H617 H 0.34907 0.25608 0.97516
 H618 H 0.40129 0.21440 0.91300
 H619 H 0.41753 0.30934 0.90133
 H620 H 0.44715 0.29949 0.86595
 H621 H 0.47091 0.26776 0.84046
 H622 H 0.43341 0.20465 0.88049
 C623 C 0.62566 0.71727 0.92326
 C624 C 0.60934 0.73014 0.90582
 C625 C 0.59093 0.71576 0.89227
 C626 C 0.58930 0.68874 0.89623
 C627 C 0.60509 0.67624 0.91424
 C628 C 0.62320 0.69039 0.92810
 C629 C 0.57388 0.72872 0.87578
 C630 C 0.57441 0.75599 0.87345
 C631 C 0.59285 0.77034 0.88700
 C632 C 0.61047 0.75730 0.90266
 C633 C 0.59285 0.79763 0.88543
 C634 C 0.57423 0.81065 0.87144
 C635 C 0.55562 0.79664 0.85820
 C636 C 0.55617 0.76924 0.85872
 H637 H 0.63938 0.72839 0.93412
 H638 H 0.57531 0.67740 0.88603
 H639 H 0.60293 0.65549 0.91761
 H640 H 0.55965 0.71768 0.86558
 H641 H 0.62445 0.76837 0.91321
 H642 H 0.60682 0.80894 0.89568
 H643 H 0.57423 0.83177 0.87118
 H644 H 0.54172 0.75830 0.84879
 C645 C 0.38604 0.69696 0.06137
 C646 C 0.39848 0.71496 0.07756
 C647 C 0.39637 0.74197 0.07213
 C648 C 0.38102 0.75057 0.05138
 C649 C 0.36822 0.73257 0.03581
 C650 C 0.37096 0.70569 0.04038
 C651 C 0.40981 0.75994 0.08732
 C652 C 0.42505 0.75130 0.10816
 C653 C 0.42625 0.72440 0.11442
 C654 C 0.41312 0.70638 0.09895
 C655 C 0.44092 0.71596 0.13582
 C656 C 0.45487 0.73388 0.15035
 C657 C 0.45467 0.76046 0.14347
 C658 C 0.43943 0.76911 0.12257
 H659 H 0.38796 0.67621 0.06512
 H660 H 0.37904 0.77119 0.04707
 H661 H 0.35672 0.73963 0.01964
 H662 H 0.40859 0.78060 0.08277
 H663 H 0.41445 0.68571 0.10340
 H664 H 0.44192 0.69546 0.14104
 H665 H 0.46658 0.72679 0.16633
 H666 H 0.43902 0.78964 0.11732
 C667 C 0.62855 0.27819 0.07228
 C668 C 0.61427 0.25935 0.08555
 C669 C 0.61821 0.23257 0.08039
 C670 C 0.63703 0.22507 0.06292
 C671 C 0.65129 0.24391 0.04999
 C672 C 0.64688 0.27062 0.05409
 C673 C 0.60302 0.21375 0.09237
 C674 C 0.58406 0.22134 0.10967
 C675 C 0.58078 0.24805 0.11569
 C676 C 0.59582 0.26689 0.10350
 C677 C 0.56230 0.25552 0.13358
 C678 C 0.54687 0.23679 0.14504
 C679 C 0.54939 0.21030 0.13849
 C680 C 0.56816 0.20267 0.12089
 H681 H 0.62509 0.29873 0.07573
 H682 H 0.64042 0.20464 0.05886
 H683 H 0.66523 0.23754 0.03602
 H684 H 0.60576 0.19326 0.08800
 H685 H 0.59296 0.28739 0.10774
 H686 H 0.55962 0.27587 0.13855
 H687 H 0.53251 0.24311 0.15852
 H688 H 0.57039 0.18224 0.11597
 C689 C 0.27326 0.06563 0.63000
 C690 C 0.26047 0.08329 0.61359
 C691 C 0.27365 0.10270 0.59943
 C692 C 0.29936 0.10432 0.60223
 C693 C 0.31203 0.08607 0.61782
 C694 C 0.29913 0.06640 0.63148
 C695 C 0.26110 0.11938 0.58181
 C696 C 0.23572 0.11617 0.57728
 C697 C 0.22254 0.09682 0.59154
 C698 C 0.23489 0.08091 0.61002
 C699 C 0.19739 0.09298 0.58629
 C700 C 0.18562 0.10740 0.56635
 C701 C 0.19862 0.12634 0.55175
 C702 C 0.22353 0.13116 0.55781
 H703 H 0.26325 0.05027 0.64021
 H704 H 0.30977 0.11905 0.59155
 H705 H 0.33199 0.08699 0.61879
 H706 H 0.27127 0.13407 0.57076
 H707 H 0.22480 0.06590 0.62070
 H708 H 0.18701 0.07827 0.59703
 H709 H 0.16635 0.10353 0.56211
 H710 H 0.23372 0.14559 0.54646
 C711 C 0.70892 0.04887 0.38211
 C712 C 0.72271 0.06719 0.39654
 C713 C 0.71160 0.08064 0.41792
 C714 C 0.68720 0.07498 0.42504
 C715 C 0.67395 0.05590 0.41137
 C716 C 0.68453 0.04272 0.38963
 C717 C 0.72517 0.09918 0.43219
 C718 C 0.75005 0.10364 0.42613
 C719 C 0.76153 0.08949 0.40545
 C720 C 0.74764 0.07174 0.39040
 C721 C 0.78683 0.09304 0.40053
 C722 C 0.80062 0.11037 0.41605
 C723 C 0.78909 0.12495 0.43604
 C724 C 0.76380 0.12165 0.44088
 H725 H 0.71758 0.03869 0.36570
 H726 H 0.67848 0.08498 0.44150
 H727 H 0.65524 0.05175 0.41769
 H728 H 0.71653 0.10969 0.44840
 H729 H 0.75634 0.06107 0.37435
 H730 H 0.79599 0.08220 0.38493
 H731 H 0.82016 0.11272 0.41220
 H732 H 0.75501 0.13260 0.45670
 C733 C 0.72638 0.95428 0.62921
 C734 C 0.74041 0.93612 0.61490
 C735 C 0.72836 0.91683 0.59956
 C736 C 0.70250 0.91598 0.59892
 C737 C 0.68868 0.93458 0.61262
 C738 C 0.70047 0.95399 0.62768
 C739 C 0.74232 0.89926 0.58445
 C740 C 0.76814 0.90131 0.58374
 C741 C 0.78017 0.92065 0.59904
 C742 C 0.76626 0.93761 0.61489
 C743 C 0.80589 0.92326 0.59757
 C744 C 0.81950 0.90748 0.58042
 C745 C 0.80771 0.88840 0.56493
 C746 C 0.78206 0.88500 0.56714
 H747 H 0.73564 0.96936 0.64056
 H748 H 0.69295 0.90135 0.58727
 H749 H 0.66872 0.93392 0.61127
 H750 H 0.73306 0.88458 0.57256
 H751 H 0.77550 0.95253 0.62648
 H752 H 0.81541 0.93797 0.60914
 H753 H 0.83928 0.91033 0.57908
 H754 H 0.77281 0.87052 0.55501
 C755 C 0.26913 0.93599 0.36611
 C756 C 0.25478 0.92097 0.38360
 C757 C 0.26637 0.90250 0.40051
 C758 C 0.29208 0.89936 0.39962
 C759 C 0.30630 0.91523 0.38301
 C760 C 0.29494 0.93370 0.36634
 C761 C 0.25224 0.88827 0.41883
 C762 C 0.22686 0.89310 0.42129
 C763 C 0.21530 0.91172 0.40455
 C764 C 0.22925 0.92514 0.38542
 C765 C 0.19012 0.91717 0.40778
 C766 C 0.17663 0.90473 0.42781
 C767 C 0.18798 0.88626 0.44456
 C768 C 0.21304 0.88023 0.44088
 H769 H 0.26042 0.95069 0.35365
 H770 H 0.30126 0.88539 0.41251
 H771 H 0.32623 0.91342 0.38347
 H772 H 0.26114 0.87419 0.43188
 H773 H 0.22041 0.93953 0.37268
 H774 H 0.18097 0.93141 0.39517
 H775 H 0.15729 0.90955 0.43020
 H776 H 0.22200 0.86615 0.45387
 C777 C 0.05484 0.37094 0.71609
 C778 C 0.07242 0.38700 0.72838
 C779 C 0.08407 0.40696 0.71352
 C780 C 0.07760 0.41074 0.68671
 C781 C 0.05969 0.39498 0.67476
 C782 C 0.04827 0.37487 0.68928
 C783 C 0.10171 0.42301 0.72580
 C784 C 0.10725 0.41986 0.75296
 C785 C 0.09517 0.40020 0.76790
 C786 C 0.07816 0.38364 0.75542
 C787 C 0.09983 0.39786 0.79528
 C788 C 0.11580 0.41524 0.80792
 C789 C 0.12800 0.43465 0.79324
 C790 C 0.12404 0.43661 0.76567
 H791 H 0.04597 0.35563 0.72754
 H792 H 0.08626 0.42601 0.67504
 H793 H 0.05499 0.39830 0.65405
 H794 H 0.11071 0.43828 0.71440
 H795 H 0.06900 0.36852 0.76688
 H796 H 0.09063 0.38301 0.80704
 H797 H 0.11861 0.41363 0.82923
 H798 H 0.13309 0.45196 0.75443
 C799 C 0.06423 0.62538 0.29587
 C800 C 0.08010 0.61362 0.27736
 C801 C 0.07497 0.61585 0.24979
 C802 C 0.05470 0.63068 0.24118
 C803 C 0.03944 0.64290 0.25968
 C804 C 0.04384 0.64002 0.28710
 C805 C 0.09003 0.60309 0.23128
 C806 C 0.11042 0.58845 0.23992
 C807 C 0.11624 0.58721 0.26738
 C808 C 0.10094 0.59963 0.28594
 C809 C 0.13707 0.57318 0.27583
 C810 C 0.15150 0.55973 0.25739
 C811 C 0.14518 0.55981 0.23023
 C812 C 0.12483 0.57460 0.22157
 H813 H 0.06785 0.62341 0.31703
 H814 H 0.05061 0.63275 0.22014
 H815 H 0.02377 0.65410 0.25259
 H816 H 0.08576 0.60436 0.21020
 H817 H 0.10513 0.59824 0.30703
 H818 H 0.14194 0.57218 0.29675
 H819 H 0.16704 0.54836 0.26455
 H820 H 0.11992 0.57493 0.20062
 C821 C 0.93655 0.38217 0.28241
 C822 C 0.92023 0.39513 0.26506
 C823 C 0.92033 0.38905 0.23760
 C824 C 0.93599 0.36938 0.22818
 C825 C 0.95183 0.35626 0.24566
 C826 C 0.95257 0.36284 0.27277
 C827 C 0.90506 0.40295 0.21997
 C828 C 0.88950 0.42270 0.22945
 C829 C 0.88860 0.42800 0.25705
 C830 C 0.90405 0.41427 0.27467
 C831 C 0.87255 0.44731 0.26650
 C832 C 0.85815 0.46186 0.24872
 C833 C 0.85974 0.45754 0.22116
 C834 C 0.87518 0.43759 0.21170
 H835 H 0.93682 0.38715 0.30337
 H836 H 0.93618 0.36434 0.20724
 H837 H 0.96405 0.34144 0.23782
 H838 H 0.90553 0.39864 0.19884
 H839 H 0.90371 0.41871 0.29577
 H840 H 0.87148 0.45151 0.28760
 H841 H 0.84644 0.47716 0.25647
 H842 H 0.87637 0.43396 0.19048
 C843 C 0.93957 0.62465 0.72199
 C844 C 0.92472 0.61018 0.73952
 C845 C 0.92481 0.61613 0.76700
 C846 C 0.93882 0.63723 0.77626
 C847 C 0.95327 0.65177 0.75862
 C848 C 0.95421 0.64525 0.73150
 C849 C 0.91128 0.60063 0.78482
 C850 C 0.89744 0.57942 0.77547
 C851 C 0.89643 0.57423 0.74784
 C852 C 0.91018 0.58954 0.73006
 C853 C 0.88194 0.55353 0.73850
 C854 C 0.86906 0.53769 0.75639
 C855 C 0.87080 0.54200 0.78393
 C856 C 0.88484 0.56308 0.79335
 H857 H 0.94002 0.61965 0.70104
 H858 H 0.93895 0.64220 0.79721
 H859 H 0.96447 0.66751 0.76640
 H860 H 0.91178 0.60486 0.80597
 H861 H 0.90983 0.58519 0.70894
 H862 H 0.88079 0.54939 0.71738
 H863 H 0.85835 0.52151 0.74873
 H864 H 0.88601 0.56668 0.81458
 C865 C 0.71959 0.61612 0.92976
 C866 C 0.73295 0.59827 0.91437
 C867 C 0.72179 0.57465 0.90640
 C868 C 0.69750 0.56918 0.91427
 C869 C 0.68454 0.58669 0.93034
 C870 C 0.69540 0.61038 0.93833
 C871 C 0.73527 0.55667 0.89120
 C872 C 0.76006 0.56162 0.88477
 C873 C 0.77132 0.58506 0.89328
 C874 C 0.75756 0.60343 0.90755
 C875 C 0.79639 0.58947 0.88798
 C876 C 0.81035 0.57059 0.87489
 C877 C 0.79932 0.54741 0.86613
 C878 C 0.77405 0.54317 0.87071
 H879 H 0.72847 0.63411 0.93579
 H880 H 0.68867 0.55112 0.90842
 H881 H 0.66598 0.58162 0.93644
 H882 H 0.72669 0.53855 0.88502
 H883 H 0.76623 0.62142 0.91398
 H884 H 0.80532 0.60725 0.89449
 H885 H 0.82983 0.57411 0.87152
 H886 H 0.76560 0.52505 0.86434
 C887 C 0.27739 0.37309 0.94959
 C888 C 0.26454 0.38855 0.93097
 C889 C 0.27769 0.40639 0.91480
 C890 C 0.30326 0.40891 0.91786
 C891 C 0.31574 0.39434 0.93715
 C892 C 0.30306 0.37622 0.95327
 C893 C 0.26503 0.42191 0.89624
 C894 C 0.23924 0.42070 0.89440
 C895 C 0.22592 0.40346 0.91105
 C896 C 0.23870 0.38708 0.92885
 C897 C 0.20001 0.40335 0.90999
 C898 C 0.18745 0.42041 0.89286
 C899 C 0.20063 0.43725 0.87598
 C900 C 0.22653 0.43707 0.87664
 H901 H 0.26719 0.35951 0.96198
 H902 H 0.31357 0.42258 0.90570
 H903 H 0.33547 0.39722 0.93926
 H904 H 0.27520 0.43546 0.88376
 H905 H 0.22851 0.37374 0.94153
 H906 H 0.18946 0.39040 0.92271
 H907 H 0.16745 0.42032 0.89261
 H908 H 0.23678 0.45037 0.86397
 C909 C 0.28201 0.62441 0.05549
 C910 C 0.27038 0.60969 0.07557
 C911 C 0.28416 0.59104 0.09018
 C912 C 0.30910 0.58711 0.08428
 C913 C 0.32031 0.60111 0.06377
 C914 C 0.30701 0.61995 0.04905
 C915 C 0.27269 0.57612 0.11004
 C916 C 0.24736 0.57880 0.11484
 C917 C 0.23336 0.59706 0.09996
 C918 C 0.24506 0.61277 0.08078
 C919 C 0.20778 0.59873 0.10404
 C920 C 0.19612 0.58201 0.12215
 C921 C 0.20994 0.56391 0.13706
 C922 C 0.23564 0.56277 0.13365
 H923 H 0.27134 0.63864 0.04432
 H924 H 0.31989 0.57283 0.09523
 H925 H 0.33957 0.59719 0.05960
 H926 H 0.28335 0.56186 0.12121
 H927 H 0.23434 0.62680 0.06939
 H928 H 0.19671 0.61250 0.09276
 H929 H 0.17626 0.58313 0.12447
 H930 H 0.24637 0.54852 0.14474
 C931 C 0.71710 0.37147 0.07621
 C932 C 0.73447 0.38553 0.09114
 C933 C 0.75974 0.37878 0.08988
 C934 C 0.76698 0.35706 0.07492
 C935 C 0.74954 0.34296 0.06027
 C936 C 0.72451 0.35054 0.05994
 C937 C 0.77737 0.39421 0.10303
 C938 C 0.76997 0.41619 0.11758
 C939 C 0.74453 0.42205 0.11995
 C940 C 0.72699 0.40676 0.10667
 C941 C 0.73705 0.44349 0.13513
 C942 C 0.75458 0.45949 0.14723
 C943 C 0.77993 0.45462 0.14406
 C944 C 0.78755 0.43272 0.12943
 H945 H 0.69789 0.37743 0.07669
 H946 H 0.78623 0.35137 0.07399
 H947 H 0.75595 0.32686 0.04822
 H948 H 0.79683 0.38941 0.10152
 H949 H 0.70755 0.41171 0.10796
 H950 H 0.71763 0.44812 0.13731
 H951 H 0.74828 0.47627 0.15836
 H952 H 0.80708 0.42868 0.12713
 C953 C 0.94902 0.73876 0.64222
 C954 C 0.93318 0.75109 0.62390
 C955 C 0.92108 0.73615 0.60419
 C956 C 0.92544 0.70929 0.60273
 C957 C 0.94204 0.69734 0.62024
 C958 C 0.95404 0.71185 0.64023
 C959 C 0.90529 0.74837 0.58583
 C960 C 0.90223 0.77551 0.58620
 C961 C 0.91490 0.79060 0.60539
 C962 C 0.92988 0.77824 0.62447
 C963 C 0.91272 0.81786 0.60483
 C964 C 0.89831 0.83007 0.58528
 C965 C 0.88531 0.81518 0.56651
 C966 C 0.88715 0.78788 0.56723
 H967 H 0.95827 0.75040 0.65721
 H968 H 0.91642 0.69758 0.58765
 H969 H 0.94533 0.67661 0.61815
 H970 H 0.89588 0.73685 0.57084
 H971 H 0.93947 0.78980 0.63930
 H972 H 0.92241 0.82975 0.61926
 H973 H 0.89706 0.85115 0.58502
 H974 H 0.87741 0.77634 0.55251
 C975 C 0.94079 0.27482 0.35865
 C976 C 0.92197 0.26424 0.37458
 C977 C 0.91113 0.27956 0.39477
 C978 C 0.91943 0.30509 0.39885
 C979 C 0.93852 0.31531 0.38336
 C980 C 0.94948 0.30038 0.36304
 C981 C 0.89256 0.26896 0.41095
 C982 C 0.88531 0.24289 0.40787
 C983 C 0.89638 0.22743 0.38789
 C984 C 0.91427 0.23835 0.37104
 C985 C 0.89000 0.20101 0.38574
 C986 C 0.87359 0.18977 0.40387
 C987 C 0.86259 0.20497 0.42374
 C988 C 0.86801 0.23167 0.42526
 H989 H 0.94897 0.26289 0.34323
 H990 H 0.91138 0.31708 0.41429
 H991 H 0.94456 0.33506 0.38729
 H992 H 0.88431 0.28074 0.42647
 H993 H 0.92275 0.22646 0.35575
 H994 H 0.89838 0.18884 0.37065
 H995 H 0.86972 0.16908 0.40265
 H996 H 0.85995 0.24327 0.44103
 C997 C 0.05508 0.27063 0.61466
 C998 C 0.07054 0.25807 0.59624
 C999 C 0.08116 0.27261 0.57518
 C1000 C 0.07556 0.29909 0.57230
 C1001 C 0.05910 0.31104 0.58969
 C1002 C 0.04870 0.29709 0.61114
 C1003 C 0.09679 0.26037 0.55691
 C1004 C 0.10107 0.23349 0.55861
 C1005 C 0.08965 0.21860 0.57889
 C1006 C 0.07487 0.23109 0.59795
 C1007 C 0.09308 0.19146 0.57954
 C1008 C 0.10790 0.17928 0.56046
 C1009 C 0.11997 0.19415 0.54092
 C1010 C 0.11645 0.22123 0.54008
 H1011 H 0.04692 0.25941 0.63073
 H1012 H 0.08342 0.31044 0.55616
 H1013 H 0.05473 0.33143 0.58643
 H1014 H 0.10518 0.27166 0.54102
 H1015 H 0.06634 0.21975 0.61371
 H1016 H 0.08432 0.17968 0.59478
 H1017 H 0.11054 0.15836 0.56143
 H1018 H 0.12553 0.23273 0.52480
 C1019 C 0.05167 0.73403 0.37513
 C1020 C 0.06747 0.74745 0.39260
 C1021 C 0.08150 0.73336 0.41161
 C1022 C 0.07933 0.70620 0.41302
 C1023 C 0.06279 0.69313 0.39645
 C1024 C 0.04859 0.70681 0.37741
 C1025 C 0.09692 0.74667 0.42945
 C1026 C 0.09771 0.77399 0.42934
 C1027 C 0.08331 0.78815 0.41070
 C1028 C 0.06869 0.77479 0.39210
 C1029 C 0.08335 0.81548 0.41139
 C1030 C 0.09722 0.82865 0.43059
 C1031 C 0.11176 0.81477 0.44902
 C1032 C 0.11216 0.78740 0.44807
 H1033 H 0.04077 0.74502 0.36083
 H1034 H 0.08991 0.69511 0.42750
 H1035 H 0.06110 0.67218 0.39868
 H1036 H 0.10770 0.73580 0.44396
 H1037 H 0.05768 0.78567 0.37780
 H1038 H 0.07237 0.82665 0.39735
 H1039 H 0.09676 0.84976 0.43089
 H1040 H 0.12314 0.77655 0.46240
 C1041 C 0.61235 0.94593 0.70462
 C1042 C 0.59961 0.93109 0.72373
 C1043 C 0.60437 0.93503 0.75113
 C1044 C 0.62237 0.95311 0.75891
 C1045 C 0.63525 0.96748 0.73977
 C1046 C 0.63014 0.96431 0.71251
 C1047 C 0.59098 0.92098 0.77031
 C1048 C 0.57313 0.90271 0.76245
 C1049 C 0.56900 0.89814 0.73503
 C1050 C 0.58210 0.91248 0.71586
 C1051 C 0.55170 0.87934 0.72720
 C1052 C 0.53839 0.86541 0.74630
 C1053 C 0.54181 0.87029 0.77358
 C1054 C 0.55930 0.88896 0.78155
 H1055 H 0.60842 0.94320 0.68363
 H1056 H 0.62636 0.95629 0.77980
 H1057 H 0.64880 0.98160 0.74635
 H1058 H 0.59440 0.92430 0.79132
 H1059 H 0.57863 0.90921 0.69485
 H1060 H 0.54839 0.87548 0.70629
 H1061 H 0.52494 0.85119 0.73967
 H1062 H 0.56221 0.89268 0.80256
 C1063 C 0.38069 0.92908 0.27486
 C1064 C 0.39764 0.91089 0.26490
 C1065 C 0.41473 0.89881 0.28235
 C1066 C 0.41476 0.90547 0.30943
 C1067 C 0.39807 0.92395 0.31910
 C1068 C 0.38082 0.93583 0.30196
 C1069 C 0.43165 0.88053 0.27241
 C1070 C 0.43206 0.87465 0.24512
 C1071 C 0.41520 0.88712 0.22766
 C1072 C 0.39792 0.90488 0.23770
 C1073 C 0.41614 0.88195 0.20030
 C1074 C 0.43387 0.86492 0.19021
 C1075 C 0.45061 0.85229 0.20733
 C1076 C 0.44941 0.85695 0.23487
 H1077 H 0.36762 0.93828 0.26139
 H1078 H 0.42777 0.89649 0.32309
 H1079 H 0.39849 0.92877 0.34008
 H1080 H 0.44472 0.87121 0.28580
 H1081 H 0.38496 0.91433 0.22428
 H1082 H 0.40341 0.89139 0.18665
 H1083 H 0.43448 0.86155 0.16894
 H1084 H 0.46251 0.84751 0.24814
 C1085 C 0.61196 0.04622 0.28859
 C1086 C 0.59706 0.06441 0.27508
 C1087 C 0.57811 0.07759 0.28893
 C1088 C 0.57434 0.07228 0.31602
 C1089 C 0.58897 0.05385 0.32920
 C1090 C 0.60788 0.04062 0.31567
 C1091 C 0.56297 0.09553 0.27542
 C1092 C 0.56611 0.09997 0.24805
 C1093 C 0.58494 0.08663 0.23415
 C1094 C 0.60049 0.06922 0.24781
 C1095 C 0.58751 0.09044 0.20664
 C1096 C 0.57116 0.10673 0.19288
 C1097 C 0.55233 0.11998 0.20645
 C1098 C 0.55020 0.11690 0.23417
 H1099 H 0.62639 0.03605 0.27790
 H1100 H 0.55990 0.08217 0.32694
 H1101 H 0.58552 0.05001 0.35008
 H1102 H 0.54842 0.10558 0.28607
 H1103 H 0.61490 0.05898 0.23711
 H1104 H 0.60180 0.08036 0.19566
 H1105 H 0.57314 0.10885 0.17152
 H1106 H 0.53549 0.12679 0.24473
 C1107 C 0.38521 0.07352 0.70726
 C1108 C 0.39744 0.08936 0.72595
 C1109 C 0.39401 0.08477 0.75350
 C1110 C 0.37795 0.06500 0.76191
 C1111 C 0.36549 0.04976 0.74327
 C1112 C 0.36915 0.05366 0.71585
 C1113 C 0.40676 0.09986 0.77225
 C1114 C 0.42277 0.11972 0.76390
 C1115 C 0.42562 0.12497 0.73641
 C1116 C 0.41302 0.10969 0.71759
 C1117 C 0.44137 0.14518 0.72825
 C1118 C 0.45478 0.15945 0.74706
 C1119 C 0.45281 0.15369 0.77437
 C1120 C 0.43636 0.13406 0.78264
 H1121 H 0.38791 0.07682 0.68613
 H1122 H 0.37503 0.06130 0.78293
 H1123 H 0.35326 0.03455 0.75035
 H1124 H 0.40438 0.09599 0.79335
 H1125 H 0.41550 0.11347 0.69650
 H1126 H 0.44369 0.14962 0.70729
 H1127 H 0.46738 0.17439 0.74012
 H1128 H 0.43456 0.12950 0.80364
 C1129 C 0.61605 0.69808 0.05752
 C1130 C 0.60438 0.71604 0.07443
 C1131 C 0.60541 0.74300 0.06839
 C1132 C 0.61883 0.75162 0.04622
 C1133 C 0.63088 0.73371 0.02994
 C1134 C 0.62930 0.70685 0.03520
 C1135 C 0.59285 0.76092 0.08443
 C1136 C 0.57949 0.75231 0.10665
 C1137 C 0.57931 0.72552 0.11343
 C1138 C 0.59166 0.70751 0.09718
 C1139 C 0.56636 0.71716 0.13606
 C1140 C 0.55288 0.73501 0.15120
 C1141 C 0.55197 0.76146 0.14383
 C1142 C 0.56578 0.77004 0.12183
 H1143 H 0.61508 0.67737 0.06185
 H1144 H 0.61994 0.77220 0.04142
 H1145 H 0.64102 0.74081 0.01282
 H1146 H 0.59324 0.78152 0.07944
 H1147 H 0.59113 0.68690 0.10208
 H1148 H 0.56617 0.69674 0.14169
 H1149 H 0.54229 0.72791 0.16800
 H1150 H 0.56534 0.79045 0.11609
 C1151 C 0.37615 0.27515 0.06536
 C1152 C 0.39232 0.26176 0.08252
 C1153 C 0.40677 0.27587 0.10104
 C1154 C 0.40492 0.30313 0.10193
 C1155 C 0.38955 0.31635 0.08403
 C1156 C 0.37515 0.30249 0.06563
 C1157 C 0.42343 0.26262 0.11772
 C1158 C 0.42661 0.23558 0.11534
 C1159 C 0.41244 0.22155 0.09651
 C1160 C 0.39502 0.23464 0.08063
 C1161 C 0.41641 0.19473 0.09334
 C1162 C 0.43462 0.18202 0.10824
 C1163 C 0.44872 0.19573 0.12706
 C1164 C 0.44434 0.22246 0.13085
 H1165 H 0.36538 0.26445 0.05081
 H1166 H 0.41593 0.31427 0.11589
 H1167 H 0.38901 0.33747 0.08441
 H1168 H 0.43451 0.27346 0.13190
 H1169 H 0.38419 0.22385 0.06619
 H1170 H 0.40578 0.18369 0.07896
 H1171 H 0.43764 0.16137 0.10513
 H1172 H 0.45537 0.23320 0.14514
 C1173 C 0.63097 0.27082 0.94704
 C1174 C 0.61336 0.26208 0.92855
 C1175 C 0.60040 0.28037 0.91261
 C1176 C 0.60496 0.30710 0.91581
 C1177 C 0.62183 0.31565 0.93496
 C1178 C 0.63498 0.29762 0.95060
 C1179 C 0.58271 0.27172 0.89420
 C1180 C 0.57712 0.24509 0.89221
 C1181 C 0.58963 0.22688 0.90865
 C1182 C 0.60797 0.23543 0.92634
 C1183 C 0.58327 0.20042 0.90746
 C1184 C 0.56454 0.19208 0.89035
 C1185 C 0.55228 0.20992 0.87365
 C1186 C 0.55882 0.23640 0.87446
 H1187 H 0.64082 0.25689 0.95943
 H1188 H 0.59511 0.32139 0.90390
 H1189 H 0.62472 0.33639 0.93752
 H1190 H 0.57289 0.28575 0.88189
 H1191 H 0.61763 0.22143 0.93883
 H1192 H 0.59257 0.18622 0.91999
 H1193 H 0.55983 0.17155 0.88990
 H1194 H 0.54922 0.25030 0.86181
 C1195 C 0.37930 0.72083 0.93738
 C1196 C 0.39556 0.73392 0.92013
 C1197 C 0.40684 0.72012 0.89905
 C1198 C 0.40190 0.69349 0.89575
 C1199 C 0.38649 0.68043 0.91362
 C1200 C 0.37511 0.69398 0.93447
 C1201 C 0.42339 0.73295 0.88205
 C1202 C 0.42943 0.75920 0.88630
 C1203 C 0.41852 0.77292 0.90762
 C1204 C 0.40138 0.76030 0.92419
 C1205 C 0.42519 0.79896 0.91218
 C1206 C 0.44247 0.81131 0.89577
 C1207 C 0.45316 0.79796 0.87430
 C1208 C 0.44647 0.77186 0.86970
 H1209 H 0.37094 0.73116 0.95387
 H1210 H 0.41049 0.68260 0.87981
 H1211 H 0.38357 0.65966 0.91133
 H1212 H 0.43196 0.72236 0.86585
 H1213 H 0.39298 0.77082 0.94053
 H1214 H 0.41709 0.80976 0.92848
 H1215 H 0.44722 0.83146 0.89965
 H1216 H 0.45471 0.76127 0.85331
 C1217 C 0.71598 0.93897 0.38981
 C1218 C 0.73146 0.92357 0.40591
 C1219 C 0.72099 0.90627 0.42476
 C1220 C 0.69524 0.90484 0.42731
 C1221 C 0.68000 0.92083 0.41178
 C1222 C 0.69021 0.93802 0.39296
 C1223 C 0.73640 0.89118 0.44121
 C1224 C 0.76215 0.89382 0.43969
 C1225 C 0.77262 0.91140 0.42111
 C1226 C 0.75722 0.92582 0.40402
 C1227 C 0.79832 0.91471 0.42036
 C1228 C 0.81349 0.90117 0.43823
 C1229 C 0.80329 0.88362 0.45670
 C1230 C 0.77759 0.87974 0.45704
 H1231 H 0.72400 0.95247 0.37559
 H1232 H 0.68690 0.89176 0.44170
 H1233 H 0.66018 0.91980 0.41450
 H1234 H 0.72835 0.87793 0.45566
 H1235 H 0.76527 0.93930 0.38978
 H1236 H 0.80665 0.92815 0.40631
 H1237 H 0.83324 0.90441 0.43761
 H1238 H 0.76954 0.86648 0.47149
 C1239 C 0.27152 0.95837 0.62031
 C1240 C 0.25778 0.94216 0.60341
 C1241 C 0.26989 0.92786 0.58328
 C1242 C 0.29552 0.93054 0.58008
 C1243 C 0.30901 0.94719 0.59669
 C1244 C 0.29718 0.96104 0.61708
 C1245 C 0.25614 0.91134 0.56659
 C1246 C 0.23038 0.90952 0.56936
 C1247 C 0.21828 0.92441 0.58910
 C1248 C 0.23208 0.94032 0.60620
 C1249 C 0.19249 0.92345 0.59117
 C1250 C 0.17871 0.90815 0.57366
 C1251 C 0.19049 0.89299 0.55426
 C1252 C 0.21639 0.89349 0.55237
 H1253 H 0.26216 0.96924 0.63577
 H1254 H 0.30511 0.91985 0.56467
 H1255 H 0.32877 0.94892 0.59385
 H1256 H 0.26543 0.90023 0.55126
 H1257 H 0.22278 0.95156 0.62144
 H1258 H 0.18294 0.93484 0.60608
 H1259 H 0.15877 0.90801 0.57537
 H1260 H 0.22553 0.88213 0.53713
 C1261 C 0.28801 0.05462 0.37601
 C1262 C 0.26904 0.06923 0.38786
 C1263 C 0.24413 0.06419 0.38107
 C1264 C 0.23868 0.04543 0.36170
 C1265 C 0.25767 0.03138 0.34960
 C1266 C 0.28242 0.03550 0.35697
 C1267 C 0.22507 0.07775 0.39393
 C1268 C 0.23060 0.09665 0.41317
 C1269 C 0.25556 0.10249 0.41906
 C1270 C 0.27459 0.08860 0.40657
 C1271 C 0.26111 0.12199 0.43758
 C1272 C 0.24216 0.13524 0.45059
 C1273 C 0.21730 0.12894 0.44569
 C1274 C 0.21161 0.10969 0.42680
 H1275 H 0.30707 0.05805 0.38164
 H1276 H 0.21973 0.04142 0.35610
 H1277 H 0.25293 0.01663 0.33509
 H1278 H 0.20596 0.07349 0.38908
 H1279 H 0.29370 0.09277 0.41151
 H1280 H 0.28011 0.12685 0.44220
 H1281 H 0.24699 0.14991 0.46515
 H1282 H 0.19248 0.10487 0.42275
 C1283 C 0.71834 0.06837 0.61418
 C1284 C 0.72983 0.08542 0.59612
 C1285 C 0.71641 0.09524 0.57407
 C1286 C 0.69175 0.08768 0.57041
 C1287 C 0.68056 0.07034 0.58823
 C1288 C 0.69371 0.06052 0.61027
 C1289 C 0.72796 0.11207 0.55582
 C1290 C 0.75299 0.11860 0.55893
 C1291 C 0.76645 0.10850 0.58086
 C1292 C 0.75470 0.09233 0.59950
 C1293 C 0.79167 0.11415 0.58339
 C1294 C 0.80365 0.12899 0.56397
 C1295 C 0.79050 0.13909 0.54213
 C1296 C 0.76503 0.13430 0.53997
 H1297 H 0.72874 0.06081 0.63099
 H1298 H 0.68118 0.09496 0.55360
 H1299 H 0.66155 0.06469 0.58483
 H1300 H 0.71767 0.11956 0.53888
 H1301 H 0.76506 0.08460 0.61629
 H1302 H 0.80227 0.10651 0.60000
 H1303 H 0.82331 0.13244 0.56588
 H1304 H 0.75491 0.14166 0.52286
 C1305 C 0.94247 0.63164 0.27382
 C1306 C 0.92427 0.61610 0.26170
 C1307 C 0.90557 0.60464 0.27754
 C1308 C 0.90553 0.60858 0.30513
 C1309 C 0.92420 0.62319 0.31708
 C1310 C 0.94273 0.63478 0.30158
 C1311 C 0.88759 0.58879 0.26572
 C1312 C 0.88854 0.58338 0.23842
 C1313 C 0.90743 0.59439 0.22257
 C1314 C 0.92492 0.61109 0.23422
 C1315 C 0.90879 0.58798 0.19546
 C1316 C 0.89188 0.57048 0.18430
 C1317 C 0.87299 0.55960 0.19992
 C1318 C 0.87127 0.56644 0.22691
 H1319 H 0.95704 0.64026 0.26190
 H1320 H 0.89142 0.59984 0.31755
 H1321 H 0.92423 0.62545 0.33853
 H1322 H 0.87327 0.58006 0.27792
 H1323 H 0.93941 0.61956 0.22208
 H1324 H 0.92318 0.59614 0.18300
 H1325 H 0.89353 0.56548 0.16345
 H1326 H 0.85697 0.55787 0.23922
 C1327 C 0.94663 0.36603 0.72334
 C1328 C 0.92875 0.38086 0.73681
 C1329 C 0.90862 0.39162 0.72246
 C1330 C 0.90664 0.38733 0.69501
 C1331 C 0.92487 0.37334 0.68168
 C1332 C 0.94506 0.36277 0.69562
 C1333 C 0.89122 0.40720 0.73554
 C1334 C 0.89411 0.41302 0.76261
 C1335 C 0.91424 0.40238 0.77700
 C1336 C 0.93119 0.38600 0.76413
 C1337 C 0.91748 0.40896 0.80386
 C1338 C 0.90140 0.42653 0.81610
 C1339 C 0.88149 0.43742 0.80187
 C1340 C 0.87768 0.43012 0.77524
 H1341 H 0.96234 0.35817 0.73413
 H1342 H 0.89136 0.39543 0.68372
 H1343 H 0.92330 0.37092 0.66032
 H1344 H 0.87589 0.41553 0.72443
 H1345 H 0.94671 0.37798 0.77515
 H1346 H 0.93279 0.40102 0.81522
 H1347 H 0.90466 0.43178 0.83668
 H1348 H 0.86252 0.43860 0.76401
 C1349 C 0.06763 0.62476 0.72180
 C1350 C 0.08208 0.60960 0.73915
 C1351 C 0.08137 0.61441 0.76686
 C1352 C 0.06712 0.63514 0.77654
 C1353 C 0.05300 0.65035 0.75906
 C1354 C 0.05267 0.64488 0.73167
 C1355 C 0.09451 0.59813 0.78441
 C1356 C 0.10856 0.57730 0.77455
 C1357 C 0.11014 0.57330 0.74674
 C1358 C 0.09679 0.58937 0.72925
 C1359 C 0.12483 0.55305 0.73685
 C1360 C 0.13749 0.53656 0.75434
 C1361 C 0.13531 0.53972 0.78200
 C1362 C 0.12091 0.56023 0.79203
 H1363 H 0.06765 0.62056 0.70065
 H1364 H 0.06651 0.63926 0.79768
 H1365 H 0.04153 0.66572 0.76711
 H1366 H 0.09356 0.60147 0.80570
 H1367 H 0.09759 0.58591 0.70797
 H1368 H 0.12638 0.54983 0.71561
 H1369 H 0.14847 0.52083 0.74624
 H1370 H 0.11941 0.56292 0.81337
 C1371 C 0.07047 0.37888 0.28463
 C1372 C 0.08649 0.39261 0.26771
 C1373 C 0.08429 0.38973 0.23979
 C1374 C 0.06704 0.37208 0.22938
 C1375 C 0.05152 0.35807 0.24641
 C1376 C 0.05271 0.36184 0.27406
 C1377 C 0.09899 0.40490 0.22277
 C1378 C 0.11610 0.42264 0.23331
 C1379 C 0.11927 0.42443 0.26122
 C1380 C 0.10433 0.40954 0.27824
 C1381 C 0.13699 0.44152 0.27165
 C1382 C 0.15083 0.45741 0.25467
 C1383 C 0.14690 0.45677 0.22703
 C1384 C 0.12976 0.43904 0.21642
 H1385 H 0.07163 0.38162 0.30600
 H1386 H 0.06525 0.36945 0.20807
 H1387 H 0.03790 0.34505 0.23791
 H1388 H 0.09685 0.40319 0.20136
 H1389 H 0.10631 0.41142 0.29965
 H1390 H 0.13981 0.44297 0.29297
 H1391 H 0.16390 0.47100 0.26324
 H1392 H 0.12684 0.43829 0.19506
   
