data_POSCAR
  _audit_creation_date              2014-09-24
  _audit_creation_method            'ToBaCCo'
  _symmetry_space_group_name_H-M    'P1'
  _symmetry_Int_Tables_number       1
  _symmetry_cell_setting            triclinic
  loop_
  _symmetry_equiv_pos_as_xyz
 x,y,z
_cell_length_a 58.0544
_cell_length_b 57.6546
_cell_length_c 58.4471
_cell_angle_alpha 90.011700
_cell_angle_beta 90.000700
_cell_angle_gamma 89.889200
loop_
  _atom_site_label
  _atom_site_type_symbol
  _atom_site_fract_x
  _atom_site_fract_y
  _atom_site_fract_z
O1 O 0.31368 0.34595 0.02058
 O2 O 0.34670 0.31646 -0.02460
 O3 O 0.31435 0.34783 -0.02377
 O4 O 0.34616 0.31462 0.01972
 O5 O 0.31985 0.28697 0.01827
 O6 O 0.28793 0.32030 -0.02534
 O7 O 0.32036 0.28884 -0.02616
 O8 O 0.28727 0.31839 0.01913
 Cu9 Cu 0.33287 0.33400 -0.00185
 Cu10 Cu 0.30118 0.30084 -0.00366
 C11 C 0.29482 0.33727 0.02735
 C12 C 0.33920 0.29761 -0.03291
 C13 C 0.29573 0.33977 -0.03182
 C14 C 0.33852 0.29510 0.02619
 O15 O 0.68768 0.65453 0.02188
 O16 O 0.65415 0.68539 -0.02196
 O17 O 0.68670 0.65409 -0.02224
 O18 O 0.65500 0.68562 0.02248
 O19 O 0.68110 0.71350 0.02183
 O20 O 0.71298 0.68179 -0.02304
 O21 O 0.68030 0.71322 -0.02278
 O22 O 0.71391 0.68229 0.02121
 Cu23 Cu 0.66819 0.66717 0.00011
 Cu24 Cu 0.69967 0.70058 -0.00078
 C25 C 0.70662 0.66300 0.02868
 C26 C 0.66147 0.70455 -0.02969
 C27 C 0.70538 0.66237 -0.02991
 C28 C 0.66261 0.70489 0.02966
 O29 O 0.65316 0.31660 1.02276
 O30 O 0.68569 0.34754 0.97836
 O31 O 0.65305 0.31649 0.97829
 O32 O 0.68583 0.34759 1.02248
 O33 O 0.71204 0.31969 1.02251
 O34 O 0.67916 0.28851 0.97819
 O35 O 0.71194 0.31966 0.97826
 O36 O 0.67925 0.28860 1.02280
 Cu37 Cu 0.66674 0.33481 1.00047
 Cu38 Cu 0.69819 0.30122 1.00043
 C39 C 0.66063 0.29736 1.03022
 C40 C 0.70449 0.33905 0.97110
 C41 C 0.66049 0.29722 0.97083
 C42 C 0.70465 0.33910 1.02968
 O43 O 0.34766 0.68183 1.02263
 O44 O 0.31587 0.65051 0.97790
 O45 O 0.34707 0.68296 0.97846
 O46 O 0.31647 0.64930 1.02236
 O47 O 0.28901 0.67590 1.02348
 O48 O 0.31971 0.70969 0.97946
 O49 O 0.28841 0.67713 0.97889
 O50 O 0.32029 0.70856 1.02374
 Cu51 Cu 0.33448 0.66341 1.00024
 Cu52 Cu 0.30153 0.69547 1.00151
 C53 C 0.33955 0.70065 1.03048
 C54 C 0.29677 0.65847 0.97087
 C55 C 0.33874 0.70214 0.97177
 C56 C 0.29754 0.65683 1.03028
 O57 O 0.02099 0.31662 0.34908
 O58 O -0.02408 0.34766 0.31723
 O59 O -0.02368 0.31660 0.34957
 O60 O 0.02055 0.34778 0.31672
 O61 O 0.02040 0.31999 0.29063
 O62 O -0.02396 0.28873 0.32358
 O63 O -0.02437 0.31989 0.29112
 O64 O 0.02085 0.28872 0.32311
 Cu65 Cu -0.00152 0.33496 0.33578
 Cu66 Cu -0.00177 0.30151 0.30447
 C67 C 0.02839 0.29735 0.34161
 C68 C -0.03173 0.33913 0.29874
 C69 C -0.03120 0.29736 0.34222
 C70 C 0.02778 0.33929 0.29803
 O71 O 0.02129 0.68469 0.65140
 O72 O -0.02298 0.65325 0.68384
 O73 O -0.02343 0.68412 0.65122
 O74 O 0.02147 0.65375 0.68403
 O75 O 0.02103 0.68173 0.70992
 O76 O -0.02400 0.71219 0.67700
 O77 O -0.02354 0.68122 0.70975
 O78 O 0.02086 0.71278 0.67717
 Cu79 Cu -0.00085 0.66618 0.66498
 Cu80 Cu -0.00145 0.69987 0.69603
 C81 C 0.02843 0.70410 0.65869
 C82 C -0.03048 0.66173 0.70243
 C83 C -0.03123 0.70332 0.65848
 C84 C 0.02854 0.66238 0.70270
 O85 O 1.02468 0.65137 0.31579
 O86 O 0.97925 0.68306 0.34661
 O87 O 0.97991 0.65105 0.31509
 O88 O 1.02373 0.68326 0.34744
 O89 O 1.02406 0.71048 0.32079
 O90 O 0.98009 0.67814 0.28831
 O91 O 0.97946 0.71026 0.31992
 O92 O 1.02500 0.67848 0.28902
 Cu93 Cu 1.00187 0.66440 0.33387
 Cu94 Cu 1.00218 0.69704 0.30175
 C95 C 1.03245 0.65950 0.29717
 C96 C 0.97192 0.70216 0.33865
 C97 C 0.97265 0.65908 0.29622
 C98 C 1.03107 0.70245 0.33978
 O99 O 0.97728 0.31570 0.65244
 O100 O 1.02236 0.34633 0.68457
 O101 O 1.02201 0.31539 0.65195
 O102 O 0.97793 0.34675 0.68491
 O103 O 0.97791 0.31887 0.71090
 O104 O 1.02214 0.28737 0.67778
 O105 O 1.02247 0.31841 0.71052
 O106 O 0.97726 0.28771 0.67830
 Cu107 Cu 0.99989 0.33381 0.66581
 Cu108 Cu 0.99996 0.30020 0.69695
 C109 C 0.96973 0.29650 0.65986
 C110 C 1.02974 0.33776 0.70316
 C111 C 1.02943 0.29604 0.65919
 C112 C 0.97075 0.33833 0.70363
 O113 O 0.34813 0.02255 0.31576
 O114 O 0.31575 -0.02215 0.34691
 O115 O 0.34748 -0.02252 0.31533
 O116 O 0.31653 0.02263 0.34742
 O117 O 0.28945 0.02348 0.32081
 O118 O 0.32056 -0.02183 0.28857
 O119 O 0.28870 -0.02145 0.32026
 O120 O 0.32118 0.02339 0.28903
 Cu121 Cu 0.33474 0.00004 0.33399
 Cu122 Cu 0.30228 0.00097 0.30191
 C123 C 0.34018 0.03048 0.29712
 C124 C 0.29661 -0.02910 0.33903
 C125 C 0.33934 -0.02975 0.29651
 C126 C 0.29763 0.03046 0.33973
 O127 O 0.65220 0.02101 0.68462
 O128 O 0.68220 -0.02403 0.65146
 O129 O 0.65142 -0.02379 0.68405
 O130 O 0.68283 0.02097 0.65200
 O131 O 0.71071 0.02023 0.67777
 O132 O 0.67918 -0.02466 0.70996
 O133 O 0.71006 -0.02490 0.67726
 O134 O 0.68000 0.02024 0.71049
 Cu135 Cu 0.66439 -0.00141 0.66539
 Cu136 Cu 0.69784 -0.00238 0.69645
 C137 C 0.66088 0.02802 0.70329
 C138 C 0.70128 -0.03192 0.65863
 C139 C 0.65979 -0.03151 0.70259
 C140 C 0.70210 0.02808 0.65937
 O141 O 0.34752 0.97643 0.68327
 O142 O 0.31707 1.02228 0.65174
 O143 O 0.34881 1.02144 0.68330
 O144 O 0.31582 0.97750 0.65168
 O145 O 0.28882 0.97823 0.67837
 O146 O 0.32194 1.02232 0.71010
 O147 O 0.29006 1.02315 0.67842
 O148 O 0.32065 0.97714 0.71008
 Cu149 Cu 0.33506 0.99933 0.66484
 Cu150 Cu 0.30267 1.00029 0.69699
 C151 C 0.33933 0.96912 0.70203
 C152 C 0.29828 1.03023 0.65956
 C153 C 0.34104 1.02922 0.70207
 C154 C 0.29663 0.97067 0.65950
 O155 O 0.65081 0.97912 0.31634
 O156 O 0.68268 1.02299 0.34918
 O157 O 0.65091 1.02401 0.31769
 O158 O 0.68253 0.97796 0.34791
 O159 O 0.70956 0.97855 0.32126
 O160 O 0.67781 1.02475 0.29091
 O161 O 0.70969 1.02372 0.32251
 O162 O 0.67773 0.97972 0.28957
 Cu163 Cu 0.66405 1.00094 0.33549
 Cu164 Cu 0.69645 1.00174 0.30338
 C165 C 0.65874 0.97219 0.29731
 C166 C 0.70159 1.03070 0.34147
 C167 C 0.65888 1.03201 0.29910
 C168 C 0.70141 0.97055 0.33979
 C169 C 0.88080 0.77720 0.48681
 C170 C 0.87964 0.77621 0.51021
 C171 C 0.86216 0.79124 0.51682
 N172 N 0.85262 0.80124 0.49817
 C173 C 0.86394 0.79273 0.47979
 C174 C 0.85598 0.79587 0.53979
 C175 C 0.83904 0.81212 0.54679
 C176 C 0.83554 0.81892 0.56930
 C177 C 0.81844 0.83542 0.56907
 C178 C 0.81183 0.83832 0.54643
 N179 N 0.82417 0.82369 0.53303
 C180 C 0.79501 0.85449 0.53900
 C181 C 0.78997 0.85979 0.51590
 C182 C 0.77394 0.87620 0.50889
 C183 C 0.77488 0.87690 0.48548
 C184 C 0.79142 0.86086 0.47884
 N185 N 0.80053 0.85044 0.49747
 C186 C 0.79723 0.85582 0.45587
 C187 C 0.81380 0.83919 0.44894
 C188 C 0.81701 0.83202 0.42650
 C189 C 0.83436 0.81579 0.42673
 C190 C 0.84137 0.81340 0.44931
 N191 N 0.82898 0.82800 0.46267
 C192 C 0.85896 0.79809 0.45669
 H193 H 0.89266 0.76747 0.47620
 H194 H 0.89059 0.76575 0.52109
 H195 H 0.83203 0.83151 0.47978
 H196 H 0.84464 0.81295 0.58435
 H197 H 0.81190 0.84451 0.58393
 H198 H 0.76278 0.88671 0.51952
 H199 H 0.76450 0.88796 0.47462
 H200 H 0.84091 0.80662 0.41192
 H201 H 0.82162 0.82076 0.51576
 H202 H 0.80767 0.83772 0.41148
 C203 C 0.23132 0.13035 0.51186
 C204 C 0.23131 0.13033 0.48840
 C205 C 0.21207 0.14286 0.48161
 N206 N 0.20030 0.15040 0.50014
 C207 C 0.21207 0.14288 0.51866
 C208 C 0.20477 0.14556 0.45873
 C209 C 0.18626 0.15994 0.45192
 C210 C 0.17629 0.15982 0.43035
 C211 C 0.15953 0.17672 0.43039
 C212 C 0.15971 0.18672 0.45199
 N213 N 0.17625 0.17659 0.46488
 C214 C 0.14549 0.20536 0.45886
 C215 C 0.14282 0.21271 0.48176
 C216 C 0.13037 0.23207 0.48857
 C217 C 0.13032 0.23202 0.51203
 C218 C 0.14274 0.21263 0.51881
 N219 N 0.15026 0.20082 0.50027
 C220 C 0.14533 0.20520 0.54168
 C221 C 0.15961 0.18656 0.54848
 C222 C 0.15944 0.17647 0.57002
 C223 C 0.17624 0.15961 0.56999
 C224 C 0.18622 0.15984 0.54841
 N225 N 0.17618 0.17652 0.53553
 C226 C 0.20477 0.14555 0.54154
 H227 H 0.24390 0.12185 0.52266
 H228 H 0.24388 0.12182 0.47759
 H229 H 0.18187 0.18228 0.51970
 H230 H 0.18068 0.14875 0.41602
 H231 H 0.14852 0.18118 0.41610
 H232 H 0.12195 0.24476 0.47777
 H233 H 0.12185 0.24466 0.52285
 H234 H 0.18064 0.14848 0.58426
 H235 H 0.18193 0.18228 0.48074
 H236 H 0.14841 0.18084 0.58433
 C237 C 0.12805 0.77086 0.51075
 C238 C 0.12793 0.77091 0.48729
 C239 C 0.14011 0.79039 0.48047
 N240 N 0.14753 0.80228 0.49899
 C241 C 0.14028 0.79034 0.51752
 C242 C 0.14266 0.79775 0.45758
 C243 C 0.15664 0.81654 0.45070
 C244 C 0.15645 0.82638 0.42904
 C245 C 0.17295 0.84348 0.42901
 C246 C 0.18276 0.84365 0.45066
 N247 N 0.17292 0.82698 0.46366
 C248 C 0.20096 0.85834 0.45749
 C249 C 0.20803 0.86152 0.48040
 C250 C 0.22670 0.87485 0.48716
 C251 C 0.22673 0.87489 0.51062
 C252 C 0.20808 0.86158 0.51746
 N253 N 0.19661 0.85358 0.49895
 C254 C 0.20108 0.85846 0.54039
 C255 C 0.18296 0.84367 0.54726
 C256 C 0.17323 0.84345 0.56894
 C257 C 0.15680 0.82630 0.56895
 C258 C 0.15694 0.81647 0.54727
 N259 N 0.17314 0.82697 0.53428
 C260 C 0.14297 0.79766 0.54042
 H261 H 0.11983 0.75810 0.52157
 H262 H 0.11959 0.75819 0.47649
 H263 H 0.17876 0.82150 0.51832
 H264 H 0.14562 0.82169 0.41470
 H265 H 0.17724 0.85451 0.41465
 H266 H 0.23885 0.88389 0.47632
 H267 H 0.23890 0.88397 0.52141
 H268 H 0.14603 0.82156 0.58332
 H269 H 0.17860 0.82149 0.47959
 H270 H 0.17754 0.85448 0.58331
 C271 C 0.78442 0.11319 0.51164
 C272 C 0.78443 0.11335 0.48818
 C273 C 0.79652 0.13296 0.48152
 N274 N 0.80372 0.14482 0.50014
 C275 C 0.79649 0.13270 0.51858
 C276 C 0.79938 0.14032 0.45865
 C277 C 0.81344 0.15912 0.45198
 C278 C 0.81353 0.16904 0.43035
 C279 C 0.83032 0.18587 0.43046
 C280 C 0.84002 0.18577 0.45216
 N281 N 0.82978 0.16927 0.46506
 C282 C 0.85871 0.19980 0.45906
 C283 C 0.86586 0.20245 0.48200
 C284 C 0.88536 0.21443 0.48890
 C285 C 0.88534 0.21427 0.51236
 C286 C 0.86582 0.20221 0.51905
 N287 N 0.85389 0.19515 0.50046
 C288 C 0.85861 0.19926 0.54194
 C289 C 0.83993 0.18513 0.54864
 C290 C 0.83021 0.18495 0.57033
 C291 C 0.81344 0.16810 0.57022
 C292 C 0.81338 0.15845 0.54847
 N293 N 0.82972 0.16878 0.53553
 C294 C 0.79933 0.13974 0.54154
 H295 H 0.77632 0.10025 0.52235
 H296 H 0.77633 0.10057 0.47728
 H297 H 0.83533 0.16324 0.51959
 H298 H 0.80276 0.16450 0.41591
 H299 H 0.83496 0.19680 0.41614
 H300 H 0.89821 0.22257 0.47816
 H301 H 0.89816 0.22226 0.52323
 H302 H 0.80265 0.16339 0.58459
 H303 H 0.83535 0.16352 0.48094
 H304 H 0.83482 0.19571 0.58480
 C305 C 0.48591 0.88480 0.78493
 C306 C 0.50952 0.88533 0.78517
 C307 C 0.51669 0.86644 0.79805
 N308 N 0.49824 0.85432 0.80548
 C309 C 0.47939 0.86560 0.79767
 C310 C 0.53990 0.85998 0.80155
 C311 C 0.54695 0.84152 0.81584
 C312 C 0.56895 0.83210 0.81625
 C313 C 0.56908 0.81543 0.83310
 C314 C 0.54716 0.81516 0.84258
 N315 N 0.53387 0.83124 0.83207
 C316 C 0.54046 0.80128 0.86136
 C317 C 0.51745 0.79847 0.86869
 C318 C 0.51082 0.78685 0.88839
 C319 C 0.48719 0.78686 0.88862
 C320 C 0.48015 0.79845 0.86903
 N321 N 0.49867 0.80536 0.85682
 C322 C 0.45701 0.80116 0.86208
 C323 C 0.45005 0.81434 0.84291
 C324 C 0.42819 0.81386 0.83332
 C325 C 0.42805 0.82995 0.81593
 C326 C 0.44981 0.83985 0.81539
 N327 N 0.46302 0.83035 0.83200
 C328 C 0.45644 0.85813 0.80072
 H329 H 0.47483 0.89706 0.77622
 H330 H 0.52016 0.89803 0.77660
 H331 H 0.47898 0.83634 0.83730
 H332 H 0.58347 0.83684 0.80563
 H333 H 0.58373 0.80490 0.83798
 H334 H 0.52184 0.77906 0.90121
 H335 H 0.47645 0.77901 0.90161
 H336 H 0.41349 0.83406 0.80508
 H337 H 0.51772 0.83672 0.83741
 H338 H 0.41378 0.80316 0.83843
 C339 C 0.48756 0.11670 0.21618
 C340 C 0.51117 0.11691 0.21649
 C341 C 0.51796 0.13620 0.20403
 N342 N 0.49928 0.14781 0.19628
 C343 C 0.48067 0.13584 0.20352
 C344 C 0.54100 0.14350 0.20124
 C345 C 0.54778 0.16203 0.18695
 C346 C 0.56949 0.17204 0.18692
 C347 C 0.56948 0.18853 0.16989
 C348 C 0.54777 0.18812 0.15996
 N349 N 0.53475 0.17179 0.17034
 C350 C 0.54102 0.20167 0.14096
 C351 C 0.51805 0.20399 0.13329
 C352 C 0.51143 0.21549 0.11350
 C353 C 0.48782 0.21496 0.11290
 C354 C 0.48076 0.20317 0.13235
 N355 N 0.49927 0.19666 0.14485
 C356 C 0.45757 0.19985 0.13888
 C357 C 0.45064 0.18641 0.15788
 C358 C 0.42859 0.18625 0.16703
 C359 C 0.42860 0.17010 0.18437
 C360 C 0.45065 0.16082 0.18533
 N361 N 0.46388 0.17073 0.16901
 C362 C 0.45755 0.14267 0.20007
 H363 H 0.47671 0.10396 0.22445
 H364 H 0.52208 0.10438 0.22504
 H365 H 0.48013 0.16521 0.16402
 H366 H 0.58391 0.16779 0.19790
 H367 H 0.58390 0.19941 0.16521
 H368 H 0.52245 0.22356 0.10087
 H369 H 0.47710 0.22261 0.09976
 H370 H 0.41396 0.16555 0.19491
 H371 H 0.51889 0.16584 0.16471
 H372 H 0.41396 0.19655 0.16165
 C373 C 0.48989 0.11245 0.78626
 C374 C 0.51351 0.11217 0.78689
 C375 C 0.52022 0.13193 0.79867
 N376 N 0.50150 0.14430 0.80507
 C377 C 0.48293 0.13236 0.79768
 C378 C 0.54327 0.13891 0.80200
 C379 C 0.54993 0.15801 0.81560
 C380 C 0.57185 0.16756 0.81597
 C381 C 0.57162 0.18480 0.83225
 C382 C 0.54957 0.18532 0.84139
 N383 N 0.53655 0.16881 0.83127
 C384 C 0.54244 0.19987 0.85951
 C385 C 0.51923 0.20314 0.86600
 C386 C 0.51203 0.21570 0.88494
 C387 C 0.48841 0.21593 0.88438
 C388 C 0.48194 0.20350 0.86510
 N389 N 0.50081 0.19587 0.85383
 C390 C 0.45903 0.20068 0.85751
 C391 C 0.45250 0.18629 0.83907
 C392 C 0.43087 0.18622 0.82895
 C393 C 0.43111 0.16901 0.81263
 C394 C 0.45287 0.15902 0.81322
 N395 N 0.46569 0.16953 0.82952
 C396 C 0.45986 0.13987 0.79982
 H397 H 0.47909 0.09954 0.77818
 H398 H 0.52448 0.09903 0.77936
 H399 H 0.48153 0.16386 0.83555
 H400 H 0.58655 0.16250 0.80570
 H401 H 0.58611 0.19559 0.83696
 H402 H 0.52266 0.22396 0.89777
 H403 H 0.47730 0.22441 0.89668
 H404 H 0.41681 0.16427 0.80171
 H405 H 0.52037 0.16344 0.83659
 H406 H 0.41636 0.19728 0.83304
 C407 C 0.48942 0.77557 0.12094
 C408 C 0.51300 0.77652 0.12054
 C409 C 0.51946 0.79323 0.13636
 N410 N 0.50055 0.80247 0.14633
 C411 C 0.48214 0.79178 0.13694
 C412 C 0.54252 0.79920 0.14148
 C413 C 0.54933 0.81578 0.15804
 C414 C 0.57195 0.81941 0.16484
 C415 C 0.57151 0.83645 0.18127
 C416 C 0.54864 0.84285 0.18416
 N417 N 0.53530 0.83042 0.16966
 C418 C 0.54095 0.85978 0.20000
 C419 C 0.51763 0.86419 0.20559
 C420 C 0.51037 0.88007 0.22192
 C421 C 0.48682 0.87876 0.22267
 C422 C 0.48035 0.86219 0.20671
 N423 N 0.49923 0.85333 0.19637
 C424 C 0.45729 0.85638 0.20145
 C425 C 0.45048 0.84023 0.18449
 C426 C 0.42799 0.83745 0.17695
 C427 C 0.42843 0.82079 0.16016
 C428 C 0.45118 0.81372 0.15782
 N429 N 0.46443 0.82536 0.17304
 C430 C 0.45881 0.79695 0.14179
 H431 H 0.47887 0.76430 0.11050
 H432 H 0.52409 0.76603 0.10982
 H433 H 0.48161 0.82216 0.17656
 H434 H 0.58722 0.81052 0.15879
 H435 H 0.58638 0.84315 0.19026
 H436 H 0.52092 0.89137 0.23234
 H437 H 0.47574 0.88905 0.23359
 H438 H 0.41365 0.81480 0.15055
 H439 H 0.51792 0.83298 0.16669
 H440 H 0.41282 0.84672 0.18269
 C441 C 0.87602 0.48849 0.77528
 C442 C 0.87579 0.51227 0.77513
 C443 C 0.86311 0.51920 0.79406
 N444 N 0.85574 0.50044 0.80581
 C445 C 0.86347 0.48163 0.79430
 C446 C 0.85997 0.54247 0.80098
 C447 C 0.84579 0.54948 0.81938
 C448 C 0.84553 0.57160 0.82876
 C449 C 0.82896 0.57162 0.84559
 C450 C 0.81954 0.54953 0.84604
 N451 N 0.82972 0.53625 0.82983
 C452 C 0.80133 0.54255 0.86053
 C453 C 0.79447 0.51929 0.86373
 C454 C 0.77568 0.51236 0.87668
 C455 C 0.77585 0.48858 0.87678
 C456 C 0.79475 0.48172 0.86390
 N457 N 0.80617 0.50053 0.85609
 C458 C 0.80197 0.45850 0.86096
 C459 C 0.82027 0.45153 0.84656
 C460 C 0.83007 0.42955 0.84645
 C461 C 0.84667 0.42953 0.82965
 C462 C 0.84658 0.45149 0.81994
 N463 N 0.83024 0.46467 0.83015
 C464 C 0.86075 0.45842 0.80151
 H465 H 0.88467 0.47752 0.76294
 H466 H 0.88425 0.52320 0.76265
 H467 H 0.82459 0.48081 0.82468
 H468 H 0.85610 0.58624 0.82393
 H469 H 0.82432 0.58629 0.85621
 H470 H 0.76329 0.52329 0.88538
 H471 H 0.76361 0.47761 0.88558
 H472 H 0.85752 0.41496 0.82508
 H473 H 0.82438 0.51994 0.82461
 H474 H 0.82567 0.41501 0.85730
 C475 C 0.21493 0.48405 0.11448
 C476 C 0.21569 0.50783 0.11447
 C477 C 0.20410 0.51513 0.13394
 N478 N 0.19648 0.49660 0.14590
 C479 C 0.20290 0.47758 0.13396
 C480 C 0.20191 0.53847 0.14097
 C481 C 0.18832 0.54584 0.15969
 C482 C 0.18883 0.56793 0.16911
 C483 C 0.17233 0.56848 0.18601
 C484 C 0.16219 0.54671 0.18647
 N485 N 0.17190 0.53312 0.17024
 C486 C 0.14361 0.54040 0.20078
 C487 C 0.13590 0.51740 0.20395
 C488 C 0.11658 0.51118 0.21647
 C489 C 0.11575 0.48741 0.21639
 C490 C 0.13462 0.47985 0.20386
 N491 N 0.14700 0.49821 0.19647
 C492 C 0.14075 0.45636 0.20057
 C493 C 0.15910 0.44889 0.18649
 C494 C 0.16795 0.42652 0.18610
 C495 C 0.18452 0.42598 0.16926
 C496 C 0.18533 0.44804 0.15981
 N497 N 0.16969 0.46181 0.17031
 C498 C 0.19922 0.45445 0.14100
 H499 H 0.22252 0.47282 0.10168
 H500 H 0.22395 0.51850 0.10165
 H501 H 0.16462 0.47817 0.16491
 H502 H 0.19980 0.58225 0.16419
 H503 H 0.16815 0.58330 0.19661
 H504 H 0.10443 0.52256 0.22494
 H505 H 0.10286 0.47691 0.22482
 H506 H 0.19463 0.41099 0.16438
 H507 H 0.16589 0.51708 0.16494
 H508 H 0.16284 0.41201 0.19670
 C509 C 0.79162 0.51219 0.10874
 C510 C 0.79121 0.48840 0.10881
 C511 C 0.80221 0.48136 0.12870
 N512 N 0.80915 0.50005 0.14082
 C513 C 0.80287 0.51892 0.12859
 C514 C 0.80436 0.45811 0.13600
 C515 C 0.81717 0.45109 0.15536
 C516 C 0.81632 0.42916 0.16511
 C517 C 0.83213 0.42894 0.18265
 C518 C 0.84221 0.45074 0.18314
 N519 N 0.83313 0.46403 0.16634
 C520 C 0.86026 0.45732 0.19797
 C521 C 0.86772 0.48040 0.20107
 C522 C 0.88669 0.48694 0.21397
 C523 C 0.88718 0.51071 0.21384
 C524 C 0.86849 0.51795 0.20087
 N525 N 0.85655 0.49939 0.19325
 C526 C 0.86199 0.54131 0.19750
 C527 C 0.84413 0.54846 0.18266
 C528 C 0.83484 0.57064 0.18199
 C529 C 0.81893 0.57086 0.16454
 C530 C 0.81895 0.54881 0.15500
 N531 N 0.83449 0.53536 0.16604
 C532 C 0.80583 0.54212 0.13575
 H533 H 0.78426 0.52325 0.09568
 H534 H 0.78346 0.47754 0.09581
 H535 H 0.84008 0.51910 0.16083
 H536 H 0.80557 0.41475 0.15999
 H537 H 0.83592 0.41432 0.19364
 H538 H 0.89883 0.47575 0.22270
 H539 H 0.89977 0.52143 0.22244
 H540 H 0.80868 0.58564 0.15934
 H541 H 0.83933 0.48000 0.16100
 H542 H 0.83921 0.58521 0.19283
 C543 C 0.10948 0.51218 0.78850
 C544 C 0.10959 0.48838 0.78849
 C545 C 0.12941 0.48155 0.79993
 N546 N 0.14144 0.50037 0.80674
 C547 C 0.12922 0.51912 0.79995
 C548 C 0.13672 0.45833 0.80264
 C549 C 0.15589 0.45149 0.81593
 C550 C 0.16564 0.42950 0.81574
 C551 C 0.18289 0.42951 0.83189
 C552 C 0.18322 0.45151 0.84150
 N553 N 0.16659 0.46470 0.83181
 C554 C 0.19773 0.45840 0.85966
 C555 C 0.20080 0.48165 0.86660
 C556 C 0.21343 0.48858 0.88555
 C557 C 0.21338 0.51236 0.88549
 C558 C 0.20072 0.51920 0.86652
 N559 N 0.19322 0.50040 0.85493
 C560 C 0.19755 0.54242 0.85948
 C561 C 0.18292 0.54929 0.84139
 C562 C 0.18242 0.57130 0.83180
 C563 C 0.16509 0.57128 0.81573
 C564 C 0.15547 0.54927 0.81593
 N565 N 0.16632 0.53607 0.83176
 C566 C 0.13632 0.54238 0.80267
 H567 H 0.09646 0.52311 0.78075
 H568 H 0.09668 0.47739 0.78073
 H569 H 0.16099 0.51993 0.83748
 H570 H 0.16071 0.41488 0.80521
 H571 H 0.19381 0.41491 0.83621
 H572 H 0.22193 0.47766 0.89803
 H573 H 0.22184 0.52334 0.89793
 H574 H 0.16003 0.58589 0.80523
 H575 H 0.16111 0.48083 0.83753
 H576 H 0.19326 0.58592 0.83608
 C577 C 0.23184 0.40465 0.10263
 C578 C 0.25179 0.39316 0.11077
 C579 C 0.26421 0.37799 0.09606
 C580 C 0.25658 0.37439 0.07334
 C581 C 0.23617 0.38525 0.06546
 C582 C 0.22377 0.40044 0.08015
 C583 C 0.20354 0.41129 0.07182
 C584 C 0.19576 0.40721 0.04963
 C585 C 0.20788 0.39235 0.03527
 C586 C 0.22786 0.38146 0.04300
 C587 C 0.28424 0.36687 0.10449
 C588 C 0.29176 0.37060 0.12684
 C589 C 0.27960 0.38543 0.14122
 C590 C 0.25984 0.39664 0.13336
 C591 C 0.27020 0.36042 0.05768
 C592 C 0.28149 0.34948 0.04413
 C593 C 0.22020 0.42161 0.11691
 C594 C 0.21062 0.43625 0.12818
 H595 H 0.19349 0.42297 0.08236
 H596 H 0.18024 0.41563 0.04355
 H597 H 0.20176 0.38922 0.01805
 H598 H 0.23666 0.37001 0.03119
 H599 H 0.29423 0.35514 0.09395
 H600 H 0.30710 0.36193 0.13303
 H601 H 0.28551 0.38826 0.15856
 H602 H 0.25092 0.40798 0.14518
 C603 C 0.77211 0.59154 0.09789
 C604 C 0.77385 0.59064 0.07375
 C605 C 0.76100 0.60644 0.06011
 C606 C 0.74643 0.62299 0.07071
 C607 C 0.74513 0.62426 0.09486
 C608 C 0.75802 0.60848 0.10850
 C609 C 0.75636 0.60999 0.13262
 C610 C 0.74237 0.62663 0.14296
 C611 C 0.72977 0.64206 0.12962
 C612 C 0.73105 0.64096 0.10583
 C613 C 0.76300 0.60517 0.03599
 C614 C 0.77729 0.58879 0.02566
 C615 C 0.78978 0.57329 0.03900
 C616 C 0.78815 0.57412 0.06277
 C617 C 0.73226 0.63808 0.05666
 C618 C 0.72048 0.64991 0.04432
 C619 C 0.78426 0.57457 0.11171
 C620 C 0.79416 0.56005 0.12283
 H621 H 0.76586 0.59838 0.14371
 H622 H 0.74131 0.62756 0.16143
 H623 H 0.71893 0.65495 0.13773
 H624 H 0.72097 0.65335 0.09616
 H625 H 0.75363 0.61685 0.02486
 H626 H 0.77871 0.58816 0.00720
 H627 H 0.80084 0.56058 0.03089
 H628 H 0.79828 0.56174 0.07241
 C629 C 0.76843 0.41065 0.90073
 C630 C 0.76225 0.41725 0.92325
 C631 C 0.74952 0.40175 0.93726
 C632 C 0.74300 0.37975 0.92864
 C633 C 0.74946 0.37302 0.90624
 C634 C 0.76225 0.38852 0.89225
 C635 C 0.76848 0.38145 0.86990
 C636 C 0.76223 0.35969 0.86160
 C637 C 0.74970 0.34455 0.87528
 C638 C 0.74334 0.35105 0.89737
 C639 C 0.74347 0.40877 0.95970
 C640 C 0.74977 0.43050 0.96802
 C641 C 0.76223 0.44565 0.95433
 C642 C 0.76846 0.43920 0.93219
 C643 C 0.72939 0.36431 0.94283
 C644 C 0.71800 0.35226 0.95528
 C645 C 0.78065 0.42690 0.88620
 C646 C 0.79050 0.44095 0.87449
 H647 H 0.77825 0.39263 0.85864
 H648 H 0.76714 0.35455 0.84446
 H649 H 0.74488 0.32768 0.86875
 H650 H 0.73362 0.33869 0.90738
 H651 H 0.73384 0.39759 0.97106
 H652 H 0.74496 0.43559 0.98520
 H653 H 0.76712 0.46250 0.96089
 H654 H 0.77818 0.45159 0.92223
 C655 C 0.23580 0.59015 0.89493
 C656 C 0.22734 0.61259 0.90005
 C657 C 0.24019 0.62753 0.91458
 C658 C 0.26142 0.61991 0.92388
 C659 C 0.27024 0.59774 0.91814
 C660 C 0.25740 0.58283 0.90360
 C661 C 0.26651 0.56069 0.89820
 C662 C 0.28766 0.55347 0.90697
 C663 C 0.30019 0.56804 0.92122
 C664 C 0.29167 0.58994 0.92679
 C665 C 0.23131 0.64982 0.91962
 C666 C 0.21033 0.65717 0.91052
 C667 C 0.19778 0.64257 0.89630
 C668 C 0.20609 0.62050 0.89108
 C669 C 0.27380 0.63439 0.94005
 C670 C 0.28421 0.64576 0.95391
 C671 C 0.22193 0.57412 0.88169
 C672 C 0.21066 0.56010 0.87129
 H673 H 0.25746 0.54876 0.88710
 H674 H 0.29435 0.53649 0.90266
 H675 H 0.31662 0.56236 0.92798
 H676 H 0.30210 0.60066 0.93789
 H677 H 0.24049 0.66180 0.93056
 H678 H 0.20380 0.67429 0.91452
 H679 H 0.18150 0.64836 0.88928
 H680 H 0.19575 0.60977 0.87990
 C681 C 0.10389 0.23824 0.41230
 C682 C 0.11072 0.24238 0.38942
 C683 C 0.09566 0.25432 0.37425
 C684 C 0.07386 0.26201 0.38208
 C685 C 0.06698 0.25772 0.40494
 C686 C 0.08202 0.24578 0.42008
 C687 C 0.07474 0.24167 0.44285
 C688 C 0.05325 0.24920 0.45046
 C689 C 0.03854 0.26091 0.43566
 C690 C 0.04523 0.26516 0.41316
 C691 C 0.10287 0.25833 0.35147
 C692 C 0.12435 0.25072 0.34387
 C693 C 0.13906 0.23902 0.35869
 C694 C 0.13242 0.23485 0.38123
 C695 C 0.05845 0.27441 0.36680
 C696 C 0.04506 0.28483 0.35484
 C697 C 0.11930 0.22643 0.42800
 C698 C 0.13155 0.21678 0.44168
 H699 H 0.08551 0.23257 0.45501
 H700 H 0.04797 0.24591 0.46792
 H701 H 0.02185 0.26672 0.44164
 H702 H 0.03315 0.27432 0.40231
 H703 H 0.09200 0.26735 0.33933
 H704 H 0.12960 0.25392 0.32639
 H705 H 0.15572 0.23313 0.35270
 H706 H 0.14443 0.22566 0.39213
 C707 C 0.10233 0.76410 0.58725
 C708 C 0.08052 0.75628 0.57966
 C709 C 0.06581 0.74414 0.59494
 C710 C 0.07298 0.73993 0.61774
 C711 C 0.09472 0.74790 0.62536
 C712 C 0.10944 0.76003 0.61007
 C713 C 0.13109 0.76783 0.61805
 C714 C 0.13801 0.76375 0.64053
 C715 C 0.12362 0.75187 0.65548
 C716 C 0.10220 0.74399 0.64808
 C717 C 0.04410 0.73644 0.58693
 C718 C 0.03714 0.74061 0.56449
 C719 C 0.05152 0.75250 0.54956
 C720 C 0.07296 0.76030 0.55696
 C721 C 0.05790 0.72733 0.63316
 C722 C 0.04479 0.71676 0.64526
 C723 C 0.11739 0.77615 0.57142
 C724 C 0.12936 0.78599 0.55767
 H725 H 0.14286 0.77716 0.60705
 H726 H 0.15463 0.76983 0.64637
 H727 H 0.12909 0.74875 0.67292
 H728 H 0.09159 0.73485 0.66033
 H729 H 0.03228 0.72714 0.59788
 H730 H 0.02049 0.73460 0.55866
 H731 H 0.04603 0.75572 0.53214
 H732 H 0.08347 0.76953 0.54471
 C733 C 0.89895 0.76460 0.40909
 C734 C 0.92311 0.76447 0.41245
 C735 C 0.93755 0.75209 0.39707
 C736 C 0.92775 0.73983 0.37847
 C737 C 0.90363 0.74028 0.37490
 C738 C 0.88918 0.75273 0.39025
 C739 C 0.86512 0.75290 0.38638
 C740 C 0.85560 0.74110 0.36786
 C741 C 0.86972 0.72891 0.35285
 C742 C 0.89348 0.72844 0.35625
 C743 C 0.96167 0.75224 0.40077
 C744 C 0.97121 0.76427 0.41913
 C745 C 0.95708 0.77628 0.43424
 C746 C 0.93329 0.77643 0.43103
 C747 C 0.94254 0.72639 0.36344
 C748 C 0.95552 0.71525 0.35167
 C749 C 0.88424 0.77657 0.42534
 C750 C 0.87249 0.78640 0.43932
 H751 H 0.85345 0.76215 0.39759
 H752 H 0.83716 0.74141 0.36513
 H753 H 0.86224 0.71977 0.33849
 H754 H 0.90378 0.71875 0.34412
 H755 H 0.97341 0.74316 0.38950
 H756 H 0.98968 0.76429 0.42163
 H757 H 0.96457 0.78557 0.44850
 H758 H 0.92303 0.78608 0.44323
 C759 C 0.89456 0.23682 0.58962
 C760 C 0.89820 0.22856 0.61213
 C761 C 0.91255 0.24118 0.62740
 C762 C 0.92316 0.26197 0.62003
 C763 C 0.91896 0.27058 0.59772
 C764 C 0.90458 0.25799 0.58249
 C765 C 0.90069 0.26691 0.56024
 C766 C 0.91078 0.28763 0.55323
 C767 C 0.92489 0.29991 0.56810
 C768 C 0.92899 0.29158 0.59011
 C769 C 0.91607 0.23252 0.64978
 C770 C 0.90567 0.21198 0.65689
 C771 C 0.89164 0.19964 0.64196
 C772 C 0.88790 0.20774 0.61981
 C773 C 0.93909 0.27409 0.63497
 C774 C 0.95282 0.28427 0.64672
 C775 C 0.88127 0.22321 0.57345
 C776 C 0.87073 0.21215 0.55944
 H777 H 0.88975 0.25806 0.54808
 H778 H 0.90762 0.29418 0.53616
 H779 H 0.93269 0.31601 0.56258
 H780 H 0.94003 0.30181 0.60107
 H781 H 0.92681 0.24154 0.66200
 H782 H 0.90851 0.20561 0.67409
 H783 H 0.88360 0.18370 0.64758
 H784 H 0.87681 0.19758 0.60882
 C785 C 0.40979 0.10649 0.23739
 C786 C 0.38762 0.10145 0.22865
 C787 C 0.37249 0.08687 0.24122
 C788 C 0.37963 0.07744 0.26243
 C789 C 0.40154 0.08306 0.27149
 C790 C 0.41666 0.09765 0.25895
 C791 C 0.43853 0.10293 0.26829
 C792 C 0.44530 0.09400 0.28940
 C793 C 0.43053 0.07970 0.30166
 C794 C 0.40888 0.07424 0.29290
 C795 C 0.35047 0.08192 0.23206
 C796 C 0.34359 0.09114 0.21110
 C797 C 0.35839 0.10541 0.19882
 C798 C 0.38019 0.11056 0.20741
 C799 C 0.36489 0.06128 0.27459
 C800 C 0.35326 0.04743 0.28480
 C801 C 0.42595 0.11992 0.22389
 C802 C 0.43998 0.13053 0.21290
 H803 H 0.45060 0.11406 0.25947
 H804 H 0.46209 0.09821 0.29629
 H805 H 0.43585 0.07281 0.31806
 H806 H 0.39799 0.06310 0.30311
 H807 H 0.33835 0.07094 0.24101
 H808 H 0.32668 0.08720 0.20435
 H809 H 0.35296 0.11254 0.18256
 H810 H 0.39109 0.12178 0.19728
 C811 C 0.59220 0.10059 0.76820
 C812 C 0.59463 0.07680 0.77373
 C813 C 0.60995 0.06261 0.76091
 C814 C 0.62266 0.07228 0.74257
 C815 C 0.62069 0.09620 0.73744
 C816 C 0.60543 0.11041 0.75033
 C817 C 0.60366 0.13425 0.74483
 C818 C 0.61659 0.14378 0.72709
 C819 C 0.63149 0.12987 0.71447
 C820 C 0.63358 0.10633 0.71950
 C821 C 0.61205 0.03885 0.76672
 C822 C 0.59942 0.02942 0.78471
 C823 C 0.58436 0.04327 0.79718
 C824 C 0.58191 0.06670 0.79183
 C825 C 0.63702 0.05737 0.72852
 C826 C 0.64830 0.04436 0.71690
 C827 C 0.57546 0.11467 0.78035
 C828 C 0.56109 0.12593 0.79028
 H829 H 0.59233 0.14577 0.75420
 H830 H 0.61504 0.16205 0.72312
 H831 H 0.64149 0.13735 0.70070
 H832 H 0.64543 0.09621 0.70925
 H833 H 0.62352 0.02735 0.75751
 H834 H 0.60134 0.01125 0.78900
 H835 H 0.57455 0.03585 0.81111
 H836 H 0.57002 0.07678 0.80207
 C837 C 0.40826 0.89307 0.76264
 C838 C 0.41507 0.90155 0.74094
 C839 C 0.39988 0.91594 0.72819
 C840 C 0.37797 0.92174 0.73720
 C841 C 0.37086 0.91259 0.75854
 C842 C 0.38606 0.89820 0.77130
 C843 C 0.37867 0.88939 0.79266
 C844 C 0.35686 0.89465 0.80118
 C845 C 0.34199 0.90874 0.78871
 C846 C 0.34883 0.91767 0.76762
 C847 C 0.40716 0.92441 0.70663
 C848 C 0.42882 0.91882 0.69794
 C849 C 0.44367 0.90474 0.71041
 C850 C 0.43696 0.89615 0.73166
 C851 C 0.36330 0.93793 0.72494
 C852 C 0.35190 0.95190 0.71458
 C853 C 0.42455 0.88002 0.77639
 C854 C 0.43871 0.86977 0.78759
 H855 H 0.38962 0.87832 0.80294
 H856 H 0.35146 0.88775 0.81754
 H857 H 0.32507 0.91277 0.79541
 H858 H 0.33667 0.92852 0.75852
 H859 H 0.39621 0.93538 0.69625
 H860 H 0.43410 0.92544 0.68142
 H861 H 0.46047 0.90042 0.70357
 H862 H 0.44909 0.88518 0.74066
 C863 C 0.58813 0.89982 0.23422
 C864 C 0.58303 0.92369 0.23699
 C865 C 0.59826 0.93812 0.24958
 C866 C 0.61852 0.92860 0.25935
 C867 C 0.62377 0.90481 0.25632
 C868 C 0.60852 0.89037 0.24371
 C869 C 0.61407 0.86662 0.24098
 C870 C 0.63414 0.85740 0.25042
 C871 C 0.64905 0.87152 0.26274
 C872 C 0.64401 0.89497 0.26572
 C873 C 0.59274 0.96191 0.25219
 C874 C 0.57276 0.97117 0.24263
 C875 C 0.55786 0.95706 0.23031
 C876 C 0.56285 0.93359 0.22746
 C877 C 0.63362 0.94332 0.27279
 C878 C 0.64551 0.95614 0.28400
 C879 C 0.57210 0.88504 0.22197
 C880 C 0.55824 0.87327 0.21193
 H881 H 0.60300 0.85497 0.23153
 H882 H 0.63814 0.83919 0.24816
 H883 H 0.66462 0.86426 0.27003
 H884 H 0.65613 0.90527 0.27542
 H885 H 0.60379 0.97362 0.26159
 H886 H 0.56882 0.98940 0.24479
 H887 H 0.54236 0.96433 0.22290
 H888 H 0.55074 0.92335 0.21768
 C889 C 0.41055 0.23871 0.89224
 C890 C 0.41737 0.26020 0.90179
 C891 C 0.40189 0.27276 0.91599
 C892 C 0.37967 0.26378 0.92053
 C893 C 0.37257 0.24268 0.91034
 C894 C 0.38807 0.23011 0.89614
 C895 C 0.38069 0.20898 0.88627
 C896 C 0.35858 0.20052 0.89029
 C897 C 0.34343 0.21281 0.90419
 C898 C 0.35026 0.23366 0.91415
 C899 C 0.40917 0.29410 0.92553
 C900 C 0.43112 0.30278 0.92115
 C901 C 0.44625 0.29050 0.90724
 C902 C 0.43955 0.26946 0.89762
 C903 C 0.36458 0.27577 0.93645
 C904 C 0.35265 0.28574 0.95018
 C905 C 0.42704 0.22506 0.87930
 C906 C 0.44128 0.21386 0.86912
 H907 H 0.39186 0.19885 0.87530
 H908 H 0.35319 0.18434 0.88259
 H909 H 0.32628 0.20616 0.90725
 H910 H 0.33785 0.24263 0.92479
 H911 H 0.39800 0.30433 0.93641
 H912 H 0.43640 0.31913 0.92857
 H913 H 0.46328 0.29732 0.90386
 H914 H 0.45190 0.26061 0.88682
 C915 C 0.58889 0.76432 0.89727
 C916 C 0.58213 0.74295 0.90711
 C917 C 0.59780 0.73041 0.92112
 C918 C 0.62016 0.73929 0.92518
 C919 C 0.62712 0.76036 0.91485
 C920 C 0.61143 0.77291 0.90085
 C921 C 0.61871 0.79400 0.89081
 C922 C 0.64088 0.80244 0.89451
 C923 C 0.65622 0.79016 0.90821
 C924 C 0.64950 0.76935 0.91832
 C925 C 0.59057 0.70918 0.93093
 C926 C 0.56851 0.70058 0.92699
 C927 C 0.55320 0.71283 0.91326
 C928 C 0.55983 0.73377 0.90339
 C929 C 0.63559 0.72711 0.94061
 C930 C 0.64779 0.71687 0.95391
 C931 C 0.57237 0.77770 0.88409
 C932 C 0.55814 0.78858 0.87356
 H933 H 0.60739 0.80413 0.88000
 H934 H 0.64618 0.81858 0.88669
 H935 H 0.67342 0.79679 0.91102
 H936 H 0.66204 0.76040 0.92881
 H937 H 0.60187 0.69898 0.94170
 H938 H 0.56328 0.68431 0.93462
 H939 H 0.53608 0.70607 0.91023
 H940 H 0.54732 0.74260 0.89277
 C941 C 0.41133 0.76310 0.10194
 C942 C 0.41691 0.75905 0.07870
 C943 C 0.40146 0.74647 0.06453
 C944 C 0.38047 0.73807 0.07368
 C945 C 0.37472 0.74245 0.09682
 C946 C 0.39020 0.75501 0.11100
 C947 C 0.38412 0.75913 0.13409
 C948 C 0.36332 0.75107 0.14293
 C949 C 0.34819 0.73878 0.12906
 C950 C 0.35374 0.73446 0.10625
 C951 C 0.40750 0.74250 0.04137
 C952 C 0.42822 0.75070 0.03249
 C953 C 0.44328 0.76308 0.04633
 C954 C 0.43778 0.76727 0.06916
 C955 C 0.36506 0.72474 0.05922
 C956 C 0.35295 0.71368 0.04653
 C957 C 0.42757 0.77521 0.11654
 C958 C 0.44151 0.78512 0.12826
 H959 H 0.39532 0.76864 0.14553
 H960 H 0.35893 0.75439 0.16063
 H961 H 0.33206 0.73256 0.13600
 H962 H 0.34142 0.72485 0.09611
 H963 H 0.39633 0.73305 0.02987
 H964 H 0.43259 0.74744 0.01477
 H965 H 0.45933 0.76947 0.03934
 H966 H 0.45004 0.77705 0.07920
 C967 C 0.58921 0.23862 0.10492
 C968 C 0.58228 0.25980 0.09476
 C969 C 0.59779 0.27210 0.08044
 C970 C 0.62017 0.26317 0.07639
 C971 C 0.62733 0.24235 0.08710
 C972 C 0.61180 0.23003 0.10142
 C973 C 0.61928 0.20918 0.11185
 C974 C 0.64149 0.20075 0.10823
 C975 C 0.65668 0.21278 0.09421
 C976 C 0.64977 0.23335 0.08371
 C977 C 0.59039 0.29315 0.07030
 C978 C 0.56831 0.30178 0.07423
 C979 C 0.55315 0.28976 0.08827
 C980 C 0.55996 0.26901 0.09847
 C981 C 0.63540 0.27505 0.06058
 C982 C 0.64734 0.28512 0.04696
 C983 C 0.57278 0.22533 0.11824
 C984 C 0.55862 0.21446 0.12880
 H985 H 0.60808 0.19924 0.12293
 H986 H 0.64695 0.18478 0.11635
 H987 H 0.67391 0.20616 0.09146
 H988 H 0.66219 0.24213 0.07298
 H989 H 0.60157 0.30317 0.05930
 H990 H 0.56295 0.31791 0.06636
 H991 H 0.53602 0.29656 0.09130
 H992 H 0.54757 0.26036 0.10932
 C993 C 0.23799 0.10439 0.58833
 C994 C 0.24212 0.11166 0.61110
 C995 C 0.25438 0.09695 0.62638
 C996 C 0.26239 0.07506 0.61879
 C997 C 0.25808 0.06770 0.59606
 C998 C 0.24583 0.08240 0.58080
 C999 C 0.24171 0.07466 0.55816
 C1000 C 0.24955 0.05305 0.55080
 C1001 C 0.26158 0.03870 0.56571
 C1002 C 0.26581 0.04581 0.58810
 C1003 C 0.25836 0.10460 0.64903
 C1004 C 0.25042 0.12617 0.65641
 C1005 C 0.23840 0.14054 0.64147
 C1006 C 0.23426 0.13347 0.61905
 C1007 C 0.27509 0.06000 0.63419
 C1008 C 0.28570 0.04682 0.64626
 C1009 C 0.22598 0.11954 0.57249
 C1010 C 0.21623 0.13166 0.55876
 H1011 H 0.23238 0.08515 0.54593
 H1012 H 0.24627 0.04743 0.53343
 H1013 H 0.26768 0.02194 0.55991
 H1014 H 0.27521 0.03398 0.59904
 H1015 H 0.26761 0.09400 0.66126
 H1016 H 0.25360 0.13175 0.67380
 H1017 H 0.23226 0.15728 0.64729
 H1018 H 0.22482 0.14523 0.60806
 C1019 C 0.76178 0.10427 0.41108
 C1020 C 0.77010 0.10010 0.38869
 C1021 C 0.75737 0.08575 0.37349
 C1022 C 0.73639 0.07568 0.38078
 C1023 C 0.72776 0.08037 0.40297
 C1024 C 0.74047 0.09474 0.41815
 C1025 C 0.73153 0.09911 0.44028
 C1026 C 0.71067 0.08952 0.44724
 C1027 C 0.69826 0.07544 0.43241
 C1028 C 0.70661 0.07086 0.41052
 C1029 C 0.76611 0.08169 0.35124
 C1030 C 0.78683 0.09156 0.34419
 C1031 C 0.79926 0.10560 0.35905
 C1032 C 0.79109 0.10987 0.38108
 C1033 C 0.72400 0.05990 0.36585
 C1034 C 0.71354 0.04636 0.35406
 C1035 C 0.77541 0.11762 0.42718
 C1036 C 0.78648 0.12819 0.44115
 H1037 H 0.74049 0.11004 0.45240
 H1038 H 0.70409 0.09305 0.46422
 H1039 H 0.68205 0.06803 0.43789
 H1040 H 0.69629 0.05985 0.39960
 H1041 H 0.75702 0.07092 0.33907
 H1042 H 0.79325 0.08830 0.32711
 H1043 H 0.81534 0.11323 0.35349
 H1044 H 0.80134 0.12094 0.39202
 C1045 C 0.76098 0.89444 0.58632
 C1046 C 0.75198 0.88512 0.60686
 C1047 C 0.73976 0.89969 0.62231
 C1048 C 0.73665 0.92347 0.61713
 C1049 C 0.74580 0.93282 0.59665
 C1050 C 0.75802 0.91827 0.58122
 C1051 C 0.76702 0.92803 0.56087
 C1052 C 0.76398 0.95146 0.55588
 C1053 C 0.75200 0.96569 0.57095
 C1054 C 0.74299 0.95658 0.59113
 C1055 C 0.73085 0.88999 0.64270
 C1056 C 0.73395 0.86655 0.64770
 C1057 C 0.74592 0.85231 0.63260
 C1058 C 0.75487 0.86140 0.61238
 C1059 C 0.72397 0.93843 0.63266
 C1060 C 0.71353 0.95156 0.64492
 C1061 C 0.77304 0.87960 0.57023
 C1062 C 0.78302 0.86785 0.55633
 H1063 H 0.77654 0.91771 0.54862
 H1064 H 0.77097 0.95862 0.54023
 H1065 H 0.74968 0.98389 0.56701
 H1066 H 0.73383 0.96838 0.60230
 H1067 H 0.72143 0.90039 0.65497
 H1068 H 0.72703 0.85940 0.66338
 H1069 H 0.74828 0.83412 0.63657
 H1070 H 0.76407 0.84966 0.60117
 C1071 C 0.23397 0.89858 0.40984
 C1072 C 0.24417 0.88887 0.39002
 C1073 C 0.25657 0.90328 0.37462
 C1074 C 0.25864 0.92731 0.37913
 C1075 C 0.24804 0.93710 0.39872
 C1076 C 0.23573 0.92268 0.41415
 C1077 C 0.22547 0.93283 0.43374
 C1078 C 0.22722 0.95656 0.43789
 C1079 C 0.23915 0.97068 0.42273
 C1080 C 0.24951 0.96117 0.40337
 C1081 C 0.26673 0.89318 0.35499
 C1082 C 0.26467 0.86949 0.35068
 C1083 C 0.25253 0.85540 0.36573
 C1084 C 0.24236 0.86488 0.38521
 C1085 C 0.27209 0.94198 0.36402
 C1086 C 0.28332 0.95478 0.35217
 C1087 C 0.22209 0.88382 0.42610
 C1088 C 0.21240 0.87199 0.44009
 H1089 H 0.21597 0.92257 0.44603
 H1090 H 0.21923 0.96403 0.45293
 H1091 H 0.24038 0.98912 0.42597
 H1092 H 0.25860 0.97290 0.39210
 H1093 H 0.27630 0.90345 0.34278
 H1094 H 0.27254 0.86204 0.33557
 H1095 H 0.25098 0.83702 0.36230
 H1096 H 0.23307 0.85324 0.39640
 C1097 C 0.09926 0.40924 0.76811
 C1098 C 0.07494 0.40988 0.76989
 C1099 C 0.06137 0.39412 0.75698
 C1100 C 0.07220 0.37786 0.74230
 C1101 C 0.09652 0.37687 0.74092
 C1102 C 0.11010 0.39261 0.75388
 C1103 C 0.13439 0.39136 0.75217
 C1104 C 0.14496 0.37502 0.73805
 C1105 C 0.13167 0.35965 0.72536
 C1106 C 0.10772 0.36049 0.72670
 C1107 C 0.03707 0.39511 0.75903
 C1108 C 0.02652 0.41118 0.77344
 C1109 C 0.03979 0.42665 0.78600
 C1110 C 0.06373 0.42610 0.78431
 C1111 C 0.05817 0.36270 0.72823
 C1112 C 0.04570 0.35084 0.71664
 C1113 C 0.11300 0.42610 0.78047
 C1114 C 0.12400 0.44053 0.79060
 H1115 H 0.14544 0.40294 0.76173
 H1116 H 0.16356 0.37428 0.73696
 H1117 H 0.13997 0.34699 0.71442
 H1118 H 0.09810 0.34816 0.71654
 H1119 H 0.02598 0.38345 0.74962
 H1120 H 0.00794 0.41160 0.77490
 H1121 H 0.03151 0.43912 0.79715
 H1122 H 0.07331 0.43844 0.79448
 C1123 C 0.10852 0.58972 0.23754
 C1124 C 0.10260 0.58456 0.26048
 C1125 C 0.08824 0.59998 0.27301
 C1126 C 0.07981 0.62043 0.26249
 C1127 C 0.08635 0.62597 0.23980
 C1128 C 0.10078 0.61057 0.22729
 C1129 C 0.10697 0.61637 0.20459
 C1130 C 0.09912 0.63682 0.19452
 C1131 C 0.08499 0.65187 0.20674
 C1132 C 0.07862 0.64659 0.22913
 C1133 C 0.08244 0.59438 0.29588
 C1134 C 0.09058 0.57411 0.30606
 C1135 C 0.10459 0.55900 0.29379
 C1136 C 0.11058 0.56407 0.27126
 C1137 C 0.06355 0.63510 0.27467
 C1138 C 0.04959 0.64661 0.28490
 C1139 C 0.12161 0.57302 0.22424
 C1140 C 0.13191 0.55853 0.21343
 H1141 H 0.11797 0.60522 0.19443
 H1142 H 0.10403 0.64101 0.17714
 H1143 H 0.07895 0.66774 0.19884
 H1144 H 0.06765 0.65886 0.23798
 H1145 H 0.07163 0.60560 0.30614
 H1146 H 0.08599 0.57011 0.32357
 H1147 H 0.11087 0.54327 0.30178
 H1148 H 0.12157 0.55180 0.26244
 C1149 C 0.89417 0.40888 0.23680
 C1150 C 0.90274 0.41601 0.25836
 C1151 C 0.91675 0.40072 0.27140
 C1152 C 0.92207 0.37836 0.26283
 C1153 C 0.91286 0.37095 0.24163
 C1154 C 0.89885 0.38627 0.22857
 C1155 C 0.88997 0.37857 0.20735
 C1156 C 0.89478 0.35634 0.19925
 C1157 C 0.90849 0.34137 0.21202
 C1158 C 0.91749 0.34850 0.23297
 C1159 C 0.92533 0.40833 0.29280
 C1160 C 0.92018 0.43041 0.30107
 C1161 C 0.90645 0.44536 0.28832
 C1162 C 0.89777 0.43833 0.26721
 C1163 C 0.93783 0.36352 0.27540
 C1164 C 0.95145 0.35193 0.28598
 C1165 C 0.88149 0.42523 0.22275
 C1166 C 0.87155 0.43947 0.21132
 H1167 H 0.87918 0.38959 0.19685
 H1168 H 0.88783 0.35071 0.18300
 H1169 H 0.91218 0.32412 0.20565
 H1170 H 0.92803 0.33624 0.24232
 H1171 H 0.93604 0.39732 0.30338
 H1172 H 0.92688 0.43594 0.31747
 H1173 H 0.90247 0.46248 0.29483
 H1174 H 0.88708 0.45055 0.25799
 C1175 C 0.89901 0.59021 0.76641
 C1176 C 0.92164 0.58355 0.76015
 C1177 C 0.93565 0.59898 0.74733
 C1178 C 0.92693 0.62096 0.74078
 C1179 C 0.90440 0.62772 0.74727
 C1180 C 0.89039 0.61229 0.76014
 C1181 C 0.86792 0.61940 0.76641
 C1182 C 0.85951 0.64114 0.76013
 C1183 C 0.87320 0.65623 0.74753
 C1184 C 0.89541 0.64968 0.74112
 C1185 C 0.95822 0.59190 0.74125
 C1186 C 0.96665 0.57019 0.74758
 C1187 C 0.95294 0.55510 0.76012
 C1188 C 0.93069 0.56161 0.76639
 C1189 C 0.94116 0.63637 0.72719
 C1190 C 0.95367 0.64844 0.71585
 C1191 C 0.88458 0.57408 0.77892
 C1192 C 0.87311 0.56005 0.78907
 H1193 H 0.85665 0.60826 0.77623
 H1194 H 0.84228 0.64632 0.76506
 H1195 H 0.86659 0.67310 0.74270
 H1196 H 0.90543 0.66200 0.73134
 H1197 H 0.96960 0.60303 0.73155
 H1198 H 0.98392 0.56506 0.74275
 H1199 H 0.95957 0.53826 0.76503
 H1200 H 0.92073 0.54926 0.77618
 C1201 C 0.76738 0.59062 0.89993
 C1202 C 0.76150 0.58418 0.92257
 C1203 C 0.74899 0.59983 0.93668
 C1204 C 0.74236 0.62182 0.92806
 C1205 C 0.74846 0.62835 0.90552
 C1206 C 0.76103 0.61271 0.89141
 C1207 C 0.76690 0.61960 0.86892
 C1208 C 0.76054 0.64134 0.86060
 C1209 C 0.74825 0.65663 0.87439
 C1210 C 0.74222 0.65030 0.89661
 C1211 C 0.74331 0.59297 0.95926
 C1212 C 0.74972 0.57125 0.96759
 C1213 C 0.76193 0.55595 0.95378
 C1214 C 0.76780 0.56224 0.93152
 C1215 C 0.72903 0.63744 0.94241
 C1216 C 0.71789 0.64964 0.95502
 C1217 C 0.77963 0.57430 0.88542
 C1218 C 0.78960 0.56018 0.87384
 H1219 H 0.77647 0.60830 0.85757
 H1220 H 0.76517 0.64635 0.84336
 H1221 H 0.74336 0.67350 0.86784
 H1222 H 0.73268 0.66278 0.90671
 H1223 H 0.73388 0.60426 0.97071
 H1224 H 0.74519 0.56629 0.98488
 H1225 H 0.76688 0.53910 0.96034
 H1226 H 0.77734 0.54973 0.92147
 C1227 C 0.23552 0.41020 0.89526
 C1228 C 0.25714 0.41710 0.90415
 C1229 C 0.26986 0.40172 0.91837
 C1230 C 0.26090 0.37951 0.92360
 C1231 C 0.23958 0.37238 0.91420
 C1232 C 0.22685 0.38778 0.89997
 C1233 C 0.20552 0.38033 0.89087
 C1234 C 0.19700 0.35828 0.89567
 C1235 C 0.20943 0.34323 0.90959
 C1236 C 0.23048 0.35011 0.91880
 C1237 C 0.29134 0.40910 0.92721
 C1238 C 0.30001 0.43102 0.92213
 C1239 C 0.28759 0.44604 0.90820
 C1240 C 0.26641 0.43925 0.89925
 C1241 C 0.27331 0.36442 0.93925
 C1242 C 0.28378 0.35251 0.95267
 C1243 C 0.22189 0.42656 0.88206
 C1244 C 0.21077 0.44071 0.87161
 H1245 H 0.19527 0.39141 0.87992
 H1246 H 0.18067 0.35284 0.88855
 H1247 H 0.20273 0.32612 0.91327
 H1248 H 0.23955 0.33780 0.92950
 H1249 H 0.30168 0.39802 0.93809
 H1250 H 0.31647 0.43636 0.92903
 H1251 H 0.29441 0.46304 0.90428
 H1252 H 0.25745 0.45152 0.88842
 C1253 C 0.23912 0.58601 0.10407
 C1254 C 0.23078 0.60878 0.10028
 C1255 C 0.24319 0.62418 0.08585
 C1256 C 0.26388 0.61671 0.07530
 C1257 C 0.27252 0.59413 0.07957
 C1258 C 0.26012 0.57875 0.09402
 C1259 C 0.26908 0.55624 0.09796
 C1260 C 0.28966 0.54912 0.08789
 C1261 C 0.30176 0.56414 0.07374
 C1262 C 0.29338 0.58640 0.06957
 C1263 C 0.23444 0.64680 0.08220
 C1264 C 0.21402 0.65402 0.09254
 C1265 C 0.20189 0.63897 0.10667
 C1266 C 0.21009 0.61658 0.11054
 C1267 C 0.27593 0.63189 0.05949
 C1268 C 0.28604 0.64392 0.04595
 C1269 C 0.22579 0.56976 0.11763
 C1270 C 0.21485 0.55579 0.12846
 H1271 H 0.26034 0.54395 0.10892
 H1272 H 0.29625 0.53185 0.09111
 H1273 H 0.31775 0.55852 0.06596
 H1274 H 0.30346 0.59746 0.05847
 H1275 H 0.24330 0.65913 0.07138
 H1276 H 0.20758 0.67140 0.08959
 H1277 H 0.18605 0.64467 0.11467
 H1278 H 0.20008 0.60550 0.12169
 C1279 C 0.76942 0.40956 0.09824
 C1280 C 0.75479 0.39314 0.10885
 C1281 C 0.74172 0.37754 0.09522
 C1282 C 0.74340 0.37844 0.07108
 C1283 C 0.75844 0.39451 0.06048
 C1284 C 0.77145 0.41013 0.07411
 C1285 C 0.78624 0.42615 0.06313
 C1286 C 0.78819 0.42665 0.03937
 C1287 C 0.77553 0.41131 0.02605
 C1288 C 0.76076 0.39543 0.03637
 C1289 C 0.72712 0.36137 0.10619
 C1290 C 0.72549 0.36061 0.12997
 C1291 C 0.73828 0.37585 0.14330
 C1292 C 0.75278 0.39198 0.13296
 C1293 C 0.72924 0.36339 0.05700
 C1294 C 0.71757 0.35157 0.04457
 C1295 C 0.78193 0.42625 0.11204
 C1296 C 0.79218 0.44052 0.12313
 H1297 H 0.79650 0.43839 0.07275
 H1298 H 0.79962 0.43897 0.03126
 H1299 H 0.77719 0.41168 0.00761
 H1300 H 0.75128 0.38387 0.02525
 H1301 H 0.71687 0.34914 0.09653
 H1302 H 0.71425 0.34812 0.13809
 H1303 H 0.73696 0.37518 0.16177
 H1304 H 0.76240 0.40346 0.14404
 C1305 C 0.89376 0.76098 0.58827
 C1306 C 0.89922 0.73738 0.58425
 C1307 C 0.91381 0.72527 0.59972
 C1308 C 0.92285 0.73682 0.61912
 C1309 C 0.91690 0.76024 0.62345
 C1310 C 0.90232 0.77237 0.60796
 C1311 C 0.89678 0.79583 0.61254
 C1312 C 0.90534 0.80698 0.63190
 C1313 C 0.91957 0.79512 0.64705
 C1314 C 0.92536 0.77202 0.64295
 C1315 C 0.91917 0.70173 0.59524
 C1316 C 0.91036 0.69049 0.57605
 C1317 C 0.89610 0.70233 0.56093
 C1318 C 0.89053 0.72551 0.56489
 C1319 C 0.93898 0.72485 0.63403
 C1320 C 0.95279 0.71478 0.64584
 C1321 C 0.87997 0.77365 0.57171
 C1322 C 0.86888 0.78390 0.55747
 H1323 H 0.88578 0.80577 0.60125
 H1324 H 0.90091 0.82492 0.63516
 H1325 H 0.92617 0.80386 0.66207
 H1326 H 0.93646 0.76351 0.65524
 H1327 H 0.93015 0.69176 0.60653
 H1328 H 0.91462 0.67248 0.57290
 H1329 H 0.88929 0.69352 0.54604
 H1330 H 0.87932 0.73395 0.55266
 C1331 C 0.89497 0.23769 0.41183
 C1332 C 0.89868 0.22954 0.38928
 C1333 C 0.91308 0.24223 0.37411
 C1334 C 0.92366 0.26300 0.38159
 C1335 C 0.91942 0.27148 0.40395
 C1336 C 0.90500 0.25882 0.41909
 C1337 C 0.90107 0.26763 0.44137
 C1338 C 0.91115 0.28831 0.44851
 C1339 C 0.92530 0.30066 0.43373
 C1340 C 0.92944 0.29244 0.41169
 C1341 C 0.91666 0.23366 0.35170
 C1342 C 0.90629 0.21315 0.34446
 C1343 C 0.89220 0.20075 0.35929
 C1344 C 0.88839 0.20876 0.38147
 C1345 C 0.93949 0.27529 0.36667
 C1346 C 0.95307 0.28562 0.35486
 C1347 C 0.88156 0.22403 0.42787
 C1348 C 0.87093 0.21286 0.44173
 H1349 H 0.89010 0.25872 0.45346
 H1350 H 0.90795 0.29478 0.46561
 H1351 H 0.93309 0.31673 0.43935
 H1352 H 0.94052 0.30271 0.40081
 H1353 H 0.92744 0.24273 0.33955
 H1354 H 0.90919 0.20685 0.32725
 H1355 H 0.88418 0.18484 0.35358
 H1356 H 0.87727 0.19855 0.39237
 C1357 C 0.10361 0.23778 0.58843
 C1358 C 0.08179 0.24553 0.58070
 C1359 C 0.06676 0.25736 0.59595
 C1360 C 0.07361 0.26137 0.61888
 C1361 C 0.09535 0.25347 0.62666
 C1362 C 0.11040 0.24163 0.61139
 C1363 C 0.13204 0.23390 0.61954
 C1364 C 0.13865 0.23777 0.64214
 C1365 C 0.12395 0.24937 0.65706
 C1366 C 0.10252 0.25716 0.64950
 C1367 C 0.04507 0.26500 0.58778
 C1368 C 0.03842 0.26105 0.56521
 C1369 C 0.05311 0.24945 0.55031
 C1370 C 0.07455 0.24172 0.55787
 C1371 C 0.05825 0.27374 0.63427
 C1372 C 0.04496 0.28416 0.64637
 C1373 C 0.11903 0.22608 0.57262
 C1374 C 0.13131 0.21652 0.55890
 H1375 H 0.14404 0.22478 0.60857
 H1376 H 0.15527 0.23175 0.64811
 H1377 H 0.12917 0.25234 0.67460
 H1378 H 0.09166 0.26608 0.66174
 H1379 H 0.03301 0.27408 0.59871
 H1380 H 0.02177 0.26702 0.55926
 H1381 H 0.04786 0.24641 0.53279
 H1382 H 0.08530 0.23272 0.54563
 C1383 C 0.10221 0.76394 0.41067
 C1384 C 0.10980 0.75929 0.38810
 C1385 C 0.09537 0.74682 0.37278
 C1386 C 0.07345 0.73910 0.38012
 C1387 C 0.06576 0.74398 0.40262
 C1388 C 0.08018 0.75643 0.41793
 C1389 C 0.07213 0.76105 0.44035
 C1390 C 0.05048 0.75354 0.44745
 C1391 C 0.03639 0.74133 0.43249
 C1392 C 0.04382 0.73660 0.41031
 C1393 C 0.10334 0.74232 0.35033
 C1394 C 0.12495 0.74994 0.34321
 C1395 C 0.13904 0.76215 0.35818
 C1396 C 0.13164 0.76682 0.38040
 C1397 C 0.05879 0.72595 0.36472
 C1398 C 0.04608 0.71492 0.35260
 C1399 C 0.11709 0.77613 0.42658
 C1400 C 0.12900 0.78605 0.44035
 H1401 H 0.08242 0.77053 0.45262
 H1402 H 0.04461 0.75721 0.46466
 H1403 H 0.01961 0.73549 0.43811
 H1404 H 0.03219 0.72710 0.39931
 H1405 H 0.09297 0.73291 0.33808
 H1406 H 0.13078 0.74636 0.32597
 H1407 H 0.15581 0.76804 0.35256
 H1408 H 0.14320 0.77640 0.39142
 C1409 C 0.58806 0.89828 0.76673
 C1410 C 0.60710 0.88778 0.75564
 C1411 C 0.62267 0.90162 0.74275
 C1412 C 0.61906 0.92584 0.74099
 C1413 C 0.60016 0.93637 0.75230
 C1414 C 0.58467 0.92257 0.76528
 C1415 C 0.56595 0.93351 0.77648
 C1416 C 0.56249 0.95737 0.77472
 C1417 C 0.57752 0.97084 0.76190
 C1418 C 0.59622 0.96059 0.75086
 C1419 C 0.64153 0.89074 0.73177
 C1420 C 0.64494 0.86687 0.73347
 C1421 C 0.62971 0.85334 0.74604
 C1422 C 0.61096 0.86358 0.75702
 C1423 C 0.63442 0.94000 0.72727
 C1424 C 0.64648 0.95253 0.71592
 C1425 C 0.57161 0.88414 0.77918
 C1426 C 0.55746 0.87287 0.78939
 H1427 H 0.55382 0.92380 0.78672
 H1428 H 0.54804 0.96543 0.78334
 H1429 H 0.57470 0.98935 0.76050
 H1430 H 0.60747 0.97186 0.74119
 H1431 H 0.65383 0.90056 0.72181
 H1432 H 0.65947 0.85883 0.72497
 H1433 H 0.63242 0.83481 0.74729
 H1434 H 0.59959 0.85235 0.76660
 C1435 C 0.40832 0.89340 0.23670
 C1436 C 0.41172 0.89715 0.26040
 C1437 C 0.39642 0.91184 0.27271
 C1438 C 0.37782 0.92270 0.26124
 C1439 C 0.37398 0.91835 0.23770
 C1440 C 0.38929 0.90365 0.22539
 C1441 C 0.38523 0.89971 0.20184
 C1442 C 0.36655 0.90996 0.19076
 C1443 C 0.35158 0.92432 0.20280
 C1444 C 0.35518 0.92854 0.22600
 C1445 C 0.40029 0.91547 0.29635
 C1446 C 0.41873 0.90489 0.30752
 C1447 C 0.43369 0.89054 0.29548
 C1448 C 0.43032 0.88666 0.27219
 C1449 C 0.36333 0.93912 0.27346
 C1450 C 0.35198 0.95314 0.28385
 C1451 C 0.42495 0.87980 0.22386
 C1452 C 0.43934 0.86894 0.21351
 H1453 H 0.39639 0.88865 0.19177
 H1454 H 0.36368 0.90673 0.17274
 H1455 H 0.33710 0.93223 0.19411
 H1456 H 0.34306 0.93981 0.23466
 H1457 H 0.38910 0.92645 0.30648
 H1458 H 0.42141 0.90784 0.32562
 H1459 H 0.44799 0.88235 0.30423
 H1460 H 0.44239 0.87530 0.26359
 C1461 C 0.58882 0.10781 0.23921
 C1462 C 0.58167 0.09837 0.26041
 C1463 C 0.59689 0.08391 0.27306
 C1464 C 0.61920 0.07904 0.26448
 C1465 C 0.62660 0.08908 0.24364
 C1466 C 0.61135 0.10352 0.23096
 C1467 C 0.61905 0.11324 0.21010
 C1468 C 0.64121 0.10884 0.20199
 C1469 C 0.65611 0.09471 0.21437
 C1470 C 0.64897 0.08489 0.23497
 C1471 C 0.58926 0.07446 0.29409
 C1472 C 0.56724 0.07919 0.30239
 C1473 C 0.55238 0.09336 0.29004
 C1474 C 0.55942 0.10290 0.26929
 C1475 C 0.63409 0.06297 0.27668
 C1476 C 0.64581 0.04911 0.28688
 C1477 C 0.57260 0.12109 0.22553
 C1478 C 0.55856 0.13156 0.21436
 H1479 H 0.60809 0.12437 0.19989
 H1480 H 0.64684 0.11643 0.18600
 H1481 H 0.67330 0.09135 0.20800
 H1482 H 0.66118 0.07406 0.24403
 H1483 H 0.60021 0.06339 0.30437
 H1484 H 0.56170 0.07183 0.31851
 H1485 H 0.53531 0.09701 0.29657
 H1486 H 0.54727 0.11391 0.26038
 C1487 C 0.41232 0.10330 0.76245
 C1488 C 0.41959 0.09312 0.74161
 C1489 C 0.40424 0.07881 0.72902
 C1490 C 0.38167 0.07480 0.73731
 C1491 C 0.37421 0.08546 0.75785
 C1492 C 0.38959 0.09976 0.77046
 C1493 C 0.38180 0.11013 0.79100
 C1494 C 0.35943 0.10648 0.79887
 C1495 C 0.34440 0.09249 0.78656
 C1496 C 0.35162 0.08204 0.76627
 C1497 C 0.41198 0.06866 0.70833
 C1498 C 0.43424 0.07257 0.70030
 C1499 C 0.44924 0.08660 0.71259
 C1500 C 0.44209 0.09681 0.73301
 C1501 C 0.36648 0.05916 0.72500
 C1502 C 0.35448 0.04573 0.71463
 C1503 C 0.42852 0.11676 0.77592
 C1504 C 0.44248 0.12749 0.78691
 H1505 H 0.39286 0.12118 0.80115
 H1506 H 0.35374 0.11457 0.81461
 H1507 H 0.32705 0.08971 0.79275
 H1508 H 0.33931 0.07133 0.75726
 H1509 H 0.40095 0.05766 0.69812
 H1510 H 0.43987 0.06468 0.68445
 H1511 H 0.46650 0.08961 0.70627
 H1512 H 0.45437 0.10766 0.74189
 C1513 C 0.59194 0.76363 0.10540
 C1514 C 0.61162 0.77509 0.09667
 C1515 C 0.62724 0.76296 0.08221
 C1516 C 0.62308 0.73945 0.07659
 C1517 C 0.60382 0.72778 0.08595
 C1518 C 0.58821 0.73990 0.10041
 C1519 C 0.56899 0.72791 0.10943
 C1520 C 0.56528 0.70461 0.10430
 C1521 C 0.58052 0.69276 0.09016
 C1522 C 0.59960 0.70412 0.08105
 C1523 C 0.64667 0.77483 0.07352
 C1524 C 0.65059 0.79802 0.07900
 C1525 C 0.63533 0.80987 0.09315
 C1526 C 0.61603 0.79862 0.10192
 C1527 C 0.63797 0.72750 0.06042
 C1528 C 0.64963 0.71733 0.04659
 C1529 C 0.57502 0.77642 0.11867
 C1530 C 0.56050 0.78687 0.12925
 H1531 H 0.55669 0.73635 0.12059
 H1532 H 0.55049 0.69571 0.11137
 H1533 H 0.57757 0.67466 0.08624
 H1534 H 0.61100 0.69413 0.07019
 H1535 H 0.65904 0.76632 0.06250
 H1536 H 0.66556 0.80684 0.07222
 H1537 H 0.63846 0.82787 0.09735
 H1538 H 0.60468 0.80854 0.11290
 C1539 C 0.40923 0.23258 0.09898
 C1540 C 0.39113 0.24587 0.10860
 C1541 C 0.37570 0.25817 0.09408
 C1542 C 0.37848 0.25710 0.07003
 C1543 C 0.39631 0.24343 0.06041
 C1544 C 0.41172 0.23113 0.07492
 C1545 C 0.42948 0.21767 0.06488
 C1546 C 0.43194 0.21641 0.04120
 C1547 C 0.41688 0.22844 0.02701
 C1548 C 0.39925 0.24181 0.03640
 C1549 C 0.35781 0.27144 0.10408
 C1550 C 0.35521 0.27251 0.12776
 C1551 C 0.37029 0.26048 0.14196
 C1552 C 0.38808 0.24729 0.13258
 C1553 C 0.36350 0.27053 0.05513
 C1554 C 0.35170 0.28174 0.04223
 C1555 C 0.42572 0.22090 0.11372
 C1556 C 0.43992 0.21130 0.12544
 H1557 H 0.44159 0.20794 0.07518
 H1558 H 0.44561 0.20602 0.03383
 H1559 H 0.41886 0.22739 0.00862
 H1560 H 0.38795 0.25081 0.02464
 H1561 H 0.34565 0.28107 0.09373
 H1562 H 0.34142 0.28273 0.13514
 H1563 H 0.36819 0.26136 0.16034
 H1564 H 0.39936 0.23822 0.14430
 C1565 C 0.58997 0.23724 0.89607
 C1566 C 0.61232 0.22850 0.90056
 C1567 C 0.62756 0.24110 0.91496
 C1568 C 0.62036 0.26237 0.92478
 C1569 C 0.59822 0.27140 0.91980
 C1570 C 0.58299 0.25882 0.90538
 C1571 C 0.56092 0.26817 0.90071
 C1572 C 0.55405 0.28931 0.91007
 C1573 C 0.56892 0.30159 0.92421
 C1574 C 0.59077 0.29283 0.92907
 C1575 C 0.64976 0.23194 0.91933
 C1576 C 0.65672 0.21095 0.90971
 C1577 C 0.64182 0.19863 0.89563
 C1578 C 0.61984 0.20722 0.89105
 C1579 C 0.63532 0.27460 0.94061
 C1580 C 0.64716 0.28487 0.95418
 C1581 C 0.57381 0.22375 0.88261
 C1582 C 0.55984 0.21276 0.87188
 H1583 H 0.54877 0.25933 0.88973
 H1584 H 0.53711 0.29620 0.90632
 H1585 H 0.56351 0.31801 0.93143
 H1586 H 0.60172 0.30307 0.94011
 H1587 H 0.66197 0.24092 0.93015
 H1588 H 0.67378 0.20420 0.91321
 H1589 H 0.64731 0.18233 0.88820
 H1590 H 0.60886 0.19705 0.87996
 C1591 C 0.40872 0.76702 0.90068
 C1592 C 0.39258 0.75176 0.89056
 C1593 C 0.37717 0.73897 0.90462
 C1594 C 0.37797 0.74155 0.92869
 C1595 C 0.39372 0.75726 0.93877
 C1596 C 0.40918 0.76999 0.92473
 C1597 C 0.42491 0.78543 0.93522
 C1598 C 0.42527 0.78830 0.95889
 C1599 C 0.41010 0.77594 0.97262
 C1600 C 0.39451 0.76052 0.96278
 C1601 C 0.36130 0.72370 0.89413
 C1602 C 0.36064 0.72117 0.87042
 C1603 C 0.37570 0.73370 0.85668
 C1604 C 0.39153 0.74884 0.86655
 C1605 C 0.36321 0.72755 0.94322
 C1606 C 0.35162 0.71591 0.95588
 C1607 C 0.42528 0.77921 0.88651
 C1608 C 0.43946 0.78923 0.87516
 H1609 H 0.43703 0.79548 0.92527
 H1610 H 0.43737 0.80022 0.96662
 H1611 H 0.41037 0.77832 0.99098
 H1612 H 0.38307 0.75130 0.97420
 H1613 H 0.34922 0.71363 0.90411
 H1614 H 0.34837 0.70944 0.86268
 H1615 H 0.37511 0.73168 0.83828
 H1616 H 0.40288 0.75822 0.85516
 C1617 C 0.76104 0.89259 0.40758
 C1618 C 0.77201 0.90170 0.38792
 C1619 C 0.75966 0.91661 0.37289
 C1620 C 0.73640 0.92230 0.37762
 C1621 C 0.72521 0.91254 0.39686
 C1622 C 0.73755 0.89763 0.41187
 C1623 C 0.72603 0.88821 0.43108
 C1624 C 0.70298 0.89339 0.43536
 C1625 C 0.69091 0.90799 0.42070
 C1626 C 0.70180 0.91750 0.40165
 C1627 C 0.77106 0.92569 0.35347
 C1628 C 0.79400 0.92015 0.34898
 C1629 C 0.80606 0.90555 0.36365
 C1630 C 0.79529 0.89639 0.38294
 C1631 C 0.72425 0.93894 0.36336
 C1632 C 0.71394 0.95316 0.35219
 C1633 C 0.77410 0.87898 0.42399
 C1634 C 0.78474 0.86820 0.43818
 H1635 H 0.73465 0.87668 0.44293
 H1636 H 0.69444 0.88603 0.45012
 H1637 H 0.67300 0.91196 0.42409
 H1638 H 0.69166 0.92872 0.39073
 H1639 H 0.76236 0.93708 0.34154
 H1640 H 0.80245 0.92722 0.33402
 H1641 H 0.82387 0.90129 0.36008
 H1642 H 0.80536 0.88507 0.39383
 C1643 C 0.23394 0.89879 0.58815
 C1644 C 0.23539 0.92297 0.58413
 C1645 C 0.24763 0.93735 0.59968
 C1646 C 0.25847 0.92745 0.61909
 C1647 C 0.25668 0.90334 0.62330
 C1648 C 0.24435 0.88897 0.60780
 C1649 C 0.24285 0.86491 0.61233
 C1650 C 0.25323 0.85531 0.63164
 C1651 C 0.26530 0.86936 0.64679
 C1652 C 0.26706 0.89311 0.64275
 C1653 C 0.24881 0.96148 0.59530
 C1654 C 0.23822 0.97111 0.57612
 C1655 C 0.22634 0.95703 0.56087
 C1656 C 0.22489 0.93323 0.56473
 C1657 C 0.27191 0.94207 0.63428
 C1658 C 0.28318 0.95476 0.64623
 C1659 C 0.22213 0.88406 0.57178
 C1660 C 0.21249 0.87220 0.55776
 H1661 H 0.23362 0.85329 0.60105
 H1662 H 0.25191 0.83687 0.63486
 H1663 H 0.27334 0.86182 0.66176
 H1664 H 0.27659 0.90335 0.65504
 H1665 H 0.25785 0.97317 0.60666
 H1666 H 0.23923 0.98959 0.57309
 H1667 H 0.21818 0.96459 0.54598
 H1668 H 0.21543 0.92301 0.55239
 C1669 C 0.23764 0.10433 0.41166
 C1670 C 0.24551 0.08231 0.41909
 C1671 C 0.25759 0.06759 0.40368
 C1672 C 0.26170 0.07496 0.38092
 C1673 C 0.25364 0.09687 0.37344
 C1674 C 0.24156 0.11160 0.38886
 C1675 C 0.23368 0.13344 0.38102
 C1676 C 0.23764 0.14053 0.35857
 C1677 C 0.24946 0.12614 0.34350
 C1678 C 0.25741 0.10454 0.35076
 C1679 C 0.26537 0.04570 0.41154
 C1680 C 0.26136 0.03858 0.43397
 C1681 C 0.24950 0.05295 0.44901
 C1682 C 0.24161 0.07456 0.44175
 C1683 C 0.27433 0.05994 0.36540
 C1684 C 0.28494 0.04686 0.35321
 C1685 C 0.22580 0.11949 0.42765
 C1686 C 0.21616 0.13164 0.44146
 H1687 H 0.22438 0.14521 0.39211
 H1688 H 0.23149 0.15729 0.35284
 H1689 H 0.25250 0.13174 0.32608
 H1690 H 0.26651 0.09394 0.33842
 H1691 H 0.27463 0.03385 0.40050
 H1692 H 0.26751 0.02183 0.43971
 H1693 H 0.24640 0.04732 0.46641
 H1694 H 0.23242 0.08507 0.45408
 C1695 C 0.76198 0.10324 0.58901
 C1696 C 0.74090 0.09324 0.58193
 C1697 C 0.72839 0.07878 0.59718
 C1698 C 0.73699 0.07447 0.61946
 C1699 C 0.75772 0.08505 0.62677
 C1700 C 0.77026 0.09948 0.61149
 C1701 C 0.79100 0.10976 0.61912
 C1702 C 0.79912 0.10591 0.64124
 C1703 C 0.78686 0.09179 0.65617
 C1704 C 0.76640 0.08142 0.64910
 C1705 C 0.70746 0.06880 0.58962
 C1706 C 0.69911 0.07302 0.56766
 C1707 C 0.71131 0.08720 0.55277
 C1708 C 0.73197 0.09725 0.55973
 C1709 C 0.72484 0.05857 0.63446
 C1710 C 0.71457 0.04489 0.64624
 C1711 C 0.77546 0.11669 0.57285
 C1712 C 0.78645 0.12739 0.55890
 H1713 H 0.80110 0.12090 0.60812
 H1714 H 0.81500 0.11393 0.64682
 H1715 H 0.79324 0.08886 0.67334
 H1716 H 0.75744 0.07060 0.66133
 H1717 H 0.69730 0.05769 0.60059
 H1718 H 0.68306 0.06526 0.56218
 H1719 H 0.70474 0.09047 0.53574
 H1720 H 0.74076 0.10824 0.54756
 C1721 C 0.89792 0.58910 0.23527
 C1722 C 0.90304 0.61142 0.22659
 C1723 C 0.91743 0.62665 0.23929
 C1724 C 0.92659 0.61945 0.26060
 C1725 C 0.92091 0.59737 0.26958
 C1726 C 0.90652 0.58217 0.25689
 C1727 C 0.90117 0.56014 0.26617
 C1728 C 0.90985 0.55331 0.28735
 C1729 C 0.92395 0.56816 0.29975
 C1730 C 0.92947 0.58995 0.29105
 C1731 C 0.92245 0.64881 0.23020
 C1732 C 0.91348 0.65576 0.20916
 C1733 C 0.89940 0.64088 0.19675
 C1734 C 0.89419 0.61893 0.20527
 C1735 C 0.94246 0.63431 0.27298
 C1736 C 0.95604 0.64601 0.28347
 C1737 C 0.88461 0.57288 0.22166
 C1738 C 0.87407 0.55884 0.21054
 H1739 H 0.89018 0.54801 0.25723
 H1740 H 0.90559 0.53640 0.29419
 H1741 H 0.93065 0.56278 0.31620
 H1742 H 0.94046 0.60090 0.30138
 H1743 H 0.93329 0.66100 0.23925
 H1744 H 0.91747 0.67278 0.20246
 H1745 H 0.89247 0.64636 0.18043
 H1746 H 0.88313 0.60797 0.19503
 C1747 C 0.90052 0.41047 0.76770
 C1748 C 0.92305 0.41708 0.76112
 C1749 C 0.93704 0.40148 0.74838
 C1750 C 0.92841 0.37936 0.74225
 C1751 C 0.90601 0.37263 0.74910
 C1752 C 0.89203 0.38822 0.76190
 C1753 C 0.86969 0.38113 0.76854
 C1754 C 0.86139 0.35925 0.76269
 C1755 C 0.87504 0.34403 0.75015
 C1756 C 0.89712 0.35055 0.74338
 C1757 C 0.95950 0.40852 0.74196
 C1758 C 0.96785 0.43034 0.74789
 C1759 C 0.95417 0.44559 0.76035
 C1760 C 0.93202 0.43913 0.76694
 C1761 C 0.94258 0.36381 0.72864
 C1762 C 0.95500 0.35167 0.71722
 C1763 C 0.88600 0.42679 0.77999
 C1764 C 0.87429 0.44086 0.78991
 H1765 H 0.85845 0.39236 0.77833
 H1766 H 0.84426 0.35409 0.76792
 H1767 H 0.86850 0.32706 0.74564
 H1768 H 0.90712 0.33812 0.73367
 H1769 H 0.97084 0.39727 0.73231
 H1770 H 0.98504 0.43544 0.74280
 H1771 H 0.96076 0.46251 0.76495
 H1772 H 0.92207 0.45160 0.77664
 C1773 C 0.09842 0.59133 0.76815
 C1774 C 0.07410 0.59050 0.76978
 C1775 C 0.06041 0.60618 0.75682
 C1776 C 0.07112 0.62256 0.74224
 C1777 C 0.09544 0.62375 0.74102
 C1778 C 0.10914 0.60809 0.75403
 C1779 C 0.13342 0.60955 0.75247
 C1780 C 0.14387 0.62601 0.73847
 C1781 C 0.13048 0.64130 0.72573
 C1782 C 0.10653 0.64025 0.72692
 C1783 C 0.03611 0.60499 0.75874
 C1784 C 0.02567 0.58882 0.77306
 C1785 C 0.03905 0.57343 0.78566
 C1786 C 0.06299 0.57417 0.78410
 C1787 C 0.05699 0.63762 0.72808
 C1788 C 0.04449 0.64940 0.71638
 C1789 C 0.11229 0.57452 0.78053
 C1790 C 0.12342 0.56014 0.79066
 H1791 H 0.14455 0.59805 0.76208
 H1792 H 0.16247 0.62691 0.73750
 H1793 H 0.13869 0.65406 0.71488
 H1794 H 0.09683 0.65253 0.71673
 H1795 H 0.02494 0.61658 0.74929
 H1796 H 0.00709 0.58825 0.77443
 H1797 H 0.03085 0.56088 0.79675
 H1798 H 0.07265 0.56188 0.79431
 C1799 C 0.10096 0.40885 0.23471
 C1800 C 0.11066 0.39041 0.24750
 C1801 C 0.09611 0.37525 0.26010
 C1802 C 0.07195 0.37864 0.25984
 C1803 C 0.06222 0.39684 0.24672
 C1804 C 0.07676 0.41198 0.23412
 C1805 C 0.06663 0.43011 0.22120
 C1806 C 0.04283 0.43321 0.22077
 C1807 C 0.02861 0.41842 0.23310
 C1808 C 0.03809 0.40042 0.24594
 C1809 C 0.10620 0.35700 0.27284
 C1810 C 0.13001 0.35381 0.27311
 C1811 C 0.14423 0.36863 0.26079
 C1812 C 0.13476 0.38676 0.24811
 C1813 C 0.05702 0.36385 0.27343
 C1814 C 0.04403 0.35224 0.28470
 C1815 C 0.11575 0.42499 0.22259
 C1816 C 0.12745 0.43895 0.21258
 H1817 H 0.07695 0.44203 0.21127
 H1818 H 0.03539 0.44716 0.21081
 H1819 H 0.01012 0.42089 0.23270
 H1820 H 0.02629 0.38936 0.25520
 H1821 H 0.09583 0.34503 0.28266
 H1822 H 0.13745 0.33975 0.28293
 H1823 H 0.16270 0.36607 0.26106
 H1824 H 0.14651 0.39783 0.23878
   
