data_POSCAR
  _audit_creation_date              2014-09-24
  _audit_creation_method            'ToBaCCo'
  _symmetry_space_group_name_H-M    'P1'
  _symmetry_Int_Tables_number       1
  _symmetry_cell_setting            triclinic
  loop_
  _symmetry_equiv_pos_as_xyz
 x,y,z
_cell_length_a 42.6921
_cell_length_b 42.8565
_cell_length_c 37.4354
_cell_angle_alpha 88.176100
_cell_angle_beta 88.342100
_cell_angle_gamma 90.887200
loop_
  _atom_site_label
  _atom_site_type_symbol
  _atom_site_fract_x
  _atom_site_fract_y
  _atom_site_fract_z
C1 C 0.34876 -0.00822 0.25208
 C2 C 0.15547 0.00702 0.73982
 C3 C 0.63836 0.49035 0.25831
 C4 C 0.85107 0.50949 0.75504
 C5 C 0.25047 0.39988 0.99566
 C6 C 0.75232 0.10848 1.01254
 C7 C 0.23959 0.60336 0.51950
 C8 C 0.74346 0.89832 0.46153
 C9 C 0.00299 0.24423 0.38572
 C10 C 0.00431 0.75416 0.11746
 C11 C 0.50990 0.24777 0.63184
 C12 C 0.50425 0.75164 0.87578
 C13 C -0.24688 0.59936 0.98018
 C14 C -0.25865 0.39993 0.48585
 C15 C 0.24902 -0.10099 0.01852
 C16 C 0.25025 1.09906 0.51000
 C17 C 0.15147 0.49169 0.25517
 C18 C -0.14826 0.98799 0.26327
 C19 C 0.34446 0.50838 -0.24717
 C20 C 0.65597 0.00677 -0.25928
 C21 C -0.00061 0.26156 0.87781
 C22 C 0.50713 0.25142 0.11547
 C23 C 0.00754 0.73685 0.63208
 C24 C 0.50146 0.75467 0.37713
 B25 B -0.01747 0.02544 1.03577
 B26 B -0.03136 0.02138 0.99455
 B27 B -0.00351 0.04864 1.00120
 B28 B 0.02138 0.03435 1.03209
 B29 B 0.00847 -0.00250 1.04365
 B30 B -0.02431 -0.01057 1.02029
 B31 B 0.02438 -0.00089 0.97224
 B32 B 0.03828 0.00302 1.01349
 B33 B 0.01029 -0.02407 1.00665
 B34 B -0.01446 -0.00978 0.97585
 B35 B -0.00157 0.02706 0.96424
 B36 B 0.03125 0.03513 0.98768
 B37 B 0.47786 0.52467 0.54164
 B38 B 0.45620 0.51084 0.50848
 B39 B 0.48322 0.53943 0.49985
 B40 B 0.51458 0.53264 0.52537
 B41 B 0.50656 0.49914 0.54985
 B42 B 0.47005 0.48591 0.53961
 B43 B 0.50747 0.48468 0.47926
 B44 B 0.52914 0.49839 0.51244
 B45 B 0.50196 0.46984 0.52106
 B46 B 0.47075 0.47668 0.49553
 B47 B 0.47887 0.51016 0.47109
 B48 B 0.51520 0.52343 0.48132
 B49 B 0.52319 0.99102 0.52188
 B50 B 0.53568 0.99865 0.47944
 B51 B 0.50800 0.97087 0.48795
 B52 B 0.48433 0.98241 0.52208
 B53 B 0.49768 1.01823 0.53389
 B54 B 0.52971 1.02828 0.50728
 B55 B 0.47943 1.02308 0.46443
 B56 B 0.46701 1.01529 0.50684
 B57 B 0.49480 1.04317 0.49833
 B58 B 0.51840 1.03154 0.46411
 B59 B 0.50495 0.99580 0.45231
 B60 B 0.47304 0.98562 0.47890
 B61 B 0.02171 0.48887 1.03547
 B62 B 0.03744 0.49471 0.99405
 B63 B 0.00880 0.46773 1.00121
 B64 B -0.01710 0.48101 1.03223
 B65 B -0.00399 0.51710 1.04351
 B66 B 0.03001 0.52552 1.01967
 B67 B -0.01670 0.51930 0.97212
 B68 B -0.03246 0.51359 1.01350
 B69 B -0.00364 0.54050 1.00620
 B70 B 0.02209 0.52715 0.97530
 B71 B 0.00897 0.49118 0.96405
 B72 B -0.02496 0.48266 0.98788
 B73 B 0.01406 0.51492 0.46928
 B74 B 0.02569 0.50584 0.51118
 B75 B -0.00235 0.53265 0.50449
 B76 B -0.02501 0.52107 0.47087
 B77 B -0.01065 0.48646 0.45683
 B78 B 0.02102 0.47736 0.48145
 B79 B -0.03037 0.47821 0.52670
 B80 B -0.04198 0.48669 0.48500
 B81 B -0.01382 0.46029 0.49155
 B82 B 0.00868 0.47194 0.52510
 B83 B -0.00574 0.50647 0.53913
 B84 B -0.03743 0.51542 0.51407
 B85 B 0.52599 0.01494 -0.02923
 B86 B 0.53989 0.00825 0.01209
 B87 B 0.51143 0.03450 0.00611
 B88 B 0.48695 0.02135 -0.02536
 B89 B 0.50071 -0.01389 -0.03822
 B90 B 0.53383 -0.02188 -0.01506
 B91 B 0.48476 -0.01890 0.03320
 B92 B 0.47078 -0.01232 -0.00785
 B93 B 0.49944 -0.03855 -0.00209
 B94 B 0.52374 -0.02540 0.02938
 B95 B 0.50993 0.00975 0.04225
 B96 B 0.47716 0.01803 0.01894
 B97 B 0.48479 0.48721 -0.04174
 B98 B 0.46649 0.49174 -0.00159
 B99 B 0.49283 0.46297 -0.00722
 B100 B 0.52207 0.47701 -0.03520
 B101 B 0.51354 0.51454 -0.04647
 B102 B 0.47881 0.52343 -0.02600
 B103 B 0.52105 0.51050 0.02590
 B104 B 0.53900 0.50685 -0.01422
 B105 B 0.51268 0.53516 -0.00878
 B106 B 0.48366 0.52130 0.01930
 B107 B 0.49225 0.48347 0.03070
 B108 B 0.52681 0.47469 0.00971
 B109 B -0.01547 0.96903 0.47320
 B110 B -0.03776 0.98184 0.50737
 B111 B -0.01132 0.95346 0.51449
 B112 B 0.02072 0.96122 0.48791
 B113 B 0.01385 0.99509 0.46459
 B114 B -0.02244 1.00764 0.47641
 B115 B 0.01329 1.00813 0.53545
 B116 B 0.03560 0.99534 0.50117
 B117 B 0.00928 1.02365 0.49431
 B118 B -0.02286 1.01595 0.52069
 B119 B -0.01614 0.98217 0.54405
 B120 B 0.02050 0.96965 0.53219
 B121 B 0.77470 0.22801 0.22836
 B122 B 0.76353 0.20656 0.26560
 B123 B 0.78721 0.23840 0.26867
 B124 B 0.77605 0.26610 0.23878
 B125 B 0.74474 0.25134 0.21742
 B126 B 0.73754 0.21416 0.23383
 B127 B 0.72823 0.25458 0.28820
 B128 B 0.73938 0.27568 0.25104
 B129 B 0.71552 0.24401 0.24789
 B130 B 0.72654 0.21643 0.27789
 B131 B 0.75794 0.23100 0.29922
 B132 B 0.76555 0.26797 0.28293
 B133 B 0.72675 0.76833 0.68679
 B134 B 0.73496 0.78534 0.72523
 B135 B 0.70580 0.75849 0.72491
 B136 B 0.71633 0.73048 0.69623
 B137 B 0.75290 0.74036 0.67942
 B138 B 0.76451 0.77454 0.69764
 B139 B 0.75699 0.73113 0.75191
 B140 B 0.74830 0.71375 0.71340
 B141 B 0.77757 0.74064 0.71423
 B142 B 0.76698 0.76878 0.74252
 B143 B 0.73051 0.75900 0.75909
 B144 B 0.71919 0.72459 0.74152
 B145 B 0.26962 0.27655 0.77634
 B146 B 0.26265 0.29020 0.73480
 B147 B 0.28827 0.26114 0.74082
 B148 B 0.27492 0.23755 0.77515
 B149 B 0.24023 0.25224 0.79008
 B150 B 0.23267 0.28508 0.76498
 B151 B 0.23371 0.23575 0.72053
 B152 B 0.24068 0.22220 0.76220
 B153 B 0.21498 0.25124 0.75611
 B154 B 0.22836 0.27482 0.72173
 B155 B 0.26301 0.26017 0.70687
 B156 B 0.27064 0.22734 0.73196
 B157 B 0.22409 0.72343 0.28987
 B158 B 0.23611 0.70953 0.25018
 B159 B 0.21060 0.73914 0.25140
 B160 B 0.22006 0.76249 0.28507
 B161 B 0.25233 0.74716 0.30443
 B162 B 0.26201 0.71401 0.28280
 B163 B 0.26818 0.76348 0.23495
 B164 B 0.25600 0.77721 0.27476
 B165 B 0.28170 0.74758 0.27309
 B166 B 0.27217 0.72431 0.23957
 B167 B 0.23999 0.73960 0.22032
 B168 B 0.23021 0.77267 0.24179
 B169 B 0.26537 0.73450 0.73695
 B170 B 0.25889 0.72042 0.77894
 B171 B 0.28585 0.74909 0.77099
 B172 B 0.27286 0.77338 0.73827
 B173 B 0.23706 0.75953 0.72669
 B174 B 0.22842 0.72655 0.75201
 B175 B 0.23306 0.77502 0.79699
 B176 B 0.23972 0.78912 0.75500
 B177 B 0.21270 0.76045 0.76294
 B178 B 0.22573 0.73611 0.79570
 B179 B 0.26150 0.75004 0.80738
 B180 B 0.27016 0.78310 0.78206
 B181 B 0.23640 0.26107 0.21558
 B182 B 0.24322 0.27620 0.25551
 B183 B 0.21681 0.24680 0.25281
 B184 B 0.22984 0.22213 0.22149
 B185 B 0.26502 0.23657 0.20550
 B186 B 0.27341 0.27019 0.22675
 B187 B 0.27046 0.22258 0.27697
 B188 B 0.26361 0.20755 0.23687
 B189 B 0.28993 0.23693 0.23984
 B190 B 0.27687 0.26160 0.27114
 B191 B 0.24159 0.24719 0.28712
 B192 B 0.23347 0.21340 0.26594
 B193 B 0.76106 0.76051 0.25927
 B194 B 0.75163 0.77978 0.22121
 B195 B 0.78000 0.75269 0.22087
 B196 B 0.76919 0.72316 0.25026
 B197 B 0.73358 0.73253 0.26831
 B198 B 0.72317 0.76761 0.25057
 B199 B 0.72719 0.72654 0.19622
 B200 B 0.73561 0.70763 0.23483
 B201 B 0.70777 0.73499 0.23488
 B202 B 0.71875 0.76407 0.20552
 B203 B 0.75419 0.75475 0.18745
 B204 B 0.76493 0.71941 0.20566
 B205 B 0.74233 0.23809 0.78685
 B206 B 0.74891 0.22313 0.74647
 B207 B 0.71957 0.24833 0.75227
 B208 B 0.73106 0.27553 0.78141
 B209 B 0.76845 0.26679 0.79276
 B210 B 0.77946 0.23419 0.77087
 B211 B 0.76847 0.27986 0.72054
 B212 B 0.76200 0.29469 0.76116
 B213 B 0.79136 0.26941 0.75507
 B214 B 0.77969 0.24227 0.72604
 B215 B 0.74244 0.25100 0.71478
 B216 B 0.73137 0.28368 0.73661
 C217 C 0.40008 1.03343 0.33927
 C218 C 0.41510 1.03060 0.30562
 C219 C 0.39862 1.01909 0.27679
 C220 C 0.36758 1.00741 0.28174
 C221 C 0.35178 1.01442 0.31403
 C222 C 0.36756 1.02766 0.34196
 C223 C 0.41825 1.03762 0.37241
 C224 C 0.40741 1.02220 0.40406
 C225 C 0.42574 1.02053 0.43386
 C226 C 0.45598 1.03421 0.43378
 C227 C 0.46640 1.05139 0.40290
 C228 C 0.44769 1.05313 0.37248
 H229 H 0.41066 1.01874 0.25103
 H230 H 0.32712 1.00881 0.31814
 H231 H 0.41668 1.00599 0.45601
 H232 H 0.48966 1.06188 0.40146
 H233 H 0.35438 1.03189 0.36641
 H234 H 0.38563 1.00893 0.40536
 H235 H 0.43982 1.03601 0.30175
 H236 H 0.45681 1.06556 0.34871
 C237 C -0.08900 0.53648 0.84238
 C238 C -0.07533 0.52330 0.81203
 C239 C -0.09382 0.51488 0.78350
 C240 C -0.12646 0.52019 0.78429
 C241 C -0.13970 0.53375 0.81500
 C242 C -0.12122 0.54230 0.84319
 C243 C -0.07166 0.53747 0.87589
 C244 C -0.08488 0.52164 0.90593
 C245 C -0.06788 0.51749 0.93649
 C246 C -0.03733 0.53015 0.93896
 C247 C -0.02439 0.54727 0.90922
 C248 C -0.04134 0.55058 0.87766
 H249 H -0.08249 0.50267 0.76206
 H250 H -0.16473 0.53738 0.81722
 H251 H -0.07860 0.50278 0.95754
 H252 H -0.00073 0.55668 0.90968
 H253 H -0.13241 0.55195 0.86663
 H254 H -0.10780 0.51052 0.90503
 H255 H -0.05073 0.51743 0.81149
 H256 H -0.03058 0.56263 0.85447
 C257 C 0.09969 -0.00876 0.83989
 C258 C 0.10917 -0.03438 0.82036
 C259 C 0.12745 -0.02993 0.78886
 C260 C 0.13632 0.00047 0.77565
 C261 C 0.12612 0.02591 0.79594
 C262 C 0.10822 0.02137 0.82731
 C263 C 0.08263 -0.01264 0.87464
 C264 C 0.09429 0.00296 0.90370
 C265 C 0.07649 0.00479 0.93501
 C266 C 0.04652 -0.00952 0.93876
 C267 C 0.03564 -0.02710 0.91036
 C268 C 0.05367 -0.02869 0.87842
 H269 H 0.13439 -0.05072 0.77558
 H270 H 0.13134 0.04973 0.78690
 H271 H 0.08605 0.01876 0.95577
 H272 H 0.01268 -0.03822 0.91211
 H273 H 0.10090 0.04160 0.84186
 H274 H 0.11674 0.01514 0.90154
 H275 H 0.10309 -0.05788 0.82994
 H276 H 0.04428 -0.04089 0.85611
 C277 C 0.58096 0.46025 0.35271
 C278 C 0.60735 0.47955 0.35629
 C279 C 0.62556 0.48924 0.32638
 C280 C 0.61775 0.48023 0.29165
 C281 C 0.59315 0.45805 0.28899
 C282 C 0.57425 0.44909 0.31892
 C283 C 0.55876 0.45569 0.38353
 C284 C 0.52817 0.46657 0.38067
 C285 C 0.51016 0.47227 0.41140
 C286 C 0.52240 0.46710 0.44566
 C287 C 0.55091 0.45124 0.44809
 C288 C 0.56938 0.44640 0.41733
 H289 H 0.64586 0.50382 0.33087
 H290 H 0.58790 0.44846 0.26339
 H291 H 0.48770 0.48315 0.40796
 H292 H 0.56020 0.44473 0.47374
 H293 H 0.55420 0.43375 0.31567
 H294 H 0.51935 0.47361 0.35485
 H295 H 0.61320 0.48823 0.38219
 H296 H 0.59275 0.43730 0.42008
 C297 C 0.58780 0.51823 0.16185
 C298 C 0.62065 0.51731 0.16204
 C299 C 0.63610 0.50882 0.19304
 C300 C 0.61940 0.50093 0.22526
 C301 C 0.58665 0.50578 0.22595
 C302 C 0.57101 0.51363 0.19447
 C303 C 0.57167 0.51999 0.12706
 C304 C 0.54366 0.53638 0.12202
 C305 C 0.52819 0.53525 0.08927
 C306 C 0.54036 0.51753 0.06118
 C307 C 0.56860 0.50164 0.06667
 C308 C 0.58392 0.50298 0.09872
 H309 H 0.66138 0.50725 0.19153
 H310 H 0.57275 0.50333 0.25044
 H311 H 0.50629 0.54735 0.08639
 H312 H 0.57877 0.48698 0.04657
 H313 H 0.54569 0.51489 0.19544
 H314 H 0.53357 0.54969 0.14345
 H315 H 0.63450 0.52200 0.13771
 H316 H 0.60486 0.48931 0.10175
 C317 C 0.09085 1.03288 0.65434
 C318 C 0.12107 1.02243 0.64604
 C319 C 0.14146 1.01437 0.67329
 C320 C 0.13237 1.01660 0.70982
 C321 C 0.10204 1.02818 0.71735
 C322 C 0.08186 1.03626 0.69016
 C323 C 0.06725 1.03550 0.62634
 C324 C 0.03817 1.02027 0.63202
 C325 C 0.01876 1.01525 0.60353
 C326 C 0.02813 1.02517 0.56858
 C327 C 0.05470 1.04493 0.56409
 C328 C 0.07461 1.04939 0.59262
 H329 H 0.16454 1.00623 0.66577
 H330 H 0.09272 1.03070 0.74401
 H331 H -0.00213 1.00106 0.60878
 H332 H 0.06210 1.05407 0.53788
 H333 H 0.05864 1.04432 0.69726
 H334 H 0.03164 1.00962 0.65785
 H335 H 0.12847 1.01916 0.61852
 H336 H 0.09661 1.06196 0.58783
 C337 C -0.10035 0.47629 0.65898
 C338 C -0.09273 0.50543 0.67262
 C339 C -0.10862 0.51607 0.70294
 C340 C -0.13167 0.49727 0.72131
 C341 C -0.14013 0.46861 0.70583
 C342 C -0.12445 0.45821 0.67535
 C343 C -0.08595 0.46704 0.62488
 C344 C -0.05585 0.45451 0.62330
 C345 C -0.03960 0.45281 0.59037
 C346 C -0.05289 0.46478 0.55881
 C347 C -0.08441 0.47430 0.56067
 C348 C -0.10077 0.47514 0.59328
 H349 H -0.10262 0.53894 0.71244
 H350 H -0.15937 0.45415 0.71646
 H351 H -0.01547 0.44543 0.59034
 H352 H -0.09558 0.48485 0.53791
 H353 H -0.13159 0.43634 0.66406
 H354 H -0.04417 0.44805 0.64769
 H355 H -0.07498 0.52028 0.65921
 H356 H -0.12401 0.48497 0.59417
 C357 C 0.40403 -0.04360 0.16222
 C358 C 0.41713 -0.04353 0.19625
 C359 C 0.39891 -0.03496 0.22615
 C360 C 0.36842 -0.02320 0.22184
 C361 C 0.35443 -0.02807 0.18878
 C362 C 0.37162 -0.03913 0.15995
 C363 C 0.42383 -0.04217 0.12867
 C364 C 0.41417 -0.02254 0.10060
 C365 C 0.43275 -0.01726 0.07027
 C366 C 0.46231 -0.03109 0.06619
 C367 C 0.47215 -0.05143 0.09380
 C368 C 0.45304 -0.05693 0.12490
 H369 H 0.40940 -0.03592 0.25209
 H370 H 0.33037 -0.02190 0.18443
 H371 H 0.42387 -0.00099 0.05050
 H372 H 0.49491 -0.06216 0.09195
 H373 H 0.35994 -0.04149 0.13485
 H374 H 0.39273 -0.00949 0.10255
 H375 H 0.44171 -0.04831 0.19953
 H376 H 0.46135 -0.07211 0.14612
 C377 C 0.33269 0.45838 0.01597
 C378 C 0.31035 0.46792 -0.00872
 C379 C 0.28376 0.44969 -0.01388
 C380 C 0.27727 0.42213 0.00702
 C381 C 0.29739 0.41541 0.03544
 C382 C 0.32510 0.43270 0.03915
 C383 C 0.36498 0.47238 0.01414
 C384 C 0.38487 0.47052 0.04349
 C385 C 0.41682 0.47791 0.03911
 C386 C 0.42959 0.48714 0.00527
 C387 C 0.40890 0.49344 -0.02236
 C388 C 0.37739 0.48512 -0.01850
 H389 H 0.26898 0.45643 -0.03574
 H390 H 0.29312 0.39610 0.05410
 H391 H 0.43171 0.47485 0.06185
 H392 H 0.41713 0.50361 -0.04778
 H393 H 0.34123 0.42460 0.05902
 H394 H 0.37612 0.46244 0.06962
 H395 H 0.31402 0.48862 -0.02570
 H396 H 0.36342 0.48737 -0.04203
 C397 C -0.17041 0.94604 0.49346
 C398 C -0.18280 0.95109 0.45935
 C399 C -0.21111 0.93708 0.45040
 C400 C -0.22780 0.91674 0.47474
 C401 C -0.21516 0.91168 0.50886
 C402 C -0.18760 0.92684 0.51835
 C403 C -0.13863 0.95857 0.50183
 C404 C -0.11969 0.94271 0.52644
 C405 C -0.08862 0.95203 0.53084
 C406 C -0.07497 0.97633 0.50943
 C407 C -0.09452 0.99384 0.48701
 C408 C -0.12595 0.98528 0.48357
 H409 H -0.21951 0.94120 0.42367
 H410 H -0.22557 0.89529 0.52837
 H411 H -0.07506 0.93894 0.54967
 H412 H -0.08540 1.01351 0.47089
 H413 H -0.17951 0.92267 0.54516
 H414 H -0.12806 0.92202 0.54122
 H415 H -0.17018 0.96486 0.43878
 H416 H -0.13993 0.99922 0.46570
 C417 C -0.16154 0.06330 0.97609
 C418 C -0.16539 0.09554 0.97224
 C419 C -0.19363 0.10886 0.98191
 C420 C -0.21925 0.09064 0.99604
 C421 C -0.21726 0.05805 0.99099
 C422 C -0.18824 0.04435 0.98294
 C423 C -0.12928 0.05135 0.97884
 C424 C -0.11860 0.02436 0.96216
 C425 C -0.08737 0.01478 0.96611
 C426 C -0.06669 0.03194 0.98702
 C427 C -0.07824 0.05854 1.00381
 C428 C -0.10873 0.06790 0.99992
 H429 H -0.19488 0.13382 0.97877
 H430 H -0.23752 0.04288 0.99186
 H431 H -0.07957 -0.00607 0.95316
 H432 H -0.06406 0.07215 1.02117
 H433 H -0.18650 0.01917 0.98333
 H434 H -0.13419 0.01099 0.94597
 H435 H -0.14575 0.11075 0.96421
 H436 H -0.11643 0.08815 1.01418
 C437 C 0.32523 0.54920 0.50474
 C438 C 0.29956 0.53624 0.52461
 C439 C 0.27172 0.55280 0.52834
 C440 C 0.26852 0.58265 0.51172
 C441 C 0.29466 0.59515 0.49165
 C442 C 0.32228 0.57870 0.48806
 C443 C 0.35613 0.53386 0.50382
 C444 C 0.37560 0.53670 0.47299
 C445 C 0.40687 0.52806 0.47401
 C446 C 0.41945 0.51626 0.50586
 C447 C 0.39902 0.51007 0.53552
 C448 C 0.36780 0.51932 0.53474
 H449 H 0.25316 0.54245 0.54529
 H450 H 0.29438 0.61877 0.48049
 H451 H 0.42122 0.53143 0.44993
 H452 H 0.40757 0.49999 0.56019
 H453 H 0.34198 0.58998 0.47376
 H454 H 0.36694 0.54671 0.44832
 H455 H 0.30122 0.51357 0.53795
 H456 H 0.35343 0.51671 0.55899
 C457 C 0.15406 0.54595 0.53753
 C458 C 0.17101 0.54631 0.50495
 C459 C 0.19896 0.56320 0.50059
 C460 C 0.21076 0.58137 0.52821
 C461 C 0.19562 0.57763 0.56226
 C462 C 0.16707 0.56098 0.56655
 C463 C 0.12211 0.53167 0.53948
 C464 C 0.09671 0.54797 0.55399
 C465 C 0.06589 0.53841 0.54765
 C466 C 0.05996 0.51301 0.52575
 C467 C 0.08543 0.49450 0.51532
 C468 C 0.11610 0.50384 0.52192
 H469 H 0.21088 0.56255 0.47484
 H470 H 0.20535 0.58755 0.58573
 H471 H 0.04691 0.55184 0.55862
 H472 H 0.08202 0.47385 0.49991
 H473 H 0.15509 0.55997 0.59247
 H474 H 0.10061 0.56923 0.56821
 H475 H 0.16197 0.53460 0.48209
 H476 H 0.13524 0.49022 0.51143
 C477 C 0.66526 0.05960 0.04503
 C478 C 0.66786 0.09221 0.04569
 C479 C 0.69644 0.10711 0.03788
 C480 C 0.72348 0.08995 0.02937
 C481 C 0.72206 0.05772 0.03895
 C482 C 0.69292 0.04233 0.04471
 C483 C 0.63413 0.04522 0.03854
 C484 C 0.62357 0.01639 0.05396
 C485 C 0.59381 0.00415 0.04586
 C486 C 0.57442 0.02047 0.02205
 C487 C 0.58579 0.04902 0.00674
 C488 C 0.61493 0.06088 0.01445
 H489 H 0.69685 0.13232 0.03649
 H490 H 0.74286 0.04429 0.04270
 H491 H 0.58602 -0.01789 0.05825
 H492 H 0.57233 0.06255 -0.01200
 H493 H 0.69201 0.01710 0.04728
 H494 H 0.63807 0.00360 0.07240
 H495 H 0.64724 0.10636 0.04909
 H496 H 0.62260 0.08246 0.00083
 C497 C 0.66183 0.95451 0.43923
 C498 C 0.66375 0.92374 0.42785
 C499 C 0.69083 0.90670 0.43298
 C500 C 0.71725 0.92016 0.44867
 C501 C 0.71594 0.95208 0.45721
 C502 C 0.68851 0.96904 0.45241
 C503 C 0.63056 0.96702 0.44744
 C504 C 0.61985 0.99555 0.43323
 C505 C 0.58968 1.00597 0.44284
 C506 C 0.57033 0.98819 0.46721
 C507 C 0.58219 0.96015 0.48173
 C508 C 0.61151 0.94973 0.47186
 H509 H 0.69050 0.88218 0.42679
 H510 H 0.73492 0.96351 0.47042
 H511 H 0.58160 1.02780 0.43137
 H512 H 0.56893 0.94575 0.50112
 H513 H 0.68718 0.99249 0.46227
 H514 H 0.63458 1.00945 0.41463
 H515 H 0.64317 0.91192 0.41823
 H516 H 0.61958 0.92805 0.48386
 C517 C 0.16871 0.45756 0.97650
 C518 C 0.18040 0.43944 0.94886
 C519 C 0.20737 0.42183 0.95364
 C520 C 0.22252 0.42125 0.98680
 C521 C 0.21205 0.44216 1.01289
 C522 C 0.18538 0.45981 1.00792
 C523 C 0.13580 0.46680 0.97717
 C524 C 0.12536 0.49409 0.95993
 C525 C 0.09392 0.50288 0.96429
 C526 C 0.07282 0.48440 0.98589
 C527 C 0.08391 0.45675 1.00217
 C528 C 0.11480 0.44812 0.99780
 H529 H 0.21532 0.40812 0.93158
 H530 H 0.22353 0.44326 1.03826
 H531 H 0.08639 0.52434 0.95142
 H532 H 0.06902 0.44181 1.01937
 H533 H 0.17638 0.47345 1.02972
 H534 H 0.14156 0.50881 0.94397
 H535 H 0.16757 0.43739 0.92447
 H536 H 0.12260 0.42702 1.01136
 C537 C -0.00584 0.33189 0.44185
 C538 C -0.01390 0.30362 0.46002
 C539 C -0.01015 0.27510 0.44304
 C540 C 0.00272 0.27416 0.40784
 C541 C 0.01080 0.30286 0.39019
 C542 C 0.00703 0.33107 0.40702
 C543 C -0.01226 0.36258 0.45757
 C544 C -0.00322 0.36961 0.49226
 C545 C -0.00553 0.40023 0.50436
 C546 C -0.01699 0.42422 0.48195
 C547 C -0.02780 0.41635 0.44815
 C548 C -0.02567 0.38603 0.43631
 H549 H -0.01854 0.25404 0.45709
 H550 H 0.01936 0.30356 0.36266
 H551 H 0.00295 0.40532 0.53055
 H552 H -0.03712 0.43385 0.43006
 H553 H 0.01361 0.35248 0.39236
 H554 H 0.00708 0.35185 0.50925
 H555 H -0.02440 0.30369 0.48670
 H556 H -0.03359 0.38112 0.40981
 C557 C 0.49809 -0.16798 -0.05394
 C558 C 0.47081 -0.18209 -0.06654
 C559 C 0.47250 -0.20831 -0.08776
 C560 C 0.50169 -0.22069 -0.09837
 C561 C 0.52864 -0.20856 -0.08219
 C562 C 0.52694 -0.18226 -0.06077
 C563 C 0.49643 -0.13675 -0.03748
 C564 C 0.51336 -0.12911 -0.00711
 C565 C 0.51280 -0.09860 0.00596
 C566 C 0.49573 -0.07500 -0.01146
 C567 C 0.47883 -0.08317 -0.04174
 C568 C 0.47881 -0.11345 -0.05411
 H569 H 0.45069 -0.21843 -0.09625
 H570 H 0.55133 -0.21863 -0.08752
 H571 H 0.52665 -0.09326 0.02881
 H572 H 0.46618 -0.06589 -0.05700
 H573 H 0.54838 -0.17224 -0.05101
 H574 H 0.52728 -0.14662 0.00622
 H575 H 0.44807 -0.17234 -0.06057
 H576 H 0.46606 -0.11827 -0.07798
 C577 C 0.01221 -0.15653 1.05535
 C578 C 0.03642 -0.16661 1.07718
 C579 C 0.03352 -0.19400 1.09777
 C580 C 0.00771 -0.21473 1.09476
 C581 C -0.01621 -0.20510 1.07159
 C582 C -0.01411 -0.17634 1.05235
 C583 C 0.01362 -0.12400 1.03975
 C584 C 0.00017 -0.11543 1.00696
 C585 C 0.00075 -0.08399 0.99458
 C586 C 0.01504 -0.06071 1.01462
 C587 C 0.02933 -0.06993 1.04660
 C588 C 0.02816 -0.10062 1.05912
 H589 H 0.05180 -0.19775 1.11655
 H590 H -0.03689 -0.21969 1.06894
 H591 H -0.01086 -0.07780 0.97008
 H592 H 0.04030 -0.05317 1.06348
 H593 H -0.03352 -0.16922 1.03619
 H594 H -0.01115 -0.13284 0.99122
 H595 H 0.05753 -0.15263 1.07969
 H596 H 0.03772 -0.10556 1.08511
 C597 C 0.51283 0.34000 0.57662
 C598 C 0.49011 0.31752 0.56853
 C599 C 0.48954 0.28809 0.58600
 C600 C 0.51235 0.27982 0.61113
 C601 C 0.53459 0.30314 0.61944
 C602 C 0.53510 0.33237 0.60208
 C603 C 0.51180 0.37235 0.56140
 C604 C 0.51465 0.39748 0.58419
 C605 C 0.51267 0.42806 0.57101
 C606 C 0.50843 0.43468 0.53438
 C607 C 0.50558 0.40942 0.51145
 C608 C 0.50724 0.37854 0.52484
 H609 H 0.47102 0.27167 0.58008
 H610 H 0.55125 0.29974 0.64029
 H611 H 0.51378 0.44648 0.59007
 H612 H 0.50105 0.41337 0.48341
 H613 H 0.55263 0.34942 0.60924
 H614 H 0.51740 0.39346 0.61263
 H615 H 0.47207 0.32310 0.54972
 H616 H 0.50479 0.35952 0.50673
 C617 C 0.50541 1.16564 0.56428
 C618 C 0.50553 1.16287 0.60182
 C619 C 0.50788 1.18916 0.62258
 C620 C 0.51031 1.21944 0.60677
 C621 C 0.51364 1.22183 0.56901
 C622 C 0.51063 1.19535 0.54808
 C623 C 0.49896 1.13741 0.54303
 C624 C 0.47796 1.11449 0.55723
 C625 C 0.47503 1.08577 0.54144
 C626 C 0.49163 1.07912 0.50951
 C627 C 0.51076 1.10309 0.49347
 C628 C 0.51451 1.13190 0.51014
 H629 H 0.50664 1.18597 0.65141
 H630 H 0.51824 1.24395 0.55514
 H631 H 0.46104 1.06812 0.55600
 H632 H 0.52450 1.09887 0.46939
 H633 H 0.51159 1.19829 0.51925
 H634 H 0.46470 1.11812 0.58180
 H635 H 0.50326 1.14024 0.61542
 H636 H 0.53086 1.14909 0.49832
 C637 C 0.00179 0.66845 1.05642
 C638 C 0.00368 0.66785 1.09376
 C639 C 0.00497 0.69532 1.11223
 C640 C 0.00497 0.72476 1.09421
 C641 C 0.00580 0.72528 1.05635
 C642 C 0.00387 0.69737 1.03771
 C643 C -0.00362 0.63857 1.03837
 C644 C -0.02398 0.61630 1.05504
 C645 C -0.02508 0.58595 1.04345
 C646 C -0.00721 0.57701 1.01337
 C647 C 0.01122 0.60005 0.99460
 C648 C 0.01312 0.63062 1.00712
 H649 H 0.00495 0.69361 1.14116
 H650 H 0.00743 0.74690 1.04081
 H651 H -0.03912 0.56918 1.05937
 H652 H 0.02560 0.59407 0.97161
 H653 H 0.00311 0.69845 1.00881
 H654 H -0.03793 0.62189 1.07854
 H655 H 0.00343 0.64593 1.10899
 H656 H 0.02897 0.64741 0.99365
 C657 C 0.51789 0.66782 -0.05528
 C658 C 0.54358 0.68276 -0.07336
 C659 C 0.53966 0.70994 -0.09440
 C660 C 0.50969 0.72277 -0.09895
 C661 C 0.48487 0.70997 -0.07707
 C662 C 0.48868 0.68253 -0.05630
 C663 C 0.52099 0.63585 -0.03842
 C664 C 0.50296 0.62586 -0.00791
 C665 C 0.50262 0.59438 0.00402
 C666 C 0.52020 0.57205 -0.01433
 C667 C 0.53973 0.58270 -0.04338
 C668 C 0.54017 0.61394 -0.05510
 H669 H 0.56030 0.72057 -0.10739
 H670 H 0.46193 0.72038 -0.07748
 H671 H 0.48715 0.58729 0.02633
 H672 H 0.55328 0.56653 -0.05887
 H673 H 0.46834 0.67215 -0.04237
 H674 H 0.48827 0.64214 0.00605
 H675 H 0.56681 0.67312 -0.07175
 H676 H 0.55405 0.62038 -0.07892
 C677 C 0.01299 1.15339 0.44038
 C678 C 0.02563 1.18023 0.45535
 C679 C 0.02173 1.20967 0.43876
 C680 C 0.00389 1.21311 0.40767
 C681 C -0.00842 1.18573 0.39297
 C682 C -0.00424 1.15653 0.40924
 C683 C 0.01799 1.12179 0.45613
 C684 C 0.01086 1.11480 0.49235
 C685 C 0.01023 1.08375 0.50529
 C686 C 0.01721 1.05916 0.48237
 C687 C 0.02623 1.06671 0.44664
 C688 C 0.02675 1.09757 0.43379
 H689 H 0.03338 1.22959 0.44983
 H690 H -0.02066 1.18666 0.36805
 H691 H 0.00255 1.07896 0.53275
 H692 H 0.03102 1.04877 0.42767
 H693 H -0.01426 1.13619 0.39712
 H694 H 0.00383 1.13310 0.51004
 H695 H 0.03948 1.17828 0.47908
 H696 H 0.03262 1.10242 0.40579
 C697 C 0.77154 0.65620 0.88211
 C698 C 0.74147 0.65332 0.89797
 C699 C 0.73614 0.63489 0.92883
 C700 C 0.76060 0.61821 0.94482
 C701 C 0.79110 0.62196 0.92910
 C702 C 0.79632 0.64023 0.89766
 C703 C 0.77638 0.67737 0.85045
 C704 C 0.78836 0.66678 0.81774
 C705 C 0.78559 0.68521 0.78632
 C706 C 0.76996 0.71390 0.78719
 C707 C 0.76220 0.72589 0.82092
 C708 C 0.76513 0.70777 0.85201
 H709 H 0.71260 0.63355 0.94041
 H710 H 0.81130 0.61165 0.94116
 H711 H 0.79423 0.67622 0.76134
 H712 H 0.75190 0.74862 0.82360
 H713 H 0.81984 0.64277 0.88622
 H714 H 0.79794 0.64360 0.81613
 H715 H 0.72197 0.66557 0.88646
 H716 H 0.75678 0.71682 0.87719
 C717 C 0.27954 0.15519 0.41322
 C718 C 0.29542 0.12797 0.42233
 C719 C 0.28659 0.11021 0.45303
 C720 C 0.26096 0.11870 0.47552
 C721 C 0.24518 0.14639 0.46547
 C722 C 0.25454 0.16445 0.43517
 C723 C 0.28516 0.17073 0.37785
 C724 C 0.29493 0.20212 0.37411
 C725 C 0.29438 0.21780 0.34060
 C726 C 0.28288 0.20262 0.31065
 C727 C 0.27455 0.17066 0.31484
 C728 C 0.27640 0.15485 0.34767
 H729 H 0.30010 0.08970 0.45806
 H730 H 0.22499 0.15397 0.48086
 H731 H 0.30038 0.24245 0.33894
 H732 H 0.26362 0.15812 0.29390
 H733 H 0.24129 0.18493 0.42791
 H734 H 0.30158 0.21481 0.39734
 H735 H 0.31435 0.12005 0.40515
 H736 H 0.26821 0.13079 0.35018
 C737 C 0.71407 0.32861 0.41018
 C738 C 0.74479 0.33061 0.42235
 C739 C 0.75318 0.35342 0.44631
 C740 C 0.73127 0.37534 0.45849
 C741 C 0.69975 0.37112 0.44825
 C742 C 0.69157 0.34881 0.42358
 C743 C 0.70637 0.30648 0.38213
 C744 C 0.69494 0.31746 0.34940
 C745 C 0.69614 0.29858 0.31960
 C746 C 0.70937 0.26870 0.32188
 C747 C 0.71486 0.25603 0.35642
 C748 C 0.71425 0.27501 0.38604
 H749 H 0.77712 0.35428 0.45506
 H750 H 0.68085 0.38449 0.45938
 H751 H 0.68900 0.30860 0.29447
 H752 H 0.72331 0.23251 0.36017
 H753 H 0.66752 0.34703 0.41531
 H754 H 0.68775 0.34148 0.34605
 H755 H 0.76255 0.31497 0.41256
 H756 H 0.72207 0.26572 0.41146
 C757 C 0.21983 0.84547 0.92668
 C758 C 0.23712 0.83091 0.95349
 C759 C 0.24676 0.84756 0.98278
 C760 C 0.23811 0.87900 0.98706
 C761 C 0.22107 0.89344 0.95944
 C762 C 0.21186 0.87687 0.92989
 C763 C 0.21568 0.82974 0.89259
 C764 C 0.22860 0.84402 0.86140
 C765 C 0.23189 0.82729 0.83045
 C766 C 0.22103 0.79608 0.82908
 C767 C 0.20579 0.78254 0.85977
 C768 C 0.20356 0.79911 0.89147
 H769 H 0.26195 0.83578 1.00121
 H770 H 0.21523 0.91789 0.96050
 H771 H 0.24521 0.83845 0.80851
 H772 H 0.19768 0.75847 0.86015
 H773 H 0.19938 0.88887 0.90888
 H774 H 0.23877 0.86733 0.86180
 H775 H 0.24486 0.80714 0.95065
 H776 H 0.19369 0.78760 0.91549
 C777 C 0.27904 0.84254 0.11105
 C778 C 0.29297 0.87185 0.10298
 C779 C 0.28262 0.89027 0.07425
 C780 C 0.25857 0.87954 0.05215
 C781 C 0.24288 0.85142 0.06298
 C782 C 0.25339 0.83297 0.09133
 C783 C 0.28886 0.82271 0.14173
 C784 C 0.29004 0.79018 0.13882
 C785 C 0.28949 0.77077 0.16950
 C786 C 0.28671 0.78355 0.20368
 C787 C 0.29164 0.81599 0.20605
 C788 C 0.29232 0.83546 0.17539
 H789 H 0.29396 0.91277 0.06894
 H790 H 0.22310 0.84269 0.04880
 H791 H 0.28732 0.74583 0.16616
 H792 H 0.29236 0.82709 0.23119
 H793 H 0.24107 0.81121 0.09818
 H794 H 0.28869 0.77973 0.11293
 H795 H 0.31206 0.88036 0.11864
 H796 H 0.29248 0.86052 0.17840
 C797 C 0.76581 0.34422 0.58117
 C798 C 0.73472 0.34573 0.57015
 C799 C 0.72732 0.36268 0.53913
 C800 C 0.75056 0.38003 0.51926
 C801 C 0.78217 0.37598 0.52907
 C802 C 0.78959 0.35856 0.55982
 C803 C 0.77247 0.33059 0.61679
 C804 C 0.75855 0.34390 0.64670
 C805 C 0.76043 0.32944 0.68024
 C806 C 0.77628 0.30098 0.68505
 C807 C 0.79230 0.28885 0.65525
 C808 C 0.79053 0.30368 0.62130
 H809 H 0.70309 0.36335 0.53136
 H810 H 0.80149 0.38626 0.51330
 H811 H 0.74722 0.33964 0.70188
 H812 H 0.80443 0.26691 0.65765
 H813 H 0.81379 0.35719 0.56760
 H814 H 0.74484 0.36486 0.64379
 H815 H 0.71605 0.33428 0.58608
 H816 H 0.80163 0.29320 0.59835
 C817 C 0.21945 0.16236 0.59422
 C818 C 0.20377 0.13388 0.59023
 C819 C 0.21308 0.11384 0.56338
 C820 C 0.23880 0.12147 0.53970
 C821 C 0.25428 0.15051 0.54429
 C822 C 0.24450 0.17074 0.57078
 C823 C 0.21490 0.17945 0.62741
 C824 C 0.20546 0.21069 0.62749
 C825 C 0.20751 0.22785 0.65876
 C826 C 0.22024 0.21431 0.68984
 C827 C 0.22853 0.18256 0.68920
 C828 C 0.22505 0.16526 0.65890
 H829 H 0.20018 0.09212 0.56235
 H830 H 0.27471 0.15726 0.52787
 H831 H 0.20162 0.25233 0.65761
 H832 H 0.24070 0.17130 0.71069
 H833 H 0.25774 0.19212 0.57441
 H834 H 0.19791 0.22211 0.60307
 H835 H 0.18502 0.12657 0.60892
 H836 H 0.23322 0.14143 0.65908
 C837 C 0.72242 0.66779 0.05822
 C838 C 0.70052 0.64699 0.04481
 C839 C 0.70958 0.62603 0.01872
 C840 C 0.74131 0.62431 0.00660
 C841 C 0.76206 0.64802 0.01720
 C842 C 0.75292 0.66903 0.04323
 C843 C 0.71655 0.68134 0.09342
 C844 C 0.70386 0.71107 0.09794
 C845 C 0.70353 0.72446 0.13189
 C846 C 0.71633 0.70842 0.16143
 C847 C 0.72750 0.67797 0.15617
 C848 C 0.72710 0.66458 0.12303
 H849 H 0.69155 0.61084 0.00897
 H850 H 0.78605 0.64893 0.00694
 H851 H 0.69551 0.74816 0.13436
 H852 H 0.73951 0.66504 0.17664
 H853 H 0.77027 0.68488 0.05345
 H854 H 0.69571 0.72440 0.07508
 H855 H 0.67682 0.64576 0.05598
 H856 H 0.73724 0.64175 0.11994
 C857 C 0.20221 0.57856 0.22813
 C858 C 0.17892 0.56802 0.20571
 C859 C 0.16402 0.53921 0.21261
 C860 C 0.17223 0.51990 0.24213
 C861 C 0.19649 0.53051 0.26382
 C862 C 0.21163 0.55922 0.25655
 C863 C 0.21108 0.61187 0.22720
 C864 C 0.24244 0.62200 0.22442
 C865 C 0.25022 0.65347 0.22914
 C866 C 0.22682 0.67508 0.23789
 C867 C 0.19541 0.66436 0.24006
 C868 C 0.18765 0.63345 0.23408
 H869 H 0.14452 0.53348 0.19613
 H870 H 0.20261 0.51722 0.28762
 H871 H 0.27472 0.66039 0.22782
 H872 H 0.17685 0.67867 0.25014
 H873 H 0.22887 0.56746 0.27487
 H874 H 0.26088 0.60544 0.21963
 H875 H 0.17074 0.58311 0.18427
 H876 H 0.16341 0.62581 0.23770
 C877 C 0.71492 0.09080 0.72838
 C878 C 0.71927 0.06909 0.75643
 C879 C 0.70136 0.04156 0.75905
 C880 C 0.67865 0.03487 0.73356
 C881 C 0.67518 0.05668 0.70482
 C882 C 0.69334 0.08411 0.70216
 C883 C 0.72536 0.12328 0.73239
 C884 C 0.70788 0.14121 0.75579
 C885 C 0.71544 0.17237 0.75978
 C886 C 0.74119 0.18674 0.74094
 C887 C 0.75893 0.16854 0.71733
 C888 C 0.75089 0.13694 0.71288
 H889 H 0.70420 0.02597 0.78202
 H890 H 0.65721 0.05387 0.68541
 H891 H 0.70033 0.18518 0.77745
 H892 H 0.77872 0.17869 0.70215
 H893 H 0.68871 0.10132 0.68123
 H894 H 0.68781 0.13112 0.77063
 H895 H 0.73498 0.07448 0.77768
 H896 H 0.76446 0.12326 0.69437
 C897 C 0.80233 0.07478 0.28470
 C898 C 0.82809 0.06603 0.30501
 C899 C 0.84300 0.03779 0.29952
 C900 C 0.83179 0.01630 0.27474
 C901 C 0.80465 0.02465 0.25606
 C902 C 0.79020 0.05331 0.26099
 C903 C 0.79134 0.10761 0.28434
 C904 C 0.75992 0.11512 0.27849
 C905 C 0.75112 0.14633 0.27348
 C906 C 0.77351 0.17089 0.27410
 C907 C 0.80458 0.16294 0.28135
 C908 C 0.81336 0.13204 0.28618
 H909 H 0.86477 0.03405 0.31293
 H910 H 0.79529 0.01003 0.23589
 H911 H 0.72683 0.15106 0.26821
 H912 H 0.82331 0.17982 0.27917
 H913 H 0.77076 0.05944 0.24434
 H914 H 0.74221 0.09687 0.27713
 H915 H 0.83797 0.08187 0.32379
 H916 H 0.83802 0.12734 0.28898
 C917 C 0.29340 0.58848 0.79120
 C918 C 0.32042 0.57858 0.80816
 C919 C 0.33566 0.55183 0.79738
 C920 C 0.32378 0.53342 0.77000
 C921 C 0.29587 0.54314 0.75391
 C922 C 0.28066 0.57014 0.76473
 C923 C 0.28483 0.62152 0.79325
 C924 C 0.25559 0.63126 0.80645
 C925 C 0.24798 0.66310 0.80462
 C926 C 0.26922 0.68532 0.78868
 C927 C 0.29843 0.67476 0.77579
 C928 C 0.30626 0.64361 0.77864
 H929 H 0.35803 0.54694 0.80899
 H930 H 0.28687 0.53100 0.73138
 H931 H 0.22497 0.67002 0.81399
 H932 H 0.31470 0.68987 0.76072
 H933 H 0.26058 0.57820 0.75021
 H934 H 0.23860 0.61429 0.81746
 H935 H 0.33132 0.59314 0.82758
 H936 H 0.32859 0.63640 0.76739
 C937 C 0.29954 0.42233 0.71984
 C938 C 0.28383 0.44123 0.74423
 C939 C 0.29716 0.46976 0.75376
 C940 C 0.32613 0.48041 0.73832
 C941 C 0.34120 0.46124 0.71332
 C942 C 0.32784 0.43305 0.70374
 C943 C 0.29056 0.38911 0.71720
 C944 C 0.31281 0.36674 0.72585
 C945 C 0.30445 0.33540 0.72915
 C946 C 0.27370 0.32504 0.72276
 C947 C 0.25170 0.34748 0.71206
 C948 C 0.25996 0.37934 0.70984
 H949 H 0.28560 0.48249 0.77472
 H950 H 0.36424 0.46737 0.70221
 H951 H 0.32173 0.32020 0.74015
 H952 H 0.22762 0.34071 0.70763
 H953 H 0.34071 0.41852 0.68545
 H954 H 0.33631 0.37376 0.73276
 H955 H 0.26251 0.43283 0.75796
 H956 H 0.24235 0.39637 0.70337
 C957 C 0.79213 0.90920 0.23237
 C958 C 0.80259 0.93156 0.20652
 C959 C 0.81984 0.95774 0.21651
 C960 C 0.82894 0.96128 0.25236
 C961 C 0.81552 0.93997 0.27825
 C962 C 0.79777 0.91432 0.26839
 C963 C 0.77687 0.87962 0.22247
 C964 C 0.79052 0.86096 0.19625
 C965 C 0.78059 0.82987 0.19319
 C966 C 0.75734 0.81683 0.21675
 C967 C 0.74125 0.83696 0.23983
 C968 C 0.75105 0.86784 0.24279
 H969 H 0.82655 0.97492 0.19579
 H970 H 0.81894 0.94221 0.30638
 H971 H 0.79229 0.81584 0.17372
 H972 H 0.72242 0.82860 0.25774
 H973 H 0.78941 0.89776 0.28906
 H974 H 0.81025 0.86970 0.17985
 H975 H 0.79751 0.92873 0.17862
 H976 H 0.73960 0.88203 0.26257
 C977 C 0.69948 0.91546 0.74676
 C978 C 0.66799 0.91936 0.75671
 C979 C 0.65492 0.94868 0.75528
 C980 C 0.67321 0.97551 0.74566
 C981 C 0.70534 0.97151 0.73689
 C982 C 0.71835 0.94171 0.73769
 C983 C 0.71046 0.88368 0.74060
 C984 C 0.73836 0.87229 0.75461
 C985 C 0.74662 0.84111 0.74974
 C986 C 0.72708 0.82120 0.73068
 C987 C 0.69968 0.83344 0.71610
 C988 C 0.69167 0.86413 0.72074
 H989 H 0.63004 0.95051 0.76118
 H990 H 0.72019 0.99085 0.72744
 H991 H 0.76799 0.83260 0.76118
 H992 H 0.68391 0.81935 0.70104
 H993 H 0.74257 0.93898 0.72911
 H994 H 0.75324 0.88721 0.76991
 H995 H 0.65298 0.89936 0.76381
 H996 H 0.67040 0.87260 0.70895
 C997 C 0.19988 0.40448 0.27613
 C998 C 0.21671 0.42988 0.26040
 C999 C 0.20210 0.45856 0.25486
 C1000 C 0.17044 0.46260 0.26576
 C1001 C 0.15426 0.43693 0.28254
 C1002 C 0.16889 0.40853 0.28815
 C1003 C 0.21159 0.37254 0.27284
 C1004 C 0.19347 0.35148 0.25425
 C1005 C 0.20364 0.32146 0.24918
 C1006 C 0.23214 0.31106 0.26305
 C1007 C 0.25057 0.33233 0.28165
 C1008 C 0.24046 0.36305 0.28625
 H1009 H 0.21520 0.47666 0.23996
 H1010 H 0.12968 0.43861 0.29012
 H1011 H 0.18891 0.30649 0.23388
 H1012 H 0.27283 0.32542 0.29225
 H1013 H 0.15531 0.38899 0.29980
 H1014 H 0.17152 0.35852 0.24287
 H1015 H 0.24033 0.42685 0.24987
 H1016 H 0.25493 0.37927 0.30034
 C1017 C 0.08296 0.25216 0.80823
 C1018 C 0.06822 0.28104 0.81090
 C1019 C 0.04080 0.28366 0.83203
 C1020 C 0.02796 0.25762 0.85182
 C1021 C 0.04082 0.22812 0.84513
 C1022 C 0.06832 0.22557 0.82437
 C1023 C 0.11523 0.25014 0.79279
 C1024 C 0.13825 0.23615 0.81351
 C1025 C 0.16933 0.23594 0.80133
 C1026 C 0.17840 0.24888 0.76741
 C1027 C 0.15513 0.26234 0.74618
 C1028 C 0.12385 0.26326 0.75895
 H1029 H 0.03047 0.30643 0.83446
 H1030 H 0.03026 0.20687 0.85659
 H1031 H 0.18631 0.22561 0.81886
 H1032 H 0.16118 0.27289 0.72019
 H1033 H 0.07870 0.20283 0.82171
 H1034 H 0.13235 0.22628 0.83990
 H1035 H 0.07882 0.30187 0.79827
 H1036 H 0.10645 0.27432 0.74255
 C1037 C 0.58486 0.74450 0.30681
 C1038 C 0.58671 0.74322 0.34429
 C1039 C 0.56025 0.74795 0.36615
 C1040 C 0.53073 0.75351 0.35146
 C1041 C 0.52978 0.75820 0.31393
 C1042 C 0.55626 0.75310 0.29194
 C1043 C 0.61299 0.73743 0.28386
 C1044 C 0.63443 0.71499 0.29548
 C1045 C 0.66323 0.71168 0.27753
 C1046 C 0.67138 0.73016 0.24675
 C1047 C 0.64852 0.75029 0.23300
 C1048 C 0.61980 0.75406 0.25146
 H1049 H 0.56250 0.74591 0.39487
 H1050 H 0.50864 0.76548 0.30112
 H1051 H 0.67996 0.69610 0.28950
 H1052 H 0.65367 0.76508 0.20952
 H1053 H 0.55406 0.75527 0.26325
 H1054 H 0.62960 0.70087 0.31956
 H1055 H 0.60868 0.73838 0.35691
 H1056 H 0.60389 0.77147 0.24148
 C1057 C 0.59230 0.25330 0.17909
 C1058 C 0.56287 0.24937 0.19645
 C1059 C 0.53534 0.24976 0.17687
 C1060 C 0.53635 0.25453 0.13918
 C1061 C 0.56615 0.25841 0.12223
 C1062 C 0.59344 0.25857 0.14180
 C1063 C 0.62198 0.24953 0.19880
 C1064 C 0.64713 0.23454 0.18221
 C1065 C 0.67580 0.23230 0.19853
 C1066 C 0.68058 0.24445 0.23262
 C1067 C 0.65480 0.25774 0.25042
 C1068 C 0.62583 0.26051 0.23355
 H1069 H 0.51363 0.24477 0.19156
 H1070 H 0.56826 0.26119 0.09339
 H1071 H 0.69447 0.22141 0.18354
 H1072 H 0.65702 0.26658 0.27688
 H1073 H 0.61562 0.26224 0.12743
 H1074 H 0.64484 0.22458 0.15618
 H1075 H 0.56115 0.24456 0.22501
 H1076 H 0.60675 0.27189 0.24733
 C1077 C 0.08919 0.74724 0.69997
 C1078 C 0.05976 0.73990 0.71609
 C1079 C 0.03341 0.73531 0.69507
 C1080 C 0.03569 0.73899 0.65734
 C1081 C 0.06583 0.74399 0.64163
 C1082 C 0.09197 0.74792 0.66244
 C1083 C 0.11724 0.75471 0.72123
 C1084 C 0.12409 0.73838 0.75326
 C1085 C 0.15325 0.74267 0.76926
 C1086 C 0.17624 0.76305 0.75328
 C1087 C 0.16814 0.78049 0.72243
 C1088 C 0.13899 0.77710 0.70745
 H1089 H 0.01151 0.72910 0.70876
 H1090 H 0.06897 0.74573 0.61282
 H1091 H 0.15859 0.72832 0.79255
 H1092 H 0.18503 0.79540 0.70786
 H1093 H 0.11450 0.75188 0.64889
 H1094 H 0.10779 0.72097 0.76472
 H1095 H 0.05692 0.73835 0.74492
 H1096 H 0.13425 0.79092 0.68354
 C1097 C 0.91291 0.72874 0.68108
 C1098 C 0.93398 0.75189 0.69161
 C1099 C 0.96458 0.75358 0.67694
 C1100 C 0.97535 0.73159 0.65216
 C1101 C 0.95371 0.70819 0.64237
 C1102 C 0.92332 0.70663 0.65693
 C1103 C 0.87908 0.73001 0.69081
 C1104 C 0.85738 0.72973 0.66350
 C1105 C 0.82550 0.73226 0.67124
 C1106 C 0.81405 0.73423 0.70675
 C1107 C 0.83589 0.73446 0.73428
 C1108 C 0.86816 0.73251 0.72635
 H1109 H 0.97967 0.77282 0.68401
 H1110 H 0.95910 0.69183 0.62185
 H1111 H 0.81002 0.73343 0.64889
 H1112 H 0.82823 0.73714 0.76178
 H1113 H 0.90733 0.68883 0.64796
 H1114 H 0.86521 0.72861 0.63579
 H1115 H 0.92623 0.76974 0.70955
 H1116 H 0.88456 0.73308 0.74786
 C1117 C 0.41949 0.24120 0.18015
 C1118 C 0.42944 0.21738 0.15788
 C1119 C 0.45632 0.22094 0.13639
 C1120 C 0.47632 0.24735 0.13851
 C1121 C 0.46644 0.27123 0.16135
 C1122 C 0.43842 0.26820 0.18189
 C1123 C 0.38785 0.23861 0.19795
 C1124 C 0.38102 0.25088 0.23175
 C1125 C 0.35035 0.24889 0.24666
 C1126 C 0.32617 0.23442 0.22809
 C1127 C 0.33369 0.22145 0.19489
 C1128 C 0.36365 0.22392 0.17997
 H1129 H 0.46049 0.20270 0.11775
 H1130 H 0.48048 0.29235 0.16308
 H1131 H 0.34542 0.25942 0.27208
 H1132 H 0.31614 0.21012 0.17928
 H1133 H 0.43117 0.28735 0.19822
 H1134 H 0.39921 0.26224 0.24641
 H1135 H 0.41585 0.19598 0.15607
 H1136 H 0.36740 0.21508 0.15346
 C1137 C 0.41067 0.75300 0.32501
 C1138 C 0.41631 0.77402 0.35201
 C1139 C 0.44527 0.77508 0.36820
 C1140 C 0.46996 0.75549 0.35738
 C1141 C 0.46328 0.73327 0.33136
 C1142 C 0.43434 0.73262 0.31468
 C1143 C 0.37893 0.75037 0.31073
 C1144 C 0.37338 0.75538 0.27422
 C1145 C 0.34265 0.75459 0.26185
 C1146 C 0.31713 0.74849 0.28584
 C1147 C 0.32328 0.74223 0.32218
 C1148 C 0.35367 0.74358 0.33445
 H1149 H 0.44762 0.79069 0.39010
 H1150 H 0.48056 0.71623 0.32396
 H1151 H 0.33899 0.75875 0.23366
 H1152 H 0.30458 0.73677 0.34160
 H1153 H 0.42999 0.71541 0.29477
 H1154 H 0.39273 0.76051 0.25550
 H1155 H 0.39793 0.78926 0.36115
 H1156 H 0.35753 0.73929 0.36265
 C1157 C 0.92008 0.27402 0.80637
 C1158 C 0.93432 0.29992 0.82175
 C1159 C 0.95989 0.29623 0.84394
 C1160 C 0.97152 0.26630 0.85252
 C1161 C 0.95923 0.24091 0.83390
 C1162 C 0.93353 0.24459 0.81172
 C1163 C 0.88961 0.27733 0.78814
 C1164 C 0.88227 0.26014 0.75796
 C1165 C 0.85178 0.26021 0.74466
 C1166 C 0.82782 0.27710 0.76159
 C1167 C 0.83596 0.29548 0.79064
 C1168 C 0.86629 0.29584 0.80338
 H1169 H 0.97030 0.31705 0.85444
 H1170 H 0.96887 0.21785 0.83759
 H1171 H 0.84658 0.24542 0.72261
 H1172 H 0.81843 0.30804 0.80554
 H1173 H 0.92342 0.22413 0.79997
 H1174 H 0.89983 0.24581 0.74539
 H1175 H 0.92535 0.32314 0.81702
 H1176 H 0.87083 0.30895 0.82699
 C1177 C 0.60019 0.98286 0.64856
 C1178 C 0.63307 0.98417 0.64664
 C1179 C 0.65010 0.99325 0.67574
 C1180 C 0.63510 1.00052 0.70845
 C1181 C 0.60210 0.99700 0.71104
 C1182 C 0.58489 0.98888 0.68129
 C1183 C 0.58236 0.97882 0.61541
 C1184 C 0.55280 0.96367 0.61537
 C1185 C 0.53485 0.96441 0.58442
 C1186 C 0.54613 0.98038 0.55310
 C1187 C 0.57651 0.99380 0.55315
 C1188 C 0.59418 0.99299 0.58353
 H1189 H 0.67541 0.99425 0.67291
 H1190 H 0.58924 0.99995 0.73591
 H1191 H 0.51146 0.95421 0.58574
 H1192 H 0.58614 1.00741 0.53053
 H1193 H 0.55957 0.98798 0.68379
 H1194 H 0.54313 0.95224 0.63952
 H1195 H 0.64582 0.97860 0.62231
 H1196 H 0.61632 1.00569 0.58248
 C1197 C 0.09478 0.46525 1.16484
 C1198 C 0.12765 0.46420 1.16301
 C1199 C 0.14520 0.47145 1.19249
 C1200 C 0.13055 0.48000 1.22492
 C1201 C 0.09757 0.47636 1.22809
 C1202 C 0.07988 0.46976 1.19816
 C1203 C 0.07704 0.46691 1.13123
 C1204 C 0.04727 0.45278 1.12791
 C1205 C 0.03011 0.45791 1.09671
 C1206 C 0.04229 0.47756 1.06863
 C1207 C 0.07228 0.49112 1.07235
 C1208 C 0.08934 0.48568 1.10276
 H1209 H 0.17050 0.47218 1.18936
 H1210 H 0.08509 0.47951 1.25318
 H1211 H 0.00696 0.44744 1.09515
 H1212 H 0.08263 0.50701 1.05214
 H1213 H 0.05455 0.46998 1.20067
 H1214 H 0.03712 0.43828 1.14958
 H1215 H 0.13988 0.45959 1.13802
 H1216 H 0.11171 0.49769 1.10464
 C1217 C -0.08797 0.01879 1.17071
 C1218 C -0.09790 0.04059 1.19538
 C1219 C -0.11654 0.03100 1.22528
 C1220 C -0.12605 -0.00075 1.23118
 C1221 C -0.11379 -0.02244 1.20697
 C1222 C -0.09535 -0.01284 1.17731
 C1223 C -0.07274 0.02840 1.13614
 C1224 C -0.08630 0.01800 1.10514
 C1225 C -0.06978 0.01992 1.07280
 C1226 C -0.03933 0.03330 1.06990
 C1227 C -0.02689 0.04650 1.10058
 C1228 C -0.04352 0.04400 1.13361
 H1229 H -0.12370 0.04901 1.24303
 H1230 H -0.11880 -0.04719 1.21072
 H1231 H -0.08029 0.00833 1.05082
 H1232 H -0.00344 0.05654 1.09971
 H1233 H -0.08738 -0.03021 1.15884
 H1234 H -0.10894 0.00614 1.10646
 H1235 H -0.09225 0.06515 1.19082
 H1236 H -0.03269 0.05223 1.15743
 C1237 C 0.40090 0.55265 0.66533
 C1238 C 0.40959 0.55610 0.70091
 C1239 C 0.39037 0.54413 0.72917
 C1240 C 0.36283 0.52689 0.72239
 C1241 C 0.35184 0.52844 0.68714
 C1242 C 0.37091 0.54057 0.65889
 C1243 C 0.42462 0.55560 0.63551
 C1244 C 0.41681 0.56706 0.60135
 C1245 C 0.43613 0.56117 0.57146
 C1246 C 0.46273 0.54243 0.57503
 C1247 C 0.47252 0.53486 0.60983
 C1248 C 0.45372 0.54137 0.63963
 H1249 H 0.39825 0.54635 0.75620
 H1250 H 0.32932 0.51837 0.68094
 H1251 H 0.42852 0.56873 0.54531
 H1252 H 0.49343 0.52153 0.61429
 H1253 H 0.36313 0.53818 0.63181
 H1254 H 0.39480 0.57874 0.59746
 H1255 H 0.43209 0.56645 0.70678
 H1256 H 0.46063 0.53242 0.66556
 C1257 C 0.40693 0.47056 -0.16637
 C1258 C 0.41724 0.47343 -0.20230
 C1259 C 0.39691 0.48360 -0.22867
 C1260 C 0.36612 0.49263 -0.21952
 C1261 C 0.35472 0.48485 -0.18447
 C1262 C 0.37503 0.47457 -0.15804
 C1263 C 0.42998 0.46900 -0.13746
 C1264 C 0.42489 0.45018 -0.10630
 C1265 C 0.44410 0.45364 -0.07679
 C1266 C 0.46766 0.47706 -0.07735
 C1267 C 0.47400 0.49401 -0.10970
 C1268 C 0.45556 0.48991 -0.13926
 H1269 H 0.40591 0.48574 -0.25596
 H1270 H 0.33048 0.48878 -0.17691
 H1271 H 0.43883 0.43973 -0.05270
 H1272 H 0.49221 0.51183 -0.11204
 H1273 H 0.36623 0.47196 -0.13066
 H1274 H 0.40541 0.43367 -0.10432
 H1275 H 0.44150 0.46925 -0.20970
 H1276 H 0.46002 0.50487 -0.16278
 C1277 C -0.09045 0.95179 0.35093
 C1278 C -0.08062 0.94890 0.31525
 C1279 C -0.09885 0.96014 0.28754
 C1280 C -0.12778 0.97494 0.29428
 C1281 C -0.13845 0.97532 0.33051
 C1282 C -0.12000 0.96429 0.35829
 C1283 C -0.06824 0.94619 0.38006
 C1284 C -0.07837 0.93369 0.41364
 C1285 C -0.05915 0.93605 0.44312
 C1286 C -0.03033 0.95240 0.43977
 C1287 C -0.01847 0.96028 0.40512
 C1288 C -0.03729 0.95741 0.37567
 H1289 H -0.08922 0.95725 0.26111
 H1290 H -0.16115 0.98457 0.33761
 H1291 H -0.06803 0.92732 0.46886
 H1292 H 0.00424 0.97153 0.40076
 H1293 H -0.12832 0.96686 0.38563
 H1294 H -0.10175 0.92374 0.41751
 H1295 H -0.05822 0.93865 0.30871
 H1296 H -0.02850 0.96684 0.35007
 C1297 C 0.09801 0.52828 0.34618
 C1298 C 0.09224 0.53869 0.31109
 C1299 C 0.10981 0.52743 0.28227
 C1300 C 0.13268 0.50435 0.28753
 C1301 C 0.14026 0.49653 0.32316
 C1302 C 0.12287 0.50786 0.35189
 C1303 C 0.07642 0.53555 0.37649
 C1304 C 0.04389 0.53385 0.37235
 C1305 C 0.02363 0.53166 0.40230
 C1306 C 0.03544 0.53049 0.43714
 C1307 C 0.06757 0.53693 0.44084
 C1308 C 0.08785 0.53930 0.41090
 H1309 H 0.10485 0.53604 0.25555
 H1310 H 0.15955 0.48144 0.32931
 H1311 H -0.00108 0.52789 0.39791
 H1312 H 0.07766 0.53883 0.46661
 H1313 H 0.12823 0.49957 0.37861
 H1314 H 0.03419 0.53130 0.34618
 H1315 H 0.07381 0.55516 0.30589
 H1316 H 0.11275 0.54212 0.41485
 C1317 C 0.60280 0.02875 -0.16098
 C1318 C 0.59872 0.04650 -0.19272
 C1319 C 0.61596 0.03975 -0.22410
 C1320 C 0.63714 0.01467 -0.22469
 C1321 C 0.64256 -0.00111 -0.19190
 C1322 C 0.62485 0.00476 -0.16144
 C1323 C 0.58447 0.03386 -0.12713
 C1324 C 0.59799 0.02560 -0.09460
 C1325 C 0.57950 0.02004 -0.06413
 C1326 C 0.54748 0.02735 -0.06295
 C1327 C 0.53446 0.03960 -0.09455
 C1328 C 0.55263 0.04218 -0.12661
 H1329 H 0.61241 0.05375 -0.24819
 H1330 H 0.66048 -0.01844 -0.18910
 H1331 H 0.59055 0.00809 -0.04221
 H1332 H 0.50973 0.04472 -0.09526
 H1333 H 0.62855 -0.01021 -0.13819
 H1334 H 0.62268 0.02055 -0.09311
 H1335 H 0.58240 0.06557 -0.19331
 H1336 H 0.54130 0.04875 -0.15115
 C1337 C 0.67383 0.53568 -0.02666
 C1338 C 0.68756 0.54817 -0.05845
 C1339 C 0.71480 0.56657 -0.05744
 C1340 C 0.72788 0.57365 -0.02430
 C1341 C 0.71684 0.55639 0.00638
 C1342 C 0.68977 0.53803 0.00532
 C1343 C 0.64030 0.52760 -0.02492
 C1344 C 0.62751 0.50316 -0.04408
 C1345 C 0.59523 0.49659 -0.04130
 C1346 C 0.57547 0.51485 -0.01989
 C1347 C 0.58870 0.54001 -0.00203
 C1348 C 0.62063 0.54611 -0.00429
 H1349 H 0.72424 0.57647 -0.08244
 H1350 H 0.72733 0.55972 0.03200
 H1351 H 0.58592 0.47713 -0.05561
 H1352 H 0.57461 0.55484 0.01457
 H1353 H 0.67967 0.52804 0.03007
 H1354 H 0.64248 0.48895 -0.06056
 H1355 H 0.67582 0.54596 -0.08354
 H1356 H 0.63007 0.56554 0.01005
 C1357 C 0.16653 1.04017 0.49452
 C1358 C 0.17183 1.06788 0.47397
 C1359 C 0.19925 1.08564 0.47711
 C1360 C 0.22244 1.07673 0.50139
 C1361 C 0.21690 1.04856 0.52168
 C1362 C 0.18995 1.03034 0.51767
 C1363 C 0.13559 1.02346 0.49412
 C1364 C 0.12295 1.00795 0.52515
 C1365 C 0.09212 0.99649 0.52630
 C1366 C 0.07256 1.00186 0.49725
 C1367 C 0.08607 1.01448 0.46519
 C1368 C 0.11719 1.02495 0.46357
 H1369 H 0.20112 1.10700 0.46127
 H1370 H 0.23270 1.04116 0.54225
 H1371 H 0.08295 0.98566 0.55104
 H1372 H 0.07252 1.01708 0.44139
 H1373 H 0.18716 1.00899 0.53373
 H1374 H 0.13607 1.00611 0.54937
 H1375 H 0.15413 1.07692 0.45649
 H1376 H 0.12648 1.03509 0.43854
 C1377 C 0.16357 -0.04935 1.04250
 C1378 C 0.16360 -0.08199 1.04186
 C1379 C 0.19120 -0.09776 1.03577
 C1380 C 0.22039 -0.08184 1.03167
 C1381 C 0.22086 -0.05004 1.04084
 C1382 C 0.19257 -0.03352 1.04447
 C1383 C 0.13349 -0.03332 1.03539
 C1384 C 0.12287 -0.00693 1.05344
 C1385 C 0.09294 0.00534 1.04660
 C1386 C 0.07330 -0.00869 1.02175
 C1387 C 0.08480 -0.03471 1.00381
 C1388 C 0.11429 -0.04614 1.00976
 H1389 H 0.18906 -0.12248 1.03157
 H1390 H 0.24262 -0.03763 1.04460
 H1391 H 0.08503 0.02536 1.06107
 H1392 H 0.07103 -0.04697 0.98485
 H1393 H 0.19341 -0.00846 1.04720
 H1394 H 0.13726 0.00364 1.07325
 H1395 H 0.14178 -0.09529 1.04274
 H1396 H 0.12189 -0.06576 0.99434
 C1397 C 0.66119 0.46063 0.50513
 C1398 C 0.67741 0.44799 0.53424
 C1399 C 0.70375 0.42958 0.52874
 C1400 C 0.71456 0.42302 0.49382
 C1401 C 0.70119 0.43982 0.46519
 C1402 C 0.67428 0.45740 0.47055
 C1403 C 0.62960 0.47457 0.51045
 C1404 C 0.61829 0.49711 0.48609
 C1405 C 0.58693 0.50604 0.48785
 C1406 C 0.56608 0.49285 0.51421
 C1407 C 0.57819 0.47279 0.54055
 C1408 C 0.60927 0.46331 0.53837
 H1409 H 0.71526 0.42046 0.55207
 H1410 H 0.71019 0.43721 0.43811
 H1411 H 0.57884 0.52222 0.46748
 H1412 H 0.56347 0.46331 0.56223
 H1413 H 0.66297 0.46694 0.44724
 H1414 H 0.63335 0.50727 0.46493
 H1415 H 0.66941 0.45170 0.56145
 H1416 H 0.61675 0.44590 0.55772
 C1417 C -0.17289 0.45301 0.45913
 C1418 C -0.19062 0.45882 0.49008
 C1419 C -0.21920 0.44335 0.49680
 C1420 C -0.23071 0.42132 0.47287
 C1421 C -0.21474 0.41908 0.43946
 C1422 C -0.18559 0.43410 0.43315
 C1423 C -0.13914 0.46043 0.45885
 C1424 C -0.11956 0.43873 0.47507
 C1425 C -0.08876 0.44676 0.48222
 C1426 C -0.07628 0.47657 0.47250
 C1427 C -0.09578 0.49797 0.45479
 C1428 C -0.12713 0.49006 0.44839
 H1429 H -0.23108 0.44657 0.52232
 H1430 H -0.22358 0.40463 0.41879
 H1431 H -0.07562 0.43004 0.49758
 H1432 H -0.08733 0.52128 0.44731
 H1433 H -0.17217 0.42956 0.40892
 H1434 H -0.12877 0.41609 0.48432
 H1435 H -0.18106 0.47323 0.51054
 H1436 H -0.14225 0.50734 0.43652
 C1437 C 0.33883 -0.05775 -0.01823
 C1438 C 0.31237 -0.03861 -0.01578
 C1439 C 0.28241 -0.05180 -0.00733
 C1440 C 0.27892 -0.08396 0.00209
 C1441 C 0.30498 -0.10287 -0.00532
 C1442 C 0.33385 -0.09018 -0.01624
 C1443 C 0.37184 -0.04532 -0.01848
 C1444 C 0.39402 -0.06273 0.00010
 C1445 C 0.42490 -0.05286 0.00123
 C1446 C 0.43536 -0.02430 -0.01488
 C1447 C 0.41326 -0.00626 -0.03333
 C1448 C 0.38175 -0.01673 -0.03524
 H1449 H 0.26263 -0.03657 -0.00833
 H1450 H 0.30354 -0.12791 -0.00098
 H1451 H 0.44016 -0.06748 0.01670
 H1452 H 0.42014 0.01605 -0.04572
 H1453 H 0.35293 -0.10606 -0.02083
 H1454 H 0.38750 -0.08397 0.01508
 H1455 H 0.31487 -0.01352 -0.01923
 H1456 H 0.36529 -0.00250 -0.04964
 C1457 C 0.33591 1.04929 0.53690
 C1458 C 0.31468 1.03642 0.51358
 C1459 C 0.28656 1.05138 0.50676
 C1460 C 0.27856 1.07962 0.52337
 C1461 C 0.29914 1.09056 0.54935
 C1462 C 0.32751 1.07578 0.55564
 C1463 C 0.36912 1.04082 0.53372
 C1464 C 0.38922 1.06147 0.51437
 C1465 C 0.41987 1.05333 0.50652
 C1466 C 0.43198 1.02464 0.51886
 C1467 C 0.41178 1.00398 0.53891
 C1468 C 0.38037 1.01187 0.54591
 H1469 H 0.27223 1.04217 0.48603
 H1470 H 0.29472 1.11146 0.56374
 H1471 H 0.43369 1.06948 0.48961
 H1472 H 0.41992 0.98144 0.54823
 H1473 H 0.34395 1.08631 0.57339
 H1474 H 0.38070 1.08351 0.50385
 H1475 H 0.32114 1.01647 0.49807
 H1476 H 0.36483 0.99538 0.56034
 C1477 C -0.16490 0.54809 1.01576
 C1478 C -0.17773 0.54284 0.98246
 C1479 C -0.20433 0.55879 0.97193
 C1480 C -0.21828 0.58120 0.99396
 C1481 C -0.20698 0.58371 1.02897
 C1482 C -0.18017 0.56786 1.03937
 C1483 C -0.13203 0.54010 1.02114
 C1484 C -0.10942 0.56072 1.00624
 C1485 C -0.07815 0.55277 1.00555
 C1486 C -0.06809 0.52417 1.02066
 C1487 C -0.09091 0.50389 1.03711
 C1488 C -0.12282 0.51173 1.03712
 H1489 H -0.21324 0.55484 0.94563
 H1490 H -0.21825 0.59812 1.04848
 H1491 H -0.06238 0.56848 0.99055
 H1492 H -0.08434 0.48144 1.04838
 H1493 H -0.17044 0.57222 1.06518
 H1494 H -0.11624 0.58241 0.99318
 H1495 H -0.16595 0.52792 0.96368
 H1496 H -0.14027 0.49537 1.04841
 C1497 C 0.01928 0.65480 0.56702
 C1498 C 0.01915 0.65237 0.60447
 C1499 C 0.01764 0.67900 0.62475
 C1500 C 0.01529 0.70887 0.60817
 C1501 C 0.02013 0.71129 0.57057
 C1502 C 0.02156 0.68443 0.55018
 C1503 C 0.01251 0.62660 0.54667
 C1504 C -0.01358 0.60818 0.55741
 C1505 C -0.01924 0.57978 0.54190
 C1506 C 0.00115 0.56858 0.51506
 C1507 C 0.02599 0.58831 0.50222
 C1508 C 0.03168 0.61716 0.51797
 H1509 H 0.01575 0.67617 0.65359
 H1510 H 0.02178 0.73363 0.55645
 H1511 H -0.03896 0.56601 0.55270
 H1512 H 0.04203 0.58094 0.48155
 H1513 H 0.02259 0.68681 0.52128
 H1514 H -0.02922 0.61539 0.57882
 H1515 H 0.01832 0.62967 0.61808
 H1516 H 0.05176 0.63133 0.50894
 C1517 C 0.51865 0.16382 0.05821
 C1518 C 0.51968 0.16510 0.09567
 C1519 C 0.51819 0.19335 0.11278
 C1520 C 0.51338 0.22165 0.09361
 C1521 C 0.51419 0.22071 0.05580
 C1522 C 0.51650 0.19213 0.03842
 C1523 C 0.51974 0.13277 0.04092
 C1524 C 0.50326 0.12615 0.00977
 C1525 C 0.50176 0.09547 -0.00292
 C1526 C 0.51616 0.07076 0.01572
 C1527 C 0.53269 0.07800 0.04657
 C1528 C 0.53564 0.10833 0.05782
 H1529 H 0.51841 0.19282 0.14171
 H1530 H 0.51294 0.24171 0.03927
 H1531 H 0.48833 0.09092 -0.02633
 H1532 H 0.54356 0.06011 0.06277
 H1533 H 0.51667 0.19226 0.00949
 H1534 H 0.49052 0.14431 -0.00399
 H1535 H 0.52054 0.14410 0.11238
 H1536 H 0.54977 0.11227 0.08082
 C1537 C -0.01071 0.18041 0.95201
 C1538 C -0.03729 0.19308 0.93603
 C1539 C -0.03462 0.21939 0.91302
 C1540 C -0.00506 0.23327 0.90445
 C1541 C 0.02077 0.22256 0.92402
 C1542 C 0.01811 0.19622 0.94697
 C1543 C -0.01216 0.14851 0.96879
 C1544 C 0.00429 0.14029 0.99974
 C1545 C 0.00560 0.10888 1.01185
 C1546 C -0.00906 0.08520 0.99284
 C1547 C -0.02573 0.09406 0.96218
 C1548 C -0.02765 0.12503 0.95079
 H1549 H -0.05579 0.22844 0.90175
 H1550 H 0.04355 0.23379 0.92017
 H1551 H 0.01908 0.10305 1.03512
 H1552 H -0.03674 0.07695 0.94580
 H1553 H 0.03899 0.18723 0.95912
 H1554 H 0.01667 0.15802 1.01401
 H1555 H -0.06008 0.18195 0.94048
 H1556 H -0.03981 0.13034 0.92639
 C1557 C 0.48551 0.66688 0.43913
 C1558 C 0.50633 0.66831 0.40953
 C1559 C 0.51237 0.69636 0.39064
 C1560 C 0.49831 0.72445 0.40110
 C1561 C 0.47667 0.72251 0.43053
 C1562 C 0.47094 0.69427 0.44984
 C1563 C 0.47830 0.63616 0.45699
 C1564 C 0.46975 0.61102 0.43614
 C1565 C 0.46878 0.58068 0.45063
 C1566 C 0.47617 0.57453 0.48658
 C1567 C 0.48273 0.60010 0.50811
 C1568 C 0.48358 0.63070 0.49347
 H1569 H 0.52717 0.69533 0.36682
 H1570 H 0.46368 0.74285 0.43819
 H1571 H 0.46432 0.56202 0.43262
 H1572 H 0.48911 0.59640 0.53567
 H1573 H 0.45424 0.69356 0.47219
 H1574 H 0.46545 0.61470 0.40795
 H1575 H 0.51756 0.64736 0.40046
 H1576 H 0.49041 0.64979 0.51000
 C1577 C 0.51220 0.84272 0.43331
 C1578 C 0.51551 0.81421 0.45232
 C1579 C 0.51325 0.78570 0.43485
 C1580 C 0.50650 0.78498 0.39807
 C1581 C 0.50506 0.81382 0.37907
 C1582 C 0.50715 0.84201 0.39640
 C1583 C 0.51465 0.87349 0.45080
 C1584 C 0.52958 0.89854 0.43198
 C1585 C 0.52816 0.92859 0.44458
 C1586 C 0.51300 0.93492 0.47753
 C1587 C 0.49958 0.90953 0.49768
 C1588 C 0.50034 0.87907 0.48440
 H1589 H 0.51703 0.76447 0.45033
 H1590 H 0.50100 0.81446 0.35063
 H1591 H 0.53857 0.94705 0.42758
 H1592 H 0.48740 0.91337 0.52288
 H1593 H 0.50426 0.86339 0.38074
 H1594 H 0.54161 0.89513 0.40657
 H1595 H 0.52039 0.81398 0.48055
 H1596 H 0.48854 0.86022 0.49959
 C1597 C 0.01018 0.33927 0.95027
 C1598 C -0.01930 0.32541 0.94547
 C1599 C -0.02241 0.30029 0.92276
 C1600 C 0.00367 0.28912 0.90312
 C1601 C 0.03353 0.30114 0.91113
 C1602 C 0.03666 0.32600 0.93401
 C1603 C 0.01302 0.36981 0.96769
 C1604 C 0.03158 0.39328 0.95055
 C1605 C 0.03148 0.42347 0.96271
 C1606 C 0.01345 0.43143 0.99319
 C1607 C -0.00417 0.40758 1.01149
 C1608 C -0.00456 0.37704 0.99869
 H1609 H -0.04552 0.29022 0.91947
 H1610 H 0.05471 0.29154 0.89976
 H1611 H 0.04461 0.44090 0.94674
 H1612 H -0.01880 0.41280 1.03457
 H1613 H 0.05987 0.33546 0.93831
 H1614 H 0.04477 0.38882 0.92614
 H1615 H -0.04015 0.33487 0.95789
 H1616 H -0.01918 0.35932 1.01241
 C1617 C 0.49200 0.33497 0.04692
 C1618 C 0.51653 0.33448 0.07092
 C1619 C 0.52122 0.30841 0.09328
 C1620 C 0.50244 0.28108 0.09117
 C1621 C 0.47686 0.28243 0.06790
 C1622 C 0.47171 0.30901 0.04607
 C1623 C 0.48747 0.36351 0.02441
 C1624 C 0.46098 0.38191 0.02957
 C1625 C 0.46069 0.41270 0.01575
 C1626 C 0.48682 0.42570 -0.00355
 C1627 C 0.51153 0.40554 -0.01239
 C1628 C 0.51205 0.37504 0.00190
 H1629 H 0.53941 0.31048 0.11250
 H1630 H 0.46093 0.26264 0.06649
 H1631 H 0.44086 0.42661 0.02246
 H1632 H 0.53205 0.41405 -0.02756
 H1633 H 0.45213 0.30919 0.02832
 H1634 H 0.44162 0.37339 0.04671
 H1635 H 0.53171 0.35480 0.07302
 H1636 H 0.53264 0.36109 -0.00272
 C1637 C -0.00840 0.82553 0.57363
 C1638 C -0.02468 0.79833 0.56496
 C1639 C -0.01924 0.77007 0.58351
 C1640 C 0.00363 0.76792 0.61015
 C1641 C 0.01943 0.79582 0.61872
 C1642 C 0.01371 0.82392 0.60054
 C1643 C -0.01544 0.85633 0.55694
 C1644 C -0.01261 0.86204 0.51980
 C1645 C -0.01383 0.89273 0.50548
 C1646 C -0.01823 0.91805 0.52811
 C1647 C -0.02307 0.91153 0.56506
 C1648 C -0.02187 0.88121 0.57913
 H1649 H -0.03307 0.74970 0.57718
 H1650 H 0.03559 0.79670 0.64033
 H1651 H -0.00940 0.89673 0.47709
 H1652 H -0.02634 0.93000 0.58379
 H1653 H 0.02627 0.84476 0.60804
 H1654 H -0.00752 0.84309 0.50219
 H1655 H -0.04235 0.79918 0.54478
 H1656 H -0.02449 0.87732 0.60782
 C1657 C 0.22458 0.32967 0.08010
 C1658 C 0.20256 0.35148 0.06931
 C1659 C 0.21007 0.37341 0.04188
 C1660 C 0.24051 0.37504 0.02544
 C1661 C 0.26127 0.35084 0.03457
 C1662 C 0.25362 0.32885 0.06187
 C1663 C 0.22083 0.31360 0.11522
 C1664 C 0.20791 0.28336 0.11994
 C1665 C 0.20958 0.26740 0.15326
 C1666 C 0.22462 0.28140 0.18188
 C1667 C 0.23614 0.31235 0.17661
 C1668 C 0.23379 0.32825 0.14409
 H1669 H 0.19167 0.38904 0.03443
 H1670 H 0.28415 0.34976 0.02143
 H1671 H 0.20109 0.24347 0.15582
 H1672 H 0.24930 0.32395 0.19666
 H1673 H 0.27108 0.31224 0.07015
 H1674 H 0.19795 0.27170 0.09757
 H1675 H 0.18001 0.35244 0.08323
 H1676 H 0.24411 0.35148 0.14073
 C1677 C 0.70616 0.84160 0.55314
 C1678 C 0.71307 0.82702 0.52093
 C1679 C 0.72273 0.84486 0.49039
 C1680 C 0.72724 0.87763 0.49195
 C1681 C 0.71526 0.89208 0.52273
 C1682 C 0.70515 0.87436 0.55292
 C1683 C 0.70687 0.82379 0.58784
 C1684 C 0.72647 0.83518 0.61385
 C1685 C 0.73156 0.81792 0.64493
 C1686 C 0.71644 0.78878 0.65226
 C1687 C 0.69609 0.77741 0.62653
 C1688 C 0.69159 0.79465 0.59433
 H1689 H 0.72773 0.83249 0.46628
 H1690 H 0.71617 0.91725 0.52445
 H1691 H 0.74834 0.82756 0.66282
 H1692 H 0.68459 0.75484 0.63069
 H1693 H 0.69887 0.88631 0.57711
 H1694 H 0.73944 0.85695 0.60933
 H1695 H 0.71316 0.80180 0.51996
 H1696 H 0.67664 0.78509 0.57438
 C1697 C 0.26435 0.66613 0.60645
 C1698 C 0.28766 0.65051 0.58803
 C1699 C 0.27992 0.63049 0.56093
 C1700 C 0.24836 0.62573 0.55042
 C1701 C 0.22526 0.64247 0.56941
 C1702 C 0.23310 0.66211 0.59699
 C1703 C 0.27165 0.68154 0.63975
 C1704 C 0.26152 0.66688 0.67179
 C1705 C 0.26345 0.68235 0.70354
 C1706 C 0.27584 0.71311 0.70440
 C1707 C 0.28882 0.72663 0.67237
 C1708 C 0.28669 0.71089 0.64012
 H1709 H 0.29951 0.61842 0.54971
 H1710 H 0.20063 0.63929 0.56455
 H1711 H 0.25191 0.67098 0.72651
 H1712 H 0.29814 0.75028 0.67164
 H1713 H 0.21457 0.67332 0.61196
 H1714 H 0.25019 0.64406 0.67193
 H1715 H 0.31183 0.65250 0.59590
 H1716 H 0.29499 0.72232 0.61535
 C1717 C 0.79166 0.16277 0.09944
 C1718 C 0.77924 0.13247 0.10575
 C1719 C 0.76744 0.11536 0.07787
 C1720 C 0.76620 0.12832 0.04276
 C1721 C 0.78096 0.15792 0.03640
 C1722 C 0.79329 0.17480 0.06418
 C1723 C 0.79939 0.18267 0.13001
 C1724 C 0.79245 0.21463 0.12901
 C1725 C 0.79069 0.23111 0.16057
 C1726 C 0.79418 0.21564 0.19407
 C1727 C 0.80690 0.18563 0.19386
 C1728 C 0.80943 0.16926 0.16229
 H1729 H 0.75863 0.09201 0.08429
 H1730 H 0.78290 0.16882 0.01006
 H1731 H 0.78280 0.25497 0.15875
 H1732 H 0.81301 0.17355 0.21783
 H1733 H 0.80370 0.19759 0.05797
 H1734 H 0.78536 0.22631 0.10458
 H1735 H 0.77745 0.12219 0.13252
 H1736 H 0.81711 0.14530 0.16371
 C1737 C 0.72060 0.16090 0.91847
 C1738 C 0.72158 0.17583 0.95118
 C1739 C 0.72964 0.15911 0.98219
 C1740 C 0.73865 0.12750 0.98072
 C1741 C 0.73262 0.11192 0.94894
 C1742 C 0.72390 0.12838 0.91826
 C1743 C 0.72227 0.17923 0.88424
 C1744 C 0.74474 0.17087 0.85851
 C1745 C 0.75015 0.18918 0.82784
 C1746 C 0.73293 0.21645 0.82123
 C1747 C 0.70973 0.22463 0.84656
 C1748 C 0.70461 0.20625 0.87807
 H1749 H 0.72950 0.17142 1.00692
 H1750 H 0.73619 0.08705 0.94731
 H1751 H 0.76836 0.18175 0.80945
 H1752 H 0.69619 0.24553 0.84249
 H1753 H 0.72177 0.11595 0.89367
 H1754 H 0.75936 0.15073 0.86277
 H1755 H 0.71805 0.20074 0.95243
 H1756 H 0.68725 0.21331 0.89772
 C1757 C 0.20918 0.65349 0.42150
 C1758 C 0.22972 0.62828 0.41992
 C1759 C 0.23909 0.61274 0.45071
 C1760 C 0.23059 0.62288 0.48523
 C1761 C 0.20963 0.64822 0.48649
 C1762 C 0.19914 0.66317 0.45530
 C1763 C 0.20039 0.67019 0.38776
 C1764 C 0.19560 0.70261 0.38624
 C1765 C 0.19721 0.71916 0.35330
 C1766 C 0.20584 0.70395 0.32166
 C1767 C 0.20685 0.67116 0.32338
 C1768 C 0.20208 0.65454 0.35548
 H1769 H 0.25250 0.59193 0.44668
 H1770 H 0.20025 0.65669 0.51106
 H1771 H 0.19592 0.74436 0.35354
 H1772 H 0.21518 0.65777 0.30156
 H1773 H 0.18284 0.68211 0.45787
 H1774 H 0.19351 0.71573 0.41037
 H1775 H 0.23905 0.62019 0.39477
 H1776 H 0.20356 0.62936 0.35510
 C1777 C 0.78144 0.84088 0.37648
 C1778 C 0.78982 0.83550 0.41199
 C1779 C 0.77876 0.85492 0.43867
 C1780 C 0.75725 0.87879 0.43087
 C1781 C 0.75181 0.88587 0.39445
 C1782 C 0.76353 0.86697 0.36772
 C1783 C 0.78623 0.81693 0.34962
 C1784 C 0.79899 0.82484 0.31555
 C1785 C 0.79472 0.80483 0.28726
 C1786 C 0.77622 0.77748 0.29230
 C1787 C 0.76715 0.76793 0.32751
 C1788 C 0.77218 0.78747 0.35588
 H1789 H 0.78554 0.85021 0.46595
 H1790 H 0.73818 0.90573 0.38622
 H1791 H 0.80397 0.81205 0.26109
 H1792 H 0.75399 0.74647 0.33310
 H1793 H 0.75704 0.87171 0.34033
 H1794 H 0.81058 0.84724 0.31042
 H1795 H 0.80401 0.81566 0.41919
 H1796 H 0.76237 0.78081 0.38208
 C1797 C 0.28100 0.34438 0.90509
 C1798 C 0.25169 0.33902 0.92206
 C1799 C 0.24217 0.35707 0.95060
 C1800 C 0.26167 0.38114 0.96296
 C1801 C 0.29181 0.38525 0.94627
 C1802 C 0.30104 0.36742 0.91736
 C1803 C 0.28772 0.32977 0.87094
 C1804 C 0.27796 0.34515 0.83997
 C1805 C 0.27543 0.32908 0.80860
 C1806 C 0.28371 0.29739 0.80696
 C1807 C 0.29673 0.28304 0.83739
 C1808 C 0.29821 0.29901 0.86943
 H1809 H 0.21916 0.35263 0.96283
 H1810 H 0.30867 0.40222 0.95488
 H1811 H 0.26373 0.34097 0.78713
 H1812 H 0.30295 0.25865 0.83758
 H1813 H 0.32359 0.37205 0.90406
 H1814 H 0.26932 0.36877 0.84098
 H1815 H 0.23569 0.32162 0.91226
 H1816 H 0.30556 0.28679 0.89345
 C1817 C 0.80133 0.42423 0.78885
 C1818 C 0.78356 0.45093 0.78210
 C1819 C 0.79860 0.48006 0.77568
 C1820 C 0.83172 0.48230 0.77381
 C1821 C 0.84846 0.45632 0.78686
 C1822 C 0.83346 0.42779 0.79435
 C1823 C 0.78903 0.39262 0.78186
 C1824 C 0.80530 0.37531 0.75649
 C1825 C 0.79614 0.34501 0.74977
 C1826 C 0.77016 0.33070 0.76801
 C1827 C 0.75304 0.34841 0.79276
 C1828 C 0.76232 0.37931 0.79949
 H1829 H 0.78414 0.49991 0.77001
 H1830 H 0.87379 0.45709 0.78746
 H1831 H 0.81024 0.33263 0.73061
 H1832 H 0.73286 0.33829 0.80727
 H1833 H 0.84755 0.40762 0.80057
 H1834 H 0.82560 0.38525 0.74194
 H1835 H 0.75849 0.44886 0.77890
 H1836 H 0.74926 0.39244 0.81898
 C1837 C 0.29672 0.90696 0.28735
 C1838 C 0.28610 0.92610 0.25915
 C1839 C 0.30139 0.95423 0.24956
 C1840 C 0.32816 0.96426 0.26749
 C1841 C 0.33849 0.94513 0.29605
 C1842 C 0.32250 0.91750 0.30648
 C1843 C 0.28353 0.87468 0.29335
 C1844 C 0.30286 0.85017 0.30452
 C1845 C 0.29289 0.81916 0.30256
 C1846 C 0.26391 0.81163 0.28789
 C1847 C 0.24313 0.83613 0.28081
 C1848 C 0.25272 0.86723 0.28381
 H1849 H 0.29280 0.96747 0.22695
 H1850 H 0.35967 0.95088 0.30979
 H1851 H 0.30909 0.80155 0.31039
 H1852 H 0.22001 0.83148 0.27088
 H1853 H 0.33124 0.90387 0.32876
 H1854 H 0.32666 0.85451 0.31239
 H1855 H 0.26700 0.91870 0.24288
 H1856 H 0.23644 0.88536 0.27682
 C1857 C 0.20037 0.91782 0.72099
 C1858 C 0.21820 0.94265 0.73345
 C1859 C 0.20481 0.97196 0.73747
 C1860 C 0.17312 0.97712 0.72911
 C1861 C 0.15664 0.95254 0.71317
 C1862 C 0.17002 0.92335 0.70939
 C1863 C 0.21056 0.88540 0.72703
 C1864 C 0.19140 0.86543 0.74864
 C1865 C 0.20083 0.83541 0.75730
 C1866 C 0.22943 0.82390 0.74388
 C1867 C 0.24875 0.84402 0.72205
 C1868 C 0.23952 0.87471 0.71399
 H1869 H 0.21920 0.98974 0.74885
 H1870 H 0.13232 0.95506 0.70635
 H1871 H 0.18555 0.82137 0.77509
 H1872 H 0.27113 0.83628 0.71162
 H1873 H 0.15583 0.90439 0.69971
 H1874 H 0.16938 0.87345 0.75984
 H1875 H 0.24168 0.93878 0.74266
 H1876 H 0.25484 0.89005 0.69764
 C1877 C 0.69046 0.40383 0.24287
 C1878 C 0.67034 0.41497 0.21643
 C1879 C 0.65388 0.44259 0.22072
 C1880 C 0.65827 0.46123 0.25071
 C1881 C 0.67911 0.45031 0.27668
 C1882 C 0.69460 0.42207 0.27307
 C1883 C 0.70541 0.37256 0.24027
 C1884 C 0.73332 0.36603 0.25795
 C1885 C 0.74489 0.33574 0.25976
 C1886 C 0.72926 0.31108 0.24334
 C1887 C 0.70346 0.31828 0.22233
 C1888 C 0.69118 0.34833 0.22159
 H1889 H 0.63710 0.44849 0.20066
 H1890 H 0.68266 0.46333 0.30058
 H1891 H 0.76560 0.33163 0.27513
 H1892 H 0.69182 0.30060 0.20744
 H1893 H 0.70896 0.41417 0.29479
 H1894 H 0.74605 0.38413 0.27120
 H1895 H 0.66666 0.40216 0.19245
 H1896 H 0.66975 0.35195 0.20746
 C1897 C 0.68984 0.57845 0.26570
 C1898 C 0.70623 0.55174 0.25609
 C1899 C 0.69074 0.52264 0.25584
 C1900 C 0.65852 0.51968 0.26559
 C1901 C 0.64300 0.54656 0.27706
 C1902 C 0.65849 0.57530 0.27756
 C1903 C 0.70304 0.61012 0.25776
 C1904 C 0.68531 0.63099 0.23757
 C1905 C 0.69609 0.66120 0.23007
 C1906 C 0.72506 0.67185 0.24253
 C1907 C 0.74334 0.65067 0.26217
 C1908 C 0.73248 0.61989 0.26953
 H1909 H 0.70361 0.50318 0.24558
 H1910 H 0.61819 0.54555 0.28399
 H1911 H 0.68135 0.67621 0.21430
 H1912 H 0.76580 0.65789 0.27208
 H1913 H 0.64535 0.59561 0.28516
 H1914 H 0.66291 0.62385 0.22737
 H1915 H 0.73032 0.55376 0.24629
 H1916 H 0.74666 0.60400 0.28496
 C1917 C 0.20979 0.09066 0.76251
 C1918 C 0.20866 0.06560 0.78733
 C1919 C 0.19415 0.03744 0.77855
 C1920 C 0.17931 0.03432 0.74532
 C1921 C 0.18482 0.05846 0.71922
 C1922 C 0.19977 0.08612 0.72777
 C1923 C 0.21599 0.12287 0.77319
 C1924 C 0.19269 0.14476 0.76705
 C1925 C 0.19971 0.17640 0.76696
 C1926 C 0.23005 0.18728 0.77437
 C1927 C 0.25245 0.16511 0.78485
 C1928 C 0.24553 0.13300 0.78393
 H1929 H 0.19216 0.01894 0.79891
 H1930 H 0.17621 0.05746 0.69257
 H1931 H 0.18213 0.19156 0.75646
 H1932 H 0.27615 0.17236 0.79051
 H1933 H 0.20139 0.10505 0.70787
 H1934 H 0.16970 0.13731 0.75876
 H1935 H 0.21684 0.06851 0.81416
 H1936 H 0.26380 0.11629 0.78888
 C1937 C 0.30230 0.07748 0.22020
 C1938 C 0.33115 0.06968 0.20442
 C1939 C 0.34477 0.04114 0.21276
 C1940 C 0.32976 0.01929 0.23683
 C1941 C 0.29998 0.02691 0.25130
 C1942 C 0.28626 0.05548 0.24266
 C1943 C 0.29282 0.11041 0.21989
 C1944 C 0.31365 0.13237 0.23312
 C1945 C 0.30453 0.16293 0.23767
 C1946 C 0.27457 0.17294 0.22797
 C1947 C 0.25384 0.15093 0.21380
 C1948 C 0.26277 0.11976 0.21023
 H1949 H 0.36811 0.03699 0.20206
 H1950 H 0.28807 0.01181 0.27119
 H1951 H 0.32063 0.17800 0.25095
 H1952 H 0.23038 0.15745 0.20669
 H1953 H 0.26440 0.06148 0.25595
 H1954 H 0.33656 0.12542 0.24190
 H1955 H 0.34417 0.08664 0.18755
 H1956 H 0.24619 0.10290 0.20046
 C1957 C 0.79602 0.58880 0.71674
 C1958 C 0.82297 0.59376 0.73610
 C1959 C 0.84078 0.56872 0.74756
 C1960 C 0.83158 0.53751 0.74120
 C1961 C 0.80627 0.53320 0.71816
 C1962 C 0.78799 0.55849 0.70704
 C1963 C 0.77680 0.61599 0.70795
 C1964 C 0.75232 0.62395 0.73149
 C1965 C 0.74103 0.65442 0.73109
 C1966 C 0.75459 0.67751 0.70756
 C1967 C 0.77626 0.66819 0.68113
 C1968 C 0.78770 0.63785 0.68173
 H1969 H 0.86193 0.57436 0.76131
 H1970 H 0.80012 0.51009 0.70952
 H1971 H 0.72374 0.66038 0.75135
 H1972 H 0.78584 0.68467 0.66121
 H1973 H 0.76771 0.55444 0.69099
 H1974 H 0.74389 0.60742 0.75220
 H1975 H 0.83008 0.61722 0.74273
 H1976 H 0.80665 0.63205 0.66336
 C1977 C 0.91271 0.76073 0.17381
 C1978 C 0.91825 0.73719 0.14953
 C1979 C 0.94715 0.73485 0.13192
 C1980 C 0.97238 0.75552 0.13861
 C1981 C 0.96641 0.77955 0.16290
 C1982 C 0.93706 0.78186 0.18071
 C1983 C 0.88023 0.76449 0.18779
 C1984 C 0.85649 0.76757 0.16306
 C1985 C 0.82519 0.76496 0.17397
 C1986 C 0.81628 0.75999 0.21031
 C1987 C 0.84019 0.75814 0.23548
 C1988 C 0.87198 0.76051 0.22430
 H1989 H 0.94872 0.71716 0.11211
 H1990 H 0.98452 0.79671 0.16784
 H1991 H 0.80813 0.76593 0.15320
 H1992 H 0.83445 0.75352 0.26351
 H1993 H 0.93302 0.80075 0.19873
 H1994 H 0.86228 0.77046 0.13475
 H1995 H 0.89959 0.72101 0.14322
 H1996 H 0.89002 0.75754 0.24381
 C1997 C 0.41962 0.25571 0.68999
 C1998 C 0.42325 0.23371 0.66343
 C1999 C 0.45196 0.23049 0.64536
 C2000 C 0.47839 0.24895 0.65364
 C2001 C 0.47405 0.27170 0.67991
 C2002 C 0.44523 0.27461 0.69834
 C2003 C 0.38793 0.26108 0.70517
 C2004 C 0.36473 0.27112 0.68210
 C2005 C 0.33370 0.27254 0.69410
 C2006 C 0.32480 0.26368 0.72963
 C2007 C 0.34843 0.25499 0.75332
 C2008 C 0.37986 0.25379 0.74115
 H2009 H 0.45257 0.21424 0.62392
 H2010 H 0.49311 0.28746 0.68595
 H2011 H 0.31665 0.28006 0.67496
 H2012 H 0.34253 0.24818 0.78081
 H2013 H 0.44258 0.29244 0.71802
 H2014 H 0.37058 0.27708 0.65433
 H2015 H 0.40342 0.21954 0.65588
 H2016 H 0.39758 0.24592 0.75933
 C2017 C 0.41830 0.74475 0.81413
 C2018 C 0.43506 0.77306 0.81553
 C2019 C 0.46292 0.77471 0.83431
 C2020 C 0.47447 0.74830 0.85308
 C2021 C 0.45934 0.71932 0.84785
 C2022 C 0.43133 0.71773 0.82940
 C2023 C 0.38588 0.74389 0.80054
 C2024 C 0.36209 0.72925 0.82179
 C2025 C 0.33099 0.73040 0.81176
 C2026 C 0.32248 0.74545 0.77945
 C2027 C 0.34645 0.75957 0.75760
 C2028 C 0.37783 0.75905 0.76823
 H2029 H 0.47483 0.79712 0.83559
 H2030 H 0.46869 0.69771 0.85829
 H2031 H 0.31352 0.71958 0.82986
 H2032 H 0.34090 0.77173 0.73285
 H2033 H 0.41945 0.69534 0.82761
 H2034 H 0.36739 0.71789 0.84712
 H2035 H 0.42582 0.79423 0.80365
 H2036 H 0.39577 0.77067 0.75138
 C2037 C 0.91285 0.24787 0.33199
 C2038 C 0.94074 0.25632 0.31272
 C2039 C 0.96958 0.25704 0.32970
 C2040 C 0.97189 0.24650 0.36562
 C2041 C 0.94371 0.24064 0.38528
 C2042 C 0.91489 0.24204 0.36910
 C2043 C 0.88187 0.24470 0.31424
 C2044 C 0.85727 0.22739 0.33159
 C2045 C 0.82780 0.22577 0.31716
 C2046 C 0.82216 0.23871 0.28300
 C2047 C 0.84685 0.25492 0.26456
 C2048 C 0.87617 0.25837 0.28022
 H2049 H 0.98987 0.26564 0.31432
 H2050 H 0.94398 0.23474 0.41360
 H2051 H 0.80963 0.21311 0.33261
 H2052 H 0.84327 0.26589 0.23857
 H2053 H 0.89435 0.23832 0.38630
 H2054 H 0.86028 0.21467 0.35657
 H2055 H 0.94074 0.26216 0.28445
 H2056 H 0.89390 0.27228 0.26569
 C2057 C 0.09045 0.24249 0.32117
 C2058 C 0.08972 0.25203 0.35682
 C2059 C 0.06176 0.25284 0.37656
 C2060 C 0.03326 0.24329 0.36205
 C2061 C 0.03486 0.22897 0.32855
 C2062 C 0.06273 0.22988 0.30768
 C2063 C 0.12025 0.24589 0.29920
 C2064 C 0.12783 0.22629 0.27070
 C2065 C 0.15752 0.22842 0.25332
 C2066 C 0.18054 0.24944 0.26482
 C2067 C 0.17236 0.26901 0.29297
 C2068 C 0.14249 0.26852 0.30826
 H2069 H 0.06256 0.26102 0.40358
 H2070 H 0.01453 0.21750 0.31804
 H2071 H 0.16305 0.21225 0.23250
 H2072 H 0.18934 0.28416 0.30477
 H2073 H 0.06229 0.22094 0.28101
 H2074 H 0.11155 0.20842 0.26275
 H2075 H 0.11080 0.25906 0.36996
 H2076 H 0.13756 0.28532 0.32854
 C2077 C 0.58009 0.76333 0.79376
 C2078 C 0.56816 0.78940 0.81123
 C2079 C 0.54381 0.78607 0.83701
 C2080 C 0.53095 0.75638 0.84687
 C2081 C 0.54078 0.73091 0.82643
 C2082 C 0.56534 0.73417 0.80087
 C2083 C 0.60963 0.76608 0.77129
 C2084 C 0.61500 0.74777 0.74112
 C2085 C 0.64474 0.74751 0.72381
 C2086 C 0.66984 0.76537 0.73644
 C2087 C 0.66363 0.78472 0.76556
 C2088 C 0.63415 0.78525 0.78239
 H2089 H 0.53521 0.80699 0.84906
 H2090 H 0.53009 0.70803 0.83126
 H2091 H 0.64848 0.73197 0.70192
 H2092 H 0.68208 0.79818 0.77730
 H2093 H 0.57358 0.71356 0.78777
 H2094 H 0.59652 0.73289 0.73161
 H2095 H 0.57797 0.81249 0.80529
 H2096 H 0.63132 0.79918 0.80586
 C2097 C 0.59346 0.23698 0.69668
 C2098 C 0.56375 0.23556 0.71366
 C2099 C 0.53660 0.23780 0.69352
 C2100 C 0.53858 0.24287 0.65591
 C2101 C 0.56861 0.24254 0.63924
 C2102 C 0.59548 0.24017 0.65923
 C2103 C 0.62274 0.23475 0.71703
 C2104 C 0.64712 0.21678 0.70349
 C2105 C 0.67702 0.21952 0.71660
 C2106 C 0.68359 0.23927 0.74503
 C2107 C 0.65843 0.25523 0.76086
 C2108 C 0.62821 0.25304 0.74690
 H2109 H 0.51434 0.23527 0.70779
 H2110 H 0.57126 0.24538 0.61045
 H2111 H 0.69533 0.20752 0.70235
 H2112 H 0.66248 0.27102 0.78232
 H2113 H 0.61806 0.24142 0.64524
 H2114 H 0.64354 0.20204 0.68094
 H2115 H 0.56154 0.23218 0.74242
 H2116 H 0.60972 0.26721 0.75786
 C2117 C 0.08759 0.74203 0.18289
 C2118 C 0.05789 0.74353 0.19996
 C2119 C 0.03080 0.74728 0.17989
 C2120 C 0.03280 0.74991 0.14211
 C2121 C 0.06257 0.74634 0.12553
 C2122 C 0.08937 0.74372 0.14535
 C2123 C 0.11695 0.73850 0.20326
 C2124 C 0.14240 0.72312 0.18762
 C2125 C 0.17149 0.72355 0.20302
 C2126 C 0.17589 0.73704 0.23635
 C2127 C 0.15004 0.75086 0.25339
 C2128 C 0.12089 0.75189 0.23681
 H2129 H 0.00858 0.74742 0.19434
 H2130 H 0.06522 0.74722 0.09664
 H2131 H 0.19057 0.71276 0.18859
 H2132 H 0.15258 0.76188 0.27879
 H2133 H 0.11162 0.74357 0.13080
 H2134 H 0.14024 0.71116 0.16277
 H2135 H 0.05545 0.74136 0.22879
 H2136 H 0.10190 0.76413 0.24966
   
