data_POSCAR
  _audit_creation_date              2014-09-24
  _audit_creation_method            'ToBaCCo'
  _symmetry_space_group_name_H-M    'P1'
  _symmetry_Int_Tables_number       1
  _symmetry_cell_setting            triclinic
  loop_
  _symmetry_equiv_pos_as_xyz
 x,y,z
_cell_length_a 59.4719
_cell_length_b 58.6671
_cell_length_c 53.6182
_cell_angle_alpha 89.319600
_cell_angle_beta 90.424300
_cell_angle_gamma 91.419800
loop_
  _atom_site_label
  _atom_site_type_symbol
  _atom_site_fract_x
  _atom_site_fract_y
  _atom_site_fract_z
C1 C 0.39835 0.00682 0.26758
 H2 H 0.40686 -0.00270 0.25357
 C3 C 0.41039 0.01439 0.28854
 H4 H 0.42778 0.00966 0.29054
 C5 C 0.36528 0.02352 0.28238
 H6 H 0.34758 0.02680 0.28001
 C7 C 0.37683 0.03210 0.30310
 H8 H 0.36777 0.04237 0.31608
 N9 N 0.37597 0.01075 0.26536
 C10 C 0.36953 -0.00862 0.18941
 H11 H 0.35653 0.00331 0.18498
 C12 C 0.38181 -0.01789 0.17012
 H13 H 0.37862 -0.01233 0.15112
 C14 C 0.38898 -0.03092 0.21923
 H15 H 0.39120 -0.03644 0.23838
 C16 C 0.40203 -0.04032 0.20050
 H17 H 0.41460 -0.05269 0.20535
 Zn18 Zn 0.35717 -0.00098 0.23943
 N19 N 0.37379 -0.01461 0.21353
 C20 C 0.35192 0.04022 0.21332
 N21 N 0.34069 0.02409 0.22708
 C22 C 0.31921 0.02726 0.23456
 C23 C 0.30846 0.04763 0.22883
 C24 C 0.34153 0.06039 0.20632
 C25 C 0.34176 -0.03323 0.27538
 C26 C 0.32948 -0.05245 0.28360
 C27 C 0.30789 -0.05126 0.24533
 C28 C 0.32092 -0.03234 0.23771
 N29 N 0.33763 -0.02393 0.25256
 H30 H 0.36921 0.03761 0.20815
 H31 H 0.31085 0.01459 0.24625
 H32 H 0.29196 0.05021 0.23648
 H33 H 0.35087 0.07260 0.19495
 H34 H 0.35515 -0.02624 0.28693
 H35 H 0.33330 -0.05887 0.30208
 H36 H 0.29582 -0.05788 0.23194
 H37 H 0.31824 -0.02480 0.21944
 C38 C 0.39861 -0.03360 0.17561
 C39 C 0.39955 0.02688 0.30703
 C40 C 0.31249 -0.06251 0.26830
 C41 C 0.31975 0.06482 0.21487
 C42 C 0.09848 0.00103 0.72511
 H43 H 0.08913 -0.00624 0.74054
 C44 C 0.08703 0.00712 0.70324
 H45 H 0.06917 0.00334 0.70200
 C46 C 0.13298 0.01443 0.70804
 H47 H 0.15093 0.01728 0.71010
 C48 C 0.12214 0.02144 0.68621
 H49 H 0.13204 0.02995 0.67187
 N50 N 0.12118 0.00419 0.72684
 C51 C 0.12502 -0.00964 0.80547
 H52 H 0.13824 0.00284 0.80911
 C53 C 0.11293 -0.01906 0.82537
 H54 H 0.11644 -0.01313 0.84408
 C55 C 0.10515 -0.03345 0.77705
 H56 H 0.10284 -0.03960 0.75826
 C57 C 0.09223 -0.04300 0.79644
 H58 H 0.07958 -0.05608 0.79245
 Zn59 Zn 0.13838 -0.00360 0.75554
 N60 N 0.12056 -0.01642 0.78174
 C61 C 0.14117 0.03939 0.77818
 N62 N 0.15318 0.02371 0.76585
 C63 C 0.17473 0.02829 0.75876
 C64 C 0.18497 0.04942 0.76387
 C65 C 0.15097 0.06043 0.78440
 C66 C 0.15794 -0.03878 0.72736
 C67 C 0.17180 -0.05751 0.72462
 C68 C 0.18998 -0.04788 0.76368
 C69 C 0.17557 -0.02967 0.76587
 N70 N 0.15978 -0.02564 0.74803
 H71 H 0.12385 0.03559 0.78303
 H72 H 0.18370 0.01592 0.74814
 H73 H 0.20170 0.05296 0.75682
 H74 H 0.14111 0.07228 0.79474
 H75 H 0.14493 -0.03550 0.71368
 H76 H 0.16917 -0.06858 0.70880
 H77 H 0.20224 -0.05086 0.77831
 H78 H 0.17646 -0.01909 0.78226
 C79 C 0.09612 -0.03573 0.82092
 C80 C 0.09885 0.01737 0.68321
 C81 C 0.18769 -0.06265 0.74332
 C82 C 0.17304 0.06601 0.77671
 C83 C 0.61384 0.52794 0.22572
 H84 H 0.61102 0.53671 0.24301
 C85 C 0.60047 0.53257 0.20475
 H86 H 0.58714 0.54472 0.20608
 C87 C 0.63418 0.50085 0.20317
 H88 H 0.64750 0.48871 0.20243
 C89 C 0.62129 0.50493 0.18187
 H90 H 0.62474 0.49570 0.16501
 N91 N 0.62985 0.51179 0.22476
 C92 C 0.63736 0.48847 0.30195
 H93 H 0.65537 0.49073 0.30416
 C94 C 0.62446 0.48008 0.32181
 H95 H 0.63276 0.47667 0.33944
 C96 C 0.60493 0.49083 0.27627
 H97 H 0.59746 0.49457 0.25831
 C98 C 0.59140 0.48211 0.29555
 H99 H 0.57359 0.47939 0.29212
 Zn100 Zn 0.64669 0.50432 0.25377
 N101 N 0.62744 0.49410 0.27990
 C102 C 0.66004 0.54084 0.28539
 N103 N 0.66369 0.53060 0.26320
 C104 C 0.67836 0.53985 0.24635
 C105 C 0.69002 0.56024 0.25151
 C106 C 0.67129 0.56126 0.29129
 C107 C 0.65370 0.45973 0.24231
 C108 C 0.66506 0.44009 0.23647
 C109 C 0.70022 0.46138 0.24005
 C110 C 0.68810 0.48073 0.24597
 N111 N 0.66522 0.47957 0.24667
 H112 H 0.64788 0.53362 0.29828
 H113 H 0.68056 0.53166 0.22859
 H114 H 0.70107 0.56770 0.23751
 H115 H 0.66796 0.56929 0.30892
 H116 H 0.63553 0.45924 0.24330
 H117 H 0.65542 0.42444 0.23353
 H118 H 0.71839 0.46260 0.23920
 H119 H 0.69696 0.49660 0.24988
 C120 C 0.60109 0.47675 0.31885
 C121 C 0.60381 0.52053 0.18265
 C122 C 0.68863 0.44073 0.23502
 C123 C 0.68631 0.57138 0.27410
 C124 C 0.89560 0.52467 0.77542
 H125 H 0.90110 0.52940 0.75684
 C126 C 0.90756 0.53282 0.79616
 H127 H 0.92226 0.54369 0.79307
 C128 C 0.86883 0.50603 0.80151
 H129 H 0.85360 0.49572 0.80346
 C130 C 0.87969 0.51450 0.82269
 H131 H 0.87295 0.50959 0.84072
 N132 N 0.87696 0.51106 0.77846
 C133 C 0.86768 0.49109 0.70100
 H134 H 0.84988 0.49407 0.69899
 C135 C 0.88027 0.48549 0.68022
 H136 H 0.87217 0.48454 0.66209
 C137 C 0.89989 0.48853 0.72708
 H138 H 0.90734 0.48925 0.74549
 C139 C 0.91306 0.48247 0.70682
 H140 H 0.93078 0.47930 0.70956
 Zn141 Zn 0.85946 0.50179 0.75067
 N142 N 0.87779 0.49344 0.72367
 C143 C 0.84382 0.53972 0.72151
 N144 N 0.84115 0.52685 0.74262
 C145 C 0.82663 0.53290 0.76071
 C146 C 0.81416 0.55256 0.75807
 C147 C 0.83172 0.55970 0.71817
 C148 C 0.85340 0.45698 0.76616
 C149 C 0.84205 0.43654 0.77189
 C150 C 0.80685 0.45509 0.76401
 C151 C 0.81893 0.47514 0.75804
 N152 N 0.84179 0.47572 0.75932
 H153 H 0.85609 0.53521 0.70779
 H154 H 0.82519 0.52269 0.77757
 H155 H 0.80288 0.55713 0.77286
 H156 H 0.83476 0.57027 0.70179
 H157 H 0.87159 0.45787 0.76671
 H158 H 0.85182 0.42169 0.77634
 H159 H 0.78867 0.45508 0.76311
 H160 H 0.80999 0.49006 0.75207
 C161 C 0.90331 0.48147 0.68298
 C162 C 0.89955 0.52803 0.82039
 C163 C 0.81842 0.43532 0.77084
 C164 C 0.81701 0.56656 0.73687
 C165 C 0.20885 0.41337 0.96507
 H166 H 0.21615 0.40293 0.95097
 C167 C 0.19026 0.42646 0.95894
 H168 H 0.18326 0.42570 0.94025
 C169 C 0.20900 0.42725 1.00636
 H170 H 0.21626 0.42743 1.02485
 C171 C 0.19052 0.44073 1.00099
 H172 H 0.18346 0.45080 1.01566
 N173 N 0.21731 0.41333 0.98873
 C174 C 0.28096 0.40151 1.02423
 H175 H 0.27695 0.38552 1.03360
 C176 C 0.30151 0.41267 1.02897
 H177 H 0.31300 0.40534 1.04241
 C178 C 0.27115 0.43000 0.99465
 H179 H 0.25942 0.43628 0.98084
 C180 C 0.29158 0.44166 0.99870
 H181 H 0.29549 0.45684 0.98776
 Zn182 Zn 0.24039 0.39305 0.99826
 N183 N 0.26640 0.41019 1.00715
 C184 C 0.26918 0.37356 0.96287
 N185 N 0.24761 0.37392 0.97120
 C186 C 0.23106 0.36107 0.96022
 C187 C 0.23579 0.34754 0.93981
 C188 C 0.27465 0.36031 0.94239
 C189 C 0.23033 0.38515 1.04889
 C190 C 0.22414 0.37259 1.07013
 C191 C 0.21809 0.33956 1.04431
 C192 C 0.22477 0.35266 1.02364
 N193 N 0.23067 0.37509 1.02618
 H194 H 0.28214 0.38385 0.97182
 H195 H 0.21402 0.36166 0.96707
 H196 H 0.22230 0.33756 0.93130
 H197 H 0.29173 0.36085 0.93553
 H198 H 0.23566 0.40280 1.05071
 H199 H 0.22497 0.38084 1.08806
 H200 H 0.21323 0.32185 1.04166
 H201 H 0.22536 0.34470 1.00567
 C202 C 0.30728 0.43276 1.01570
 C203 C 0.18052 0.43993 0.97721
 C204 C 0.21796 0.34939 1.06807
 C205 C 0.25776 0.34734 0.93035
 C206 C 0.78272 0.06821 0.99595
 H207 H 0.76722 0.05836 0.99743
 C208 C 0.80294 0.05696 0.99253
 H209 H 0.80207 0.03866 0.99049
 C210 C 0.80206 0.10386 0.99649
 H211 H 0.80179 0.12208 0.99918
 C212 C 0.82258 0.09343 0.99308
 H213 H 0.83755 0.10424 0.99355
 N214 N 0.78261 0.09131 0.99760
 C215 C 0.72125 0.09149 1.03579
 H216 H 0.72752 0.10428 1.04855
 C217 C 0.70149 0.07923 1.04153
 H218 H 0.69306 0.08247 1.05891
 C219 C 0.72379 0.07260 0.99715
 H220 H 0.73209 0.07075 0.97943
 C221 C 0.70407 0.05997 1.00215
 H222 H 0.69741 0.04844 0.98815
 Zn223 Zn 0.75627 0.10792 1.00402
 N224 N 0.73181 0.08825 1.01373
 C225 C 0.72533 0.12465 0.96819
 N226 N 0.74743 0.12479 0.97509
 C227 C 0.76304 0.13727 0.96203
 C228 C 0.75668 0.15014 0.94121
 C229 C 0.71827 0.13716 0.94735
 C230 C 0.77129 0.11920 1.05193
 C231 C 0.77778 0.13332 1.07160
 C232 C 0.77005 0.16605 1.04548
 C233 C 0.76322 0.15126 1.02647
 N234 N 0.76390 0.12831 1.03004
 H235 H 0.71302 0.11513 0.97905
 H236 H 0.78044 0.13743 0.96779
 H237 H 0.76942 0.15977 0.93096
 H238 H 0.70060 0.13699 0.94229
 H239 H 0.77190 0.10087 1.05416
 H240 H 0.78269 0.12550 1.08912
 H241 H 0.76974 0.18424 1.04197
 H242 H 0.75759 0.15818 1.00880
 C243 C 0.69236 0.06360 1.02434
 C244 C 0.82352 0.06949 0.99101
 C245 C 0.77730 0.15717 1.06859
 C246 C 0.73403 0.15020 0.93363
 C247 C 0.28401 0.55936 0.49156
 H248 H 0.26851 0.54959 0.49347
 C249 C 0.30384 0.54805 0.48628
 H250 H 0.30319 0.52977 0.48378
 C251 C 0.30384 0.59482 0.49270
 H252 H 0.30389 0.61297 0.49589
 C253 C 0.32400 0.58424 0.48761
 H254 H 0.33937 0.59451 0.48700
 N255 N 0.28429 0.58241 0.49429
 C256 C 0.22440 0.58281 0.53489
 H257 H 0.23126 0.59570 0.54719
 C258 C 0.20477 0.57078 0.54163
 H259 H 0.19688 0.57436 0.55925
 C260 C 0.22549 0.56334 0.49647
 H261 H 0.23307 0.56126 0.47839
 C262 C 0.20593 0.55088 0.50251
 H263 H 0.19872 0.53921 0.48898
 Zn264 Zn 0.25804 0.59895 0.50138
 N265 N 0.23410 0.57927 0.51240
 C266 C 0.22650 0.61391 0.46487
 N267 N 0.24843 0.61517 0.47237
 C268 C 0.26352 0.62921 0.46043
 C269 C 0.25670 0.64288 0.44045
 C270 C 0.21905 0.62700 0.44464
 C271 C 0.27539 0.61342 0.54802
 C272 C 0.28029 0.62898 0.56699
 C273 C 0.26565 0.65894 0.54072
 C274 C 0.26081 0.64283 0.52244
 N275 N 0.26548 0.62050 0.52644
 H276 H 0.21453 0.60321 0.47490
 H277 H 0.28075 0.63030 0.46681
 H278 H 0.26890 0.65406 0.43127
 H279 H 0.20154 0.62594 0.43899
 H280 H 0.27901 0.59557 0.55070
 H281 H 0.28726 0.62282 0.58445
 H282 H 0.26164 0.67658 0.53713
 H283 H 0.25289 0.64820 0.50525
 C284 C 0.19498 0.55498 0.52507
 C285 C 0.32420 0.56055 0.48412
 C286 C 0.27508 0.65206 0.56361
 C287 C 0.23421 0.64191 0.43242
 C288 C 0.71803 0.93855 0.49053
 H289 H 0.73382 0.94797 0.49121
 C290 C 0.69829 0.95001 0.48453
 H291 H 0.69921 0.96810 0.48032
 C292 C 0.69743 0.90376 0.49550
 H293 H 0.69706 0.88586 0.50049
 C294 C 0.67741 0.91448 0.48971
 H295 H 0.66181 0.90458 0.49035
 N296 N 0.71729 0.91572 0.49547
 C297 C 0.77826 0.91453 0.53508
 H298 H 0.77143 0.90233 0.54839
 C299 C 0.79848 0.92602 0.54056
 H300 H 0.80682 0.92278 0.55822
 C301 C 0.77663 0.93254 0.49534
 H302 H 0.76856 0.93420 0.47729
 C303 C 0.79679 0.94445 0.50010
 H304 H 0.80403 0.95532 0.48563
 Zn305 Zn 0.74304 0.89853 0.50362
 N306 N 0.76797 0.91763 0.51258
 C307 C 0.77278 0.88069 0.46774
 N308 N 0.75110 0.88062 0.47580
 C309 C 0.73485 0.86783 0.46423
 C310 C 0.73990 0.85520 0.44322
 C311 C 0.77856 0.86836 0.44666
 C312 C 0.72727 0.88865 0.55178
 C313 C 0.72157 0.87501 0.57241
 C314 C 0.73125 0.84183 0.54886
 C315 C 0.73709 0.85614 0.52885
 N316 N 0.73519 0.87909 0.53072
 H317 H 0.78566 0.89043 0.47749
 H318 H 0.71787 0.86747 0.47116
 H319 H 0.72663 0.84526 0.43426
 H320 H 0.79572 0.86929 0.44004
 H321 H 0.72579 0.90696 0.55268
 H322 H 0.71617 0.88310 0.58929
 H323 H 0.73272 0.82360 0.54683
 H324 H 0.74327 0.84886 0.51189
 C325 C 0.80827 0.94077 0.52270
 C326 C 0.67763 0.93787 0.48388
 C327 C 0.72368 0.85122 0.57121
 C328 C 0.76190 0.85574 0.43384
 C329 C 0.02055 0.27709 0.40888
 H330 H 0.03454 0.26564 0.40885
 C331 C 0.02075 0.29555 0.42518
 H332 H 0.03485 0.29789 0.43785
 C333 C -0.01488 0.28755 0.39263
 H334 H -0.02868 0.28455 0.37978
 C335 C -0.01523 0.30637 0.40829
 H336 H -0.02924 0.31774 0.40687
 N337 N 0.00266 0.27314 0.39343
 C338 C -0.00343 0.20016 0.38006
 H339 H -0.00722 0.20061 0.36029
 C340 C -0.00381 0.17936 0.39299
 H341 H -0.00880 0.16444 0.38254
 C342 C 0.00570 0.21991 0.41703
 H343 H 0.00926 0.23572 0.42648
 C344 C 0.00590 0.19945 0.43068
 H345 H 0.01053 0.20048 0.45015
 Zn346 Zn 0.00218 0.24718 0.37248
 N347 N 0.00160 0.21988 0.39206
 C348 C 0.04174 0.23003 0.35098
 N349 N 0.02817 0.24832 0.35206
 C350 C 0.03294 0.26773 0.33882
 C351 C 0.05187 0.26919 0.32351
 C352 C 0.06081 0.23074 0.33590
 C353 C -0.04403 0.24180 0.36368
 C354 C -0.06405 0.24080 0.34996
 C355 C -0.04309 0.25067 0.31280
 C356 C -0.02336 0.25117 0.32720
 N357 N -0.02420 0.24695 0.35222
 H358 H 0.03792 0.21487 0.36190
 H359 H 0.02197 0.28210 0.34013
 H360 H 0.05527 0.28474 0.31299
 H361 H 0.07158 0.21613 0.33568
 H362 H -0.04423 0.23841 0.38356
 H363 H -0.07970 0.23680 0.35946
 H364 H -0.04218 0.25405 0.29293
 H365 H -0.00745 0.25489 0.31830
 C366 C 0.00141 0.17841 0.41879
 C367 C 0.00259 0.31047 0.42519
 C368 C -0.06374 0.24530 0.32418
 C369 C 0.06613 0.25052 0.32191
 C370 C 0.02030 0.71889 0.09904
 H371 H 0.03483 0.73034 0.09954
 C372 C 0.01990 0.70036 0.08284
 H373 H 0.03404 0.69805 0.07063
 C374 C -0.01574 0.70824 0.11428
 H375 H -0.02948 0.71105 0.12682
 C376 C -0.01669 0.68935 0.09874
 H377 H -0.03116 0.67784 0.09985
 N378 N 0.00233 0.72289 0.11378
 C379 C -0.00136 0.79586 0.12613
 H380 H -0.00653 0.79529 0.14544
 C381 C -0.00061 0.81662 0.11317
 H382 H -0.00569 0.83179 0.12270
 C383 C 0.01043 0.77643 0.09027
 H384 H 0.01446 0.76077 0.08120
 C385 C 0.01194 0.79691 0.07676
 H386 H 0.01773 0.79658 0.05769
 Zn387 Zn 0.00250 0.74914 0.13429
 N388 N 0.00425 0.77630 0.11466
 C389 C 0.04232 0.76575 0.15771
 N390 N 0.02737 0.74788 0.15636
 C391 C 0.03011 0.72864 0.17032
 C392 C 0.04858 0.72678 0.18640
 C393 C 0.06097 0.76464 0.17359
 C394 C -0.04375 0.75265 0.13928
 C395 C -0.06441 0.75359 0.15122
 C396 C -0.04515 0.74996 0.19080
 C397 C -0.02483 0.74889 0.17794
 N398 N -0.02455 0.74997 0.15263
 H399 H 0.03997 0.78079 0.14626
 H400 H 0.01798 0.71466 0.16880
 H401 H 0.05054 0.71131 0.19732
 H402 H 0.07298 0.77882 0.17393
 H403 H -0.04295 0.75417 0.11917
 H404 H -0.07883 0.75678 0.13945
 H405 H -0.04435 0.74798 0.21083
 H406 H -0.00930 0.74712 0.18827
 C407 C 0.00645 0.81748 0.08818
 C408 C 0.00107 0.68538 0.08231
 C409 C -0.06577 0.75207 0.17761
 C410 C 0.06438 0.74491 0.18808
 C411 C 0.51047 0.21657 0.58762
 H412 H 0.52380 0.22918 0.58566
 C413 C 0.50888 0.19878 0.57054
 H414 H 0.52082 0.19833 0.55543
 C415 C 0.47891 0.20169 0.60959
 H416 H 0.46746 0.20257 0.62505
 C417 C 0.47680 0.18354 0.59306
 H418 H 0.46379 0.17063 0.59624
 N419 N 0.49544 0.21791 0.60656
 C420 C 0.48226 0.28638 0.61304
 H421 H 0.46800 0.28300 0.62489
 C422 C 0.48342 0.30689 0.59962
 H423 H 0.46976 0.31867 0.60098
 C424 C 0.51769 0.27596 0.59763
 H425 H 0.53152 0.26440 0.59779
 C426 C 0.51946 0.29624 0.58374
 H427 H 0.53451 0.29988 0.57300
 Zn428 Zn 0.49721 0.24265 0.62939
 N429 N 0.49902 0.27107 0.61146
 C430 C 0.52755 0.25790 0.66573
 N431 N 0.52327 0.24060 0.64961
 C432 C 0.53735 0.22279 0.64788
 C433 C 0.55689 0.22213 0.66254
 C434 C 0.54667 0.25778 0.68094
 C435 C 0.45078 0.24408 0.63884
 C436 C 0.43143 0.24581 0.65314
 C437 C 0.45391 0.24034 0.69033
 C438 C 0.47299 0.23918 0.67530
 N439 N 0.47119 0.24170 0.65006
 H440 H 0.51601 0.27183 0.66673
 H441 H 0.53362 0.20922 0.63492
 H442 H 0.56825 0.20820 0.66025
 H443 H 0.54953 0.27164 0.69381
 H444 H 0.44968 0.24546 0.61873
 H445 H 0.41541 0.24854 0.64397
 H446 H 0.45559 0.23895 0.71041
 H447 H 0.48922 0.23662 0.68390
 C448 C 0.50213 0.31198 0.58459
 C449 C 0.49183 0.18195 0.57308
 C450 C 0.43297 0.24433 0.67920
 C451 C 0.56189 0.23990 0.67923
 C452 C 0.51372 0.78009 0.90965
 H453 H 0.52667 0.76755 0.91167
 C454 C 0.51389 0.79900 0.92524
 H455 H 0.52687 0.80061 0.93940
 C456 C 0.48090 0.79273 0.88903
 H457 H 0.46822 0.79042 0.87470
 C458 C 0.48060 0.81205 0.90398
 H459 H 0.46771 0.82445 0.90068
 N460 N 0.49713 0.77702 0.89228
 C461 C 0.49786 0.70275 0.88365
 H462 H 0.49712 0.70094 0.86369
 C463 C 0.49922 0.68325 0.89875
 H464 H 0.49970 0.66670 0.89008
 C465 C 0.49659 0.72614 0.91919
 H466 H 0.49494 0.74272 0.92731
 C467 C 0.49793 0.70709 0.93500
 H468 H 0.49802 0.70950 0.95499
 Zn469 Zn 0.49696 0.75020 0.87242
 N470 N 0.49727 0.72382 0.89394
 C471 C 0.52637 0.73401 0.83509
 N472 N 0.52293 0.75115 0.85142
 C473 C 0.53772 0.76920 0.85286
 C474 C 0.55714 0.77003 0.83833
 C475 C 0.54545 0.73426 0.82004
 C476 C 0.45035 0.74734 0.86485
 C477 C 0.43007 0.74599 0.85159
 C478 C 0.45105 0.74660 0.81324
 C479 C 0.47092 0.74861 0.82725
 N480 N 0.47027 0.74867 0.85262
 H481 H 0.51414 0.72024 0.83331
 H482 H 0.53466 0.78299 0.86541
 H483 H 0.56898 0.78418 0.84055
 H484 H 0.54765 0.72048 0.80711
 H485 H 0.45024 0.74758 0.88503
 H486 H 0.41455 0.74573 0.86198
 H487 H 0.45222 0.74578 0.79315
 H488 H 0.48684 0.74996 0.81774
 C489 C 0.49963 0.68528 0.92484
 C490 C 0.49708 0.81530 0.92265
 C491 C 0.43012 0.74522 0.82533
 C492 C 0.56137 0.75227 0.82179
 C493 C -0.22258 0.63000 0.97045
 H494 H -0.20929 0.62031 0.97894
 C495 C -0.21796 0.64355 0.94937
 H496 H -0.20127 0.64362 0.94144
 C497 C -0.26049 0.64147 0.97016
 H498 H -0.27700 0.64077 0.97839
 C499 C -0.25658 0.65529 0.94924
 H500 H -0.27026 0.66510 0.94161
 N501 N -0.24368 0.62892 0.98016
 C502 C -0.26296 0.61856 1.05748
 H503 H -0.26386 0.60013 1.05866
 C504 C -0.26920 0.63150 1.07784
 H505 H -0.27373 0.62229 1.09469
 C506 C -0.25467 0.65196 1.03389
 H507 H -0.24926 0.65988 1.01659
 C508 C -0.26110 0.66562 1.05362
 H509 H -0.26090 0.68381 1.05032
 Zn510 Zn -0.25020 0.61016 1.00846
 N511 N -0.25583 0.62889 1.03610
 C512 C -0.21381 0.59353 1.03728
 N513 N -0.22532 0.59118 1.01540
 C514 C -0.21824 0.57678 0.99752
 C515 C -0.19865 0.56443 1.00110
 C516 C -0.19412 0.58157 1.04160
 C517 C -0.29648 0.60427 1.00671
 C518 C -0.31735 0.59310 1.00508
 C519 C -0.29854 0.55849 0.99474
 C520 C -0.27786 0.57031 0.99695
 N521 N -0.27721 0.59285 1.00283
 H522 H -0.21938 0.60531 1.05112
 H523 H -0.22725 0.57566 0.97996
 H524 H -0.19281 0.55381 0.98622
 H525 H -0.18496 0.58405 1.05892
 H526 H -0.29565 0.62204 1.01181
 H527 H -0.33245 0.60247 1.00857
 H528 H -0.29888 0.54050 0.99041
 H529 H -0.26246 0.56132 0.99437
 C530 C -0.26860 0.65561 1.07633
 C531 C -0.23519 0.65616 0.93827
 C532 C -0.31855 0.56990 0.99923
 C533 C -0.18608 0.56710 1.02319
 C534 C -0.21674 0.37045 0.53599
 H535 H -0.20335 0.38059 0.52755
 C536 C -0.21247 0.35797 0.55653
 H537 H -0.19574 0.35897 0.56453
 C538 C -0.25501 0.35768 0.53456
 H539 H -0.27145 0.35723 0.52607
 C540 C -0.25116 0.34377 0.55709
 H541 H -0.26512 0.33321 0.56358
 N542 N -0.23898 0.37050 0.52519
 C543 C -0.26110 0.38242 0.44845
 H544 H -0.26071 0.40086 0.44777
 C545 C -0.26833 0.37010 0.42766
 H546 H -0.27279 0.37938 0.41086
 C547 C -0.25475 0.34825 0.47108
 H548 H -0.24937 0.33977 0.48800
 C549 C -0.26239 0.33524 0.45093
 H550 H -0.26308 0.31687 0.45293
 Zn551 Zn -0.24574 0.38958 0.49713
 N552 N -0.25427 0.37140 0.46950
 C553 C -0.20937 0.40495 0.46701
 N554 N -0.21995 0.40799 0.48910
 C555 C -0.21140 0.42277 0.50632
 C556 C -0.19123 0.43481 0.50183
 C557 C -0.18917 0.41659 0.46179
 C558 C -0.29096 0.39587 0.50517
 C559 C -0.31069 0.40672 0.51109
 C560 C -0.28960 0.44228 0.51370
 C561 C -0.27003 0.43050 0.50821
 N562 N -0.27100 0.40758 0.50454
 H563 H -0.21611 0.39287 0.45371
 H564 H -0.21979 0.42450 0.52400
 H565 H -0.18425 0.44576 0.51619
 H566 H -0.18080 0.41358 0.44431
 H567 H -0.29175 0.37805 0.50039
 H568 H -0.32617 0.39665 0.51058
 H569 H -0.28810 0.46038 0.51716
 H570 H -0.25417 0.43976 0.50692
 C571 C -0.26917 0.34611 0.42867
 C572 C -0.23087 0.34413 0.56861
 C573 C -0.31044 0.43033 0.51574
 C574 C -0.17963 0.43145 0.47950
 C575 C 0.28196 -0.12646 0.03884
 H576 H 0.29568 -0.11757 0.02948
 C577 C 0.28594 -0.13795 0.06012
 H578 H 0.30280 -0.13739 0.06780
 C579 C 0.24309 -0.13718 0.03892
 H580 H 0.22656 -0.13729 0.03063
 C581 C 0.24658 -0.14987 0.06235
 H582 H 0.23223 -0.15929 0.06977
 N583 N 0.25962 -0.12594 0.02837
 C584 C 0.23833 -0.12127 -0.04923
 H585 H 0.23732 -0.10300 -0.05181
 C586 C 0.23170 -0.13588 -0.06844
 H587 H 0.22620 -0.12859 -0.08603
 C588 C 0.24738 -0.15274 -0.02327
 H589 H 0.25350 -0.15925 -0.00563
 C590 C 0.24073 -0.16797 -0.04189
 H591 H 0.24168 -0.18611 -0.03821
 Zn592 Zn 0.25349 -0.10920 -0.00145
 N593 N 0.24609 -0.12987 -0.02725
 C594 C 0.28993 -0.09432 -0.03194
 N595 N 0.27917 -0.09101 -0.01002
 C596 C 0.28731 -0.07576 0.00690
 C597 C 0.30725 -0.06342 0.00231
 C598 C 0.30997 -0.08239 -0.03726
 C599 C 0.20786 -0.10234 0.00357
 C600 C 0.18806 -0.09096 0.00782
 C601 C 0.20956 -0.05559 0.00977
 C602 C 0.22912 -0.06785 0.00584
 N603 N 0.22797 -0.09091 0.00334
 H604 H 0.28337 -0.10671 -0.04502
 H605 H 0.27873 -0.07380 0.02444
 H606 H 0.31390 -0.05205 0.01647
 H607 H 0.31852 -0.08554 -0.05459
 H608 H 0.20708 -0.12042 -0.00005
 H609 H 0.17248 -0.10084 0.00706
 H610 H 0.21125 -0.03739 0.01249
 H611 H 0.24514 -0.05885 0.00495
 C612 C 0.23283 -0.15962 -0.06493
 C613 C 0.26709 -0.15013 0.07335
 C614 C 0.18850 -0.06715 0.01135
 C615 C 0.31906 -0.06695 -0.01984
 C616 C 0.27486 1.12614 0.46467
 H617 H 0.28797 1.11704 0.47427
 C618 C 0.28024 1.13919 0.44346
 H619 H 0.29732 1.13942 0.43658
 C620 C 0.23676 1.13670 0.46166
 H621 H 0.21989 1.13595 0.46885
 C622 C 0.24143 1.15006 0.44059
 H623 H 0.22795 1.15940 0.43185
 N624 N 0.25329 1.12471 0.47305
 C625 C 0.23203 1.11386 0.55011
 H626 H 0.23218 1.09546 0.55165
 C627 C 0.22580 1.12680 0.57052
 H628 H 0.22184 1.11806 0.58787
 C629 C 0.23801 1.14734 0.52571
 H630 H 0.24284 1.15532 0.50825
 C631 C 0.23136 1.16090 0.54542
 H632 H 0.23086 1.17916 0.54255
 Zn633 Zn 0.24602 1.10581 0.50117
 N634 N 0.23826 1.12427 0.52837
 C635 C 0.28236 1.09042 0.53139
 N636 N 0.27133 1.08800 0.50922
 C637 C 0.27892 1.07381 0.49143
 C638 C 0.29826 1.06134 0.49556
 C639 C 0.30198 1.07845 0.53620
 C640 C 0.20039 1.09704 0.49252
 C641 C 0.18082 1.08454 0.48697
 C642 C 0.20276 1.05055 0.48499
 C643 C 0.22199 1.06376 0.49061
 N644 N 0.22058 1.08670 0.49374
 H645 H 0.27641 1.10215 0.54508
 H646 H 0.27027 1.07272 0.47364
 H647 H 0.30439 1.05068 0.48086
 H648 H 0.31087 1.08090 0.55370
 H649 H 0.19938 1.11500 0.49644
 H650 H 0.16493 1.09315 0.48652
 H651 H 0.20425 1.03240 0.48226
 H652 H 0.23790 1.05552 0.49256
 C653 C 0.22536 1.15073 0.56840
 C654 C 0.26330 1.15104 0.43087
 C655 C 0.18184 1.06099 0.48289
 C656 C 0.31020 1.06382 0.51805
 C657 C 0.18327 0.47211 0.25809
 H658 H 0.19227 0.48829 0.25778
 C659 C 0.19491 0.45226 0.26391
 H660 H 0.21268 0.45350 0.26836
 C661 C 0.14945 0.45060 0.25238
 H662 H 0.13188 0.44991 0.24714
 C663 C 0.16038 0.43045 0.25800
 H664 H 0.15096 0.41445 0.25704
 N665 N 0.16081 0.47099 0.25290
 C666 C 0.15928 0.53380 0.21512
 H667 H 0.14733 0.52725 0.20157
 C668 C 0.17117 0.55412 0.20998
 H669 H 0.16843 0.56286 0.19236
 C670 C 0.17661 0.53112 0.25494
 H671 H 0.17799 0.52254 0.27283
 C672 C 0.18893 0.55130 0.25051
 H673 H 0.19978 0.55806 0.26509
 Zn674 Zn 0.14337 0.49698 0.24543
 N675 N 0.16196 0.52287 0.23743
 C676 C 0.12589 0.52470 0.28386
 N677 N 0.12527 0.50360 0.27349
 C678 C 0.11194 0.48657 0.28313
 C679 C 0.09933 0.49009 0.30447
 C680 C 0.11368 0.52891 0.30546
 C681 C 0.13451 0.48172 0.19703
 C682 C 0.12154 0.47538 0.17633
 C683 C 0.08823 0.48418 0.19935
 C684 C 0.10194 0.49067 0.21941
 N685 N 0.12462 0.48940 0.21791
 H686 H 0.13609 0.53826 0.27568
 H687 H 0.11111 0.47013 0.27435
 H688 H 0.08892 0.47619 0.31178
 H689 H 0.11514 0.54552 0.31399
 H690 H 0.15265 0.48081 0.19636
 H691 H 0.13080 0.47076 0.16002
 H692 H 0.07036 0.48466 0.20248
 H693 H 0.09434 0.49657 0.23631
 C694 C 0.18595 0.56330 0.22797
 C695 C 0.18337 0.43109 0.26416
 C696 C 0.09769 0.47652 0.17677
 C697 C 0.10053 0.51130 0.31633
 C698 C -0.15452 1.04266 0.27444
 H699 H -0.14226 1.03596 0.28729
 C700 C -0.16724 1.06111 0.28163
 H701 H -0.16438 1.06846 0.29984
 C702 C -0.17362 1.04100 0.23562
 H703 H -0.17646 1.03279 0.21794
 C704 C -0.18666 1.05949 0.24200
 H705 H -0.19873 1.06587 0.22859
 N706 N -0.15721 1.03359 0.25132
 C707 C -0.15141 0.97377 0.20933
 H708 H -0.13794 0.97982 0.19736
 C709 C -0.16344 0.95382 0.20335
 H710 H -0.15927 0.94481 0.18656
 C711 C -0.17271 0.97774 0.24616
 H712 H -0.17586 0.98699 0.26307
 C713 C -0.18511 0.95785 0.24093
 H714 H -0.19762 0.95174 0.25414
 Zn715 Zn -0.13793 1.01028 0.24042
 N716 N -0.15595 0.98500 0.23068
 C717 C -0.12027 0.97990 0.27716
 N718 N -0.11865 1.00136 0.26724
 C719 C -0.10394 1.01713 0.27683
 C720 C -0.09097 1.01196 0.29783
 C721 C -0.10769 0.97405 0.29833
 C722 C -0.13104 1.02832 0.19163
 C723 C -0.11873 1.03555 0.17078
 C724 C -0.08461 1.02765 0.19348
 C725 C -0.09761 1.02043 0.21379
 N726 N -0.12043 1.02096 0.21267
 H727 H -0.13183 0.96747 0.26917
 H728 H -0.10277 1.03402 0.26853
 H729 H -0.07966 1.02495 0.30533
 H730 H -0.11004 0.95725 0.30663
 H731 H -0.14914 1.02818 0.19068
 H732 H -0.12800 1.04174 0.15476
 H733 H -0.06661 1.02586 0.19503
 H734 H -0.08932 1.01377 0.23018
 C735 C -0.18020 0.94534 0.21954
 C736 C -0.18307 1.07024 0.26500
 C737 C -0.09501 1.03522 0.17119
 C738 C -0.09320 0.99038 0.30931
 C739 C 0.32708 0.52610 -0.23661
 H740 H 0.32599 0.51144 -0.22421
 C741 C 0.31208 0.54394 -0.23388
 H742 H 0.29943 0.54287 -0.21948
 C743 C 0.34487 0.54553 -0.27035
 H744 H 0.35775 0.54641 -0.28440
 C745 C 0.33018 0.56350 -0.26844
 H746 H 0.33212 0.57801 -0.28098
 N747 N 0.34300 0.52710 -0.25480
 C748 C 0.36002 0.45853 -0.28158
 H749 H 0.37755 0.46173 -0.28597
 C750 C 0.35003 0.43878 -0.28805
 H751 H 0.35990 0.42683 -0.29820
 C752 C 0.32594 0.47325 -0.26629
 H753 H 0.31650 0.48657 -0.25794
 C754 C 0.31430 0.45149 -0.27238
 H755 H 0.29698 0.44977 -0.26668
 Zn756 Zn 0.36336 0.50290 -0.25993
 N757 N 0.34747 0.47592 -0.26979
 C758 C 0.39583 0.47990 -0.23123
 N759 N 0.38024 0.49650 -0.23054
 C760 C 0.37653 0.50814 -0.20924
 C761 C 0.38806 0.50264 -0.18733
 C762 C 0.40809 0.47413 -0.20979
 C763 C 0.37532 0.51049 -0.30963
 C764 C 0.38876 0.51775 -0.32951
 C765 C 0.41846 0.52734 -0.30019
 C766 C 0.40440 0.51987 -0.28079
 N767 N 0.38327 0.51169 -0.28586
 H768 H 0.39875 0.47108 -0.24844
 H769 H 0.36460 0.52168 -0.20910
 H770 H 0.38476 0.51194 -0.17047
 H771 H 0.42031 0.46078 -0.21051
 H772 H 0.35840 0.50403 -0.31310
 H773 H 0.38218 0.51626 -0.34832
 H774 H 0.43515 0.53402 -0.29586
 H775 H 0.41022 0.52093 -0.26168
 C776 C 0.32575 0.43413 -0.28226
 C777 C 0.31339 0.56279 -0.25020
 C778 C 0.41062 0.52645 -0.32495
 C779 C 0.40393 0.48533 -0.18742
 C780 C 0.66769 -0.02906 -0.22771
 H781 H 0.67253 -0.01373 -0.21779
 C782 C 0.67791 -0.04874 -0.22245
 H783 H 0.69074 -0.04884 -0.20805
 C784 C 0.64322 -0.04675 -0.25744
 H785 H 0.62942 -0.04636 -0.27056
 C786 C 0.65373 -0.06869 -0.25215
 H787 H 0.64798 -0.08305 -0.26314
 N788 N 0.64996 -0.02831 -0.24608
 C789 C 0.64025 0.04153 -0.27274
 H790 H 0.62227 0.03966 -0.27559
 C791 C 0.65100 0.06235 -0.27793
 H792 H 0.64093 0.07575 -0.28584
 C793 C 0.67456 0.02546 -0.25987
 H794 H 0.68360 0.01111 -0.25248
 C795 C 0.68612 0.04614 -0.26474
 H796 H 0.70386 0.04710 -0.26030
 Zn797 Zn 0.63354 -0.00144 -0.25304
 N798 N 0.65191 0.02383 -0.26315
 C799 C 0.62171 0.02774 -0.21402
 N800 N 0.61777 0.00676 -0.22398
 C801 C 0.60316 -0.00848 -0.21313
 C802 C 0.59135 -0.00256 -0.19181
 C803 C 0.61044 0.03425 -0.19263
 C804 C 0.62329 -0.00975 -0.30246
 C805 C 0.61043 -0.01566 -0.32331
 C806 C 0.57736 -0.01705 -0.29739
 C807 C 0.59087 -0.01077 -0.27701
 N808 N 0.61346 -0.00764 -0.27985
 H809 H 0.63374 0.03948 -0.22245
 H810 H 0.60072 -0.02524 -0.22103
 H811 H 0.57989 -0.01494 -0.18328
 H812 H 0.61374 0.05104 -0.18505
 H813 H 0.64127 -0.00704 -0.30419
 H814 H 0.61869 -0.01680 -0.34115
 H815 H 0.55953 -0.02008 -0.29461
 H816 H 0.58330 -0.00883 -0.25896
 C817 C 0.67423 0.06546 -0.27303
 C818 C 0.67051 -0.07023 -0.23516
 C819 C 0.58715 -0.01975 -0.32094
 C820 C 0.59498 0.01906 -0.18131
 C821 C 0.02574 0.26271 0.82598
 H822 H 0.01031 0.26911 0.81829
 C823 C 0.04460 0.26156 0.81064
 H824 H 0.04348 0.26717 0.79137
 C825 C 0.04600 0.24694 0.85997
 H826 H 0.04640 0.24102 0.87914
 C827 C 0.06509 0.24516 0.84521
 H828 H 0.08022 0.23818 0.85329
 N829 N 0.02675 0.25549 0.85021
 C830 C -0.03997 0.23718 0.85125
 H831 H -0.03638 0.22228 0.86243
 C832 C -0.05959 0.23742 0.83682
 H833 H -0.07097 0.22272 0.83727
 C834 C -0.03019 0.27474 0.83789
 H835 H -0.01875 0.28934 0.83863
 C836 C -0.04970 0.27576 0.82330
 H837 H -0.05302 0.29112 0.81265
 Zn838 Zn 0.00105 0.25500 0.87123
 N839 N -0.02564 0.25562 0.85146
 C840 C -0.01642 0.29292 0.89628
 N841 N 0.00219 0.28029 0.89302
 C842 C 0.02159 0.28506 0.90572
 C843 C 0.02299 0.30355 0.92189
 C844 C -0.01574 0.31160 0.91218
 C845 C 0.00438 0.20783 0.87864
 C846 C 0.00504 0.18735 0.89207
 C847 C -0.00026 0.20826 0.93004
 C848 C -0.00091 0.22839 0.91583
 N849 N 0.00139 0.22780 0.89061
 H850 H -0.03187 0.28854 0.88657
 H851 H 0.03604 0.27453 0.90326
 H852 H 0.03862 0.30706 0.93177
 H853 H -0.03055 0.32182 0.91384
 H854 H 0.00618 0.20786 0.85858
 H855 H 0.00700 0.17163 0.88204
 H856 H -0.00183 0.20910 0.95011
 H857 H -0.00325 0.24446 0.92499
 C858 C -0.06470 0.25692 0.82266
 C859 C 0.06448 0.25241 0.82017
 C860 C 0.00282 0.18737 0.91817
 C861 C 0.00422 0.31728 0.92510
 C862 C 0.47526 0.25612 0.16915
 H863 H 0.49142 0.25938 0.17785
 C864 C 0.45599 0.25469 0.18402
 H865 H 0.45750 0.25698 0.20398
 C866 C 0.45348 0.24838 0.13295
 H867 H 0.45253 0.24531 0.11318
 C868 C 0.43395 0.24640 0.14712
 H869 H 0.41808 0.24241 0.13794
 N870 N 0.47372 0.25297 0.14403
 C871 C 0.54074 0.23760 0.14368
 H872 H 0.53699 0.22275 0.13255
 C873 C 0.56048 0.23846 0.15794
 H874 H 0.57187 0.22437 0.15725
 C875 C 0.53075 0.27405 0.15782
 H876 H 0.51900 0.28783 0.15779
 C877 C 0.55043 0.27570 0.17221
 H878 H 0.55368 0.29080 0.18321
 Zn879 Zn 0.49986 0.25332 0.12338
 N880 N 0.52640 0.25533 0.14363
 C881 C 0.51468 0.29531 0.10051
 N882 N 0.49877 0.27823 0.10009
 C883 C 0.48178 0.27844 0.08294
 C884 C 0.47958 0.29682 0.06636
 C885 C 0.51311 0.31405 0.08429
 C886 C 0.48742 0.20758 0.11277
 C887 C 0.48806 0.18700 0.10006
 C888 C 0.51519 0.20412 0.07178
 C889 C 0.51388 0.22450 0.08494
 N890 N 0.50023 0.22581 0.10510
 H891 H 0.52854 0.29467 0.11354
 H892 H 0.46987 0.26430 0.08202
 H893 H 0.46580 0.29668 0.05306
 H894 H 0.52549 0.32782 0.08569
 H895 H 0.47696 0.20879 0.12906
 H896 H 0.47758 0.17280 0.10647
 H897 H 0.52664 0.20324 0.05624
 H898 H 0.52405 0.23921 0.07936
 C899 C 0.56565 0.25777 0.17229
 C900 C 0.43508 0.24943 0.17300
 C901 C 0.50232 0.18492 0.07946
 C902 C 0.49516 0.31518 0.06718
 C903 C -0.03336 0.76571 0.66498
 H904 H -0.02107 0.77963 0.66504
 C905 C -0.05132 0.76636 0.67990
 H906 H -0.05263 0.78069 0.69223
 C907 C -0.04487 0.72991 0.64818
 H908 H -0.04286 0.71608 0.63538
 C909 C -0.06492 0.72987 0.66415
 H910 H -0.07695 0.71597 0.66163
 N911 N -0.02997 0.74647 0.64921
 C912 C 0.04245 0.74382 0.63710
 H913 H 0.04221 0.74022 0.61736
 C914 C 0.06286 0.74462 0.65009
 H915 H 0.07812 0.74120 0.64008
 C916 C 0.02256 0.75154 0.67399
 H917 H 0.00683 0.75387 0.68340
 C918 C 0.04268 0.75297 0.68765
 H919 H 0.04205 0.75705 0.70726
 Zn920 Zn -0.00370 0.74598 0.62905
 N921 N 0.02283 0.74751 0.64905
 C922 C 0.01212 0.78744 0.60630
 N923 N -0.00465 0.77125 0.60680
 C924 C -0.02301 0.77284 0.59166
 C925 C -0.02507 0.79131 0.57519
 C926 C 0.01076 0.80618 0.59006
 C927 C -0.00414 0.69837 0.62290
 C928 C -0.00296 0.67788 0.61009
 C929 C 0.00325 0.69932 0.57197
 C930 C 0.00109 0.71943 0.58541
 N931 N -0.00260 0.71862 0.61043
 H932 H 0.02643 0.78601 0.61870
 H933 H -0.03611 0.75974 0.59250
 H934 H -0.03980 0.79223 0.56327
 H935 H 0.02402 0.81916 0.59035
 H936 H -0.00655 0.69814 0.64288
 H937 H -0.00533 0.66217 0.62057
 H938 H 0.00707 0.70061 0.55232
 H939 H 0.00305 0.73570 0.57592
 C940 C 0.06330 0.74969 0.67570
 C941 C -0.06840 0.74723 0.67997
 C942 C 0.00117 0.67801 0.58423
 C943 C -0.00810 0.80838 0.57432
 C944 C 0.52713 0.75818 0.32654
 H945 H 0.51093 0.76022 0.31776
 C946 C 0.54633 0.75819 0.31164
 H947 H 0.54475 0.76048 0.29164
 C948 C 0.54909 0.75146 0.36280
 H949 H 0.55012 0.74795 0.38255
 C950 C 0.56858 0.75093 0.34859
 H951 H 0.58453 0.74769 0.35770
 N952 N 0.52878 0.75479 0.35169
 C953 C 0.46213 0.73478 0.35017
 H954 H 0.46557 0.71955 0.36091
 C955 C 0.44267 0.73563 0.33547
 H956 H 0.43108 0.72111 0.33543
 C957 C 0.47263 0.77244 0.33777
 H958 H 0.48441 0.78676 0.33885
 C959 C 0.45339 0.77403 0.32287
 H960 H 0.45054 0.78960 0.31241
 Zn961 Zn 0.50254 0.75208 0.37196
 N962 N 0.47652 0.75313 0.35127
 C963 C 0.48408 0.78990 0.39647
 N964 N 0.50203 0.77596 0.39578
 C965 C 0.51946 0.77864 0.41216
 C966 C 0.51998 0.79672 0.42889
 C967 C 0.48389 0.80815 0.41292
 C968 C 0.51692 0.70740 0.38183
 C969 C 0.51784 0.68669 0.39474
 C970 C 0.48956 0.69991 0.42287
 C971 C 0.48937 0.72055 0.40954
 N972 N 0.50295 0.72388 0.38945
 H973 H 0.46989 0.78708 0.38417
 H974 H 0.53307 0.76686 0.41228
 H975 H 0.53422 0.79881 0.44144
 H976 H 0.46985 0.81955 0.41236
 H977 H 0.52730 0.71018 0.36558
 H978 H 0.52941 0.67402 0.38851
 H979 H 0.47827 0.69738 0.43846
 H980 H 0.47832 0.73391 0.41512
 C981 C 0.43798 0.75555 0.32179
 C982 C 0.56727 0.75409 0.32268
 C983 C 0.50391 0.68258 0.41545
 C984 C 0.50222 0.81203 0.42907
 B985 B -0.00413 0.01574 1.02052
 B986 B -0.01900 0.00777 0.99506
 B987 B 0.00221 0.02722 0.99253
 B988 B 0.02306 0.01991 1.01249
 B989 B 0.01450 -0.00469 1.02721
 B990 B -0.01178 -0.01195 1.01663
 B991 B 0.01721 -0.01330 0.97738
 B992 B 0.03201 -0.00562 1.00284
 B993 B 0.01071 -0.02491 1.00540
 B994 B -0.01008 -0.01755 0.98548
 B995 B -0.00132 0.00683 0.97062
 B996 B 0.02488 0.01436 0.98150
 B997 B 0.49533 0.51075 0.51914
 B998 B 0.48302 0.50370 0.49193
 B999 B 0.50471 0.52263 0.49226
 B1000 B 0.52330 0.51462 0.51448
 B1001 B 0.51282 0.49012 0.52777
 B1002 B 0.48770 0.48332 0.51375
 B1003 B 0.52044 0.48209 0.47833
 B1004 B 0.53275 0.48912 0.50560
 B1005 B 0.51106 0.47020 0.50523
 B1006 B 0.49248 0.47823 0.48303
 B1007 B 0.50294 0.50275 0.46974
 B1008 B 0.52810 0.50951 0.48376
 B1009 B 0.50629 0.98800 0.51617
 B1010 B 0.51849 0.99307 0.48843
 B1011 B 0.49752 0.97344 0.49086
 B1012 B 0.47854 0.98263 0.51148
 B1013 B 0.48800 1.00856 0.52168
 B1014 B 0.51296 1.01503 0.50734
 B1015 B 0.48029 1.01178 0.47135
 B1016 B 0.46815 1.00669 0.49907
 B1017 B 0.48908 1.02634 0.49671
 B1018 B 0.50806 1.01719 0.47600
 B1019 B 0.49863 0.99123 0.46581
 B1020 B 0.47370 0.98469 0.48022
 B1021 B 0.01143 0.49027 1.01962
 B1022 B 0.02238 0.49622 0.99142
 B1023 B 0.00093 0.47719 0.99408
 B1024 B -0.01669 0.48602 1.01641
 B1025 B -0.00585 0.51117 1.02742
 B1026 B 0.01858 0.51745 1.01187
 B1027 B -0.01583 0.51695 0.97784
 B1028 B -0.02681 0.51102 1.00598
 B1029 B -0.00530 0.53004 1.00337
 B1030 B 0.01226 0.52120 0.98102
 B1031 B 0.00142 0.49611 0.97003
 B1032 B -0.02294 0.48971 0.98560
 B1033 B 0.02203 0.50629 0.48193
 B1034 B 0.03244 0.50156 0.51069
 B1035 B 0.01203 0.52067 0.50644
 B1036 B -0.00585 0.51083 0.48408
 B1037 B 0.00371 0.48513 0.47485
 B1038 B 0.02755 0.47941 0.49146
 B1039 B -0.00714 0.48176 0.52439
 B1040 B -0.01744 0.48638 0.49550
 B1041 B 0.00294 0.46736 0.49992
 B1042 B 0.02077 0.47718 0.52226
 B1043 B 0.01127 0.50290 0.53143
 B1044 B -0.01263 0.50856 0.51483
 B1045 B 0.51896 0.01202 -0.01726
 B1046 B 0.53042 0.00630 0.01079
 B1047 B 0.50959 0.02508 0.00837
 B1048 B 0.49111 0.01593 -0.01366
 B1049 B 0.50076 -0.00910 -0.02471
 B1050 B 0.52529 -0.01507 -0.00947
 B1051 B 0.49171 -0.01486 0.02500
 B1052 B 0.48032 -0.00913 -0.00305
 B1053 B 0.50114 -0.02791 -0.00064
 B1054 B 0.51959 -0.01880 0.02147
 B1055 B 0.50996 0.00625 0.03251
 B1056 B 0.48545 0.01225 0.01722
 B1057 B 0.48271 0.49364 -0.02103
 B1058 B 0.46839 0.49545 0.00570
 B1059 B 0.48867 0.47624 0.00327
 B1060 B 0.50973 0.48772 -0.01411
 B1061 B 0.50225 0.51478 -0.02220
 B1062 B 0.47643 0.51941 -0.00981
 B1063 B 0.50558 0.51234 0.02877
 B1064 B 0.52009 0.50999 0.00198
 B1065 B 0.49977 0.52964 0.00448
 B1066 B 0.47863 0.51804 0.02185
 B1067 B 0.48600 0.49108 0.02976
 B1068 B 0.51186 0.48629 0.01772
 B1069 B -0.01692 0.98318 0.47729
 B1070 B -0.02772 0.98778 0.50565
 B1071 B -0.00850 0.96756 0.50211
 B1072 B 0.01054 0.97681 0.48076
 B1073 B 0.00288 1.00332 0.47127
 B1074 B -0.02104 1.01009 0.48673
 B1075 B 0.01240 1.00475 0.52129
 B1076 B 0.02326 1.00014 0.49307
 B1077 B 0.00400 1.02038 0.49639
 B1078 B -0.01497 1.01117 0.51783
 B1079 B -0.00732 0.98461 0.52736
 B1080 B 0.01650 0.97777 0.51184
 B1081 B 0.76564 0.24255 0.22595
 B1082 B 0.75923 0.23014 0.25348
 B1083 B 0.77770 0.25227 0.25251
 B1084 B 0.76933 0.27091 0.23034
 B1085 B 0.74497 0.26011 0.21765
 B1086 B 0.73874 0.23457 0.23203
 B1087 B 0.73774 0.26790 0.26716
 B1088 B 0.74424 0.28036 0.23969
 B1089 B 0.72571 0.25820 0.24066
 B1090 B 0.73414 0.23951 0.26279
 B1091 B 0.75837 0.25038 0.27547
 B1092 B 0.76467 0.27587 0.26114
 B1093 B 0.73416 0.76404 0.73136
 B1094 B 0.73886 0.77545 0.75986
 B1095 B 0.72170 0.75227 0.75665
 B1096 B 0.73226 0.73533 0.73463
 B1097 B 0.75637 0.74833 0.72406
 B1098 B 0.76034 0.77335 0.73951
 B1099 B 0.76199 0.73839 0.77369
 B1100 B 0.75759 0.72711 0.74534
 B1101 B 0.77454 0.75025 0.74835
 B1102 B 0.76403 0.76710 0.77053
 B1103 B 0.73984 0.75410 0.78104
 B1104 B 0.73603 0.72910 0.76531
 B1105 B 0.26151 0.26503 0.76848
 B1106 B 0.25796 0.27555 0.73946
 B1107 B 0.27474 0.25327 0.74423
 B1108 B 0.26353 0.23633 0.76682
 B1109 B 0.23919 0.24842 0.77582
 B1110 B 0.23570 0.27294 0.75885
 B1111 B 0.23495 0.23729 0.72655
 B1112 B 0.23856 0.22667 0.75550
 B1113 B 0.22174 0.24894 0.75086
 B1114 B 0.23295 0.26594 0.72825
 B1115 B 0.25728 0.25382 0.71919
 B1116 B 0.26077 0.22930 0.73614
 B1117 B 0.23823 0.73558 0.27761
 B1118 B 0.24254 0.72590 0.24873
 B1119 B 0.22408 0.74667 0.25315
 B1120 B 0.23406 0.76398 0.27586
 B1121 B 0.25932 0.75370 0.28532
 B1122 B 0.26457 0.72988 0.26843
 B1123 B 0.26255 0.76610 0.23605
 B1124 B 0.25821 0.77578 0.26491
 B1125 B 0.27668 0.75497 0.26048
 B1126 B 0.26669 0.73769 0.23778
 B1127 B 0.24145 0.74799 0.22834
 B1128 B 0.23617 0.77175 0.24522
 B1129 B 0.25667 0.73651 0.72419
 B1130 B 0.25306 0.72142 0.75076
 B1131 B 0.27331 0.74191 0.74920
 B1132 B 0.26370 0.76371 0.73134
 B1133 B 0.23697 0.75640 0.72226
 B1134 B 0.23042 0.73006 0.73446
 B1135 B 0.23789 0.75885 0.77326
 B1136 B 0.24146 0.77391 0.74664
 B1137 B 0.22126 0.75340 0.74829
 B1138 B 0.23087 0.73163 0.76612
 B1139 B 0.25760 0.73891 0.77520
 B1140 B 0.26411 0.76531 0.76306
 B1141 B 0.23682 0.26164 0.22631
 B1142 B 0.24252 0.27223 0.25465
 B1143 B 0.22437 0.24993 0.25170
 B1144 B 0.23356 0.23297 0.22881
 B1145 B 0.25793 0.24511 0.21785
 B1146 B 0.26351 0.26957 0.23392
 B1147 B 0.26418 0.23382 0.26714
 B1148 B 0.25865 0.22334 0.23861
 B1149 B 0.27671 0.24560 0.24175
 B1150 B 0.26753 0.26251 0.26459
 B1151 B 0.24310 0.25047 0.27549
 B1152 B 0.23756 0.22593 0.25937
 B1153 B 0.76505 0.77404 0.27179
 B1154 B 0.76015 0.78406 0.24280
 B1155 B 0.77804 0.76262 0.24719
 B1156 B 0.76819 0.74547 0.27038
 B1157 B 0.74364 0.75655 0.28016
 B1158 B 0.73863 0.78069 0.26304
 B1159 B 0.73844 0.74469 0.23121
 B1160 B 0.74333 0.73460 0.26011
 B1161 B 0.72547 0.75608 0.25578
 B1162 B 0.73529 0.77322 0.23262
 B1163 B 0.75985 0.76210 0.22279
 B1164 B 0.76484 0.73800 0.23991
 B1165 B 0.73447 0.23532 0.77311
 B1166 B 0.73993 0.22453 0.74469
 B1167 B 0.72219 0.24636 0.74743
 B1168 B 0.73191 0.26386 0.76999
 B1169 B 0.75613 0.25264 0.78139
 B1170 B 0.76097 0.22805 0.76586
 B1171 B 0.76242 0.26339 0.73211
 B1172 B 0.75717 0.27410 0.76032
 B1173 B 0.77472 0.25227 0.75774
 B1174 B 0.76503 0.23482 0.73506
 B1175 B 0.74081 0.24612 0.72371
 B1176 B 0.73609 0.27066 0.73950
 C1177 C 0.43312 1.03636 0.37806
 C1178 C 0.40954 1.03595 0.37632
 C1179 C 0.39874 1.03374 0.35329
 C1180 C 0.41116 1.03263 0.33111
 C1181 C 0.43477 1.03522 0.33270
 C1182 C 0.44563 1.03686 0.35592
 C1183 C 0.44426 1.03300 0.40275
 C1184 C 0.46530 1.04318 0.40866
 C1185 C 0.47641 1.03757 0.43105
 C1186 C 0.46670 1.02165 0.44787
 C1187 C 0.44536 1.01214 0.44208
 C1188 C 0.43438 1.01771 0.42000
 H1189 H 0.38063 1.03162 0.35328
 H1190 H 0.44500 1.03520 0.31610
 H1191 H 0.49289 1.04508 0.43470
 H1192 H 0.43724 0.99963 0.45421
 H1193 H 0.46383 1.03720 0.35655
 H1194 H 0.47334 1.05511 0.39579
 H1195 H 0.39934 1.03615 0.39296
 H1196 H 0.41852 1.00902 0.41595
 C1197 C -0.06533 0.54347 0.88733
 C1198 C -0.08890 0.54420 0.88632
 C1199 C -0.10044 0.54011 0.86407
 C1200 C -0.08875 0.53581 0.84190
 C1201 C -0.06505 0.53802 0.84238
 C1202 C -0.05348 0.54148 0.86493
 C1203 C -0.05376 0.54062 0.91179
 C1204 C -0.03199 0.54962 0.91645
 C1205 C -0.02028 0.54354 0.93830
 C1206 C -0.03009 0.52822 0.95570
 C1207 C -0.05220 0.52008 0.95123
 C1208 C -0.06383 0.52627 0.92981
 H1209 H -0.11864 0.54013 0.86441
 H1210 H -0.05520 0.53487 0.82595
 H1211 H -0.00322 0.54998 0.94092
 H1212 H -0.06040 0.50792 0.96369
 H1213 H -0.03530 0.54078 0.86506
 H1214 H -0.02379 0.56077 0.90289
 H1215 H -0.09852 0.54665 0.90311
 H1216 H -0.08030 0.51850 0.92668
 C1217 C 0.05827 -0.04903 0.88672
 C1218 C 0.04698 -0.04409 0.86427
 C1219 C 0.05903 -0.04189 0.84196
 C1220 C 0.08244 -0.04451 0.84200
 C1221 C 0.09318 -0.05195 0.86390
 C1222 C 0.08116 -0.05434 0.88604
 C1223 C 0.04821 -0.04291 0.91080
 C1224 C 0.02667 -0.05063 0.91820
 C1225 C 0.01702 -0.04229 0.94007
 C1226 C 0.02860 -0.02575 0.95443
 C1227 C 0.05009 -0.01817 0.94656
 C1228 C 0.05983 -0.02688 0.92543
 H1229 H 0.05045 -0.03609 0.82525
 H1230 H 0.11119 -0.05429 0.86425
 H1231 H 0.00029 -0.04819 0.94520
 H1232 H 0.05946 -0.00499 0.95637
 H1233 H 0.09018 -0.05828 0.90312
 H1234 H 0.01726 -0.06276 0.90690
 H1235 H 0.02939 -0.03971 0.86438
 H1236 H 0.07617 -0.02013 0.91981
 C1237 C 0.56300 0.45929 0.38467
 C1238 C 0.58404 0.44971 0.38085
 C1239 C 0.59579 0.45416 0.35877
 C1240 C 0.58698 0.46879 0.34031
 C1241 C 0.56523 0.47717 0.34361
 C1242 C 0.55331 0.47233 0.36551
 C1243 C 0.55334 0.45970 0.40995
 C1244 C 0.53085 0.45321 0.41448
 C1245 C 0.52092 0.45802 0.43742
 C1246 C 0.53313 0.47008 0.45589
 C1247 C 0.55593 0.47569 0.45130
 C1248 C 0.56598 0.47012 0.42893
 H1249 H 0.61215 0.44679 0.35661
 H1250 H 0.55792 0.48866 0.33004
 H1251 H 0.50326 0.45378 0.43990
 H1252 H 0.56580 0.48597 0.46411
 H1253 H 0.53726 0.48023 0.36829
 H1254 H 0.52075 0.44535 0.39990
 H1255 H 0.59182 0.43965 0.39546
 H1256 H 0.58321 0.47575 0.42564
 C1257 C 0.55808 0.52571 0.12031
 C1258 C 0.56606 0.54560 0.13214
 C1259 C 0.58090 0.54411 0.15255
 C1260 C 0.58825 0.52275 0.16105
 C1261 C 0.58042 0.50300 0.14892
 C1262 C 0.56557 0.50447 0.12884
 C1263 C 0.54198 0.52644 0.09911
 C1264 C 0.52396 0.51064 0.09846
 C1265 C 0.51142 0.50752 0.07674
 C1266 C 0.51650 0.52018 0.05490
 C1267 C 0.53290 0.53785 0.05648
 C1268 C 0.54572 0.54081 0.07834
 H1269 H 0.58679 0.55961 0.16152
 H1270 H 0.58554 0.48629 0.15521
 H1271 H 0.49854 0.49419 0.07698
 H1272 H 0.53711 0.54822 0.04037
 H1273 H 0.55998 0.48887 0.11983
 H1274 H 0.52027 0.49980 0.11449
 H1275 H 0.56053 0.56217 0.12587
 H1276 H 0.55946 0.55327 0.07842
 C1277 C 0.06466 1.02634 0.61241
 C1278 C 0.05294 1.02883 0.63484
 C1279 C 0.06417 1.02714 0.65784
 C1280 C 0.08732 1.02251 0.65896
 C1281 C 0.09916 1.02145 0.63639
 C1282 C 0.08807 1.02371 0.61353
 C1283 C 0.05243 1.02344 0.58827
 C1284 C 0.05974 1.00703 0.57154
 C1285 C 0.04760 1.00216 0.54999
 C1286 C 0.02753 1.01343 0.54428
 C1287 C 0.02045 1.03043 0.56054
 C1288 C 0.03277 1.03537 0.58237
 H1289 H 0.05450 1.02884 0.67469
 H1290 H 0.11687 1.01774 0.63612
 H1291 H 0.05383 0.98894 0.53816
 H1292 H 0.00508 1.03942 0.55681
 H1293 H 0.09778 1.02235 0.59663
 H1294 H 0.07442 0.99705 0.57558
 H1295 H 0.03490 1.03089 0.63472
 H1296 H 0.02675 1.04824 0.59480
 C1297 C -0.05822 0.47197 0.61655
 C1298 C -0.07124 0.49143 0.61973
 C1299 C -0.08355 0.49432 0.64134
 C1300 C -0.08279 0.47814 0.66068
 C1301 C -0.06900 0.45918 0.65831
 C1302 C -0.05686 0.45603 0.63629
 C1303 C -0.04652 0.46886 0.59243
 C1304 C -0.02437 0.46105 0.59118
 C1305 C -0.01238 0.46265 0.56868
 C1306 C -0.02223 0.47245 0.54722
 C1307 C -0.04488 0.47878 0.54853
 C1308 C -0.05697 0.47627 0.57041
 H1309 H -0.09366 0.50933 0.64303
 H1310 H -0.06813 0.44656 0.67317
 H1311 H 0.00509 0.45788 0.56866
 H1312 H -0.05311 0.48749 0.53332
 H1313 H -0.04689 0.44095 0.63447
 H1314 H -0.01583 0.45515 0.60786
 H1315 H -0.07198 0.50458 0.60542
 H1316 H -0.07423 0.48176 0.57045
 C1317 C 0.43997 -0.04623 0.11273
 C1318 C 0.44999 -0.04171 0.13603
 C1319 C 0.43661 -0.03949 0.15722
 C1320 C 0.41307 -0.04166 0.15531
 C1321 C 0.40335 -0.04845 0.13257
 C1322 C 0.41669 -0.05083 0.11152
 C1323 C 0.45256 -0.04137 0.08943
 C1324 C 0.47446 -0.04907 0.08556
 C1325 C 0.48667 -0.04180 0.06443
 C1326 C 0.47731 -0.02638 0.04716
 C1327 C 0.45533 -0.01893 0.05133
 C1328 C 0.44310 -0.02655 0.07184
 H1329 H 0.44447 -0.03421 0.17457
 H1330 H 0.38527 -0.05057 0.13075
 H1331 H 0.50366 -0.04759 0.06215
 H1332 H 0.44754 -0.00659 0.03911
 H1333 H 0.40860 -0.05462 0.09383
 H1334 H 0.48221 -0.06033 0.09907
 H1335 H 0.46787 -0.03793 0.13744
 H1336 H 0.42652 -0.01979 0.07462
 C1337 C 0.37435 0.46206 0.01668
 C1338 C 0.35571 0.47631 0.01620
 C1339 C 0.33384 0.46691 0.01670
 C1340 C 0.33025 0.44312 0.01782
 C1341 C 0.34897 0.42902 0.01933
 C1342 C 0.37072 0.43837 0.01883
 C1343 C 0.39750 0.47146 0.01336
 C1344 C 0.41218 0.46055 -0.00269
 C1345 C 0.43426 0.46844 -0.00541
 C1346 C 0.44246 0.48755 0.00778
 C1347 C 0.42753 0.49888 0.02340
 C1348 C 0.40524 0.49094 0.02610
 H1349 H 0.31974 0.47823 0.01580
 H1350 H 0.34687 0.41063 0.01989
 H1351 H 0.44494 0.45912 -0.01768
 H1352 H 0.43308 0.51367 0.03386
 H1353 H 0.38479 0.42700 0.01960
 H1354 H 0.40657 0.44579 -0.01319
 H1355 H 0.35804 0.49462 0.01449
 H1356 H 0.39423 0.49968 0.03861
 C1357 C -0.12304 0.96458 0.52600
 C1358 C -0.13992 0.97961 0.51865
 C1359 C -0.16250 0.97228 0.51859
 C1360 C -0.16850 0.94995 0.52620
 C1361 C -0.15164 0.93546 0.53497
 C1362 C -0.12914 0.94268 0.53476
 C1363 C -0.09909 0.97056 0.52181
 C1364 C -0.08599 0.95576 0.50810
 C1365 C -0.06361 0.96126 0.50303
 C1366 C -0.05346 0.98153 0.51197
 C1367 C -0.06670 0.99640 0.52577
 C1368 C -0.08938 0.99104 0.53046
 H1369 H -0.17520 0.98381 0.51188
 H1370 H -0.15569 0.91808 0.54067
 H1371 H -0.05449 0.94969 0.49155
 H1372 H -0.05968 1.01230 0.53275
 H1373 H -0.11635 0.93085 0.54056
 H1374 H -0.09327 0.94011 0.50072
 H1375 H -0.13554 0.99653 0.51168
 H1376 H -0.09929 1.00278 0.54096
 C1377 C -0.11265 0.03811 0.98617
 C1378 C -0.13148 0.02570 0.99502
 C1379 C -0.15257 0.03570 0.99603
 C1380 C -0.15548 0.05860 0.98834
 C1381 C -0.13652 0.07057 0.97856
 C1382 C -0.11552 0.06053 0.97761
 C1383 C -0.08983 0.02830 0.98699
 C1384 C -0.07430 0.03307 0.96790
 C1385 C -0.05214 0.02586 0.96997
 C1386 C -0.04489 0.01386 0.99127
 C1387 C -0.06087 0.00783 1.00961
 C1388 C -0.08298 0.01515 1.00762
 H1389 H -0.16613 0.02561 1.00419
 H1390 H -0.13768 0.08770 0.97111
 H1391 H -0.04070 0.03001 0.95495
 H1392 H -0.05610 -0.00166 1.02618
 H1393 H -0.10136 0.07064 0.97071
 H1394 H -0.07921 0.04262 0.95142
 H1395 H -0.12987 0.00826 1.00152
 H1396 H -0.09444 0.01130 1.02277
 C1397 C 0.38898 0.53071 0.47542
 C1398 C 0.38387 0.55114 0.46302
 C1399 C 0.36247 0.56016 0.46475
 C1400 C 0.34578 0.54912 0.47927
 C1401 C 0.35055 0.52794 0.49048
 C1402 C 0.37197 0.51877 0.48848
 C1403 C 0.41264 0.52382 0.47769
 C1404 C 0.41930 0.50167 0.47214
 C1405 C 0.44174 0.49545 0.47576
 C1406 C 0.45777 0.51113 0.48549
 C1407 C 0.45064 0.53318 0.49121
 C1408 C 0.42856 0.53950 0.48704
 H1409 H 0.35920 0.57617 0.45532
 H1410 H 0.33816 0.51906 0.50194
 H1411 H 0.44633 0.47820 0.47147
 H1412 H 0.46179 0.54553 0.49998
 H1413 H 0.37565 0.50311 0.49842
 H1414 H 0.40716 0.48924 0.46511
 H1415 H 0.39675 0.56054 0.45272
 H1416 H 0.42366 0.55649 0.49211
 C1417 C 0.12722 0.52857 0.53111
 C1418 C 0.13279 0.55080 0.53882
 C1419 C 0.15504 0.55888 0.53822
 C1420 C 0.17220 0.54495 0.52973
 C1421 C 0.16680 0.52226 0.52333
 C1422 C 0.14448 0.51410 0.52416
 C1423 C 0.10334 0.52173 0.52731
 C1424 C 0.09446 0.50087 0.53640
 C1425 C 0.07189 0.49464 0.53176
 C1426 C 0.05792 0.50899 0.51759
 C1427 C 0.06724 0.52968 0.50831
 C1428 C 0.08946 0.53605 0.51332
 H1429 H 0.15859 0.57649 0.54301
 H1430 H 0.17972 0.51110 0.51690
 H1431 H 0.06555 0.47844 0.53899
 H1432 H 0.05749 0.54101 0.49671
 H1433 H 0.14054 0.49693 0.51800
 H1434 H 0.10495 0.48948 0.54711
 H1435 H 0.11974 0.56224 0.54432
 H1436 H 0.09604 0.55199 0.50560
 C1437 C 0.62497 0.03557 0.02936
 C1438 C 0.63009 0.05772 0.03768
 C1439 C 0.65215 0.06635 0.03716
 C1440 C 0.66963 0.05307 0.02820
 C1441 C 0.66469 0.03049 0.02103
 C1442 C 0.64255 0.02177 0.02173
 C1443 C 0.60117 0.02809 0.02600
 C1444 C 0.59326 0.00644 0.03390
 C1445 C 0.57076 -0.00034 0.02971
 C1446 C 0.55585 0.01427 0.01720
 C1447 C 0.56415 0.03580 0.00916
 C1448 C 0.58634 0.04265 0.01368
 H1449 H 0.65530 0.08388 0.04255
 H1450 H 0.67785 0.01979 0.01426
 H1451 H 0.56521 -0.01715 0.03596
 H1452 H 0.55376 0.04735 -0.00136
 H1453 H 0.63900 0.00469 0.01509
 H1454 H 0.60446 -0.00515 0.04336
 H1455 H 0.61683 0.06865 0.04378
 H1456 H 0.59211 0.05920 0.00680
 C1457 C 0.61286 0.96750 0.47391
 C1458 C 0.61764 0.94670 0.46277
 C1459 C 0.63911 0.93780 0.46470
 C1460 C 0.65616 0.94935 0.47821
 C1461 C 0.65172 0.97093 0.48797
 C1462 C 0.63021 0.97998 0.48576
 C1463 C 0.58925 0.97419 0.47642
 C1464 C 0.58178 0.99545 0.46805
 C1465 C 0.55926 1.00131 0.47126
 C1466 C 0.54400 0.98617 0.48337
 C1467 C 0.55201 0.96512 0.49212
 C1468 C 0.57416 0.95911 0.48838
 H1469 H 0.64214 0.92144 0.45640
 H1470 H 0.66445 0.98020 0.49857
 H1471 H 0.55397 1.01782 0.46458
 H1472 H 0.54145 0.95334 0.50263
 H1473 H 0.62675 0.99597 0.49469
 H1474 H 0.59331 1.00741 0.45896
 H1475 H 0.60446 0.93689 0.45345
 H1476 H 0.57975 0.94284 0.49554
 C1477 C 0.11523 0.46890 0.97044
 C1478 C 0.11954 0.44770 0.95987
 C1479 C 0.14113 0.43896 0.96073
 C1480 C 0.15881 0.45114 0.97245
 C1481 C 0.15476 0.47296 0.98177
 C1482 C 0.13314 0.48184 0.98063
 C1483 C 0.09177 0.47580 0.97404
 C1484 C 0.08450 0.49756 0.96711
 C1485 C 0.06237 0.50389 0.97193
 C1486 C 0.04729 0.48871 0.98424
 C1487 C 0.05501 0.46706 0.99133
 C1488 C 0.07678 0.46062 0.98603
 H1489 H 0.14368 0.42203 0.95360
 H1490 H 0.16813 0.48277 0.99072
 H1491 H 0.05730 0.52082 0.96642
 H1492 H 0.04463 0.45514 1.00188
 H1493 H 0.13013 0.49816 0.98907
 H1494 H 0.09593 0.50961 0.95801
 H1495 H 0.10593 0.43745 0.95194
 H1496 H 0.08220 0.44396 0.99217
 C1497 C 0.00093 0.37117 0.46976
 C1498 C -0.01891 0.35866 0.46460
 C1499 C -0.01823 0.33841 0.45122
 C1500 C 0.00229 0.33049 0.44211
 C1501 C 0.02227 0.34261 0.44832
 C1502 C 0.02159 0.36269 0.46214
 C1503 C -0.00030 0.39456 0.47943
 C1504 C 0.01079 0.40121 0.50148
 C1505 C 0.01068 0.42405 0.50904
 C1506 C -0.00002 0.44066 0.49429
 C1507 C -0.01107 0.43363 0.47223
 C1508 C -0.01156 0.41088 0.46519
 H1509 H -0.03389 0.32925 0.44751
 H1510 H 0.03836 0.33727 0.44148
 H1511 H 0.01966 0.42878 0.52591
 H1512 H -0.01909 0.44578 0.45993
 H1513 H 0.03705 0.37232 0.46560
 H1514 H 0.01972 0.38880 0.51262
 H1515 H -0.03503 0.36498 0.47030
 H1516 H -0.01995 0.40615 0.44793
 C1517 C 0.49641 -0.12331 -0.03385
 C1518 C 0.47620 -0.13434 -0.04092
 C1519 C 0.47643 -0.15467 -0.05419
 C1520 C 0.49691 -0.16424 -0.06112
 C1521 C 0.51714 -0.15356 -0.05313
 C1522 C 0.51688 -0.13337 -0.03949
 C1523 C 0.49614 -0.10004 -0.02361
 C1524 C 0.50815 -0.09414 -0.00186
 C1525 C 0.50887 -0.07150 0.00634
 C1526 C 0.49799 -0.05433 -0.00739
 C1527 C 0.48607 -0.06055 -0.02919
 C1528 C 0.48485 -0.08310 -0.03691
 H1529 H 0.46051 -0.16270 -0.05936
 H1530 H 0.53324 -0.16020 -0.05832
 H1531 H 0.51852 -0.06738 0.02295
 H1532 H 0.47783 -0.04794 -0.04070
 H1533 H 0.53267 -0.12496 -0.03453
 H1534 H 0.51712 -0.10700 0.00858
 H1535 H 0.46021 -0.12688 -0.03666
 H1536 H 0.47579 -0.08717 -0.05395
 C1537 C 0.01215 -0.11791 1.04848
 C1538 C 0.00675 -0.13810 1.03560
 C1539 C 0.00470 -0.15899 1.04840
 C1540 C 0.00838 -0.16033 1.07435
 C1541 C 0.01404 -0.14016 1.08710
 C1542 C 0.01557 -0.11929 1.07445
 C1543 C 0.01376 -0.09539 1.03527
 C1544 C 0.02836 -0.07812 1.04424
 C1545 C 0.02792 -0.05615 1.03417
 C1546 C 0.01366 -0.05090 1.01395
 C1547 C 0.00002 -0.06850 1.00392
 C1548 C -0.00008 -0.09042 1.01458
 H1549 H -0.00003 -0.17402 1.03790
 H1550 H 0.01747 -0.14040 1.10694
 H1551 H 0.03852 -0.04314 1.04274
 H1552 H -0.01140 -0.06517 0.98857
 H1553 H 0.01918 -0.10417 1.08527
 H1554 H 0.03985 -0.08134 1.05955
 H1555 H 0.00420 -0.13785 1.01560
 H1556 H -0.01175 -0.10313 1.00723
 C1557 C 0.50827 0.37660 0.54594
 C1558 C 0.50036 0.37526 0.57056
 C1559 C 0.49820 0.35428 0.58289
 C1560 C 0.50398 0.33411 0.57097
 C1561 C 0.51170 0.33535 0.54622
 C1562 C 0.51366 0.35644 0.53373
 C1563 C 0.51142 0.39925 0.53375
 C1564 C 0.50298 0.40380 0.50968
 C1565 C 0.50378 0.42610 0.49985
 C1566 C 0.51315 0.44413 0.51391
 C1567 C 0.52270 0.43906 0.53740
 C1568 C 0.52186 0.41698 0.54711
 H1569 H 0.49241 0.35390 0.60200
 H1570 H 0.51610 0.32001 0.53653
 H1571 H 0.49634 0.42931 0.48170
 H1572 H 0.53045 0.45224 0.54876
 H1573 H 0.51984 0.35706 0.51478
 H1574 H 0.49488 0.39033 0.49898
 H1575 H 0.49587 0.39053 0.58032
 H1576 H 0.52895 0.41385 0.56546
 C1577 C 0.48686 1.12219 0.52726
 C1578 C 0.50796 1.13231 0.53253
 C1579 C 0.50959 1.15217 0.54669
 C1580 C 0.49012 1.16239 0.55567
 C1581 C 0.46898 1.15297 0.54899
 C1582 C 0.46738 1.13302 0.53506
 C1583 C 0.48527 1.09892 0.51694
 C1584 C 0.47261 1.08215 0.52972
 C1585 C 0.47320 1.05947 0.52260
 C1586 C 0.48590 1.05289 0.50193
 C1587 C 0.49794 1.06989 0.48849
 C1588 C 0.49779 1.09269 0.49608
 H1589 H 0.52615 1.15880 0.55166
 H1590 H 0.45364 1.16072 0.55502
 H1591 H 0.46413 1.04701 0.53395
 H1592 H 0.50825 1.06552 0.47278
 H1593 H 0.45090 1.12561 0.53105
 H1594 H 0.46317 1.08641 0.54615
 H1595 H 0.52323 1.12410 0.52701
 H1596 H 0.50781 1.10538 0.48601
 C1597 C -0.00310 0.62508 1.03717
 C1598 C 0.01790 0.63347 1.04546
 C1599 C 0.01942 0.65339 1.05954
 C1600 C -0.00004 0.66544 1.06531
 C1601 C -0.02086 0.65759 1.05560
 C1602 C -0.02240 0.63748 1.04196
 C1603 C -0.00529 0.60200 1.02666
 C1604 C -0.01793 0.58534 1.03960
 C1605 C -0.01842 0.56283 1.03170
 C1606 C -0.00697 0.55647 1.01005
 C1607 C 0.00515 0.57344 0.99661
 C1608 C 0.00620 0.59599 1.00504
 H1609 H 0.03570 0.65870 1.06686
 H1610 H -0.03611 0.66672 1.05896
 H1611 H -0.02748 0.55032 1.04301
 H1612 H 0.01451 0.56922 0.98013
 H1613 H -0.03875 0.63125 1.03568
 H1614 H -0.02664 0.58959 1.05654
 H1615 H 0.03294 0.62392 1.04223
 H1616 H 0.01617 0.60866 0.99491
 C1617 C 0.50481 0.62487 -0.02873
 C1618 C 0.49100 0.64277 -0.02166
 C1619 C 0.48951 0.66250 -0.03649
 C1620 C 0.50177 0.66476 -0.05877
 C1621 C 0.51597 0.64710 -0.06549
 C1622 C 0.51746 0.62742 -0.05070
 C1623 C 0.50478 0.60285 -0.01461
 C1624 C 0.52445 0.59021 -0.01236
 C1625 C 0.52353 0.56765 -0.00365
 C1626 C 0.50293 0.55701 0.00292
 C1627 C 0.48373 0.57068 0.00338
 C1628 C 0.48460 0.59319 -0.00544
 H1629 H 0.47830 0.67572 -0.03084
 H1630 H 0.52591 0.64843 -0.08231
 H1631 H 0.53895 0.55859 -0.00304
 H1632 H 0.46749 0.56352 0.00871
 H1633 H 0.52799 0.61386 -0.05696
 H1634 H 0.54048 0.59746 -0.01831
 H1635 H 0.48114 0.64144 -0.00479
 H1636 H 0.46909 0.60242 -0.00672
 C1637 C 0.00630 1.11461 0.45805
 C1638 C 0.00338 1.13485 0.47117
 C1639 C 0.00146 1.15575 0.45844
 C1640 C 0.00255 1.15715 0.43203
 C1641 C 0.00524 1.13651 0.41917
 C1642 C 0.00682 1.11576 0.43189
 C1643 C 0.00868 1.09219 0.47109
 C1644 C 0.02253 1.07574 0.46088
 C1645 C 0.02207 1.05347 0.47001
 C1646 C 0.00860 1.04698 0.49052
 C1647 C -0.00390 1.06391 0.50212
 C1648 C -0.00396 1.08627 0.49242
 H1649 H -0.00146 1.17054 0.46964
 H1650 H 0.00707 1.13599 0.39918
 H1651 H 0.03153 1.04109 0.45994
 H1652 H -0.01477 1.05962 0.51767
 H1653 H 0.00849 1.10048 0.42099
 H1654 H 0.03306 1.07979 0.44498
 H1655 H 0.00277 1.13461 0.49135
 H1656 H -0.01488 1.09849 0.50076
 C1657 C 0.77528 0.69144 0.86818
 C1658 C 0.79197 0.69266 0.88681
 C1659 C 0.78867 0.68136 0.90978
 C1660 C 0.76852 0.66894 0.91450
 C1661 C 0.75177 0.66825 0.89595
 C1662 C 0.75506 0.67941 0.87321
 C1663 C 0.77835 0.70218 0.84321
 C1664 C 0.77104 0.69008 0.82222
 C1665 C 0.76788 0.70122 0.79956
 C1666 C 0.77295 0.72471 0.79668
 C1667 C 0.78273 0.73630 0.81711
 C1668 C 0.78531 0.72513 0.84027
 H1669 H 0.80180 0.68236 0.92384
 H1670 H 0.73621 0.65862 0.89876
 H1671 H 0.75950 0.69155 0.78507
 H1672 H 0.78661 0.75440 0.81585
 H1673 H 0.74169 0.67854 0.85940
 H1674 H 0.76596 0.67226 0.82382
 H1675 H 0.80765 0.70191 0.88342
 H1676 H 0.79106 0.73485 0.85623
 C1677 C 0.27612 0.18482 0.36038
 C1678 C 0.25592 0.17249 0.36472
 C1679 C 0.25194 0.16171 0.38753
 C1680 C 0.26788 0.16315 0.40689
 C1681 C 0.28804 0.17573 0.40281
 C1682 C 0.29208 0.18659 0.37975
 C1683 C 0.27969 0.19580 0.33561
 C1684 C 0.28720 0.21863 0.33320
 C1685 C 0.28500 0.23028 0.31030
 C1686 C 0.27495 0.21935 0.28961
 C1687 C 0.26937 0.19593 0.29187
 C1688 C 0.27229 0.18426 0.31426
 H1689 H 0.23641 0.15191 0.38984
 H1690 H 0.30057 0.17729 0.41748
 H1691 H 0.28927 0.24832 0.30952
 H1692 H 0.26077 0.18679 0.27712
 H1693 H 0.30772 0.19608 0.37694
 H1694 H 0.29306 0.22796 0.34940
 H1695 H 0.24301 0.17124 0.35042
 H1696 H 0.26687 0.16651 0.31538
 C1697 C 0.71533 0.30971 0.36109
 C1698 C 0.72928 0.30008 0.37934
 C1699 C 0.73373 0.31149 0.40160
 C1700 C 0.72397 0.33263 0.40630
 C1701 C 0.70872 0.34140 0.38858
 C1702 C 0.70474 0.33023 0.36603
 C1703 C 0.71535 0.30048 0.33565
 C1704 C 0.72525 0.31365 0.31661
 C1705 C 0.73083 0.30371 0.29412
 C1706 C 0.72577 0.28052 0.28962
 C1707 C 0.71414 0.26783 0.30815
 C1708 C 0.70928 0.27764 0.33112
 H1709 H 0.74582 0.30427 0.41442
 H1710 H 0.70033 0.35725 0.39175
 H1711 H 0.74073 0.31396 0.28120
 H1712 H 0.71031 0.24985 0.30576
 H1713 H 0.69401 0.33796 0.35206
 H1714 H 0.73053 0.33117 0.31996
 H1715 H 0.73798 0.28448 0.37562
 H1716 H 0.70185 0.26714 0.34578
 C1717 C 0.22069 0.79832 0.87109
 C1718 C 0.23682 0.79221 0.88896
 C1719 C 0.24000 0.80521 0.91039
 C1720 C 0.22707 0.82460 0.91432
 C1721 C 0.20987 0.82971 0.89709
 C1722 C 0.20685 0.81678 0.87553
 C1723 C 0.22234 0.78916 0.84581
 C1724 C 0.23746 0.79997 0.82949
 C1725 C 0.24167 0.79065 0.80638
 C1726 C 0.23054 0.77039 0.79870
 C1727 C 0.21472 0.75994 0.81487
 C1728 C 0.21074 0.76923 0.83842
 H1729 H 0.25358 0.80091 0.92300
 H1730 H 0.19932 0.84425 0.89978
 H1731 H 0.25404 0.79932 0.79473
 H1732 H 0.20596 0.74429 0.80969
 H1733 H 0.19462 0.82195 0.86164
 H1734 H 0.24661 0.81531 0.83502
 H1735 H 0.24802 0.77834 0.88544
 H1736 H 0.19909 0.76063 0.85103
 C1737 C 0.27652 0.81740 0.14400
 C1738 C 0.25547 0.82551 0.13680
 C1739 C 0.25242 0.83603 0.11372
 C1740 C 0.27040 0.83884 0.09679
 C1741 C 0.29164 0.83063 0.10422
 C1742 C 0.29457 0.81979 0.12745
 C1743 C 0.27887 0.80646 0.16886
 C1744 C 0.28751 0.78450 0.17164
 C1745 C 0.28440 0.77221 0.19402
 C1746 C 0.27257 0.78173 0.21390
 C1747 C 0.26567 0.80446 0.21144
 C1748 C 0.26909 0.81671 0.18943
 H1749 H 0.23599 0.84279 0.10987
 H1750 H 0.30593 0.83173 0.09188
 H1751 H 0.28974 0.75473 0.19498
 H1752 H 0.25599 0.81245 0.22573
 H1753 H 0.31095 0.81349 0.13260
 H1754 H 0.29507 0.77622 0.15594
 H1755 H 0.24118 0.82371 0.14915
 H1756 H 0.26252 0.83373 0.18784
 C1757 C 0.77890 0.31094 0.63881
 C1758 C 0.79717 0.31461 0.62281
 C1759 C 0.79408 0.32549 0.59960
 C1760 C 0.77251 0.33245 0.59169
 C1761 C 0.75429 0.32806 0.60798
 C1762 C 0.75749 0.31755 0.63105
 C1763 C 0.78144 0.30090 0.66404
 C1764 C 0.77239 0.31237 0.68421
 C1765 C 0.76846 0.30102 0.70669
 C1766 C 0.77397 0.27794 0.70995
 C1767 C 0.78521 0.26716 0.69043
 C1768 C 0.78890 0.27857 0.66760
 H1769 H 0.80860 0.32777 0.58773
 H1770 H 0.73752 0.33376 0.60379
 H1771 H 0.75917 0.31000 0.72057
 H1772 H 0.78944 0.24936 0.69197
 H1773 H 0.74311 0.31483 0.64312
 H1774 H 0.76655 0.32962 0.68187
 H1775 H 0.81383 0.30947 0.62845
 H1776 H 0.79582 0.26938 0.65216
 C1777 C 0.21298 0.18993 0.63421
 C1778 C 0.20197 0.16878 0.63085
 C1779 C 0.20503 0.15656 0.60894
 C1780 C 0.21972 0.16496 0.59028
 C1781 C 0.23001 0.18664 0.59346
 C1782 C 0.22649 0.19905 0.61508
 C1783 C 0.21362 0.20070 0.65891
 C1784 C 0.20780 0.22353 0.66189
 C1785 C 0.21256 0.23469 0.68435
 C1786 C 0.22383 0.22336 0.70391
 C1787 C 0.22887 0.20021 0.70087
 C1788 C 0.22341 0.18893 0.67888
 H1789 H 0.19628 0.14029 0.60697
 H1790 H 0.24175 0.19361 0.57990
 H1791 H 0.20872 0.25256 0.68568
 H1792 H 0.23822 0.19096 0.71492
 H1793 H 0.23550 0.21515 0.61758
 H1794 H 0.20043 0.23293 0.64651
 H1795 H 0.19156 0.16143 0.64551
 H1796 H 0.22843 0.17143 0.67676
 C1797 C 0.71695 0.69462 0.14060
 C1798 C 0.70837 0.67232 0.13838
 C1799 C 0.71216 0.65987 0.11684
 C1800 C 0.72524 0.66916 0.09703
 C1801 C 0.73267 0.69220 0.09909
 C1802 C 0.72847 0.70471 0.12049
 C1803 C 0.71730 0.70599 0.16501
 C1804 C 0.72722 0.69488 0.18538
 C1805 C 0.73249 0.70678 0.20700
 C1806 C 0.72718 0.72994 0.20930
 C1807 C 0.71572 0.74058 0.18942
 C1808 C 0.71107 0.72878 0.16735
 H1809 H 0.70464 0.64295 0.11608
 H1810 H 0.74317 0.70048 0.08519
 H1811 H 0.74216 0.69805 0.22116
 H1812 H 0.71173 0.75845 0.19013
 H1813 H 0.73561 0.72181 0.12202
 H1814 H 0.73260 0.67745 0.18381
 H1815 H 0.69923 0.66431 0.15367
 H1816 H 0.70355 0.73769 0.15171
 C1817 C 0.21360 0.63154 0.22464
 C1818 C 0.22724 0.61348 0.23216
 C1819 C 0.21864 0.59105 0.23223
 C1820 C 0.19637 0.58634 0.22448
 C1821 C 0.18329 0.60432 0.21550
 C1822 C 0.19179 0.62670 0.21568
 C1823 C 0.22085 0.65543 0.22917
 C1824 C 0.20678 0.66941 0.24274
 C1825 C 0.21361 0.69151 0.24871
 C1826 C 0.23455 0.70062 0.24082
 C1827 C 0.24861 0.68657 0.22699
 C1828 C 0.24190 0.66410 0.22142
 H1829 H 0.22913 0.57746 0.23905
 H1830 H 0.16602 0.60127 0.20965
 H1831 H 0.20258 0.70108 0.26030
 H1832 H 0.26497 0.69273 0.22080
 H1833 H 0.18100 0.64038 0.20976
 H1834 H 0.19071 0.66292 0.24952
 H1835 H 0.24406 0.61685 0.23931
 H1836 H 0.25310 0.65350 0.21106
 C1837 C 0.70566 0.13169 0.72347
 C1838 C 0.71849 0.11210 0.72066
 C1839 C 0.70826 0.09032 0.72138
 C1840 C 0.68480 0.08745 0.72481
 C1841 C 0.67210 0.10738 0.72710
 C1842 C 0.68235 0.12899 0.72652
 C1843 C 0.71638 0.15484 0.72497
 C1844 C 0.70526 0.17396 0.71543
 C1845 C 0.71330 0.19600 0.72049
 C1846 C 0.73247 0.19951 0.73557
 C1847 C 0.74506 0.18037 0.74253
 C1848 C 0.73689 0.15830 0.73770
 H1849 H 0.71888 0.07589 0.71861
 H1850 H 0.65429 0.10661 0.73098
 H1851 H 0.70417 0.21015 0.71283
 H1852 H 0.76048 0.18231 0.75322
 H1853 H 0.67200 0.14362 0.72955
 H1854 H 0.68998 0.17191 0.70450
 H1855 H 0.73648 0.11359 0.71787
 H1856 H 0.74606 0.14400 0.74515
 C1857 C 0.78795 0.13596 0.27361
 C1858 C 0.80956 0.13166 0.28296
 C1859 C 0.81844 0.10996 0.28141
 C1860 C 0.80589 0.09204 0.27048
 C1861 C 0.78366 0.09598 0.26269
 C1862 C 0.77474 0.11777 0.26430
 C1863 C 0.78069 0.15976 0.27041
 C1864 C 0.75890 0.16640 0.27650
 C1865 C 0.75220 0.18881 0.27181
 C1866 C 0.76706 0.20488 0.26056
 C1867 C 0.78881 0.19787 0.25448
 C1868 C 0.79554 0.17579 0.25950
 H1869 H 0.83566 0.10762 0.28740
 H1870 H 0.77345 0.08243 0.25453
 H1871 H 0.73525 0.19335 0.27657
 H1872 H 0.80054 0.20902 0.24473
 H1873 H 0.75806 0.12069 0.25688
 H1874 H 0.74708 0.15424 0.28481
 H1875 H 0.82001 0.14540 0.29039
 H1876 H 0.81221 0.17096 0.25390
 C1877 C 0.27569 0.62386 0.75350
 C1878 C 0.28276 0.61314 0.77565
 C1879 C 0.29384 0.59234 0.77476
 C1880 C 0.29792 0.58210 0.75170
 C1881 C 0.28908 0.59196 0.72986
 C1882 C 0.27812 0.61264 0.73075
 C1883 C 0.26928 0.64804 0.75327
 C1884 C 0.28118 0.66336 0.73781
 C1885 C 0.27618 0.68634 0.73735
 C1886 C 0.25876 0.69480 0.75200
 C1887 C 0.24688 0.67938 0.76774
 C1888 C 0.25225 0.65620 0.76854
 H1889 H 0.30051 0.58509 0.79186
 H1890 H 0.29158 0.58418 0.71191
 H1891 H 0.28660 0.69747 0.72590
 H1892 H 0.23352 0.68516 0.77952
 H1893 H 0.27259 0.62053 0.71347
 H1894 H 0.29484 0.65760 0.72639
 H1895 H 0.28117 0.62160 0.79337
 H1896 H 0.24300 0.64462 0.78080
 C1897 C 0.29629 0.36708 0.71437
 C1898 C 0.28254 0.38613 0.71478
 C1899 C 0.29200 0.40821 0.71462
 C1900 C 0.31566 0.41198 0.71447
 C1901 C 0.32913 0.39259 0.71225
 C1902 C 0.31959 0.37064 0.71204
 C1903 C 0.28682 0.34372 0.71896
 C1904 C 0.29854 0.32875 0.73459
 C1905 C 0.28958 0.30731 0.74053
 C1906 C 0.26843 0.29999 0.73124
 C1907 C 0.25672 0.31487 0.71528
 C1908 C 0.26581 0.33654 0.70924
 H1909 H 0.28045 0.42212 0.71473
 H1910 H 0.34726 0.39376 0.71230
 H1911 H 0.29909 0.29686 0.75330
 H1912 H 0.24044 0.30995 0.70767
 H1913 H 0.33066 0.35630 0.71106
 H1914 H 0.31444 0.33387 0.74306
 H1915 H 0.26446 0.38401 0.71632
 H1916 H 0.25638 0.34766 0.69702
 C1917 C 0.79137 0.87748 0.21605
 C1918 C 0.77763 0.89578 0.22180
 C1919 C 0.78649 0.91810 0.22169
 C1920 C 0.80919 0.92247 0.21571
 C1921 C 0.82243 0.90425 0.20834
 C1922 C 0.81361 0.88201 0.20851
 C1923 C 0.78365 0.85370 0.22100
 C1924 C 0.79753 0.83926 0.23484
 C1925 C 0.79017 0.81735 0.24139
 C1926 C 0.76878 0.80898 0.23401
 C1927 C 0.75493 0.82343 0.21982
 C1928 C 0.76224 0.84564 0.21353
 H1929 H 0.77581 0.93184 0.22713
 H1930 H 0.84002 0.90697 0.20384
 H1931 H 0.80112 0.80737 0.25311
 H1932 H 0.73828 0.81780 0.21391
 H1933 H 0.82448 0.86818 0.20380
 H1934 H 0.81387 0.84522 0.24146
 H1935 H 0.76046 0.89271 0.22778
 H1936 H 0.75119 0.85655 0.20291
 C1937 C 0.70195 0.86595 0.77651
 C1938 C 0.71377 0.88646 0.78138
 C1939 C 0.70325 0.90748 0.77850
 C1940 C 0.68073 0.90855 0.77005
 C1941 C 0.66883 0.88769 0.76627
 C1942 C 0.67926 0.86684 0.76945
 C1943 C 0.71332 0.84368 0.77679
 C1944 C 0.70222 0.82398 0.78607
 C1945 C 0.71099 0.80245 0.78220
 C1946 C 0.73074 0.80004 0.76832
 C1947 C 0.74309 0.81996 0.76150
 C1948 C 0.73435 0.84152 0.76545
 H1949 H 0.71335 0.92280 0.78148
 H1950 H 0.65119 0.88719 0.76117
 H1951 H 0.70191 0.78778 0.78966
 H1952 H 0.75885 0.81896 0.75166
 H1953 H 0.66966 0.85135 0.76551
 H1954 H 0.68638 0.82519 0.79574
 H1955 H 0.73129 0.88627 0.78700
 H1956 H 0.74341 0.85639 0.75826
 C1957 C 0.21391 0.36599 0.27391
 C1958 C 0.19316 0.37030 0.28497
 C1959 C 0.18391 0.39186 0.28306
 C1960 C 0.19507 0.40951 0.26975
 C1961 C 0.21658 0.40560 0.26016
 C1962 C 0.22595 0.38399 0.26229
 C1963 C 0.22107 0.34223 0.27120
 C1964 C 0.24280 0.33544 0.27777
 C1965 C 0.24938 0.31303 0.27349
 C1966 C 0.23449 0.29718 0.26208
 C1967 C 0.21282 0.30441 0.25544
 C1968 C 0.20613 0.32644 0.26024
 H1969 H 0.16760 0.39449 0.29123
 H1970 H 0.22555 0.41880 0.24971
 H1971 H 0.26632 0.30837 0.27855
 H1972 H 0.20111 0.29351 0.24541
 H1973 H 0.24189 0.38094 0.25342
 H1974 H 0.25466 0.34749 0.28605
 H1975 H 0.18368 0.35666 0.29416
 H1976 H 0.18948 0.33147 0.25438
 C1977 C 0.12573 0.24684 0.77887
 C1978 C 0.11652 0.22795 0.79197
 C1979 C 0.09624 0.22960 0.80464
 C1980 C 0.08453 0.25006 0.80423
 C1981 C 0.09279 0.26844 0.78963
 C1982 C 0.11330 0.26687 0.77710
 C1983 C 0.14938 0.24640 0.77021
 C1984 C 0.15625 0.25606 0.74725
 C1985 C 0.17906 0.25635 0.74045
 C1986 C 0.19535 0.24722 0.75664
 C1987 C 0.18817 0.23760 0.77953
 C1988 C 0.16565 0.23710 0.78609
 H1989 H 0.08996 0.21502 0.81529
 H1990 H 0.08401 0.28439 0.78900
 H1991 H 0.18394 0.26408 0.72282
 H1992 H 0.19996 0.23047 0.79276
 H1993 H 0.12005 0.28173 0.76729
 H1994 H 0.14402 0.26341 0.73466
 H1995 H 0.12548 0.21213 0.79324
 H1996 H 0.16106 0.23001 0.80415
 C1997 C 0.62962 0.75010 0.28363
 C1998 C 0.61549 0.76860 0.27910
 C1999 C 0.59457 0.76950 0.29087
 C2000 C 0.58767 0.75202 0.30743
 C2001 C 0.60113 0.73292 0.31066
 C2002 C 0.62178 0.73188 0.29872
 C2003 C 0.65338 0.75087 0.27542
 C2004 C 0.67015 0.74434 0.29236
 C2005 C 0.69268 0.74576 0.28584
 C2006 C 0.69929 0.75369 0.26205
 C2007 C 0.68252 0.76017 0.24492
 C2008 C 0.65973 0.75885 0.25158
 H2009 H 0.58435 0.78436 0.28809
 H2010 H 0.59588 0.71904 0.32297
 H2011 H 0.70488 0.74054 0.29970
 H2012 H 0.68696 0.76650 0.22653
 H2013 H 0.63207 0.71716 0.30208
 H2014 H 0.66591 0.73861 0.31105
 H2015 H 0.62115 0.78292 0.26765
 H2016 H 0.64710 0.76402 0.23816
 C2017 C 0.63038 0.26154 0.20892
 C2018 C 0.62170 0.28074 0.19662
 C2019 C 0.60036 0.27976 0.18552
 C2020 C 0.58727 0.25949 0.18632
 C2021 C 0.59562 0.24053 0.19941
 C2022 C 0.61691 0.24158 0.21070
 C2023 C 0.65405 0.26176 0.21796
 C2024 C 0.65992 0.25222 0.24122
 C2025 C 0.68250 0.25156 0.24884
 C2026 C 0.69969 0.26019 0.23321
 C2027 C 0.69362 0.26978 0.20997
 C2028 C 0.67115 0.27071 0.20258
 H2029 H 0.59446 0.29459 0.17546
 H2030 H 0.58580 0.22477 0.20057
 H2031 H 0.68647 0.24396 0.26677
 H2032 H 0.70623 0.27663 0.19731
 H2033 H 0.62322 0.22649 0.21992
 H2034 H 0.64703 0.24524 0.25347
 H2035 H 0.63166 0.29640 0.19514
 H2036 H 0.66719 0.27787 0.18441
 C2037 C 0.12712 0.75644 0.71491
 C2038 C 0.10781 0.74832 0.72751
 C2039 C 0.08711 0.74603 0.71492
 C2040 C 0.08516 0.75202 0.68947
 C2041 C 0.10445 0.76037 0.67707
 C2042 C 0.12509 0.76223 0.68944
 C2043 C 0.14956 0.75833 0.72757
 C2044 C 0.16535 0.77500 0.71960
 C2045 C 0.18766 0.77429 0.72745
 C2046 C 0.19485 0.75773 0.74479
 C2047 C 0.17859 0.74232 0.75463
 C2048 C 0.15625 0.74247 0.74595
 H2049 H 0.07274 0.73926 0.72511
 H2050 H 0.10370 0.76565 0.65769
 H2051 H 0.19947 0.78605 0.71860
 H2052 H 0.18338 0.72908 0.76771
 H2053 H 0.13956 0.76791 0.67873
 H2054 H 0.16079 0.78805 0.70619
 H2055 H 0.10862 0.74379 0.74711
 H2056 H 0.14465 0.72928 0.75256
 C2057 C 0.87040 0.74857 0.72073
 C2058 C 0.87932 0.72782 0.71358
 C2059 C 0.89986 0.72726 0.70127
 C2060 C 0.91205 0.74759 0.69523
 C2061 C 0.90361 0.76829 0.70422
 C2062 C 0.88303 0.76873 0.71678
 C2063 C 0.84668 0.74921 0.72867
 C2064 C 0.84022 0.75905 0.75120
 C2065 C 0.81742 0.75915 0.75793
 C2066 C 0.80079 0.74983 0.74195
 C2067 C 0.80758 0.74049 0.71918
 C2068 C 0.83014 0.73995 0.71284
 H2069 H 0.90598 0.71066 0.69660
 H2070 H 0.91181 0.78452 0.70013
 H2071 H 0.81283 0.76662 0.77548
 H2072 H 0.79550 0.73318 0.70617
 H2073 H 0.87629 0.78498 0.72196
 H2074 H 0.85281 0.76638 0.76362
 H2075 H 0.86997 0.71199 0.71684
 H2076 H 0.83471 0.73252 0.69523
 C2077 C 0.37225 0.24308 0.21193
 C2078 C 0.38707 0.26159 0.21680
 C2079 C 0.40806 0.26324 0.20506
 C2080 C 0.41445 0.24650 0.18815
 C2081 C 0.40023 0.22738 0.18450
 C2082 C 0.37947 0.22560 0.19638
 C2083 C 0.34854 0.24298 0.22058
 C2084 C 0.33133 0.23637 0.20397
 C2085 C 0.30891 0.23694 0.21096
 C2086 C 0.30280 0.24413 0.23489
 C2087 C 0.32000 0.25060 0.25174
 C2088 C 0.34268 0.25013 0.24460
 H2089 H 0.41879 0.27813 0.20818
 H2090 H 0.40498 0.21402 0.17195
 H2091 H 0.29638 0.23172 0.19732
 H2092 H 0.31596 0.25622 0.27029
 H2093 H 0.36870 0.21084 0.19274
 H2094 H 0.33515 0.23124 0.18517
 H2095 H 0.38195 0.27537 0.22858
 H2096 H 0.35562 0.25528 0.25783
 C2097 C 0.37329 0.75997 0.28593
 C2098 C 0.38289 0.77886 0.29827
 C2099 C 0.40424 0.77766 0.30908
 C2100 C 0.41647 0.75753 0.30781
 C2101 C 0.40731 0.73899 0.29442
 C2102 C 0.38593 0.74023 0.28349
 C2103 C 0.34934 0.76007 0.27819
 C2104 C 0.34211 0.75137 0.25509
 C2105 C 0.31916 0.75041 0.24892
 C2106 C 0.30304 0.75787 0.26589
 C2107 C 0.31052 0.76663 0.28893
 C2108 C 0.33331 0.76788 0.29487
 H2109 H 0.41072 0.79218 0.31941
 H2110 H 0.41649 0.72336 0.29286
 H2111 H 0.31407 0.74338 0.23113
 H2112 H 0.29878 0.77250 0.30262
 H2113 H 0.37885 0.72539 0.27420
 H2114 H 0.35419 0.74522 0.24191
 H2115 H 0.37354 0.79434 0.30024
 H2116 H 0.33835 0.77431 0.31297
 C2117 C 0.87068 0.25843 0.78631
 C2118 C 0.88416 0.23927 0.78410
 C2119 C 0.90551 0.23900 0.79521
 C2120 C 0.91381 0.25797 0.80854
 C2121 C 0.90074 0.27755 0.80960
 C2122 C 0.87938 0.27775 0.79865
 C2123 C 0.84684 0.25752 0.77818
 C2124 C 0.83024 0.26453 0.79461
 C2125 C 0.80761 0.26283 0.78802
 C2126 C 0.80088 0.25441 0.76456
 C2127 C 0.81754 0.24750 0.74797
 C2128 C 0.84033 0.24890 0.75480
 H2129 H 0.91536 0.22379 0.79385
 H2130 H 0.90659 0.29236 0.81986
 H2131 H 0.79544 0.26836 0.80143
 H2132 H 0.81301 0.24079 0.72986
 H2133 H 0.86935 0.29280 0.80044
 H2134 H 0.83474 0.27087 0.81292
 H2135 H 0.87778 0.22412 0.77481
 H2136 H 0.85288 0.24334 0.74182
 C2137 C 0.54964 0.96716 0.61167
 C2138 C 0.57084 0.95772 0.61527
 C2139 C 0.58245 0.96083 0.63774
 C2140 C 0.57331 0.97396 0.65683
 C2141 C 0.55148 0.98229 0.65362
 C2142 C 0.53970 0.97879 0.63128
 C2143 C 0.53971 0.96838 0.58646
 C2144 C 0.51753 0.96089 0.58172
 C2145 C 0.50741 0.96538 0.55857
 C2146 C 0.51914 0.97795 0.54002
 C2147 C 0.54155 0.98494 0.54495
 C2148 C 0.55182 0.97980 0.56764
 H2149 H 0.59891 0.95355 0.63982
 H2150 H 0.54396 0.99264 0.66775
 H2151 H 0.49001 0.96013 0.55584
 H2152 H 0.55097 0.99549 0.53184
 H2153 H 0.52347 0.98651 0.62867
 H2154 H 0.50787 0.95224 0.59620
 H2155 H 0.57876 0.94870 0.60031
 H2156 H 0.56880 0.98615 0.57113
 C2157 C 0.05930 0.46529 1.11122
 C2158 C 0.08117 0.45726 1.11321
 C2159 C 0.09350 0.45984 1.13531
 C2160 C 0.08462 0.47127 1.15617
 C2161 C 0.06178 0.47778 1.15417
 C2162 C 0.04943 0.47476 1.13213
 C2163 C 0.04817 0.46721 1.08659
 C2164 C 0.02561 0.46034 1.08300
 C2165 C 0.01433 0.46590 1.06078
 C2166 C 0.02531 0.47887 1.04201
 C2167 C 0.04813 0.48508 1.04565
 C2168 C 0.05948 0.47894 1.06738
 H2169 H 0.10997 0.45255 1.13549
 H2170 H 0.05337 0.48691 1.16856
 H2171 H -0.00331 0.46120 1.05903
 H2172 H 0.05709 0.49588 1.03240
 H2173 H 0.03260 0.48137 1.13089
 H2174 H 0.01651 0.45143 1.09774
 H2175 H 0.08898 0.44950 1.09732
 H2176 H 0.07674 0.48487 1.06994
 C2177 C -0.05444 0.04607 1.10685
 C2178 C -0.04562 0.05031 1.13072
 C2179 C -0.05916 0.04783 1.15179
 C2180 C -0.08205 0.04097 1.14968
 C2181 C -0.09118 0.03870 1.12536
 C2182 C -0.07753 0.04113 1.10432
 C2183 C -0.03923 0.04328 1.08533
 C2184 C -0.04526 0.05045 1.06114
 C2185 C -0.03287 0.04367 1.04050
 C2186 C -0.01471 0.02892 1.04358
 C2187 C -0.00753 0.02372 1.06804
 C2188 C -0.01963 0.03075 1.08857
 H2189 H -0.05144 0.05129 1.16971
 H2190 H -0.10841 0.03313 1.12225
 H2191 H -0.03830 0.04906 1.02212
 H2192 H 0.00675 0.01307 1.07160
 H2193 H -0.08479 0.03748 1.08617
 H2194 H -0.06003 0.06058 1.05813
 H2195 H -0.02797 0.05477 1.13318
 H2196 H -0.01447 0.02492 1.10693
 C2197 C 0.45049 0.53976 0.60988
 C2198 C 0.42837 0.54745 0.61103
 C2199 C 0.41589 0.54451 0.63281
 C2200 C 0.42520 0.53359 0.65382
 C2201 C 0.44797 0.52766 0.65332
 C2202 C 0.46053 0.53078 0.63151
 C2203 C 0.46109 0.53661 0.58536
 C2204 C 0.48352 0.54332 0.58070
 C2205 C 0.49402 0.53684 0.55859
 C2206 C 0.48241 0.52304 0.54116
 C2207 C 0.45981 0.51685 0.54599
 C2208 C 0.44922 0.52392 0.56744
 H2209 H 0.39858 0.54982 0.63283
 H2210 H 0.45562 0.51916 0.66915
 H2211 H 0.51155 0.54156 0.55590
 H2212 H 0.45040 0.50540 0.53395
 H2213 H 0.47748 0.52445 0.63094
 H2214 H 0.49306 0.55292 0.59447
 H2215 H 0.42033 0.55450 0.59456
 H2216 H 0.43210 0.51802 0.57088
 C2217 C 0.43819 0.47467 -0.11776
 C2218 C 0.45060 0.47702 -0.13991
 C2219 C 0.43949 0.47922 -0.16294
 C2220 C 0.41588 0.47927 -0.16406
 C2221 C 0.40358 0.47528 -0.14217
 C2222 C 0.41461 0.47280 -0.11931
 C2223 C 0.44924 0.47754 -0.09303
 C2224 C 0.43948 0.49197 -0.07576
 C2225 C 0.44994 0.49645 -0.05308
 C2226 C 0.47049 0.48644 -0.04658
 C2227 C 0.48029 0.47175 -0.06375
 C2228 C 0.46980 0.46742 -0.08686
 H2229 H 0.44930 0.48226 -0.17965
 H2230 H 0.38536 0.47484 -0.14267
 H2231 H 0.44179 0.50810 -0.04075
 H2232 H 0.49624 0.46402 -0.05961
 H2233 H 0.40462 0.47051 -0.10262
 H2234 H 0.42398 0.50052 -0.08013
 H2235 H 0.46877 0.47864 -0.13926
 H2236 H 0.47775 0.45630 -0.09994
 C2237 C -0.06276 0.97713 0.38119
 C2238 C -0.06338 0.96005 0.36303
 C2239 C -0.07302 0.96427 0.33949
 C2240 C -0.08194 0.98572 0.33365
 C2241 C -0.08086 1.00282 0.35175
 C2242 C -0.07133 0.99862 0.37508
 C2243 C -0.05333 0.97319 0.40656
 C2244 C -0.06411 0.98242 0.42713
 C2245 C -0.05332 0.98368 0.45016
 C2246 C -0.03163 0.97502 0.45369
 C2247 C -0.02176 0.96364 0.43369
 C2248 C -0.03250 0.96279 0.41028
 H2249 H -0.07346 0.95079 0.32586
 H2250 H -0.08785 1.01940 0.34811
 H2251 H -0.06150 0.99311 0.46456
 H2252 H -0.00503 0.95691 0.43551
 H2253 H -0.07068 1.01232 0.38845
 H2254 H -0.08041 0.99010 0.42500
 H2255 H -0.05682 0.94336 0.36720
 H2256 H -0.02380 0.95548 0.39473
 C2257 C 0.06936 0.51954 0.38794
 C2258 C 0.07933 0.49897 0.38148
 C2259 C 0.08929 0.49648 0.35834
 C2260 C 0.08933 0.51435 0.34071
 C2261 C 0.07911 0.53492 0.34691
 C2262 C 0.06910 0.53746 0.37031
 C2263 C 0.05927 0.52159 0.41304
 C2264 C 0.03796 0.53092 0.41635
 C2265 C 0.02681 0.52827 0.43925
 C2266 C 0.03673 0.51605 0.45908
 C2267 C 0.05877 0.50835 0.45600
 C2268 C 0.07001 0.51153 0.43359
 H2269 H 0.09730 0.48055 0.35442
 H2270 H 0.07872 0.54895 0.33363
 H2271 H 0.00984 0.53433 0.44075
 H2272 H 0.06703 0.49838 0.47029
 H2273 H 0.06149 0.55347 0.37476
 H2274 H 0.02928 0.53883 0.40082
 H2275 H 0.07936 0.48462 0.39438
 H2276 H 0.08667 0.50470 0.43185
 C2277 C 0.56289 0.03322 -0.11184
 C2278 C 0.55028 0.02418 -0.13181
 C2279 C 0.56053 0.02013 -0.15466
 C2280 C 0.58351 0.02531 -0.15801
 C2281 C 0.59579 0.03555 -0.13846
 C2282 C 0.58560 0.03935 -0.11555
 C2283 C 0.55338 0.03277 -0.08642
 C2284 C 0.56509 0.02161 -0.06731
 C2285 C 0.55473 0.01662 -0.04467
 C2286 C 0.53254 0.02330 -0.04012
 C2287 C 0.52144 0.03607 -0.05867
 C2288 C 0.53168 0.04053 -0.08173
 H2289 H 0.55065 0.01247 -0.16955
 H2290 H 0.61355 0.03961 -0.14049
 H2291 H 0.56374 0.00613 -0.03145
 H2292 H 0.50430 0.04131 -0.05609
 H2293 H 0.59567 0.04626 -0.10038
 H2294 H 0.58169 0.01508 -0.07057
 H2295 H 0.53282 0.01903 -0.12931
 H2296 H 0.52233 0.04919 -0.09627
 C2297 C 0.61607 0.53694 -0.00193
 C2298 C 0.62324 0.54993 0.01862
 C2299 C 0.64458 0.56029 0.01902
 C2300 C 0.65935 0.55772 -0.00099
 C2301 C 0.65249 0.54428 -0.02132
 C2302 C 0.63089 0.53415 -0.02190
 C2303 C 0.59284 0.52722 -0.00251
 C2304 C 0.57893 0.53020 -0.02351
 C2305 C 0.55607 0.52395 -0.02253
 C2306 C 0.54661 0.51506 -0.00032
 C2307 C 0.56119 0.50995 0.01966
 C2308 C 0.58390 0.51635 0.01877
 H2309 H 0.64955 0.57045 0.03497
 H2310 H 0.66359 0.54216 -0.03699
 H2311 H 0.54563 0.52724 -0.03873
 H2312 H 0.55502 0.50153 0.03640
 H2313 H 0.62576 0.52415 -0.03791
 H2314 H 0.58547 0.53836 -0.04026
 H2315 H 0.61207 0.55256 0.03414
 H2316 H 0.59444 0.51317 0.03493
 C2317 C 0.11819 1.02594 0.47483
 C2318 C 0.12265 1.04620 0.46149
 C2319 C 0.14385 1.05682 0.46281
 C2320 C 0.16089 1.04751 0.47781
 C2321 C 0.15683 1.02631 0.48973
 C2322 C 0.13557 1.01560 0.48824
 C2323 C 0.09468 1.01863 0.47899
 C2324 C 0.08548 0.99837 0.46919
 C2325 C 0.06279 0.99242 0.47339
 C2326 C 0.04918 1.00652 0.48773
 C2327 C 0.05902 1.02646 0.49793
 C2328 C 0.08132 1.03250 0.49341
 H2329 H 0.14662 1.07287 0.45300
 H2330 H 0.16955 1.01879 0.50155
 H2331 H 0.05599 0.97682 0.46545
 H2332 H 0.04952 1.03772 0.50939
 H2333 H 0.13224 1.00016 0.49901
 H2334 H 0.09573 0.98740 0.45812
 H2335 H 0.10931 1.05448 0.45123
 H2336 H 0.08826 1.04807 0.50136
 C2337 C 0.12560 -0.03509 1.01738
 C2338 C 0.12862 -0.05705 1.02715
 C2339 C 0.14953 -0.06710 1.02623
 C2340 C 0.16820 -0.05553 1.01541
 C2341 C 0.16549 -0.03258 1.00775
 C2342 C 0.14435 -0.02255 1.00859
 C2343 C 0.10249 -0.02683 1.01372
 C2344 C 0.09626 -0.00488 1.02065
 C2345 C 0.07397 0.00200 1.01731
 C2346 C 0.05767 -0.01288 1.00669
 C2347 C 0.06444 -0.03459 0.99926
 C2348 C 0.08639 -0.04145 1.00279
 H2349 H 0.15086 -0.08410 1.03407
 H2350 H 0.17909 -0.02281 0.99920
 H2351 H 0.06956 0.01892 1.02310
 H2352 H 0.05283 -0.04654 0.99055
 H2353 H 0.14238 -0.00555 1.00093
 H2354 H 0.10848 0.00675 1.02901
 H2355 H 0.11451 -0.06681 1.03476
 H2356 H 0.09087 -0.05828 0.99672
 C2357 C 0.62606 0.46051 0.52469
 C2358 C 0.62997 0.43857 0.53408
 C2359 C 0.65114 0.42916 0.53233
 C2360 C 0.66921 0.44141 0.52110
 C2361 C 0.66573 0.46437 0.51408
 C2362 C 0.64430 0.47373 0.51567
 C2363 C 0.60260 0.46801 0.52137
 C2364 C 0.59602 0.49014 0.52724
 C2365 C 0.57378 0.49676 0.52293
 C2366 C 0.55783 0.48147 0.51236
 C2367 C 0.56479 0.45943 0.50644
 C2368 C 0.58670 0.45280 0.51100
 H2369 H 0.65315 0.41208 0.53972
 H2370 H 0.67887 0.47464 0.50532
 H2371 H 0.56925 0.51396 0.52751
 H2372 H 0.55367 0.44735 0.49723
 H2373 H 0.64170 0.49073 0.50829
 H2374 H 0.60804 0.50224 0.53515
 H2375 H 0.61632 0.42828 0.54190
 H2376 H 0.59143 0.43586 0.50556
 C2377 C -0.11186 0.45836 0.47456
 C2378 C -0.12916 0.47239 0.48245
 C2379 C -0.15142 0.46401 0.48322
 C2380 C -0.15673 0.44157 0.47584
 C2381 C -0.13952 0.42806 0.46665
 C2382 C -0.11733 0.43635 0.46610
 C2383 C -0.08798 0.46536 0.47811
 C2384 C -0.07370 0.45071 0.49109
 C2385 C -0.05155 0.45727 0.49619
 C2386 C -0.04268 0.47854 0.48798
 C2387 C -0.05702 0.49317 0.47465
 C2388 C -0.07953 0.48671 0.46995
 H2389 H -0.16438 0.47485 0.49018
 H2390 H -0.14299 0.41064 0.46108
 H2391 H -0.04174 0.44587 0.50759
 H2392 H -0.05105 0.50981 0.46829
 H2393 H -0.10426 0.42524 0.45991
 H2394 H -0.07996 0.43441 0.49819
 H2395 H -0.12531 0.48936 0.48925
 H2396 H -0.09033 0.49837 0.46002
 C2397 C 0.38624 -0.03856 -0.02381
 C2398 C 0.36847 -0.02483 -0.01659
 C2399 C 0.34639 -0.03368 -0.01631
 C2400 C 0.34172 -0.05631 -0.02348
 C2401 C 0.35939 -0.06949 -0.03213
 C2402 C 0.38141 -0.06073 -0.03223
 C2403 C 0.40990 -0.03099 -0.01976
 C2404 C 0.42441 -0.04542 -0.00680
 C2405 C 0.44645 -0.03849 -0.00167
 C2406 C 0.45493 -0.01702 -0.00971
 C2407 C 0.44030 -0.00253 -0.02281
 C2408 C 0.41793 -0.00939 -0.02761
 H2409 H 0.33306 -0.02306 -0.00979
 H2410 H 0.35640 -0.08704 -0.03755
 H2411 H 0.45665 -0.05001 0.00914
 H2412 H 0.44598 0.01422 -0.02912
 H2413 H 0.39484 -0.07159 -0.03800
 H2414 H 0.41850 -0.06194 0.00003
 H2415 H 0.37182 -0.00773 -0.00989
 H2416 H 0.40694 0.00210 -0.03754
 C2417 C 0.37567 1.03504 0.51976
 C2418 C 0.35687 1.02135 0.51343
 C2419 C 0.33531 1.03034 0.51398
 C2420 C 0.33227 1.05301 0.52124
 C2421 C 0.35100 1.06614 0.52912
 C2422 C 0.37252 1.05727 0.52824
 C2423 C 0.39860 1.02735 0.51472
 C2424 C 0.41276 1.04097 0.49971
 C2425 C 0.43439 1.03415 0.49438
 C2426 C 0.44275 1.01370 0.50435
 C2427 C 0.42833 0.99985 0.51916
 C2428 C 0.40636 1.00654 0.52413
 H2429 H 0.32108 1.01985 0.50797
 H2430 H 0.34916 1.08371 0.53457
 H2431 H 0.44457 1.04523 0.48257
 H2432 H 0.43397 0.98389 0.52703
 H2433 H 0.38684 1.06807 0.53325
 H2434 H 0.40695 1.05689 0.49183
 H2435 H 0.35898 1.00421 0.50671
 H2436 H 0.39557 0.99569 0.53561
 C2437 C -0.11979 0.53932 1.02573
 C2438 C -0.13819 0.52569 1.01787
 C2439 C -0.15994 0.53436 1.01781
 C2440 C -0.16366 0.55667 1.02591
 C2441 C -0.14533 0.56977 1.03498
 C2442 C -0.12365 0.56121 1.03481
 C2443 C -0.09644 0.53197 1.02188
 C2444 C -0.08136 0.54668 1.00934
 C2445 C -0.05955 0.54006 1.00456
 C2446 C -0.05185 0.51865 1.01259
 C2447 C -0.06704 0.50387 1.02526
 C2448 C -0.08920 0.51041 1.02969
 H2449 H -0.17379 0.52382 1.01091
 H2450 H -0.14756 0.58709 1.04108
 H2451 H -0.04894 0.55176 0.99397
 H2452 H -0.06197 0.48714 1.03149
 H2453 H -0.10972 0.57201 1.04103
 H2454 H -0.08666 0.56319 1.00258
 H2455 H -0.13560 0.50881 1.01063
 H2456 H -0.10063 0.49871 1.03930
 C2457 C 0.00975 0.61439 0.54497
 C2458 C 0.00242 0.63394 0.53210
 C2459 C -0.00069 0.65443 0.54473
 C2460 C 0.00398 0.65616 0.57049
 C2461 C 0.01155 0.63665 0.58315
 C2462 C 0.01386 0.61610 0.57079
 C2463 C 0.01278 0.59214 0.53209
 C2464 C 0.02789 0.57631 0.54198
 C2465 C 0.02819 0.55415 0.53316
 C2466 C 0.01483 0.54731 0.51268
 C2467 C 0.00101 0.56364 0.50132
 C2468 C -0.00024 0.58570 0.51111
 H2469 H -0.00694 0.66880 0.53420
 H2470 H 0.01596 0.63705 0.60273
 H2471 H 0.03836 0.54215 0.54337
 H2472 H -0.00993 0.55902 0.48587
 H2473 H 0.01870 0.60148 0.58187
 H2474 H 0.03900 0.58060 0.55736
 H2475 H -0.00084 0.63355 0.51223
 H2476 H -0.01223 0.59720 0.50292
 C2477 C 0.50906 0.11962 0.04412
 C2478 C 0.50604 0.12120 0.07003
 C2479 C 0.50393 0.14231 0.08129
 C2480 C 0.50446 0.16253 0.06699
 C2481 C 0.50723 0.16104 0.04100
 C2482 C 0.50947 0.13979 0.02967
 C2483 C 0.51174 0.09685 0.03271
 C2484 C 0.50117 0.09104 0.01000
 C2485 C 0.50161 0.06860 0.00123
 C2486 C 0.51254 0.05154 0.01506
 C2487 C 0.52396 0.05782 0.03714
 C2488 C 0.52383 0.08013 0.04559
 H2489 H 0.50218 0.14276 0.10136
 H2490 H 0.50750 0.17627 0.02941
 H2491 H 0.49254 0.06445 -0.01575
 H2492 H 0.53260 0.04535 0.04845
 H2493 H 0.51182 0.13915 0.00969
 H2494 H 0.49167 0.10354 -0.00036
 H2495 H 0.50517 0.10603 0.08171
 H2496 H 0.53271 0.08413 0.06275
 C2497 C 0.00269 0.12264 0.95692
 C2498 C -0.01113 0.14001 0.96517
 C2499 C -0.01073 0.16134 0.95306
 C2500 C 0.00363 0.16562 0.93266
 C2501 C 0.01828 0.14850 0.92545
 C2502 C 0.01772 0.12725 0.93735
 C2503 C 0.00033 0.09910 0.96691
 C2504 C -0.00281 0.08119 0.95016
 C2505 C -0.00322 0.05869 0.95856
 C2506 C -0.00064 0.05330 0.98410
 C2507 C 0.00211 0.07139 1.00100
 C2508 C 0.00229 0.09413 0.99251
 H2509 H -0.02230 0.17411 0.95901
 H2510 H 0.02999 0.15141 0.91031
 H2511 H -0.00475 0.04558 0.94461
 H2512 H 0.00495 0.06802 1.02064
 H2513 H 0.02877 0.11417 0.93092
 H2514 H -0.00448 0.08461 0.93034
 H2515 H -0.02292 0.13675 0.98017
 H2516 H 0.00493 0.10776 1.00573
 C2517 C 0.50314 0.61677 0.45236
 C2518 C 0.50082 0.63668 0.46633
 C2519 C 0.50115 0.65813 0.45448
 C2520 C 0.50384 0.66004 0.42846
 C2521 C 0.50638 0.64007 0.41467
 C2522 C 0.50624 0.61880 0.42646
 C2523 C 0.50187 0.59374 0.46422
 C2524 C 0.49094 0.57583 0.45155
 C2525 C 0.49147 0.55366 0.46085
 C2526 C 0.50240 0.54866 0.48358
 C2527 C 0.51247 0.56674 0.49697
 C2528 C 0.51224 0.58910 0.48735
 H2529 H 0.49942 0.67319 0.46570
 H2530 H 0.50814 0.64078 0.39459
 H2531 H 0.48330 0.54040 0.44994
 H2532 H 0.52111 0.56356 0.51446
 H2533 H 0.50854 0.60387 0.41517
 H2534 H 0.48220 0.57888 0.43408
 H2535 H 0.49834 0.63566 0.48630
 H2536 H 0.52086 0.60257 0.49754
 C2537 C 0.50457 0.87591 0.46748
 C2538 C 0.48471 0.86245 0.46746
 C2539 C 0.48415 0.84113 0.45602
 C2540 C 0.50346 0.83285 0.44455
 C2541 C 0.52366 0.84572 0.44607
 C2542 C 0.52419 0.86703 0.45739
 C2543 C 0.50418 0.90011 0.47500
 C2544 C 0.51358 0.91686 0.45912
 C2545 C 0.51175 0.93986 0.46450
 C2546 C 0.50083 0.94687 0.48622
 C2547 C 0.49177 0.93005 0.50245
 C2548 C 0.49330 0.90686 0.49679
 H2549 H 0.46842 0.83144 0.45545
 H2550 H 0.53879 0.83991 0.43730
 H2551 H 0.51888 0.95216 0.45138
 H2552 H 0.48306 0.93474 0.51919
 H2553 H 0.53976 0.87700 0.45736
 H2554 H 0.52170 0.91219 0.44197
 H2555 H 0.46933 0.86895 0.47501
 H2556 H 0.48586 0.89422 0.50931
 C2557 C 0.00696 0.38075 0.96473
 C2558 C -0.01206 0.36618 0.96670
 C2559 C -0.01266 0.34510 0.95470
 C2560 C 0.00576 0.33817 0.94056
 C2561 C 0.02524 0.35221 0.93988
 C2562 C 0.02584 0.37321 0.95186
 C2563 C 0.00629 0.40465 0.97337
 C2564 C 0.01400 0.42222 0.95746
 C2565 C 0.01243 0.44490 0.96426
 C2566 C 0.00334 0.45084 0.98743
 C2567 C -0.00425 0.43323 1.00356
 C2568 C -0.00290 0.41032 0.99653
 H2569 H -0.02777 0.33449 0.95598
 H2570 H 0.03968 0.34753 0.92907
 H2571 H 0.01848 0.45777 0.95116
 H2572 H -0.01150 0.43711 1.02141
 H2573 H 0.04083 0.38399 0.95029
 H2574 H 0.02074 0.41846 0.93929
 H2575 H -0.02687 0.37158 0.97642
 H2576 H -0.00902 0.39706 1.00914
 C2577 C 0.48663 0.37806 0.02603
 C2578 C 0.50808 0.36874 0.02875
 C2579 C 0.51079 0.34789 0.04123
 C2580 C 0.49213 0.33588 0.05126
 C2581 C 0.47057 0.34464 0.04734
 C2582 C 0.46786 0.36546 0.03486
 C2583 C 0.48421 0.40191 0.01682
 C2584 C 0.47028 0.41667 0.02965
 C2585 C 0.47052 0.43992 0.02404
 C2586 C 0.48447 0.44916 0.00514
 C2587 C 0.49739 0.43413 -0.00877
 C2588 C 0.49732 0.41077 -0.00293
 H2589 H 0.52759 0.34144 0.04356
 H2590 H 0.45584 0.33594 0.05492
 H2591 H 0.46056 0.45078 0.03554
 H2592 H 0.50852 0.44050 -0.02326
 H2593 H 0.45110 0.37208 0.03284
 H2594 H 0.46023 0.41053 0.04521
 H2595 H 0.52290 0.37809 0.02236
 H2596 H 0.50810 0.39975 -0.01330
 C2597 C -0.01444 0.87072 0.53177
 C2598 C -0.03332 0.86028 0.54316
 C2599 C -0.03142 0.83964 0.55617
 C2600 C -0.01056 0.82896 0.55816
 C2601 C 0.00808 0.83885 0.54575
 C2602 C 0.00615 0.85948 0.53262
 C2603 C -0.01558 0.89440 0.52185
 C2604 C -0.00473 0.90114 0.49963
 C2605 C -0.00378 0.92417 0.49224
 C2606 C -0.01336 0.94092 0.50714
 C2607 C -0.02479 0.93385 0.52893
 C2608 C -0.02606 0.91096 0.53601
 H2609 H -0.04607 0.83258 0.56563
 H2610 H 0.02429 0.83087 0.54664
 H2611 H 0.00528 0.92890 0.47545
 H2612 H -0.03220 0.94609 0.54116
 H2613 H 0.02102 0.86722 0.52421
 H2614 H 0.00343 0.88867 0.48830
 H2615 H -0.04943 0.86849 0.54266
 H2616 H -0.03425 0.90640 0.55341
 C2617 C 0.20902 0.31031 0.13589
 C2618 C 0.21767 0.30010 0.11460
 C2619 C 0.21978 0.31250 0.09231
 C2620 C 0.21297 0.33529 0.09074
 C2621 C 0.20287 0.34491 0.11169
 C2622 C 0.20113 0.33261 0.13411
 C2623 C 0.21168 0.29904 0.16049
 C2624 C 0.22366 0.31055 0.17927
 C2625 C 0.23049 0.29897 0.20070
 C2626 C 0.22483 0.27572 0.20443
 C2627 C 0.21161 0.26456 0.18616
 C2628 C 0.20529 0.27607 0.16427
 H2629 H 0.22794 0.30457 0.07679
 H2630 H 0.19690 0.36219 0.11102
 H2631 H 0.24132 0.30810 0.21365
 H2632 H 0.20726 0.24661 0.18798
 H2633 H 0.19434 0.34077 0.15033
 H2634 H 0.22920 0.32812 0.17655
 H2635 H 0.22423 0.28306 0.11566
 H2636 H 0.19617 0.26683 0.14987
 C2637 C 0.71333 0.81021 0.63759
 C2638 C 0.69961 0.82888 0.63264
 C2639 C 0.70238 0.84178 0.61070
 C2640 C 0.71918 0.83646 0.59348
 C2641 C 0.73252 0.81742 0.59832
 C2642 C 0.72954 0.80440 0.62001
 C2643 C 0.71260 0.79803 0.66192
 C2644 C 0.71431 0.77426 0.66305
 C2645 C 0.71881 0.76327 0.68569
 C2646 C 0.72212 0.77584 0.70776
 C2647 C 0.71802 0.79935 0.70681
 C2648 C 0.71331 0.81033 0.68417
 H2649 H 0.69153 0.85605 0.60739
 H2650 H 0.74595 0.81307 0.58587
 H2651 H 0.72132 0.74507 0.68541
 H2652 H 0.71938 0.80970 0.72309
 H2653 H 0.74068 0.79039 0.62361
 H2654 H 0.71338 0.76431 0.64617
 H2655 H 0.68694 0.83363 0.64589
 H2656 H 0.71186 0.82870 0.68387
 C2657 C 0.27757 0.69542 0.62769
 C2658 C 0.29532 0.68074 0.62333
 C2659 C 0.29520 0.66727 0.60188
 C2660 C 0.27732 0.66840 0.58454
 C2661 C 0.26034 0.68421 0.58841
 C2662 C 0.26049 0.69754 0.60972
 C2663 C 0.27415 0.70516 0.65254
 C2664 C 0.28865 0.72191 0.66276
 C2665 C 0.28351 0.73185 0.68571
 C2666 C 0.26396 0.72492 0.69871
 C2667 C 0.25012 0.70748 0.68851
 C2668 C 0.25513 0.69786 0.66581
 H2669 H 0.30866 0.65547 0.59927
 H2670 H 0.24614 0.68534 0.57576
 H2671 H 0.29460 0.74509 0.69307
 H2672 H 0.23516 0.70110 0.69787
 H2673 H 0.24650 0.70861 0.61295
 H2674 H 0.30350 0.72767 0.65272
 H2675 H 0.30849 0.67868 0.63717
 H2676 H 0.24392 0.68472 0.65838
 C2677 C 0.78988 0.19843 0.13339
 C2678 C 0.77552 0.20606 0.11440
 C2679 C 0.77207 0.19315 0.09292
 C2680 C 0.78324 0.17248 0.08982
 C2681 C 0.79893 0.16584 0.10819
 C2682 C 0.80194 0.17851 0.12993
 C2683 C 0.78869 0.20868 0.15828
 C2684 C 0.79441 0.23171 0.16217
 C2685 C 0.78913 0.24206 0.18476
 C2686 C 0.77743 0.22969 0.20351
 C2687 C 0.77236 0.20642 0.19944
 C2688 C 0.77838 0.19598 0.17741
 H2689 H 0.75964 0.19876 0.07951
 H2690 H 0.80837 0.15045 0.10621
 H2691 H 0.79285 0.26010 0.18677
 H2692 H 0.76233 0.19642 0.21246
 H2693 H 0.81298 0.17229 0.14451
 H2694 H 0.80209 0.24186 0.14738
 H2695 H 0.76572 0.22116 0.11701
 H2696 H 0.77333 0.17833 0.17450
 C2697 C 0.71707 0.18819 0.86719
 C2698 C 0.73120 0.19787 0.88557
 C2699 C 0.73616 0.18577 0.90741
 C2700 C 0.72707 0.16373 0.91145
 C2701 C 0.71212 0.15442 0.89364
 C2702 C 0.70724 0.16650 0.87166
 C2703 C 0.71495 0.19971 0.84249
 C2704 C 0.71731 0.18723 0.82054
 C2705 C 0.72097 0.19844 0.79775
 C2706 C 0.72251 0.22236 0.79628
 C2707 C 0.71732 0.23472 0.81783
 C2708 C 0.71374 0.22353 0.84066
 H2709 H 0.74747 0.19351 0.92097
 H2710 H 0.70491 0.13744 0.89624
 H2711 H 0.72394 0.18809 0.78189
 H2712 H 0.71781 0.25317 0.81768
 H2713 H 0.69622 0.15865 0.85789
 H2714 H 0.71815 0.16882 0.82122
 H2715 H 0.73931 0.21439 0.88257
 H2716 H 0.71133 0.23360 0.85718
 C2717 C 0.21818 0.68235 0.36792
 C2718 C 0.22837 0.69255 0.38883
 C2719 C 0.23282 0.67955 0.41021
 C2720 C 0.22685 0.65625 0.41117
 C2721 C 0.21525 0.64643 0.39092
 C2722 C 0.21113 0.65934 0.36936
 C2723 C 0.21865 0.69453 0.34364
 C2724 C 0.22948 0.68450 0.32362
 C2725 C 0.23449 0.69717 0.30222
 C2726 C 0.22804 0.72005 0.29974
 C2727 C 0.21591 0.72966 0.31930
 C2728 C 0.21147 0.71708 0.34118
 H2729 H 0.24161 0.68751 0.42573
 H2730 H 0.21053 0.62848 0.39125
 H2731 H 0.24462 0.68924 0.28826
 H2732 H 0.21103 0.74730 0.31841
 H2733 H 0.20336 0.65112 0.35337
 H2734 H 0.23565 0.66732 0.32527
 H2735 H 0.23422 0.71017 0.38803
 H2736 H 0.20324 0.72520 0.35655
 C2737 C 0.77589 0.82366 0.36387
 C2738 C 0.79151 0.82240 0.38360
 C2739 C 0.78712 0.83278 0.40645
 C2740 C 0.76692 0.84434 0.40999
 C2741 C 0.75135 0.84535 0.39026
 C2742 C 0.75570 0.83507 0.36763
 C2743 C 0.77977 0.81288 0.33940
 C2744 C 0.77272 0.82408 0.31761
 C2745 C 0.77017 0.81228 0.29544
 C2746 C 0.77562 0.78910 0.29394
 C2747 C 0.78536 0.77866 0.31509
 C2748 C 0.78727 0.79042 0.33771
 H2749 H 0.79938 0.83160 0.42141
 H2750 H 0.73580 0.85437 0.39218
 H2751 H 0.76188 0.82102 0.28026
 H2752 H 0.78962 0.76083 0.31487
 H2753 H 0.74305 0.83591 0.35304
 H2754 H 0.76733 0.84157 0.31817
 H2755 H 0.80715 0.81364 0.38125
 H2756 H 0.79287 0.78136 0.35424
 C2757 C 0.27142 0.31341 0.86146
 C2758 C 0.28694 0.31229 0.88128
 C2759 C 0.28258 0.32316 0.90386
 C2760 C 0.26251 0.33504 0.90700
 C2761 C 0.24694 0.33572 0.88725
 C2762 C 0.25129 0.32499 0.86488
 C2763 C 0.27552 0.30267 0.83706
 C2764 C 0.26934 0.31429 0.81522
 C2765 C 0.26706 0.30280 0.79285
 C2766 C 0.27187 0.27946 0.79124
 C2767 C 0.28067 0.26848 0.81258
 C2768 C 0.28237 0.27998 0.83538
 H2769 H 0.29481 0.32221 0.91886
 H2770 H 0.23149 0.34496 0.88887
 H2771 H 0.25951 0.31197 0.77748
 H2772 H 0.28436 0.25051 0.81227
 H2773 H 0.23875 0.32573 0.85015
 H2774 H 0.26444 0.33194 0.81585
 H2775 H 0.30253 0.30339 0.87916
 H2776 H 0.28728 0.27062 0.85199
 C2777 C 0.78671 0.36898 0.77894
 C2778 C 0.77705 0.38542 0.76334
 C2779 C 0.78678 0.40730 0.76142
 C2780 C 0.80620 0.41319 0.77536
 C2781 C 0.81483 0.39700 0.79226
 C2782 C 0.80536 0.37502 0.79377
 C2783 C 0.77957 0.34487 0.77682
 C2784 C 0.79451 0.32953 0.76667
 C2785 C 0.78756 0.30720 0.76186
 C2786 C 0.76567 0.29930 0.76785
 C2787 C 0.75086 0.31473 0.77864
 C2788 C 0.75768 0.33741 0.78280
 H2789 H 0.77980 0.41912 0.74797
 H2790 H 0.82936 0.40106 0.80380
 H2791 H 0.79918 0.29663 0.75222
 H2792 H 0.73377 0.30957 0.78317
 H2793 H 0.81302 0.36246 0.80589
 H2794 H 0.81130 0.33519 0.76135
 H2795 H 0.76285 0.38089 0.75147
 H2796 H 0.74586 0.34919 0.79039
 C2797 C 0.28417 0.87206 0.28158
 C2798 C 0.27262 0.88782 0.26689
 C2799 C 0.28142 0.90993 0.26330
 C2800 C 0.30208 0.91707 0.27453
 C2801 C 0.31232 0.90139 0.29121
 C2802 C 0.30368 0.87918 0.29426
 C2803 C 0.27806 0.84758 0.28032
 C2804 C 0.29331 0.83284 0.26969
 C2805 C 0.28722 0.81018 0.26538
 C2806 C 0.26593 0.80128 0.27240
 C2807 C 0.25084 0.81608 0.28375
 C2808 C 0.25675 0.83911 0.28738
 H2809 H 0.27167 0.92129 0.25175
 H2810 H 0.32829 0.90504 0.30021
 H2811 H 0.29893 0.80018 0.25518
 H2812 H 0.23414 0.81014 0.28902
 H2813 H 0.31292 0.86713 0.30558
 H2814 H 0.30960 0.83920 0.26346
 H2815 H 0.25740 0.88263 0.25703
 H2816 H 0.24465 0.85037 0.29535
 C2817 C 0.21813 0.87145 0.74323
 C2818 C 0.21213 0.88169 0.76566
 C2819 C 0.20302 0.90333 0.76563
 C2820 C 0.19988 0.91549 0.74316
 C2821 C 0.20699 0.90573 0.72077
 C2822 C 0.21608 0.88389 0.72081
 C2823 C 0.22436 0.84713 0.74338
 C2824 C 0.21167 0.83146 0.75770
 C2825 C 0.21709 0.80858 0.75853
 C2826 C 0.23544 0.80045 0.74510
 C2827 C 0.24805 0.81614 0.73042
 C2828 C 0.24248 0.83926 0.72947
 H2829 H 0.19748 0.91003 0.78321
 H2830 H 0.20506 0.91474 0.70318
 H2831 H 0.20652 0.79726 0.76966
 H2832 H 0.26223 0.81063 0.71970
 H2833 H 0.22055 0.87635 0.70325
 H2834 H 0.19725 0.83687 0.76812
 H2835 H 0.21378 0.87260 0.78325
 H2836 H 0.25252 0.85103 0.71822
 C2837 C 0.71904 0.37605 0.22428
 C2838 C 0.72967 0.39232 0.23963
 C2839 C 0.72051 0.41392 0.24219
 C2840 C 0.70070 0.41956 0.22927
 C2841 C 0.69123 0.40377 0.21240
 C2842 C 0.70018 0.38215 0.21014
 C2843 C 0.72534 0.35194 0.22592
 C2844 C 0.70934 0.33577 0.23427
 C2845 C 0.71519 0.31320 0.23818
 C2846 C 0.73706 0.30593 0.23310
 C2847 C 0.75299 0.32223 0.22419
 C2848 C 0.74724 0.34509 0.22091
 H2849 H 0.72815 0.42562 0.25542
 H2850 H 0.67634 0.40779 0.20165
 H2851 H 0.70272 0.30190 0.24650
 H2852 H 0.77011 0.31754 0.22045
 H2853 H 0.69183 0.36982 0.19812
 H2854 H 0.69250 0.34086 0.23887
 H2855 H 0.74412 0.38779 0.25088
 H2856 H 0.75987 0.35745 0.21467
 C2857 C 0.71352 0.63959 0.28136
 C2858 C 0.69172 0.63401 0.28970
 C2859 C 0.68330 0.61164 0.28841
 C2860 C 0.69647 0.59435 0.27864
 C2861 C 0.71872 0.59971 0.27152
 C2862 C 0.72720 0.62213 0.27297
 C2863 C 0.72073 0.66380 0.27842
 C2864 C 0.74228 0.67165 0.28565
 C2865 C 0.74917 0.69431 0.28085
 C2866 C 0.73477 0.70944 0.26834
 C2867 C 0.71319 0.70129 0.26132
 C2868 C 0.70622 0.67895 0.26649
 H2869 H 0.66605 0.60814 0.29384
 H2870 H 0.72934 0.58667 0.26419
 H2871 H 0.76601 0.69971 0.28632
 H2872 H 0.70186 0.71164 0.25055
 H2873 H 0.74401 0.62603 0.26626
 H2874 H 0.75382 0.66020 0.29479
 H2875 H 0.68087 0.64717 0.29634
 H2876 H 0.68975 0.67321 0.26006
 C2877 C 0.20110 0.13457 0.77973
 C2878 C 0.21526 0.11578 0.78129
 C2879 C 0.20620 0.09352 0.78169
 C2880 C 0.18277 0.08951 0.78007
 C2881 C 0.16868 0.10843 0.77990
 C2882 C 0.17770 0.13057 0.78013
 C2883 C 0.21037 0.15804 0.77518
 C2884 C 0.19889 0.17276 0.75899
 C2885 C 0.20758 0.19438 0.75342
 C2886 C 0.22833 0.20206 0.76338
 C2887 C 0.23983 0.18745 0.77983
 C2888 C 0.23093 0.16568 0.78569
 H2889 H 0.21765 0.07948 0.78259
 H2890 H 0.15061 0.10635 0.77840
 H2891 H 0.19805 0.20479 0.74063
 H2892 H 0.25577 0.19270 0.78805
 H2893 H 0.16623 0.14462 0.77970
 H2894 H 0.18337 0.16738 0.74990
 H2895 H 0.23336 0.11818 0.78104
 H2896 H 0.24014 0.15484 0.79842
 C2897 C 0.29220 0.13236 0.21240
 C2898 C 0.31542 0.12923 0.20994
 C2899 C 0.32418 0.10744 0.20995
 C2900 C 0.30996 0.08794 0.21151
 C2901 C 0.28652 0.09108 0.21181
 C2902 C 0.27775 0.11303 0.21248
 C2903 C 0.28367 0.15550 0.21749
 C2904 C 0.26260 0.16269 0.20871
 C2905 C 0.25466 0.18422 0.21501
 C2906 C 0.26762 0.19898 0.23022
 C2907 C 0.28879 0.19169 0.23852
 C2908 C 0.29654 0.17035 0.23250
 H2909 H 0.34228 0.10615 0.21000
 H2910 H 0.27488 0.07662 0.21226
 H2911 H 0.23831 0.18915 0.20813
 H2912 H 0.29928 0.20204 0.25065
 H2913 H 0.25977 0.11477 0.21428
 H2914 H 0.25227 0.15171 0.19698
 H2915 H 0.32704 0.14372 0.20905
 H2916 H 0.31248 0.16525 0.24038
 C2917 C 0.78954 0.63372 0.73370
 C2918 C 0.79786 0.62462 0.75616
 C2919 C 0.80627 0.60271 0.75713
 C2920 C 0.80652 0.58925 0.73567
 C2921 C 0.79767 0.59809 0.71323
 C2922 C 0.78908 0.62014 0.71230
 C2923 C 0.78246 0.65772 0.73294
 C2924 C 0.76156 0.66393 0.72298
 C2925 C 0.75400 0.68623 0.72575
 C2926 C 0.76729 0.70267 0.73843
 C2927 C 0.78874 0.69643 0.74702
 C2928 C 0.79621 0.67438 0.74422
 H2929 H 0.81325 0.59660 0.77461
 H2930 H 0.79753 0.58801 0.69644
 H2931 H 0.73741 0.69026 0.71882
 H2932 H 0.79943 0.70804 0.75747
 H2933 H 0.78274 0.62684 0.69478
 H2934 H 0.75065 0.65130 0.71417
 H2935 H 0.79815 0.63466 0.77300
 H2936 H 0.81253 0.67010 0.75181
 C2937 C 0.87136 0.75732 0.21298
 C2938 C 0.89128 0.76097 0.22659
 C2939 C 0.91224 0.75876 0.21517
 C2940 C 0.91392 0.75292 0.18959
 C2941 C 0.89348 0.74816 0.17671
 C2942 C 0.87275 0.75034 0.18818
 C2943 C 0.84896 0.76139 0.22384
 C2944 C 0.83282 0.77248 0.20928
 C2945 C 0.81080 0.77386 0.21741
 C2946 C 0.80422 0.76458 0.24066
 C2947 C 0.82074 0.75477 0.25605
 C2948 C 0.84297 0.75319 0.24770
 H2949 H 0.92683 0.76321 0.22636
 H2950 H 0.89303 0.74181 0.15789
 H2951 H 0.79879 0.78172 0.20495
 H2952 H 0.81632 0.74744 0.27403
 H2953 H 0.85762 0.74646 0.17750
 H2954 H 0.83708 0.77950 0.19110
 H2955 H 0.89065 0.76643 0.24579
 H2956 H 0.85516 0.74462 0.25934
 C2957 C 0.37112 0.25336 0.71806
 C2958 C 0.38380 0.23380 0.72273
 C2959 C 0.40460 0.23121 0.71106
 C2960 C 0.41282 0.24803 0.69441
 C2961 C 0.40086 0.26811 0.69098
 C2962 C 0.38037 0.27087 0.70289
 C2963 C 0.34732 0.25448 0.72613
 C2964 C 0.33127 0.26262 0.70918
 C2965 C 0.30866 0.26270 0.71535
 C2966 C 0.30117 0.25465 0.73878
 C2967 C 0.31722 0.24679 0.75605
 C2968 C 0.34012 0.24660 0.74973
 H2969 H 0.41367 0.21561 0.71397
 H2970 H 0.40713 0.28145 0.67854
 H2971 H 0.29705 0.26898 0.70140
 H2972 H 0.31209 0.24043 0.77422
 H2973 H 0.37130 0.28638 0.69941
 H2974 H 0.33608 0.26835 0.69066
 H2975 H 0.37707 0.21998 0.73422
 H2976 H 0.35215 0.24025 0.76320
 C2977 C 0.36712 0.73838 0.78412
 C2978 C 0.36940 0.72959 0.80856
 C2979 C 0.38981 0.73136 0.82146
 C2980 C 0.40857 0.74273 0.81085
 C2981 C 0.40635 0.75166 0.78645
 C2982 C 0.38602 0.74931 0.77319
 C2983 C 0.34483 0.73686 0.77091
 C2984 C 0.33800 0.75389 0.75390
 C2985 C 0.31584 0.75410 0.74471
 C2986 C 0.29975 0.73765 0.75277
 C2987 C 0.30704 0.72007 0.76876
 C2988 C 0.32929 0.71926 0.77694
 H2989 H 0.39073 0.72369 0.83987
 H2990 H 0.42019 0.76083 0.77759
 H2991 H 0.31097 0.76819 0.73279
 H2992 H 0.29536 0.70758 0.77653
 H2993 H 0.38519 0.75613 0.75438
 H2994 H 0.34926 0.76790 0.74877
 H2995 H 0.35530 0.72165 0.81819
 H2996 H 0.33389 0.70529 0.78913
 C2997 C 0.87251 0.24456 0.28558
 C2998 C 0.87861 0.22625 0.30120
 C2999 C 0.89954 0.22624 0.31312
 C3000 C 0.91503 0.24437 0.30948
 C3001 C 0.90958 0.26203 0.29270
 C3002 C 0.88846 0.26217 0.28091
 C3003 C 0.84894 0.24613 0.27632
 C3004 C 0.84378 0.25437 0.25222
 C3005 C 0.82129 0.25620 0.24436
 C3006 C 0.80358 0.24994 0.26050
 C3007 C 0.80898 0.24178 0.28457
 C3008 C 0.83122 0.23993 0.29230
 H3009 H 0.90351 0.21219 0.32554
 H3010 H 0.92124 0.27623 0.28960
 H3011 H 0.81782 0.26261 0.22577
 H3012 H 0.79605 0.23665 0.29772
 H3013 H 0.88423 0.27657 0.26913
 H3014 H 0.85711 0.25925 0.23945
 H3015 H 0.86693 0.21214 0.30470
 H3016 H 0.83450 0.23401 0.31115
 C3017 C 0.12923 0.25339 0.28277
 C3018 C 0.12140 0.27265 0.29506
 C3019 C 0.10058 0.27197 0.30695
 C3020 C 0.08706 0.25198 0.30687
 C3021 C 0.09440 0.23306 0.29351
 C3022 C 0.11526 0.23379 0.28151
 C3023 C 0.15279 0.25307 0.27383
 C3024 C 0.15841 0.24383 0.25067
 C3025 C 0.18098 0.24311 0.24320
 C3026 C 0.19832 0.25139 0.25891
 C3027 C 0.19244 0.26038 0.28217
 C3028 C 0.17008 0.26136 0.28938
 H3029 H 0.09553 0.28678 0.31717
 H3030 H 0.08421 0.21753 0.29277
 H3031 H 0.18482 0.23583 0.22534
 H3032 H 0.20509 0.26689 0.29501
 H3033 H 0.12091 0.21867 0.27227
 H3034 H 0.14536 0.23723 0.23835
 H3035 H 0.13175 0.28807 0.29613
 H3036 H 0.16635 0.26817 0.30754
 C3037 C 0.62554 0.75146 0.78477
 C3038 C 0.61476 0.73106 0.79266
 C3039 C 0.59372 0.73131 0.80397
 C3040 C 0.58275 0.75197 0.80749
 C3041 C 0.59301 0.77228 0.79842
 C3042 C 0.61420 0.77203 0.78719
 C3043 C 0.64928 0.75130 0.77631
 C3044 C 0.65703 0.76518 0.75645
 C3045 C 0.67976 0.76528 0.74955
 C3046 C 0.69524 0.75166 0.76251
 C3047 C 0.68719 0.73781 0.78234
 C3048 C 0.66466 0.73763 0.78907
 H3049 H 0.58649 0.71536 0.81086
 H3050 H 0.58486 0.78845 0.80040
 H3051 H 0.68512 0.77647 0.73453
 H3052 H 0.69836 0.72730 0.79328
 H3053 H 0.62210 0.78803 0.78139
 H3054 H 0.64554 0.77595 0.74628
 H3055 H 0.62292 0.71488 0.79071
 H3056 H 0.65941 0.72718 0.80487
 C3057 C 0.62633 0.24207 0.71681
 C3058 C 0.61455 0.22119 0.71404
 C3059 C 0.59330 0.22045 0.70255
 C3060 C 0.58344 0.24057 0.69360
 C3061 C 0.59491 0.26149 0.69742
 C3062 C 0.61597 0.26223 0.70901
 C3063 C 0.65010 0.24295 0.72553
 C3064 C 0.66561 0.25720 0.71295
 C3065 C 0.68804 0.25825 0.72028
 C3066 C 0.69590 0.24507 0.74054
 C3067 C 0.68039 0.23061 0.75314
 C3068 C 0.65771 0.22951 0.74564
 H3069 H 0.58477 0.20408 0.70032
 H3070 H 0.58808 0.27732 0.69057
 H3071 H 0.69927 0.26929 0.70957
 H3072 H 0.68568 0.21985 0.76842
 H3073 H 0.62447 0.27863 0.71122
 H3074 H 0.66048 0.26729 0.69694
 H3075 H 0.62215 0.20537 0.71980
 H3076 H 0.64611 0.21826 0.75562
 C3077 C 0.12760 0.74043 0.22702
 C3078 C 0.11501 0.76028 0.22857
 C3079 C 0.09398 0.76147 0.21681
 C3080 C 0.08512 0.74277 0.20344
 C3081 C 0.09715 0.72246 0.20327
 C3082 C 0.11817 0.72132 0.21490
 C3083 C 0.15148 0.74053 0.23510
 C3084 C 0.16769 0.73259 0.21872
 C3085 C 0.19044 0.73424 0.22476
 C3086 C 0.19773 0.74349 0.24765
 C3087 C 0.18144 0.75108 0.26434
 C3088 C 0.15851 0.74976 0.25803
 H3089 H 0.08493 0.77723 0.21756
 H3090 H 0.09086 0.70781 0.19302
 H3091 H 0.20230 0.72830 0.21124
 H3092 H 0.18638 0.75849 0.28199
 H3093 H 0.12749 0.70575 0.21361
 H3094 H 0.16282 0.72580 0.20072
 H3095 H 0.12195 0.77529 0.23768
 H3096 H 0.14629 0.75606 0.27095
   
