data_POSCAR
  _audit_creation_date              2014-09-24
  _audit_creation_method            'ToBaCCo'
  _symmetry_space_group_name_H-M    'P1'
  _symmetry_Int_Tables_number       1
  _symmetry_cell_setting            triclinic
  loop_
  _symmetry_equiv_pos_as_xyz
 x,y,z
_cell_length_a 33.4078
_cell_length_b 32.7863
_cell_length_c 39.4437
_cell_angle_alpha 89.810200
_cell_angle_beta 89.845100
_cell_angle_gamma 90.064500
loop_
  _atom_site_label
  _atom_site_type_symbol
  _atom_site_fract_x
  _atom_site_fract_y
  _atom_site_fract_z
B1 B 0.25988 0.23794 0.21435
 B2 B 0.26308 0.28750 0.22560
 B3 B 0.21793 0.26604 0.22000
 B4 B 0.22017 0.21783 0.23435
 B5 B 0.26745 0.20943 0.24918
 B6 B 0.29423 0.25303 0.24331
 B7 B 0.23296 0.26994 0.28740
 B8 B 0.22964 0.22041 0.27608
 B9 B 0.27488 0.24181 0.28168
 B10 B 0.27271 0.29023 0.26732
 B11 B 0.22535 0.29848 0.25252
 B12 B 0.19861 0.25494 0.25839
 B13 B 0.73163 0.76638 0.28558
 B14 B 0.77977 0.77175 0.27311
 B15 B 0.76095 0.72493 0.28027
 B16 B 0.71305 0.72443 0.26693
 B17 B 0.70243 0.77183 0.25128
 B18 B 0.74408 0.80124 0.25552
 B19 B 0.76239 0.73849 0.21260
 B20 B 0.71423 0.73312 0.22496
 B21 B 0.73311 0.77993 0.21795
 B22 B 0.78092 0.78033 0.23127
 B23 B 0.79154 0.73294 0.24688
 B24 B 0.74993 0.70356 0.24266
 B25 B 0.73644 0.23654 -0.28959
 B26 B 0.78483 0.23117 -0.27827
 B27 B 0.76575 0.27805 -0.28424
 B28 B 0.71822 0.27790 -0.26994
 B29 B 0.70806 0.23013 -0.25478
 B30 B 0.74963 0.20102 -0.26031
 B31 B 0.76878 0.26289 -0.21688
 B32 B 0.72044 0.26830 -0.22819
 B33 B 0.73945 0.22143 -0.22219
 B34 B 0.78701 0.22149 -0.23653
 B35 B 0.79713 0.26937 -0.25163
 B36 B 0.75555 0.29842 -0.24609
 B37 B 0.28164 0.76381 -0.27770
 B38 B 0.23567 0.78313 -0.27104
 B39 B 0.24085 0.73390 -0.28255
 B40 B 0.28183 0.71513 -0.26333
 B41 B 0.30226 0.75318 -0.23974
 B42 B 0.27353 0.79557 -0.24483
 B43 B 0.22701 0.73634 -0.21487
 B44 B 0.27308 0.71704 -0.22138
 B45 B 0.26793 0.76630 -0.20991
 B46 B 0.22706 0.78489 -0.22902
 B47 B 0.20653 0.74707 -0.25285
 B48 B 0.23512 0.70466 -0.24778
 B49 B 1.22123 1.26805 0.78067
 B50 B 1.26706 1.28776 0.77373
 B51 B 1.26226 1.23852 0.78565
 B52 B 1.22140 1.21953 0.76686
 B53 B 1.20051 1.25713 0.74286
 B54 B 1.22898 1.29985 0.74752
 B55 B 1.27555 1.24075 0.71793
 B56 B 1.22973 1.22111 0.72486
 B57 B 1.23454 1.27033 0.71286
 B58 B 1.27541 1.28936 0.73164
 B59 B 1.29629 1.25176 0.75567
 B60 B 1.26788 1.20910 0.75110
 B61 B 0.76065 0.73733 0.71408
 B62 B 0.76431 0.78694 0.72511
 B63 B 0.71900 0.76602 0.71885
 B64 B 0.72015 0.71778 0.73357
 B65 B 0.76706 0.70908 0.74915
 B66 B 0.79451 0.75222 0.74356
 B67 B 0.73237 0.77030 0.78646
 B68 B 0.72869 0.72072 0.77538
 B69 B 0.77406 0.74157 0.78164
 B70 B 0.77290 0.78987 0.76699
 B71 B 0.72603 0.79866 0.75131
 B72 B 0.69852 0.75549 0.75694
 B73 B 1.22297 0.74060 0.21522
 B74 B 1.27055 0.72346 0.21721
 B75 B 1.26213 0.77280 0.20923
 B76 B 1.22221 0.78752 0.23196
 B77 B 1.20562 0.74679 0.25459
 B78 B 1.23579 0.70624 0.24517
 B79 B 1.28176 0.76486 0.27556
 B80 B 1.23477 0.78263 0.27281
 B81 B 1.24268 0.73266 0.28120
 B82 B 1.28302 0.71756 0.25842
 B83 B 1.29971 0.75884 0.23583
 B84 B 1.26979 0.79897 0.24500
 B85 B 0.76748 1.25938 0.21760
 B86 B 0.72060 1.26952 0.23166
 B87 B 0.73597 1.22077 0.22669
 B88 B 0.78434 1.21751 0.23857
 B89 B 0.79886 1.26461 0.24991
 B90 B 0.75946 1.29737 0.24573
 B91 B 0.73948 1.24017 0.29388
 B92 B 0.78619 1.22980 0.27993
 B93 B 0.77167 1.27940 0.28398
 B94 B 0.72303 1.28200 0.27321
 B95 B 0.70802 1.23403 0.26069
 B96 B 0.74733 1.20186 0.26557
 O97 O 0.55302 1.07628 0.06314
 O98 O 0.59826 1.03865 0.03241
 C99 C 0.58925 1.06522 0.05585
 O100 O 0.44073 0.92982 0.05602
 O101 O 0.39617 0.97046 0.02737
 C102 C 0.40464 0.94044 0.04794
 O103 O 0.55107 0.93334 0.06151
 O104 O 0.59727 0.96935 0.03024
 C105 C 0.58759 0.94284 0.05346
 O106 O 0.44303 1.08167 0.05920
 O107 O 0.39722 1.04546 0.02813
 C108 C 0.40659 1.07316 0.05051
 Zr109 Zr 0.49796 1.05724 0.04287
 O110 O 0.49320 1.05577 0.09641
 O111 O 0.50353 1.12161 0.04281
 Zr112 Zr 0.49624 0.95551 0.04266
 O113 O 0.49354 0.96232 0.09587
 O114 O 0.49680 0.89131 0.04805
 O115 O 0.53322 1.00560 0.04961
 O116 O 0.46138 1.00678 0.04874
 O117 O 0.44478 1.08345 -0.05853
 O118 O 0.39813 1.04602 -0.02896
 C119 C 0.40814 1.07451 -0.05058
 O120 O 0.55191 0.93476 -0.06215
 O121 O 0.59780 0.96900 -0.02970
 C122 C 0.58836 0.94297 -0.05343
 O123 O 0.44222 0.93372 -0.05963
 O124 O 0.39667 0.97118 -0.02919
 C125 C 0.40591 0.94317 -0.05133
 O126 O 0.55529 1.07678 -0.06147
 O127 O 0.59944 1.03998 -0.02905
 C128 C 0.59127 1.06609 -0.05297
 Zr129 Zr 0.49932 1.05791 -0.04242
 O130 O 0.49772 1.05334 -0.09584
 O131 O 0.50489 1.12218 -0.04444
 Zr132 Zr 0.49735 0.95619 -0.04276
 O133 O 0.49441 0.95859 -0.09636
 O134 O 0.49976 0.89165 -0.04330
 Zr135 Zr 0.55838 1.00546 0.00048
 Zr136 Zr 0.43702 1.00773 -0.00035
 O137 O 0.46285 1.00780 -0.04903
 O138 O 0.53466 1.00643 -0.04893
 O139 O 0.46295 1.06644 -0.00002
 O140 O 0.53158 0.94741 0.00014
 O141 O 0.53392 1.06455 0.00054
 O142 O 0.46105 0.94824 -0.00039
 H143 H 0.44266 1.00657 0.06828
 H144 H 0.54885 0.92288 0.00003
 H145 H 0.44489 1.00836 -0.06898
 H146 H 0.55231 1.08828 0.00080
 H147 H 0.50197 0.87985 0.02535
 H148 H 0.47794 0.88140 -0.02852
 H149 H 0.51575 0.97732 -0.10431
 H150 H 0.49828 1.08168 -0.10464
 H151 H 0.48584 1.13355 -0.02777
 H152 H 0.48124 1.13287 0.02926
 H153 H 0.51400 1.03694 0.10499
 H154 H 0.49196 0.93434 0.10533
 O155 O 1.05685 0.58057 0.56249
 O156 O 1.10289 0.54479 0.53115
 C157 C 1.09335 0.57147 0.55427
 O158 O 0.94694 0.43306 0.55932
 O159 O 0.90169 0.47229 0.53012
 C160 C 0.91066 0.44368 0.55172
 O161 O 1.05691 0.43690 0.56301
 O162 O 1.10297 0.47292 0.53162
 C163 C 1.09336 0.44598 0.55476
 O164 O 0.94676 0.58340 0.55947
 O165 O 0.90151 0.54592 0.52880
 C166 C 0.91046 0.57401 0.55100
 Zr167 Zr 1.00195 0.55972 0.54310
 O168 O 0.99776 0.55865 0.59669
 O169 O 1.00591 0.62419 0.54288
 Zr170 Zr 1.00226 0.45815 0.54398
 O171 O 1.00073 0.46576 0.59715
 O172 O 1.00156 0.39383 0.54912
 O173 O 1.03852 0.50909 0.55028
 O174 O 0.96647 0.50872 0.54961
 O175 O 0.94679 0.58199 0.44092
 O176 O 0.90174 0.54269 0.47066
 C177 C 0.91054 0.57080 0.44851
 O178 O 1.05819 0.43707 0.43957
 O179 O 1.10376 0.47282 0.47111
 C180 C 1.09452 0.44612 0.44783
 O181 O 0.94952 0.43369 0.44297
 O182 O 0.90178 0.46782 0.47338
 C183 C 0.91283 0.43917 0.45233
 O184 O 1.05808 0.58010 0.43886
 O185 O 1.10354 0.54436 0.47086
 C186 C 1.09450 0.57074 0.44725
 Zr187 Zr 1.00250 0.55959 0.45806
 O188 O 0.99857 0.55895 0.40449
 O189 O 1.00629 0.62408 0.45813
 Zr190 Zr 1.00355 0.45805 0.45871
 O191 O 0.99936 0.45963 0.40511
 O192 O 1.00756 0.39366 0.45813
 Zr193 Zr 1.06359 0.50887 0.50109
 Zr194 Zr 0.94160 0.50802 0.50067
 O195 O 0.96756 0.50817 0.45199
 O196 O 1.03943 0.50902 0.45172
 O197 O 0.96604 0.56748 0.50042
 O198 O 1.03790 0.45038 0.50151
 O199 O 1.03737 0.56734 0.50066
 O200 O 0.96736 0.44937 0.50117
 H201 H 0.94826 0.50880 0.56949
 H202 H 1.05572 0.42628 0.50136
 H203 H 0.94972 0.50731 0.43197
 H204 H 1.05490 0.59174 0.50057
 H205 H 1.01795 0.38224 0.53063
 H206 H 0.99071 0.38338 0.47697
 H207 H 1.02330 0.47388 0.39617
 H208 H 1.02163 0.54326 0.39574
 H209 H 0.98283 0.63463 0.47067
 H210 H 0.98437 0.63470 0.52811
 H211 H 1.01958 0.54107 0.60530
 H212 H 0.99952 0.43794 0.60699
 O213 O 0.92494 0.44569 -0.06305
 O214 O 0.95843 0.39853 -0.03072
 C215 C 0.93324 0.40845 -0.05456
 O216 O 1.06935 0.55682 -0.05656
 O217 O 1.03078 0.60303 -0.02759
 C218 C 1.05920 0.59382 -0.04906
 O219 O 1.06500 0.44494 -0.06010
 O220 O 1.02712 0.39825 -0.03056
 C221 C 1.05437 0.40788 -0.05303
 O222 O 0.92289 0.55841 -0.05980
 O223 O 0.96024 0.60390 -0.02902
 C224 C 0.93318 0.59523 -0.05159
 Zr225 Zr 0.94487 0.50153 -0.04320
 O226 O 0.94837 0.50662 -0.09668
 O227 O 0.88164 0.49773 -0.04542
 Zr228 Zr 1.04513 0.50078 -0.04035
 O229 O 1.04794 0.50614 -0.09382
 O230 O 1.10823 0.49548 -0.03732
 O231 O 0.99493 0.46443 -0.04878
 O232 O 0.99553 0.53696 -0.04781
 O233 O 0.91770 0.55610 0.05773
 O234 O 0.95587 0.60296 0.02872
 C235 C 0.92737 0.59324 0.04999
 O236 O 1.06041 0.44307 0.06384
 O237 O 1.02587 0.39726 0.03107
 C238 C 1.05104 0.40622 0.05514
 O239 O 1.06397 0.55553 0.06255
 O240 O 1.02792 0.60244 0.03203
 C241 C 1.05451 0.59275 0.05482
 O242 O 0.91981 0.44384 0.06020
 O243 O 0.95591 0.39762 0.02913
 C244 C 0.92901 0.40677 0.05197
 Zr245 Zr 0.94131 0.50011 0.04177
 O246 O 0.94049 0.50400 0.09537
 O247 O 0.87805 0.49614 0.04048
 Zr248 Zr 1.04156 0.49962 0.04448
 O249 O 1.03883 0.50318 0.09805
 O250 O 1.10477 0.49493 0.04570
 Zr251 Zr 0.99261 0.43850 0.00028
 Zr252 Zr 0.99366 0.56242 0.00110
 O253 O 0.99135 0.53566 0.04964
 O254 O 0.99089 0.46291 0.04968
 O255 O 0.93537 0.53759 -0.00067
 O256 O 1.05038 0.46415 0.00198
 O257 O 0.93535 0.46519 -0.00117
 O258 O 1.05164 0.53707 0.00254
 H259 H 0.99647 0.55522 -0.06786
 H260 H 1.07384 0.44570 0.00232
 H261 H 0.99041 0.55362 0.06979
 H262 H 0.91130 0.44750 -0.00183
 H263 H 1.11847 0.51935 -0.02475
 H264 H 1.11590 0.51834 0.03289
 H265 H 1.02258 0.47993 0.10629
 H266 H 0.95450 0.47979 0.10449
 H267 H 0.86819 0.51832 0.02567
 H268 H 0.87061 0.52001 -0.03140
 H269 H 0.96263 0.48232 -0.10531
 H270 H 1.03031 0.48493 -0.10346
 O271 O 0.42861 1.06265 0.43897
 O272 O 0.46672 1.10805 0.46921
 C273 C 0.43902 1.09942 0.44712
 O274 O 0.42910 0.94824 0.55953
 O275 O 0.46436 0.90221 0.52750
 C276 C 0.43862 0.91127 0.55133
 O277 O 0.42665 1.06040 0.55739
 O278 O 0.46573 1.10681 0.52882
 C279 C 0.43748 1.09743 0.55037
 O280 O 0.43182 0.94991 0.43432
 O281 O 0.46725 0.90297 0.46548
 C282 C 0.44179 0.91270 0.44178
 Zr283 Zr 0.45125 1.00592 0.45487
 O284 O 0.38801 1.00163 0.45387
 O285 O 0.45350 1.01180 0.40141
 Zr286 Zr 0.44913 1.00436 0.53978
 O287 O 0.38596 1.00003 0.53647
 O288 O 0.44608 1.00807 0.59327
 O289 O 0.44261 1.04213 0.49766
 O290 O 0.44263 0.96912 0.49686
 O291 O 0.57260 0.94932 0.43773
 O292 O 0.53580 0.90245 0.46789
 C293 C 0.56289 0.91215 0.44536
 O294 O 0.57320 1.05897 0.55825
 O295 O 0.53759 1.10655 0.52807
 C296 C 0.56489 1.09630 0.55009
 O297 O 0.56893 0.94640 0.55982
 O298 O 0.53251 0.90100 0.52819
 C299 C 0.55860 0.90964 0.55160
 O300 O 0.57871 1.06157 0.44394
 O301 O 0.53921 1.10784 0.47211
 C302 C 0.56924 1.09850 0.45247
 Zr303 Zr 0.55122 1.00539 0.45600
 O304 O 0.61413 1.00253 0.45075
 O305 O 0.54650 1.01161 0.40264
 Zr306 Zr 0.54964 1.00330 0.54129
 O307 O 0.61289 0.99894 0.54255
 O308 O 0.54724 1.00665 0.59490
 Zr309 Zr 0.50109 1.06660 0.49889
 Zr310 Zr 0.50008 0.94284 0.49753
 O311 O 0.55776 0.96867 0.49839
 O312 O 0.55881 1.04049 0.49931
 O313 O 0.50123 0.96880 0.44842
 O314 O 0.49971 1.03946 0.54730
 O315 O 0.50183 1.04201 0.44968
 O316 O 0.49894 0.96707 0.54700
 H317 H 0.41906 0.95076 0.49632
 H318 H 0.49975 1.05720 0.56759
 H319 H 0.58145 0.95052 0.49881
 H320 H 0.50297 1.06128 0.43029
 H321 H 0.46576 0.98853 0.60251
 H322 H 0.53311 0.98207 0.60332
 H323 H 0.62386 1.02121 0.52826
 H324 H 0.62521 0.99963 0.47382
 H325 H 0.53937 0.98466 0.39317
 H326 H 0.46968 0.98893 0.39254
 H327 H 0.37725 1.02352 0.46846
 H328 H 0.37588 1.02554 0.52613
 O329 O 1.07125 0.92057 0.45303
 O330 O 1.03607 0.96050 0.41569
 C331 C 1.06190 0.93232 0.42269
 O332 O 0.92791 0.92816 0.54769
 O333 O 0.96695 0.96449 0.58482
 C334 C 0.93803 0.93956 0.57795
 O335 O 0.93365 0.92130 0.45291
 O336 O 0.97023 0.96004 0.41537
 C337 C 0.94482 0.93145 0.42253
 O338 O 1.07507 0.92477 0.54739
 O339 O 1.03722 0.96242 0.58443
 C340 C 1.06509 0.93611 0.57769
 Zr341 Zr 1.05232 0.94377 0.50014
 O342 O 1.05023 0.87937 0.50461
 O343 O 1.11549 0.94206 0.49640
 Zr344 Zr 0.95136 0.94508 0.50007
 O345 O 0.94944 0.88086 0.50524
 O346 O 0.88822 0.94594 0.49571
 O347 O 1.00193 0.93621 0.47001
 O348 O 1.00168 0.93712 0.52973
 O349 O 1.07518 1.06789 0.54647
 O350 O 1.03775 1.03020 0.58399
 C351 C 1.06508 1.05704 0.57691
 O352 O 0.93860 1.07339 0.45188
 O353 O 0.97177 1.03220 0.41419
 C354 C 0.94966 1.06338 0.42146
 O355 O 0.93010 1.06748 0.54649
 O356 O 0.96898 1.03134 0.58387
 C357 C 0.94172 1.05799 0.57682
 O358 O 1.07102 1.07078 0.45208
 O359 O 1.03609 1.03046 0.41509
 C360 C 1.06121 1.05939 0.42182
 Zr361 Zr 1.05351 1.04710 0.49951
 O362 O 1.05558 1.11157 0.50268
 O363 O 1.11671 1.04469 0.49564
 Zr364 Zr 0.95199 1.04728 0.49935
 O365 O 0.94510 1.11127 0.50166
 O366 O 0.88917 1.04071 0.49670
 Zr367 Zr 1.00265 0.99572 0.44961
 Zr368 Zr 1.00270 0.99635 0.54999
 O369 O 1.00276 1.05513 0.52855
 O370 O 1.00304 1.05520 0.46972
 O371 O 1.06105 0.99559 0.52987
 O372 O 0.94440 0.99627 0.46977
 O373 O 1.06050 0.99531 0.47051
 O374 O 0.94415 0.99658 0.53006
 H375 H 1.00119 0.91359 0.54557
 H376 H 0.92171 0.99680 0.45363
 H377 H 1.00296 1.07944 0.54340
 H378 H 1.08402 0.99530 0.45515
 H379 H 0.87798 0.96587 0.51238
 H380 H 0.87829 1.06875 0.49541
 H381 H 0.97218 1.12302 0.49924
 H382 H 1.03761 1.12273 0.48503
 H383 H 1.12687 1.03132 0.51642
 H384 H 1.12613 0.96142 0.51331
 H385 H 1.03573 0.86862 0.48470
 H386 H 0.96803 0.86946 0.48822
 O387 O 0.57196 0.41646 -0.04034
 O388 O 0.53965 0.45493 -0.08058
 C389 C 0.56283 0.42541 -0.07147
 O390 O 0.42363 0.42956 0.04614
 O391 O 0.45949 0.46705 0.08469
 C392 C 0.43110 0.44218 0.07660
 O393 O 0.43496 0.42056 -0.04801
 O394 O 0.47423 0.45779 -0.08431
 C395 C 0.44701 0.43065 -0.07813
 O396 O 0.57051 0.42604 0.05397
 O397 O 0.52949 0.46392 0.08841
 C398 C 0.55754 0.43708 0.08350
 Zr399 Zr 0.55164 0.44337 0.00537
 O400 O 0.55331 0.37929 0.01137
 O401 O 0.61478 0.44686 0.00660
 Zr402 Zr 0.45113 0.44448 -0.00045
 O403 O 0.45141 0.38023 0.00595
 O404 O 0.38838 0.44363 -0.00767
 O405 O 0.50355 0.43445 -0.02730
 O406 O 0.49872 0.43769 0.03228
 O407 O 0.57270 0.56664 0.05004
 O408 O 0.52971 0.53317 0.08619
 C409 C 0.55850 0.55867 0.07997
 O410 O 0.43873 0.56927 -0.05258
 O411 O 0.47558 0.52701 -0.08679
 C412 C 0.44985 0.55609 -0.08201
 O413 O 0.42397 0.56567 0.03969
 O414 O 0.45718 0.53151 0.08185
 C415 C 0.42854 0.55486 0.07094
 O416 O 0.57687 0.56609 -0.04453
 O417 O 0.54366 0.52533 -0.08257
 C418 C 0.56954 0.55328 -0.07499
 Zr419 Zr 0.55343 0.54595 0.00230
 O420 O 0.54991 0.61028 0.00121
 O421 O 0.61675 0.54675 0.00331
 Zr422 Zr 0.45404 0.54815 -0.00408
 O423 O 0.46347 0.61196 -0.00322
 O424 O 0.39191 0.55698 -0.01092
 Zr425 Zr 0.50620 0.49306 -0.04937
 Zr426 Zr 0.49777 0.49755 0.05131
 O427 O 0.50090 0.55572 0.02901
 O428 O 0.50652 0.55346 -0.03162
 O429 O 0.55766 0.49576 0.03460
 O430 O 0.44706 0.49518 -0.03154
 O431 O 0.56231 0.49305 -0.02533
 O432 O 0.44187 0.49772 0.02665
 H433 H 0.49687 0.41453 0.04843
 H434 H 0.42456 0.49517 -0.04785
 H435 H 0.49911 0.57985 0.04401
 H436 H 0.58694 0.49135 -0.03929
 H437 H 0.37673 0.46387 0.00805
 H438 H 0.37923 0.52984 -0.00891
 H439 H 0.43658 0.62463 -0.00405
 H440 H 0.57784 0.62034 0.00257
 H441 H 0.62526 0.52420 0.01837
 H442 H 0.62448 0.41832 0.00712
 H443 H 0.53288 0.36770 -0.00391
 H444 H 0.46583 0.36832 -0.01359
 C445 C 0.32528 1.18251 0.14610
 C446 C 0.29668 1.16791 0.12424
 C447 C 0.25633 1.17717 0.12810
 C448 C 0.24502 1.20153 0.15586
 C449 C 0.27376 1.21656 0.17932
 C450 C 0.31473 1.20697 0.17372
 O451 O 0.36177 1.16897 0.13903
 C452 C 0.35610 1.14522 0.11225
 C453 C 0.31688 1.14325 0.10207
 C454 C 0.30460 1.11856 0.07521
 C455 C 0.33396 1.09524 0.05818
 C456 C 0.37473 1.09703 0.06816
 C457 C 0.38554 1.12264 0.09570
 H458 H 0.23409 1.16501 0.11097
 H459 H 0.21358 1.20681 0.15968
 H460 H 0.33780 1.21670 0.19112
 H461 H 0.27348 1.11708 0.06777
 H462 H 0.32495 1.07601 0.03727
 H463 H 0.41613 1.12478 0.10449
 C464 C 0.82722 0.68196 0.64651
 C465 C 0.79892 0.66678 0.62465
 C466 C 0.75843 0.67543 0.62835
 C467 C 0.74665 0.69986 0.65592
 C468 C 0.77508 0.71561 0.67934
 C469 C 0.81620 0.70651 0.67396
 O470 O 0.86394 0.66900 0.63954
 C471 C 0.85872 0.64502 0.61282
 C472 C 0.81955 0.64236 0.60260
 C473 C 0.80772 0.61742 0.57576
 C474 C 0.83749 0.59464 0.55874
 C475 C 0.87822 0.59723 0.56870
 C476 C 0.88856 0.62297 0.59629
 H477 H 0.73644 0.66279 0.61122
 H478 H 0.71512 0.70462 0.65964
 H479 H 0.83904 0.71684 0.69133
 H480 H 0.77665 0.61537 0.56828
 H481 H 0.82885 0.57522 0.53785
 H482 H 0.91911 0.62562 0.60511
 C483 C 0.67102 0.83518 0.14780
 C484 C 0.69729 0.86522 0.13777
 C485 C 0.73457 0.87030 0.15252
 C486 C 0.74541 0.84302 0.17832
 C487 C 0.71974 0.81026 0.18816
 C488 C 0.68153 0.80711 0.17291
 O489 O 0.63591 0.83748 0.13231
 C490 C 0.64026 0.86953 0.11198
 C491 C 0.67737 0.88742 0.11409
 C492 C 0.68791 0.92192 0.09541
 C493 C 0.65871 0.93908 0.07413
 C494 C 0.61970 0.92208 0.07255
 C495 C 0.61075 0.88632 0.09140
 H496 H 0.75430 0.89493 0.14497
 H497 H 0.77411 0.84753 0.19040
 H498 H 0.65994 0.78447 0.18080
 H499 H 0.71736 0.93546 0.09749
 H500 H 0.66612 0.96623 0.05978
 H501 H 0.58133 0.87245 0.09080
 C502 C 1.17049 0.32964 0.64667
 C503 C 1.19936 0.34354 0.62454
 C504 C 1.23907 0.33145 0.62692
 C505 C 1.24964 0.30538 0.65382
 C506 C 1.22071 0.29138 0.67779
 C507 C 1.18020 0.30314 0.67324
 O508 O 1.13488 0.34616 0.64119
 C509 C 1.14145 0.37109 0.61517
 C510 C 1.18035 0.37088 0.60390
 C511 C 1.19353 0.39608 0.57749
 C512 C 1.16523 0.42182 0.56170
 C513 C 1.12473 0.42199 0.57263
 C514 C 1.11317 0.39635 0.60010
 H515 H 1.26150 0.34304 0.60952
 H516 H 1.28084 0.29836 0.65679
 H517 H 1.15709 0.29412 0.69103
 H518 H 1.22444 0.39582 0.56923
 H519 H 1.17468 0.44098 0.54074
 H520 H 1.08270 0.39561 0.60953
 C521 C 0.67705 1.16731 -0.15111
 C522 C 0.70281 1.13709 -0.14078
 C523 C 0.74007 1.13140 -0.15578
 C524 C 0.75133 1.15830 -0.18198
 C525 C 0.72594 1.19099 -0.19221
 C526 C 0.68769 1.19442 -0.17688
 O527 O 0.64219 1.16644 -0.13501
 C528 C 0.64603 1.13509 -0.11396
 C529 C 0.68255 1.11602 -0.11626
 C530 C 0.69209 1.08171 -0.09692
 C531 C 0.66253 1.06617 -0.07479
 C532 C 0.62428 1.08486 -0.07273
 C533 C 0.61645 1.12025 -0.09233
 H534 H 0.75958 1.10681 -0.14794
 H535 H 0.78004 1.15360 -0.19412
 H536 H 0.66599 1.21663 -0.18509
 H537 H 0.72094 1.06698 -0.09924
 H538 H 0.66893 1.03887 -0.06025
 H539 H 0.58763 1.13531 -0.09157
 C540 C 1.17866 0.67637 0.35006
 C541 C 1.20743 0.65817 0.36980
 C542 C 1.24815 0.66440 0.36397
 C543 C 1.25943 0.68979 0.33657
 C544 C 1.23026 0.70881 0.31560
 C545 C 1.18915 0.70167 0.32298
 O546 O 1.14168 0.66585 0.35867
 C547 C 1.14702 0.64032 0.38439
 C548 C 1.18661 0.63432 0.39240
 C549 C 1.19834 0.60766 0.41820
 C550 C 1.16811 0.58663 0.43635
 C551 C 1.12702 0.59246 0.42844
 C552 C 1.11676 0.61994 0.40197
 H553 H 1.27051 0.64940 0.37939
 H554 H 1.29087 0.69312 0.33109
 H555 H 1.16550 0.71455 0.30765
 H556 H 1.22963 0.60308 0.42410
 H557 H 1.17672 0.56590 0.45647
 H558 H 1.08592 0.62532 0.39488
 C559 C 0.32983 0.83057 -0.14582
 C560 C 0.30193 0.83933 -0.12121
 C561 C 0.26377 0.82245 -0.12156
 C562 C 0.25372 0.79672 -0.14878
 C563 C 0.28161 0.78800 -0.17515
 C564 C 0.32064 0.80486 -0.17282
 O565 O 0.36405 0.85033 -0.14169
 C566 C 0.35767 0.87210 -0.11394
 C567 C 0.32019 0.86679 -0.10022
 C568 C 0.30771 0.88765 -0.07119
 C569 C 0.33533 0.91422 -0.05543
 C570 C 0.37441 0.91935 -0.06896
 C571 C 0.38511 0.89824 -0.09899
 H572 H 0.24202 0.82977 -0.10213
 H573 H 0.22360 0.78540 -0.14969
 H574 H 0.34293 0.79988 -0.19233
 H575 H 0.27801 0.88326 -0.06080
 H576 H 0.32672 0.92974 -0.03234
 H577 H 0.41450 0.90143 -0.11036
 C578 C 0.80529 0.35606 0.35708
 C579 C 0.84472 0.34518 0.35616
 C580 C 0.86282 0.32738 0.32864
 C581 C 0.83816 0.31469 0.30261
 C582 C 0.79563 0.31243 0.30742
 C583 C 0.77857 0.33726 0.33373
 O584 O 0.79789 0.38258 0.38236
 C585 C 0.83344 0.38570 0.39822
 C586 C 0.86121 0.36012 0.38416
 C587 C 0.89685 0.35004 0.39930
 C588 C 0.90675 0.37106 0.42836
 C589 C 0.88578 0.40728 0.43750
 C590 C 0.84615 0.41296 0.42426
 H591 H 0.89498 0.32357 0.32716
 H592 H 0.85360 0.30064 0.28162
 H593 H 0.74649 0.34025 0.33663
 H594 H 0.91592 0.32610 0.38948
 H595 H 0.93463 0.36274 0.44047
 H596 H 0.82782 0.43862 0.43172
 C597 C 1.15972 0.32465 0.14891
 C598 C 1.12991 0.29728 0.14111
 C599 C 1.12630 0.25992 0.15753
 C600 C 1.15462 0.25036 0.18261
 C601 C 1.18662 0.27757 0.19052
 C602 C 1.18835 0.31567 0.17354
 O603 O 1.15678 0.35940 0.13186
 C604 C 1.12452 0.35385 0.11287
 C605 C 1.10687 0.31635 0.11732
 C606 C 1.07186 0.30517 0.10041
 C607 C 1.05413 0.33412 0.07855
 C608 C 1.07138 0.37339 0.07444
 C609 C 1.10753 0.38277 0.09150
 H610 H 1.10215 0.23911 0.15165
 H611 H 1.15145 0.22154 0.19580
 H612 H 1.21039 0.33848 0.17974
 H613 H 1.05827 0.27556 0.10441
 H614 H 1.02638 0.32652 0.06591
 H615 H 1.12167 0.41237 0.08901
 C616 C 0.66374 0.82600 0.64705
 C617 C 0.63423 0.79886 0.63804
 C618 C 0.62983 0.76122 0.65389
 C619 C 0.65710 0.75112 0.67966
 C620 C 0.68888 0.77803 0.68871
 C621 C 0.69138 0.81644 0.67230
 O622 O 0.66150 0.86113 0.63046
 C623 C 0.63001 0.85604 0.61051
 C624 C 0.61219 0.81847 0.61390
 C625 C 0.57797 0.80763 0.59579
 C626 C 0.56116 0.83703 0.57386
 C627 C 0.57840 0.87647 0.57093
 C628 C 0.61385 0.88547 0.58914
 H629 H 0.60583 0.74063 0.64711
 H630 H 0.65329 0.72214 0.69248
 H631 H 0.71323 0.83906 0.67942
 H632 H 0.56431 0.77789 0.59886
 H633 H 0.53418 0.82955 0.56012
 H634 H 0.62805 0.91512 0.58756
 C635 C 1.16993 0.67591 -0.14289
 C636 C 1.13939 0.70258 -0.13547
 C637 C 1.13497 0.73955 -0.15226
 C638 C 1.16314 0.74961 -0.17743
 C639 C 1.19604 0.72342 -0.18510
 C640 C 1.19889 0.68562 -0.16754
 O641 O 1.16729 0.64125 -0.12543
 C642 C 1.13454 0.64630 -0.10659
 C643 C 1.11642 0.68340 -0.11155
 C644 C 1.08110 0.69437 -0.09491
 C645 C 1.06338 0.66564 -0.07277
 C646 C 1.08077 0.62658 -0.06802
 C647 C 1.11734 0.61732 -0.08492
 H648 H 1.11023 0.75973 -0.14662
 H649 H 1.15920 0.77821 -0.19076
 H650 H 1.22219 0.66388 -0.17326
 H651 H 1.06721 0.72371 -0.09934
 H652 H 1.03535 0.67321 -0.06048
 H653 H 1.13144 0.58777 -0.08221
 C654 C 0.66038 1.20675 0.36311
 C655 C 0.68460 1.19370 0.38895
 C656 C 0.72599 1.19711 0.38758
 C657 C 0.74331 1.21401 0.35821
 C658 C 0.71967 1.22792 0.33056
 C659 C 0.67703 1.22500 0.33404
 O660 O 0.62212 1.19633 0.36770
 C661 C 0.62231 1.17625 0.39715
 C662 C 0.65990 1.17419 0.41128
 C663 C 0.66796 1.15190 0.44054
 C664 C 0.63632 1.13004 0.45545
 C665 C 0.59751 1.13043 0.44102
 C666 C 0.59013 1.15453 0.41173
 H667 H 0.74460 1.18519 0.40776
 H668 H 0.77513 1.21402 0.35724
 H669 H 0.65707 1.23436 0.31391
 H670 H 0.69798 1.14987 0.45068
 H671 H 0.64252 1.11084 0.47724
 H672 H 0.56121 1.15394 0.39938
 C673 C 0.81759 0.67331 0.14448
 C674 C 0.83178 0.70287 0.12271
 C675 C 0.82196 0.74373 0.12642
 C676 C 0.79753 0.75458 0.15401
 C677 C 0.78300 0.72486 0.17743
 C678 C 0.79304 0.68336 0.17192
 O679 O 0.83173 0.63650 0.13762
 C680 C 0.85543 0.64300 0.11110
 C681 C 0.85680 0.68302 0.10085
 C682 C 0.88131 0.69626 0.07423
 C683 C 0.90500 0.66690 0.05741
 C684 C 0.90371 0.62532 0.06749
 C685 C 0.87843 0.61365 0.09487
 H686 H 0.83387 0.76672 0.10939
 H687 H 0.79207 0.78649 0.15785
 H688 H 0.78361 0.65959 0.18929
 H689 H 0.88228 0.72803 0.06676
 H690 H 0.92396 0.67645 0.03654
 H691 H 0.87674 0.58242 0.10376
 C692 C 0.33066 1.18000 0.64597
 C693 C 0.36097 1.20663 0.63758
 C694 C 0.36606 1.24370 0.65390
 C695 C 0.33861 1.25395 0.67948
 C696 C 0.30588 1.22782 0.68797
 C697 C 0.30264 1.18979 0.67113
 O698 O 0.33257 1.14523 0.62887
 C699 C 0.36465 1.15014 0.60925
 C700 C 0.38307 1.18725 0.61340
 C701 C 0.41790 1.19803 0.59595
 C702 C 0.43478 1.16909 0.57379
 C703 C 0.41697 1.13009 0.56982
 C704 C 0.38092 1.12102 0.58753
 H705 H 0.39073 1.26377 0.64758
 H706 H 0.34300 1.28259 0.69251
 H707 H 0.27985 1.16781 0.67781
 H708 H 0.43203 1.22737 0.59976
 H709 H 0.46245 1.17650 0.56079
 H710 H 0.36647 1.09158 0.58534
 C711 C 0.82419 0.32791 -0.14908
 C712 C 0.83974 0.29820 -0.12825
 C713 C 0.83082 0.25716 -0.13241
 C714 C 0.80589 0.24631 -0.15957
 C715 C 0.78995 0.27622 -0.18202
 C716 C 0.79897 0.31787 -0.17596
 O717 O 0.83767 0.36492 -0.14194
 C718 C 0.86233 0.35841 -0.11618
 C719 C 0.86487 0.31818 -0.10669
 C720 C 0.89018 0.30493 -0.08079
 C721 C 0.91332 0.33449 -0.06379
 C722 C 0.91086 0.37629 -0.07306
 C723 C 0.88495 0.38799 -0.09986
 H724 H 0.84378 0.23410 -0.11610
 H725 H 0.80108 0.21435 -0.16392
 H726 H 0.78838 0.34183 -0.19260
 H727 H 0.89201 0.27301 -0.07390
 H728 H 0.93274 0.32487 -0.04334
 H729 H 0.88220 0.41944 -0.10797
 C730 C 0.33821 0.82760 0.34511
 C731 C 0.36745 0.80066 0.35506
 C732 C 0.37132 0.76221 0.34062
 C733 C 0.34386 0.75108 0.31523
 C734 C 0.31242 0.77779 0.30517
 C735 C 0.31037 0.81700 0.32024
 O736 O 0.34067 0.86339 0.36060
 C737 C 0.37205 0.85897 0.38088
 C738 C 0.38955 0.82115 0.37869
 C739 C 0.42336 0.81066 0.39752
 C740 C 0.43986 0.84045 0.41914
 C741 C 0.42273 0.87998 0.42129
 C742 C 0.38804 0.88894 0.40193
 H743 H 0.39508 0.74172 0.34819
 H744 H 0.34750 0.72164 0.30330
 H745 H 0.28855 0.83934 0.31239
 H746 H 0.43684 0.78078 0.39537
 H747 H 0.46652 0.83308 0.43345
 H748 H 0.37407 0.91871 0.40277
 C749 C 1.16996 1.16084 0.34384
 C750 C 1.16005 1.12695 0.32521
 C751 C 1.17684 1.11801 0.29414
 C752 C 1.20322 1.14656 0.28058
 C753 C 1.21047 1.18438 0.29732
 C754 C 1.19523 1.19053 0.33034
 O755 O 1.15128 1.16237 0.37348
 C756 C 1.12872 1.12906 0.37300
 C757 C 1.13240 1.10701 0.34363
 C758 C 1.10946 1.07288 0.33643
 C759 C 1.08298 1.05958 0.36153
 C760 C 1.08173 1.07918 0.39346
 C761 C 1.10377 1.11544 0.39881
 H762 H 1.16941 1.09038 0.28057
 H763 H 1.21591 1.13993 0.25593
 H764 H 1.20112 1.21798 0.34450
 H765 H 1.11172 1.05724 0.31238
 H766 H 1.06442 1.03341 0.35641
 H767 H 1.10249 1.13182 0.42258
 C768 C 0.67035 0.65963 -0.15633
 C769 C 0.66859 0.62206 -0.17164
 C770 C 0.68774 0.61325 -0.20181
 C771 C 0.70867 0.64489 -0.21745
 C772 C 0.70953 0.68480 -0.20314
 C773 C 0.69078 0.69179 -0.17158
 O774 O 0.64934 0.66149 -0.12786
 C775 C 0.63378 0.62438 -0.12551
 C776 C 0.64442 0.59924 -0.15187
 C777 C 0.63008 0.55971 -0.15545
 C778 C 0.60404 0.54520 -0.13037
 C779 C 0.59362 0.57019 -0.10246
 C780 C 0.60853 0.61037 -0.10006
 H781 H 0.68599 0.58335 -0.21326
 H782 H 0.72307 0.63829 -0.24139
 H783 H 0.69074 0.72125 -0.15959
 H784 H 0.63856 0.54080 -0.17674
 H785 H 0.59291 0.51423 -0.13219
 H786 H 0.60067 0.63002 -0.07906
 C787 C 0.84154 1.16607 0.65582
 C788 C 0.87826 1.16308 0.67128
 C789 C 0.88833 1.18459 0.70010
 C790 C 0.85867 1.20890 0.71452
 C791 C 0.81945 1.21065 0.70034
 C792 C 0.81143 1.18990 0.66981
 O793 O 0.83832 1.14295 0.62850
 C794 C 0.87367 1.12477 0.62702
 C795 C 0.89898 1.13573 0.65286
 C796 C 0.93705 1.11953 0.65687
 C797 C 0.95008 1.09168 0.63248
 C798 C 0.92510 1.08138 0.60479
 C799 C 0.88614 1.09762 0.60229
 H800 H 0.91763 1.18202 0.71156
 H801 H 0.86602 1.22475 0.73771
 H802 H 0.78252 1.19056 0.65784
 H803 H 0.95620 1.12846 0.67766
 H804 H 0.98022 1.07971 0.63427
 H805 H 0.86659 1.09015 0.58134
 C806 C 0.33719 0.64346 0.17175
 C807 C 0.31546 0.63835 0.14263
 C808 C 0.28375 0.66313 0.13355
 C809 C 0.27237 0.69308 0.15648
 C810 C 0.28958 0.69473 0.18927
 C811 C 0.32394 0.67070 0.19642
 O812 O 0.37122 0.62234 0.17185
 C813 C 0.37029 0.60307 0.14223
 C814 C 0.33581 0.61097 0.12433
 C815 C 0.32790 0.59545 0.09262
 C816 C 0.35788 0.57267 0.07751
 C817 C 0.39588 0.56809 0.09320
 C818 C 0.40171 0.58148 0.12691
 H819 H 0.26976 0.66102 0.10889
 H820 H 0.25009 0.71472 0.14834
 H821 H 0.34010 0.67339 0.22005
 H822 H 0.30014 0.60176 0.07951
 H823 H 0.35236 0.56110 0.05226
 H824 H 0.43038 0.57842 0.13939
 C825 C 1.17776 0.84193 0.65898
 C826 C 1.16497 0.87497 0.67741
 C827 C 1.17795 0.88319 0.70990
 C828 C 1.20377 0.85506 0.72478
 C829 C 1.21482 0.81846 0.70765
 C830 C 1.20300 0.81294 0.67354
 O831 O 1.16148 0.84019 0.62836
 C832 C 1.13756 0.87251 0.62791
 C833 C 1.13821 0.89429 0.65759
 C834 C 1.11326 0.92721 0.66388
 C835 C 1.08723 0.93897 0.63799
 C836 C 1.08807 0.91914 0.60612
 C837 C 1.11311 0.88479 0.60128
 H838 H 1.16790 0.90985 0.72360
 H839 H 1.21344 0.86127 0.75040
 H840 H 1.21165 0.78648 0.65910
 H841 H 1.11343 0.94288 0.68800
 H842 H 1.06687 0.96381 0.64264
 H843 H 1.11376 0.86833 0.57753
 C844 C 0.65975 0.33191 0.16512
 C845 C 0.62584 0.34050 0.18361
 C846 C 0.61866 0.32407 0.21539
 C847 C 0.64834 0.29913 0.22927
 C848 C 0.68497 0.29142 0.21165
 C849 C 0.68982 0.30707 0.17844
 O850 O 0.66046 0.35053 0.13525
 C851 C 0.62646 0.37146 0.13516
 C852 C 0.60425 0.36659 0.16424
 C853 C 0.56789 0.38632 0.16960
 C854 C 0.55337 0.41144 0.14347
 C855 C 0.57519 0.41586 0.11280
 C856 C 0.61260 0.39602 0.10896
 H857 H 0.59148 0.33078 0.22928
 H858 H 0.64302 0.28712 0.25446
 H859 H 0.71622 0.30121 0.16354
 H860 H 0.55111 0.38215 0.19287
 H861 H 0.52455 0.42607 0.14663
 H862 H 0.63005 0.39881 0.08589
 C863 C 0.84068 0.83061 0.34061
 C864 C 0.87649 0.83538 0.32377
 C865 C 0.88421 0.81852 0.29240
 C866 C 0.85331 0.79665 0.27726
 C867 C 0.81518 0.79252 0.29338
 C868 C 0.80934 0.80907 0.32600
 O869 O 0.83961 0.84970 0.37012
 C870 C 0.87541 0.86703 0.37163
 C871 C 0.89899 0.85939 0.34377
 C872 C 0.93702 0.87581 0.33940
 C873 C 0.95161 0.90083 0.36523
 C874 C 0.92815 0.90817 0.39457
 C875 C 0.88947 0.89125 0.39773
 H876 H 0.91276 0.82262 0.27979
 H877 H 0.85914 0.78392 0.25246
 H878 H 0.78137 0.80628 0.33948
 H879 H 0.95474 0.86959 0.31700
 H880 H 0.98141 0.91361 0.36281
 H881 H 0.87089 0.89688 0.41976
 C882 C 0.32934 0.34255 -0.15761
 C883 C 0.34560 0.37328 -0.17701
 C884 C 0.33259 0.38272 -0.20926
 C885 C 0.30304 0.35784 -0.22305
 C886 C 0.28881 0.32269 -0.20527
 C887 C 0.30055 0.31654 -0.17119
 O888 O 0.34583 0.33970 -0.12713
 C889 C 0.37339 0.36894 -0.12783
 C890 C 0.37488 0.38963 -0.15810
 C891 C 0.40300 0.41954 -0.16545
 C892 C 0.42962 0.43022 -0.13968
 C893 C 0.42617 0.41227 -0.10702
 C894 C 0.39865 0.37999 -0.10147
 H895 H 0.34532 0.40783 -0.22357
 H896 H 0.29348 0.36479 -0.24859
 H897 H 0.28931 0.29146 -0.15620
 H898 H 0.40409 0.43430 -0.19004
 H899 H 0.45184 0.45348 -0.14483
 H900 H 0.39580 0.36520 -0.07701
 C901 C 1.16433 0.32730 -0.14737
 C902 C 1.13407 0.30026 -0.13968
 C903 C 1.12999 0.26317 -0.15609
 C904 C 1.15818 0.25345 -0.18122
 C905 C 1.19064 0.28016 -0.18928
 C906 C 1.19316 0.31802 -0.17209
 O907 O 1.16145 0.36193 -0.13016
 C908 C 1.12882 0.35650 -0.11127
 C909 C 1.11095 0.31923 -0.11595
 C910 C 1.07567 0.30796 -0.09928
 C911 C 1.05781 0.33653 -0.07730
 C912 C 1.07514 0.37561 -0.07274
 C913 C 1.11159 0.38521 -0.08972
 H914 H 1.10546 0.24271 -0.15026
 H915 H 1.15434 0.22483 -0.19439
 H916 H 1.21603 0.34016 -0.17826
 H917 H 1.06196 0.27851 -0.10353
 H918 H 1.02989 0.32877 -0.06484
 H919 H 1.12577 0.41473 -0.08698
 C920 C 0.67466 0.83202 0.35235
 C921 C 0.66028 0.80258 0.37414
 C922 C 0.67098 0.76184 0.37118
 C923 C 0.69633 0.75088 0.34419
 C924 C 0.71092 0.78041 0.32064
 C925 C 0.70027 0.82189 0.32559
 O926 O 0.65961 0.86868 0.35840
 C927 C 0.63513 0.86224 0.38444
 C928 C 0.63418 0.82236 0.39515
 C929 C 0.60921 0.80918 0.42147
 C930 C 0.58487 0.83847 0.43769
 C931 C 0.58593 0.87997 0.42734
 C932 C 0.61135 0.89153 0.40001
 H933 H 0.65895 0.73895 0.38824
 H934 H 0.70236 0.71898 0.34078
 H935 H 0.70969 0.84552 0.30809
 H936 H 0.60856 0.77752 0.42931
 H937 H 0.56578 0.82896 0.45850
 H938 H 0.61290 0.92272 0.39098
 C939 C 0.82870 0.68051 -0.14671
 C940 C 0.85860 0.70717 -0.13769
 C941 C 0.86356 0.74477 -0.15353
 C942 C 0.83643 0.75537 -0.17930
 C943 C 0.80423 0.72900 -0.18833
 C944 C 0.80123 0.69057 -0.17195
 O945 O 0.83039 0.64531 -0.13015
 C946 C 0.86193 0.64984 -0.11015
 C947 C 0.88028 0.68717 -0.11353
 C948 C 0.91467 0.69747 -0.09546
 C949 C 0.93108 0.66781 -0.07359
 C950 C 0.91329 0.62861 -0.07061
 C951 C 0.87772 0.62009 -0.08881
 H952 H 0.88783 0.76500 -0.14669
 H953 H 0.84052 0.78439 -0.19200
 H954 H 0.77911 0.66827 -0.17904
 H955 H 0.92881 0.72697 -0.09860
 H956 H 0.95834 0.67486 -0.06003
 H957 H 0.86327 0.59056 -0.08730
 C958 C 0.33129 1.18253 0.35343
 C959 C 0.36170 1.20925 0.36106
 C960 C 0.36652 1.24615 0.34413
 C961 C 0.33869 1.25604 0.31873
 C962 C 0.30601 1.22963 0.31107
 C963 C 0.30310 1.19188 0.32851
 O964 O 0.33326 1.14796 0.37088
 C965 C 0.36552 1.15299 0.38998
 C966 C 0.38404 1.18999 0.38519
 C967 C 0.41922 1.20061 0.40202
 C968 C 0.43636 1.17154 0.42405
 C969 C 0.41838 1.13263 0.42846
 C970 C 0.38194 1.12387 0.41158
 H971 H 0.39119 1.26638 0.34988
 H972 H 0.34259 1.28459 0.30527
 H973 H 0.28044 1.16963 0.32252
 H974 H 0.43347 1.22984 0.39771
 H975 H 0.46436 1.17868 0.43646
 H976 H 0.36738 1.09448 0.41413
 C977 C 1.15763 0.67562 0.15309
 C978 C 1.13476 0.70503 0.13754
 C979 C 1.13703 0.74593 0.14655
 C980 C 1.16458 0.75697 0.17187
 C981 C 1.19020 0.72757 0.18716
 C982 C 1.18500 0.68590 0.17838
 O983 O 1.15072 0.63841 0.14138
 C984 C 1.12289 0.64442 0.11793
 C985 C 1.11191 0.68457 0.11446
 C986 C 1.08291 0.69714 0.09127
 C987 C 1.06439 0.66707 0.07111
 C988 C 1.07509 0.62532 0.07448
 C989 C 1.10509 0.61427 0.09825
 H990 H 1.11801 0.76854 0.13472
 H991 H 1.16506 0.78837 0.17983
 H992 H 1.20259 0.66205 0.19014
 H993 H 1.07463 0.72893 0.08892
 H994 H 1.04150 0.67626 0.05327
 H995 H 1.11423 0.58287 0.10177
 C996 C 0.67668 1.17334 0.64411
 C997 C 0.66465 1.20300 0.62160
 C998 C 0.67744 1.24318 0.62421
 C999 C 0.70268 1.25324 0.65143
 C1000 C 0.71501 1.22341 0.67555
 C1001 C 0.70199 1.18257 0.67112
 O1002 O 0.66011 1.13736 0.63822
 C1003 C 0.63710 1.14442 0.61150
 C1004 C 0.63855 1.18403 0.60016
 C1005 C 0.61569 1.19761 0.57273
 C1006 C 0.59075 1.16903 0.55628
 C1007 C 0.58906 1.12791 0.56763
 C1008 C 0.61268 1.11592 0.59580
 H1009 H 0.66726 1.26633 0.60661
 H1010 H 0.71063 1.28475 0.65436
 H1011 H 0.70968 1.15876 0.68901
 H1012 H 0.61715 1.22900 0.56422
 H1013 H 0.57340 1.17874 0.53456
 H1014 H 0.61230 1.08498 0.60547
 C1015 C 0.81931 0.32330 0.14611
 C1016 C 0.83672 0.29357 0.12651
 C1017 C 0.82958 0.25224 0.13239
 C1018 C 0.80471 0.24131 0.16001
 C1019 C 0.78713 0.27144 0.18128
 C1020 C 0.79434 0.31318 0.17332
 O1021 O 0.83104 0.36069 0.13782
 C1022 C 0.85658 0.35463 0.11252
 C1023 C 0.86142 0.31421 0.10442
 C1024 C 0.88837 0.30166 0.07935
 C1025 C 0.91081 0.33194 0.06202
 C1026 C 0.90611 0.37391 0.06999
 C1027 C 0.87835 0.38492 0.09575
 H1028 H 0.84387 0.22911 0.11705
 H1029 H 0.80113 0.20932 0.16573
 H1030 H 0.78256 0.33753 0.18884
 H1031 H 0.89218 0.26968 0.07346
 H1032 H 0.93173 0.32269 0.04250
 H1033 H 0.87383 0.41641 0.10300
 C1034 C 0.33620 0.82710 0.65073
 C1035 C 0.36505 0.80001 0.64024
 C1036 C 0.36941 0.76175 0.65502
 C1037 C 0.34281 0.75084 0.68125
 C1038 C 0.31143 0.77742 0.69181
 C1039 C 0.30898 0.81663 0.67649
 O1040 O 0.33835 0.86274 0.63467
 C1041 C 0.36905 0.85795 0.61350
 C1042 C 0.38639 0.82007 0.61566
 C1043 C 0.41935 0.80907 0.59587
 C1044 C 0.43541 0.83849 0.57342
 C1045 C 0.41886 0.87829 0.57151
 C1046 C 0.38467 0.88760 0.59163
 H1047 H 0.39296 0.74121 0.64708
 H1048 H 0.34690 0.72144 0.69327
 H1049 H 0.28729 0.83892 0.68474
 H1050 H 0.43258 0.77905 0.59795
 H1051 H 0.46138 0.83067 0.55837
 H1052 H 0.37101 0.91753 0.59095
 C1053 C 0.32770 1.18594 -0.14492
 C1054 C 0.29891 1.16984 -0.12377
 C1055 C 0.25840 1.17739 -0.12834
 C1056 C 0.24707 1.20147 -0.15625
 C1057 C 0.27602 1.21796 -0.17908
 C1058 C 0.31714 1.21037 -0.17263
 O1059 O 0.36436 1.17334 -0.13739
 C1060 C 0.35854 1.14864 -0.11106
 C1061 C 0.31908 1.14526 -0.10164
 C1062 C 0.30643 1.11913 -0.07572
 C1063 C 0.33569 1.09575 -0.05878
 C1064 C 0.37668 1.09886 -0.06800
 C1065 C 0.38792 1.12596 -0.09459
 H1066 H 0.23613 1.16399 -0.11171
 H1067 H 0.21554 1.20527 -0.16076
 H1068 H 0.34031 1.22138 -0.18956
 H1069 H 0.27510 1.11648 -0.06904
 H1070 H 0.32639 1.07527 -0.03865
 H1071 H 0.41873 1.12894 -0.10283
 C1072 C 0.82421 0.67258 0.35140
 C1073 C 0.79873 0.64214 0.36198
 C1074 C 0.76156 0.63578 0.34722
 C1075 C 0.75002 0.66222 0.32092
 C1076 C 0.77501 0.69518 0.31039
 C1077 C 0.81319 0.69944 0.32559
 O1078 O 0.85920 0.67200 0.36721
 C1079 C 0.85567 0.64060 0.38831
 C1080 C 0.81919 0.62135 0.38632
 C1081 C 0.80976 0.58701 0.40564
 C1082 C 0.83940 0.57153 0.42743
 C1083 C 0.87772 0.59019 0.42914
 C1084 C 0.88551 0.62569 0.40960
 H1085 H 0.74235 0.61095 0.35526
 H1086 H 0.72135 0.65697 0.30898
 H1087 H 0.83449 0.72207 0.31724
 H1088 H 0.78092 0.57220 0.40356
 H1089 H 0.83296 0.54422 0.44197
 H1090 H 0.91440 0.64068 0.41009
 C1091 C 0.67163 1.16621 0.15667
 C1092 C 0.69737 1.13579 0.14666
 C1093 C 0.73431 1.12979 0.16182
 C1094 C 0.74548 1.15650 0.18784
 C1095 C 0.72045 1.18959 0.19793
 C1096 C 0.68243 1.19373 0.18229
 O1097 O 0.63712 1.16539 0.13998
 C1098 C 0.64139 1.13397 0.11899
 C1099 C 0.67781 1.11496 0.12184
 C1100 C 0.68829 1.08120 0.10229
 C1101 C 0.65975 1.06596 0.07932
 C1102 C 0.62136 1.08411 0.07671
 C1103 C 0.61255 1.11912 0.09662
 H1104 H 0.75377 1.10510 0.15411
 H1105 H 0.77413 1.15125 0.19979
 H1106 H 0.66165 1.21727 0.18983
 H1107 H 0.71725 1.06679 0.10491
 H1108 H 0.66714 1.03940 0.06438
 H1109 H 0.58365 1.13396 0.09538
 C1110 C 1.17519 0.68099 0.64868
 C1111 C 1.20392 0.66384 0.62817
 C1112 C 1.24451 0.67074 0.63295
 C1113 C 1.25593 0.69537 0.66035
 C1114 C 1.22705 0.71306 0.68246
 C1115 C 1.18586 0.70599 0.67585
 O1116 O 1.13839 0.66898 0.64105
 C1117 C 1.14403 0.64364 0.61529
 C1118 C 1.18353 0.63927 0.60632
 C1119 C 1.19590 0.61278 0.58074
 C1120 C 1.16629 0.59014 0.56363
 C1121 C 1.12525 0.59429 0.57241
 C1122 C 1.11433 0.62164 0.59872
 H1123 H 1.26674 0.65637 0.61696
 H1124 H 1.28744 0.69853 0.66517
 H1125 H 1.16264 0.71780 0.69228
 H1126 H 1.22723 0.60950 0.57429
 H1127 H 1.17533 0.56959 0.54360
 H1128 H 1.08347 0.62568 0.60645
 C1129 C 0.66738 0.83066 -0.14802
 C1130 C 0.69577 0.84344 -0.12521
 C1131 C 0.73542 0.83091 -0.12726
 C1132 C 0.74640 0.80533 -0.15432
 C1133 C 0.71801 0.79223 -0.17886
 C1134 C 0.67757 0.80486 -0.17491
 O1135 O 0.63165 0.84704 -0.14246
 C1136 C 0.63764 0.87074 -0.11568
 C1137 C 0.67632 0.86988 -0.10404
 C1138 C 0.68891 0.89366 -0.07672
 C1139 C 0.66030 0.91866 -0.06046
 C1140 C 0.61997 0.91946 -0.07168
 C1141 C 0.60898 0.89523 -0.10005
 H1142 H 0.75750 0.84150 -0.10928
 H1143 H 0.77751 0.79767 -0.15675
 H1144 H 0.65484 0.79657 -0.19313
 H1145 H 0.71963 0.89289 -0.06813
 H1146 H 0.66941 0.93677 -0.03891
 H1147 H 0.57870 0.89509 -0.10977
 C1148 C 1.17026 0.33219 0.35310
 C1149 C 1.19890 0.34327 0.37632
 C1150 C 1.23785 0.32858 0.37461
 C1151 C 1.24790 0.30273 0.34744
 C1152 C 1.21927 0.29152 0.32243
 C1153 C 1.17947 0.30612 0.32616
 O1154 O 1.13539 0.35047 0.35828
 C1155 C 1.14217 0.37363 0.38523
 C1156 C 1.18051 0.37063 0.39740
 C1157 C 1.19365 0.39342 0.42515
 C1158 C 1.16590 0.41957 0.44131
 C1159 C 1.12592 0.42246 0.42949
 C1160 C 1.11448 0.39930 0.40065
 H1161 H 1.26019 0.33782 0.39287
 H1162 H 1.27858 0.29343 0.34534
 H1163 H 1.15664 0.29947 0.30756
 H1164 H 1.22408 0.39089 0.43426
 H1165 H 1.17523 0.43667 0.46336
 H1166 H 1.08440 0.40060 0.39052
 C1167 C 0.32026 0.82192 0.13334
 C1168 C 0.29253 0.84941 0.12141
 C1169 C 0.25404 0.85173 0.13443
 C1170 C 0.24399 0.82548 0.16126
 C1171 C 0.27182 0.79652 0.17433
 C1172 C 0.31048 0.79452 0.15943
 O1173 O 0.35641 0.82767 0.12010
 C1174 C 0.35132 0.85948 0.09957
 C1175 C 0.31277 0.87389 0.09925
 C1176 C 0.30168 0.90881 0.08127
 C1177 C 0.33169 0.92996 0.06319
 C1178 C 0.37194 0.91626 0.06384
 C1179 C 0.38145 0.87996 0.08191
 H1180 H 0.23313 0.87459 0.12558
 H1181 H 0.21526 0.83006 0.17304
 H1182 H 0.33323 0.77425 0.16931
 H1183 H 0.27122 0.91998 0.08182
 H1184 H 0.32382 0.95763 0.04973
 H1185 H 0.41183 0.86860 0.08333
 C1186 C 0.82618 0.33395 0.64431
 C1187 C 0.80068 0.36539 0.63624
 C1188 C 0.76426 0.37097 0.65259
 C1189 C 0.75361 0.34287 0.67799
 C1190 C 0.77870 0.30907 0.68610
 C1191 C 0.81592 0.30527 0.66908
 O1192 O 0.86059 0.33563 0.62750
 C1193 C 0.85666 0.36874 0.60836
 C1194 C 0.82046 0.38799 0.61250
 C1195 C 0.81079 0.42401 0.59557
 C1196 C 0.83995 0.44125 0.57403
 C1197 C 0.87804 0.42263 0.57029
 C1198 C 0.88602 0.38540 0.58734
 H1199 H 0.74502 0.39649 0.64650
 H1200 H 0.72551 0.34749 0.69112
 H1201 H 0.83710 0.28166 0.67536
 H1202 H 0.78218 0.43879 0.59934
 H1203 H 0.83343 0.46987 0.56142
 H1204 H 0.91481 0.37044 0.58528
 C1205 C 1.17139 1.16009 0.65653
 C1206 C 1.16027 1.12675 0.67556
 C1207 C 1.17408 1.11939 0.70792
 C1208 C 1.19936 1.14846 0.72200
 C1209 C 1.20890 1.18528 0.70429
 C1210 C 1.19581 1.19031 0.67041
 O1211 O 1.15493 1.16036 0.62592
 C1212 C 1.13270 1.12671 0.62614
 C1213 C 1.13451 1.10564 0.65622
 C1214 C 1.11173 1.07121 0.66313
 C1215 C 1.08683 1.05697 0.63737
 C1216 C 1.08674 1.07604 0.60510
 C1217 C 1.10930 1.11213 0.59969
 H1218 H 1.16522 1.09248 0.72204
 H1219 H 1.20985 1.14266 0.74749
 H1220 H 1.20313 1.21710 0.65567
 H1221 H 1.11282 1.05615 0.68758
 H1222 H 1.06817 1.03083 0.64244
 H1223 H 1.10892 1.12810 0.57562
 C1224 C 0.65651 0.66886 0.15899
 C1225 C 0.62069 0.66349 0.17565
 C1226 C 0.61134 0.68302 0.20566
 C1227 C 0.64085 0.70774 0.21992
 C1228 C 0.67922 0.71202 0.20428
 C1229 C 0.68631 0.69342 0.17258
 O1230 O 0.65945 0.64706 0.13090
 C1231 C 0.62484 0.62735 0.13008
 C1232 C 0.60017 0.63610 0.15702
 C1233 C 0.56293 0.61801 0.16164
 C1234 C 0.55010 0.59052 0.13685
 C1235 C 0.57454 0.58224 0.10821
 C1236 C 0.61271 0.60042 0.10515
 H1237 H 0.58275 0.67853 0.21811
 H1238 H 0.63408 0.72206 0.24396
 H1239 H 0.71431 0.69639 0.15924
 H1240 H 0.54427 0.62524 0.18325
 H1241 H 0.52059 0.57707 0.13924
 H1242 H 0.63206 0.59449 0.08364
 C1243 C 1.17385 0.83657 0.34329
 C1244 C 1.16693 0.87320 0.32734
 C1245 C 1.18526 0.88482 0.29750
 C1246 C 1.21020 0.85644 0.28221
 C1247 C 1.21523 0.81651 0.29622
 C1248 C 1.19834 0.80738 0.32825
 O1249 O 1.15297 0.83218 0.37173
 C1250 C 1.13211 0.86657 0.37314
 C1251 C 1.13926 0.89220 0.34618
 C1252 C 1.11890 0.92842 0.34088
 C1253 C 1.09080 0.93955 0.36527
 C1254 C 1.08483 0.91529 0.39461
 C1255 C 1.10515 0.87774 0.39832
 H1256 H 1.17976 0.91426 0.28593
 H1257 H 1.22362 0.86527 0.25829
 H1258 H 1.20244 0.77833 0.34054
 H1259 H 1.12441 0.94737 0.31883
 H1260 H 1.07495 0.96783 0.36197
 H1261 H 1.10073 0.85840 0.42033
 C1262 C 0.66124 0.32082 -0.15589
 C1263 C 0.62519 0.32712 -0.17175
 C1264 C 0.61698 0.31385 -0.20421
 C1265 C 0.64757 0.29385 -0.22146
 C1266 C 0.68582 0.28792 -0.20622
 C1267 C 0.69218 0.30078 -0.17250
 O1268 O 0.66329 0.33793 -0.12555
 C1269 C 0.62785 0.35572 -0.12251
 C1270 C 0.60357 0.34997 -0.15021
 C1271 C 0.56640 0.36817 -0.15378
 C1272 C 0.55357 0.39338 -0.12755
 C1273 C 0.57776 0.39928 -0.09846
 C1274 C 0.61534 0.38006 -0.09574
 H1275 H 0.58839 0.31961 -0.21614
 H1276 H 0.64139 0.28398 -0.24708
 H1277 H 0.72025 0.29644 -0.15963
 H1278 H 0.54829 0.36373 -0.17618
 H1279 H 0.52467 0.40806 -0.12977
 H1280 H 0.63453 0.38480 -0.07401
 C1281 C 0.86632 1.15359 0.31685
 C1282 C 0.88636 1.17947 0.33825
 C1283 C 0.87305 1.21816 0.34564
 C1284 C 0.83872 1.23129 0.32939
 C1285 C 0.82088 1.20902 0.30265
 C1286 C 0.83440 1.16835 0.29709
 O1287 O 0.87693 1.11474 0.32133
 C1288 C 0.90416 1.11672 0.34597
 C1289 C 0.91167 1.15610 0.35610
 C1290 C 0.93508 1.16616 0.38377
 C1291 C 0.95010 1.13429 0.40311
 C1292 C 0.94065 1.09337 0.39513
 C1293 C 0.91887 1.08399 0.36533
 H1294 H 0.88577 1.23581 0.36613
 H1295 H 0.82416 1.25687 0.34070
 H1296 H 0.81952 1.14843 0.27926
 H1297 H 0.93978 1.19752 0.39134
 H1298 H 0.96704 1.14154 0.42572
 H1299 H 0.91046 1.05291 0.35946
 C1300 C 0.34396 0.66002 -0.15968
 C1301 C 0.34404 0.62187 -0.17401
 C1302 C 0.31857 0.61091 -0.20010
 C1303 C 0.29329 0.64110 -0.21305
 C1304 C 0.29430 0.68174 -0.20023
 C1305 C 0.31934 0.69074 -0.17237
 O1306 O 0.36999 0.66375 -0.13455
 C1307 C 0.38705 0.62727 -0.13330
 C1308 C 0.37262 0.60071 -0.15724
 C1309 C 0.38652 0.56100 -0.16061
 C1310 C 0.41535 0.54760 -0.13734
 C1311 C 0.42890 0.57363 -0.11122
 C1312 C 0.41533 0.61442 -0.10977
 H1313 H 0.31875 0.58045 -0.21060
 H1314 H 0.27452 0.63302 -0.23432
 H1315 H 0.32139 0.72094 -0.16180
 H1316 H 0.37464 0.54071 -0.17969
 H1317 H 0.42490 0.51627 -0.13818
 H1318 H 0.42494 0.63486 -0.08986
 C1319 C 0.82506 0.84468 0.65689
 C1320 C 0.83093 0.88132 0.67299
 C1321 C 0.81235 0.89145 0.70316
 C1322 C 0.78822 0.86173 0.71825
 C1323 C 0.78383 0.82239 0.70334
 C1324 C 0.80110 0.81471 0.67133
 O1325 O 0.84645 0.84081 0.62881
 C1326 C 0.86651 0.87561 0.62748
 C1327 C 0.85832 0.90133 0.65406
 C1328 C 0.87756 0.93849 0.65862
 C1329 C 0.90574 0.95013 0.63409
 C1330 C 0.91342 0.92465 0.60585
 C1331 C 0.89397 0.88666 0.60278
 H1332 H 0.81723 0.92064 0.71521
 H1333 H 0.77466 0.86896 0.74244
 H1334 H 0.79784 0.78603 0.65848
 H1335 H 0.87099 0.95781 0.68012
 H1336 H 0.92042 0.97945 0.63643
 H1337 H 0.89975 0.86652 0.58161
 C1338 C 0.31848 0.34731 0.15549
 C1339 C 0.32322 0.38445 0.17108
 C1340 C 0.30610 0.39383 0.20203
 C1341 C 0.28443 0.36302 0.21823
 C1342 C 0.28101 0.32345 0.20357
 C1343 C 0.29702 0.31628 0.17104
 O1344 O 0.33914 0.34388 0.12703
 C1345 C 0.35765 0.37946 0.12492
 C1346 C 0.34909 0.40531 0.15133
 C1347 C 0.36754 0.44293 0.15551
 C1348 C 0.39573 0.45454 0.13106
 C1349 C 0.40429 0.42852 0.10333
 C1350 C 0.38499 0.39053 0.10023
 H1351 H 0.31045 0.42326 0.21382
 H1352 H 0.27191 0.36976 0.24293
 H1353 H 0.29486 0.28722 0.15860
 H1354 H 0.36076 0.46238 0.17688
 H1355 H 0.41028 0.48393 0.13333
 H1356 H 0.39144 0.36996 0.07947
   
