data_POSCAR
  _audit_creation_date              2014-09-24
  _audit_creation_method            'ToBaCCo'
  _symmetry_space_group_name_H-M    'P1'
  _symmetry_Int_Tables_number       1
  _symmetry_cell_setting            triclinic
  loop_
  _symmetry_equiv_pos_as_xyz
 x,y,z
_cell_length_a 46.7670
_cell_length_b 46.5735
_cell_length_c 46.4848
_cell_angle_alpha 89.958700
_cell_angle_beta 90.353500
_cell_angle_gamma 89.825200
loop_
  _atom_site_label
  _atom_site_type_symbol
  _atom_site_fract_x
  _atom_site_fract_y
  _atom_site_fract_z
C1 C 0.20695 0.96814 -0.02777
 C2 C 0.20929 0.96795 0.00248
 C3 C 0.21174 0.99382 0.01735
 C4 C 0.21277 1.01997 0.00278
 C5 C 0.21001 1.02054 -0.02741
 C6 C 0.20685 0.99457 -0.04250
 H7 H 0.20537 0.99487 -0.06582
 H8 H 0.21421 0.99345 0.04061
 C9 C 0.70835 0.51787 0.50598
 C10 C 0.70750 0.51710 0.47578
 C11 C 0.70547 0.49062 0.46165
 C12 C 0.70507 0.46484 0.47730
 C13 C 0.70586 0.46575 0.50761
 C14 C 0.70708 0.49230 0.52162
 H15 H 0.70837 0.49301 0.54494
 H16 H 0.70531 0.49003 0.43831
 C17 C 0.78585 1.00432 0.96615
 C18 C 0.78835 0.97416 0.96566
 C19 C 0.78877 0.95890 0.99175
 C20 C 0.78612 0.97329 1.01811
 C21 C 0.78407 1.00339 1.01842
 C22 C 0.78441 1.01856 0.99256
 H23 H 0.78224 1.04174 0.99305
 H24 H 0.79017 0.93562 0.99142
 C25 C 0.28197 0.50676 0.46301
 C26 C 0.28430 0.47656 0.46270
 C27 C 0.28316 0.46134 0.48878
 C28 C 0.27923 0.47575 0.51491
 C29 C 0.27697 0.50579 0.51507
 C30 C 0.27865 0.52096 0.48928
 H31 H 0.27647 0.54413 0.48970
 H32 H 0.28463 0.43807 0.48866
 C33 C 1.01645 0.23388 -0.00348
 C34 C 1.01745 0.23175 0.02675
 C35 C 0.99190 0.22873 0.04211
 C36 C 0.96536 0.22851 0.02782
 C37 C 0.96451 0.23092 -0.00237
 C38 C 0.99005 0.23319 -0.01769
 H39 H 0.98928 0.23540 -0.04097
 H40 H 0.99258 0.22731 0.06542
 C41 C 0.46434 0.72802 0.49378
 C42 C 0.46454 0.72566 0.52400
 C43 C 0.49084 0.72498 0.53878
 C44 C 0.51668 0.72718 0.52383
 C45 C 0.51625 0.72933 0.49372
 C46 C 0.49021 0.72933 0.47898
 H47 H 0.49006 0.73161 0.45571
 H48 H 0.49116 0.72374 0.56209
 C49 C 0.00481 0.78338 0.03396
 C50 C -0.02534 0.78466 0.03356
 C51 C -0.03988 0.78495 0.00697
 C52 C -0.02477 0.78314 -0.01897
 C53 C 0.00528 0.78177 -0.01830
 C54 C 0.01973 0.78240 0.00802
 H55 H 0.04290 0.78077 0.00835
 H56 H -0.06310 0.78550 0.00650
 C57 C 0.50526 0.28297 0.53678
 C58 C 0.47529 0.28647 0.53630
 C59 C 0.46073 0.28668 0.50971
 C60 C 0.47559 0.28226 0.48393
 C61 C 0.50530 0.27785 0.48477
 C62 C 0.51990 0.27893 0.51098
 H63 H 0.54285 0.27529 0.51141
 H64 H 0.43766 0.28913 0.50916
 C65 C 0.98285 -0.00745 0.23080
 C66 C 0.98323 0.02270 0.22970
 C67 C 1.00941 0.03704 0.22700
 C68 C 1.03523 0.02164 0.22538
 C69 C 1.03458 -0.00864 0.22556
 C70 C 1.00839 -0.02278 0.22831
 H71 H 1.00788 -0.04608 0.22930
 H72 H 1.00973 0.06034 0.22681
 C73 C 0.48403 0.49235 0.72182
 C74 C 0.48484 0.52248 0.72228
 C75 C 0.51115 0.53652 0.71948
 C76 C 0.53666 0.52082 0.71640
 C77 C 0.53555 0.49060 0.71516
 C78 C 0.50921 0.47675 0.71775
 H79 H 0.50838 0.45344 0.71761
 H80 H 0.51186 0.55979 0.72055
 C81 C 1.02552 0.98156 0.77883
 C82 C 0.99567 0.98152 0.77544
 C83 C 0.98071 1.00746 0.77471
 C84 C 0.99505 1.03372 0.77664
 C85 C 1.02501 1.03392 0.78035
 C86 C 1.03997 1.00774 0.78166
 H87 H 1.06307 1.00777 0.78399
 H88 H 0.95767 1.00716 0.77151
 C89 C 0.52485 0.48078 0.28040
 C90 C 0.49486 0.48070 0.27911
 C91 C 0.47993 0.50665 0.27922
 C92 C 0.49442 0.53285 0.28018
 C93 C 0.52450 0.53310 0.28193
 C94 C 0.53949 0.50694 0.28220
 H95 H 0.56269 0.50696 0.28297
 H96 H 0.45677 0.50642 0.27752
 O97 O 0.27239 0.17293 0.18664
 O98 O 0.30974 0.16679 0.22530
 O99 O 0.20128 0.20587 0.23115
 O100 O 0.19179 0.24290 0.26128
 O101 O 0.23230 0.24859 0.15504
 O102 O 0.27218 0.28070 0.14695
 O103 O 0.27862 0.28525 0.30315
 O104 O 0.24453 0.24714 0.31121
 O105 O 0.35000 0.24783 0.26609
 O106 O 0.35321 0.21000 0.22762
 O107 O 0.31532 0.31903 0.23148
 O108 O 0.27345 0.32877 0.19692
 O109 O 0.27733 0.32001 0.26869
 O110 O 0.24427 0.33005 0.22927
 O111 O 0.34956 0.28413 0.22936
 O112 O 0.35529 0.25009 0.19372
 O113 O 0.31666 0.24801 0.30161
 O114 O 0.27834 0.21371 0.31172
 O115 O 0.27126 0.20837 0.15280
 O116 O 0.30303 0.24884 0.14414
 O117 O 0.19925 0.24692 0.19081
 O118 O 0.19354 0.27947 0.23108
 O119 O 0.23583 0.17124 0.22852
 O120 O 0.27450 0.16290 0.25883
 Zr121 Zr 0.27393 0.19486 0.22641
 O122 O 0.30112 0.21895 0.25340
 Zr123 Zr 0.22348 0.24533 0.22907
 O124 O 0.24890 0.27188 0.25556
 Zr125 Zr 0.27188 0.24647 0.17685
 O126 O 0.29977 0.27218 0.20132
 Zr127 Zr 0.27715 0.24639 0.27989
 O128 O 0.24965 0.21956 0.25561
 Zr129 Zr 0.32570 0.24631 0.22780
 O130 O 0.30056 0.22018 0.20028
 Zr131 Zr 0.27575 0.29732 0.22979
 O132 O 0.24744 0.27358 0.20328
 O133 O 0.24638 0.21947 0.20121
 O134 O 0.30296 0.27295 0.25547
 C135 C 0.27128 0.18194 0.16050
 C136 C 0.20970 0.17951 0.23048
 C137 C 0.20648 0.24834 0.16426
 C138 C 0.27881 0.31160 0.29490
 C139 C 0.34252 0.24893 0.29259
 C140 C 0.34145 0.31032 0.23165
 H141 H 0.31362 0.20589 0.26463
 H142 H 0.31162 0.28398 0.18834
 H143 H 0.23348 0.20752 0.18930
 H144 H 0.23656 0.28365 0.26812
 H145 H 0.23041 0.23236 0.30552
 H146 H 0.19807 0.25512 0.27751
 H147 H 0.35186 0.23367 0.18069
 H148 H 0.31673 0.23297 0.14757
 H149 H 0.29361 0.19992 0.30670
 H150 H 0.26409 0.17099 0.27545
 H151 H 0.29072 0.32686 0.18488
 H152 H 0.25870 0.29537 0.15425
 H153 H 0.30321 0.14764 0.21867
 H154 H 0.37296 0.21692 0.23110
 H155 H 0.19942 0.29386 0.21661
 H156 H 0.22971 0.32495 0.24374
 O157 O 0.75228 0.84378 0.23044
 O158 O 0.71612 0.84908 0.26941
 O159 O 0.82459 0.80950 0.27226
 O160 O 0.83454 0.77215 0.30266
 O161 O 0.79156 0.76873 0.19680
 O162 O 0.75158 0.73658 0.18858
 O163 O 0.74815 0.72977 0.34526
 O164 O 0.78368 0.76657 0.35286
 O165 O 0.67717 0.76761 0.30993
 O166 O 0.67257 0.80587 0.27164
 O167 O 0.71006 0.69651 0.27172
 O168 O 0.75183 0.68718 0.23844
 O169 O 0.74786 0.69547 0.31039
 O170 O 0.78095 0.68539 0.27084
 O171 O 0.67596 0.73161 0.27156
 O172 O 0.66905 0.76653 0.23766
 O173 O 0.71152 0.76788 0.34489
 O174 O 0.75064 0.80110 0.35421
 O175 O 0.75229 0.80894 0.19604
 O176 O 0.72049 0.76823 0.18685
 O177 O 0.82561 0.76918 0.23207
 O178 O 0.83213 0.73586 0.27144
 O179 O 0.79000 0.84422 0.27086
 O180 O 0.75223 0.85188 0.30287
 Zr181 Zr 0.75181 0.82084 0.26960
 O182 O 0.72532 0.79641 0.29655
 Zr183 Zr 0.80225 0.77011 0.27062
 O184 O 0.77743 0.74324 0.29715
 Zr185 Zr 0.75245 0.77013 0.21918
 O186 O 0.72515 0.74409 0.24369
 Zr187 Zr 0.75010 0.76862 0.32222
 O188 O 0.77702 0.79567 0.29792
 Zr189 Zr 0.69995 0.76948 0.27100
 O190 O 0.72443 0.79600 0.24348
 Zr191 Zr 0.74969 0.71833 0.27150
 O192 O 0.77738 0.74239 0.24484
 O193 O 0.77858 0.79653 0.24361
 O194 O 0.72332 0.74240 0.29798
 C195 C 0.75258 0.83526 0.20417
 C196 C 0.81615 0.83586 0.27175
 C197 C 0.81767 0.76871 0.20559
 C198 C 0.74689 0.70361 0.33670
 C199 C 0.68546 0.76698 0.33631
 C200 C 0.68392 0.70525 0.27209
 H201 H 0.71322 0.80938 0.30815
 H202 H 0.71298 0.73262 0.23059
 H203 H 0.79106 0.80863 0.23155
 H204 H 0.78993 0.73120 0.30945
 H205 H 0.79782 0.78134 0.34731
 H206 H 0.82915 0.75886 0.31831
 H207 H 0.67268 0.78266 0.22435
 H208 H 0.70688 0.78406 0.19067
 H209 H 0.73584 0.81551 0.34925
 H210 H 0.76477 0.84425 0.31833
 H211 H 0.73549 0.69051 0.22523
 H212 H 0.76535 0.72185 0.19539
 H213 H 0.72266 0.86848 0.26362
 H214 H 0.65300 0.79905 0.27596
 H215 H 0.82533 0.72143 0.25737
 H216 H 0.79560 0.69010 0.28552
 O217 O 0.75383 0.17289 0.78637
 O218 O 0.72080 0.16656 0.74617
 O219 O 0.82684 0.21185 0.74924
 O220 O 0.83790 0.25042 0.72377
 O221 O 0.78776 0.24849 0.82517
 O222 O 0.74740 0.27752 0.83290
 O223 O 0.74958 0.28792 0.67409
 O224 O 0.78420 0.25243 0.66618
 O225 O 0.67792 0.24899 0.70785
 O226 O 0.67349 0.21098 0.74637
 O227 O 0.71008 0.32120 0.74601
 O228 O 0.74842 0.33235 0.77942
 O229 O 0.74722 0.32231 0.70879
 O230 O 0.78209 0.33044 0.75153
 O231 O 0.67627 0.28609 0.74355
 O232 O 0.66871 0.24637 0.77936
 O233 O 0.71239 0.25105 0.67353
 O234 O 0.75384 0.21578 0.66645
 O235 O 0.75066 0.20627 0.82207
 O236 O 0.71557 0.24565 0.82882
 O237 O 0.82359 0.25027 0.79223
 O238 O 0.82935 0.28608 0.75149
 O239 O 0.79428 0.17543 0.74851
 O240 O 0.75711 0.16812 0.71322
 Zr241 Zr 0.75443 0.19703 0.74830
 O242 O 0.72678 0.22119 0.72164
 Zr243 Zr 0.80242 0.24961 0.75171
 O244 O 0.77778 0.27513 0.72328
 Zr245 Zr 0.75054 0.24620 0.80020
 O246 O 0.72434 0.27325 0.77504
 Zr247 Zr 0.75135 0.24945 0.69707
 O248 O 0.77944 0.22389 0.72218
 Zr249 Zr 0.70032 0.24765 0.74682
 O250 O 0.72503 0.22035 0.77363
 Zr251 Zr 0.74925 0.29941 0.74810
 O252 O 0.77557 0.27562 0.77677
 O253 O 0.77890 0.22144 0.77660
 O254 O 0.72386 0.27503 0.72079
 C255 C 0.75226 0.18025 0.81286
 C256 C 0.82003 0.18519 0.74865
 C257 C 0.81415 0.24980 0.81821
 C258 C 0.74713 0.31398 0.68242
 C259 C 0.68616 0.25098 0.68176
 C260 C 0.68426 0.31252 0.74311
 H261 H 0.71514 0.20814 0.70960
 H262 H 0.71201 0.28495 0.78765
 H263 H 0.79138 0.20940 0.78895
 H264 H 0.79038 0.28733 0.71145
 H265 H 0.79983 0.23963 0.67284
 H266 H 0.83079 0.25766 0.70505
 H267 H 0.67047 0.26384 0.79130
 H268 H 0.70250 0.23039 0.82201
 H269 H 0.73603 0.20443 0.66738
 H270 H 0.77183 0.17564 0.70001
 H271 H 0.73498 0.32638 0.79461
 H272 H 0.75839 0.29432 0.82613
 H273 H 0.72876 0.14719 0.75027
 H274 H 0.65431 0.21676 0.73914
 H275 H 0.82431 0.29775 0.76853
 H276 H 0.79313 0.33012 0.73344
 O277 O 0.22783 0.80061 0.79324
 O278 O 0.26346 0.80635 0.75370
 O279 O 0.15521 0.76601 0.75137
 O280 O 0.14608 0.72887 0.72070
 O281 O 0.18897 0.72640 0.82667
 O282 O 0.22899 0.69326 0.83468
 O283 O 0.23238 0.68653 0.67868
 O284 O 0.19652 0.72367 0.67093
 O285 O 0.30333 0.72600 0.71319
 O286 O 0.30746 0.76321 0.75243
 O287 O 0.27090 0.65340 0.75186
 O288 O 0.22950 0.64436 0.78546
 O289 O 0.23263 0.65214 0.71352
 O290 O 0.20014 0.64242 0.75324
 O291 O 0.30463 0.68865 0.75139
 O292 O 0.31187 0.72322 0.78521
 O293 O 0.26884 0.72580 0.67838
 O294 O 0.22976 0.75748 0.66870
 O295 O 0.22824 0.76579 0.82772
 O296 O 0.26001 0.72508 0.83674
 O297 O 0.15494 0.72648 0.79135
 O298 O 0.14887 0.69241 0.75236
 O299 O 0.18947 0.80084 0.75294
 O300 O 0.22705 0.80910 0.72079
 Zr301 Zr 0.22814 0.77785 0.75391
 O302 O 0.25477 0.75351 0.72691
 Zr303 Zr 0.17826 0.72692 0.75289
 O304 O 0.20329 0.70013 0.72644
 Zr305 Zr 0.22812 0.72710 0.80435
 O306 O 0.25565 0.70122 0.77978
 Zr307 Zr 0.23034 0.72559 0.70129
 O308 O 0.20322 0.75262 0.72557
 Zr309 Zr 0.28054 0.72661 0.75229
 O310 O 0.25587 0.75302 0.77992
 Zr311 Zr 0.23124 0.67532 0.75215
 O312 O 0.20334 0.69931 0.77878
 O313 O 0.20175 0.75342 0.77987
 O314 O 0.25743 0.69938 0.72541
 C315 C 0.22779 0.79212 0.81957
 C316 C 0.16336 0.79238 0.75210
 C317 C 0.16289 0.72675 0.81779
 C318 C 0.23340 0.66033 0.68722
 C319 C 0.29499 0.72578 0.68679
 C320 C 0.29692 0.66224 0.75117
 H321 H 0.26665 0.76662 0.71530
 H322 H 0.26799 0.68980 0.79285
 H323 H 0.18933 0.76565 0.79191
 H324 H 0.19084 0.68804 0.71422
 H325 H 0.18245 0.73858 0.67650
 H326 H 0.15133 0.71518 0.70534
 H327 H 0.30778 0.73866 0.79919
 H328 H 0.27371 0.74070 0.83278
 H329 H 0.24244 0.77328 0.67490
 H330 H 0.21424 0.80162 0.70552
 H331 H 0.24578 0.64786 0.79866
 H332 H 0.21460 0.67906 0.82824
 H333 H 0.25678 0.82563 0.75982
 H334 H 0.32708 0.75673 0.74764
 H335 H 0.15542 0.67848 0.76711
 H336 H 0.18522 0.64723 0.73885
 O337 O 0.24868 0.34721 0.73032
 O338 O 0.21292 0.35335 0.76933
 O339 O 0.32152 0.31405 0.77302
 O340 O 0.33138 0.27764 0.80453
 O341 O 0.28908 0.27201 0.69853
 O342 O 0.24945 0.23909 0.69086
 O343 O 0.24500 0.23578 0.84758
 O344 O 0.28033 0.27292 0.85457
 O345 O 0.17402 0.27199 0.81114
 O346 O 0.16938 0.30970 0.77230
 O347 O 0.20771 0.20062 0.77436
 O348 O 0.24966 0.19074 0.74189
 O349 O 0.24499 0.20068 0.81351
 O350 O 0.27877 0.19010 0.77439
 O351 O 0.17331 0.23542 0.77329
 O352 O 0.16638 0.26988 0.73877
 O353 O 0.20822 0.27360 0.84621
 O354 O 0.24707 0.30728 0.85499
 O355 O 0.24908 0.31164 0.69667
 O356 O 0.21809 0.27032 0.68818
 O357 O 0.32290 0.27316 0.73401
 O358 O 0.32924 0.24050 0.77407
 O359 O 0.28689 0.34867 0.77048
 O360 O 0.24915 0.35687 0.80266
 Zr361 Zr 0.24867 0.32517 0.77000
 O362 O 0.22211 0.30118 0.79732
 Zr363 Zr 0.29930 0.27468 0.77236
 O364 O 0.27452 0.24832 0.79940
 Zr365 Zr 0.24979 0.27335 0.72068
 O366 O 0.22255 0.24770 0.74565
 Zr367 Zr 0.24691 0.27412 0.82372
 O368 O 0.27385 0.30074 0.79898
 Zr369 Zr 0.19702 0.27349 0.77228
 O370 O 0.22152 0.29957 0.74434
 Zr371 Zr 0.24713 0.22270 0.77413
 O372 O 0.27476 0.24630 0.74703
 O373 O 0.27562 0.30042 0.74464
 O374 O 0.22045 0.24717 0.79993
 C375 C 0.24895 0.33813 0.70423
 C376 C 0.31307 0.34034 0.77154
 C377 C 0.31514 0.27232 0.70750
 C378 C 0.24382 0.20943 0.83963
 C379 C 0.18221 0.27205 0.83757
 C380 C 0.18152 0.20914 0.77430
 H381 H 0.20987 0.31430 0.80859
 H382 H 0.21053 0.23588 0.73272
 H383 H 0.28796 0.31236 0.73229
 H384 H 0.28702 0.23663 0.81205
 H385 H 0.29444 0.28760 0.84875
 H386 H 0.32606 0.26457 0.82039
 H387 H 0.16983 0.28601 0.72539
 H388 H 0.20406 0.28582 0.69179
 H389 H 0.23234 0.32158 0.84953
 H390 H 0.26183 0.34962 0.81818
 H391 H 0.23377 0.19406 0.72813
 H392 H 0.26348 0.22475 0.69798
 H393 H 0.21945 0.37268 0.76330
 H394 H 0.14983 0.30278 0.77655
 H395 H 0.32263 0.22583 0.76017
 H396 H 0.29292 0.19491 0.78952
 O397 O 0.77102 0.67460 0.68521
 O398 O 0.80866 0.66849 0.72367
 O399 O 0.69998 0.70716 0.72895
 O400 O 0.69023 0.74393 0.75959
 O401 O 0.73172 0.75021 0.65367
 O402 O 0.77146 0.78264 0.64612
 O403 O 0.77652 0.78627 0.80247
 O404 O 0.74224 0.74809 0.80981
 O405 O 0.84818 0.74921 0.76595
 O406 O 0.85202 0.71175 0.72722
 O407 O 0.81378 0.82070 0.73062
 O408 O 0.77179 0.83046 0.69648
 O409 O 0.77569 0.82126 0.76825
 O410 O 0.74285 0.83163 0.72886
 O411 O 0.84811 0.78585 0.72895
 O412 O 0.85436 0.75188 0.69364
 O413 O 0.81448 0.74875 0.80111
 O414 O 0.77614 0.71479 0.81063
 O415 O 0.77037 0.71031 0.65164
 O416 O 0.80268 0.75080 0.64364
 O417 O 0.69828 0.74828 0.68907
 O418 O 0.69206 0.78079 0.72934
 O419 O 0.73469 0.67266 0.72659
 O420 O 0.77330 0.66433 0.75741
 Zr421 Zr 0.77274 0.69637 0.72508
 O422 O 0.79957 0.72036 0.75249
 Zr423 Zr 0.72211 0.74673 0.72760
 O424 O 0.74721 0.77319 0.75449
 Zr425 Zr 0.77106 0.74829 0.67588
 O426 O 0.79861 0.77391 0.70077
 Zr427 Zr 0.77525 0.74758 0.77892
 O428 O 0.74808 0.72081 0.75419
 Zr429 Zr 0.82436 0.74795 0.72735
 O430 O 0.79958 0.72191 0.69939
 Zr431 Zr 0.77427 0.79884 0.72916
 O432 O 0.74628 0.77519 0.70222
 O433 O 0.74540 0.72116 0.69987
 O434 O 0.80132 0.77440 0.75498
 C435 C 0.76986 0.68383 0.65915
 C436 C 0.70850 0.68083 0.72811
 C437 C 0.70581 0.74963 0.66260
 C438 C 0.77687 0.81267 0.79441
 C439 C 0.84042 0.74980 0.79238
 C440 C 0.83994 0.81206 0.73075
 H441 H 0.81198 0.70724 0.76375
 H442 H 0.81052 0.78578 0.68793
 H443 H 0.73260 0.70928 0.68781
 H444 H 0.73475 0.78486 0.76702
 H445 H 0.72825 0.73325 0.80393
 H446 H 0.69614 0.75640 0.77577
 H447 H 0.85088 0.73568 0.68034
 H448 H 0.81601 0.73457 0.64685
 H449 H 0.79087 0.70056 0.80520
 H450 H 0.76217 0.67204 0.77373
 H451 H 0.78882 0.82837 0.68414
 H452 H 0.75777 0.79717 0.65331
 H453 H 0.80213 0.64931 0.71715
 H454 H 0.87169 0.71870 0.73104
 H455 H 0.69809 0.79523 0.71498
 H456 H 0.72805 0.82626 0.74296
 O457 O 0.25521 0.67587 0.28333
 O458 O 0.22124 0.66931 0.24406
 O459 O 0.32790 0.71304 0.24399
 O460 O 0.33859 0.75069 0.21675
 O461 O 0.29171 0.75168 0.31978
 O462 O 0.25176 0.78134 0.32831
 O463 O 0.24976 0.78903 0.16921
 O464 O 0.28335 0.75297 0.16089
 O465 O 0.17850 0.75203 0.20575
 O466 O 0.17508 0.71411 0.24556
 O467 O 0.21268 0.82407 0.24256
 O468 O 0.25211 0.83550 0.27351
 O469 O 0.24890 0.82399 0.20339
 O470 O 0.28502 0.83225 0.24515
 O471 O 0.17831 0.78944 0.24256
 O472 O 0.17036 0.75042 0.27672
 O473 O 0.21194 0.75236 0.17038
 O474 O 0.25280 0.71670 0.16284
 O475 O 0.25401 0.70983 0.31860
 O476 O 0.21974 0.74966 0.32591
 O477 O 0.32657 0.75245 0.28578
 O478 O 0.33165 0.78722 0.24422
 O479 O 0.29471 0.67719 0.24494
 O480 O 0.25676 0.66998 0.21017
 Zr481 Zr 0.25525 0.69940 0.24490
 O482 O 0.22720 0.72350 0.21862
 Zr483 Zr 0.30413 0.75125 0.24596
 O484 O 0.27902 0.77665 0.21786
 Zr485 Zr 0.25369 0.74943 0.29608
 O486 O 0.22719 0.77637 0.27124
 Zr487 Zr 0.25146 0.75096 0.19287
 O488 O 0.27991 0.72538 0.21759
 Zr489 Zr 0.20194 0.75074 0.24416
 O490 O 0.22698 0.72357 0.27076
 Zr491 Zr 0.25158 0.80176 0.24307
 O492 O 0.27841 0.77808 0.27138
 O493 O 0.28091 0.72391 0.27204
 O494 O 0.22495 0.77742 0.21687
 C495 C 0.25475 0.68364 0.30974
 C496 C 0.32060 0.68651 0.24448
 C497 C 0.31789 0.75254 0.31202
 C498 C 0.24814 0.81526 0.17715
 C499 C 0.18597 0.75297 0.17937
 C500 C 0.18663 0.81574 0.24169
 H501 H 0.21503 0.71042 0.20716
 H502 H 0.21548 0.78843 0.28410
 H503 H 0.29351 0.71196 0.28435
 H504 H 0.29144 0.78846 0.20546
 H505 H 0.29912 0.74027 0.16740
 H506 H 0.33119 0.75841 0.19833
 H507 H 0.17509 0.76556 0.29085
 H508 H 0.20628 0.73444 0.31978
 H509 H 0.23503 0.70540 0.16465
 H510 H 0.27161 0.67684 0.19675
 H511 H 0.24031 0.82935 0.28997
 H512 H 0.26337 0.79762 0.32131
 H513 H 0.22908 0.64990 0.24823
 H514 H 0.15617 0.71928 0.23727
 H515 H 0.32724 0.79936 0.26111
 H516 H 0.29547 0.83158 0.22671
 O517 O 0.72461 0.29811 0.29447
 O518 O 0.76064 0.30425 0.25553
 O519 O 0.65229 0.26431 0.25059
 O520 O 0.64358 0.22773 0.21944
 O521 O 0.68433 0.22320 0.32605
 O522 O 0.72435 0.19035 0.33463
 O523 O 0.73129 0.18549 0.17862
 O524 O 0.69525 0.22251 0.17044
 O525 O 0.80109 0.22428 0.21512
 O526 O 0.80454 0.26094 0.25486
 O527 O 0.76733 0.15133 0.25190
 O528 O 0.72548 0.14192 0.28462
 O529 O 0.73039 0.15073 0.21308
 O530 O 0.69638 0.14090 0.25201
 O531 O 0.80128 0.18638 0.25237
 O532 O 0.80803 0.22036 0.28725
 O533 O 0.76737 0.22470 0.17955
 O534 O 0.72821 0.25681 0.16965
 O535 O 0.72399 0.26294 0.32856
 O536 O 0.75505 0.22200 0.33784
 O537 O 0.65097 0.22397 0.29009
 O538 O 0.64577 0.19070 0.25039
 O539 O 0.68667 0.29896 0.25335
 O540 O 0.72476 0.30759 0.22222
 Zr541 Zr 0.72522 0.27585 0.25488
 O542 O 0.75233 0.25179 0.22812
 Zr543 Zr 0.67516 0.22517 0.25219
 O544 O 0.70062 0.19865 0.22585
 Zr545 Zr 0.72398 0.22455 0.30468
 O546 O 0.75189 0.19884 0.28035
 Zr547 Zr 0.72833 0.22429 0.20162
 O548 O 0.70081 0.25107 0.22571
 Zr549 Zr 0.77746 0.22448 0.25371
 O550 O 0.75232 0.25062 0.28113
 Zr551 Zr 0.72787 0.17345 0.25190
 O552 O 0.69961 0.19720 0.27827
 O553 O 0.69815 0.25128 0.28006
 O554 O 0.75472 0.19774 0.22606
 C555 C 0.72416 0.28936 0.32070
 C556 C 0.66057 0.29062 0.25171
 C557 C 0.65841 0.22341 0.31668
 C558 C 0.73221 0.15921 0.18694
 C559 C 0.79334 0.22440 0.18853
 C560 C 0.79337 0.16004 0.25151
 H561 H 0.76449 0.26500 0.21693
 H562 H 0.76392 0.18717 0.29348
 H563 H 0.68554 0.26335 0.29206
 H564 H 0.68843 0.18675 0.21319
 H565 H 0.68096 0.23727 0.17585
 H566 H 0.64912 0.21431 0.20395
 H567 H 0.80394 0.23582 0.30121
 H568 H 0.76920 0.23728 0.33410
 H569 H 0.74135 0.27217 0.17600
 H570 H 0.71252 0.30019 0.20645
 H571 H 0.74158 0.14510 0.29813
 H572 H 0.71027 0.17610 0.32764
 H573 H 0.75395 0.32349 0.26176
 H574 H 0.82426 0.25437 0.25061
 H575 H 0.65204 0.17645 0.26496
 H576 H 0.68241 0.14539 0.23658
 C577 C 0.25418 0.12350 0.09759
 C578 C 0.25106 0.09425 0.10515
 C579 C 0.24127 0.07427 0.08430
 C580 C 0.23487 0.08365 0.05597
 C581 C 0.23819 0.11283 0.04833
 C582 C 0.24795 0.13286 0.06921
 C583 C 0.25119 0.16195 0.06110
 C584 C 0.24502 0.17096 0.03312
 C585 C 0.23535 0.15136 0.01273
 C586 C 0.23185 0.12260 0.02017
 C587 C 0.23805 0.04513 0.09246
 C588 C 0.24450 0.03602 0.12031
 C589 C 0.25429 0.05557 0.14063
 C590 C 0.25746 0.08439 0.13330
 C591 C 0.22578 0.06282 0.03476
 C592 C 0.21909 0.04369 0.01872
 C593 C 0.26210 0.14410 0.11954
 C594 C 0.26731 0.16117 0.13825
 H595 H 0.25861 0.17797 0.07623
 H596 H 0.24763 0.19329 0.02726
 H597 H 0.23049 0.15846 -0.00894
 H598 H 0.22408 0.10815 0.00369
 H599 H 0.23050 0.02906 0.07748
 H600 H 0.24189 0.01367 0.12614
 H601 H 0.25933 0.04840 0.16224
 H602 H 0.26507 0.09878 0.14992
 C603 C 0.74665 0.62851 0.59552
 C604 C 0.71838 0.61779 0.59710
 C605 C 0.70854 0.59778 0.57627
 C606 C 0.72701 0.58874 0.55404
 C607 C 0.75449 0.60103 0.55129
 C608 C 0.76439 0.62097 0.57216
 C609 C 0.79204 0.63280 0.56918
 C610 C 0.80936 0.62526 0.54607
 C611 C 0.79966 0.60577 0.52561
 C612 C 0.77260 0.59364 0.52814
 C613 C 0.68035 0.58708 0.57837
 C614 C 0.66226 0.59613 0.60031
 C615 C 0.67180 0.61585 0.62061
 C616 C 0.69957 0.62651 0.61923
 C617 C 0.71893 0.56492 0.53577
 C618 C 0.71341 0.54405 0.52159
 C619 C 0.75719 0.64738 0.61791
 C620 C 0.76435 0.66351 0.63681
 H621 H 0.80047 0.64808 0.58455
 H622 H 0.83042 0.63460 0.54404
 H623 H 0.81317 0.60002 0.50767
 H624 H 0.76592 0.57868 0.51162
 H625 H 0.67193 0.57185 0.56294
 H626 H 0.64070 0.58783 0.60155
 H627 H 0.65766 0.62285 0.63759
 H628 H 0.70600 0.64176 0.63556
 C629 C 0.76646 0.89134 0.13846
 C630 C 0.78119 0.87985 0.11452
 C631 C 0.78666 0.89744 0.09023
 C632 C 0.77711 0.92631 0.08991
 C633 C 0.76290 0.93796 0.11408
 C634 C 0.75781 0.92048 0.13857
 C635 C 0.74395 0.93266 0.16265
 C636 C 0.73523 0.96130 0.16247
 C637 C 0.73986 0.97830 0.13836
 C638 C 0.75344 0.96684 0.11435
 C639 C 0.80151 0.88555 0.06657
 C640 C 0.81061 0.85704 0.06689
 C641 C 0.80508 0.83974 0.09056
 C642 C 0.79061 0.85090 0.11418
 C643 C 0.78106 0.94364 0.06435
 C644 C 0.78378 0.95766 0.04278
 C645 C 0.76011 0.87290 0.16271
 C646 C 0.75579 0.85639 0.18212
 H647 H 0.73980 0.92021 0.18183
 H648 H 0.72473 0.97032 0.18110
 H649 H 0.73294 1.00051 0.13828
 H650 H 0.75651 0.98087 0.09608
 H651 H 0.80630 0.89814 0.04764
 H652 H 0.82202 0.84832 0.04867
 H653 H 0.81224 0.81762 0.09074
 H654 H 0.78703 0.83662 0.13216
 C655 C 0.26042 0.39378 0.63755
 C656 C 0.28020 0.38485 0.61635
 C657 C 0.28492 0.40228 0.59176
 C658 C 0.26967 0.42838 0.58840
 C659 C 0.25024 0.43751 0.60980
 C660 C 0.24580 0.42027 0.63459
 C661 C 0.22658 0.42999 0.65589
 C662 C 0.21206 0.45600 0.65272
 C663 C 0.21615 0.47271 0.62831
 C664 C 0.23489 0.46361 0.60696
 C665 C 0.30480 0.39296 0.57086
 C666 C 0.31947 0.36706 0.57409
 C667 C 0.31469 0.34989 0.59802
 C668 C 0.29542 0.35863 0.61904
 C669 C 0.27348 0.44544 0.56262
 C670 C 0.27632 0.45933 0.54098
 C671 C 0.25494 0.37529 0.66200
 C672 C 0.25137 0.35890 0.68170
 H673 H 0.22265 0.41766 0.67520
 H674 H 0.19750 0.46318 0.66925
 H675 H 0.20480 0.49287 0.62591
 H676 H 0.23735 0.47734 0.58836
 H677 H 0.30921 0.40555 0.55183
 H678 H 0.33459 0.36026 0.55790
 H679 H 0.32606 0.32974 0.60037
 H680 H 0.29264 0.34459 0.63736
 C681 C 0.76150 0.11227 0.86774
 C682 C 0.76754 0.08504 0.85550
 C683 C 0.77307 0.06102 0.87364
 C684 C 0.77241 0.06432 0.90385
 C685 C 0.76602 0.09152 0.91607
 C686 C 0.76062 0.11554 0.89795
 C687 C 0.75448 0.14248 0.91063
 C688 C 0.75363 0.14563 0.94041
 C689 C 0.75884 0.12218 0.95817
 C690 C 0.76492 0.09542 0.94626
 C691 C 0.77922 0.03411 0.86098
 C692 C 0.77973 0.03092 0.83119
 C693 C 0.77430 0.05437 0.81342
 C694 C 0.76830 0.08118 0.82531
 C695 C 0.77816 0.04008 0.92275
 C696 C 0.78229 0.02199 0.94090
 C697 C 0.75705 0.13707 0.84927
 C698 C 0.75419 0.15733 0.83336
 H699 H 0.75029 0.16139 0.89771
 H700 H 0.74895 0.16640 0.94975
 H701 H 0.75816 0.12471 0.98131
 H702 H 0.76870 0.07792 0.96102
 H703 H 0.78372 0.01534 0.87397
 H704 H 0.78440 0.01015 0.82185
 H705 H 0.77475 0.05178 0.79028
 H706 H 0.76421 0.09876 0.81061
 C707 C 0.26474 0.61588 0.36473
 C708 C 0.27059 0.58868 0.35235
 C709 C 0.27613 0.56455 0.37036
 C710 C 0.27557 0.56771 0.40059
 C711 C 0.27025 0.59508 0.41292
 C712 C 0.26447 0.61911 0.39494
 C713 C 0.25853 0.64602 0.40777
 C714 C 0.25877 0.64925 0.43756
 C715 C 0.26508 0.62595 0.45515
 C716 C 0.27064 0.59915 0.44311
 C717 C 0.28226 0.53772 0.35756
 C718 C 0.28262 0.53467 0.32774
 C719 C 0.27678 0.55813 0.31012
 C720 C 0.27098 0.58490 0.32215
 C721 C 0.27918 0.54298 0.41943
 C722 C 0.28112 0.52459 0.43764
 C723 C 0.26006 0.64072 0.34637
 C724 C 0.25698 0.66095 0.33045
 H725 H 0.25380 0.66487 0.39496
 H726 H 0.25437 0.67002 0.44701
 H727 H 0.26576 0.62866 0.47826
 H728 H 0.27551 0.58182 0.45773
 H729 H 0.28703 0.51896 0.37046
 H730 H 0.28746 0.51402 0.31826
 H731 H 0.27688 0.55561 0.28697
 H732 H 0.26674 0.60253 0.30754
 C733 C 0.21699 0.85258 0.88245
 C734 C 0.23764 0.85670 0.90445
 C735 C 0.23383 0.87894 0.92502
 C736 C 0.20945 0.89697 0.92341
 C737 C 0.18797 0.89174 0.90248
 C738 C 0.19173 0.86944 0.88195
 C739 C 0.16991 0.86457 0.86128
 C740 C 0.14502 0.88109 0.86106
 C741 C 0.14147 0.90304 0.88097
 C742 C 0.16266 0.90845 0.90145
 C743 C 0.25479 0.88273 0.94677
 C744 C 0.27877 0.86496 0.94825
 C745 C 0.28252 0.84323 0.92813
 C746 C 0.26229 0.83909 0.90639
 C747 C 0.20745 0.92194 0.94202
 C748 C 0.20675 0.94331 0.95664
 C749 C 0.22177 0.83122 0.86019
 C750 C 0.22515 0.81352 0.84158
 H751 H 0.17171 0.84778 0.84530
 H752 H 0.12842 0.87691 0.84528
 H753 H 0.12216 0.91591 0.88059
 H754 H 0.15887 0.92563 0.91664
 H755 H 0.25277 0.89929 0.96295
 H756 H 0.29451 0.86805 0.96513
 H757 H 0.30120 0.82948 0.92937
 H758 H 0.26609 0.82186 0.89127
 C759 C 0.71521 0.35072 0.38305
 C760 C 0.72314 0.34551 0.41206
 C761 C 0.71946 0.36739 0.43308
 C762 C 0.70802 0.39438 0.42494
 C763 C 0.69941 0.39934 0.39607
 C764 C 0.70296 0.37745 0.37509
 C765 C 0.69418 0.38294 0.34639
 C766 C 0.68224 0.40930 0.33863
 C767 C 0.67884 0.43073 0.35910
 C768 C 0.68730 0.42595 0.38751
 C769 C 0.72746 0.36170 0.46192
 C770 C 0.73885 0.33514 0.46983
 C771 C 0.74254 0.31377 0.44929
 C772 C 0.73481 0.31878 0.42070
 C773 C 0.70644 0.41769 0.44566
 C774 C 0.70555 0.43836 0.46126
 C775 C 0.71936 0.32867 0.36133
 C776 C 0.72211 0.31068 0.34288
 H777 H 0.69639 0.36697 0.32965
 H778 H 0.67561 0.41311 0.31662
 H779 H 0.66958 0.45119 0.35296
 H780 H 0.68411 0.44329 0.40264
 H781 H 0.72481 0.37763 0.47863
 H782 H 0.74481 0.33111 0.49201
 H783 H 0.75139 0.29318 0.45555
 H784 H 0.73803 0.30150 0.40551
 C785 C 0.13957 0.24619 0.10745
 C786 C 0.11454 0.26199 0.11400
 C787 C 0.08974 0.25905 0.09646
 C788 C 0.09016 0.24038 0.07243
 C789 C 0.11539 0.22508 0.06549
 C790 C 0.14018 0.22795 0.08310
 C791 C 0.16507 0.21219 0.07595
 C792 C 0.16545 0.19411 0.05208
 C793 C 0.14122 0.19135 0.03484
 C794 C 0.11642 0.20661 0.04135
 C795 C 0.06485 0.27484 0.10362
 C796 C 0.06451 0.29305 0.12738
 C797 C 0.08878 0.29596 0.14451
 C798 C 0.11356 0.28066 0.13801
 C799 C 0.06441 0.23666 0.05530
 C800 C 0.04257 0.23405 0.04168
 C801 C 0.16409 0.24763 0.12666
 C802 C 0.18382 0.24835 0.14342
 H803 H 0.18445 0.21368 0.08870
 H804 H 0.18461 0.18214 0.04696
 H805 H 0.14164 0.17724 0.01637
 H806 H 0.09808 0.20375 0.02734
 H807 H 0.04542 0.27333 0.09096
 H808 H 0.04530 0.30497 0.13253
 H809 H 0.08842 0.31015 0.16294
 H810 H 0.13190 0.28367 0.15197
 C811 C 0.64019 0.74430 0.60463
 C812 C 0.61805 0.76507 0.60500
 C813 C 0.59334 0.76122 0.58755
 C814 C 0.59096 0.73663 0.56980
 C815 C 0.61352 0.71632 0.56870
 C816 C 0.63823 0.72015 0.58622
 C817 C 0.66043 0.69945 0.58500
 C818 C 0.65833 0.67572 0.56687
 C819 C 0.63416 0.67198 0.54974
 C820 C 0.61193 0.69198 0.55057
 C821 C 0.57135 0.78218 0.58846
 C822 C 0.57376 0.80624 0.60610
 C823 C 0.59795 0.81000 0.62317
 C824 C 0.61990 0.78972 0.62272
 C825 C 0.56503 0.73218 0.55316
 C826 C 0.54311 0.72936 0.53975
 C827 C 0.66416 0.74701 0.62433
 C828 C 0.68349 0.74875 0.64146
 H829 H 0.67966 0.70146 0.59790
 H830 H 0.67555 0.66016 0.56608
 H831 H 0.63264 0.65352 0.53568
 H832 H 0.59357 0.68821 0.53680
 H833 H 0.55212 0.78027 0.57556
 H834 H 0.55676 0.82206 0.60652
 H835 H 0.59974 0.82874 0.63683
 H836 H 0.63834 0.79364 0.63633
 C837 C 0.10041 0.74637 0.87516
 C838 C 0.10527 0.77083 0.89260
 C839 C 0.08383 0.78017 0.91200
 C840 C 0.05775 0.76496 0.91386
 C841 C 0.05242 0.74127 0.89557
 C842 C 0.07387 0.73188 0.87619
 C843 C 0.06819 0.70801 0.85826
 C844 C 0.04198 0.69389 0.85937
 C845 C 0.02097 0.70312 0.87829
 C846 C 0.02602 0.72652 0.89627
 C847 C 0.08914 0.80462 0.92930
 C848 C 0.11491 0.81944 0.92745
 C849 C 0.13593 0.81027 0.90853
 C850 C 0.13128 0.78629 0.89124
 C851 C 0.03763 0.77207 0.93633
 C852 C 0.02211 0.77707 0.95627
 C853 C 0.12243 0.73696 0.85547
 C854 C 0.14096 0.73090 0.83867
 H855 H 0.08388 0.70007 0.84318
 H856 H 0.03795 0.67569 0.84546
 H857 H 0.00064 0.69211 0.87902
 H858 H 0.00899 0.73304 0.91053
 H859 H 0.07339 0.81264 0.94426
 H860 H 0.11861 0.83812 0.94079
 H861 H 0.15596 0.82176 0.90728
 H862 H 0.14829 0.78006 0.87683
 C863 C 0.59570 0.23455 0.37626
 C864 C 0.56847 0.24510 0.36776
 C865 C 0.54835 0.25350 0.38898
 C866 C 0.55569 0.25141 0.41846
 C867 C 0.58250 0.23986 0.42696
 C868 C 0.60256 0.23139 0.40579
 C869 C 0.62934 0.22015 0.41476
 C870 C 0.63609 0.21736 0.44387
 C871 C 0.61647 0.22564 0.46462
 C872 C 0.58996 0.23677 0.45640
 C873 C 0.52131 0.26407 0.38008
 C874 C 0.51430 0.26627 0.35098
 C875 C 0.53402 0.25820 0.33020
 C876 C 0.56085 0.24775 0.33837
 C877 C 0.53617 0.26160 0.44028
 C878 C 0.52130 0.26957 0.45975
 C879 C 0.61740 0.22884 0.35487
 C880 C 0.63603 0.22542 0.33743
 H881 H 0.64529 0.21330 0.39943
 H882 H 0.65665 0.20870 0.45035
 H883 H 0.62179 0.22341 0.48721
 H884 H 0.57543 0.24282 0.47338
 H885 H 0.50533 0.27065 0.39549
 H886 H 0.49347 0.27430 0.34454
 H887 H 0.52850 0.26000 0.30762
 H888 H 0.57545 0.24164 0.32145
 C889 C 0.88099 0.77520 0.14551
 C890 C 0.88404 0.80155 0.13060
 C891 C 0.90536 0.80442 0.10911
 C892 C 0.92365 0.78099 0.10276
 C893 C 0.92125 0.75500 0.11838
 C894 C 0.89983 0.75207 0.13976
 C895 C 0.89769 0.72578 0.15487
 C896 C 0.91625 0.70306 0.14910
 C897 C 0.93722 0.70594 0.12825
 C898 C 0.93978 0.73155 0.11298
 C899 C 0.90775 0.83084 0.09426
 C900 C 0.88976 0.85386 0.10062
 C901 C 0.86908 0.85114 0.12177
 C902 C 0.86606 0.82530 0.13656
 C903 C 0.94351 0.78293 0.07890
 C904 C 0.95885 0.78401 0.05815
 C905 C 0.85846 0.77196 0.16667
 C906 C 0.83973 0.76990 0.18430
 H907 H 0.88173 0.72252 0.17129
 H908 H 0.91434 0.68311 0.16089
 H909 H 0.95161 0.68824 0.12388
 H910 H 0.95648 0.73280 0.09702
 H911 H 0.92361 0.83404 0.07773
 H912 H 0.89191 0.87393 0.08909
 H913 H 0.85516 0.86909 0.12663
 H914 H 0.84952 0.82419 0.15270
 C915 C 0.37949 0.27864 0.64852
 C916 C 0.38611 0.30607 0.63720
 C917 C 0.40799 0.30893 0.61627
 C918 C 0.42309 0.28434 0.60672
 C919 C 0.41718 0.25709 0.61886
 C920 C 0.39530 0.25423 0.63976
 C921 C 0.38961 0.22673 0.65132
 C922 C 0.40513 0.20274 0.64254
 C923 C 0.42655 0.20553 0.62216
 C924 C 0.43259 0.23233 0.61037
 C925 C 0.41412 0.33652 0.60519
 C926 C 0.39916 0.36065 0.61460
 C927 C 0.37779 0.35787 0.63506
 C928 C 0.37119 0.33094 0.64624
 C929 C 0.44308 0.28652 0.58297
 C930 C 0.45855 0.28717 0.56228
 C931 C 0.35643 0.27558 0.66913
 C932 C 0.33739 0.27353 0.68641
 H933 H 0.37318 0.22348 0.66728
 H934 H 0.40050 0.18187 0.65163
 H935 H 0.43857 0.18682 0.61544
 H936 H 0.44955 0.23342 0.59467
 H937 H 0.43063 0.33973 0.58932
 H938 H 0.40419 0.38162 0.60598
 H939 H 0.36622 0.37667 0.64228
 H940 H 0.35438 0.32989 0.66209
 C941 C 0.86632 0.24586 0.88890
 C942 C 0.89056 0.26358 0.89261
 C943 C 0.90749 0.26114 0.91799
 C944 C 0.90013 0.24089 0.93950
 C945 C 0.87546 0.22372 0.93616
 C946 C 0.85849 0.22619 0.91078
 C947 C 0.83403 0.20857 0.90782
 C948 C 0.82657 0.18915 0.92932
 C949 C 0.84317 0.18680 0.95413
 C950 C 0.86741 0.20381 0.95760
 C951 C 0.93178 0.27902 0.92109
 C952 C 0.93912 0.29863 0.89974
 C953 C 0.92256 0.30096 0.87493
 C954 C 0.89853 0.28369 0.87129
 C955 C 0.91966 0.23621 0.96345
 C956 C 0.93855 0.23313 0.98094
 C957 C 0.84927 0.24796 0.86275
 C958 C 0.83416 0.24927 0.84167
 H959 H 0.82044 0.20959 0.88892
 H960 H 0.80782 0.17584 0.92668
 H961 H 0.83724 0.17170 0.97077
 H962 H 0.87970 0.20128 0.97724
 H963 H 0.94531 0.27815 0.94003
 H964 H 0.95775 0.31211 0.90250
 H965 H 0.92834 0.31623 0.85841
 H966 H 0.88632 0.28629 0.85160
 C967 C 0.37012 0.74744 0.38239
 C968 C 0.39580 0.76298 0.38609
 C969 C 0.41196 0.75983 0.41189
 C970 C 0.40237 0.74104 0.43383
 C971 C 0.37641 0.72597 0.43041
 C972 C 0.36023 0.72914 0.40460
 C973 C 0.33446 0.71355 0.40154
 C974 C 0.32498 0.69545 0.42334
 C975 C 0.34078 0.69242 0.44859
 C976 C 0.36625 0.70746 0.45220
 C977 C 0.43773 0.77548 0.41498
 C978 C 0.44722 0.79365 0.39323
 C979 C 0.43140 0.79667 0.36799
 C980 C 0.40596 0.78157 0.36435
 C981 C 0.42080 0.73552 0.45845
 C982 C 0.43891 0.73149 0.47654
 C983 C 0.35361 0.75032 0.35598
 C984 C 0.33846 0.75195 0.33497
 H985 H 0.32138 0.71511 0.38232
 H986 H 0.30527 0.68373 0.42058
 H987 H 0.33327 0.67831 0.46542
 H988 H 0.37785 0.70450 0.47222
 H989 H 0.45078 0.77398 0.43422
 H990 H 0.46694 0.80546 0.39599
 H991 H 0.43888 0.81079 0.35115
 H992 H 0.39440 0.78459 0.34433
 C993 C 0.14861 0.11659 0.23062
 C994 C 0.12269 0.12100 0.24559
 C995 C 0.10089 0.09981 0.24455
 C996 C 0.10505 0.07431 0.22846
 C997 C 0.13115 0.06964 0.21392
 C998 C 0.15302 0.09081 0.21503
 C999 C 0.17891 0.08563 0.20029
 C1000 C 0.18309 0.06026 0.18496
 C1001 C 0.16170 0.03962 0.18384
 C1002 C 0.13594 0.04419 0.19804
 C1003 C 0.07515 0.10482 0.25967
 C1004 C 0.07107 0.12998 0.27534
 C1005 C 0.09237 0.15068 0.27632
 C1006 C 0.11792 0.14637 0.26166
 C1007 C 0.08198 0.05353 0.22638
 C1008 C 0.06149 0.03787 0.22538
 C1009 C 0.17039 0.13884 0.23087
 C1010 C 0.18826 0.15750 0.23094
 H1011 H 0.19617 0.10105 0.20051
 H1012 H 0.20303 0.05660 0.17388
 H1013 H 0.16508 0.01997 0.17189
 H1014 H 0.11985 0.02762 0.19647
 H1015 H 0.05791 0.08938 0.25963
 H1016 H 0.05126 0.13342 0.28678
 H1017 H 0.08910 0.17020 0.28852
 H1018 H 0.13385 0.16311 0.26312
 C1019 C 0.64839 0.61706 0.72508
 C1020 C 0.62282 0.61959 0.74102
 C1021 C 0.60164 0.59783 0.73908
 C1022 C 0.60613 0.57359 0.72119
 C1023 C 0.63188 0.57081 0.70562
 C1024 C 0.65307 0.59262 0.70752
 C1025 C 0.67855 0.58945 0.69156
 C1026 C 0.68300 0.56542 0.67426
 C1027 C 0.66231 0.54412 0.67245
 C1028 C 0.63699 0.54667 0.68791
 C1029 C 0.57617 0.60101 0.75513
 C1030 C 0.57177 0.62492 0.77256
 C1031 C 0.59248 0.64616 0.77444
 C1032 C 0.61775 0.64365 0.75891
 C1033 C 0.58352 0.55241 0.71821
 C1034 C 0.56311 0.53668 0.71670
 C1035 C 0.66963 0.63978 0.72653
 C1036 C 0.68719 0.65870 0.72758
 H1037 H 0.69524 0.60549 0.69221
 H1038 H 0.70258 0.56340 0.66211
 H1039 H 0.66588 0.52551 0.65898
 H1040 H 0.62150 0.52955 0.68588
 H1041 H 0.55939 0.58508 0.75448
 H1042 H 0.55217 0.62697 0.78466
 H1043 H 0.58897 0.66470 0.78802
 H1044 H 0.63321 0.66075 0.76111
 C1045 C 0.88938 0.13183 0.75441
 C1046 C 0.88952 0.10370 0.74297
 C1047 C 0.91391 0.08581 0.74692
 C1048 C 0.93796 0.09609 0.76252
 C1049 C 0.93808 0.12443 0.77337
 C1050 C 0.91377 0.14242 0.76922
 C1051 C 0.91441 0.17071 0.78032
 C1052 C 0.93839 0.18092 0.79501
 C1053 C 0.96210 0.16326 0.79912
 C1054 C 0.96201 0.13527 0.78857
 C1055 C 0.91347 0.05771 0.73526
 C1056 C 0.88965 0.04756 0.72032
 C1057 C 0.86578 0.06505 0.71659
 C1058 C 0.86561 0.09282 0.72772
 C1059 C 0.96154 0.07661 0.76855
 C1060 C 0.97887 0.05787 0.77292
 C1061 C 0.86402 0.14972 0.75145
 C1062 C 0.84337 0.16520 0.74963
 H1063 H 0.89648 0.18523 0.77771
 H1064 H 0.93855 0.20264 0.80329
 H1065 H 0.98066 0.17128 0.81056
 H1066 H 0.98084 0.12224 0.79241
 H1067 H 0.93152 0.04328 0.73743
 H1068 H 0.88972 0.02602 0.71159
 H1069 H 0.84731 0.05707 0.70498
 H1070 H 0.84656 0.10563 0.72421
 C1071 C 0.38792 0.63174 0.25615
 C1072 C 0.38341 0.60316 0.26533
 C1073 C 0.40720 0.58532 0.27210
 C1074 C 0.43539 0.59608 0.26935
 C1075 C 0.43990 0.62471 0.26042
 C1076 C 0.41609 0.64264 0.25381
 C1077 C 0.42113 0.67125 0.24494
 C1078 C 0.44890 0.68179 0.24265
 C1079 C 0.47216 0.66422 0.24911
 C1080 C 0.46783 0.63596 0.25791
 C1081 C 0.40210 0.55684 0.28147
 C1082 C 0.37439 0.54624 0.28378
 C1083 C 0.35117 0.56365 0.27693
 C1084 C 0.35547 0.59182 0.26790
 C1085 C 0.45937 0.57681 0.27410
 C1086 C 0.47712 0.55829 0.27737
 C1087 C 0.36354 0.65025 0.25042
 C1088 C 0.34349 0.66617 0.24683
 H1089 H 0.40373 0.68572 0.23966
 H1090 H 0.45239 0.70373 0.23584
 H1091 H 0.49368 0.67252 0.24735
 H1092 H 0.48653 0.62310 0.26288
 H1093 H 0.41939 0.54246 0.28721
 H1094 H 0.37092 0.52440 0.29091
 H1095 H 0.32972 0.55525 0.27858
 H1096 H 0.33668 0.60452 0.26286
 C1097 C 0.10734 0.85856 0.76354
 C1098 C 0.11950 0.88361 0.77579
 C1099 C 0.10215 0.90819 0.78064
 C1100 C 0.07281 0.90768 0.77301
 C1101 C 0.06047 0.88238 0.76156
 C1102 C 0.07778 0.85770 0.75689
 C1103 C 0.06498 0.83263 0.74553
 C1104 C 0.03585 0.83195 0.73901
 C1105 C 0.01893 0.85612 0.74347
 C1106 C 0.03101 0.88114 0.75451
 C1107 C 0.11473 0.93294 0.79300
 C1108 C 0.14367 0.93340 0.80031
 C1109 C 0.16069 0.90941 0.79543
 C1110 C 0.14887 0.88475 0.78335
 C1111 C 0.05568 0.93352 0.77589
 C1112 C 0.04182 0.95529 0.77763
 C1113 C 0.12549 0.83389 0.75797
 C1114 C 0.14197 0.81431 0.75437
 H1115 H 0.07731 0.81333 0.74168
 H1116 H 0.02636 0.81257 0.73042
 H1117 H -0.00368 0.85550 0.73835
 H1118 H 0.01703 0.89940 0.75757
 H1119 H 0.10236 0.95212 0.79725
 H1120 H 0.15292 0.95246 0.80983
 H1121 H 0.18314 0.90984 0.80122
 H1122 H 0.16300 0.86660 0.78019
 C1123 C 0.60534 0.35774 0.26030
 C1124 C 0.61831 0.38520 0.26029
 C1125 C 0.60152 0.41004 0.26563
 C1126 C 0.57188 0.40729 0.27090
 C1127 C 0.55896 0.37984 0.27121
 C1128 C 0.57574 0.35495 0.26579
 C1129 C 0.56239 0.32773 0.26610
 C1130 C 0.53323 0.32518 0.27161
 C1131 C 0.51683 0.34951 0.27702
 C1132 C 0.52946 0.37658 0.27693
 C1133 C 0.61495 0.43727 0.26561
 C1134 C 0.64413 0.43985 0.26043
 C1135 C 0.66057 0.41555 0.25514
 C1136 C 0.64794 0.38850 0.25509
 C1137 C 0.55472 0.43285 0.27516
 C1138 C 0.54097 0.45454 0.27800
 C1139 C 0.62299 0.33251 0.25591
 C1140 C 0.63927 0.31265 0.25320
 H1141 H 0.57431 0.30821 0.26205
 H1142 H 0.52332 0.30421 0.27172
 H1143 H 0.49420 0.34743 0.28130
 H1144 H 0.51590 0.39487 0.28144
 H1145 H 0.60310 0.45683 0.26966
 H1146 H 0.65404 0.46083 0.26053
 H1147 H 0.68325 0.41766 0.25115
 H1148 H 0.66169 0.37027 0.25090
 C1149 C 0.87550 0.89911 0.26213
 C1150 C 0.90412 0.89516 0.27135
 C1151 C 0.92496 0.91626 0.26486
 C1152 C 0.91702 0.94117 0.24915
 C1153 C 0.88834 0.94531 0.24025
 C1154 C 0.86744 0.92428 0.24692
 C1155 C 0.83883 0.92890 0.23785
 C1156 C 0.83113 0.95359 0.22264
 C1157 C 0.85165 0.97405 0.21598
 C1158 C 0.87999 0.97000 0.22452
 C1159 C 0.95356 0.91168 0.27406
 C1160 C 0.96129 0.88698 0.28919
 C1161 C 0.94086 0.86638 0.29556
 C1162 C 0.91257 0.87031 0.28681
 C1163 C 0.93883 0.96183 0.24163
 C1164 C 0.95862 0.97730 0.23608
 C1165 C 0.85473 0.87660 0.26698
 C1166 C 0.83740 0.85779 0.26999
 H1167 H 0.82214 0.91357 0.24248
 H1168 H 0.80915 0.95682 0.21591
 H1169 H 0.84558 0.99317 0.20414
 H1170 H 0.89525 0.98641 0.21873
 H1171 H 0.97027 0.92705 0.26969
 H1172 H 0.98326 0.88383 0.29600
 H1173 H 0.94696 0.84724 0.30734
 H1174 H 0.89745 0.85368 0.29232
 C1175 C 0.37364 0.40074 0.75518
 C1176 C 0.39433 0.39355 0.73422
 C1177 C 0.41522 0.41404 0.72617
 C1178 C 0.41550 0.44143 0.73938
 C1179 C 0.39476 0.44866 0.76021
 C1180 C 0.37352 0.42835 0.76789
 C1181 C 0.35264 0.43622 0.78834
 C1182 C 0.35282 0.46336 0.80095
 C1183 C 0.37387 0.48307 0.79376
 C1184 C 0.39478 0.47584 0.77377
 C1185 C 0.43567 0.40642 0.70512
 C1186 C 0.43563 0.37924 0.69262
 C1187 C 0.41534 0.35911 0.70068
 C1188 C 0.39475 0.36611 0.72107
 C1189 C 0.43823 0.46133 0.73266
 C1190 C 0.45834 0.47644 0.72740
 C1191 C 0.35225 0.37978 0.76308
 C1192 C 0.33445 0.36190 0.76813
 H1193 H 0.33597 0.42152 0.79476
 H1194 H 0.33661 0.46909 0.81647
 H1195 H 0.37401 0.50409 0.80369
 H1196 H 0.41080 0.49183 0.76897
 H1197 H 0.45191 0.42133 0.69811
 H1198 H 0.45148 0.37374 0.67664
 H1199 H 0.41551 0.33796 0.69103
 H1200 H 0.37931 0.34974 0.72646
 C1201 C 0.12339 0.26030 0.90094
 C1202 C 0.10119 0.28036 0.90592
 C1203 C 0.08068 0.27492 0.92762
 C1204 C 0.08245 0.24940 0.94415
 C1205 C 0.10498 0.22961 0.93959
 C1206 C 0.12559 0.23511 0.91795
 C1207 C 0.14795 0.21500 0.91374
 C1208 C 0.14983 0.19017 0.93041
 C1209 C 0.12953 0.18470 0.95140
 C1210 C 0.10732 0.20414 0.95606
 C1211 C 0.05854 0.29523 0.93211
 C1212 C 0.05676 0.32017 0.91561
 C1213 C 0.07685 0.32547 0.89437
 C1214 C 0.09885 0.30587 0.88947
 C1215 C 0.06008 0.24297 0.96458
 C1216 C 0.04025 0.23831 0.98030
 C1217 C 0.14373 0.26533 0.87811
 C1218 C 0.16093 0.26896 0.85930
 H1219 H 0.16422 0.21824 0.89761
 H1220 H 0.16713 0.17509 0.92705
 H1221 H 0.13100 0.16528 0.96414
 H1222 H 0.09207 0.19903 0.97269
 H1223 H 0.04243 0.29213 0.94841
 H1224 H 0.03970 0.33546 0.91934
 H1225 H 0.07538 0.34488 0.88160
 H1226 H 0.11398 0.31095 0.87271
 C1227 C 0.62533 0.75591 0.39847
 C1228 C 0.59661 0.76417 0.39332
 C1229 C 0.57554 0.75868 0.41443
 C1230 C 0.58336 0.74500 0.44057
 C1231 C 0.61212 0.73709 0.44591
 C1232 C 0.63321 0.74248 0.42472
 C1233 C 0.66182 0.73410 0.43035
 C1234 C 0.66938 0.72089 0.45624
 C1235 C 0.64875 0.71573 0.47701
 C1236 C 0.62039 0.72369 0.47202
 C1237 C 0.54686 0.76695 0.40872
 C1238 C 0.53930 0.78024 0.38289
 C1239 C 0.55997 0.78563 0.36225
 C1240 C 0.58832 0.77774 0.36728
 C1241 C 0.56142 0.73859 0.46139
 C1242 C 0.54169 0.73388 0.47715
 C1243 C 0.64655 0.76059 0.37643
 C1244 C 0.66415 0.76399 0.35798
 H1245 H 0.67863 0.73770 0.41487
 H1246 H 0.69136 0.71468 0.46021
 H1247 H 0.65476 0.70552 0.49709
 H1248 H 0.60507 0.71929 0.48879
 H1249 H 0.52998 0.76329 0.42408
 H1250 H 0.51729 0.78637 0.37888
 H1251 H 0.55400 0.79597 0.34223
 H1252 H 0.60362 0.78239 0.35055
 C1253 C 0.89904 0.76268 0.85650
 C1254 C 0.90298 0.79113 0.86650
 C1255 C 0.91975 0.79626 0.89157
 C1256 C 0.93247 0.77291 0.90645
 C1257 C 0.92965 0.74463 0.89564
 C1258 C 0.91288 0.73950 0.87058
 C1259 C 0.91016 0.71104 0.86031
 C1260 C 0.92368 0.68826 0.87438
 C1261 C 0.94005 0.69326 0.89891
 C1262 C 0.94307 0.72106 0.90952
 C1263 C 0.92324 0.82483 0.90127
 C1264 C 0.91069 0.84773 0.88650
 C1265 C 0.89433 0.84272 0.86195
 C1266 C 0.89031 0.81478 0.85206
 C1267 C 0.94782 0.77770 0.93325
 C1268 C 0.96054 0.78072 0.95568
 C1269 C 0.87939 0.75718 0.83288
 C1270 C 0.86211 0.75321 0.81397
 H1271 H 0.89770 0.70611 0.84126
 H1272 H 0.92143 0.66663 0.86620
 H1273 H 0.95053 0.67550 0.90975
 H1274 H 0.95610 0.72385 0.92862
 H1275 H 0.93580 0.82977 0.92025
 H1276 H 0.91363 0.86946 0.89417
 H1277 H 0.88460 0.86057 0.85057
 H1278 H 0.87743 0.81198 0.83285
 C1279 C 0.40148 0.26423 0.35591
 C1280 C 0.40017 0.29139 0.36955
 C1281 C 0.41623 0.29638 0.39511
 C1282 C 0.43378 0.27431 0.40661
 C1283 C 0.43697 0.24808 0.39155
 C1284 C 0.42066 0.24297 0.36618
 C1285 C 0.42391 0.21648 0.35168
 C1286 C 0.44301 0.19572 0.36178
 C1287 C 0.45909 0.20076 0.38651
 C1288 C 0.45611 0.22655 0.40137
 C1289 C 0.41427 0.32351 0.40864
 C1290 C 0.39736 0.34532 0.39691
 C1291 C 0.38194 0.34056 0.37171
 C1292 C 0.38301 0.31386 0.35825
 C1293 C 0.44805 0.27817 0.43416
 C1294 C 0.46016 0.28048 0.45701
 C1295 C 0.38184 0.25773 0.33250
 C1296 C 0.36444 0.25301 0.31387
 H1297 H 0.41198 0.21170 0.33225
 H1298 H 0.44538 0.17563 0.35033
 H1299 H 0.47396 0.18460 0.39422
 H1300 H 0.46917 0.22953 0.42043
 H1301 H 0.42601 0.32823 0.42820
 H1302 H 0.39621 0.36602 0.40742
 H1303 H 0.36887 0.35759 0.36268
 H1304 H 0.37055 0.31117 0.33874
 C1305 C 0.11545 0.76337 0.12835
 C1306 C 0.10013 0.78954 0.13103
 C1307 C 0.07393 0.79351 0.11581
 C1308 C 0.06332 0.77139 0.09788
 C1309 C 0.07818 0.74489 0.09596
 C1310 C 0.10435 0.74091 0.11117
 C1311 C 0.11898 0.71439 0.10860
 C1312 C 0.10805 0.69240 0.09150
 C1313 C 0.08244 0.69625 0.07666
 C1314 C 0.06759 0.72214 0.07878
 C1315 C 0.05902 0.81981 0.11873
 C1316 C 0.06974 0.84168 0.13614
 C1317 C 0.09545 0.83793 0.15084
 C1318 C 0.11051 0.81218 0.14849
 C1319 C 0.03946 0.77687 0.07849
 C1320 C 0.02189 0.78049 0.05974
 C1321 C 0.14193 0.75915 0.14432
 C1322 C 0.16298 0.75592 0.15907
 H1323 H 0.13900 0.71039 0.11970
 H1324 H 0.11953 0.67226 0.08976
 H1325 H 0.07402 0.67909 0.06343
 H1326 H 0.04767 0.72402 0.06695
 H1327 H 0.03890 0.82363 0.10772
 H1328 H 0.05805 0.86167 0.13819
 H1329 H 0.10379 0.85508 0.16413
 H1330 H 0.13038 0.81028 0.16041
 C1331 C 0.61642 0.26342 0.63024
 C1332 C 0.60423 0.29132 0.62924
 C1333 C 0.57784 0.29595 0.61455
 C1334 C 0.56390 0.27272 0.60081
 C1335 C 0.57564 0.24469 0.60262
 C1336 C 0.60201 0.24005 0.61728
 C1337 C 0.61348 0.21190 0.61847
 C1338 C 0.59928 0.18897 0.60556
 C1339 C 0.57346 0.19348 0.59128
 C1340 C 0.56169 0.22096 0.58974
 C1341 C 0.56609 0.32396 0.61377
 C1342 C 0.58005 0.34684 0.62709
 C1343 C 0.60593 0.34237 0.64129
 C1344 C 0.61794 0.31497 0.64251
 C1345 C 0.53993 0.27795 0.58145
 C1346 C 0.52229 0.28102 0.56266
 C1347 C 0.64284 0.25848 0.64610
 C1348 C 0.66368 0.25461 0.66100
 H1349 H 0.63353 0.20732 0.62929
 H1350 H 0.60836 0.16759 0.60667
 H1351 H 0.56248 0.17559 0.58134
 H1352 H 0.54146 0.22333 0.57855
 H1353 H 0.54594 0.32839 0.60306
 H1354 H 0.57072 0.36813 0.62641
 H1355 H 0.61668 0.36021 0.65158
 H1356 H 0.63806 0.31258 0.65390
 C1357 C 0.85533 0.22355 0.12663
 C1358 C 0.88439 0.22696 0.13455
 C1359 C 0.90585 0.22743 0.11302
 C1360 C 0.89813 0.22462 0.08361
 C1361 C 0.86912 0.22088 0.07570
 C1362 C 0.84765 0.22026 0.09726
 C1363 C 0.81881 0.21635 0.08879
 C1364 C 0.81138 0.21319 0.05987
 C1365 C 0.83236 0.21391 0.03882
 C1366 C 0.86094 0.21772 0.04652
 C1367 C 0.93477 0.23076 0.12157
 C1368 C 0.94227 0.23354 0.15049
 C1369 C 0.92128 0.23316 0.17150
 C1370 C 0.89265 0.22995 0.16375
 C1371 C 0.92025 0.22570 0.06179
 C1372 C 0.93994 0.22686 0.04517
 C1373 C 0.83340 0.22374 0.14869
 C1374 C 0.81527 0.22404 0.16706
 H1375 H 0.80174 0.21564 0.10439
 H1376 H 0.78921 0.21018 0.05377
 H1377 H 0.82647 0.21148 0.01640
 H1378 H 0.87653 0.21813 0.02942
 H1379 H 0.95192 0.23120 0.10607
 H1380 H 0.96450 0.23601 0.15661
 H1381 H 0.92721 0.23528 0.19394
 H1382 H 0.87713 0.22966 0.18092
 C1383 C 0.35524 0.72563 0.62328
 C1384 C 0.38216 0.73855 0.62834
 C1385 C 0.40301 0.73888 0.60624
 C1386 C 0.39687 0.72625 0.57917
 C1387 C 0.36989 0.71351 0.57402
 C1388 C 0.34901 0.71314 0.59616
 C1389 C 0.32226 0.70009 0.59056
 C1390 C 0.31628 0.68780 0.56386
 C1391 C 0.33667 0.68825 0.54222
 C1392 C 0.36322 0.70093 0.54712
 C1393 C 0.42981 0.75190 0.61190
 C1394 C 0.43581 0.76418 0.63858
 C1395 C 0.41541 0.76383 0.66017
 C1396 C 0.38886 0.75120 0.65524
 C1397 C 0.41892 0.72560 0.55729
 C1398 C 0.43879 0.72542 0.54088
 C1399 C 0.33399 0.72539 0.64597
 C1400 C 0.31638 0.72550 0.66482
 H1401 H 0.30573 0.69922 0.60673
 H1402 H 0.29571 0.67788 0.55995
 H1403 H 0.33191 0.67870 0.52152
 H1404 H 0.37841 0.70079 0.52965
 H1405 H 0.44641 0.75278 0.59583
 H1406 H 0.45640 0.77403 0.64250
 H1407 H 0.42017 0.77339 0.68086
 H1408 H 0.37372 0.75146 0.67274
 C1409 C 0.22819 0.14571 0.89773
 C1410 C 0.20193 0.13090 0.89474
 C1411 C 0.19697 0.10560 0.91104
 C1412 C 0.21824 0.09538 0.93030
 C1413 C 0.24367 0.11128 0.93469
 C1414 C 0.24863 0.13657 0.91837
 C1415 C 0.27417 0.15212 0.92307
 C1416 C 0.29421 0.14302 0.94345
 C1417 C 0.28941 0.11825 0.95938
 C1418 C 0.26454 0.10240 0.95504
 C1419 C 0.17068 0.09100 0.90755
 C1420 C 0.14967 0.10141 0.88884
 C1421 C 0.15439 0.12633 0.87313
 C1422 C 0.18030 0.14082 0.87571
 C1423 C 0.21438 0.06827 0.94517
 C1424 C 0.21196 0.04576 0.95773
 C1425 C 0.23471 0.16924 0.87841
 C1426 C 0.23953 0.18801 0.86127
 H1427 H 0.27876 0.17158 0.91125
 H1428 H 0.31357 0.15526 0.94690
 H1429 H 0.30503 0.11127 0.97521
 H1430 H 0.26172 0.08334 0.96804
 H1431 H 0.16599 0.07161 0.91943
 H1432 H 0.12959 0.09011 0.88656
 H1433 H 0.13793 0.13442 0.85875
 H1434 H 0.18298 0.16009 0.86300
 C1435 C 0.73135 0.63766 0.39222
 C1436 C 0.72449 0.61104 0.37919
 C1437 C 0.71808 0.58686 0.39661
 C1438 C 0.71875 0.58938 0.42695
 C1439 C 0.72500 0.61613 0.43998
 C1440 C 0.73133 0.64037 0.42255
 C1441 C 0.73757 0.66686 0.43604
 C1442 C 0.73757 0.66934 0.46594
 C1443 C 0.73134 0.64566 0.48298
 C1444 C 0.72511 0.61931 0.47026
 C1445 C 0.71115 0.56052 0.38310
 C1446 C 0.71057 0.55814 0.35322
 C1447 C 0.71695 0.58175 0.33617
 C1448 C 0.72386 0.60793 0.34887
 C1449 C 0.71401 0.56418 0.44463
 C1450 C 0.71067 0.54288 0.45894
 C1451 C 0.73798 0.66215 0.37415
 C1452 C 0.74273 0.68162 0.35780
 H1453 H 0.74248 0.68589 0.42366
 H1454 H 0.74238 0.68977 0.47592
 H1455 H 0.73130 0.64771 0.50619
 H1456 H 0.72025 0.60154 0.48436
 H1457 H 0.70598 0.54154 0.39543
 H1458 H 0.70512 0.53786 0.34326
 H1459 H 0.71644 0.57981 0.31297
 H1460 H 0.72855 0.62567 0.33464
 C1461 C 0.74946 0.09752 0.12720
 C1462 C 0.76652 0.07363 0.13536
 C1463 C 0.77462 0.05298 0.11442
 C1464 C 0.76527 0.05620 0.08560
 C1465 C 0.74819 0.08009 0.07745
 C1466 C 0.74029 0.10082 0.09833
 C1467 C 0.72342 0.12465 0.08968
 C1468 C 0.71463 0.12792 0.06117
 C1469 C 0.72234 0.10764 0.04071
 C1470 C 0.73890 0.08397 0.04862
 C1471 C 0.79215 0.02961 0.12286
 C1472 C 0.80110 0.02646 0.15135
 C1473 C 0.79303 0.04652 0.17191
 C1474 C 0.77598 0.06992 0.16412
 C1475 C 0.77329 0.03540 0.06393
 C1476 C 0.77889 0.01969 0.04420
 C1477 C 0.74226 0.11930 0.14821
 C1478 C 0.73699 0.13760 0.16567
 H1479 H 0.71685 0.14101 0.10480
 H1480 H 0.70177 0.14628 0.05493
 H1481 H 0.71547 0.11026 0.01857
 H1482 H 0.74434 0.06885 0.03184
 H1483 H 0.79907 0.01356 0.10758
 H1484 H 0.81436 0.00835 0.15749
 H1485 H 0.80009 0.04401 0.19400
 H1486 H 0.77033 0.08501 0.18085
 C1487 C 0.24565 0.59879 0.62606
 C1488 C 0.25586 0.57122 0.63398
 C1489 C 0.26286 0.55088 0.61235
 C1490 C 0.25891 0.55803 0.58302
 C1491 C 0.24810 0.58540 0.57512
 C1492 C 0.24162 0.60590 0.59672
 C1493 C 0.23121 0.63327 0.58835
 C1494 C 0.22708 0.64009 0.55944
 C1495 C 0.23316 0.61996 0.53829
 C1496 C 0.24366 0.59295 0.54589
 C1497 C 0.27379 0.52375 0.62069
 C1498 C 0.27694 0.51658 0.64965
 C1499 C 0.26961 0.53629 0.67083
 C1500 C 0.25938 0.56341 0.66322
 C1501 C 0.26594 0.53752 0.56072
 C1502 C 0.27131 0.52199 0.54078
 C1503 C 0.24034 0.62027 0.64793
 C1504 C 0.23663 0.63852 0.66585
 H1505 H 0.22602 0.64963 0.60400
 H1506 H 0.21900 0.66108 0.55343
 H1507 H 0.22965 0.62529 0.51589
 H1508 H 0.24815 0.57811 0.52859
 H1509 H 0.27989 0.50780 0.60495
 H1510 H 0.28502 0.49560 0.65568
 H1511 H 0.27187 0.53056 0.69328
 H1512 H 0.25411 0.57806 0.68045
 C1513 C 0.78554 0.87663 0.85415
 C1514 C 0.80338 0.87270 0.87856
 C1515 C 0.80570 0.89483 0.89949
 C1516 C 0.79013 0.92077 0.89591
 C1517 C 0.77331 0.92519 0.87088
 C1518 C 0.77105 0.90309 0.84990
 C1519 C 0.75407 0.90803 0.82507
 C1520 C 0.73980 0.93406 0.82106
 C1521 C 0.74196 0.95562 0.84163
 C1522 C 0.75842 0.95130 0.86635
 C1523 C 0.82356 0.89032 0.92379
 C1524 C 0.83873 0.86473 0.92728
 C1525 C 0.83640 0.84309 0.90685
 C1526 C 0.81899 0.84691 0.88271
 C1527 C 0.78990 0.94184 0.91895
 C1528 C 0.78931 0.95777 0.93938
 C1529 C 0.78206 0.85348 0.83348
 C1530 C 0.77940 0.83448 0.81604
 H1531 H 0.75175 0.89191 0.80846
 H1532 H 0.72698 0.93752 0.80190
 H1533 H 0.73084 0.97580 0.83843
 H1534 H 0.75944 0.96865 0.88179
 H1535 H 0.82612 0.90654 0.94025
 H1536 H 0.85237 0.86169 0.94594
 H1537 H 0.84828 0.82327 0.90963
 H1538 H 0.81800 0.82950 0.86734
 C1539 C 0.28663 0.37638 0.35379
 C1540 C 0.29978 0.37164 0.38089
 C1541 C 0.30143 0.39437 0.40121
 C1542 C 0.28950 0.42161 0.39451
 C1543 C 0.27706 0.42656 0.36713
 C1544 C 0.27586 0.40396 0.34661
 C1545 C 0.26346 0.40949 0.31930
 C1546 C 0.25235 0.43650 0.31257
 C1547 C 0.25322 0.45847 0.33278
 C1548 C 0.26541 0.45367 0.35980
 C1549 C 0.31478 0.38911 0.42814
 C1550 C 0.32600 0.36215 0.43485
 C1551 C 0.32410 0.33987 0.41508
 C1552 C 0.31119 0.34444 0.38836
 C1553 C 0.28822 0.44357 0.41666
 C1554 C 0.28665 0.46000 0.43663
 C1555 C 0.28374 0.35283 0.33352
 C1556 C 0.28131 0.33359 0.31633
 H1557 H 0.26222 0.39306 0.30290
 H1558 H 0.24292 0.44036 0.29159
 H1559 H 0.24437 0.47933 0.32752
 H1560 H 0.26560 0.47137 0.37485
 H1561 H 0.31679 0.40575 0.44425
 H1562 H 0.33620 0.35854 0.45551
 H1563 H 0.33290 0.31897 0.42036
 H1564 H 0.31047 0.32649 0.37360
 C1565 C 0.23228 0.86965 0.10998
 C1566 C 0.23804 0.85970 0.08177
 C1567 C 0.23116 0.87720 0.05761
 C1568 C 0.21864 0.90452 0.06181
 C1569 C 0.21236 0.91425 0.09000
 C1570 C 0.21917 0.89674 0.11414
 C1571 C 0.21277 0.90693 0.14208
 C1572 C 0.20011 0.93374 0.14608
 C1573 C 0.19354 0.95094 0.12250
 C1574 C 0.19949 0.94141 0.09476
 C1575 C 0.23717 0.86692 0.02965
 C1576 C 0.24966 0.84004 0.02562
 C1577 C 0.25641 0.82289 0.04921
 C1578 C 0.25072 0.83249 0.07701
 C1579 C 0.21426 0.92383 0.03766
 C1580 C 0.21145 0.94235 0.01977
 C1581 C 0.23903 0.85166 0.13463
 C1582 C 0.24385 0.83588 0.15465
 H1583 H 0.21750 0.89434 0.16111
 H1584 H 0.19539 0.94121 0.16758
 H1585 H 0.18374 0.97178 0.12572
 H1586 H 0.19378 0.95553 0.07715
 H1587 H 0.23214 0.87948 0.01068
 H1588 H 0.25409 0.83248 0.00408
 H1589 H 0.26611 0.80202 0.04597
 H1590 H 0.25638 0.81838 0.09467
 C1591 C 0.72982 0.36775 0.61521
 C1592 C 0.74661 0.36583 0.59002
 C1593 C 0.73949 0.38276 0.56554
 C1594 C 0.71559 0.40143 0.56636
 C1595 C 0.69816 0.40254 0.59118
 C1596 C 0.70531 0.38566 0.61570
 C1597 C 0.68768 0.38726 0.64032
 C1598 C 0.66368 0.40506 0.64071
 C1599 C 0.65669 0.42158 0.61675
 C1600 C 0.67367 0.42044 0.59222
 C1601 C 0.75676 0.38076 0.54073
 C1602 C 0.78026 0.36232 0.53999
 C1603 C 0.78717 0.34566 0.56387
 C1604 C 0.77066 0.34735 0.58868
 C1605 C 0.71081 0.42176 0.54312
 C1606 C 0.70794 0.44057 0.52551
 C1607 C 0.73708 0.35038 0.64016
 C1608 C 0.74238 0.33475 0.66017
 H1609 H 0.69223 0.37482 0.65949
 H1610 H 0.65041 0.40601 0.65968
 H1611 H 0.63800 0.43534 0.61715
 H1612 H 0.66730 0.43358 0.57406
 H1613 H 0.75222 0.39330 0.52163
 H1614 H 0.79315 0.36096 0.52077
 H1615 H 0.80546 0.33138 0.56320
 H1616 H 0.77694 0.33401 0.60672
 C1617 C 0.11961 0.14757 0.78039
 C1618 C 0.09105 0.15340 0.77183
 C1619 C 0.07013 0.13135 0.77311
 C1620 C 0.07782 0.10371 0.78321
 C1621 C 0.10613 0.09819 0.79281
 C1622 C 0.12713 0.12012 0.79121
 C1623 C 0.15539 0.11393 0.80047
 C1624 C 0.16263 0.08695 0.81130
 C1625 C 0.14206 0.06558 0.81309
 C1626 C 0.11413 0.07098 0.80391
 C1627 C 0.04183 0.13752 0.76406
 C1628 C 0.03428 0.16485 0.75438
 C1629 C 0.05468 0.18647 0.75326
 C1630 C 0.08280 0.18091 0.76177
 C1631 C 0.05720 0.08047 0.78255
 C1632 C 0.04148 0.06002 0.78165
 C1633 C 0.14138 0.16960 0.77788
 C1634 C 0.15970 0.18765 0.77600
 H1635 H 0.17212 0.12991 0.79971
 H1636 H 0.18429 0.08268 0.81851
 H1637 H 0.14776 0.04469 0.82163
 H1638 H 0.09891 0.05364 0.80575
 H1639 H 0.02530 0.12133 0.76443
 H1640 H 0.01248 0.16925 0.74771
 H1641 H 0.04870 0.20766 0.74571
 H1642 H 0.09793 0.19839 0.76047
 C1643 C 0.61983 0.64594 0.27884
 C1644 C 0.59645 0.64635 0.25930
 C1645 C 0.57477 0.62510 0.26123
 C1646 C 0.57658 0.60357 0.28266
 C1647 C 0.59925 0.60394 0.30302
 C1648 C 0.62090 0.62522 0.30115
 C1649 C 0.64329 0.62519 0.32180
 C1650 C 0.64418 0.60480 0.34374
 C1651 C 0.62318 0.58384 0.34542
 C1652 C 0.60095 0.58328 0.32532
 C1653 C 0.55173 0.62582 0.24137
 C1654 C 0.54999 0.64710 0.22033
 C1655 C 0.57115 0.66790 0.21846
 C1656 C 0.59421 0.66759 0.23761
 C1657 C 0.55632 0.57997 0.28269
 C1658 C 0.54085 0.55929 0.28244
 C1659 C 0.64279 0.66671 0.27598
 C1660 C 0.66178 0.68406 0.27389
 H1661 H 0.66019 0.64100 0.32135
 H1662 H 0.66122 0.60529 0.35958
 H1663 H 0.62405 0.56799 0.36245
 H1664 H 0.58501 0.56666 0.32764
 H1665 H 0.53478 0.61008 0.24199
 H1666 H 0.53212 0.64744 0.20543
 H1667 H 0.56970 0.68438 0.20208
 H1668 H 0.61014 0.68423 0.23530
 C1669 C 0.13159 0.88287 0.23006
 C1670 C 0.14365 0.91077 0.22937
 C1671 C 0.12559 0.93520 0.22624
 C1672 C 0.09573 0.93154 0.22346
 C1673 C 0.08390 0.90353 0.22236
 C1674 C 0.10186 0.87915 0.22601
 C1675 C 0.08952 0.85143 0.22551
 C1676 C 0.06026 0.84786 0.22108
 C1677 C 0.04270 0.87167 0.21714
 C1678 C 0.05426 0.89920 0.21777
 C1679 C 0.13796 0.96287 0.22598
 C1680 C 0.16746 0.96634 0.22838
 C1681 C 0.18518 0.94247 0.23132
 C1682 C 0.17352 0.91495 0.23189
 C1683 C 0.07665 0.95617 0.22338
 C1684 C 0.05832 0.97439 0.22412
 C1685 C 0.14980 0.85805 0.23482
 C1686 C 0.16573 0.83800 0.23844
 H1687 H 0.10235 0.83223 0.22823
 H1688 H 0.05120 0.82650 0.22055
 H1689 H 0.01999 0.86880 0.21356
 H1690 H 0.03975 0.91696 0.21430
 H1691 H 0.12497 0.98201 0.22373
 H1692 H 0.17662 0.98766 0.22794
 H1693 H 0.20809 0.94527 0.23312
 H1694 H 0.18817 0.89705 0.23417
 C1695 C 0.63122 0.37953 0.72331
 C1696 C 0.64375 0.40723 0.72389
 C1697 C 0.62656 0.43195 0.71864
 C1698 C 0.59709 0.42880 0.71268
 C1699 C 0.58515 0.40099 0.70966
 C1700 C 0.60224 0.37629 0.71519
 C1701 C 0.58976 0.34877 0.71249
 C1702 C 0.56125 0.34570 0.70419
 C1703 C 0.54455 0.36983 0.69863
 C1704 C 0.55622 0.39720 0.70139
 C1705 C 0.63937 0.45940 0.71956
 C1706 C 0.66851 0.46238 0.72521
 C1707 C 0.68538 0.43823 0.73025
 C1708 C 0.67324 0.41093 0.72972
 C1709 C 0.57829 0.45367 0.71223
 C1710 C 0.56034 0.47229 0.71306
 C1711 C 0.64823 0.35452 0.73110
 C1712 C 0.66354 0.33452 0.73724
 H1713 H 0.60198 0.32937 0.71640
 H1714 H 0.55212 0.32449 0.70194
 H1715 H 0.52243 0.36734 0.69210
 H1716 H 0.54242 0.41529 0.69662
 H1717 H 0.62707 0.47875 0.71558
 H1718 H 0.67804 0.48354 0.72562
 H1719 H 0.70801 0.44066 0.73459
 H1720 H 0.68725 0.39280 0.73369
 C1721 C 0.85961 0.10393 0.24108
 C1722 C 0.88288 0.11414 0.22465
 C1723 C 0.90793 0.09708 0.22185
 C1724 C 0.90951 0.06992 0.23545
 C1725 C 0.88587 0.05929 0.25104
 C1726 C 0.86073 0.07628 0.25368
 C1727 C 0.83722 0.06511 0.26903
 C1728 C 0.83851 0.03788 0.28144
 C1729 C 0.86320 0.02136 0.27911
 C1730 C 0.88673 0.03191 0.26424
 C1731 C 0.93099 0.10779 0.20546
 C1732 C 0.92928 0.13452 0.19207
 C1733 C 0.90474 0.15117 0.19471
 C1734 C 0.88177 0.14125 0.21084
 C1735 C 0.93552 0.05305 0.23350
 C1736 C 0.95725 0.03925 0.23182
 C1737 C 0.83506 0.12242 0.24562
 C1738 C 0.81551 0.13897 0.24885
 H1739 H 0.81758 0.07721 0.27142
 H1740 H 0.82028 0.02958 0.29298
 H1741 H 0.86413 0.00024 0.28881
 H1742 H 0.90548 0.01831 0.26306
 H1743 H 0.95053 0.09560 0.20272
 H1744 H 0.94708 0.14234 0.17954
 H1745 H 0.90346 0.17185 0.18419
 H1746 H 0.86313 0.15500 0.21217
 C1747 C 0.36407 0.60638 0.74375
 C1748 C 0.36075 0.57679 0.73768
 C1749 C 0.38525 0.55935 0.73274
 C1750 C 0.41294 0.57145 0.73459
 C1751 C 0.41628 0.60095 0.74108
 C1752 C 0.39179 0.61849 0.74558
 C1753 C 0.39570 0.64798 0.75183
 C1754 C 0.42300 0.65980 0.75357
 C1755 C 0.44693 0.64264 0.74921
 C1756 C 0.44375 0.61355 0.74305
 C1757 C 0.38137 0.53000 0.72598
 C1758 C 0.35413 0.51800 0.72495
 C1759 C 0.33023 0.53492 0.73031
 C1760 C 0.33334 0.56406 0.73637
 C1761 C 0.43807 0.55364 0.73008
 C1762 C 0.45925 0.53929 0.72648
 C1763 C 0.33916 0.62478 0.74710
 C1764 C 0.31932 0.64123 0.74933
 H1765 H 0.37778 0.66222 0.75550
 H1766 H 0.42558 0.68239 0.75835
 H1767 H 0.46809 0.65191 0.75059
 H1768 H 0.46304 0.60111 0.73983
 H1769 H 0.39933 0.51602 0.72154
 H1770 H 0.35159 0.49541 0.72009
 H1771 H 0.30916 0.52541 0.72977
 H1772 H 0.31411 0.57642 0.74021
 C1773 C 0.90266 0.87126 0.74429
 C1774 C 0.92342 0.86577 0.76595
 C1775 C 0.94434 0.88686 0.77254
 C1776 C 0.94437 0.91319 0.75736
 C1777 C 0.92391 0.91847 0.73537
 C1778 C 0.90298 0.89742 0.72882
 C1779 C 0.88256 0.90323 0.70694
 C1780 C 0.88278 0.92918 0.69200
 C1781 C 0.90322 0.94982 0.69842
 C1782 C 0.92361 0.94464 0.71980
 C1783 C 0.96468 0.88113 0.79448
 C1784 C 0.96451 0.85513 0.80935
 C1785 C 0.94412 0.83443 0.80285
 C1786 C 0.92369 0.83961 0.78149
 C1787 C 0.96443 0.93559 0.76497
 C1788 C 0.97965 0.95568 0.77036
 C1789 C 0.88041 0.85044 0.73857
 C1790 C 0.86180 0.83314 0.73441
 H1791 H 0.86623 0.88783 0.70114
 H1792 H 0.86699 0.93328 0.67536
 H1793 H 0.90330 0.96997 0.68678
 H1794 H 0.93908 0.96139 0.72392
 H1795 H 0.98093 0.89661 0.80028
 H1796 H 0.98027 0.85104 0.82601
 H1797 H 0.94407 0.81428 0.81448
 H1798 H 0.90819 0.82289 0.77729
 C1799 C 0.40344 0.36843 0.25147
 C1800 C 0.42940 0.37008 0.23611
 C1801 C 0.44998 0.39117 0.24365
 C1802 C 0.44451 0.41026 0.26665
 C1803 C 0.41920 0.40759 0.28300
 C1804 C 0.39857 0.38658 0.27538
 C1805 C 0.37332 0.38438 0.29191
 C1806 C 0.36861 0.40244 0.31530
 C1807 C 0.38879 0.42303 0.32273
 C1808 C 0.41381 0.42572 0.30680
 C1809 C 0.47560 0.39280 0.22770
 C1810 C 0.48095 0.37377 0.20523
 C1811 C 0.46088 0.35301 0.19796
 C1812 C 0.43531 0.35115 0.21308
 C1813 C 0.46372 0.43400 0.27205
 C1814 C 0.47863 0.45470 0.27570
 C1815 C 0.38164 0.34813 0.24283
 C1816 C 0.36326 0.33114 0.23673
 H1817 H 0.35700 0.36866 0.28703
 H1818 H 0.34920 0.40043 0.32774
 H1819 H 0.38505 0.43701 0.34093
 H1820 H 0.42891 0.44201 0.31345
 H1821 H 0.49186 0.40858 0.23258
 H1822 H 0.50077 0.37516 0.19341
 H1823 H 0.46512 0.33828 0.18048
 H1824 H 0.42032 0.33467 0.20662
   
