data_POSCAR
  _audit_creation_date              2014-09-24
  _audit_creation_method            'ToBaCCo'
  _symmetry_space_group_name_H-M    'P1'
  _symmetry_Int_Tables_number       1
  _symmetry_cell_setting            triclinic
  loop_
  _symmetry_equiv_pos_as_xyz
 x,y,z
_cell_length_a 47.0756
_cell_length_b 47.0451
_cell_length_c 47.0585
_cell_angle_alpha 89.981800
_cell_angle_beta 89.944000
_cell_angle_gamma 90.144300
loop_
  _atom_site_label
  _atom_site_type_symbol
  _atom_site_fract_x
  _atom_site_fract_y
  _atom_site_fract_z
O1 O 0.88472 0.16966 0.80097
 O2 O 0.91357 0.12683 0.79426
 O3 O 0.80846 0.13342 0.83629
 O4 O 0.79645 0.10830 0.87524
 O5 O 0.84818 0.20840 0.87390
 O6 O 0.88900 0.21364 0.90553
 O7 O 0.87895 0.06052 0.91828
 O8 O 0.84292 0.05461 0.88153
 O9 O 0.95192 0.08666 0.87638
 O10 O 0.96204 0.12641 0.84086
 O11 O 0.92367 0.13094 0.94738
 O12 O 0.88418 0.16803 0.95449
 O13 O 0.88180 0.09619 0.95065
 O14 O 0.85468 0.13712 0.95971
 O15 O 0.95642 0.12634 0.91224
 O16 O 0.96765 0.15528 0.87202
 O17 O 0.91511 0.05558 0.87892
 O18 O 0.87575 0.04776 0.84869
 O19 O 0.88801 0.20436 0.83441
 O20 O 0.91905 0.21208 0.87278
 O21 O 0.81162 0.17678 0.87404
 O22 O 0.80217 0.14007 0.90891
 O23 O 0.84263 0.13198 0.80216
 O24 O 0.87886 0.09903 0.79387
 Zr25 Zr 0.88085 0.13164 0.82470
 O26 O 0.90502 0.10339 0.84944
 Zr27 Zr 0.83143 0.13667 0.87486
 O28 O 0.85423 0.10960 0.90248
 Zr29 Zr 0.88493 0.18279 0.87310
 O30 O 0.91057 0.15736 0.89938
 Zr31 Zr 0.87894 0.08142 0.87849
 O32 O 0.85405 0.10656 0.85066
 Zr33 Zr 0.93263 0.12713 0.87494
 O34 O 0.91031 0.15550 0.84826
 Zr35 Zr 0.88419 0.13320 0.92601
 O36 O 0.85840 0.16072 0.90144
 O37 O 0.85659 0.16051 0.84754
 O38 O 0.90802 0.10361 0.90337
 C39 C 0.88752 0.19584 0.80854
 C40 C 0.81658 0.13195 0.81014
 C41 C 0.82150 0.20230 0.87416
 C42 C 0.88020 0.06980 0.94400
 C43 C 0.94180 0.06124 0.87800
 C44 C 0.94940 0.12814 0.93845
 H45 H 0.91546 0.09031 0.83679
 H46 H 0.92361 0.16971 0.91027
 H47 H 0.84523 0.17292 0.83494
 H48 H 0.84092 0.09918 0.91499
 H49 H 0.82952 0.06071 0.86651
 H50 H 0.80113 0.09250 0.88827
 H51 H 0.96371 0.17166 0.88457
 H52 H 0.93411 0.20353 0.86086
 H53 H 0.88789 0.05254 0.83223
 H54 H 0.86591 0.08431 0.80161
 H55 H 0.90237 0.17835 0.95214
 H56 H 0.87399 0.20956 0.91971
 H57 H 0.92863 0.14068 0.79925
 H58 H 0.95849 0.10901 0.82959
 H59 H 0.80976 0.15463 0.92208
 H60 H 0.83710 0.12723 0.95379
 O61 O 0.84357 0.70376 0.37285
 O62 O 0.88486 0.70856 0.40421
 O63 O 0.87955 0.66850 0.29791
 O64 O 0.90794 0.63029 0.28791
 O65 O 0.80428 0.63106 0.33271
 O66 O 0.79566 0.60067 0.37372
 O67 O 0.94922 0.58413 0.36994
 O68 O 0.95747 0.62145 0.33539
 O69 O 0.92065 0.62512 0.44259
 O70 O 0.88132 0.66217 0.45110
 O71 O 0.87599 0.55578 0.41221
 O72 O 0.84102 0.54936 0.37133
 O73 O 0.91284 0.55242 0.37217
 O74 O 0.87191 0.54489 0.34218
 O75 O 0.87959 0.59061 0.44539
 O76 O 0.85188 0.63085 0.45583
 O77 O 0.95336 0.62180 0.40727
 O78 O 0.96345 0.65311 0.37294
 O79 O 0.80730 0.67178 0.37288
 O80 O 0.79688 0.63331 0.40381
 O81 O 0.83830 0.63030 0.29843
 O82 O 0.87471 0.59648 0.29011
 O83 O 0.88263 0.70195 0.33264
 O84 O 0.91340 0.70992 0.37200
 Zr85 Zr 0.88069 0.67902 0.37057
 O86 O 0.90696 0.65322 0.39564
 Zr87 Zr 0.87686 0.62965 0.32045
 O88 O 0.90168 0.60088 0.34415
 Zr89 Zr 0.82776 0.63209 0.37120
 O90 O 0.85121 0.60479 0.39788
 Zr91 Zr 0.92919 0.62406 0.37028
 O92 O 0.90644 0.65308 0.34455
 Zr93 Zr 0.88107 0.62808 0.42174
 O94 O 0.85454 0.65576 0.39835
 Zr95 Zr 0.87605 0.57764 0.37273
 O96 O 0.85066 0.60340 0.34583
 O97 O 0.85236 0.65723 0.34457
 O98 O 0.90500 0.59940 0.39805
 C99 C 0.81701 0.69735 0.37367
 C100 C 0.88183 0.69443 0.30651
 C101 C 0.81226 0.63033 0.30649
 C102 C 0.93942 0.55862 0.37108
 C103 C 0.94635 0.62265 0.43355
 C104 C 0.87775 0.56444 0.43815
 H105 H 0.92023 0.66534 0.40657
 H106 H 0.83800 0.59410 0.41026
 H107 H 0.84064 0.66999 0.33267
 H108 H 0.91234 0.58831 0.33115
 H109 H 0.95368 0.63813 0.32313
 H110 H 0.92258 0.61607 0.29281
 H111 H 0.83444 0.62068 0.44997
 H112 H 0.80485 0.64541 0.41907
 H113 H 0.95785 0.67002 0.36188
 H114 H 0.92729 0.70502 0.35701
 H115 H 0.82935 0.55263 0.38851
 H116 H 0.80074 0.58574 0.35980
 H117 H 0.86968 0.70418 0.41812
 H118 H 0.89965 0.67232 0.44915
 H119 H 0.86103 0.58229 0.29756
 H120 H 0.88513 0.54927 0.32642
 O121 O 0.38244 0.16695 0.30378
 O122 O 0.41223 0.12483 0.29666
 O123 O 0.30634 0.12999 0.33672
 O124 O 0.29368 0.10344 0.37473
 O125 O 0.34530 0.20362 0.37804
 O126 O 0.38566 0.20850 0.40940
 O127 O 0.37477 0.05429 0.41763
 O128 O 0.34019 0.04963 0.38010
 O129 O 0.44895 0.08259 0.37835
 O130 O 0.45965 0.12339 0.34401
 O131 O 0.41970 0.12391 0.45006
 O132 O 0.38014 0.16048 0.45797
 O133 O 0.37803 0.08887 0.45101
 O134 O 0.35016 0.13006 0.46102
 O135 O 0.45302 0.12123 0.41530
 O136 O 0.46483 0.15106 0.37639
 O137 O 0.41234 0.05109 0.37942
 O138 O 0.37358 0.04429 0.34752
 O139 O 0.38487 0.20082 0.33814
 O140 O 0.41630 0.20732 0.37716
 O141 O 0.30873 0.17203 0.37659
 O142 O 0.29859 0.13408 0.40950
 O143 O 0.34127 0.12952 0.30328
 O144 O 0.37767 0.09642 0.29512
 Zr145 Zr 0.37889 0.12845 0.32659
 O146 O 0.40273 0.09969 0.35097
 Zr147 Zr 0.32855 0.13191 0.37597
 O148 O 0.35095 0.10410 0.40318
 Zr149 Zr 0.38202 0.17821 0.37641
 O150 O 0.40714 0.15219 0.40260
 Zr151 Zr 0.37610 0.07672 0.37874
 O152 O 0.35162 0.10260 0.35126
 Zr153 Zr 0.42973 0.12289 0.37765
 O154 O 0.40788 0.15181 0.35123
 Zr155 Zr 0.38051 0.12695 0.42798
 O156 O 0.35515 0.15515 0.40367
 O157 O 0.35412 0.15659 0.34986
 O158 O 0.40474 0.09823 0.40479
 C159 C 0.38456 0.19296 0.31202
 C160 C 0.31508 0.12944 0.31069
 C161 C 0.31865 0.19750 0.37793
 C162 C 0.37600 0.06264 0.44368
 C163 C 0.43891 0.05717 0.37916
 C164 C 0.44564 0.12177 0.44149
 H165 H 0.41352 0.08708 0.33814
 H166 H 0.41995 0.16423 0.41411
 H167 H 0.34279 0.16934 0.33759
 H168 H 0.33743 0.09326 0.41510
 H169 H 0.32701 0.05622 0.36509
 H170 H 0.29818 0.08723 0.38732
 H171 H 0.46013 0.16755 0.38852
 H172 H 0.43101 0.19956 0.36429
 H173 H 0.38703 0.04903 0.33208
 H174 H 0.36440 0.08165 0.30216
 H175 H 0.39812 0.17122 0.45592
 H176 H 0.37140 0.20325 0.42398
 H177 H 0.42696 0.13883 0.30219
 H178 H 0.45659 0.10616 0.33234
 H179 H 0.30630 0.14756 0.42370
 H180 H 0.33324 0.11909 0.45507
 O181 O 0.12988 0.34006 0.30132
 O182 O 0.10281 0.38124 0.29151
 O183 O 0.20483 0.37532 0.34006
 O184 O 0.21575 0.40119 0.37782
 O185 O 0.16315 0.30206 0.37674
 O186 O 0.12177 0.29641 0.40560
 O187 O 0.13056 0.45182 0.41427
 O188 O 0.16622 0.45796 0.37967
 O189 O 0.05876 0.42260 0.37326
 O190 O 0.04867 0.38292 0.34010
 O191 O 0.08695 0.38174 0.44636
 O192 O 0.12430 0.34778 0.45765
 O193 O 0.12637 0.41796 0.44841
 O194 O 0.15722 0.37525 0.45797
 O195 O 0.05419 0.38365 0.41103
 O196 O 0.04554 0.35235 0.36961
 O197 O 0.09508 0.45442 0.37480
 O198 O 0.13675 0.46007 0.34351
 O199 O 0.12579 0.30539 0.33473
 O200 O 0.09165 0.29942 0.37279
 O201 O 0.19962 0.33373 0.37856
 O202 O 0.20666 0.37288 0.41322
 O203 O 0.17272 0.37703 0.30406
 O204 O 0.13559 0.41111 0.29433
 Zr205 Zr 0.13297 0.37797 0.32458
 O206 O 0.10671 0.40579 0.34759
 Zr207 Zr 0.17995 0.37394 0.37704
 O208 O 0.15626 0.40253 0.40205
 Zr209 Zr 0.12667 0.32763 0.37364
 O210 O 0.10083 0.35361 0.39930
 Zr211 Zr 0.13182 0.42919 0.37604
 O212 O 0.15867 0.40345 0.35088
 Zr213 Zr 0.07871 0.38256 0.37355
 O214 O 0.10239 0.35453 0.34750
 Zr215 Zr 0.12624 0.37933 0.42563
 O216 O 0.15196 0.35035 0.40275
 O217 O 0.15610 0.34953 0.34906
 O218 O 0.10250 0.40757 0.40128
 C219 C 0.12713 0.31393 0.30878
 C220 C 0.19832 0.37633 0.31357
 C221 C 0.18972 0.30821 0.37845
 C222 C 0.12802 0.44402 0.44029
 C223 C 0.06852 0.44815 0.37385
 C224 C 0.06127 0.38327 0.43739
 H225 H 0.09636 0.41817 0.33420
 H226 H 0.08779 0.34144 0.41044
 H227 H 0.16801 0.33680 0.33731
 H228 H 0.16909 0.41376 0.41433
 H229 H 0.18149 0.45075 0.36713
 H230 H 0.20996 0.41883 0.38762
 H231 H 0.04787 0.33814 0.38492
 H232 H 0.07829 0.30689 0.35838
 H233 H 0.12140 0.45738 0.32944
 H234 H 0.14992 0.42476 0.30153
 H235 H 0.10964 0.33380 0.45200
 H236 H 0.13417 0.30226 0.42155
 H237 H 0.08589 0.37041 0.29782
 H238 H 0.05430 0.39799 0.32654
 H239 H 0.19959 0.35743 0.42566
 H240 H 0.17090 0.39111 0.45591
 O241 O 0.62522 0.84115 0.30152
 O242 O 0.59755 0.88213 0.29409
 O243 O 0.70135 0.87561 0.33825
 O244 O 0.71416 0.89975 0.37645
 O245 O 0.66113 0.80102 0.37483
 O246 O 0.62119 0.79413 0.40450
 O247 O 0.63088 0.95015 0.41696
 O248 O 0.66470 0.95669 0.38118
 O249 O 0.55716 0.92137 0.37927
 O250 O 0.54443 0.88371 0.34655
 O251 O 0.58817 0.87819 0.45008
 O252 O 0.62604 0.84556 0.45928
 O253 O 0.62709 0.91583 0.45068
 O254 O 0.65948 0.87245 0.45762
 O255 O 0.55395 0.88079 0.41625
 O256 O 0.54434 0.85055 0.37325
 O257 O 0.59355 0.95315 0.37968
 O258 O 0.63355 0.95944 0.34636
 O259 O 0.62214 0.80558 0.33405
 O260 O 0.58933 0.79882 0.37378
 O261 O 0.69764 0.83265 0.37610
 O262 O 0.70629 0.87100 0.41123
 O263 O 0.66796 0.87826 0.30350
 O264 O 0.62997 0.91250 0.29670
 Zr265 Zr 0.62906 0.87826 0.32582
 O266 O 0.60372 0.90522 0.35081
 Zr267 Zr 0.67808 0.87286 0.37624
 O268 O 0.65559 0.90086 0.40297
 Zr269 Zr 0.62467 0.82667 0.37371
 O270 O 0.60021 0.85190 0.40149
 Zr271 Zr 0.63015 0.92799 0.37855
 O272 O 0.65589 0.90301 0.35167
 Zr273 Zr 0.57689 0.88137 0.37755
 O274 O 0.59936 0.85429 0.34943
 Zr275 Zr 0.62655 0.87724 0.42738
 O276 O 0.65105 0.84872 0.40247
 O277 O 0.65317 0.84917 0.34855
 O278 O 0.60183 0.90592 0.40469
 C279 C 0.62258 0.81483 0.30827
 C280 C 0.69392 0.87756 0.31203
 C281 C 0.68772 0.80716 0.37585
 C282 C 0.62891 0.94205 0.44289
 C283 C 0.56703 0.94686 0.37990
 C284 C 0.56206 0.87943 0.44232
 H285 H 0.59273 0.91791 0.33825
 H286 H 0.58777 0.83934 0.41287
 H287 H 0.66464 0.83681 0.33599
 H288 H 0.66896 0.91185 0.41489
 H289 H 0.67932 0.94985 0.36770
 H290 H 0.70861 0.91751 0.38619
 H291 H 0.54654 0.83661 0.38884
 H292 H 0.57588 0.80612 0.35938
 H293 H 0.61723 0.95741 0.33330
 H294 H 0.64500 0.92569 0.30329
 H295 H 0.61274 0.83052 0.45300
 H296 H 0.63372 0.79972 0.42044
 H297 H 0.58089 0.87120 0.30093
 H298 H 0.55084 0.89703 0.33160
 H299 H 0.69974 0.85527 0.42359
 H300 H 0.67183 0.88946 0.45659
 O301 O 0.61734 0.65965 0.20278
 O302 O 0.58441 0.62056 0.20555
 O303 O 0.69237 0.62060 0.17141
 O304 O 0.70361 0.59205 0.13449
 O305 O 0.66404 0.69756 0.13221
 O306 O 0.62622 0.70992 0.10161
 O307 O 0.62107 0.55529 0.08172
 O308 O 0.65158 0.54378 0.12109
 O309 O 0.54750 0.58954 0.11865
 O310 O 0.53757 0.62839 0.15141
 O311 O 0.58856 0.63026 0.05054
 O312 O 0.63068 0.66283 0.04761
 O313 O 0.62540 0.59190 0.05065
 O314 O 0.65961 0.63154 0.04739
 O315 O 0.55190 0.62864 0.08184
 O316 O 0.54177 0.66058 0.12364
 O317 O 0.58012 0.55404 0.11819
 O318 O 0.61539 0.54053 0.15067
 O319 O 0.62171 0.69621 0.17146
 O320 O 0.59299 0.70815 0.13077
 O321 O 0.69659 0.66195 0.13325
 O322 O 0.70470 0.62404 0.09988
 O323 O 0.65585 0.61957 0.20302
 O324 O 0.61531 0.58820 0.20560
 Zr325 Zr 0.61935 0.62296 0.17738
 O326 O 0.59376 0.59944 0.14925
 Zr327 Zr 0.67258 0.62438 0.13144
 O328 O 0.64947 0.60066 0.10124
 Zr329 Zr 0.62459 0.67630 0.13137
 O330 O 0.59937 0.65498 0.10106
 Zr331 Zr 0.61937 0.57505 0.12195
 O332 O 0.64505 0.59600 0.15257
 Zr333 Zr 0.57160 0.62699 0.12202
 O334 O 0.59455 0.65077 0.15262
 Zr335 Zr 0.62512 0.62844 0.07614
 O336 O 0.65082 0.65239 0.10419
 O337 O 0.64821 0.65006 0.15769
 O338 O 0.59579 0.60128 0.09529
 C339 C 0.61872 0.68628 0.19681
 C340 C 0.68248 0.61928 0.19691
 C341 C 0.68975 0.68834 0.13249
 C342 C 0.62353 0.56525 0.05632
 C343 C 0.55443 0.56318 0.11768
 C344 C 0.56191 0.62957 0.05642
 H345 H 0.58064 0.58749 0.16051
 H346 H 0.58904 0.66896 0.08934
 H347 H 0.65992 0.66116 0.17119
 H348 H 0.66263 0.58905 0.08972
 H349 H 0.66435 0.54773 0.13735
 H350 H 0.69840 0.57698 0.12079
 H351 H 0.54631 0.67409 0.10817
 H352 H 0.57688 0.70078 0.14216
 H353 H 0.60365 0.54692 0.16686
 H354 H 0.62950 0.57390 0.19959
 H355 H 0.61439 0.67588 0.04993
 H356 H 0.63843 0.70330 0.08582
 H357 H 0.57061 0.63507 0.19918
 H358 H 0.54068 0.61314 0.16555
 H359 H 0.69996 0.63920 0.08610
 H360 H 0.67240 0.61528 0.05096
 O361 O 0.37557 0.83818 0.69755
 O362 O 0.40993 0.87568 0.69940
 O363 O 0.30163 0.87849 0.66731
 O364 O 0.29023 0.90686 0.62996
 O365 O 0.32725 0.80041 0.62860
 O366 O 0.36368 0.78707 0.59686
 O367 O 0.37392 0.94173 0.57644
 O368 O 0.34406 0.95445 0.61483
 O369 O 0.44644 0.90542 0.61248
 O370 O 0.45536 0.86584 0.64514
 O371 O 0.40384 0.86650 0.54447
 O372 O 0.36088 0.83447 0.54220
 O373 O 0.36776 0.90559 0.54507
 O374 O 0.33242 0.86652 0.54243
 O375 O 0.44056 0.86709 0.57566
 O376 O 0.45041 0.83439 0.61663
 O377 O 0.41468 0.94170 0.61225
 O378 O 0.37877 0.95563 0.64608
 O379 O 0.37092 0.80126 0.66669
 O380 O 0.39800 0.78823 0.62479
 O381 O 0.29557 0.83679 0.62937
 O382 O 0.28800 0.87453 0.59571
 O383 O 0.33894 0.87954 0.69794
 O384 O 0.38036 0.90927 0.69947
 Zr385 Zr 0.37458 0.87438 0.67173
 O386 O 0.40042 0.89701 0.64329
 Zr387 Zr 0.32051 0.87383 0.62679
 O388 O 0.34392 0.89698 0.59618
 Zr389 Zr 0.36720 0.82082 0.62628
 O390 O 0.39254 0.84146 0.59540
 Zr391 Zr 0.37490 0.92186 0.61645
 O392 O 0.34898 0.90169 0.64731
 Zr393 Zr 0.42132 0.86867 0.61593
 O394 O 0.39819 0.84563 0.64690
 Zr395 Zr 0.36738 0.86877 0.57061
 O396 O 0.34142 0.84539 0.59923
 O397 O 0.34469 0.84782 0.65283
 O398 O 0.39754 0.89504 0.58955
 C399 C 0.37409 0.81155 0.69191
 C400 C 0.31225 0.88028 0.69251
 C401 C 0.30172 0.81019 0.62918
 C402 C 0.37090 0.93208 0.55106
 C403 C 0.44013 0.93193 0.61174
 C404 C 0.43055 0.86681 0.55028
 H405 H 0.41397 0.90857 0.65442
 H406 H 0.40238 0.82724 0.58354
 H407 H 0.33295 0.83717 0.66669
 H408 H 0.33098 0.90897 0.58482
 H409 H 0.33031 0.95055 0.63030
 H410 H 0.29547 0.92161 0.61591
 H411 H 0.44531 0.82111 0.60116
 H412 H 0.41454 0.79518 0.63579
 H413 H 0.39369 0.95055 0.65994
 H414 H 0.36684 0.92415 0.69335
 H415 H 0.37702 0.82119 0.54424
 H416 H 0.35200 0.79433 0.58097
 H417 H 0.42312 0.86062 0.69300
 H418 H 0.45330 0.88157 0.65892
 H419 H 0.29242 0.85933 0.58186
 H420 H 0.32010 0.88309 0.54622
 O421 O 0.87859 0.32733 0.68525
 O422 O 0.91267 0.36637 0.69019
 O423 O 0.80328 0.37400 0.66281
 O424 O 0.78997 0.40360 0.62756
 O425 O 0.82717 0.29790 0.61676
 O426 O 0.86249 0.28951 0.57967
 O427 O 0.87227 0.44306 0.57441
 O428 O 0.84196 0.45138 0.61626
 O429 O 0.94559 0.40551 0.60700
 O430 O 0.95468 0.36187 0.63640
 O431 O 0.90153 0.37094 0.53636
 O432 O 0.85819 0.33833 0.53340
 O433 O 0.86469 0.40909 0.54101
 O434 O 0.83089 0.37147 0.53515
 O435 O 0.93890 0.36983 0.56678
 O436 O 0.95183 0.33558 0.60311
 O437 O 0.91352 0.44129 0.61057
 O438 O 0.87980 0.45254 0.64416
 O439 O 0.87188 0.29439 0.65057
 O440 O 0.89673 0.28555 0.60817
 O441 O 0.79560 0.33393 0.62254
 O442 O 0.78677 0.37400 0.59161
 O443 O 0.84129 0.36882 0.69209
 O444 O 0.88201 0.39772 0.69646
 Zr445 Zr 0.87600 0.36695 0.66427
 O446 O 0.90034 0.39328 0.63754
 Zr447 Zr 0.82043 0.37118 0.62131
 O448 O 0.84283 0.39683 0.59194
 Zr449 Zr 0.86691 0.31860 0.61364
 O450 O 0.89199 0.34219 0.58500
 Zr451 Zr 0.87418 0.42026 0.61328
 O452 O 0.84985 0.39681 0.64334
 Zr453 Zr 0.92094 0.36795 0.60734
 O454 O 0.89871 0.34112 0.63582
 Zr455 Zr 0.86574 0.37094 0.56351
 O456 O 0.84007 0.34543 0.59033
 O457 O 0.84541 0.34268 0.64376
 O458 O 0.89627 0.39603 0.58369
 C459 C 0.87654 0.30147 0.67647
 C460 C 0.81464 0.37226 0.68768
 C461 C 0.80176 0.30742 0.62007
 C462 C 0.86823 0.43501 0.54851
 C463 C 0.93910 0.43200 0.60879
 C464 C 0.92832 0.37113 0.54172
 H465 H 0.91392 0.40405 0.64940
 H466 H 0.90174 0.32919 0.57172
 H467 H 0.83425 0.33087 0.65717
 H468 H 0.82949 0.40956 0.58191
 H469 H 0.83022 0.44641 0.63303
 H470 H 0.79500 0.41958 0.61482
 H471 H 0.94451 0.32140 0.58944
 H472 H 0.91443 0.29201 0.61752
 H473 H 0.89003 0.44400 0.66035
 H474 H 0.86893 0.41358 0.69210
 H475 H 0.87510 0.32592 0.53283
 H476 H 0.84674 0.29653 0.56767
 H477 H 0.92511 0.35115 0.68275
 H478 H 0.95416 0.37767 0.65026
 H479 H 0.79043 0.35958 0.57675
 H480 H 0.81691 0.38524 0.54261
 O481 O 0.79523 0.88144 0.15325
 O482 O 0.79366 0.91388 0.11292
 O483 O 0.82618 0.80519 0.11534
 O484 O 0.86337 0.79343 0.08705
 O485 O 0.86442 0.83431 0.19194
 O486 O 0.89659 0.87338 0.20343
 O487 O 0.91825 0.87513 0.05115
 O488 O 0.87866 0.84223 0.03966
 O489 O 0.88077 0.94830 0.08025
 O490 O 0.84588 0.95865 0.12003
 O491 O 0.94760 0.90833 0.12504
 O492 O 0.94865 0.86701 0.15950
 O493 O 0.94836 0.87000 0.08836
 O494 O 0.95084 0.83786 0.12821
 O495 O 0.91679 0.94521 0.12148
 O496 O 0.87622 0.95848 0.15004
 O497 O 0.88186 0.91385 0.04651
 O498 O 0.85004 0.87941 0.03361
 O499 O 0.82641 0.87738 0.18987
 O500 O 0.86612 0.90519 0.20237
 O501 O 0.86237 0.80116 0.15678
 O502 O 0.89711 0.79202 0.12091
 O503 O 0.79498 0.84197 0.11380
 O504 O 0.79248 0.88174 0.08191
 Zr505 Zr 0.82091 0.87839 0.11651
 O506 O 0.84962 0.90270 0.09209
 Zr507 Zr 0.86619 0.82463 0.11934
 O508 O 0.89731 0.84673 0.09598
 Zr509 Zr 0.86631 0.87378 0.17027
 O510 O 0.89656 0.89878 0.14863
 Zr511 Zr 0.87725 0.87602 0.06927
 O512 O 0.84565 0.85167 0.09032
 Zr513 Zr 0.87652 0.92580 0.11914
 O514 O 0.84586 0.90362 0.14384
 Zr515 Zr 0.92180 0.87185 0.12374
 O516 O 0.89329 0.84659 0.14748
 O517 O 0.84000 0.84994 0.14422
 O518 O 0.90354 0.90037 0.09517
 C519 C 0.80117 0.88041 0.17994
 C520 C 0.80086 0.81530 0.11399
 C521 C 0.86303 0.80842 0.18300
 C522 C 0.94336 0.87262 0.06175
 C523 C 0.88253 0.93996 0.05421
 C524 C 0.94202 0.93500 0.12355
 H525 H 0.83871 0.91530 0.07934
 H526 H 0.90803 0.90959 0.16250
 H527 H 0.82615 0.83868 0.15540
 H528 H 0.90907 0.83325 0.08499
 H529 H 0.86150 0.83044 0.04296
 H530 H 0.87874 0.79716 0.07317
 H531 H 0.88681 0.95151 0.16676
 H532 H 0.85656 0.92199 0.19411
 H533 H 0.83233 0.88851 0.04017
 H534 H 0.79821 0.86712 0.06792
 H535 H 0.94705 0.88433 0.17131
 H536 H 0.91065 0.85856 0.19853
 H537 H 0.79960 0.92757 0.12775
 H538 H 0.83411 0.95686 0.10272
 H539 H 0.91054 0.79704 0.13629
 H540 H 0.94632 0.82360 0.11343
 O541 O 0.37184 0.32657 0.19220
 O542 O 0.40262 0.36423 0.20619
 O543 O 0.30121 0.37557 0.15699
 O544 O 0.29447 0.40522 0.12058
 O545 O 0.33329 0.30034 0.11579
 O546 O 0.37301 0.29322 0.08392
 O547 O 0.38294 0.44869 0.09038
 O548 O 0.34906 0.45419 0.12751
 O549 O 0.45230 0.40661 0.12841
 O550 O 0.45579 0.36364 0.15968
 O551 O 0.42194 0.37717 0.05274
 O552 O 0.38305 0.34957 0.03661
 O553 O 0.38366 0.41763 0.05342
 O554 O 0.35039 0.37712 0.03979
 O555 O 0.45302 0.37108 0.08908
 O556 O 0.45665 0.33562 0.12716
 O557 O 0.42042 0.44271 0.12717
 O558 O 0.38570 0.45092 0.16055
 O559 O 0.37216 0.29511 0.15553
 O560 O 0.40385 0.28866 0.11614
 O561 O 0.30145 0.33654 0.11606
 O562 O 0.29986 0.37885 0.08421
 O563 O 0.33242 0.36816 0.19301
 O564 O 0.37390 0.39593 0.20744
 Zr565 Zr 0.37246 0.36696 0.17305
 O566 O 0.40199 0.39384 0.15287
 Zr567 Zr 0.32633 0.37364 0.12018
 O568 O 0.35384 0.40104 0.09773
 Zr569 Zr 0.37296 0.32106 0.11918
 O570 O 0.40262 0.34599 0.09662
 Zr571 Zr 0.38074 0.42237 0.12618
 O572 O 0.35065 0.39790 0.14918
 Zr573 Zr 0.42735 0.36963 0.12536
 O574 O 0.39998 0.34214 0.14805
 Zr575 Zr 0.38145 0.37686 0.07228
 O576 O 0.35148 0.34941 0.09220
 O577 O 0.34640 0.34398 0.14592
 O578 O 0.40769 0.39972 0.09944
 C579 C 0.37234 0.30116 0.18215
 C580 C 0.30724 0.37256 0.18343
 C581 C 0.30773 0.30996 0.11514
 C582 C 0.38372 0.44299 0.06374
 C583 C 0.44593 0.43313 0.12791
 C584 C 0.44730 0.37446 0.06268
 H585 H 0.41333 0.40418 0.16723
 H586 H 0.41444 0.33349 0.08460
 H587 H 0.33311 0.33177 0.15677
 H588 H 0.34229 0.41449 0.08650
 H589 H 0.33545 0.44867 0.14261
 H590 H 0.30381 0.42339 0.11563
 H591 H 0.45319 0.32325 0.11052
 H592 H 0.41853 0.29306 0.13054
 H593 H 0.37321 0.44397 0.17592
 H594 H 0.35847 0.40989 0.20460
 H595 H 0.39069 0.33118 0.04323
 H596 H 0.35999 0.30151 0.06965
 H597 H 0.41808 0.35186 0.19916
 H598 H 0.45313 0.37949 0.17324
 H599 H 0.30457 0.36336 0.07078
 H600 H 0.33793 0.39369 0.04311
 O601 O 0.38054 0.66010 0.79968
 O602 O 0.40940 0.62006 0.79377
 O603 O 0.30270 0.62467 0.83063
 O604 O 0.28755 0.59949 0.86745
 O605 O 0.33880 0.69900 0.87139
 O606 O 0.37687 0.70638 0.90299
 O607 O 0.36863 0.54960 0.91272
 O608 O 0.33815 0.54272 0.87489
 O609 O 0.44464 0.58055 0.88062
 O610 O 0.45847 0.61951 0.84926
 O611 O 0.40774 0.62185 0.95009
 O612 O 0.36877 0.65340 0.95719
 O613 O 0.36993 0.58327 0.94726
 O614 O 0.33585 0.62600 0.95251
 O615 O 0.44413 0.62012 0.91847
 O616 O 0.45658 0.65135 0.87735
 O617 O 0.40900 0.54801 0.87831
 O618 O 0.37114 0.54189 0.84183
 O619 O 0.37993 0.69557 0.83244
 O620 O 0.41065 0.70227 0.87429
 O621 O 0.30267 0.66695 0.86988
 O622 O 0.29252 0.62740 0.90338
 O623 O 0.33874 0.62270 0.79850
 O624 O 0.37751 0.58895 0.79401
 Zr625 Zr 0.37576 0.62290 0.82340
 O626 O 0.39984 0.59608 0.84954
 Zr627 Zr 0.32306 0.62695 0.87030
 O628 O 0.34425 0.59877 0.89797
 Zr629 Zr 0.37574 0.67401 0.87188
 O630 O 0.39859 0.64873 0.90100
 Zr631 Zr 0.37191 0.57246 0.87499
 O632 O 0.34750 0.59746 0.84696
 Zr633 Zr 0.42414 0.62011 0.87834
 O634 O 0.40323 0.64720 0.84911
 Zr635 Zr 0.37107 0.62241 0.92471
 O636 O 0.34790 0.65105 0.89861
 O637 O 0.34948 0.65134 0.84468
 O638 O 0.39788 0.59460 0.90332
 C639 C 0.38159 0.68641 0.80664
 C640 C 0.31224 0.62312 0.80504
 C641 C 0.31225 0.69259 0.87087
 C642 C 0.36888 0.55720 0.93884
 C643 C 0.43536 0.55484 0.88019
 C644 C 0.43431 0.62098 0.94398
 H645 H 0.41193 0.58383 0.83755
 H646 H 0.40994 0.66131 0.91343
 H647 H 0.33860 0.66373 0.83165
 H648 H 0.33028 0.58733 0.90877
 H649 H 0.32398 0.54971 0.86102
 H650 H 0.29281 0.58154 0.87700
 H651 H 0.45249 0.66535 0.89247
 H652 H 0.42493 0.69545 0.86043
 H653 H 0.38884 0.54370 0.83063
 H654 H 0.36197 0.57566 0.79911
 H655 H 0.38188 0.66898 0.95189
 H656 H 0.36382 0.70026 0.91833
 H657 H 0.42541 0.63107 0.80187
 H658 H 0.45392 0.60549 0.83428
 H659 H 0.29785 0.64301 0.91645
 H660 H 0.32438 0.60842 0.95087
 O661 O 0.11803 0.67030 0.69830
 O662 O 0.08349 0.63257 0.70964
 O663 O 0.18991 0.61959 0.67176
 O664 O 0.19860 0.58700 0.63787
 O665 O 0.16314 0.69271 0.62361
 O666 O 0.12482 0.69909 0.58898
 O667 O 0.11433 0.54540 0.59811
 O668 O 0.14461 0.54035 0.63945
 O669 O 0.04187 0.58805 0.63014
 O670 O 0.03683 0.63202 0.66131
 O671 O 0.07873 0.61647 0.55718
 O672 O 0.12259 0.64641 0.54626
 O673 O 0.11555 0.57647 0.56119
 O674 O 0.14873 0.61270 0.54778
 O675 O 0.04484 0.62308 0.59088
 O676 O 0.03746 0.65857 0.62732
 O677 O 0.07345 0.55169 0.63151
 O678 O 0.10469 0.54343 0.66783
 O679 O 0.12250 0.70025 0.66060
 O680 O 0.09337 0.70642 0.62024
 O681 O 0.19427 0.65621 0.62859
 O682 O 0.19871 0.61321 0.59989
 O683 O 0.15522 0.62755 0.70438
 O684 O 0.11329 0.60219 0.71650
 Zr685 Zr 0.11760 0.62894 0.68060
 O686 O 0.09009 0.60117 0.65869
 Zr687 Zr 0.16843 0.61982 0.63252
 O688 O 0.14266 0.59272 0.60785
 Zr689 Zr 0.12284 0.67301 0.62554
 O690 O 0.09440 0.64806 0.60170
 Zr691 Zr 0.11317 0.57196 0.63413
 O692 O 0.14091 0.59684 0.65961
 Zr693 Zr 0.06729 0.62503 0.62891
 O694 O 0.09292 0.65332 0.65262
 Zr695 Zr 0.11751 0.61687 0.57986
 O696 O 0.14645 0.64367 0.60169
 O697 O 0.14653 0.65059 0.65521
 O698 O 0.08884 0.59459 0.60508
 C699 C 0.12008 0.69532 0.68728
 C700 C 0.18121 0.62311 0.69744
 C701 C 0.18852 0.68271 0.62529
 C702 C 0.11496 0.55116 0.57141
 C703 C 0.04801 0.56141 0.63005
 C704 C 0.05269 0.61921 0.56513
 H705 H 0.07752 0.59112 0.67225
 H706 H 0.08366 0.66048 0.58863
 H707 H 0.15926 0.66294 0.66652
 H708 H 0.15491 0.57903 0.59770
 H709 H 0.15627 0.54604 0.65602
 H710 H 0.19038 0.56955 0.62951
 H711 H 0.04357 0.67178 0.61213
 H712 H 0.07716 0.70209 0.63296
 H713 H 0.11339 0.55183 0.68495
 H714 H 0.12672 0.58623 0.71397
 H715 H 0.10663 0.66000 0.54715
 H716 H 0.13927 0.69065 0.57625
 H717 H 0.07064 0.64734 0.70203
 H718 H 0.03716 0.61552 0.67433
 H719 H 0.19431 0.62694 0.58457
 H720 H 0.16364 0.59995 0.55522
 O721 O 0.12637 0.15562 0.20755
 O722 O 0.09230 0.11656 0.21152
 O723 O 0.19841 0.11478 0.17145
 O724 O 0.20549 0.08533 0.13316
 O725 O 0.17031 0.19268 0.13465
 O726 O 0.13064 0.20616 0.10604
 O727 O 0.12105 0.05289 0.08455
 O728 O 0.15267 0.04004 0.12368
 O729 O 0.04956 0.08840 0.12721
 O730 O 0.04478 0.12661 0.16416
 O731 O 0.08535 0.12927 0.05861
 O732 O 0.12909 0.16140 0.05314
 O733 O 0.12227 0.09016 0.05403
 O734 O 0.15560 0.12831 0.04812
 O735 O 0.05191 0.12999 0.09339
 O736 O 0.04513 0.15823 0.13545
 O737 O 0.08086 0.05200 0.12291
 O738 O 0.11549 0.03613 0.15236
 O739 O 0.13016 0.19218 0.17617
 O740 O 0.10034 0.20619 0.13792
 O741 O 0.20172 0.15611 0.13290
 O742 O 0.20663 0.11845 0.09940
 O743 O 0.16355 0.11397 0.20490
 O744 O 0.12310 0.08477 0.21088
 Zr745 Zr 0.12596 0.11895 0.18181
 O746 O 0.09821 0.09602 0.15531
 Zr747 Zr 0.17619 0.11936 0.13254
 O748 O 0.15015 0.09724 0.10329
 Zr749 Zr 0.13013 0.17269 0.13603
 O750 O 0.10168 0.15261 0.10799
 Zr751 Zr 0.12095 0.07178 0.12542
 O752 O 0.14901 0.09151 0.15490
 Zr753 Zr 0.07497 0.12497 0.13082
 O754 O 0.10076 0.14810 0.15931
 Zr755 Zr 0.12447 0.12595 0.08051
 O756 O 0.15344 0.14823 0.10687
 O757 O 0.15443 0.14542 0.16061
 O758 O 0.09599 0.09921 0.10140
 C759 C 0.12795 0.18226 0.20153
 C760 C 0.18971 0.11308 0.19742
 C761 C 0.19571 0.18275 0.13299
 C762 C 0.12157 0.06337 0.05920
 C763 C 0.05546 0.06193 0.12429
 C764 C 0.05943 0.13071 0.06727
 H765 H 0.08573 0.08388 0.16710
 H766 H 0.09082 0.16720 0.09754
 H767 H 0.16729 0.15604 0.17345
 H768 H 0.16223 0.08570 0.09058
 H769 H 0.16516 0.04290 0.14038
 H770 H 0.19884 0.07101 0.11928
 H771 H 0.05127 0.17410 0.12308
 H772 H 0.08458 0.19948 0.15017
 H773 H 0.11203 0.04354 0.17168
 H774 H 0.13618 0.06983 0.20397
 H775 H 0.11241 0.17388 0.05580
 H776 H 0.14271 0.19973 0.09006
 H777 H 0.07927 0.13246 0.20717
 H778 H 0.04613 0.10873 0.17513
 H779 H 0.20089 0.13311 0.08546
 H780 H 0.16993 0.11348 0.05207
 O781 O 0.70215 0.38053 0.83236
 O782 O 0.71077 0.40912 0.87541
 O783 O 0.66465 0.30507 0.86915
 O784 O 0.62707 0.29443 0.89604
 O785 O 0.62705 0.34647 0.79607
 O786 O 0.59651 0.38806 0.79193
 O787 O 0.58697 0.37659 0.94504
 O788 O 0.62489 0.34054 0.94976
 O789 O 0.63008 0.44983 0.91822
 O790 O 0.66441 0.46000 0.87917
 O791 O 0.55751 0.42266 0.87599
 O792 O 0.54821 0.38467 0.83893
 O793 O 0.55435 0.38156 0.90992
 O794 O 0.54423 0.35376 0.86833
 O795 O 0.59324 0.45498 0.87939
 O796 O 0.63476 0.46457 0.84865
 O797 O 0.62657 0.41303 0.94923
 O798 O 0.65650 0.37704 0.95668
 O799 O 0.66749 0.38535 0.79912
 O800 O 0.63011 0.41738 0.79290
 O801 O 0.62578 0.31025 0.82799
 O802 O 0.59243 0.30122 0.86641
 O803 O 0.70048 0.33748 0.87010
 O804 O 0.71185 0.37506 0.90251
 Zr805 Zr 0.67949 0.37704 0.87142
 O806 O 0.65584 0.40184 0.90048
 Zr807 Zr 0.62738 0.32961 0.86801
 O808 O 0.60113 0.35281 0.89579
 Zr809 Zr 0.62960 0.38303 0.82186
 O810 O 0.60465 0.40919 0.84799
 Zr811 Zr 0.62649 0.37687 0.92329
 O812 O 0.65326 0.35127 0.89747
 Zr813 Zr 0.63041 0.43049 0.87773
 O814 O 0.65593 0.40744 0.84869
 Zr815 Zr 0.57805 0.38318 0.87254
 O816 O 0.60117 0.35705 0.84438
 O817 O 0.65486 0.35380 0.84324
 O818 O 0.60188 0.40647 0.90169
 C819 C 0.69363 0.38411 0.80652
 C820 C 0.69115 0.31175 0.86991
 C821 C 0.62560 0.31992 0.80248
 C822 C 0.56118 0.37897 0.93611
 C823 C 0.62808 0.43967 0.94354
 C824 C 0.56681 0.44823 0.87852
 H825 H 0.66896 0.41161 0.91367
 H826 H 0.59380 0.42257 0.83601
 H827 H 0.66666 0.34211 0.83035
 H828 H 0.58862 0.33966 0.90643
 H829 H 0.64123 0.32841 0.94443
 H830 H 0.61648 0.30019 0.91324
 H831 H 0.61954 0.46270 0.83430
 H832 H 0.64233 0.43223 0.80146
 H833 H 0.67437 0.36984 0.94846
 H834 H 0.70667 0.35960 0.91581
 H835 H 0.55148 0.40242 0.82813
 H836 H 0.58196 0.37350 0.79642
 H837 H 0.70539 0.42452 0.86215
 H838 H 0.67735 0.45416 0.89465
 H839 H 0.57894 0.30893 0.85226
 H840 H 0.54852 0.33729 0.88064
 O841 O 0.11974 0.83691 0.80246
 O842 O 0.09208 0.88119 0.79565
 O843 O 0.19786 0.87156 0.83549
 O844 O 0.21029 0.89887 0.87351
 O845 O 0.15723 0.79905 0.87527
 O846 O 0.11683 0.79550 0.90826
 O847 O 0.12944 0.94821 0.91836
 O848 O 0.16600 0.95232 0.88053
 O849 O 0.05604 0.92288 0.87689
 O850 O 0.04501 0.88292 0.84185
 O851 O 0.08355 0.87865 0.94828
 O852 O 0.12303 0.84081 0.95517
 O853 O 0.12581 0.91269 0.95078
 O854 O 0.15230 0.87227 0.96051
 O855 O 0.05104 0.88384 0.91310
 O856 O 0.03862 0.85490 0.87364
 O857 O 0.09339 0.95344 0.87851
 O858 O 0.13176 0.96057 0.84892
 O859 O 0.11632 0.80316 0.83688
 O860 O 0.08665 0.79629 0.87591
 O861 O 0.19440 0.82997 0.87461
 O862 O 0.20536 0.86708 0.90802
 O863 O 0.16295 0.87292 0.80218
 O864 O 0.12818 0.90689 0.79332
 Zr865 Zr 0.12532 0.87544 0.82530
 O866 O 0.10239 0.90489 0.84987
 Zr867 Zr 0.17535 0.87048 0.87469
 O868 O 0.15334 0.89824 0.90249
 Zr869 Zr 0.12095 0.82535 0.87486
 O870 O 0.09590 0.85170 0.90068
 Zr871 Zr 0.12902 0.92677 0.87855
 O872 O 0.15287 0.90064 0.85043
 Zr873 Zr 0.07447 0.88205 0.87582
 O874 O 0.09579 0.85255 0.84968
 Zr875 Zr 0.12301 0.87561 0.92664
 O876 O 0.14829 0.84744 0.90225
 O877 O 0.14926 0.84654 0.84837
 O878 O 0.09964 0.90541 0.90383
 C879 C 0.11620 0.81103 0.81084
 C880 C 0.18913 0.87207 0.80948
 C881 C 0.18402 0.80463 0.87516
 C882 C 0.12778 0.93903 0.94417
 C883 C 0.06665 0.94808 0.87791
 C884 C 0.05790 0.88192 0.93928
 H885 H 0.09223 0.91810 0.83712
 H886 H 0.08265 0.83977 0.91184
 H887 H 0.16001 0.83348 0.83588
 H888 H 0.16692 0.90851 0.91481
 H889 H 0.17840 0.94635 0.86460
 H890 H 0.20645 0.91433 0.88722
 H891 H 0.04226 0.83851 0.88627
 H892 H 0.07116 0.80504 0.86473
 H893 H 0.12376 0.95360 0.83082
 H894 H 0.14222 0.92107 0.80006
 H895 H 0.10434 0.83125 0.95379
 H896 H 0.13283 0.79890 0.92148
 H897 H 0.07716 0.86708 0.80038
 H898 H 0.04856 0.90034 0.83060
 H899 H 0.19748 0.85341 0.92197
 H900 H 0.17048 0.88039 0.95376
 O901 O 0.69385 0.11462 0.67736
 O902 O 0.69982 0.08034 0.63901
 O903 O 0.66552 0.18827 0.63310
 O904 O 0.62978 0.20046 0.60489
 O905 O 0.62205 0.15894 0.70901
 O906 O 0.58868 0.12156 0.71830
 O907 O 0.58062 0.11614 0.56376
 O908 O 0.62079 0.14712 0.55468
 O909 O 0.61589 0.04276 0.60054
 O910 O 0.64495 0.03278 0.64099
 O911 O 0.54474 0.08429 0.63594
 O912 O 0.53965 0.12609 0.66870
 O913 O 0.54735 0.12121 0.59832
 O914 O 0.54136 0.15508 0.63719
 O915 O 0.57608 0.04767 0.63573
 O916 O 0.61550 0.03785 0.67205
 O917 O 0.61744 0.07546 0.56505
 O918 O 0.65106 0.11175 0.55389
 O919 O 0.65922 0.11700 0.71099
 O920 O 0.61822 0.08848 0.71957
 O921 O 0.62562 0.19219 0.67412
 O922 O 0.59353 0.19992 0.63387
 O923 O 0.69706 0.15183 0.63491
 O924 O 0.70271 0.11042 0.60628
 Zr925 Zr 0.67155 0.11519 0.63828
 O926 O 0.64535 0.08959 0.61248
 Zr927 Zr 0.62551 0.16840 0.63615
 O928 O 0.59733 0.14514 0.61017
 Zr929 Zr 0.62149 0.11993 0.68763
 O930 O 0.59307 0.09464 0.66421
 Zr931 Zr 0.61971 0.11498 0.58610
 O932 O 0.64858 0.14074 0.60947
 Zr933 Zr 0.61625 0.06717 0.63787
 O934 O 0.64483 0.09009 0.66400
 Zr935 Zr 0.57036 0.12077 0.63621
 O936 O 0.59632 0.14652 0.66216
 O937 O 0.64983 0.14396 0.66357
 O938 O 0.59136 0.09144 0.61051
 C939 C 0.68537 0.11537 0.70342
 C940 C 0.69099 0.17838 0.63282
 C941 C 0.62357 0.18479 0.70036
 C942 C 0.55469 0.11881 0.57222
 C943 C 0.61645 0.04967 0.57416
 C944 C 0.55075 0.05773 0.63494
 H945 H 0.65750 0.07654 0.60142
 H946 H 0.58037 0.08414 0.67726
 H947 H 0.66273 0.15583 0.67521
 H948 H 0.58666 0.15825 0.59773
 H949 H 0.63618 0.16045 0.56010
 H950 H 0.61846 0.19447 0.58823
 H951 H 0.59764 0.04065 0.68277
 H952 H 0.62973 0.07214 0.71306
 H953 H 0.66586 0.09850 0.56062
 H954 H 0.69701 0.12304 0.59045
 H955 H 0.54081 0.10955 0.68161
 H956 H 0.57455 0.13538 0.71119
 H957 H 0.69272 0.06713 0.65379
 H958 H 0.66137 0.03721 0.62863
 H959 H 0.57968 0.19577 0.64918
 H960 H 0.54658 0.16834 0.62172
 C961 C 0.37100 0.80204 0.74420
 C962 C 0.37547 0.79180 0.71641
 C963 C 0.38132 0.76283 0.71246
 C964 C 0.38266 0.74436 0.73587
 C965 C 0.37784 0.75482 0.76365
 C966 C 0.37209 0.78374 0.76754
 C967 C 0.37842 0.73614 0.78698
 C968 C 0.38360 0.70702 0.78284
 C969 C 0.38902 0.69708 0.75510
 C970 C 0.38855 0.71552 0.73191
 H971 H 0.38499 0.75467 0.69123
 H972 H 0.36831 0.79220 0.78862
 H973 H 0.37411 0.74413 0.80815
 H974 H 0.39246 0.70713 0.71082
 H975 H 0.36632 0.82426 0.74793
 H976 H 0.39325 0.67482 0.75114
 C977 C 0.39192 0.24374 0.29841
 C978 C 0.38540 0.21568 0.29031
 C979 C 0.37812 0.21005 0.26186
 C980 C 0.37675 0.23227 0.24198
 C981 C 0.38292 0.26038 0.25062
 C982 C 0.39073 0.26585 0.27877
 C983 C 0.38112 0.28268 0.23103
 C984 C 0.37341 0.27741 0.20269
 C985 C 0.36746 0.24935 0.19418
 C986 C 0.36902 0.22698 0.21369
 H987 H 0.37286 0.18857 0.25533
 H988 H 0.39564 0.28727 0.28568
 H989 H 0.38604 0.30415 0.23787
 H990 H 0.36417 0.20558 0.20667
 H991 H 0.39769 0.24874 0.32012
 H992 H 0.36144 0.24471 0.17246
 C993 C 0.62138 0.80381 0.25620
 C994 C 0.62073 0.79410 0.28453
 C995 C 0.61892 0.76467 0.28968
 C996 C 0.61813 0.74532 0.26690
 C997 C 0.61910 0.75545 0.23863
 C998 C 0.62057 0.78472 0.23354
 C999 C 0.61886 0.73617 0.21586
 C1000 C 0.61774 0.70672 0.22086
 C1001 C 0.61648 0.69689 0.24912
 C1002 C 0.61667 0.71598 0.27188
 H1003 H 0.61840 0.75678 0.31132
 H1004 H 0.62130 0.79287 0.21201
 H1005 H 0.61983 0.74418 0.19428
 H1006 H 0.61589 0.70778 0.29339
 H1007 H 0.62274 0.82628 0.25142
 H1008 H 0.61563 0.67435 0.25373
 C1009 C 0.12590 0.30122 0.25720
 C1010 C 0.12628 0.29242 0.28579
 C1011 C 0.12656 0.26313 0.29199
 C1012 C 0.12674 0.24300 0.26994
 C1013 C 0.12653 0.25226 0.24138
 C1014 C 0.12600 0.28136 0.23525
 C1015 C 0.12693 0.23233 0.21931
 C1016 C 0.12753 0.20303 0.22521
 C1017 C 0.12764 0.19397 0.25371
 C1018 C 0.12728 0.21379 0.27587
 H1019 H 0.12694 0.25597 0.31389
 H1020 H 0.12580 0.28879 0.21345
 H1021 H 0.12674 0.23975 0.19750
 H1022 H 0.12746 0.20626 0.29764
 H1023 H 0.12564 0.32356 0.25168
 H1024 H 0.12812 0.17156 0.25892
 C1025 C 0.13076 0.74661 0.69696
 C1026 C 0.12020 0.72021 0.70643
 C1027 C 0.10971 0.71785 0.73421
 C1028 C 0.10991 0.74140 0.75241
 C1029 C 0.12092 0.76777 0.74290
 C1030 C 0.13119 0.77015 0.71506
 C1031 C 0.12198 0.79107 0.76159
 C1032 C 0.11243 0.78809 0.78972
 C1033 C 0.10079 0.76192 0.79856
 C1034 C 0.09952 0.73885 0.78011
 H1035 H 0.10129 0.69771 0.74169
 H1036 H 0.13974 0.79013 0.70734
 H1037 H 0.13108 0.81107 0.75457
 H1038 H 0.09082 0.71888 0.78768
 H1039 H 0.13906 0.74901 0.67562
 H1040 H 0.09299 0.75908 0.82003
 C1041 C 0.89624 0.24619 0.79397
 C1042 C 0.88922 0.21808 0.78637
 C1043 C 0.88244 0.21197 0.75795
 C1044 C 0.88183 0.23379 0.73762
 C1045 C 0.88835 0.26202 0.74571
 C1046 C 0.89585 0.26791 0.77385
 C1047 C 0.88690 0.28399 0.72565
 C1048 C 0.87895 0.27820 0.69748
 C1049 C 0.87288 0.24996 0.68957
 C1050 C 0.87430 0.22798 0.70945
 H1051 H 0.87689 0.19046 0.75178
 H1052 H 0.90102 0.28939 0.78040
 H1053 H 0.89175 0.30559 0.73208
 H1054 H 0.86922 0.20650 0.70283
 H1055 H 0.90172 0.25155 0.81567
 H1056 H 0.86666 0.24480 0.66803
 C1057 C 0.80574 0.36390 0.73965
 C1058 C 0.79599 0.37367 0.71308
 C1059 C 0.76843 0.38477 0.71109
 C1060 C 0.75080 0.38596 0.73514
 C1061 C 0.76059 0.37569 0.76165
 C1062 C 0.78820 0.36481 0.76365
 C1063 C 0.74242 0.37602 0.78549
 C1064 C 0.71451 0.38629 0.78294
 C1065 C 0.70550 0.39720 0.75655
 C1066 C 0.72339 0.39703 0.73297
 H1067 H 0.76069 0.39259 0.69086
 H1068 H 0.79617 0.35683 0.78371
 H1069 H 0.74965 0.36748 0.80562
 H1070 H 0.71560 0.40520 0.71291
 H1071 H 0.82689 0.35516 0.74185
 H1072 H 0.68425 0.40558 0.75390
 C1073 C 0.30043 0.62046 0.75311
 C1074 C 0.29134 0.62226 0.78157
 C1075 C 0.26208 0.62349 0.78742
 C1076 C 0.24222 0.62305 0.76530
 C1077 C 0.25157 0.62129 0.73681
 C1078 C 0.28072 0.61996 0.73095
 C1079 C 0.23163 0.62105 0.71467
 C1080 C 0.20240 0.62267 0.72066
 C1081 C 0.19342 0.62433 0.74916
 C1082 C 0.21313 0.62449 0.77124
 H1083 H 0.25467 0.62492 0.80920
 H1084 H 0.28829 0.61862 0.70924
 H1085 H 0.23892 0.61985 0.69285
 H1086 H 0.20561 0.62584 0.79297
 H1087 H 0.32282 0.61949 0.74791
 H1088 H 0.17108 0.62555 0.75449
 C1089 C 0.30255 0.13829 0.25994
 C1090 C 0.29421 0.12888 0.28714
 C1091 C 0.26678 0.11766 0.29085
 C1092 C 0.24819 0.11533 0.26755
 C1093 C 0.25698 0.12466 0.24030
 C1094 C 0.28414 0.13627 0.23682
 C1095 C 0.23835 0.12262 0.21706
 C1096 C 0.21079 0.11176 0.22075
 C1097 C 0.20243 0.10215 0.24786
 C1098 C 0.22095 0.10381 0.27097
 H1099 H 0.26016 0.11017 0.31162
 H1100 H 0.29122 0.14369 0.21618
 H1101 H 0.24495 0.13045 0.19640
 H1102 H 0.21382 0.09644 0.29161
 H1103 H 0.32350 0.14720 0.25645
 H1104 H 0.18129 0.09368 0.25132
 C1105 C 0.80318 0.13436 0.75876
 C1106 C 0.79495 0.13023 0.78728
 C1107 C 0.76644 0.12359 0.79331
 C1108 C 0.74659 0.12077 0.77116
 C1109 C 0.75525 0.12481 0.74264
 C1110 C 0.78356 0.13171 0.73672
 C1111 C 0.73544 0.12216 0.72049
 C1112 C 0.70687 0.11580 0.72643
 C1113 C 0.69855 0.11159 0.75490
 C1114 C 0.71820 0.11397 0.77700
 H1115 H 0.75977 0.12024 0.81512
 H1116 H 0.79058 0.13502 0.71503
 H1117 H 0.74216 0.12573 0.69874
 H1118 H 0.71113 0.11073 0.79868
 H1119 H 0.82493 0.13965 0.75336
 H1120 H 0.67668 0.10665 0.76017
 C1121 C 0.74552 0.87748 0.29909
 C1122 C 0.71693 0.87864 0.29044
 C1123 C 0.71075 0.88067 0.26119
 C1124 C 0.73281 0.88135 0.24100
 C1125 C 0.76134 0.88003 0.25014
 C1126 C 0.76746 0.87818 0.27918
 C1127 C 0.78339 0.88030 0.23012
 C1128 C 0.77753 0.88169 0.20083
 C1129 C 0.74905 0.88326 0.19192
 C1130 C 0.72690 0.88312 0.21182
 H1131 H 0.68887 0.88160 0.25411
 H1132 H 0.78924 0.87714 0.28652
 H1133 H 0.80517 0.87907 0.23748
 H1134 H 0.70515 0.88416 0.20438
 H1135 H 0.75107 0.87592 0.32136
 H1136 H 0.74382 0.88428 0.16954
 C1137 C 0.80583 0.74939 0.37576
 C1138 C 0.79632 0.72102 0.37489
 C1139 C 0.76691 0.71552 0.37481
 C1140 C 0.74736 0.73796 0.37539
 C1141 C 0.75722 0.76634 0.37615
 C1142 C 0.78648 0.77181 0.37639
 C1143 C 0.73769 0.78879 0.37650
 C1144 C 0.70829 0.78335 0.37604
 C1145 C 0.69874 0.75498 0.37539
 C1146 C 0.71808 0.73252 0.37509
 H1147 H 0.75917 0.69381 0.37412
 H1148 H 0.79441 0.79345 0.37696
 H1149 H 0.74548 0.81050 0.37697
 H1150 H 0.71013 0.71089 0.37450
 H1151 H 0.82830 0.75435 0.37584
 H1152 H 0.67625 0.75007 0.37501
 C1153 C 0.74968 0.29623 0.62275
 C1154 C 0.77799 0.28665 0.62190
 C1155 C 0.78325 0.25722 0.62326
 C1156 C 0.76064 0.23776 0.62557
 C1157 C 0.73236 0.24774 0.62639
 C1158 C 0.72714 0.27700 0.62492
 C1159 C 0.70975 0.22833 0.62872
 C1160 C 0.71493 0.19891 0.63032
 C1161 C 0.74322 0.18927 0.62955
 C1162 C 0.76581 0.20848 0.62718
 H1163 H 0.80489 0.24942 0.62277
 H1164 H 0.70560 0.28505 0.62553
 H1165 H 0.68814 0.23622 0.62933
 H1166 H 0.78734 0.20041 0.62664
 H1167 H 0.74487 0.31870 0.62171
 H1168 H 0.74797 0.16679 0.63076
 C1169 C 0.74118 0.70063 0.13757
 C1170 C 0.71323 0.70927 0.13151
 C1171 C 0.70827 0.73752 0.12308
 C1172 C 0.73099 0.75669 0.12018
 C1173 C 0.75897 0.74758 0.12600
 C1174 C 0.76380 0.71962 0.13490
 C1175 C 0.78169 0.76660 0.12303
 C1176 C 0.77694 0.79486 0.11459
 C1177 C 0.74903 0.80374 0.10878
 C1178 C 0.72627 0.78478 0.11143
 H1179 H 0.68687 0.74444 0.11820
 H1180 H 0.78512 0.71236 0.13961
 H1181 H 0.80302 0.75949 0.12796
 H1182 H 0.70497 0.79215 0.10686
 H1183 H 0.74564 0.67906 0.14423
 H1184 H 0.74476 0.82542 0.10237
 C1185 C 0.25575 0.29846 0.11132
 C1186 C 0.28387 0.28920 0.11532
 C1187 C 0.28874 0.26037 0.12168
 C1188 C 0.26589 0.24128 0.12460
 C1189 C 0.23774 0.25097 0.12085
 C1190 C 0.23295 0.27954 0.11397
 C1191 C 0.21488 0.23195 0.12410
 C1192 C 0.21973 0.20321 0.13086
 C1193 C 0.24788 0.19388 0.13455
 C1194 C 0.27069 0.21272 0.13152
 H1195 H 0.31022 0.25287 0.12512
 H1196 H 0.21153 0.28736 0.11095
 H1197 H 0.19336 0.23948 0.12098
 H1198 H 0.29211 0.20492 0.13457
 H1199 H 0.25127 0.32051 0.10647
 H1200 H 0.25234 0.17193 0.13981
 C1201 C 0.30131 0.74478 0.87016
 C1202 C 0.29155 0.71647 0.87110
 C1203 C 0.26205 0.71140 0.87256
 C1204 C 0.24274 0.73421 0.87327
 C1205 C 0.25296 0.76246 0.87243
 C1206 C 0.28226 0.76748 0.87079
 C1207 C 0.23377 0.78527 0.87322
 C1208 C 0.20427 0.78037 0.87481
 C1209 C 0.19436 0.75211 0.87563
 C1210 C 0.21338 0.72929 0.87488
 H1211 H 0.25408 0.68977 0.87332
 H1212 H 0.29048 0.78900 0.87007
 H1213 H 0.24188 0.80684 0.87248
 H1214 H 0.20510 0.70779 0.87555
 H1215 H 0.32380 0.74950 0.86895
 H1216 H 0.17183 0.74757 0.87681
 C1217 C 0.30774 0.24973 0.37901
 C1218 C 0.29809 0.22139 0.37876
 C1219 C 0.26863 0.21610 0.37905
 C1220 C 0.24918 0.23869 0.37941
 C1221 C 0.25919 0.26703 0.37953
 C1222 C 0.28851 0.27230 0.37940
 C1223 C 0.23975 0.28962 0.37959
 C1224 C 0.21029 0.28433 0.37942
 C1225 C 0.20063 0.25599 0.37947
 C1226 C 0.21987 0.23342 0.37949
 H1227 H 0.26074 0.19443 0.37888
 H1228 H 0.29658 0.29389 0.37947
 H1229 H 0.24763 0.31129 0.37948
 H1230 H 0.21180 0.21183 0.37941
 H1231 H 0.33025 0.25455 0.37878
 H1232 H 0.17813 0.25117 0.37932
 C1233 C 0.55130 0.63184 1.00413
 C1234 C 0.54152 0.62918 1.03230
 C1235 C 0.51224 0.62517 1.03709
 C1236 C 0.49313 0.62377 1.01420
 C1237 C 0.50326 0.62647 0.98604
 C1238 C 0.53238 0.63053 0.98127
 C1239 C 0.48411 0.62515 0.96315
 C1240 C 0.45482 0.62135 0.96800
 C1241 C 0.44509 0.61851 0.99617
 C1242 C 0.46403 0.61966 1.01899
 H1243 H 0.50429 0.62287 1.05860
 H1244 H 0.54057 0.63264 0.95984
 H1245 H 0.49202 0.62744 0.94163
 H1246 H 0.45587 0.61744 1.04042
 H1247 H 0.57368 0.63485 0.99966
 H1248 H 0.42272 0.61542 1.00066
 C1249 C 0.49724 0.11632 0.45349
 C1250 C 0.46894 0.11989 0.46270
 C1251 C 0.46349 0.12189 0.49200
 C1252 C 0.48594 0.12073 0.51167
 C1253 C 0.51424 0.11744 0.50207
 C1254 C 0.51959 0.11510 0.47292
 C1255 C 0.53672 0.11669 0.52174
 C1256 C 0.53130 0.11923 0.55101
 C1257 C 0.50294 0.12225 0.56022
 C1258 C 0.48056 0.12300 0.54081
 H1259 H 0.44189 0.12457 0.49951
 H1260 H 0.54108 0.11247 0.46511
 H1261 H 0.55836 0.11424 0.51423
 H1262 H 0.45905 0.12546 0.54862
 H1263 H 0.50226 0.11453 0.43110
 H1264 H 0.49788 0.12416 0.58259
 C1265 C 0.54860 0.88192 0.49376
 C1266 C 0.54020 0.87879 0.46521
 C1267 C 0.51120 0.87417 0.45917
 C1268 C 0.49113 0.87217 0.48136
 C1269 C 0.50012 0.87502 0.50985
 C1270 C 0.52882 0.88009 0.51578
 C1271 C 0.48033 0.87279 0.53206
 C1272 C 0.45135 0.86786 0.52643
 C1273 C 0.44255 0.86518 0.49797
 C1274 C 0.46225 0.86724 0.47567
 H1275 H 0.50432 0.87167 0.43733
 H1276 H 0.53605 0.88248 0.53751
 H1277 H 0.48757 0.87523 0.55379
 H1278 H 0.45488 0.86503 0.45398
 H1279 H 0.57064 0.88569 0.49920
 H1280 H 0.42041 0.86156 0.49290
 C1281 C 1.04590 0.39060 0.48750
 C1282 C 1.03865 0.38437 0.45919
 C1283 C 1.01013 0.37826 0.45241
 C1284 C 0.98938 0.37737 0.47392
 C1285 C 0.99729 0.38301 0.50231
 C1286 C 1.02543 0.39000 0.50882
 C1287 C 0.97708 0.38119 0.52397
 C1288 C 0.94881 0.37364 0.51798
 C1289 C 0.94081 0.36869 0.48963
 C1290 C 0.96098 0.37049 0.46775
 H1291 H 1.00425 0.37345 0.43067
 H1292 H 1.03171 0.39458 0.53049
 H1293 H 0.98355 0.38558 0.54565
 H1294 H 0.95445 0.36620 0.44610
 H1295 H 1.06757 0.39575 0.49331
 H1296 H 0.91912 0.36303 0.48444
 C1297 C -0.00541 0.86855 1.05390
 C1298 C -0.03312 0.87325 1.04342
 C1299 C -0.03663 0.87949 1.01444
 C1300 C -0.01307 0.88120 0.99638
 C1301 C 0.01453 0.87604 1.00704
 C1302 C 0.01810 0.86976 1.03586
 C1303 C 0.03800 0.87700 0.98863
 C1304 C 0.03408 0.88306 0.95970
 C1305 C 0.00652 0.88901 0.94965
 C1306 C -0.01678 0.88800 0.96776
 H1307 H -0.05761 0.88353 1.00585
 H1308 H 0.03907 0.86583 1.04447
 H1309 H 0.05908 0.87249 0.99669
 H1310 H -0.03774 0.89231 0.95930
 H1311 H -0.00173 0.86376 1.07611
 H1312 H 0.00274 0.89408 0.92752
 C1313 C 0.00035 0.11934 -0.04952
 C1314 C -0.02718 0.12705 -0.04066
 C1315 C -0.03177 0.13422 -0.01208
 C1316 C -0.00916 0.13399 0.00730
 C1317 C 0.01842 0.12636 -0.00190
 C1318 C 0.02290 0.11898 -0.03034
 C1319 C 0.04101 0.12599 0.01752
 C1320 C 0.03632 0.13289 0.04615
 C1321 C 0.00881 0.14066 0.05499
 C1322 C -0.01367 0.14126 0.03576
 H1323 H -0.05282 0.14027 -0.00495
 H1324 H 0.04384 0.11295 -0.03776
 H1325 H 0.06203 0.11975 0.01048
 H1326 H -0.03462 0.14723 0.04319
 H1327 H 0.00456 0.11353 -0.07138
 H1328 H 0.00456 0.14618 0.07693
 C1329 C 0.12150 1.05538 1.00753
 C1330 C 0.12186 1.04466 1.03562
 C1331 C 0.12323 1.01496 1.03937
 C1332 C 0.12471 0.99658 1.01581
 C1333 C 0.12444 1.00767 0.98788
 C1334 C 0.12268 1.03714 0.98405
 C1335 C 0.12587 0.98911 0.96432
 C1336 C 0.12759 0.95950 0.96842
 C1337 C 0.12805 0.94895 0.99650
 C1338 C 0.12661 0.96720 1.01981
 H1339 H 0.12358 1.00600 1.06060
 H1340 H 0.12237 1.04615 0.96286
 H1341 H 0.12535 0.99768 0.94295
 H1342 H 0.12692 0.95825 1.04104
 H1343 H 0.12035 1.07802 1.00350
 H1344 H 0.12938 0.92635 1.00063
 C1345 C 0.12991 0.49535 0.45366
 C1346 C 0.12655 0.46680 0.46199
 C1347 C 0.12115 0.46058 0.49080
 C1348 C 0.11915 0.48262 0.51089
 C1349 C 0.12259 0.51111 0.50204
 C1350 C 0.12795 0.51724 0.47345
 C1351 C 0.12077 0.53316 0.52187
 C1352 C 0.11574 0.52738 0.55076
 C1353 C 0.11219 0.49898 0.55946
 C1354 C 0.11382 0.47678 0.53968
 H1355 H 0.11834 0.43872 0.49757
 H1356 H 0.13064 0.53900 0.46636
 H1357 H 0.12366 0.55488 0.51471
 H1358 H 0.11104 0.45508 0.54690
 H1359 H 0.13402 0.50093 0.43171
 H1360 H 0.10821 0.49389 0.58156
 C1361 C 0.39174 0.49469 1.05295
 C1362 C 0.38369 0.46734 1.04378
 C1363 C 0.37407 0.46373 1.01579
 C1364 C 0.37202 0.48706 0.99736
 C1365 C 0.38011 0.51450 1.00671
 C1366 C 0.39011 0.51801 1.03454
 C1367 C 0.37822 0.53779 0.98798
 C1368 C 0.36851 0.53382 0.95998
 C1369 C 0.36012 0.50641 0.95128
 C1370 C 0.36184 0.48333 0.96972
 H1371 H 0.36750 0.44285 1.00852
 H1372 H 0.39650 0.53881 1.04215
 H1373 H 0.38496 0.55872 0.99492
 H1374 H 0.35540 0.46250 0.96226
 H1375 H 0.39927 0.49808 1.07443
 H1376 H 0.35241 0.50264 0.92992
 C1377 C 0.88538 0.55184 0.48932
 C1378 C 0.87773 0.54333 0.46162
 C1379 C 0.86973 0.51494 0.45695
 C1380 C 0.86902 0.49548 0.47962
 C1381 C 0.87662 0.50433 0.50735
 C1382 C 0.88488 0.53256 0.51189
 C1383 C 0.87596 0.48481 0.53001
 C1384 C 0.86785 0.45642 0.52529
 C1385 C 0.86017 0.44802 0.49756
 C1386 C 0.86074 0.46730 0.47504
 H1387 H 0.86372 0.50805 0.43580
 H1388 H 0.89089 0.53978 0.53291
 H1389 H 0.88207 0.49163 0.55114
 H1390 H 0.85478 0.46010 0.45399
 H1391 H 0.89186 0.57351 0.49364
 H1392 H 0.85376 0.42636 0.49310
 C1393 C 0.87487 1.05817 -0.00421
 C1394 C 0.87999 1.04899 -0.03225
 C1395 C 0.88549 1.02005 -0.03714
 C1396 C 0.88580 1.00061 -0.01444
 C1397 C 0.88034 1.01006 0.01358
 C1398 C 0.87497 1.03892 0.01842
 C1399 C 0.88003 0.99045 0.03619
 C1400 C 0.88493 0.96140 0.03111
 C1401 C 0.89094 0.95248 0.00314
 C1402 C 0.89138 0.97183 -0.01933
 H1403 H 0.88978 1.01266 -0.05854
 H1404 H 0.87076 1.04662 0.03971
 H1405 H 0.87537 0.99771 0.05754
 H1406 H 0.89581 0.96421 -0.04060
 H1407 H 0.87059 1.08033 0.00028
 H1408 H 0.89507 0.93033 -0.00153
 C1409 C 0.63408 -0.00687 0.45672
 C1410 C 0.62828 -0.03516 0.46475
 C1411 C 0.62096 -0.04092 0.49320
 C1412 C 0.61930 -0.01869 0.51317
 C1413 C 0.62509 0.00957 0.50464
 C1414 C 0.63251 0.01519 0.47641
 C1415 C 0.62355 0.03180 0.52445
 C1416 C 0.61655 0.02629 0.55297
 C1417 C 0.61063 -0.00190 0.56124
 C1418 C 0.61191 -0.02413 0.54153
 H1419 H 0.61624 -0.06252 0.49972
 H1420 H 0.63707 0.03671 0.46950
 H1421 H 0.62831 0.05333 0.51771
 H1422 H 0.60728 -0.04560 0.54852
 H1423 H 0.63979 -0.00163 0.43505
 H1424 H 0.60505 -0.00682 0.58303
 C1425 C 0.44945 1.00504 0.37923
 C1426 C 0.45923 1.03332 0.37988
 C1427 C 0.48859 1.03864 0.38115
 C1428 C 0.50791 1.01610 0.38141
 C1429 C 0.49785 0.98779 0.38045
 C1430 C 0.46860 0.98248 0.37951
 C1431 C 0.51721 0.96525 0.38024
 C1432 C 0.54659 0.97061 0.38087
 C1433 C 0.55633 0.99888 0.38214
 C1434 C 0.53716 1.02142 0.38242
 H1435 H 0.49648 1.06030 0.38183
 H1436 H 0.46052 0.96090 0.37884
 H1437 H 0.50934 0.94359 0.37935
 H1438 H 0.54522 1.04300 0.38325
 H1439 H 0.42695 1.00028 0.37834
 H1440 H 0.57883 1.00368 0.38278
 C1441 C -0.00562 -0.05503 0.12566
 C1442 C -0.03367 -0.04486 0.12387
 C1443 C -0.03820 -0.01537 0.12192
 C1444 C -0.01516 0.00363 0.12191
 C1445 C 0.01288 -0.00687 0.12382
 C1446 C 0.01740 -0.03623 0.12563
 C1447 C 0.03591 0.01216 0.12410
 C1448 C 0.03131 0.04167 0.12274
 C1449 C 0.00327 0.05181 0.12060
 C1450 C -0.01970 0.03299 0.12013
 H1451 H -0.05963 -0.00712 0.12041
 H1452 H 0.03875 -0.04468 0.12708
 H1453 H 0.05734 0.00397 0.12581
 H1454 H -0.04104 0.04142 0.11857
 H1455 H -0.00137 -0.07760 0.12705
 H1456 H -0.00099 0.07438 0.11937
 C1457 C 0.50305 0.55059 0.11185
 C1458 C 0.53121 0.54198 0.11681
 C1459 C 0.53680 0.51315 0.12240
 C1460 C 0.51453 0.49337 0.12376
 C1461 C 0.48630 0.50238 0.11917
 C1462 C 0.48081 0.53096 0.11294
 C1463 C 0.46400 0.48270 0.12097
 C1464 C 0.46947 0.45399 0.12722
 C1465 C 0.49768 0.44523 0.13160
 C1466 C 0.52000 0.46476 0.12994
 H1467 H 0.55836 0.50618 0.12637
 H1468 H 0.45929 0.53819 0.10921
 H1469 H 0.44242 0.48975 0.11721
 H1470 H 0.54153 0.45749 0.13350
 H1471 H 0.49813 0.57262 0.10735
 H1472 H 0.50254 0.42324 0.13631
 C1473 C -0.00896 0.44452 0.60663
 C1474 C -0.03738 0.45315 0.60997
 C1475 C -0.04302 0.48193 0.61606
 C1476 C -0.02071 0.50154 0.61947
 C1477 C 0.00771 0.49245 0.61655
 C1478 C 0.01333 0.46397 0.60984
 C1479 C 0.03003 0.51195 0.62047
 C1480 C 0.02438 0.54061 0.62711
 C1481 C -0.00405 0.54940 0.62972
 C1482 C -0.02635 0.53005 0.62602
 H1483 H -0.06475 0.48902 0.61877
 H1484 H 0.03500 0.45664 0.60736
 H1485 H 0.05178 0.50484 0.61800
 H1486 H -0.04802 0.53742 0.62829
 H1487 H -0.00388 0.42259 0.60187
 H1488 H -0.00911 0.57129 0.63465
 C1489 C 0.44749 0.50301 0.88134
 C1490 C 0.45641 0.53158 0.88161
 C1491 C 0.48565 0.53775 0.88249
 C1492 C 0.50568 0.51577 0.88239
 C1493 C 0.49645 0.48718 0.88161
 C1494 C 0.46733 0.48102 0.88137
 C1495 C 0.51648 0.46523 0.88071
 C1496 C 0.54573 0.47142 0.88044
 C1497 C 0.55464 0.49997 0.88169
 C1498 C 0.53480 0.52193 0.88267
 H1499 H 0.49292 0.55963 0.88280
 H1500 H 0.45989 0.45921 0.88088
 H1501 H 0.50922 0.44335 0.87994
 H1502 H 0.54224 0.54373 0.88336
 H1503 H 0.42513 0.49758 0.88080
 H1504 H 0.57701 0.50541 0.88165
 C1505 C 0.62663 0.55630 1.00511
 C1506 C 0.62435 0.54609 1.03326
 C1507 C 0.62310 0.51644 1.03763
 C1508 C 0.62436 0.49755 1.01452
 C1509 C 0.62676 0.50821 0.98654
 C1510 C 0.62779 0.53760 0.98210
 C1511 C 0.62810 0.48933 0.96344
 C1512 C 0.62710 0.45977 0.96788
 C1513 C 0.62468 0.44945 0.99589
 C1514 C 0.62333 0.46812 1.01893
 H1515 H 0.62130 0.50791 1.05897
 H1516 H 0.62957 0.54618 0.96080
 H1517 H 0.62986 0.49772 0.94205
 H1518 H 0.62146 0.45950 1.04021
 H1519 H 0.62757 0.57887 1.00065
 H1520 H 0.62375 0.42683 1.00010
 C1521 C 0.37677 1.05089 0.49435
 C1522 C 0.37520 1.04217 0.46566
 C1523 C 0.37302 1.01277 0.45981
 C1524 C 0.37240 0.99275 0.48209
 C1525 C 0.37401 1.00206 0.51058
 C1526 C 0.37620 1.03112 0.51643
 C1527 C 0.37344 0.98222 0.53285
 C1528 C 0.37123 0.95292 0.52725
 C1529 C 0.36962 0.94383 0.49878
 C1530 C 0.37021 0.96353 0.47645
 H1531 H 0.37182 1.00537 0.43803
 H1532 H 0.37748 1.03863 0.53816
 H1533 H 0.37473 0.98971 0.55460
 H1534 H 0.36898 0.95590 0.45476
 H1535 H 0.37852 1.07315 0.49998
 H1536 H 0.36800 0.92144 0.49370
 C1537 C -0.00189 0.62063 0.44559
 C1538 C -0.03045 0.62075 0.45458
 C1539 C -0.03655 0.61924 0.48373
 C1540 C -0.01452 0.61821 0.50365
 C1541 C 0.01410 0.61858 0.49443
 C1542 C 0.02016 0.61956 0.46533
 C1543 C 0.03613 0.61835 0.51447
 C1544 C 0.02986 0.61800 0.54365
 C1545 C 0.00126 0.61706 0.55247
 C1546 C -0.02068 0.61714 0.53268
 H1547 H -0.05842 0.61909 0.49099
 H1548 H 0.04194 0.61977 0.45785
 H1549 H 0.05803 0.61899 0.50736
 H1550 H -0.04248 0.61667 0.54011
 H1551 H 0.00350 0.62165 0.42324
 H1552 H -0.00428 0.61644 0.57481
 C1553 C 0.49976 0.37288 1.05300
 C1554 C 0.47173 0.37522 1.04271
 C1555 C 0.46742 0.37818 1.01333
 C1556 C 0.49061 0.37857 0.99455
 C1557 C 0.51863 0.37602 1.00510
 C1558 C 0.52293 0.37328 1.03441
 C1559 C 0.54181 0.37618 0.98616
 C1560 C 0.53726 0.37883 0.95675
 C1561 C 0.50916 0.38152 0.94669
 C1562 C 0.48617 0.38138 0.96534
 H1563 H 0.44604 0.38007 1.00500
 H1564 H 0.54420 0.37136 1.04297
 H1565 H 0.56324 0.37420 0.99430
 H1566 H 0.46487 0.38342 0.95686
 H1567 H 0.50388 0.37067 1.07552
 H1568 H 0.50477 0.38372 0.92422
 C1569 C 0.49178 -0.05633 0.60669
 C1570 C 0.46375 -0.04742 0.61181
 C1571 C 0.45864 -0.01901 0.61942
 C1572 C 0.48125 -0.00003 0.62303
 C1573 C 0.50941 -0.00935 0.61850
 C1574 C 0.51443 -0.03740 0.60989
 C1575 C 0.53207 0.00948 0.62288
 C1576 C 0.52695 0.03756 0.63166
 C1577 C 0.49882 0.04663 0.63589
 C1578 C 0.47617 0.02798 0.63166
 H1579 H 0.43715 -0.01187 0.62359
 H1580 H 0.53588 -0.04483 0.60614
 H1581 H 0.55363 0.00231 0.61915
 H1582 H 0.45470 0.03544 0.63522
 H1583 H 0.49627 -0.07808 0.60068
 H1584 H 0.49428 0.06820 0.64250
 C1585 C -0.04957 0.50642 0.37083
 C1586 C -0.03996 0.53478 0.37131
 C1587 C -0.01053 0.54012 0.37230
 C1588 C 0.00893 0.51755 0.37275
 C1589 C -0.00102 0.48920 0.37217
 C1590 C -0.03030 0.48388 0.37123
 C1591 C 0.01845 0.46663 0.37254
 C1592 C 0.04788 0.47197 0.37350
 C1593 C 0.05747 0.50034 0.37418
 C1594 C 0.03821 0.52287 0.37380
 H1595 H -0.00271 0.56180 0.37282
 H1596 H -0.03833 0.46228 0.37081
 H1597 H 0.01062 0.44495 0.37208
 H1598 H 0.04623 0.54448 0.37432
 H1599 H -0.07205 0.50157 0.37011
 H1600 H 0.07995 0.50520 0.37500
 C1601 C -0.04943 1.00999 0.88035
 C1602 C -0.03913 1.03817 0.87879
 C1603 C -0.00947 1.04257 0.87797
 C1604 C 0.00933 1.01940 0.87836
 C1605 C -0.00146 0.99138 0.87961
 C1606 C -0.03083 0.98694 0.88074
 C1607 C 0.01728 0.96821 0.87960
 C1608 C 0.04683 0.97259 0.87834
 C1609 C 0.05732 1.00064 0.87741
 C1610 C 0.03877 1.02378 0.87740
 H1611 H -0.00087 1.06395 0.87691
 H1612 H -0.03948 0.96559 0.88181
 H1613 H 0.00878 0.94679 0.88050
 H1614 H 0.04747 1.04511 0.87651
 H1615 H -0.07201 1.00554 0.88117
 H1616 H 0.07994 1.00477 0.87651
 C1617 C 0.79917 0.63494 0.25526
 C1618 C 0.79059 0.62983 0.28352
 C1619 C 0.76183 0.62356 0.28900
 C1620 C 0.74215 0.62195 0.26647
 C1621 C 0.75133 0.62681 0.23826
 C1622 C 0.77980 0.63345 0.23295
 C1623 C 0.73192 0.62518 0.21572
 C1624 C 0.70313 0.61899 0.22079
 C1625 C 0.69413 0.61416 0.24893
 C1626 C 0.71346 0.61551 0.27153
 H1627 H 0.75486 0.61954 0.31059
 H1628 H 0.78717 0.63743 0.21148
 H1629 H 0.73924 0.62929 0.19425
 H1630 H 0.70593 0.61171 0.29296
 H1631 H 0.82104 0.64007 0.25025
 H1632 H 0.67208 0.60946 0.25355
 C1633 C 0.30271 0.88993 0.74414
 C1634 C 0.29267 0.88176 0.71715
 C1635 C 0.26426 0.87312 0.71434
 C1636 C 0.24626 0.87224 0.73809
 C1637 C 0.25649 0.88046 0.76516
 C1638 C 0.28478 0.88941 0.76787
 C1639 C 0.23821 0.87970 0.78889
 C1640 C 0.20978 0.87106 0.78568
 C1641 C 0.20020 0.86244 0.75864
 C1642 C 0.21819 0.86303 0.73517
 H1643 H 0.25630 0.86639 0.69379
 H1644 H 0.29309 0.89582 0.78836
 H1645 H 0.24586 0.88642 0.80955
 H1646 H 0.21006 0.85642 0.71466
 H1647 H 0.32456 0.89661 0.74697
 H1648 H 0.17853 0.85532 0.75549
 C1649 C 0.25023 0.37411 0.30198
 C1650 C 0.22188 0.37597 0.29270
 C1651 C 0.21626 0.37700 0.26336
 C1652 C 0.23856 0.37605 0.24361
 C1653 C 0.26691 0.37405 0.25324
 C1654 C 0.27251 0.37316 0.28244
 C1655 C 0.28920 0.37294 0.23352
 C1656 C 0.28362 0.37384 0.20418
 C1657 C 0.25530 0.37589 0.19485
 C1658 C 0.23299 0.37697 0.21439
 H1659 H 0.19456 0.37841 0.25581
 H1660 H 0.29413 0.37163 0.29018
 H1661 H 0.31088 0.37142 0.24111
 H1662 H 0.21138 0.37847 0.20663
 H1663 H 0.25527 0.37322 0.32441
 H1664 H 0.25032 0.37656 0.17240
 C1665 C 0.89387 0.74424 0.29307
 C1666 C 0.88224 0.71771 0.28551
 C1667 C 0.86888 0.71463 0.25905
 C1668 C 0.86652 0.73801 0.24067
 C1669 C 0.87800 0.76468 0.24868
 C1670 C 0.89186 0.76747 0.27481
 C1671 C 0.87569 0.78805 0.23034
 C1672 C 0.86249 0.78500 0.20382
 C1673 C 0.85082 0.75850 0.19619
 C1674 C 0.85270 0.73526 0.21450
 H1675 H 0.85953 0.69437 0.25318
 H1676 H 0.90089 0.78767 0.28126
 H1677 H 0.88501 0.80830 0.23626
 H1678 H 0.84363 0.71507 0.20804
 H1679 H 0.90431 0.74714 0.31338
 H1680 H 0.84044 0.75567 0.17585
 C1681 C 0.62602 0.30677 0.75060
 C1682 C 0.62458 0.29869 0.77934
 C1683 C 0.62284 0.26968 0.78623
 C1684 C 0.62287 0.24901 0.76498
 C1685 C 0.62449 0.25718 0.73615
 C1686 C 0.62596 0.28615 0.72915
 C1687 C 0.62472 0.23620 0.71493
 C1688 C 0.62336 0.20722 0.72234
 C1689 C 0.62173 0.19956 0.75120
 C1690 C 0.62148 0.22024 0.77229
 H1691 H 0.62169 0.26297 0.80825
 H1692 H 0.62721 0.29285 0.70715
 H1693 H 0.62598 0.24245 0.69280
 H1694 H 0.62025 0.21370 0.79434
 H1695 H 0.62742 0.32898 0.74468
 H1696 H 0.62066 0.17748 0.75763
 C1697 C 0.81010 0.25457 0.87448
 C1698 C 0.80076 0.22612 0.87379
 C1699 C 0.77136 0.22060 0.87235
 C1700 C 0.75169 0.24300 0.87161
 C1701 C 0.76135 0.27144 0.87235
 C1702 C 0.79061 0.27697 0.87379
 C1703 C 0.74160 0.29384 0.87168
 C1704 C 0.71221 0.28820 0.87029
 C1705 C 0.70298 0.25972 0.86945
 C1706 C 0.72249 0.23739 0.87010
 H1707 H 0.76369 0.19887 0.87171
 H1708 H 0.79844 0.29864 0.87436
 H1709 H 0.74917 0.31561 0.87233
 H1710 H 0.71469 0.21571 0.86946
 H1711 H 0.83253 0.25957 0.87553
 H1712 H 0.68057 0.25458 0.86833
 C1713 C 0.24956 0.79952 0.63270
 C1714 C 0.27764 0.78967 0.62967
 C1715 C 0.28226 0.76029 0.62632
 C1716 C 0.25923 0.74118 0.62571
 C1717 C 0.23118 0.75146 0.62854
 C1718 C 0.22662 0.78064 0.63216
 C1719 C 0.20815 0.73240 0.62784
 C1720 C 0.21273 0.70303 0.62457
 C1721 C 0.24077 0.69308 0.62179
 C1722 C 0.26376 0.71195 0.62226
 H1723 H 0.30369 0.75228 0.62391
 H1724 H 0.20528 0.78891 0.63448
 H1725 H 0.18673 0.74044 0.63030
 H1726 H 0.28510 0.70364 0.62006
 H1727 H 0.24521 0.82195 0.63539
 H1728 H 0.24501 0.67060 0.61927
   
