data_POSCAR
  _audit_creation_date              2014-09-24
  _audit_creation_method            'ToBaCCo'
  _symmetry_space_group_name_H-M    'P1'
  _symmetry_Int_Tables_number       1
  _symmetry_cell_setting            triclinic
  loop_
  _symmetry_equiv_pos_as_xyz
 x,y,z
_cell_length_a 48.0823
_cell_length_b 47.6955
_cell_length_c 47.6159
_cell_angle_alpha 89.999800
_cell_angle_beta 90.079800
_cell_angle_gamma 89.965100
loop_
  _atom_site_label
  _atom_site_type_symbol
  _atom_site_fract_x
  _atom_site_fract_y
  _atom_site_fract_z
O1 O 0.26349 1.03754 0.03177
 O2 O 0.28092 0.98707 -0.02407
 O3 O 0.26413 1.03889 -0.02233
 O4 O 0.28085 0.98583 0.03090
 O5 O 0.23722 0.97130 0.03030
 O6 O 0.22086 1.02347 -0.02409
 O7 O 0.23784 0.97128 -0.02298
 O8 O 0.21998 1.02269 0.03136
 Cu9 Cu 0.27675 1.01378 0.00412
 Cu10 Cu 0.22443 0.99601 0.00345
 C11 C 0.23878 1.03864 0.04109
 C12 C 0.26242 0.97002 -0.03263
 C13 C 0.23973 1.04016 -0.03239
 C14 C 0.26192 0.96941 0.03955
 O15 O 0.76496 0.53273 0.52026
 O16 O 0.76651 0.47593 0.46745
 O17 O 0.76553 0.47823 0.52193
 O18 O 0.76436 0.53103 0.46530
 O19 O 0.81023 0.53278 0.46598
 O20 O 0.81139 0.48017 0.52273
 O21 O 0.81238 0.47799 0.46726
 O22 O 0.81089 0.53459 0.51953
 Cu23 Cu 0.76075 0.50431 0.49360
 Cu24 Cu 0.81585 0.50616 0.49380
 C25 C 0.78772 0.54350 0.52857
 C26 C 0.78983 0.46734 0.45835
 C27 C 0.78864 0.47045 0.53225
 C28 C 0.78706 0.54139 0.45643
 O29 O 0.76213 0.97863 1.02405
 O30 O 0.76380 1.03262 0.96848
 O31 O 0.76212 0.97781 0.96902
 O32 O 0.76455 1.03307 1.02326
 O33 O 0.81035 1.03298 1.02147
 O34 O 0.80790 0.97472 0.97089
 O35 O 0.80961 1.03010 0.96758
 O36 O 0.80792 0.97896 1.02562
 Cu37 Cu 0.75857 1.00564 0.99609
 Cu38 Cu 0.81353 1.00382 0.99613
 C39 C 0.78476 0.97003 1.03492
 C40 C 0.78702 1.04084 0.95878
 C41 C 0.78469 0.96639 0.96125
 C42 C 0.78786 1.04280 1.03141
 O43 O 0.22566 0.47414 0.53223
 O44 O 0.21130 0.52550 0.47654
 O45 O 0.22715 0.47369 0.47813
 O46 O 0.21108 0.52684 0.53178
 O47 O 0.25503 0.54027 0.53165
 O48 O 0.27113 0.48710 0.47828
 O49 O 0.25531 0.53872 0.47760
 O50 O 0.26958 0.48766 0.53347
 Cu51 Cu 0.21429 0.49884 0.50472
 Cu52 Cu 0.26725 0.51464 0.50543
 C53 C 0.25002 0.47209 0.54228
 C54 C 0.23100 0.54063 0.46733
 C55 C 0.25181 0.47158 0.46885
 C56 C 0.23037 0.54271 0.54077
 O57 O 1.01984 0.20557 0.02544
 O58 O 0.96077 0.20047 -0.02342
 O59 O 1.01481 0.19944 -0.02861
 O60 O 0.96535 0.20842 0.03049
 O61 O 0.96391 0.25376 0.02132
 O62 O 1.01832 0.24546 -0.03171
 O63 O 0.96461 0.24554 -0.03281
 O64 O 1.01852 0.25177 0.02252
 Cu65 Cu 0.99009 0.19888 0.00174
 Cu66 Cu 0.99139 0.25375 -0.00558
 C67 C 1.02913 0.22945 0.03248
 C68 C 0.95306 0.22192 -0.03722
 C69 C 1.02541 0.22116 -0.03984
 C70 C 0.95542 0.23271 0.03514
 O71 O 0.52075 0.79141 0.53279
 O72 O 0.46422 0.78811 0.48196
 O73 O 0.46984 0.78082 0.53356
 O74 O 0.51959 0.79370 0.47594
 O75 O 0.52712 0.74823 0.47239
 O76 O 0.47676 0.73529 0.52868
 O77 O 0.47284 0.74322 0.47443
 O78 O 0.52933 0.74626 0.52704
 Cu79 Cu 0.49388 0.79310 0.50548
 Cu80 Cu 0.50228 0.73869 0.49994
 C81 C 0.53401 0.76940 0.53947
 C82 C 0.45843 0.76518 0.46988
 C83 C 0.46499 0.75567 0.54103
 C84 C 0.53199 0.77310 0.46449
 O85 O 0.02874 0.74280 -0.02344
 O86 O -0.02576 0.72895 0.02852
 O87 O -0.02369 0.73062 -0.02618
 O88 O 0.02625 0.74250 0.03087
 O89 O 0.01548 0.78744 0.03163
 O90 O -0.03478 0.77546 -0.02554
 O91 O -0.03717 0.77382 0.02856
 O92 O 0.01770 0.78764 -0.02378
 Cu93 Cu 0.00247 0.73173 0.00243
 Cu94 Cu -0.01063 0.78568 0.00285
 C95 C 0.03242 0.76741 -0.03289
 C96 C -0.04082 0.74894 0.03736
 C97 C -0.03786 0.75103 -0.03572
 C98 C 0.02939 0.76687 0.04112
 O99 O 0.51767 0.18563 0.47312
 O100 O 0.46305 0.18762 0.52688
 O101 O 0.46295 0.18686 0.47279
 O102 O 0.51769 0.18797 0.52709
 O103 O 0.51792 0.23424 0.52613
 O104 O 0.46365 0.23310 0.47113
 O105 O 0.46355 0.23390 0.52605
 O106 O 0.51820 0.23188 0.47148
 Cu107 Cu 0.49027 0.18243 0.50007
 Cu108 Cu 0.49081 0.23791 0.49852
 C109 C 0.52770 0.20829 0.46351
 C110 C 0.45373 0.21100 0.53546
 C111 C 0.45368 0.20981 0.46296
 C112 C 0.52746 0.21125 0.53558
 O113 O 1.03533 0.01646 0.25812
 O114 O 0.98241 -0.03772 0.27089
 O115 O 1.03517 -0.03793 0.25683
 O116 O 0.98342 0.01699 0.27171
 O117 O 0.97143 0.01776 0.22693
 O118 O 1.02252 -0.03817 0.21221
 O119 O 0.97060 -0.03676 0.22618
 O120 O 1.02454 0.01666 0.21304
 Cu121 Cu 1.01022 -0.01075 0.26887
 Cu122 Cu 0.99614 -0.00991 0.21507
 C123 C 1.03907 0.02576 0.23343
 C124 C 0.96730 -0.04652 0.25080
 C125 C 1.03757 -0.04750 0.23206
 C126 C 0.96867 0.02683 0.25188
 O127 O 0.51932 0.53252 0.71473
 O128 O 0.46591 0.47897 0.72918
 O129 O 0.46676 0.53318 0.72744
 O130 O 0.51783 0.47726 0.71462
 O131 O 0.53017 0.47819 0.75930
 O132 O 0.47851 0.53381 0.77228
 O133 O 0.47831 0.47876 0.77386
 O134 O 0.53089 0.53236 0.75961
 Cu135 Cu 0.49140 0.50546 0.71693
 Cu136 Cu 0.50554 0.50584 0.77079
 C137 C 0.53410 0.54170 0.73490
 C138 C 0.46328 0.46954 0.75398
 C139 C 0.46394 0.54311 0.75199
 C140 C 0.53252 0.46800 0.73477
 O141 O 0.96575 1.03149 0.74115
 O142 O 1.02052 0.97906 0.73049
 O143 O 0.96812 0.97770 0.74192
 O144 O 1.01877 1.03418 0.73060
 O145 O 1.02905 1.03384 0.77582
 O146 O 0.97735 0.97821 0.78736
 O147 O 1.02998 0.97952 0.77588
 O148 O 0.97582 1.03332 0.78628
 Cu149 Cu 0.99252 1.00565 0.73143
 Cu150 Cu 1.00394 1.00638 0.78593
 C151 C 0.96129 1.04147 0.76545
 C152 C 1.03422 0.96989 0.75138
 C153 C 0.96412 0.96826 0.76651
 C154 C 1.03259 1.04361 0.75130
 O155 O 0.47245 0.51796 0.23820
 O156 O 0.52299 0.46124 0.22663
 O157 O 0.47059 0.46386 0.23979
 O158 O 0.52511 0.51590 0.22494
 O159 O 0.53483 0.51866 0.27022
 O160 O 0.48335 0.46312 0.28437
 O161 O 0.53611 0.46412 0.27100
 O162 O 0.48302 0.51842 0.28337
 Cu163 Cu 0.49671 0.48964 0.22786
 Cu164 Cu 0.51037 0.49102 0.28182
 C165 C 0.46912 0.52784 0.26273
 C166 C 0.53840 0.45321 0.24677
 C167 C 0.46794 0.45432 0.26452
 C168 C 0.53884 0.52657 0.24509
 O169 O 0.23654 0.19108 0.20403
 O170 O 0.27033 0.17889 0.23799
 O171 O 0.16757 0.21491 0.25828
 O172 O 0.15590 0.24857 0.28690
 O173 O 0.19172 0.26379 0.18416
 O174 O 0.22647 0.29961 0.17819
 O175 O 0.24219 0.28400 0.33082
 O176 O 0.21420 0.24460 0.33576
 O177 O 0.31209 0.25832 0.28513
 O178 O 0.31859 0.23231 0.24058
 O179 O 0.27135 0.33144 0.25962
 O180 O 0.22967 0.34309 0.23733
 O181 O 0.23977 0.32253 0.30274
 O182 O 0.20127 0.33395 0.26714
 O183 O 0.30649 0.30018 0.25338
 O184 O 0.31333 0.26524 0.21475
 O185 O 0.28259 0.24957 0.32137
 O186 O 0.24655 0.21377 0.32772
 O187 O 0.23459 0.22945 0.17571
 O188 O 0.25968 0.27233 0.17099
 O189 O 0.16164 0.25885 0.22067
 O190 O 0.15883 0.28667 0.26562
 O191 O 0.20118 0.18339 0.24649
 O192 O 0.24343 0.17350 0.27234
 Zr193 Zr 0.23774 0.20784 0.24484
 O194 O 0.26558 0.22916 0.27158
 Zr195 Zr 0.18733 0.25407 0.25640
 O196 O 0.21263 0.27665 0.28456
 Zr197 Zr 0.23112 0.26348 0.20352
 O198 O 0.25790 0.28756 0.22890
 Zr199 Zr 0.24285 0.25035 0.30260
 O200 O 0.21502 0.22685 0.27749
 Zr201 Zr 0.28627 0.26112 0.24955
 O202 O 0.26128 0.23716 0.22176
 Zr203 Zr 0.23546 0.30648 0.26169
 O204 O 0.20798 0.28562 0.23375
 O205 O 0.20856 0.23299 0.22481
 O206 O 0.26511 0.28161 0.28173
 C207 C 0.23634 0.20289 0.17979
 C208 C 0.17614 0.18987 0.25343
 C209 C 0.16706 0.26228 0.19444
 C210 C 0.24116 0.31060 0.32691
 C211 C 0.30700 0.25357 0.31117
 C212 C 0.29714 0.32523 0.25650
 H213 H 0.27887 0.21564 0.27978
 H214 H 0.26730 0.30160 0.21696
 H215 H 0.19621 0.22174 0.21255
 H216 H 0.20081 0.28530 0.29916
 H217 H 0.19947 0.23196 0.32862
 H218 H 0.16460 0.25219 0.30538
 H219 H 0.30842 0.28277 0.20480
 H220 H 0.27609 0.26024 0.17433
 H221 H 0.26189 0.20216 0.32024
 H222 H 0.23128 0.17692 0.28876
 H223 H 0.23772 0.33928 0.21861
 H224 H 0.21232 0.31156 0.18742
 H225 H 0.28451 0.18888 0.22675
 H226 H 0.31697 0.21644 0.25384
 H227 H 0.16076 0.30097 0.25068
 H228 H 0.19222 0.32931 0.28519
 O229 O 0.74095 0.83029 0.20924
 O230 O 0.71704 0.83761 0.25371
 O231 O 0.81355 0.78568 0.23196
 O232 O 0.82373 0.74679 0.25688
 O233 O 0.76355 0.75868 0.16403
 O234 O 0.72139 0.73094 0.16117
 O235 O 0.74763 0.70912 0.31066
 O236 O 0.78349 0.74427 0.31494
 O237 O 0.67496 0.75906 0.29392
 O238 O 0.66268 0.79318 0.25866
 O239 O 0.69266 0.68686 0.24369
 O240 O 0.72567 0.67706 0.20584
 O241 O 0.73400 0.67966 0.27571
 O242 O 0.75934 0.67150 0.23031
 O243 O 0.66450 0.72314 0.25596
 O244 O 0.65502 0.76663 0.22653
 O245 O 0.71276 0.74777 0.32034
 O246 O 0.74997 0.77664 0.32641
 O247 O 0.72854 0.80006 0.17436
 O248 O 0.69399 0.76456 0.16895
 O249 O 0.80160 0.74994 0.19117
 O250 O 0.81171 0.71441 0.22666
 O251 O 0.78474 0.82262 0.24059
 O252 O 0.75203 0.83261 0.27878
 Zr253 Zr 0.74503 0.80451 0.24511
 O254 O 0.72155 0.78076 0.27391
 Zr255 Zr 0.78697 0.75064 0.23274
 O256 O 0.76529 0.72453 0.26089
 Zr257 Zr 0.73061 0.76023 0.19318
 O258 O 0.70639 0.73466 0.21960
 Zr259 Zr 0.74613 0.74905 0.29187
 O260 O 0.77087 0.77525 0.26584
 Zr261 Zr 0.69001 0.75895 0.25250
 O262 O 0.71148 0.78534 0.22402
 Zr263 Zr 0.73212 0.70515 0.23963
 O264 O 0.75592 0.72866 0.21059
 O265 O 0.76288 0.78107 0.21321
 O266 O 0.71378 0.72797 0.27194
 C267 C 0.73395 0.82470 0.18375
 C268 C 0.80871 0.81196 0.23534
 C269 C 0.78972 0.75405 0.16733
 C270 C 0.74107 0.68475 0.30124
 C271 C 0.68670 0.75303 0.31738
 C272 C 0.66908 0.69702 0.25115
 H273 H 0.71404 0.79332 0.28860
 H274 H 0.69162 0.72557 0.20840
 H275 H 0.77377 0.79281 0.20010
 H276 H 0.77829 0.71080 0.26927
 H277 H 0.79592 0.75985 0.30935
 H278 H 0.81885 0.73622 0.27404
 H279 H 0.65293 0.75056 0.21357
 H280 H 0.68156 0.77721 0.17961
 H281 H 0.75877 0.79384 0.31912
 H282 H 0.76953 0.82682 0.28810
 H283 H 0.71021 0.68454 0.19434
 H284 H 0.73461 0.71519 0.16350
 H285 H 0.70048 0.83447 0.24174
 H286 H 0.67215 0.80662 0.27126
 H287 H 0.80170 0.70240 0.21304
 H288 H 0.77447 0.67156 0.24440
 O289 O 0.74076 0.18042 0.78179
 O290 O 0.70792 0.17468 0.74558
 O291 O 0.81412 0.20587 0.73726
 O292 O 0.82539 0.23896 0.70639
 O293 O 0.79067 0.24917 0.81139
 O294 O 0.75629 0.28353 0.82203
 O295 O 0.74080 0.28939 0.66844
 O296 O 0.76987 0.25085 0.65818
 O297 O 0.67195 0.26130 0.70923
 O298 O 0.66308 0.23157 0.75042
 O299 O 0.71716 0.32866 0.74340
 O300 O 0.75954 0.33400 0.76888
 O301 O 0.75044 0.32325 0.70065
 O302 O 0.78711 0.32784 0.73825
 O303 O 0.67995 0.29934 0.74550
 O304 O 0.67015 0.26086 0.77997
 O305 O 0.70149 0.25400 0.67268
 O306 O 0.73681 0.21910 0.66200
 O307 O 0.74893 0.21382 0.81497
 O308 O 0.72184 0.25606 0.82414
 O309 O 0.82112 0.24733 0.77486
 O310 O 0.82741 0.27636 0.73298
 O311 O 0.77728 0.17588 0.73916
 O312 O 0.73505 0.17206 0.71169
 Zr313 Zr 0.74229 0.20220 0.74345
 O314 O 0.71646 0.22859 0.71944
 Zr315 Zr 0.79589 0.24585 0.73858
 O316 O 0.77270 0.27360 0.71317
 Zr317 Zr 0.75154 0.25145 0.79177
 O318 O 0.72709 0.28047 0.76925
 Zr319 Zr 0.74105 0.25202 0.69167
 O320 O 0.76690 0.22352 0.71378
 Zr321 Zr 0.69743 0.25881 0.74515
 O322 O 0.72018 0.22974 0.76990
 Zr323 Zr 0.75149 0.30178 0.73943
 O324 O 0.77675 0.27558 0.76480
 O325 O 0.77255 0.22267 0.76697
 O326 O 0.72051 0.28176 0.71617
 C327 C 0.74407 0.18842 0.80732
 C328 C 0.80341 0.18122 0.73721
 C329 C 0.81536 0.24866 0.80119
 C330 C 0.74545 0.31496 0.67546
 C331 C 0.67715 0.25813 0.68297
 C332 C 0.69098 0.32387 0.74526
 H333 H 0.70259 0.21695 0.70952
 H334 H 0.71834 0.29356 0.78268
 H335 H 0.78413 0.20974 0.77829
 H336 H 0.78515 0.28329 0.69982
 H337 H 0.78386 0.23640 0.66304
 H338 H 0.81919 0.24977 0.68980
 H339 H 0.67652 0.27625 0.79233
 H340 H 0.70605 0.24364 0.81929
 H341 H 0.72150 0.20674 0.66820
 H342 H 0.74838 0.17609 0.69638
 H343 H 0.74830 0.32999 0.78579
 H344 H 0.76996 0.29695 0.81423
 H345 H 0.69407 0.18383 0.75792
 H346 H 0.66432 0.21683 0.73588
 H347 H 0.82491 0.29063 0.74786
 H348 H 0.79730 0.32381 0.72066
 O349 O 0.25782 0.81817 0.80856
 O350 O 0.28751 0.83155 0.77057
 O351 O 0.18128 0.80158 0.76265
 O352 O 0.16542 0.77116 0.73163
 O353 O 0.21159 0.74155 0.82725
 O354 O 0.24893 0.70883 0.82823
 O355 O 0.24689 0.73325 0.67633
 O356 O 0.21534 0.77244 0.67756
 O357 O 0.31902 0.75583 0.71387
 O358 O 0.33126 0.77858 0.76023
 O359 O 0.27939 0.68230 0.73700
 O360 O 0.23980 0.67100 0.76897
 O361 O 0.24077 0.69385 0.70245
 O362 O 0.20999 0.67988 0.74093
 O363 O 0.31614 0.71118 0.74517
 O364 O 0.33021 0.74245 0.78163
 O365 O 0.28519 0.76917 0.68320
 O366 O 0.24918 0.80327 0.68236
 O367 O 0.25170 0.77878 0.83484
 O368 O 0.28143 0.73758 0.83332
 O369 O 0.17793 0.75615 0.79691
 O370 O 0.16764 0.73109 0.75236
 O371 O 0.21779 0.83029 0.77261
 O372 O 0.25602 0.84098 0.74173
 Zr373 Zr 0.25283 0.80457 0.76686
 O374 O 0.27568 0.78431 0.73522
 Zr375 Zr 0.19915 0.76151 0.75852
 O376 O 0.21965 0.73942 0.72626
 Zr377 Zr 0.24884 0.74648 0.80481
 O378 O 0.27148 0.72355 0.77478
 Zr379 Zr 0.24834 0.76574 0.70622
 O380 O 0.22530 0.78899 0.73604
 Zr381 Zr 0.29797 0.75058 0.75246
 O382 O 0.27773 0.77305 0.78499
 Zr383 Zr 0.24422 0.70759 0.74418
 O384 O 0.22113 0.72763 0.77627
 O385 O 0.22516 0.77909 0.78849
 O386 O 0.27212 0.73279 0.72216
 C387 C 0.25554 0.80532 0.83215
 C388 C 0.19175 0.82559 0.76891
 C389 C 0.18621 0.74714 0.82096
 C390 C 0.24338 0.70666 0.67891
 C391 C 0.31060 0.76417 0.68961
 C392 C 0.30557 0.68720 0.73914
 H393 H 0.28811 0.79818 0.72631
 H394 H 0.28191 0.70851 0.78443
 H395 H 0.21450 0.78947 0.80291
 H396 H 0.20595 0.73194 0.71269
 H397 H 0.20234 0.78572 0.68668
 H398 H 0.17028 0.76427 0.71268
 H399 H 0.32301 0.72868 0.79533
 H400 H 0.29610 0.75175 0.82998
 H401 H 0.26318 0.81586 0.69084
 H402 H 0.24118 0.83968 0.72735
 H403 H 0.25626 0.66958 0.78138
 H404 H 0.23581 0.69600 0.81866
 H405 H 0.30203 0.82089 0.78076
 H406 H 0.32957 0.79442 0.74693
 H407 H 0.17189 0.71519 0.76502
 H408 H 0.19601 0.68873 0.72851
 O409 O 0.24005 0.32025 0.70449
 O410 O 0.20620 0.33010 0.74029
 O411 O 0.31345 0.30500 0.75335
 O412 O 0.32803 0.27473 0.78575
 O413 O 0.29008 0.24853 0.68518
 O414 O 0.25614 0.21177 0.68171
 O415 O 0.24869 0.23140 0.83417
 O416 O 0.27559 0.27301 0.83560
 O417 O 0.17531 0.25015 0.79256
 O418 O 0.16448 0.27507 0.74707
 O419 O 0.21970 0.18029 0.76838
 O420 O 0.26172 0.17194 0.74028
 O421 O 0.25311 0.19257 0.80678
 O422 O 0.28957 0.18218 0.77031
 O423 O 0.18219 0.20808 0.75999
 O424 O 0.16923 0.24088 0.72315
 O425 O 0.20651 0.26328 0.82605
 O426 O 0.23955 0.30064 0.83018
 O427 O 0.24535 0.28156 0.67696
 O428 O 0.22157 0.23752 0.67506
 O429 O 0.32100 0.26127 0.71911
 O430 O 0.32963 0.23510 0.76309
 O431 O 0.27604 0.33256 0.74349
 O432 O 0.23536 0.34016 0.77196
 Zr433 Zr 0.24206 0.30501 0.74577
 O434 O 0.21827 0.28251 0.77510
 Zr435 Zr 0.29707 0.26419 0.75594
 O436 O 0.27572 0.23992 0.78595
 Zr437 Zr 0.25127 0.24863 0.70589
 O438 O 0.22789 0.22357 0.73357
 Zr439 Zr 0.24478 0.26427 0.80508
 O440 O 0.26841 0.28965 0.77764
 Zr441 Zr 0.19885 0.24846 0.75517
 O442 O 0.22000 0.27304 0.72490
 Zr443 Zr 0.25385 0.20771 0.76536
 O444 O 0.27795 0.23004 0.73559
 O445 O 0.27209 0.28167 0.72495
 O446 O 0.22366 0.23087 0.78645
 C447 C 0.24153 0.30801 0.68052
 C448 C 0.30217 0.32879 0.74763
 C449 C 0.31479 0.25442 0.69377
 C450 C 0.25118 0.20483 0.83071
 C451 C 0.18187 0.25699 0.81784
 C452 C 0.19345 0.18425 0.76528
 H453 H 0.20454 0.29524 0.78378
 H454 H 0.21882 0.20845 0.72271
 H455 H 0.28278 0.29317 0.71144
 H456 H 0.28894 0.23257 0.80005
 H457 H 0.28803 0.28740 0.82743
 H458 H 0.32255 0.26626 0.80387
 H459 H 0.17657 0.22569 0.71112
 H460 H 0.20490 0.24916 0.67869
 H461 H 0.22475 0.31227 0.82166
 H462 H 0.24888 0.33865 0.78759
 H463 H 0.24773 0.17166 0.72503
 H464 H 0.27049 0.20034 0.69129
 H465 H 0.19315 0.31904 0.72864
 H466 H 0.16467 0.29033 0.76114
 H467 H 0.32657 0.21916 0.75013
 H468 H 0.30067 0.18981 0.78605
 O469 O 0.75813 0.67484 0.72056
 O470 O 0.78847 0.67516 0.76088
 O471 O 0.68288 0.70821 0.74928
 O472 O 0.66824 0.74630 0.77228
 O473 O 0.71891 0.73832 0.67374
 O474 O 0.75491 0.77098 0.66330
 O475 O 0.74702 0.80098 0.81432
 O476 O 0.71591 0.76409 0.82571
 O477 O 0.82118 0.76363 0.78984
 O478 O 0.83546 0.73041 0.75579
 O479 O 0.78376 0.82728 0.73898
 O480 O 0.74536 0.82842 0.70599
 O481 O 0.74531 0.82952 0.77611
 O482 O 0.71406 0.82881 0.73369
 O483 O 0.81964 0.79766 0.74853
 O484 O 0.83263 0.75369 0.72039
 O485 O 0.78578 0.76824 0.82119
 O486 O 0.74952 0.73278 0.83240
 O487 O 0.76046 0.70341 0.68236
 O488 O 0.78864 0.74394 0.67057
 O489 O 0.68324 0.74283 0.70483
 O490 O 0.67137 0.77853 0.73977
 O491 O 0.71858 0.67833 0.75900
 O492 O 0.75705 0.67778 0.79118
 Zr493 Zr 0.75464 0.70282 0.75463
 O494 O 0.77731 0.73243 0.77805
 Zr495 Zr 0.70243 0.74734 0.74438
 O496 O 0.72237 0.77869 0.76828
 Zr497 Zr 0.75453 0.74405 0.69856
 O498 O 0.77631 0.77595 0.71973
 Zr499 Zr 0.74966 0.76045 0.79750
 O500 O 0.72665 0.72890 0.77647
 Zr501 Zr 0.80109 0.75772 0.75114
 O502 O 0.78146 0.72539 0.72796
 Zr503 Zr 0.74829 0.80195 0.74154
 O504 O 0.72624 0.77229 0.71710
 O505 O 0.72899 0.71982 0.72392
 O506 O 0.77468 0.78534 0.77203
 C507 C 0.76055 0.67907 0.69399
 C508 C 0.69266 0.68391 0.75557
 C509 C 0.69296 0.73950 0.67990
 C510 C 0.74576 0.82528 0.80278
 C511 C 0.81164 0.76803 0.81458
 C512 C 0.80962 0.82202 0.74296
 H513 H 0.78917 0.72246 0.79177
 H514 H 0.78750 0.78661 0.70600
 H515 H 0.71862 0.70539 0.71326
 H516 H 0.70844 0.79058 0.77783
 H517 H 0.70300 0.74852 0.82136
 H518 H 0.67244 0.75944 0.78777
 H519 H 0.83048 0.76922 0.70679
 H520 H 0.80345 0.73263 0.67955
 H521 H 0.76684 0.72159 0.83204
 H522 H 0.74334 0.68555 0.80458
 H523 H 0.75986 0.82247 0.69254
 H524 H 0.74049 0.78541 0.66673
 H525 H 0.80280 0.68031 0.74689
 H526 H 0.82964 0.71516 0.76856
 H527 H 0.67690 0.79043 0.72369
 H528 H 0.70123 0.82751 0.74985
 O529 O 0.24985 0.68019 0.29292
 O530 O 0.21471 0.67142 0.25797
 O531 O 0.32250 0.69456 0.24267
 O532 O 0.33499 0.72396 0.20802
 O533 O 0.30223 0.74980 0.31093
 O534 O 0.26913 0.78797 0.31581
 O535 O 0.25362 0.77163 0.16450
 O536 O 0.28224 0.73055 0.16077
 O537 O 0.18346 0.75101 0.20767
 O538 O 0.17404 0.72766 0.25366
 O539 O 0.23053 0.82160 0.23331
 O540 O 0.27554 0.82672 0.26000
 O541 O 0.26344 0.80925 0.19211
 O542 O 0.29868 0.81985 0.22582
 O543 O 0.19238 0.79396 0.23843
 O544 O 0.18040 0.76207 0.27706
 O545 O 0.21361 0.73842 0.17311
 O546 O 0.24689 0.70182 0.16705
 O547 O 0.25867 0.71846 0.32009
 O548 O 0.23449 0.76204 0.32358
 O549 O 0.33186 0.73740 0.27588
 O550 O 0.33996 0.76354 0.23270
 O551 O 0.28430 0.66725 0.24981
 O552 O 0.24146 0.66093 0.22559
 Zr553 Zr 0.25088 0.69574 0.25140
 O554 O 0.22674 0.71930 0.22312
 Zr555 Zr 0.30656 0.73550 0.23992
 O556 O 0.28467 0.76097 0.21124
 Zr557 Zr 0.26289 0.75144 0.29143
 O558 O 0.23883 0.77736 0.26516
 Zr559 Zr 0.25253 0.73774 0.19269
 O560 O 0.27641 0.71118 0.21887
 Zr561 Zr 0.20858 0.75342 0.24405
 O562 O 0.23033 0.72801 0.27330
 Zr563 Zr 0.26421 0.79327 0.23310
 O564 O 0.28908 0.76985 0.26137
 O565 O 0.28220 0.71805 0.27132
 O566 O 0.23273 0.77126 0.21251
 C567 C 0.25364 0.69225 0.31681
 C568 C 0.31054 0.67071 0.24607
 C569 C 0.32654 0.74350 0.30159
 C570 C 0.25838 0.79788 0.16822
 C571 C 0.18918 0.74401 0.18225
 C572 C 0.20414 0.81791 0.23533
 H573 H 0.21261 0.70681 0.21471
 H574 H 0.23049 0.79245 0.27662
 H575 H 0.29315 0.70596 0.28411
 H576 H 0.29742 0.76843 0.19680
 H577 H 0.29503 0.71590 0.16791
 H578 H 0.33076 0.73534 0.19118
 H579 H 0.18833 0.77744 0.28847
 H580 H 0.21734 0.75117 0.31984
 H581 H 0.23208 0.69020 0.17552
 H582 H 0.25351 0.66247 0.20881
 H583 H 0.26086 0.82861 0.27441
 H584 H 0.28463 0.79839 0.30699
 H585 H 0.20262 0.68237 0.27072
 H586 H 0.17426 0.71153 0.24060
 H587 H 0.33732 0.77970 0.24548
 H588 H 0.31205 0.80943 0.21399
 O589 O 0.76151 0.30571 0.30688
 O590 O 0.79647 0.31136 0.27183
 O591 O 0.68912 0.29077 0.25413
 O592 O 0.67556 0.25912 0.22271
 O593 O 0.70405 0.23764 0.32759
 O594 O 0.73642 0.20136 0.33756
 O595 O 0.75617 0.20602 0.18502
 O596 O 0.73103 0.24897 0.17746
 O597 O 0.82627 0.22480 0.23031
 O598 O 0.83504 0.25330 0.27440
 O599 O 0.77677 0.16070 0.25292
 O600 O 0.73319 0.15673 0.28269
 O601 O 0.74205 0.17122 0.21443
 O602 O 0.70693 0.16500 0.25080
 O603 O 0.81482 0.18655 0.26431
 O604 O 0.82650 0.22101 0.30043
 O605 O 0.79853 0.23598 0.19326
 O606 O 0.76848 0.27507 0.18327
 O607 O 0.74821 0.27084 0.33661
 O608 O 0.77164 0.22642 0.34399
 O609 O 0.67662 0.25051 0.29077
 O610 O 0.66937 0.22176 0.24841
 O611 O 0.72720 0.31702 0.26475
 O612 O 0.76980 0.31978 0.23801
 Zr613 Zr 0.75979 0.28750 0.26669
 O614 O 0.78426 0.26108 0.24132
 Zr615 Zr 0.70329 0.24912 0.25578
 O616 O 0.72515 0.22108 0.22971
 Zr617 Zr 0.74435 0.23539 0.31032
 O618 O 0.76807 0.20655 0.28676
 Zr619 Zr 0.75899 0.24163 0.21101
 O620 O 0.73498 0.27076 0.23424
 Zr621 Zr 0.79997 0.22791 0.26559
 O622 O 0.77829 0.25630 0.29185
 Zr623 Zr 0.74342 0.18950 0.25452
 O624 O 0.71872 0.21580 0.28030
 O625 O 0.72698 0.26781 0.28706
 O626 O 0.77641 0.20899 0.23412
 C627 C 0.75573 0.29623 0.33146
 C628 C 0.70118 0.31431 0.25906
 C629 C 0.68045 0.24444 0.31678
 C630 C 0.74852 0.18072 0.19010
 C631 C 0.82203 0.22885 0.20395
 C632 C 0.80299 0.16337 0.25763
 H633 H 0.79940 0.27208 0.23268
 H634 H 0.77554 0.19184 0.29929
 H635 H 0.71598 0.28087 0.29877
 H636 H 0.71234 0.21338 0.21540
 H637 H 0.71917 0.26499 0.18310
 H638 H 0.68170 0.24866 0.20590
 H639 H 0.81727 0.20733 0.31293
 H640 H 0.78866 0.23763 0.34076
 H641 H 0.78302 0.28675 0.19212
 H642 H 0.75722 0.31746 0.22170
 H643 H 0.74891 0.15422 0.29588
 H644 H 0.72428 0.18830 0.32704
 H645 H 0.80866 0.30049 0.28458
 H646 H 0.83744 0.26660 0.25865
 H647 H 0.66999 0.20715 0.26317
 H648 H 0.69524 0.17365 0.23603
 C649 C 0.24471 0.08503 0.06419
 C650 C 0.23918 0.10379 0.08614
 C651 C 0.22134 0.09562 0.10829
 C652 C 0.20837 0.06930 0.10739
 C653 C 0.21345 0.05103 0.08503
 C654 C 0.23202 0.05857 0.06362
 C655 C 0.21696 0.11378 0.13102
 C656 C 0.22974 0.14021 0.13158
 C657 C 0.24647 0.14886 0.10874
 C658 C 0.25131 0.13049 0.08632
 C659 C 0.25832 0.17570 0.10884
 C660 C 0.25420 0.19359 0.13165
 C661 C 0.23864 0.18473 0.15493
 C662 C 0.22624 0.15808 0.15471
 H663 H 0.25877 0.09104 0.04744
 H664 H 0.19446 0.06278 0.12404
 H665 H 0.20349 0.03066 0.08486
 H666 H 0.20374 0.10731 0.14829
 H667 H 0.26460 0.13693 0.06909
 H668 H 0.27099 0.18275 0.09142
 H669 H 0.26393 0.21407 0.13151
 H670 H 0.21389 0.15133 0.17251
 C671 C 0.77251 0.56567 0.57357
 C672 C 0.77348 0.58803 0.59279
 C673 C 0.78874 0.61250 0.58605
 C674 C 0.80345 0.61385 0.56070
 C675 C 0.80316 0.59116 0.54221
 C676 C 0.78752 0.56713 0.54836
 C677 C 0.78924 0.63515 0.60480
 C678 C 0.77532 0.63344 0.63059
 C679 C 0.76095 0.60861 0.63785
 C680 C 0.75981 0.58620 0.61876
 C681 C 0.74790 0.60668 0.66410
 C682 C 0.74865 0.62929 0.68278
 C683 C 0.76207 0.65437 0.67534
 C684 C 0.77552 0.65623 0.64923
 H685 H 0.76077 0.54690 0.57848
 H686 H 0.81539 0.63234 0.55530
 H687 H 0.81486 0.59250 0.52282
 H688 H 0.80060 0.65404 0.59940
 H689 H 0.74847 0.56731 0.62417
 H690 H 0.73693 0.58777 0.67011
 H691 H 0.73797 0.62747 0.70270
 H692 H 0.78610 0.67544 0.64343
 C693 C 0.75898 0.93909 0.06686
 C694 C 0.75858 0.91997 0.08935
 C695 C 0.78367 0.91282 0.10311
 C696 C 0.80876 0.92447 0.09383
 C697 C 0.80910 0.94303 0.07113
 C698 C 0.78426 0.95079 0.05740
 C699 C 0.78336 0.89389 0.12571
 C700 C 0.75835 0.88138 0.13425
 C701 C 0.73331 0.88806 0.12010
 C702 C 0.73352 0.90761 0.09804
 C703 C 0.70854 0.87457 0.12785
 C704 C 0.70868 0.85423 0.14900
 C705 C 0.73335 0.84778 0.16333
 C706 C 0.75808 0.86164 0.15617
 H707 H 0.73959 0.94454 0.05657
 H708 H 0.82821 0.91912 0.10405
 H709 H 0.82895 0.95153 0.06458
 H710 H 0.80263 0.88852 0.13631
 H711 H 0.71428 0.91281 0.08731
 H712 H 0.68921 0.87926 0.11710
 H713 H 0.68956 0.84339 0.15412
 H714 H 0.77726 0.85615 0.16686
 C715 C 0.24099 0.42593 0.56489
 C716 C 0.24505 0.40674 0.58681
 C717 C 0.26325 0.41360 0.60915
 C718 C 0.27800 0.43895 0.60852
 C719 C 0.27432 0.45765 0.58625
 C720 C 0.25542 0.45152 0.56463
 C721 C 0.26622 0.39515 0.63184
 C722 C 0.25163 0.36972 0.63222
 C723 C 0.23447 0.36221 0.60928
 C724 C 0.23107 0.38091 0.58682
 C725 C 0.22083 0.33618 0.60936
 C726 C 0.22371 0.31803 0.63224
 C727 C 0.23973 0.32597 0.65554
 C728 C 0.25382 0.35171 0.65532
 H729 H 0.22667 0.42099 0.54799
 H730 H 0.29220 0.44441 0.62534
 H731 H 0.28560 0.47730 0.58633
 H732 H 0.27974 0.40065 0.64926
 H733 H 0.21748 0.37545 0.56946
 H734 H 0.20781 0.32998 0.59184
 H735 H 0.21281 0.29816 0.63213
 H736 H 0.26659 0.35762 0.67313
 C737 C 0.76397 0.07064 0.92205
 C738 C 0.76440 0.09317 0.90302
 C739 C 0.78885 0.10936 0.90000
 C740 C 0.81265 0.10226 0.91550
 C741 C 0.81219 0.07952 0.93401
 C742 C 0.78781 0.06369 0.93772
 C743 C 0.78916 0.13230 0.88149
 C744 C 0.76555 0.13881 0.86539
 C745 C 0.74135 0.12210 0.86785
 C746 C 0.74081 0.09966 0.88691
 C747 C 0.71820 0.12784 0.85084
 C748 C 0.71911 0.14966 0.83129
 C749 C 0.74281 0.16662 0.82908
 C750 C 0.76590 0.16136 0.84636
 H751 H 0.74510 0.05847 0.92460
 H752 H 0.83161 0.11434 0.91336
 H753 H 0.83079 0.07472 0.94594
 H754 H 0.80786 0.14484 0.87937
 H755 H 0.72215 0.08705 0.88894
 H756 H 0.69958 0.11513 0.85229
 H757 H 0.70127 0.15338 0.81787
 H758 H 0.78442 0.17415 0.84422
 C759 C 0.24340 0.58374 0.44097
 C760 C 0.24075 0.60132 0.41762
 C761 C 0.22068 0.59529 0.39675
 C762 C 0.20281 0.57232 0.40029
 C763 C 0.20538 0.55504 0.42389
 C764 C 0.22607 0.56032 0.44405
 C765 C 0.21910 0.61211 0.37260
 C766 C 0.23711 0.63503 0.36935
 C767 C 0.25641 0.64156 0.39086
 C768 C 0.25822 0.62458 0.41472
 C769 C 0.27381 0.66489 0.38811
 C770 C 0.27238 0.68152 0.36413
 C771 C 0.25386 0.67485 0.34229
 C772 C 0.23624 0.65155 0.34494
 H773 H 0.25921 0.58810 0.45665
 H774 H 0.18716 0.56747 0.38463
 H775 H 0.19185 0.53700 0.42589
 H776 H 0.20403 0.60726 0.35633
 H777 H 0.27337 0.62934 0.43095
 H778 H 0.28861 0.67022 0.40444
 H779 H 0.28625 0.69933 0.36236
 H780 H 0.22176 0.64651 0.32822
 C781 C 0.25114 0.92634 0.94358
 C782 C 0.25744 0.90542 0.92397
 C783 C 0.28111 0.90822 0.90665
 C784 C 0.29909 0.93103 0.91061
 C785 C 0.29342 0.95113 0.93123
 C786 C 0.26899 0.94943 0.94742
 C787 C 0.28627 0.88824 0.88564
 C788 C 0.26852 0.86509 0.88243
 C789 C 0.24602 0.86135 0.90118
 C790 C 0.24039 0.88173 0.92154
 C791 C 0.22910 0.83754 0.89886
 C792 C 0.23361 0.81822 0.87736
 C793 C 0.25473 0.82272 0.85756
 C794 C 0.27247 0.84592 0.86043
 H795 H 0.23261 0.92416 0.95636
 H796 H 0.31756 0.93331 0.89781
 H797 H 0.30770 0.96850 0.93379
 H798 H 0.30393 0.89080 0.87172
 H799 H 0.22262 0.87926 0.93535
 H800 H 0.21197 0.83422 0.91325
 H801 H 0.21958 0.80057 0.87523
 H802 H 0.28885 0.84933 0.84518
 C803 C 0.77163 0.42276 0.43750
 C804 C 0.77287 0.40138 0.41720
 C805 C 0.79301 0.40281 0.39560
 C806 C 0.81215 0.42497 0.39526
 C807 C 0.81128 0.44566 0.41599
 C808 C 0.79086 0.44495 0.43701
 C809 C 0.79373 0.38210 0.37470
 C810 C 0.77499 0.35959 0.37543
 C811 C 0.75560 0.35749 0.39762
 C812 C 0.75445 0.37856 0.41821
 C813 C 0.73756 0.33439 0.39872
 C814 C 0.73831 0.31389 0.37773
 C815 C 0.75679 0.31637 0.35504
 C816 C 0.77525 0.33920 0.35416
 H817 H 0.75607 0.42192 0.45394
 H818 H 0.82783 0.42628 0.37899
 H819 H 0.82627 0.46259 0.41529
 H820 H 0.80888 0.38349 0.35790
 H821 H 0.73927 0.37719 0.43498
 H822 H 0.72268 0.33233 0.41567
 H823 H 0.72380 0.29656 0.37874
 H824 H 0.78976 0.34113 0.33686
 C825 C 0.05301 0.24858 0.07529
 C826 C 0.07585 0.24885 0.09385
 C827 C 0.09950 0.23220 0.08787
 C828 C 0.09961 0.21497 0.06403
 C829 C 0.07647 0.21405 0.04633
 C830 C 0.05317 0.23094 0.05164
 C831 C 0.12252 0.23267 0.10600
 C832 C 0.12189 0.24874 0.13065
 C833 C 0.09790 0.26461 0.13723
 C834 C 0.07524 0.26499 0.11853
 C835 C 0.09688 0.27950 0.16264
 C836 C 0.11930 0.27855 0.18139
 C837 C 0.14343 0.26341 0.17466
 C838 C 0.14468 0.24871 0.14914
 H839 H 0.03486 0.26136 0.07960
 H840 H 0.11746 0.20195 0.05925
 H841 H 0.07689 0.20038 0.02816
 H842 H 0.14072 0.22011 0.10119
 H843 H 0.05697 0.27739 0.12345
 H844 H 0.07861 0.29160 0.16817
 H845 H 0.11798 0.28995 0.20102
 H846 H 0.16311 0.23659 0.14409
 C847 C 0.57600 0.75108 0.56452
 C848 C 0.59460 0.75189 0.58724
 C849 C 0.59085 0.77204 0.60873
 C850 C 0.56914 0.79151 0.60675
 C851 C 0.55114 0.79096 0.58380
 C852 C 0.55422 0.77062 0.56269
 C853 C 0.60893 0.77255 0.63178
 C854 C 0.63123 0.75373 0.63326
 C855 C 0.63557 0.73412 0.61140
 C856 C 0.61697 0.73304 0.58871
 C857 C 0.65870 0.71621 0.61245
 C858 C 0.67749 0.71794 0.63480
 C859 C 0.67294 0.73702 0.65675
 C860 C 0.64964 0.75464 0.65605
 H861 H 0.57860 0.73547 0.54817
 H862 H 0.56607 0.80716 0.62295
 H863 H 0.53435 0.80609 0.58288
 H864 H 0.60586 0.78784 0.64837
 H865 H 0.62010 0.71784 0.57208
 H866 H 0.66246 0.70117 0.59582
 H867 H 0.69545 0.70422 0.63509
 H868 H 0.64638 0.76970 0.67279
 C869 C 0.07033 0.75000 0.93783
 C870 C 0.08969 0.75387 0.91621
 C871 C 0.09112 0.77990 0.90212
 C872 C 0.07374 0.80193 0.91063
 C873 C 0.05483 0.79811 0.93261
 C874 C 0.05253 0.77197 0.94619
 C875 C 0.10989 0.78343 0.87983
 C876 C 0.12770 0.76145 0.87197
 C877 C 0.12688 0.73576 0.88682
 C878 C 0.10766 0.73202 0.90857
 C879 C 0.14550 0.71424 0.87984
 C880 C 0.16487 0.71812 0.85841
 C881 C 0.16537 0.74323 0.84311
 C882 C 0.14665 0.76481 0.84979
 H883 H 0.06925 0.72977 0.94817
 H884 H 0.07470 0.82211 0.90022
 H885 H 0.04156 0.81551 0.93847
 H886 H 0.11078 0.80330 0.86877
 H887 H 0.10682 0.71218 0.91967
 H888 H 0.14528 0.69452 0.89116
 H889 H 0.17932 0.70139 0.85352
 H890 H 0.14741 0.78440 0.83825
 C891 C 0.55701 0.22913 0.42517
 C892 C 0.58037 0.22807 0.40744
 C893 C 0.59876 0.20493 0.40900
 C894 C 0.59301 0.18288 0.42753
 C895 C 0.56945 0.18380 0.44458
 C896 C 0.55144 0.20701 0.44385
 C897 C 0.62257 0.20415 0.39203
 C898 C 0.62790 0.22581 0.37289
 C899 C 0.60902 0.24847 0.37056
 C900 C 0.58560 0.24966 0.38812
 C901 C 0.61379 0.26945 0.35049
 C902 C 0.63696 0.26794 0.33285
 C903 C 0.65612 0.24588 0.33550
 C904 C 0.65161 0.22496 0.35572
 H905 H 0.54312 0.24702 0.42433
 H906 H 0.60678 0.16493 0.42888
 H907 H 0.56570 0.16660 0.45893
 H908 H 0.63680 0.18655 0.39354
 H909 H 0.57134 0.26722 0.38657
 H910 H 0.59949 0.28687 0.34826
 H911 H 0.64015 0.28426 0.31735
 H912 H 0.66618 0.20769 0.35753
 C913 C 0.91248 0.75844 0.05820
 C914 C 0.89189 0.75297 0.07835
 C915 C 0.89676 0.73250 0.09930
 C916 C 0.92160 0.71712 0.09911
 C917 C 0.94165 0.72221 0.07858
 C918 C 0.93745 0.74314 0.05829
 C919 C 0.87686 0.72787 0.12024
 C920 C 0.85198 0.74317 0.12033
 C921 C 0.84651 0.76277 0.09872
 C922 C 0.86659 0.76768 0.07794
 C923 C 0.82123 0.77749 0.09861
 C924 C 0.80200 0.77358 0.12026
 C925 C 0.80790 0.75511 0.14246
 C926 C 0.83272 0.73960 0.14208
 H927 H 0.90900 0.77435 0.04231
 H928 H 0.92557 0.70123 0.11488
 H929 H 0.96078 0.71020 0.07893
 H930 H 0.88086 0.71257 0.13662
 H931 H 0.86266 0.78310 0.06166
 H932 H 0.81661 0.79246 0.08214
 H933 H 0.78307 0.78590 0.12029
 H934 H 0.83730 0.72516 0.15907
 C935 C 0.42781 0.23351 0.57517
 C936 C 0.40575 0.23363 0.59453
 C937 C 0.38588 0.21176 0.59403
 C938 C 0.38884 0.18977 0.57475
 C939 C 0.41123 0.18942 0.55611
 C940 C 0.43073 0.21134 0.55597
 C941 C 0.36350 0.21208 0.61291
 C942 C 0.36115 0.23354 0.63290
 C943 C 0.38152 0.25492 0.63401
 C944 C 0.40344 0.25507 0.61456
 C945 C 0.37979 0.27568 0.65477
 C946 C 0.35818 0.27521 0.67433
 C947 C 0.33755 0.25442 0.67305
 C948 C 0.33898 0.23374 0.65212
 H949 H 0.44294 0.25036 0.57534
 H950 H 0.37391 0.17277 0.57415
 H951 H 0.41302 0.17221 0.54137
 H952 H 0.34813 0.19544 0.61228
 H953 H 0.41886 0.27164 0.61526
 H954 H 0.39527 0.29213 0.65604
 H955 H 0.35733 0.29140 0.69027
 H956 H 0.32326 0.21747 0.65127
 C957 C 0.92660 0.24100 0.92307
 C958 C 0.90582 0.23802 0.90247
 C959 C 0.88895 0.21375 0.90217
 C960 C 0.89395 0.19234 0.92167
 C961 C 0.91542 0.19488 0.94130
 C962 C 0.93179 0.21937 0.94259
 C963 C 0.86751 0.21116 0.88228
 C964 C 0.86340 0.23206 0.86195
 C965 C 0.88122 0.25567 0.86134
 C966 C 0.90196 0.25874 0.88189
 C967 C 0.87800 0.27583 0.84013
 C968 C 0.85708 0.27287 0.81996
 C969 C 0.83864 0.25015 0.82112
 C970 C 0.84184 0.22974 0.84212
 H971 H 0.93923 0.25983 0.92330
 H972 H 0.88140 0.17347 0.92159
 H973 H 0.91875 0.17779 0.95591
 H974 H 0.85424 0.19277 0.88243
 H975 H 0.91526 0.27710 0.88170
 H976 H 0.89162 0.29389 0.83918
 H977 H 0.85473 0.28878 0.80388
 H978 H 0.82768 0.21207 0.84283
 C979 C 0.43546 0.74837 0.42590
 C980 C 0.41343 0.74965 0.40654
 C981 C 0.38982 0.76635 0.41255
 C982 C 0.38875 0.78169 0.43760
 C983 C 0.41109 0.78099 0.45628
 C984 C 0.43454 0.76440 0.45059
 C985 C 0.36787 0.76789 0.39324
 C986 C 0.36951 0.75359 0.36760
 C987 C 0.39328 0.73728 0.36133
 C988 C 0.41494 0.73511 0.38098
 C989 C 0.39509 0.72360 0.33535
 C990 C 0.37358 0.72606 0.31577
 C991 C 0.34971 0.74196 0.32195
 C992 C 0.34780 0.75560 0.34801
 H993 H 0.45371 0.73583 0.42131
 H994 H 0.37087 0.79463 0.44250
 H995 H 0.41004 0.79342 0.47529
 H996 H 0.34975 0.78060 0.39795
 H997 H 0.43313 0.72253 0.37620
 H998 H 0.41316 0.71104 0.33015
 H999 H 0.37545 0.71510 0.29594
 H1000 H 0.32955 0.76801 0.35294
 C1001 C 0.06784 0.06567 0.25068
 C1002 C 0.08840 0.08613 0.24682
 C1003 C 0.10248 0.08804 0.22084
 C1004 C 0.09508 0.06983 0.19889
 C1005 C 0.07405 0.04989 0.20272
 C1006 C 0.06051 0.04744 0.22872
 C1007 C 0.12352 0.10819 0.21724
 C1008 C 0.13003 0.12696 0.23905
 C1009 C 0.11520 0.12548 0.26468
 C1010 C 0.09484 0.10485 0.26853
 C1011 C 0.12069 0.14491 0.28603
 C1012 C 0.14052 0.16582 0.28203
 C1013 C 0.15576 0.16719 0.25699
 C1014 C 0.15072 0.14756 0.23558
 H1015 H 0.05724 0.06416 0.27071
 H1016 H 0.10550 0.07106 0.17876
 H1017 H 0.06875 0.03600 0.18554
 H1018 H 0.13454 0.10951 0.19742
 H1019 H 0.08373 0.10361 0.28831
 H1020 H 0.10939 0.14416 0.30569
 H1021 H 0.14421 0.18087 0.29867
 H1022 H 0.16225 0.14888 0.21607
 C1023 C 0.57702 0.56712 0.74915
 C1024 C 0.59585 0.58930 0.74627
 C1025 C 0.59248 0.60878 0.72414
 C1026 C 0.57082 0.60507 0.70470
 C1027 C 0.55230 0.58264 0.70755
 C1028 C 0.55497 0.56382 0.73007
 C1029 C 0.61065 0.63169 0.72199
 C1030 C 0.63239 0.63502 0.74142
 C1031 C 0.63626 0.61493 0.76295
 C1032 C 0.61783 0.59237 0.76538
 C1033 C 0.65860 0.61769 0.78169
 C1034 C 0.67699 0.64016 0.77917
 C1035 C 0.67293 0.66055 0.75833
 C1036 C 0.65053 0.65798 0.73955
 H1037 H 0.57942 0.55250 0.76643
 H1038 H 0.56802 0.61968 0.68749
 H1039 H 0.53540 0.58050 0.69265
 H1040 H 0.60789 0.64686 0.70524
 H1041 H 0.62058 0.57719 0.78213
 H1042 H 0.66195 0.60239 0.79817
 H1043 H 0.69425 0.64182 0.79372
 H1044 H 0.64767 0.67347 0.72312
 C1045 C 0.92170 0.06762 0.74689
 C1046 C 0.90102 0.08810 0.74991
 C1047 C 0.89928 0.10368 0.77508
 C1048 C 0.91750 0.09758 0.79728
 C1049 C 0.93756 0.07653 0.79443
 C1050 C 0.94030 0.06167 0.76902
 C1051 C 0.87944 0.12513 0.77758
 C1052 C 0.86092 0.13067 0.75544
 C1053 C 0.86183 0.11414 0.73079
 C1054 C 0.88208 0.09319 0.72806
 C1055 C 0.84257 0.11897 0.70915
 C1056 C 0.82289 0.14037 0.71167
 C1057 C 0.82264 0.15750 0.73555
 C1058 C 0.84153 0.15257 0.75746
 H1059 H 0.92303 0.05613 0.72728
 H1060 H 0.91627 0.10912 0.81684
 H1061 H 0.95140 0.07245 0.81194
 H1062 H 0.87842 0.13748 0.79669
 H1063 H 0.88313 0.08088 0.70893
 H1064 H 0.84285 0.10634 0.69024
 H1065 H 0.80834 0.14408 0.69467
 H1066 H 0.84105 0.16578 0.77600
 C1067 C 0.42428 0.55174 0.25190
 C1068 C 0.40604 0.57453 0.25478
 C1069 C 0.41339 0.59724 0.27241
 C1070 C 0.43823 0.59612 0.28786
 C1071 C 0.45590 0.57298 0.28543
 C1072 C 0.44931 0.55096 0.26705
 C1073 C 0.39593 0.62075 0.27413
 C1074 C 0.37088 0.62152 0.25901
 C1075 C 0.36289 0.59818 0.24252
 C1076 C 0.38067 0.57499 0.24023
 C1077 C 0.33724 0.59849 0.22845
 C1078 C 0.31987 0.62188 0.23031
 C1079 C 0.32819 0.64555 0.24565
 C1080 C 0.35367 0.64526 0.26006
 H1081 H 0.41901 0.53458 0.23793
 H1082 H 0.44408 0.61321 0.30164
 H1083 H 0.47519 0.57271 0.29720
 H1084 H 0.40183 0.63842 0.28719
 H1085 H 0.37480 0.55735 0.22712
 H1086 H 0.33068 0.58069 0.21595
 H1087 H 0.30025 0.62184 0.21910
 H1088 H 0.35991 0.66342 0.27225
 C1089 C 0.07653 0.94334 0.76648
 C1090 C 0.09524 0.92099 0.76318
 C1091 C 0.09167 0.90193 0.74070
 C1092 C 0.07003 0.90608 0.72139
 C1093 C 0.05185 0.92868 0.72451
 C1094 C 0.05469 0.94724 0.74724
 C1095 C 0.10972 0.87903 0.73788
 C1096 C 0.13171 0.87529 0.75686
 C1097 C 0.13590 0.89488 0.77878
 C1098 C 0.11744 0.91742 0.78200
 C1099 C 0.15860 0.89164 0.79702
 C1100 C 0.17698 0.86921 0.79358
 C1101 C 0.17253 0.84933 0.77231
 C1102 C 0.14979 0.85238 0.75409
 H1103 H 0.07900 0.95773 0.78393
 H1104 H 0.06710 0.89178 0.70395
 H1105 H 0.03508 0.93123 0.70951
 H1106 H 0.10674 0.86423 0.72084
 H1107 H 0.12042 0.93223 0.79903
 H1108 H 0.16223 0.90653 0.81382
 H1109 H 0.19444 0.86711 0.80784
 H1110 H 0.14655 0.83725 0.73740
 C1111 C 0.58382 0.43003 0.25756
 C1112 C 0.60312 0.40831 0.25345
 C1113 C 0.59709 0.38663 0.23410
 C1114 C 0.57239 0.38761 0.21845
 C1115 C 0.55361 0.40965 0.22220
 C1116 C 0.55895 0.43075 0.24204
 C1117 C 0.61571 0.36424 0.23084
 C1118 C 0.64051 0.36343 0.24637
 C1119 C 0.64710 0.38568 0.26485
 C1120 C 0.62827 0.40788 0.26843
 C1121 C 0.67229 0.38513 0.27973
 C1122 C 0.69043 0.36240 0.27694
 C1123 C 0.68353 0.33967 0.25950
 C1124 C 0.65865 0.34051 0.24399
 H1125 H 0.58821 0.44647 0.27265
 H1126 H 0.56753 0.37129 0.20340
 H1127 H 0.53455 0.40984 0.21004
 H1128 H 0.61082 0.34736 0.21639
 H1129 H 0.63310 0.42469 0.28299
 H1130 H 0.67777 0.40208 0.29384
 H1131 H 0.70942 0.36213 0.28921
 H1132 H 0.65327 0.32317 0.23029
 C1133 C 0.93082 0.92216 0.23343
 C1134 C 0.91024 0.90187 0.23828
 C1135 C 0.90521 0.89231 0.26591
 C1136 C 0.92117 0.90293 0.28814
 C1137 C 0.94181 0.92293 0.28314
 C1138 C 0.94683 0.93299 0.25577
 C1139 C 0.88430 0.87237 0.27085
 C1140 C 0.86849 0.86171 0.24847
 C1141 C 0.87389 0.87099 0.22075
 C1142 C 0.89463 0.89104 0.21587
 C1143 C 0.85831 0.86015 0.19833
 C1144 C 0.83741 0.84049 0.20330
 C1145 C 0.83172 0.83149 0.23070
 C1146 C 0.84726 0.84204 0.25328
 H1147 H 0.93434 0.92939 0.21213
 H1148 H 0.91767 0.89578 0.30944
 H1149 H 0.95368 0.93068 0.30087
 H1150 H 0.88031 0.86519 0.29209
 H1151 H 0.89858 0.89826 0.19464
 H1152 H 0.86217 0.86699 0.17699
 H1153 H 0.82538 0.83250 0.18578
 H1154 H 0.84269 0.83505 0.27445
 C1155 C 0.41874 0.44492 0.74339
 C1156 C 0.39990 0.42301 0.74813
 C1157 C 0.40578 0.40265 0.76893
 C1158 C 0.42987 0.40517 0.78533
 C1159 C 0.44819 0.42742 0.78090
 C1160 C 0.44299 0.44717 0.75966
 C1161 C 0.38758 0.38007 0.77291
 C1162 C 0.36327 0.37790 0.75678
 C1163 C 0.35683 0.39887 0.73677
 C1164 C 0.37532 0.42113 0.73237
 C1165 C 0.33200 0.39716 0.72143
 C1166 C 0.31389 0.37469 0.72557
 C1167 C 0.32058 0.35327 0.74468
 C1168 C 0.34528 0.35505 0.76031
 H1169 H 0.41449 0.46031 0.72718
 H1170 H 0.43461 0.38988 0.80148
 H1171 H 0.46685 0.42878 0.79360
 H1172 H 0.39232 0.36421 0.78854
 H1173 H 0.37060 0.43696 0.71670
 H1174 H 0.32663 0.41313 0.70616
 H1175 H 0.29494 0.37370 0.71332
 H1176 H 0.35038 0.33874 0.77534
 C1177 C 0.06364 0.24144 0.93135
 C1178 C 0.08296 0.23998 0.90942
 C1179 C 0.08476 0.21548 0.89283
 C1180 C 0.06747 0.19257 0.89901
 C1181 C 0.04847 0.19406 0.92127
 C1182 C 0.04620 0.21861 0.93742
 C1183 C 0.10387 0.21432 0.87050
 C1184 C 0.12157 0.23714 0.86507
 C1185 C 0.12006 0.26133 0.88226
 C1186 C 0.10058 0.26270 0.90403
 C1187 C 0.13835 0.28370 0.87769
 C1188 C 0.15826 0.28208 0.85654
 C1189 C 0.15977 0.25844 0.83910
 C1190 C 0.14117 0.23609 0.84315
 H1191 H 0.06231 0.26039 0.94385
 H1192 H 0.06861 0.17354 0.88665
 H1193 H 0.03521 0.17622 0.92552
 H1194 H 0.10517 0.19561 0.85762
 H1195 H 0.09936 0.28136 0.91700
 H1196 H 0.13753 0.30228 0.89077
 H1197 H 0.17253 0.29943 0.85367
 H1198 H 0.14263 0.21763 0.82994
 C1199 C 0.57441 0.75906 0.43798
 C1200 C 0.59299 0.76237 0.41554
 C1201 C 0.58889 0.78438 0.39606
 C1202 C 0.56693 0.80335 0.40008
 C1203 C 0.54886 0.80024 0.42287
 C1204 C 0.55216 0.77780 0.44166
 C1205 C 0.60669 0.78691 0.37285
 C1206 C 0.62884 0.76806 0.36922
 C1207 C 0.63359 0.74680 0.38939
 C1208 C 0.61548 0.74393 0.41226
 C1209 C 0.65633 0.72865 0.38628
 C1210 C 0.67402 0.73123 0.36319
 C1211 C 0.66893 0.75161 0.34255
 C1212 C 0.64633 0.77005 0.34570
 H1213 H 0.57728 0.74189 0.45264
 H1214 H 0.56360 0.82047 0.38549
 H1215 H 0.53181 0.81488 0.42536
 H1216 H 0.60328 0.80348 0.35762
 H1217 H 0.61884 0.72731 0.42745
 H1218 H 0.66037 0.71237 0.40164
 H1219 H 0.69127 0.71677 0.36104
 H1220 H 0.64251 0.78602 0.32995
 C1221 C 0.92596 0.76868 0.93288
 C1222 C 0.90690 0.76442 0.91101
 C1223 C 0.90515 0.73787 0.89793
 C1224 C 0.92217 0.71592 0.90728
 C1225 C 0.94080 0.72018 0.92938
 C1226 C 0.94310 0.74663 0.94235
 C1227 C 0.88635 0.73365 0.87583
 C1228 C 0.86891 0.75551 0.86700
 C1229 C 0.87028 0.78195 0.88044
 C1230 C 0.88945 0.78630 0.90219
 C1231 C 0.85233 0.80356 0.87196
 C1232 C 0.83310 0.79896 0.85046
 C1233 C 0.83183 0.77287 0.83702
 C1234 C 0.84988 0.75128 0.84509
 H1235 H 0.92719 0.78919 0.94264
 H1236 H 0.92101 0.69541 0.89755
 H1237 H 0.95361 0.70271 0.93606
 H1238 H 0.88511 0.71333 0.86568
 H1239 H 0.89063 0.80661 0.91237
 H1240 H 0.85310 0.82393 0.88200
 H1241 H 0.81952 0.81586 0.84399
 H1242 H 0.84871 0.73112 0.83463
 C1243 C 0.42647 0.23154 0.42350
 C1244 C 0.40360 0.23156 0.40504
 C1245 C 0.38395 0.20952 0.40624
 C1246 C 0.38805 0.18738 0.42517
 C1247 C 0.41119 0.18719 0.44297
 C1248 C 0.43038 0.20939 0.44260
 C1249 C 0.36057 0.20994 0.38851
 C1250 C 0.35695 0.23171 0.36901
 C1251 C 0.37717 0.25318 0.36709
 C1252 C 0.40011 0.25319 0.38537
 C1253 C 0.37419 0.27422 0.34675
 C1254 C 0.35147 0.27400 0.32845
 C1255 C 0.33092 0.25324 0.33062
 C1256 C 0.33363 0.23220 0.35110
 H1257 H 0.44130 0.24865 0.42290
 H1258 H 0.37332 0.17023 0.42626
 H1259 H 0.41367 0.16999 0.45761
 H1260 H 0.34534 0.19321 0.38973
 H1261 H 0.41537 0.26989 0.38411
 H1262 H 0.38955 0.29073 0.34484
 H1263 H 0.34967 0.29036 0.31281
 H1264 H 0.31798 0.21591 0.35259
 C1265 C 0.06822 0.74931 0.07093
 C1266 C 0.08733 0.75238 0.09287
 C1267 C 0.08771 0.77731 0.10892
 C1268 C 0.06892 0.79891 0.10237
 C1269 C 0.05005 0.79578 0.08014
 C1270 C 0.04948 0.77090 0.06431
 C1271 C 0.10699 0.78024 0.13095
 C1272 C 0.12622 0.75873 0.13662
 C1273 C 0.12584 0.73400 0.12014
 C1274 C 0.10624 0.73088 0.09869
 C1275 C 0.14545 0.71287 0.12495
 C1276 C 0.16573 0.71635 0.14550
 C1277 C 0.16637 0.74067 0.16205
 C1278 C 0.14630 0.76170 0.15795
 H1279 H 0.06815 0.73007 0.05879
 H1280 H 0.06890 0.81822 0.11435
 H1281 H 0.03575 0.81271 0.07551
 H1282 H 0.10733 0.79932 0.14334
 H1283 H 0.10600 0.71186 0.08618
 H1284 H 0.14544 0.69387 0.11247
 H1285 H 0.18107 0.69996 0.14851
 H1286 H 0.14703 0.78063 0.17054
 C1287 C 0.55589 0.23477 0.57316
 C1288 C 0.57903 0.23523 0.59130
 C1289 C 0.59782 0.21239 0.59143
 C1290 C 0.59265 0.18913 0.57421
 C1291 C 0.56930 0.18856 0.55676
 C1292 C 0.55091 0.21145 0.55576
 C1293 C 0.62143 0.21308 0.60877
 C1294 C 0.62614 0.23596 0.62666
 C1295 C 0.60686 0.25837 0.62735
 C1296 C 0.58365 0.25806 0.60936
 C1297 C 0.61098 0.28055 0.64629
 C1298 C 0.63386 0.28042 0.66448
 C1299 C 0.65340 0.25860 0.66341
 C1300 C 0.64959 0.23654 0.64429
 H1301 H 0.54170 0.25245 0.57268
 H1302 H 0.60673 0.17138 0.57417
 H1303 H 0.56602 0.17046 0.54343
 H1304 H 0.63597 0.19569 0.60856
 H1305 H 0.56907 0.27542 0.60963
 H1306 H 0.59634 0.29779 0.64728
 H1307 H 0.63649 0.29752 0.67921
 H1308 H 0.66445 0.21942 0.64380
 C1309 C 0.93183 0.22039 0.08062
 C1310 C 0.91073 0.22517 0.10054
 C1311 C 0.89035 0.24597 0.09530
 C1312 C 0.89176 0.26207 0.07076
 C1313 C 0.91315 0.25773 0.05153
 C1314 C 0.93323 0.23682 0.05612
 C1315 C 0.86895 0.25054 0.11469
 C1316 C 0.86790 0.23507 0.13966
 C1317 C 0.88864 0.21484 0.14545
 C1318 C 0.90977 0.20978 0.12570
 C1319 C 0.88785 0.20008 0.17095
 C1320 C 0.86658 0.20514 0.19035
 C1321 C 0.84551 0.22470 0.18439
 C1322 C 0.84638 0.23962 0.15898
 H1323 H 0.94744 0.20441 0.08440
 H1324 H 0.87639 0.27815 0.06650
 H1325 H 0.91378 0.27052 0.03274
 H1326 H 0.85320 0.26628 0.11043
 H1327 H 0.92553 0.19406 0.12998
 H1328 H 0.90361 0.18458 0.17584
 H1329 H 0.86621 0.19324 0.20973
 H1330 H 0.83035 0.25494 0.15431
 C1331 C 0.42584 0.77030 0.57213
 C1332 C 0.40765 0.76533 0.59457
 C1333 C 0.40974 0.74013 0.61010
 C1334 C 0.42966 0.72006 0.60245
 C1335 C 0.44735 0.72494 0.57969
 C1336 C 0.44573 0.75016 0.56450
 C1337 C 0.39176 0.73534 0.63282
 C1338 C 0.37125 0.75513 0.63970
 C1339 C 0.36882 0.78000 0.62363
 C1340 C 0.38725 0.78510 0.60147
 C1341 C 0.34771 0.79927 0.62969
 C1342 C 0.32892 0.79387 0.65125
 C1343 C 0.33131 0.76948 0.66758
 C1344 C 0.35272 0.75027 0.66201
 H1345 H 0.42427 0.78970 0.56036
 H1346 H 0.43151 0.70057 0.61400
 H1347 H 0.46262 0.70916 0.57425
 H1348 H 0.39346 0.71610 0.64484
 H1349 H 0.38545 0.80428 0.58934
 H1350 H 0.34549 0.81834 0.61752
 H1351 H 0.31251 0.80890 0.65536
 H1352 H 0.35435 0.73126 0.67439
 C1353 C 0.24774 0.08696 0.94617
 C1354 C 0.24387 0.10635 0.92443
 C1355 C 0.22604 0.09965 0.90176
 C1356 C 0.21134 0.07424 0.90197
 C1357 C 0.21494 0.05524 0.92403
 C1358 C 0.23364 0.06120 0.94587
 C1359 C 0.22357 0.11821 0.87907
 C1360 C 0.23844 0.14351 0.87899
 C1361 C 0.25517 0.15084 0.90232
 C1362 C 0.25792 0.13211 0.92482
 C1363 C 0.26917 0.17665 0.90254
 C1364 C 0.26721 0.19471 0.87952
 C1365 C 0.25170 0.18693 0.85580
 C1366 C 0.23711 0.16148 0.85578
 H1367 H 0.26191 0.09178 0.96324
 H1368 H 0.19740 0.06889 0.88490
 H1369 H 0.20391 0.03546 0.92351
 H1370 H 0.21039 0.11283 0.86136
 H1371 H 0.27124 0.13742 0.94244
 H1372 H 0.28186 0.18271 0.92036
 H1373 H 0.27849 0.21436 0.87984
 H1374 H 0.22473 0.15574 0.83766
 C1375 C 0.76446 0.56752 0.41658
 C1376 C 0.76404 0.59003 0.39744
 C1377 C 0.78574 0.61005 0.39789
 C1378 C 0.80789 0.60676 0.41677
 C1379 C 0.80848 0.58401 0.43521
 C1380 C 0.78670 0.56438 0.43556
 C1381 C 0.78504 0.63301 0.37947
 C1382 C 0.76330 0.63588 0.36000
 C1383 C 0.74210 0.61536 0.35883
 C1384 C 0.74239 0.59278 0.37780
 C1385 C 0.72103 0.61770 0.33854
 C1386 C 0.72098 0.64011 0.31960
 C1387 C 0.74156 0.66094 0.32106
 C1388 C 0.76261 0.65880 0.34145
 H1389 H 0.74767 0.55236 0.41655
 H1390 H 0.82476 0.62180 0.41730
 H1391 H 0.82573 0.58214 0.44975
 H1392 H 0.80154 0.64851 0.38012
 H1393 H 0.72592 0.57726 0.37711
 H1394 H 0.70470 0.60211 0.33720
 H1395 H 0.70454 0.64145 0.30407
 H1396 H 0.77874 0.67465 0.34243
 C1397 C 0.76460 0.07299 0.06570
 C1398 C 0.76581 0.09388 0.08644
 C1399 C 0.79137 0.10725 0.09243
 C1400 C 0.81541 0.09905 0.07803
 C1401 C 0.81425 0.07762 0.05807
 C1402 C 0.78885 0.06438 0.05150
 C1403 C 0.79261 0.12825 0.11304
 C1404 C 0.76880 0.13532 0.12848
 C1405 C 0.74338 0.12134 0.12303
 C1406 C 0.74194 0.10112 0.10170
 C1407 C 0.71994 0.12742 0.13942
 C1408 C 0.72174 0.14685 0.16127
 C1409 C 0.74670 0.16112 0.16645
 C1410 C 0.77012 0.15559 0.14983
 H1411 H 0.74486 0.06294 0.06123
 H1412 H 0.83521 0.10896 0.08245
 H1413 H 0.83334 0.07168 0.04757
 H1414 H 0.81220 0.13862 0.11748
 H1415 H 0.72240 0.09058 0.09743
 H1416 H 0.70038 0.11678 0.13568
 H1417 H 0.70358 0.15090 0.17410
 H1418 H 0.78953 0.16634 0.15421
 C1419 C 0.23962 0.58918 0.56279
 C1420 C 0.23540 0.60886 0.58425
 C1421 C 0.21611 0.60304 0.60587
 C1422 C 0.20043 0.57826 0.60488
 C1423 C 0.20437 0.55903 0.58310
 C1424 C 0.22439 0.56406 0.56229
 C1425 C 0.21314 0.62184 0.62831
 C1426 C 0.22897 0.64653 0.62921
 C1427 C 0.24724 0.65301 0.60688
 C1428 C 0.25047 0.63404 0.58461
 C1429 C 0.26239 0.67813 0.60748
 C1430 C 0.26017 0.69626 0.63043
 C1431 C 0.24309 0.68933 0.65328
 C1432 C 0.22722 0.66462 0.65236
 H1433 H 0.25485 0.59332 0.54653
 H1434 H 0.18538 0.57359 0.62114
 H1435 H 0.19244 0.53977 0.58302
 H1436 H 0.19882 0.61708 0.64523
 H1437 H 0.26495 0.63870 0.56780
 H1438 H 0.27632 0.68352 0.59045
 H1439 H 0.27266 0.71515 0.63082
 H1440 H 0.21379 0.65931 0.66985
 C1441 C 0.76576 0.94263 0.91835
 C1442 C 0.76494 0.91958 0.89993
 C1443 C 0.78176 0.89585 0.90547
 C1444 C 0.79992 0.89603 0.92853
 C1445 C 0.80127 0.91938 0.94614
 C1446 C 0.78397 0.94262 0.94148
 C1447 C 0.78029 0.87235 0.88785
 C1448 C 0.76297 0.87260 0.86413
 C1449 C 0.74716 0.89677 0.85773
 C1450 C 0.74784 0.91994 0.87596
 C1451 C 0.73111 0.89735 0.83305
 C1452 C 0.73082 0.87424 0.81490
 C1453 C 0.74579 0.84986 0.82164
 C1454 C 0.76160 0.84914 0.84645
 H1455 H 0.75261 0.96071 0.91452
 H1456 H 0.81311 0.87812 0.93291
 H1457 H 0.81536 0.91902 0.96391
 H1458 H 0.79288 0.85401 0.89239
 H1459 H 0.73535 0.93832 0.87134
 H1460 H 0.71904 0.91577 0.82765
 H1461 H 0.71854 0.87521 0.79584
 H1462 H 0.77332 0.83045 0.85169
 C1463 C 0.24336 0.42577 0.44543
 C1464 C 0.24730 0.40723 0.42296
 C1465 C 0.26536 0.41466 0.40074
 C1466 C 0.28022 0.43992 0.40213
 C1467 C 0.27663 0.45799 0.42495
 C1468 C 0.25775 0.45131 0.44638
 C1469 C 0.26798 0.39690 0.37740
 C1470 C 0.25318 0.37157 0.37631
 C1471 C 0.23626 0.36355 0.39925
 C1472 C 0.23322 0.38155 0.42228
 C1473 C 0.22240 0.33774 0.39868
 C1474 C 0.22479 0.32023 0.37537
 C1475 C 0.24056 0.32851 0.35202
 C1476 C 0.25487 0.35414 0.35260
 H1477 H 0.22900 0.42042 0.46214
 H1478 H 0.29433 0.44585 0.38544
 H1479 H 0.28785 0.47768 0.42536
 H1480 H 0.28134 0.40285 0.36006
 H1481 H 0.21975 0.37566 0.43956
 H1482 H 0.20955 0.33119 0.41617
 H1483 H 0.21359 0.30053 0.37520
 H1484 H 0.26734 0.36040 0.33471
 C1485 C 0.25414 0.92207 0.05975
 C1486 C 0.25965 0.90137 0.07985
 C1487 C 0.27941 0.90658 0.10125
 C1488 C 0.29412 0.93197 0.10146
 C1489 C 0.28889 0.95227 0.08096
 C1490 C 0.26854 0.94764 0.06034
 C1491 C 0.28388 0.88650 0.12224
 C1492 C 0.26901 0.86122 0.12193
 C1493 C 0.25014 0.85551 0.09986
 C1494 C 0.24549 0.87569 0.07900
 C1495 C 0.23581 0.82991 0.09935
 C1496 C 0.23941 0.81053 0.12105
 C1497 C 0.25716 0.81661 0.14367
 C1498 C 0.27229 0.84179 0.14372
 H1499 H 0.23873 0.91826 0.04354
 H1500 H 0.30949 0.93621 0.11757
 H1501 H 0.30023 0.97188 0.08164
 H1502 H 0.29862 0.89070 0.13899
 H1503 H 0.23061 0.87157 0.06236
 H1504 H 0.22141 0.82513 0.08249
 H1505 H 0.22747 0.79127 0.12069
 H1506 H 0.28626 0.84646 0.16099
 C1507 C 0.76649 0.43166 0.55968
 C1508 C 0.76635 0.41274 0.58229
 C1509 C 0.78864 0.41275 0.60170
 C1510 C 0.81103 0.43117 0.59769
 C1511 C 0.81128 0.44951 0.57476
 C1512 C 0.78892 0.45014 0.55574
 C1513 C 0.78827 0.39426 0.62467
 C1514 C 0.76628 0.37519 0.62802
 C1515 C 0.74442 0.37465 0.60809
 C1516 C 0.74439 0.39368 0.58562
 C1517 C 0.72310 0.35477 0.61074
 C1518 C 0.72356 0.33540 0.63272
 C1519 C 0.74487 0.33607 0.65288
 C1520 C 0.76604 0.35623 0.65065
 H1521 H 0.74927 0.43179 0.54495
 H1522 H 0.82836 0.43137 0.61225
 H1523 H 0.82873 0.46362 0.57222
 H1524 H 0.80525 0.39445 0.63969
 H1525 H 0.72747 0.39341 0.57053
 H1526 H 0.70629 0.35395 0.59558
 H1527 H 0.70710 0.31996 0.63416
 H1528 H 0.78274 0.35650 0.66597
 C1529 C 0.07667 0.06811 0.76383
 C1530 C 0.09548 0.09031 0.76044
 C1531 C 0.08983 0.11154 0.74048
 C1532 C 0.06604 0.10960 0.72352
 C1533 C 0.04779 0.08704 0.72655
 C1534 C 0.05273 0.06642 0.74699
 C1535 C 0.10801 0.13434 0.73782
 C1536 C 0.13212 0.13583 0.75435
 C1537 C 0.13838 0.11402 0.77347
 C1538 C 0.11984 0.09157 0.77666
 C1539 C 0.16315 0.11503 0.78903
 C1540 C 0.18142 0.13758 0.78587
 C1541 C 0.17484 0.15982 0.76773
 C1542 C 0.15017 0.15877 0.75195
 H1543 H 0.08073 0.05203 0.77941
 H1544 H 0.06151 0.12557 0.70798
 H1545 H 0.02940 0.08609 0.71343
 H1546 H 0.10344 0.15085 0.72283
 H1547 H 0.12440 0.07506 0.79164
 H1548 H 0.16843 0.09837 0.80357
 H1549 H 0.20045 0.13787 0.79800
 H1550 H 0.14521 0.17564 0.73752
 C1551 C 0.56242 0.57144 0.25760
 C1552 C 0.58219 0.59241 0.25221
 C1553 C 0.60004 0.58983 0.22875
 C1554 C 0.59706 0.56691 0.21052
 C1555 C 0.57675 0.54660 0.21558
 C1556 C 0.55962 0.54849 0.23933
 C1557 C 0.62054 0.61015 0.22389
 C1558 C 0.62299 0.63340 0.24178
 C1559 C 0.60437 0.63664 0.26451
 C1560 C 0.58429 0.61595 0.26979
 C1561 C 0.60626 0.66048 0.28168
 C1562 C 0.62674 0.68067 0.27670
 C1563 C 0.64597 0.67706 0.25484
 C1564 C 0.64388 0.65344 0.23734
 H1565 H 0.54889 0.57316 0.27573
 H1566 H 0.61040 0.56473 0.19233
 H1567 H 0.57481 0.52904 0.20128
 H1568 H 0.63455 0.60790 0.20619
 H1569 H 0.57031 0.61818 0.28751
 H1570 H 0.59204 0.66341 0.29908
 H1571 H 0.62814 0.69868 0.29051
 H1572 H 0.65852 0.65070 0.22025
 C1573 C 0.08459 0.93123 0.23823
 C1574 C 0.10375 0.90950 0.23346
 C1575 C 0.09568 0.88586 0.21746
 C1576 C 0.06906 0.88503 0.20536
 C1577 C 0.05044 0.90716 0.20950
 C1578 C 0.05787 0.93008 0.22638
 C1579 C 0.11422 0.86339 0.21400
 C1580 C 0.14095 0.86451 0.22584
 C1581 C 0.14952 0.88881 0.24053
 C1582 C 0.13077 0.91101 0.24450
 C1583 C 0.17662 0.89032 0.25135
 C1584 C 0.19479 0.86764 0.24847
 C1585 C 0.18602 0.84289 0.23520
 C1586 C 0.15915 0.84158 0.22358
 H1587 H 0.09049 0.94914 0.25094
 H1588 H 0.06262 0.86723 0.19281
 H1589 H 0.02990 0.90602 0.20019
 H1590 H 0.10780 0.84498 0.20229
 H1591 H 0.13716 0.92936 0.25632
 H1592 H 0.18362 0.90888 0.26242
 H1593 H 0.21538 0.86903 0.25763
 H1594 H 0.15238 0.82262 0.21302
 C1595 C 0.57657 0.44257 0.74584
 C1596 C 0.59464 0.41976 0.74212
 C1597 C 0.58775 0.39838 0.72272
 C1598 C 0.56346 0.40080 0.70657
 C1599 C 0.54593 0.42395 0.70991
 C1600 C 0.55211 0.44472 0.72986
 C1601 C 0.60520 0.37496 0.71985
 C1602 C 0.62982 0.37301 0.73559
 C1603 C 0.63727 0.39501 0.75408
 C1604 C 0.61946 0.41804 0.75750
 C1605 C 0.66247 0.39365 0.76883
 C1606 C 0.68009 0.37064 0.76547
 C1607 C 0.67248 0.34830 0.74789
 C1608 C 0.64727 0.34951 0.73303
 H1609 H 0.58158 0.45872 0.76105
 H1610 H 0.55795 0.38475 0.69145
 H1611 H 0.52710 0.42522 0.69746
 H1612 H 0.59970 0.35834 0.70531
 H1613 H 0.62497 0.43465 0.77203
 H1614 H 0.66859 0.41041 0.78291
 H1615 H 0.69947 0.36999 0.77708
 H1616 H 0.64154 0.33243 0.71918
 C1617 C 0.92293 0.05075 0.24350
 C1618 C 0.90351 0.07187 0.24995
 C1619 C 0.91009 0.09220 0.27055
 C1620 C 0.93550 0.09059 0.28493
 C1621 C 0.95430 0.06910 0.27895
 C1622 C 0.94836 0.04922 0.25805
 C1623 C 0.89121 0.11382 0.27650
 C1624 C 0.86554 0.11513 0.26253
 C1625 C 0.85847 0.09427 0.24266
 C1626 C 0.87760 0.07291 0.23630
 C1627 C 0.83244 0.09533 0.22933
 C1628 C 0.81388 0.11718 0.23510
 C1629 C 0.82115 0.13855 0.25407
 C1630 C 0.84696 0.13718 0.26793
 H1631 H 0.91808 0.03522 0.22760
 H1632 H 0.94079 0.10589 0.30088
 H1633 H 0.97378 0.06828 0.29037
 H1634 H 0.89649 0.12963 0.29199
 H1635 H 0.87233 0.05714 0.22077
 H1636 H 0.82659 0.07946 0.21414
 H1637 H 0.79423 0.11791 0.22396
 H1638 H 0.85271 0.15347 0.28272
 C1639 C 0.42117 0.56967 0.73840
 C1640 C 0.40265 0.59212 0.74205
 C1641 C 0.40719 0.61157 0.76400
 C1642 C 0.42965 0.60771 0.78243
 C1643 C 0.44768 0.58499 0.77897
 C1644 C 0.44384 0.56604 0.75673
 C1645 C 0.38925 0.63455 0.76715
 C1646 C 0.36644 0.63796 0.74906
 C1647 C 0.36135 0.61798 0.72771
 C1648 C 0.37968 0.59537 0.72413
 C1649 C 0.33787 0.62088 0.71041
 C1650 C 0.31957 0.64333 0.71425
 C1651 C 0.32485 0.66358 0.73496
 C1652 C 0.34842 0.66087 0.75220
 H1653 H 0.41790 0.55496 0.72136
 H1654 H 0.43333 0.62232 0.79946
 H1655 H 0.46506 0.58264 0.79327
 H1656 H 0.39293 0.64966 0.78378
 H1657 H 0.37598 0.58024 0.70753
 H1658 H 0.33355 0.60568 0.69406
 H1659 H 0.30146 0.64511 0.70080
 H1660 H 0.35231 0.67626 0.76852
 C1661 C 0.92284 0.94103 0.75080
 C1662 C 0.90452 0.91840 0.75345
 C1663 C 0.90771 0.89930 0.77595
 C1664 C 0.92871 0.90380 0.79593
 C1665 C 0.94666 0.92672 0.79337
 C1666 C 0.94411 0.94523 0.77056
 C1667 C 0.88994 0.87606 0.77800
 C1668 C 0.86872 0.87205 0.75813
 C1669 C 0.86504 0.89176 0.73620
 C1670 C 0.88312 0.91461 0.73385
 C1671 C 0.84321 0.88838 0.71699
 C1672 C 0.82513 0.86569 0.71943
 C1673 C 0.82899 0.84568 0.74068
 C1674 C 0.85090 0.84883 0.75994
 H1675 H 0.92054 0.95542 0.73331
 H1676 H 0.93138 0.88950 0.81342
 H1677 H 0.96298 0.92957 0.80880
 H1678 H 0.89256 0.86120 0.79505
 H1679 H 0.88049 0.92949 0.71681
 H1680 H 0.84002 0.90338 0.70019
 H1681 H 0.80828 0.86352 0.70445
 H1682 H 0.85360 0.83359 0.77663
 C1683 C 0.42086 0.43409 0.25655
 C1684 C 0.40113 0.41275 0.26029
 C1685 C 0.40782 0.38910 0.27691
 C1686 C 0.43367 0.38793 0.29062
 C1687 C 0.45290 0.40970 0.28741
 C1688 C 0.44685 0.43260 0.26993
 C1689 C 0.38866 0.36700 0.27938
 C1690 C 0.36263 0.36864 0.26606
 C1691 C 0.35548 0.39299 0.25066
 C1692 C 0.37489 0.41469 0.24756
 C1693 C 0.32903 0.39521 0.23848
 C1694 C 0.30991 0.37337 0.24114
 C1695 C 0.31713 0.34864 0.25540
 C1696 C 0.34356 0.34637 0.26784
 H1697 H 0.41600 0.45194 0.24331
 H1698 H 0.43907 0.37012 0.30366
 H1699 H 0.47289 0.40823 0.29784
 H1700 H 0.39399 0.34860 0.29165
 H1701 H 0.36958 0.43307 0.23525
 H1702 H 0.32314 0.41381 0.22682
 H1703 H 0.28966 0.37547 0.23135
 H1704 H 0.34913 0.32743 0.27906
   
