data_POSCAR
  _audit_creation_date              2014-09-24
  _audit_creation_method            'ToBaCCo'
  _symmetry_space_group_name_H-M    'P1'
  _symmetry_Int_Tables_number       1
  _symmetry_cell_setting            triclinic
  loop_
  _symmetry_equiv_pos_as_xyz
 x,y,z
_cell_length_a 57.6427
_cell_length_b 56.3395
_cell_length_c 53.3642
_cell_angle_alpha 90.516800
_cell_angle_beta 92.089400
_cell_angle_gamma 89.442600
loop_
  _atom_site_label
  _atom_site_type_symbol
  _atom_site_fract_x
  _atom_site_fract_y
  _atom_site_fract_z
C1 C 0.37866 0.02978 0.27348
 H2 H 0.37773 0.03895 0.25574
 C3 C 0.39127 0.03949 0.29385
 H4 H 0.39987 0.05628 0.29160
 C5 C 0.36776 -0.00283 0.29796
 H6 H 0.35796 -0.01885 0.29991
 C7 C 0.38055 0.00590 0.31859
 H8 H 0.38127 -0.00444 0.33559
 N9 N 0.36787 0.00859 0.27564
 C10 C 0.36323 -0.01566 0.19788
 H11 H 0.34462 -0.01730 0.19520
 C12 C 0.37779 -0.02170 0.17843
 H13 H 0.37025 -0.02785 0.16069
 C14 C 0.39570 -0.00665 0.22471
 H15 H 0.40262 -0.00134 0.24297
 C16 C 0.41089 -0.01265 0.20584
 H17 H 0.42942 -0.01121 0.20954
 Zn18 Zn 0.35192 -0.00349 0.24680
 N19 N 0.37236 -0.00822 0.22041
 C20 C 0.32838 0.03278 0.21837
 N21 N 0.32854 0.01894 0.23911
 C22 C 0.31338 0.02272 0.25766
 C23 C 0.29760 0.04153 0.25622
 C24 C 0.31286 0.05194 0.21619
 C25 C 0.35301 -0.04994 0.26405
 C26 C 0.34399 -0.07150 0.27137
 C27 C 0.30685 -0.05962 0.25278
 C28 C 0.31637 -0.03772 0.24713
 N29 N 0.33893 -0.03315 0.25337
 H30 H 0.34097 0.02973 0.20414
 H31 H 0.31433 0.01170 0.27417
 H32 H 0.28648 0.04489 0.27181
 H33 H 0.31326 0.06329 0.19995
 H34 H 0.37123 -0.04624 0.26760
 H35 H 0.35590 -0.08427 0.27993
 H36 H 0.28857 -0.06211 0.24832
 H37 H 0.30569 -0.02433 0.23785
 C38 C 0.40196 -0.02040 0.18238
 C39 C 0.39294 0.02714 0.31664
 C40 C 0.32042 -0.07682 0.26598
 C41 C 0.29757 0.05676 0.23556
 C42 C 0.12107 0.03485 0.73213
 H43 H 0.11941 0.04489 0.74936
 C44 C 0.10928 0.04235 0.71025
 H45 H 0.09814 0.05791 0.71086
 C46 C 0.13718 0.00194 0.71067
 H47 H 0.14826 -0.01363 0.71086
 C48 C 0.12591 0.00889 0.68837
 H49 H 0.12842 -0.00155 0.67154
 N50 N 0.13409 0.01456 0.73211
 C51 C 0.13359 -0.01502 0.80694
 H52 H 0.15194 -0.01838 0.81033
 C53 C 0.11764 -0.02294 0.82400
 H54 H 0.12387 -0.03195 0.84082
 C55 C 0.10311 0.00028 0.78062
 H56 H 0.09736 0.00867 0.76338
 C57 C 0.08659 -0.00707 0.79733
 H58 H 0.06833 -0.00397 0.79294
 Zn59 Zn 0.14879 0.00464 0.76247
 N60 N 0.12615 -0.00352 0.78580
 C61 C 0.16976 0.03581 0.79895
 N62 N 0.16744 0.03004 0.77422
 C63 C 0.17741 0.04327 0.75644
 C64 C 0.18949 0.06382 0.76314
 C65 C 0.18223 0.05593 0.80656
 C66 C 0.15633 -0.04336 0.75163
 C67 C 0.16902 -0.06440 0.74906
 C68 C 0.20423 -0.04248 0.75804
 C69 C 0.19084 -0.02183 0.76047
 N70 N 0.16735 -0.02266 0.75726
 H71 H 0.16171 0.02505 0.81278
 H72 H 0.17530 0.03829 0.73688
 H73 H 0.19606 0.07466 0.74840
 H74 H 0.18397 0.06008 0.82637
 H75 H 0.13760 -0.04351 0.74935
 H76 H 0.15993 -0.08067 0.74439
 H77 H 0.22288 -0.04160 0.76106
 H78 H 0.19920 -0.00521 0.76524
 C79 C 0.09382 -0.01894 0.81926
 C80 C 0.11126 0.02900 0.68811
 C81 C 0.19329 -0.06417 0.75247
 C82 C 0.19187 0.07061 0.78851
 C83 C 0.62817 0.53139 0.21458
 H84 H 0.63738 0.54467 0.22566
 C85 C 0.61662 0.53789 0.19217
 H86 H 0.61732 0.55611 0.18597
 C87 C 0.61613 0.49150 0.20908
 H88 H 0.61593 0.47351 0.21598
 C89 C 0.60440 0.49720 0.18660
 H90 H 0.59501 0.48345 0.17634
 N91 N 0.62768 0.50853 0.22254
 C92 C 0.62797 0.48734 0.30026
 H93 H 0.64645 0.48693 0.30463
 C94 C 0.61256 0.47971 0.31788
 H95 H 0.61967 0.47320 0.33557
 C96 C 0.59698 0.49464 0.27091
 H97 H 0.59103 0.50029 0.25246
 C98 C 0.58080 0.48801 0.28837
 H99 H 0.56252 0.48930 0.28322
 Zn100 Zn 0.64270 0.49970 0.25306
 N101 N 0.62009 0.49375 0.27700
 C102 C 0.65250 0.54064 0.28141
 N103 N 0.66172 0.52529 0.26454
 C104 C 0.68145 0.53069 0.25260
 C105 C 0.69149 0.55305 0.25583
 C106 C 0.66192 0.56317 0.28508
 C107 C 0.65554 0.45179 0.26155
 C108 C 0.66788 0.43075 0.25831
 C109 C 0.68831 0.44918 0.22508
 C110 C 0.67566 0.47009 0.22918
 N111 N 0.66002 0.47126 0.24766
 H112 H 0.63652 0.53636 0.29024
 H113 H 0.68831 0.51857 0.23895
 H114 H 0.70580 0.55797 0.24439
 H115 H 0.65303 0.57603 0.29661
 H116 H 0.64225 0.45221 0.27516
 H117 H 0.66448 0.41593 0.27038
 H118 H 0.70060 0.44860 0.21023
 H119 H 0.67804 0.48521 0.21728
 C120 C 0.58851 0.48000 0.31218
 C121 C 0.60460 0.52066 0.17784
 C122 C 0.68464 0.42921 0.23999
 C123 C 0.68098 0.56988 0.27131
 C124 C 0.87719 0.53763 0.79231
 H125 H 0.86119 0.54763 0.78994
 C126 C 0.89374 0.54490 0.81046
 H127 H 0.88962 0.56024 0.82184
 C128 C 0.90040 0.50448 0.78161
 H129 H 0.90295 0.48882 0.77014
 C130 C 0.91731 0.51091 0.79973
 H131 H 0.93292 0.50014 0.80125
 N132 N 0.88072 0.51768 0.77839
 C133 C 0.85858 0.48841 0.70646
 H134 H 0.84212 0.48112 0.71153
 C135 C 0.86817 0.48173 0.68386
 H136 H 0.85880 0.46887 0.67245
 C137 C 0.89099 0.51238 0.71701
 H138 H 0.89986 0.52418 0.73019
 C139 C 0.90067 0.50720 0.69393
 H140 H 0.91664 0.51590 0.68968
 Zn141 Zn 0.85760 0.50708 0.75483
 N142 N 0.87048 0.50264 0.72295
 C143 C 0.84407 0.55133 0.74159
 N144 N 0.83481 0.53111 0.75044
 C145 C 0.81177 0.52968 0.75487
 C146 C 0.79741 0.54971 0.75171
 C147 C 0.83045 0.57155 0.73805
 C148 C 0.86057 0.45901 0.75662
 C149 C 0.85513 0.43552 0.76048
 C150 C 0.82285 0.44830 0.78493
 C151 C 0.82872 0.47199 0.78002
 N152 N 0.84700 0.47682 0.76539
 H153 H 0.86234 0.55184 0.73770
 H154 H 0.80446 0.51325 0.76092
 H155 H 0.77924 0.54860 0.75602
 H156 H 0.83833 0.58743 0.73104
 H157 H 0.87560 0.46298 0.74600
 H158 H 0.86567 0.42210 0.75161
 H159 H 0.80828 0.44466 0.79647
 H160 H 0.81881 0.48629 0.78811
 C161 C 0.88968 0.49099 0.67709
 C162 C 0.91409 0.53123 0.81497
 C163 C 0.83617 0.42964 0.77494
 C164 C 0.80690 0.57111 0.74363
 C165 C 0.21909 0.41205 0.98349
 H166 H 0.22348 0.40074 0.96788
 C167 C 0.19905 0.42626 0.98193
 H168 H 0.18824 0.42603 0.96491
 C169 C 0.22751 0.42595 1.02487
 H170 H 0.23867 0.42558 1.04160
 C171 C 0.20784 0.44043 1.02409
 H172 H 0.20377 0.45095 1.04046
 N173 N 0.23292 0.41240 1.00469
 C174 C 0.30613 0.40379 1.02139
 H175 H 0.30709 0.38478 1.02398
 C176 C 0.32630 0.41717 1.02265
 H177 H 0.34278 0.40843 1.02683
 C178 C 0.28346 0.43812 1.01177
 H179 H 0.26687 0.44599 1.00644
 C180 C 0.30324 0.45218 1.01274
 H181 H 0.30164 0.47088 1.00841
 Zn182 Zn 0.26023 0.39417 1.00919
 N183 N 0.28533 0.41437 1.01585
 C184 C 0.27044 0.39027 0.95905
 N185 N 0.26824 0.37725 0.98013
 C186 C 0.27525 0.35415 0.98113
 C187 C 0.28466 0.34321 0.96015
 C188 C 0.27951 0.38001 0.93761
 C189 C 0.26478 0.38052 1.05959
 C190 C 0.25828 0.36868 1.08102
 C191 C 0.23351 0.34349 1.05495
 C192 C 0.24021 0.35607 1.03399
 N193 N 0.25556 0.37421 1.03669
 H194 H 0.26557 0.40886 0.95909
 H195 H 0.27444 0.34448 0.99847
 H196 H 0.29059 0.32496 0.96146
 H197 H 0.28059 0.39063 0.92090
 H198 H 0.27624 0.39555 1.06143
 H199 H 0.26509 0.37432 1.09927
 H200 H 0.22089 0.32943 1.05277
 H201 H 0.23260 0.35194 1.01566
 C202 C 0.32503 0.44158 1.01770
 C203 C 0.19339 0.44082 1.00238
 C204 C 0.24234 0.35015 1.07875
 C205 C 0.28695 0.35620 0.93800
 C206 C 0.78457 0.08468 0.96277
 H207 H 0.77840 0.09105 0.94465
 C208 C 0.80626 0.07321 0.96527
 H209 H 0.81670 0.07110 0.94893
 C210 C 0.77913 0.08107 1.00636
 H211 H 0.76847 0.08426 1.02233
 C212 C 0.80086 0.07061 1.00985
 H213 H 0.80657 0.06553 1.02863
 N214 N 0.77191 0.08897 0.98340
 C215 C 0.69780 0.10008 0.99084
 H216 H 0.69604 0.11909 0.98862
 C217 C 0.67835 0.08646 0.99549
 H218 H 0.66169 0.09524 0.99719
 C219 C 0.72184 0.06571 0.99180
 H220 H 0.73878 0.05763 0.99012
 C221 C 0.70286 0.05141 0.99626
 H222 H 0.70541 0.03241 0.99775
 Zn223 Zn 0.74527 0.10869 0.98489
 N224 N 0.71908 0.08962 0.98966
 C225 C 0.74028 0.15119 0.95794
 N226 N 0.74001 0.12712 0.95573
 C227 C 0.73418 0.11632 0.93353
 C228 C 0.72823 0.12991 0.91239
 C229 C 0.73444 0.16540 0.93734
 C230 C 0.73502 0.13213 1.03113
 C231 C 0.74085 0.14484 1.05301
 C232 C 0.77921 0.15075 1.03754
 C233 C 0.77246 0.13848 1.01566
 N234 N 0.75084 0.12904 1.01305
 H235 H 0.74473 0.15948 0.97578
 H236 H 0.73372 0.09715 0.93240
 H237 H 0.72331 0.12102 0.89496
 H238 H 0.73501 0.18451 0.93950
 H239 H 0.71810 0.12420 1.02906
 H240 H 0.72826 0.14666 1.06749
 H241 H 0.79673 0.15742 1.03973
 H242 H 0.78484 0.13551 1.00118
 C243 C 0.68078 0.06178 0.99844
 C244 C 0.81530 0.06751 0.98939
 C245 C 0.76335 0.15383 1.05660
 C246 C 0.72813 0.15482 0.91420
 C247 C 0.28062 0.57994 0.46542
 H248 H 0.27041 0.58701 0.44980
 C249 C 0.30337 0.57215 0.46181
 H250 H 0.31079 0.57372 0.44355
 C251 C 0.28428 0.57080 0.50869
 H252 H 0.27699 0.57098 0.52705
 C253 C 0.30699 0.56290 0.50594
 H254 H 0.31723 0.55721 0.52226
 N255 N 0.27206 0.58028 0.48888
 C256 C 0.20324 0.58691 0.51811
 H257 H 0.20284 0.60580 0.52188
 C258 C 0.18434 0.57302 0.52377
 H259 H 0.16938 0.58131 0.53205
 C260 C 0.22305 0.55330 0.50201
 H261 H 0.23805 0.54588 0.49307
 C262 C 0.20448 0.53866 0.50750
 H263 H 0.20516 0.51999 0.50257
 Zn264 Zn 0.24518 0.59774 0.49700
 N265 N 0.22181 0.57701 0.50686
 C266 C 0.21101 0.61521 0.46188
 N267 N 0.23387 0.61604 0.46920
 C268 C 0.24894 0.62964 0.45675
 C269 C 0.24131 0.64282 0.43599
 C270 C 0.20250 0.62860 0.44159
 C271 C 0.25151 0.60870 0.54796
 C272 C 0.25788 0.62208 0.56915
 C273 C 0.26851 0.65406 0.54214
 C274 C 0.26189 0.64003 0.52139
 N275 N 0.25343 0.61783 0.52463
 H276 H 0.19921 0.60423 0.47174
 H277 H 0.26710 0.62984 0.46258
 H278 H 0.25396 0.65267 0.42594
 H279 H 0.18415 0.62802 0.43662
 H280 H 0.24513 0.59089 0.55016
 H281 H 0.25627 0.61440 0.58753
 H282 H 0.27476 0.67185 0.53926
 H283 H 0.26348 0.64700 0.50279
 C284 C 0.18460 0.54871 0.51788
 C285 C 0.31697 0.56453 0.48252
 C286 C 0.26637 0.64513 0.56641
 C287 C 0.21772 0.64260 0.42817
 C288 C 0.73028 0.93285 0.47671
 H289 H 0.74503 0.93441 0.46490
 C290 C 0.70927 0.94411 0.46999
 H291 H 0.70797 0.95452 0.45303
 C292 C 0.71372 0.91675 0.51276
 H293 H 0.71508 0.90539 0.52889
 C294 C 0.69254 0.92782 0.50688
 H295 H 0.67798 0.92489 0.51869
 N296 N 0.73213 0.91950 0.49782
 C297 C 0.80620 0.91377 0.51690
 H298 H 0.80787 0.89473 0.51894
 C299 C 0.82589 0.92791 0.51859
 H300 H 0.84267 0.91937 0.52135
 C301 C 0.78219 0.94746 0.50919
 H302 H 0.76510 0.95497 0.50554
 C303 C 0.80136 0.96237 0.51134
 H304 H 0.79869 0.98132 0.50948
 Zn305 Zn 0.76014 0.90267 0.50523
 N306 N 0.78509 0.92357 0.51111
 C307 C 0.78689 0.88145 0.46658
 N308 N 0.76593 0.88223 0.47756
 C309 C 0.74805 0.86849 0.46888
 C310 C 0.75096 0.85300 0.44864
 C311 C 0.79068 0.86589 0.44658
 C312 C 0.75303 0.89662 0.55634
 C313 C 0.74660 0.88425 0.57750
 C314 C 0.74989 0.84767 0.55382
 C315 C 0.75610 0.86072 0.53312
 N316 N 0.75663 0.88480 0.53446
 H317 H 0.80076 0.89289 0.47310
 H318 H 0.73149 0.86959 0.47777
 H319 H 0.73657 0.84216 0.44198
 H320 H 0.80743 0.86551 0.43803
 H321 H 0.75382 0.91580 0.55687
 H322 H 0.74247 0.89403 0.59435
 H323 H 0.74903 0.82852 0.55226
 H324 H 0.75968 0.85163 0.51578
 C325 C 0.82374 0.95258 0.51525
 C326 C 0.69006 0.94153 0.48515
 C327 C 0.74421 0.85951 0.57608
 C328 C 0.77254 0.85151 0.43736
 C329 C 0.00949 0.27693 0.41385
 H330 H 0.02255 0.26357 0.41833
 C331 C 0.00631 0.29613 0.43023
 H332 H 0.01711 0.29742 0.44721
 C333 C -0.02028 0.29157 0.38624
 H334 H -0.03076 0.28973 0.36918
 C335 C -0.02382 0.31123 0.40194
 H336 H -0.03713 0.32418 0.39684
 N337 N -0.00377 0.27492 0.39234
 C338 C 0.02618 0.20675 0.38461
 H339 H 0.03618 0.21105 0.36860
 C340 C 0.03240 0.18683 0.39874
 H341 H 0.04655 0.17609 0.39207
 C342 C -0.00521 0.21500 0.41062
 H343 H -0.01976 0.22627 0.41528
 C344 C 0.00054 0.19520 0.42554
 H345 H -0.00972 0.19212 0.44172
 Zn346 Zn 0.00125 0.24818 0.37079
 N347 N 0.00771 0.22050 0.39067
 C348 C 0.02933 0.24107 0.32901
 N349 N 0.02725 0.25401 0.35048
 C350 C 0.04359 0.27024 0.35768
 C351 C 0.06305 0.27374 0.34321
 C352 C 0.04842 0.24408 0.31395
 C353 C -0.04032 0.22520 0.35264
 C354 C -0.05987 0.22214 0.33658
 C355 C -0.04825 0.25623 0.31320
 C356 C -0.02902 0.25869 0.32972
 N357 N -0.02546 0.24341 0.34910
 H358 H 0.01626 0.22812 0.32375
 H359 H 0.04169 0.28034 0.37480
 H360 H 0.07581 0.28676 0.34925
 H361 H 0.04989 0.23322 0.29724
 H362 H -0.03710 0.21307 0.36798
 H363 H -0.07145 0.20753 0.33970
 H364 H -0.05090 0.26894 0.29824
 H365 H -0.01690 0.27292 0.32714
 C366 C 0.01993 0.18069 0.42007
 C367 C -0.01052 0.31363 0.42436
 C368 C -0.06408 0.23780 0.31650
 C369 C 0.06569 0.26057 0.32098
 C370 C 0.00052 0.71995 0.09545
 H371 H 0.01600 0.73064 0.09603
 C372 C -0.00049 0.69975 0.07999
 H373 H 0.01446 0.69475 0.06936
 C374 C -0.03843 0.71474 0.10648
 H375 H -0.05365 0.72118 0.11564
 C376 C -0.04030 0.69461 0.09102
 H377 H -0.05665 0.68532 0.08951
 N378 N -0.01799 0.72662 0.10915
 C379 C -0.00926 0.80378 0.11421
 H380 H -0.00494 0.80728 0.13374
 C381 C -0.00904 0.82248 0.09704
 H382 H -0.00505 0.84015 0.10390
 C383 C -0.02030 0.77684 0.08183
 H384 H -0.02495 0.75913 0.07577
 C385 C -0.01990 0.79486 0.06403
 H386 H -0.02369 0.79037 0.04456
 Zn387 Zn -0.01588 0.75522 0.12939
 N388 N -0.01505 0.78143 0.10647
 C389 C 0.01209 0.77253 0.16937
 N390 N 0.01147 0.75537 0.15126
 C391 C 0.02925 0.73937 0.14971
 C392 C 0.04911 0.74132 0.16553
 C393 C 0.03122 0.77466 0.18604
 C394 C -0.05012 0.78045 0.15661
 C395 C -0.06761 0.78347 0.17391
 C396 C -0.06948 0.74094 0.17766
 C397 C -0.05082 0.73891 0.16169
 N398 N -0.04202 0.75842 0.15072
 H399 H -0.00244 0.78461 0.17108
 H400 H 0.02838 0.72513 0.13614
 H401 H 0.06333 0.72901 0.16284
 H402 H 0.03071 0.78826 0.20044
 H403 H -0.04277 0.79589 0.14826
 H404 H -0.07361 0.80138 0.17754
 H405 H -0.07580 0.72486 0.18589
 H406 H -0.04324 0.72162 0.15823
 C407 C -0.01443 0.81820 0.07145
 C408 C -0.02109 0.68670 0.07773
 C409 C -0.07813 0.76355 0.18456
 C410 C 0.05052 0.75935 0.18396
 C411 C 0.51777 0.21935 0.58701
 H412 H 0.53092 0.23286 0.58613
 C413 C 0.51817 0.19992 0.57063
 H414 H 0.53200 0.19836 0.55752
 C415 C 0.48383 0.20509 0.60530
 H416 H 0.47055 0.20700 0.61890
 C417 C 0.48350 0.18542 0.58920
 H418 H 0.46960 0.17273 0.59032
 N419 N 0.50032 0.22202 0.60330
 C420 C 0.49068 0.29862 0.60846
 H421 H 0.49173 0.30146 0.62854
 C422 C 0.48700 0.31787 0.59243
 H423 H 0.48519 0.33550 0.60038
 C424 C 0.49117 0.27210 0.57381
 H425 H 0.49243 0.25424 0.56650
 C426 C 0.48752 0.29082 0.55711
 H427 H 0.48670 0.28712 0.53715
 Zn428 Zn 0.49936 0.25097 0.62165
 N429 N 0.49334 0.27633 0.59895
 C430 C 0.54076 0.27512 0.63836
 N431 N 0.52857 0.25458 0.63913
 C432 C 0.53679 0.23573 0.65265
 C433 C 0.55788 0.23719 0.66638
 C434 C 0.56164 0.27752 0.65228
 C435 C 0.45298 0.24747 0.63632
 C436 C 0.43487 0.24720 0.65301
 C437 C 0.46249 0.25634 0.68671
 C438 C 0.48017 0.25562 0.66950
 N439 N 0.47520 0.25101 0.64485
 H440 H 0.53424 0.28979 0.62724
 H441 H 0.52683 0.21957 0.65288
 H442 H 0.56411 0.22215 0.67727
 H443 H 0.57098 0.29408 0.65188
 H444 H 0.44937 0.24446 0.61652
 H445 H 0.41761 0.24316 0.64571
 H446 H 0.46700 0.26081 0.70601
 H447 H 0.49784 0.25914 0.67582
 C448 C 0.48579 0.31413 0.56632
 C449 C 0.50052 0.18294 0.57117
 C450 C 0.43939 0.25172 0.67872
 C451 C 0.57035 0.25841 0.66651
 C452 C 0.51006 0.77802 0.90886
 H453 H 0.52535 0.76672 0.90995
 C454 C 0.50794 0.79710 0.92556
 H455 H 0.52166 0.80041 0.93952
 C456 C 0.47371 0.78761 0.88918
 H457 H 0.46046 0.78393 0.87487
 C458 C 0.47110 0.80719 0.90521
 H459 H 0.45568 0.81826 0.90334
 N460 N 0.49285 0.77331 0.89146
 C461 C 0.50568 0.69824 0.87438
 H462 H 0.50475 0.69919 0.85413
 C463 C 0.51131 0.67676 0.88603
 H464 H 0.51466 0.66123 0.87458
 C465 C 0.50259 0.71742 0.91380
 H466 H 0.49905 0.73327 0.92458
 C467 C 0.50789 0.69611 0.92628
 H468 H 0.50883 0.69585 0.94658
 Zn469 Zn 0.49662 0.74674 0.86960
 N470 N 0.50219 0.71824 0.88825
 C471 C 0.54214 0.73923 0.85203
 N472 N 0.52256 0.75280 0.84923
 C473 C 0.52167 0.77136 0.83305
 C474 C 0.54069 0.77639 0.81840
 C475 C 0.56152 0.74366 0.83785
 C476 C 0.45019 0.73568 0.86350
 C477 C 0.42901 0.73017 0.85150
 C478 C 0.44589 0.73782 0.81167
 C479 C 0.46697 0.74305 0.82450
 N480 N 0.46871 0.74184 0.85001
 H481 H 0.54298 0.72505 0.86551
 H482 H 0.50618 0.78233 0.83157
 H483 H 0.53962 0.79128 0.80572
 H484 H 0.57669 0.73230 0.84015
 H485 H 0.45203 0.73473 0.88372
 H486 H 0.41458 0.72518 0.86271
 H487 H 0.44483 0.73839 0.79138
 H488 H 0.48196 0.74760 0.81403
 C489 C 0.51290 0.67558 0.91231
 C490 C 0.48821 0.81191 0.92391
 C491 C 0.42669 0.73088 0.82523
 C492 C 0.56101 0.76242 0.82067
 C493 C -0.22473 0.64509 0.97136
 H494 H -0.21309 0.64681 0.98763
 C495 C -0.22003 0.65702 0.94943
 H496 H -0.20495 0.66830 0.94902
 C497 C -0.25837 0.62791 0.95213
 H498 H -0.27279 0.61591 0.95295
 C499 C -0.25441 0.63968 0.92980
 H500 H -0.26606 0.63689 0.91369
 N501 N -0.24368 0.63100 0.97240
 C502 C -0.25165 0.62631 1.05284
 H503 H -0.24930 0.60744 1.05572
 C504 C -0.25780 0.64103 1.07276
 H505 H -0.26036 0.63273 1.09061
 C506 C -0.25327 0.65879 1.02506
 H507 H -0.25206 0.66560 1.00632
 C508 C -0.25927 0.67420 1.04439
 H509 H -0.26118 0.69280 1.03993
 Zn510 Zn -0.24583 0.61412 1.00252
 N511 N -0.24971 0.63533 1.02954
 C512 C -0.19948 0.60146 1.02005
 N513 N -0.21816 0.59649 1.00468
 C514 C -0.21713 0.57968 0.98640
 C515 C -0.19702 0.56658 0.98325
 C516 C -0.17839 0.58943 1.01671
 C517 C -0.29263 0.60173 0.99517
 C518 C -0.31147 0.58644 0.99297
 C519 C -0.28606 0.55391 1.00542
 C520 C -0.26775 0.56984 1.00748
 N521 N -0.27115 0.59310 1.00151
 H522 H -0.20059 0.61553 1.03389
 H523 H -0.23205 0.57665 0.97394
 H524 H -0.19722 0.55276 0.96905
 H525 H -0.16331 0.59447 1.02813
 H526 H -0.29500 0.62044 0.99136
 H527 H -0.32836 0.59346 0.98718
 H528 H -0.28306 0.53544 1.01010
 H529 H -0.25086 0.56354 1.01397
 C530 C -0.26208 0.66553 1.06884
 C531 C -0.23493 0.65431 0.92828
 C532 C -0.30816 0.56214 0.99780
 C533 C -0.17689 0.57199 0.99770
 C534 C -0.21131 0.35858 0.52406
 H535 H -0.20194 0.35865 0.50686
 C536 C -0.20278 0.34660 0.54396
 H537 H -0.18625 0.33753 0.54255
 C538 C -0.24372 0.37308 0.54627
 H539 H -0.25950 0.38349 0.54723
 C540 C -0.23488 0.36046 0.56875
 H541 H -0.24559 0.36107 0.58496
 N542 N -0.23291 0.37141 0.52535
 C543 C -0.25641 0.37605 0.44663
 H544 H -0.25995 0.39491 0.44541
 C545 C -0.26110 0.36134 0.42588
 H546 H -0.26817 0.36903 0.40869
 C547 C -0.24407 0.34302 0.47102
 H548 H -0.23810 0.33582 0.48881
 C549 C -0.24863 0.32766 0.45080
 H550 H -0.24542 0.30883 0.45311
 Zn551 Zn -0.24484 0.38755 0.49662
 N552 N -0.24796 0.36675 0.46861
 C553 C -0.21207 0.41300 0.46915
 N554 N -0.22425 0.41229 0.49048
 C555 C -0.22019 0.42793 0.50961
 C556 C -0.20277 0.44477 0.50809
 C557 C -0.19452 0.42965 0.46679
 C558 C -0.29063 0.38179 0.50603
 C559 C -0.31408 0.38728 0.50739
 C560 C -0.30504 0.42871 0.50233
 C561 C -0.28155 0.42232 0.50095
 N562 N -0.27499 0.39910 0.50234
 H563 H -0.21522 0.40006 0.45441
 H564 H -0.22985 0.42659 0.52654
 H565 H -0.19905 0.45623 0.52410
 H566 H -0.18463 0.42969 0.44991
 H567 H -0.28483 0.36351 0.50730
 H568 H -0.32584 0.37290 0.51072
 H569 H -0.30984 0.44716 0.49975
 H570 H -0.26879 0.43577 0.49770
 C571 C -0.25747 0.33676 0.42792
 C572 C -0.21540 0.34694 0.56789
 C573 C -0.32195 0.41093 0.50449
 C574 C -0.18933 0.44545 0.48668
 C575 C 0.25034 -0.16140 0.03696
 H576 H 0.24424 -0.17205 0.02118
 C577 C 0.25519 -0.17171 0.05901
 H578 H 0.25319 -0.19072 0.06037
 C579 C 0.26178 -0.12330 0.05253
 H580 H 0.26452 -0.10456 0.04972
 C581 C 0.26790 -0.13395 0.07702
 H582 H 0.27392 -0.12221 0.09199
 N583 N 0.25367 -0.13637 0.03408
 C584 C 0.25745 -0.14407 -0.04357
 H585 H 0.27273 -0.13316 -0.04376
 C586 C 0.25107 -0.15730 -0.06485
 H587 H 0.26179 -0.15653 -0.08104
 C588 C 0.22375 -0.15635 -0.02331
 H589 H 0.21278 -0.15511 -0.00732
 C590 C 0.21673 -0.16994 -0.04422
 H591 H 0.20069 -0.17975 -0.04387
 Zn592 Zn 0.24922 -0.12155 0.00287
 N593 N 0.24379 -0.14376 -0.02337
 C594 C 0.29682 -0.11411 -0.00386
 N595 N 0.27580 -0.10313 -0.00244
 C596 C 0.27380 -0.07907 -0.00285
 C597 C 0.29341 -0.06506 -0.00500
 C598 C 0.31688 -0.10078 -0.00644
 C599 C 0.20861 -0.09794 0.02127
 C600 C 0.18790 -0.08505 0.01737
 C601 C 0.19711 -0.08111 -0.02620
 C602 C 0.21756 -0.09362 -0.02135
 N603 N 0.22281 -0.10193 0.00191
 H604 H 0.29797 -0.13326 -0.00294
 H605 H 0.25706 -0.07063 -0.00083
 H606 H 0.29139 -0.04595 -0.00451
 H607 H 0.33335 -0.10994 -0.00810
 H608 H 0.21314 -0.10500 0.03960
 H609 H 0.17734 -0.08174 0.03337
 H610 H 0.19326 -0.07657 -0.04553
 H611 H 0.22901 -0.09758 -0.03648
 C612 C 0.23037 -0.17035 -0.06546
 C613 C 0.26467 -0.15736 0.08061
 C614 C 0.18159 -0.07644 -0.00681
 C615 C 0.31537 -0.07585 -0.00689
 C616 C 0.25495 1.16212 0.48526
 H617 H 0.25277 1.17312 0.50178
 C618 C 0.25906 1.17269 0.46212
 H619 H 0.25982 1.19188 0.46090
 C620 C 0.25745 1.12378 0.46671
 H621 H 0.25729 1.10465 0.46879
 C622 C 0.26186 1.13350 0.44350
 H623 H 0.26450 1.12171 0.42766
 N624 N 0.25487 1.13802 0.48715
 C625 C 0.22934 1.15488 0.54650
 H626 H 0.21929 1.15814 0.52938
 C627 C 0.22248 1.16544 0.56897
 H628 H 0.20717 1.17672 0.56907
 C629 C 0.26140 1.13630 0.56758
 H630 H 0.27654 1.12496 0.56723
 C631 C 0.25496 1.14615 0.59040
 H632 H 0.26520 1.14231 0.60733
 Zn633 Zn 0.25432 1.12077 0.51745
 N634 N 0.24815 1.14000 0.54630
 C635 C 0.28707 1.08784 0.53909
 N636 N 0.28372 1.10520 0.52173
 C637 C 0.30087 1.11102 0.50610
 C638 C 0.32153 1.09801 0.50612
 C639 C 0.30771 1.07465 0.54011
 C640 C 0.20829 1.10603 0.51100
 C641 C 0.18979 1.09032 0.50902
 C642 C 0.21718 1.05763 0.51032
 C643 C 0.23522 1.07403 0.51233
 N644 N 0.23049 1.09777 0.51331
 H645 H 0.27337 1.08370 0.55163
 H646 H 0.29839 1.12538 0.49300
 H647 H 0.33417 1.10215 0.49236
 H648 H 0.30983 1.06078 0.55392
 H649 H 0.20487 1.12487 0.51067
 H650 H 0.17225 1.09734 0.50731
 H651 H 0.22121 1.03881 0.51021
 H652 H 0.25292 1.06764 0.51302
 C653 C 0.23501 1.16040 0.59130
 C654 C 0.26336 1.15824 0.44108
 C655 C 0.19410 1.06577 0.50911
 C656 C 0.32503 1.07916 0.52291
 C657 C 0.16834 0.47575 0.26725
 H658 H 0.17379 0.49397 0.26580
 C659 C 0.18506 0.45778 0.26977
 H660 H 0.20326 0.46241 0.27065
 C661 C 0.13815 0.44745 0.26668
 H662 H 0.11984 0.44354 0.26443
 C663 C 0.15426 0.42894 0.26923
 H664 H 0.14813 0.41083 0.26896
 N665 N 0.14541 0.47029 0.26552
 C666 C 0.13961 0.52903 0.22451
 H667 H 0.13242 0.51813 0.20955
 C668 C 0.14994 0.55042 0.21861
 H669 H 0.15111 0.55498 0.19906
 C670 C 0.14751 0.53585 0.26779
 H671 H 0.14646 0.53001 0.28697
 C672 C 0.15711 0.55786 0.26281
 H673 H 0.16280 0.56885 0.27851
 Zn674 Zn 0.12313 0.49393 0.25748
 N675 N 0.13844 0.52220 0.24880
 C676 C 0.09658 0.52340 0.28829
 N677 N 0.10433 0.50072 0.28515
 C678 C 0.09984 0.48367 0.30210
 C679 C 0.08777 0.48933 0.32359
 C680 C 0.08504 0.52999 0.30983
 C681 C 0.11599 0.47535 0.20922
 C682 C 0.10342 0.46932 0.18733
 C683 C 0.06801 0.47544 0.20947
 C684 C 0.08137 0.48220 0.23069
 N685 N 0.10486 0.48270 0.22991
 H686 H 0.09996 0.53662 0.27436
 H687 H 0.10585 0.46569 0.29919
 H688 H 0.08422 0.47529 0.33656
 H689 H 0.08023 0.54844 0.31235
 H690 H 0.13477 0.47494 0.20949
 H691 H 0.11315 0.46363 0.17136
 H692 H 0.04937 0.47678 0.21071
 H693 H 0.07292 0.48776 0.24755
 C694 C 0.15829 0.56559 0.23788
 C695 C 0.17810 0.43397 0.27028
 C696 C 0.07886 0.46980 0.18672
 C697 C 0.08066 0.51292 0.32809
 C698 C -0.13434 1.03471 0.26952
 H699 H -0.12771 1.02788 0.28722
 C700 C -0.14959 1.05421 0.26922
 H701 H -0.15473 1.06212 0.28676
 C702 C -0.13639 1.03254 0.22512
 H703 H -0.13137 1.02380 0.20799
 C704 C -0.15169 1.05176 0.22397
 H705 H -0.15818 1.05792 0.20584
 N706 N -0.12873 1.02384 0.24763
 C707 C -0.12463 0.94743 0.24032
 H708 H -0.10676 0.94411 0.24625
 C709 C -0.14017 0.92859 0.23809
 H710 H -0.13416 0.91081 0.24257
 C711 C -0.15464 0.97496 0.22955
 H712 H -0.16048 0.99302 0.22689
 C713 C -0.17063 0.95669 0.22678
 H714 H -0.18854 0.96096 0.22167
 Zn715 Zn -0.11171 0.99501 0.24575
 N716 N -0.13223 0.97013 0.23675
 C717 C -0.11060 0.98303 0.29656
 N718 N -0.09714 0.98660 0.27656
 C719 C -0.07389 0.98210 0.27785
 C720 C -0.06317 0.97442 0.30022
 C721 C -0.10052 0.97584 0.31943
 C722 C -0.09062 0.98497 0.20040
 C723 C -0.07650 0.98962 0.18050
 C724 C -0.05953 1.02222 0.20428
 C725 C -0.07426 1.01705 0.22369
 N726 N -0.08958 0.99892 0.22122
 H727 H -0.12918 0.98575 0.29471
 H728 H -0.06366 0.98419 0.26147
 H729 H -0.04458 0.97133 0.30121
 H730 H -0.11126 0.97360 0.33546
 H731 H -0.10288 0.97059 0.19891
 H732 H -0.07763 0.97783 0.16440
 H733 H -0.04837 1.03748 0.20641
 H734 H -0.07405 1.02800 0.24045
 C735 C -0.16368 0.93327 0.23206
 C736 C -0.15901 1.06240 0.24622
 C737 C -0.06106 1.00896 0.18176
 C738 C -0.07655 0.97155 0.32135
 C739 C 0.34223 0.52401 -0.23607
 H740 H 0.34411 0.50962 -0.22284
 C741 C 0.32598 0.54221 -0.23214
 H742 H 0.31591 0.54196 -0.21544
 C743 C 0.35346 0.54192 -0.27362
 H744 H 0.36417 0.54218 -0.28968
 C745 C 0.33710 0.55992 -0.27085
 H746 H 0.33529 0.57302 -0.28550
 N747 N 0.35537 0.52402 -0.25678
 C748 C 0.36781 0.45045 -0.28401
 H749 H 0.38635 0.45017 -0.28653
 C750 C 0.35522 0.43101 -0.28903
 H751 H 0.36393 0.41545 -0.29628
 C752 C 0.33443 0.47329 -0.27387
 H753 H 0.32632 0.48948 -0.26752
 C754 C 0.31988 0.45244 -0.27912
 H755 H 0.30177 0.45442 -0.27499
 Zn756 Zn 0.37516 0.49767 -0.26372
 N757 N 0.35685 0.47172 -0.27496
 C758 C 0.39313 0.46632 -0.22649
 N759 N 0.39229 0.48932 -0.23409
 C760 C 0.40326 0.50671 -0.22051
 C761 C 0.41582 0.50116 -0.19840
 C762 C 0.40587 0.45994 -0.20484
 C763 C 0.38536 0.50901 -0.31266
 C764 C 0.39866 0.51636 -0.33234
 C765 C 0.43283 0.51378 -0.30490
 C766 C 0.41864 0.50730 -0.28540
 N767 N 0.39532 0.50537 -0.28956
 H768 H 0.38399 0.45278 -0.23716
 H769 H 0.40218 0.52488 -0.22686
 H770 H 0.42458 0.51511 -0.18777
 H771 H 0.40651 0.44154 -0.19912
 H772 H 0.36680 0.50695 -0.31556
 H773 H 0.38983 0.52039 -0.35003
 H774 H 0.45138 0.51457 -0.30125
 H775 H 0.42629 0.50380 -0.26700
 C776 C 0.32965 0.43136 -0.28540
 C777 C 0.32304 0.56044 -0.24987
 C778 C 0.42286 0.51869 -0.32881
 C779 C 0.41734 0.47748 -0.19053
 C780 C 0.66357 -0.01225 -0.22790
 H781 H 0.67047 0.00539 -0.22503
 C782 C 0.67710 -0.03129 -0.22320
 H783 H 0.69500 -0.02836 -0.21736
 C784 C 0.63087 -0.03613 -0.23912
 H785 H 0.61305 -0.03796 -0.24580
 C786 C 0.64496 -0.05752 -0.23408
 H787 H 0.63629 -0.07439 -0.23601
 N788 N 0.64002 -0.01518 -0.23711
 C789 C 0.62674 0.05862 -0.25770
 H790 H 0.60887 0.06011 -0.25234
 C791 C 0.63865 0.07898 -0.26417
 H792 H 0.62956 0.09587 -0.26363
 C793 C 0.65909 0.03440 -0.26690
 H794 H 0.66685 0.01694 -0.26843
 C795 C 0.67144 0.05416 -0.27428
 H796 H 0.68900 0.05136 -0.28021
 Zn797 Zn 0.62050 0.00994 -0.24853
 N798 N 0.63744 0.03700 -0.25798
 C799 C 0.60563 0.03659 -0.20700
 N800 N 0.60047 0.01758 -0.22206
 C801 C 0.58318 0.00246 -0.21644
 C802 C 0.56996 0.00658 -0.19536
 C803 C 0.59263 0.04159 -0.18605
 C804 C 0.61937 -0.00985 -0.29565
 C805 C 0.61051 -0.01913 -0.31826
 C806 C 0.57181 -0.01086 -0.30437
 C807 C 0.58148 -0.00161 -0.28194
 N808 N 0.60492 -0.00133 -0.27806
 H809 H 0.62048 0.04742 -0.21053
 H810 H 0.58005 -0.01318 -0.22791
 H811 H 0.55644 -0.00575 -0.19096
 H812 H 0.59731 0.05655 -0.17407
 H813 H 0.63795 -0.00942 -0.29207
 H814 H 0.62246 -0.02515 -0.33221
 H815 H 0.55312 -0.01099 -0.30718
 H816 H 0.57027 0.00549 -0.26786
 C817 C 0.66150 0.07709 -0.27251
 C818 C 0.66770 -0.05573 -0.22729
 C819 C 0.58643 -0.01967 -0.32296
 C820 C 0.57472 0.02635 -0.17986
 C821 C 0.04050 0.26322 0.83610
 H822 H 0.02928 0.27868 0.83463
 C823 C 0.06181 0.26303 0.82451
 H824 H 0.06714 0.27858 0.81449
 C825 C 0.04844 0.22523 0.85329
 H826 H 0.04369 0.21092 0.86532
 C827 C 0.06989 0.22428 0.84189
 H828 H 0.08158 0.20946 0.84560
 N829 N 0.03446 0.24477 0.85068
 C830 C -0.04050 0.24865 0.85884
 H831 H -0.04146 0.24944 0.87904
 C832 C -0.06075 0.24594 0.84392
 H833 H -0.07718 0.24460 0.85295
 C834 C -0.01760 0.24785 0.82288
 H835 H -0.00073 0.24805 0.81473
 C836 C -0.03741 0.24543 0.80725
 H837 H -0.03546 0.24453 0.78717
 Zn838 Zn 0.00744 0.24906 0.86968
 N839 N -0.01945 0.24934 0.84818
 C840 C -0.00507 0.29594 0.88680
 N841 N 0.01094 0.27804 0.88817
 C842 C 0.03049 0.28002 0.90309
 C843 C 0.03412 0.30012 0.91819
 C844 C -0.00201 0.31653 0.90148
 C845 C 0.00182 0.20128 0.88274
 C846 C 0.00036 0.18189 0.89871
 C847 C 0.00250 0.20889 0.93410
 C848 C 0.00414 0.22773 0.91746
 N849 N 0.00434 0.22359 0.89231
 H850 H -0.02034 0.29418 0.87458
 H851 H 0.04312 0.26568 0.90355
 H852 H 0.04971 0.30118 0.93007
 H853 H -0.01517 0.33038 0.90058
 H854 H 0.00150 0.19852 0.86264
 H855 H -0.00056 0.16421 0.89066
 H856 H 0.00244 0.21260 0.95404
 H857 H 0.00526 0.24564 0.92475
 C858 C -0.05939 0.24408 0.81769
 C859 C 0.07700 0.24366 0.82795
 C860 C 0.00100 0.18553 0.92482
 C861 C 0.01765 0.31866 0.91774
 C862 C 0.45991 0.26322 0.16910
 H863 H 0.47087 0.27869 0.17044
 C864 C 0.44093 0.26143 0.18463
 H865 H 0.43752 0.27556 0.19792
 C866 C 0.45085 0.22622 0.15003
 H867 H 0.45468 0.21249 0.13650
 C868 C 0.43136 0.22398 0.16480
 H869 H 0.42058 0.20841 0.16265
 N870 N 0.46496 0.24543 0.15268
 C871 C 0.54062 0.24697 0.14219
 H872 H 0.54068 0.24372 0.12218
 C873 C 0.56168 0.24756 0.15618
 H874 H 0.57766 0.24432 0.14664
 C875 C 0.51951 0.25381 0.17874
 H876 H 0.50316 0.25588 0.18772
 C877 C 0.54015 0.25506 0.19334
 H878 H 0.53903 0.25876 0.21318
 Zn879 Zn 0.49204 0.24781 0.13278
 N880 N 0.52001 0.24998 0.15355
 C881 C 0.50530 0.29276 0.11416
 N882 N 0.48902 0.27541 0.11219
 C883 C 0.47038 0.27758 0.09596
 C884 C 0.46800 0.29737 0.08032
 C885 C 0.50350 0.31291 0.09901
 C886 C 0.50075 0.19961 0.12561
 C887 C 0.50516 0.17838 0.11290
 C888 C 0.49683 0.19828 0.07367
 C889 C 0.49286 0.21936 0.08719
 N890 N 0.49501 0.21967 0.11273
 H891 H 0.51983 0.29098 0.12738
 H892 H 0.45744 0.26379 0.09497
 H893 H 0.45309 0.29862 0.06744
 H894 H 0.51696 0.32618 0.10051
 H895 H 0.50245 0.20029 0.14586
 H896 H 0.51024 0.16276 0.12351
 H897 H 0.49565 0.19837 0.05338
 H898 H 0.48858 0.23548 0.07718
 C899 C 0.56177 0.25160 0.18226
 C900 C 0.42644 0.24152 0.18274
 C901 C 0.50351 0.17758 0.08659
 C902 C 0.48479 0.31534 0.08157
 C903 C -0.03874 0.76837 0.66998
 H904 H -0.02576 0.78211 0.67158
 C905 C -0.05709 0.76910 0.68465
 H906 H -0.05861 0.78403 0.69738
 C907 C -0.05225 0.73369 0.64850
 H908 H -0.05059 0.72026 0.63407
 C909 C -0.07300 0.73387 0.66415
 H910 H -0.08523 0.71958 0.66135
 N911 N -0.03629 0.74977 0.65169
 C912 C 0.03714 0.75831 0.63548
 H913 H 0.03497 0.75907 0.61528
 C914 C 0.05900 0.76198 0.64687
 H915 H 0.07357 0.76557 0.63526
 C916 C 0.02068 0.75291 0.67502
 H917 H 0.00567 0.74933 0.68589
 C918 C 0.04247 0.75617 0.68724
 H919 H 0.04402 0.75547 0.70750
 Zn920 Zn -0.01024 0.75105 0.63056
 N921 N 0.01839 0.75441 0.64956
 C922 C -0.00433 0.79882 0.61798
 N923 N -0.01435 0.77833 0.60966
 C924 C -0.02774 0.77793 0.58812
 C925 C -0.03009 0.79825 0.57321
 C926 C -0.00681 0.81966 0.60412
 C927 C -0.00494 0.70243 0.62646
 C928 C -0.00003 0.68036 0.61577
 C929 C -0.00005 0.69876 0.57510
 C930 C -0.00473 0.72068 0.58667
 N931 N -0.00712 0.72211 0.61198
 H932 H 0.00539 0.79912 0.63568
 H933 H -0.03653 0.76182 0.58234
 H934 H -0.03998 0.79697 0.55566
 H935 H 0.00093 0.83567 0.61180
 H936 H -0.00640 0.70406 0.64656
 H937 H 0.00204 0.66502 0.62776
 H938 H 0.00245 0.69795 0.55510
 H939 H -0.00538 0.73654 0.57548
 C940 C 0.06187 0.76124 0.67308
 C941 C -0.07561 0.75070 0.68210
 C942 C 0.00282 0.67836 0.58983
 C943 C -0.01946 0.81964 0.58103
 C944 C 0.52101 0.76503 0.31914
 H945 H 0.50714 0.77810 0.31803
 C946 C 0.53967 0.76657 0.30321
 H947 H 0.54006 0.78118 0.29021
 C948 C 0.53776 0.73103 0.33859
 H949 H 0.53717 0.71737 0.35260
 C950 C 0.55645 0.73160 0.32271
 H951 H 0.56970 0.71791 0.32449
 N952 N 0.52066 0.74778 0.33679
 C953 C 0.46629 0.73053 0.32108
 H954 H 0.48159 0.72054 0.31614
 C955 C 0.44559 0.72764 0.30695
 H956 H 0.44537 0.71547 0.29115
 C957 C 0.44854 0.75922 0.34694
 H958 H 0.44965 0.77173 0.36231
 C959 C 0.42738 0.75660 0.33357
 H960 H 0.41249 0.76674 0.33951
 Zn961 Zn 0.49619 0.74764 0.35972
 N962 N 0.46737 0.74584 0.34094
 C963 C 0.48225 0.77853 0.39863
 N964 N 0.49766 0.77566 0.38007
 C965 C 0.51496 0.79156 0.37715
 C966 C 0.51712 0.81131 0.39303
 C967 C 0.48381 0.79799 0.41496
 C968 C 0.49660 0.69854 0.37155
 C969 C 0.49991 0.67866 0.38682
 C970 C 0.50962 0.70476 0.42164
 C971 C 0.50645 0.72410 0.40565
 N972 N 0.49986 0.72077 0.38112
 H973 H 0.46909 0.76531 0.40118
 H974 H 0.52753 0.78874 0.36290
 H975 H 0.53126 0.82350 0.39064
 H976 H 0.47129 0.79996 0.42949
 H977 H 0.49178 0.69618 0.35195
 H978 H 0.49774 0.66118 0.37855
 H979 H 0.51434 0.70804 0.44117
 H980 H 0.50955 0.74175 0.41294
 C981 C 0.42555 0.74044 0.31336
 C982 C 0.55795 0.74987 0.30506
 C983 C 0.50644 0.68158 0.41233
 C984 C 0.50149 0.81466 0.41234
 B985 B -0.00480 0.00999 1.01553
 B986 B -0.02539 0.01027 0.99219
 B987 B -0.00129 0.02614 0.98954
 B988 B 0.02148 0.01109 1.00255
 B989 B 0.01105 -0.01484 1.01351
 B990 B -0.01835 -0.01536 1.00708
 B991 B 0.00335 -0.01444 0.96269
 B992 B 0.02399 -0.01398 0.98566
 B993 B -0.00018 -0.03034 0.98887
 B994 B -0.02299 -0.01520 0.97539
 B995 B -0.01251 0.01077 0.96448
 B996 B 0.01654 0.01146 0.97087
 B997 B 0.49379 0.51158 0.51214
 B998 B 0.47726 0.51204 0.48562
 B999 B 0.50360 0.52462 0.48636
 B1000 B 0.52191 0.50801 0.50475
 B1001 B 0.50630 0.48478 0.51509
 B1002 B 0.47850 0.48730 0.50313
 B1003 B 0.50709 0.48184 0.46389
 B1004 B 0.52355 0.48120 0.49048
 B1005 B 0.49712 0.46882 0.48967
 B1006 B 0.47900 0.48534 0.47126
 B1007 B 0.49455 0.50866 0.46096
 B1008 B 0.52237 0.50610 0.47293
 B1009 B 0.51622 0.98781 0.51060
 B1010 B 0.52869 0.99243 0.48303
 B1011 B 0.50714 0.97276 0.48473
 B1012 B 0.48772 0.98316 0.50494
 B1013 B 0.49712 1.01003 0.51551
 B1014 B 0.52307 1.01562 0.50227
 B1015 B 0.48916 1.01327 0.46515
 B1016 B 0.47665 1.00840 0.49248
 B1017 B 0.49835 1.02822 0.49088
 B1018 B 0.51797 1.01771 0.47076
 B1019 B 0.50789 0.99108 0.45982
 B1020 B 0.48237 0.98529 0.47334
 B1021 B 0.01523 0.49082 1.02073
 B1022 B 0.03425 0.49900 0.99911
 B1023 B 0.01503 0.47716 0.99250
 B1024 B -0.01029 0.48421 1.00581
 B1025 B -0.00660 0.51087 1.02085
 B1026 B 0.02112 0.51978 1.01686
 B1027 B -0.00074 0.51756 0.97065
 B1028 B -0.01978 0.50934 0.99216
 B1029 B -0.00086 0.53124 0.99896
 B1030 B 0.02455 0.52437 0.98556
 B1031 B 0.02105 0.49760 0.97061
 B1032 B -0.00675 0.48857 0.97480
 B1033 B 0.01094 0.50752 0.48891
 B1034 B 0.02468 0.49684 0.51478
 B1035 B 0.00711 0.52073 0.51698
 B1036 B -0.01566 0.51714 0.49641
 B1037 B -0.01197 0.49032 0.48165
 B1038 B 0.01327 0.47784 0.49333
 B1039 B -0.01652 0.48255 0.53177
 B1040 B -0.02988 0.49322 0.50566
 B1041 B -0.01223 0.46910 0.50398
 B1042 B 0.01035 0.47283 0.52459
 B1043 B 0.00678 0.49950 0.53907
 B1044 B -0.01836 0.51206 0.52756
 B1045 B 0.50933 0.00624 -0.01655
 B1046 B 0.52560 -0.00205 0.00863
 B1047 B 0.50653 0.02068 0.01115
 B1048 B 0.48282 0.01431 -0.00736
 B1049 B 0.48751 -0.01296 -0.02071
 B1050 B 0.51422 -0.02295 -0.01059
 B1051 B 0.48722 -0.01823 0.03023
 B1052 B 0.47121 -0.01037 0.00458
 B1053 B 0.49042 -0.03288 0.00282
 B1054 B 0.51401 -0.02639 0.02107
 B1055 B 0.50932 0.00073 0.03435
 B1056 B 0.48246 0.01074 0.02425
 B1057 B 0.49703 0.48178 -0.02866
 B1058 B 0.48288 0.49250 -0.00386
 B1059 B 0.50063 0.46870 -0.00032
 B1060 B 0.52373 0.47238 -0.01852
 B1061 B 0.52006 0.49892 -0.03337
 B1062 B 0.49449 0.51135 -0.02431
 B1063 B 0.52325 0.50755 0.01717
 B1064 B 0.53749 0.49680 -0.00736
 B1065 B 0.51971 0.52045 -0.01125
 B1066 B 0.49682 0.51685 0.00710
 B1067 B 0.50036 0.49026 0.02198
 B1068 B 0.52589 0.47787 0.01284
 B1069 B -0.00129 0.99130 0.48383
 B1070 B -0.01665 1.00198 0.50781
 B1071 B 0.00066 0.97788 0.51174
 B1072 B 0.02471 0.98156 0.49519
 B1073 B 0.02223 1.00831 0.48064
 B1074 B -0.00360 1.02086 0.48840
 B1075 B 0.02278 1.01621 0.53144
 B1076 B 0.03833 1.00551 0.50761
 B1077 B 0.02098 1.02956 0.50317
 B1078 B -0.00313 1.02590 0.52003
 B1079 B -0.00056 0.99895 0.53450
 B1080 B 0.02537 0.98659 0.52658
 B1081 B 0.76078 0.22787 0.22071
 B1082 B 0.75727 0.21193 0.24659
 B1083 B 0.77771 0.23318 0.24662
 B1084 B 0.76729 0.25588 0.22915
 B1085 B 0.73984 0.24903 0.21881
 B1086 B 0.73372 0.22149 0.22949
 B1087 B 0.74053 0.25075 0.27009
 B1088 B 0.74410 0.26677 0.24402
 B1089 B 0.72355 0.24561 0.24427
 B1090 B 0.73405 0.22243 0.26138
 B1091 B 0.76134 0.22968 0.27198
 B1092 B 0.76747 0.25728 0.26120
 B1093 B 0.73214 0.77560 0.72990
 B1094 B 0.73706 0.78774 0.75848
 B1095 B 0.71652 0.76697 0.75444
 B1096 B 0.72585 0.74673 0.73346
 B1097 B 0.75279 0.75508 0.72468
 B1098 B 0.75961 0.78085 0.74035
 B1099 B 0.75494 0.74596 0.77500
 B1100 B 0.74989 0.73394 0.74647
 B1101 B 0.77054 0.75488 0.75056
 B1102 B 0.76106 0.77497 0.77169
 B1103 B 0.73435 0.76662 0.78026
 B1104 B 0.72742 0.74093 0.76461
 B1105 B 0.28110 0.26679 0.78749
 B1106 B 0.27266 0.27765 0.75902
 B1107 B 0.29112 0.25415 0.76145
 B1108 B 0.28313 0.23677 0.78524
 B1109 B 0.25963 0.24996 0.79763
 B1110 B 0.25349 0.27538 0.78159
 B1111 B 0.24790 0.23779 0.74928
 B1112 B 0.25624 0.22711 0.77766
 B1113 B 0.23800 0.25066 0.77573
 B1114 B 0.24576 0.26742 0.75158
 B1115 B 0.26974 0.25466 0.73896
 B1116 B 0.27592 0.22916 0.75496
 B1117 B 0.22193 0.73512 0.27899
 B1118 B 0.22151 0.72442 0.24934
 B1119 B 0.20726 0.74997 0.25620
 B1120 B 0.22334 0.76491 0.27813
 B1121 B 0.24780 0.74839 0.28465
 B1122 B 0.24624 0.72316 0.26705
 B1123 B 0.24800 0.76076 0.23535
 B1124 B 0.24841 0.77147 0.26497
 B1125 B 0.26267 0.74589 0.25807
 B1126 B 0.24657 0.73099 0.23618
 B1127 B 0.22217 0.74753 0.22965
 B1128 B 0.22370 0.77272 0.24725
 B1129 B 0.25678 0.73065 0.72395
 B1130 B 0.24735 0.71436 0.74764
 B1131 B 0.27069 0.73183 0.75237
 B1132 B 0.26643 0.75679 0.73549
 B1133 B 0.23982 0.75484 0.72062
 B1134 B 0.22795 0.72827 0.72822
 B1135 B 0.23364 0.75432 0.77130
 B1136 B 0.24323 0.77063 0.74761
 B1137 B 0.21973 0.75326 0.74285
 B1138 B 0.22398 0.72806 0.75970
 B1139 B 0.25062 0.73011 0.77449
 B1140 B 0.26247 0.75670 0.76688
 B1141 B 0.23717 0.26300 0.23230
 B1142 B 0.24453 0.27729 0.25912
 B1143 B 0.22172 0.25869 0.25799
 B1144 B 0.22814 0.23545 0.23923
 B1145 B 0.25534 0.23964 0.22882
 B1146 B 0.26539 0.26584 0.24106
 B1147 B 0.25851 0.23596 0.27991
 B1148 B 0.25109 0.22153 0.25315
 B1149 B 0.27396 0.24019 0.25410
 B1150 B 0.26750 0.26351 0.27293
 B1151 B 0.24026 0.25925 0.28333
 B1152 B 0.23025 0.23310 0.27115
 B1153 B 0.75517 0.76859 0.27755
 B1154 B 0.75442 0.78482 0.25116
 B1155 B 0.77186 0.76063 0.25366
 B1156 B 0.75797 0.73948 0.26973
 B1157 B 0.73173 0.75116 0.27719
 B1158 B 0.72958 0.77922 0.26571
 B1159 B 0.73348 0.74907 0.22595
 B1160 B 0.73369 0.73282 0.25223
 B1161 B 0.71676 0.75716 0.25001
 B1162 B 0.73063 0.77796 0.23385
 B1163 B 0.75703 0.76631 0.22644
 B1164 B 0.75879 0.73804 0.23789
 B1165 B 0.74146 0.23917 0.76052
 B1166 B 0.74267 0.22624 0.73202
 B1167 B 0.72906 0.25254 0.73530
 B1168 B 0.74398 0.26897 0.75722
 B1169 B 0.76700 0.25216 0.76753
 B1170 B 0.76610 0.22551 0.75186
 B1171 B 0.77154 0.26039 0.71751
 B1172 B 0.77046 0.27341 0.74571
 B1173 B 0.78380 0.24676 0.74291
 B1174 B 0.76913 0.23090 0.72086
 B1175 B 0.74587 0.24759 0.71045
 B1176 B 0.74676 0.27413 0.72606
 C1177 C 0.42164 1.03305 0.38113
 C1178 C 0.44241 1.04296 0.37526
 C1179 C 0.44730 1.04993 0.35113
 C1180 C 0.43034 1.04589 0.33212
 C1181 C 0.40889 1.03513 0.33751
 C1182 C 0.40429 1.02949 0.36269
 O1183 O 0.42153 1.02489 0.40437
 C1184 C 0.44277 1.02960 0.41331
 C1185 C 0.45618 1.04076 0.39628
 C1186 C 0.47969 1.04478 0.40056
 C1187 C 0.48986 1.03680 0.42321
 C1188 C 0.47648 1.02519 0.44128
 C1189 C 0.45248 1.02167 0.43606
 H1190 H 0.46407 1.05701 0.34682
 H1191 H 0.43463 1.04981 0.31304
 H1192 H 0.38826 1.02124 0.36769
 H1193 H 0.49009 1.05277 0.38647
 H1194 H 0.50841 1.03885 0.42596
 H1195 H 0.44191 1.01161 0.44838
 C1196 C -0.04303 0.52418 0.86833
 C1197 C -0.04171 0.54702 0.87748
 C1198 C -0.05378 0.56572 0.86609
 C1199 C -0.06799 0.56058 0.84476
 C1200 C -0.06998 0.53692 0.83504
 C1201 C -0.05663 0.51869 0.84707
 O1202 O -0.03211 0.50850 0.88292
 C1203 C -0.02373 0.52167 0.90174
 C1204 C -0.02888 0.54539 0.89940
 C1205 C -0.02258 0.56192 0.91795
 C1206 C -0.01158 0.55337 0.94015
 C1207 C -0.00826 0.52863 0.94391
 C1208 C -0.01299 0.51294 0.92344
 H1209 H -0.05276 0.58357 0.87371
 H1210 H -0.07714 0.57525 0.83584
 H1211 H -0.05810 0.50022 0.84161
 H1212 H -0.02640 0.58063 0.91563
 H1213 H -0.00616 0.56603 0.95439
 H1214 H -0.01009 0.49398 0.92478
 C1215 C 0.04470 -0.01836 0.86410
 C1216 C 0.04709 -0.04066 0.87424
 C1217 C 0.06375 -0.05694 0.86658
 C1218 C 0.07864 -0.04990 0.84785
 C1219 C 0.07668 -0.02691 0.83729
 C1220 C 0.05913 -0.01112 0.84526
 O1221 O 0.02998 -0.00454 0.87618
 C1222 C 0.02302 -0.01832 0.89444
 C1223 C 0.03288 -0.04063 0.89399
 C1224 C 0.03064 -0.05672 0.91326
 C1225 C 0.01882 -0.04915 0.93441
 C1226 C 0.00929 -0.02581 0.93600
 C1227 C 0.01049 -0.01071 0.91493
 H1228 H 0.06580 -0.07411 0.87537
 H1229 H 0.09199 -0.06215 0.84191
 H1230 H 0.05778 0.00682 0.83819
 H1231 H 0.03927 -0.07387 0.91291
 H1232 H 0.01934 -0.06084 0.95025
 H1233 H 0.00439 0.00752 0.91558
 C1234 C 0.56210 0.46975 0.37477
 C1235 C 0.54037 0.46156 0.36789
 C1236 C 0.53340 0.45826 0.34285
 C1237 C 0.54947 0.46361 0.32446
 C1238 C 0.57180 0.47278 0.33134
 C1239 C 0.57792 0.47572 0.35704
 O1240 O 0.56514 0.47343 0.39908
 C1241 C 0.54488 0.46770 0.40790
 C1242 C 0.52890 0.46038 0.38981
 C1243 C 0.50574 0.45642 0.39519
 C1244 C 0.49883 0.46114 0.41989
 C1245 C 0.51511 0.46949 0.43851
 C1246 C 0.53861 0.47184 0.43223
 H1247 H 0.51617 0.45204 0.33765
 H1248 H 0.54435 0.46073 0.30498
 H1249 H 0.59413 0.48360 0.36343
 H1250 H 0.49319 0.45130 0.38062
 H1251 H 0.48064 0.45977 0.42394
 H1252 H 0.55163 0.47911 0.44513
 C1253 C 0.58033 0.51624 0.11147
 C1254 C 0.56709 0.53665 0.10964
 C1255 C 0.56606 0.55310 0.12921
 C1256 C 0.57895 0.54809 0.15151
 C1257 C 0.59237 0.52687 0.15382
 C1258 C 0.59326 0.51100 0.13324
 O1259 O 0.57810 0.50219 0.09158
 C1260 C 0.56304 0.51383 0.07685
 C1261 C 0.55571 0.53507 0.08681
 C1262 C 0.53894 0.54929 0.07468
 C1263 C 0.52910 0.54099 0.05169
 C1264 C 0.53606 0.51877 0.04148
 C1265 C 0.55365 0.50537 0.05428
 H1266 H 0.55531 0.56890 0.12761
 H1267 H 0.57786 0.56033 0.16718
 H1268 H 0.60336 0.49471 0.13427
 H1269 H 0.53323 0.56587 0.08290
 H1270 H 0.51569 0.55156 0.04229
 H1271 H 0.55960 0.48832 0.04740
 C1272 C 0.07379 1.02162 0.62958
 C1273 C 0.07012 1.04476 0.62223
 C1274 C 0.07943 1.06385 0.63585
 C1275 C 0.09303 1.05873 0.65768
 C1276 C 0.09701 1.03486 0.66530
 C1277 C 0.08695 1.01621 0.65102
 O1278 O 0.06424 1.00587 0.61408
 C1279 C 0.05432 1.01920 0.59644
 C1280 C 0.05716 1.04315 0.60033
 C1281 C 0.04816 1.05992 0.58342
 C1282 C 0.03624 1.05150 0.56156
 C1283 C 0.03407 1.02671 0.55690
 C1284 C 0.04286 1.01059 0.57517
 H1285 H 0.07657 1.08195 0.62978
 H1286 H 0.10074 1.07324 0.66836
 H1287 H 0.08920 0.99782 0.65640
 H1288 H 0.05046 1.07874 0.58677
 H1289 H 0.02941 1.06420 0.54806
 H1290 H 0.04149 0.99156 0.57298
 C1291 C -0.06609 0.48026 0.62662
 C1292 C -0.07950 0.46896 0.60850
 C1293 C -0.10298 0.46490 0.61104
 C1294 C -0.11301 0.47261 0.63326
 C1295 C -0.09944 0.48350 0.65305
 C1296 C -0.07541 0.48710 0.64935
 O1297 O -0.04489 0.48503 0.61929
 C1298 C -0.04495 0.47647 0.59604
 C1299 C -0.06558 0.46605 0.58875
 C1300 C -0.06983 0.45688 0.56484
 C1301 C -0.05257 0.45964 0.54736
 C1302 C -0.03188 0.47230 0.55358
 C1303 C -0.02768 0.47979 0.57879
 H1304 H -0.11344 0.45694 0.59601
 H1305 H -0.13151 0.47043 0.63436
 H1306 H -0.06399 0.49513 0.66340
 H1307 H -0.08618 0.44862 0.55956
 H1308 H -0.05608 0.45301 0.52862
 H1309 H -0.01236 0.48970 0.58449
 C1310 C 0.42844 -0.02430 0.11889
 C1311 C 0.44836 -0.03718 0.12435
 C1312 C 0.45395 -0.04546 0.14832
 C1313 C 0.43839 -0.04021 0.16733
 C1314 C 0.41777 -0.02685 0.16207
 C1315 C 0.41272 -0.01903 0.13737
 O1316 O 0.42706 -0.01660 0.09552
 C1317 C 0.44649 -0.02477 0.08597
 C1318 C 0.46016 -0.03755 0.10270
 C1319 C 0.48208 -0.04609 0.09693
 C1320 C 0.49023 -0.04102 0.07305
 C1321 C 0.47638 -0.02786 0.05535
 C1322 C 0.45420 -0.01960 0.06232
 H1323 H 0.46987 -0.05527 0.15233
 H1324 H 0.44243 -0.04645 0.18613
 H1325 H 0.39745 -0.00833 0.13285
 H1326 H 0.49286 -0.05554 0.11062
 H1327 H 0.50770 -0.04658 0.06883
 H1328 H 0.44363 -0.00805 0.05045
 C1329 C 0.38584 0.45888 0.00283
 C1330 C 0.38675 0.48143 0.01283
 C1331 C 0.36816 0.49208 0.02461
 C1332 C 0.34775 0.47888 0.02614
 C1333 C 0.34647 0.45550 0.01607
 C1334 C 0.36582 0.44552 0.00411
 O1335 O 0.40561 0.45172 -0.00681
 C1336 C 0.41939 0.47014 -0.00268
 C1337 C 0.40868 0.48876 0.00920
 C1338 C 0.42013 0.50947 0.01604
 C1339 C 0.44373 0.51080 0.01095
 C1340 C 0.45549 0.49153 -0.00077
 C1341 C 0.44276 0.47117 -0.00817
 H1342 H 0.36940 0.50978 0.03256
 H1343 H 0.33313 0.48667 0.03550
 H1344 H 0.36532 0.42785 -0.00404
 H1345 H 0.41134 0.52389 0.02543
 H1346 H 0.45275 0.52679 0.01674
 H1347 H 0.45069 0.45633 -0.01754
 C1348 C -0.11447 0.97424 0.52369
 C1349 C -0.11489 0.99291 0.50728
 C1350 C -0.13484 1.00004 0.49393
 C1351 C -0.15516 0.98715 0.49733
 C1352 C -0.15526 0.96761 0.51402
 C1353 C -0.13455 0.96149 0.52775
 O1354 O -0.09334 0.96916 0.53297
 C1355 C -0.08013 0.98487 0.52203
 C1356 C -0.09250 0.99988 0.50627
 C1357 C -0.08205 1.01705 0.49217
 C1358 C -0.05779 1.01826 0.49372
 C1359 C -0.04436 1.00183 0.50842
 C1360 C -0.05597 0.98585 0.52392
 H1361 H -0.13458 1.01442 0.48062
 H1362 H -0.17046 0.99183 0.48604
 H1363 H -0.13379 0.94677 0.54064
 H1364 H -0.09218 1.02889 0.48012
 H1365 H -0.04962 1.03189 0.48306
 H1366 H -0.04657 0.97391 0.53647
 C1367 C -0.12494 0.04238 0.98323
 C1368 C -0.11386 0.05448 1.00256
 C1369 C -0.12512 0.06988 1.01851
 C1370 C -0.14894 0.07324 1.01432
 C1371 C -0.16101 0.06206 0.99372
 C1372 C -0.14860 0.04655 0.97768
 O1373 O -0.11092 0.02716 0.97173
 C1374 C -0.09057 0.03016 0.98397
 C1375 C -0.09154 0.04717 1.00248
 C1376 C -0.07233 0.05451 1.01664
 C1377 C -0.05116 0.04351 1.01195
 C1378 C -0.04969 0.02402 0.99490
 C1379 C -0.06977 0.01776 0.98009
 H1380 H -0.11592 0.07883 1.03385
 H1381 H -0.15773 0.08554 1.02657
 H1382 H -0.15722 0.03742 0.96208
 H1383 H -0.07346 0.06870 1.03037
 H1384 H -0.03605 0.05023 1.02210
 H1385 H -0.06924 0.00380 0.96605
 C1386 C 0.37789 0.54209 0.47315
 C1387 C 0.39014 0.56052 0.48414
 C1388 C 0.37965 0.58078 0.49367
 C1389 C 0.35541 0.58201 0.49214
 C1390 C 0.34232 0.56317 0.48128
 C1391 C 0.35363 0.54302 0.47129
 O1392 O 0.39137 0.52389 0.46679
 C1393 C 0.41250 0.53102 0.47407
 C1394 C 0.41257 0.55327 0.48481
 C1395 C 0.43229 0.56352 0.49559
 C1396 C 0.45290 0.55032 0.49538
 C1397 C 0.45373 0.52736 0.48406
 C1398 C 0.43302 0.51768 0.47318
 H1399 H 0.38972 0.59485 0.50253
 H1400 H 0.34672 0.59737 0.49995
 H1401 H 0.34386 0.52826 0.46337
 H1402 H 0.43168 0.58078 0.50462
 H1403 H 0.46797 0.55795 0.50482
 H1404 H 0.43260 0.50001 0.46507
 C1405 C 0.12199 0.53096 0.51378
 C1406 C 0.12284 0.50902 0.52490
 C1407 C 0.14356 0.49881 0.53400
 C1408 C 0.16409 0.51182 0.53154
 C1409 C 0.16335 0.53463 0.52043
 C1410 C 0.14196 0.54415 0.51135
 O1411 O 0.10083 0.53769 0.50633
 C1412 C 0.08791 0.51969 0.51296
 C1413 C 0.10036 0.50167 0.52446
 C1414 C 0.08979 0.48143 0.53328
 C1415 C 0.06548 0.47987 0.53018
 C1416 C 0.05230 0.49839 0.51835
 C1417 C 0.06404 0.51842 0.50949
 H1418 H 0.14391 0.48152 0.54269
 H1419 H 0.18042 0.50438 0.53857
 H1420 H 0.14088 0.56135 0.50245
 H1421 H 0.09985 0.46743 0.54237
 H1422 H 0.05706 0.46427 0.53706
 H1423 H 0.05493 0.53309 0.50051
 C1424 C 0.61979 0.03798 -0.00284
 C1425 C 0.62228 0.01907 0.01320
 C1426 C 0.64338 0.01320 0.02510
 C1427 C 0.66262 0.02732 0.02015
 C1428 C 0.66043 0.04689 0.00353
 C1429 C 0.63858 0.05214 -0.00810
 O1430 O 0.59825 0.04108 -0.01171
 C1431 C 0.58688 0.02376 -0.00110
 C1432 C 0.60066 0.00972 0.01430
 C1433 C 0.59181 -0.00892 0.02784
 C1434 C 0.56779 -0.01306 0.02547
 C1435 C 0.55314 0.00144 0.00982
 C1436 C 0.56320 0.02004 -0.00367
 H1437 H 0.64494 -0.00158 0.03789
 H1438 H 0.67910 0.02324 0.02959
 H1439 H 0.63623 0.06674 -0.02104
 H1440 H 0.60292 -0.01965 0.04008
 H1441 H 0.56067 -0.02722 0.03629
 H1442 H 0.55295 0.03247 -0.01469
 C1443 C 0.62997 0.96841 0.48833
 C1444 C 0.62188 0.96463 0.46409
 C1445 C 0.63552 0.95490 0.44558
 C1446 C 0.65839 0.94834 0.45246
 C1447 C 0.66700 0.95137 0.47753
 C1448 C 0.65261 0.96190 0.49560
 O1449 O 0.61392 0.97720 0.50316
 C1450 C 0.59521 0.97878 0.48797
 C1451 C 0.59919 0.97118 0.46395
 C1452 C 0.58187 0.97018 0.44529
 C1453 C 0.55945 0.97709 0.45166
 C1454 C 0.55458 0.98482 0.47645
 C1455 C 0.57308 0.98629 0.49461
 H1456 H 0.62865 0.95196 0.42668
 H1457 H 0.66905 0.93997 0.43854
 H1458 H 0.65866 0.96435 0.51489
 H1459 H 0.58543 0.96402 0.42653
 H1460 H 0.54603 0.97637 0.43700
 H1461 H 0.57038 0.99275 0.51344
 C1462 C 0.13097 0.46083 0.99408
 C1463 C 0.13209 0.48304 1.00494
 C1464 C 0.15276 0.49296 1.01397
 C1465 C 0.17303 0.47920 1.01221
 C1466 C 0.17227 0.45596 1.00167
 C1467 C 0.15092 0.44687 0.99204
 O1468 O 0.10953 0.45448 0.98734
 C1469 C 0.09685 0.47303 0.99423
 C1470 C 0.10980 0.49096 1.00509
 C1471 C 0.09996 0.51173 1.01419
 C1472 C 0.07574 0.51405 1.01213
 C1473 C 0.06177 0.49559 1.00133
 C1474 C 0.07279 0.47502 0.99178
 H1475 H 0.15319 0.51049 1.02243
 H1476 H 0.18930 0.48652 1.01933
 H1477 H 0.14969 0.42910 0.98423
 H1478 H 0.11052 0.52561 1.02270
 H1479 H 0.06796 0.53023 1.01916
 H1480 H 0.06327 0.46094 0.98248
 C1481 C -0.01963 0.37615 0.44980
 C1482 C -0.01972 0.37176 0.47510
 C1483 C -0.01734 0.34905 0.48492
 C1484 C -0.01465 0.33006 0.46801
 C1485 C -0.01435 0.33399 0.44177
 C1486 C -0.01716 0.35746 0.43259
 O1487 O -0.02060 0.39919 0.44454
 C1488 C -0.02130 0.40954 0.46702
 C1489 C -0.02085 0.39351 0.48629
 C1490 C -0.01957 0.40040 0.51134
 C1491 C -0.01821 0.42475 0.51680
 C1492 C -0.01870 0.44196 0.49740
 C1493 C -0.02045 0.43396 0.47205
 H1494 H -0.01718 0.34606 0.50493
 H1495 H -0.01276 0.31227 0.47536
 H1496 H -0.01655 0.36114 0.41276
 H1497 H -0.01852 0.38743 0.52618
 H1498 H -0.01553 0.42994 0.53622
 H1499 H -0.01984 0.44623 0.45661
 C1500 C 0.47893 -0.12633 -0.04922
 C1501 C 0.48283 -0.13059 -0.02407
 C1502 C 0.48806 -0.15308 -0.01476
 C1503 C 0.48944 -0.17192 -0.03206
 C1504 C 0.48551 -0.16806 -0.05812
 C1505 C 0.47986 -0.14492 -0.06674
 O1506 O 0.47610 -0.10341 -0.05431
 C1507 C 0.47830 -0.09299 -0.03191
 C1508 C 0.48231 -0.10885 -0.01279
 C1509 C 0.48682 -0.10172 0.01187
 C1510 C 0.48787 -0.07727 0.01695
 C1511 C 0.48439 -0.06031 -0.00241
 C1512 C 0.47896 -0.06854 -0.02719
 H1513 H 0.49148 -0.15593 0.00507
 H1514 H 0.49372 -0.18953 -0.02521
 H1515 H 0.47729 -0.14135 -0.08656
 H1516 H 0.49038 -0.11453 0.02654
 H1517 H 0.49259 -0.07180 0.03580
 H1518 H 0.47675 -0.05643 -0.04272
 C1519 C -0.00009 -0.12474 1.03774
 C1520 C -0.01534 -0.12582 1.01734
 C1521 C -0.03082 -0.14440 1.01364
 C1522 C -0.03041 -0.16263 1.03149
 C1523 C -0.01458 -0.16220 1.05263
 C1524 C 0.00082 -0.14278 1.05557
 O1525 O 0.01205 -0.10484 1.03878
 C1526 C 0.00432 -0.09312 1.01861
 C1527 C -0.01234 -0.10517 1.00472
 C1528 C -0.02366 -0.09536 0.98371
 C1529 C -0.01813 -0.07194 0.97729
 C1530 C -0.00155 -0.05869 0.99189
 C1531 C 0.01009 -0.06996 1.01256
 H1532 H -0.04311 -0.14463 0.99782
 H1533 H -0.04285 -0.17679 1.02903
 H1534 H 0.01317 -0.14162 1.07127
 H1535 H -0.03697 -0.10503 0.97319
 H1536 H -0.02758 -0.06381 0.96166
 H1537 H 0.02192 -0.06054 1.02511
 C1538 C 0.49455 0.37421 0.53766
 C1539 C 0.48090 0.37264 0.51601
 C1540 C 0.46821 0.35241 0.50973
 C1541 C 0.46977 0.33315 0.52639
 C1542 C 0.48377 0.33450 0.54886
 C1543 C 0.49633 0.35544 0.55436
 O1544 O 0.50486 0.39495 0.54066
 C1545 C 0.49755 0.40684 0.52056
 C1546 C 0.48290 0.39414 0.50473
 C1547 C 0.47297 0.40385 0.48286
 C1548 C 0.47808 0.42765 0.47745
 C1549 C 0.49288 0.44115 0.49387
 C1550 C 0.50288 0.43019 0.51555
 H1551 H 0.45742 0.35152 0.49273
 H1552 H 0.45985 0.31735 0.52194
 H1553 H 0.50742 0.35706 0.57109
 H1554 H 0.46141 0.39361 0.47063
 H1555 H 0.47014 0.43561 0.46084
 H1556 H 0.51434 0.43956 0.52866
 C1557 C 0.49231 1.12195 0.54222
 C1558 C 0.49826 1.12607 0.51793
 C1559 C 0.50496 1.14826 0.50980
 C1560 C 0.50552 1.16693 0.52743
 C1561 C 0.49961 1.16308 0.55270
 C1562 C 0.49280 1.14017 0.56004
 O1563 O 0.48755 1.09940 0.54647
 C1564 C 0.49064 1.08904 0.52442
 C1565 C 0.49717 1.10452 0.50629
 C1566 C 0.50274 1.09706 0.48234
 C1567 C 0.50199 1.07261 0.47706
 C1568 C 0.49557 1.05614 0.49553
 C1569 C 0.48944 1.06480 0.51948
 H1570 H 0.50972 1.15108 0.49064
 H1571 H 0.51044 1.18438 0.52132
 H1572 H 0.48862 1.13644 0.57921
 H1573 H 0.50829 1.10951 0.46850
 H1574 H 0.50745 1.06662 0.45895
 H1575 H 0.48478 1.05304 0.53436
 C1576 C -0.00725 0.62792 1.04611
 C1577 C -0.02676 0.62499 1.03083
 C1578 C -0.04484 0.64153 1.02982
 C1579 C -0.04275 0.66185 1.04519
 C1580 C -0.02277 0.66535 1.06114
 C1581 C -0.00470 0.64810 1.06140
 O1582 O 0.00755 0.60975 1.04495
 C1583 C -0.00283 0.59505 1.02857
 C1584 C -0.02380 0.60354 1.01931
 C1585 C -0.03765 0.59075 1.00226
 C1586 C -0.02978 0.56816 0.99484
 C1587 C -0.00846 0.55844 1.00462
 C1588 C 0.00532 0.57265 1.02147
 H1589 H -0.06011 0.63879 1.01778
 H1590 H -0.05664 0.67493 1.04458
 H1591 H 0.01061 0.65004 1.07358
 H1592 H -0.05405 0.59784 0.99503
 H1593 H -0.04043 0.55848 0.98132
 H1594 H 0.02172 0.56636 1.02951
 C1595 C 0.51678 0.62102 -0.04608
 C1596 C 0.53587 0.60997 -0.05579
 C1597 C 0.54843 0.61960 -0.07490
 C1598 C 0.54096 0.64149 -0.08463
 C1599 C 0.52112 0.65330 -0.07538
 C1600 C 0.50908 0.64307 -0.05544
 O1601 O 0.50637 0.60776 -0.02932
 C1602 C 0.51915 0.58791 -0.02861
 C1603 C 0.53735 0.58850 -0.04450
 C1604 C 0.55140 0.56897 -0.04904
 C1605 C 0.54628 0.54774 -0.03718
 C1606 C 0.52789 0.54626 -0.02013
 C1607 C 0.51426 0.56700 -0.01570
 H1608 H 0.56319 0.61034 -0.08244
 H1609 H 0.55046 0.64915 -0.09967
 H1610 H 0.49364 0.65144 -0.04834
 H1611 H 0.56500 0.56964 -0.06247
 H1612 H 0.55601 0.53216 -0.04263
 H1613 H 0.49929 0.56649 -0.00407
 C1614 C 0.01835 1.12842 0.46373
 C1615 C 0.04038 1.11957 0.46116
 C1616 C 0.05661 1.13046 0.44673
 C1617 C 0.04989 1.15120 0.43406
 C1618 C 0.02680 1.16066 0.43506
 C1619 C 0.01105 1.14903 0.45094
 O1620 O 0.00526 1.11437 0.47722
 C1621 C 0.01938 1.09621 0.48303
 C1622 C 0.04099 1.09855 0.47343
 C1623 C 0.05740 1.08039 0.47397
 C1624 C 0.05120 1.05874 0.48439
 C1625 C 0.02940 1.05572 0.49558
 C1626 C 0.01335 1.07516 0.49495
 H1627 H 0.07395 1.12315 0.44516
 H1628 H 0.06319 1.15984 0.42384
 H1629 H -0.00685 1.15464 0.45222
 H1630 H 0.07379 1.08220 0.46493
 H1631 H 0.06293 1.04407 0.48174
 H1632 H -0.00402 1.07339 0.50170
 C1633 C 0.75711 0.68997 0.86921
 C1634 C 0.77948 0.69036 0.86110
 C1635 C 0.79788 0.67917 0.87393
 C1636 C 0.79298 0.66720 0.89605
 C1637 C 0.76999 0.66660 0.90474
 C1638 C 0.75183 0.67812 0.89099
 O1639 O 0.74218 0.70185 0.85450
 C1640 C 0.75540 0.70990 0.83671
 C1641 C 0.77832 0.70339 0.83979
 C1642 C 0.79502 0.71000 0.82317
 C1643 C 0.78774 0.72378 0.80249
 C1644 C 0.76411 0.73073 0.79869
 C1645 C 0.74786 0.72358 0.81646
 H1646 H 0.81535 0.67967 0.86719
 H1647 H 0.80701 0.65826 0.90629
 H1648 H 0.73418 0.67821 0.89729
 H1649 H 0.81300 0.70460 0.82591
 H1650 H 0.80067 0.72843 0.78953
 H1651 H 0.72964 0.72836 0.81470
 C1652 C 0.26432 0.19687 0.38331
 C1653 C 0.28037 0.18476 0.36948
 C1654 C 0.29223 0.16480 0.37841
 C1655 C 0.28705 0.15676 0.40236
 C1656 C 0.27002 0.16848 0.41679
 C1657 C 0.25889 0.18918 0.40720
 O1658 O 0.25404 0.21456 0.37082
 C1659 C 0.26368 0.21345 0.34861
 C1660 C 0.27985 0.19552 0.34675
 C1661 C 0.29058 0.19004 0.32447
 C1662 C 0.28412 0.20338 0.30317
 C1663 C 0.26754 0.22214 0.30453
 C1664 C 0.25745 0.22725 0.32790
 H1665 H 0.30469 0.15547 0.36714
 H1666 H 0.29615 0.14120 0.40954
 H1667 H 0.24558 0.19833 0.41745
 H1668 H 0.30290 0.17548 0.32329
 H1669 H 0.29169 0.19862 0.28558
 H1670 H 0.24428 0.24086 0.32992
 C1671 C 0.73673 0.31054 0.36241
 C1672 C 0.72637 0.28928 0.36729
 C1673 C 0.72055 0.28265 0.39127
 C1674 C 0.72563 0.29857 0.41104
 C1675 C 0.73654 0.32057 0.40660
 C1676 C 0.74192 0.32667 0.38179
 O1677 O 0.74215 0.31275 0.33858
 C1678 C 0.73509 0.29243 0.32822
 C1679 C 0.72531 0.27747 0.34497
 C1680 C 0.71856 0.25454 0.33862
 C1681 C 0.72239 0.24656 0.31413
 C1682 C 0.73238 0.26161 0.29623
 C1683 C 0.73866 0.28502 0.30363
 H1684 H 0.71262 0.26570 0.39470
 H1685 H 0.72108 0.29375 0.42981
 H1686 H 0.75063 0.34308 0.37780
 H1687 H 0.71154 0.24284 0.35236
 H1688 H 0.71846 0.22824 0.30964
 H1689 H 0.74756 0.29670 0.29133
 C1690 C 0.23340 0.79487 0.87426
 C1691 C 0.21058 0.79510 0.86569
 C1692 C 0.19301 0.80539 0.87951
 C1693 C 0.19941 0.81615 0.90268
 C1694 C 0.22302 0.81638 0.91148
 C1695 C 0.24002 0.80503 0.89713
 O1696 O 0.24776 0.78540 0.85819
 C1697 C 0.23384 0.77954 0.83897
 C1698 C 0.21087 0.78484 0.84239
 C1699 C 0.19371 0.78023 0.82389
 C1700 C 0.20069 0.76994 0.80109
 C1701 C 0.22453 0.76522 0.79700
 C1702 C 0.24106 0.76984 0.81671
 H1703 H 0.17518 0.80569 0.87244
 H1704 H 0.18614 0.82501 0.91325
 H1705 H 0.25814 0.80459 0.90325
 H1706 H 0.17565 0.78446 0.82685
 H1707 H 0.18762 0.76618 0.78661
 H1708 H 0.25941 0.76620 0.81511
 C1709 C 0.26083 0.80280 0.13536
 C1710 C 0.27792 0.81186 0.15121
 C1711 C 0.29154 0.83089 0.14474
 C1712 C 0.28723 0.84108 0.12107
 C1713 C 0.26964 0.83198 0.10414
 C1714 C 0.25662 0.81219 0.11161
 O1715 O 0.24839 0.78616 0.14575
 C1716 C 0.25785 0.78463 0.16868
 C1717 C 0.27613 0.79974 0.17298
 C1718 C 0.28778 0.80159 0.19618
 C1719 C 0.27975 0.78782 0.21584
 C1720 C 0.25992 0.77321 0.21230
 C1721 C 0.24950 0.77107 0.18790
 H1722 H 0.30470 0.83798 0.15764
 H1723 H 0.29807 0.85568 0.11590
 H1724 H 0.24236 0.80518 0.10016
 H1725 H 0.30216 0.81360 0.19921
 H1726 H 0.28843 0.78952 0.23394
 H1727 H 0.23454 0.76004 0.18391
 C1728 C 0.79067 0.32247 0.63254
 C1729 C 0.80136 0.30110 0.62778
 C1730 C 0.80864 0.29476 0.60408
 C1731 C 0.80425 0.31083 0.58442
 C1732 C 0.79203 0.33260 0.58847
 C1733 C 0.78598 0.33859 0.61338
 O1734 O 0.78319 0.32438 0.65566
 C1735 C 0.78894 0.30362 0.66566
 C1736 C 0.80008 0.28865 0.64945
 C1737 C 0.80475 0.26497 0.65503
 C1738 C 0.79708 0.25628 0.67788
 C1739 C 0.78514 0.27130 0.69477
 C1740 C 0.78175 0.29555 0.68864
 H1741 H 0.81662 0.27762 0.60060
 H1742 H 0.80882 0.30518 0.56581
 H1743 H 0.77735 0.35511 0.61795
 H1744 H 0.81271 0.25322 0.64161
 H1745 H 0.79914 0.23753 0.68144
 H1746 H 0.77200 0.30751 0.70036
 C1747 C 0.22737 0.19954 0.64792
 C1748 C 0.21841 0.18365 0.66442
 C1749 C 0.21323 0.16035 0.65753
 C1750 C 0.21783 0.15313 0.63288
 C1751 C 0.22725 0.16921 0.61575
 C1752 C 0.23169 0.19284 0.62326
 O1753 O 0.23360 0.21986 0.65874
 C1754 C 0.22862 0.21675 0.68255
 C1755 C 0.21919 0.19501 0.68712
 C1756 C 0.21471 0.18755 0.71127
 C1757 C 0.22143 0.20254 0.73147
 C1758 C 0.23308 0.22419 0.72736
 C1759 C 0.23507 0.23189 0.70221
 H1760 H 0.20683 0.14792 0.67092
 H1761 H 0.21479 0.13485 0.62733
 H1762 H 0.23970 0.20514 0.61079
 H1763 H 0.20719 0.17037 0.71454
 H1764 H 0.21814 0.19673 0.75016
 H1765 H 0.24338 0.24837 0.69770
 C1766 C 0.73011 0.69081 0.13299
 C1767 C 0.71916 0.71194 0.12738
 C1768 C 0.71335 0.71855 0.10297
 C1769 C 0.71919 0.70282 0.08358
 C1770 C 0.73105 0.68085 0.08865
 C1771 C 0.73618 0.67495 0.11414
 O1772 O 0.73558 0.68849 0.15717
 C1773 C 0.72797 0.70864 0.16703
 C1774 C 0.71776 0.72367 0.14969
 C1775 C 0.71061 0.74659 0.15581
 C1776 C 0.71448 0.75438 0.18071
 C1777 C 0.72506 0.73915 0.19900
 C1778 C 0.73164 0.71582 0.19177
 H1779 H 0.70475 0.73532 0.09894
 H1780 H 0.71382 0.70787 0.06476
 H1781 H 0.74599 0.65925 0.11953
 H1782 H 0.70330 0.75843 0.14168
 H1783 H 0.71033 0.77263 0.18523
 H1784 H 0.74069 0.70386 0.20461
 C1785 C 0.18966 0.62430 0.24366
 C1786 C 0.18141 0.63552 0.22235
 C1787 C 0.16603 0.62493 0.20516
 C1788 C 0.15866 0.60189 0.21030
 C1789 C 0.16713 0.58964 0.23207
 C1790 C 0.18320 0.60116 0.24874
 O1791 O 0.20283 0.63805 0.25847
 C1792 C 0.20284 0.65840 0.24622
 C1793 C 0.19024 0.65772 0.22387
 C1794 C 0.18782 0.67718 0.20818
 C1795 C 0.19843 0.69836 0.21614
 C1796 C 0.21020 0.70003 0.24002
 C1797 C 0.21317 0.67932 0.25468
 H1798 H 0.15933 0.63434 0.18880
 H1799 H 0.14577 0.59409 0.19761
 H1800 H 0.19036 0.59267 0.26542
 H1801 H 0.17802 0.67614 0.19052
 H1802 H 0.19659 0.71365 0.20407
 H1803 H 0.22278 0.67948 0.27248
 C1804 C 0.68433 0.13886 0.72814
 C1805 C 0.70092 0.13669 0.71044
 C1806 C 0.70494 0.11579 0.69732
 C1807 C 0.69149 0.09608 0.70285
 C1808 C 0.67413 0.09750 0.72119
 C1809 C 0.67036 0.11963 0.73361
 O1810 O 0.68457 0.15986 0.73974
 C1811 C 0.70173 0.17113 0.72907
 C1812 C 0.71212 0.15771 0.71094
 C1813 C 0.73098 0.16544 0.69805
 C1814 C 0.73989 0.18775 0.70442
 C1815 C 0.73020 0.20190 0.72377
 C1816 C 0.71028 0.19355 0.73572
 H1817 H 0.71828 0.11454 0.68361
 H1818 H 0.69441 0.07992 0.69228
 H1819 H 0.65810 0.12155 0.74840
 H1820 H 0.73887 0.15448 0.68389
 H1821 H 0.75470 0.19358 0.69434
 H1822 H 0.70190 0.20382 0.75005
 C1823 C 0.80775 0.11962 0.25685
 C1824 C 0.78920 0.11643 0.24025
 C1825 C 0.78621 0.09597 0.22586
 C1826 C 0.80316 0.07811 0.22847
 C1827 C 0.82273 0.08104 0.24513
 C1828 C 0.82482 0.10200 0.25985
 O1829 O 0.80791 0.14096 0.26763
 C1830 C 0.78913 0.15145 0.25748
 C1831 C 0.77711 0.13716 0.24065
 C1832 C 0.75778 0.14494 0.22673
 C1833 C 0.75085 0.16864 0.22978
 C1834 C 0.76330 0.18417 0.24653
 C1835 C 0.78226 0.17500 0.26118
 H1836 H 0.77156 0.09399 0.21276
 H1837 H 0.80114 0.06204 0.21737
 H1838 H 0.83972 0.10489 0.27242
 H1839 H 0.74880 0.13340 0.21336
 H1840 H 0.73628 0.17493 0.21825
 H1841 H 0.79199 0.18592 0.27436
 C1842 C 0.29340 0.62022 0.74400
 C1843 C 0.27298 0.61672 0.75591
 C1844 C 0.26797 0.59517 0.76704
 C1845 C 0.28447 0.57659 0.76531
 C1846 C 0.30573 0.58004 0.75309
 C1847 C 0.31016 0.60252 0.74282
 O1848 O 0.29538 0.64175 0.73485
 C1849 C 0.27584 0.65226 0.74114
 C1850 C 0.26146 0.63804 0.75426
 C1851 C 0.24090 0.64669 0.76408
 C1852 C 0.23554 0.67103 0.76083
 C1853 C 0.25057 0.68602 0.74770
 C1854 C 0.27054 0.67588 0.73706
 H1855 H 0.25185 0.59263 0.77640
 H1856 H 0.28045 0.55953 0.77312
 H1857 H 0.32635 0.60649 0.73421
 H1858 H 0.22987 0.63539 0.77469
 H1859 H 0.22022 0.67827 0.76933
 H1860 H 0.28316 0.68633 0.72774
 C1861 C 0.31349 0.36776 0.72121
 C1862 C 0.28977 0.36995 0.72038
 C1863 C 0.27822 0.39100 0.71475
 C1864 C 0.29167 0.41105 0.71086
 C1865 C 0.31643 0.41016 0.71364
 C1866 C 0.32733 0.38759 0.71771
 O1867 O 0.32087 0.34626 0.72815
 C1868 C 0.30128 0.33485 0.73213
 C1869 C 0.28188 0.34876 0.72792
 C1870 C 0.25986 0.34173 0.73380
 C1871 C 0.25764 0.31937 0.74442
 C1872 C 0.27718 0.30381 0.74827
 C1873 C 0.29933 0.31185 0.74145
 H1874 H 0.25945 0.39208 0.71384
 H1875 H 0.28243 0.42722 0.70592
 H1876 H 0.34589 0.38553 0.72049
 H1877 H 0.24495 0.35340 0.73116
 H1878 H 0.24040 0.31440 0.74962
 H1879 H 0.31482 0.30124 0.74426
 C1880 C 0.80639 0.87371 0.23137
 C1881 C 0.78679 0.87968 0.24401
 C1882 C 0.78181 0.90262 0.25191
 C1883 C 0.79794 0.92020 0.24699
 C1884 C 0.81867 0.91460 0.23451
 C1885 C 0.82283 0.89095 0.22639
 O1886 O 0.80787 0.85066 0.22607
 C1887 C 0.78891 0.84195 0.23590
 C1888 C 0.77561 0.85901 0.24722
 C1889 C 0.75568 0.85387 0.25974
 C1890 C 0.74930 0.83007 0.26107
 C1891 C 0.76274 0.81178 0.24982
 C1892 C 0.78239 0.81815 0.23617
 H1893 H 0.76628 0.90677 0.26194
 H1894 H 0.79464 0.93804 0.25378
 H1895 H 0.83852 0.88608 0.21696
 H1896 H 0.74548 0.86770 0.26841
 H1897 H 0.73364 0.82620 0.27070
 H1898 H 0.79253 0.80505 0.22633
 C1899 C 0.69099 0.88273 0.76445
 C1900 C 0.71081 0.88361 0.77943
 C1901 C 0.71740 0.90390 0.79276
 C1902 C 0.70295 0.92408 0.79054
 C1903 C 0.68212 0.92376 0.77523
 C1904 C 0.67639 0.90240 0.76199
 O1905 O 0.68786 0.86193 0.75307
 C1906 C 0.70608 0.84931 0.76117
 C1907 C 0.72068 0.86169 0.77735
 C1908 C 0.74083 0.85174 0.78796
 C1909 C 0.74599 0.82804 0.78177
 C1910 C 0.73111 0.81477 0.76511
 C1911 C 0.71092 0.82587 0.75465
 H1912 H 0.73306 0.90416 0.80457
 H1913 H 0.70782 0.93952 0.80160
 H1914 H 0.66153 0.90104 0.74912
 H1915 H 0.75214 0.86182 0.80060
 H1916 H 0.76161 0.82018 0.79008
 H1917 H 0.69929 0.81676 0.74161
 C1918 C 0.20699 0.37395 0.27839
 C1919 C 0.22526 0.37616 0.26274
 C1920 C 0.22984 0.39703 0.25024
 C1921 C 0.21477 0.41636 0.25377
 C1922 C 0.19547 0.41443 0.26943
 C1923 C 0.19188 0.39296 0.28226
 O1924 O 0.20460 0.35208 0.28688
 C1925 C 0.22162 0.34019 0.27615
 C1926 C 0.23477 0.35412 0.26124
 C1927 C 0.25228 0.34498 0.24669
 C1928 C 0.25602 0.32039 0.24703
 C1929 C 0.24221 0.30541 0.26170
 C1930 C 0.22533 0.31575 0.27714
 H1931 H 0.24403 0.39819 0.23756
 H1932 H 0.21749 0.43240 0.24331
 H1933 H 0.17728 0.39080 0.29420
 H1934 H 0.26218 0.35625 0.23479
 H1935 H 0.26911 0.31310 0.23505
 H1936 H 0.21462 0.30512 0.28872
 C1937 C 0.13723 0.24020 0.80145
 C1938 C 0.14843 0.25501 0.81840
 C1939 C 0.13765 0.26621 0.83816
 C1940 C 0.11408 0.26207 0.84069
 C1941 C 0.10183 0.24690 0.82372
 C1942 C 0.11349 0.23558 0.80380
 O1943 O 0.15119 0.23204 0.78379
 C1944 C 0.17157 0.24203 0.78993
 C1945 C 0.17043 0.25608 0.81102
 C1946 C 0.18904 0.26835 0.82128
 C1947 C 0.20999 0.26612 0.80951
 C1948 C 0.21244 0.25198 0.78729
 C1949 C 0.19261 0.23971 0.77738
 H1950 H 0.14702 0.27794 0.85103
 H1951 H 0.10522 0.27072 0.85589
 H1952 H 0.10435 0.22404 0.79056
 H1953 H 0.18757 0.27918 0.83801
 H1954 H 0.22438 0.27556 0.81837
 H1955 H 0.19341 0.22886 0.76071
 C1956 C 0.62042 0.74769 0.28531
 C1957 C 0.61855 0.75755 0.26184
 C1958 C 0.59732 0.76480 0.25108
 C1959 C 0.57735 0.76180 0.26511
 C1960 C 0.57892 0.75203 0.28963
 C1961 C 0.60097 0.74491 0.29966
 O1962 O 0.64204 0.74225 0.29245
 C1963 C 0.65417 0.74887 0.27314
 C1964 C 0.64077 0.75846 0.25391
 C1965 C 0.65040 0.76750 0.23246
 C1966 C 0.67475 0.76675 0.23098
 C1967 C 0.68895 0.75676 0.25058
 C1968 C 0.67816 0.74753 0.27185
 H1969 H 0.59617 0.77251 0.23257
 H1970 H 0.56071 0.76704 0.25676
 H1971 H 0.60322 0.73801 0.31846
 H1972 H 0.63960 0.77534 0.21766
 H1973 H 0.68241 0.77440 0.21482
 H1974 H 0.68803 0.73983 0.28742
 C1975 C 0.62579 0.25698 0.20317
 C1976 C 0.62497 0.24956 0.22756
 C1977 C 0.60449 0.24268 0.23823
 C1978 C 0.58397 0.24350 0.22323
 C1979 C 0.58398 0.25136 0.19794
 C1980 C 0.60546 0.25826 0.18793
 O1981 O 0.64729 0.26148 0.19632
 C1982 C 0.66028 0.25676 0.21686
 C1983 C 0.64740 0.24954 0.23650
 C1984 C 0.65744 0.24270 0.25938
 C1985 C 0.68175 0.24280 0.26203
 C1986 C 0.69580 0.24970 0.24205
 C1987 C 0.68461 0.25714 0.21914
 H1988 H 0.60437 0.23642 0.25734
 H1989 H 0.56821 0.23738 0.23134
 H1990 H 0.60644 0.26443 0.16886
 H1991 H 0.64694 0.23674 0.27447
 H1992 H 0.68945 0.23637 0.27938
 H1993 H 0.69449 0.26215 0.20319
 C1994 C 0.11879 0.75783 0.71159
 C1995 C 0.12938 0.77787 0.70322
 C1996 C 0.11867 0.79341 0.68624
 C1997 C 0.09620 0.78799 0.67722
 C1998 C 0.08480 0.76727 0.68510
 C1999 C 0.09616 0.75215 0.70296
 O2000 O 0.13283 0.74467 0.72637
 C2001 C 0.15268 0.75667 0.72718
 C2002 C 0.15135 0.77707 0.71328
 C2003 C 0.17045 0.79113 0.70931
 C2004 C 0.19192 0.78381 0.71980
 C2005 C 0.19414 0.76312 0.73487
 C2006 C 0.17392 0.74938 0.73854
 H2007 H 0.12753 0.80890 0.67969
 H2008 H 0.08775 0.79975 0.66370
 H2009 H 0.08809 0.73598 0.70892
 H2010 H 0.16913 0.80658 0.69741
 H2011 H 0.20695 0.79379 0.71484
 H2012 H 0.17490 0.73285 0.74872
 C2013 C 0.86440 0.74308 0.70657
 C2014 C 0.86704 0.75459 0.72924
 C2015 C 0.88786 0.76453 0.73758
 C2016 C 0.90682 0.76277 0.72191
 C2017 C 0.90496 0.75123 0.69800
 C2018 C 0.88315 0.74090 0.69061
 O2019 O 0.84267 0.73601 0.70173
 C2020 C 0.83144 0.74326 0.72184
 C2021 C 0.84566 0.75470 0.73917
 C2022 C 0.83749 0.76505 0.76085
 C2023 C 0.81364 0.76396 0.76475
 C2024 C 0.79819 0.75216 0.74738
 C2025 C 0.80750 0.74156 0.72555
 H2026 H 0.88946 0.77352 0.75556
 H2027 H 0.92307 0.76997 0.72908
 H2028 H 0.88020 0.73259 0.67245
 H2029 H 0.84900 0.77432 0.77399
 H2030 H 0.80729 0.77264 0.78134
 H2031 H 0.79638 0.73313 0.71139
 C2032 C 0.36609 0.23133 0.20702
 C2033 C 0.37004 0.23549 0.23225
 C2034 C 0.39179 0.24156 0.24239
 C2035 C 0.41019 0.24336 0.22592
 C2036 C 0.40671 0.23893 0.19981
 C2037 C 0.38428 0.23255 0.19034
 O2038 O 0.34381 0.22779 0.20094
 C2039 C 0.33350 0.22970 0.22278
 C2040 C 0.34878 0.23417 0.24257
 C2041 C 0.34148 0.23812 0.26685
 C2042 C 0.31747 0.23815 0.27077
 C2043 C 0.30109 0.23417 0.25060
 C2044 C 0.30957 0.22964 0.22626
 H2045 H 0.39441 0.24528 0.26221
 H2046 H 0.42719 0.24821 0.23349
 H2047 H 0.38093 0.22948 0.17048
 H2048 H 0.35380 0.24198 0.28210
 H2049 H 0.31169 0.24256 0.28932
 H2050 H 0.29791 0.22738 0.21008
 C2051 C 0.36443 0.74984 0.28554
 C2052 C 0.35958 0.72742 0.27659
 C2053 C 0.37547 0.70876 0.27847
 C2054 C 0.39719 0.71332 0.29022
 C2055 C 0.40280 0.73634 0.29971
 C2056 C 0.38605 0.75489 0.29696
 O2057 O 0.34642 0.76466 0.28333
 C2058 C 0.32981 0.75125 0.27287
 C2059 C 0.33700 0.72840 0.26823
 C2060 C 0.32214 0.71119 0.25837
 C2061 C 0.29879 0.71762 0.25383
 C2062 C 0.29040 0.74094 0.25938
 C2063 C 0.30668 0.75805 0.26831
 H2064 H 0.37108 0.69112 0.27177
 H2065 H 0.40927 0.69864 0.29261
 H2066 H 0.38951 0.77268 0.30380
 H2067 H 0.32815 0.69323 0.25495
 H2068 H 0.28713 0.70395 0.24683
 H2069 H 0.30188 0.77603 0.27227
 C2070 C 0.87830 0.24669 0.79248
 C2071 C 0.87970 0.23327 0.77093
 C2072 C 0.90032 0.22269 0.76368
 C2073 C 0.92025 0.22618 0.77923
 C2074 C 0.91934 0.24033 0.80142
 C2075 C 0.89787 0.25067 0.80798
 O2076 O 0.85711 0.25500 0.79623
 C2077 C 0.84488 0.24673 0.77658
 C2078 C 0.85781 0.23347 0.76039
 C2079 C 0.84828 0.22357 0.73838
 C2080 C 0.82456 0.22784 0.73273
 C2081 C 0.81088 0.24179 0.74901
 C2082 C 0.82133 0.25067 0.77168
 H2083 H 0.90103 0.21196 0.74680
 H2084 H 0.93627 0.21756 0.77409
 H2085 H 0.89640 0.26181 0.82447
 H2086 H 0.85872 0.21301 0.72595
 H2087 H 0.81695 0.22002 0.71585
 H2088 H 0.81165 0.26112 0.78491
 C2089 C 0.55141 0.97947 0.61609
 C2090 C 0.56230 0.96167 0.60300
 C2091 C 0.58034 0.94817 0.61372
 C2092 C 0.58759 0.95361 0.63859
 C2093 C 0.57690 0.97241 0.65212
 C2094 C 0.55823 0.98512 0.64064
 O2095 O 0.53572 0.99128 0.60241
 C2096 C 0.53672 0.98086 0.58018
 C2097 C 0.55261 0.96261 0.57926
 C2098 C 0.55708 0.95053 0.55697
 C2099 C 0.54487 0.95786 0.53490
 C2100 C 0.52877 0.97712 0.53546
 C2101 C 0.52455 0.98824 0.55885
 H2102 H 0.58888 0.93436 0.60314
 H2103 H 0.60181 0.94349 0.64710
 H2104 H 0.55008 1.00001 0.64993
 H2105 H 0.56988 0.93638 0.55647
 H2106 H 0.54854 0.94902 0.51740
 H2107 H 0.51275 1.00310 0.56082
 C2108 C 0.06185 0.46948 1.11948
 C2109 C 0.03931 0.46206 1.12033
 C2110 C 0.02914 0.45620 1.14259
 C2111 C 0.04263 0.45837 1.16492
 C2112 C 0.06623 0.46604 1.16487
 C2113 C 0.07586 0.47104 1.14123
 O2114 O 0.06750 0.47677 1.09695
 C2115 C 0.04809 0.47377 1.08323
 C2116 C 0.03039 0.46455 1.09655
 C2117 C 0.00817 0.46141 1.08620
 C2118 C 0.00394 0.46849 1.06129
 C2119 C 0.02171 0.47898 1.04729
 C2120 C 0.04422 0.48119 1.05859
 H2121 H 0.01120 0.45073 1.14286
 H2122 H 0.03459 0.45329 1.18203
 H2123 H 0.09304 0.47826 1.13960
 H2124 H -0.00561 0.45443 1.09715
 H2125 H -0.01353 0.46672 1.05345
 H2126 H 0.05813 0.48965 1.04933
 C2127 C -0.04484 0.01545 1.11563
 C2128 C -0.02336 0.02572 1.11830
 C2129 C -0.01360 0.03177 1.14170
 C2130 C -0.02641 0.02672 1.16301
 C2131 C -0.04838 0.01524 1.16062
 C2132 C -0.05762 0.01011 1.13623
 O2133 O -0.05097 0.01013 1.09222
 C2134 C -0.03292 0.01695 1.07969
 C2135 C -0.01541 0.02660 1.09453
 C2136 C 0.00577 0.03302 1.08488
 C2137 C 0.00896 0.02892 1.05910
 C2138 C -0.00906 0.01895 1.04353
 C2139 C -0.03026 0.01305 1.05440
 H2140 H 0.00342 0.03969 1.14356
 H2141 H -0.01851 0.03068 1.18125
 H2142 H -0.07460 0.00243 1.13293
 H2143 H 0.01968 0.03993 1.09692
 H2144 H 0.02579 0.03242 1.05173
 H2145 H -0.04422 0.00444 1.04383
 C2146 C 0.44393 0.52484 0.60526
 C2147 C 0.46512 0.53544 0.60945
 C2148 C 0.47333 0.54175 0.63342
 C2149 C 0.45914 0.53689 0.65368
 C2150 C 0.43743 0.52528 0.64977
 C2151 C 0.42996 0.51933 0.62497
 O2152 O 0.43966 0.51881 0.58158
 C2153 C 0.45861 0.52550 0.57048
 C2154 C 0.47491 0.53568 0.58652
 C2155 C 0.49704 0.54138 0.57888
 C2156 C 0.50272 0.53547 0.55409
 C2157 C 0.48624 0.52430 0.53751
 C2158 C 0.46358 0.52027 0.54587
 H2159 H 0.49013 0.54991 0.63646
 H2160 H 0.46521 0.54212 0.67232
 H2161 H 0.41417 0.50960 0.62087
 H2162 H 0.50989 0.54882 0.59191
 H2163 H 0.52029 0.53832 0.54842
 H2164 H 0.45048 0.51136 0.53431
 C2165 C 0.44058 0.47692 -0.12362
 C2166 C 0.45757 0.45968 -0.12498
 C2167 C 0.46191 0.44729 -0.14702
 C2168 C 0.44818 0.45293 -0.16847
 C2169 C 0.43093 0.47102 -0.16758
 C2170 C 0.42704 0.48309 -0.14478
 O2171 O 0.43982 0.48723 -0.10123
 C2172 C 0.45681 0.47643 -0.08822
 C2173 C 0.46833 0.45953 -0.10187
 C2174 C 0.48804 0.44773 -0.09255
 C2175 C 0.49649 0.45398 -0.06840
 C2176 C 0.48483 0.47129 -0.05373
 C2177 C 0.46442 0.48233 -0.06393
 H2178 H 0.47552 0.43395 -0.14773
 H2179 H 0.45134 0.44367 -0.18590
 H2180 H 0.41399 0.49698 -0.14363
 H2181 H 0.49720 0.43495 -0.10388
 H2182 H 0.51245 0.44571 -0.06145
 H2183 H 0.45551 0.49634 -0.05403
 C2184 C -0.05526 0.97833 0.38805
 C2185 C -0.04126 0.95853 0.39098
 C2186 C -0.03855 0.94182 0.37189
 C2187 C -0.05065 0.94585 0.34892
 C2188 C -0.06524 0.96611 0.34579
 C2189 C -0.06778 0.98234 0.36575
 O2190 O -0.05397 0.99315 0.40738
 C2191 C -0.03891 0.98253 0.42296
 C2192 C -0.03071 0.96120 0.41407
 C2193 C -0.01392 0.94786 0.42719
 C2194 C -0.00511 0.95712 0.45015
 C2195 C -0.01299 0.97946 0.45934
 C2196 C -0.03021 0.99213 0.44532
 H2197 H -0.02703 0.92667 0.37433
 H2198 H -0.04852 0.93344 0.33353
 H2199 H -0.07832 0.99826 0.36355
 H2200 H -0.00756 0.93116 0.41982
 H2201 H 0.00819 0.94710 0.46038
 H2202 H -0.03603 1.00960 0.45074
 C2203 C 0.06279 0.51335 0.39576
 C2204 C 0.04731 0.53206 0.39577
 C2205 C 0.04182 0.54519 0.37440
 C2206 C 0.05279 0.53881 0.35220
 C2207 C 0.06917 0.51973 0.35175
 C2208 C 0.07427 0.50707 0.37416
 O2209 O 0.06401 0.50171 0.41724
 C2210 C 0.04896 0.51330 0.43114
 C2211 C 0.03845 0.53220 0.41906
 C2212 C 0.02115 0.54587 0.42979
 C2213 C 0.01379 0.53919 0.45351
 C2214 C 0.02346 0.51886 0.46575
 C2215 C 0.04186 0.50628 0.45453
 H2216 H 0.02904 0.55938 0.37462
 H2217 H 0.04797 0.54840 0.33531
 H2218 H 0.08667 0.49253 0.37491
 H2219 H 0.01299 0.56059 0.41988
 H2220 H -0.00031 0.54912 0.46157
 H2221 H 0.04949 0.49048 0.46291
 C2222 C 0.55003 0.01477 -0.11686
 C2223 C 0.54220 0.03704 -0.11028
 C2224 C 0.54398 0.05653 -0.12593
 C2225 C 0.55445 0.05287 -0.14908
 C2226 C 0.56254 0.02997 -0.15618
 C2227 C 0.56011 0.01068 -0.13981
 O2228 O 0.54712 -0.00132 -0.09938
 C2229 C 0.53716 0.01097 -0.08137
 C2230 C 0.53364 0.03451 -0.08699
 C2231 C 0.52302 0.05029 -0.07066
 C2232 C 0.51553 0.04131 -0.04780
 C2233 C 0.51907 0.01703 -0.04161
 C2234 C 0.53026 0.00183 -0.05880
 H2235 H 0.53779 0.07393 -0.12040
 H2236 H 0.55627 0.06781 -0.16146
 H2237 H 0.56651 -0.00689 -0.14447
 H2238 H 0.52028 0.06874 -0.07548
 H2239 H 0.50681 0.05322 -0.03515
 H2240 H 0.53325 -0.01682 -0.05517
 C2241 C 0.63199 0.53731 0.00182
 C2242 C 0.63433 0.51570 -0.01014
 C2243 C 0.65535 0.50793 -0.01947
 C2244 C 0.67450 0.52314 -0.01644
 C2245 C 0.67214 0.54563 -0.00446
 C2246 C 0.65058 0.55256 0.00498
 O2247 O 0.61064 0.54194 0.00864
 C2248 C 0.59916 0.52295 0.00079
 C2249 C 0.61263 0.50625 -0.01085
 C2250 C 0.60333 0.48553 -0.02135
 C2251 C 0.57920 0.48214 -0.01988
 C2252 C 0.56503 0.49944 -0.00812
 C2253 C 0.57558 0.51995 0.00248
 H2254 H 0.65689 0.49098 -0.02901
 H2255 H 0.69095 0.51771 -0.02392
 H2256 H 0.64824 0.56949 0.01437
 H2257 H 0.61415 0.47264 -0.03067
 H2258 H 0.57163 0.46631 -0.02824
 H2259 H 0.56573 0.53413 0.01089
 C2260 C 0.13558 1.03918 0.51932
 C2261 C 0.13592 1.01982 0.50345
 C2262 C 0.15521 1.01387 0.48964
 C2263 C 0.17474 1.02862 0.49217
 C2264 C 0.17446 1.04898 0.50806
 C2265 C 0.15467 1.05395 0.52212
 O2266 O 0.11518 1.04297 0.52930
 C2267 C 0.10226 1.02572 0.51947
 C2268 C 0.11399 1.01100 0.50353
 C2269 C 0.10294 0.99314 0.48961
 C2270 C 0.07883 0.99078 0.49184
 C2271 C 0.06618 1.00624 0.50775
 C2272 C 0.07854 1.02353 0.52214
 H2273 H 0.15500 0.99883 0.47687
 H2274 H 0.18968 1.02471 0.48107
 H2275 H 0.15385 1.06933 0.53439
 H2276 H 0.11239 0.98200 0.47679
 H2277 H 0.07002 0.97744 0.48042
 H2278 H 0.06998 1.03670 0.53325
 C2279 C 0.11977 -0.05564 0.99639
 C2280 C 0.11777 -0.04324 0.97444
 C2281 C 0.13614 -0.03965 0.95902
 C2282 C 0.15750 -0.04985 0.96608
 C2283 C 0.16025 -0.06423 0.98797
 C2284 C 0.14084 -0.06647 1.00366
 O2285 O 0.10011 -0.05595 1.00872
 C2286 C 0.08546 -0.04353 0.99400
 C2287 C 0.09554 -0.03566 0.97272
 C2288 C 0.08384 -0.02231 0.95464
 C2289 C 0.06078 -0.01640 0.95877
 C2290 C 0.04959 -0.02381 0.98078
 C2291 C 0.06237 -0.03761 0.99871
 H2292 H 0.13418 -0.02905 0.94225
 H2293 H 0.17185 -0.04581 0.95445
 H2294 H 0.14141 -0.07715 1.02038
 H2295 H 0.09226 -0.01634 0.93806
 H2296 H 0.05202 -0.00542 0.94482
 H2297 H 0.05507 -0.04277 1.01614
 C2298 C 0.62067 0.44283 0.50513
 C2299 C 0.60676 0.42547 0.49477
 C2300 C 0.61492 0.40330 0.48781
 C2301 C 0.63857 0.39861 0.49166
 C2302 C 0.65395 0.41611 0.50209
 C2303 C 0.64456 0.43875 0.50880
 O2304 O 0.60901 0.46279 0.51009
 C2305 C 0.58734 0.45777 0.50241
 C2306 C 0.58533 0.43519 0.49274
 C2307 C 0.56497 0.42639 0.48209
 C2308 C 0.54564 0.44138 0.48143
 C2309 C 0.54644 0.46466 0.49213
 C2310 C 0.56790 0.47299 0.50265
 H2311 H 0.60349 0.39010 0.47936
 H2312 H 0.64485 0.38161 0.48505
 H2313 H 0.65525 0.45261 0.51713
 H2314 H 0.56415 0.40880 0.47380
 H2315 H 0.53033 0.43474 0.47164
 H2316 H 0.56957 0.49079 0.51025
 C2317 C -0.12739 0.46490 0.48092
 C2318 C -0.12807 0.48658 0.49291
 C2319 C -0.14847 0.49671 0.50134
 C2320 C -0.16896 0.48367 0.49783
 C2321 C -0.16860 0.46080 0.48641
 C2322 C -0.14751 0.45164 0.47730
 O2323 O -0.10604 0.45769 0.47602
 C2324 C -0.09292 0.47510 0.48533
 C2325 C -0.10556 0.49312 0.49596
 C2326 C -0.09529 0.51198 0.50887
 C2327 C -0.07102 0.51208 0.51127
 C2328 C -0.05741 0.49348 0.50082
 C2329 C -0.06873 0.47519 0.48687
 H2330 H -0.14850 0.51370 0.51098
 H2331 H -0.18494 0.49105 0.50472
 H2332 H -0.14641 0.43397 0.46925
 H2333 H -0.10560 0.52575 0.51748
 H2334 H -0.06302 0.52656 0.52173
 H2335 H -0.05922 0.46078 0.47851
 C2336 C 0.37722 -0.05414 0.00092
 C2337 C 0.37550 -0.03277 -0.01126
 C2338 C 0.35498 -0.02466 -0.02281
 C2339 C 0.33538 -0.03912 -0.02163
 C2340 C 0.33651 -0.06112 -0.00874
 C2341 C 0.35791 -0.06864 0.00264
 O2342 O 0.39842 -0.05875 0.01024
 C2343 C 0.41032 -0.03985 0.00383
 C2344 C 0.39708 -0.02336 -0.00918
 C2345 C 0.40602 -0.00215 -0.01745
 C2346 C 0.42965 0.00214 -0.01232
 C2347 C 0.44395 -0.01480 0.00070
 C2348 C 0.43387 -0.03611 0.00887
 H2349 H 0.35413 -0.00788 -0.03254
 H2350 H 0.31941 -0.03319 -0.03097
 H2351 H 0.35951 -0.08507 0.01294
 H2352 H 0.39521 0.01062 -0.02757
 H2353 H 0.43670 0.01859 -0.01886
 H2354 H 0.44391 -0.04947 0.01897
 C2355 C 0.38589 1.05700 0.51055
 C2356 C 0.38366 1.03331 0.51567
 C2357 C 0.36324 1.02357 0.52376
 C2358 C 0.34417 1.03887 0.52646
 C2359 C 0.34588 1.06352 0.52140
 C2360 C 0.36729 1.07263 0.51351
 O2361 O 0.40673 1.06250 0.50260
 C2362 C 0.41790 1.04177 0.50280
 C2363 C 0.40451 1.02343 0.51069
 C2364 C 0.41255 1.00024 0.51226
 C2365 C 0.43551 0.99580 0.50591
 C2366 C 0.45015 1.01444 0.49819
 C2367 C 0.44079 1.03772 0.49603
 H2368 H 0.36190 1.00478 0.52744
 H2369 H 0.32793 1.03127 0.53180
 H2370 H 0.36948 1.09128 0.50966
 H2371 H 0.40157 0.98607 0.51829
 H2372 H 0.44171 0.97765 0.50717
 H2373 H 0.45070 1.05227 0.48915
 C2374 C -0.11642 0.54475 1.00324
 C2375 C -0.11398 0.53702 0.97899
 C2376 C -0.13056 0.54095 0.96003
 C2377 C -0.15078 0.55304 0.96638
 C2378 C -0.15454 0.56027 0.99158
 C2379 C -0.13681 0.55621 1.01024
 O2380 O -0.09768 0.54058 1.01784
 C2381 C -0.08326 0.52991 1.00236
 C2382 C -0.09262 0.52708 0.97850
 C2383 C -0.08073 0.51656 0.95917
 C2384 C -0.05785 0.50933 0.96439
 C2385 C -0.04697 0.51363 0.98829
 C2386 C -0.06030 0.52320 1.00789
 H2387 H -0.12778 0.53542 0.94089
 H2388 H -0.16331 0.55700 0.95138
 H2389 H -0.13878 0.56159 1.02956
 H2390 H -0.08871 0.51419 0.94065
 H2391 H -0.04863 0.50088 0.94948
 H2392 H -0.05276 0.52661 1.02643
 C2393 C 0.00637 0.62241 0.54970
 C2394 C 0.02467 0.61106 0.56189
 C2395 C 0.03679 0.62088 0.58236
 C2396 C 0.02969 0.64329 0.59084
 C2397 C 0.01071 0.65545 0.57894
 C2398 C -0.00090 0.64500 0.55772
 O2399 O -0.00391 0.60892 0.53199
 C2400 C 0.00814 0.58863 0.53318
 C2401 C 0.02579 0.58918 0.55119
 C2402 C 0.03900 0.56936 0.55771
 C2403 C 0.03360 0.54793 0.54557
 C2404 C 0.01568 0.54649 0.52652
 C2405 C 0.00291 0.56747 0.52015
 H2406 H 0.05089 0.61137 0.59187
 H2407 H 0.03880 0.65109 0.60696
 H2408 H -0.01573 0.65366 0.54859
 H2409 H 0.05217 0.57006 0.57267
 H2410 H 0.04273 0.53224 0.55223
 H2411 H -0.01167 0.56704 0.50680
 C2412 C 0.50343 0.12242 0.04481
 C2413 C 0.52455 0.11279 0.05222
 C2414 C 0.53965 0.12369 0.06952
 C2415 C 0.53267 0.14536 0.07995
 C2416 C 0.51085 0.15572 0.07315
 C2417 C 0.49614 0.14428 0.05490
 O2418 O 0.49105 0.10796 0.02969
 C2419 C 0.50466 0.08879 0.02771
 C2420 C 0.52527 0.09104 0.04124
 C2421 C 0.54086 0.07245 0.04472
 C2422 C 0.53495 0.05048 0.03417
 C2423 C 0.51428 0.04730 0.01907
 C2424 C 0.49887 0.06708 0.01590
 H2425 H 0.55603 0.11549 0.07527
 H2426 H 0.54411 0.15393 0.09374
 H2427 H 0.47919 0.15155 0.04976
 H2428 H 0.55632 0.07434 0.05666
 H2429 H 0.54602 0.03576 0.03957
 H2430 H 0.48222 0.06521 0.00607
 C2431 C -0.00992 0.12486 0.95176
 C2432 C 0.00430 0.12550 0.97302
 C2433 C 0.01705 0.14543 0.98013
 C2434 C 0.01531 0.16536 0.96454
 C2435 C 0.00105 0.16504 0.94222
 C2436 C -0.01202 0.14449 0.93609
 O2437 O -0.01936 0.10378 0.94743
 C2438 C -0.01080 0.09077 0.96626
 C2439 C 0.00375 0.10318 0.98247
 C2440 C 0.01597 0.09244 1.00232
 C2441 C 0.01347 0.06785 1.00522
 C2442 C -0.00120 0.05450 0.98853
 C2443 C -0.01387 0.06647 0.96907
 H2444 H 0.02844 0.14542 0.99671
 H2445 H 0.02576 0.18069 0.96940
 H2446 H -0.02307 0.14352 0.91928
 H2447 H 0.02773 0.10245 1.01454
 H2448 H 0.02376 0.05922 1.01983
 H2449 H -0.02496 0.05708 0.95562
 C2450 C 0.50014 0.62074 0.44090
 C2451 C 0.51675 0.62142 0.46006
 C2452 C 0.53062 0.64117 0.46464
 C2453 C 0.52718 0.66089 0.44888
 C2454 C 0.50996 0.66066 0.42905
 C2455 C 0.49624 0.64014 0.42526
 O2456 O 0.48934 0.60014 0.43898
 C2457 C 0.49932 0.58751 0.45729
 C2458 C 0.51612 0.59962 0.47093
 C2459 C 0.52892 0.58922 0.49068
 C2460 C 0.52434 0.56537 0.49633
 C2461 C 0.50725 0.55242 0.48222
 C2462 C 0.49467 0.56397 0.46240
 H2463 H 0.54384 0.64128 0.47957
 H2464 H 0.53826 0.67611 0.45192
 H2465 H 0.48277 0.63921 0.41063
 H2466 H 0.54220 0.59900 0.50110
 H2467 H 0.53453 0.55691 0.51121
 H2468 H 0.48172 0.55486 0.45081
 C2469 C 0.51096 0.87697 0.43739
 C2470 C 0.50704 0.87389 0.46241
 C2471 C 0.50148 0.85201 0.47231
 C2472 C 0.49993 0.83253 0.45575
 C2473 C 0.50377 0.83526 0.42978
 C2474 C 0.50950 0.85789 0.42061
 O2475 O 0.51482 0.89937 0.43152
 C2476 C 0.51328 0.91071 0.45330
 C2477 C 0.50858 0.89597 0.47281
 C2478 C 0.50479 0.90441 0.49688
 C2479 C 0.50547 0.92907 0.50087
 C2480 C 0.51014 0.94477 0.48099
 C2481 C 0.51436 0.93518 0.45691
 H2482 H 0.49825 0.85005 0.49203
 H2483 H 0.49579 0.81532 0.46318
 H2484 H 0.51205 0.86074 0.40087
 H2485 H 0.50066 0.89252 0.51186
 H2486 H 0.50156 0.93587 0.51928
 H2487 H 0.51715 0.94635 0.44096
 C2488 C 0.01860 0.38223 0.94195
 C2489 C 0.02637 0.37899 0.96639
 C2490 C 0.03175 0.35664 0.97598
 C2491 C 0.02900 0.33694 0.95977
 C2492 C 0.02083 0.33979 0.93449
 C2493 C 0.01561 0.36291 0.92557
 O2494 O 0.01411 0.40478 0.93657
 C2495 C 0.01902 0.41601 0.95806
 C2496 C 0.02656 0.40115 0.97696
 C2497 C 0.03196 0.40941 1.00114
 C2498 C 0.02901 0.43386 1.00611
 C2499 C 0.02080 0.44959 0.98700
 C2500 C 0.01631 0.44024 0.96246
 H2501 H 0.03767 0.35441 0.99530
 H2502 H 0.03282 0.31941 0.96707
 H2503 H 0.00948 0.36581 0.90642
 H2504 H 0.03789 0.39742 1.01580
 H2505 H 0.03308 0.44021 1.02483
 H2506 H 0.01019 0.45135 0.94710
 C2507 C 0.48851 0.37782 0.05538
 C2508 C 0.48185 0.37375 0.03073
 C2509 C 0.47559 0.35140 0.02166
 C2510 C 0.47624 0.33246 0.03864
 C2511 C 0.48326 0.33599 0.06420
 C2512 C 0.48942 0.35917 0.07260
 O2513 O 0.49421 0.40030 0.06002
 C2514 C 0.49116 0.41059 0.03779
 C2515 C 0.48370 0.39511 0.01926
 C2516 C 0.48033 0.40193 -0.00555
 C2517 C 0.48513 0.42554 -0.01162
 C2518 C 0.49284 0.44219 0.00697
 C2519 C 0.49564 0.43431 0.03222
 H2520 H 0.47062 0.34859 0.00212
 H2521 H 0.47181 0.31491 0.03168
 H2522 H 0.49479 0.36260 0.09193
 H2523 H 0.47461 0.38937 -0.01989
 H2524 H 0.48273 0.43050 -0.03088
 H2525 H 0.50187 0.44605 0.04710
 C2526 C -0.00699 0.88024 0.55369
 C2527 C -0.02584 0.88349 0.53754
 C2528 C -0.04322 0.86661 0.53456
 C2529 C -0.04109 0.84573 0.54886
 C2530 C -0.02158 0.84177 0.56554
 C2531 C -0.00421 0.85946 0.56754
 O2532 O 0.00717 0.89865 0.55474
 C2533 C -0.00291 0.91389 0.53888
 C2534 C -0.02303 0.90552 0.52760
 C2535 C -0.03607 0.91885 0.51020
 C2536 C -0.02816 0.94172 0.50452
 C2537 C -0.00791 0.95122 0.51677
 C2538 C 0.00494 0.93661 0.53396
 H2539 H -0.05814 0.86960 0.52205
 H2540 H -0.05499 0.83301 0.54718
 H2541 H 0.01122 0.85733 0.57947
 H2542 H -0.05180 0.91193 0.50133
 H2543 H -0.03819 0.95215 0.49103
 H2544 H 0.02061 0.94262 0.54372
 C2545 C 0.23550 0.30780 0.13196
 C2546 C 0.22072 0.32073 0.14665
 C2547 C 0.21187 0.34288 0.13974
 C2548 C 0.21861 0.35211 0.11680
 C2549 C 0.23385 0.33911 0.10146
 C2550 C 0.24222 0.31655 0.10896
 O2551 O 0.24344 0.28813 0.14288
 C2552 C 0.23350 0.28866 0.16493
 C2553 C 0.21938 0.30815 0.16813
 C2554 C 0.20865 0.31308 0.19048
 C2555 C 0.21320 0.29766 0.21058
 C2556 C 0.22826 0.27766 0.20813
 C2557 C 0.23799 0.27293 0.18454
 H2558 H 0.20076 0.35299 0.15189
 H2559 H 0.21240 0.36954 0.11116
 H2560 H 0.25441 0.30670 0.09781
 H2561 H 0.19788 0.32874 0.19269
 H2562 H 0.20567 0.30204 0.22828
 H2563 H 0.24995 0.25830 0.18177
 C2564 C 0.73317 0.83746 0.64125
 C2565 C 0.71827 0.81910 0.63562
 C2566 C 0.71072 0.81352 0.61129
 C2567 C 0.71895 0.82735 0.59192
 C2568 C 0.73476 0.84611 0.59709
 C2569 C 0.74165 0.85144 0.62224
 O2570 O 0.73980 0.83838 0.66532
 C2571 C 0.72899 0.82010 0.67501
 C2572 C 0.71564 0.80774 0.65758
 C2573 C 0.70522 0.78636 0.66279
 C2574 C 0.70929 0.77692 0.68673
 C2575 C 0.72298 0.78924 0.70531
 C2576 C 0.73252 0.81150 0.69927
 H2577 H 0.69929 0.79872 0.60732
 H2578 H 0.71317 0.82328 0.57285
 H2579 H 0.75409 0.86524 0.62677
 H2580 H 0.69549 0.77655 0.64847
 H2581 H 0.70244 0.75951 0.69029
 H2582 H 0.74403 0.82093 0.71230
 C2583 C 0.26195 0.67410 0.62991
 C2584 C 0.28131 0.68824 0.63100
 C2585 C 0.29669 0.68903 0.61149
 C2586 C 0.29182 0.67473 0.59017
 C2587 C 0.27190 0.66002 0.58885
 C2588 C 0.25687 0.65982 0.60915
 O2589 O 0.24902 0.67630 0.64976
 C2590 C 0.26037 0.69215 0.66376
 C2591 C 0.28030 0.70009 0.65339
 C2592 C 0.29428 0.71727 0.66513
 C2593 C 0.28721 0.72671 0.68825
 C2594 C 0.26643 0.71894 0.69897
 C2595 C 0.25309 0.70120 0.68637
 H2596 H 0.31177 0.70033 0.61255
 H2597 H 0.30358 0.67497 0.57482
 H2598 H 0.24127 0.64924 0.60860
 H2599 H 0.30988 0.72341 0.65665
 H2600 H 0.29767 0.74029 0.69747
 H2601 H 0.23715 0.69458 0.69366
 C2602 C 0.76286 0.19046 0.11606
 C2603 C 0.78199 0.18125 0.12887
 C2604 C 0.79645 0.16414 0.11853
 C2605 C 0.79073 0.15598 0.09415
 C2606 C 0.77063 0.16467 0.08093
 C2607 C 0.75668 0.18237 0.09199
 O2608 O 0.75095 0.20592 0.12951
 C2609 C 0.76268 0.20632 0.15136
 C2610 C 0.78170 0.19142 0.15207
 C2611 C 0.79515 0.18761 0.17383
 C2612 C 0.78870 0.19962 0.19572
 C2613 C 0.76945 0.21563 0.19543
 C2614 C 0.75638 0.21890 0.17265
 H2615 H 0.81133 0.15703 0.12901
 H2616 H 0.80140 0.14225 0.08593
 H2617 H 0.74119 0.18918 0.08237
 H2618 H 0.80959 0.17518 0.17419
 H2619 H 0.79837 0.19576 0.21294
 H2620 H 0.74107 0.23015 0.17156
 C2621 C 0.72560 0.17913 0.84832
 C2622 C 0.71318 0.19984 0.85167
 C2623 C 0.70443 0.20641 0.87471
 C2624 C 0.70879 0.19112 0.89505
 C2625 C 0.72189 0.16980 0.89212
 C2626 C 0.73005 0.16366 0.86820
 O2627 O 0.73414 0.17709 0.82567
 C2628 C 0.72708 0.19694 0.81451
 C2629 C 0.71412 0.21149 0.82946
 C2630 C 0.70695 0.23414 0.82212
 C2631 C 0.71418 0.24239 0.79887
 C2632 C 0.72832 0.22801 0.78349
 C2633 C 0.73408 0.20460 0.79132
 H2634 H 0.69507 0.22298 0.87711
 H2635 H 0.70217 0.19602 0.91315
 H2636 H 0.74061 0.14792 0.86542
 H2637 H 0.69711 0.24551 0.83435
 H2638 H 0.70992 0.26045 0.79374
 H2639 H 0.74510 0.19303 0.78056
 C2640 C 0.21406 0.68884 0.37718
 C2641 C 0.19637 0.68013 0.36185
 C2642 C 0.18428 0.65975 0.36759
 C2643 C 0.19094 0.64778 0.38978
 C2644 C 0.20932 0.65639 0.40584
 C2645 C 0.22053 0.67765 0.39951
 O2646 O 0.22508 0.70678 0.36730
 C2647 C 0.21424 0.70944 0.34519
 C2648 C 0.19634 0.69383 0.34093
 C2649 C 0.18378 0.69278 0.31817
 C2650 C 0.19064 0.70768 0.29880
 C2651 C 0.21032 0.72252 0.30216
 C2652 C 0.22138 0.72413 0.32629
 H2653 H 0.17088 0.65275 0.35495
 H2654 H 0.18238 0.63132 0.39377
 H2655 H 0.23450 0.68501 0.41113
 H2656 H 0.16972 0.68037 0.31514
 H2657 H 0.18141 0.70652 0.28091
 H2658 H 0.23627 0.73528 0.33016
 C2659 C 0.76303 0.82186 0.37437
 C2660 C 0.78194 0.80677 0.37374
 C2661 C 0.79849 0.80546 0.39338
 C2662 C 0.79536 0.82033 0.41436
 C2663 C 0.77579 0.83579 0.41540
 C2664 C 0.75943 0.83646 0.39507
 O2665 O 0.74943 0.82071 0.35389
 C2666 C 0.75985 0.80450 0.34000
 C2667 C 0.77973 0.79524 0.35120
 C2668 C 0.79276 0.77743 0.33994
 C2669 C 0.78487 0.76887 0.31628
 C2670 C 0.76466 0.77864 0.30407
 C2671 C 0.75201 0.79666 0.31648
 H2672 H 0.81328 0.79353 0.39251
 H2673 H 0.80799 0.81966 0.42988
 H2674 H 0.74449 0.84828 0.39522
 H2675 H 0.80822 0.77013 0.34919
 H2676 H 0.79450 0.75463 0.30756
 H2677 H 0.73614 0.80426 0.30853
 C2678 C 0.29677 0.31171 0.88618
 C2679 C 0.30894 0.32498 0.86967
 C2680 C 0.31585 0.34811 0.87514
 C2681 C 0.30952 0.35799 0.89824
 C2682 C 0.29622 0.34483 0.91515
 C2683 C 0.29031 0.32114 0.90908
 O2684 O 0.28968 0.29118 0.87666
 C2685 C 0.29724 0.29153 0.85355
 C2686 C 0.30915 0.31172 0.84817
 C2687 C 0.31609 0.31663 0.82406
 C2688 C 0.30931 0.30077 0.80466
 C2689 C 0.29543 0.28076 0.80945
 C2690 C 0.29097 0.27543 0.83481
 H2691 H 0.32510 0.35845 0.86180
 H2692 H 0.31452 0.37607 0.90266
 H2693 H 0.27951 0.31080 0.92096
 H2694 H 0.32536 0.33270 0.82008
 H2695 H 0.31416 0.30477 0.78602
 H2696 H 0.28086 0.26032 0.84005
 C2697 C 0.80402 0.37098 0.77544
 C2698 C 0.82262 0.35609 0.77194
 C2699 C 0.84547 0.36334 0.77389
 C2700 C 0.84949 0.38738 0.77826
 C2701 C 0.83081 0.40405 0.77847
 C2702 C 0.80760 0.39553 0.77838
 O2703 O 0.78372 0.35981 0.77278
 C2704 C 0.78989 0.33763 0.76680
 C2705 C 0.81348 0.33497 0.76521
 C2706 C 0.82376 0.31539 0.75436
 C2707 C 0.80925 0.29716 0.74602
 C2708 C 0.78527 0.29709 0.75144
 C2709 C 0.77519 0.31836 0.76100
 H2710 H 0.85975 0.35095 0.77178
 H2711 H 0.86735 0.39311 0.77993
 H2712 H 0.79288 0.40760 0.77856
 H2713 H 0.84215 0.31482 0.75093
 H2714 H 0.81707 0.28327 0.73512
 H2715 H 0.75668 0.31999 0.76340
 C2716 C 0.28430 0.86981 0.26613
 C2717 C 0.29327 0.85873 0.28720
 C2718 C 0.31124 0.86818 0.30197
 C2719 C 0.32046 0.88988 0.29463
 C2720 C 0.31123 0.90223 0.27310
 C2721 C 0.29242 0.89181 0.25906
 O2722 O 0.26912 0.85670 0.25309
 C2723 C 0.26841 0.83696 0.26631
 C2724 C 0.28253 0.83742 0.28761
 C2725 C 0.28483 0.81829 0.30377
 C2726 C 0.27272 0.79754 0.29718
 C2727 C 0.25982 0.79588 0.27398
 C2728 C 0.25665 0.81646 0.25917
 H2729 H 0.31831 0.85893 0.31826
 H2730 H 0.33414 0.89734 0.30658
 H2731 H 0.28545 0.89936 0.24177
 H2732 H 0.29591 0.81912 0.32057
 H2733 H 0.27469 0.78237 0.30939
 H2734 H 0.24633 0.81631 0.24181
 C2735 C 0.21146 0.87134 0.75750
 C2736 C 0.23201 0.87143 0.74522
 C2737 C 0.24110 0.89195 0.73526
 C2738 C 0.22841 0.91319 0.73801
 C2739 C 0.20701 0.91350 0.75042
 C2740 C 0.19860 0.89218 0.76044
 O2741 O 0.20544 0.84991 0.76486
 C2742 C 0.22252 0.83614 0.75697
 C2743 C 0.23920 0.84837 0.74482
 C2744 C 0.25797 0.83714 0.73401
 C2745 C 0.25942 0.81229 0.73554
 C2746 C 0.24223 0.79909 0.74773
 C2747 C 0.22376 0.81155 0.75896
 H2748 H 0.25720 0.89158 0.72546
 H2749 H 0.23497 0.92926 0.72996
 H2750 H 0.18245 0.89177 0.77015
 H2751 H 0.27078 0.84708 0.72427
 H2752 H 0.27377 0.80347 0.72671
 H2753 H 0.20989 0.80247 0.76772
 C2754 C 0.70215 0.36433 0.24026
 C2755 C 0.72526 0.36599 0.23524
 C2756 C 0.73598 0.38744 0.23070
 C2757 C 0.72234 0.40815 0.23171
 C2758 C 0.69842 0.40703 0.23707
 C2759 C 0.68821 0.38462 0.24104
 O2760 O 0.69553 0.34226 0.24461
 C2761 C 0.71495 0.32971 0.24224
 C2762 C 0.73357 0.34345 0.23651
 C2763 C 0.75564 0.33419 0.23358
 C2764 C 0.75862 0.30969 0.23630
 C2765 C 0.73965 0.29476 0.24184
 C2766 C 0.71752 0.30522 0.24526
 H2767 H 0.75429 0.38825 0.22699
 H2768 H 0.73062 0.42506 0.22909
 H2769 H 0.66999 0.38296 0.24489
 H2770 H 0.77008 0.34543 0.22935
 H2771 H 0.77592 0.30255 0.23409
 H2772 H 0.70278 0.29490 0.25036
 C2773 C 0.70704 0.63140 0.26963
 C2774 C 0.69029 0.64226 0.25463
 C2775 C 0.67044 0.63095 0.24543
 C2776 C 0.66767 0.60723 0.25180
 C2777 C 0.68470 0.59527 0.26688
 C2778 C 0.70478 0.60741 0.27598
 O2779 O 0.72443 0.64588 0.27627
 C2780 C 0.71843 0.66620 0.26502
 C2781 C 0.69777 0.66457 0.25148
 C2782 C 0.68829 0.68294 0.23747
 C2783 C 0.70040 0.70416 0.23749
 C2784 C 0.72149 0.70724 0.25192
 C2785 C 0.73074 0.68765 0.26579
 H2786 H 0.65758 0.64006 0.23367
 H2787 H 0.65243 0.59793 0.24463
 H2788 H 0.71805 0.59851 0.28739
 H2789 H 0.67219 0.68095 0.22661
 H2790 H 0.69303 0.71804 0.22586
 H2791 H 0.74684 0.68904 0.27677
 C2792 C 0.22831 0.12626 0.78693
 C2793 C 0.21960 0.13875 0.80676
 C2794 C 0.20286 0.12971 0.82203
 C2795 C 0.19438 0.10698 0.81636
 C2796 C 0.20285 0.09362 0.79582
 C2797 C 0.22051 0.10341 0.78128
 O2798 O 0.24254 0.13891 0.77340
 C2799 C 0.24264 0.15994 0.78487
 C2800 C 0.22891 0.16067 0.80541
 C2801 C 0.22478 0.18132 0.81892
 C2802 C 0.23457 0.20228 0.81049
 C2803 C 0.24807 0.20239 0.78867
 C2804 C 0.25304 0.18056 0.77644
 H2805 H 0.19589 0.14013 0.83721
 H2806 H 0.18045 0.10039 0.82734
 H2807 H 0.22749 0.09394 0.76550
 H2808 H 0.21376 0.18147 0.83492
 H2809 H 0.23093 0.21849 0.82068
 H2810 H 0.26312 0.17988 0.75973
 C2811 C 0.28090 0.12150 0.23310
 C2812 C 0.25919 0.12091 0.24292
 C2813 C 0.24836 0.09989 0.24897
 C2814 C 0.26065 0.07861 0.24525
 C2815 C 0.28336 0.07878 0.23575
 C2816 C 0.29335 0.10059 0.22912
 O2817 O 0.28859 0.14335 0.22993
 C2818 C 0.27141 0.15686 0.23804
 C2819 C 0.25306 0.14401 0.24620
 C2820 C 0.23374 0.15455 0.25649
 C2821 C 0.23335 0.17934 0.25851
 C2822 C 0.25219 0.19324 0.25040
 C2823 C 0.27132 0.18157 0.23968
 H2824 H 0.23136 0.09990 0.25693
 H2825 H 0.25276 0.06207 0.25038
 H2826 H 0.31085 0.10142 0.22250
 H2827 H 0.21952 0.14406 0.26292
 H2828 H 0.21820 0.18751 0.26645
 H2829 H 0.28591 0.19112 0.23307
 C2830 C 0.78939 0.63574 0.74511
 C2831 C 0.76708 0.63469 0.73524
 C2832 C 0.75648 0.61342 0.72824
 C2833 C 0.76956 0.59241 0.73131
 C2834 C 0.79273 0.59310 0.74127
 C2835 C 0.80259 0.61518 0.74846
 O2836 O 0.79619 0.65761 0.75083
 C2837 C 0.77773 0.67072 0.74442
 C2838 C 0.75948 0.65756 0.73480
 C2839 C 0.73834 0.66768 0.72740
 C2840 C 0.73579 0.69228 0.73046
 C2841 C 0.75429 0.70640 0.74072
 C2842 C 0.77569 0.69523 0.74736
 H2843 H 0.73885 0.61304 0.72054
 H2844 H 0.76183 0.57572 0.72549
 H2845 H 0.82004 0.61636 0.75655
 H2846 H 0.72415 0.65698 0.71996
 H2847 H 0.71909 0.70006 0.72529
 H2848 H 0.79026 0.70500 0.75510
 C2849 C 0.86801 0.75221 0.21780
 C2850 C 0.86704 0.77199 0.23295
 C2851 C 0.88374 0.78958 0.23280
 C2852 C 0.90207 0.78675 0.21632
 C2853 C 0.90412 0.76604 0.20079
 C2854 C 0.88670 0.74834 0.20227
 O2855 O 0.84893 0.73921 0.21818
 C2856 C 0.83573 0.75095 0.23408
 C2857 C 0.84617 0.77086 0.24409
 C2858 C 0.83495 0.78621 0.26035
 C2859 C 0.81171 0.78145 0.26553
 C2860 C 0.79977 0.76219 0.25365
 C2861 C 0.81255 0.74615 0.23860
 H2862 H 0.88236 0.80532 0.24445
 H2863 H 0.91511 0.80043 0.21668
 H2864 H 0.88633 0.73289 0.19007
 H2865 H 0.84350 0.80180 0.26807
 H2866 H 0.80265 0.79396 0.27723
 H2867 H 0.80442 0.73122 0.22904
 C2868 C 0.37967 0.25616 0.70672
 C2869 C 0.38505 0.25107 0.73139
 C2870 C 0.40749 0.24574 0.74005
 C2871 C 0.42514 0.24575 0.72261
 C2872 C 0.42030 0.25157 0.69701
 C2873 C 0.39702 0.25692 0.68919
 O2874 O 0.35710 0.25968 0.70212
 C2875 C 0.34807 0.25684 0.72442
 C2876 C 0.36446 0.25184 0.74301
 C2877 C 0.35885 0.24844 0.76780
 C2878 C 0.33534 0.25005 0.77364
 C2879 C 0.31788 0.25460 0.75471
 C2880 C 0.32453 0.25795 0.72966
 H2881 H 0.41122 0.24126 0.75947
 H2882 H 0.44247 0.24077 0.72918
 H2883 H 0.39234 0.26175 0.67009
 H2884 H 0.37208 0.24461 0.78214
 H2885 H 0.33082 0.24729 0.79289
 H2886 H 0.31185 0.26139 0.71465
 C2887 C 0.37131 0.72998 0.78412
 C2888 C 0.36103 0.71014 0.79340
 C2889 C 0.37163 0.69588 0.81165
 C2890 C 0.39364 0.70246 0.82109
 C2891 C 0.40457 0.72319 0.81252
 C2892 C 0.39341 0.73688 0.79328
 O2893 O 0.35730 0.74197 0.76823
 C2894 C 0.33775 0.72949 0.76770
 C2895 C 0.33925 0.70994 0.78290
 C2896 C 0.32029 0.69607 0.78788
 C2897 C 0.29876 0.70275 0.77713
 C2898 C 0.29639 0.72238 0.76052
 C2899 C 0.31650 0.73586 0.75573
 H2900 H 0.36301 0.68052 0.81884
 H2901 H 0.40199 0.69164 0.83553
 H2902 H 0.40109 0.75304 0.78672
 H2903 H 0.32171 0.68146 0.80089
 H2904 H 0.28380 0.69309 0.78293
 H2905 H 0.31540 0.75177 0.74451
 C2906 C 0.87387 0.22831 0.29227
 C2907 C 0.87582 0.23297 0.26718
 C2908 C 0.89688 0.23872 0.25694
 C2909 C 0.91663 0.23977 0.27319
 C2910 C 0.91508 0.23524 0.29926
 C2911 C 0.89327 0.22919 0.30875
 O2912 O 0.85217 0.22440 0.29852
 C2913 C 0.84015 0.22661 0.27693
 C2914 C 0.85373 0.23182 0.25714
 C2915 C 0.84436 0.23632 0.23322
 C2916 C 0.82005 0.23558 0.22966
 C2917 C 0.80550 0.22994 0.24971
 C2918 C 0.81606 0.22562 0.27376
 H2919 H 0.89804 0.24257 0.23719
 H2920 H 0.93312 0.24420 0.26545
 H2921 H 0.89126 0.22612 0.32854
 H2922 H 0.85530 0.24103 0.21802
 H2923 H 0.81260 0.24025 0.21144
 H2924 H 0.80587 0.22261 0.29004
 C2925 C 0.12787 0.26816 0.30113
 C2926 C 0.12485 0.26726 0.27547
 C2927 C 0.10313 0.26480 0.26356
 C2928 C 0.08375 0.26315 0.27867
 C2929 C 0.08632 0.26376 0.30527
 C2930 C 0.10882 0.26657 0.31655
 O2931 O 0.15007 0.26916 0.30872
 C2932 C 0.16129 0.26884 0.28738
 C2933 C 0.14667 0.26768 0.26650
 C2934 C 0.15480 0.26535 0.24240
 C2935 C 0.17892 0.26369 0.23972
 C2936 C 0.19463 0.26506 0.26088
 C2937 C 0.18536 0.26778 0.28510
 H2938 H 0.10118 0.26389 0.24332
 H2939 H 0.06675 0.26129 0.26961
 H2940 H 0.11154 0.26660 0.33672
 H2941 H 0.14296 0.26385 0.22626
 H2942 H 0.18517 0.26027 0.22117
 H2943 H 0.19642 0.26779 0.30192
 C2944 C 0.62318 0.76783 0.80029
 C2945 C 0.61971 0.77379 0.77549
 C2946 C 0.59762 0.77690 0.76448
 C2947 C 0.57841 0.77360 0.77959
 C2948 C 0.58150 0.76715 0.80520
 C2949 C 0.60437 0.76447 0.81561
 O2950 O 0.64543 0.76503 0.80700
 C2951 C 0.65627 0.76923 0.78598
 C2952 C 0.64140 0.77465 0.76614
 C2953 C 0.64921 0.77874 0.74223
 C2954 C 0.67323 0.77690 0.73860
 C2955 C 0.68914 0.77124 0.75868
 C2956 C 0.68016 0.76756 0.78284
 H2957 H 0.59524 0.78138 0.74487
 H2958 H 0.56114 0.77543 0.77112
 H2959 H 0.60749 0.75976 0.83507
 H2960 H 0.63721 0.78281 0.72676
 H2961 H 0.67910 0.77983 0.72008
 H2962 H 0.69125 0.76273 0.79881
 C2963 C 0.63179 0.24970 0.69226
 C2964 C 0.63258 0.26668 0.71096
 C2965 C 0.61375 0.28138 0.71602
 C2966 C 0.59331 0.27848 0.70120
 C2967 C 0.59199 0.26092 0.68201
 C2968 C 0.61148 0.24621 0.67761
 O2969 O 0.65191 0.23839 0.68974
 C2970 C 0.66566 0.24837 0.70727
 C2971 C 0.65465 0.26567 0.72087
 C2972 C 0.66598 0.27876 0.73972
 C2973 C 0.68963 0.27393 0.74469
 C2974 C 0.70161 0.25622 0.73089
 C2975 C 0.68924 0.24343 0.71173
 H2976 H 0.61487 0.29482 0.73063
 H2977 H 0.57845 0.28979 0.70469
 H2978 H 0.61098 0.23291 0.66282
 H2979 H 0.65701 0.29250 0.74999
 H2980 H 0.69861 0.28452 0.75891
 H2981 H 0.69774 0.23045 0.70005
 C2982 C 0.10793 0.74784 0.22010
 C2983 C 0.11267 0.77018 0.22929
 C2984 C 0.09805 0.78950 0.22469
 C2985 C 0.07773 0.78570 0.20996
 C2986 C 0.07199 0.76271 0.20038
 C2987 C 0.08749 0.74348 0.20591
 O2988 O 0.12510 0.73239 0.22481
 C2989 C 0.14103 0.74535 0.23715
 C2990 C 0.13415 0.76849 0.24059
 C2991 C 0.14851 0.78537 0.25194
 C2992 C 0.17123 0.77839 0.25899
 C2993 C 0.17956 0.75491 0.25422
 C2994 C 0.16357 0.73798 0.24419
 H2995 H 0.10251 0.80709 0.23148
 H2996 H 0.06697 0.80100 0.20547
 H2997 H 0.08407 0.72566 0.19917
 H2998 H 0.14272 0.80354 0.25447
 H2999 H 0.18264 0.79186 0.26692
 H3000 H 0.16837 0.71985 0.24087
   
