data_POSCAR
  _audit_creation_date              2014-09-24
  _audit_creation_method            'ToBaCCo'
  _symmetry_space_group_name_H-M    'P1'
  _symmetry_Int_Tables_number       1
  _symmetry_cell_setting            triclinic
  loop_
  _symmetry_equiv_pos_as_xyz
 x,y,z
_cell_length_a 61.3907
_cell_length_b 61.3732
_cell_length_c 61.4063
_cell_angle_alpha 89.939900
_cell_angle_beta 90.056400
_cell_angle_gamma 89.932100
loop_
  _atom_site_label
  _atom_site_type_symbol
  _atom_site_fract_x
  _atom_site_fract_y
  _atom_site_fract_z
C1 C 0.24784 0.99675 -0.01753
 C2 C 0.24903 0.99599 0.00455
 C3 C 0.24987 1.01600 0.01805
 C4 C 0.24929 0.97520 0.01687
 C5 C 0.24725 0.97671 -0.03104
 C6 C 0.24728 1.01777 -0.02952
 C7 C 0.26709 1.03079 0.01631
 C8 C 0.26864 1.04843 0.03065
 C9 C 0.25308 1.05167 0.04748
 C10 C 0.23541 1.03679 0.04831
 C11 C 0.23400 1.01927 0.03398
 C12 C 0.26654 0.97106 0.03127
 C13 C 0.26587 0.95316 0.04525
 C14 C 0.24781 0.93912 0.04527
 C15 C 0.23077 0.94295 0.03040
 C16 C 0.23151 0.96087 0.01628
 C17 C 0.23041 0.97403 -0.04624
 C18 C 0.23025 0.95612 -0.06021
 C19 C 0.24705 0.94056 -0.05939
 C20 C 0.26378 0.94308 -0.04391
 C21 C 0.26392 0.96107 -0.02992
 C22 C 0.23070 1.03312 -0.02591
 C23 C 0.23017 1.05255 -0.03785
 C24 C 0.24617 1.05691 -0.05364
 C25 C 0.26268 1.04143 -0.05722
 C26 C 0.26316 1.02204 -0.04534
 H27 H 0.27976 1.02826 0.00431
 H28 H 0.28304 1.05839 0.02913
 H29 H 0.22196 1.03873 0.05945
 H30 H 0.22040 1.00811 0.03537
 H31 H 0.28028 0.98209 0.03210
 H32 H 0.27909 0.95087 0.05671
 H33 H 0.21789 0.96401 0.00549
 H34 H 0.21742 0.98594 -0.04738
 H35 H 0.21697 0.95446 -0.07170
 H36 H 0.27708 0.93151 -0.04308
 H37 H 0.27731 0.96307 -0.01860
 H38 H 0.21809 1.02997 -0.01400
 H39 H 0.21731 1.06421 -0.03467
 H40 H 0.27499 1.04411 -0.06954
 H41 H 0.27596 1.01030 -0.04849
 H42 H 0.21672 0.93230 0.02995
 C43 C 0.74839 0.49384 0.48389
 C44 C 0.74996 0.49435 0.50596
 C45 C 0.75016 0.47427 0.51941
 C46 C 0.75131 0.51513 0.51823
 C47 C 0.74800 0.51411 0.47068
 C48 C 0.74727 0.47308 0.47153
 C49 C 0.73243 0.45986 0.51946
 C50 C 0.73187 0.44244 0.53418
 C51 C 0.74903 0.43920 0.54905
 C52 C 0.76696 0.45340 0.54853
 C53 C 0.76746 0.47079 0.53392
 C54 C 0.73567 0.51962 0.53422
 C55 C 0.73728 0.53833 0.54698
 C56 C 0.75471 0.55288 0.54412
 C57 C 0.77034 0.54843 0.52797
 C58 C 0.76866 0.52968 0.51513
 C59 C 0.76357 0.51700 0.45425
 C60 C 0.76314 0.53554 0.44112
 C61 C 0.74700 0.55154 0.44403
 C62 C 0.73144 0.54868 0.46058
 C63 C 0.73186 0.53005 0.47373
 C64 C 0.76395 0.45746 0.47291
 C65 C 0.76344 0.43890 0.45969
 C66 C 0.74628 0.43567 0.44483
 C67 C 0.72949 0.45123 0.44375
 C68 C 0.73004 0.46975 0.45690
 H69 H 0.71877 0.46250 0.50860
 H70 H 0.71792 0.43167 0.53413
 H71 H 0.78026 0.45155 0.55998
 H72 H 0.78117 0.48188 0.53426
 H73 H 0.72228 0.50847 0.53698
 H74 H 0.72521 0.54110 0.55952
 H75 H 0.78107 0.52630 0.50307
 H76 H 0.77613 0.50487 0.45165
 H77 H 0.77553 0.53742 0.42872
 H78 H 0.71864 0.56059 0.46301
 H79 H 0.71944 0.52790 0.48606
 H80 H 0.77759 0.45990 0.48383
 H81 H 0.77654 0.42713 0.46097
 H82 H 0.71625 0.44944 0.43224
 H83 H 0.71714 0.48173 0.45543
 H84 H 0.78388 0.55941 0.52535
 C85 C 0.75212 1.00392 0.99562
 C86 C 0.75182 0.98178 0.99527
 C87 C 0.75340 0.96922 0.97467
 C88 C 0.75012 0.96884 1.01563
 C89 C 0.75087 1.01644 1.01624
 C90 C 0.75331 1.01725 0.97552
 C91 C 0.73750 0.95356 0.96989
 C92 C 0.73930 0.94057 0.95133
 C93 C 0.75718 0.94284 0.93723
 C94 C 0.77308 0.95863 0.94199
 C95 C 0.77123 0.97169 0.96057
 C96 C 0.73230 0.97126 1.02974
 C97 C 0.73099 0.95883 1.04881
 C98 C 0.74743 0.94371 1.05401
 C99 C 0.76510 0.94120 1.03968
 C100 C 0.76638 0.95358 1.02065
 C101 C 0.76711 1.01460 1.03225
 C102 C 0.76652 1.02792 1.05073
 C103 C 0.74970 1.04328 1.05344
 C104 C 0.73334 1.04479 1.03748
 C105 C 0.73399 1.03156 1.01905
 C106 C 0.77002 1.03257 0.97342
 C107 C 0.76980 1.04765 0.95645
 C108 C 0.75260 1.04813 0.94113
 C109 C 0.73638 1.03181 0.94283
 C110 C 0.73670 1.01666 0.95989
 H111 H 0.72374 0.95125 0.98068
 H112 H 0.72698 0.92832 0.94835
 H113 H 0.78698 0.96083 0.93137
 H114 H 0.78389 0.98342 0.96418
 H115 H 0.71941 0.98272 1.02596
 H116 H 0.71723 0.96118 1.05957
 H117 H 0.78014 0.95136 1.00986
 H118 H 0.78044 1.00322 1.03019
 H119 H 0.77926 1.02632 1.06282
 H120 H 0.72039 1.05669 1.03891
 H121 H 0.72143 1.03333 1.00676
 H122 H 0.78310 1.03312 0.98527
 H123 H 0.78343 1.05874 0.95542
 H124 H 0.72248 1.03146 0.93202
 H125 H 0.72343 1.00516 0.96149
 H126 H 0.77781 0.92940 1.04302
 C127 C 0.25007 0.50599 0.49407
 C128 C 0.25179 0.48394 0.49505
 C129 C 0.25320 0.47024 0.47520
 C130 C 0.25203 0.47211 0.51616
 C131 C 0.24876 0.51964 0.51394
 C132 C 0.24970 0.51811 0.47317
 C133 C 0.23672 0.47054 0.45933
 C134 C 0.23752 0.45613 0.44169
 C135 C 0.25471 0.44107 0.43976
 C136 C 0.27135 0.44116 0.45549
 C137 C 0.27054 0.45552 0.47306
 C138 C 0.23622 0.45615 0.52018
 C139 C 0.23634 0.44445 0.53967
 C140 C 0.25240 0.44835 0.55552
 C141 C 0.26835 0.46428 0.55141
 C142 C 0.26819 0.47604 0.53187
 C143 C 0.26426 0.53609 0.51712
 C144 C 0.26254 0.55026 0.53475
 C145 C 0.24517 0.54839 0.54950
 C146 C 0.22983 0.53162 0.54655
 C147 C 0.23156 0.51742 0.52882
 C148 C 0.26763 0.51788 0.45901
 C149 C 0.26817 0.53187 0.44099
 C150 C 0.25078 0.54628 0.43688
 C151 C 0.23259 0.54590 0.45074
 C152 C 0.23212 0.53203 0.46873
 H153 H 0.22296 0.48148 0.46093
 H154 H 0.22433 0.45628 0.42998
 H155 H 0.28498 0.43001 0.45428
 H156 H 0.28338 0.45502 0.48516
 H157 H 0.22374 0.45276 0.50817
 H158 H 0.22409 0.43202 0.54216
 H159 H 0.28073 0.48808 0.52892
 H160 H 0.27763 0.53805 0.50579
 H161 H 0.27480 0.56277 0.53680
 H162 H 0.21616 0.52994 0.55754
 H163 H 0.21923 0.50504 0.52641
 H164 H 0.28149 0.50747 0.46237
 H165 H 0.28233 0.53172 0.43049
 H166 H 0.21910 0.55700 0.44824
 H167 H 0.21825 0.53259 0.47962
 H168 H 0.28088 0.46770 0.56335
 C169 C 0.99558 0.25063 -0.00445
 C170 C 0.99570 0.24931 0.01763
 C171 C 0.97532 0.24797 0.03054
 C172 C 1.01630 0.24940 0.03029
 C173 C 1.01595 0.25143 -0.01737
 C174 C 0.97513 0.25125 -0.01728
 C175 C 0.95953 0.26450 0.02968
 C176 C 0.94121 0.26359 0.04321
 C177 C 0.93844 0.24617 0.05787
 C178 C 0.95423 0.22958 0.05849
 C179 C 0.97250 0.23053 0.04503
 C180 C 1.01955 0.26553 0.04602
 C181 C 1.03835 0.26561 0.05877
 C182 C 1.05450 0.24934 0.05636
 C183 C 1.05110 0.23327 0.04018
 C184 C 1.03219 0.23326 0.02744
 C185 C 1.01980 0.23529 -0.03296
 C186 C 1.03797 0.23639 -0.04650
 C187 C 1.05284 0.25392 -0.04504
 C188 C 1.04886 0.27000 -0.02901
 C189 C 1.03064 0.26876 -0.01539
 C190 C 0.96064 0.23365 -0.01738
 C191 C 0.94278 0.23357 -0.03157
 C192 C 0.93898 0.25113 -0.04607
 C193 C 0.95346 0.26901 -0.04519
 C194 C 0.97128 0.26895 -0.03112
 H195 H 0.96160 0.27830 0.01887
 H196 H 0.92926 0.27655 0.04228
 H197 H 0.95278 0.21615 0.06984
 H198 H 0.98463 0.21774 0.04609
 H199 H 1.00751 0.27824 0.04833
 H200 H 1.04028 0.27901 0.07001
 H201 H 1.02974 0.22038 0.01564
 H202 H 1.00844 0.22194 -0.03491
 H203 H 1.03942 0.22398 -0.05889
 H204 H 1.05997 0.28341 -0.02645
 H205 H 1.02782 0.28148 -0.00351
 H206 H 0.96345 0.21976 -0.00686
 H207 H 0.93188 0.21977 -0.03077
 H208 H 0.95210 0.28263 -0.05628
 H209 H 0.98250 0.28256 -0.03144
 H210 H 1.06237 0.21993 0.03791
 C211 C 0.49491 0.74898 0.49401
 C212 C 0.49473 0.74952 0.51613
 C213 C 0.51520 0.75062 0.52902
 C214 C 0.47420 0.74878 0.52887
 C215 C 0.47468 0.74826 0.48080
 C216 C 0.51551 0.74949 0.48143
 C217 C 0.51941 0.73457 0.54475
 C218 C 0.53814 0.73562 0.55759
 C219 C 0.55301 0.75284 0.55509
 C220 C 0.54883 0.76888 0.53924
 C221 C 0.53001 0.76785 0.52640
 C222 C 0.45957 0.73132 0.52690
 C223 C 0.44144 0.72990 0.54065
 C224 C 0.43777 0.74584 0.55671
 C225 C 0.45219 0.76354 0.55821
 C226 C 0.47024 0.76494 0.54451
 C227 C 0.45931 0.76519 0.48165
 C228 C 0.44193 0.76569 0.46688
 C229 C 0.43966 0.74927 0.45105
 C230 C 0.45475 0.73204 0.45075
 C231 C 0.47211 0.73161 0.46541
 C232 C 0.51880 0.76621 0.46621
 C233 C 0.53741 0.76640 0.45323
 C234 C 0.55305 0.74977 0.45506
 C235 C 0.54980 0.73306 0.47042
 C236 C 0.53115 0.73291 0.48350
 H237 H 0.50817 0.72118 0.54703
 H238 H 0.54105 0.72286 0.56944
 H239 H 0.55983 0.78250 0.53715
 H240 H 0.52683 0.78063 0.51465
 H241 H 0.46257 0.71845 0.51522
 H242 H 0.43075 0.71595 0.53927
 H243 H 0.48135 0.77852 0.54629
 H244 H 0.46123 0.77838 0.49319
 H245 H 0.43045 0.77908 0.46759
 H246 H 0.45368 0.71933 0.43857
 H247 H 0.48394 0.71854 0.46436
 H248 H 0.50681 0.77902 0.46427
 H249 H 0.53926 0.77927 0.44130
 H250 H 0.56163 0.72009 0.47225
 H251 H 0.52871 0.71972 0.49496
 H252 H 0.44961 0.77626 0.57014
 C253 C -0.01740 0.75167 0.00346
 C254 C 0.00467 0.75040 0.00425
 C255 C 0.01821 0.74950 -0.01571
 C256 C 0.01695 0.75006 0.02504
 C257 C -0.03093 0.75297 0.02344
 C258 C -0.02944 0.75155 -0.01753
 C259 C 0.01661 0.73217 -0.03044
 C260 C 0.03096 0.73069 -0.04807
 C261 C 0.04751 0.74644 -0.05127
 C262 C 0.04839 0.76411 -0.03654
 C263 C 0.03406 0.76551 -0.01902
 C264 C 0.03090 0.73248 0.02937
 C265 C 0.04496 0.73300 0.04720
 C266 C 0.04551 0.75123 0.06100
 C267 C 0.03107 0.76863 0.05701
 C268 C 0.01687 0.76804 0.03915
 C269 C -0.04572 0.77017 0.02571
 C270 C -0.05995 0.77094 0.04338
 C271 C -0.06005 0.75430 0.05934
 C272 C -0.04463 0.73725 0.05708
 C273 C -0.03039 0.73657 0.03930
 C274 C -0.02615 0.76771 -0.03331
 C275 C -0.03840 0.76774 -0.05256
 C276 C -0.05450 0.75170 -0.05643
 C277 C -0.05732 0.73538 -0.04039
 C278 C -0.04508 0.73543 -0.02125
 H279 H 0.00470 0.71942 -0.02788
 H280 H 0.02969 0.71643 -0.05831
 H281 H 0.05979 0.77736 -0.03862
 H282 H 0.03540 0.77913 -0.00789
 H283 H 0.03135 0.71859 0.01850
 H284 H 0.05608 0.71951 0.04962
 H285 H 0.00643 0.78189 0.03586
 H286 H -0.04628 0.78309 0.01368
 H287 H -0.07044 0.78504 0.04459
 H288 H -0.04420 0.72363 0.06824
 H289 H -0.01941 0.72285 0.03757
 H290 H -0.01443 0.78058 -0.03052
 H291 H -0.03582 0.78111 -0.06373
 H292 H -0.06850 0.72198 -0.04265
 H293 H -0.04771 0.72269 -0.00931
 H294 H 0.03104 0.78282 0.06746
 C295 C 0.48394 0.25257 0.50576
 C296 C 0.50600 0.25084 0.50558
 C297 C 0.51854 0.24909 0.48500
 C298 C 0.51917 0.25088 0.52582
 C299 C 0.47129 0.25417 0.52629
 C300 C 0.47099 0.25266 0.48534
 C301 C 0.51557 0.23150 0.47072
 C302 C 0.52867 0.22945 0.45218
 C303 C 0.54492 0.24496 0.44769
 C304 C 0.54764 0.26263 0.46196
 C305 C 0.53464 0.26461 0.48046
 C306 C 0.53348 0.23351 0.52981
 C307 C 0.54786 0.23420 0.54736
 C308 C 0.54837 0.25239 0.56122
 C309 C 0.53369 0.26963 0.55748
 C310 C 0.51919 0.26888 0.53989
 C311 C 0.45671 0.27156 0.52901
 C312 C 0.44298 0.27236 0.54708
 C313 C 0.44338 0.25566 0.56276
 C314 C 0.45842 0.23850 0.56032
 C315 C 0.47220 0.23772 0.54218
 C316 C 0.47421 0.26859 0.46922
 C317 C 0.46109 0.26891 0.45058
 C318 C 0.44439 0.25347 0.44789
 C319 C 0.44138 0.23748 0.46401
 C320 C 0.45449 0.23715 0.48256
 H321 H 0.50342 0.21919 0.47414
 H322 H 0.52615 0.21573 0.44141
 H323 H 0.56025 0.27462 0.45916
 H324 H 0.53729 0.27818 0.49142
 H325 H 0.53383 0.21959 0.51897
 H326 H 0.55918 0.22083 0.54960
 H327 H 0.50849 0.28259 0.53686
 H328 H 0.45574 0.28438 0.51692
 H329 H 0.43187 0.28597 0.54868
 H330 H 0.45895 0.22528 0.57199
 H331 H 0.48305 0.22395 0.54017
 H332 H 0.48661 0.28096 0.47127
 H333 H 0.46361 0.28158 0.43856
 H334 H 0.42887 0.22518 0.46225
 H335 H 0.45175 0.22475 0.49483
 H336 H 0.53364 0.28379 0.56798
 C337 C 1.00380 0.01428 0.24891
 C338 C 1.00368 -0.00777 0.25077
 C339 C 1.02391 -0.02092 0.25158
 C340 C 0.98311 -0.02039 0.25166
 C341 C 0.98326 0.02702 0.24817
 C342 C 1.02428 0.02705 0.24786
 C343 C 1.03843 -0.02142 0.23401
 C344 C 1.05562 -0.03643 0.23372
 C345 C 1.05855 -0.05152 0.25097
 C346 C 1.04435 -0.04994 0.26901
 C347 C 1.02725 -0.03500 0.26919
 C348 C 0.97908 -0.03614 0.23573
 C349 C 0.96060 -0.04926 0.23687
 C350 C 0.94561 -0.04720 0.25421
 C351 C 0.94980 -0.03103 0.27010
 C352 C 0.96832 -0.01783 0.26881
 C353 C 0.97949 0.04303 0.26399
 C354 C 0.96043 0.05542 0.26352
 C355 C 0.94481 0.05215 0.24710
 C356 C 0.94870 0.03622 0.23112
 C357 C 0.96780 0.02378 0.23162
 C358 C 1.03977 0.02616 0.26468
 C359 C 1.05792 0.03995 0.26432
 C360 C 1.06076 0.05496 0.24721
 C361 C 1.04546 0.05537 0.23017
 C362 C 1.02738 0.04163 0.23056
 H363 H 1.03584 -0.01091 0.22007
 H364 H 1.06552 -0.03699 0.21920
 H365 H 1.04638 -0.06001 0.28331
 H366 H 1.01628 -0.03469 0.28299
 H367 H 0.99051 -0.03853 0.22250
 H368 H 0.95898 -0.06181 0.22463
 H369 H 0.97128 -0.00579 0.28136
 H370 H 0.99133 0.04589 0.27676
 H371 H 0.95809 0.06784 0.27581
 H372 H 0.93692 0.03329 0.21833
 H373 H 0.97060 0.01171 0.21908
 H374 H 1.03745 0.01531 0.27840
 H375 H 1.06930 0.03943 0.27779
 H376 H 1.04738 0.06647 0.21659
 H377 H 1.01560 0.04257 0.21745
 H378 H 0.93863 -0.02804 0.28336
 C379 C 0.50581 0.49718 0.75156
 C380 C 0.50537 0.51919 0.74912
 C381 C 0.52555 0.53245 0.74776
 C382 C 0.48448 0.53138 0.74810
 C383 C 0.48555 0.48412 0.75310
 C384 C 0.52635 0.48448 0.75235
 C385 C 0.54122 0.53207 0.76443
 C386 C 0.55906 0.54625 0.76376
 C387 C 0.56142 0.56117 0.74650
 C388 C 0.54592 0.56112 0.72964
 C389 C 0.52815 0.54699 0.73032
 C390 C 0.48033 0.54778 0.76343
 C391 C 0.46087 0.55955 0.76274
 C392 C 0.44521 0.55527 0.74659
 C393 C 0.44951 0.53898 0.73106
 C394 C 0.46900 0.52716 0.73179
 C395 C 0.48178 0.46761 0.73780
 C396 C 0.46360 0.45415 0.73964
 C397 C 0.44887 0.45681 0.75695
 C398 C 0.45260 0.47346 0.77223
 C399 C 0.47082 0.48702 0.77033
 C400 C 0.54051 0.48373 0.73444
 C401 C 0.55771 0.46871 0.73405
 C402 C 0.56088 0.45417 0.75152
 C403 C 0.54727 0.45578 0.76983
 C404 C 0.53013 0.47069 0.77018
 H405 H 0.53928 0.52130 0.77827
 H406 H 0.57058 0.54608 0.77712
 H407 H 0.54746 0.57214 0.71594
 H408 H 0.51622 0.54756 0.71732
 H409 H 0.49216 0.55139 0.77601
 H410 H 0.45824 0.57226 0.77467
 H411 H 0.47206 0.51479 0.71961
 H412 H 0.49309 0.46501 0.72453
 H413 H 0.46139 0.44124 0.72784
 H414 H 0.44146 0.47595 0.78566
 H415 H 0.47365 0.49949 0.78246
 H416 H 0.53761 0.49400 0.72038
 H417 H 0.56784 0.46775 0.71966
 H418 H 0.54956 0.44513 0.78372
 H419 H 0.51934 0.47102 0.78412
 H420 H 0.43772 0.53527 0.71848
 C421 C 1.01820 1.00717 0.75038
 C422 C 0.99616 1.00660 0.74839
 C423 C 0.98397 0.98578 0.74727
 C424 C 0.98256 1.02656 0.74749
 C425 C 1.03047 1.02795 0.75182
 C426 C 1.03141 0.98688 0.75077
 C427 C 0.98691 0.97118 0.72995
 C428 C 0.97403 0.95243 0.72845
 C429 C 0.95803 0.94806 0.74425
 C430 C 0.95538 0.96264 0.76168
 C431 C 0.96816 0.98134 0.76311
 C432 C 0.96870 1.02968 0.72967
 C433 C 0.95339 1.04646 0.72966
 C434 C 0.95120 1.06057 0.74772
 C435 C 0.96605 1.05786 0.76520
 C436 C 0.98144 1.04099 0.76510
 C437 C 1.04474 1.03124 0.76935
 C438 C 1.05769 1.04988 0.77034
 C439 C 1.05678 1.06560 0.75370
 C440 C 1.04232 1.06238 0.73620
 C441 C 1.02929 1.04370 0.73525
 C442 C 1.02838 0.97096 0.76685
 C443 C 1.04099 0.95196 0.76686
 C444 C 1.05712 0.94838 0.75077
 C445 C 1.06009 0.96481 0.73487
 C446 C 1.04749 0.98374 0.73497
 H447 H 0.99885 0.97452 0.71741
 H448 H 0.97648 0.94142 0.71491
 H449 H 0.94295 0.95993 0.77388
 H450 H 0.96555 0.99255 0.77647
 H451 H 0.96949 1.01878 0.71582
 H452 H 0.94353 1.04833 0.71519
 H453 H 0.99178 1.03858 0.77921
 H454 H 1.04604 1.01917 0.78218
 H455 H 1.06891 1.05166 0.78383
 H456 H 1.04117 1.07426 0.72320
 H457 H 1.01866 1.04128 0.72138
 H458 H 1.01615 0.97321 0.77935
 H459 H 1.03735 0.93986 0.77911
 H460 H 1.07275 0.96372 0.72270
 H461 H 1.05029 0.99603 0.72260
 H462 H 0.96504 1.06769 0.77976
 C463 C 0.51592 0.50260 0.25019
 C464 C 0.49380 0.50309 0.25002
 C465 C 0.48058 0.48289 0.24953
 C466 C 0.48131 0.52378 0.25005
 C467 C 0.52925 0.52275 0.25103
 C468 C 0.52824 0.48178 0.24975
 C469 C 0.46550 0.47987 0.23265
 C470 C 0.45194 0.46167 0.23248
 C471 C 0.45306 0.44617 0.24930
 C472 C 0.46827 0.44916 0.26619
 C473 C 0.48191 0.46740 0.26632
 C474 C 0.48330 0.53891 0.23301
 C475 C 0.46950 0.55705 0.23207
 C476 C 0.45351 0.56032 0.24816
 C477 C 0.45199 0.54538 0.26544
 C478 C 0.46568 0.52727 0.26631
 C479 C 0.52728 0.53761 0.26829
 C480 C 0.54151 0.55535 0.26985
 C481 C 0.55803 0.55838 0.25428
 C482 C 0.55957 0.54372 0.23678
 C483 C 0.54539 0.52606 0.23524
 C484 C 0.54335 0.47739 0.26631
 C485 C 0.55607 0.45857 0.26565
 C486 C 0.55408 0.44380 0.24828
 C487 C 0.53871 0.44807 0.23181
 C488 C 0.52596 0.46697 0.23249
 H489 H 0.46411 0.49177 0.21968
 H490 H 0.44014 0.46003 0.21946
 H491 H 0.46956 0.43742 0.27930
 H492 H 0.49323 0.46964 0.27966
 H493 H 0.49505 0.53629 0.22013
 H494 H 0.47111 0.56837 0.21863
 H495 H 0.46377 0.51564 0.27946
 H496 H 0.51521 0.53509 0.28089
 H497 H 0.54008 0.56625 0.28363
 H498 H 0.57187 0.54583 0.22433
 H499 H 0.54718 0.51475 0.22183
 H500 H 0.54535 0.48864 0.27975
 H501 H 0.56752 0.45557 0.27874
 H502 H 0.53700 0.43712 0.21810
 H503 H 0.51465 0.47029 0.21934
 H504 H 0.43964 0.54725 0.27788
 O505 O 0.26153 0.19134 0.21074
 O506 O 0.28511 0.18522 0.24134
 O507 O 0.20417 0.21686 0.24199
 O508 O 0.19538 0.24525 0.26270
 O509 O 0.23055 0.24775 0.18419
 O510 O 0.26047 0.27215 0.17854
 O511 O 0.25988 0.27760 0.29749
 O512 O 0.23491 0.24862 0.30311
 O513 O 0.31615 0.24901 0.27176
 O514 O 0.32335 0.22417 0.24070
 O515 O 0.28966 0.30414 0.24271
 O516 O 0.25885 0.31068 0.21723
 O517 O 0.25982 0.30377 0.27132
 O518 O 0.23540 0.31032 0.24000
 O519 O 0.31602 0.27818 0.24275
 O520 O 0.32328 0.24739 0.21766
 O521 O 0.28976 0.24929 0.29764
 O522 O 0.26031 0.22343 0.30421
 O523 O 0.26166 0.21765 0.18466
 O524 O 0.28505 0.24831 0.17874
 O525 O 0.20422 0.24698 0.21016
 O526 O 0.19852 0.27255 0.24031
 O527 O 0.23061 0.19090 0.24146
 O528 O 0.26083 0.18484 0.26518
 Zr529 Zr 0.25987 0.20866 0.24031
 O530 O 0.27984 0.22744 0.26089
 Zr531 Zr 0.22120 0.24651 0.23993
 O532 O 0.23941 0.26693 0.26065
 Zr533 Zr 0.25981 0.24702 0.20210
 O534 O 0.27976 0.26754 0.22100
 Zr535 Zr 0.26045 0.24815 0.28002
 O536 O 0.24023 0.22745 0.26129
 Zr537 Zr 0.29898 0.24858 0.24208
 O538 O 0.28091 0.22789 0.22128
 Zr539 Zr 0.26028 0.28647 0.24179
 O540 O 0.24014 0.26781 0.22090
 O541 O 0.23961 0.22649 0.21987
 O542 O 0.28073 0.26880 0.26234
 C543 C 0.26226 0.19761 0.19075
 C544 C 0.21055 0.19688 0.24239
 C545 C 0.21048 0.24768 0.19020
 C546 C 0.25972 0.29762 0.29133
 C547 C 0.30982 0.24950 0.29170
 C548 C 0.30972 0.29813 0.24312
 H549 H 0.28896 0.21766 0.26987
 H550 H 0.28876 0.27667 0.21127
 H551 H 0.23049 0.21698 0.21058
 H552 H 0.22942 0.27570 0.26974
 H553 H 0.22405 0.23772 0.29828
 H554 H 0.20003 0.25351 0.27571
 H555 H 0.32040 0.25934 0.20723
 H556 H 0.29672 0.23851 0.18405
 H557 H 0.27204 0.21291 0.30086
 H558 H 0.25114 0.19014 0.27692
 H559 H 0.27086 0.30792 0.20688
 H560 H 0.25038 0.28360 0.18375
 H561 H 0.29673 0.19059 0.23154
 H562 H 0.32050 0.21361 0.25253
 H563 H 0.20295 0.28287 0.22873
 H564 H 0.22457 0.30698 0.25145
 O565 O 0.74742 0.81528 0.23008
 O566 O 0.72407 0.82100 0.26079
 O567 O 0.80519 0.78977 0.26052
 O568 O 0.81407 0.76151 0.28159
 O569 O 0.77858 0.75874 0.20316
 O570 O 0.74842 0.73472 0.19737
 O571 O 0.74957 0.72843 0.31643
 O572 O 0.77507 0.75708 0.32192
 O573 O 0.69364 0.75671 0.29119
 O574 O 0.68610 0.78204 0.26018
 O575 O 0.72002 0.70209 0.26113
 O576 O 0.75100 0.69592 0.23591
 O577 O 0.74942 0.70250 0.29008
 O578 O 0.77423 0.69609 0.25893
 O579 O 0.69350 0.72789 0.26166
 O580 O 0.68577 0.75881 0.23722
 O581 O 0.72024 0.75679 0.31690
 O582 O 0.74978 0.78265 0.32318
 O583 O 0.74740 0.78917 0.20386
 O584 O 0.72405 0.75856 0.19778
 O585 O 0.80514 0.75940 0.22895
 O586 O 0.81108 0.73408 0.25903
 O587 O 0.77855 0.81553 0.26045
 O588 O 0.74854 0.82129 0.28451
 Zr589 Zr 0.74939 0.79767 0.25949
 O590 O 0.72966 0.77868 0.28010
 Zr591 Zr 0.78827 0.76000 0.25876
 O592 O 0.77027 0.73935 0.27948
 Zr593 Zr 0.74937 0.75962 0.22111
 O594 O 0.72962 0.73891 0.24000
 Zr595 Zr 0.74931 0.75795 0.29902
 O596 O 0.76930 0.77886 0.28028
 Zr597 Zr 0.71045 0.75759 0.26131
 O598 O 0.72829 0.77848 0.24049
 Zr599 Zr 0.74931 0.71991 0.26060
 O600 O 0.76924 0.73878 0.23972
 O601 O 0.76963 0.78008 0.23885
 O602 O 0.72896 0.73736 0.28134
 C603 C 0.74664 0.80916 0.21006
 C604 C 0.79866 0.80969 0.26105
 C605 C 0.79870 0.75858 0.20904
 C606 C 0.74938 0.70847 0.31013
 C607 C 0.70016 0.75632 0.31109
 C608 C 0.69992 0.70797 0.26161
 H609 H 0.72058 0.78837 0.28918
 H610 H 0.72062 0.72982 0.23024
 H611 H 0.77866 0.78961 0.22949
 H612 H 0.78027 0.73052 0.28852
 H613 H 0.78585 0.76811 0.31721
 H614 H 0.80975 0.75271 0.29437
 H615 H 0.68902 0.74743 0.22629
 H616 H 0.71236 0.76825 0.20323
 H617 H 0.73793 0.79311 0.32002
 H618 H 0.75854 0.81607 0.29605
 H619 H 0.73898 0.69869 0.22553
 H620 H 0.75857 0.72321 0.20239
 H621 H 0.71234 0.81559 0.25115
 H622 H 0.68872 0.79222 0.27238
 H623 H 0.80634 0.72352 0.24781
 H624 H 0.78486 0.69919 0.27064
 O625 O 0.74801 0.19368 0.78181
 O626 O 0.72550 0.18721 0.75147
 O627 O 0.80564 0.22018 0.75187
 O628 O 0.81479 0.24859 0.73185
 O629 O 0.77815 0.25001 0.80939
 O630 O 0.74848 0.27364 0.81553
 O631 O 0.74898 0.27985 0.69559
 O632 O 0.77376 0.25169 0.68952
 O633 O 0.69325 0.25202 0.72189
 O634 O 0.68509 0.22833 0.75205
 O635 O 0.72037 0.30721 0.75084
 O636 O 0.75033 0.31439 0.77478
 O637 O 0.74918 0.30628 0.72143
 O638 O 0.77527 0.31184 0.75343
 O639 O 0.69368 0.28165 0.75062
 O640 O 0.68707 0.24994 0.77660
 O641 O 0.71935 0.25177 0.69572
 O642 O 0.74968 0.22519 0.69002
 O643 O 0.74753 0.21950 0.80832
 O644 O 0.72333 0.25065 0.81382
 O645 O 0.80493 0.24991 0.78387
 O646 O 0.81017 0.27612 0.75298
 O647 O 0.77960 0.19389 0.75206
 O648 O 0.74918 0.18842 0.72703
 Zr649 Zr 0.74995 0.21139 0.75266
 O650 O 0.72951 0.23024 0.73255
 Zr651 Zr 0.78825 0.24952 0.75375
 O652 O 0.77006 0.26953 0.73251
 Zr653 Zr 0.74924 0.24932 0.79120
 O654 O 0.72981 0.27040 0.77229
 Zr655 Zr 0.74888 0.25073 0.71329
 O656 O 0.76960 0.23043 0.73204
 Zr657 Zr 0.71047 0.25162 0.75135
 O658 O 0.72850 0.23033 0.77169
 Zr659 Zr 0.74936 0.28919 0.75131
 O660 O 0.76899 0.27048 0.77275
 O661 O 0.76981 0.22916 0.77346
 O662 O 0.72877 0.27158 0.73094
 C663 C 0.74709 0.19955 0.80186
 C664 C 0.79962 0.20015 0.75156
 C665 C 0.79829 0.25024 0.80376
 C666 C 0.74891 0.29990 0.70147
 C667 C 0.69934 0.25223 0.70191
 C668 C 0.70026 0.30155 0.75041
 H669 H 0.72032 0.22048 0.72366
 H670 H 0.72092 0.27964 0.78202
 H671 H 0.77890 0.21965 0.78282
 H672 H 0.78001 0.27821 0.72329
 H673 H 0.78537 0.24166 0.69456
 H674 H 0.80968 0.25509 0.71802
 H675 H 0.68877 0.26302 0.78584
 H676 H 0.71247 0.23973 0.80908
 H677 H 0.73680 0.21580 0.69227
 H678 H 0.76026 0.19309 0.71631
 H679 H 0.74055 0.31013 0.78683
 H680 H 0.75794 0.28560 0.81031
 H681 H 0.71318 0.19279 0.76025
 H682 H 0.68920 0.21635 0.74211
 H683 H 0.80658 0.28560 0.76552
 H684 H 0.78431 0.31031 0.74020
 O685 O 0.24088 0.79586 0.78003
 O686 O 0.26389 0.80209 0.74921
 O687 O 0.18286 0.77078 0.74974
 O688 O 0.17428 0.74299 0.72788
 O689 O 0.20964 0.73917 0.80642
 O690 O 0.23978 0.71501 0.81201
 O691 O 0.23840 0.71003 0.69299
 O692 O 0.21316 0.73905 0.68769
 O693 O 0.29460 0.73833 0.71846
 O694 O 0.30219 0.76283 0.74974
 O695 O 0.26825 0.68299 0.74774
 O696 O 0.23748 0.67660 0.77309
 O697 O 0.23846 0.68374 0.71904
 O698 O 0.21398 0.67720 0.75035
 O699 O 0.29467 0.70882 0.74746
 O700 O 0.30233 0.73945 0.77248
 O701 O 0.26810 0.73859 0.69265
 O702 O 0.23870 0.76413 0.68638
 O703 O 0.24084 0.76954 0.80610
 O704 O 0.26423 0.73879 0.81178
 O705 O 0.18311 0.74002 0.78060
 O706 O 0.17716 0.71516 0.75024
 O707 O 0.20945 0.79652 0.75003
 O708 O 0.23930 0.80255 0.72563
 Zr709 Zr 0.23870 0.77866 0.75046
 O710 O 0.25851 0.75991 0.72972
 Zr711 Zr 0.19996 0.74104 0.75082
 O712 O 0.21801 0.72061 0.72994
 Zr713 Zr 0.23886 0.74019 0.78851
 O714 O 0.25862 0.71964 0.76942
 Zr715 Zr 0.23895 0.73940 0.71055
 O716 O 0.21888 0.76013 0.72947
 Zr717 Zr 0.27774 0.73856 0.74829
 O718 O 0.25987 0.75926 0.76927
 Zr719 Zr 0.23896 0.70089 0.74863
 O720 O 0.21902 0.71958 0.76968
 O721 O 0.21857 0.76084 0.77095
 O722 O 0.25932 0.71854 0.72802
 C723 C 0.24168 0.78958 0.80001
 C724 C 0.18933 0.79072 0.74959
 C725 C 0.18953 0.73907 0.80050
 C726 C 0.23832 0.68998 0.69907
 C727 C 0.28818 0.73827 0.69853
 C728 C 0.28833 0.68889 0.74725
 H729 H 0.26757 0.76972 0.72076
 H730 H 0.26765 0.71042 0.77907
 H731 H 0.20957 0.77025 0.78046
 H732 H 0.20797 0.71191 0.72085
 H733 H 0.20246 0.75013 0.69251
 H734 H 0.17856 0.73420 0.71509
 H735 H 0.29932 0.72766 0.78306
 H736 H 0.27591 0.74849 0.80638
 H737 H 0.24978 0.77513 0.69028
 H738 H 0.22904 0.79757 0.71423
 H739 H 0.24951 0.67927 0.78348
 H740 H 0.22971 0.70354 0.80682
 H741 H 0.27571 0.79660 0.75873
 H742 H 0.29932 0.77346 0.73796
 H743 H 0.18182 0.70451 0.76144
 H744 H 0.20330 0.68044 0.73872
 O745 O 0.25128 0.32023 0.73201
 O746 O 0.22710 0.32664 0.76199
 O747 O 0.30733 0.29314 0.76384
 O748 O 0.31480 0.26470 0.78528
 O749 O 0.28121 0.26269 0.70597
 O750 O 0.25045 0.23963 0.69943
 O751 O 0.24864 0.23352 0.81850
 O752 O 0.27475 0.26144 0.82456
 O753 O 0.19409 0.26357 0.79191
 O754 O 0.18801 0.28874 0.76060
 O755 O 0.21965 0.20788 0.76224
 O756 O 0.25120 0.20082 0.73811
 O757 O 0.24832 0.20751 0.79225
 O758 O 0.27366 0.20031 0.76179
 O759 O 0.19385 0.23440 0.76217
 O760 O 0.18757 0.26550 0.73777
 O761 O 0.22009 0.26302 0.81823
 O762 O 0.25022 0.28766 0.82523
 O763 O 0.25118 0.29409 0.70582
 O764 O 0.22681 0.26427 0.69926
 O765 O 0.30718 0.26269 0.73236
 O766 O 0.31164 0.23729 0.76259
 O767 O 0.28140 0.31960 0.76319
 O768 O 0.25089 0.32628 0.78644
 Zr769 Zr 0.25178 0.30260 0.76147
 O770 O 0.23102 0.28423 0.78160
 Zr771 Zr 0.28959 0.26385 0.76177
 O772 O 0.27048 0.24377 0.78205
 Zr773 Zr 0.25161 0.26452 0.72318
 O774 O 0.23083 0.24441 0.74161
 Zr775 Zr 0.24959 0.26299 0.80105
 O776 O 0.27063 0.28329 0.78277
 Zr777 Zr 0.21164 0.26364 0.76242
 O778 O 0.23059 0.28400 0.74200
 Zr779 Zr 0.24943 0.22487 0.76273
 O780 O 0.27040 0.24314 0.74231
 O781 O 0.27202 0.28439 0.74139
 O782 O 0.22904 0.24291 0.78296
 C783 C 0.25098 0.31411 0.71198
 C784 C 0.30132 0.31324 0.76421
 C785 C 0.30117 0.26200 0.71231
 C786 C 0.24807 0.21355 0.81228
 C787 C 0.20014 0.26327 0.81197
 C788 C 0.19971 0.21431 0.76205
 H789 H 0.22203 0.29423 0.79043
 H790 H 0.22185 0.23558 0.73160
 H791 H 0.28158 0.29361 0.73226
 H792 H 0.28000 0.23468 0.79135
 H793 H 0.28599 0.27210 0.82006
 H794 H 0.30999 0.25589 0.79788
 H795 H 0.19099 0.25430 0.72672
 H796 H 0.21542 0.27450 0.70433
 H797 H 0.23905 0.29868 0.82155
 H798 H 0.26060 0.32092 0.79817
 H799 H 0.23964 0.20398 0.72732
 H800 H 0.26019 0.22786 0.70464
 H801 H 0.21556 0.32161 0.75191
 H802 H 0.19085 0.29910 0.77260
 H803 H 0.30682 0.22682 0.75131
 H804 H 0.28415 0.20322 0.77367
 O805 O 0.76193 0.69578 0.70610
 O806 O 0.78592 0.68900 0.73618
 O807 O 0.70590 0.72285 0.73852
 O808 O 0.69855 0.75133 0.75976
 O809 O 0.73174 0.75325 0.68033
 O810 O 0.76236 0.77661 0.67394
 O811 O 0.76477 0.78200 0.79289
 O812 O 0.73892 0.75383 0.79901
 O813 O 0.81947 0.75199 0.76597
 O814 O 0.82519 0.72678 0.73474
 O815 O 0.79389 0.80773 0.73693
 O816 O 0.76239 0.81508 0.71261
 O817 O 0.76505 0.80818 0.76673
 O818 O 0.73986 0.81555 0.73624
 O819 O 0.81952 0.78105 0.73649
 O820 O 0.82540 0.74997 0.71173
 O821 O 0.79361 0.75276 0.79237
 O822 O 0.76363 0.72788 0.79960
 O823 O 0.76202 0.72208 0.68002
 O824 O 0.78608 0.75202 0.67350
 O825 O 0.70605 0.75329 0.70693
 O826 O 0.70176 0.77867 0.73724
 O827 O 0.73162 0.69620 0.73744
 O828 O 0.76216 0.68929 0.76054
 Zr829 Zr 0.76134 0.71314 0.73569
 O830 O 0.78230 0.73133 0.75582
 Zr831 Zr 0.72373 0.75205 0.73626
 O832 O 0.74301 0.77196 0.75652
 Zr833 Zr 0.76143 0.75149 0.69751
 O834 O 0.78242 0.77139 0.71594
 Zr835 Zr 0.76394 0.75258 0.77539
 O836 O 0.74273 0.73244 0.75714
 Zr837 Zr 0.80163 0.75193 0.73661
 O838 O 0.78247 0.73181 0.71620
 Zr839 Zr 0.76401 0.79090 0.73719
 O840 O 0.74283 0.77282 0.71680
 O841 O 0.74108 0.73153 0.71573
 O842 O 0.78443 0.77266 0.75727
 C843 C 0.76235 0.70204 0.68610
 C844 C 0.71175 0.70270 0.73877
 C845 C 0.71184 0.75394 0.68682
 C846 C 0.76522 0.80202 0.78674
 C847 C 0.81354 0.75251 0.78605
 C848 C 0.81378 0.80117 0.73669
 H849 H 0.79133 0.72129 0.76460
 H850 H 0.79141 0.78025 0.70596
 H851 H 0.73147 0.72233 0.70661
 H852 H 0.73353 0.78102 0.76586
 H853 H 0.72769 0.74317 0.79449
 H854 H 0.70362 0.75973 0.77252
 H855 H 0.82233 0.76166 0.70105
 H856 H 0.79760 0.74189 0.67853
 H857 H 0.77479 0.71689 0.79585
 H858 H 0.75280 0.69480 0.77245
 H859 H 0.77397 0.81195 0.70187
 H860 H 0.75261 0.78830 0.67928
 H861 H 0.79753 0.69410 0.72624
 H862 H 0.82246 0.71646 0.74681
 H863 H 0.70642 0.78908 0.72583
 H864 H 0.72926 0.81249 0.74797
 O865 O 0.25232 0.69272 0.27702
 O866 O 0.22888 0.68570 0.24745
 O867 O 0.30799 0.72105 0.24558
 O868 O 0.31594 0.74988 0.22580
 O869 O 0.28098 0.75025 0.30405
 O870 O 0.25061 0.77243 0.31111
 O871 O 0.24828 0.77914 0.19108
 O872 O 0.27350 0.75168 0.18423
 O873 O 0.19392 0.74959 0.21876
 O874 O 0.18715 0.72572 0.24881
 O875 O 0.22021 0.80546 0.24706
 O876 O 0.25055 0.81347 0.27036
 O877 O 0.24841 0.80550 0.21700
 O878 O 0.27495 0.81177 0.24840
 O879 O 0.19427 0.77914 0.24759
 O880 O 0.18943 0.74703 0.27370
 O881 O 0.21932 0.75042 0.19192
 O882 O 0.25029 0.72446 0.18543
 O883 O 0.25168 0.71840 0.30365
 O884 O 0.22628 0.74863 0.30976
 O885 O 0.30720 0.75086 0.27797
 O886 O 0.31085 0.77715 0.24684
 O887 O 0.28272 0.69403 0.24617
 O888 O 0.25168 0.68768 0.22224
 Zr889 Zr 0.25263 0.71061 0.24791
 O890 O 0.23112 0.72887 0.22838
 Zr891 Zr 0.28981 0.74986 0.24820
 O892 O 0.27050 0.76933 0.22745
 Zr893 Zr 0.25173 0.74832 0.28658
 O894 O 0.23126 0.76891 0.26823
 Zr895 Zr 0.24936 0.74999 0.20870
 O896 O 0.27116 0.73031 0.22688
 Zr897 Zr 0.21195 0.74962 0.24774
 O898 O 0.23109 0.72878 0.26753
 Zr899 Zr 0.24972 0.78833 0.24682
 O900 O 0.27038 0.77015 0.26773
 O901 O 0.27251 0.72888 0.26828
 O902 O 0.22912 0.77019 0.22694
 C903 C 0.25182 0.69846 0.29713
 C904 C 0.30250 0.70086 0.24512
 C905 C 0.30096 0.75121 0.29799
 C906 C 0.24786 0.79917 0.19702
 C907 C 0.19947 0.75022 0.19863
 C908 C 0.20028 0.79921 0.24721
 H909 H 0.22199 0.71888 0.21969
 H910 H 0.22235 0.77785 0.27821
 H911 H 0.28220 0.71968 0.27733
 H912 H 0.27996 0.77831 0.21801
 H913 H 0.28557 0.74206 0.18897
 H914 H 0.31018 0.75574 0.21194
 H915 H 0.19080 0.76024 0.28281
 H916 H 0.21586 0.73714 0.30538
 H917 H 0.23745 0.71501 0.18766
 H918 H 0.26222 0.69274 0.21114
 H919 H 0.24094 0.80905 0.28250
 H920 H 0.25923 0.78490 0.30561
 H921 H 0.21677 0.69081 0.25678
 H922 H 0.19170 0.71359 0.23926
 H923 H 0.30733 0.78648 0.25950
 H924 H 0.28378 0.81048 0.23500
 O925 O 0.73924 0.29382 0.28120
 O926 O 0.76297 0.30046 0.25098
 O927 O 0.68256 0.26753 0.24891
 O928 O 0.67490 0.23936 0.22749
 O929 O 0.70849 0.23671 0.30677
 O930 O 0.73892 0.21285 0.31300
 O931 O 0.74125 0.20782 0.19412
 O932 O 0.71499 0.23602 0.18816
 O933 O 0.79568 0.23777 0.22084
 O934 O 0.80198 0.26199 0.25251
 O935 O 0.76955 0.18151 0.24966
 O936 O 0.73828 0.17462 0.27427
 O937 O 0.74088 0.18164 0.22027
 O938 O 0.71546 0.17465 0.25076
 O939 O 0.79555 0.20778 0.24962
 O940 O 0.80209 0.23842 0.27505
 O941 O 0.76974 0.23748 0.19446
 O942 O 0.73975 0.26200 0.18748
 O943 O 0.73927 0.26743 0.30719
 O944 O 0.76286 0.23714 0.31354
 O945 O 0.68261 0.23708 0.28029
 O946 O 0.67803 0.21174 0.24993
 O947 O 0.70862 0.29378 0.25004
 O948 O 0.73910 0.30055 0.22683
 Zr949 Zr 0.73820 0.27656 0.25154
 O950 O 0.75884 0.25819 0.23128
 Zr951 Zr 0.70018 0.23816 0.25092
 O952 O 0.71914 0.21808 0.23050
 Zr953 Zr 0.73814 0.23810 0.28957
 O954 O 0.75880 0.21798 0.27098
 Zr955 Zr 0.74019 0.23726 0.21164
 O956 O 0.71929 0.25761 0.23005
 Zr957 Zr 0.77809 0.23724 0.25029
 O958 O 0.75927 0.25756 0.27085
 Zr959 Zr 0.73999 0.19886 0.24978
 O960 O 0.71915 0.21712 0.27030
 O961 O 0.71788 0.25837 0.27150
 O962 O 0.76053 0.21686 0.22964
 C963 C 0.73983 0.28749 0.30119
 C964 C 0.68866 0.28757 0.24877
 C965 C 0.68854 0.23633 0.30036
 C966 C 0.74151 0.18779 0.20029
 C967 C 0.78968 0.23779 0.20076
 C968 C 0.78952 0.18774 0.24939
 H969 H 0.76788 0.26823 0.22255
 H970 H 0.76776 0.20893 0.28085
 H971 H 0.70846 0.26767 0.28071
 H972 H 0.70957 0.20915 0.22114
 H973 H 0.70386 0.24681 0.19267
 H974 H 0.67971 0.23074 0.21477
 H975 H 0.79912 0.22646 0.28543
 H976 H 0.77467 0.24676 0.30828
 H977 H 0.75044 0.27329 0.19163
 H978 H 0.72932 0.29541 0.21508
 H979 H 0.75002 0.17750 0.28493
 H980 H 0.72894 0.20136 0.30770
 H981 H 0.77455 0.29529 0.26096
 H982 H 0.79903 0.27275 0.24087
 H983 H 0.68256 0.20133 0.26139
 H984 H 0.70508 0.17764 0.23880
 C985 C 0.25962 0.10168 0.09406
 C986 C 0.27070 0.10309 0.07428
 C987 C 0.26857 0.08658 0.05872
 C988 C 0.25514 0.06812 0.06251
 C989 C 0.24411 0.06726 0.08285
 C990 C 0.24635 0.08378 0.09826
 C991 C 0.26165 0.11854 0.11016
 C992 C 0.26283 0.13240 0.12399
 C993 C 0.26367 0.14874 0.14073
 C994 C 0.26394 0.17082 0.13513
 C995 C 0.26376 0.18672 0.15140
 C996 C 0.26327 0.18072 0.17355
 C997 C 0.26325 0.15843 0.17900
 C998 C 0.26343 0.14257 0.16268
 H999 H 0.28088 0.11707 0.07078
 H1000 H 0.27681 0.08921 0.04342
 H1001 H 0.23454 0.05338 0.08783
 H1002 H 0.23787 0.08241 0.11368
 H1003 H 0.26406 0.17576 0.11819
 H1004 H 0.26379 0.20370 0.14659
 H1005 H 0.26286 0.15322 0.19584
 H1006 H 0.26314 0.12550 0.16717
 C1007 C 0.76026 0.60635 0.58886
 C1008 C 0.77887 0.59473 0.58262
 C1009 C 0.77721 0.57772 0.56756
 C1010 C 0.75687 0.57209 0.55863
 C1011 C 0.73836 0.58423 0.56461
 C1012 C 0.74006 0.60123 0.57963
 C1013 C 0.76165 0.62300 0.60528
 C1014 C 0.76243 0.63676 0.61925
 C1015 C 0.76296 0.65310 0.63603
 C1016 C 0.76310 0.67520 0.63044
 C1017 C 0.76303 0.69110 0.64671
 C1018 C 0.76280 0.68511 0.66887
 C1019 C 0.76279 0.66282 0.67431
 C1020 C 0.76286 0.64695 0.65798
 H1021 H 0.79458 0.59853 0.58971
 H1022 H 0.79169 0.56852 0.56347
 H1023 H 0.72253 0.58045 0.55780
 H1024 H 0.72557 0.61015 0.58430
 H1025 H 0.76313 0.68014 0.61349
 H1026 H 0.76305 0.70808 0.64189
 H1027 H 0.76260 0.65761 0.69116
 H1028 H 0.76269 0.62987 0.66248
 C1029 C 0.74417 0.90287 0.11081
 C1030 C 0.72529 0.90722 0.09875
 C1031 C 0.72622 0.92087 0.08052
 C1032 C 0.74610 0.93027 0.07408
 C1033 C 0.76488 0.92613 0.08657
 C1034 C 0.76391 0.91251 0.10479
 C1035 C 0.74359 0.88769 0.12867
 C1036 C 0.74344 0.87453 0.14326
 C1037 C 0.74363 0.85829 0.16017
 C1038 C 0.74459 0.86440 0.18210
 C1039 C 0.74539 0.84846 0.19840
 C1040 C 0.74528 0.82617 0.19293
 C1041 C 0.74416 0.82027 0.17081
 C1042 C 0.74334 0.83621 0.15459
 H1043 H 0.70995 0.89974 0.10320
 H1044 H 0.71154 0.92356 0.07110
 H1045 H 0.78035 0.93337 0.08219
 H1046 H 0.77863 0.90925 0.11400
 H1047 H 0.74487 0.88146 0.18660
 H1048 H 0.74627 0.85360 0.21524
 H1049 H 0.74403 0.80331 0.16596
 H1050 H 0.74265 0.83130 0.13765
 C1051 C 0.25293 0.40813 0.61286
 C1052 C 0.27254 0.41358 0.60260
 C1053 C 0.27246 0.42714 0.58427
 C1054 C 0.25273 0.43534 0.57592
 C1055 C 0.23317 0.43017 0.58667
 C1056 C 0.23328 0.41664 0.60499
 C1057 C 0.25279 0.39291 0.63072
 C1058 C 0.25248 0.37969 0.64526
 C1059 C 0.25197 0.36339 0.66212
 C1060 C 0.25142 0.34132 0.65647
 C1061 C 0.25095 0.32533 0.67266
 C1062 C 0.25102 0.33117 0.69483
 C1063 C 0.25150 0.35344 0.70036
 C1064 C 0.25197 0.36943 0.68409
 H1065 H 0.28783 0.40699 0.60849
 H1066 H 0.28775 0.43063 0.57621
 H1067 H 0.21776 0.43646 0.58080
 H1068 H 0.21801 0.41253 0.61280
 H1069 H 0.25139 0.33647 0.63951
 H1070 H 0.25061 0.30839 0.66777
 H1071 H 0.25161 0.35854 0.71724
 H1072 H 0.25238 0.38647 0.68865
 C1073 C 0.74813 0.09896 0.89413
 C1074 C 0.75977 0.10212 0.91338
 C1075 C 0.76137 0.08540 0.92871
 C1076 C 0.75132 0.06493 0.92517
 C1077 C 0.73960 0.06209 0.90551
 C1078 C 0.73809 0.07893 0.89019
 C1079 C 0.74673 0.11632 0.87843
 C1080 C 0.74593 0.13096 0.86535
 C1081 C 0.74540 0.14831 0.84959
 C1082 C 0.74637 0.17008 0.85631
 C1083 C 0.74665 0.18686 0.84085
 C1084 C 0.74600 0.18201 0.81846
 C1085 C 0.74479 0.16003 0.81195
 C1086 C 0.74450 0.14335 0.82741
 H1087 H 0.76747 0.11765 0.91667
 H1088 H 0.76974 0.08915 0.94373
 H1089 H 0.73215 0.04669 0.90137
 H1090 H 0.72919 0.07625 0.87518
 H1091 H 0.74713 0.17408 0.87347
 H1092 H 0.74762 0.20356 0.84643
 H1093 H 0.74424 0.15565 0.79488
 H1094 H 0.74378 0.12655 0.82204
 C1095 C 0.25309 0.59655 0.38819
 C1096 C 0.23398 0.58456 0.39130
 C1097 C 0.23341 0.56773 0.40664
 C1098 C 0.25198 0.56267 0.41911
 C1099 C 0.27129 0.57446 0.41548
 C1100 C 0.27182 0.59131 0.40013
 C1101 C 0.25331 0.61444 0.37301
 C1102 C 0.25322 0.62936 0.36021
 C1103 C 0.25289 0.64686 0.34459
 C1104 C 0.25263 0.64203 0.32235
 C1105 C 0.25218 0.65882 0.30700
 C1106 C 0.25197 0.68079 0.31365
 C1107 C 0.25219 0.68550 0.33608
 C1108 C 0.25265 0.66862 0.35144
 H1109 H 0.21942 0.58839 0.38206
 H1110 H 0.21838 0.55879 0.40890
 H1111 H 0.28576 0.57115 0.42503
 H1112 H 0.28671 0.60049 0.39785
 H1113 H 0.25278 0.62526 0.31686
 H1114 H 0.25204 0.65452 0.28991
 H1115 H 0.25208 0.70220 0.34177
 H1116 H 0.25281 0.67253 0.36864
 C1117 C 0.24743 0.88754 0.89485
 C1118 C 0.24162 0.90853 0.88810
 C1119 C 0.24160 0.92573 0.90297
 C1120 C 0.24737 0.92219 0.92488
 C1121 C 0.25335 0.90105 0.93151
 C1122 C 0.25334 0.88383 0.91658
 C1123 C 0.24712 0.86995 0.87938
 C1124 C 0.24661 0.85562 0.86597
 C1125 C 0.24574 0.83895 0.84952
 C1126 C 0.24527 0.84482 0.82750
 C1127 C 0.24403 0.82879 0.81141
 C1128 C 0.24324 0.80658 0.81711
 C1129 C 0.24380 0.80083 0.83933
 C1130 C 0.24503 0.81693 0.85540
 H1131 H 0.23710 0.91162 0.87132
 H1132 H 0.23728 0.94187 0.89726
 H1133 H 0.25769 0.89779 0.94830
 H1134 H 0.25784 0.86762 0.92198
 H1135 H 0.24577 0.86183 0.82277
 H1136 H 0.24363 0.83383 0.79451
 H1137 H 0.24320 0.78392 0.84432
 H1138 H 0.24534 0.81220 0.87240
 C1139 C 0.74547 0.38286 0.39885
 C1140 C 0.72630 0.38904 0.40951
 C1141 C 0.72665 0.40584 0.42486
 C1142 C 0.74621 0.41673 0.42977
 C1143 C 0.76549 0.41008 0.41931
 C1144 C 0.76510 0.39327 0.40393
 C1145 C 0.74483 0.36628 0.38227
 C1146 C 0.74412 0.35257 0.36823
 C1147 C 0.74312 0.33627 0.35139
 C1148 C 0.74263 0.34248 0.32945
 C1149 C 0.74154 0.32666 0.31309
 C1150 C 0.74091 0.30436 0.31847
 C1151 C 0.74139 0.29832 0.34061
 C1152 C 0.74248 0.31416 0.35692
 H1153 H 0.71102 0.38105 0.40576
 H1154 H 0.71159 0.41039 0.43283
 H1155 H 0.78075 0.41832 0.42251
 H1156 H 0.78003 0.38866 0.39575
 H1157 H 0.74308 0.35956 0.32499
 H1158 H 0.74119 0.33193 0.29626
 H1159 H 0.74093 0.28134 0.34538
 H1160 H 0.74282 0.30916 0.37384
 C1161 C 0.11035 0.24835 0.09751
 C1162 C 0.11120 0.23854 0.07700
 C1163 C 0.09289 0.23883 0.06338
 C1164 C 0.07328 0.24905 0.07000
 C1165 C 0.07291 0.25885 0.09086
 C1166 C 0.09120 0.25848 0.10436
 C1167 C 0.12884 0.24781 0.11191
 C1168 C 0.14371 0.24761 0.12474
 C1169 C 0.16067 0.24759 0.14093
 C1170 C 0.18264 0.24780 0.13487
 C1171 C 0.19892 0.24793 0.15085
 C1172 C 0.19339 0.24786 0.17311
 C1173 C 0.17122 0.24767 0.17896
 C1174 C 0.15503 0.24754 0.16299
 H1175 H 0.12603 0.23072 0.07150
 H1176 H 0.09461 0.23167 0.04740
 H1177 H 0.05827 0.26606 0.09746
 H1178 H 0.09028 0.26589 0.12034
 H1179 H 0.18717 0.24787 0.11782
 H1180 H 0.21580 0.24804 0.14576
 H1181 H 0.16632 0.24759 0.19589
 H1182 H 0.13807 0.24741 0.16786
 C1183 C 0.60947 0.75592 0.59651
 C1184 C 0.58922 0.74998 0.60508
 C1185 C 0.57089 0.74912 0.59163
 C1186 C 0.57253 0.75419 0.56934
 C1187 C 0.59292 0.76034 0.56087
 C1188 C 0.61129 0.76116 0.57439
 C1189 C 0.62821 0.75644 0.61061
 C1190 C 0.64337 0.75658 0.62312
 C1191 C 0.66076 0.75643 0.63886
 C1192 C 0.68255 0.75545 0.63223
 C1193 C 0.69925 0.75478 0.64777
 C1194 C 0.69433 0.75505 0.67018
 C1195 C 0.67234 0.75616 0.67660
 C1196 C 0.65574 0.75684 0.66106
 H1197 H 0.58759 0.74599 0.62220
 H1198 H 0.55538 0.74469 0.59872
 H1199 H 0.59473 0.76413 0.54374
 H1200 H 0.62690 0.76575 0.56758
 H1201 H 0.68663 0.75507 0.61507
 H1202 H 0.71598 0.75391 0.64224
 H1203 H 0.66790 0.75641 0.69366
 H1204 H 0.63893 0.75756 0.66639
 C1205 C 0.09425 0.74059 0.89795
 C1206 C 0.09920 0.75227 0.91678
 C1207 C 0.08388 0.75418 0.93343
 C1208 C 0.06305 0.74444 0.93166
 C1209 C 0.05843 0.73253 0.91247
 C1210 C 0.07387 0.73071 0.89581
 C1211 C 0.11016 0.73904 0.88086
 C1212 C 0.12380 0.73821 0.86679
 C1213 C 0.14028 0.73771 0.85017
 C1214 C 0.16233 0.73753 0.85597
 C1215 C 0.17840 0.73780 0.83985
 C1216 C 0.17258 0.73830 0.81767
 C1217 C 0.15033 0.73832 0.81205
 C1218 C 0.13432 0.73804 0.82820
 H1219 H 0.11504 0.75981 0.91870
 H1220 H 0.08897 0.76263 0.94801
 H1221 H 0.04264 0.72526 0.90970
 H1222 H 0.06982 0.72174 0.88117
 H1223 H 0.16711 0.73734 0.87296
 H1224 H 0.19534 0.73778 0.84478
 H1225 H 0.14524 0.73870 0.79516
 H1226 H 0.11729 0.73826 0.82354
 C1227 C 0.59034 0.23842 0.39495
 C1228 C 0.58106 0.25872 0.39959
 C1229 C 0.56581 0.26073 0.41634
 C1230 C 0.55966 0.24244 0.42872
 C1231 C 0.56866 0.22199 0.42357
 C1232 C 0.58395 0.22002 0.40680
 C1233 C 0.60698 0.23675 0.37855
 C1234 C 0.62110 0.23581 0.36496
 C1235 C 0.63804 0.23516 0.34880
 C1236 C 0.65994 0.23524 0.35516
 C1237 C 0.67642 0.23541 0.33944
 C1238 C 0.67117 0.23554 0.31711
 C1239 C 0.64907 0.23527 0.31093
 C1240 C 0.63265 0.23509 0.32668
 H1241 H 0.58584 0.27306 0.39047
 H1242 H 0.55896 0.27663 0.41975
 H1243 H 0.56443 0.20768 0.43297
 H1244 H 0.59108 0.20424 0.40337
 H1245 H 0.66429 0.23536 0.37226
 H1246 H 0.69323 0.23562 0.34480
 H1247 H 0.64440 0.23536 0.29392
 H1248 H 0.61575 0.23510 0.32158
 C1249 C 0.89362 0.75483 0.11095
 C1250 C 0.91333 0.74368 0.11345
 C1251 C 0.92863 0.74348 0.09657
 C1252 C 0.92458 0.75454 0.07672
 C1253 C 0.90447 0.76571 0.07463
 C1254 C 0.88927 0.76581 0.09152
 C1255 C 0.87773 0.75501 0.12818
 C1256 C 0.86415 0.75539 0.14236
 C1257 C 0.84775 0.75604 0.15910
 C1258 C 0.85382 0.75675 0.18104
 C1259 C 0.83789 0.75758 0.19728
 C1260 C 0.81560 0.75773 0.19178
 C1261 C 0.80968 0.75701 0.16963
 C1262 C 0.82566 0.75618 0.15343
 H1263 H 0.91694 0.73522 0.12853
 H1264 H 0.94391 0.73525 0.09963
 H1265 H 0.89977 0.77369 0.05964
 H1266 H 0.87394 0.77433 0.08931
 H1267 H 0.87087 0.75669 0.18562
 H1268 H 0.84306 0.75812 0.21414
 H1269 H 0.79272 0.75711 0.16478
 H1270 H 0.82078 0.75568 0.13648
 C1271 C 0.39706 0.25630 0.61529
 C1272 C 0.41862 0.24992 0.61924
 C1273 C 0.43377 0.24963 0.60219
 C1274 C 0.42750 0.25579 0.58100
 C1275 C 0.40575 0.26205 0.57724
 C1276 C 0.39068 0.26231 0.59426
 C1277 C 0.38134 0.25678 0.63267
 C1278 C 0.36774 0.25741 0.64682
 C1279 C 0.35111 0.25836 0.66332
 C1280 C 0.35679 0.25889 0.68538
 C1281 C 0.34058 0.26005 0.70133
 C1282 C 0.31840 0.26070 0.69541
 C1283 C 0.31289 0.26014 0.67316
 C1284 C 0.32913 0.25898 0.65726
 H1285 H 0.42374 0.24525 0.63548
 H1286 H 0.45042 0.24489 0.60562
 H1287 H 0.40030 0.26649 0.56106
 H1288 H 0.37402 0.26717 0.59099
 H1289 H 0.37375 0.25846 0.69025
 H1290 H 0.34544 0.26047 0.71828
 H1291 H 0.29603 0.26062 0.66798
 H1292 H 0.32455 0.25861 0.64022
 C1293 C 0.88988 0.24959 0.90505
 C1294 C 0.89775 0.23016 0.91394
 C1295 C 0.91346 0.23059 0.93046
 C1296 C 0.92180 0.25059 0.93834
 C1297 C 0.91307 0.27004 0.92950
 C1298 C 0.89736 0.26950 0.91305
 C1299 C 0.87435 0.24923 0.88749
 C1300 C 0.86137 0.24923 0.87276
 C1301 C 0.84568 0.24947 0.85534
 C1302 C 0.85254 0.24932 0.83360
 C1303 C 0.83719 0.24971 0.81673
 C1304 C 0.81475 0.25026 0.82145
 C1305 C 0.80810 0.25046 0.84340
 C1306 C 0.82345 0.25007 0.86018
 H1307 H 0.89207 0.21462 0.90781
 H1308 H 0.91977 0.21510 0.93600
 H1309 H 0.91784 0.28589 0.93550
 H1310 H 0.89111 0.28467 0.90650
 H1311 H 0.86974 0.24890 0.82968
 H1312 H 0.84289 0.24949 0.80005
 H1313 H 0.79099 0.25085 0.84768
 H1314 H 0.81797 0.25023 0.87694
 C1315 C 0.39241 0.75236 0.39944
 C1316 C 0.39664 0.73256 0.40995
 C1317 C 0.41155 0.73165 0.42714
 C1318 C 0.42247 0.75056 0.43406
 C1319 C 0.41777 0.77049 0.42369
 C1320 C 0.40285 0.77136 0.40648
 C1321 C 0.37743 0.75306 0.38140
 C1322 C 0.36468 0.75335 0.36645
 C1323 C 0.34895 0.75339 0.34905
 C1324 C 0.35561 0.75251 0.32725
 C1325 C 0.34009 0.75198 0.31051
 C1326 C 0.31769 0.75227 0.31543
 C1327 C 0.31125 0.75331 0.33743
 C1328 C 0.32675 0.75386 0.35405
 H1329 H 0.38854 0.71778 0.40474
 H1330 H 0.41463 0.71612 0.43495
 H1331 H 0.42612 0.78527 0.42845
 H1332 H 0.39967 0.78678 0.39848
 H1333 H 0.37278 0.75209 0.32320
 H1334 H 0.34561 0.75116 0.29379
 H1335 H 0.29419 0.75360 0.34189
 H1336 H 0.32141 0.75450 0.37085
 C1337 C 0.11345 0.10108 0.24749
 C1338 C 0.09254 0.10754 0.24112
 C1339 C 0.07547 0.09254 0.24111
 C1340 C 0.07905 0.07078 0.24744
 C1341 C 0.10010 0.06444 0.25399
 C1342 C 0.11721 0.07951 0.25397
 C1343 C 0.13090 0.11673 0.24723
 C1344 C 0.14509 0.13029 0.24675
 C1345 C 0.16159 0.14691 0.24593
 C1346 C 0.15553 0.16889 0.24561
 C1347 C 0.17142 0.18515 0.24450
 C1348 C 0.19367 0.17963 0.24368
 C1349 C 0.19960 0.15745 0.24405
 C1350 C 0.18365 0.14122 0.24516
 H1351 H 0.08942 0.12421 0.23618
 H1352 H 0.05938 0.09805 0.23637
 H1353 H 0.10338 0.04777 0.25879
 H1354 H 0.13335 0.07433 0.25891
 H1355 H 0.13849 0.17348 0.24615
 H1356 H 0.16624 0.20202 0.24424
 H1357 H 0.21655 0.15258 0.24343
 H1358 H 0.18853 0.12425 0.24535
 C1359 C 0.61347 0.60807 0.74569
 C1360 C 0.59242 0.61416 0.73942
 C1361 C 0.57554 0.59892 0.73976
 C1362 C 0.57947 0.57729 0.74636
 C1363 C 0.60067 0.57133 0.75278
 C1364 C 0.61757 0.58664 0.75241
 C1365 C 0.63077 0.62389 0.74504
 C1366 C 0.64500 0.63742 0.74427
 C1367 C 0.66177 0.65378 0.74313
 C1368 C 0.65615 0.67589 0.74290
 C1369 C 0.67236 0.69182 0.74152
 C1370 C 0.69449 0.68585 0.74035
 C1371 C 0.69994 0.66354 0.74063
 C1372 C 0.68369 0.64765 0.74201
 H1373 H 0.58903 0.63072 0.73428
 H1374 H 0.55934 0.60413 0.73509
 H1375 H 0.60424 0.55478 0.75777
 H1376 H 0.63382 0.58174 0.75727
 H1377 H 0.63922 0.68082 0.74372
 H1378 H 0.66754 0.70880 0.74133
 H1379 H 0.71677 0.65832 0.73975
 H1380 H 0.68823 0.63059 0.74215
 C1381 C 0.89984 0.10721 0.75023
 C1382 C 0.91880 0.11046 0.76241
 C1383 C 0.93578 0.09524 0.76161
 C1384 C 0.93419 0.07637 0.74845
 C1385 C 0.91478 0.07349 0.73628
 C1386 C 0.89790 0.08872 0.73719
 C1387 C 0.88238 0.12287 0.75087
 C1388 C 0.86775 0.13600 0.75112
 C1389 C 0.85051 0.15192 0.75119
 C1390 C 0.85566 0.17408 0.75081
 C1391 C 0.83910 0.18969 0.75078
 C1392 C 0.81704 0.18337 0.75113
 C1393 C 0.81200 0.16100 0.75144
 C1394 C 0.82866 0.14538 0.75146
 H1395 H 0.92055 0.12487 0.77244
 H1396 H 0.95037 0.09888 0.77077
 H1397 H 0.91193 0.05903 0.72667
 H1398 H 0.88320 0.08594 0.72782
 H1399 H 0.87250 0.17933 0.75055
 H1400 H 0.84364 0.20673 0.75056
 H1401 H 0.79524 0.15555 0.75175
 H1402 H 0.82449 0.12823 0.75172
 C1403 C 0.40453 0.61013 0.24395
 C1404 C 0.41465 0.60568 0.26388
 C1405 C 0.43107 0.58995 0.26514
 C1406 C 0.43759 0.57845 0.24644
 C1407 C 0.42772 0.58344 0.22635
 C1408 C 0.41125 0.59916 0.22514
 C1409 C 0.38687 0.62552 0.24299
 C1410 C 0.37202 0.63839 0.24257
 C1411 C 0.35445 0.65391 0.24246
 C1412 C 0.35905 0.67619 0.24163
 C1413 C 0.34214 0.69140 0.24227
 C1414 C 0.32030 0.68455 0.24377
 C1415 C 0.31581 0.66207 0.24440
 C1416 C 0.33280 0.64686 0.24376
 H1417 H 0.40963 0.61414 0.27852
 H1418 H 0.43855 0.58664 0.28078
 H1419 H 0.43219 0.57465 0.21174
 H1420 H 0.40350 0.60248 0.20962
 H1421 H 0.37575 0.68182 0.24067
 H1422 H 0.34625 0.70855 0.24174
 H1423 H 0.29922 0.65622 0.24558
 H1424 H 0.32907 0.62962 0.24448
 C1425 C 0.09736 0.89181 0.75057
 C1426 C 0.09340 0.90317 0.73126
 C1427 C 0.07996 0.92155 0.73124
 C1428 C 0.07011 0.92913 0.75066
 C1429 C 0.07397 0.91707 0.76996
 C1430 C 0.08750 0.89870 0.76987
 C1431 C 0.11222 0.87364 0.75062
 C1432 C 0.12512 0.85881 0.75046
 C1433 C 0.14107 0.84160 0.75012
 C1434 C 0.13458 0.81974 0.75011
 C1435 C 0.15023 0.80313 0.74979
 C1436 C 0.17261 0.80820 0.74946
 C1437 C 0.17889 0.83027 0.74939
 C1438 C 0.16324 0.84679 0.74972
 H1439 H 0.10082 0.89787 0.71615
 H1440 H 0.07693 0.92928 0.71570
 H1441 H 0.06758 0.92224 0.78551
 H1442 H 0.09060 0.89011 0.78499
 H1443 H 0.11745 0.81553 0.75040
 H1444 H 0.14480 0.78635 0.74989
 H1445 H 0.19593 0.83481 0.74917
 H1446 H 0.16844 0.86366 0.74969
 C1447 C 0.59626 0.38793 0.24561
 C1448 C 0.60441 0.40821 0.25197
 C1449 C 0.59070 0.42634 0.25271
 C1450 C 0.56856 0.42445 0.24712
 C1451 C 0.56049 0.40403 0.24054
 C1452 C 0.57428 0.38585 0.23983
 C1453 C 0.61065 0.36942 0.24519
 C1454 C 0.62347 0.35453 0.24521
 C1455 C 0.63961 0.33753 0.24558
 C1456 C 0.66169 0.34310 0.24590
 C1457 C 0.67760 0.32686 0.24682
 C1458 C 0.67166 0.30471 0.24745
 C1459 C 0.64938 0.29925 0.24700
 C1460 C 0.63346 0.31558 0.24609
 H1461 H 0.62141 0.41002 0.25637
 H1462 H 0.59749 0.44190 0.25746
 H1463 H 0.54349 0.40206 0.23631
 H1464 H 0.56781 0.37020 0.23490
 H1465 H 0.66662 0.36004 0.24556
 H1466 H 0.69455 0.33170 0.24713
 H1467 H 0.64422 0.28239 0.24749
 H1468 H 0.61640 0.31110 0.24591
 C1469 C 0.89310 0.90798 0.25930
 C1470 C 0.90102 0.91836 0.27792
 C1471 C 0.91790 0.93357 0.27627
 C1472 C 0.92740 0.93857 0.25586
 C1473 C 0.91862 0.92829 0.23719
 C1474 C 0.90174 0.91318 0.23895
 C1475 C 0.87658 0.89148 0.26098
 C1476 C 0.86296 0.87739 0.26190
 C1477 C 0.84686 0.86040 0.26249
 C1478 C 0.82470 0.86571 0.26263
 C1479 C 0.80903 0.84922 0.26236
 C1480 C 0.81532 0.82714 0.26192
 C1481 C 0.83768 0.82199 0.26198
 C1482 C 0.85331 0.83853 0.26225
 H1483 H 0.89447 0.91437 0.29381
 H1484 H 0.92415 0.94033 0.29127
 H1485 H 0.92429 0.93216 0.22098
 H1486 H 0.89551 0.90543 0.22437
 H1487 H 0.81953 0.88259 0.26274
 H1488 H 0.79199 0.85381 0.26233
 H1489 H 0.84311 0.80520 0.26164
 H1490 H 0.87044 0.83425 0.26207
 C1491 C 0.39691 0.41045 0.76314
 C1492 C 0.40825 0.41737 0.78167
 C1493 C 0.42479 0.43292 0.77978
 C1494 C 0.43021 0.44166 0.75930
 C1495 C 0.41838 0.43493 0.74087
 C1496 C 0.40186 0.41943 0.74279
 C1497 C 0.38057 0.39375 0.76477
 C1498 C 0.36694 0.37967 0.76566
 C1499 C 0.35058 0.36292 0.76619
 C1500 C 0.32853 0.36865 0.76638
 C1501 C 0.31254 0.35249 0.76598
 C1502 C 0.31838 0.33029 0.76536
 C1503 C 0.34063 0.32469 0.76541
 C1504 C 0.35661 0.34092 0.76580
 H1505 H 0.40456 0.41049 0.79749
 H1506 H 0.43378 0.43759 0.79421
 H1507 H 0.42200 0.44158 0.72494
 H1508 H 0.39312 0.41425 0.72836
 H1509 H 0.32369 0.38563 0.76661
 H1510 H 0.29560 0.35743 0.76597
 H1511 H 0.34572 0.30779 0.76492
 H1512 H 0.37365 0.33632 0.76558
 C1513 C 0.10443 0.25889 0.90905
 C1514 C 0.09602 0.23852 0.91460
 C1515 C 0.07941 0.23681 0.93002
 C1516 C 0.07070 0.25554 0.94028
 C1517 C 0.07994 0.27597 0.93486
 C1518 C 0.09654 0.27758 0.91935
 C1519 C 0.12089 0.26052 0.89247
 C1520 C 0.13458 0.26153 0.87845
 C1521 C 0.15094 0.26238 0.86172
 C1522 C 0.14489 0.26282 0.83974
 C1523 C 0.16084 0.26319 0.82350
 C1524 C 0.18310 0.26310 0.82906
 C1525 C 0.18896 0.26271 0.85125
 C1526 C 0.17299 0.26235 0.86743
 H1527 H 0.10224 0.22390 0.90693
 H1528 H 0.07395 0.22059 0.93417
 H1529 H 0.07371 0.29102 0.94156
 H1530 H 0.10293 0.29347 0.91510
 H1531 H 0.12784 0.26278 0.83516
 H1532 H 0.15574 0.26345 0.80662
 H1533 H 0.20591 0.26261 0.85617
 H1534 H 0.17785 0.26195 0.88439
 C1535 C 0.60606 0.74983 0.40956
 C1536 C 0.59989 0.76916 0.41991
 C1537 C 0.58305 0.76904 0.43519
 C1538 C 0.57215 0.74954 0.44030
 C1539 C 0.57885 0.73008 0.43023
 C1540 C 0.59569 0.73025 0.41491
 C1541 C 0.62247 0.75031 0.39288
 C1542 C 0.63602 0.75103 0.37871
 C1543 C 0.65208 0.75216 0.36173
 C1544 C 0.67422 0.75285 0.36703
 C1545 C 0.68984 0.75426 0.35057
 C1546 C 0.68352 0.75502 0.32852
 C1547 C 0.66118 0.75428 0.32337
 C1548 C 0.64558 0.75287 0.33988
 H1549 H 0.60785 0.78440 0.41592
 H1550 H 0.57842 0.78422 0.44289
 H1551 H 0.57059 0.71488 0.43364
 H1552 H 0.60032 0.71521 0.40694
 H1553 H 0.67941 0.75234 0.38389
 H1554 H 0.70687 0.75473 0.35515
 H1555 H 0.65573 0.75477 0.30660
 H1556 H 0.62846 0.75237 0.33562
 C1557 C 0.90560 0.75302 0.88678
 C1558 C 0.89835 0.74274 0.90570
 C1559 C 0.91144 0.74225 0.92428
 C1560 C 0.93230 0.75209 0.92446
 C1561 C 0.93933 0.76245 0.90508
 C1562 C 0.92611 0.76286 0.88647
 C1563 C 0.89155 0.75370 0.86800
 C1564 C 0.87891 0.75395 0.85296
 C1565 C 0.86280 0.75395 0.83591
 C1566 C 0.86890 0.75289 0.81397
 C1567 C 0.85294 0.75244 0.79765
 C1568 C 0.83066 0.75299 0.80312
 C1569 C 0.82479 0.75415 0.82526
 C1570 C 0.84073 0.75461 0.84147
 H1571 H 0.88236 0.73530 0.90621
 H1572 H 0.90451 0.73492 0.93871
 H1573 H 0.95533 0.76965 0.90378
 H1574 H 0.93193 0.77081 0.87184
 H1575 H 0.88595 0.75234 0.80948
 H1576 H 0.85804 0.75161 0.78080
 H1577 H 0.80784 0.75467 0.83013
 H1578 H 0.83581 0.75539 0.85840
 C1579 C 0.40176 0.25462 0.39236
 C1580 C 0.39341 0.25077 0.41318
 C1581 C 0.40727 0.25058 0.43121
 C1582 C 0.42974 0.25422 0.42867
 C1583 C 0.43800 0.25833 0.40769
 C1584 C 0.42407 0.25848 0.38962
 C1585 C 0.38726 0.25432 0.37395
 C1586 C 0.37444 0.25379 0.35908
 C1587 C 0.35841 0.25291 0.34201
 C1588 C 0.36474 0.25228 0.32013
 C1589 C 0.34897 0.25113 0.30370
 C1590 C 0.32665 0.25056 0.30899
 C1591 C 0.32053 0.25125 0.33107
 C1592 C 0.33630 0.25240 0.34742
 H1593 H 0.37616 0.24786 0.41549
 H1594 H 0.40037 0.24774 0.44718
 H1595 H 0.45526 0.26100 0.40522
 H1596 H 0.43070 0.26145 0.37355
 H1597 H 0.38183 0.25265 0.31578
 H1598 H 0.35427 0.25070 0.28690
 H1599 H 0.30353 0.25090 0.33577
 H1600 H 0.33123 0.25286 0.36431
 C1601 C 0.09645 0.75356 0.10895
 C1602 C 0.08432 0.73449 0.10612
 C1603 C 0.06726 0.73393 0.09104
 C1604 C 0.06211 0.75247 0.07856
 C1605 C 0.07403 0.77176 0.08193
 C1606 C 0.09111 0.77227 0.09701
 C1607 C 0.11459 0.75371 0.12383
 C1608 C 0.12969 0.75347 0.13640
 C1609 C 0.14737 0.75286 0.15180
 C1610 C 0.16905 0.75305 0.14470
 C1611 C 0.18610 0.75213 0.15985
 C1612 C 0.18164 0.75096 0.18231
 C1613 C 0.15975 0.75081 0.18920
 C1614 C 0.14280 0.75174 0.17406
 H1615 H 0.08822 0.71995 0.11536
 H1616 H 0.05823 0.71893 0.08898
 H1617 H 0.07064 0.78620 0.07236
 H1618 H 0.10040 0.78713 0.09909
 H1619 H 0.17277 0.75389 0.12748
 H1620 H 0.20273 0.75235 0.15399
 H1621 H 0.15564 0.74999 0.20632
 H1622 H 0.12609 0.75155 0.17974
 C1623 C 0.59891 0.25510 0.60952
 C1624 C 0.58708 0.23587 0.60646
 C1625 C 0.57024 0.23515 0.59117
 C1626 C 0.56499 0.25369 0.57873
 C1627 C 0.57665 0.27310 0.58226
 C1628 C 0.59353 0.27377 0.59756
 C1629 C 0.61668 0.25549 0.62479
 C1630 C 0.63143 0.25544 0.63775
 C1631 C 0.64866 0.25503 0.65363
 C1632 C 0.67050 0.25424 0.64713
 C1633 C 0.68710 0.25335 0.66276
 C1634 C 0.68199 0.25320 0.68511
 C1635 C 0.65994 0.25411 0.69140
 C1636 C 0.64345 0.25500 0.67578
 H1637 H 0.59103 0.22136 0.61573
 H1638 H 0.56138 0.22006 0.58898
 H1639 H 0.57317 0.28754 0.57272
 H1640 H 0.60258 0.28874 0.59982
 H1641 H 0.67470 0.25422 0.62999
 H1642 H 0.70387 0.25272 0.65735
 H1643 H 0.65536 0.25410 0.70842
 H1644 H 0.62660 0.25559 0.68099
 C1645 C 0.88597 0.24383 0.10414
 C1646 C 0.89237 0.22492 0.09315
 C1647 C 0.90909 0.22576 0.07773
 C1648 C 0.91967 0.24557 0.07310
 C1649 C 0.91282 0.26458 0.08392
 C1650 C 0.89610 0.26369 0.09936
 C1651 C 0.86938 0.24272 0.12066
 C1652 C 0.85559 0.24168 0.13459
 C1653 C 0.83912 0.24042 0.15123
 C1654 C 0.84504 0.24028 0.17325
 C1655 C 0.82901 0.23926 0.18940
 C1656 C 0.80680 0.23838 0.18372
 C1657 C 0.80107 0.23836 0.16150
 C1658 C 0.81712 0.23938 0.14540
 H1659 H 0.88459 0.20947 0.09666
 H1660 H 0.91380 0.21091 0.06947
 H1661 H 0.92082 0.28000 0.08093
 H1662 H 0.89131 0.27842 0.10780
 H1663 H 0.86204 0.24105 0.17794
 H1664 H 0.83403 0.23928 0.20631
 H1665 H 0.78416 0.23766 0.15649
 H1666 H 0.81235 0.23944 0.12841
 C1667 C 0.38523 0.74015 0.60264
 C1668 C 0.38175 0.73491 0.58072
 C1669 C 0.39883 0.73662 0.56570
 C1670 C 0.41956 0.74368 0.57247
 C1671 C 0.42288 0.74872 0.59457
 C1672 C 0.40584 0.74698 0.60951
 C1673 C 0.36777 0.73880 0.61822
 C1674 C 0.35358 0.73804 0.63177
 C1675 C 0.33709 0.73751 0.64841
 C1676 C 0.34319 0.73707 0.67036
 C1677 C 0.32731 0.73720 0.68666
 C1678 C 0.30503 0.73780 0.68122
 C1679 C 0.29906 0.73805 0.65906
 C1680 C 0.31500 0.73792 0.64278
 H1681 H 0.36583 0.72963 0.57522
 H1682 H 0.39574 0.73277 0.54877
 H1683 H 0.43873 0.75382 0.60038
 H1684 H 0.40875 0.75099 0.62645
 H1685 H 0.36025 0.73678 0.67490
 H1686 H 0.33252 0.73694 0.70351
 H1687 H 0.28209 0.73846 0.65425
 H1688 H 0.31009 0.73829 0.62584
 C1689 C 0.24459 0.11405 0.90583
 C1690 C 0.26434 0.10669 0.91454
 C1691 C 0.26480 0.08842 0.92813
 C1692 C 0.24546 0.07720 0.93317
 C1693 C 0.22561 0.08502 0.92475
 C1694 C 0.22520 0.10330 0.91113
 C1695 C 0.24443 0.13191 0.89062
 C1696 C 0.24460 0.14649 0.87744
 C1697 C 0.24511 0.16344 0.86122
 C1698 C 0.24573 0.18538 0.86738
 C1699 C 0.24665 0.20173 0.85150
 C1700 C 0.24701 0.19632 0.82921
 C1701 C 0.24627 0.17418 0.82324
 C1702 C 0.24534 0.15790 0.83913
 H1703 H 0.27945 0.11488 0.91055
 H1704 H 0.28029 0.08297 0.93460
 H1705 H 0.21049 0.07660 0.92814
 H1706 H 0.20982 0.10879 0.90438
 H1707 H 0.24557 0.18985 0.88444
 H1708 H 0.24714 0.21858 0.85670
 H1709 H 0.24646 0.16938 0.80628
 H1710 H 0.24489 0.14097 0.83418
 C1711 C 0.74587 0.60738 0.40176
 C1712 C 0.74172 0.60993 0.42403
 C1713 C 0.74187 0.59176 0.43783
 C1714 C 0.74627 0.57086 0.42949
 C1715 C 0.75022 0.56851 0.40705
 C1716 C 0.75003 0.58664 0.39332
 C1717 C 0.74608 0.62590 0.38738
 C1718 C 0.74650 0.64085 0.37465
 C1719 C 0.74720 0.65800 0.35867
 C1720 C 0.74793 0.65264 0.33656
 C1721 C 0.74874 0.66904 0.32082
 C1722 C 0.74885 0.69114 0.32697
 C1723 C 0.74812 0.69638 0.34929
 C1724 C 0.74731 0.67989 0.36503
 H1725 H 0.73850 0.62594 0.43072
 H1726 H 0.73896 0.59409 0.45506
 H1727 H 0.75329 0.55260 0.40008
 H1728 H 0.75317 0.58448 0.37609
 H1729 H 0.74786 0.63574 0.33147
 H1730 H 0.74923 0.66437 0.30383
 H1731 H 0.74811 0.71320 0.35460
 H1732 H 0.74675 0.68421 0.38212
 C1733 C 0.74870 0.08982 0.10560
 C1734 C 0.76845 0.08426 0.09567
 C1735 C 0.76891 0.06863 0.07911
 C1736 C 0.74957 0.05844 0.07225
 C1737 C 0.72989 0.06379 0.08269
 C1738 C 0.72948 0.07938 0.09924
 C1739 C 0.74798 0.10664 0.12188
 C1740 C 0.74711 0.12082 0.13541
 C1741 C 0.74582 0.13769 0.15160
 C1742 C 0.74533 0.15963 0.14537
 C1743 C 0.74385 0.17599 0.16115
 C1744 C 0.74282 0.17058 0.18341
 C1745 C 0.74336 0.14843 0.18946
 C1746 C 0.74483 0.13214 0.17366
 H1747 H 0.78342 0.09227 0.10045
 H1748 H 0.78426 0.06505 0.07120
 H1749 H 0.71479 0.05602 0.07794
 H1750 H 0.71411 0.08351 0.10688
 H1751 H 0.74607 0.16410 0.12831
 H1752 H 0.74355 0.19284 0.15591
 H1753 H 0.74266 0.14363 0.20642
 H1754 H 0.74518 0.11521 0.17867
 C1755 C 0.23959 0.59483 0.60147
 C1756 C 0.24524 0.60170 0.58051
 C1757 C 0.24684 0.58659 0.56362
 C1758 C 0.24284 0.56435 0.56746
 C1759 C 0.23688 0.55760 0.58853
 C1760 C 0.23531 0.57277 0.60545
 C1761 C 0.23859 0.61051 0.61881
 C1762 C 0.23809 0.62404 0.63299
 C1763 C 0.23782 0.64053 0.64960
 C1764 C 0.23793 0.66256 0.64373
 C1765 C 0.23805 0.67867 0.65979
 C1766 C 0.23807 0.67294 0.68199
 C1767 C 0.23792 0.65070 0.68771
 C1768 C 0.23780 0.63463 0.67160
 H1769 H 0.24850 0.61874 0.57724
 H1770 H 0.25110 0.59234 0.54750
 H1771 H 0.23387 0.54056 0.59198
 H1772 H 0.23096 0.56730 0.62165
 H1773 H 0.23801 0.66729 0.62672
 H1774 H 0.23820 0.69560 0.65479
 H1775 H 0.23796 0.64567 0.70462
 H1776 H 0.23778 0.61761 0.67631
 C1777 C 0.76311 0.89825 0.88358
 C1778 C 0.74294 0.90771 0.88843
 C1779 C 0.74111 0.92259 0.90554
 C1780 C 0.75945 0.92822 0.91809
 C1781 C 0.77975 0.91897 0.91280
 C1782 C 0.78155 0.90405 0.89567
 C1783 C 0.76464 0.88206 0.86667
 C1784 C 0.76553 0.86830 0.85270
 C1785 C 0.76617 0.85169 0.83614
 C1786 C 0.76608 0.85750 0.81411
 C1787 C 0.76595 0.84137 0.79804
 C1788 C 0.76587 0.81914 0.80379
 C1789 C 0.76619 0.81349 0.82603
 C1790 C 0.76632 0.82966 0.84206
 H1791 H 0.72857 0.90338 0.87914
 H1792 H 0.72531 0.92964 0.90903
 H1793 H 0.79411 0.92276 0.92232
 H1794 H 0.79723 0.89678 0.89211
 H1795 H 0.76593 0.87450 0.80934
 H1796 H 0.76576 0.84635 0.78111
 H1797 H 0.76620 0.79658 0.83108
 H1798 H 0.76637 0.82498 0.85908
 C1799 C 0.25587 0.39369 0.38823
 C1800 C 0.24946 0.41515 0.38381
 C1801 C 0.24899 0.43062 0.40054
 C1802 C 0.25502 0.42479 0.42188
 C1803 C 0.26133 0.40315 0.42613
 C1804 C 0.26176 0.38774 0.40942
 C1805 C 0.25646 0.37767 0.37114
 C1806 C 0.25708 0.36395 0.35711
 C1807 C 0.25788 0.34735 0.34059
 C1808 C 0.25809 0.35313 0.31856
 C1809 C 0.25878 0.33698 0.30253
 C1810 C 0.25926 0.31476 0.30834
 C1811 C 0.25915 0.30915 0.33058
 C1812 C 0.25846 0.32534 0.34657
 H1813 H 0.24488 0.41993 0.36744
 H1814 H 0.24424 0.44719 0.39674
 H1815 H 0.26569 0.39805 0.44245
 H1816 H 0.26666 0.37115 0.41305
 H1817 H 0.25769 0.37011 0.31375
 H1818 H 0.25888 0.34192 0.28560
 H1819 H 0.25954 0.29225 0.33567
 H1820 H 0.25834 0.32069 0.36359
 C1821 C 0.24473 0.89068 0.09570
 C1822 C 0.26409 0.89389 0.08415
 C1823 C 0.26493 0.90916 0.06727
 C1824 C 0.24637 0.92144 0.06172
 C1825 C 0.22682 0.91771 0.07306
 C1826 C 0.22603 0.90244 0.08997
 C1827 C 0.24425 0.87554 0.11360
 C1828 C 0.24423 0.86272 0.12849
 C1829 C 0.24460 0.84700 0.14590
 C1830 C 0.24409 0.82480 0.14095
 C1831 C 0.24508 0.80933 0.15759
 C1832 C 0.24662 0.81583 0.17954
 C1833 C 0.24693 0.83824 0.18440
 C1834 C 0.24596 0.85372 0.16765
 H1835 H 0.27863 0.88478 0.08836
 H1836 H 0.28014 0.91150 0.05868
 H1837 H 0.21235 0.92712 0.06936
 H1838 H 0.21094 0.90006 0.09880
 H1839 H 0.24306 0.81941 0.12418
 H1840 H 0.24469 0.79225 0.15319
 H1841 H 0.24805 0.84381 0.20109
 H1842 H 0.24640 0.87091 0.17165
 C1843 C 0.74674 0.39138 0.60012
 C1844 C 0.76604 0.39472 0.58848
 C1845 C 0.76664 0.40985 0.57148
 C1846 C 0.74791 0.42185 0.56587
 C1847 C 0.72846 0.41804 0.57735
 C1848 C 0.72790 0.40291 0.59439
 C1849 C 0.74644 0.37627 0.61803
 C1850 C 0.74650 0.36345 0.63291
 C1851 C 0.74687 0.34772 0.65029
 C1852 C 0.74693 0.32551 0.64531
 C1853 C 0.74763 0.31004 0.66196
 C1854 C 0.74831 0.31655 0.68395
 C1855 C 0.74818 0.33896 0.68883
 C1856 C 0.74748 0.35444 0.67208
 H1857 H 0.78068 0.38579 0.59270
 H1858 H 0.78178 0.41224 0.56277
 H1859 H 0.71386 0.42724 0.57360
 H1860 H 0.71287 0.40043 0.60328
 H1861 H 0.74648 0.32013 0.62851
 H1862 H 0.74763 0.29297 0.65754
 H1863 H 0.74862 0.34453 0.70555
 H1864 H 0.74746 0.37162 0.67610
 C1865 C 0.10208 0.11895 0.75602
 C1866 C 0.09110 0.11245 0.77489
 C1867 C 0.07596 0.09547 0.77405
 C1868 C 0.07160 0.08472 0.75428
 C1869 C 0.08237 0.09169 0.73530
 C1870 C 0.09753 0.10867 0.73619
 C1871 C 0.11852 0.13564 0.75716
 C1872 C 0.13249 0.14941 0.75821
 C1873 C 0.14933 0.16568 0.75947
 C1874 C 0.14386 0.18781 0.76003
 C1875 C 0.16022 0.20362 0.76104
 C1876 C 0.18234 0.19751 0.76148
 C1877 C 0.18765 0.17518 0.76106
 C1878 C 0.17125 0.15941 0.76006
 H1879 H 0.09445 0.12032 0.79032
 H1880 H 0.06773 0.09066 0.78888
 H1881 H 0.07960 0.08357 0.71990
 H1882 H 0.10599 0.11353 0.72148
 H1883 H 0.12694 0.19285 0.75962
 H1884 H 0.15550 0.22062 0.76136
 H1885 H 0.20448 0.16986 0.76141
 H1886 H 0.17568 0.14232 0.75967
 C1887 C 0.60499 0.60997 0.26015
 C1888 C 0.58304 0.61401 0.26486
 C1889 C 0.56770 0.59723 0.26312
 C1890 C 0.57417 0.57624 0.25656
 C1891 C 0.59631 0.57235 0.25208
 C1892 C 0.61158 0.58909 0.25385
 C1893 C 0.62083 0.62719 0.26139
 C1894 C 0.63440 0.64136 0.26207
 C1895 C 0.65083 0.65806 0.26251
 C1896 C 0.64479 0.68004 0.26282
 C1897 C 0.66075 0.69627 0.26263
 C1898 C 0.68302 0.69072 0.26209
 C1899 C 0.68890 0.66854 0.26196
 C1900 C 0.67290 0.65235 0.26215
 H1901 H 0.57776 0.63014 0.26971
 H1902 H 0.55076 0.60076 0.26652
 H1903 H 0.60187 0.55628 0.24737
 H1904 H 0.62853 0.58577 0.25024
 H1905 H 0.62775 0.68464 0.26307
 H1906 H 0.65560 0.71315 0.26280
 H1907 H 0.70586 0.66367 0.26160
 H1908 H 0.67775 0.63537 0.26188
 C1909 C 0.10605 0.89804 0.24756
 C1910 C 0.10904 0.91732 0.23581
 C1911 C 0.09354 0.93401 0.23693
 C1912 C 0.07466 0.93180 0.24997
 C1913 C 0.07206 0.91209 0.26170
 C1914 C 0.08757 0.89549 0.26048
 C1915 C 0.12199 0.88088 0.24663
 C1916 C 0.13533 0.86646 0.24621
 C1917 C 0.15145 0.84945 0.24607
 C1918 C 0.14519 0.82752 0.24677
 C1919 C 0.16101 0.81108 0.24712
 C1920 C 0.18331 0.81641 0.24681
 C1921 C 0.18935 0.83854 0.24600
 C1922 C 0.17354 0.85489 0.24564
 H1923 H 0.12346 0.91953 0.22589
 H1924 H 0.09696 0.94887 0.22811
 H1925 H 0.05762 0.90878 0.27119
 H1926 H 0.08501 0.88054 0.26952
 H1927 H 0.12811 0.82314 0.24714
 H1928 H 0.15579 0.79424 0.24768
 H1929 H 0.20633 0.84330 0.24567
 H1930 H 0.17856 0.87181 0.24513
 C1931 C 0.60820 0.40255 0.74818
 C1932 C 0.61353 0.42339 0.74053
 C1933 C 0.59818 0.44026 0.74151
 C1934 C 0.57736 0.43647 0.75026
 C1935 C 0.57216 0.41541 0.75772
 C1936 C 0.58748 0.39861 0.75671
 C1937 C 0.62399 0.38520 0.74767
 C1938 C 0.63709 0.37054 0.74762
 C1939 C 0.65281 0.35312 0.74792
 C1940 C 0.67505 0.35797 0.74813
 C1941 C 0.69042 0.34120 0.74892
 C1942 C 0.68378 0.31923 0.74955
 C1943 C 0.66134 0.31450 0.74922
 C1944 C 0.64598 0.33136 0.74843
 H1945 H 0.62957 0.42662 0.73394
 H1946 H 0.60269 0.45631 0.73575
 H1947 H 0.55613 0.41184 0.76414
 H1948 H 0.58315 0.38255 0.76260
 H1949 H 0.68052 0.37474 0.74777
 H1950 H 0.70752 0.34549 0.74908
 H1951 H 0.65565 0.29781 0.74962
 H1952 H 0.62878 0.32743 0.74831
 C1953 C 0.88842 0.09365 0.24593
 C1954 C 0.89572 0.08477 0.26562
 C1955 C 0.91377 0.07089 0.26594
 C1956 C 0.92479 0.06572 0.24653
 C1957 C 0.91704 0.07433 0.22674
 C1958 C 0.89898 0.08826 0.22647
 C1959 C 0.87076 0.10907 0.24590
 C1960 C 0.85631 0.12237 0.24618
 C1961 C 0.83946 0.13867 0.24679
 C1962 C 0.84509 0.16074 0.24738
 C1963 C 0.82887 0.17669 0.24827
 C1964 C 0.80672 0.17078 0.24860
 C1965 C 0.80123 0.14851 0.24796
 C1966 C 0.81751 0.13257 0.24707
 H1967 H 0.88766 0.08883 0.28077
 H1968 H 0.91918 0.06427 0.28138
 H1969 H 0.92532 0.07085 0.21158
 H1970 H 0.89352 0.09513 0.21115
 H1971 H 0.86205 0.16562 0.24719
 H1972 H 0.83372 0.19364 0.24869
 H1973 H 0.78436 0.14336 0.24813
 H1974 H 0.81298 0.11552 0.24664
 C1975 C 0.38742 0.59487 0.74467
 C1976 C 0.39523 0.58691 0.76456
 C1977 C 0.41373 0.57363 0.76514
 C1978 C 0.42472 0.56816 0.74579
 C1979 C 0.41644 0.57581 0.72582
 C1980 C 0.39794 0.58913 0.72529
 C1981 C 0.36940 0.60991 0.74436
 C1982 C 0.35478 0.62305 0.74439
 C1983 C 0.33792 0.63938 0.74472
 C1984 C 0.34364 0.66142 0.74447
 C1985 C 0.32752 0.67747 0.74525
 C1986 C 0.30534 0.67172 0.74632
 C1987 C 0.29973 0.64947 0.74644
 C1988 C 0.31593 0.63341 0.74567
 H1989 H 0.38724 0.59126 0.77967
 H1990 H 0.41953 0.56774 0.78073
 H1991 H 0.42467 0.57207 0.71069
 H1992 H 0.39211 0.59531 0.70981
 H1993 H 0.36060 0.66622 0.74376
 H1994 H 0.33248 0.69440 0.74506
 H1995 H 0.28284 0.64445 0.74720
 H1996 H 0.31132 0.61638 0.74590
 C1997 C 0.91267 0.89511 0.73919
 C1998 C 0.92224 0.90006 0.75927
 C1999 C 0.93750 0.91685 0.76080
 C2000 C 0.94338 0.92895 0.74224
 C2001 C 0.93412 0.92347 0.72201
 C2002 C 0.91882 0.90667 0.72052
 C2003 C 0.89595 0.87876 0.73800
 C2004 C 0.88173 0.86525 0.73733
 C2005 C 0.86467 0.84922 0.73685
 C2006 C 0.84282 0.85576 0.73702
 C2007 C 0.82622 0.84018 0.73692
 C2008 C 0.83129 0.81780 0.73666
 C2009 C 0.85334 0.81143 0.73647
 C2010 C 0.86989 0.82704 0.73656
 H2011 H 0.91764 0.89118 0.77381
 H2012 H 0.94456 0.92053 0.77654
 H2013 H 0.93813 0.93266 0.70750
 H2014 H 0.91146 0.90299 0.70491
 H2015 H 0.83861 0.87291 0.73730
 H2016 H 0.80945 0.84567 0.73710
 H2017 H 0.85787 0.79437 0.73630
 H2018 H 0.88675 0.82181 0.73649
 C2019 C 0.40660 0.39394 0.24915
 C2020 C 0.41183 0.40447 0.26868
 C2021 C 0.42737 0.42111 0.26886
 C2022 C 0.43779 0.42746 0.24948
 C2023 C 0.43273 0.41646 0.23003
 C2024 C 0.41722 0.39983 0.22989
 C2025 C 0.38996 0.37748 0.24870
 C2026 C 0.37594 0.36377 0.24802
 C2027 C 0.35927 0.34737 0.24695
 C2028 C 0.33728 0.35339 0.24619
 C2029 C 0.32111 0.33742 0.24487
 C2030 C 0.32675 0.31519 0.24428
 C2031 C 0.34894 0.30935 0.24508
 C2032 C 0.36505 0.32535 0.24640
 H2033 H 0.40366 0.40005 0.28367
 H2034 H 0.43074 0.42945 0.28403
 H2035 H 0.44069 0.42081 0.21492
 H2036 H 0.41335 0.39172 0.21471
 H2037 H 0.33265 0.37043 0.24658
 H2038 H 0.30421 0.34249 0.24434
 H2039 H 0.35391 0.29242 0.24472
 H2040 H 0.38203 0.32052 0.24695
   
