data_POSCAR
  _audit_creation_date              2014-09-24
  _audit_creation_method            'ToBaCCo'
  _symmetry_space_group_name_H-M    'P1'
  _symmetry_Int_Tables_number       1
  _symmetry_cell_setting            triclinic
  loop_
  _symmetry_equiv_pos_as_xyz
 x,y,z
_cell_length_a 48.8202
_cell_length_b 44.1598
_cell_length_c 49.8808
_cell_angle_alpha 89.787300
_cell_angle_beta 90.020600
_cell_angle_gamma 90.180500
loop_
  _atom_site_label
  _atom_site_type_symbol
  _atom_site_fract_x
  _atom_site_fract_y
  _atom_site_fract_z
C1 C 0.28566 0.31551 0.01436
 C2 C 0.28684 0.31882 -0.01409
 C3 C 0.30564 0.30067 -0.02830
 C4 C 0.32368 0.28044 -0.01538
 C5 C 0.32210 0.27758 0.01291
 C6 C 0.30290 0.29456 0.02714
 H7 H 0.30223 0.29238 0.04881
 H8 H 0.30687 0.30293 -0.04988
 C9 C 0.71378 0.68367 0.01575
 C10 C 0.71160 0.67951 -0.01233
 C11 C 0.69164 0.69577 -0.02661
 C12 C 0.67351 0.71596 -0.01389
 C13 C 0.67602 0.71997 0.01430
 C14 C 0.69625 0.70419 0.02850
 H15 H 0.69750 0.70687 0.05008
 H16 H 0.69054 0.69277 -0.04814
 C17 C 0.71969 0.31075 0.98092
 C18 C 0.71979 0.31345 1.00947
 C19 C 0.70106 0.29554 1.02426
 C20 C 0.68162 0.27691 1.01170
 C21 C 0.68158 0.27470 0.98351
 C22 C 0.70094 0.29096 0.96860
 H23 H 0.70071 0.28903 0.94693
 H24 H 0.70018 0.29751 1.04589
 C25 C 0.27455 0.69572 0.98894
 C26 C 0.27735 0.69201 1.01714
 C27 C 0.29761 0.70917 1.03036
 C28 C 0.31568 0.72869 1.01659
 C29 C 0.31223 0.73228 0.98847
 C30 C 0.29125 0.71655 0.97529
 H31 H 0.28986 0.71803 0.95361
 H32 H 0.29872 0.70816 1.05204
 C33 C 0.01164 0.27436 0.32001
 C34 C -0.01718 0.27674 0.32015
 C35 C -0.03005 0.29556 0.30126
 C36 C -0.01477 0.31263 0.28266
 C37 C 0.01420 0.30980 0.28239
 C38 C 0.02688 0.29040 0.30091
 H39 H 0.04904 0.28865 0.30121
 H40 H -0.05214 0.29789 0.30182
 C41 C 0.01665 0.72751 0.68235
 C42 C -0.01237 0.72622 0.68074
 C43 C -0.02648 0.70847 0.69976
 C44 C -0.01296 0.69066 0.71917
 C45 C 0.01623 0.69136 0.71977
 C46 C 0.03038 0.71065 0.70205
 H47 H 0.05260 0.71045 0.70192
 H48 H -0.04865 0.70959 0.70012
 C49 C 0.98518 0.70940 0.32908
 C50 C 1.01409 0.70921 0.32889
 C51 C 1.02795 0.69146 0.31000
 C52 C 1.01379 0.67257 0.29179
 C53 C 0.98453 0.67351 0.29181
 C54 C 0.97092 0.69197 0.31030
 H55 H 0.94872 0.69291 0.31002
 H56 H 1.05010 0.69066 0.31120
 C57 C 0.98724 0.29227 0.67018
 C58 C 1.01634 0.28954 0.67035
 C59 C 1.03110 0.30515 0.69037
 C60 C 1.01819 0.32429 0.70887
 C61 C 0.98935 0.32753 0.70803
 C62 C 0.97439 0.31111 0.68896
 H63 H 0.95227 0.31321 0.68857
 H64 H 1.05326 0.30392 0.69078
 C65 C 0.33039 0.01680 0.29555
 C66 C 0.32953 -0.01544 0.29438
 C67 C 0.31175 -0.03099 0.31194
 C68 C 0.29421 -0.01583 0.32982
 C69 C 0.29519 0.01642 0.33062
 C70 C 0.31297 0.03204 0.31329
 H71 H 0.31444 0.05649 0.31476
 H72 H 0.31001 -0.05538 0.31021
 C73 C 0.66767 0.01110 0.70473
 C74 C 0.66910 -0.02099 0.70416
 C75 C 0.68667 -0.03505 0.68580
 C76 C 0.70336 -0.01805 0.66841
 C77 C 0.70310 0.01402 0.67011
 C78 C 0.68504 0.02807 0.68799
 H79 H 0.68428 0.05259 0.68866
 H80 H 0.68714 -0.05956 0.68485
 C81 C 0.33126 0.98499 0.70173
 C82 C 0.33039 1.01721 0.70300
 C83 C 0.31296 1.03276 0.68516
 C84 C 0.29551 1.01752 0.66715
 C85 C 0.29654 0.98530 0.66621
 C86 C 0.31418 0.96974 0.68361
 H87 H 0.31570 0.94531 0.68202
 H88 H 0.31127 1.05714 0.68688
 C89 C 0.66670 0.98496 0.29931
 C90 C 0.66874 1.01696 0.29879
 C91 C 0.68642 1.03157 0.31679
 C92 C 0.70255 1.01532 0.33536
 C93 C 0.70180 0.98300 0.33434
 C94 C 0.68367 0.96852 0.31667
 H95 H 0.68274 0.94399 0.31648
 H96 H 0.68647 1.05610 0.31697
 O97 O 0.84373 0.89017 0.52455
 O98 O 0.88495 0.84919 0.47464
 O99 O 0.84413 0.88664 0.47259
 O100 O 0.88513 0.85252 0.52692
 O101 O 0.85667 0.81366 0.52816
 O102 O 0.81452 0.84894 0.47574
 O103 O 0.85553 0.81120 0.47632
 O104 O 0.81581 0.85080 0.52783
 Cu105 Cu 0.86744 0.87350 0.49954
 Cu106 Cu 0.83273 0.82730 0.50217
 C107 C 0.82286 0.87732 0.53471
 C108 C 0.87714 0.82321 0.46682
 C109 C 0.82215 0.87374 0.46509
 C110 C 0.87801 0.82704 0.53666
 O111 O 0.15617 0.11345 0.52665
 O112 O 0.11707 0.14768 0.47134
 O113 O 0.15906 0.11141 0.47482
 O114 O 0.11484 0.15053 0.52359
 O115 O 0.14463 0.18831 0.52522
 O116 O 0.18565 0.15196 0.47256
 O117 O 0.14351 0.18830 0.47318
 O118 O 0.18573 0.15129 0.52486
 Cu119 Cu 0.13389 0.12686 0.49908
 Cu120 Cu 0.16774 0.17390 0.49885
 C121 C 0.17792 0.12622 0.53491
 C122 C 0.12326 0.17411 0.46324
 C123 C 0.17971 0.12525 0.46524
 C124 C 0.12260 0.17581 0.53305
 O125 O 0.11811 0.85211 0.52712
 O126 O 0.15641 0.88662 0.47128
 O127 O 0.11523 0.84934 0.47464
 O128 O 0.15987 0.88874 0.52299
 O129 O 0.18677 0.84858 0.52470
 O130 O 0.14436 0.81111 0.47360
 O131 O 0.18564 0.84864 0.47238
 O132 O 0.14488 0.81187 0.52543
 Cu133 Cu 0.13446 0.87306 0.49905
 Cu134 Cu 0.16830 0.82616 0.49902
 C135 C 0.12476 0.82597 0.53549
 C136 C 0.17787 0.87380 0.46257
 C137 C 0.12248 0.82371 0.46569
 C138 C 0.18077 0.87518 0.53218
 O139 O 0.88157 0.15342 0.52731
 O140 O 0.83939 0.11233 0.47808
 O141 O 0.88031 0.15064 0.47483
 O142 O 0.84116 0.11530 0.52981
 O143 O 0.81103 0.15237 0.52743
 O144 O 0.85220 0.18967 0.47499
 O145 O 0.81159 0.15163 0.47519
 O146 O 0.85179 0.19091 0.52686
 Cu147 Cu 0.86364 0.12916 0.50253
 Cu148 Cu 0.82870 0.17495 0.50107
 C149 C 0.87368 0.17907 0.53574
 C150 C 0.81841 0.12511 0.46819
 C151 C 0.87315 0.17634 0.46573
 C152 C 0.81912 0.12758 0.53771
 O153 O 0.52255 0.84743 0.88311
 O154 O 0.47362 0.88735 0.83934
 O155 O 0.46896 0.85209 0.88135
 O156 O 0.52632 0.88339 0.84213
 O157 O 0.52311 0.84505 0.81402
 O158 O 0.46938 0.81088 0.85635
 O159 O 0.46973 0.84630 0.81437
 O160 O 0.52230 0.80870 0.85531
 Cu161 Cu 0.49792 0.87149 0.86429
 Cu162 Cu 0.49594 0.82375 0.83230
 C163 C 0.53122 0.82143 0.87637
 C164 C 0.46328 0.87348 0.81950
 C165 C 0.45982 0.82590 0.87585
 C166 C 0.53416 0.86989 0.82106
 O167 O 0.52737 0.14875 0.11636
 O168 O 0.47620 0.11120 0.15956
 O169 O 0.47359 0.14674 0.11746
 O170 O 0.52908 0.11307 0.15769
 O171 O 0.52710 0.15182 0.18543
 O172 O 0.47508 0.18781 0.14261
 O173 O 0.47378 0.15234 0.18456
 O174 O 0.52796 0.18780 0.14383
 Cu175 Cu 0.50148 0.12599 0.13497
 Cu176 Cu 0.50092 0.17393 0.16680
 C177 C 0.53674 0.17455 0.12299
 C178 C 0.46630 0.12545 0.17935
 C179 C 0.46533 0.17325 0.12290
 C180 C 0.53720 0.12645 0.17875
 O181 O 0.52404 0.10462 0.84409
 O182 O 0.47331 0.14485 0.88525
 O183 O 0.47118 0.10810 0.84475
 O184 O 0.52687 0.14126 0.88513
 O185 O 0.52729 0.18149 0.85861
 O186 O 0.47442 0.14628 0.81627
 O187 O 0.47445 0.18320 0.85681
 O188 O 0.52781 0.14485 0.81781
 Cu189 Cu 0.49873 0.12082 0.86768
 Cu190 Cu 0.50122 0.16785 0.83455
 C191 C 0.53456 0.11800 0.82402
 C192 C 0.46494 0.17079 0.87786
 C193 C 0.46354 0.12133 0.82337
 C194 C 0.53616 0.16725 0.87895
 O195 O 0.47362 0.85487 0.11507
 O196 O 0.52474 0.89271 0.15781
 O197 O 0.52733 0.85614 0.11655
 O198 O 0.47188 0.89112 0.15582
 O199 O 0.47319 0.85267 0.18415
 O200 O 0.52541 0.81562 0.14264
 O201 O 0.52656 0.85208 0.18378
 O202 O 0.47257 0.81634 0.14333
 Cu203 Cu 0.49955 0.87762 0.13345
 Cu204 Cu 0.49950 0.83025 0.16626
 C205 C 0.46398 0.82931 0.12218
 C206 C 0.53427 0.87879 0.17805
 C207 C 0.53530 0.82963 0.12262
 C208 C 0.46331 0.87803 0.17695
 O209 O 0.89077 0.53436 0.85420
 O210 O 0.85607 0.46953 0.88731
 O211 O 0.89383 0.47593 0.85031
 O212 O 0.85301 0.52818 0.89159
 O213 O 0.82214 0.53105 0.85926
 O214 O 0.86046 0.47456 0.82036
 O215 O 0.82303 0.47236 0.85724
 O216 O 0.85952 0.53313 0.82228
 Cu217 Cu 0.87665 0.50196 0.87405
 Cu218 Cu 0.83806 0.50287 0.83670
 C219 C 0.88135 0.54421 0.83207
 C220 C 0.83323 0.46033 0.87810
 C221 C 0.88393 0.46623 0.82842
 C222 C 0.83075 0.53867 0.88229
 O223 O 0.10875 0.52519 0.14960
 O224 O 0.14840 0.46908 0.11130
 O225 O 0.11114 0.46674 0.14835
 O226 O 0.14633 0.52841 0.11168
 O227 O 0.17914 0.52827 0.14209
 O228 O 0.14276 0.46927 0.17990
 O229 O 0.18020 0.46980 0.14273
 O230 O 0.14218 0.52800 0.17941
 Cu231 Cu 0.12544 0.49742 0.12701
 Cu232 Cu 0.16430 0.49894 0.16411
 C233 C 0.11872 0.53595 0.17109
 C234 C 0.17103 0.45964 0.12069
 C235 C 0.12081 0.45782 0.17066
 C236 C 0.16904 0.53851 0.12043
 O237 O 0.89427 0.47063 0.14313
 O238 O 0.85418 0.52968 0.10850
 O239 O 0.89078 0.52909 0.14623
 O240 O 0.85692 0.47107 0.10458
 O241 O 0.82480 0.46554 0.13545
 O242 O 0.85832 0.52356 0.17665
 O243 O 0.82148 0.52425 0.13865
 O244 O 0.86116 0.46520 0.17302
 Cu245 Cu 0.87734 0.50043 0.12249
 Cu246 Cu 0.83812 0.49424 0.15893
 C247 C 0.88461 0.45819 0.16412
 C248 C 0.83091 0.53704 0.11772
 C249 C 0.88036 0.53604 0.16871
 C250 C 0.83504 0.45859 0.11295
 O251 O 0.14779 0.53370 0.88822
 O252 O 0.11496 0.47141 0.85085
 O253 O 0.15117 0.47505 0.88978
 O254 O 0.11219 0.53004 0.84937
 O255 O 0.14716 0.53402 0.82139
 O256 O 0.18305 0.47370 0.85836
 O257 O 0.14706 0.47524 0.81989
 O258 O 0.18290 0.53230 0.86025
 Cu259 Cu 0.12814 0.50233 0.87258
 Cu260 Cu 0.16841 0.50395 0.83696
 C261 C 0.17129 0.54292 0.88092
 C262 C 0.12501 0.46337 0.82847
 C263 C 0.17362 0.46484 0.88076
 C264 C 0.12327 0.54166 0.82872
 C265 C 0.23510 0.37292 0.06225
 C266 C 0.26309 0.37011 0.06814
 C267 C 0.27914 0.35052 0.05283
 C268 C 0.26741 0.33365 0.03185
 C269 C 0.23904 0.33560 0.02697
 C270 C 0.22286 0.35578 0.04178
 C271 C 0.21844 0.39470 0.07746
 C272 C 0.19065 0.39839 0.07100
 C273 C 0.17508 0.41971 0.08517
 C274 C 0.18713 0.43692 0.10582
 C275 C 0.21496 0.43260 0.11217
 C276 C 0.23075 0.41173 0.09792
 C277 C 0.19490 0.35978 0.03614
 C278 C 0.17909 0.38081 0.05043
 C279 C 0.27465 0.38747 0.08880
 C280 C 0.25871 0.40784 0.10354
 H281 H 0.18523 0.34683 0.02032
 H282 H 0.15766 0.38340 0.04527
 H283 H 0.29623 0.38542 0.09353
 H284 H 0.26842 0.42090 0.11927
 H285 H 0.30097 0.34910 0.05662
 H286 H 0.22994 0.32243 0.01095
 H287 H 0.15364 0.42281 0.08023
 H288 H 0.22448 0.44587 0.12789
 C289 C 0.76540 0.62538 0.06206
 C290 C 0.73757 0.62813 0.06864
 C291 C 0.72117 0.64806 0.05389
 C292 C 0.73237 0.66523 0.03272
 C293 C 0.76057 0.66318 0.02705
 C294 C 0.77711 0.64281 0.04138
 C295 C 0.78244 0.60334 0.07672
 C296 C 0.81006 0.59981 0.06961
 C297 C 0.82598 0.57822 0.08319
 C298 C 0.81442 0.56041 0.10385
 C299 C 0.78676 0.56460 0.11090
 C300 C 0.77064 0.58586 0.09729
 C301 C 0.80493 0.63895 0.03508
 C302 C 0.82111 0.61776 0.04891
 C303 C 0.72654 0.61038 0.08944
 C304 C 0.74283 0.58967 0.10360
 H305 H 0.81419 0.65217 0.01913
 H306 H 0.84240 0.61529 0.04324
 H307 H 0.70509 0.61236 0.09470
 H308 H 0.73350 0.57630 0.11942
 H309 H 0.69945 0.64951 0.05823
 H310 H 0.76929 0.67660 0.01092
 H311 H 0.84726 0.57526 0.07767
 H312 H 0.77762 0.55096 0.12666
 C313 C 0.77033 0.36883 0.93310
 C314 C 0.74223 0.36633 0.92750
 C315 C 0.72621 0.34621 0.94251
 C316 C 0.73803 0.32855 0.96298
 C317 C 0.76655 0.32998 0.96735
 C318 C 0.78272 0.35073 0.95287
 C319 C 0.78688 0.39152 0.91854
 C320 C 0.81473 0.39513 0.92490
 C321 C 0.83011 0.41757 0.91156
 C322 C 0.81774 0.43597 0.89185
 C323 C 0.78989 0.43159 0.88552
 C324 C 0.77433 0.40966 0.89894
 C325 C 0.81077 0.35455 0.95834
 C326 C 0.82647 0.37646 0.94467
 C327 C 0.73049 0.38473 0.90760
 C328 C 0.74631 0.40594 0.89345
 H329 H 0.82056 0.34086 0.97362
 H330 H 0.84793 0.37893 0.94976
 H331 H 0.70883 0.38293 0.90311
 H332 H 0.73644 0.41986 0.87838
 H333 H 0.70428 0.34524 0.93912
 H334 H 0.77574 0.31621 0.98295
 H335 H 0.85154 0.42072 0.91651
 H336 H 0.78009 0.44575 0.87056
 C337 C 0.23014 0.63097 0.94247
 C338 C 0.25349 0.62190 0.95682
 C339 C 0.26787 0.64335 0.97191
 C340 C 0.25923 0.67367 0.97242
 C341 C 0.23625 0.68271 0.95741
 C342 C 0.22130 0.66123 0.94270
 C343 C 0.21471 0.60834 0.92688
 C344 C 0.19097 0.61718 0.91299
 C345 C 0.17629 0.59545 0.89831
 C346 C 0.18579 0.56549 0.89701
 C347 C 0.20966 0.55701 0.91078
 C348 C 0.22407 0.57829 0.92607
 C349 C 0.19759 0.66927 0.92839
 C350 C 0.18259 0.64758 0.91392
 C351 C 0.26201 0.59158 0.95579
 C352 C 0.24763 0.57017 0.94053
 H353 H 0.19049 0.69249 0.92847
 H354 H 0.16437 0.65470 0.90323
 H355 H 0.28002 0.58439 0.96677
 H356 H 0.25496 0.54704 0.94013
 H357 H 0.28578 0.63660 0.98329
 H358 H 0.22973 0.70614 0.95786
 H359 H 0.15793 0.60184 0.88747
 H360 H 0.21677 0.53379 0.90975
 C361 C 0.05784 0.23092 0.38171
 C362 C 0.05268 0.26215 0.38322
 C363 C 0.03682 0.27594 0.36324
 C364 C 0.02676 0.25885 0.34165
 C365 C 0.03260 0.22778 0.34001
 C366 C 0.04767 0.21350 0.36036
 C367 C 0.07456 0.21630 0.40265
 C368 C 0.07924 0.18496 0.40148
 C369 C 0.09495 0.17113 0.42161
 C370 C 0.10660 0.18862 0.44223
 C371 C 0.10207 0.22006 0.44289
 C372 C 0.08571 0.23397 0.42334
 C373 C 0.05297 0.18226 0.35976
 C374 C 0.06830 0.16818 0.38009
 C375 C 0.06379 0.27898 0.40447
 C376 C 0.08020 0.26516 0.42409
 H377 H 0.04512 0.16856 0.34348
 H378 H 0.07184 0.14402 0.37892
 H379 H 0.05999 0.30309 0.40580
 H380 H 0.08859 0.27900 0.44002
 H381 H 0.03264 0.30002 0.36412
 H382 H 0.02548 0.21488 0.32291
 H383 H 0.09857 0.14693 0.42100
 H384 H 0.11084 0.23351 0.45891
 C385 C 0.06365 0.76914 0.62003
 C386 C 0.06301 0.78257 0.64553
 C387 C 0.04837 0.76828 0.66622
 C388 C 0.03355 0.74157 0.66108
 C389 C 0.03437 0.72837 0.63550
 C390 C 0.04966 0.74192 0.61491
 C391 C 0.07922 0.78388 0.59827
 C392 C 0.08062 0.76991 0.57304
 C393 C 0.09593 0.78372 0.55257
 C394 C 0.10890 0.81168 0.55705
 C395 C 0.10691 0.82576 0.58219
 C396 C 0.09243 0.81166 0.60309
 C397 C 0.05119 0.72888 0.58931
 C398 C 0.06660 0.74251 0.56878
 C399 C 0.07673 0.81018 0.64967
 C400 C 0.09101 0.82460 0.62875
 H401 H 0.04051 0.70787 0.58515
 H402 H 0.06741 0.73162 0.54937
 H403 H 0.07626 0.82084 0.66919
 H404 H 0.10116 0.84597 0.63274
 H405 H 0.04760 0.77834 0.68600
 H406 H 0.02308 0.70763 0.63175
 H407 H 0.09741 0.77309 0.53306
 H408 H 0.11713 0.84726 0.58555
 C409 C 0.93916 0.75851 0.38756
 C410 C 0.93362 0.72769 0.38330
 C411 C 0.94875 0.71194 0.36407
 C412 C 0.96914 0.72682 0.34900
 C413 C 0.97414 0.75789 0.35316
 C414 C 0.95940 0.77378 0.37268
 C415 C 0.92342 0.77511 0.40795
 C416 C 0.92911 0.80587 0.41244
 C417 C 0.91405 0.82153 0.43189
 C418 C 0.89327 0.80668 0.44654
 C419 C 0.88786 0.77582 0.44170
 C420 C 0.90295 0.75990 0.42252
 C421 C 0.96448 0.80457 0.37771
 C422 C 0.94965 0.82033 0.39731
 C423 C 0.91311 0.71320 0.39839
 C424 C 0.89796 0.72907 0.41763
 H425 H 0.98011 0.81658 0.36645
 H426 H 0.95423 0.84405 0.40057
 H427 H 0.90867 0.68942 0.39526
 H428 H 0.88225 0.71708 0.42880
 H429 H 0.94492 0.68801 0.36097
 H430 H 0.98953 0.76954 0.34130
 H431 H 0.91832 0.84529 0.43541
 H432 H 0.87203 0.76413 0.45296
 C433 C 0.93731 0.24317 0.61451
 C434 C 0.95657 0.22739 0.63009
 C435 C 0.97217 0.24327 0.64906
 C436 C 0.96924 0.27484 0.65175
 C437 C 0.94956 0.29019 0.63623
 C438 C 0.93349 0.27446 0.61762
 C439 C 0.92100 0.22667 0.59440
 C440 C 0.90156 0.24243 0.57903
 C441 C 0.88602 0.22664 0.56000
 C442 C 0.89010 0.19542 0.55599
 C443 C 0.90986 0.18001 0.57143
 C444 C 0.92524 0.19551 0.59082
 C445 C 0.91392 0.28945 0.60181
 C446 C 0.89813 0.27368 0.58291
 C447 C 0.96009 0.19617 0.62609
 C448 C 0.94477 0.18052 0.60672
 H449 H 0.91079 0.31359 0.60404
 H450 H 0.88324 0.28609 0.57112
 H451 H 0.97497 0.18376 0.63790
 H452 H 0.94822 0.15648 0.60417
 H453 H 0.98708 0.23133 0.66122
 H454 H 0.94727 0.31450 0.63823
 H455 H 0.87100 0.23874 0.54810
 H456 H 0.91304 0.15596 0.56856
 C457 C 0.38921 0.06615 0.24873
 C458 C 0.36183 0.07581 0.24911
 C459 C 0.34279 0.06008 0.26502
 C460 C 0.35111 0.03518 0.28072
 C461 C 0.37901 0.02706 0.28136
 C462 C 0.39797 0.04182 0.26473
 C463 C 0.40901 0.08154 0.23096
 C464 C 0.43608 0.07095 0.22967
 C465 C 0.45465 0.08519 0.21224
 C466 C 0.44643 0.11031 0.19690
 C467 C 0.41944 0.12106 0.19869
 C468 C 0.40043 0.10638 0.21542
 C469 C 0.42534 0.03223 0.26327
 C470 C 0.44403 0.04639 0.24586
 C471 C 0.35398 0.10062 0.23317
 C472 C 0.37301 0.11582 0.21679
 H473 H 0.43227 0.01334 0.27539
 H474 H 0.46487 0.03809 0.24510
 H475 H 0.33294 0.10835 0.23335
 H476 H 0.36612 0.13488 0.20486
 H477 H 0.32140 0.06660 0.26465
 H478 H 0.38563 0.00835 0.29389
 H479 H 0.47557 0.07716 0.21090
 H480 H 0.41322 0.14040 0.18671
 C481 C 0.61078 0.05703 0.75581
 C482 C 0.60157 0.03289 0.73991
 C483 C 0.61996 0.01883 0.72241
 C484 C 0.64776 0.02752 0.72191
 C485 C 0.65663 0.05181 0.73799
 C486 C 0.63813 0.06690 0.75475
 C487 C 0.59137 0.07237 0.77380
 C488 C 0.60029 0.09735 0.78889
 C489 C 0.58150 0.11242 0.80536
 C490 C 0.55437 0.10195 0.80731
 C491 C 0.54586 0.07652 0.79263
 C492 C 0.56422 0.06188 0.77544
 C493 C 0.64642 0.09158 0.77053
 C494 C 0.62776 0.10673 0.78714
 C495 C 0.57423 0.02316 0.74197
 C496 C 0.55592 0.03725 0.75963
 H497 H 0.66747 0.09940 0.76989
 H498 H 0.63492 0.12584 0.79879
 H499 H 0.56698 0.00435 0.72998
 H500 H 0.53503 0.02897 0.76071
 H501 H 0.61279 0.00075 0.70954
 H502 H 0.67795 0.05871 0.73764
 H503 H 0.58791 0.13201 0.81684
 H504 H 0.52482 0.06875 0.79410
 C505 C 0.38845 0.93494 0.74960
 C506 C 0.36108 0.92519 0.74817
 C507 C 0.34259 0.94127 0.73202
 C508 C 0.35147 0.96655 0.71704
 C509 C 0.37938 0.97480 0.71743
 C510 C 0.39776 0.95973 0.73439
 C511 C 0.40766 0.91910 0.76758
 C512 C 0.43470 0.92975 0.76995
 C513 C 0.45270 0.91500 0.78754
 C514 C 0.44398 0.88930 0.80190
 C515 C 0.41703 0.87853 0.79905
 C516 C 0.39856 0.89372 0.78221
 C517 C 0.42508 0.96940 0.73694
 C518 C 0.44318 0.95482 0.75461
 C519 C 0.35268 0.89989 0.76326
 C520 C 0.37118 0.88424 0.77981
 H521 H 0.43242 0.98865 0.72546
 H522 H 0.46400 0.96318 0.75620
 H523 H 0.33164 0.89209 0.76226
 H524 H 0.36389 0.86478 0.79104
 H525 H 0.32120 0.93465 0.73160
 H526 H 0.38646 0.99379 0.70544
 H527 H 0.47360 0.92303 0.78970
 H528 H 0.41043 0.85876 0.81030
 C529 C 0.60979 0.93832 0.24845
 C530 C 0.63692 0.92804 0.25020
 C531 C 0.65540 0.94325 0.26700
 C532 C 0.64671 0.96810 0.28241
 C533 C 0.61905 0.97708 0.28139
 C534 C 0.60072 0.96290 0.26382
 C535 C 0.59050 0.92310 0.23014
 C536 C 0.56365 0.93414 0.22767
 C537 C 0.54551 0.91983 0.20997
 C538 C 0.55388 0.89419 0.19558
 C539 C 0.58065 0.88307 0.19847
 C540 C 0.59927 0.89781 0.21547
 C541 C 0.57362 0.97305 0.26105
 C542 C 0.55546 0.95907 0.24310
 C543 C 0.64504 0.90292 0.23495
 C544 C 0.62646 0.88789 0.21806
 H545 H 0.56648 0.99215 0.27267
 H546 H 0.53478 0.96772 0.24141
 H547 H 0.66590 0.89472 0.23618
 H548 H 0.63350 0.86849 0.20679
 H549 H 0.67661 0.93610 0.26779
 H550 H 0.61200 0.99559 0.29378
 H551 H 0.52473 0.92810 0.20779
 H552 H 0.58696 0.86331 0.18723
 C553 C 0.38292 0.23343 0.93904
 C554 C 0.37656 0.26351 0.93249
 C555 C 0.35672 0.27881 0.94747
 C556 C 0.34318 0.26438 0.96912
 C557 C 0.34947 0.23379 0.97479
 C558 C 0.36950 0.21839 0.96009
 C559 C 0.40397 0.21734 0.92348
 C560 C 0.41038 0.18723 0.93005
 C561 C 0.43048 0.17207 0.91518
 C562 C 0.44395 0.18679 0.89378
 C563 C 0.43719 0.21700 0.88751
 C564 C 0.41727 0.23239 0.90232
 C565 C 0.37634 0.18820 0.96601
 C566 C 0.39649 0.17291 0.95128
 C567 C 0.39037 0.27784 0.91122
 C568 C 0.41037 0.26252 0.89636
 H569 H 0.36611 0.17634 0.98224
 H570 H 0.40121 0.14967 0.95655
 H571 H 0.38568 0.30109 0.90599
 H572 H 0.42052 0.27439 0.88009
 H573 H 0.35275 0.30240 0.94290
 H574 H 0.33818 0.22152 0.99002
 H575 H 0.43547 0.14882 0.92014
 H576 H 0.44747 0.22862 0.87116
 C577 C 0.61313 0.76085 0.93982
 C578 C 0.62630 0.77651 0.96058
 C579 C 0.64661 0.76180 0.97556
 C580 C 0.65345 0.73124 0.97051
 C581 C 0.64006 0.71614 0.94921
 C582 C 0.61995 0.73078 0.93391
 C583 C 0.59193 0.77631 0.92382
 C584 C 0.57898 0.76070 0.90286
 C585 C 0.55906 0.77556 0.88751
 C586 C 0.55195 0.80581 0.89304
 C587 C 0.56502 0.82106 0.91430
 C588 C 0.58513 0.80644 0.92969
 C589 C 0.60641 0.71583 0.91289
 C590 C 0.58629 0.73056 0.89759
 C591 C 0.61899 0.80667 0.96585
 C592 C 0.59870 0.82135 0.95071
 H593 H 0.61144 0.69258 0.90817
 H594 H 0.57641 0.71825 0.88149
 H595 H 0.62899 0.81900 0.98187
 H596 H 0.59367 0.84460 0.95545
 H597 H 0.65773 0.77463 0.99047
 H598 H 0.64445 0.69257 0.94509
 H599 H 0.54910 0.76355 0.87127
 H600 H 0.55980 0.84436 0.91869
 C601 C 0.37914 0.77143 0.06050
 C602 C 0.36616 0.78742 0.03976
 C603 C 0.34496 0.77340 0.02539
 C604 C 0.33695 0.74326 0.03117
 C605 C 0.35034 0.72780 0.05231
 C606 C 0.37131 0.74171 0.06696
 C607 C 0.40114 0.78620 0.07598
 C608 C 0.41382 0.77027 0.09696
 C609 C 0.43444 0.78449 0.11187
 C610 C 0.44253 0.81442 0.10589
 C611 C 0.42973 0.83001 0.08461
 C612 C 0.40891 0.81602 0.06965
 C613 C 0.38465 0.72641 0.08795
 C614 C 0.40552 0.74047 0.10273
 C615 C 0.37448 0.81724 0.03398
 C616 C 0.39554 0.83127 0.04863
 H617 H 0.37881 0.70342 0.09308
 H618 H 0.41518 0.72794 0.11886
 H619 H 0.36465 0.82983 0.01799
 H620 H 0.40132 0.85429 0.04354
 H621 H 0.33398 0.78652 0.01057
 H622 H 0.34512 0.70447 0.05690
 H623 H 0.44416 0.77223 0.12814
 H624 H 0.43571 0.85308 0.07990
 C625 C 0.62011 0.23276 0.05927
 C626 C 0.63520 0.21570 0.04076
 C627 C 0.65573 0.23001 0.02561
 C628 C 0.66070 0.26128 0.02846
 C629 C 0.64537 0.27800 0.04713
 C630 C 0.62514 0.26383 0.06268
 C631 C 0.59865 0.21781 0.07543
 C632 C 0.58388 0.23481 0.09421
 C633 C 0.56371 0.22047 0.10973
 C634 C 0.55802 0.18941 0.10637
 C635 C 0.57288 0.17274 0.08723
 C636 C 0.59337 0.18681 0.07182
 C637 C 0.60977 0.28013 0.08153
 C638 C 0.58955 0.26584 0.09710
 C639 C 0.62939 0.18471 0.03775
 C640 C 0.60877 0.17053 0.05296
 H641 H 0.61346 0.30412 0.08432
 H642 H 0.57824 0.27920 0.11148
 H643 H 0.64081 0.17133 0.02346
 H644 H 0.60492 0.14661 0.04998
 H645 H 0.66777 0.21695 0.01157
 H646 H 0.64900 0.30211 0.04927
 H647 H 0.55230 0.23354 0.12428
 H648 H 0.56875 0.14880 0.08459
 C649 C 0.24366 0.06674 0.61503
 C650 C 0.26997 0.07787 0.62070
 C651 C 0.28670 0.06202 0.63873
 C652 C 0.27750 0.03484 0.65089
 C653 C 0.25033 0.02515 0.64600
 C654 C 0.23362 0.04055 0.62768
 C655 C 0.22648 0.08252 0.59512
 C656 C 0.20042 0.07094 0.58897
 C657 C 0.18448 0.08553 0.56946
 C658 C 0.19442 0.11157 0.55618
 C659 C 0.22046 0.12313 0.56293
 C660 C 0.23663 0.10858 0.58229
 C661 C 0.20725 0.02993 0.62135
 C662 C 0.19096 0.04482 0.60226
 C663 C 0.27932 0.10419 0.60764
 C664 C 0.26291 0.11933 0.58881
 H665 H 0.19930 0.00968 0.63095
 H666 H 0.17087 0.03568 0.59773
 H667 H 0.29960 0.11302 0.61185
 H668 H 0.27097 0.13943 0.57906
 H669 H 0.30747 0.06995 0.64200
 H670 H 0.24217 0.00547 0.65633
 H671 H 0.16444 0.07650 0.56453
 H672 H 0.22834 0.14310 0.55283
 C673 C 0.75080 0.06275 0.39219
 C674 C 0.73799 0.03557 0.39969
 C675 C 0.72097 0.02080 0.38128
 C676 C 0.71816 0.03162 0.35467
 C677 C 0.73101 0.05939 0.34780
 C678 C 0.74705 0.07510 0.36652
 C679 C 0.76840 0.07864 0.41164
 C680 C 0.78034 0.10651 0.40448
 C681 C 0.79658 0.12185 0.42327
 C682 C 0.80158 0.10890 0.44856
 C683 C 0.78999 0.08072 0.45530
 C684 C 0.77290 0.06570 0.43703
 C685 C 0.75968 0.10280 0.35994
 C686 C 0.77583 0.11839 0.37870
 C687 C 0.74260 0.02355 0.42543
 C688 C 0.76000 0.03820 0.44369
 H689 H 0.75694 0.11260 0.34018
 H690 H 0.78502 0.13979 0.37290
 H691 H 0.73295 0.00243 0.43137
 H692 H 0.76322 0.02804 0.46324
 H693 H 0.70973 0.00098 0.38791
 H694 H 0.72957 0.06831 0.32760
 H695 H 0.80567 0.14356 0.41817
 H696 H 0.79372 0.07100 0.47496
 C697 C 0.75423 0.93682 0.61113
 C698 C 0.75378 0.92659 0.63782
 C699 C 0.73697 0.94131 0.65642
 C700 C 0.72025 0.96562 0.64833
 C701 C 0.72002 0.97458 0.62118
 C702 C 0.73756 0.96086 0.60266
 C703 C 0.77243 0.92200 0.59164
 C704 C 0.77345 0.93281 0.56512
 C705 C 0.79083 0.91863 0.54669
 C706 C 0.80632 0.89336 0.55454
 C707 C 0.80498 0.88259 0.58103
 C708 C 0.78831 0.89715 0.59986
 C709 C 0.73897 0.97091 0.57594
 C710 C 0.75679 0.95726 0.55752
 C711 C 0.77029 0.90199 0.64538
 C712 C 0.78709 0.88734 0.62666
 H713 H 0.72635 0.98961 0.56925
 H714 H 0.75735 0.96576 0.53712
 H715 H 0.77009 0.89386 0.66590
 H716 H 0.79932 0.86828 0.63325
 H717 H 0.73714 0.93418 0.67724
 H718 H 0.70662 0.99269 0.61464
 H719 H 0.79176 0.92658 0.52611
 H720 H 0.81700 0.86304 0.58691
 C721 C 0.24281 0.93426 0.38216
 C722 C 0.26909 0.92342 0.37629
 C723 C 0.28567 0.93955 0.35825
 C724 C 0.27632 0.96668 0.34620
 C725 C 0.24916 0.97610 0.35132
 C726 C 0.23263 0.96044 0.36971
 C727 C 0.22579 0.91817 0.40209
 C728 C 0.19978 0.92949 0.40849
 C729 C 0.18403 0.91463 0.42804
 C730 C 0.19410 0.88858 0.44112
 C731 C 0.22008 0.87727 0.43410
 C732 C 0.23608 0.89210 0.41471
 C733 C 0.20630 0.97079 0.37628
 C734 C 0.19018 0.95563 0.39542
 C735 C 0.27859 0.89709 0.38914
 C736 C 0.26233 0.88165 0.40797
 H737 H 0.19824 0.99103 0.36685
 H738 H 0.17012 0.96457 0.40015
 H739 H 0.29885 0.88848 0.38476
 H740 H 0.27050 0.86156 0.41755
 H741 H 0.30643 0.93183 0.35487
 H742 H 0.24088 0.99574 0.34111
 H743 H 0.16403 0.92349 0.43320
 H744 H 0.22807 0.85731 0.44406
 C745 C 0.06650 0.37938 0.76141
 C746 C 0.04522 0.36173 0.77226
 C747 C 0.03022 0.34250 0.75534
 C748 C 0.03571 0.34191 0.72760
 C749 C 0.05739 0.35944 0.71720
 C750 C 0.07293 0.37809 0.73400
 C751 C 0.08202 0.40007 0.77893
 C752 C 0.10330 0.41764 0.76799
 C753 C 0.11770 0.43765 0.78456
 C754 C 0.11064 0.44068 0.81181
 C755 C 0.08928 0.42280 0.82251
 C756 C 0.07497 0.40230 0.80615
 C757 C 0.09443 0.39594 0.72384
 C758 C 0.10945 0.41528 0.74058
 C759 C 0.03904 0.36420 0.79969
 C760 C 0.05357 0.38424 0.81631
 H761 H 0.09959 0.39506 0.70273
 H762 H 0.12581 0.42877 0.73192
 H763 H 0.02259 0.35081 0.80829
 H764 H 0.04793 0.38570 0.83727
 H765 H 0.01376 0.32874 0.76348
 H766 H 0.06163 0.35918 0.69586
 H767 H 0.13394 0.45145 0.77605
 H768 H 0.08373 0.42493 0.84346
 C769 C 0.05847 0.61473 0.24027
 C770 C 0.06930 0.64318 0.24690
 C771 C 0.05449 0.66219 0.26405
 C772 C 0.02913 0.65277 0.27512
 C773 C 0.01978 0.62309 0.26948
 C774 C 0.03370 0.60456 0.25134
 C775 C 0.07352 0.59502 0.22162
 C776 C 0.06228 0.56686 0.21446
 C777 C 0.07671 0.54819 0.19676
 C778 C 0.10259 0.55708 0.18721
 C779 C 0.11376 0.58517 0.19471
 C780 C 0.09904 0.60454 0.21160
 C781 C 0.02324 0.57610 0.24396
 C782 C 0.03714 0.55770 0.22559
 C783 C 0.09463 0.65219 0.23605
 C784 C 0.10938 0.63306 0.21891
 H785 H 0.00400 0.56812 0.25225
 H786 H 0.02830 0.53599 0.22030
 H787 H 0.10325 0.67409 0.24103
 H788 H 0.12898 0.64072 0.21124
 H789 H 0.06233 0.68475 0.26785
 H790 H 0.00179 0.61407 0.27938
 H791 H 0.06841 0.52626 0.19126
 H792 H 0.13379 0.59185 0.18733
 C793 C 0.94326 0.37437 0.23039
 C794 C 0.93403 0.34431 0.23257
 C795 C 0.94789 0.32424 0.24967
 C796 C 0.97041 0.33426 0.26494
 C797 C 0.97859 0.36485 0.26334
 C798 C 0.96559 0.38479 0.24554
 C799 C 0.92901 0.39548 0.21219
 C800 C 0.93853 0.42542 0.20968
 C801 C 0.92462 0.44553 0.19266
 C802 C 0.90094 0.43601 0.17902
 C803 C 0.89157 0.40604 0.18172
 C804 C 0.90580 0.38548 0.19804
 C805 C 0.97449 0.41490 0.24255
 C806 C 0.96132 0.43482 0.22476
 C807 C 0.91110 0.33498 0.21766
 C808 C 0.89708 0.35528 0.20086
 H809 H 0.99184 0.42312 0.25400
 H810 H 0.96881 0.45787 0.22307
 H811 H 0.90375 0.31186 0.21921
 H812 H 0.87927 0.34727 0.19000
 H813 H 0.94131 0.30081 0.25102
 H814 H 0.99533 0.37299 0.27567
 H815 H 0.93144 0.46884 0.19086
 H816 H 0.87317 0.39893 0.17128
 C817 C 0.94028 0.63253 0.76924
 C818 C 0.93176 0.63817 0.74285
 C819 C 0.94709 0.65782 0.72671
 C820 C 0.97098 0.67220 0.73658
 C821 C 0.97845 0.66714 0.76367
 C822 C 0.96353 0.64687 0.77985
 C823 C 0.92478 0.61079 0.78590
 C824 C 0.93367 0.60436 0.81208
 C825 C 0.91924 0.58287 0.82751
 C826 C 0.89602 0.56811 0.81682
 C827 C 0.88725 0.57537 0.79067
 C828 C 0.90161 0.59645 0.77509
 C829 C 0.97157 0.64029 0.80631
 C830 C 0.95697 0.61931 0.82211
 C831 C 0.90836 0.62350 0.73283
 C832 C 0.89347 0.60307 0.74872
 H833 H 0.98951 0.65116 0.81476
 H834 H 0.96407 0.61464 0.84228
 H835 H 0.90158 0.62773 0.71247
 H836 H 0.87560 0.59211 0.74019
 H837 H 0.94107 0.66053 0.70592
 H838 H 0.99581 0.67897 0.77226
 H839 H 0.92618 0.57747 0.84760
 H840 H 0.86953 0.56411 0.78212
 C841 C 0.76342 0.61928 0.94337
 C842 C 0.75005 0.60849 0.96644
 C843 C 0.73250 0.62789 0.98051
 C844 C 0.72945 0.65834 0.97246
 C845 C 0.74315 0.66874 0.94931
 C846 C 0.75986 0.64921 0.93449
 C847 C 0.78129 0.59877 0.92804
 C848 C 0.79367 0.60921 0.90429
 C849 C 0.80994 0.58933 0.88933
 C850 C 0.81444 0.55963 0.89846
 C851 C 0.80245 0.54964 0.92256
 C852 C 0.78542 0.56903 0.93726
 C853 C 0.77299 0.65899 0.91092
 C854 C 0.78942 0.63925 0.89595
 C855 C 0.75454 0.57853 0.97495
 C856 C 0.77210 0.55922 0.96073
 H857 H 0.77034 0.68202 0.90385
 H858 H 0.79894 0.64760 0.87774
 H859 H 0.74450 0.57000 0.99282
 H860 H 0.77505 0.53631 0.96802
 H861 H 0.72143 0.61943 0.99781
 H862 H 0.74078 0.69207 0.94289
 H863 H 0.81925 0.59689 0.87073
 H864 H 0.80577 0.52658 0.92935
 C865 C 0.23827 0.38088 0.94160
 C866 C 0.24881 0.38961 0.96656
 C867 C 0.26566 0.36951 0.98080
 C868 C 0.27066 0.33991 0.97119
 C869 C 0.25982 0.33185 0.94584
 C870 C 0.24399 0.35228 0.93091
 C871 C 0.22116 0.40221 0.92619
 C872 C 0.21165 0.39393 0.90064
 C873 C 0.19605 0.41464 0.88575
 C874 C 0.18928 0.44291 0.89668
 C875 C 0.19844 0.45071 0.92248
 C876 C 0.21485 0.43059 0.93719
 C877 C 0.23371 0.34459 0.90550
 C878 C 0.21802 0.36517 0.89051
 C879 C 0.24233 0.41834 0.97678
 C880 C 0.22541 0.43836 0.96246
 H881 H 0.23803 0.32257 0.89701
 H882 H 0.21073 0.35846 0.87088
 H883 H 0.25021 0.42530 0.99612
 H884 H 0.22079 0.46022 0.97113
 H885 H 0.27529 0.37736 0.99904
 H886 H 0.26292 0.30930 0.93793
 H887 H 0.18893 0.40876 0.86583
 H888 H 0.19345 0.47274 0.93066
 C889 C 0.23040 0.62837 0.06159
 C890 C 0.25780 0.63378 0.06857
 C891 C 0.27306 0.65500 0.05390
 C892 C 0.26125 0.67111 0.03222
 C893 C 0.23331 0.66580 0.02614
 C894 C 0.21798 0.64420 0.04045
 C895 C 0.21443 0.60563 0.07672
 C896 C 0.18706 0.59989 0.06961
 C897 C 0.17210 0.57790 0.08391
 C898 C 0.18435 0.56201 0.10533
 C899 C 0.21177 0.56833 0.11224
 C900 C 0.22692 0.58996 0.09796
 C901 C 0.19046 0.63810 0.03405
 C902 C 0.17530 0.61625 0.04831
 C903 C 0.26958 0.61760 0.08993
 C904 C 0.25437 0.59610 0.10442
 H905 H 0.18062 0.65016 0.01774
 H906 H 0.15420 0.61213 0.04261
 H907 H 0.29073 0.62158 0.09550
 H908 H 0.26423 0.58411 0.12076
 H909 H 0.29453 0.65790 0.05879
 H910 H 0.22315 0.67905 0.01083
 H911 H 0.15101 0.57327 0.07848
 H912 H 0.22150 0.55614 0.12855
 C913 C 0.77100 0.37430 0.05214
 C914 C 0.76524 0.34562 0.06295
 C915 C 0.74851 0.32558 0.04858
 C916 C 0.73688 0.33408 0.02366
 C917 C 0.74195 0.36376 0.01398
 C918 C 0.75964 0.38348 0.02762
 C919 C 0.78877 0.39538 0.06709
 C920 C 0.79481 0.42398 0.05612
 C921 C 0.81136 0.44413 0.07068
 C922 C 0.82081 0.43613 0.09636
 C923 C 0.81459 0.40747 0.10712
 C924 C 0.79887 0.38678 0.09237
 C925 C 0.76606 0.41231 0.01729
 C926 C 0.78356 0.43211 0.03118
 C927 C 0.77632 0.33753 0.08798
 C928 C 0.79264 0.35787 0.10255
 H929 H 0.75756 0.41958 -0.00174
 H930 H 0.78797 0.45412 0.02252
 H931 H 0.77202 0.31544 0.09654
 H932 H 0.80042 0.35093 0.12196
 H933 H 0.74520 0.30300 0.05657
 H934 H 0.73171 0.37196 -0.00385
 H935 H 0.81585 0.46646 0.06266
 H936 H 0.82186 0.40146 0.12698
 C937 C 0.94158 0.76961 0.61972
 C938 C 0.96411 0.78478 0.63090
 C939 C 0.97918 0.77066 0.65138
 C940 C 0.97232 0.74118 0.66039
 C941 C 0.94932 0.72661 0.64886
 C942 C 0.93399 0.74063 0.62864
 C943 C 0.92546 0.78443 0.59841
 C944 C 0.90280 0.76925 0.58745
 C945 C 0.88744 0.78341 0.56732
 C946 C 0.89458 0.81255 0.55800
 C947 C 0.91746 0.82746 0.56918
 C948 C 0.93295 0.81349 0.58947
 C949 C 0.91126 0.72611 0.61709
 C950 C 0.89590 0.74020 0.59685
 C951 C 0.97099 0.81387 0.62148
 C952 C 0.95572 0.82795 0.60108
 H953 H 0.90524 0.70369 0.62378
 H954 H 0.87846 0.72826 0.58852
 H955 H 0.98837 0.82583 0.62991
 H956 H 0.96175 0.85036 0.59438
 H957 H 0.99545 0.78326 0.66096
 H958 H 0.94380 0.70379 0.65492
 H959 H 0.86995 0.77164 0.55889
 H960 H 0.92314 0.84989 0.56220
 C961 C 0.93536 0.23369 0.38163
 C962 C 0.95118 0.21585 0.36433
 C963 C 0.96604 0.22995 0.34370
 C964 C 0.96594 0.26167 0.34100
 C965 C 0.94983 0.27922 0.35837
 C966 C 0.93435 0.26531 0.37867
 C967 C 0.91950 0.21897 0.40322
 C968 C 0.90320 0.23674 0.42014
 C969 C 0.88791 0.22260 0.44045
 C970 C 0.88928 0.19100 0.44421
 C971 C 0.90598 0.17355 0.42725
 C972 C 0.92093 0.18741 0.40651
 C973 C 0.91799 0.28236 0.39614
 C974 C 0.90256 0.26830 0.41644
 C975 C 0.95192 0.18431 0.36808
 C976 C 0.93717 0.17035 0.38892
 H977 H 0.91703 0.30676 0.39406
 H978 H 0.89012 0.28226 0.42942
 H979 H 0.96414 0.17033 0.35492
 H980 H 0.93839 0.14598 0.39121
 H981 H 0.97758 0.21634 0.32973
 H982 H 0.94961 0.30366 0.35618
 H983 H 0.87523 0.23620 0.45353
 H984 H 0.90700 0.14921 0.42992
 C985 C 0.06068 0.23999 0.61209
 C986 C 0.06968 0.24014 0.63879
 C987 C 0.05485 0.25644 0.65796
 C988 C 0.03114 0.27296 0.65071
 C989 C 0.02318 0.27327 0.62341
 C990 C 0.03744 0.25636 0.60424
 C991 C 0.07613 0.22272 0.59188
 C992 C 0.06701 0.22245 0.56515
 C993 C 0.08193 0.20618 0.54597
 C994 C 0.10600 0.19096 0.55342
 C995 C 0.11498 0.19148 0.58017
 C996 C 0.09993 0.20715 0.59961
 C997 C 0.02900 0.25565 0.57730
 C998 C 0.04344 0.23884 0.55812
 C999 C 0.09336 0.22391 0.64583
 C1000 C 0.10831 0.20784 0.62654
 H1001 H 0.01102 0.26813 0.57100
 H1002 H 0.03624 0.23889 0.53757
 H1003 H 0.10053 0.22383 0.66639
 H1004 H 0.12660 0.19587 0.63276
 H1005 H 0.06138 0.25539 0.67871
 H1006 H 0.00634 0.28731 0.61678
 H1007 H 0.07531 0.20593 0.52521
 H1008 H 0.13364 0.17976 0.58572
 C1009 C 0.05988 0.75872 0.38746
 C1010 C 0.06429 0.76449 0.36008
 C1011 C 0.04953 0.74786 0.34098
 C1012 C 0.03037 0.72585 0.34918
 C1013 C 0.02647 0.72003 0.37669
 C1014 C 0.04109 0.73653 0.39595
 C1015 C 0.07537 0.77610 0.40763
 C1016 C 0.07120 0.77006 0.43502
 C1017 C 0.08643 0.78623 0.45409
 C1018 C 0.10546 0.80825 0.44580
 C1019 C 0.10925 0.81436 0.41840
 C1020 C 0.09427 0.79821 0.39914
 C1021 C 0.03730 0.73132 0.42351
 C1022 C 0.05214 0.74777 0.44272
 C1023 C 0.08329 0.78685 0.35238
 C1024 C 0.09802 0.80343 0.37157
 H1025 H 0.02281 0.71431 0.43029
 H1026 H 0.04872 0.74294 0.46377
 H1027 H 0.08684 0.79153 0.33132
 H1028 H 0.11254 0.82040 0.36478
 H1029 H 0.05253 0.75229 0.31979
 H1030 H 0.01193 0.70280 0.38298
 H1031 H 0.08377 0.78154 0.47530
 H1032 H 0.12415 0.83124 0.41219
 C1033 C 0.61594 0.92759 0.75527
 C1034 C 0.61733 0.92059 0.72786
 C1035 C 0.63552 0.93676 0.71140
 C1036 C 0.65227 0.95967 0.72222
 C1037 C 0.65162 0.96532 0.74999
 C1038 C 0.63302 0.94983 0.76651
 C1039 C 0.59573 0.91190 0.77238
 C1040 C 0.59353 0.91987 0.79951
 C1041 C 0.57354 0.90574 0.81543
 C1042 C 0.55605 0.88357 0.80447
 C1043 C 0.55899 0.87534 0.77736
 C1044 C 0.57860 0.88971 0.76113
 C1045 C 0.63059 0.95675 0.79387
 C1046 C 0.61108 0.94212 0.81007
 C1047 C 0.59998 0.89812 0.71737
 C1048 C 0.58104 0.88282 0.73376
 H1049 H 0.64356 0.97396 0.80273
 H1050 H 0.60960 0.94842 0.83099
 H1051 H 0.60089 0.89247 0.69627
 H1052 H 0.56793 0.86578 0.72484
 H1053 H 0.63594 0.93236 0.69003
 H1054 H 0.66478 0.98264 0.75844
 H1055 H 0.57154 0.91207 0.83632
 H1056 H 0.54551 0.85842 0.76873
 C1057 C 0.38217 0.93633 0.24257
 C1058 C 0.36908 0.96248 0.23308
 C1059 C 0.35045 0.97749 0.24973
 C1060 C 0.34582 0.96751 0.27633
 C1061 C 0.35843 0.94036 0.28498
 C1062 C 0.37667 0.92486 0.26828
 C1063 C 0.40240 0.92095 0.22545
 C1064 C 0.41560 0.89487 0.23503
 C1065 C 0.43520 0.88065 0.21889
 C1066 C 0.44188 0.89255 0.19346
 C1067 C 0.42828 0.91867 0.18411
 C1068 C 0.40846 0.93291 0.20001
 C1069 C 0.39012 0.89855 0.27708
 C1070 C 0.40920 0.88376 0.26071
 C1071 C 0.37531 0.97349 0.20732
 C1072 C 0.39475 0.95901 0.19110
 H1073 H 0.38604 0.88945 0.29689
 H1074 H 0.41923 0.86364 0.26833
 H1075 H 0.36539 0.99372 0.19979
 H1076 H 0.39920 0.96844 0.17149
 H1077 H 0.33977 0.99715 0.24201
 H1078 H 0.35543 0.93219 0.30529
 H1079 H 0.44555 0.86063 0.22634
 H1080 H 0.43317 0.92797 0.16454
 C1081 C 0.61648 0.06757 0.24634
 C1082 C 0.63311 0.04470 0.23565
 C1083 C 0.65136 0.02935 0.25258
 C1084 C 0.65211 0.03582 0.28020
 C1085 C 0.63572 0.05925 0.29046
 C1086 C 0.61792 0.07528 0.27359
 C1087 C 0.59676 0.08328 0.22880
 C1088 C 0.58016 0.10618 0.23949
 C1089 C 0.56115 0.12075 0.22283
 C1090 C 0.55828 0.11211 0.19582
 C1091 C 0.57512 0.08911 0.18542
 C1092 C 0.59453 0.07475 0.20180
 C1093 C 0.60106 0.09838 0.28354
 C1094 C 0.58259 0.11368 0.26674
 C1095 C 0.63063 0.03714 0.20843
 C1096 C 0.61157 0.05181 0.19181
 H1097 H 0.60202 0.10456 0.30452
 H1098 H 0.56988 0.13127 0.27523
 H1099 H 0.64325 0.01943 0.19998
 H1100 H 0.61009 0.04506 0.17100
 H1101 H 0.66422 0.01159 0.24455
 H1102 H 0.63618 0.06427 0.31172
 H1103 H 0.54813 0.13826 0.23104
 H1104 H 0.57313 0.08242 0.16462
 C1105 C 0.38230 0.06487 0.75614
 C1106 C 0.36863 0.03883 0.76526
 C1107 C 0.35015 0.02410 0.74817
 C1108 C 0.34626 0.03422 0.72151
 C1109 C 0.35932 0.06134 0.71326
 C1110 C 0.37745 0.07656 0.73039
 C1111 C 0.40250 0.07985 0.77369
 C1112 C 0.41636 0.10576 0.76445
 C1113 C 0.43598 0.11954 0.78097
 C1114 C 0.44201 0.10738 0.80646
 C1115 C 0.42773 0.08146 0.81546
 C1116 C 0.40792 0.06764 0.79916
 C1117 C 0.39151 0.10273 0.72196
 C1118 C 0.41058 0.11712 0.73872
 C1119 C 0.37422 0.02758 0.79108
 C1120 C 0.39361 0.04168 0.80771
 H1121 H 0.38794 0.11199 0.70212
 H1122 H 0.42112 0.13711 0.73136
 H1123 H 0.36384 0.00742 0.79832
 H1124 H 0.39756 0.03206 0.82734
 H1125 H 0.33910 0.00445 0.75555
 H1126 H 0.35682 0.06964 0.69293
 H1127 H 0.44686 0.13941 0.77379
 H1128 H 0.43212 0.07194 0.83505
 C1129 C 0.61591 0.76758 0.05998
 C1130 C 0.60849 0.74091 0.04650
 C1131 C 0.62827 0.72555 0.03147
 C1132 C 0.65534 0.73643 0.03030
 C1133 C 0.66267 0.76279 0.04438
 C1134 C 0.64286 0.77880 0.05892
 C1135 C 0.59511 0.78396 0.07565
 C1136 C 0.60233 0.81103 0.08864
 C1137 C 0.58239 0.82654 0.10348
 C1138 C 0.55584 0.81448 0.10597
 C1139 C 0.54897 0.78726 0.09309
 C1140 C 0.56845 0.77209 0.07752
 C1141 C 0.64936 0.80582 0.07232
 C1142 C 0.62939 0.82178 0.08677
 C1143 C 0.58148 0.73006 0.04845
 C1144 C 0.56185 0.74527 0.06387
 H1145 H 0.67003 0.81477 0.07157
 H1146 H 0.63525 0.84256 0.09677
 H1147 H 0.57554 0.70951 0.03815
 H1148 H 0.54131 0.73599 0.06506
 H1149 H 0.62279 0.70506 0.02079
 H1150 H 0.68358 0.77108 0.04342
 H1151 H 0.58762 0.84743 0.11366
 H1152 H 0.52841 0.77814 0.09503
 C1153 C 0.38338 0.23196 0.05894
 C1154 C 0.35688 0.21953 0.05754
 C1155 C 0.33664 0.23482 0.04283
 C1156 C 0.34320 0.26157 0.02882
 C1157 C 0.36984 0.27359 0.03021
 C1158 C 0.38998 0.25905 0.04555
 C1159 C 0.40456 0.21647 0.07496
 C1160 C 0.43068 0.22963 0.07730
 C1161 C 0.45047 0.21532 0.09324
 C1162 C 0.44449 0.18765 0.10597
 C1163 C 0.41850 0.17431 0.10299
 C1164 C 0.39820 0.18896 0.08782
 C1165 C 0.41650 0.27118 0.04794
 C1166 C 0.43645 0.25684 0.06374
 C1167 C 0.35125 0.19209 0.07082
 C1168 C 0.37162 0.17693 0.08552
 H1169 H 0.42180 0.29209 0.03773
 H1170 H 0.45657 0.26711 0.06528
 H1171 H 0.33095 0.18218 0.06977
 H1172 H 0.36644 0.15579 0.09540
 H1173 H 0.31603 0.22570 0.04170
 H1174 H 0.37468 0.29440 0.01960
 H1175 H 0.47061 0.22543 0.09554
 H1176 H 0.41393 0.15308 0.11306
 C1177 C 0.61912 0.22686 0.94085
 C1178 C 0.64624 0.21635 0.93985
 C1179 C 0.66673 0.23219 0.95376
 C1180 C 0.66001 0.25790 0.96892
 C1181 C 0.63275 0.26798 0.96995
 C1182 C 0.61220 0.25264 0.95578
 C1183 C 0.59764 0.21085 0.92563
 C1184 C 0.57074 0.22206 0.92584
 C1185 C 0.55061 0.20742 0.91054
 C1186 C 0.55718 0.18148 0.89571
 C1187 C 0.58399 0.17002 0.89612
 C1188 C 0.60449 0.18493 0.91083
 C1189 C 0.58495 0.26275 0.95596
 C1190 C 0.56459 0.24781 0.94112
 C1191 C 0.65229 0.19033 0.92486
 C1192 C 0.63175 0.17480 0.91070
 H1193 H 0.57937 0.28258 0.96745
 H1194 H 0.54388 0.25654 0.94156
 H1195 H 0.67310 0.18194 0.92401
 H1196 H 0.63731 0.15488 0.89934
 H1197 H 0.68778 0.22452 0.95305
 H1198 H 0.62772 0.28794 0.98152
 H1199 H 0.52985 0.21610 0.91013
 H1200 H 0.58896 0.15014 0.88441
 C1201 C 0.37486 0.77253 0.94009
 C1202 C 0.37950 0.74439 0.95248
 C1203 C 0.35888 0.73156 0.96843
 C1204 C 0.33362 0.74634 0.97146
 C1205 C 0.32887 0.77404 0.95829
 C1206 C 0.34974 0.78762 0.94301
 C1207 C 0.39671 0.78639 0.92371
 C1208 C 0.39248 0.81502 0.91207
 C1209 C 0.41352 0.82827 0.89680
 C1210 C 0.43809 0.81251 0.89245
 C1211 C 0.44188 0.78369 0.90388
 C1212 C 0.42141 0.77072 0.91996
 C1213 C 0.34614 0.81606 0.93079
 C1214 C 0.36724 0.82965 0.91578
 C1215 C 0.40463 0.72963 0.94861
 C1216 C 0.42515 0.74246 0.93244
 H1217 H 0.32693 0.82801 0.93298
 H1218 H 0.36370 0.85168 0.90683
 H1219 H 0.40839 0.70788 0.95802
 H1220 H 0.44417 0.73024 0.92981
 H1221 H 0.36229 0.71003 0.97838
 H1222 H 0.30931 0.78528 0.96067
 H1223 H 0.41063 0.85042 0.88779
 H1224 H 0.46096 0.77173 0.90062
 C1225 C 0.75455 0.93160 0.38560
 C1226 C 0.76592 0.95401 0.36889
 C1227 C 0.74890 0.96943 0.35082
 C1228 C 0.72053 0.96353 0.35035
 C1229 C 0.70963 0.94032 0.36661
 C1230 C 0.72658 0.92426 0.38429
 C1231 C 0.77212 0.91610 0.40537
 C1232 C 0.76071 0.89380 0.42215
 C1233 C 0.77736 0.87955 0.44127
 C1234 C 0.80509 0.88790 0.44403
 C1235 C 0.81621 0.91029 0.42699
 C1236 C 0.79983 0.92435 0.40750
 C1237 C 0.71596 0.90165 0.40126
 C1238 C 0.73277 0.88657 0.41979
 C1239 C 0.79387 0.96120 0.37122
 C1240 C 0.81052 0.94671 0.39028
 H1241 H 0.69442 0.89575 0.40039
 H1242 H 0.72373 0.86940 0.43263
 H1243 H 0.80285 0.97852 0.35851
 H1244 H 0.83189 0.95320 0.39167
 H1245 H 0.75738 0.98704 0.33806
 H1246 H 0.68781 0.93571 0.36629
 H1247 H 0.76858 0.86250 0.45442
 H1248 H 0.83756 0.91674 0.42889
 C1249 C 0.24966 0.93582 0.60822
 C1250 C 0.26612 0.96014 0.59969
 C1251 C 0.28263 0.97516 0.61844
 C1252 C 0.28152 0.96713 0.64580
 C1253 C 0.26529 0.94232 0.65391
 C1254 C 0.24944 0.92645 0.63516
 C1255 C 0.23208 0.92009 0.58864
 C1256 C 0.21604 0.89533 0.59706
 C1257 C 0.19947 0.88034 0.57830
 C1258 C 0.19840 0.89060 0.55163
 C1259 C 0.21424 0.91562 0.54351
 C1260 C 0.23146 0.93026 0.56191
 C1261 C 0.23300 0.90172 0.64285
 C1262 C 0.21674 0.88628 0.62408
 C1263 C 0.26528 0.96936 0.57271
 C1264 C 0.24808 0.95481 0.55418
 H1265 H 0.23269 0.89426 0.66356
 H1266 H 0.20440 0.86731 0.63084
 H1267 H 0.27775 0.98822 0.56593
 H1268 H 0.24784 0.96281 0.53362
 H1269 H 0.29553 0.99385 0.61201
 H1270 H 0.26452 0.93593 0.67491
 H1271 H 0.18707 0.86112 0.58443
 H1272 H 0.21338 0.92331 0.52286
 C1273 C 0.24843 0.06546 0.38877
 C1274 C 0.26508 0.04139 0.39723
 C1275 C 0.28155 0.02657 0.37841
 C1276 C 0.28022 0.03450 0.35105
 C1277 C 0.26383 0.05911 0.34299
 C1278 C 0.24800 0.07481 0.36182
 C1279 C 0.23086 0.08096 0.40844
 C1280 C 0.21465 0.10550 0.40010
 C1281 C 0.19810 0.12027 0.41895
 C1282 C 0.19720 0.10998 0.44562
 C1283 C 0.21322 0.08517 0.45364
 C1284 C 0.23044 0.07078 0.43516
 C1285 C 0.23140 0.09933 0.35422
 C1286 C 0.21518 0.11457 0.37307
 C1287 C 0.26446 0.03219 0.42422
 C1288 C 0.24728 0.04649 0.44283
 H1289 H 0.23094 0.10679 0.33351
 H1290 H 0.20272 0.13340 0.36637
 H1291 H 0.27710 0.01352 0.43095
 H1292 H 0.24722 0.03851 0.46339
 H1293 H 0.29459 0.00807 0.38480
 H1294 H 0.26290 0.06545 0.32199
 H1295 H 0.18561 0.13937 0.41288
 H1296 H 0.21255 0.07748 0.47431
 C1297 C 0.75380 0.06624 0.61722
 C1298 C 0.72583 0.07311 0.61939
 C1299 C 0.70954 0.05657 0.63739
 C1300 C 0.72109 0.03341 0.65318
 C1301 C 0.74943 0.02774 0.65163
 C1302 C 0.76578 0.04367 0.63326
 C1303 C 0.77074 0.08258 0.59740
 C1304 C 0.79848 0.07495 0.59454
 C1305 C 0.81429 0.08993 0.57510
 C1306 C 0.80261 0.11261 0.55880
 C1307 C 0.77485 0.12030 0.56226
 C1308 C 0.75875 0.10514 0.58136
 C1309 C 0.79371 0.03701 0.63012
 C1310 C 0.80977 0.05231 0.61101
 C1311 C 0.71459 0.09591 0.60309
 C1312 C 0.73080 0.11175 0.58448
 H1313 H 0.80316 0.01956 0.64229
 H1314 H 0.83116 0.04626 0.60903
 H1315 H 0.69304 0.10143 0.60461
 H1316 H 0.72131 0.12908 0.57220
 H1317 H 0.68774 0.06096 0.63851
 H1318 H 0.75845 0.01021 0.66404
 H1319 H 0.83567 0.08395 0.57266
 H1320 H 0.76564 0.13755 0.54968
 C1321 C 0.93695 0.61923 0.23802
 C1322 C 0.93087 0.61907 0.26552
 C1323 C 0.94606 0.63757 0.28276
 C1324 C 0.96709 0.65629 0.27269
 C1325 C 0.97209 0.65729 0.24487
 C1326 C 0.95746 0.63822 0.22749
 C1327 C 0.92194 0.59863 0.22002
 C1328 C 0.92870 0.59786 0.19267
 C1329 C 0.91489 0.57751 0.17580
 C1330 C 0.89426 0.55834 0.18613
 C1331 C 0.88748 0.55983 0.21353
 C1332 C 0.90142 0.57971 0.23061
 C1333 C 0.96336 0.63717 0.19994
 C1334 C 0.94931 0.61723 0.18284
 C1335 C 0.91015 0.59991 0.27535
 C1336 C 0.89556 0.58066 0.25815
 H1337 H 0.97922 0.65158 0.19159
 H1338 H 0.95470 0.61689 0.16178
 H1339 H 0.90526 0.59966 0.29654
 H1340 H 0.87980 0.56614 0.26655
 H1341 H 0.94216 0.63673 0.30415
 H1342 H 0.98808 0.67193 0.23703
 H1343 H 0.92019 0.57656 0.15472
 H1344 H 0.87181 0.54501 0.22172
 C1345 C 0.94507 0.38662 0.76058
 C1346 C 0.93617 0.35662 0.75715
 C1347 C 0.95098 0.33741 0.74022
 C1348 C 0.97411 0.34820 0.72621
 C1349 C 0.98217 0.37869 0.72922
 C1350 C 0.96816 0.39777 0.74693
 C1351 C 0.92971 0.40684 0.77856
 C1352 C 0.93898 0.43666 0.78248
 C1353 C 0.92424 0.45581 0.79956
 C1354 C 0.90004 0.44550 0.81187
 C1355 C 0.89084 0.41573 0.80763
 C1356 C 0.90588 0.39608 0.79126
 C1357 C 0.97676 0.42775 0.75128
 C1358 C 0.96254 0.44679 0.76893
 C1359 C 0.91257 0.34649 0.77064
 C1360 C 0.89754 0.36597 0.78722
 H1361 H 0.99468 0.43653 0.74104
 H1362 H 0.96988 0.46974 0.77176
 H1363 H 0.90549 0.32339 0.76814
 H1364 H 0.87929 0.35736 0.79701
 H1365 H 0.94456 0.31404 0.73791
 H1366 H 0.99946 0.38745 0.71795
 H1367 H 0.93107 0.47891 0.80274
 H1368 H 0.87216 0.40793 0.81722
 C1369 C 0.06300 0.62732 0.76557
 C1370 C 0.04117 0.61708 0.74964
 C1371 C 0.02663 0.63798 0.73402
 C1372 C 0.03278 0.66914 0.73535
 C1373 C 0.05492 0.67900 0.75124
 C1374 C 0.07027 0.65811 0.76624
 C1375 C 0.07855 0.60536 0.78184
 C1376 C 0.10094 0.61542 0.79718
 C1377 C 0.11586 0.59432 0.81237
 C1378 C 0.10793 0.56371 0.81272
 C1379 C 0.08531 0.55400 0.79759
 C1380 C 0.07071 0.57471 0.78178
 C1381 C 0.09263 0.66736 0.78201
 C1382 C 0.10783 0.64634 0.79706
 C1383 C 0.03415 0.58621 0.74986
 C1384 C 0.04854 0.56541 0.76582
 H1385 H 0.09849 0.69103 0.78265
 H1386 H 0.12500 0.65440 0.80884
 H1387 H 0.01722 0.57810 0.73776
 H1388 H 0.04235 0.54182 0.76555
 H1389 H 0.01011 0.63014 0.72125
 H1390 H 0.05996 0.70291 0.75208
 H1391 H 0.13330 0.60164 0.82419
 H1392 H 0.07943 0.53029 0.79786
 C1393 C 0.06258 0.36884 0.23320
 C1394 C 0.04209 0.35113 0.22113
 C1395 C 0.02719 0.33049 0.23691
 C1396 C 0.03200 0.32852 0.26472
 C1397 C 0.05300 0.34602 0.27632
 C1398 C 0.06840 0.36614 0.26067
 C1399 C 0.07788 0.39110 0.21693
 C1400 C 0.09834 0.40876 0.22908
 C1401 C 0.11261 0.43013 0.21365
 C1402 C 0.10625 0.43431 0.18635
 C1403 C 0.08562 0.41644 0.17445
 C1404 C 0.07146 0.39463 0.18966
 C1405 C 0.08908 0.38413 0.27208
 C1406 C 0.10388 0.40501 0.25652
 C1407 C 0.03649 0.35500 0.19370
 C1408 C 0.05086 0.37647 0.17825
 H1409 H 0.09374 0.38219 0.29326
 H1410 H 0.11960 0.41855 0.26611
 H1411 H 0.02065 0.34159 0.18416
 H1412 H 0.04572 0.37894 0.15722
 H1413 H 0.01122 0.31680 0.22787
 H1414 H 0.05669 0.34470 0.29773
 H1415 H 0.12826 0.44395 0.22306
 H1416 H 0.08064 0.41945 0.15343
   
