data_POSCAR
  _audit_creation_date              2014-09-24
  _audit_creation_method            'ToBaCCo'
  _symmetry_space_group_name_H-M    'P1'
  _symmetry_Int_Tables_number       1
  _symmetry_cell_setting            triclinic
  loop_
  _symmetry_equiv_pos_as_xyz
 x,y,z
_cell_length_a 85.4833
_cell_length_b 85.3889
_cell_length_c 85.5243
_cell_angle_alpha 90.004500
_cell_angle_beta 90.027800
_cell_angle_gamma 89.992400
loop_
  _atom_site_label
  _atom_site_type_symbol
  _atom_site_fract_x
  _atom_site_fract_y
  _atom_site_fract_z
C1 C 0.30400 0.43382 0.92173
 C2 C 0.30365 0.42240 0.93352
 C3 C 0.31422 0.42314 0.94572
 C4 C 0.32536 0.43516 0.94625
 C5 C 0.32572 0.44637 0.93469
 C6 C 0.31491 0.44575 0.92234
 C7 C 0.29556 0.43576 0.90816
 N8 N 0.30100 0.44865 0.90052
 C9 C 0.31288 0.45478 0.90919
 C10 C 0.33839 0.45585 0.93763
 N11 N 0.34598 0.45063 0.95072
 C12 C 0.33779 0.43796 0.95603
 C13 C 0.31169 0.41030 0.95505
 N14 N 0.29986 0.40165 0.94883
 C15 C 0.29487 0.40904 0.93563
 H16 H 0.28640 0.42806 0.90404
 H17 H 0.31957 0.46513 0.90628
 H18 H 0.34205 0.46532 0.93011
 H19 H 0.34058 0.43086 0.96610
 H20 H 0.31811 0.40751 0.96560
 H21 H 0.28589 0.40479 0.92779
 C22 C 0.43490 0.82864 0.44514
 C23 C 0.42351 0.81679 0.44507
 C24 C 0.42424 0.80494 0.43408
 C25 C 0.43630 0.80477 0.42299
 C26 C 0.44751 0.81639 0.42311
 C27 C 0.44678 0.82841 0.43425
 C28 C 0.43676 0.84204 0.45390
 N29 N 0.44951 0.85013 0.44859
 C30 C 0.45562 0.84164 0.43651
 C31 C 0.45718 0.81383 0.41053
 N32 N 0.45205 0.80098 0.40263
 C33 C 0.43927 0.79536 0.41027
 C34 C 0.41146 0.79545 0.43636
 N35 N 0.40289 0.80122 0.44846
 C36 C 0.41022 0.81432 0.45383
 H37 H 0.42887 0.84569 0.46306
 H38 H 0.46583 0.84458 0.42967
 H39 H 0.46708 0.82103 0.40731
 H40 H 0.43214 0.78559 0.40650
 H41 H 0.40871 0.78506 0.42966
 H42 H 0.40602 0.82181 0.46312
 C43 C 0.91560 0.90494 0.82264
 C44 C 0.90403 0.91661 0.82254
 C45 C 0.90426 0.92832 0.83368
 C46 C 0.91602 0.92849 0.84515
 C47 C 0.92733 0.91698 0.84528
 C48 C 0.92718 0.90516 0.83386
 C49 C 0.91887 0.89276 0.81264
 N50 N 0.93230 0.88547 0.81736
 C51 C 0.93732 0.89312 0.83049
 C52 C 0.93750 0.92043 0.85727
 N53 N 0.93276 0.93387 0.86455
 C54 C 0.91952 0.93878 0.85703
 C55 C 0.89224 0.93846 0.83021
 N56 N 0.88464 0.93321 0.81723
 C57 C 0.89183 0.91978 0.81252
 H58 H 0.91217 0.89012 0.80226
 H59 H 0.94763 0.89039 0.83727
 H60 H 0.94792 0.91377 0.85989
 H61 H 0.91263 0.94900 0.85987
 H62 H 0.88966 0.94920 0.83641
 H63 H 0.88856 0.91280 0.80249
 C64 C 0.43327 -0.07866 0.30542
 C65 C 0.42105 -0.06770 0.30591
 C66 C 0.42043 -0.05678 0.31782
 C67 C 0.43208 -0.05661 0.32938
 C68 C 0.44414 -0.06736 0.32883
 C69 C 0.44469 -0.07849 0.31679
 C70 C 0.43633 -0.09119 0.29579
 N71 N 0.44936 -0.09886 0.30103
 C72 C 0.45450 -0.09090 0.31392
 C73 C 0.45341 -0.06483 0.34172
 N74 N 0.44729 -0.05280 0.35016
 C75 C 0.43420 -0.04772 0.34264
 C76 C 0.40707 -0.04806 0.31565
 N77 N 0.39954 -0.05339 0.30268
 C78 C 0.40807 -0.06542 0.29667
 H79 H 0.42897 -0.09466 0.28612
 H80 H 0.46456 -0.09376 0.32101
 H81 H 0.46389 -0.07131 0.34465
 H82 H 0.42649 -0.03852 0.34669
 H83 H 0.40298 -0.03879 0.32324
 H84 H 0.40516 -0.07205 0.28629
 C85 C 0.80360 0.31362 0.32701
 C86 C 0.80431 0.32605 0.31632
 C87 C 0.81608 0.32654 0.30527
 C88 C 0.82731 0.31457 0.30471
 C89 C 0.82652 0.30225 0.31515
 C90 C 0.81459 0.30179 0.32639
 C91 C 0.79428 0.31083 0.33982
 N92 N 0.79935 0.29758 0.34707
 C93 C 0.81173 0.29195 0.33880
 C94 C 0.83933 0.29289 0.31252
 N95 N 0.84800 0.29922 0.30076
 C96 C 0.84064 0.31250 0.29591
 C97 C 0.81421 0.34019 0.29693
 N98 N 0.80153 0.34799 0.30259
 C99 C 0.79545 0.33937 0.31450
 H100 H 0.78505 0.31843 0.34398
 H101 H 0.81849 0.28164 0.34171
 H102 H 0.84216 0.28232 0.31889
 H103 H 0.84495 0.32049 0.28709
 H104 H 0.82179 0.34427 0.28765
 H105 H 0.78524 0.34243 0.32132
 C106 C -0.16810 0.84511 0.81938
 C107 C -0.15660 0.83339 0.81923
 C108 C -0.15746 0.82107 0.82967
 C109 C -0.16979 0.82035 0.84049
 C110 C -0.18103 0.83191 0.84064
 C111 C -0.18023 0.84433 0.82995
 C112 C -0.17079 0.85790 0.80998
 N113 N -0.18441 0.86498 0.81446
 C114 C -0.19011 0.85662 0.82683
 C115 C -0.19177 0.82801 0.85191
 N116 N -0.18744 0.81426 0.85886
 C117 C -0.17389 0.80958 0.85174
 C118 C -0.14529 0.81108 0.82629
 N119 N -0.13700 0.81702 0.81406
 C120 C -0.14389 0.83073 0.80974
 H121 H -0.16358 0.86113 0.80012
 H122 H -0.20071 0.85903 0.83327
 H123 H -0.20215 0.83477 0.85439
 H124 H -0.16719 0.79920 0.85440
 H125 H -0.14306 0.80000 0.83202
 H126 H -0.14006 0.83828 0.80034
 C127 C 0.94750 0.32695 0.43691
 C128 C 0.94723 0.31583 0.42482
 C129 C 0.93542 0.30480 0.42420
 C130 C 0.92375 0.30466 0.43574
 C131 C 0.92413 0.31554 0.44769
 C132 C 0.93606 0.32680 0.44822
 C133 C 0.95685 0.33974 0.43975
 N134 N 0.95137 0.34761 0.45256
 C135 C 0.93861 0.33949 0.45777
 C136 C 0.91111 0.31309 0.45679
 N137 N 0.90271 0.30101 0.45067
 C138 C 0.91044 0.29580 0.43776
 C139 C 0.93772 0.29606 0.41087
 N140 N 0.95069 0.30147 0.40337
 C141 C 0.95654 0.31358 0.41191
 H142 H 0.96651 0.34319 0.43239
 H143 H 0.93127 0.34251 0.46758
 H144 H 0.90804 0.31972 0.46712
 H145 H 0.90647 0.28658 0.43004
 H146 H 0.93018 0.28675 0.40676
 H147 H 0.96686 0.32033 0.40903
 C148 C 0.44525 0.43470 0.82621
 C149 C 0.44465 0.42238 0.81536
 C150 C 0.43272 0.42180 0.80445
 C151 C 0.42127 0.43356 0.80418
 C152 C 0.42197 0.44573 0.81479
 C153 C 0.43401 0.44625 0.82591
 C154 C 0.45477 0.43766 0.83885
 N155 N 0.44956 0.45075 0.84646
 C156 C 0.43683 0.45604 0.83835
 C157 C 0.40908 0.45502 0.81230
 N158 N 0.40046 0.44879 0.80045
 C159 C 0.40791 0.43562 0.79543
 C160 C 0.43469 0.40829 0.79592
 N161 N 0.44757 0.40063 0.80131
 C162 C 0.45370 0.40922 0.81324
 H163 H 0.46429 0.43017 0.84244
 H164 H 0.42974 0.46611 0.84116
 H165 H 0.40625 0.46555 0.81875
 H166 H 0.40371 0.42776 0.78644
 H167 H 0.42701 0.40418 0.78674
 H168 H 0.46403 0.40622 0.81991
 C169 C 0.81902 0.90850 0.91831
 C170 C 0.81965 0.91958 0.90623
 C171 C 0.83175 0.93028 0.90570
 C172 C 0.84336 0.93008 0.91728
 C173 C 0.84270 0.91922 0.92917
 C174 C 0.83044 0.90831 0.92967
 C175 C 0.80839 0.89703 0.92201
 N176 N 0.81298 0.88968 0.93545
 C177 C 0.82657 0.89672 0.94013
 C178 C 0.85488 0.92236 0.93917
 N179 N 0.86303 0.93501 0.93376
 C180 C 0.85592 0.93965 0.92022
 C181 C 0.82902 0.93999 0.89317
 N182 N 0.81551 0.93549 0.88607
 C183 C 0.80973 0.92298 0.89404
 H184 H 0.79792 0.89468 0.91534
 H185 H 0.83346 0.89378 0.95030
 H186 H 0.85732 0.91576 0.94967
 H187 H 0.85897 0.94971 0.91319
 H188 H 0.83637 0.94966 0.88957
 H189 H 0.79881 0.91706 0.89156
 C190 C 0.30534 0.82733 0.31533
 C191 C 0.30461 0.81507 0.32623
 C192 C 0.31517 0.80286 0.32536
 C193 C 0.32668 0.80278 0.31371
 C194 C 0.32750 0.81492 0.30308
 C195 C 0.31669 0.82727 0.30388
 C196 C 0.29688 0.84090 0.31357
 N197 N 0.30270 0.84924 0.30123
 C198 C 0.31495 0.84080 0.29536
 C199 C 0.34052 0.81238 0.29395
 N200 N 0.34767 0.79898 0.29881
 C201 C 0.33914 0.79302 0.31085
 C202 C 0.31238 0.79317 0.33789
 N203 N 0.30042 0.79922 0.34648
 C204 C 0.29557 0.81261 0.33933
 H205 H 0.28738 0.84434 0.32115
 H206 H 0.32217 0.84390 0.28548
 H207 H 0.34485 0.82018 0.28497
 H208 H 0.34187 0.78250 0.31734
 H209 H 0.31882 0.78261 0.34061
 H210 H 0.28662 0.82044 0.34369
 C211 C 0.80434 0.42388 0.43515
 C212 C 0.80444 0.43528 0.42333
 C213 C 0.81528 0.44727 0.42378
 C214 C 0.82622 0.44800 0.43597
 C215 C 0.82615 0.43682 0.44757
 C216 C 0.81510 0.42468 0.44720
 C217 C 0.79564 0.41051 0.43738
 N218 N 0.80081 0.40316 0.45053
 C219 C 0.81273 0.41182 0.45658
 C220 C 0.83871 0.43984 0.45716
 N221 N 0.84664 0.45262 0.45167
 C222 C 0.83880 0.45764 0.43867
 C223 C 0.81315 0.45619 0.41058
 N224 N 0.80128 0.44992 0.40203
 C225 C 0.79590 0.43709 0.40980
 H226 H 0.78655 0.40625 0.42967
 H227 H 0.81928 0.40903 0.46704
 H228 H 0.84196 0.43261 0.46699
 H229 H 0.84194 0.46736 0.43124
 H230 H 0.81982 0.46650 0.40748
 H231 H 0.78678 0.42931 0.40573
 C232 C 0.91837 0.84346 -0.07154
 C233 C 0.90744 0.83119 -0.07125
 C234 C 0.90772 0.81991 -0.08281
 C235 C 0.91886 0.82067 -0.09477
 C236 C 0.92954 0.83273 -0.09512
 C237 C 0.92930 0.84423 -0.08342
 C238 C 0.92145 0.85560 -0.06144
 N239 N 0.93398 0.86381 -0.06689
 C240 C 0.93877 0.85689 -0.08040
 C241 C 0.93936 0.82998 -0.10756
 N242 N 0.93497 0.81643 -0.11486
 C243 C 0.92227 0.81082 -0.10696
 C244 C 0.89627 0.80918 -0.07942
 N245 N 0.88887 0.81366 -0.06609
 C246 C 0.89569 0.82714 -0.06099
 H247 H 0.91533 0.85786 -0.05060
 H248 H 0.94849 0.86063 -0.08757
 H249 H 0.94932 0.83720 -0.11046
 H250 H 0.91578 0.80029 -0.10957
 H251 H 0.89380 0.79868 -0.08605
 H252 H 0.89232 0.83364 -0.05067
 C253 C 0.30339 0.32804 0.81574
 C254 C 0.30287 0.31599 0.82687
 C255 C 0.31450 0.30476 0.82722
 C256 C 0.32678 0.30536 0.81635
 C257 C 0.32733 0.31727 0.80543
 C258 C 0.31556 0.32872 0.80514
 C259 C 0.29413 0.34097 0.81324
 N260 N 0.30038 0.34956 0.80138
 C261 C 0.31350 0.34208 0.79637
 C262 C 0.34077 0.31524 0.79684
 N263 N 0.34841 0.30231 0.80217
 C264 C 0.33986 0.29624 0.81416
 C265 C 0.31161 0.29527 0.83991
 N266 N 0.29850 0.30045 0.84732
 C267 C 0.29306 0.31309 0.83927
 H268 H 0.28365 0.34389 0.81970
 H269 H 0.32135 0.34627 0.78737
 H270 H 0.34480 0.32290 0.78760
 H271 H 0.34278 0.28586 0.82079
 H272 H 0.31902 0.28578 0.84383
 H273 H 0.28286 0.31995 0.84228
 C274 C 0.17188 0.56634 0.55456
 C275 C 0.18331 0.57811 0.55489
 C276 C 0.19519 0.57756 0.56586
 C277 C 0.19576 0.56525 0.57673
 C278 C 0.18455 0.55361 0.57631
 C279 C 0.17255 0.55415 0.56516
 C280 C 0.15850 0.56432 0.54582
 N281 N 0.15100 0.55120 0.55087
 C282 C 0.15961 0.54492 0.56269
 C283 C 0.18732 0.54381 0.58875
 N284 N 0.19987 0.54926 0.59691
 C285 C 0.20513 0.56237 0.58952
 C286 C 0.20427 0.59068 0.56371
 N287 N 0.19822 0.59925 0.55172
 C288 C 0.18533 0.59160 0.54634
 H289 H 0.15427 0.57220 0.53686
 H290 H 0.15668 0.53444 0.56918
 H291 H 0.18042 0.53363 0.59174
 H292 H 0.21457 0.56979 0.59353
 H293 H 0.21462 0.59361 0.57039
 H294 H 0.17769 0.59565 0.53710
 C295 C 0.59436 0.66609 0.07094
 C296 C 0.58286 0.65438 0.07119
 C297 C 0.57106 0.65487 0.08223
 C298 C 0.57060 0.66708 0.09320
 C299 C 0.58191 0.67863 0.09291
 C300 C 0.59386 0.67814 0.08171
 C301 C 0.60678 0.66897 0.06113
 N302 N 0.61385 0.68250 0.06567
 C303 C 0.60599 0.68814 0.07830
 C304 C 0.57831 0.68917 0.10452
 N305 N 0.56513 0.68428 0.11198
 C306 C 0.56034 0.67075 0.10505
 C307 C 0.56111 0.64260 0.07912
 N308 N 0.56654 0.63467 0.06643
 C309 C 0.57991 0.64181 0.06158
 H310 H 0.61031 0.66175 0.05135
 H311 H 0.60852 0.69903 0.08426
 H312 H 0.58473 0.69978 0.10708
 H313 H 0.55024 0.66391 0.10842
 H314 H 0.55033 0.64010 0.08527
 H315 H 0.58693 0.63830 0.05166
 C316 C 0.68352 0.19754 0.67309
 C317 C 0.67251 0.19813 0.68523
 C318 C 0.67353 0.18768 0.69752
 C319 C 0.68544 0.17641 0.69779
 C320 C 0.69623 0.17575 0.68580
 C321 C 0.69530 0.18645 0.67339
 C322 C 0.68509 0.20584 0.65939
 N323 N 0.69761 0.20014 0.65137
 C324 C 0.70388 0.18824 0.65990
 C325 C 0.70551 0.16284 0.68844
 N326 N 0.70059 0.15561 0.70174
 C327 C 0.68835 0.16397 0.70755
 C328 C 0.66087 0.19027 0.70707
 N329 N 0.65206 0.20200 0.70087
 C330 C 0.65918 0.20690 0.68751
 H331 H 0.67741 0.21510 0.65544
 H332 H 0.71402 0.18139 0.65668
 H333 H 0.71461 0.15859 0.68074
 H334 H 0.68174 0.16107 0.71794
 H335 H 0.65822 0.18385 0.71765
 H336 H 0.65468 0.21570 0.67959
 C337 C 1.07899 0.06819 0.19362
 C338 C 1.06775 0.08016 0.19356
 C339 C 1.05580 0.07995 0.18268
 C340 C 1.05497 0.06784 0.17163
 C341 C 1.06599 0.05607 0.17169
 C342 C 1.07808 0.05621 0.18279
 C343 C 1.09217 0.06561 0.20249
 N344 N 1.09931 0.05232 0.19737
 C345 C 1.09069 0.04652 0.18529
 C346 C 1.06276 0.04644 0.15921
 N347 N 1.05002 0.05207 0.15134
 C348 C 1.04522 0.06521 0.15912
 C349 C 1.04690 0.09315 0.18506
 N350 N 1.05315 0.10145 0.19712
 C351 C 1.06594 0.09353 0.20236
 H352 H 1.09642 0.07316 0.21172
 H353 H 1.09329 0.03598 0.17877
 H354 H 1.06982 0.03648 0.15592
 H355 H 1.03545 0.07262 0.15608
 H356 H 1.03657 0.09635 0.17848
 H357 H 1.07365 0.09735 0.21165
 C358 C 0.06669 0.17204 1.05708
 C359 C 0.07895 0.18293 1.05749
 C360 C 0.07959 0.19399 1.06927
 C361 C 0.06792 0.19433 1.08081
 C362 C 0.05586 0.18364 1.08039
 C363 C 0.05521 0.17242 1.06842
 C364 C 0.06362 0.15942 1.04757
 N365 N 0.05051 0.15207 1.05283
 C366 C 0.04528 0.16007 1.06557
 C367 C 0.04670 0.18625 1.09332
 N368 N 0.05281 0.19838 1.10178
 C369 C 0.06586 0.20334 1.09399
 C370 C 0.09300 0.20262 1.06699
 N371 N 0.10050 0.19710 1.05408
 C372 C 0.09192 0.18503 1.04823
 H373 H 0.07085 0.15554 1.03793
 H374 H 0.03510 0.15708 1.07246
 H375 H 0.03627 0.17966 1.09606
 H376 H 0.07381 0.21244 1.09771
 H377 H 0.09712 0.21198 1.07446
 H378 H 0.09478 0.17828 1.03792
 C379 C 0.17411 0.69722 0.68372
 C380 C 0.18536 0.69657 0.67181
 C381 C 0.19704 0.68539 0.67231
 C382 C 0.19759 0.67461 0.68468
 C383 C 0.18655 0.67531 0.69645
 C384 C 0.17476 0.68672 0.69598
 C385 C 0.16093 0.70624 0.68579
 N386 N 0.15350 0.70147 0.69904
 C387 C 0.16198 0.68953 0.70533
 C388 C 0.18921 0.66282 0.70624
 N389 N 0.20152 0.65440 0.70066
 C390 C 0.20675 0.66165 0.68748
 C391 C 0.20595 0.68721 0.65904
 N392 N 0.19997 0.69921 0.65042
 C393 C 0.18730 0.70493 0.65820
 H394 H 0.15676 0.71518 0.67785
 H395 H 0.15907 0.68318 0.71588
 H396 H 0.18238 0.65996 0.71649
 H397 H 0.21599 0.65740 0.67995
 H398 H 0.21611 0.68030 0.65604
 H399 H 0.17973 0.71424 0.65417
 C400 C 1.18400 0.17195 0.19481
 C401 C 1.17229 0.18344 0.19464
 C402 C 1.17157 0.19410 0.18252
 C403 C 1.18266 0.19349 0.17044
 C404 C 1.19415 0.18215 0.17058
 C405 C 1.19482 0.17125 0.18284
 C406 C 1.18690 0.15953 0.20461
 N407 N 1.19916 0.15115 0.19886
 C408 C 1.20409 0.15834 0.18554
 C409 C 1.20292 0.18409 0.15725
 N410 N 1.19716 0.19644 0.14887
 C411 C 1.18465 0.20214 0.15703
 C412 C 1.15851 0.20323 0.18494
 N413 N 1.15125 0.19834 0.19823
 C414 C 1.15971 0.18625 0.20424
 H415 H 1.18034 0.15675 0.21506
 H416 H 1.21330 0.15416 0.17793
 H417 H 1.21293 0.17698 0.15426
 H418 H 1.17710 0.21166 0.15355
 H419 H 1.15432 0.21233 0.17720
 H420 H 1.15692 0.17981 0.21476
 C421 C 0.67466 1.05351 0.56297
 C422 C 0.68640 1.05342 0.57443
 C423 C 0.69697 1.06561 0.57526
 C424 C 0.69604 1.07801 0.56455
 C425 C 0.68454 1.07811 0.55325
 C426 C 0.67368 1.06579 0.55248
 C427 C 0.66213 1.04382 0.56021
 N428 N 0.65343 1.04991 0.54834
 C429 C 0.66051 1.06335 0.54353
 C430 C 0.68618 1.09180 0.54493
 N431 N 0.69847 1.10016 0.55085
 C432 C 0.70445 1.09161 0.56297
 C433 C 0.70616 1.06311 0.58823
 N434 N 0.70143 1.04967 0.59536
 C435 C 0.68937 1.04366 0.58686
 H436 H 0.65947 1.03322 0.56661
 H437 H 0.65606 1.07123 0.53467
 H438 H 0.67852 1.09537 0.53553
 H439 H 0.71437 1.09469 0.57016
 H440 H 0.71508 1.07098 0.59255
 H441 H 0.68293 1.03311 0.58961
 C442 C 0.57261 0.56056 0.16490
 C443 C 0.58305 0.55945 0.17753
 C444 C 0.58213 0.57008 0.18966
 C445 C 0.57092 0.58204 0.18932
 C446 C 0.56077 0.58328 0.17683
 C447 C 0.56158 0.57241 0.16455
 C448 C 0.57049 0.55169 0.15163
 N449 N 0.55841 0.55780 0.14324
 C450 C 0.55299 0.57057 0.15107
 C451 C 0.55156 0.59625 0.17945
 N452 N 0.55588 0.60293 0.19326
 C453 C 0.56772 0.59418 0.19935
 C454 C 0.59387 0.56659 0.20004
 N455 N 0.60213 0.55416 0.19450
 C456 C 0.59548 0.54967 0.18073
 H457 H 0.57699 0.54124 0.14862
 H458 H 0.54348 0.57804 0.14732
 H459 H 0.54267 0.60068 0.17161
 H460 H 0.57362 0.59635 0.21032
 H461 H 0.59622 0.57282 0.21080
 H462 H 0.59967 0.54037 0.17323
 C463 C 0.66449 0.67431 0.18498
 C464 C 0.67687 0.66353 0.18549
 C465 C 0.68794 0.66342 0.17374
 C466 C 0.68677 0.67400 0.16127
 C467 C 0.67451 0.68453 0.16070
 C468 C 0.66330 0.68468 0.17265
 C469 C 0.65227 0.67738 0.19496
 N470 N 0.64358 0.68935 0.18900
 C471 C 0.65031 0.69379 0.17526
 C472 C 0.67645 0.69343 0.14743
 N473 N 0.68960 0.68856 0.13992
 C474 C 0.69595 0.67663 0.14834
 C475 C 0.69840 0.65167 0.17709
 N476 N 0.69390 0.64446 0.19054
 C477 C 0.68074 0.65175 0.19578
 H478 H 0.65019 0.67150 0.20597
 H479 H 0.64611 0.70292 0.16757
 H480 H 0.66877 0.70272 0.14354
 H481 H 0.70669 0.67055 0.14554
 H482 H 0.70852 0.64864 0.17013
 H483 H 0.67410 0.64845 0.20603
 C484 C 0.17264 0.06515 1.05381
 C485 C 0.18373 0.07725 1.05439
 C486 C 0.19548 0.07693 1.06550
 C487 C 0.19628 0.06454 1.07625
 C488 C 0.18541 0.05259 1.07559
 C489 C 0.17354 0.05288 1.06429
 C490 C 0.15938 0.06286 1.04494
 N491 N 0.15218 0.04951 1.04982
 C492 C 0.16087 0.04334 1.06164
 C493 C 0.18829 0.04276 1.08798
 N494 N 0.20057 0.04849 1.09634
 C495 C 0.20557 0.06180 1.08913
 C496 C 0.20420 0.09033 1.06361
 N497 N 0.19807 0.09882 1.05161
 C498 C 0.18548 0.09086 1.04597
 H499 H 0.15500 0.07074 1.03605
 H500 H 0.15816 0.03275 1.06804
 H501 H 0.18165 0.03237 1.09081
 H502 H 0.21475 0.06944 1.09335
 H503 H 0.21438 0.09352 1.07043
 H504 H 0.17787 0.09478 1.03664
 C505 C 0.57745 0.19677 0.56570
 C506 C 0.56512 0.19742 0.57652
 C507 C 0.55318 0.18655 0.57577
 C508 C 0.55343 0.17481 0.56431
 C509 C 0.56563 0.17405 0.55377
 C510 C 0.57772 0.18516 0.55443
 C511 C 0.59083 0.20554 0.56386
 N512 N 0.59926 0.19956 0.55174
 C513 C 0.59128 0.18703 0.54598
 C514 C 0.56331 0.16090 0.54474
 N515 N 0.54999 0.15362 0.54957
 C516 C 0.54388 0.16217 0.56153
 C517 C 0.54340 0.18929 0.58821
 N518 N 0.54914 0.20149 0.59670
 C519 C 0.56241 0.20658 0.58952
 H520 H 0.59405 0.21562 0.57081
 H521 H 0.59516 0.17954 0.53654
 H522 H 0.57114 0.15663 0.53576
 H523 H 0.53333 0.15938 0.56793
 H524 H 0.53302 0.18261 0.59098
 H525 H 0.57003 0.21574 0.59380
 C526 C 0.07563 0.56544 0.69714
 C527 C 0.06380 0.57680 0.69733
 C528 C 0.05286 0.57732 0.68545
 C529 C 0.05356 0.56638 0.67322
 C530 C 0.06529 0.55524 0.67298
 C531 C 0.07643 0.55478 0.68502
 C532 C 0.08834 0.56287 0.70664
 N533 N 0.09694 0.55091 0.70059
 C534 C 0.08966 0.54589 0.68735
 C535 C 0.06353 0.54673 0.65943
 N536 N 0.05094 0.55233 0.65144
 C537 C 0.04482 0.56439 0.65987
 C538 C 0.04370 0.59034 0.68796
 N539 N 0.04884 0.59779 0.70107
 C540 C 0.06108 0.58944 0.70690
 H541 H 0.09113 0.56940 0.71711
 H542 H 0.09396 0.53686 0.67958
 H543 H 0.07118 0.53741 0.65558
 H544 H 0.03467 0.57125 0.65668
 H545 H 0.03454 0.59452 0.68029
 H546 H 0.06785 0.59247 0.71715
 C547 C 0.65950 0.56615 0.07778
 C548 C 0.67101 0.56599 0.08944
 C549 C 0.68208 0.57776 0.09009
 C550 C 0.68181 0.58988 0.07900
 C551 C 0.67050 0.58996 0.06744
 C552 C 0.65926 0.57803 0.06684
 C553 C 0.64733 0.55620 0.07434
 N554 N 0.63968 0.56172 0.06152
 C555 C 0.64699 0.57508 0.05686
 C556 C 0.67330 0.60271 0.05807
 N557 N 0.68605 0.61047 0.06361
 C558 C 0.69131 0.60265 0.07646
 C559 C 0.69195 0.57433 0.10235
 N560 N 0.68718 0.56071 0.10912
 C561 C 0.67435 0.55558 0.10122
 H562 H 0.64419 0.54583 0.08090
 H563 H 0.64383 0.58208 0.04680
 H564 H 0.66676 0.60579 0.04768
 H565 H 0.70130 0.60595 0.08349
 H566 H 0.70183 0.58133 0.10604
 H567 H 0.66808 0.54482 0.10351
 C568 C 0.06631 0.69760 0.57522
 C569 C 0.07838 0.69689 0.56416
 C570 C 0.07914 0.68452 0.55377
 C571 C 0.06771 0.67273 0.55422
 C572 C 0.05578 0.67346 0.56509
 C573 C 0.05512 0.68595 0.57574
 C574 C 0.06342 0.70760 0.58747
 N575 N 0.05083 0.70225 0.59562
 C576 C 0.04566 0.68901 0.58840
 C577 C 0.04670 0.66031 0.56313
 N578 N 0.05281 0.65154 0.55132
 C579 C 0.06573 0.65910 0.54587
 C580 C 0.09256 0.68643 0.54508
 N581 N 0.10000 0.69965 0.54996
 C582 C 0.09132 0.70611 0.56163
 H583 H 0.07029 0.71784 0.59035
 H584 H 0.03621 0.68163 0.59246
 H585 H 0.03632 0.65749 0.56979
 H586 H 0.07339 0.65489 0.53673
 H587 H 0.09684 0.67842 0.53626
 H588 H 0.09419 0.71670 0.56795
 C589 C 0.56412 1.05398 0.67290
 C590 C 0.57570 1.05411 0.68454
 C591 C 0.57520 1.06520 0.69630
 C592 C 0.56316 1.07638 0.69654
 C593 C 0.55185 1.07624 0.68508
 C594 C 0.55231 1.06495 0.67320
 C595 C 0.56202 1.04507 0.65966
 N596 N 0.54916 1.05036 0.65173
 C597 C 0.54324 1.06259 0.66016
 C598 C 0.54232 1.08895 0.68758
 N599 N 0.54754 1.09707 0.70033
 C600 C 0.56033 1.08920 0.70586
 C601 C 0.58822 1.06300 0.70549
 N602 N 0.59672 1.05088 0.69959
 C603 C 0.58907 1.04539 0.68674
 H604 H 0.56981 1.03581 0.65601
 H605 H 0.53305 1.06949 0.65731
 H606 H 0.53244 1.09191 0.68029
 H607 H 0.56771 1.09272 0.71550
 H608 H 0.59124 1.06984 0.71570
 H609 H 0.59315 1.03611 0.67916
 C610 C 0.44642 0.32519 0.93464
 C611 C 0.44597 0.31371 0.92292
 C612 C 0.43463 0.30220 0.92328
 C613 C 0.42351 0.30205 0.93533
 C614 C 0.42399 0.31335 0.94688
 C615 C 0.43557 0.32499 0.94653
 C616 C 0.45559 0.33823 0.93674
 N617 N 0.45062 0.34620 0.94968
 C618 C 0.43829 0.33795 0.95567
 C619 C 0.41129 0.31095 0.95645
 N620 N 0.40297 0.29852 0.95094
 C621 C 0.41046 0.29301 0.93802
 C622 C 0.43660 0.29314 0.91013
 N623 N 0.44883 0.29890 0.90170
 C624 C 0.45457 0.31154 0.90952
 H625 H 0.46510 0.34148 0.92910
 H626 H 0.43121 0.34118 0.96562
 H627 H 0.40827 0.31795 0.96654
 H628 H 0.40638 0.28356 0.93063
 H629 H 0.42954 0.28310 0.90700
 H630 H 0.46399 0.31902 0.90557
 C631 C 0.94683 0.43631 0.32725
 C632 C 0.94733 0.42475 0.31562
 C633 C 0.93564 0.42397 0.30449
 C634 C 0.92330 0.43479 0.30481
 C635 C 0.92282 0.44616 0.31630
 C636 C 0.93469 0.44689 0.32763
 C637 C 0.95613 0.43923 0.34002
 N638 N 0.95002 0.45143 0.34837
 C639 C 0.93682 0.45613 0.34063
 C640 C 0.90924 0.45455 0.31415
 N641 N 0.90147 0.44860 0.30158
 C642 C 0.91006 0.43648 0.29583
 C643 C 0.93859 0.41103 0.29537
 N644 N 0.95180 0.40390 0.30068
 C645 C 0.95723 0.41233 0.31305
 H646 H 0.96636 0.43242 0.34298
 H647 H 0.92896 0.46541 0.34407
 H648 H 0.90516 0.46401 0.32151
 H649 H 0.90700 0.42939 0.28581
 H650 H 0.93121 0.40677 0.28600
 H651 H 0.96752 0.40958 0.31989
 C652 C 0.30740 0.93200 0.41939
 C653 C 0.30730 0.92079 0.43139
 C654 C 0.31849 0.92137 0.44303
 C655 C 0.32998 0.93309 0.44281
 C656 C 0.33008 0.94406 0.43100
 C657 C 0.31865 0.94355 0.41923
 C658 C 0.29824 0.93406 0.40633
 N659 N 0.30357 0.94669 0.39807
 C660 C 0.31615 0.95247 0.40608
 C661 C 0.34291 0.95350 0.43337
 N662 N 0.35080 0.94856 0.44638
 C663 C 0.34273 0.93601 0.45215
 C664 C 0.31593 0.90880 0.45275
 N665 N 0.30350 0.90048 0.44727
 C666 C 0.29816 0.90782 0.43418
 H667 H 0.28832 0.92680 0.40340
 H668 H 0.32346 0.96218 0.40260
 H669 H 0.34605 0.96318 0.42588
 H670 H 0.34592 0.92893 0.46212
 H671 H 0.32274 0.90596 0.46303
 H672 H 0.28866 0.90378 0.42685
 O673 O 0.24846 0.54246 0.72974
 O674 O 0.27587 0.53650 0.73055
 O675 O 0.22904 0.50146 0.70858
 O676 O 0.22900 0.47560 0.71312
 O677 O 0.20806 0.52131 0.74932
 O678 O 0.21405 0.51993 0.77674
 O679 O 0.26954 0.45977 0.75127
 O680 O 0.26643 0.46405 0.72399
 O681 O 0.29053 0.49934 0.76960
 O682 O 0.28532 0.52784 0.76812
 O683 O 0.25105 0.48107 0.79097
 O684 O 0.22273 0.48231 0.78572
 O685 O 0.25124 0.46026 0.77052
 O686 O 0.22237 0.46577 0.76879
 O687 O 0.27030 0.49939 0.79042
 O688 O 0.26850 0.52827 0.78471
 O689 O 0.29031 0.48034 0.75100
 O690 O 0.28481 0.48220 0.72275
 O691 O 0.22989 0.54265 0.74880
 O692 O 0.23188 0.53714 0.77647
 O693 O 0.20750 0.50222 0.73078
 O694 O 0.21336 0.47413 0.73357
 O695 O 0.24799 0.52016 0.70802
 O696 O 0.27563 0.51877 0.71351
 Zr697 Zr 0.25781 0.51960 0.73063
 O698 O 0.27296 0.50588 0.74440
 Zr699 Zr 0.23008 0.49230 0.73137
 O700 O 0.24416 0.47723 0.74493
 Zr701 Zr 0.23081 0.52009 0.75857
 O702 O 0.24463 0.50624 0.77353
 Zr703 Zr 0.26792 0.48205 0.74092
 O704 O 0.25387 0.49571 0.72574
 Zr705 Zr 0.26834 0.50979 0.76820
 O706 O 0.25455 0.52508 0.75442
 Zr707 Zr 0.24071 0.48244 0.76871
 O708 O 0.22530 0.49633 0.75517
 O709 O 0.23420 0.51598 0.73490
 O710 O 0.26444 0.48601 0.76468
 C711 C 0.23756 0.54921 0.73765
 C712 C 0.23684 0.51230 0.70164
 C713 C 0.20114 0.51348 0.73850
 C714 C 0.26232 0.45355 0.76289
 C715 C 0.29690 0.48790 0.76220
 C716 C 0.26268 0.48831 0.79715
 H717 H 0.28392 0.50842 0.74177
 H718 H 0.24225 0.50886 0.78453
 H719 H 0.22752 0.52266 0.72820
 H720 H 0.24173 0.46619 0.74248
 H721 H 0.26126 0.46865 0.71469
 H722 H 0.23517 0.46639 0.71647
 H723 H 0.25980 0.52650 0.79212
 H724 H 0.24223 0.54225 0.77555
 H725 H 0.29167 0.49141 0.72419
 H726 H 0.27492 0.50833 0.70854
 H727 H 0.22383 0.49192 0.79208
 H728 H 0.20883 0.50959 0.77630
 H729 H 0.27575 0.54148 0.74100
 H730 H 0.29185 0.52652 0.75866
 H731 H 0.20764 0.47598 0.74346
 H732 H 0.22419 0.45839 0.76006
 O733 O 0.24849 0.04072 0.22929
 O734 O 0.27601 0.03516 0.23046
 O735 O 0.23007 -0.00035 0.20736
 O736 O 0.23040 -0.02630 0.21166
 O737 O 0.20799 0.01859 0.24805
 O738 O 0.21376 0.01707 0.27555
 O739 O 0.27063 -0.04175 0.25032
 O740 O 0.26762 -0.03738 0.22295
 O741 O 0.29077 -0.00220 0.26916
 O742 O 0.28499 0.02633 0.26783
 O743 O 0.25148 -0.02153 0.28968
 O744 O 0.22291 -0.02023 0.28424
 O745 O 0.25178 -0.04198 0.26902
 O746 O 0.22302 -0.03679 0.26728
 O747 O 0.27004 -0.00250 0.28982
 O748 O 0.26814 0.02623 0.28435
 O749 O 0.29068 -0.02132 0.25068
 O750 O 0.28579 -0.01882 0.22212
 O751 O 0.22960 0.04040 0.24803
 O752 O 0.23120 0.03462 0.27565
 O753 O 0.20832 0.00009 0.22892
 O754 O 0.21424 -0.02802 0.23183
 O755 O 0.24865 0.01873 0.20731
 O756 O 0.27623 0.01766 0.21315
 Zr757 Zr 0.25818 0.01801 0.23004
 O758 O 0.27335 0.00435 0.24385
 Zr759 Zr 0.23088 -0.00973 0.23005
 O760 O 0.24493 -0.02474 0.24367
 Zr761 Zr 0.23071 0.01774 0.25758
 O762 O 0.24462 0.00397 0.27257
 Zr763 Zr 0.26863 -0.01950 0.24004
 O764 O 0.25466 -0.00586 0.22479
 Zr765 Zr 0.26836 0.00795 0.26762
 O766 O 0.25446 0.02315 0.25385
 Zr767 Zr 0.24110 -0.01985 0.26745
 O768 O 0.22566 -0.00607 0.25382
 O769 O 0.23458 0.01397 0.23393
 O770 O 0.26480 -0.01583 0.26377
 C771 C 0.23735 0.04720 0.23708
 C772 C 0.23771 0.01077 0.20069
 C773 C 0.20155 0.01102 0.23675
 C774 C 0.26327 -0.04830 0.26167
 C775 C 0.29715 -0.01376 0.26193
 C776 C 0.26274 -0.01400 0.29621
 H777 H 0.28432 0.00703 0.24139
 H778 H 0.24205 0.00642 0.28356
 H779 H 0.22792 0.02064 0.22721
 H780 H 0.24270 -0.03580 0.24107
 H781 H 0.26258 -0.03274 0.21360
 H782 H 0.23645 -0.03554 0.21512
 H783 H 0.25911 0.02450 0.29137
 H784 H 0.24149 0.03989 0.27497
 H785 H 0.29286 -0.00988 0.22415
 H786 H 0.27585 0.00720 0.20817
 H787 H 0.22421 -0.01098 0.29108
 H788 H 0.20880 0.00661 0.27501
 H789 H 0.27560 0.04006 0.24095
 H790 H 0.29184 0.02503 0.25860
 H791 H 0.20832 -0.02626 0.24162
 H792 H 0.22473 -0.04374 0.25819
 O793 O 0.45955 0.75147 0.27050
 O794 O 0.46505 0.72402 0.26955
 O795 O 0.50035 0.77051 0.29175
 O796 O 0.52616 0.77037 0.28744
 O797 O 0.48093 0.79191 0.25105
 O798 O 0.48225 0.78602 0.22369
 O799 O 0.54144 0.72925 0.24869
 O800 O 0.53769 0.73262 0.27613
 O801 O 0.50198 0.70904 0.23056
 O802 O 0.47365 0.71479 0.23166
 O803 O 0.52169 0.74807 0.20998
 O804 O 0.51978 0.77686 0.21473
 O805 O 0.54171 0.74830 0.23015
 O806 O 0.53622 0.77730 0.23203
 O807 O 0.50296 0.72920 0.20996
 O808 O 0.47371 0.73195 0.21512
 O809 O 0.52117 0.70929 0.24895
 O810 O 0.51887 0.71463 0.27762
 O811 O 0.45917 0.76984 0.25124
 O812 O 0.46508 0.76829 0.22361
 O813 O 0.49980 0.79200 0.26980
 O814 O 0.52796 0.78594 0.26697
 O815 O 0.48155 0.75165 0.29219
 O816 O 0.48285 0.72388 0.28651
 Zr817 Zr 0.48217 0.74187 0.26955
 O818 O 0.49569 0.72665 0.25570
 Zr819 Zr 0.50961 0.76941 0.26907
 O820 O 0.52464 0.75523 0.25560
 Zr821 Zr 0.48191 0.76909 0.24171
 O822 O 0.49579 0.75523 0.22675
 Zr823 Zr 0.51948 0.73150 0.25941
 O824 O 0.50600 0.74561 0.27462
 Zr825 Zr 0.49195 0.73149 0.23189
 O826 O 0.47677 0.74532 0.24574
 Zr827 Zr 0.51957 0.75895 0.23185
 O828 O 0.50569 0.77440 0.24531
 O829 O 0.48593 0.76551 0.26537
 O830 O 0.51564 0.73526 0.23574
 C831 C 0.45270 0.76221 0.26249
 C832 C 0.48940 0.76281 0.29859
 C833 C 0.48873 0.79862 0.26204
 C834 C 0.54788 0.73655 0.23724
 C835 C 0.51357 0.70272 0.23776
 C836 C 0.51468 0.73632 0.20378
 H837 H 0.49304 0.71568 0.25826
 H838 H 0.49335 0.75766 0.21572
 H839 H 0.47926 0.77221 0.27204
 H840 H 0.53569 0.75751 0.25812
 H841 H 0.53327 0.73779 0.28550
 H842 H 0.53525 0.76396 0.28424
 H843 H 0.47629 0.74001 0.20723
 H844 H 0.46003 0.75788 0.22427
 H845 H 0.51011 0.70735 0.27558
 H846 H 0.49319 0.72461 0.29168
 H847 H 0.51072 0.77518 0.20772
 H848 H 0.49284 0.79070 0.22380
 H849 H 0.46011 0.72422 0.25908
 H850 H 0.47467 0.70832 0.24120
 H851 H 0.52601 0.79197 0.25727
 H852 H 0.54366 0.77527 0.24067
 O853 O 0.04261 0.73228 0.74695
 O854 O 0.03723 0.73362 0.77433
 O855 O 0.00196 0.71013 0.72852
 O856 O -0.02379 0.71442 0.72792
 O857 O 0.02103 0.75127 0.70647
 O858 O 0.01948 0.77861 0.71202
 O859 O -0.03927 0.75361 0.76924
 O860 O -0.03543 0.72605 0.76587
 O861 O -0.00060 0.77273 0.78855
 O862 O 0.02814 0.77126 0.78317
 O863 O -0.02044 0.79217 0.75008
 O864 O -0.01816 0.78719 0.72103
 O865 O -0.03985 0.77210 0.75013
 O866 O -0.03471 0.76962 0.72097
 O867 O -0.00152 0.79256 0.76874
 O868 O 0.02784 0.78790 0.76576
 O869 O -0.01937 0.75389 0.78870
 O870 O -0.01618 0.72481 0.78376
 O871 O 0.04276 0.75125 0.72826
 O872 O 0.03659 0.77905 0.72986
 O873 O 0.00237 0.73227 0.70634
 O874 O -0.02588 0.73472 0.71258
 O875 O 0.02110 0.71056 0.74702
 O876 O 0.01955 0.71644 0.77474
 Zr877 Zr 0.02005 0.73321 0.75656
 O878 O 0.00639 0.74704 0.77165
 Zr879 Zr -0.00741 0.73295 0.72899
 O880 O -0.02260 0.74643 0.74306
 Zr881 Zr 0.01996 0.76075 0.72911
 O882 O 0.00586 0.77574 0.74273
 Zr883 Zr -0.01733 0.74291 0.76679
 O884 O -0.00369 0.72772 0.75283
 Zr885 Zr 0.00988 0.77083 0.76645
 O886 O 0.02523 0.75703 0.75284
 Zr887 Zr -0.01787 0.77028 0.73913
 O888 O -0.00380 0.75678 0.72385
 O889 O 0.01620 0.73703 0.73290
 O890 O -0.01369 0.76654 0.76269
 C891 C 0.04931 0.74006 0.73596
 C892 C 0.01318 0.70368 0.73624
 C893 C 0.01336 0.74020 0.69976
 C894 C -0.04572 0.76519 0.76214
 C895 C -0.01227 0.76565 0.79483
 C896 C -0.01354 0.79845 0.76188
 H897 H 0.00904 0.74466 0.78264
 H898 H 0.00814 0.78680 0.74021
 H899 H 0.02289 0.73032 0.72625
 H900 H -0.03364 0.74377 0.74087
 H901 H -0.03091 0.71659 0.76093
 H902 H -0.03263 0.71730 0.73479
 H903 H 0.02503 0.79576 0.75775
 H904 H 0.04184 0.77832 0.74015
 H905 H -0.00808 0.72759 0.79153
 H906 H 0.00933 0.71105 0.77397
 H907 H -0.00970 0.79481 0.72313
 H908 H 0.00877 0.77861 0.70762
 H909 H 0.04187 0.74424 0.77415
 H910 H 0.02667 0.76222 0.79025
 H911 H -0.02411 0.74444 0.70652
 H912 H -0.04221 0.76115 0.72338
 O913 O 0.04095 0.02037 0.00201
 O914 O 0.03567 0.01952 -0.02533
 O915 O -0.00005 0.04268 0.02030
 O916 O -0.02596 0.03874 0.01964
 O917 O 0.01828 0.00190 0.04251
 O918 O 0.01681 -0.02553 0.03690
 O919 O -0.04099 -0.00038 -0.02117
 O920 O -0.03685 0.02719 -0.01807
 O921 O -0.00240 -0.02018 -0.03981
 O922 O 0.02665 -0.01798 -0.03430
 O923 O -0.02218 -0.03912 -0.00169
 O924 O -0.02055 -0.03407 0.02727
 O925 O -0.04171 -0.01892 -0.00212
 O926 O -0.03703 -0.01654 0.02702
 O927 O -0.00275 -0.03975 -0.01981
 O928 O 0.02633 -0.03471 -0.01699
 O929 O -0.02104 -0.00121 -0.04040
 O930 O -0.01741 0.02799 -0.03578
 O931 O 0.04034 0.00178 0.02107
 O932 O 0.03433 -0.02592 0.01951
 O933 O -0.00020 0.02105 0.04202
 O934 O -0.02834 0.01850 0.03545
 O935 O 0.01921 0.04263 0.00192
 O936 O 0.01808 0.03672 -0.02586
 Zr937 Zr 0.01832 0.01988 -0.00774
 O938 O 0.00486 0.00599 -0.02306
 Zr939 Zr -0.00965 0.02011 0.01928
 O940 O -0.02460 0.00663 0.00502
 Zr941 Zr 0.01764 -0.00765 0.01983
 O942 O 0.00386 -0.02266 0.00593
 Zr943 Zr -0.01895 0.01010 -0.01863
 O944 O -0.00550 0.02532 -0.00447
 Zr945 Zr 0.00822 -0.01780 -0.01775
 O946 O 0.02331 -0.00398 -0.00384
 Zr947 Zr -0.01991 -0.01718 0.00915
 O948 O -0.00617 -0.00366 0.02467
 O949 O 0.01404 0.01604 0.01584
 O950 O -0.01540 -0.01352 -0.01437
 C951 C 0.04730 0.01259 0.01323
 C952 C 0.01124 0.04926 0.01285
 C953 C 0.01060 0.01316 0.04892
 C954 C -0.04751 -0.01195 -0.01411
 C955 C -0.01406 -0.01320 -0.04625
 C956 C -0.01489 -0.04559 -0.01313
 H957 H 0.00764 0.00831 -0.03403
 H958 H 0.00612 -0.03370 0.00853
 H959 H 0.02070 0.02269 0.02258
 H960 H -0.03566 0.00931 0.00704
 H961 H -0.03227 0.03664 -0.01317
 H962 H -0.03490 0.03559 0.01299
 H963 H 0.02390 -0.04216 -0.00848
 H964 H 0.03970 -0.02529 0.00928
 H965 H -0.00954 0.02486 -0.04366
 H966 H 0.00776 0.04195 -0.02537
 H967 H -0.01187 -0.04152 0.02551
 H968 H 0.00610 -0.02532 0.04130
 H969 H 0.03990 0.00873 -0.02549
 H970 H 0.02455 -0.00966 -0.04207
 H971 H -0.02668 0.00881 0.04158
 H972 H -0.04436 -0.00790 0.02462
 O973 O -0.00196 0.48104 0.45894
 O974 O 0.02554 0.48205 0.46466
 O975 O -0.02076 0.45934 0.49985
 O976 O -0.02084 0.46382 0.52564
 O977 O -0.04240 0.50046 0.48060
 O978 O -0.03635 0.52787 0.48190
 O979 O 0.01952 0.50211 0.54148
 O980 O 0.01660 0.47484 0.53701
 O981 O 0.04041 0.52072 0.50179
 O982 O 0.03479 0.51946 0.47339
 O983 O 0.00108 0.54180 0.52078
 O984 O -0.02756 0.53654 0.51922
 O985 O 0.00108 0.52127 0.54124
 O986 O -0.02764 0.51972 0.53590
 O987 O 0.01974 0.54177 0.50188
 O988 O 0.01809 0.53610 0.47326
 O989 O 0.03999 0.50238 0.52103
 O990 O 0.03487 0.47386 0.51871
 O991 O -0.02059 0.50005 0.45889
 O992 O -0.01882 0.52766 0.46455
 O993 O -0.04257 0.48156 0.49931
 O994 O -0.03660 0.48413 0.52729
 O995 O -0.00204 0.45919 0.48096
 O996 O 0.02551 0.46481 0.48217
 Zr997 Zr 0.00759 0.48187 0.48165
 O998 O 0.02276 0.49561 0.49537
 Zr999 Zr -0.01995 0.48218 0.50906
 O1000 O -0.00590 0.49578 0.52412
 Zr1001 Zr -0.01959 0.50967 0.48151
 O1002 O -0.00571 0.52462 0.49534
 Zr1003 Zr 0.01783 0.49194 0.51916
 O1004 O 0.00385 0.47674 0.50547
 Zr1005 Zr 0.01802 0.51945 0.49160
 O1006 O 0.00416 0.50571 0.47635
 Zr1007 Zr -0.00946 0.51962 0.51910
 O1008 O -0.02488 0.50604 0.50525
 O1009 O -0.01604 0.48594 0.48541
 O1010 O 0.01426 0.51574 0.51535
 C1011 C -0.01289 0.48895 0.45225
 C1012 C -0.01297 0.45255 0.48889
 C1013 C -0.04918 0.48951 0.48838
 C1014 C 0.01227 0.51368 0.54781
 C1015 C 0.04668 0.51343 0.51335
 C1016 C 0.01239 0.54825 0.51328
 H1017 H 0.03371 0.49302 0.49277
 H1018 H -0.00817 0.53564 0.49282
 H1019 H -0.02275 0.47924 0.47876
 H1020 H -0.00826 0.49324 0.53515
 H1021 H 0.01151 0.46552 0.53237
 H1022 H -0.01458 0.46712 0.53479
 H1023 H 0.00907 0.54318 0.47483
 H1024 H -0.00848 0.52688 0.45940
 H1025 H 0.04196 0.47573 0.50977
 H1026 H 0.02507 0.45991 0.49265
 H1027 H -0.02603 0.54347 0.51008
 H1028 H -0.04133 0.52751 0.49234
 H1029 H 0.02519 0.49248 0.45963
 H1030 H 0.04137 0.51002 0.47461
 H1031 H -0.04230 0.49409 0.52563
 H1032 H -0.02602 0.51068 0.54294
 O1033 O 0.54196 0.02068 0.50085
 O1034 O 0.53645 0.01966 0.47343
 O1035 O 0.50097 0.04271 0.51932
 O1036 O 0.47506 0.03855 0.51879
 O1037 O 0.51967 0.00191 0.54135
 O1038 O 0.51831 -0.02551 0.53566
 O1039 O 0.45963 -0.00021 0.47848
 O1040 O 0.46404 0.02715 0.48138
 O1041 O 0.49898 -0.01952 0.45885
 O1042 O 0.52756 -0.01795 0.46445
 O1043 O 0.47975 -0.03974 0.49793
 O1044 O 0.48069 -0.03424 0.52630
 O1045 O 0.45923 -0.01884 0.49744
 O1046 O 0.46444 -0.01704 0.52624
 O1047 O 0.49882 -0.03989 0.47946
 O1048 O 0.52755 -0.03436 0.48149
 O1049 O 0.48043 -0.00047 0.45831
 O1050 O 0.48263 0.02796 0.46338
 O1051 O 0.54158 0.00200 0.51982
 O1052 O 0.53574 -0.02572 0.51816
 O1053 O 0.50107 0.02093 0.54106
 O1054 O 0.47304 0.01833 0.53479
 O1055 O 0.52008 0.04276 0.50081
 O1056 O 0.51892 0.03695 0.47317
 Zr1057 Zr 0.51928 0.02002 0.49120
 O1058 O 0.50573 0.00614 0.47600
 Zr1059 Zr 0.49150 0.02003 0.51837
 O1060 O 0.47655 0.00644 0.50422
 Zr1061 Zr 0.51893 -0.00757 0.51865
 O1062 O 0.50515 -0.02257 0.50480
 Zr1063 Zr 0.48189 0.01001 0.48052
 O1064 O 0.49543 0.02528 0.49459
 Zr1065 Zr 0.50925 -0.01766 0.48110
 O1066 O 0.52441 -0.00383 0.49496
 Zr1067 Zr 0.48134 -0.01739 0.50815
 O1068 O 0.49511 -0.00377 0.52361
 O1069 O 0.51519 0.01613 0.51479
 O1070 O 0.48546 -0.01377 0.48447
 C1071 C 0.54843 0.01289 0.51200
 C1072 C 0.51213 0.04937 0.51175
 C1073 C 0.51194 0.01305 0.54787
 C1074 C 0.45296 -0.01145 0.48593
 C1075 C 0.48778 -0.01206 0.45216
 C1076 C 0.48734 -0.04630 0.48674
 H1077 H 0.50849 0.00855 0.46505
 H1078 H 0.50757 -0.03358 0.50741
 H1079 H 0.52184 0.02281 0.52151
 H1080 H 0.46551 0.00909 0.50639
 H1081 H 0.46863 0.03650 0.48648
 H1082 H 0.46591 0.03519 0.51256
 H1083 H 0.52573 -0.04144 0.49046
 H1084 H 0.54117 -0.02491 0.50797
 H1085 H 0.49188 0.02621 0.45666
 H1086 H 0.50858 0.04213 0.47371
 H1087 H 0.49010 -0.04090 0.52530
 H1088 H 0.50777 -0.02511 0.54045
 H1089 H 0.54113 0.00906 0.47361
 H1090 H 0.52613 -0.00887 0.45741
 H1091 H 0.47472 0.00855 0.54077
 H1092 H 0.45739 -0.00806 0.52435
 O1093 O 0.45683 0.49791 -0.02013
 O1094 O 0.46204 0.52520 -0.01873
 O1095 O 0.49781 0.48037 -0.04329
 O1096 O 0.52358 0.48025 -0.03931
 O1097 O 0.47972 0.45694 -0.00253
 O1098 O 0.48120 0.46201 0.02478
 O1099 O 0.53882 0.52078 0.00042
 O1100 O 0.53454 0.51810 -0.02710
 O1101 O 0.50065 0.53876 0.02099
 O1102 O 0.47149 0.53351 0.01876
 O1103 O 0.52047 0.50045 0.03886
 O1104 O 0.51884 0.47151 0.03321
 O1105 O 0.53992 0.50117 0.01837
 O1106 O 0.53514 0.47210 0.01560
 O1107 O 0.50069 0.51818 0.04017
 O1108 O 0.47181 0.51589 0.03507
 O1109 O 0.51873 0.54001 0.00156
 O1110 O 0.51508 0.53579 -0.02753
 O1111 O 0.45747 0.47851 -0.00193
 O1112 O 0.46384 0.47945 0.02572
 O1113 O 0.49792 0.45778 -0.02189
 O1114 O 0.52609 0.46436 -0.01947
 O1115 O 0.47833 0.49850 -0.04245
 O1116 O 0.47949 0.52616 -0.03596
 Zr1117 Zr 0.47942 0.50762 -0.01957
 O1118 O 0.49298 0.52268 -0.00551
 Zr1119 Zr 0.50735 0.48056 -0.02065
 O1120 O 0.52243 0.49458 -0.00703
 Zr1121 Zr 0.48032 0.47949 0.00730
 O1122 O 0.49428 0.49305 0.02244
 Zr1123 Zr 0.51674 0.51833 -0.00995
 O1124 O 0.50318 0.50446 -0.02530
 Zr1125 Zr 0.48984 0.51685 0.01814
 O1126 O 0.47462 0.50324 0.00420
 Zr1127 Zr 0.51803 0.49000 0.01673
 O1128 O 0.50411 0.47475 0.00303
 O1129 O 0.48369 0.48390 -0.01633
 O1130 O 0.51345 0.51362 0.01361
 C1131 C 0.45045 0.48662 -0.01251
 C1132 C 0.48645 0.48799 -0.04957
 C1133 C 0.48733 0.45067 -0.01389
 C1134 C 0.54557 0.51337 0.01161
 C1135 C 0.51204 0.54548 0.01385
 C1136 C 0.51292 0.51147 0.04578
 H1137 H 0.49015 0.53370 -0.00757
 H1138 H 0.49211 0.49019 0.03342
 H1139 H 0.47700 0.47729 -0.02308
 H1140 H 0.53347 0.49263 -0.00986
 H1141 H 0.52993 0.51334 -0.03660
 H1142 H 0.53236 0.48718 -0.03632
 H1143 H 0.47396 0.50689 0.04203
 H1144 H 0.45832 0.48962 0.02523
 H1145 H 0.50696 0.54343 -0.02440
 H1146 H 0.48971 0.52573 -0.04137
 H1147 H 0.51031 0.47317 0.04083
 H1148 H 0.49200 0.45783 0.02467
 H1149 H 0.45803 0.52526 -0.00787
 H1150 H 0.47371 0.54161 0.01080
 H1151 H 0.52450 0.45802 -0.00992
 H1152 H 0.54229 0.47458 0.00686
 O1153 O 0.75180 0.27046 0.45899
 O1154 O 0.72429 0.26971 0.46466
 O1155 O 0.77058 0.29240 0.49998
 O1156 O 0.77002 0.28815 0.52593
 O1157 O 0.79226 0.25151 0.48114
 O1158 O 0.78625 0.22396 0.48278
 O1159 O 0.72978 0.24996 0.54153
 O1160 O 0.73282 0.27726 0.53694
 O1161 O 0.70923 0.23114 0.50186
 O1162 O 0.71514 0.23251 0.47329
 O1163 O 0.74847 0.21011 0.52103
 O1164 O 0.77704 0.21541 0.51988
 O1165 O 0.74806 0.23063 0.54144
 O1166 O 0.77692 0.23233 0.53651
 O1167 O 0.72978 0.21020 0.50215
 O1168 O 0.73162 0.21561 0.47357
 O1169 O 0.70953 0.24955 0.52104
 O1170 O 0.71460 0.27810 0.51852
 O1171 O 0.77055 0.25155 0.45936
 O1172 O 0.76890 0.22400 0.46517
 O1173 O 0.79206 0.27058 0.49970
 O1174 O 0.78609 0.26781 0.52770
 O1175 O 0.75199 0.29259 0.48092
 O1176 O 0.72439 0.28711 0.48202
 Zr1177 Zr 0.74220 0.26994 0.48171
 O1178 O 0.72690 0.25629 0.49537
 Zr1179 Zr 0.76948 0.26971 0.50941
 O1180 O 0.75533 0.25618 0.52440
 Zr1181 Zr 0.76945 0.24211 0.48201
 O1182 O 0.75537 0.22724 0.49571
 Zr1183 Zr 0.73166 0.26005 0.51919
 O1184 O 0.74574 0.27518 0.50554
 Zr1185 Zr 0.73166 0.23244 0.49175
 O1186 O 0.74573 0.24606 0.47659
 Zr1187 Zr 0.75894 0.23232 0.51948
 O1188 O 0.77451 0.24585 0.50578
 O1189 O 0.76577 0.26583 0.48574
 O1190 O 0.73526 0.23624 0.51550
 C1191 C 0.76282 0.26249 0.45251
 C1192 C 0.76301 0.29912 0.48885
 C1193 C 0.79879 0.26273 0.48877
 C1194 C 0.73685 0.23830 0.54789
 C1195 C 0.70292 0.23841 0.51342
 C1196 C 0.73712 0.20370 0.51354
 H1197 H 0.71596 0.25886 0.49268
 H1198 H 0.75784 0.21621 0.49325
 H1199 H 0.77248 0.27247 0.47905
 H1200 H 0.75760 0.25874 0.53544
 H1201 H 0.73792 0.28656 0.53226
 H1202 H 0.76403 0.28469 0.53519
 H1203 H 0.74069 0.20860 0.47518
 H1204 H 0.75854 0.22462 0.46002
 H1205 H 0.70755 0.27616 0.50956
 H1206 H 0.72473 0.29201 0.49250
 H1207 H 0.77576 0.20862 0.51060
 H1208 H 0.79132 0.22461 0.49317
 H1209 H 0.72458 0.25922 0.45974
 H1210 H 0.70819 0.24165 0.47476
 H1211 H 0.79181 0.25786 0.52607
 H1212 H 0.77515 0.24134 0.54356
 O1213 O 0.78990 0.74983 -0.02478
 O1214 O 0.78376 0.72217 -0.02328
 O1215 O 0.74948 0.77019 -0.04406
 O1216 O 0.72335 0.76977 -0.03903
 O1217 O 0.77055 0.79035 -0.00432
 O1218 O 0.76983 0.78440 0.02334
 O1219 O 0.70830 0.72951 0.00007
 O1220 O 0.71125 0.73290 -0.02744
 O1221 O 0.74763 0.70828 0.01711
 O1222 O 0.77636 0.71289 0.01415
 O1223 O 0.73068 0.74779 0.03858
 O1224 O 0.73267 0.77643 0.03346
 O1225 O 0.70999 0.74747 0.01963
 O1226 O 0.71526 0.77689 0.01682
 O1227 O 0.74834 0.72794 0.03719
 O1228 O 0.77753 0.72996 0.03104
 O1229 O 0.72744 0.70946 -0.00015
 O1230 O 0.72984 0.71434 -0.02956
 O1231 O 0.79140 0.76812 -0.00545
 O1232 O 0.78680 0.76626 0.02249
 O1233 O 0.75087 0.79111 -0.02224
 O1234 O 0.72271 0.78588 -0.01843
 O1235 O 0.76770 0.75078 -0.04517
 O1236 O 0.76531 0.72285 -0.03998
 Zr1237 Zr 0.76718 0.74053 -0.02278
 O1238 O 0.75373 0.72556 -0.00860
 Zr1239 Zr 0.74048 0.76881 -0.02118
 O1240 O 0.72562 0.75504 -0.00710
 Zr1241 Zr 0.76919 0.76761 0.00519
 O1242 O 0.75564 0.75398 0.02058
 Zr1243 Zr 0.72996 0.73122 -0.01134
 O1244 O 0.74329 0.74499 -0.02701
 Zr1245 Zr 0.75865 0.73020 0.01501
 O1246 O 0.77366 0.74375 0.00077
 Zr1247 Zr 0.73180 0.75843 0.01647
 O1248 O 0.74546 0.77359 0.00247
 O1249 O 0.76408 0.76417 -0.01823
 O1250 O 0.73502 0.73478 0.01210
 C1251 C 0.79710 0.76072 -0.01725
 C1252 C 0.76038 0.76253 -0.05111
 C1253 C 0.76266 0.79723 -0.01515
 C1254 C 0.70308 0.73616 0.01250
 C1255 C 0.73509 0.70276 0.01092
 C1256 C 0.73736 0.73551 0.04413
 H1257 H 0.75587 0.71452 -0.01130
 H1258 H 0.75861 0.75625 0.03152
 H1259 H 0.77067 0.77079 -0.02504
 H1260 H 0.71452 0.75761 -0.00911
 H1261 H 0.71555 0.73779 -0.03702
 H1262 H 0.71403 0.76410 -0.03518
 H1263 H 0.77545 0.73797 0.03914
 H1264 H 0.79156 0.75574 0.02151
 H1265 H 0.73721 0.70586 -0.02679
 H1266 H 0.75477 0.72394 -0.04467
 H1267 H 0.74220 0.77480 0.03981
 H1268 H 0.75961 0.78985 0.02314
 H1269 H 0.78931 0.72249 -0.01312
 H1270 H 0.77427 0.70612 0.00500
 H1271 H 0.72492 0.79148 -0.00854
 H1272 H 0.70689 0.77434 0.00925
 O1273 O 1.00089 0.27114 0.29307
 O1274 O 1.02836 0.26937 0.28728
 O1275 O 0.98223 0.29322 0.25257
 O1276 O 0.98148 0.28892 0.22684
 O1277 O 0.96010 0.25233 0.27194
 O1278 O 0.96554 0.22487 0.27035
 O1279 O 1.02160 0.24981 0.21051
 O1280 O 1.01901 0.27716 0.21491
 O1281 O 1.04199 0.23045 0.24946
 O1282 O 1.03696 0.23180 0.27805
 O1283 O 1.00248 0.21070 0.23065
 O1284 O 0.97395 0.21621 0.23259
 O1285 O 1.00246 0.23136 0.21050
 O1286 O 0.97375 0.23347 0.21631
 O1287 O 1.02113 0.21006 0.24957
 O1288 O 1.01979 0.21553 0.27831
 O1289 O 1.04226 0.24954 0.23094
 O1290 O 1.03728 0.27800 0.23326
 O1291 O 0.98213 0.25224 0.29339
 O1292 O 0.98342 0.22452 0.28741
 O1293 O 0.95991 0.27128 0.25324
 O1294 O 0.96573 0.26877 0.22505
 O1295 O 1.00092 0.29275 0.27152
 O1296 O 1.02854 0.28675 0.26966
 Zr1297 Zr 1.01032 0.27002 0.27038
 O1298 O 1.02511 0.25607 0.25650
 Zr1299 Zr 0.98247 0.27040 0.24325
 O1300 O 0.99622 0.25675 0.22796
 Zr1301 Zr 0.98269 0.24270 0.27066
 O1302 O 0.99607 0.22762 0.25649
 Zr1303 Zr 1.02008 0.26008 0.23279
 O1304 O 1.00641 0.27542 0.24664
 Zr1305 Zr 1.01991 0.23231 0.26009
 O1306 O 1.00653 0.24622 0.27560
 Zr1307 Zr 0.99222 0.23295 0.23280
 O1308 O 0.97719 0.24662 0.24697
 O1309 O 0.98658 0.26638 0.26681
 O1310 O 1.01603 0.23634 0.23641
 C1311 C 0.98992 0.26340 0.29986
 C1312 C 0.99007 0.29965 0.26371
 C1313 C 0.95337 0.26340 0.26428
 C1314 C 1.01394 0.23859 0.20403
 C1315 C 1.04855 0.23796 0.23821
 C1316 C 1.01372 0.20395 0.23801
 H1317 H 1.03613 0.25842 0.25904
 H1318 H 0.99344 0.21662 0.25891
 H1319 H 0.98003 0.27313 0.27354
 H1320 H 0.99383 0.25943 0.21697
 H1321 H 1.01400 0.28654 0.21954
 H1322 H 0.98789 0.28578 0.21775
 H1323 H 1.01069 0.20856 0.27668
 H1324 H 0.99374 0.22524 0.29262
 H1325 H 1.04422 0.27617 0.24233
 H1326 H 1.02770 0.29210 0.25943
 H1327 H 0.97542 0.20922 0.24169
 H1328 H 0.96064 0.22523 0.25987
 H1329 H 1.02789 0.25887 0.29217
 H1330 H 1.04377 0.24107 0.27675
 H1331 H 0.95966 0.25907 0.22689
 H1332 H 0.97562 0.24238 0.20915
 O1333 O 0.74854 1.04400 0.72985
 O1334 O 0.77583 1.03863 0.73084
 O1335 O 0.73024 1.00306 0.70732
 O1336 O 0.73011 0.97724 0.71125
 O1337 O 0.70805 1.02175 0.74809
 O1338 O 0.71341 1.01983 0.77548
 O1339 O 0.77128 0.96175 0.75027
 O1340 O 0.76818 0.96603 0.72275
 O1341 O 0.78991 0.99995 0.77043
 O1342 O 0.78481 1.02912 0.76829
 O1343 O 0.75156 0.98051 0.78900
 O1344 O 0.72274 0.98213 0.78381
 O1345 O 0.75221 0.96105 0.76878
 O1346 O 0.72296 0.96584 0.76608
 O1347 O 0.76985 0.99981 0.78985
 O1348 O 0.76735 1.02896 0.78488
 O1349 O 0.79055 0.98150 0.75129
 O1350 O 0.78599 0.98551 0.72207
 O1351 O 0.72955 1.04343 0.74849
 O1352 O 0.73105 1.03718 0.77615
 O1353 O 0.70814 1.00311 0.72908
 O1354 O 0.71470 0.97479 0.73144
 O1355 O 0.74875 1.02221 0.70753
 O1356 O 0.77647 1.02105 0.71368
 Zr1357 Zr 0.75820 1.02129 0.73033
 O1358 O 0.77340 1.00764 0.74418
 Zr1359 Zr 0.73089 0.99350 0.72989
 O1360 O 0.74509 0.97834 0.74324
 Zr1361 Zr 0.73060 1.02065 0.75775
 O1362 O 0.74430 1.00663 0.77267
 Zr1363 Zr 0.76881 0.98386 0.73990
 O1364 O 0.75472 0.99749 0.72478
 Zr1365 Zr 0.76803 1.01088 0.76794
 O1366 O 0.75430 1.02619 0.75418
 Zr1367 Zr 0.74092 0.98289 0.76702
 O1368 O 0.72552 0.99689 0.75363
 O1369 O 0.73456 1.01716 0.73406
 O1370 O 0.76448 0.98730 0.76349
 C1371 C 0.73737 1.05038 0.73768
 C1372 C 0.73790 1.01422 0.70077
 C1373 C 0.70146 1.01410 0.73694
 C1374 C 0.76422 0.95524 0.76182
 C1375 C 0.79630 0.98828 0.76342
 C1376 C 0.76302 0.98768 0.79556
 H1377 H 0.78440 1.01036 0.74193
 H1378 H 0.74167 1.00884 0.78370
 H1379 H 0.72791 1.02388 0.72738
 H1380 H 0.74302 0.96728 0.74048
 H1381 H 0.76335 0.97070 0.71331
 H1382 H 0.73717 0.96850 0.71405
 H1383 H 0.75878 1.02657 0.79227
 H1384 H 0.74126 1.04262 0.77546
 H1385 H 0.79407 0.99309 0.72542
 H1386 H 0.77594 1.01077 0.70836
 H1387 H 0.72428 0.99099 0.79110
 H1388 H 0.70885 1.00918 0.77512
 H1389 H 0.77610 1.04267 0.74168
 H1390 H 0.79263 1.02695 0.76005
 H1391 H 0.70844 0.97653 0.74102
 H1392 H 0.72559 0.95833 0.75768
 O1393 O 0.70901 0.51978 0.24926
 O1394 O 0.71524 0.51930 0.27675
 O1395 O 0.74958 0.53934 0.22859
 O1396 O 0.77545 0.53442 0.22832
 O1397 O 0.72833 0.49890 0.20943
 O1398 O 0.72983 0.47134 0.21571
 O1399 O 0.79144 0.49732 0.26940
 O1400 O 0.78748 0.52443 0.26601
 O1401 O 0.75167 0.48020 0.29190
 O1402 O 0.72358 0.48143 0.28710
 O1403 O 0.76908 0.45720 0.25227
 O1404 O 0.76778 0.46153 0.22432
 O1405 O 0.79029 0.47737 0.25184
 O1406 O 0.78399 0.47879 0.22272
 O1407 O 0.75145 0.45863 0.27208
 O1408 O 0.72239 0.46476 0.27037
 O1409 O 0.77151 0.49784 0.29046
 O1410 O 0.76956 0.52641 0.28447
 O1411 O 0.70775 0.49984 0.23166
 O1412 O 0.71311 0.47201 0.23408
 O1413 O 0.74781 0.51699 0.20798
 O1414 O 0.77617 0.51336 0.21314
 O1415 O 0.73132 0.54079 0.24791
 O1416 O 0.73345 0.53604 0.27581
 Zr1417 Zr 0.73184 0.51847 0.25846
 O1418 O 0.74555 0.50480 0.27367
 Zr1419 Zr 0.75848 0.51648 0.23019
 O1420 O 0.77359 0.50308 0.24434
 Zr1421 Zr 0.73023 0.48977 0.23221
 O1422 O 0.74417 0.47495 0.24608
 Zr1423 Zr 0.76928 0.50778 0.26805
 O1424 O 0.75567 0.52286 0.25387
 Zr1425 Zr 0.74117 0.48092 0.26971
 O1426 O 0.72583 0.49466 0.25594
 Zr1427 Zr 0.76796 0.47929 0.24158
 O1428 O 0.75391 0.49261 0.22609
 O1429 O 0.73490 0.51343 0.23498
 O1430 O 0.76491 0.48397 0.26525
 C1431 C 0.70178 0.51166 0.23883
 C1432 C 0.73884 0.54660 0.23623
 C1433 C 0.73598 0.50967 0.20221
 C1434 C 0.79734 0.48534 0.26248
 C1435 C 0.76361 0.48727 0.29767
 C1436 C 0.76212 0.45146 0.26427
 H1437 H 0.74328 0.50776 0.28460
 H1438 H 0.74135 0.46392 0.24401
 H1439 H 0.72817 0.52009 0.22835
 H1440 H 0.78461 0.50530 0.24163
 H1441 H 0.78301 0.53359 0.26049
 H1442 H 0.78473 0.53104 0.23435
 H1443 H 0.72428 0.45673 0.26226
 H1444 H 0.70812 0.47333 0.24444
 H1445 H 0.76095 0.52478 0.29201
 H1446 H 0.74390 0.54089 0.27463
 H1447 H 0.75750 0.45625 0.22486
 H1448 H 0.73989 0.47183 0.20999
 H1449 H 0.70977 0.50908 0.27668
 H1450 H 0.72441 0.49157 0.29263
 H1451 H 0.77368 0.50360 0.20741
 H1452 H 0.79195 0.48699 0.22457
 O1453 O 0.53985 0.22930 0.74829
 O1454 O 0.53420 0.23034 0.77578
 O1455 O 0.49898 0.20793 0.72935
 O1456 O 0.47314 0.21251 0.72925
 O1457 O 0.51849 0.24892 0.70786
 O1458 O 0.51715 0.27635 0.71394
 O1459 O 0.45766 0.25090 0.76999
 O1460 O 0.46172 0.22353 0.76664
 O1461 O 0.49731 0.26893 0.79078
 O1462 O 0.52570 0.26775 0.78502
 O1463 O 0.47849 0.29051 0.75125
 O1464 O 0.47966 0.28525 0.72285
 O1465 O 0.45758 0.26976 0.75124
 O1466 O 0.46318 0.26835 0.72254
 O1467 O 0.49687 0.28995 0.77043
 O1468 O 0.52564 0.28456 0.76845
 O1469 O 0.47803 0.25062 0.79030
 O1470 O 0.48008 0.22220 0.78491
 O1471 O 0.54022 0.24861 0.72997
 O1472 O 0.53441 0.27621 0.73154
 O1473 O 0.49980 0.22996 0.70777
 O1474 O 0.47170 0.23294 0.71350
 O1475 O 0.51787 0.20765 0.74808
 O1476 O 0.51659 0.21313 0.77565
 Zr1477 Zr 0.51720 0.23026 0.75782
 O1478 O 0.50356 0.24398 0.77302
 Zr1479 Zr 0.48983 0.23079 0.73025
 O1480 O 0.47480 0.24437 0.74433
 Zr1481 Zr 0.51750 0.25816 0.73071
 O1482 O 0.50368 0.27309 0.74464
 Zr1483 Zr 0.47977 0.24042 0.76804
 O1484 O 0.49337 0.22521 0.75401
 Zr1485 Zr 0.50738 0.26780 0.76835
 O1486 O 0.52260 0.25408 0.75446
 Zr1487 Zr 0.47986 0.26822 0.74084
 O1488 O 0.49372 0.25464 0.72540
 O1489 O 0.51350 0.23445 0.73422
 O1490 O 0.48361 0.26422 0.76454
 C1491 C 0.54670 0.23734 0.73758
 C1492 C 0.50996 0.20111 0.73708
 C1493 C 0.51079 0.23784 0.70117
 C1494 C 0.45118 0.26229 0.76262
 C1495 C 0.48577 0.26161 0.79705
 C1496 C 0.48578 0.29669 0.76286
 H1497 H 0.50616 0.24133 0.78396
 H1498 H 0.50623 0.28411 0.74224
 H1499 H 0.52018 0.22776 0.72754
 H1500 H 0.46376 0.24188 0.74196
 H1501 H 0.46627 0.21420 0.76149
 H1502 H 0.46394 0.21590 0.73539
 H1503 H 0.52383 0.29189 0.75968
 H1504 H 0.53940 0.27556 0.74197
 H1505 H 0.48915 0.22384 0.79190
 H1506 H 0.50615 0.20814 0.77507
 H1507 H 0.48917 0.29174 0.72402
 H1508 H 0.50675 0.27593 0.70886
 H1509 H 0.53935 0.24072 0.77539
 H1510 H 0.52450 0.25828 0.79156
 H1511 H 0.47359 0.24279 0.70770
 H1512 H 0.45612 0.25930 0.72409
 O1513 O 0.27244 0.79051 0.49795
 O1514 O 0.27110 0.78496 0.52548
 O1515 O 0.29316 0.74965 0.47891
 O1516 O 0.28856 0.72369 0.47935
 O1517 O 0.25258 0.76929 0.45753
 O1518 O 0.22518 0.76842 0.46352
 O1519 O 0.24985 0.70851 0.51971
 O1520 O 0.27720 0.71232 0.51655
 O1521 O 0.23199 0.74835 0.54031
 O1522 O 0.23346 0.77668 0.53471
 O1523 O 0.21053 0.72972 0.50070
 O1524 O 0.21589 0.73077 0.47241
 O1525 O 0.23105 0.70860 0.50092
 O1526 O 0.23273 0.71419 0.47213
 O1527 O 0.21112 0.74819 0.51981
 O1528 O 0.21696 0.77701 0.51783
 O1529 O 0.25011 0.72889 0.53998
 O1530 O 0.27862 0.73075 0.53476
 O1531 O 0.25321 0.79109 0.47955
 O1532 O 0.22547 0.78563 0.48119
 O1533 O 0.27126 0.75032 0.45751
 O1534 O 0.26815 0.72228 0.46334
 O1535 O 0.29372 0.76833 0.49788
 O1536 O 0.28809 0.76704 0.52551
 Zr1537 Zr 0.27109 0.76788 0.50758
 O1538 O 0.25714 0.75440 0.52272
 Zr1539 Zr 0.27035 0.74047 0.48003
 O1540 O 0.25660 0.72557 0.49408
 Zr1541 Zr 0.24330 0.76849 0.48035
 O1542 O 0.22820 0.75477 0.49419
 Zr1543 Zr 0.26050 0.73055 0.51779
 O1544 O 0.27590 0.74398 0.50381
 Zr1545 Zr 0.23340 0.75846 0.51792
 O1546 O 0.24735 0.77356 0.50411
 Zr1547 Zr 0.23285 0.73088 0.49045
 O1548 O 0.24659 0.74463 0.47507
 O1549 O 0.26691 0.76419 0.48397
 O1550 O 0.23677 0.73462 0.51416
 C1551 C 0.26459 0.79742 0.48713
 C1552 C 0.30007 0.76055 0.48667
 C1553 C 0.26355 0.76142 0.45088
 C1554 C 0.23842 0.70212 0.51232
 C1555 C 0.23913 0.73670 0.54663
 C1556 C 0.20433 0.73712 0.51222
 H1557 H 0.25975 0.75699 0.53367
 H1558 H 0.21722 0.75744 0.49172
 H1559 H 0.27364 0.77079 0.47727
 H1560 H 0.25900 0.71449 0.49174
 H1561 H 0.28659 0.71676 0.51143
 H1562 H 0.28498 0.71442 0.48530
 H1563 H 0.20958 0.77520 0.50910
 H1564 H 0.22632 0.79076 0.49154
 H1565 H 0.27693 0.73977 0.54182
 H1566 H 0.29303 0.75657 0.52488
 H1567 H 0.20957 0.74041 0.47345
 H1568 H 0.22542 0.75798 0.45850
 H1569 H 0.26078 0.79020 0.52502
 H1570 H 0.24303 0.77554 0.54112
 H1571 H 0.25832 0.72419 0.45753
 H1572 H 0.24155 0.70691 0.47388
 O1573 O 0.29152 0.25095 0.97992
 O1574 O 0.28594 0.22350 0.98071
 O1575 O 0.25039 0.26976 0.95834
 O1576 O 0.22454 0.26945 0.96270
 O1577 O 0.26971 0.29128 0.99901
 O1578 O 0.26822 0.28551 1.02645
 O1579 O 0.20938 0.22855 1.00135
 O1580 O 0.21337 0.23185 0.97394
 O1581 O 0.24864 0.20869 1.01998
 O1582 O 0.27719 0.21414 1.01833
 O1583 O 0.22964 0.24771 1.04056
 O1584 O 0.23078 0.27623 1.03537
 O1585 O 0.20900 0.24768 1.01982
 O1586 O 0.21440 0.27644 1.01833
 O1587 O 0.24860 0.22907 1.04046
 O1588 O 0.27740 0.23119 1.03481
 O1589 O 0.23002 0.20838 1.00101
 O1590 O 0.23199 0.21380 0.97265
 O1591 O 0.29132 0.26974 0.99880
 O1592 O 0.28564 0.26788 1.02647
 O1593 O 0.25080 0.29144 0.98029
 O1594 O 0.22274 0.28523 0.98307
 O1595 O 0.26941 0.25112 0.95799
 O1596 O 0.26826 0.22339 0.96362
 Zr1597 Zr 0.26880 0.24134 0.98064
 O1598 O 0.25529 0.22606 0.99446
 Zr1599 Zr 0.24113 0.26873 0.98105
 O1600 O 0.22622 0.25448 0.99459
 Zr1601 Zr 0.26873 0.26858 1.00843
 O1602 O 0.25500 0.25465 1.02339
 Zr1603 Zr 0.23145 0.23074 0.99080
 O1604 O 0.24492 0.24492 0.97559
 Zr1605 Zr 0.25897 0.23094 1.01825
 O1606 O 0.27410 0.24486 1.00445
 Zr1607 Zr 0.23119 0.25821 1.01837
 O1608 O 0.24494 0.27375 1.00484
 O1609 O 0.26482 0.26494 0.98476
 O1610 O 0.23519 0.23450 1.01453
 C1611 C 0.29805 0.26202 0.98778
 C1612 C 0.26143 0.26214 0.95152
 C1613 C 0.26194 0.29800 0.98802
 C1614 C 0.20277 0.23607 1.01256
 C1615 C 0.23739 0.20208 1.01250
 C1616 C 0.23715 0.23635 1.04695
 H1617 H 0.25798 0.21510 0.99193
 H1618 H 0.25751 0.25715 1.03439
 H1619 H 0.27146 0.27166 0.97807
 H1620 H 0.21516 0.25672 0.99204
 H1621 H 0.21785 0.23704 0.96460
 H1622 H 0.21542 0.26317 0.96602
 H1623 H 0.27549 0.23995 1.04212
 H1624 H 0.29098 0.25763 1.02559
 H1625 H 0.24120 0.20698 0.97428
 H1626 H 0.25789 0.22404 0.95849
 H1627 H 0.24021 0.27508 1.04197
 H1628 H 0.25775 0.29045 1.02602
 H1629 H 0.29066 0.22355 0.99128
 H1630 H 0.27575 0.20727 1.00913
 H1631 H 0.22459 0.29120 0.99281
 H1632 H 0.20734 0.27474 1.00932
 C1633 C 0.28348 0.39330 0.78460
 C1634 C 0.27974 0.38849 0.79984
 C1635 C 0.28531 0.37405 0.80529
 C1636 C 0.29451 0.36434 0.79561
 C1637 C 0.29804 0.36937 0.78030
 C1638 C 0.29263 0.38386 0.77477
 C1639 C 0.27781 0.40858 0.77888
 C1640 C 0.28176 0.41353 0.76373
 C1641 C 0.27655 0.42819 0.75845
 C1642 C 0.26732 0.43781 0.76817
 C1643 C 0.26336 0.43255 0.78329
 C1644 C 0.26865 0.41801 0.78873
 C1645 C 0.29623 0.38914 0.75962
 C1646 C 0.29093 0.40374 0.75422
 C1647 C 0.27057 0.39827 0.80936
 C1648 C 0.26510 0.41277 0.80389
 H1649 H 0.30328 0.38197 0.75191
 H1650 H 0.29405 0.40740 0.74250
 H1651 H 0.26762 0.39470 0.82115
 H1652 H 0.25808 0.41996 0.81162
 H1653 H 0.28270 0.37054 0.81717
 H1654 H 0.30490 0.36198 0.77263
 H1655 H 0.27967 0.43210 0.74680
 H1656 H 0.25644 0.43991 0.79096
 C1657 C 0.28588 -0.10772 0.28427
 C1658 C 0.29971 -0.11398 0.27810
 C1659 C 0.30533 -0.12831 0.28383
 C1660 C 0.29724 -0.13659 0.29574
 C1661 C 0.28331 -0.12985 0.30175
 C1662 C 0.27765 -0.11552 0.29610
 C1663 C 0.27991 -0.09267 0.27824
 C1664 C 0.26609 -0.08636 0.28448
 C1665 C 0.26053 -0.07200 0.27881
 C1666 C 0.26868 -0.06393 0.26695
 C1667 C 0.28249 -0.07051 0.26077
 C1668 C 0.28817 -0.08485 0.26640
 C1669 C 0.26384 -0.10884 0.30204
 C1670 C 0.25818 -0.09450 0.29635
 C1671 C 0.30770 -0.10577 0.26630
 C1672 C 0.30203 -0.09146 0.26055
 H1673 H 0.25736 -0.11474 0.31120
 H1674 H 0.24752 -0.08975 0.30130
 H1675 H 0.31843 -0.11046 0.26145
 H1676 H 0.30855 -0.08552 0.25145
 H1677 H 0.31612 -0.13271 0.27899
 H1678 H 0.27655 -0.13569 0.31066
 H1679 H 0.24995 -0.06706 0.28375
 H1680 H 0.28897 -0.06440 0.25175
 C1681 C 0.79370 0.90275 0.79189
 C1682 C 0.78549 0.89428 0.80326
 C1683 C 0.79292 0.88186 0.81097
 C1684 C 0.80856 0.87764 0.80737
 C1685 C 0.81664 0.88665 0.79603
 C1686 C 0.80928 0.89912 0.78829
 C1687 C 0.78583 0.91568 0.78360
 C1688 C 0.79409 0.92420 0.77226
 C1689 C 0.78664 0.93662 0.76457
 C1690 C 0.77109 0.94070 0.76829
 C1691 C 0.76293 0.93190 0.77960
 C1692 C 0.77025 0.91936 0.78726
 C1693 C 0.81721 0.90800 0.77694
 C1694 C 0.80974 0.92032 0.76905
 C1695 C 0.76989 0.89829 0.80660
 C1696 C 0.76240 0.91060 0.79873
 H1697 H 0.82928 0.90538 0.77409
 H1698 H 0.81625 0.92686 0.76038
 H1699 H 0.76340 0.89185 0.81538
 H1700 H 0.75039 0.91335 0.80170
 H1701 H 0.78616 0.87530 0.81938
 H1702 H 0.82872 0.88423 0.79321
 H1703 H 0.79317 0.94346 0.75612
 H1704 H 0.75103 0.93500 0.78269
 C1705 C 0.46765 0.85909 0.28320
 C1706 C 0.45597 0.86700 0.27485
 C1707 C 0.45009 0.88119 0.28068
 C1708 C 0.45565 0.88758 0.29495
 C1709 C 0.46767 0.87938 0.30296
 C1710 C 0.47360 0.86520 0.29720
 C1711 C 0.47359 0.84397 0.27732
 C1712 C 0.48509 0.83594 0.28586
 C1713 C 0.49037 0.82137 0.28049
 C1714 C 0.48412 0.81469 0.26675
 C1715 C 0.47274 0.82305 0.25820
 C1716 C 0.46743 0.83769 0.26346
 C1717 C 0.48523 0.85688 0.30534
 C1718 C 0.49087 0.84249 0.29978
 C1719 C 0.45025 0.86046 0.26087
 C1720 C 0.45586 0.84605 0.25529
 H1721 H 0.48992 0.86147 0.31619
 H1722 H 0.49972 0.83639 0.30649
 H1723 H 0.44124 0.86646 0.25427
 H1724 H 0.45101 0.84135 0.24456
 H1725 H 0.44123 0.88711 0.27389
 H1726 H 0.47227 0.88358 0.31393
 H1727 H 0.49904 0.81506 0.28728
 H1728 H 0.46780 0.81807 0.24764
 C1729 C -0.04457 0.84914 0.79359
 C1730 C -0.05989 0.85313 0.78932
 C1731 C -0.06766 0.86509 0.79745
 C1732 C -0.06028 0.87326 0.80987
 C1733 C -0.04489 0.86867 0.81412
 C1734 C -0.03704 0.85673 0.80602
 C1735 C -0.03625 0.83675 0.78489
 C1736 C -0.02093 0.83269 0.78923
 C1737 C -0.01320 0.82066 0.78115
 C1738 C -0.02069 0.81269 0.76879
 C1739 C -0.03599 0.81716 0.76444
 C1740 C -0.04384 0.82909 0.77251
 C1741 C -0.02169 0.85235 0.81002
 C1742 C -0.01377 0.84056 0.80176
 C1743 C -0.06714 0.84511 0.77692
 C1744 C -0.05925 0.83331 0.76865
 H1745 H -0.01573 0.85810 0.81961
 H1746 H -0.00197 0.83754 0.80525
 H1747 H -0.07901 0.84800 0.77354
 H1748 H -0.06527 0.82743 0.75917
 H1749 H -0.07954 0.86775 0.79406
 H1750 H -0.03865 0.87455 0.82339
 H1751 H -0.00153 0.81725 0.78476
 H1752 H -0.04204 0.81097 0.75516
 C1753 C -0.04398 -0.09805 -0.04365
 C1754 C -0.03561 -0.10656 -0.05490
 C1755 C -0.04294 -0.11907 -0.06258
 C1756 C -0.05864 -0.12301 -0.05926
 C1757 C -0.06693 -0.11404 -0.04814
 C1758 C -0.05963 -0.10166 -0.04022
 C1759 C -0.03621 -0.08510 -0.03529
 C1760 C -0.04456 -0.07669 -0.02393
 C1761 C -0.03719 -0.06430 -0.01613
 C1762 C -0.02166 -0.06010 -0.01979
 C1763 C -0.01343 -0.06876 -0.03115
 C1764 C -0.02064 -0.08131 -0.03890
 C1765 C -0.06764 -0.09286 -0.02888
 C1766 C -0.06020 -0.08064 -0.02082
 C1767 C -0.02003 -0.10246 -0.05817
 C1768 C -0.01269 -0.09001 -0.05035
 H1769 H -0.07973 -0.09550 -0.02614
 H1770 H -0.06675 -0.07421 -0.01209
 H1771 H -0.01345 -0.10891 -0.06688
 H1772 H -0.00070 -0.08717 -0.05330
 H1773 H -0.03627 -0.12588 -0.07090
 H1774 H -0.07906 -0.11664 -0.04563
 H1775 H -0.04379 -0.05757 -0.00764
 H1776 H -0.00154 -0.06557 -0.03419
 C1777 C -0.03214 0.39076 0.46963
 C1778 C -0.04549 0.38400 0.47630
 C1779 C -0.05078 0.36945 0.47081
 C1780 C -0.04293 0.36151 0.45851
 C1781 C -0.02924 0.36855 0.45228
 C1782 C -0.02391 0.38311 0.45770
 C1783 C -0.02682 0.40628 0.47506
 C1784 C -0.01361 0.41317 0.46817
 C1785 C -0.00888 0.42813 0.47302
 C1786 C -0.01731 0.43626 0.48466
 C1787 C -0.03039 0.42901 0.49163
 C1788 C -0.03522 0.41406 0.48683
 C1789 C -0.01059 0.39028 0.45125
 C1790 C -0.00554 0.40505 0.45638
 C1791 C -0.05349 0.39206 0.48821
 C1792 C -0.04845 0.40683 0.49338
 H1793 H -0.00409 0.38449 0.44204
 H1794 H 0.00469 0.41022 0.45098
 H1795 H -0.06383 0.38697 0.49348
 H1796 H -0.05504 0.41269 0.50248
 H1797 H -0.06122 0.36470 0.47605
 H1798 H -0.02258 0.36292 0.44316
 H1799 H 0.00120 0.43352 0.46754
 H1800 H -0.03704 0.43510 0.50055
 C1801 C 0.46596 -0.10656 0.46516
 C1802 C 0.47223 -0.11287 0.45141
 C1803 C 0.46675 -0.12735 0.44596
 C1804 C 0.45495 -0.13571 0.45409
 C1805 C 0.44886 -0.12899 0.46799
 C1806 C 0.45429 -0.11450 0.47351
 C1807 C 0.47166 -0.09129 0.47090
 C1808 C 0.46531 -0.08492 0.48462
 C1809 C 0.47064 -0.07031 0.48992
 C1810 C 0.48228 -0.06209 0.48159
 C1811 C 0.48858 -0.06877 0.46788
 C1812 C 0.48328 -0.08332 0.46247
 C1813 C 0.44826 -0.10777 0.48725
 C1814 C 0.45365 -0.09323 0.49270
 C1815 C 0.48384 -0.10452 0.44327
 C1816 C 0.48926 -0.09000 0.44871
 H1817 H 0.43924 -0.11378 0.49383
 H1818 H 0.44864 -0.08844 0.50330
 H1819 H 0.48876 -0.10925 0.43259
 H1820 H 0.49820 -0.08394 0.44206
 H1821 H 0.47161 -0.13173 0.43517
 H1822 H 0.44007 -0.13498 0.47480
 H1823 H 0.46564 -0.06532 0.50045
 H1824 H 0.49744 -0.06256 0.46127
 C1825 C 0.46773 0.38929 -0.03383
 C1826 C 0.45646 0.38120 -0.02512
 C1827 C 0.45097 0.36670 -0.03052
 C1828 C 0.45650 0.36015 -0.04473
 C1829 C 0.46809 0.36857 -0.05313
 C1830 C 0.47366 0.38306 -0.04778
 C1831 C 0.47328 0.40471 -0.02837
 C1832 C 0.48441 0.41292 -0.03722
 C1833 C 0.48932 0.42777 -0.03220
 C1834 C 0.48308 0.43448 -0.01849
 C1835 C 0.47208 0.42593 -0.00963
 C1836 C 0.46714 0.41107 -0.01454
 C1837 C 0.48491 0.39155 -0.05625
 C1838 C 0.49019 0.40623 -0.05106
 C1839 C 0.45075 0.38784 -0.01120
 C1840 C 0.45598 0.40253 -0.00602
 H1841 H 0.48960 0.38687 -0.06705
 H1842 H 0.49878 0.41244 -0.05802
 H1843 H 0.44205 0.38170 -0.00433
 H1844 H 0.45115 0.40729 0.00469
 H1845 H 0.44242 0.36068 -0.02345
 H1846 H 0.47270 0.36423 -0.06404
 H1847 H 0.49772 0.43421 -0.03918
 H1848 H 0.46717 0.43091 0.00094
 C1849 C 0.78407 0.35968 0.46810
 C1850 C 0.79931 0.36456 0.47177
 C1851 C 0.80475 0.37892 0.46598
 C1852 C 0.79505 0.38848 0.45665
 C1853 C 0.77971 0.38340 0.45322
 C1854 C 0.77420 0.36898 0.45883
 C1855 C 0.77840 0.34444 0.47392
 C1856 C 0.76328 0.33938 0.46994
 C1857 C 0.75812 0.32466 0.47512
 C1858 C 0.76793 0.31511 0.48432
 C1859 C 0.78296 0.32055 0.48843
 C1860 C 0.78830 0.33513 0.48315
 C1861 C 0.75907 0.36362 0.45528
 C1862 C 0.75372 0.34905 0.46070
 C1863 C 0.80886 0.35492 0.48106
 C1864 C 0.80344 0.34047 0.48668
 H1865 H 0.75133 0.37069 0.44814
 H1866 H 0.74202 0.34530 0.45756
 H1867 H 0.82065 0.35855 0.48397
 H1868 H 0.81120 0.33336 0.49376
 H1869 H 0.81663 0.38247 0.46853
 H1870 H 0.77202 0.39068 0.44626
 H1871 H 0.74654 0.32060 0.47190
 H1872 H 0.79070 0.31324 0.49533
 C1873 C 0.79001 0.85238 -0.04221
 C1874 C 0.78457 0.85769 -0.05673
 C1875 C 0.79222 0.87018 -0.06410
 C1876 C 0.80537 0.87754 -0.05715
 C1877 C 0.81050 0.87192 -0.04239
 C1878 C 0.80294 0.85939 -0.03497
 C1879 C 0.78220 0.83901 -0.03458
 C1880 C 0.78791 0.83341 -0.02024
 C1881 C 0.78092 0.82021 -0.01341
 C1882 C 0.76834 0.81259 -0.02089
 C1883 C 0.76247 0.81871 -0.03505
 C1884 C 0.76944 0.83181 -0.04200
 C1885 C 0.80816 0.85364 -0.02047
 C1886 C 0.80080 0.84085 -0.01325
 C1887 C 0.77167 0.85026 -0.06373
 C1888 C 0.76422 0.83756 -0.05648
 H1889 H 0.81813 0.85896 -0.01473
 H1890 H 0.80533 0.83665 -0.00218
 H1891 H 0.76735 0.85423 -0.07496
 H1892 H 0.75440 0.83208 -0.06233
 H1893 H 0.78791 0.87379 -0.07540
 H1894 H 0.82031 0.87719 -0.03643
 H1895 H 0.78561 0.81560 -0.00257
 H1896 H 0.75294 0.81290 -0.04106
 C1897 C 0.78285 0.28091 0.39093
 C1898 C 0.79793 0.27685 0.38590
 C1899 C 0.80322 0.28218 0.37134
 C1900 C 0.79353 0.29147 0.36172
 C1901 C 0.77828 0.29515 0.36688
 C1902 C 0.77294 0.29003 0.38153
 C1903 C 0.77743 0.27575 0.40647
 C1904 C 0.76251 0.28018 0.41172
 C1905 C 0.75761 0.27565 0.42673
 C1906 C 0.76751 0.26662 0.43636
 C1907 C 0.78234 0.26208 0.43075
 C1908 C 0.78740 0.26671 0.41589
 C1909 C 0.75798 0.29401 0.38706
 C1910 C 0.75287 0.28922 0.40192
 C1911 C 0.80754 0.26773 0.39563
 C1912 C 0.80235 0.26271 0.41036
 H1913 H 0.75021 0.30103 0.37992
 H1914 H 0.74131 0.29269 0.40580
 H1915 H 0.81921 0.26450 0.39187
 H1916 H 0.81015 0.25576 0.41754
 H1917 H 0.81504 0.27942 0.36776
 H1918 H 0.77058 0.30206 0.35958
 H1919 H 0.74618 0.27918 0.43091
 H1920 H 0.79014 0.25529 0.43810
 C1921 C 0.78873 0.79107 -0.10491
 C1922 C 0.78365 0.80589 -0.10975
 C1923 C 0.79160 0.81357 -0.12186
 C1924 C 0.80473 0.80662 -0.12930
 C1925 C 0.80955 0.79159 -0.12409
 C1926 C 0.80165 0.78386 -0.11196
 C1927 C 0.78053 0.78307 -0.09200
 C1928 C 0.78585 0.76839 -0.08691
 C1929 C 0.77851 0.76118 -0.07414
 C1930 C 0.76601 0.76864 -0.06634
 C1931 C 0.76052 0.78316 -0.07198
 C1932 C 0.76781 0.79047 -0.08471
 C1933 C 0.80651 0.76904 -0.10668
 C1934 C 0.79875 0.76144 -0.09436
 C1935 C 0.77076 0.81287 -0.10227
 C1936 C 0.76298 0.80529 -0.08997
 H1937 H 0.81648 0.76332 -0.11201
 H1938 H 0.80300 0.75012 -0.09053
 H1939 H 0.76672 0.82434 -0.10588
 H1940 H 0.75319 0.81114 -0.08443
 H1941 H 0.78755 0.82508 -0.12511
 H1942 H 0.81934 0.78565 -0.12941
 H1943 H 0.78297 0.75008 -0.06990
 H1944 H 0.75106 0.78915 -0.06603
 C1945 C 0.28439 0.46614 0.85696
 C1946 C 0.27467 0.45651 0.86603
 C1947 C 0.28016 0.45087 0.88043
 C1948 C 0.29535 0.45461 0.88573
 C1949 C 0.30495 0.46423 0.87634
 C1950 C 0.29950 0.47009 0.86202
 C1951 C 0.27866 0.47215 0.84183
 C1952 C 0.28835 0.48187 0.83281
 C1953 C 0.28289 0.48747 0.81840
 C1954 C 0.26793 0.48323 0.81287
 C1955 C 0.25837 0.47348 0.82212
 C1956 C 0.26365 0.46797 0.83664
 C1957 C 0.30888 0.47980 0.85264
 C1958 C 0.30337 0.48563 0.83831
 C1959 C 0.25966 0.45269 0.86051
 C1960 C 0.25427 0.45827 0.84603
 H1961 H 0.32056 0.48294 0.85641
 H1962 H 0.31097 0.49311 0.83145
 H1963 H 0.25205 0.44525 0.86739
 H1964 H 0.24266 0.45496 0.84216
 H1965 H 0.27251 0.44372 0.88754
 H1966 H 0.31673 0.46703 0.88002
 H1967 H 0.29042 0.49484 0.81135
 H1968 H 0.24684 0.47013 0.81801
 C1969 C 0.28547 -0.03613 0.35570
 C1970 C 0.29695 -0.02753 0.36365
 C1971 C 0.30290 -0.03326 0.37783
 C1972 C 0.29755 -0.04763 0.38423
 C1973 C 0.28588 -0.05599 0.37589
 C1974 C 0.27987 -0.05032 0.36170
 C1975 C 0.27929 -0.03020 0.34071
 C1976 C 0.26790 -0.03889 0.33267
 C1977 C 0.26223 -0.03333 0.31831
 C1978 C 0.26796 -0.01923 0.31190
 C1979 C 0.27932 -0.01062 0.32023
 C1980 C 0.28502 -0.01605 0.33462
 C1981 C 0.26843 -0.05867 0.35334
 C1982 C 0.26254 -0.05306 0.33907
 C1983 C 0.30231 -0.01335 0.35724
 C1984 C 0.29647 -0.00772 0.34297
 H1985 H 0.26400 -0.06968 0.35783
 H1986 H 0.25379 -0.05990 0.33297
 H1987 H 0.31117 -0.00658 0.36328
 H1988 H 0.30099 0.00321 0.33841
 H1989 H 0.31153 -0.02624 0.38381
 H1990 H 0.28154 -0.06710 0.38006
 H1991 H 0.25361 -0.04017 0.31201
 H1992 H 0.28387 0.00022 0.31545
 C1993 C -0.04424 -0.04341 -0.09838
 C1994 C -0.05642 -0.03574 -0.10622
 C1995 C -0.06419 -0.04342 -0.11849
 C1996 C -0.05987 -0.05877 -0.12313
 C1997 C -0.04763 -0.06627 -0.11479
 C1998 C -0.03984 -0.05868 -0.10249
 C1999 C -0.03595 -0.03531 -0.08556
 C2000 C -0.02385 -0.04306 -0.07762
 C2001 C -0.01617 -0.03543 -0.06529
 C2002 C -0.02065 -0.02018 -0.06073
 C2003 C -0.03275 -0.01254 -0.06896
 C2004 C -0.04042 -0.02006 -0.08138
 C2005 C -0.02771 -0.06609 -0.09419
 C2006 C -0.01986 -0.05842 -0.08198
 C2007 C -0.06055 -0.02044 -0.10172
 C2008 C -0.05268 -0.01274 -0.08953
 H2009 H -0.02425 -0.07793 -0.09718
 H2010 H -0.01060 -0.06457 -0.07588
 H2011 H -0.06996 -0.01437 -0.10767
 H2012 H -0.05627 -0.00097 -0.08642
 H2013 H -0.07329 -0.03708 -0.12454
 H2014 H -0.04417 -0.07812 -0.11754
 H2015 H -0.00711 -0.04160 -0.05892
 H2016 H -0.03644 -0.00091 -0.06549
 C2017 C -0.03310 0.46884 0.39118
 C2018 C -0.04684 0.47509 0.38478
 C2019 C -0.05231 0.46943 0.37038
 C2020 C -0.04425 0.45741 0.36223
 C2021 C -0.03022 0.45156 0.36894
 C2022 C -0.02471 0.45714 0.38335
 C2023 C -0.02752 0.47449 0.40651
 C2024 C -0.01391 0.46801 0.41305
 C2025 C -0.00892 0.47306 0.42784
 C2026 C -0.01746 0.48451 0.43611
 C2027 C -0.03094 0.49108 0.42920
 C2028 C -0.03605 0.48605 0.41445
 C2029 C -0.01101 0.45109 0.39016
 C2030 C -0.00572 0.45641 0.40477
 C2031 C -0.05499 0.48678 0.39302
 C2032 C -0.04969 0.49216 0.40759
 H2033 H -0.00438 0.44205 0.38422
 H2034 H 0.00481 0.45132 0.40966
 H2035 H -0.06562 0.49173 0.38821
 H2036 H -0.05639 0.50109 0.41361
 H2037 H -0.06300 0.47440 0.36586
 H2038 H -0.02343 0.44261 0.36320
 H2039 H 0.00146 0.46790 0.43298
 H2040 H -0.03770 0.49983 0.43542
 C2041 C 0.46519 -0.03510 0.39306
 C2042 C 0.45592 -0.02540 0.38359
 C2043 C 0.45012 -0.03126 0.36940
 C2044 C 0.45339 -0.04676 0.36471
 C2045 C 0.46267 -0.05632 0.37447
 C2046 C 0.46864 -0.05053 0.38861
 C2047 C 0.47134 -0.02900 0.40799
 C2048 C 0.48063 -0.03871 0.41744
 C2049 C 0.48635 -0.03291 0.43166
 C2050 C 0.48264 -0.01759 0.43658
 C2051 C 0.47328 -0.00802 0.42694
 C2052 C 0.46766 -0.01365 0.41259
 C2053 C 0.47793 -0.05991 0.39841
 C2054 C 0.48385 -0.05409 0.41257
 C2055 C 0.45261 -0.01005 0.38852
 C2056 C 0.45834 -0.00429 0.40280
 H2057 H 0.48065 -0.07186 0.39512
 H2058 H 0.49095 -0.06171 0.41981
 H2059 H 0.44546 -0.00245 0.38132
 H2060 H 0.45542 0.00757 0.40620
 H2061 H 0.44319 -0.02369 0.36197
 H2062 H 0.46508 -0.06833 0.37122
 H2063 H 0.49334 -0.04047 0.43906
 H2064 H 0.47033 0.00377 0.43063
 C2065 C 0.46663 0.46840 -0.11094
 C2066 C 0.47492 0.45656 -0.11868
 C2067 C 0.46939 0.45094 -0.13307
 C2068 C 0.45545 0.45690 -0.13984
 C2069 C 0.44754 0.46913 -0.13183
 C2070 C 0.45302 0.47480 -0.11744
 C2071 C 0.47215 0.47400 -0.09557
 C2072 C 0.46366 0.48565 -0.08768
 C2073 C 0.46866 0.49056 -0.07284
 C2074 C 0.48199 0.48381 -0.06582
 C2075 C 0.49051 0.47233 -0.07409
 C2076 C 0.48562 0.46737 -0.08893
 C2077 C 0.44495 0.48661 -0.10929
 C2078 C 0.45017 0.49193 -0.09466
 C2079 C 0.48851 0.45038 -0.11177
 C2080 C 0.49376 0.45567 -0.09714
 H2081 H 0.43441 0.49167 -0.11419
 H2082 H 0.44351 0.50093 -0.08871
 H2083 H 0.49506 0.44124 -0.11763
 H2084 H 0.50418 0.45047 -0.09215
 H2085 H 0.47611 0.44192 -0.13882
 H2086 H 0.43686 0.47410 -0.13635
 H2087 H 0.46194 0.49935 -0.06663
 H2088 H 0.50078 0.46701 -0.06888
 C2089 C 0.46950 0.78399 0.35926
 C2090 C 0.47265 0.79948 0.36376
 C2091 C 0.46699 0.80496 0.37812
 C2092 C 0.45831 0.79507 0.38808
 C2093 C 0.45548 0.77946 0.38343
 C2094 C 0.46093 0.77391 0.36898
 C2095 C 0.47507 0.77830 0.34397
 C2096 C 0.47154 0.76294 0.33925
 C2097 C 0.47647 0.75776 0.32447
 C2098 C 0.48501 0.76778 0.31456
 C2099 C 0.48865 0.78306 0.31963
 C2100 C 0.48359 0.78842 0.33425
 C2101 C 0.45784 0.75854 0.36397
 C2102 C 0.46300 0.75317 0.34933
 C2103 C 0.48124 0.80925 0.35371
 C2104 C 0.48665 0.80380 0.33921
 H2105 H 0.45123 0.75064 0.37137
 H2106 H 0.46022 0.74129 0.34585
 H2107 H 0.48374 0.82123 0.35705
 H2108 H 0.49317 0.81174 0.33178
 H2109 H 0.46907 0.81705 0.38130
 H2110 H 0.44904 0.77163 0.39100
 H2111 H 0.47360 0.74599 0.32066
 H2112 H 0.49502 0.79097 0.31202
 C2113 C -0.04206 0.79457 0.84764
 C2114 C -0.03762 0.80973 0.85210
 C2115 C -0.04545 0.81709 0.86449
 C2116 C -0.05770 0.80941 0.87263
 C2117 C -0.06203 0.79416 0.86763
 C2118 C -0.05428 0.78676 0.85525
 C2119 C -0.03379 0.78674 0.83470
 C2120 C -0.03835 0.77162 0.83014
 C2121 C -0.03075 0.76440 0.81754
 C2122 C -0.01866 0.77222 0.80950
 C2123 C -0.01401 0.78727 0.81450
 C2124 C -0.02161 0.79461 0.82702
 C2125 C -0.05847 0.77159 0.85041
 C2126 C -0.05063 0.76415 0.83808
 C2127 C -0.02538 0.81725 0.84409
 C2128 C -0.01749 0.80980 0.83179
 H2129 H -0.06791 0.76542 0.85620
 H2130 H -0.05427 0.75248 0.83467
 H2131 H -0.02186 0.82899 0.84738
 H2132 H -0.00810 0.81599 0.82595
 H2133 H -0.04193 0.82884 0.86754
 H2134 H -0.07117 0.78769 0.87344
 H2135 H -0.03453 0.75289 0.81376
 H2136 H -0.00491 0.79354 0.80829
 C2137 C 0.39142 0.78183 0.28242
 C2138 C 0.38619 0.77765 0.29740
 C2139 C 0.37171 0.78323 0.30267
 C2140 C 0.36234 0.79286 0.29306
 C2141 C 0.36773 0.79674 0.27794
 C2142 C 0.38230 0.79135 0.27262
 C2143 C 0.40685 0.77634 0.27700
 C2144 C 0.41230 0.78085 0.26218
 C2145 C 0.42720 0.77598 0.25730
 C2146 C 0.43657 0.76658 0.26711
 C2147 C 0.43075 0.76196 0.28183
 C2148 C 0.41597 0.76690 0.28687
 C2149 C 0.38803 0.79543 0.25776
 C2150 C 0.40279 0.79031 0.25265
 C2151 C 0.39563 0.76813 0.30691
 C2152 C 0.41026 0.76281 0.30172
 H2153 H 0.38112 0.80276 0.25007
 H2154 H 0.40683 0.79385 0.24118
 H2155 H 0.39171 0.76482 0.31849
 H2156 H 0.41721 0.75555 0.30945
 H2157 H 0.36797 0.78034 0.31440
 H2158 H 0.36062 0.80393 0.27032
 H2159 H 0.43154 0.77960 0.24595
 H2160 H 0.43787 0.75486 0.28956
 C2161 C -0.09852 0.79471 0.79167
 C2162 C -0.10704 0.80617 0.78357
 C2163 C -0.11966 0.81356 0.79102
 C2164 C -0.12371 0.80971 0.80656
 C2165 C -0.11474 0.79838 0.81458
 C2166 C -0.10224 0.79078 0.80717
 C2167 C -0.08545 0.78666 0.78378
 C2168 C -0.07704 0.77510 0.79186
 C2169 C -0.06456 0.76758 0.78438
 C2170 C -0.06026 0.77169 0.76899
 C2171 C -0.06891 0.78328 0.76103
 C2172 C -0.08156 0.79075 0.76836
 C2173 C -0.09344 0.77924 0.81491
 C2174 C -0.08110 0.77149 0.80736
 C2175 C -0.10284 0.80993 0.76813
 C2176 C -0.09028 0.80239 0.76067
 H2177 H -0.09616 0.77611 0.82688
 H2178 H -0.07467 0.76260 0.81371
 H2179 H -0.10929 0.81879 0.76176
 H2180 H -0.08739 0.80569 0.74879
 H2181 H -0.12646 0.82205 0.78456
 H2182 H -0.11742 0.79548 0.82660
 H2183 H -0.05785 0.75891 0.79078
 H2184 H -0.06565 0.78667 0.74926
 C2185 C 0.85913 0.28409 0.46777
 C2186 C 0.86398 0.29932 0.47157
 C2187 C 0.87832 0.30483 0.46586
 C2188 C 0.88795 0.29519 0.45653
 C2189 C 0.88288 0.27988 0.45292
 C2190 C 0.86844 0.27431 0.45843
 C2191 C 0.84393 0.27833 0.47357
 C2192 C 0.83887 0.26322 0.46949
 C2193 C 0.82421 0.25796 0.47472
 C2194 C 0.81473 0.26768 0.48410
 C2195 C 0.82015 0.28271 0.48825
 C2196 C 0.83465 0.28814 0.48292
 C2197 C 0.86308 0.25919 0.45473
 C2198 C 0.84853 0.25376 0.46012
 C2199 C 0.85435 0.30879 0.48094
 C2200 C 0.83995 0.30328 0.48655
 H2201 H 0.87014 0.25152 0.44753
 H2202 H 0.84479 0.24207 0.45689
 H2203 H 0.85796 0.32057 0.48395
 H2204 H 0.83287 0.31097 0.49372
 H2205 H 0.88182 0.31671 0.46853
 H2206 H 0.89017 0.27223 0.44594
 H2207 H 0.82015 0.24640 0.47142
 H2208 H 0.81291 0.29040 0.49528
 C2209 C 0.85134 0.78918 -0.04458
 C2210 C 0.86087 0.79896 -0.03545
 C2211 C 0.87328 0.80700 -0.04257
 C2212 C 0.87609 0.80544 -0.05874
 C2213 C 0.86627 0.79564 -0.06770
 C2214 C 0.85395 0.78744 -0.06068
 C2215 C 0.83820 0.78081 -0.03720
 C2216 C 0.82858 0.77117 -0.04639
 C2217 C 0.81574 0.76373 -0.03947
 C2218 C 0.81224 0.76618 -0.02355
 C2219 C 0.82221 0.77563 -0.01442
 C2220 C 0.83523 0.78295 -0.02119
 C2221 C 0.84411 0.77763 -0.06949
 C2222 C 0.83166 0.76960 -0.06245
 C2223 C 0.85773 0.80057 -0.01940
 C2224 C 0.84509 0.79275 -0.01240
 H2225 H 0.84601 0.77621 -0.08193
 H2226 H 0.82428 0.76224 -0.06967
 H2227 H 0.86500 0.80807 -0.01221
 H2228 H 0.84294 0.79450 -0.00004
 H2229 H 0.88081 0.81433 -0.03549
 H2230 H 0.86805 0.79454 -0.08018
 H2231 H 0.80800 0.75673 -0.04670
 H2232 H 0.81956 0.77765 -0.00219
 C2233 C -0.09968 -0.04212 -0.04389
 C2234 C -0.10371 -0.03790 -0.05921
 C2235 C -0.11598 -0.04576 -0.06673
 C2236 C -0.12445 -0.05780 -0.05907
 C2237 C -0.11985 -0.06199 -0.04369
 C2238 C -0.10758 -0.05419 -0.03610
 C2239 C -0.08691 -0.03375 -0.03587
 C2240 C -0.08278 -0.03806 -0.02058
 C2241 C -0.07035 -0.03036 -0.01316
 C2242 C -0.06205 -0.01840 -0.02094
 C2243 C -0.06662 -0.01401 -0.03617
 C2244 C -0.07896 -0.02171 -0.04371
 C2245 C -0.10315 -0.05815 -0.02077
 C2246 C -0.09097 -0.05021 -0.01313
 C2247 C -0.09543 -0.02583 -0.06671
 C2248 C -0.08329 -0.01784 -0.05908
 H2249 H -0.10914 -0.06747 -0.01461
 H2250 H -0.08788 -0.05367 -0.00134
 H2251 H -0.09839 -0.02248 -0.07857
 H2252 H -0.07723 -0.00858 -0.06526
 H2253 H -0.11866 -0.04243 -0.07861
 H2254 H -0.12594 -0.07099 -0.03725
 H2255 H -0.06688 -0.03395 -0.00150
 H2256 H -0.06021 -0.00502 -0.04242
 C2257 C -0.11062 0.47002 0.46869
 C2258 C -0.11832 0.45809 0.47689
 C2259 C -0.13277 0.45257 0.47139
 C2260 C -0.13962 0.45869 0.45756
 C2261 C -0.13165 0.47101 0.44977
 C2262 C -0.11722 0.47660 0.45521
 C2263 C -0.09521 0.47554 0.47417
 C2264 C -0.08738 0.48729 0.46579
 C2265 C -0.07252 0.49216 0.47075
 C2266 C -0.06541 0.48525 0.48395
 C2267 C -0.07359 0.47364 0.49237
 C2268 C -0.08847 0.46873 0.48750
 C2269 C -0.10911 0.48850 0.44724
 C2270 C -0.09445 0.49374 0.45243
 C2271 C -0.11131 0.45173 0.49034
 C2272 C -0.09663 0.45694 0.49554
 H2273 H -0.11408 0.49370 0.43680
 H2274 H -0.08853 0.50282 0.44585
 H2275 H -0.11715 0.44252 0.49681
 H2276 H -0.09157 0.45160 0.50587
 H2277 H -0.13843 0.44344 0.47802
 H2278 H -0.13627 0.47620 0.43924
 H2279 H -0.06638 0.50104 0.46411
 H2280 H -0.06830 0.46822 0.50253
 C2281 C 0.39311 -0.03340 0.46387
 C2282 C 0.38520 -0.04505 0.47226
 C2283 C 0.37099 -0.05088 0.46650
 C2284 C 0.36453 -0.04531 0.45226
 C2285 C 0.37278 -0.03338 0.44416
 C2286 C 0.38699 -0.02746 0.44988
 C2287 C 0.40819 -0.02740 0.46979
 C2288 C 0.41619 -0.01584 0.46130
 C2289 C 0.43065 -0.01038 0.46682
 C2290 C 0.43720 -0.01650 0.48068
 C2291 C 0.42890 -0.02802 0.48910
 C2292 C 0.41441 -0.03351 0.48370
 C2293 C 0.39530 -0.01582 0.44175
 C2294 C 0.40964 -0.01011 0.44736
 C2295 C 0.39173 -0.05076 0.48624
 C2296 C 0.40609 -0.04511 0.49185
 H2297 H 0.39071 -0.01112 0.43091
 H2298 H 0.41570 -0.00119 0.44068
 H2299 H 0.38573 -0.05977 0.49285
 H2300 H 0.41075 -0.04992 0.50261
 H2301 H 0.36511 -0.05972 0.47334
 H2302 H 0.36851 -0.02873 0.43323
 H2303 H 0.43692 -0.00161 0.46015
 H2304 H 0.43377 -0.03286 0.49977
 C2305 C 0.38883 0.46734 -0.03187
 C2306 C 0.38217 0.45385 -0.02535
 C2307 C 0.36770 0.44852 -0.03093
 C2308 C 0.35975 0.45643 -0.04319
 C2309 C 0.36666 0.47026 -0.04925
 C2310 C 0.38114 0.47565 -0.04373
 C2311 C 0.40429 0.47270 -0.02637
 C2312 C 0.41108 0.48604 -0.03311
 C2313 C 0.42599 0.49079 -0.02822
 C2314 C 0.43419 0.48225 -0.01671
 C2315 C 0.42703 0.46904 -0.00987
 C2316 C 0.41211 0.46419 -0.01470
 C2317 C 0.38821 0.48912 -0.05002
 C2318 C 0.40293 0.49421 -0.04482
 C2319 C 0.39026 0.44576 -0.01353
 C2320 C 0.40498 0.45083 -0.00830
 H2321 H 0.38239 0.49568 -0.05917
 H2322 H 0.40803 0.50455 -0.05011
 H2323 H 0.38525 0.43531 -0.00837
 H2324 H 0.41088 0.44416 0.00072
 H2325 H 0.36306 0.43792 -0.02586
 H2326 H 0.36096 0.47699 -0.05829
 H2327 H 0.43131 0.50097 -0.03361
 H2328 H 0.43317 0.46232 -0.00104
 C2329 C 0.35693 0.46614 0.78367
 C2330 C 0.36600 0.45643 0.77402
 C2331 C 0.38043 0.45085 0.77954
 C2332 C 0.38573 0.45476 0.79468
 C2333 C 0.37635 0.46448 0.80419
 C2334 C 0.36203 0.47026 0.79871
 C2335 C 0.34175 0.47203 0.77795
 C2336 C 0.33274 0.48180 0.78759
 C2337 C 0.31828 0.48727 0.78217
 C2338 C 0.31266 0.48284 0.76731
 C2339 C 0.32187 0.47303 0.75777
 C2340 C 0.33648 0.46766 0.76302
 C2341 C 0.35265 0.48004 0.80803
 C2342 C 0.33828 0.48576 0.80254
 C2343 C 0.36042 0.45244 0.75908
 C2344 C 0.34589 0.45792 0.75369
 H2345 H 0.35646 0.48331 0.81967
 H2346 H 0.33142 0.49329 0.81008
 H2347 H 0.36730 0.44495 0.75152
 H2348 H 0.34198 0.45447 0.74214
 H2349 H 0.38753 0.44359 0.77199
 H2350 H 0.38004 0.46738 0.81594
 H2351 H 0.31125 0.49468 0.78968
 H2352 H 0.31768 0.46956 0.74632
 C2353 C 0.35643 -0.03617 0.28474
 C2354 C 0.36098 -0.05163 0.28147
 C2355 C 0.37518 -0.05725 0.28744
 C2356 C 0.38492 -0.04751 0.29655
 C2357 C 0.38015 -0.03200 0.29965
 C2358 C 0.36589 -0.02630 0.29384
 C2359 C 0.34143 -0.03025 0.27860
 C2360 C 0.33674 -0.01487 0.28209
 C2361 C 0.32232 -0.00940 0.27645
 C2362 C 0.31273 -0.01914 0.26723
 C2363 C 0.31774 -0.03448 0.26372
 C2364 C 0.33201 -0.04012 0.26947
 C2365 C 0.36088 -0.01094 0.29698
 C2366 C 0.34653 -0.00534 0.29125
 C2367 C 0.35118 -0.06118 0.27234
 C2368 C 0.33696 -0.05551 0.26641
 H2369 H 0.36807 -0.00321 0.30400
 H2370 H 0.34306 0.00654 0.29403
 H2371 H 0.35455 -0.07313 0.26975
 H2372 H 0.32974 -0.06327 0.25943
 H2373 H 0.37851 -0.06926 0.28516
 H2374 H 0.38757 -0.02430 0.30643
 H2375 H 0.31857 0.00241 0.27924
 H2376 H 0.31037 -0.04217 0.25683
 C2377 C 0.14047 0.53430 0.71801
 C2378 C 0.13118 0.52439 0.70878
 C2379 C 0.11673 0.52985 0.70322
 C2380 C 0.11162 0.54517 0.70668
 C2381 C 0.12117 0.55492 0.71597
 C2382 C 0.13555 0.54954 0.72171
 C2383 C 0.15574 0.52869 0.72377
 C2384 C 0.16505 0.53865 0.73294
 C2385 C 0.17966 0.53337 0.73816
 C2386 C 0.18513 0.51835 0.73406
 C2387 C 0.17559 0.50848 0.72490
 C2388 C 0.16085 0.51358 0.71977
 C2389 C 0.14519 0.55915 0.73094
 C2390 C 0.15967 0.55378 0.73649
 C2391 C 0.13659 0.50927 0.70520
 C2392 C 0.15120 0.50397 0.71056
 H2393 H 0.14152 0.57094 0.73386
 H2394 H 0.16678 0.56159 0.74352
 H2395 H 0.12954 0.50150 0.69808
 H2396 H 0.15499 0.49228 0.70740
 H2397 H 0.10947 0.52214 0.69627
 H2398 H 0.11760 0.56681 0.71852
 H2399 H 0.18696 0.54116 0.74503
 H2400 H 0.17968 0.49690 0.72166
 C2401 C 0.14192 0.03342 0.21484
 C2402 C 0.13281 0.04308 0.22450
 C2403 C 0.11867 0.04913 0.21875
 C2404 C 0.11370 0.04577 0.20337
 C2405 C 0.12308 0.03605 0.19387
 C2406 C 0.13714 0.02981 0.19956
 C2407 C 0.15686 0.02712 0.22077
 C2408 C 0.16598 0.01751 0.21107
 C2409 C 0.18030 0.01180 0.21663
 C2410 C 0.18569 0.01585 0.23169
 C2411 C 0.17632 0.02542 0.24131
 C2412 C 0.16185 0.03104 0.23592
 C2413 C 0.14658 0.02013 0.19021
 C2414 C 0.16075 0.01405 0.19588
 C2415 C 0.13808 0.04657 0.23967
 C2416 C 0.15239 0.04070 0.24527
 H2417 H 0.14303 0.01726 0.17839
 H2418 H 0.16771 0.00669 0.18827
 H2419 H 0.13116 0.05401 0.24725
 H2420 H 0.15609 0.04381 0.25698
 H2421 H 0.11154 0.05638 0.22630
 H2422 H 0.11962 0.03355 0.18196
 H2423 H 0.18747 0.00462 0.20902
 H2424 H 0.18034 0.02864 0.25290
 C2425 C 0.60356 0.71002 0.21028
 C2426 C 0.60858 0.69517 0.21518
 C2427 C 0.62164 0.68833 0.20799
 C2428 C 0.62990 0.69633 0.19613
 C2429 C 0.62465 0.71130 0.19146
 C2430 C 0.61143 0.71812 0.19838
 C2431 C 0.58974 0.71720 0.21770
 C2432 C 0.58451 0.73192 0.21257
 C2433 C 0.57111 0.73849 0.21937
 C2434 C 0.56298 0.73047 0.23128
 C2435 C 0.56864 0.71586 0.23649
 C2436 C 0.58193 0.70913 0.22966
 C2437 C 0.60594 0.73290 0.19366
 C2438 C 0.59267 0.73966 0.20059
 C2439 C 0.60045 0.68745 0.22719
 C2440 C 0.58741 0.69435 0.23437
 H2441 H 0.61189 0.73927 0.18446
 H2442 H 0.58875 0.75101 0.19651
 H2443 H 0.60423 0.67599 0.23111
 H2444 H 0.58153 0.68805 0.24365
 H2445 H 0.62522 0.67673 0.21160
 H2446 H 0.63087 0.71781 0.18258
 H2447 H 0.56687 0.74970 0.21520
 H2448 H 0.56246 0.70946 0.24552
 C2449 C 0.10988 0.71862 0.71575
 C2450 C 0.11481 0.70351 0.71993
 C2451 C 0.12921 0.69795 0.71442
 C2452 C 0.13880 0.70741 0.70488
 C2453 C 0.13368 0.72263 0.70094
 C2454 C 0.11919 0.72824 0.70626
 C2455 C 0.09460 0.72440 0.72130
 C2456 C 0.08948 0.73939 0.71685
 C2457 C 0.07474 0.74467 0.72187
 C2458 C 0.06527 0.73510 0.73138
 C2459 C 0.07075 0.72018 0.73588
 C2460 C 0.08532 0.71474 0.73078
 C2461 C 0.11376 0.74325 0.70219
 C2462 C 0.09914 0.74870 0.70735
 C2463 C 0.10517 0.69418 0.72942
 C2464 C 0.09069 0.69971 0.73479
 H2465 H 0.12083 0.75080 0.69487
 H2466 H 0.09535 0.76029 0.70384
 H2467 H 0.10884 0.68248 0.73271
 H2468 H 0.08358 0.69213 0.74205
 H2469 H 0.13276 0.68614 0.71735
 H2470 H 0.14096 0.73013 0.69380
 H2471 H 0.07064 0.75614 0.71831
 H2472 H 0.06351 0.71259 0.74302
 C2473 C 0.64298 0.21663 0.53514
 C2474 C 0.63339 0.20784 0.52512
 C2475 C 0.61894 0.20233 0.53061
 C2476 C 0.61410 0.20538 0.54609
 C2477 C 0.62398 0.21417 0.55599
 C2478 C 0.63837 0.21987 0.55055
 C2479 C 0.65817 0.22248 0.52942
 C2480 C 0.66771 0.23133 0.53944
 C2481 C 0.68216 0.23681 0.53398
 C2482 C 0.68722 0.23332 0.51867
 C2483 C 0.67750 0.22439 0.50878
 C2484 C 0.66291 0.21902 0.51408
 C2485 C 0.64828 0.22871 0.56026
 C2486 C 0.66269 0.23437 0.55478
 C2487 C 0.63847 0.20472 0.50980
 C2488 C 0.65300 0.21017 0.50439
 H2489 H 0.64486 0.23129 0.57218
 H2490 H 0.66998 0.24113 0.56265
 H2491 H 0.63118 0.19795 0.50194
 H2492 H 0.65650 0.20742 0.49253
 H2493 H 0.61144 0.19581 0.52276
 H2494 H 0.62061 0.21642 0.56797
 H2495 H 0.68963 0.24348 0.54178
 H2496 H 0.68127 0.22163 0.49700
 C2497 C 0.65152 0.70557 0.04290
 C2498 C 0.64918 0.70789 0.05898
 C2499 C 0.63689 0.70004 0.06649
 C2500 C 0.62689 0.69000 0.05802
 C2501 C 0.62959 0.68768 0.04192
 C2502 C 0.64189 0.69541 0.03431
 C2503 C 0.66427 0.71398 0.03490
 C2504 C 0.66671 0.71155 0.01884
 C2505 C 0.67905 0.71934 0.01134
 C2506 C 0.68884 0.72958 0.01979
 C2507 C 0.68604 0.73205 0.03585
 C2508 C 0.67386 0.72418 0.04349
 C2509 C 0.64467 0.69329 0.01826
 C2510 C 0.65690 0.70120 0.01066
 C2511 C 0.65914 0.71807 0.06722
 C2512 C 0.67127 0.72609 0.05960
 H2513 H 0.63735 0.68545 0.01151
 H2514 H 0.65869 0.69917 -0.00172
 H2515 H 0.65751 0.71990 0.07965
 H2516 H 0.67868 0.73383 0.06637
 H2517 H 0.63515 0.70172 0.07892
 H2518 H 0.62191 0.68016 0.03521
 H2519 H 0.68121 0.71721 -0.00096
 H2520 H 0.69369 0.73961 0.04257
 C2521 C 0.10842 0.03237 0.03348
 C2522 C 0.11354 0.02842 0.04856
 C2523 C 0.12801 0.03403 0.05384
 C2524 C 0.13745 0.04348 0.04414
 C2525 C 0.13216 0.04717 0.02895
 C2526 C 0.11762 0.04172 0.02360
 C2527 C 0.09304 0.02678 0.02801
 C2528 C 0.08774 0.03105 0.01306
 C2529 C 0.07289 0.02610 0.00811
 C2530 C 0.06341 0.01689 0.01797
 C2531 C 0.06907 0.01250 0.03282
 C2532 C 0.08382 0.01751 0.03794
 C2533 C 0.11202 0.04555 0.00863
 C2534 C 0.09732 0.04034 0.00346
 C2535 C 0.10400 0.01907 0.05814
 C2536 C 0.08940 0.01368 0.05291
 H2537 H 0.11901 0.05276 0.00089
 H2538 H 0.09338 0.04369 -0.00811
 H2539 H 0.10782 0.01594 0.06981
 H2540 H 0.08237 0.00656 0.06070
 H2541 H 0.13171 0.03130 0.06563
 H2542 H 0.13934 0.05423 0.02128
 H2543 H 0.06867 0.02954 -0.00335
 H2544 H 0.06184 0.00556 0.04059
 C2545 C 0.10712 0.53443 0.53449
 C2546 C 0.11650 0.54353 0.52455
 C2547 C 0.13104 0.54892 0.52995
 C2548 C 0.13616 0.54540 0.54523
 C2549 C 0.12651 0.53627 0.55502
 C2550 C 0.11203 0.53072 0.54970
 C2551 C 0.09180 0.52877 0.52890
 C2552 C 0.08244 0.51967 0.53886
 C2553 C 0.06785 0.51441 0.53356
 C2554 C 0.06248 0.51836 0.51847
 C2555 C 0.07204 0.52752 0.50863
 C2556 C 0.08675 0.53270 0.51378
 C2557 C 0.10232 0.52160 0.55934
 C2558 C 0.08778 0.51614 0.55400
 C2559 C 0.11111 0.54710 0.50943
 C2560 C 0.09647 0.54181 0.50416
 H2561 H 0.10597 0.51867 0.57111
 H2562 H 0.08063 0.50917 0.56181
 H2563 H 0.11823 0.55411 0.50164
 H2564 H 0.09273 0.54491 0.49245
 H2565 H 0.13838 0.55574 0.52221
 H2566 H 0.13009 0.53368 0.56688
 H2567 H 0.06053 0.50754 0.54131
 H2568 H 0.06804 0.53062 0.49701
 C2569 C 0.60964 0.03270 0.53206
 C2570 C 0.61876 0.04216 0.52221
 C2571 C 0.63332 0.04760 0.52753
 C2572 C 0.63871 0.04380 0.54266
 C2573 C 0.62935 0.03424 0.55233
 C2574 C 0.61486 0.02863 0.54708
 C2575 C 0.59422 0.02714 0.52664
 C2576 C 0.58508 0.01777 0.53655
 C2577 C 0.57032 0.01276 0.53147
 C2578 C 0.56454 0.01725 0.51669
 C2579 C 0.57394 0.02659 0.50686
 C2580 C 0.58882 0.03153 0.51176
 C2581 C 0.60540 0.01918 0.55663
 C2582 C 0.59077 0.01381 0.55144
 C2583 C 0.61305 0.04612 0.50731
 C2584 C 0.59832 0.04093 0.50219
 H2585 H 0.60930 0.01595 0.56825
 H2586 H 0.58381 0.00661 0.55921
 H2587 H 0.61997 0.05340 0.49959
 H2588 H 0.59431 0.04437 0.49068
 H2589 H 0.64043 0.05475 0.51987
 H2590 H 0.63311 0.03141 0.56407
 H2591 H 0.56316 0.00572 0.53923
 H2592 H 0.56964 0.03011 0.49546
 C2593 C 0.60015 0.54088 0.03967
 C2594 C 0.60290 0.55697 0.03776
 C2595 C 0.61589 0.56380 0.04508
 C2596 C 0.62621 0.55465 0.05416
 C2597 C 0.62319 0.53850 0.05594
 C2598 C 0.61014 0.53158 0.04881
 C2599 C 0.58650 0.53363 0.03201
 C2600 C 0.58356 0.51759 0.03416
 C2601 C 0.57038 0.51082 0.02710
 C2602 C 0.56031 0.51997 0.01778
 C2603 C 0.56359 0.53600 0.01559
 C2604 C 0.57658 0.54292 0.02279
 C2605 C 0.60687 0.51555 0.05062
 C2606 C 0.59377 0.50869 0.04349
 C2607 C 0.59260 0.56591 0.02857
 C2608 C 0.57968 0.55899 0.02118
 H2609 H 0.61448 0.50826 0.05768
 H2610 H 0.59162 0.49631 0.04527
 H2611 H 0.59457 0.57836 0.02705
 H2612 H 0.57204 0.56629 0.01418
 H2613 H 0.61784 0.57626 0.04383
 H2614 H 0.63108 0.53124 0.06269
 H2615 H 0.56787 0.49852 0.02896
 H2616 H 0.55574 0.54324 0.00874
 C2617 C 0.03164 0.03442 0.10929
 C2618 C 0.02607 0.04868 0.11518
 C2619 C 0.03203 0.05440 0.12936
 C2620 C 0.04369 0.04608 0.13777
 C2621 C 0.04886 0.03156 0.13158
 C2622 C 0.04296 0.02577 0.11740
 C2623 C 0.02567 0.02856 0.09419
 C2624 C 0.03147 0.01442 0.08814
 C2625 C 0.02614 0.00916 0.07354
 C2626 C 0.01511 0.01795 0.06497
 C2627 C 0.00922 0.03198 0.07140
 C2628 C 0.01453 0.03737 0.08595
 C2629 C 0.04832 0.01155 0.11108
 C2630 C 0.04269 0.00598 0.09669
 C2631 C 0.01480 0.05711 0.10665
 C2632 C 0.00914 0.05156 0.09228
 H2633 H 0.05706 0.00472 0.11723
 H2634 H 0.04726 -0.00495 0.09216
 H2635 H 0.01041 0.06816 0.11106
 H2636 H 0.00056 0.05849 0.08602
 H2637 H 0.02774 0.06557 0.13341
 H2638 H 0.05743 0.02454 0.13766
 H2639 H 0.03081 -0.00163 0.06875
 H2640 H 0.00084 0.03896 0.06491
 C2641 C 0.03410 0.53557 0.60766
 C2642 C 0.02995 0.55065 0.61270
 C2643 C 0.03563 0.55616 0.62707
 C2644 C 0.04522 0.54663 0.63656
 C2645 C 0.04916 0.53146 0.63128
 C2646 C 0.04374 0.52593 0.61681
 C2647 C 0.02827 0.52979 0.59249
 C2648 C 0.03265 0.51481 0.58730
 C2649 C 0.02726 0.50948 0.57274
 C2650 C 0.01741 0.51894 0.56349
 C2651 C 0.01300 0.53387 0.56902
 C2652 C 0.01849 0.53939 0.58344
 C2653 C 0.04777 0.51096 0.61129
 C2654 C 0.04238 0.50552 0.59676
 C2655 C 0.02020 0.55995 0.60326
 C2656 C 0.01451 0.55438 0.58891
 H2657 H 0.05522 0.50340 0.61823
 H2658 H 0.04584 0.49394 0.59290
 H2659 H 0.01690 0.57160 0.60702
 H2660 H 0.00697 0.56188 0.58203
 H2661 H 0.03267 0.56792 0.63070
 H2662 H 0.05630 0.52384 0.63845
 H2663 H 0.03074 0.49799 0.56862
 H2664 H 0.00555 0.54134 0.56197
 C2665 C 0.53228 0.03360 0.60872
 C2666 C 0.52585 0.04723 0.61517
 C2667 C 0.53142 0.05271 0.62958
 C2668 C 0.54349 0.04473 0.63773
 C2669 C 0.54964 0.03089 0.63092
 C2670 C 0.54413 0.02535 0.61649
 C2671 C 0.52661 0.02795 0.59343
 C2672 C 0.53320 0.01440 0.58687
 C2673 C 0.52806 0.00931 0.57215
 C2674 C 0.51642 0.01769 0.56397
 C2675 C 0.50979 0.03114 0.57088
 C2676 C 0.51489 0.03634 0.58556
 C2677 C 0.55034 0.01174 0.60962
 C2678 C 0.54499 0.00637 0.59505
 C2679 C 0.51405 0.05528 0.60698
 C2680 C 0.50867 0.04993 0.59243
 H2681 H 0.55950 0.00524 0.61550
 H2682 H 0.55018 -0.00409 0.59012
 H2683 H 0.50899 0.06585 0.61183
 H2684 H 0.49964 0.05654 0.58646
 H2685 H 0.52642 0.06341 0.63407
 H2686 H 0.55862 0.02417 0.63675
 H2687 H 0.53331 -0.00102 0.56698
 H2688 H 0.50092 0.03779 0.56471
 C2689 C 0.53911 0.53819 0.10177
 C2690 C 0.52979 0.54780 0.11126
 C2691 C 0.53625 0.55434 0.12485
 C2692 C 0.55198 0.55143 0.12896
 C2693 C 0.56122 0.54196 0.11908
 C2694 C 0.55482 0.53525 0.10553
 C2695 C 0.53226 0.53100 0.08766
 C2696 C 0.54154 0.52127 0.07823
 C2697 C 0.53496 0.51444 0.06485
 C2698 C 0.51925 0.51743 0.06076
 C2699 C 0.51013 0.52727 0.07035
 C2700 C 0.51656 0.53404 0.08384
 C2701 C 0.56380 0.52560 0.09569
 C2702 C 0.55727 0.51872 0.08228
 C2703 C 0.51414 0.55059 0.10705
 C2704 C 0.50766 0.54387 0.09355
 H2705 H 0.57597 0.52329 0.09842
 H2706 H 0.56460 0.51135 0.07502
 H2707 H 0.50683 0.55803 0.11426
 H2708 H 0.49555 0.54635 0.09070
 H2709 H 0.52890 0.56139 0.13237
 H2710 H 0.57338 0.53982 0.12189
 H2711 H 0.54221 0.50716 0.05741
 H2712 H 0.49809 0.52978 0.06726
 C2713 C 0.21651 0.53182 0.64047
 C2714 C 0.22646 0.54094 0.63112
 C2715 C 0.22104 0.54640 0.61660
 C2716 C 0.20570 0.54301 0.61151
 C2717 C 0.19594 0.53378 0.62112
 C2718 C 0.20130 0.52812 0.63554
 C2719 C 0.22202 0.52628 0.65586
 C2720 C 0.21201 0.51725 0.66523
 C2721 C 0.21715 0.51229 0.67998
 C2722 C 0.23211 0.51652 0.68552
 C2723 C 0.24205 0.52550 0.67590
 C2724 C 0.23708 0.53036 0.66102
 C2725 C 0.19165 0.51899 0.64523
 C2726 C 0.19693 0.51361 0.65980
 C2727 C 0.24155 0.54456 0.63656
 C2728 C 0.24675 0.53941 0.65127
 H2729 H 0.17989 0.51604 0.64154
 H2730 H 0.18909 0.50668 0.66695
 H2731 H 0.24936 0.55157 0.62945
 H2732 H 0.25840 0.54261 0.65509
 H2733 H 0.22878 0.55328 0.60932
 H2734 H 0.18404 0.53127 0.61764
 H2735 H 0.20932 0.50554 0.68732
 H2736 H 0.25358 0.52881 0.68002
 C2737 C 0.21722 0.03098 0.13983
 C2738 C 0.20201 0.02726 0.13489
 C2739 C 0.19665 0.03297 0.12050
 C2740 C 0.20639 0.04228 0.11094
 C2741 C 0.22170 0.04572 0.11606
 C2742 C 0.22714 0.04019 0.13054
 C2743 C 0.22277 0.02531 0.15516
 C2744 C 0.23783 0.02936 0.16032
 C2745 C 0.24285 0.02433 0.17513
 C2746 C 0.23296 0.01520 0.18465
 C2747 C 0.21799 0.01103 0.17911
 C2748 C 0.21279 0.01616 0.16445
 C2749 C 0.24222 0.04380 0.13599
 C2750 C 0.24746 0.03853 0.15065
 C2751 C 0.19238 0.01806 0.14452
 C2752 C 0.19770 0.01257 0.15904
 H2753 H 0.25000 0.05090 0.12894
 H2754 H 0.25912 0.04172 0.15448
 H2755 H 0.18062 0.01512 0.14082
 H2756 H 0.18988 0.00555 0.16613
 H2757 H 0.18476 0.03044 0.11696
 H2758 H 0.22941 0.05268 0.10881
 H2759 H 0.25439 0.02760 0.17927
 H2760 H 0.21018 0.00419 0.18639
 C2761 C 0.71433 0.21648 0.60747
 C2762 C 0.71770 0.20111 0.61220
 C2763 C 0.71205 0.19574 0.62662
 C2764 C 0.70320 0.20567 0.63641
 C2765 C 0.69995 0.22108 0.63141
 C2766 C 0.70541 0.22651 0.61693
 C2767 C 0.72025 0.22219 0.59231
 C2768 C 0.71672 0.23750 0.58747
 C2769 C 0.72227 0.24282 0.57297
 C2770 C 0.73146 0.23298 0.56345
 C2771 C 0.73496 0.21768 0.56857
 C2772 C 0.72930 0.21219 0.58293
 C2773 C 0.70217 0.24179 0.61172
 C2774 C 0.70768 0.24717 0.59722
 C2775 C 0.72668 0.19141 0.60242
 C2776 C 0.73241 0.19687 0.58804
 H2777 H 0.69528 0.24964 0.61891
 H2778 H 0.70486 0.25901 0.59363
 H2779 H 0.72934 0.17951 0.60593
 H2780 H 0.73931 0.18902 0.58086
 H2781 H 0.71443 0.18380 0.63011
 H2782 H 0.69336 0.22894 0.63884
 H2783 H 0.71948 0.25459 0.56913
 H2784 H 0.74182 0.20991 0.56125
 C2785 C 0.70975 0.70853 0.09916
 C2786 C 0.71247 0.69269 0.10260
 C2787 C 0.70556 0.68609 0.11592
 C2788 C 0.69607 0.69523 0.12585
 C2789 C 0.69329 0.71105 0.12204
 C2790 C 0.70008 0.71776 0.10871
 C2791 C 0.71723 0.71563 0.08536
 C2792 C 0.71444 0.73146 0.08187
 C2793 C 0.72148 0.73811 0.06864
 C2794 C 0.73133 0.72906 0.05900
 C2795 C 0.73409 0.71322 0.06278
 C2796 C 0.72699 0.70643 0.07588
 C2797 C 0.69753 0.73354 0.10482
 C2798 C 0.70455 0.74026 0.09160
 C2799 C 0.72214 0.68380 0.09271
 C2800 C 0.72928 0.69056 0.07957
 H2801 H 0.69005 0.74076 0.11207
 H2802 H 0.70225 0.75246 0.08900
 H2803 H 0.72427 0.67154 0.09519
 H2804 H 0.73667 0.68330 0.07225
 H2805 H 0.70756 0.67384 0.11852
 H2806 H 0.68617 0.71827 0.12964
 H2807 H 0.71914 0.75025 0.06575
 H2808 H 0.74135 0.70603 0.05527
 C2809 C 0.54306 0.70744 0.15009
 C2810 C 0.53428 0.69723 0.14069
 C2811 C 0.54157 0.68968 0.12807
 C2812 C 0.55760 0.69211 0.12493
 C2813 C 0.56621 0.70232 0.13464
 C2814 C 0.55900 0.71006 0.14715
 C2815 C 0.53547 0.71543 0.16336
 C2816 C 0.54429 0.72563 0.17273
 C2817 C 0.53712 0.73299 0.18546
 C2818 C 0.52132 0.72998 0.18912
 C2819 C 0.51261 0.71974 0.17956
 C2820 C 0.51962 0.71250 0.16658
 C2821 C 0.56745 0.72032 0.15684
 C2822 C 0.56020 0.72802 0.16938
 C2823 C 0.51839 0.69475 0.14415
 C2824 C 0.51121 0.70220 0.15691
 H2825 H 0.57977 0.72242 0.15471
 H2826 H 0.56713 0.73581 0.17659
 H2827 H 0.51148 0.68689 0.13699
 H2828 H 0.49898 0.69983 0.15926
 H2829 H 0.53471 0.68205 0.12065
 H2830 H 0.57858 0.70411 0.13262
 H2831 H 0.54405 0.74060 0.19289
 H2832 H 0.50048 0.71727 0.18233
 C2833 C 0.03390 0.72014 0.63887
 C2834 C 0.04908 0.72395 0.63393
 C2835 C 0.05452 0.71816 0.61960
 C2836 C 0.04489 0.70869 0.61009
 C2837 C 0.02956 0.70523 0.61517
 C2838 C 0.02407 0.71081 0.62960
 C2839 C 0.02832 0.72580 0.65418
 C2840 C 0.01331 0.72161 0.65937
 C2841 C 0.00827 0.72658 0.67419
 C2842 C 0.01811 0.73580 0.68370
 C2843 C 0.03302 0.74012 0.67813
 C2844 C 0.03823 0.73505 0.66346
 C2845 C 0.00901 0.70709 0.63506
 C2846 C 0.00374 0.71234 0.64971
 C2847 C 0.05862 0.73329 0.64352
 C2848 C 0.05327 0.73879 0.65802
 H2849 H 0.00128 0.69991 0.62802
 H2850 H -0.00788 0.70905 0.65355
 H2851 H 0.07036 0.73632 0.63982
 H2852 H 0.06103 0.74589 0.66509
 H2853 H 0.06640 0.72075 0.61611
 H2854 H 0.02190 0.69818 0.60796
 H2855 H -0.00321 0.72320 0.67835
 H2856 H 0.04078 0.74705 0.68539
 C2857 C 0.53710 0.64452 0.21324
 C2858 C 0.52824 0.63615 0.20224
 C2859 C 0.53440 0.62236 0.19578
 C2860 C 0.54944 0.61702 0.20007
 C2861 C 0.55816 0.62572 0.21108
 C2862 C 0.55202 0.63938 0.21776
 C2863 C 0.53071 0.65905 0.22004
 C2864 C 0.53960 0.66739 0.23106
 C2865 C 0.53363 0.68135 0.23726
 C2866 C 0.51898 0.68715 0.23236
 C2867 C 0.51014 0.67850 0.22142
 C2868 C 0.51595 0.66442 0.21525
 C2869 C 0.56054 0.64803 0.22885
 C2870 C 0.55439 0.66175 0.23544
 C2871 C 0.51341 0.64179 0.19788
 C2872 C 0.50740 0.65571 0.20423
 H2873 H 0.57206 0.64415 0.23246
 H2874 H 0.56131 0.66803 0.24399
 H2875 H 0.50645 0.63544 0.18940
 H2876 H 0.49599 0.65972 0.20043
 H2877 H 0.52743 0.61577 0.18752
 H2878 H 0.56983 0.62205 0.21433
 H2879 H 0.54063 0.68792 0.24555
 H2880 H 0.49887 0.68282 0.21753
 C2881 C 0.03292 0.64206 0.71737
 C2882 C 0.02275 0.63254 0.70866
 C2883 C 0.02795 0.61780 0.70355
 C2884 C 0.04327 0.61265 0.70692
 C2885 C 0.05326 0.62242 0.71572
 C2886 C 0.04814 0.63708 0.72100
 C2887 C 0.02762 0.65764 0.72260
 C2888 C 0.03784 0.66716 0.73124
 C2889 C 0.03285 0.68203 0.73600
 C2890 C 0.01783 0.68754 0.73198
 C2891 C 0.00770 0.67781 0.72332
 C2892 C 0.01253 0.66280 0.71865
 C2893 C 0.05802 0.64694 0.72969
 C2894 C 0.05295 0.66171 0.73475
 C2895 C 0.00765 0.63802 0.70512
 C2896 C 0.00265 0.65291 0.70999
 H2897 H 0.06980 0.64323 0.73255
 H2898 H 0.06096 0.66898 0.74137
 H2899 H -0.00032 0.63079 0.69842
 H2900 H -0.00904 0.65673 0.70690
 H2901 H 0.02007 0.61038 0.69697
 H2902 H 0.06515 0.61884 0.71817
 H2903 H 0.04083 0.68946 0.74250
 H2904 H -0.00387 0.68193 0.72017
 C2905 C 0.03221 0.10934 0.03497
 C2906 C 0.02885 0.11376 0.05041
 C2907 C 0.03478 0.12793 0.05618
 C2908 C 0.04396 0.13776 0.04662
 C2909 C 0.04700 0.13319 0.03105
 C2910 C 0.04127 0.11894 0.02522
 C2911 C 0.02635 0.09423 0.02900
 C2912 C 0.03009 0.08956 0.01370
 C2913 C 0.02490 0.07493 0.00826
 C2914 C 0.01589 0.06514 0.01798
 C2915 C 0.01203 0.07019 0.03320
 C2916 C 0.01735 0.08463 0.03881
 C2917 C 0.04455 0.11400 0.00988
 C2918 C 0.03911 0.09953 0.00424
 C2919 C 0.01978 0.10384 0.05987
 C2920 C 0.01409 0.08953 0.05415
 H2921 H 0.05153 0.12130 0.00222
 H2922 H 0.04205 0.09610 -0.00759
 H2923 H 0.01711 0.10712 0.07181
 H2924 H 0.00721 0.08217 0.06185
 H2925 H 0.03253 0.13105 0.06823
 H2926 H 0.05383 0.14067 0.02345
 H2927 H 0.02793 0.07114 -0.00345
 H2928 H 0.00531 0.06266 0.04089
 C2929 C 0.03495 0.60806 0.53477
 C2930 C 0.03111 0.61315 0.54988
 C2931 C 0.03709 0.62744 0.55532
 C2932 C 0.04674 0.63677 0.54569
 C2933 C 0.05037 0.63145 0.53049
 C2934 C 0.04460 0.61708 0.52502
 C2935 C 0.02883 0.59295 0.52906
 C2936 C 0.03291 0.58771 0.51405
 C2937 C 0.02733 0.57317 0.50882
 C2938 C 0.01758 0.56397 0.51844
 C2939 C 0.01342 0.56957 0.53338
 C2940 C 0.01911 0.58398 0.53879
 C2941 C 0.04830 0.61152 0.51000
 C2942 C 0.04261 0.59706 0.50463
 C2943 C 0.02137 0.60382 0.55929
 C2944 C 0.01543 0.58951 0.55382
 H2945 H 0.05574 0.61837 0.50235
 H2946 H 0.04583 0.59317 0.49301
 H2947 H 0.01830 0.60762 0.57099
 H2948 H 0.00793 0.58270 0.56143
 H2949 H 0.03437 0.63114 0.56710
 H2950 H 0.05754 0.63852 0.52282
 H2951 H 0.03059 0.56901 0.49729
 H2952 H 0.00605 0.56257 0.54095
 C2953 C 0.53260 0.11009 0.53269
 C2954 C 0.54207 0.11932 0.52296
 C2955 C 0.54762 0.13378 0.52849
 C2956 C 0.54391 0.13895 0.54372
 C2957 C 0.53438 0.12945 0.55328
 C2958 C 0.52866 0.11508 0.54782
 C2959 C 0.52688 0.09481 0.52703
 C2960 C 0.51747 0.08558 0.53682
 C2961 C 0.51228 0.07096 0.53151
 C2962 C 0.51664 0.06540 0.51661
 C2963 C 0.52603 0.07486 0.50689
 C2964 C 0.53113 0.08962 0.51204
 C2965 C 0.51920 0.10551 0.55727
 C2966 C 0.51367 0.09103 0.55185
 C2967 C 0.54590 0.11384 0.50794
 C2968 C 0.54056 0.09922 0.50259
 H2969 H 0.51608 0.10923 0.56897
 H2970 H 0.50647 0.08397 0.55953
 H2971 H 0.55319 0.12084 0.50030
 H2972 H 0.54391 0.09538 0.49099
 H2973 H 0.55475 0.14099 0.52091
 H2974 H 0.53164 0.13304 0.56510
 H2975 H 0.50524 0.06373 0.53918
 H2976 H 0.52945 0.07070 0.49542
 C2977 C 0.54303 0.59707 0.04389
 C2978 C 0.54076 0.59953 0.05996
 C2979 C 0.54876 0.61179 0.06740
 C2980 C 0.55888 0.62164 0.05887
 C2981 C 0.56112 0.61883 0.04277
 C2982 C 0.55326 0.60655 0.03524
 C2983 C 0.53450 0.58433 0.03596
 C2984 C 0.53691 0.58174 0.01992
 C2985 C 0.52903 0.56939 0.01251
 C2986 C 0.51871 0.55975 0.02102
 C2987 C 0.51626 0.56272 0.03706
 C2988 C 0.52422 0.57489 0.04461
 C2989 C 0.55534 0.60363 0.01920
 C2990 C 0.54734 0.59141 0.01168
 C2991 C 0.53049 0.58973 0.06826
 C2992 C 0.52235 0.57762 0.06071
 H2993 H 0.56325 0.61084 0.01241
 H2994 H 0.54935 0.58950 -0.00068
 H2995 H 0.52869 0.59146 0.08068
 H2996 H 0.51455 0.57032 0.06753
 H2997 H 0.54713 0.61361 0.07982
 H2998 H 0.56867 0.62639 0.03598
 H2999 H 0.53114 0.56711 0.00022
 H3000 H 0.50863 0.55518 0.04383
 C3001 C 0.71501 0.14364 0.53488
 C3002 C 0.70374 0.13557 0.52612
 C3003 C 0.69820 0.12108 0.53151
 C3004 C 0.70382 0.11446 0.54565
 C3005 C 0.71517 0.12299 0.55425
 C3006 C 0.72076 0.13748 0.54894
 C3007 C 0.72089 0.15887 0.52925
 C3008 C 0.73215 0.16696 0.53806
 C3009 C 0.73765 0.18146 0.53270
 C3010 C 0.73189 0.18796 0.51867
 C3011 C 0.72060 0.17963 0.50996
 C3012 C 0.71508 0.16508 0.51520
 C3013 C 0.73199 0.14595 0.55747
 C3014 C 0.73759 0.16044 0.55212
 C3015 C 0.69823 0.14214 0.51209
 C3016 C 0.70380 0.15665 0.50673
 H3017 H 0.73650 0.14134 0.56838
 H3018 H 0.74623 0.16659 0.55906
 H3019 H 0.68953 0.13603 0.50519
 H3020 H 0.69921 0.16131 0.49587
 H3021 H 0.68976 0.11497 0.52436
 H3022 H 0.71961 0.11870 0.56526
 H3023 H 0.74622 0.18777 0.53959
 H3024 H 0.71604 0.18449 0.49918
 C3025 C 0.70697 0.64987 0.04159
 C3026 C 0.71611 0.64024 0.05126
 C3027 C 0.70912 0.62738 0.05870
 C3028 C 0.69307 0.62416 0.05661
 C3029 C 0.68402 0.63426 0.04718
 C3030 C 0.69092 0.64704 0.03956
 C3031 C 0.71436 0.66310 0.03334
 C3032 C 0.70523 0.67258 0.02352
 C3033 C 0.71230 0.68510 0.01565
 C3034 C 0.72834 0.68835 0.01775
 C3035 C 0.73731 0.67873 0.02771
 C3036 C 0.73038 0.66603 0.03547
 C3037 C 0.68212 0.65696 0.02983
 C3038 C 0.68917 0.66949 0.02191
 C3039 C 0.73211 0.64356 0.05314
 C3040 C 0.73911 0.65628 0.04543
 H3041 H 0.66971 0.65495 0.02823
 H3042 H 0.68199 0.67681 0.01446
 H3043 H 0.73929 0.63626 0.06061
 H3044 H 0.75146 0.65845 0.04723
 H3045 H 0.71628 0.61969 0.06577
 H3046 H 0.67162 0.63217 0.04571
 H3047 H 0.70517 0.69261 0.00832
 H3048 H 0.74961 0.68123 0.02955
 C3049 C 0.21764 0.61049 0.71780
 C3050 C 0.20246 0.61554 0.72147
 C3051 C 0.19728 0.63009 0.71592
 C3052 C 0.20717 0.63968 0.70682
 C3053 C 0.22247 0.63446 0.70346
 C3054 C 0.22772 0.61983 0.70882
 C3055 C 0.22301 0.59501 0.72329
 C3056 C 0.23805 0.58975 0.71930
 C3057 C 0.24292 0.57483 0.72419
 C3058 C 0.23289 0.56529 0.73316
 C3059 C 0.21792 0.57090 0.73723
 C3060 C 0.21288 0.58567 0.73223
 C3061 C 0.24278 0.61428 0.70525
 C3062 C 0.24784 0.59947 0.71035
 C3063 C 0.19267 0.60586 0.73045
 C3064 C 0.19781 0.59119 0.73577
 H3065 H 0.25069 0.62137 0.69833
 H3066 H 0.25949 0.59558 0.70721
 H3067 H 0.18092 0.60962 0.73334
 H3068 H 0.18987 0.58406 0.74262
 H3069 H 0.18541 0.63371 0.71840
 H3070 H 0.23030 0.64173 0.69667
 H3071 H 0.25446 0.57063 0.72100
 H3072 H 0.21002 0.56360 0.74395
 C3073 C 0.21632 0.10791 0.21667
 C3074 C 0.22604 0.11715 0.20720
 C3075 C 0.22044 0.13155 0.20158
 C3076 C 0.20514 0.13663 0.20517
 C3077 C 0.19561 0.12714 0.21474
 C3078 C 0.20115 0.11283 0.22056
 C3079 C 0.22203 0.09266 0.22242
 C3080 C 0.21224 0.08340 0.23181
 C3081 C 0.21757 0.06878 0.23698
 C3082 C 0.23249 0.06324 0.23262
 C3083 C 0.24221 0.07274 0.22327
 C3084 C 0.23705 0.08750 0.21819
 C3085 C 0.19173 0.10326 0.23003
 C3086 C 0.19720 0.08881 0.23560
 C3087 C 0.24109 0.11172 0.20342
 C3088 C 0.24648 0.09713 0.20878
 H3089 H 0.18000 0.10694 0.23312
 H3090 H 0.18953 0.08175 0.24280
 H3091 H 0.24872 0.11874 0.19613
 H3092 H 0.25811 0.09332 0.20545
 H3093 H 0.22801 0.13876 0.19444
 H3094 H 0.18375 0.13064 0.21742
 H3095 H 0.20990 0.06153 0.24400
 H3096 H 0.25370 0.06861 0.21985
 C3097 C 0.71707 1.11175 0.71858
 C3098 C 0.72706 1.12122 0.70964
 C3099 C 0.72169 1.13583 0.70436
 C3100 C 0.70636 1.14091 0.70779
 C3101 C 0.69655 1.13119 0.71686
 C3102 C 0.70185 1.11666 0.72230
 C3103 C 0.72254 1.09628 0.72395
 C3104 C 0.71249 1.08679 0.73281
 C3105 C 0.71762 1.07199 0.73765
 C3106 C 0.73262 1.06652 0.73349
 C3107 C 0.74259 1.07623 0.72465
 C3108 C 0.73762 1.09116 0.71990
 C3109 C 0.69214 1.10684 0.73122
 C3110 C 0.69739 1.09217 0.73642
 C3111 C 0.74216 1.11581 0.70602
 C3112 C 0.74733 1.10102 0.71102
 H3113 H 0.68037 1.11050 0.73416
 H3114 H 0.68951 1.08492 0.74321
 H3115 H 0.75000 1.12301 0.69913
 H3116 H 0.75901 1.09724 0.70784
 H3117 H 0.72943 1.14321 0.69758
 H3118 H 0.68466 1.13472 0.71938
 H3119 H 0.70976 1.06457 0.74428
 H3120 H 0.75415 1.07215 0.72139
 C3121 C 0.71503 0.60419 0.21084
 C3122 C 0.71753 0.60752 0.19497
 C3123 C 0.71062 0.62085 0.18838
 C3124 C 0.70132 0.63096 0.19755
 C3125 C 0.69912 0.62750 0.21353
 C3126 C 0.70584 0.61406 0.22020
 C3127 C 0.72193 0.58993 0.21770
 C3128 C 0.71899 0.58629 0.23344
 C3129 C 0.72502 0.57234 0.23972
 C3130 C 0.73401 0.56217 0.23036
 C3131 C 0.73714 0.56625 0.21469
 C3132 C 0.73099 0.58001 0.20827
 C3133 C 0.70341 0.61020 0.23599
 C3134 C 0.70982 0.59651 0.24248
 C3135 C 0.72673 0.59733 0.18592
 C3136 C 0.73338 0.58382 0.19247
 H3137 H 0.69634 0.61772 0.24335
 H3138 H 0.70748 0.59386 0.25465
 H3139 H 0.72873 0.59976 0.17365
 H3140 H 0.74029 0.57620 0.18505
 H3141 H 0.71222 0.62310 0.17604
 H3142 H 0.69220 0.63521 0.22081
 H3143 H 0.72249 0.56928 0.25175
 H3144 H 0.74382 0.55840 0.20729
 C3145 C 0.53006 0.13992 0.71705
 C3146 C 0.52400 0.13358 0.70321
 C3147 C 0.52967 0.11915 0.69781
 C3148 C 0.54152 0.11091 0.70603
 C3149 C 0.54720 0.11756 0.72014
 C3150 C 0.54159 0.13200 0.72560
 C3151 C 0.52439 0.15528 0.72256
 C3152 C 0.53066 0.16175 0.73628
 C3153 C 0.52558 0.17656 0.74123
 C3154 C 0.51433 0.18493 0.73252
 C3155 C 0.50798 0.17811 0.71890
 C3156 C 0.51303 0.16332 0.71384
 C3157 C 0.54743 0.13876 0.73941
 C3158 C 0.54208 0.15339 0.74465
 C3159 C 0.51252 0.14191 0.69486
 C3160 C 0.50714 0.15654 0.70009
 H3161 H 0.55633 0.13275 0.74616
 H3162 H 0.54701 0.15824 0.75527
 H3163 H 0.50774 0.13715 0.68414
 H3164 H 0.49838 0.16263 0.69323
 H3165 H 0.52497 0.11475 0.68695
 H3166 H 0.55594 0.11164 0.72708
 H3167 H 0.53059 0.18164 0.75171
 H3168 H 0.49941 0.18443 0.71201
 C3169 C 1.03594 0.14472 0.21478
 C3170 C 1.04509 0.13510 0.22445
 C3171 C 1.05069 0.12081 0.21860
 C3172 C 1.04734 0.11616 0.20312
 C3173 C 1.03823 0.12609 0.19357
 C3174 C 1.03245 0.14032 0.19936
 C3175 C 1.02995 0.15971 0.22089
 C3176 C 1.02073 0.16928 0.21123
 C3177 C 1.01511 0.18354 0.21707
 C3178 C 1.01883 0.18838 0.23239
 C3179 C 1.02813 0.17864 0.24191
 C3180 C 1.03365 0.16424 0.23624
 C3181 C 1.02327 0.15026 0.19001
 C3182 C 1.01748 0.16448 0.19585
 C3183 C 1.04846 0.13998 0.23979
 C3184 C 1.04289 0.15433 0.24556
 H3185 H 1.02051 0.14701 0.17807
 H3186 H 1.01045 0.17181 0.18826
 H3187 H 1.05552 0.13267 0.24737
 H3188 H 1.04583 0.15768 0.25742
 H3189 H 1.05748 0.11326 0.22617
 H3190 H 1.03577 0.12288 0.18158
 H3191 H 1.00815 0.19103 0.20955
 H3192 H 1.03110 0.18226 0.25370
 C3193 C 0.21594 0.64256 0.53456
 C3194 C 0.21996 0.63760 0.54968
 C3195 C 0.21403 0.62337 0.55531
 C3196 C 0.20428 0.61395 0.54587
 C3197 C 0.20050 0.61912 0.53065
 C3198 C 0.20620 0.63345 0.52499
 C3199 C 0.22199 0.65762 0.52866
 C3200 C 0.21773 0.66274 0.51365
 C3201 C 0.22327 0.67723 0.50823
 C3202 C 0.23315 0.68648 0.51766
 C3203 C 0.23747 0.68101 0.53261
 C3204 C 0.23183 0.66667 0.53821
 C3205 C 0.20232 0.63888 0.50996
 C3206 C 0.20793 0.65330 0.50441
 C3207 C 0.22980 0.64701 0.55891
 C3208 C 0.23569 0.66126 0.55324
 H3209 H 0.19480 0.63196 0.50245
 H3210 H 0.20457 0.65709 0.49280
 H3211 H 0.23301 0.64332 0.57060
 H3212 H 0.24328 0.66813 0.56071
 H3213 H 0.21688 0.61979 0.56710
 H3214 H 0.19326 0.61198 0.52310
 H3215 H 0.21988 0.68130 0.49670
 H3216 H 0.24495 0.68805 0.54004
 C3217 C 0.21518 0.14246 1.03476
 C3218 C 0.21862 0.13783 1.05013
 C3219 C 0.21287 0.12348 1.05566
 C3220 C 0.20384 0.11367 1.04590
 C3221 C 0.20057 0.11856 1.03048
 C3222 C 0.20612 0.13297 1.02489
 C3223 C 0.22114 0.15757 1.02891
 C3224 C 0.21749 0.16233 1.01361
 C3225 C 0.22299 0.17682 1.00818
 C3226 C 0.23225 0.18643 1.01788
 C3227 C 0.23592 0.18137 1.03315
 C3228 C 0.23029 0.16701 1.03875
 C3229 C 0.20280 0.13807 1.00962
 C3230 C 0.20833 0.15253 1.00410
 C3231 C 0.22773 0.14765 1.05967
 C3232 C 0.23350 0.16198 1.05406
 H3233 H 0.19580 0.13086 1.00189
 H3234 H 0.20543 0.15606 0.99228
 H3235 H 0.23045 0.14422 1.07156
 H3236 H 0.24049 0.16920 1.06180
 H3237 H 0.21529 0.12008 1.06760
 H3238 H 0.19387 0.11111 1.02273
 H3239 H 0.22008 0.18062 0.99644
 H3240 H 0.24283 0.18875 1.04080
 C3241 C 0.21724 0.71553 0.60668
 C3242 C 0.22123 0.70045 0.61185
 C3243 C 0.21544 0.69510 0.62622
 C3244 C 0.20587 0.70477 0.63558
 C3245 C 0.20211 0.71995 0.63019
 C3246 C 0.20765 0.72532 0.61572
 C3247 C 0.22315 0.72114 0.59149
 C3248 C 0.21890 0.73611 0.58617
 C3249 C 0.22432 0.74127 0.57157
 C3250 C 0.23406 0.73162 0.56239
 C3251 C 0.23836 0.71672 0.56805
 C3252 C 0.23284 0.71138 0.58252
 C3253 C 0.20377 0.74029 0.61008
 C3254 C 0.20924 0.74556 0.59553
 C3255 C 0.23093 0.69100 0.60252
 C3256 C 0.23669 0.69640 0.58813
 H3257 H 0.19636 0.74796 0.61694
 H3258 H 0.20589 0.75714 0.59157
 H3259 H 0.23412 0.67934 0.60638
 H3260 H 0.24418 0.68878 0.58133
 H3261 H 0.21827 0.68333 0.62996
 H3262 H 0.19500 0.72767 0.63726
 H3263 H 0.22093 0.75275 0.56736
 H3264 H 0.24574 0.70913 0.56107
 C3265 C 0.21460 0.21367 1.10626
 C3266 C 0.22047 0.19959 1.11229
 C3267 C 0.21462 0.19386 1.12651
 C3268 C 0.20286 0.20207 1.13488
 C3269 C 0.19719 0.21628 1.12842
 C3270 C 0.20298 0.22206 1.11420
 C3271 C 0.22070 0.21971 1.09130
 C3272 C 0.21473 0.23376 1.08521
 C3273 C 0.22038 0.23934 1.07086
 C3274 C 0.23196 0.23097 1.06260
 C3275 C 0.23793 0.21696 1.06900
 C3276 C 0.23229 0.21126 1.08331
 C3277 C 0.19734 0.23613 1.10778
 C3278 C 0.20310 0.24187 1.09352
 C3279 C 0.23208 0.19144 1.10395
 C3280 C 0.23789 0.19718 1.08971
 H3281 H 0.18836 0.24275 1.11379
 H3282 H 0.19838 0.25272 1.08895
 H3283 H 0.23670 0.18052 1.10845
 H3284 H 0.24681 0.19052 1.08365
 H3285 H 0.21918 0.18285 1.13072
 H3286 H 0.18845 0.22316 1.13439
 H3287 H 0.21565 0.25010 1.06608
 H3288 H 0.24674 0.21033 1.06275
 C3289 C 0.70878 0.53730 0.14736
 C3290 C 0.69300 0.53436 0.14393
 C3291 C 0.68592 0.54222 0.13141
 C3292 C 0.69453 0.55286 0.12217
 C3293 C 0.71040 0.55561 0.12580
 C3294 C 0.71754 0.54794 0.13844
 C3295 C 0.71620 0.52926 0.16070
 C3296 C 0.73185 0.53257 0.16445
 C3297 C 0.73862 0.52546 0.17760
 C3298 C 0.72983 0.51509 0.18696
 C3299 C 0.71429 0.51155 0.18269
 C3300 C 0.70737 0.51873 0.16969
 C3301 C 0.73325 0.55077 0.14239
 C3302 C 0.74026 0.54326 0.15522
 C3303 C 0.68456 0.52369 0.15316
 C3304 C 0.69164 0.51598 0.16581
 H3305 H 0.74015 0.55896 0.13561
 H3306 H 0.75234 0.54594 0.15800
 H3307 H 0.67237 0.52132 0.15064
 H3308 H 0.68468 0.50794 0.17272
 H3309 H 0.67366 0.54016 0.12903
 H3310 H 0.71727 0.56356 0.11874
 H3311 H 0.75054 0.52836 0.18080
 H3312 H 0.70731 0.50380 0.18991
 C3313 C 0.71796 1.03309 0.63927
 C3314 C 0.72764 1.04269 0.63013
 C3315 C 0.72230 1.04783 0.61548
 C3316 C 0.70726 1.04365 0.61005
 C3317 C 0.69779 1.03392 0.61942
 C3318 C 0.70309 1.02857 0.63397
 C3319 C 0.72338 1.02787 0.65479
 C3320 C 0.71363 1.01833 0.66392
 C3321 C 0.71868 1.01361 0.67875
 C3322 C 0.73329 1.01855 0.68464
 C3323 C 0.74297 1.02809 0.67529
 C3324 C 0.73808 1.03273 0.66031
 C3325 C 0.69369 1.01897 0.64344
 C3326 C 0.69890 1.01389 0.65815
 C3327 C 0.74239 1.04711 0.63593
 C3328 C 0.74750 1.04226 0.65078
 H3329 H 0.68219 1.01539 0.63948
 H3330 H 0.69126 1.00655 0.66511
 H3331 H 0.74999 1.05451 0.62899
 H3332 H 0.75888 1.04606 0.65486
 H3333 H 0.72984 1.05510 0.60837
 H3334 H 0.68612 1.03078 0.61565
 H3335 H 0.71104 1.00642 0.68587
 H3336 H 0.75422 1.03194 0.67969
 C3337 C 0.53149 0.21777 0.64030
 C3338 C 0.54079 0.22776 0.63116
 C3339 C 0.54638 0.22245 0.61666
 C3340 C 0.54291 0.20718 0.61136
 C3341 C 0.53354 0.19737 0.62077
 C3342 C 0.52776 0.20262 0.63518
 C3343 C 0.52573 0.22320 0.65563
 C3344 C 0.51650 0.21316 0.66477
 C3345 C 0.51127 0.21825 0.67943
 C3346 C 0.51541 0.23318 0.68513
 C3347 C 0.52464 0.24315 0.67577
 C3348 C 0.52978 0.23822 0.66096
 C3349 C 0.51847 0.19292 0.64465
 C3350 C 0.51290 0.19811 0.65919
 C3351 C 0.54441 0.24280 0.63678
 C3352 C 0.53904 0.24792 0.65144
 H3353 H 0.51552 0.18119 0.64083
 H3354 H 0.50583 0.19024 0.66616
 H3355 H 0.55156 0.25064 0.62985
 H3356 H 0.54223 0.25955 0.65539
 H3357 H 0.55340 0.23021 0.60952
 H3358 H 0.53097 0.18552 0.61711
 H3359 H 0.50435 0.21038 0.68658
 H3360 H 0.52789 0.25465 0.68003
 C3361 C 1.03566 0.21600 0.14435
 C3362 C 1.04761 0.22405 0.13652
 C3363 C 1.05324 0.21818 0.12227
 C3364 C 1.04710 0.20423 0.11567
 C3365 C 1.03497 0.19643 0.12389
 C3366 C 1.02929 0.20222 0.13814
 C3367 C 1.02979 0.22206 0.15940
 C3368 C 1.01792 0.21391 0.16729
 C3369 C 1.01251 0.21959 0.18168
 C3370 C 1.01897 0.23328 0.18829
 C3371 C 1.03083 0.24135 0.18014
 C3372 C 1.03627 0.23579 0.16569
 C3373 C 1.01740 0.19439 0.14638
 C3374 C 1.01181 0.20013 0.16070
 C3375 C 1.05374 0.23782 0.14314
 C3376 C 1.04818 0.24358 0.15747
 H3377 H 1.01238 0.18370 0.14174
 H3378 H 1.00267 0.19371 0.16669
 H3379 H 1.06297 0.24417 0.13721
 H3380 H 1.05329 0.25419 0.16219
 H3381 H 1.06225 0.22478 0.11637
 H3382 H 1.03004 0.18562 0.11957
 H3383 H 1.00348 0.21318 0.18784
 H3384 H 1.03595 0.25186 0.18507
 C3385 C 0.60807 0.21784 0.71786
 C3386 C 0.61340 0.20283 0.72189
 C3387 C 0.62794 0.19772 0.71633
 C3388 C 0.63725 0.20752 0.70686
 C3389 C 0.63175 0.22263 0.70308
 C3390 C 0.61713 0.22781 0.70847
 C3391 C 0.59260 0.22312 0.72339
 C3392 C 0.58709 0.23799 0.71905
 C3393 C 0.57217 0.24276 0.72396
 C3394 C 0.56284 0.23280 0.73323
 C3395 C 0.56872 0.21802 0.73767
 C3396 C 0.58353 0.21309 0.73269
 C3397 C 0.61132 0.24270 0.70456
 C3398 C 0.59654 0.24769 0.70972
 C3399 C 0.60399 0.19314 0.73127
 C3400 C 0.58932 0.19820 0.73661
 H3401 H 0.61820 0.25052 0.69734
 H3402 H 0.59244 0.25920 0.70632
 H3403 H 0.60798 0.18153 0.73447
 H3404 H 0.58241 0.19034 0.74376
 H3405 H 0.63180 0.18598 0.71913
 H3406 H 0.63883 0.23039 0.69600
 H3407 H 0.56779 0.25416 0.72049
 H3408 H 0.56162 0.21017 0.74465
 C3409 C 1.10813 0.21568 0.21603
 C3410 C 1.11287 0.20038 0.21973
 C3411 C 1.12710 0.19475 0.21385
 C3412 C 1.13669 0.20431 0.20441
 C3413 C 1.13175 0.21969 0.20092
 C3414 C 1.11744 0.22539 0.20662
 C3415 C 1.09305 0.22157 0.22201
 C3416 C 1.08815 0.23677 0.21808
 C3417 C 1.07366 0.24220 0.22356
 C3418 C 1.06417 0.23258 0.23302
 C3419 C 1.06939 0.21742 0.23696
 C3420 C 1.08376 0.21183 0.23141
 C3421 C 1.11222 0.24059 0.20306
 C3422 C 1.09781 0.24616 0.20865
 C3423 C 1.10323 0.19097 0.22914
 C3424 C 1.08893 0.19661 0.23492
 H3425 H 1.11929 0.24822 0.19582
 H3426 H 1.09418 0.25792 0.20554
 H3427 H 1.10676 0.17914 0.23207
 H3428 H 1.08183 0.18896 0.24211
 H3429 H 1.13053 0.18283 0.21643
 H3430 H 1.13904 0.22726 0.19386
 H3431 H 1.06977 0.25387 0.22044
 H3432 H 1.06212 0.20983 0.24406
 C3433 C 0.14387 0.71636 0.53348
 C3434 C 0.13454 0.70709 0.52364
 C3435 C 0.12001 0.70171 0.52907
 C3436 C 0.11484 0.70543 0.54429
 C3437 C 0.12444 0.71473 0.55398
 C3438 C 0.13891 0.72026 0.54862
 C3439 C 0.15918 0.72199 0.52786
 C3440 C 0.16850 0.73126 0.53772
 C3441 C 0.18310 0.73647 0.53238
 C3442 C 0.18850 0.73231 0.51737
 C3443 C 0.17897 0.72301 0.50763
 C3444 C 0.16426 0.71787 0.51280
 C3445 C 0.14858 0.72954 0.55816
 C3446 C 0.16311 0.73497 0.55279
 C3447 C 0.13996 0.70333 0.50859
 C3448 C 0.15458 0.70860 0.50328
 H3449 H 0.14489 0.73263 0.56988
 H3450 H 0.17022 0.74207 0.56052
 H3451 H 0.13287 0.69619 0.50087
 H3452 H 0.15836 0.70535 0.49163
 H3453 H 0.11271 0.69475 0.52141
 H3454 H 0.12082 0.71747 0.56579
 H3455 H 0.19039 0.74346 0.54006
 H3456 H 0.18299 0.71975 0.49606
 C3457 C 0.14351 0.21401 1.03566
 C3458 C 0.13891 0.19853 1.03258
 C3459 C 0.12475 0.19301 1.03873
 C3460 C 0.11510 0.20286 1.04782
 C3461 C 0.11993 0.21839 1.05072
 C3462 C 0.13414 0.22399 1.04473
 C3463 C 0.15847 0.21983 1.02935
 C3464 C 0.16321 0.23522 1.03267
 C3465 C 0.17760 0.24059 1.02692
 C3466 C 0.18717 0.23072 1.01781
 C3467 C 0.18211 0.21537 1.01442
 C3468 C 0.16782 0.20984 1.02026
 C3469 C 0.13921 0.23937 1.04767
 C3470 C 0.15351 0.24487 1.04178
 C3471 C 0.14860 0.18887 1.02346
 C3472 C 0.16280 0.19444 1.01738
 H3473 H 0.13209 0.24720 1.05466
 H3474 H 0.15703 0.25678 1.04441
 H3475 H 0.14518 0.17690 1.02101
 H3476 H 0.16994 0.18659 1.01044
 H3477 H 0.12138 0.18098 1.03661
 H3478 H 0.11259 0.22618 1.05748
 H3479 H 0.18138 0.25241 1.02959
 H3480 H 0.18946 0.20761 1.00760
 C3481 C 0.64332 0.53508 0.21501
 C3482 C 0.63454 0.52592 0.20458
 C3483 C 0.62084 0.53216 0.19799
 C3484 C 0.61601 0.54755 0.20159
 C3485 C 0.62508 0.55654 0.21207
 C3486 C 0.63866 0.55035 0.21886
 C3487 C 0.65781 0.52867 0.22184
 C3488 C 0.66664 0.53791 0.23216
 C3489 C 0.68064 0.53196 0.23828
 C3490 C 0.68601 0.51696 0.23393
 C3491 C 0.67686 0.50775 0.22373
 C3492 C 0.66274 0.51356 0.21766
 C3493 C 0.64776 0.55922 0.22929
 C3494 C 0.66150 0.55309 0.23586
 C3495 C 0.63972 0.51074 0.20085
 C3496 C 0.65361 0.50469 0.20724
 H3497 H 0.64428 0.57103 0.23235
 H3498 H 0.66824 0.56036 0.24377
 H3499 H 0.63307 0.50354 0.19282
 H3500 H 0.65728 0.49302 0.20390
 H3501 H 0.61396 0.52500 0.19012
 H3502 H 0.62181 0.56848 0.21477
 H3503 H 0.68762 0.53926 0.24595
 H3504 H 0.68086 0.49623 0.22024
 C3505 C 0.64064 1.03463 0.71651
 C3506 C 0.63566 1.04985 0.72019
 C3507 C 0.62117 1.05513 0.71461
 C3508 C 0.61154 1.04527 0.70550
 C3509 C 0.61672 1.02995 0.70206
 C3510 C 0.63130 1.02462 0.70744
 C3511 C 0.65600 1.02912 0.72213
 C3512 C 0.66116 1.01402 0.71815
 C3513 C 0.67597 1.00900 0.72320
 C3514 C 0.68548 1.01892 0.73233
 C3515 C 0.67997 1.03395 0.73638
 C3516 C 0.66532 1.03915 0.73120
 C3517 C 0.63676 1.00951 0.70386
 C3518 C 0.65147 1.00433 0.70907
 C3519 C 0.64534 1.05955 0.72929
 C3520 C 0.65990 1.05428 0.73474
 H3521 H 0.62967 1.00167 0.69686
 H3522 H 0.65529 0.99264 0.70593
 H3523 H 0.64163 1.07133 0.73220
 H3524 H 0.66702 1.06214 0.74169
 H3525 H 0.61757 1.06700 0.71716
 H3526 H 0.60943 1.02213 0.69528
 H3527 H 0.68009 0.99743 0.72001
 H3528 H 0.68726 1.04178 0.74321
 C3529 C 0.85763 0.46447 0.28416
 C3530 C 0.86240 0.44903 0.28118
 C3531 C 0.87685 0.44384 0.28697
 C3532 C 0.88661 0.45400 0.29560
 C3533 C 0.88160 0.46950 0.29837
 C3534 C 0.86711 0.47476 0.29276
 C3535 C 0.84236 0.46994 0.27825
 C3536 C 0.83748 0.48530 0.28147
 C3537 C 0.82284 0.49035 0.27608
 C3538 C 0.81313 0.48020 0.26741
 C3539 C 0.81832 0.46487 0.26413
 C3540 C 0.83288 0.45965 0.26962
 C3541 C 0.86188 0.49010 0.29562
 C3542 C 0.84730 0.49526 0.29011
 C3543 C 0.85258 0.43906 0.27252
 C3544 C 0.83808 0.44429 0.26681
 H3545 H 0.86909 0.49815 0.30225
 H3546 H 0.84366 0.50715 0.29266
 H3547 H 0.85612 0.42712 0.27015
 H3548 H 0.83086 0.43622 0.26022
 H3549 H 0.88036 0.43184 0.28493
 H3550 H 0.88902 0.47754 0.30476
 H3551 H 0.81899 0.50217 0.27867
 H3552 H 0.81089 0.45689 0.25764
 C3553 C 0.84739 0.95687 0.79407
 C3554 C 0.85012 0.95972 0.81001
 C3555 C 0.86221 0.95166 0.81765
 C3556 C 0.87174 0.94095 0.80944
 C3557 C 0.86866 0.93815 0.79345
 C3558 C 0.85647 0.94601 0.78575
 C3559 C 0.83480 0.96544 0.78594
 C3560 C 0.83189 0.96242 0.77006
 C3561 C 0.81966 0.97037 0.76247
 C3562 C 0.81050 0.98140 0.77064
 C3563 C 0.81382 0.98445 0.78652
 C3564 C 0.82584 0.97641 0.79424
 C3565 C 0.85324 0.94333 0.76985
 C3566 C 0.84113 0.95136 0.76216
 C3567 C 0.84077 0.97067 0.81796
 C3568 C 0.82888 0.97891 0.81020
 H3569 H 0.86012 0.93494 0.76330
 H3570 H 0.83899 0.94887 0.74992
 H3571 H 0.84271 0.97295 0.83028
 H3572 H 0.82200 0.98730 0.81673
 H3573 H 0.86415 0.95375 0.82998
 H3574 H 0.87590 0.93012 0.78687
 H3575 H 0.81711 0.96778 0.75033
 H3576 H 0.80667 0.99264 0.79306
 C3577 C 0.39161 0.28456 0.78490
 C3578 C 0.38248 0.29430 0.77535
 C3579 C 0.36818 0.30001 0.78104
 C3580 C 0.36306 0.29623 0.79628
 C3581 C 0.37250 0.28647 0.80569
 C3582 C 0.38670 0.28054 0.80004
 C3583 C 0.40666 0.27852 0.77898
 C3584 C 0.41573 0.26869 0.78851
 C3585 C 0.43007 0.26308 0.78290
 C3586 C 0.43551 0.26744 0.76795
 C3587 C 0.42622 0.27729 0.75853
 C3588 C 0.41173 0.28280 0.76396
 C3589 C 0.39613 0.27070 0.80924
 C3590 C 0.41037 0.26482 0.80355
 C3591 C 0.38786 0.29819 0.76032
 C3592 C 0.40227 0.29258 0.75474
 H3593 H 0.39247 0.26749 0.82094
 H3594 H 0.41726 0.25724 0.81101
 H3595 H 0.38093 0.30571 0.75282
 H3596 H 0.40603 0.29596 0.74312
 H3597 H 0.36103 0.30726 0.77352
 H3598 H 0.36895 0.28363 0.81749
 H3599 H 0.43715 0.25563 0.79032
 H3600 H 0.43026 0.28071 0.74701
 C3601 C 0.89208 0.28280 0.28450
 C3602 C 0.88686 0.27848 0.29945
 C3603 C 0.87229 0.28386 0.30470
 C3604 C 0.86284 0.29341 0.29511
 C3605 C 0.86825 0.29746 0.28004
 C3606 C 0.88289 0.29227 0.27473
 C3607 C 0.90756 0.27744 0.27907
 C3608 C 0.91297 0.28205 0.26426
 C3609 C 0.92788 0.27725 0.25932
 C3610 C 0.93729 0.26781 0.26905
 C3611 C 0.93154 0.26313 0.28377
 C3612 C 0.91675 0.26801 0.28888
 C3613 C 0.88860 0.29646 0.25990
 C3614 C 0.90340 0.29148 0.25477
 C3615 C 0.89639 0.26900 0.30892
 C3616 C 0.91106 0.26381 0.30371
 H3617 H 0.88162 0.30377 0.25224
 H3618 H 0.90741 0.29509 0.24331
 H3619 H 0.89248 0.26558 0.32048
 H3620 H 0.91806 0.25656 0.31140
 H3621 H 0.86851 0.28084 0.31639
 H3622 H 0.86107 0.30460 0.27242
 H3623 H 0.93217 0.28091 0.24797
 H3624 H 0.93871 0.25602 0.29145
 C3625 C 0.35999 0.78253 0.46537
 C3626 C 0.36922 0.79184 0.47527
 C3627 C 0.38343 0.79787 0.46969
 C3628 C 0.38836 0.79481 0.45425
 C3629 C 0.37886 0.78547 0.44450
 C3630 C 0.36473 0.77926 0.45001
 C3631 C 0.34499 0.77626 0.47113
 C3632 C 0.33574 0.76702 0.46118
 C3633 C 0.32133 0.76136 0.46659
 C3634 C 0.31602 0.76513 0.48173
 C3635 C 0.32553 0.77431 0.49160
 C3636 C 0.34005 0.77987 0.48637
 C3637 C 0.35516 0.76993 0.44041
 C3638 C 0.34093 0.76389 0.44591
 C3639 C 0.36400 0.79500 0.49053
 C3640 C 0.34964 0.78917 0.49596
 H3641 H 0.35869 0.76732 0.42852
 H3642 H 0.33387 0.75681 0.43811
 H3643 H 0.37101 0.80217 0.49830
 H3644 H 0.34597 0.79202 0.50775
 H3645 H 0.39065 0.80483 0.47742
 H3646 H 0.38229 0.78321 0.43253
 H3647 H 0.31404 0.75449 0.45881
 H3648 H 0.32155 0.77730 0.50326
 C3649 C 0.35915 0.28230 0.96802
 C3650 C 0.36398 0.29764 0.97140
 C3651 C 0.37849 0.30287 0.96585
 C3652 C 0.38825 0.29288 0.95704
 C3653 C 0.38324 0.27743 0.95397
 C3654 C 0.36866 0.27213 0.95933
 C3655 C 0.34372 0.27686 0.97352
 C3656 C 0.33869 0.26165 0.96981
 C3657 C 0.32381 0.25670 0.97469
 C3658 C 0.31409 0.26681 0.98336
 C3659 C 0.31947 0.28195 0.98718
 C3660 C 0.33420 0.28707 0.98217
 C3661 C 0.36333 0.25690 0.95604
 C3662 C 0.34858 0.25177 0.96114
 C3663 C 0.35413 0.30750 0.98010
 C3664 C 0.33951 0.30230 0.98544
 H3665 H 0.37057 0.24893 0.94935
 H3666 H 0.34486 0.24000 0.95823
 H3667 H 0.35773 0.31937 0.98278
 H3668 H 0.33224 0.31030 0.99207
 H3669 H 0.38197 0.31484 0.96811
 H3670 H 0.39066 0.26952 0.94743
 H3671 H 0.31979 0.24504 0.97170
 H3672 H 0.31203 0.28991 0.99367
 C3673 C 0.78496 0.46655 0.35809
 C3674 C 0.80028 0.47002 0.36286
 C3675 C 0.80561 0.46448 0.37734
 C3676 C 0.79571 0.45560 0.38713
 C3677 C 0.78033 0.45231 0.38213
 C3678 C 0.77493 0.45768 0.36760
 C3679 C 0.77935 0.47222 0.34279
 C3680 C 0.76411 0.46853 0.33791
 C3681 C 0.75892 0.47369 0.32324
 C3682 C 0.76883 0.48259 0.31351
 C3683 C 0.78404 0.48634 0.31870
 C3684 C 0.78938 0.48109 0.33329
 C3685 C 0.75971 0.45434 0.36237
 C3686 C 0.75440 0.45963 0.34775
 C3687 C 0.80999 0.47891 0.35301
 C3688 C 0.80462 0.48438 0.33849
 H3689 H 0.75185 0.44750 0.36959
 H3690 H 0.74261 0.45671 0.34412
 H3691 H 0.82184 0.48166 0.35656
 H3692 H 0.81250 0.49117 0.33124
 H3693 H 0.81753 0.46689 0.38084
 H3694 H 0.77251 0.44570 0.38957
 H3695 H 0.74721 0.47074 0.31939
 H3696 H 0.79184 0.49301 0.31125
 C3697 C 0.79290 0.95801 0.84795
 C3698 C 0.78996 0.94210 0.85087
 C3699 C 0.79769 0.93467 0.86327
 C3700 C 0.80816 0.94305 0.87288
 C3701 C 0.81107 0.95900 0.86963
 C3702 C 0.80352 0.96651 0.85715
 C3703 C 0.78468 0.96592 0.83502
 C3704 C 0.78777 0.98178 0.83194
 C3705 C 0.78020 0.98913 0.81936
 C3706 C 0.76949 0.98074 0.81003
 C3707 C 0.76632 0.96492 0.81355
 C3708 C 0.77398 0.95743 0.82592
 C3709 C 0.80625 0.98238 0.85377
 C3710 C 0.79854 0.98987 0.84135
 C3711 C 0.77926 0.93396 0.84141
 C3712 C 0.77136 0.94152 0.82918
 H3713 H 0.81445 0.98906 0.86076
 H3714 H 0.80106 1.00210 0.83908
 H3715 H 0.77691 0.92167 0.84352
 H3716 H 0.76313 0.93487 0.82221
 H3717 H 0.79555 0.92236 0.86539
 H3718 H 0.81892 0.96567 0.87698
 H3719 H 0.78283 1.00125 0.81668
 H3720 H 0.75835 0.95823 0.80629
 C3721 C 0.28395 0.78185 0.39007
 C3722 C 0.29907 0.77797 0.38501
 C3723 C 0.30439 0.78366 0.37060
 C3724 C 0.29469 0.79310 0.36114
 C3725 C 0.27946 0.79674 0.36639
 C3726 C 0.27407 0.79122 0.38088
 C3727 C 0.27843 0.77616 0.40539
 C3728 C 0.26344 0.78034 0.41065
 C3729 C 0.25843 0.77526 0.42544
 C3730 C 0.26828 0.76595 0.43485
 C3731 C 0.28318 0.76167 0.42923
 C3732 C 0.28836 0.76685 0.41458
 C3733 C 0.25906 0.79498 0.38643
 C3734 C 0.25385 0.78968 0.40109
 C3735 C 0.30866 0.76861 0.39454
 C3736 C 0.30338 0.76311 0.40907
 H3737 H 0.25132 0.80220 0.37946
 H3738 H 0.24225 0.79297 0.40499
 H3739 H 0.32036 0.76554 0.39077
 H3740 H 0.31116 0.75596 0.41608
 H3741 H 0.31621 0.78098 0.36695
 H3742 H 0.27179 0.80381 0.35921
 H3743 H 0.24695 0.77862 0.42965
 H3744 H 0.29096 0.75469 0.43642
 C3745 C 0.28104 0.28320 0.89063
 C3746 C 0.29029 0.27343 0.88123
 C3747 C 0.29573 0.27903 0.86679
 C3748 C 0.29222 0.29441 0.86182
 C3749 C 0.28284 0.30399 0.87148
 C3750 C 0.27718 0.29843 0.88582
 C3751 C 0.27550 0.27749 0.90594
 C3752 C 0.26632 0.28733 0.91536
 C3753 C 0.26135 0.28199 0.93002
 C3754 C 0.26572 0.26703 0.93546
 C3755 C 0.27487 0.25726 0.92581
 C3756 C 0.27974 0.26242 0.91100
 C3757 C 0.26792 0.30790 0.89555
 C3758 C 0.26254 0.30243 0.91005
 C3759 C 0.29406 0.25832 0.88655
 C3760 C 0.28892 0.25293 0.90121
 H3761 H 0.26485 0.31968 0.89196
 H3762 H 0.25549 0.31014 0.91723
 H3763 H 0.30118 0.25064 0.87941
 H3764 H 0.29224 0.24127 0.90493
 H3765 H 0.30271 0.27141 0.85947
 H3766 H 0.28021 0.31590 0.86809
 H3767 H 0.25448 0.28970 0.93739
 H3768 H 0.27829 0.24573 0.92987
 C3769 C 0.46499 0.28219 0.85770
 C3770 C 0.44990 0.27821 0.86279
 C3771 C 0.44463 0.28374 0.87729
 C3772 C 0.45439 0.29304 0.88684
 C3773 C 0.46960 0.29672 0.88155
 C3774 C 0.47489 0.29145 0.86695
 C3775 C 0.47049 0.27663 0.84233
 C3776 C 0.48546 0.28088 0.83708
 C3777 C 0.49051 0.27582 0.82231
 C3778 C 0.48076 0.26641 0.81291
 C3779 C 0.46585 0.26209 0.81849
 C3780 C 0.46062 0.26727 0.83313
 C3781 C 0.48987 0.29533 0.86138
 C3782 C 0.49504 0.29019 0.84667
 C3783 C 0.44035 0.26885 0.85323
 C3784 C 0.44564 0.26341 0.83868
 H3785 H 0.49762 0.30249 0.86841
 H3786 H 0.50662 0.29354 0.84277
 H3787 H 0.42868 0.26568 0.85703
 H3788 H 0.43793 0.25618 0.83169
 H3789 H 0.43285 0.28097 0.88097
 H3790 H 0.47739 0.30360 0.88877
 H3791 H 0.50200 0.27920 0.81816
 H3792 H 0.45818 0.25496 0.81134
 C3793 C 0.96861 0.28462 0.36010
 C3794 C 0.97217 0.29991 0.36495
 C3795 C 0.96623 0.30540 0.37921
 C3796 C 0.95687 0.29569 0.38874
 C3797 C 0.95355 0.28030 0.38368
 C3798 C 0.95929 0.27476 0.36934
 C3799 C 0.97460 0.27889 0.34497
 C3800 C 0.97073 0.26373 0.33993
 C3801 C 0.97607 0.25851 0.32531
 C3802 C 0.98534 0.26832 0.31583
 C3803 C 0.98935 0.28340 0.32124
 C3804 C 0.98389 0.28879 0.33573
 C3805 C 0.95584 0.25957 0.36401
 C3806 C 0.96141 0.25417 0.34953
 C3807 C 0.98151 0.30947 0.35537
 C3808 C 0.98731 0.30398 0.34102
 H3809 H 0.94866 0.25184 0.37103
 H3810 H 0.95835 0.24244 0.34579
 H3811 H 0.98434 0.32130 0.35897
 H3812 H 0.99443 0.31175 0.33397
 H3813 H 0.96870 0.31732 0.38271
 H3814 H 0.94658 0.27259 0.39091
 H3815 H 0.97290 0.24691 0.32126
 H3816 H 0.99629 0.29115 0.31399
 C3817 C 0.46458 0.35690 0.78461
 C3818 C 0.45559 0.36641 0.77469
 C3819 C 0.45014 0.38089 0.78020
 C3820 C 0.45346 0.38583 0.79560
 C3821 C 0.46249 0.37606 0.80537
 C3822 C 0.46812 0.36162 0.79992
 C3823 C 0.47030 0.34164 0.77888
 C3824 C 0.47930 0.33214 0.78880
 C3825 C 0.48462 0.31760 0.78335
 C3826 C 0.48081 0.31244 0.76816
 C3827 C 0.47175 0.32214 0.75836
 C3828 C 0.46653 0.33679 0.76365
 C3829 C 0.47714 0.35178 0.80952
 C3830 C 0.48267 0.33730 0.80404
 C3831 C 0.45219 0.36123 0.75946
 C3832 C 0.45752 0.34665 0.75405
 H3833 H 0.47995 0.35528 0.82137
 H3834 H 0.48957 0.33005 0.81183
 H3835 H 0.44526 0.36846 0.75169
 H3836 H 0.45454 0.34306 0.74227
 H3837 H 0.44343 0.38833 0.77245
 H3838 H 0.46496 0.37952 0.81730
 H3839 H 0.49142 0.31018 0.79107
 H3840 H 0.46877 0.31829 0.74665
 C3841 C 0.96988 0.36058 0.28411
 C3842 C 0.96092 0.36998 0.27405
 C3843 C 0.95525 0.38441 0.27946
 C3844 C 0.95827 0.38938 0.29491
 C3845 C 0.96737 0.37976 0.30478
 C3846 C 0.97323 0.36540 0.29944
 C3847 C 0.97564 0.34527 0.27858
 C3848 C 0.98450 0.33584 0.28870
 C3849 C 0.98966 0.32116 0.28353
 C3850 C 0.98577 0.31575 0.26844
 C3851 C 0.97697 0.32542 0.25840
 C3852 C 0.97192 0.34024 0.26340
 C3853 C 0.98218 0.35566 0.30920
 C3854 C 0.98776 0.34114 0.30391
 C3855 C 0.95767 0.36467 0.25884
 C3856 C 0.96303 0.35002 0.25362
 H3857 H 0.98484 0.35925 0.32106
 H3858 H 0.99455 0.33395 0.31184
 H3859 H 0.95078 0.37181 0.25095
 H3860 H 0.96011 0.34629 0.24186
 H3861 H 0.94848 0.39173 0.27165
 H3862 H 0.96960 0.38322 0.31675
 H3863 H 0.99626 0.31376 0.29144
 H3864 H 0.97392 0.32137 0.24677
 C3865 C 0.28615 0.85761 0.46578
 C3866 C 0.27633 0.86696 0.45651
 C3867 C 0.28202 0.88121 0.45064
 C3868 C 0.29750 0.88606 0.45378
 C3869 C 0.30713 0.87646 0.46315
 C3870 C 0.30151 0.86229 0.46922
 C3871 C 0.28032 0.84251 0.47182
 C3872 C 0.29019 0.83315 0.48102
 C3873 C 0.28474 0.81866 0.48644
 C3874 C 0.26961 0.81337 0.48251
 C3875 C 0.25981 0.82299 0.47337
 C3876 C 0.26510 0.83762 0.46804
 C3877 C 0.31102 0.85261 0.47851
 C3878 C 0.30544 0.83830 0.48435
 C3879 C 0.26108 0.86179 0.45319
 C3880 C 0.25558 0.84734 0.45881
 H3881 H 0.32289 0.85609 0.48125
 H3882 H 0.31318 0.83115 0.49140
 H3883 H 0.25337 0.86890 0.44606
 H3884 H 0.24380 0.84373 0.45583
 H3885 H 0.27436 0.88851 0.44367
 H3886 H 0.31912 0.87979 0.46548
 H3887 H 0.29247 0.81131 0.49331
 H3888 H 0.24816 0.81905 0.47028
 C3889 C 0.28306 0.35826 0.96653
 C3890 C 0.27332 0.36737 0.95695
 C3891 C 0.27885 0.38174 0.95123
 C3892 C 0.29409 0.38695 0.95488
 C3893 C 0.30369 0.37753 0.96446
 C3894 C 0.29822 0.36325 0.97037
 C3895 C 0.27734 0.34311 0.97254
 C3896 C 0.28712 0.33402 0.98210
 C3897 C 0.28175 0.31953 0.98758
 C3898 C 0.26681 0.31396 0.98335
 C3899 C 0.25711 0.32329 0.97380
 C3900 C 0.26231 0.33792 0.96841
 C3901 C 0.30766 0.35381 0.97997
 C3902 C 0.30219 0.33945 0.98577
 C3903 C 0.25826 0.36188 0.95323
 C3904 C 0.25288 0.34738 0.95882
 H3905 H 0.31939 0.35754 0.98301
 H3906 H 0.30986 0.33251 0.99310
 H3907 H 0.25062 0.36879 0.94584
 H3908 H 0.24125 0.34352 0.95555
 H3909 H 0.27125 0.38889 0.94405
 H3910 H 0.31552 0.38115 0.96716
 H3911 H 0.28941 0.31239 0.99474
 H3912 H 0.24561 0.31912 0.97045
 C3913 C 0.78407 0.39159 0.28609
 C3914 C 0.79289 0.38207 0.27604
 C3915 C 0.79857 0.36767 0.28152
 C3916 C 0.79562 0.36281 0.29700
 C3917 C 0.78679 0.37261 0.30693
 C3918 C 0.78094 0.38697 0.30152
 C3919 C 0.77806 0.40673 0.28038
 C3920 C 0.76922 0.41626 0.29042
 C3921 C 0.76365 0.43072 0.28497
 C3922 C 0.76706 0.43574 0.26964
 C3923 C 0.77592 0.42599 0.25972
 C3924 C 0.78140 0.41145 0.26502
 C3925 C 0.77207 0.39683 0.31125
 C3926 C 0.76629 0.41122 0.30578
 C3927 C 0.79588 0.38714 0.26070
 C3928 C 0.79028 0.40161 0.25529
 H3929 H 0.76958 0.39340 0.32319
 H3930 H 0.75952 0.41848 0.31367
 H3931 H 0.80268 0.37989 0.25283
 H3932 H 0.79293 0.40512 0.24341
 H3933 H 0.80512 0.36021 0.27366
 H3934 H 0.78462 0.36920 0.31893
 H3935 H 0.75701 0.43820 0.29277
 H3936 H 0.77862 0.42971 0.24791
   
