data_POSCAR
  _audit_creation_date              2014-09-24
  _audit_creation_method            'ToBaCCo'
  _symmetry_space_group_name_H-M    'P1'
  _symmetry_Int_Tables_number       1
  _symmetry_cell_setting            triclinic
  loop_
  _symmetry_equiv_pos_as_xyz
 x,y,z
_cell_length_a 57.7781
_cell_length_b 57.7591
_cell_length_c 57.7810
_cell_angle_alpha 90.002100
_cell_angle_beta 89.989900
_cell_angle_gamma 90.035400
loop_
  _atom_site_label
  _atom_site_type_symbol
  _atom_site_fract_x
  _atom_site_fract_y
  _atom_site_fract_z
N1 N 0.17050 0.22542 0.23100
 N2 N 0.17712 0.20737 0.24321
 C3 C 0.16228 0.20436 0.26096
 C4 C 0.14566 0.22142 0.25966
 C5 C 0.15128 0.23450 0.24054
 H6 H 0.16343 0.19085 0.27386
 H7 H 0.14208 0.24948 0.23411
 Cu8 Cu 0.20449 0.18962 0.23474
 Cu9 Cu 0.18727 0.23586 0.20374
 Cu10 Cu 0.23547 0.20397 0.18751
 N11 N 0.23123 0.17157 0.22499
 N12 N 0.24326 0.17728 0.20652
 C13 C 0.26071 0.16209 0.20373
 C14 C 0.25946 0.14611 0.22138
 C15 C 0.24065 0.15250 0.23459
 H16 H 0.27336 0.16260 0.18994
 H17 H 0.23438 0.14391 0.24998
 N18 N 0.22485 0.23155 0.17050
 N19 N 0.20648 0.24369 0.17670
 C20 C 0.20375 0.26142 0.16178
 C21 C 0.22117 0.26025 0.14559
 C22 C 0.23427 0.24125 0.15149
 H23 H 0.19015 0.27425 0.16259
 H24 H 0.24949 0.23502 0.14257
 H25 H 0.20046 0.20368 0.19511
 H26 H 0.21921 0.22286 0.21315
 N27 N 0.67085 0.72567 0.73096
 N28 N 0.67720 0.70729 0.74283
 C29 C 0.66246 0.70429 0.76068
 C30 C 0.64613 0.72164 0.75974
 C31 C 0.65185 0.73492 0.74078
 H32 H 0.66344 0.69056 0.77337
 H33 H 0.64284 0.75010 0.73457
 Cu34 Cu 0.70421 0.68939 0.73366
 Cu35 Cu 0.68761 0.73624 0.70367
 Cu36 Cu 0.73592 0.70427 0.68736
 N37 N 0.73125 0.67151 0.72457
 N38 N 0.74361 0.67750 0.70639
 C39 C 0.76124 0.66250 0.70384
 C40 C 0.75981 0.64638 0.72136
 C41 C 0.74070 0.65250 0.73426
 H42 H 0.77410 0.66320 0.69026
 H43 H 0.73423 0.64370 0.74947
 N44 N 0.72525 0.73191 0.67040
 N45 N 0.70688 0.74406 0.67661
 C46 C 0.70415 0.76179 0.66171
 C47 C 0.72158 0.76062 0.64553
 C48 C 0.73466 0.74161 0.65139
 H49 H 0.69056 0.77463 0.66252
 H50 H 0.74989 0.73539 0.64246
 H51 H 0.70081 0.70436 0.69423
 H52 H 0.71942 0.72290 0.71299
 N53 N 0.32872 0.77466 0.73123
 N54 N 0.32209 0.79274 0.74341
 C55 C 0.33697 0.79583 0.76113
 C56 C 0.35360 0.77875 0.75985
 C57 C 0.34795 0.76562 0.74077
 H58 H 0.33588 0.80941 0.77396
 H59 H 0.35714 0.75063 0.73433
 Cu60 Cu 0.29473 0.81029 0.73437
 Cu61 Cu 0.31200 0.76409 0.70387
 Cu62 Cu 0.26370 0.79614 0.68759
 N63 N 0.26796 0.82865 0.72518
 N64 N 0.25591 0.82296 0.70669
 C65 C 0.23850 0.83821 0.70388
 C66 C 0.23981 0.85424 0.72152
 C67 C 0.25863 0.84781 0.73476
 H68 H 0.22587 0.83768 0.69008
 H69 H 0.26499 0.85644 0.75011
 N70 N 0.27436 0.76844 0.67058
 N71 N 0.29272 0.75628 0.67679
 C72 C 0.29544 0.73852 0.66191
 C73 C 0.27801 0.73966 0.64573
 C74 C 0.26494 0.75870 0.65159
 H75 H 0.30901 0.72567 0.66275
 H76 H 0.24971 0.76491 0.64266
 H77 H 0.29883 0.79602 0.69489
 H78 H 0.28010 0.77697 0.71298
 N79 N 0.82991 0.27438 0.23147
 N80 N 0.82354 0.29272 0.24338
 C81 C 0.83829 0.29574 0.26122
 C82 C 0.85463 0.27838 0.26019
 C83 C 0.84891 0.26510 0.24123
 H84 H 0.83733 0.30948 0.27393
 H85 H 0.85784 0.24987 0.23500
 Cu86 Cu 0.79651 0.31065 0.23424
 Cu87 Cu 0.81314 0.26387 0.20419
 Cu88 Cu 0.76496 0.29581 0.18787
 N89 N 0.76948 0.32855 0.22507
 N90 N 0.75720 0.32257 0.20685
 C91 C 0.73958 0.33758 0.20421
 C92 C 0.74098 0.35373 0.22171
 C93 C 0.76003 0.34760 0.23471
 H94 H 0.72674 0.33678 0.19062
 H95 H 0.76647 0.35643 0.24992
 N96 N 0.77558 0.26819 0.17091
 N97 N 0.79393 0.25603 0.17712
 C98 C 0.79667 0.23831 0.16221
 C99 C 0.77927 0.23950 0.14600
 C100 C 0.76619 0.25851 0.15188
 H101 H 0.81026 0.22548 0.16301
 H102 H 0.75099 0.26475 0.14293
 H103 H 0.80005 0.29590 0.19504
 H104 H 0.78135 0.27725 0.21374
 N105 N 0.82924 0.72569 0.26882
 N106 N 0.82258 0.70761 0.25666
 C107 C 0.83741 0.70448 0.23893
 C108 C 0.85405 0.72155 0.24016
 C109 C 0.84847 0.73472 0.25923
 H110 H 0.83628 0.69088 0.22611
 H111 H 0.85769 0.74971 0.26563
 Cu112 Cu 0.79531 0.69009 0.26574
 Cu113 Cu 0.81255 0.73625 0.29619
 Cu114 Cu 0.76426 0.70419 0.31256
 N115 N 0.76860 0.67178 0.27496
 N116 N 0.75657 0.67745 0.29345
 C117 C 0.73919 0.66217 0.29626
 C118 C 0.74052 0.64618 0.27864
 C119 C 0.75930 0.65262 0.26540
 H120 H 0.72655 0.66264 0.31006
 H121 H 0.76564 0.64399 0.25005
 N122 N 0.77494 0.73185 0.32950
 N123 N 0.79330 0.74403 0.32328
 C124 C 0.79600 0.76180 0.33815
 C125 C 0.77857 0.76061 0.35433
 C126 C 0.76550 0.74156 0.34849
 H127 H 0.80956 0.77467 0.33732
 H128 H 0.75028 0.73533 0.35742
 H129 H 0.79928 0.70424 0.30524
 H130 H 0.78053 0.72327 0.28716
 N131 N 0.32943 0.22551 -0.23152
 N132 N 0.32277 0.20744 -0.24371
 C133 C 0.33765 0.20432 -0.26145
 C134 C 0.35434 0.22139 -0.26017
 C135 C 0.34871 0.23454 -0.24107
 H136 H 0.33649 0.19072 -0.27427
 H137 H 0.35791 0.24953 -0.23461
 Cu138 Cu 0.29536 0.18993 -0.23465
 Cu139 Cu 0.31259 0.23602 -0.20412
 Cu140 Cu 0.26419 0.20404 -0.18784
 N141 N 0.26855 0.17163 -0.22547
 N142 N 0.25649 0.17732 -0.20699
 C143 C 0.23906 0.16209 -0.20420
 C144 C 0.24034 0.14609 -0.22182
 C145 C 0.25918 0.15249 -0.23503
 H146 H 0.22640 0.16261 -0.19041
 H147 H 0.26551 0.14384 -0.25037
 N148 N 0.27487 0.23167 -0.17084
 N149 N 0.29326 0.24384 -0.17700
 C150 C 0.29592 0.26158 -0.16207
 C151 C 0.27843 0.26039 -0.14592
 C152 C 0.26539 0.24136 -0.15185
 H153 H 0.30950 0.27445 -0.16284
 H154 H 0.25013 0.23511 -0.14298
 H155 H 0.29912 0.20398 -0.19507
 H156 H 0.28045 0.22305 -0.21317
 N157 N 0.67073 0.27422 -0.23137
 N158 N 0.67737 0.29230 -0.24357
 C159 C 0.66251 0.29539 -0.26131
 C160 C 0.64585 0.27829 -0.26004
 C161 C 0.65148 0.26515 -0.24093
 H162 H 0.66366 0.30898 -0.27414
 H163 H 0.64230 0.25016 -0.23448
 Cu164 Cu 0.70475 0.30985 -0.23450
 Cu165 Cu 0.68757 0.26377 -0.20395
 Cu166 Cu 0.73589 0.29584 -0.18765
 N167 N 0.73151 0.32821 -0.22530
 N168 N 0.74355 0.32256 -0.20681
 C169 C 0.76094 0.33782 -0.20401
 C170 C 0.75964 0.35381 -0.22163
 C171 C 0.74084 0.34736 -0.23486
 H172 H 0.77359 0.33734 -0.19021
 H173 H 0.73451 0.35600 -0.25021
 N174 N 0.72524 0.26820 -0.17064
 N175 N 0.70688 0.25599 -0.17681
 C176 C 0.70424 0.23826 -0.16187
 C177 C 0.72171 0.23949 -0.14571
 C178 C 0.73472 0.25855 -0.15164
 H179 H 0.69068 0.22537 -0.16264
 H180 H 0.74996 0.26482 -0.14277
 H181 H 0.70097 0.29584 -0.19490
 H182 H 0.71970 0.27679 -0.21297
 N183 N 0.17090 0.77467 0.26879
 N184 N 0.17758 0.79274 0.25661
 C185 C 0.16274 0.79583 0.23886
 C186 C 0.14608 0.77875 0.24012
 C187 C 0.15167 0.76563 0.25921
 H188 H 0.16388 0.80940 0.22602
 H189 H 0.14245 0.75064 0.26563
 Cu190 Cu 0.20492 0.81028 0.26569
 Cu191 Cu 0.18754 0.76412 0.29618
 Cu192 Cu 0.23586 0.79617 0.31253
 N193 N 0.23169 0.82865 0.27491
 N194 N 0.24370 0.82297 0.29342
 C195 C 0.26111 0.83823 0.29625
 C196 C 0.25984 0.85424 0.27859
 C197 C 0.24105 0.84779 0.26533
 H198 H 0.27373 0.83772 0.31007
 H199 H 0.23472 0.85641 0.24996
 N200 N 0.22513 0.76849 0.32954
 N201 N 0.20676 0.75633 0.32330
 C202 C 0.20399 0.73857 0.33818
 C203 C 0.22139 0.73972 0.35440
 C204 C 0.23450 0.75876 0.34856
 H205 H 0.19040 0.72572 0.33732
 H206 H 0.24972 0.76497 0.35751
 H207 H 0.20075 0.79606 0.30517
 H208 H 0.21950 0.77699 0.28713
 N209 N 0.47539 0.42035 0.48124
 N210 N 0.45707 0.42671 0.49314
 C211 C 0.45399 0.41186 0.51089
 C212 C 0.47137 0.39554 0.50995
 C213 C 0.48465 0.40132 0.49100
 H214 H 0.44026 0.41283 0.52356
 H215 H 0.49986 0.39234 0.48481
 Cu216 Cu 0.43911 0.45370 0.48400
 Cu217 Cu 0.48595 0.43718 0.45396
 Cu218 Cu 0.45386 0.48539 0.43762
 N219 N 0.42116 0.48068 0.47485
 N220 N 0.42705 0.49298 0.45663
 C221 C 0.41195 0.51053 0.45399
 C222 C 0.39582 0.50903 0.47149
 C223 C 0.40200 0.48996 0.48442
 H224 H 0.41261 0.52340 0.44041
 H225 H 0.39325 0.48346 0.49962
 N226 N 0.48158 0.47484 0.42070
 N227 N 0.49378 0.45651 0.42691
 C228 C 0.51150 0.45380 0.41199
 C229 C 0.51027 0.47121 0.39577
 C230 C 0.49124 0.48426 0.40166
 H231 H 0.52434 0.44022 0.41278
 H232 H 0.48494 0.49943 0.39270
 H233 H 0.47261 0.46901 0.46323
 H234 H 0.45405 0.45033 0.44462
 N235 N -0.02472 -0.07930 0.98108
 N236 N -0.04304 -0.07293 0.99301
 C237 C -0.04605 -0.08768 1.01085
 C238 C -0.02874 -0.10405 1.00982
 C239 C -0.01549 -0.09833 0.99084
 H240 H -0.05977 -0.08671 1.02355
 H241 H -0.00028 -0.10730 0.98464
 Cu242 Cu -0.06093 -0.04595 0.98394
 Cu243 Cu -0.01427 -0.06250 0.95379
 Cu244 Cu -0.04620 -0.01428 0.93753
 N245 N -0.07876 -0.01898 0.97482
 N246 N -0.07284 -0.00666 0.95661
 C247 C -0.08786 0.01093 0.95402
 C248 C -0.10391 0.00946 0.97154
 C249 C -0.09778 -0.00957 0.98451
 H250 H -0.08715 0.02382 0.94046
 H251 H -0.10657 -0.01604 0.99972
 N252 N -0.01866 -0.02490 0.92054
 N253 N -0.00649 -0.04326 0.92671
 C254 C 0.01120 -0.04595 0.91176
 C255 C 0.00996 -0.02850 0.89559
 C256 C -0.00904 -0.01545 0.90152
 H257 H 0.02404 -0.05953 0.91252
 H258 H -0.01532 -0.00023 0.89262
 H259 H -0.02771 -0.03059 0.96328
 H260 H -0.04637 -0.04926 0.94462
 N261 N 1.02486 0.57929 0.98103
 N262 N 1.04319 0.57294 0.99294
 C263 C 1.04623 0.58774 1.01071
 C264 C 1.02889 0.60405 1.00974
 C265 C 1.01561 0.59831 0.99080
 H266 H 1.05991 0.58673 1.02344
 H267 H 1.00040 0.60728 0.98464
 Cu268 Cu 1.06100 0.54580 0.98415
 Cu269 Cu 1.01433 0.56243 0.95382
 Cu270 Cu 1.04626 0.51423 0.93751
 N271 N 1.07893 0.51899 0.97469
 N272 N 1.07297 0.50668 0.95648
 C273 C 1.08799 0.48909 0.95386
 C274 C 1.10407 0.49057 0.97135
 C275 C 1.09799 0.50962 0.98429
 H276 H 1.08728 0.47619 0.94032
 H277 H 1.10674 0.51604 0.99953
 N278 N 1.01864 0.52478 0.92062
 N279 N 1.00647 0.54313 0.92681
 C280 C 0.98879 0.54586 0.91186
 C281 C 0.99003 0.52843 0.89566
 C282 C 1.00902 0.51536 0.90158
 H283 H 0.97597 0.55947 0.91261
 H284 H 1.01533 0.50018 0.89263
 H285 H 1.02766 0.53044 0.96327
 H286 H 1.04639 0.54914 0.94470
 N287 N 0.52491 0.07919 0.48123
 N288 N 0.54325 0.07282 0.49313
 C289 C 0.54635 0.08762 0.51090
 C290 C 0.52901 0.10396 0.50996
 C291 C 0.51570 0.09823 0.49103
 H292 H 0.56010 0.08665 0.52356
 H293 H 0.50048 0.10719 0.48488
 Cu294 Cu 0.56108 0.04583 0.48397
 Cu295 Cu 0.51436 0.06236 0.45395
 Cu296 Cu 0.54638 0.01417 0.43754
 N297 N 0.57903 0.01896 0.47479
 N298 N 0.57312 0.00666 0.45655
 C299 C 0.58822 -0.01086 0.45390
 C300 C 0.60431 -0.00933 0.47138
 C301 C 0.59815 0.00968 0.48436
 H302 H 0.58754 -0.02374 0.44034
 H303 H 0.60695 0.01617 0.49956
 N304 N 0.51871 0.02473 0.42067
 N305 N 0.50652 0.04306 0.42690
 C306 C 0.48881 0.04576 0.41197
 C307 C 0.49005 0.02834 0.39576
 C308 C 0.50908 0.01531 0.40164
 H309 H 0.47597 0.05934 0.41276
 H310 H 0.51539 0.00013 0.39268
 H311 H 0.52774 0.03037 0.46322
 H312 H 0.54636 0.04910 0.44461
 N313 N -0.02510 0.07946 0.51864
 N314 N -0.04348 0.07310 0.50678
 C315 C -0.04648 0.08780 0.48892
 C316 C -0.02911 0.10411 0.48983
 C317 C -0.01582 0.09843 0.50879
 H318 H -0.06020 0.08678 0.47622
 H319 H -0.00060 0.10743 0.51494
 Cu320 Cu -0.06138 0.04619 0.51600
 Cu321 Cu -0.01459 0.06267 0.54595
 Cu322 Cu -0.04660 0.01441 0.56229
 N323 N -0.07923 0.01920 0.52504
 N324 N -0.07328 0.00685 0.54322
 C325 C -0.08829 -0.01077 0.54577
 C326 C -0.10433 -0.00927 0.52825
 C327 C -0.09823 0.00980 0.51534
 H328 H -0.08762 -0.02367 0.55932
 H329 H -0.10699 0.01626 0.50011
 N330 N -0.01899 0.02505 0.57923
 N331 N -0.00680 0.04340 0.57304
 C332 C 0.01091 0.04609 0.58797
 C333 C 0.00966 0.02866 0.60416
 C334 C -0.00937 0.01561 0.59825
 H335 H 0.02378 0.05967 0.58718
 H336 H -0.01566 0.00039 0.60716
 H337 H -0.02804 0.03072 0.53662
 H338 H -0.04656 0.04936 0.55536
 N339 N 0.47543 0.57934 0.01897
 N340 N 0.45707 0.57298 0.00708
 C341 C 0.45401 0.58779 -0.01069
 C342 C 0.47140 0.60411 -0.00976
 C343 C 0.48469 0.59836 0.00917
 H344 H 0.44028 0.58681 -0.02337
 H345 H 0.49993 0.60732 0.01532
 Cu346 Cu 0.43917 0.54595 0.01620
 Cu347 Cu 0.48599 0.56251 0.04622
 Cu348 Cu 0.45390 0.51427 0.06255
 N349 N 0.42116 0.51900 0.02535
 N350 N 0.42708 0.50668 0.04356
 C351 C 0.41199 0.48910 0.04615
 C352 C 0.39586 0.49061 0.02866
 C353 C 0.40204 0.50969 0.01575
 H354 H 0.41267 0.47620 0.05970
 H355 H 0.39328 0.51618 0.00054
 N356 N 0.48162 0.52483 0.07946
 N357 N 0.49382 0.54318 0.07325
 C358 C 0.51154 0.54589 0.08818
 C359 C 0.51030 0.52848 0.10438
 C360 C 0.49126 0.51542 0.09849
 H361 H 0.52438 0.55949 0.08739
 H362 H 0.48496 0.50023 0.10745
 H363 H 0.47267 0.53062 0.03685
 H364 H 0.45410 0.54930 0.05550
 N365 N 0.52472 -0.07939 0.01894
 N366 N 0.54310 -0.07305 0.00707
 C367 C 0.54611 -0.08780 -0.01075
 C368 C 0.52866 -0.10406 -0.00989
 C369 C 0.51541 -0.09836 0.00908
 H370 H 0.55979 -0.08677 -0.02350
 H371 H 0.50020 -0.10736 0.01527
 Cu372 Cu 0.56108 -0.04609 0.01625
 Cu373 Cu 0.51420 -0.06262 0.04624
 Cu374 Cu 0.54632 -0.01441 0.06260
 N375 N 0.57903 -0.01911 0.02537
 N376 N 0.57310 -0.00678 0.04358
 C377 C 0.58817 0.01083 0.04613
 C378 C 0.60425 0.00937 0.02860
 C379 C 0.59811 -0.00975 0.01573
 H380 H 0.58752 0.02368 0.05974
 H381 H 0.60682 -0.01618 0.00047
 N382 N 0.51864 -0.02501 0.07956
 N383 N 0.50642 -0.04334 0.07334
 C384 C 0.48870 -0.04605 0.08826
 C385 C 0.48995 -0.02865 0.10449
 C386 C 0.50899 -0.01560 0.09860
 H387 H 0.47583 -0.05962 0.08745
 H388 H 0.51529 -0.00041 0.10754
 H389 H 0.52762 -0.03081 0.03696
 H390 H 0.54614 -0.04949 0.05562
 N391 N 1.02458 0.42067 0.51861
 N392 N 1.04290 0.42706 0.50668
 C393 C 1.04598 0.41225 0.48892
 C394 C 1.02862 0.39591 0.48990
 C395 C 1.01533 0.40164 0.50884
 H396 H 1.05972 0.41324 0.47624
 H397 H 1.00010 0.39266 0.51502
 Cu398 Cu 1.06075 0.45405 0.51581
 Cu399 Cu 1.01406 0.43749 0.54589
 Cu400 Cu 1.04612 0.48570 0.56224
 N401 N 1.07872 0.48093 0.52495
 N402 N 1.07283 0.49322 0.54320
 C403 C 1.08792 0.51077 0.54584
 C404 C 1.10400 0.50925 0.52835
 C405 C 1.09784 0.49023 0.51537
 H406 H 1.08724 0.52365 0.55941
 H407 H 1.10661 0.48375 0.50015
 N408 N 1.01847 0.47513 0.57914
 N409 N 1.00626 0.45679 0.57295
 C410 C 0.98857 0.45409 0.58791
 C411 C 0.98986 0.47151 0.60411
 C412 C 1.00888 0.48456 0.59819
 H413 H 0.97571 0.44050 0.58715
 H414 H 1.01521 0.49973 0.60714
 H415 H 1.02744 0.46948 0.53659
 H416 H 1.04606 0.45078 0.55517
 C417 C 0.37432 -0.00026 0.25022
 C418 C 0.12530 -0.00032 0.74966
 C419 C 0.62576 0.49978 0.25006
 C420 C 0.87469 0.50012 0.74992
 C421 C 0.24974 0.37564 -0.00008
 C422 C 0.75043 0.12434 0.00019
 C423 C 0.24981 0.62412 0.50000
 C424 C 0.74995 0.87590 0.49989
 C425 C -0.00050 0.25010 0.37467
 C426 C 0.00004 0.74998 0.12492
 C427 C 0.50019 0.24970 0.62568
 C428 C 0.49991 0.74999 0.87478
 C429 C 0.05616 0.24600 0.30622
 C430 C 0.08086 0.25587 0.30963
 C431 C 0.09089 0.23195 0.30373
 C432 C 0.06648 0.22202 0.30007
 C433 C 0.05577 0.23892 0.33185
 C434 C 0.06577 0.21501 0.32594
 C435 C 0.08016 0.24886 0.33550
 C436 C 0.09048 0.22487 0.32936
 C437 C 0.11045 0.22808 0.28805
 C438 C 0.12652 0.22498 0.27512
 C439 C 0.03612 0.24282 0.34739
 C440 C 0.01974 0.24607 0.35992
 H441 H 0.04182 0.25473 0.29687
 H442 H 0.08728 0.27262 0.30273
 H443 H 0.06108 0.21097 0.28531
 H444 H 0.05933 0.19826 0.33282
 H445 H 0.08553 0.25994 0.35025
 H446 H 0.10482 0.21615 0.33870
 C447 C 0.55764 0.74834 0.80707
 C448 C 0.58292 0.75599 0.81177
 C449 C 0.59131 0.73205 0.80377
 C450 C 0.56633 0.72435 0.79882
 C451 C 0.55618 0.73894 0.83191
 C452 C 0.56456 0.71501 0.82390
 C453 C 0.58115 0.74665 0.83685
 C454 C 0.58984 0.72265 0.82860
 C455 C 0.61088 0.72822 0.78810
 C456 C 0.62698 0.72516 0.77520
 C457 C 0.53653 0.74280 0.84746
 C458 C 0.52015 0.74602 0.86001
 H459 H 0.54418 0.75895 0.79839
 H460 H 0.59067 0.77279 0.80657
 H461 H 0.56046 0.71516 0.78300
 H462 H 0.55678 0.69821 0.82906
 H463 H 0.58701 0.75588 0.85265
 H464 H 0.60330 0.71204 0.83726
 C465 C 0.44070 0.74921 0.80826
 C466 C 0.41499 0.74439 0.81418
 C467 C 0.40850 0.76800 0.80377
 C468 C 0.43392 0.77286 0.79760
 C469 C 0.44363 0.76104 0.83190
 C470 C 0.43716 0.78463 0.82147
 C471 C 0.41823 0.75616 0.83807
 C472 C 0.41145 0.77983 0.82741
 C473 C 0.38890 0.77195 0.78814
 C474 C 0.37279 0.77515 0.77527
 C475 C 0.46328 0.75718 0.84747
 C476 C 0.47965 0.75397 0.86002
 H477 H 0.45298 0.73658 0.80058
 H478 H 0.40570 0.72787 0.81100
 H479 H 0.44016 0.77973 0.78077
 H480 H 0.44649 0.80114 0.82463
 H481 H 0.41203 0.74925 0.85489
 H482 H 0.39919 0.79246 0.83510
 C483 C -0.05956 0.24941 0.30810
 C484 C -0.08526 0.24454 0.31397
 C485 C -0.09176 0.26813 0.30357
 C486 C -0.06635 0.27305 0.29744
 C487 C -0.05670 0.26122 0.33175
 C488 C -0.06319 0.28482 0.32134
 C489 C -0.08211 0.25631 0.33787
 C490 C -0.08891 0.27997 0.32721
 C491 C -0.11128 0.27191 0.28785
 C492 C -0.12731 0.27499 0.27488
 C493 C -0.03709 0.25735 0.34734
 C494 C -0.02073 0.25412 0.35990
 H495 H -0.04726 0.23680 0.30043
 H496 H -0.09455 0.22803 0.31074
 H497 H -0.06009 0.27997 0.28064
 H498 H -0.05387 0.30132 0.32454
 H499 H -0.08834 0.24937 0.35466
 H500 H -0.10120 0.29259 0.33488
 C501 C -0.05378 0.73247 0.19352
 C502 C -0.07253 0.75065 0.19955
 C503 C -0.09123 0.73205 0.19606
 C504 C -0.07278 0.71381 0.19028
 C505 C -0.05618 0.73894 0.16784
 C506 C -0.07487 0.72034 0.16436
 C507 C -0.07462 0.75719 0.17363
 C508 C -0.09363 0.73853 0.17038
 C509 C -0.11076 0.72818 0.21176
 C510 C -0.12682 0.72508 0.22470
 C511 C -0.03656 0.74277 0.15224
 C512 C -0.02020 0.74598 0.13968
 H513 H -0.03717 0.73003 0.20286
 H514 H -0.07180 0.76306 0.21421
 H515 H -0.07225 0.69594 0.19734
 H516 H -0.07560 0.70793 0.14971
 H517 H -0.07513 0.77507 0.16661
 H518 H -0.11024 0.74100 0.16107
 C519 C 0.44221 0.24768 0.69339
 C520 C 0.41702 0.25564 0.68883
 C521 C 0.40833 0.23169 0.69653
 C522 C 0.43324 0.22367 0.70133
 C523 C 0.44358 0.23860 0.66842
 C524 C 0.43490 0.21465 0.67613
 C525 C 0.41869 0.24663 0.66362
 C526 C 0.40970 0.22262 0.67156
 C527 C 0.38867 0.22783 0.71224
 C528 C 0.37253 0.22473 0.72517
 C529 C 0.46338 0.24247 0.65292
 C530 C 0.47985 0.24570 0.64044
 H531 H 0.45580 0.25803 0.70220
 H532 H 0.40950 0.27249 0.69421
 H533 H 0.43905 0.21422 0.71702
 H534 H 0.44246 0.19782 0.67075
 H535 H 0.41291 0.25612 0.64794
 H536 H 0.39612 0.21227 0.66274
 C537 C 0.58047 0.27015 0.66088
 C538 C 0.58039 0.28679 0.68193
 C539 C 0.59193 0.26785 0.69662
 C540 C 0.59231 0.25126 0.67581
 C541 C 0.55673 0.26086 0.66848
 C542 C 0.56826 0.24191 0.68316
 C543 C 0.55635 0.27743 0.68929
 C544 C 0.56818 0.25855 0.70420
 C545 C 0.61156 0.27176 0.71233
 C546 C 0.62768 0.27490 0.72528
 C547 C 0.53696 0.25696 0.65296
 C548 C 0.52050 0.25373 0.64046
 H549 H 0.58533 0.27487 0.64291
 H550 H 0.58556 0.30530 0.68160
 H551 H 0.60729 0.24051 0.67043
 H552 H 0.56306 0.22341 0.68350
 H553 H 0.54134 0.28815 0.69467
 H554 H 0.56329 0.25380 0.72217
 C555 C 0.08167 0.75650 0.16165
 C556 C 0.08825 0.78010 0.17259
 C557 C 0.09129 0.76803 0.19608
 C558 C 0.08500 0.74448 0.18539
 C559 C 0.05623 0.76107 0.16788
 C560 C 0.05925 0.74898 0.19137
 C561 C 0.06250 0.78459 0.17858
 C562 C 0.06584 0.77257 0.20231
 C563 C 0.11085 0.77197 0.21176
 C564 C 0.12693 0.77516 0.22466
 C565 C 0.03662 0.75720 0.15227
 C566 C 0.02027 0.75398 0.13970
 H567 H 0.08792 0.74984 0.14475
 H568 H 0.10040 0.79294 0.16505
 H569 H 0.09443 0.72801 0.18838
 H570 H 0.04708 0.73614 0.19890
 H571 H 0.05303 0.80104 0.17561
 H572 H 0.05954 0.77919 0.21922
 C573 C 0.31049 0.06174 0.25445
 C574 C 0.31769 0.08758 0.25444
 C575 C 0.30336 0.09125 0.23235
 C576 C 0.29592 0.06571 0.23230
 C577 C 0.33158 0.05617 0.23922
 C578 C 0.31724 0.05984 0.21713
 C579 C 0.33903 0.08171 0.23928
 C580 C 0.32444 0.08569 0.21712
 C581 C 0.28763 0.11079 0.22850
 C582 C 0.27474 0.12689 0.22529
 C583 C 0.34711 0.03647 0.24308
 C584 C 0.35959 0.02004 0.24628
 H585 H 0.30493 0.05167 0.26984
 H586 H 0.31769 0.09919 0.26975
 H587 H 0.27802 0.05935 0.22939
 H588 H 0.31722 0.04823 0.20182
 H589 H 0.35692 0.08808 0.24219
 H590 H 0.32998 0.09576 0.20173
 C591 C 0.81073 0.56190 0.75422
 C592 C 0.81794 0.58774 0.75425
 C593 C 0.80359 0.59144 0.73217
 C594 C 0.79614 0.56590 0.73209
 C595 C 0.83180 0.55637 0.73898
 C596 C 0.81745 0.56006 0.71690
 C597 C 0.83925 0.58190 0.73906
 C598 C 0.82466 0.58590 0.71692
 C599 C 0.78789 0.61100 0.72838
 C600 C 0.77504 0.62712 0.72523
 C601 C 0.84739 0.53674 0.74280
 C602 C 0.85993 0.52037 0.74599
 H603 H 0.80517 0.55181 0.76960
 H604 H 0.81793 0.59934 0.76957
 H605 H 0.77824 0.55954 0.72917
 H606 H 0.81744 0.54844 0.70159
 H607 H 0.85716 0.58824 0.74197
 H608 H 0.83020 0.59598 0.70152
 C609 C 0.83680 0.42348 0.77734
 C610 C 0.81175 0.42539 0.78676
 C611 C 0.80363 0.40869 0.76771
 C612 C 0.82843 0.40647 0.75836
 C613 C 0.83186 0.44378 0.76091
 C614 C 0.82373 0.42709 0.74187
 C615 C 0.80706 0.44600 0.77027
 C616 C 0.79870 0.42901 0.75128
 C617 C 0.78785 0.38916 0.77145
 C618 C 0.77492 0.37307 0.77454
 C619 C 0.84742 0.46345 0.75708
 C620 C 0.85994 0.47985 0.75388
 H621 H 0.85265 0.42148 0.78800
 H622 H 0.80666 0.42448 0.80527
 H623 H 0.83705 0.39000 0.75351
 H624 H 0.82883 0.42802 0.72337
 H625 H 0.79845 0.46248 0.77512
 H626 H 0.78284 0.43104 0.74063
 C627 C 0.33386 -0.07445 0.28081
 C628 C 0.30757 -0.07241 0.28570
 C629 C 0.30304 -0.09177 0.26802
 C630 C 0.32911 -0.09411 0.26318
 C631 C 0.33133 -0.05664 0.26122
 C632 C 0.32681 -0.07599 0.24353
 C633 C 0.30528 -0.05430 0.26605
 C634 C 0.30052 -0.07395 0.24842
 C635 C 0.28725 -0.11136 0.27180
 C636 C 0.27432 -0.12749 0.27495
 C637 C 0.34695 -0.03696 0.25739
 C638 C 0.35952 -0.02055 0.25419
 H639 H 0.34776 -0.07441 0.29408
 H640 H 0.29950 -0.07111 0.30309
 H641 H 0.33877 -0.11067 0.26204
 H642 H 0.33489 -0.07725 0.22615
 H643 H 0.29564 -0.03772 0.26719
 H644 H 0.28664 -0.07394 0.23514
 C645 C 0.17438 -0.06676 0.71493
 C646 C 0.20022 -0.06737 0.72208
 C647 C 0.19660 -0.09178 0.73204
 C648 C 0.17098 -0.09147 0.72482
 C649 C 0.16829 -0.05668 0.73877
 C650 C 0.16466 -0.08108 0.74873
 C651 C 0.19390 -0.05698 0.74599
 C652 C 0.19050 -0.08168 0.75589
 C653 C 0.21240 -0.11136 0.72829
 C654 C 0.22533 -0.12749 0.72516
 C655 C 0.15266 -0.03700 0.74256
 C656 C 0.14009 -0.02061 0.74572
 H657 H 0.16757 -0.06038 0.69813
 H658 H 0.21500 -0.06191 0.71108
 H659 H 0.16168 -0.10583 0.71607
 H660 H 0.14986 -0.08648 0.75974
 H661 H 0.20316 -0.04259 0.75473
 H662 H 0.19729 -0.08801 0.77271
 C663 C 0.66653 0.42599 0.21943
 C664 C 0.69289 0.42807 0.21496
 C665 C 0.69709 0.40857 0.23254
 C666 C 0.67098 0.40618 0.23696
 C667 C 0.66880 0.44360 0.23923
 C668 C 0.67303 0.42410 0.25681
 C669 C 0.69493 0.44599 0.23481
 C670 C 0.69939 0.42619 0.25233
 C671 C 0.71278 0.38902 0.22876
 C672 C 0.72567 0.37293 0.22559
 C673 C 0.65316 0.46320 0.24298
 C674 C 0.64057 0.47955 0.24613
 H675 H 0.65284 0.42616 0.20597
 H676 H 0.70124 0.42951 0.19771
 H677 H 0.66131 0.38959 0.23780
 H678 H 0.66469 0.42270 0.27406
 H679 H 0.70459 0.46259 0.23397
 H680 H 0.71310 0.42605 0.26580
 C681 C 0.66822 0.57865 0.24694
 C682 C 0.67024 0.59262 0.26974
 C683 C 0.69673 0.59124 0.26788
 C684 C 0.69495 0.57758 0.24514
 C685 C 0.66855 0.55613 0.26107
 C686 C 0.69504 0.55475 0.25922
 C687 C 0.67033 0.56979 0.28381
 C688 C 0.69706 0.56872 0.28201
 C689 C 0.71244 0.61079 0.27166
 C690 C 0.72531 0.62690 0.27480
 C691 C 0.65300 0.53646 0.25723
 C692 C 0.64048 0.52006 0.25403
 H693 H 0.65618 0.58250 0.23247
 H694 H 0.66022 0.60842 0.27412
 H695 H 0.70527 0.58103 0.22931
 H696 H 0.70508 0.53896 0.25485
 H697 H 0.66002 0.56634 0.29966
 H698 H 0.70911 0.56488 0.29648
 C699 C 0.18565 0.06500 0.74286
 C700 C 0.17802 0.09015 0.74819
 C701 C 0.19625 0.09127 0.76752
 C702 C 0.20411 0.06642 0.76225
 C703 C 0.16800 0.05617 0.76070
 C704 C 0.18623 0.05729 0.78004
 C705 C 0.16013 0.08102 0.76598
 C706 C 0.17861 0.08245 0.78537
 C707 C 0.21206 0.11078 0.77126
 C708 C 0.22503 0.12685 0.77436
 C709 C 0.15249 0.03645 0.75684
 C710 C 0.14002 0.02000 0.75362
 H711 H 0.18838 0.05762 0.72534
 H712 H 0.17483 0.10389 0.73515
 H713 H 0.22237 0.06064 0.76078
 H714 H 0.18942 0.04356 0.79309
 H715 H 0.14187 0.08679 0.76747
 H716 H 0.17588 0.08983 0.80290
 C717 C 0.23711 0.30628 0.05392
 C718 C 0.25318 0.30397 0.07525
 C719 C 0.23178 0.30443 0.09102
 C720 C 0.21565 0.30648 0.06999
 C721 C 0.23859 0.33275 0.05607
 C722 C 0.21719 0.33320 0.07182
 C723 C 0.25472 0.33069 0.07709
 C724 C 0.23326 0.33090 0.09317
 C725 C 0.22801 0.28865 0.11048
 C726 C 0.22490 0.27568 0.12650
 C727 C 0.24249 0.34835 0.03649
 C728 C 0.24575 0.36090 0.02015
 H729 H 0.23872 0.29635 0.03755
 H730 H 0.26791 0.29176 0.07688
 H731 H 0.19955 0.29632 0.06731
 H732 H 0.20244 0.34540 0.07017
 H733 H 0.27083 0.34083 0.07975
 H734 H 0.23163 0.34082 0.10954
 C735 C 0.73762 0.80668 0.55395
 C736 C 0.75367 0.80441 0.57529
 C737 C 0.73225 0.80483 0.59103
 C738 C 0.71614 0.80686 0.56999
 C739 C 0.73905 0.83315 0.55609
 C740 C 0.71763 0.83358 0.57182
 C741 C 0.75517 0.83113 0.57712
 C742 C 0.73369 0.83131 0.59318
 C743 C 0.72847 0.78906 0.61047
 C744 C 0.72534 0.77608 0.62647
 C745 C 0.74286 0.84870 0.53649
 C746 C 0.74603 0.86120 0.52012
 H747 H 0.73928 0.79678 0.53756
 H748 H 0.76842 0.79222 0.57693
 H749 H 0.70006 0.79668 0.56727
 H750 H 0.70289 0.84577 0.57013
 H751 H 0.77126 0.84130 0.57980
 H752 H 0.73203 0.84123 0.60955
 C753 C 0.78076 0.83552 0.42614
 C754 C 0.78538 0.80919 0.42828
 C755 C 0.76782 0.80482 0.40880
 C756 C 0.76326 0.83091 0.40635
 C757 C 0.76097 0.83314 0.44373
 C758 C 0.74341 0.82877 0.42426
 C759 C 0.76553 0.80706 0.44618
 C760 C 0.74804 0.80244 0.42640
 C761 C 0.77164 0.78905 0.38937
 C762 C 0.77479 0.77607 0.37338
 C763 C 0.75712 0.84869 0.46331
 C764 C 0.75391 0.86120 0.47967
 H765 H 0.79414 0.84931 0.42629
 H766 H 0.80266 0.80093 0.42971
 H767 H 0.76236 0.84051 0.38973
 H768 H 0.72612 0.83703 0.42287
 H769 H 0.76642 0.79747 0.46281
 H770 H 0.73465 0.78865 0.42630
 C771 C 0.28082 0.31568 -0.05807
 C772 C 0.26373 0.29665 -0.06614
 C773 C 0.26741 0.30447 -0.09129
 C774 C 0.28457 0.32326 -0.08351
 C775 C 0.26053 0.33275 -0.05630
 C776 C 0.26420 0.34057 -0.08144
 C777 C 0.24337 0.31396 -0.06406
 C778 C 0.24710 0.32154 -0.08952
 C779 C 0.27132 0.28874 -0.11079
 C780 C 0.27457 0.27582 -0.12682
 C781 C 0.25676 0.34835 -0.03669
 C782 C 0.25364 0.36090 -0.02032
 H783 H 0.29462 0.31346 -0.04489
 H784 H 0.26357 0.27842 -0.06006
 H785 H 0.30156 0.32688 -0.09172
 H786 H 0.26434 0.35882 -0.08748
 H787 H 0.22639 0.31034 -0.05582
 H788 H 0.23327 0.32374 -0.10266
 C789 C 0.71986 0.18493 -0.05740
 C790 C 0.73734 0.20334 -0.06606
 C791 C 0.73275 0.19547 -0.09105
 C792 C 0.71521 0.17730 -0.08267
 C793 C 0.73963 0.16722 -0.05604
 C794 C 0.73505 0.15935 -0.08101
 C795 C 0.75718 0.18539 -0.06439
 C796 C 0.75253 0.17776 -0.08968
 C797 C 0.72883 0.21118 -0.11055
 C798 C 0.72558 0.22409 -0.12660
 C799 C 0.74340 0.15164 -0.03642
 C800 C 0.74653 0.13910 -0.02004
 H801 H 0.70650 0.18768 -0.04387
 H802 H 0.73825 0.22160 -0.06013
 H803 H 0.69790 0.17418 -0.09040
 H804 H 0.73416 0.14108 -0.08690
 H805 H 0.77448 0.18851 -0.05663
 H806 H 0.76594 0.17502 -0.10317
 C807 C 0.24060 0.66008 0.41829
 C808 C 0.21776 0.67323 0.41330
 C809 C 0.23184 0.69538 0.40893
 C810 C 0.25461 0.68249 0.41362
 C811 C 0.23863 0.66703 0.44387
 C812 C 0.25269 0.68919 0.43951
 C813 C 0.21586 0.67993 0.43920
 C814 C 0.22986 0.70232 0.43452
 C815 C 0.22812 0.71120 0.38947
 C816 C 0.22507 0.72422 0.37348
 C817 C 0.24254 0.65142 0.46344
 C818 C 0.24583 0.63887 0.47977
 H819 H 0.24504 0.64252 0.41188
 H820 H 0.20335 0.66686 0.40230
 H821 H 0.27050 0.68373 0.40290
 H822 H 0.26707 0.69556 0.45054
 H823 H 0.19998 0.67869 0.44995
 H824 H 0.22541 0.71987 0.44097
 C825 C 0.24235 0.67257 0.57484
 C826 C 0.26117 0.66956 0.59370
 C827 C 0.26734 0.69532 0.59122
 C828 C 0.24858 0.69857 0.57268
 C829 C 0.26052 0.66699 0.55626
 C830 C 0.26669 0.69275 0.55378
 C831 C 0.27929 0.66374 0.57479
 C832 C 0.28551 0.68974 0.57262
 C833 C 0.27113 0.71114 0.61067
 C834 C 0.27425 0.72416 0.62667
 C835 C 0.25679 0.65139 0.53664
 C836 C 0.25370 0.63885 0.52026
 H837 H 0.22455 0.66533 0.57552
 H838 H 0.25896 0.66022 0.61034
 H839 H 0.23602 0.71310 0.57203
 H840 H 0.26888 0.70208 0.53713
 H841 H 0.29185 0.64921 0.57540
 H842 H 0.30330 0.69699 0.57190
 C843 C 0.75592 0.19311 0.05613
 C844 C 0.74486 0.19055 0.08041
 C845 C 0.76859 0.19540 0.09137
 C846 C 0.77972 0.19819 0.06739
 C847 C 0.76168 0.16714 0.05638
 C848 C 0.78542 0.17199 0.06732
 C849 C 0.75056 0.16435 0.08036
 C850 C 0.77436 0.16943 0.09162
 C851 C 0.77241 0.21113 0.11086
 C852 C 0.77553 0.22408 0.12689
 C853 C 0.75773 0.15158 0.03678
 C854 C 0.75444 0.13907 0.02042
 H855 H 0.74831 0.20264 0.04129
 H856 H 0.72823 0.19839 0.08601
 H857 H 0.79173 0.21231 0.06229
 H858 H 0.80205 0.16418 0.06170
 H859 H 0.73853 0.15024 0.08544
 H860 H 0.78199 0.15991 0.10645
 C861 C 0.46633 0.31030 0.56937
 C862 C 0.46790 0.33620 0.57619
 C863 C 0.48205 0.34085 0.55416
 C864 C 0.48043 0.31526 0.54710
 C865 C 0.48907 0.30580 0.58242
 C866 C 0.50322 0.31045 0.56038
 C867 C 0.49070 0.33140 0.58947
 C868 C 0.50480 0.33635 0.56719
 C869 C 0.47812 0.36040 0.53844
 C870 C 0.47498 0.37645 0.52548
 C871 C 0.49297 0.28624 0.59815
 C872 C 0.49620 0.26994 0.61082
 H873 H 0.45054 0.29939 0.57037
 H874 H 0.45333 0.34701 0.58251
 H875 H 0.47618 0.30889 0.52947
 H876 H 0.51778 0.29966 0.55400
 H877 H 0.49497 0.33781 0.60707
 H878 H 0.52058 0.34727 0.56611
 C879 C 0.00605 0.81439 0.06356
 C880 C -0.01411 0.81629 0.04601
 C881 C -0.01827 0.84132 0.05398
 C882 C 0.00184 0.83972 0.07129
 C883 C -0.01122 0.80620 0.08206
 C884 C -0.01538 0.83123 0.09002
 C885 C -0.03133 0.80779 0.06473
 C886 C -0.03555 0.83312 0.07245
 C887 C -0.02210 0.86085 0.03830
 C888 C -0.02519 0.87689 0.02534
 C889 C -0.00725 0.78657 0.09761
 C890 C -0.00397 0.77021 0.11015
 H891 H 0.02320 0.80646 0.06008
 H892 H -0.01364 0.81038 0.02773
 H893 H 0.01543 0.85309 0.07376
 H894 H -0.01584 0.83714 0.10829
 H895 H -0.04490 0.79441 0.06221
 H896 H -0.05271 0.84105 0.07590
 C897 C 0.02591 0.67238 0.08809
 C898 C 0.00671 0.65669 0.07784
 C899 C 0.01832 0.65861 0.05399
 C900 C 0.03757 0.67399 0.06399
 C901 C 0.01125 0.69373 0.08209
 C902 C 0.02285 0.69565 0.05823
 C903 C -0.00801 0.67835 0.07208
 C904 C 0.00366 0.67996 0.04799
 C905 C 0.02220 0.63910 0.03829
 C906 C 0.02530 0.62308 0.02530
 C907 C 0.00730 0.71337 0.09763
 C908 C 0.00404 0.72974 0.11016
 H909 H 0.03500 0.66951 0.10477
 H910 H 0.00012 0.64044 0.08571
 H911 H 0.05635 0.67197 0.06047
 H912 H 0.02943 0.71188 0.05031
 H913 H -0.02679 0.68037 0.07555
 H914 H -0.00542 0.68282 0.03130
 C915 C 0.50106 0.19160 0.55806
 C916 C 0.52500 0.18372 0.54890
 C917 C 0.51841 0.15852 0.55428
 C918 C 0.49453 0.16609 0.56318
 C919 C 0.51138 0.19356 0.58251
 C920 C 0.50479 0.16835 0.58786
 C921 C 0.53526 0.18599 0.57357
 C922 C 0.52873 0.16047 0.57870
 C923 C 0.52231 0.13902 0.53853
 C924 C 0.52544 0.12301 0.52553
 C925 C 0.50745 0.21314 0.59821
 C926 C 0.50419 0.22945 0.61086
 H927 H 0.48965 0.20459 0.54969
 H928 H 0.53333 0.18976 0.53268
 H929 H 0.47785 0.15767 0.55869
 H930 H 0.49642 0.16225 0.60404
 H931 H 0.55197 0.19439 0.57797
 H932 H 0.54016 0.14744 0.58698
 C933 C -0.01136 0.19559 0.44412
 C934 C -0.03370 0.18078 0.44508
 C935 C -0.01875 0.15881 0.44571
 C936 C 0.00354 0.17332 0.44501
 C937 C -0.01173 0.19391 0.41758
 C938 C 0.00322 0.17194 0.41823
 C939 C -0.03402 0.17941 0.41830
 C940 C -0.01912 0.15712 0.41918
 C941 C -0.02256 0.13926 0.46138
 C942 C -0.02560 0.12320 0.47432
 C943 C -0.00781 0.21353 0.40201
 C944 C -0.00454 0.22988 0.38945
 H945 H -0.00811 0.21163 0.45421
 H946 H -0.04890 0.18418 0.45632
 H947 H 0.01890 0.17058 0.45621
 H948 H 0.01846 0.16854 0.40703
 H949 H -0.04941 0.18215 0.40714
 H950 H -0.02237 0.14107 0.40913
 C951 C 0.48394 0.66887 0.90988
 C952 C 0.50155 0.65997 0.92804
 C953 C 0.48195 0.65873 0.94598
 C954 C 0.46429 0.66733 0.92807
 C955 C 0.48888 0.69379 0.91776
 C956 C 0.46930 0.69255 0.93572
 C957 C 0.50654 0.68519 0.93569
 C958 C 0.48690 0.68364 0.95387
 C959 C 0.47809 0.63921 0.96172
 C960 C 0.47498 0.62318 0.97470
 C961 C 0.49273 0.71340 0.90215
 C962 C 0.49594 0.72975 0.88956
 H963 H 0.48278 0.66305 0.89161
 H964 H 0.51478 0.64636 0.92508
 H965 H 0.44687 0.65977 0.92515
 H966 H 0.45609 0.70618 0.93872
 H967 H 0.52395 0.69277 0.93865
 H968 H 0.48807 0.68947 0.97214
 C969 C 0.51833 0.80376 0.94323
 C970 C 0.53652 0.82313 0.93957
 C971 C 0.51812 0.84122 0.94597
 C972 C 0.49998 0.82214 0.94988
 C973 C 0.51108 0.80617 0.91776
 C974 C 0.49267 0.82425 0.92417
 C975 C 0.52922 0.82524 0.91386
 C976 C 0.51086 0.84363 0.92051
 C977 C 0.52200 0.86076 0.96167
 C978 C 0.52509 0.87684 0.97460
 C979 C 0.50717 0.78657 0.90214
 C980 C 0.50391 0.77023 0.88956
 H981 H 0.52135 0.78716 0.95242
 H982 H 0.55458 0.82291 0.94612
 H983 H 0.48802 0.82110 0.96489
 H984 H 0.47460 0.82445 0.91767
 H985 H 0.54120 0.82627 0.89887
 H986 H 0.50782 0.86024 0.91134
 C987 C -0.00375 0.32856 0.41782
 C988 C -0.00460 0.32730 0.44459
 C989 C 0.01794 0.34138 0.44566
 C990 C 0.01886 0.34295 0.41913
 C991 C 0.01079 0.30630 0.41754
 C992 C 0.03333 0.32038 0.41862
 C993 C 0.00987 0.30474 0.44408
 C994 C 0.03247 0.31913 0.44539
 C995 C 0.02187 0.36088 0.46136
 C996 C 0.02501 0.37688 0.47435
 C997 C 0.00683 0.28669 0.40198
 C998 C 0.00354 0.27033 0.38943
 H999 H -0.01869 0.33219 0.40631
 H1000 H -0.02014 0.33039 0.45547
 H1001 H 0.02259 0.35889 0.40908
 H1002 H 0.04889 0.31730 0.40778
 H1003 H 0.00613 0.28882 0.45417
 H1004 H 0.04739 0.31551 0.45695
 C1005 C 0.31635 0.57552 0.46534
 C1006 C 0.34085 0.57858 0.47580
 C1007 C 0.34092 0.55280 0.48237
 C1008 C 0.31672 0.54950 0.47185
 C1009 C 0.30586 0.58102 0.48914
 C1010 C 0.30590 0.55524 0.49571
 C1011 C 0.33005 0.58431 0.49966
 C1012 C 0.33040 0.55829 0.50617
 C1013 C 0.36046 0.53710 0.47858
 C1014 C 0.37657 0.52425 0.47540
 C1015 C 0.28631 0.59668 0.49292
 C1016 C 0.27001 0.60932 0.49607
 H1017 H 0.31032 0.58277 0.44861
 H1018 H 0.35543 0.58802 0.46757
 H1019 H 0.31149 0.53499 0.46038
 H1020 H 0.29132 0.54580 0.50393
 H1021 H 0.33524 0.59882 0.51115
 H1022 H 0.33640 0.55102 0.52291
 C1023 C 0.82010 0.06945 0.00869
 C1024 C 0.81894 0.04648 -0.00510
 C1025 C 0.84146 0.05321 -0.01752
 C1026 C 0.84294 0.07592 -0.00379
 C1027 C 0.80650 0.08144 -0.01074
 C1028 C 0.82902 0.08815 -0.02316
 C1029 C 0.80502 0.05871 -0.02447
 C1030 C 0.82786 0.06518 -0.03695
 C1031 C 0.86092 0.03754 -0.02132
 C1032 C 0.87695 0.02468 -0.02452
 C1033 C 0.78695 0.09704 -0.00694
 C1034 C 0.77063 0.10960 -0.00376
 H1035 H 0.81670 0.07138 0.02750
 H1036 H 0.81507 0.02914 0.00224
 H1037 H 0.85880 0.08274 0.00465
 H1038 H 0.83292 0.10547 -0.03053
 H1039 H 0.78919 0.05184 -0.03292
 H1040 H 0.83129 0.06320 -0.05575
 C1041 C 0.69471 0.06053 0.02774
 C1042 C 0.67057 0.06782 0.03685
 C1043 C 0.65927 0.05304 0.01785
 C1044 C 0.68311 0.04550 0.00879
 C1045 C 0.69434 0.08128 0.01110
 C1046 C 0.68306 0.06648 -0.00791
 C1047 C 0.67051 0.08880 0.02015
 C1048 C 0.65892 0.07377 0.00120
 C1049 C 0.63969 0.03737 0.02160
 C1050 C 0.62353 0.02456 0.02473
 C1051 C 0.71391 0.09693 0.00731
 C1052 C 0.73022 0.10955 0.00414
 H1053 H 0.70964 0.05525 0.03860
 H1054 H 0.66521 0.06818 0.05530
 H1055 H 0.68802 0.02750 0.00418
 H1056 H 0.68845 0.06610 -0.02635
 H1057 H 0.66563 0.10680 0.02477
 H1058 H 0.64399 0.07905 -0.00968
 C1059 C 0.19402 0.56050 0.52742
 C1060 C 0.16990 0.56777 0.53657
 C1061 C 0.15862 0.55305 0.51752
 C1062 C 0.18243 0.54552 0.50844
 C1063 C 0.19363 0.58128 0.51083
 C1064 C 0.18235 0.56654 0.49179
 C1065 C 0.16982 0.58880 0.51992
 C1066 C 0.15822 0.57382 0.50093
 C1067 C 0.13917 0.53736 0.52127
 C1068 C 0.12314 0.52448 0.52444
 C1069 C 0.21323 0.59685 0.50707
 C1070 C 0.22959 0.60938 0.50392
 H1071 H 0.20896 0.55519 0.53826
 H1072 H 0.16451 0.56804 0.55501
 H1073 H 0.18729 0.52752 0.50379
 H1074 H 0.18770 0.56620 0.47334
 H1075 H 0.16490 0.60677 0.52459
 H1076 H 0.14324 0.57905 0.49011
 C1077 C 0.17675 0.42633 0.00807
 C1078 C 0.17876 0.45151 -0.00095
 C1079 C 0.15867 0.44675 -0.01768
 C1080 C 0.15634 0.42183 -0.00873
 C1081 C 0.19364 0.41852 -0.01092
 C1082 C 0.17354 0.41378 -0.02765
 C1083 C 0.19596 0.44346 -0.01988
 C1084 C 0.17555 0.43896 -0.03666
 C1085 C 0.13922 0.46244 -0.02148
 C1086 C 0.12319 0.47531 -0.02470
 C1087 C 0.21320 0.40293 -0.00715
 C1088 C 0.22954 0.39038 -0.00400
 H1089 H 0.17749 0.42095 0.02649
 H1090 H 0.18063 0.46723 0.00995
 H1091 H 0.13979 0.41317 -0.00419
 H1092 H 0.17164 0.39809 -0.03859
 H1093 H 0.21248 0.45218 -0.02442
 H1094 H 0.17478 0.44439 -0.05508
 C1095 C 0.69624 0.94362 0.47961
 C1096 C 0.67559 0.93886 0.46319
 C1097 C 0.65899 0.94701 0.48227
 C1098 C 0.67932 0.95203 0.49863
 C1099 C 0.69399 0.91885 0.48903
 C1100 C 0.67739 0.92701 0.50811
 C1101 C 0.67366 0.91384 0.47267
 C1102 C 0.65674 0.92225 0.49169
 C1103 C 0.63952 0.96265 0.47847
 C1104 C 0.62347 0.97549 0.47528
 C1105 C 0.71350 0.90323 0.49281
 C1106 C 0.72978 0.89064 0.49597
 H1107 H 0.71271 0.95222 0.47470
 H1108 H 0.67459 0.94395 0.44469
 H1109 H 0.68134 0.96794 0.50922
 H1110 H 0.67839 0.92197 0.52662
 H1111 H 0.67163 0.89796 0.46205
 H1112 H 0.64025 0.91368 0.49661
 C1113 C 0.82240 0.91765 0.53153
 C1114 C 0.84312 0.92080 0.51480
 C1115 C 0.84087 0.94715 0.51750
 C1116 C 0.82047 0.94426 0.53429
 C1117 C 0.80589 0.91892 0.51075
 C1118 C 0.80364 0.94529 0.51345
 C1119 C 0.82629 0.92183 0.49397
 C1120 C 0.82435 0.94844 0.49673
 C1121 C 0.86037 0.96277 0.52124
 C1122 C 0.87647 0.97557 0.52438
 C1123 C 0.78639 0.90329 0.50698
 C1124 C 0.77011 0.89068 0.50382
 H1125 H 0.82132 0.90481 0.54578
 H1126 H 0.85961 0.91096 0.51542
 H1127 H 0.81836 0.95370 0.55089
 H1128 H 0.78717 0.95516 0.51285
 H1129 H 0.82842 0.91243 0.47735
 H1130 H 0.82544 0.96133 0.48252
 C1131 C 0.32292 0.41679 0.03117
 C1132 C 0.34319 0.42062 0.01404
 C1133 C 0.34094 0.44687 0.01769
 C1134 C 0.32097 0.44328 0.03488
 C1135 C 0.30585 0.41867 0.01088
 C1136 C 0.30358 0.44493 0.01454
 C1137 C 0.32581 0.42227 -0.00631
 C1138 C 0.32386 0.44876 -0.00259
 C1139 C 0.36049 0.46255 0.02153
 C1140 C 0.37661 0.47539 0.02474
 C1141 C 0.28627 0.40304 0.00707
 C1142 C 0.26995 0.39043 0.00388
 H1143 H 0.32225 0.40347 0.04500
 H1144 H 0.35969 0.41079 0.01387
 H1145 H 0.31921 0.45212 0.05185
 H1146 H 0.28707 0.45475 0.01471
 H1147 H 0.32753 0.41345 -0.02329
 H1148 H 0.32448 0.46210 -0.01641
 C1149 C 0.58578 0.49952 0.33034
 C1150 C 0.55970 0.50575 0.33054
 C1151 C 0.55440 0.48194 0.34115
 C1152 C 0.58022 0.47565 0.34126
 C1153 C 0.58273 0.48881 0.30620
 C1154 C 0.57741 0.46501 0.31681
 C1155 C 0.55689 0.49510 0.30609
 C1156 C 0.55133 0.47124 0.31700
 C1157 C 0.53863 0.47812 0.36063
 C1158 C 0.52568 0.47498 0.37666
 C1159 C 0.59838 0.49263 0.28662
 C1160 C 0.61098 0.49582 0.27029
 H1161 H 0.60011 0.51119 0.33559
 H1162 H 0.55220 0.52243 0.33641
 H1163 H 0.58962 0.46760 0.35595
 H1164 H 0.58487 0.44831 0.31092
 H1165 H 0.54747 0.50314 0.29140
 H1166 H 0.53698 0.45959 0.31176
 C1167 C 0.08528 -0.00021 0.82997
 C1168 C 0.05922 0.00608 0.83020
 C1169 C 0.05387 -0.01769 0.84085
 C1170 C 0.07968 -0.02406 0.84092
 C1171 C 0.08217 -0.01095 0.80583
 C1172 C 0.07679 -0.03472 0.81649
 C1173 C 0.05634 -0.00458 0.80576
 C1174 C 0.05074 -0.02841 0.81672
 C1175 C 0.03818 -0.02153 0.86036
 C1176 C 0.02530 -0.02471 0.87643
 C1177 C 0.09786 -0.00727 0.78625
 C1178 C 0.11050 -0.00420 0.76991
 H1179 H 0.09964 0.01144 0.83520
 H1180 H 0.05176 0.02279 0.83609
 H1181 H 0.08906 -0.03211 0.85562
 H1182 H 0.08418 -0.05146 0.81062
 H1183 H 0.04689 0.00348 0.79110
 H1184 H 0.03633 -0.04002 0.81154
 C1185 C 0.05820 0.02242 0.69574
 C1186 C 0.06379 0.03709 0.67399
 C1187 C 0.05371 0.01776 0.65876
 C1188 C 0.04786 0.00316 0.68020
 C1189 C 0.08207 0.01086 0.69368
 C1190 C 0.07195 -0.00847 0.67846
 C1191 C 0.08789 0.02547 0.67224
 C1192 C 0.07755 0.00619 0.65671
 C1193 C 0.03798 0.02162 0.63929
 C1194 C 0.02505 0.02483 0.62326
 C1195 C 0.09781 0.00693 0.71318
 C1196 C 0.11047 0.00366 0.72945
 H1197 H 0.05039 0.02907 0.71198
 H1198 H 0.06019 0.05585 0.67189
 H1199 H 0.03120 -0.00595 0.68322
 H1200 H 0.07547 -0.02725 0.68053
 H1201 H 0.10451 0.03462 0.66918
 H1202 H 0.08529 -0.00045 0.64043
 C1203 C 0.55812 0.52059 0.19623
 C1204 C 0.56296 0.53679 0.17542
 C1205 C 0.55442 0.51770 0.15899
 C1206 C 0.54933 0.50156 0.17950
 C1207 C 0.58274 0.51081 0.19394
 C1208 C 0.57418 0.49172 0.17752
 C1209 C 0.58783 0.52695 0.17343
 C1210 C 0.57903 0.50792 0.15670
 C1211 C 0.53867 0.52154 0.13952
 C1212 C 0.52572 0.52470 0.12349
 C1213 C 0.59840 0.50694 0.21350
 C1214 C 0.61099 0.50372 0.22982
 H1215 H 0.54969 0.52575 0.21271
 H1216 H 0.55814 0.55536 0.17433
 H1217 H 0.53330 0.49119 0.18176
 H1218 H 0.57897 0.47314 0.17862
 H1219 H 0.60383 0.53735 0.17118
 H1220 H 0.58744 0.50275 0.14022
 C1221 C 0.41335 -0.00205 0.16941
 C1222 C 0.43890 0.00607 0.16841
 C1223 C 0.44581 -0.01787 0.15911
 C1224 C 0.42052 -0.02605 0.15981
 C1225 C 0.41747 -0.01105 0.19409
 C1226 C 0.42441 -0.03498 0.18479
 C1227 C 0.44278 -0.00286 0.19340
 C1228 C 0.44995 -0.02685 0.18379
 C1229 C 0.46157 -0.02169 0.13962
 C1230 C 0.47452 -0.02486 0.12359
 C1231 C 0.40176 -0.00730 0.21365
 C1232 C 0.38912 -0.00418 0.22998
 H1233 H 0.39814 0.00820 0.16372
 H1234 H 0.44508 0.02288 0.16144
 H1235 H 0.41156 -0.03564 0.14577
 H1236 H 0.41829 -0.05182 0.19176
 H1237 H 0.45179 0.00672 0.20741
 H1238 H 0.46519 -0.03708 0.18946
 C1239 C 0.91355 0.49818 0.66913
 C1240 C 0.93910 0.50628 0.66811
 C1241 C 0.94597 0.48233 0.65881
 C1242 C 0.92067 0.47417 0.65952
 C1243 C 0.91769 0.48917 0.69380
 C1244 C 0.92459 0.46523 0.68450
 C1245 C 0.94300 0.49733 0.69308
 C1246 C 0.95013 0.47334 0.68347
 C1247 C 0.96165 0.47848 0.63931
 C1248 C 0.97453 0.47530 0.62325
 C1249 C 0.90205 0.49300 0.71336
 C1250 C 0.88946 0.49618 0.72969
 H1251 H 0.89833 0.50844 0.66346
 H1252 H 0.94529 0.52309 0.66114
 H1253 H 0.91172 0.46460 0.64547
 H1254 H 0.91846 0.44840 0.69146
 H1255 H 0.95202 0.50689 0.70711
 H1256 H 0.96538 0.46310 0.68911
 C1257 C 0.94427 0.51179 0.80397
 C1258 C 0.94449 0.53353 0.81967
 C1259 C 0.94608 0.51772 0.84098
 C1260 C 0.94611 0.49604 0.82558
 C1261 C 0.91776 0.51096 0.80602
 C1262 C 0.91937 0.49514 0.82732
 C1263 C 0.91775 0.53264 0.82141
 C1264 C 0.91959 0.51688 0.84303
 C1265 C 0.96179 0.52152 0.86046
 C1266 C 0.97469 0.52467 0.87652
 C1267 C 0.90209 0.50720 0.78646
 C1268 C 0.88948 0.50405 0.77014
 H1269 H 0.95424 0.50966 0.78768
 H1270 H 0.95504 0.54934 0.81677
 H1271 H 0.95798 0.48106 0.82754
 H1272 H 0.90886 0.47931 0.83024
 H1273 H 0.90592 0.54765 0.81946
 H1274 H 0.90966 0.51902 0.85934
 C1275 C 0.44298 0.01830 0.30371
 C1276 C 0.43932 0.03621 0.32333
 C1277 C 0.44599 0.01762 0.34111
 C1278 C 0.44991 -0.00023 0.32180
 C1279 C 0.41757 0.01080 0.30622
 C1280 C 0.42427 -0.00779 0.32400
 C1281 C 0.41367 0.02866 0.32553
 C1282 C 0.42060 0.01012 0.34362
 C1283 C 0.46175 0.02143 0.36058
 C1284 C 0.47468 0.02458 0.37662
 C1285 C 0.40182 0.00694 0.28671
 C1286 C 0.38914 0.00371 0.27044
 H1287 H 0.45204 0.02164 0.28709
 H1288 H 0.44574 0.05433 0.32331
 H1289 H 0.46501 -0.01204 0.32051
 H1290 H 0.41793 -0.02594 0.32406
 H1291 H 0.39862 0.04051 0.32686
 H1292 H 0.41162 0.00679 0.36028
   
