data_POSCAR
  _audit_creation_date              2014-09-24
  _audit_creation_method            'ToBaCCo'
  _symmetry_space_group_name_H-M    'P1'
  _symmetry_Int_Tables_number       1
  _symmetry_cell_setting            triclinic
  loop_
  _symmetry_equiv_pos_as_xyz
 x,y,z
_cell_length_a 43.8832
_cell_length_b 43.8963
_cell_length_c 43.9623
_cell_angle_alpha 90.002600
_cell_angle_beta 89.915100
_cell_angle_gamma 89.940300
loop_
  _atom_site_label
  _atom_site_type_symbol
  _atom_site_fract_x
  _atom_site_fract_y
  _atom_site_fract_z
C1 C 0.26045 0.96499 0.08675
 C2 C 0.26368 0.99607 0.08720
 C3 C 0.24916 1.00718 0.06142
 N4 N 0.23799 0.98387 0.04482
 C5 C 0.24468 0.95814 0.06040
 C6 C 0.24465 1.03831 0.05411
 C7 C 0.23933 1.04736 0.02349
 C8 C 0.22527 1.07422 0.01454
 C9 C 0.22528 1.07454 -0.01676
 C10 C 0.23953 1.04794 -0.02630
 N11 N 0.24762 1.03130 -0.00155
 C12 C 0.24534 1.03961 -0.05709
 C13 C 0.25221 1.00904 -0.06462
 C14 C 0.26895 0.99943 -0.08966
 C15 C 0.26762 0.96821 -0.08994
 C16 C 0.25041 0.95989 -0.06487
 N17 N 0.24127 0.98482 -0.04925
 C18 C 0.24151 0.93002 -0.05735
 C19 C 0.23006 0.92333 -0.02821
 C20 C 0.21257 0.89821 -0.02043
 C21 C 0.21071 0.89795 0.01084
 C22 C 0.22715 0.92291 0.02102
 N23 N 0.23821 0.93860 -0.00291
 C24 C 0.23541 0.92878 0.05135
 H25 H 0.26917 0.94927 0.10359
 H26 H 0.27548 1.00898 0.10452
 H27 H 0.25435 0.95599 -0.00188
 H28 H 0.21521 1.09149 0.02896
 H29 H 0.21518 1.09213 -0.03072
 H30 H 0.28087 1.01347 -0.10604
 H31 H 0.27827 0.95343 -0.10654
 H32 H 0.19953 0.88078 0.02453
 H33 H 0.26037 1.01124 -0.00166
 H34 H 0.20302 0.88133 -0.03561
 C35 C 0.78355 0.48303 0.59036
 C36 C 0.78379 0.51437 0.59102
 C37 C 0.77364 0.52408 0.56277
 N38 N 0.76735 0.49984 0.54495
 C39 C 0.77346 0.47477 0.56168
 C40 C 0.76846 0.55461 0.55404
 C41 C 0.76127 0.56246 0.52366
 C42 C 0.74654 0.58898 0.51486
 C43 C 0.74692 0.58954 0.48360
 C44 C 0.76195 0.56338 0.47415
 N45 N 0.77020 0.54673 0.49871
 C46 C 0.77019 0.55682 0.44369
 C47 C 0.77710 0.52690 0.43407
 C48 C 0.78951 0.51887 0.40619
 C49 C 0.79095 0.48754 0.40570
 C50 C 0.77923 0.47759 0.43326
 N51 N 0.77080 0.50167 0.45049
 C52 C 0.77449 0.44693 0.44177
 C53 C 0.76506 0.43905 0.47146
 C54 C 0.75008 0.41235 0.47924
 C55 C 0.74837 0.41172 0.51041
 C56 C 0.76228 0.43809 0.52076
 N57 N 0.77195 0.45491 0.49688
 C58 C 0.76831 0.44472 0.55156
 H59 H 0.79012 0.46811 0.60881
 H60 H 0.79065 0.52828 0.61013
 H61 H 0.78606 0.47396 0.49798
 H62 H 0.73687 0.60635 0.52946
 H63 H 0.73762 0.60745 0.46946
 H64 H 0.79687 0.53393 0.38814
 H65 H 0.79958 0.47379 0.38718
 H66 H 0.73847 0.39365 0.52393
 H67 H 0.78464 0.52787 0.49859
 H68 H 0.74168 0.39488 0.46405
 C69 C 0.72299 0.91195 0.98765
 C70 C 0.72176 0.91402 1.01876
 C71 C 0.73844 0.93967 1.02676
 N72 N 0.74899 0.95379 1.00166
 C73 C 0.73993 0.93665 0.97785
 C74 C 0.74666 0.94827 1.05663
 C75 C 0.75224 0.97943 1.06334
 C76 C 0.76696 0.99065 1.08893
 C77 C 0.76679 1.02195 1.08656
 C78 C 0.75230 1.02904 1.05946
 N79 N 0.74364 1.00307 1.04542
 C80 C 0.74563 1.05881 1.04906
 C81 C 0.73895 1.06478 1.01815
 C82 C 0.72438 1.09058 1.00732
 C83 C 0.72487 1.08869 0.97615
 C84 C 0.74003 1.06188 0.96886
 N85 N 0.74826 1.04712 0.99467
 C86 C 0.74713 1.05144 0.93905
 C87 C 0.75640 1.02090 0.93464
 C88 C 0.77478 1.01019 0.91119
 C89 C 0.77534 0.97896 0.91361
 C90 C 0.75772 0.97165 0.93873
 N91 N 0.74681 0.99730 0.95177
 C92 C 0.74959 0.94206 0.94787
 H93 H 0.71282 0.89426 0.97386
 H94 H 0.71048 0.89814 1.03387
 H95 H 0.73065 0.99838 0.96919
 H96 H 0.77735 0.97787 1.10720
 H97 H 0.77663 1.03763 1.10279
 H98 H 0.71421 1.10876 1.02051
 H99 H 0.71469 1.10503 0.96081
 H100 H 0.78721 0.96347 0.89853
 H101 H 0.73022 1.00174 1.02591
 H102 H 0.78633 1.02346 0.89393
 C103 C 0.24788 0.39175 0.48567
 C104 C 0.24695 0.39343 0.51681
 C105 C 0.25835 0.42181 0.52466
 N106 N 0.26604 0.43757 0.49944
 C107 C 0.25985 0.41915 0.47561
 C108 C 0.26426 0.43179 0.55461
 C109 C 0.26793 0.46304 0.56175
 C110 C 0.27960 0.47439 0.58876
 C111 C 0.27774 0.50572 0.58704
 C112 C 0.26493 0.51266 0.55904
 N113 N 0.25898 0.48650 0.54385
 C114 C 0.25749 0.54234 0.54872
 C115 C 0.24996 0.54840 0.51805
 C116 C 0.23536 0.57443 0.50773
 C117 C 0.23476 0.57257 0.47658
 C118 C 0.24916 0.54552 0.46889
 N119 N 0.25830 0.53072 0.49428
 C120 C 0.25585 0.53580 0.43897
 C121 C 0.26624 0.50598 0.43288
 C122 C 0.28166 0.49691 0.40686
 C123 C 0.28501 0.46579 0.40872
 C124 C 0.27147 0.45679 0.43580
 N125 N 0.26041 0.48147 0.45053
 C126 C 0.26696 0.42635 0.44516
 H127 H 0.24058 0.37257 0.47207
 H128 H 0.23892 0.37573 0.53196
 H129 H 0.24624 0.48118 0.46957
 H130 H 0.28855 0.46150 0.60773
 H131 H 0.28497 0.52153 0.60447
 H132 H 0.22609 0.59286 0.52125
 H133 H 0.22489 0.58929 0.46142
 H134 H 0.29584 0.45143 0.39186
 H135 H 0.24671 0.48462 0.52370
 H136 H 0.28944 0.51116 0.38833
 C137 C 0.97920 0.26699 0.08909
 C138 C 1.01038 0.26893 0.08966
 C139 C 1.02089 0.25424 0.06371
 N140 N 0.99716 0.24443 0.04678
 C141 C 0.97175 0.25187 0.06249
 C142 C 1.05173 0.24810 0.05642
 C143 C 1.06008 0.24252 0.02580
 C144 C 1.08544 0.22625 0.01615
 C145 C 1.08556 0.22733 -0.01512
 C146 C 1.06038 0.24444 -0.02373
 N147 N 1.04472 0.25310 0.00136
 C148 C 1.05241 0.25281 -0.05382
 C149 C 1.02243 0.26254 -0.05996
 C150 C 1.01403 0.28324 -0.08222
 C151 C 0.98283 0.28358 -0.08259
 C152 C 0.97336 0.26297 -0.06061
 N153 N 0.99760 0.25064 -0.04627
 C154 C 0.94299 0.25370 -0.05542
 C155 C 0.93419 0.24398 -0.02595
 C156 C 0.90842 0.22719 -0.01853
 C157 C 0.90845 0.22378 0.01266
 C158 C 0.93428 0.23843 0.02334
 N159 N 0.94986 0.25046 -0.00029
 C160 C 0.94222 0.24252 0.05417
 H161 H 0.96375 0.27575 0.10619
 H162 H 1.02374 0.27981 0.10723
 H163 H 0.96874 0.26478 0.00127
 H164 H 1.10180 0.21420 0.03008
 H165 H 1.10205 0.21617 -0.02966
 H166 H 1.02890 0.29648 -0.09676
 H167 H 0.96868 0.29717 -0.09750
 H168 H 0.89147 0.21174 0.02586
 H169 H 1.02600 0.26778 0.00190
 H170 H 0.89156 0.21787 -0.03384
 C171 C 0.48139 0.74872 0.59658
 C172 C 0.51256 0.75045 0.59693
 C173 C 0.52210 0.75235 0.56685
 N174 N 0.49769 0.75067 0.54824
 C175 C 0.47279 0.74848 0.56630
 C176 C 0.55270 0.75679 0.55727
 C177 C 0.56199 0.75989 0.52641
 C178 C 0.59083 0.76948 0.51762
 C179 C 0.59116 0.77038 0.48650
 C180 C 0.56248 0.76152 0.47672
 N181 N 0.54484 0.75484 0.50123
 C182 C 0.55368 0.76086 0.44564
 C183 C 0.52305 0.75886 0.43549
 C184 C 0.51387 0.76074 0.40534
 C185 C 0.48267 0.76052 0.40533
 C186 C 0.47361 0.75716 0.43533
 N187 N 0.49833 0.75625 0.45368
 C188 C 0.44313 0.75369 0.44522
 C189 C 0.43527 0.74581 0.47539
 C190 C 0.40790 0.73227 0.48345
 C191 C 0.40782 0.72981 0.51446
 C192 C 0.43512 0.74195 0.52463
 N193 N 0.45203 0.75137 0.50062
 C194 C 0.44254 0.74547 0.55572
 H195 H 0.46699 0.74737 0.61650
 H196 H 0.52640 0.75049 0.61725
 H197 H 0.47183 0.76432 0.50161
 H198 H 0.60965 0.77603 0.53208
 H199 H 0.61023 0.77775 0.47271
 H200 H 0.52793 0.76240 0.38521
 H201 H 0.46859 0.76214 0.38525
 H202 H 0.38960 0.72022 0.52803
 H203 H 0.52314 0.74552 0.50070
 H204 H 0.38979 0.72486 0.46849
 C205 C 0.08725 0.73435 0.01670
 C206 C 0.08766 0.73395 -0.01454
 C207 C 0.06263 0.75078 -0.02406
 N208 N 0.04651 0.76058 0.00018
 C209 C 0.06170 0.75090 0.02502
 C210 C 0.05543 0.75892 -0.05432
 C211 C 0.02490 0.76643 -0.06176
 C212 C 0.01580 0.78389 -0.08644
 C213 C -0.01551 0.78401 -0.08633
 C214 C -0.02473 0.76649 -0.06171
 N215 N 0.00001 0.75660 -0.04630
 C216 C -0.05521 0.75788 -0.05529
 C217 C -0.06465 0.75303 -0.02474
 C218 C -0.09123 0.73859 -0.01554
 C219 C -0.09158 0.73929 0.01570
 C220 C -0.06520 0.75409 0.02472
 N221 N -0.04867 0.76224 -0.00006
 C222 C -0.05617 0.75981 0.05522
 C223 C -0.02582 0.76868 0.06163
 C224 C -0.01652 0.78561 0.08666
 C225 C 0.01480 0.78505 0.08687
 C226 C 0.02366 0.76830 0.06168
 N227 N -0.00116 0.75900 0.04602
 C228 C 0.05373 0.75952 0.05479
 H229 H 0.10378 0.72372 0.03155
 H230 H 0.10451 0.72267 -0.02858
 H231 H -0.00131 0.74356 0.02797
 H232 H 0.03012 0.79558 -0.10272
 H233 H -0.02991 0.79545 -0.10272
 H234 H -0.10817 0.72762 -0.02961
 H235 H -0.10882 0.72897 0.02994
 H236 H 0.02934 0.79543 0.10381
 H237 H -0.00019 0.74118 -0.02823
 H238 H -0.03086 0.79654 0.10349
 C239 C 0.58822 0.28302 0.51849
 C240 C 0.58887 0.28428 0.48728
 C241 C 0.56145 0.27237 0.47721
 N242 N 0.54412 0.26382 0.50123
 C243 C 0.56042 0.27036 0.52652
 C244 C 0.55328 0.26827 0.44636
 C245 C 0.52339 0.26000 0.43728
 C246 C 0.51582 0.24876 0.40881
 C247 C 0.48462 0.24716 0.40765
 C248 C 0.47376 0.25672 0.43574
 N249 N 0.49763 0.26449 0.45369
 C250 C 0.44253 0.26030 0.44335
 C251 C 0.43204 0.26227 0.47380
 C252 C 0.40176 0.26528 0.48239
 C253 C 0.40109 0.26451 0.51352
 C254 C 0.43096 0.26096 0.52315
 N255 N 0.44975 0.25907 0.49879
 C256 C 0.44002 0.25729 0.55385
 C257 C 0.47076 0.25283 0.56273
 C258 C 0.47999 0.24139 0.59065
 C259 C 0.51127 0.24261 0.59112
 C260 C 0.52048 0.25552 0.56382
 N261 N 0.49562 0.26137 0.54650
 C262 C 0.55094 0.26383 0.55664
 H263 H 0.60611 0.29085 0.53348
 H264 H 0.60736 0.29319 0.47363
 H265 H 0.49540 0.27409 0.52656
 H266 H 0.53113 0.24282 0.39043
 H267 H 0.47176 0.23992 0.38802
 H268 H 0.38193 0.26689 0.46790
 H269 H 0.38068 0.26545 0.52731
 H270 H 0.52552 0.23526 0.60979
 H271 H 0.49632 0.27597 0.47433
 H272 H 0.46590 0.23308 0.60903
 C273 C 0.99205 0.09916 0.23805
 C274 C 1.02331 0.09815 0.23883
 C275 C 1.03128 0.06976 0.25039
 N276 N 1.00577 0.05391 0.25724
 C277 C 0.98186 0.07177 0.24988
 C278 C 1.06100 0.05993 0.25850
 C279 C 1.06688 0.02886 0.26590
 C280 C 1.09397 0.01721 0.27762
 C281 C 1.09167 -0.01393 0.27712
 C282 C 1.06375 -0.02079 0.26427
 N283 N 1.04865 0.00524 0.25787
 C284 C 1.05457 -0.05021 0.25506
 C285 C 1.02394 -0.05752 0.24874
 C286 C 1.01423 -0.08383 0.23437
 C287 C 0.98299 -0.08265 0.23386
 C288 C 0.97459 -0.05581 0.24841
 N289 N 0.99977 -0.04041 0.25725
 C290 C 0.94437 -0.04580 0.25420
 C291 C 0.93906 -0.01500 0.26268
 C292 C 0.91462 -0.00454 0.27987
 C293 C 0.91650 0.02671 0.28035
 C294 C 0.94241 0.03447 0.26406
 N295 N 0.95637 0.00894 0.25383
 C296 C 0.95134 0.06452 0.25698
 H297 H 0.97848 0.11824 0.23036
 H298 H 1.03803 0.11673 0.23227
 H299 H 0.97464 0.00816 0.23864
 H300 H 1.11428 0.02921 0.28442
 H301 H 1.10930 -0.02971 0.28406
 H302 H 1.02820 -0.10176 0.22478
 H303 H 0.96840 -0.09939 0.22327
 H304 H 0.90062 0.04198 0.29145
 H305 H 1.02914 0.00650 0.24449
 H306 H 0.89710 -0.01798 0.29082
 C307 C 0.47984 0.59694 0.75547
 C308 C 0.51110 0.59759 0.75538
 C309 C 0.52078 0.56812 0.76140
 N310 N 0.49652 0.54974 0.76587
 C311 C 0.47146 0.56729 0.76236
 C312 C 0.55135 0.55889 0.76518
 C313 C 0.56020 0.52789 0.76577
 C314 C 0.58850 0.51710 0.77485
 C315 C 0.58889 0.48638 0.76900
 C316 C 0.56113 0.47925 0.75579
 N317 N 0.54368 0.50463 0.75417
 C318 C 0.55334 0.45048 0.74356
 C319 C 0.52283 0.44212 0.73783
 C320 C 0.51359 0.41626 0.72228
 C321 C 0.48235 0.41555 0.72401
 C322 C 0.47363 0.44103 0.74049
 N323 N 0.49837 0.45721 0.74890
 C324 C 0.44355 0.44811 0.74939
 C325 C 0.43559 0.47677 0.76178
 C326 C 0.40914 0.48288 0.77803
 C327 C 0.40836 0.51381 0.78285
 C328 C 0.43450 0.52566 0.76970
 N329 N 0.45111 0.50294 0.75714
 C330 C 0.44138 0.55696 0.76744
 H331 H 0.46513 0.61624 0.75116
 H332 H 0.52494 0.61757 0.75142
 H333 H 0.46985 0.50566 0.74283
 H334 H 0.60736 0.52983 0.78417
 H335 H 0.60779 0.47120 0.77348
 H336 H 0.52781 0.39962 0.71092
 H337 H 0.46780 0.39826 0.71423
 H338 H 0.39049 0.52619 0.79453
 H339 H 0.52333 0.50671 0.74221
 H340 H 0.39192 0.46681 0.78529
 C341 C 0.90174 0.99387 0.75257
 C342 C 0.90412 1.02478 0.74967
 C343 C 0.93494 1.03180 0.75093
 N344 N 0.95127 1.00609 0.75556
 C345 C 0.93101 0.98287 0.75681
 C346 C 0.94725 1.06139 0.74674
 C347 C 0.97900 1.06785 0.74586
 C348 C 0.99093 1.09511 0.73538
 C349 C 1.02208 1.09256 0.73660
 C350 C 1.02875 1.06392 0.74834
 N351 N 1.00223 1.04893 0.75387
 C352 C 1.05881 1.05242 0.75341
 C353 C 1.06457 1.02080 0.75842
 C354 C 1.09103 1.00908 0.77113
 C355 C 1.08888 0.97804 0.76990
 C356 C 1.06086 0.97139 0.75700
 N357 N 1.04569 0.99763 0.75069
 C358 C 1.04876 0.94158 0.75328
 C359 C 1.01786 0.93660 0.76120
 C360 C 1.00771 0.91206 0.77831
 C361 C 0.97683 0.91522 0.78131
 C362 C 0.96892 0.94201 0.76662
 N363 N 0.99420 0.95541 0.75497
 C364 C 0.93857 0.95216 0.76307
 H365 H 0.88064 0.98123 0.75169
 H366 H 0.88506 1.04009 0.74664
 H367 H 0.99492 0.97442 0.74080
 H368 H 0.97849 1.11457 0.72674
 H369 H 1.03788 1.10974 0.72871
 H370 H 1.10976 1.02157 0.78112
 H371 H 1.10527 0.96249 0.77968
 H372 H 0.96190 0.89970 0.79332
 H373 H 1.00032 1.02780 0.76439
 H374 H 1.02130 0.89397 0.78811
 C375 C 0.40490 0.49435 0.25414
 C376 C 0.40620 0.52545 0.25432
 C377 C 0.43678 0.53337 0.25262
 N378 N 0.45412 0.50793 0.25260
 C379 C 0.43473 0.48403 0.25379
 C380 C 0.44791 0.56358 0.25018
 C381 C 0.47886 0.57130 0.24491
 C382 C 0.48842 0.59993 0.23552
 C383 C 0.51943 0.59869 0.23251
 C384 C 0.52827 0.56930 0.23999
 N385 N 0.50336 0.55268 0.24767
 C386 C 0.55891 0.55906 0.23916
 C387 C 0.56752 0.52795 0.23952
 C388 C 0.59718 0.51733 0.23690
 C389 C 0.59559 0.48623 0.23606
 C390 C 0.56513 0.47862 0.23954
 N391 N 0.54804 0.50418 0.24142
 C392 C 0.55394 0.44856 0.24249
 C393 C 0.52348 0.44142 0.25018
 C394 C 0.51453 0.41360 0.26219
 C395 C 0.48365 0.41494 0.26609
 C396 C 0.47439 0.44352 0.25635
 N397 N 0.49887 0.45971 0.24677
 C398 C 0.44363 0.45312 0.25578
 H399 H 0.38413 0.48115 0.25447
 H400 H 0.38650 0.54020 0.25528
 H401 H 0.49846 0.48054 0.23555
 H402 H 0.47445 0.61965 0.23058
 H403 H 0.53373 0.61726 0.22488
 H404 H 0.61803 0.53035 0.23556
 H405 H 0.61496 0.47117 0.23374
 H406 H 0.46965 0.39690 0.27539
 H407 H 0.50333 0.53084 0.25668
 H408 H 0.52882 0.39435 0.26798
 O409 O 0.25744 0.16808 0.19119
 O410 O 0.29121 0.15775 0.23122
 O411 O 0.18022 0.20925 0.23208
 O412 O 0.17039 0.24865 0.26289
 O413 O 0.22188 0.25085 0.15397
 O414 O 0.26585 0.28141 0.14675
 O415 O 0.26243 0.28744 0.31408
 O416 O 0.22553 0.25008 0.32065
 O417 O 0.33937 0.24256 0.27773
 O418 O 0.34954 0.21061 0.23543
 O419 O 0.30657 0.32345 0.23976
 O420 O 0.26653 0.33616 0.20295
 O421 O 0.26262 0.32430 0.27763
 O422 O 0.23129 0.33572 0.23186
 O423 O 0.34183 0.28555 0.23648
 O424 O 0.34874 0.24035 0.20102
 O425 O 0.30222 0.24752 0.31357
 O426 O 0.26089 0.20835 0.31756
 O427 O 0.26240 0.20527 0.15531
 O428 O 0.29820 0.24650 0.14786
 O429 O 0.18424 0.25127 0.18960
 O430 O 0.17771 0.28711 0.23301
 O431 O 0.21480 0.17056 0.23379
 O432 O 0.25702 0.16193 0.27005
 Zr433 Zr 0.25763 0.19244 0.23258
 O434 O 0.28703 0.21692 0.26152
 Zr435 Zr 0.20701 0.24878 0.23159
 O436 O 0.23366 0.27502 0.26141
 Zr437 Zr 0.26203 0.24655 0.17970
 O438 O 0.29089 0.27352 0.20677
 Zr439 Zr 0.26135 0.24697 0.28850
 O440 O 0.23135 0.22033 0.26161
 Zr441 Zr 0.31591 0.24518 0.23604
 O442 O 0.28919 0.21787 0.20676
 Zr443 Zr 0.26457 0.30102 0.23589
 O444 O 0.23568 0.27709 0.20568
 O445 O 0.23163 0.21956 0.20385
 O446 O 0.29158 0.27448 0.26440
 C447 C 0.26017 0.17720 0.16346
 C448 C 0.18741 0.18094 0.23330
 C449 C 0.19373 0.25213 0.16195
 C450 C 0.26217 0.31543 0.30548
 C451 C 0.33018 0.24459 0.30541
 C452 C 0.33410 0.31370 0.23860
 H453 H 0.29866 0.20247 0.27430
 H454 H 0.30432 0.28574 0.19348
 H455 H 0.21824 0.20737 0.19046
 H456 H 0.22004 0.28778 0.27404
 H457 H 0.21100 0.23355 0.31573
 H458 H 0.17849 0.25632 0.28240
 H459 H 0.34739 0.25851 0.18776
 H460 H 0.31279 0.23067 0.15461
 H461 H 0.26526 0.21543 0.33852
 H462 H 0.24977 0.14174 0.26294
 H463 H 0.28283 0.33099 0.18826
 H464 H 0.25400 0.29892 0.15463
 H465 H 0.30769 0.16505 0.21766
 H466 H 0.34156 0.19329 0.24741
 H467 H 0.18389 0.30073 0.21614
 H468 H 0.21586 0.33235 0.24793
 O469 O 0.75357 0.84115 0.22193
 O470 O 0.72589 0.84624 0.26674
 O471 O 0.83380 0.79163 0.25067
 O472 O 0.84505 0.74680 0.27145
 O473 O 0.78365 0.76373 0.16965
 O474 O 0.73805 0.73582 0.16220
 O475 O 0.75705 0.70525 0.32608
 O476 O 0.79460 0.74066 0.33460
 O477 O 0.67817 0.75850 0.30385
 O478 O 0.66597 0.79582 0.26587
 O479 O 0.70294 0.68207 0.24786
 O480 O 0.74139 0.67267 0.21029
 O481 O 0.74701 0.67411 0.28590
 O482 O 0.77777 0.66807 0.23731
 O483 O 0.67039 0.72032 0.26073
 O484 O 0.66149 0.76859 0.22954
 O485 O 0.71750 0.74552 0.33491
 O486 O 0.76054 0.78277 0.34076
 O487 O 0.74646 0.80944 0.18150
 O488 O 0.70732 0.77122 0.17195
 O489 O 0.82415 0.75566 0.20085
 O490 O 0.83269 0.71411 0.23883
 O491 O 0.80091 0.83127 0.25691
 O492 O 0.76422 0.83477 0.30007
 Zr493 Zr 0.75757 0.81068 0.25875
 O494 O 0.72972 0.78330 0.28663
 Zr495 Zr 0.80539 0.75341 0.24508
 O496 O 0.78011 0.72406 0.27334
 Zr497 Zr 0.74629 0.76504 0.19951
 O498 O 0.71870 0.73529 0.22502
 Zr499 Zr 0.75627 0.74889 0.30658
 O500 O 0.78502 0.77805 0.28094
 Zr501 Zr 0.69761 0.75984 0.26024
 O502 O 0.72282 0.79030 0.23272
 Zr503 Zr 0.74596 0.70295 0.24745
 O504 O 0.77324 0.73011 0.21831
 O505 O 0.77991 0.78719 0.22418
 O506 O 0.72289 0.72603 0.28185
 C507 C 0.74931 0.83604 0.19344
 C508 C 0.82789 0.82007 0.25454
 C509 C 0.81221 0.75957 0.17441
 C510 C 0.75229 0.67888 0.31431
 C511 C 0.68923 0.75136 0.32988
 C512 C 0.67639 0.69235 0.25454
 H513 H 0.71993 0.79623 0.30229
 H514 H 0.70371 0.72554 0.21139
 H515 H 0.79265 0.80073 0.21142
 H516 H 0.79406 0.70916 0.28286
 H517 H 0.80922 0.75736 0.33061
 H518 H 0.83813 0.73952 0.29158
 H519 H 0.66047 0.75148 0.21494
 H520 H 0.69408 0.78603 0.18265
 H521 H 0.75743 0.77283 0.36077
 H522 H 0.77164 0.85557 0.29525
 H523 H 0.72674 0.68192 0.19591
 H524 H 0.75100 0.71760 0.16532
 H525 H 0.70758 0.84159 0.25447
 H526 H 0.67462 0.81011 0.28095
 H527 H 0.82410 0.70289 0.22129
 H528 H 0.79290 0.66737 0.25396
 O529 O 0.75339 0.17510 0.79360
 O530 O 0.72385 0.16345 0.75097
 O531 O 0.83134 0.22147 0.75846
 O532 O 0.84042 0.26229 0.72884
 O533 O 0.78119 0.25909 0.83413
 O534 O 0.73478 0.28720 0.83809
 O535 O 0.75107 0.29687 0.67240
 O536 O 0.79017 0.26189 0.66787
 O537 O 0.67375 0.25020 0.70173
 O538 O 0.66373 0.21189 0.74159
 O539 O 0.69751 0.32778 0.74577
 O540 O 0.73649 0.34140 0.78497
 O541 O 0.74148 0.33220 0.70916
 O542 O 0.77072 0.34593 0.75475
 O543 O 0.66515 0.28739 0.74512
 O544 O 0.65874 0.24062 0.77683
 O545 O 0.71362 0.25290 0.66871
 O546 O 0.75822 0.21776 0.66758
 O547 O 0.74541 0.21197 0.82927
 O548 O 0.70546 0.24930 0.83453
 O549 O 0.82138 0.26224 0.80155
 O550 O 0.82885 0.29949 0.75971
 O551 O 0.79944 0.18090 0.75326
 O552 O 0.75996 0.17020 0.71460
 Zr553 Zr 0.75518 0.20009 0.75229
 O554 O 0.72660 0.22344 0.72142
 Zr555 Zr 0.80201 0.25948 0.75780
 O556 O 0.77564 0.28482 0.72679
 Zr557 Zr 0.74359 0.25306 0.80530
 O558 O 0.71472 0.27841 0.77686
 Zr559 Zr 0.75227 0.25564 0.69705
 O560 O 0.78170 0.23019 0.72571
 Zr561 Zr 0.69405 0.24922 0.74514
 O562 O 0.72034 0.22322 0.77602
 Zr563 Zr 0.74107 0.30818 0.75034
 O564 O 0.76970 0.28558 0.78187
 O565 O 0.77732 0.22829 0.78309
 O566 O 0.71844 0.28056 0.71928
 C567 C 0.74950 0.18414 0.82129
 C568 C 0.82612 0.19276 0.75587
 C569 C 0.80975 0.26177 0.82842
 C570 C 0.74604 0.32435 0.68140
 C571 C 0.68498 0.25138 0.67474
 C572 C 0.67071 0.31608 0.74494
 H573 H 0.71697 0.20875 0.70737
 H574 H 0.69964 0.28928 0.78959
 H575 H 0.79058 0.21662 0.79706
 H576 H 0.78903 0.29886 0.71537
 H577 H 0.80561 0.24660 0.67397
 H578 H 0.83351 0.27175 0.70965
 H579 H 0.65908 0.25719 0.79208
 H580 H 0.69283 0.23240 0.82660
 H581 H 0.75505 0.22484 0.64640
 H582 H 0.76815 0.15042 0.72189
 H583 H 0.71855 0.33593 0.79747
 H584 H 0.74737 0.30500 0.83235
 H585 H 0.70502 0.17063 0.76111
 H586 H 0.67175 0.19788 0.72589
 H587 H 0.81958 0.31284 0.77535
 H588 H 0.78804 0.34279 0.74068
 O589 O 0.24328 0.82393 0.77621
 O590 O 0.28196 0.82450 0.73901
 O591 O 0.16451 0.79218 0.73239
 O592 O 0.15282 0.75243 0.70124
 O593 O 0.19065 0.75167 0.81591
 O594 O 0.22786 0.71584 0.83108
 O595 O 0.24460 0.69308 0.66597
 O596 O 0.21271 0.73245 0.65140
 O597 O 0.32036 0.72753 0.70772
 O598 O 0.33063 0.76449 0.74719
 O599 O 0.27206 0.65892 0.74801
 O600 O 0.22495 0.65730 0.78078
 O601 O 0.23400 0.66049 0.70484
 O602 O 0.19579 0.65770 0.74567
 O603 O 0.31183 0.69177 0.75248
 O604 O 0.32187 0.73866 0.78391
 O605 O 0.28796 0.73122 0.66750
 O606 O 0.25058 0.77182 0.65546
 O607 O 0.23799 0.79040 0.81549
 O608 O 0.26525 0.74494 0.83104
 O609 O 0.15685 0.75105 0.77669
 O610 O 0.14941 0.71532 0.73456
 O611 O 0.20522 0.82422 0.73257
 O612 O 0.24974 0.82188 0.69769
 Zr613 Zr 0.24332 0.79565 0.73774
 O614 O 0.27147 0.76442 0.71476
 Zr615 Zr 0.18438 0.74840 0.73731
 O616 O 0.20994 0.71536 0.71331
 Zr617 Zr 0.23344 0.74719 0.79502
 O618 O 0.26046 0.71358 0.77411
 Zr619 Zr 0.24447 0.73608 0.68743
 O620 O 0.21613 0.76952 0.70810
 Zr621 Zr 0.29253 0.73497 0.74591
 O622 O 0.26749 0.76876 0.76930
 Zr623 Zr 0.23360 0.68757 0.74428
 O624 O 0.20558 0.71864 0.76845
 O625 O 0.21042 0.77577 0.76543
 O626 O 0.26728 0.70703 0.71718
 C627 C 0.24122 0.81746 0.80465
 C628 C 0.17644 0.81902 0.73151
 C629 C 0.16344 0.75199 0.80520
 C630 C 0.23940 0.66628 0.67669
 C631 C 0.31463 0.72794 0.67911
 C632 C 0.30051 0.66488 0.75157
 H633 H 0.28643 0.77584 0.70238
 H634 H 0.27021 0.70093 0.78996
 H635 H 0.19785 0.79077 0.77663
 H636 H 0.19625 0.70335 0.70009
 H637 H 0.19930 0.75054 0.65282
 H638 H 0.16042 0.73948 0.68446
 H639 H 0.31588 0.72284 0.79879
 H640 H 0.28281 0.75772 0.82500
 H641 H 0.25641 0.76260 0.63569
 H642 H 0.24585 0.84361 0.70257
 H643 H 0.24164 0.65952 0.79571
 H644 H 0.21453 0.69945 0.82325
 H645 H 0.29581 0.81616 0.75470
 H646 H 0.32809 0.77973 0.73082
 H647 H 0.15270 0.70092 0.75158
 H648 H 0.18268 0.66240 0.72799
 O649 O 0.25807 0.32608 0.71965
 O650 O 0.23012 0.33720 0.76173
 O651 O 0.33809 0.28092 0.75779
 O652 O 0.34804 0.23950 0.78521
 O653 O 0.29296 0.24377 0.67890
 O654 O 0.24782 0.21375 0.67268
 O655 O 0.25643 0.20646 0.84062
 O656 O 0.29499 0.24103 0.84538
 O657 O 0.18005 0.25141 0.80765
 O658 O 0.17081 0.28753 0.76453
 O659 O 0.20663 0.17158 0.76331
 O660 O 0.24589 0.15657 0.73049
 O661 O 0.24930 0.16956 0.80494
 O662 O 0.28268 0.15718 0.75788
 O663 O 0.17361 0.21133 0.76678
 O664 O 0.16608 0.25520 0.73249
 O665 O 0.21871 0.24863 0.84191
 O666 O 0.26199 0.28485 0.84379
 O667 O 0.25425 0.28997 0.68257
 O668 O 0.21621 0.24990 0.67585
 O669 O 0.33127 0.23824 0.71332
 O670 O 0.33717 0.20238 0.75659
 O671 O 0.30483 0.32077 0.75677
 O672 O 0.26626 0.32984 0.79787
 Zr673 Zr 0.26151 0.30058 0.75972
 O674 O 0.23215 0.27724 0.78945
 Zr675 Zr 0.30988 0.24219 0.75606
 O676 O 0.28305 0.21690 0.78669
 Zr677 Zr 0.25353 0.24786 0.70614
 O678 O 0.22450 0.22158 0.73411
 Zr679 Zr 0.25805 0.24630 0.81489
 O680 O 0.28809 0.27160 0.78716
 Zr681 Zr 0.20148 0.25025 0.76478
 O682 O 0.22821 0.27682 0.73472
 Zr683 Zr 0.24998 0.19241 0.76235
 O684 O 0.27887 0.21555 0.73106
 O685 O 0.28570 0.27304 0.72963
 O686 O 0.22562 0.22002 0.79213
 C687 C 0.25539 0.31784 0.69177
 C688 C 0.33188 0.30956 0.75730
 C689 C 0.32105 0.23957 0.68601
 C690 C 0.25261 0.17861 0.83267
 C691 C 0.19040 0.25058 0.83498
 C692 C 0.17960 0.18272 0.76546
 H693 H 0.22161 0.29204 0.80279
 H694 H 0.21027 0.21003 0.72108
 H695 H 0.29894 0.28496 0.71582
 H696 H 0.29634 0.20341 0.79886
 H697 H 0.31004 0.25699 0.84014
 H698 H 0.34024 0.23359 0.80546
 H699 H 0.16845 0.23884 0.71720
 H700 H 0.20241 0.26594 0.68369
 H701 H 0.25862 0.27802 0.86504
 H702 H 0.27472 0.34961 0.79091
 H703 H 0.23544 0.16507 0.71247
 H704 H 0.26118 0.19658 0.67866
 H705 H 0.21113 0.32994 0.75204
 H706 H 0.17611 0.30102 0.78175
 H707 H 0.32948 0.18890 0.74026
 H708 H 0.29586 0.15759 0.77611
 O709 O 0.74698 0.66652 0.71603
 O710 O 0.77807 0.66103 0.75951
 O711 O 0.66847 0.71426 0.74328
 O712 O 0.65763 0.75608 0.77053
 O713 O 0.71744 0.74331 0.66648
 O714 O 0.76234 0.77376 0.65948
 O715 O 0.74674 0.79923 0.82382
 O716 O 0.70702 0.76338 0.83159
 O717 O 0.82368 0.75021 0.80042
 O718 O 0.83624 0.71160 0.76331
 O719 O 0.79770 0.82549 0.75001
 O720 O 0.76178 0.83520 0.70955
 O721 O 0.75142 0.83205 0.78406
 O722 O 0.72324 0.83809 0.73439
 O723 O 0.83159 0.78651 0.75444
 O724 O 0.84028 0.73743 0.72607
 O725 O 0.78338 0.75688 0.83231
 O726 O 0.74210 0.72406 0.83908
 O727 O 0.75745 0.69879 0.67678
 O728 O 0.79405 0.73889 0.66720
 O729 O 0.67763 0.75318 0.69825
 O730 O 0.66814 0.79170 0.73740
 O731 O 0.70125 0.67551 0.75420
 O732 O 0.74048 0.66797 0.79329
 Zr733 Zr 0.74486 0.69568 0.75395
 O734 O 0.77229 0.72259 0.78254
 Zr735 Zr 0.69649 0.75292 0.74219
 O736 O 0.72132 0.78191 0.77110
 Zr737 Zr 0.75546 0.74294 0.69578
 O738 O 0.78283 0.77225 0.72213
 Zr739 Zr 0.74544 0.75617 0.80333
 O740 O 0.71707 0.72725 0.77722
 Zr741 Zr 0.80426 0.74709 0.75669
 O742 O 0.77931 0.71719 0.72829
 Zr743 Zr 0.75530 0.80381 0.74552
 O744 O 0.72830 0.77714 0.71579
 O745 O 0.72227 0.71991 0.72019
 O746 O 0.77864 0.78006 0.77926
 C747 C 0.75300 0.67202 0.68792
 C748 C 0.67451 0.68622 0.74895
 C749 C 0.68906 0.74845 0.67177
 C750 C 0.74873 0.82612 0.81255
 C751 C 0.81204 0.75420 0.82700
 C752 C 0.82485 0.81494 0.75253
 H753 H 0.78211 0.70946 0.79796
 H754 H 0.79781 0.78244 0.70877
 H755 H 0.70972 0.70659 0.70707
 H756 H 0.70726 0.79645 0.78103
 H757 H 0.69191 0.74756 0.82621
 H758 H 0.66355 0.76809 0.78860
 H759 H 0.84015 0.75331 0.71010
 H760 H 0.80794 0.72418 0.67714
 H761 H 0.72815 0.70790 0.83193
 H762 H 0.73315 0.64750 0.78709
 H763 H 0.77661 0.82616 0.69520
 H764 H 0.74914 0.79158 0.66366
 H765 H 0.79548 0.66625 0.74615
 H766 H 0.82714 0.69688 0.77771
 H767 H 0.67670 0.80410 0.72064
 H768 H 0.70747 0.83832 0.75050
 O769 O 0.24764 0.66493 0.29756
 O770 O 0.20876 0.65638 0.26215
 O771 O 0.31959 0.70589 0.24634
 O772 O 0.32535 0.74638 0.21540
 O773 O 0.29078 0.74670 0.33065
 O774 O 0.24760 0.77768 0.34468
 O775 O 0.23038 0.78753 0.17920
 O776 O 0.26474 0.74935 0.16715
 O777 O 0.15685 0.74373 0.22368
 O778 O 0.15387 0.70736 0.26735
 O779 O 0.19432 0.82140 0.26046
 O780 O 0.24095 0.83204 0.29225
 O781 O 0.23078 0.82338 0.21666
 O782 O 0.26908 0.83466 0.25593
 O783 O 0.15959 0.78343 0.26624
 O784 O 0.15578 0.73914 0.30009
 O785 O 0.18969 0.74874 0.18393
 O786 O 0.22903 0.70877 0.17331
 O787 O 0.25077 0.70159 0.33419
 O788 O 0.21614 0.74188 0.34798
 O789 O 0.32302 0.74577 0.29006
 O790 O 0.32394 0.78373 0.24878
 O791 O 0.28430 0.66792 0.24883
 O792 O 0.23747 0.66039 0.21937
 Zr793 Zr 0.24268 0.69031 0.25698
 O794 O 0.21038 0.71585 0.23241
 Zr795 Zr 0.29413 0.74597 0.25212
 O796 O 0.26399 0.77366 0.22736
 Zr797 Zr 0.24700 0.74328 0.31104
 O798 O 0.21444 0.77077 0.28894
 Zr799 Zr 0.23309 0.74637 0.20342
 O800 O 0.26554 0.71843 0.22536
 Zr801 Zr 0.18547 0.74345 0.26235
 O802 O 0.21570 0.71565 0.28751
 Zr803 Zr 0.23666 0.79902 0.25741
 O804 O 0.26967 0.77411 0.28232
 O805 O 0.27306 0.71635 0.28221
 O806 O 0.20630 0.77324 0.23193
 C807 C 0.25049 0.67364 0.32542
 C808 C 0.31160 0.67780 0.24528
 C809 C 0.31757 0.74642 0.31873
 C810 C 0.22922 0.81524 0.18862
 C811 C 0.16279 0.74673 0.19516
 C812 C 0.16699 0.81160 0.26409
 H813 H 0.19705 0.70201 0.22070
 H814 H 0.20298 0.78266 0.30424
 H815 H 0.28801 0.70349 0.29311
 H816 H 0.27576 0.78687 0.21345
 H817 H 0.27960 0.73262 0.17013
 H818 H 0.31562 0.75757 0.19849
 H819 H 0.16190 0.75450 0.31536
 H820 H 0.20014 0.72700 0.34244
 H821 H 0.22200 0.71661 0.15336
 H822 H 0.24511 0.63989 0.22512
 H823 H 0.22483 0.82818 0.30752
 H824 H 0.25952 0.79478 0.33609
 H825 H 0.19420 0.66390 0.27765
 H826 H 0.15650 0.69339 0.24989
 H827 H 0.31909 0.79743 0.26601
 H828 H 0.28333 0.83024 0.23906
 O829 O 0.75575 0.33268 0.28272
 O830 O 0.78546 0.33489 0.23859
 O831 O 0.67065 0.29683 0.25282
 O832 O 0.65282 0.25495 0.23030
 O833 O 0.71531 0.25665 0.33249
 O834 O 0.75754 0.22443 0.33910
 O835 O 0.73897 0.20325 0.17310
 O836 O 0.70223 0.24083 0.16693
 O837 O 0.81948 0.24052 0.19783
 O838 O 0.83678 0.27739 0.23603
 O839 O 0.78405 0.16903 0.24793
 O840 O 0.74562 0.16396 0.28781
 O841 O 0.73829 0.16949 0.21242
 O842 O 0.70832 0.16589 0.26149
 O843 O 0.82260 0.20333 0.24360
 O844 O 0.83815 0.24953 0.27181
 O845 O 0.77885 0.24269 0.16581
 O846 O 0.73866 0.28198 0.16327
 O847 O 0.75919 0.29953 0.32249
 O848 O 0.79235 0.25527 0.33066
 O849 O 0.67437 0.25857 0.30081
 O850 O 0.66061 0.21919 0.26194
 O851 O 0.70930 0.33120 0.24897
 O852 O 0.74521 0.33117 0.20516
 Zr853 Zr 0.74866 0.30440 0.24521
 O854 O 0.77240 0.27468 0.21627
 Zr855 Zr 0.69301 0.25451 0.25672
 O856 O 0.71388 0.22296 0.22710
 Zr857 Zr 0.75308 0.25573 0.30285
 O858 O 0.77608 0.22328 0.27590
 Zr859 Zr 0.74110 0.24562 0.19502
 O860 O 0.71664 0.27743 0.22180
 Zr861 Zr 0.80074 0.24585 0.24170
 O862 O 0.78006 0.27847 0.27054
 Zr863 Zr 0.74467 0.19613 0.25195
 O864 O 0.72159 0.22580 0.28238
 O865 O 0.72308 0.28319 0.27901
 O866 O 0.77096 0.21719 0.21861
 C867 C 0.75925 0.32662 0.31105
 C868 C 0.68104 0.32414 0.25119
 C869 C 0.68649 0.25790 0.32742
 C870 C 0.73765 0.17608 0.18389
 C871 C 0.80754 0.24089 0.17114
 C872 C 0.81235 0.17604 0.24555
 H873 H 0.78385 0.28687 0.20119
 H874 H 0.78945 0.21092 0.28912
 H875 H 0.71237 0.29774 0.29251
 H876 H 0.69816 0.21052 0.21688
 H877 H 0.68890 0.25851 0.17132
 H878 H 0.65818 0.24597 0.21039
 H879 H 0.83471 0.23510 0.28875
 H880 H 0.80719 0.26934 0.32117
 H881 H 0.73988 0.27323 0.14250
 H882 H 0.74147 0.35266 0.21111
 H883 H 0.76309 0.16904 0.30105
 H884 H 0.74423 0.20697 0.33403
 H885 H 0.80276 0.32699 0.25068
 H886 H 0.83072 0.29195 0.21997
 H887 H 0.66729 0.20668 0.27944
 H888 H 0.69274 0.16852 0.24546
 C889 C 0.25697 0.11095 0.09361
 C890 C 0.24727 0.10401 0.12321
 N891 N 0.23587 0.07599 0.12930
 C892 C 0.23424 0.05433 0.10729
 C893 C 0.24493 0.06065 0.07756
 N894 N 0.25561 0.08925 0.07164
 N895 N 0.26768 0.13924 0.08734
 C896 C 0.26913 0.16095 0.10936
 C897 C 0.25964 0.15401 0.13919
 N898 N 0.24891 0.12556 0.14530
 H899 H 0.22393 0.03268 0.11289
 H900 H 0.27772 0.18333 0.10364
 C901 C 0.75476 0.59873 0.62542
 C902 C 0.76981 0.62619 0.61900
 N903 N 0.78497 0.62941 0.59229
 C904 C 0.78547 0.60653 0.57148
 C905 C 0.76961 0.57927 0.57731
 N906 N 0.75476 0.57603 0.60439
 N907 N 0.74017 0.59534 0.65246
 C908 C 0.73976 0.61826 0.67331
 C909 C 0.75421 0.64609 0.66665
 N910 N 0.76894 0.64926 0.63954
 H911 H 0.79786 0.60967 0.55041
 H912 H 0.72773 0.61500 0.69457
 C913 C 0.74624 0.90873 0.13046
 C914 C 0.75486 0.87926 0.12168
 N915 N 0.76233 0.87355 0.09240
 C916 C 0.76077 0.89579 0.07110
 C917 C 0.75047 0.92529 0.07911
 N918 N 0.74410 0.93101 0.10903
 N919 N 0.73964 0.91436 0.16018
 C920 C 0.74101 0.89169 0.18136
 C921 C 0.74875 0.86194 0.17226
 N922 N 0.75563 0.85667 0.14258
 H923 H 0.76800 0.89042 0.04818
 H924 H 0.73545 0.89668 0.20484
 C925 C 0.25270 0.38880 0.62692
 C926 C 0.26965 0.36217 0.62139
 N927 N 0.28597 0.35964 0.59530
 C928 C 0.28564 0.38223 0.57419
 C929 C 0.26751 0.40834 0.57889
 N930 N 0.25175 0.41109 0.60548
 N931 N 0.23723 0.39175 0.65350
 C932 C 0.23783 0.36925 0.67476
 C933 C 0.25410 0.34224 0.66894
 N934 N 0.26970 0.33940 0.64231
 H935 H 0.29887 0.37958 0.55355
 H936 H 0.22539 0.37222 0.69584
 C937 C 0.75221 0.12181 0.89451
 C938 C 0.74524 0.11164 0.86506
 N939 N 0.73835 0.08188 0.86061
 C940 C 0.73846 0.06177 0.88417
 C941 C 0.74604 0.07170 0.91386
 N942 N 0.75249 0.10177 0.91795
 N943 N 0.75850 0.15159 0.89932
 C944 C 0.75797 0.17182 0.87602
 C945 C 0.75093 0.16187 0.84635
 N946 N 0.74486 0.13182 0.84155
 H947 H 0.73181 0.03846 0.87978
 H948 H 0.76315 0.19547 0.88066
 C949 C 0.26196 0.60773 0.39454
 C950 C 0.24735 0.60004 0.36720
 N951 N 0.23592 0.57153 0.36361
 C952 C 0.23842 0.55040 0.38614
 C953 C 0.25324 0.55800 0.41350
 N954 N 0.26470 0.58660 0.41685
 N955 N 0.27267 0.63637 0.39862
 C956 C 0.26932 0.65784 0.37665
 C957 C 0.25474 0.65033 0.34915
 N958 N 0.24423 0.62141 0.34502
 H959 H 0.22869 0.52799 0.38288
 H960 H 0.27813 0.68052 0.38060
 C961 C 0.23809 0.88873 0.86881
 C962 C 0.24826 0.85957 0.87709
 N963 N 0.25682 0.85406 0.90619
 C964 C 0.25534 0.87636 0.92756
 C965 C 0.24416 0.90537 0.91965
 N966 N 0.23601 0.91082 0.89026
 N967 N 0.23033 0.89443 0.83949
 C968 C 0.23202 0.87215 0.81807
 C969 C 0.24140 0.84269 0.82650
 N970 N 0.24933 0.83718 0.85590
 H971 H 0.26276 0.87147 0.95052
 H972 H 0.22531 0.87718 0.79492
 C973 C 0.76391 0.40177 0.37090
 C974 C 0.77743 0.37383 0.37879
 N975 N 0.79166 0.37102 0.40600
 C976 C 0.79240 0.39467 0.42596
 C977 C 0.77746 0.42219 0.41881
 N978 N 0.76387 0.42509 0.39116
 N979 N 0.75042 0.40492 0.34338
 C980 C 0.74949 0.38130 0.32348
 C981 C 0.76195 0.35288 0.33170
 N982 N 0.77579 0.34989 0.35924
 H983 H 0.80377 0.39178 0.44760
 H984 H 0.73845 0.38451 0.30172
 C985 C 0.12603 0.25453 0.09386
 C986 C 0.11901 0.24585 0.12371
 N987 N 0.09024 0.23721 0.13076
 C988 C 0.06789 0.23734 0.10942
 C989 C 0.07438 0.24703 0.07943
 N990 N 0.10368 0.25499 0.07258
 N991 N 0.15509 0.26229 0.08660
 C992 C 0.17750 0.26177 0.10796
 C993 C 0.17041 0.25342 0.13804
 N994 N 0.14122 0.24564 0.14507
 H995 H 0.04561 0.22894 0.11575
 H996 H 0.20048 0.26802 0.10157
 C997 C 0.62382 0.74340 0.60162
 C998 C 0.62128 0.76531 0.62472
 N999 N 0.59718 0.78469 0.62492
 C1000 C 0.57517 0.78286 0.60327
 C1001 C 0.57673 0.75990 0.58098
 N1002 N 0.60138 0.74096 0.58052
 N1003 N 0.64858 0.72482 0.60079
 C1004 C 0.67074 0.72688 0.62232
 C1005 C 0.66760 0.74795 0.64619
 N1006 N 0.64288 0.76673 0.64671
 H1007 H 0.55640 0.79887 0.60365
 H1008 H 0.69000 0.71146 0.62147
 C1009 C 0.09321 0.75461 0.87117
 C1010 C 0.12346 0.76118 0.87884
 N1011 N 0.13060 0.76812 0.90798
 C1012 C 0.10896 0.76814 0.93009
 C1013 C 0.07853 0.76031 0.92301
 N1014 N 0.07158 0.75426 0.89331
 N1015 N 0.08607 0.74826 0.84178
 C1016 C 0.10795 0.74791 0.81976
 C1017 C 0.13847 0.75382 0.82758
 N1018 N 0.14530 0.76045 0.85704
 H1019 H 0.11549 0.77503 0.95278
 H1020 H 0.10167 0.74250 0.79659
 C1021 C 0.62520 0.25804 0.40182
 C1022 C 0.61866 0.27447 0.37522
 N1023 N 0.59212 0.29020 0.37317
 C1024 C 0.57147 0.28971 0.39625
 C1025 C 0.57708 0.27190 0.42230
 N1026 N 0.60418 0.25680 0.42456
 N1027 N 0.65219 0.24305 0.40417
 C1028 C 0.67277 0.24345 0.38097
 C1029 C 0.66576 0.25889 0.35382
 N1030 N 0.63880 0.27416 0.35173
 H1031 H 0.55044 0.30241 0.39397
 H1032 H 0.69398 0.23106 0.38332
 C1033 C 0.87252 0.76216 0.09916
 C1034 C 0.88256 0.75293 0.12800
 N1035 N 0.91208 0.74491 0.13199
 C1036 C 0.93227 0.74629 0.10861
 C1037 C 0.92278 0.75662 0.07963
 N1038 N 0.89274 0.76381 0.07576
 N1039 N 0.84281 0.76983 0.09519
 C1040 C 0.82275 0.76885 0.11882
 C1041 C 0.83289 0.76001 0.14791
 N1042 N 0.86267 0.75217 0.15163
 H1043 H 0.95543 0.73883 0.11260
 H1044 H 0.79926 0.77528 0.11497
 C1045 C 0.38780 0.23421 0.61700
 C1046 C 0.37078 0.26099 0.62137
 N1047 N 0.37698 0.28594 0.60423
 C1048 C 0.39935 0.28531 0.58281
 C1049 C 0.41603 0.25838 0.57785
 N1050 N 0.40977 0.23338 0.59517
 N1051 N 0.38241 0.20967 0.63504
 C1052 C 0.36080 0.21071 0.65728
 C1053 C 0.34341 0.23728 0.66130
 N1054 N 0.34884 0.26185 0.64320
 H1055 H 0.40395 0.30555 0.56951
 H1056 H 0.35714 0.19101 0.67163
 C1057 C 0.87128 0.26044 0.90222
 C1058 C 0.88129 0.25588 0.87226
 N1059 N 0.91098 0.24962 0.86679
 C1060 C 0.93139 0.24826 0.88987
 C1061 C 0.92189 0.25378 0.92016
 N1062 N 0.89171 0.25930 0.92539
 N1063 N 0.84130 0.26596 0.90762
 C1064 C 0.82089 0.26703 0.88436
 C1065 C 0.83097 0.26259 0.85426
 N1066 N 0.86104 0.25711 0.84909
 H1067 H 0.95469 0.24217 0.88455
 H1068 H 0.79708 0.27121 0.88933
 C1069 C 0.39333 0.74176 0.37752
 C1070 C 0.36831 0.76050 0.38457
 N1071 N 0.36876 0.77746 0.41034
 C1072 C 0.39297 0.77634 0.42953
 C1073 C 0.41770 0.75689 0.42306
 N1074 N 0.41718 0.74002 0.39707
 N1075 N 0.39334 0.72555 0.35125
 C1076 C 0.36940 0.72715 0.33174
 C1077 C 0.34399 0.74529 0.33911
 N1078 N 0.34404 0.76153 0.36547
 H1079 H 0.39276 0.79005 0.45000
 H1080 H 0.36990 0.71388 0.31098
 C1081 C 0.11447 0.11868 0.23336
 C1082 C 0.13297 0.12207 0.25917
 N1083 N 0.12654 0.10589 0.28466
 C1084 C 0.10284 0.08598 0.28534
 C1085 C 0.08500 0.08137 0.25908
 N1086 N 0.09116 0.09839 0.23387
 N1087 N 0.12007 0.13579 0.20825
 C1088 C 0.14346 0.15608 0.20775
 C1089 C 0.16240 0.15898 0.23328
 N1090 N 0.15667 0.14193 0.25850
 H1091 H 0.09770 0.07417 0.30635
 H1092 H 0.14745 0.16963 0.18755
 C1093 C 0.60335 0.62230 0.74471
 C1094 C 0.62071 0.62547 0.77135
 N1095 N 0.61430 0.60783 0.79589
 C1096 C 0.59157 0.58683 0.79484
 C1097 C 0.57514 0.58263 0.76775
 N1098 N 0.58130 0.60074 0.74339
 N1099 N 0.60886 0.64078 0.72059
 C1100 C 0.63119 0.66216 0.72179
 C1101 C 0.64926 0.66463 0.74799
 N1102 N 0.64361 0.64621 0.77223
 H1103 H 0.58669 0.57314 0.81474
 H1104 H 0.63535 0.67657 0.70222
 C1105 C 0.90020 0.13103 0.76056
 C1106 C 0.87940 0.12971 0.73634
 N1107 N 0.88293 0.10809 0.71453
 C1108 C 0.90578 0.08717 0.71628
 C1109 C 0.92536 0.08701 0.74162
 N1110 N 0.92240 0.10946 0.76290
 N1111 N 0.89722 0.15329 0.78183
 C1112 C 0.87416 0.17403 0.78024
 C1113 C 0.85249 0.17191 0.75682
 N1114 N 0.85576 0.14978 0.73529
 H1115 H 0.90781 0.06988 0.69883
 H1116 H 0.87217 0.19140 0.79761
 C1117 C 0.37975 0.61140 0.23428
 C1118 C 0.38287 0.63465 0.25600
 N1119 N 0.40719 0.63459 0.27501
 C1120 C 0.42848 0.61215 0.27344
 C1121 C 0.42553 0.58892 0.25162
 N1122 N 0.40132 0.58939 0.23230
 N1123 N 0.35459 0.61049 0.21640
 C1124 C 0.33227 0.63176 0.21936
 C1125 C 0.33558 0.65524 0.24077
 N1126 N 0.36091 0.65624 0.25851
 H1127 H 0.44743 0.61226 0.28917
 H1128 H 0.31222 0.63048 0.20510
 C1129 C 0.11818 0.89567 0.73964
 C1130 C 0.10610 0.86674 0.73387
 N1131 N 0.07547 0.86334 0.73229
 C1132 C 0.05635 0.88723 0.73746
 C1133 C 0.06816 0.91612 0.74603
 N1134 N 0.09909 0.91938 0.74541
 N1135 N 0.14882 0.89945 0.74043
 C1136 C 0.16797 0.87543 0.73633
 C1137 C 0.15601 0.84596 0.73171
 N1138 N 0.12515 0.84247 0.73032
 H1139 H 0.03224 0.88350 0.73429
 H1140 H 0.19229 0.87924 0.73773
 C1141 C 0.62001 0.39772 0.25720
 C1142 C 0.61450 0.37369 0.23679
 N1143 N 0.58986 0.37487 0.21823
 C1144 C 0.57044 0.39898 0.21920
 C1145 C 0.57565 0.42280 0.23996
 N1146 N 0.60030 0.42143 0.25860
 N1147 N 0.64514 0.39712 0.27507
 C1148 C 0.66513 0.37358 0.27340
 C1149 C 0.65946 0.34934 0.25335
 N1150 N 0.63415 0.34984 0.23555
 H1151 H 0.55091 0.39948 0.20418
 H1152 H 0.68506 0.37354 0.28786
 C1153 C 0.90126 0.88246 0.25784
 C1154 C 0.87177 0.89218 0.25047
 N1155 N 0.86680 0.92187 0.24363
 C1156 C 0.88990 0.94248 0.24426
 C1157 C 0.91964 0.93323 0.25261
 N1158 N 0.92427 0.90310 0.25890
 N1159 N 0.90645 0.85253 0.26371
 C1160 C 0.88338 0.83186 0.26260
 C1161 C 0.85363 0.84161 0.25568
 N1162 N 0.84865 0.87167 0.24978
 H1163 H 0.88509 0.96565 0.23742
 H1164 H 0.88817 0.80816 0.26742
 C1165 C 0.40310 0.37402 0.75708
 C1166 C 0.37441 0.38109 0.74493
 N1167 N 0.36919 0.40919 0.73322
 C1168 C 0.39129 0.43081 0.73355
 C1169 C 0.41971 0.42429 0.74682
 N1170 N 0.42499 0.39582 0.75801
 N1171 N 0.40844 0.34563 0.76815
 C1172 C 0.38621 0.32403 0.76789
 C1173 C 0.35717 0.33139 0.75658
 N1174 N 0.35210 0.35979 0.74526
 H1175 H 0.38660 0.45306 0.72400
 H1176 H 0.39095 0.30165 0.77707
 C1177 C 0.12577 0.25394 0.90613
 C1178 C 0.11673 0.24906 0.87596
 N1179 N 0.08688 0.24489 0.86950
 C1180 C 0.06548 0.24576 0.89181
 C1181 C 0.07417 0.25137 0.92230
 N1182 N 0.10441 0.25505 0.92842
 N1183 N 0.15577 0.25746 0.91267
 C1184 C 0.17717 0.25636 0.89030
 C1185 C 0.16812 0.25175 0.85994
 N1186 N 0.13800 0.24819 0.85361
 H1187 H 0.04206 0.24115 0.88574
 H1188 H 0.20093 0.25928 0.89617
 C1189 C 0.62391 0.74577 0.40020
 C1190 C 0.62307 0.76952 0.37887
 N1191 N 0.60067 0.79079 0.38051
 C1192 C 0.57863 0.78905 0.40218
 C1193 C 0.57827 0.76428 0.42249
 N1194 N 0.60137 0.74349 0.42131
 N1195 N 0.64707 0.72520 0.39921
 C1196 C 0.66920 0.72708 0.37754
 C1197 C 0.66765 0.75011 0.35540
 N1198 N 0.64459 0.77085 0.35673
 H1199 H 0.56118 0.80647 0.40322
 H1200 H 0.68720 0.71020 0.37695
 C1201 C 0.87329 0.75953 0.90117
 C1202 C 0.88325 0.75033 0.87228
 N1203 N 0.91291 0.74292 0.86799
 C1204 C 0.93326 0.74472 0.89116
 C1205 C 0.92377 0.75476 0.92027
 N1206 N 0.89365 0.76155 0.92435
 N1207 N 0.84346 0.76654 0.90550
 C1208 C 0.82315 0.76483 0.88219
 C1209 C 0.83314 0.75587 0.85306
 N1210 N 0.86309 0.74881 0.84896
 H1211 H 0.95652 0.73767 0.88692
 H1212 H 0.79955 0.77070 0.88634
 C1213 C 0.39548 0.23950 0.37564
 C1214 C 0.37696 0.26541 0.37242
 N1215 N 0.38056 0.28922 0.39176
 C1216 C 0.40173 0.28826 0.41431
 C1217 C 0.41970 0.26197 0.41829
 N1218 N 0.41605 0.23819 0.39869
 N1219 N 0.39285 0.21625 0.35544
 C1220 C 0.37239 0.21765 0.33224
 C1221 C 0.35322 0.24314 0.32952
 N1222 N 0.35594 0.26646 0.34976
 H1223 H 0.40436 0.30767 0.42926
 H1224 H 0.37065 0.19882 0.31643
 C1225 C 0.09254 0.74934 0.12956
 C1226 C 0.12173 0.76063 0.12319
 N1227 N 0.12799 0.77219 0.09528
 C1228 C 0.10645 0.77259 0.07316
 C1229 C 0.07740 0.76032 0.07896
 N1230 N 0.07108 0.74927 0.10730
 N1231 N 0.08629 0.73834 0.15781
 C1232 C 0.10808 0.73784 0.17987
 C1233 C 0.13760 0.74837 0.17318
 N1234 N 0.14349 0.75964 0.14494
 H1235 H 0.11198 0.78229 0.05121
 H1236 H 0.10263 0.72869 0.20208
 C1237 C 0.62234 0.25135 0.60149
 C1238 C 0.61525 0.26581 0.62908
 N1239 N 0.58814 0.28039 0.63215
 C1240 C 0.56756 0.28081 0.60905
 C1241 C 0.57391 0.26523 0.58174
 N1242 N 0.60147 0.25109 0.57863
 N1243 N 0.64997 0.23777 0.59807
 C1244 C 0.67075 0.23782 0.62105
 C1245 C 0.66337 0.25150 0.64905
 N1246 N 0.63568 0.26523 0.65229
 H1247 H 0.54624 0.29285 0.61207
 H1248 H 0.69257 0.22679 0.61772
 C1249 C 0.86909 0.24427 0.09737
 C1250 C 0.87765 0.23100 0.12514
 N1251 N 0.90637 0.22017 0.12865
 C1252 C 0.92715 0.22257 0.10585
 C1253 C 0.91917 0.23724 0.07848
 N1254 N 0.89005 0.24740 0.07486
 N1255 N 0.84014 0.25447 0.09364
 C1256 C 0.81947 0.25244 0.11661
 C1257 C 0.82832 0.24028 0.14488
 N1258 N 0.85727 0.22969 0.14834
 H1259 H 0.94986 0.21357 0.10924
 H1260 H 0.79668 0.26123 0.11314
 C1261 C 0.39077 0.72560 0.62039
 C1262 C 0.36633 0.74561 0.61516
 N1263 N 0.36778 0.76572 0.59183
 C1264 C 0.39247 0.76658 0.57323
 C1265 C 0.41668 0.74601 0.57771
 N1266 N 0.41523 0.72593 0.60134
 N1267 N 0.38970 0.70637 0.64459
 C1268 C 0.36532 0.70634 0.66380
 C1269 C 0.34062 0.72596 0.65819
 N1270 N 0.34179 0.74511 0.63391
 H1271 H 0.39304 0.78284 0.55472
 H1272 H 0.36511 0.69107 0.68315
 C1273 C 0.25209 0.11284 0.90310
 C1274 C 0.24323 0.10502 0.87347
 N1275 N 0.23423 0.07613 0.86748
 C1276 C 0.23420 0.05453 0.88962
 C1277 C 0.24400 0.06187 0.91941
 N1278 N 0.25231 0.09124 0.92520
 N1279 N 0.26058 0.14187 0.90928
 C1280 C 0.26072 0.16345 0.88712
 C1281 C 0.25220 0.15566 0.85721
 N1282 N 0.24358 0.12648 0.85119
 H1283 H 0.22586 0.03203 0.88405
 H1284 H 0.26772 0.18638 0.89282
 C1285 C 0.75524 0.60333 0.37414
 C1286 C 0.76971 0.63085 0.38154
 N1287 N 0.78504 0.63330 0.40819
 C1288 C 0.78624 0.60960 0.42803
 C1289 C 0.77094 0.58226 0.42126
 N1290 N 0.75597 0.57976 0.39420
 N1291 N 0.74044 0.60078 0.34715
 C1292 C 0.73935 0.62454 0.32727
 C1293 C 0.75333 0.65236 0.33489
 N1294 N 0.76822 0.65471 0.36195
 H1295 H 0.79866 0.61217 0.44913
 H1296 H 0.72730 0.62188 0.30596
 C1297 C 0.73422 0.10375 0.12037
 C1298 C 0.74740 0.13181 0.11267
 N1299 N 0.76015 0.13553 0.08479
 C1300 C 0.76012 0.11251 0.06409
 C1301 C 0.74618 0.08452 0.07131
 N1302 N 0.73370 0.08090 0.09952
 N1303 N 0.72249 0.09970 0.14869
 C1304 C 0.72331 0.12250 0.16967
 C1305 C 0.73603 0.15084 0.16186
 N1306 N 0.74776 0.15473 0.13341
 H1307 H 0.77100 0.11598 0.04227
 H1308 H 0.71385 0.11863 0.19210
 C1309 C 0.24163 0.59056 0.61692
 C1310 C 0.25667 0.61777 0.60937
 N1311 N 0.27260 0.61949 0.58296
 C1312 C 0.27386 0.59538 0.56355
 C1313 C 0.25808 0.56834 0.57056
 N1314 N 0.24250 0.56659 0.59734
 N1315 N 0.22622 0.58861 0.64362
 C1316 C 0.22514 0.61262 0.66314
 C1317 C 0.23983 0.64011 0.65554
 N1318 N 0.25529 0.64194 0.62869
 H1319 H 0.28676 0.59738 0.54265
 H1320 H 0.21269 0.61031 0.68429
 C1321 C 0.74472 0.89864 0.87534
 C1322 C 0.75490 0.86968 0.88422
 N1323 N 0.76379 0.86488 0.91336
 C1324 C 0.76265 0.88772 0.93419
 C1325 C 0.75152 0.91659 0.92569
 N1326 N 0.74303 0.92128 0.89625
 N1327 N 0.73676 0.90366 0.84594
 C1328 C 0.73836 0.88091 0.82500
 C1329 C 0.74785 0.85168 0.83402
 N1330 N 0.75594 0.84685 0.86351
 H1331 H 0.77046 0.88339 0.95713
 H1332 H 0.73171 0.88545 0.80173
 C1333 C 0.25717 0.38400 0.37255
 C1334 C 0.27223 0.35643 0.37859
 N1335 N 0.28585 0.35226 0.40599
 C1336 C 0.28486 0.37433 0.42771
 C1337 C 0.26901 0.40167 0.42204
 N1338 N 0.25569 0.40574 0.39439
 N1339 N 0.24447 0.38875 0.34487
 C1340 C 0.24608 0.36711 0.32286
 C1341 C 0.26063 0.33920 0.32894
 N1342 N 0.27336 0.33450 0.35680
 H1343 H 0.29635 0.37061 0.44915
 H1344 H 0.23567 0.37147 0.30098
 C1345 C 0.22423 0.88554 0.12334
 C1346 C 0.23639 0.85691 0.11578
 N1347 N 0.24806 0.85223 0.08759
 C1348 C 0.24804 0.87486 0.06652
 C1349 C 0.23544 0.90348 0.07379
 N1350 N 0.22390 0.90805 0.10221
 N1351 N 0.21346 0.89051 0.15186
 C1352 C 0.21447 0.86819 0.17326
 C1353 C 0.22658 0.83946 0.16574
 N1354 N 0.23712 0.83452 0.13703
 H1355 H 0.25803 0.87066 0.04438
 H1356 H 0.20586 0.87281 0.19589
 C1357 C 0.74844 0.39741 0.61895
 C1358 C 0.76509 0.37062 0.61333
 N1359 N 0.78316 0.36888 0.58833
 C1360 C 0.78515 0.39261 0.56856
 C1361 C 0.76807 0.41928 0.57381
 N1362 N 0.75018 0.42100 0.59907
 N1363 N 0.73081 0.39943 0.64421
 C1364 C 0.72922 0.37597 0.66428
 C1365 C 0.74584 0.34906 0.65879
 N1366 N 0.76333 0.34702 0.63326
 H1367 H 0.79969 0.39065 0.54873
 H1368 H 0.71513 0.37833 0.68439
 C1369 C 0.10476 0.12159 0.76566
 C1370 C 0.13295 0.11298 0.75331
 N1371 N 0.13596 0.08512 0.74035
 C1372 C 0.11224 0.06522 0.73960
 C1373 C 0.08393 0.07312 0.75293
 N1374 N 0.08109 0.10157 0.76528
 N1375 N 0.10148 0.14986 0.77777
 C1376 C 0.12512 0.16992 0.77807
 C1377 C 0.15360 0.16127 0.76599
 N1378 N 0.15672 0.13283 0.75391
 H1379 H 0.11536 0.04365 0.72808
 H1380 H 0.12178 0.19231 0.78786
 C1381 C 0.60609 0.62700 0.25754
 C1382 C 0.62774 0.62670 0.23401
 N1383 N 0.62596 0.60518 0.21192
 C1384 C 0.60380 0.58357 0.21257
 C1385 C 0.58306 0.58276 0.23700
 N1386 N 0.58451 0.60492 0.25867
 N1387 N 0.60705 0.64934 0.27889
 C1388 C 0.62893 0.67126 0.27796
 C1389 C 0.65128 0.67035 0.25506
 N1390 N 0.65009 0.64804 0.23357
 H1391 H 0.60256 0.56693 0.19444
 H1392 H 0.62941 0.68869 0.29538
 C1393 C 0.09644 0.87694 0.26630
 C1394 C 0.12364 0.88255 0.25039
 N1395 N 0.12718 0.90914 0.23509
 C1396 C 0.10492 0.93065 0.23538
 C1397 C 0.07813 0.92566 0.25229
 N1398 N 0.07444 0.89866 0.26710
 N1399 N 0.09264 0.84999 0.28094
 C1400 C 0.11489 0.82841 0.28050
 C1401 C 0.14243 0.83428 0.26518
 N1402 N 0.14605 0.86128 0.25043
 H1403 H 0.10828 0.95171 0.22303
 H1404 H 0.11129 0.80709 0.29234
 C1405 C 0.59705 0.37788 0.74753
 C1406 C 0.62470 0.38600 0.73366
 N1407 N 0.62797 0.41428 0.72162
 C1408 C 0.60501 0.43503 0.72337
 C1409 C 0.57781 0.42751 0.73864
 N1410 N 0.57446 0.39884 0.75003
 N1411 N 0.59347 0.34936 0.75887
 C1412 C 0.61648 0.32866 0.75734
 C1413 C 0.64463 0.33709 0.74454
 N1414 N 0.64798 0.36563 0.73285
 H1415 H 0.60817 0.45743 0.71358
 H1416 H 0.61314 0.30619 0.76692
 C1417 C 0.87820 0.10595 0.24515
 C1418 C 0.88432 0.13423 0.25866
 N1419 N 0.91161 0.13905 0.27228
 C1420 C 0.93332 0.11696 0.27260
 C1421 C 0.92786 0.08899 0.25792
 N1422 N 0.90013 0.08413 0.24485
 N1423 N 0.85041 0.10076 0.23261
 C1424 C 0.82850 0.12272 0.23281
 C1425 C 0.83490 0.15135 0.24560
 N1426 N 0.86274 0.15634 0.25825
 H1427 H 0.95467 0.12123 0.28413
 H1428 H 0.80656 0.11810 0.22257
 C1429 C 0.36672 0.59534 0.75491
 C1430 C 0.37006 0.62207 0.77206
 N1431 N 0.39558 0.62627 0.78892
 C1432 C 0.41834 0.60525 0.78883
 C1433 C 0.41598 0.57928 0.77021
 N1434 N 0.38982 0.57476 0.75411
 N1435 N 0.34077 0.59083 0.73870
 C1436 C 0.31822 0.61215 0.73843
 C1437 C 0.32218 0.63956 0.75445
 N1438 N 0.34803 0.64370 0.77105
 H1439 H 0.43835 0.60905 0.80269
 H1440 H 0.29803 0.60831 0.72484
 C1441 C 0.89513 0.88040 0.75077
 C1442 C 0.86909 0.88496 0.76874
 N1443 N 0.86660 0.91072 0.78569
 C1444 C 0.88873 0.93242 0.78501
 C1445 C 0.91405 0.92876 0.76564
 N1446 N 0.91672 0.90244 0.74937
 N1447 N 0.89838 0.85404 0.73493
 C1448 C 0.87652 0.83212 0.73595
 C1449 C 0.84985 0.83713 0.75293
 N1450 N 0.84681 0.86350 0.76902
 H1451 H 0.88647 0.95243 0.79922
 H1452 H 0.87949 0.81141 0.72290
 C1453 C 0.40121 0.38211 0.23806
 C1454 C 0.37735 0.38289 0.25932
 N1455 N 0.37592 0.40599 0.27982
 C1456 C 0.39704 0.42867 0.27967
 C1457 C 0.42001 0.42886 0.25730
 N1458 N 0.42166 0.40520 0.23731
 N1459 N 0.40357 0.35827 0.21853
 C1460 C 0.38286 0.33528 0.21904
 C1461 C 0.35826 0.33663 0.23945
 N1462 N 0.35612 0.36045 0.25919
 H1463 H 0.39583 0.44643 0.29670
 H1464 H 0.38498 0.31666 0.20302
   
