data_POSCAR
  _audit_creation_date              2014-09-24
  _audit_creation_method            'ToBaCCo'
  _symmetry_space_group_name_H-M    'P1'
  _symmetry_Int_Tables_number       1
  _symmetry_cell_setting            triclinic
  loop_
  _symmetry_equiv_pos_as_xyz
 x,y,z
_cell_length_a 51.4989
_cell_length_b 52.4970
_cell_length_c 51.4179
_cell_angle_alpha 94.492400
_cell_angle_beta 94.096700
_cell_angle_gamma 95.150000
loop_
  _atom_site_label
  _atom_site_type_symbol
  _atom_site_fract_x
  _atom_site_fract_y
  _atom_site_fract_z
C1 C 0.70844 0.68410 0.97619
 H2 H 0.72703 0.69474 0.98261
 C3 C 0.68845 0.69656 0.96416
 H4 H 0.69188 0.71671 0.96107
 C5 C 0.68124 0.64487 0.97200
 H6 H 0.67864 0.62469 0.97513
 C7 C 0.66096 0.65641 0.95970
 H8 H 0.64266 0.64503 0.95349
 N9 N 0.70466 0.65854 0.97925
 C10 C 0.77163 0.65857 1.03094
 H11 H 0.76077 0.64707 1.04374
 C12 C 0.79635 0.67019 1.03993
 H13 H 0.80391 0.66728 1.05954
 C14 C 0.77595 0.67386 0.98920
 H15 H 0.76816 0.67447 0.96918
 C16 C 0.80078 0.68610 0.99752
 H17 H 0.81158 0.69669 0.98389
 Zn18 Zn 0.73092 0.63942 0.99342
 N19 N 0.76199 0.66031 1.00589
 C20 C 0.76153 0.60251 0.97257
 N21 N 0.74037 0.61542 0.96705
 C22 C 0.72845 0.61379 0.94240
 C23 C 0.73803 0.59907 0.92208
 C24 C 0.77199 0.58784 0.95274
 C25 C 0.70656 0.63971 1.03909
 C26 C 0.69817 0.63152 1.06242
 C27 C 0.71092 0.58944 1.04993
 C28 C 0.71906 0.59860 1.02662
 N29 N 0.71729 0.62353 1.02202
 H30 H 0.77105 0.60462 0.99217
 H31 H 0.71205 0.62460 0.93811
 H32 H 0.72822 0.59816 0.90265
 H33 H 0.78960 0.57878 0.95745
 H34 H 0.70497 0.65936 1.03471
 H35 H 0.68890 0.64526 1.07445
 H36 H 0.71427 0.56988 1.05316
 H37 H 0.72767 0.58601 1.01270
 C38 C 0.81153 0.68397 1.02312
 C39 C 0.66459 0.68245 0.95520
 C40 C 0.70094 0.60613 1.06909
 C41 C 0.76048 0.58629 0.92693
 C42 C 0.72580 0.36649 0.51404
 H43 H 0.74108 0.37303 0.52923
 C44 C 0.70553 0.34848 0.51908
 H45 H 0.70511 0.34175 0.53843
 C46 C 0.70773 0.36754 0.47050
 H47 H 0.70869 0.37482 0.45152
 C48 C 0.68715 0.34953 0.47467
 H49 H 0.67258 0.34310 0.45873
 N50 N 0.72644 0.37578 0.49011
 C51 C 0.79913 0.39433 0.45635
 H52 H 0.79829 0.41459 0.45426
 C53 C 0.81809 0.38122 0.44440
 H54 H 0.83198 0.39152 0.43322
 C55 C 0.78185 0.35618 0.47329
 H56 H 0.76748 0.34650 0.48436
 C57 C 0.80075 0.34240 0.46198
 H58 H 0.80073 0.32207 0.46427
 Zn59 Zn 0.75463 0.39979 0.48396
 N60 N 0.78131 0.38163 0.47016
 C61 C 0.79363 0.41936 0.52337
 N62 N 0.76766 0.41852 0.51607
 C63 C 0.75089 0.42883 0.53232
 C64 C 0.75996 0.43950 0.55751
 C65 C 0.80352 0.43000 0.54818
 C66 C 0.74084 0.41172 0.43334
 C67 C 0.73248 0.42635 0.41346
 C68 C 0.73008 0.46172 0.44592
 C69 C 0.73858 0.44635 0.46528
 N70 N 0.74342 0.42172 0.45870
 H71 H 0.80669 0.41113 0.51023
 H72 H 0.73026 0.42770 0.52616
 H73 H 0.74613 0.44650 0.57060
 H74 H 0.82425 0.43019 0.55358
 H75 H 0.74530 0.39224 0.42854
 H76 H 0.73073 0.41796 0.39342
 H77 H 0.72569 0.48108 0.45154
 H78 H 0.74102 0.45402 0.48552
 C79 C 0.81892 0.35489 0.44703
 C80 C 0.68580 0.33982 0.49926
 C81 C 0.72669 0.45163 0.41961
 C82 C 0.78653 0.43958 0.56595
 C83 C 0.22826 -0.11679 0.01194
 H84 H 0.23819 -0.10146 0.02522
 C85 C 0.20791 -0.13259 0.02051
 H86 H 0.20218 -0.12884 0.04019
 C87 C 0.22328 -0.13997 -0.02980
 H88 H 0.22945 -0.14274 -0.04942
 C89 C 0.20285 -0.15626 -0.02203
 H90 H 0.19358 -0.17167 -0.03574
 N91 N 0.23533 -0.12046 -0.01296
 C92 C 0.30933 -0.10640 -0.04861
 H93 H 0.31041 -0.08611 -0.05090
 C94 C 0.32888 -0.12072 -0.05784
 H95 H 0.34448 -0.11133 -0.06771
 C96 C 0.28799 -0.14330 -0.03288
 H97 H 0.27250 -0.15202 -0.02251
 C98 C 0.30701 -0.15835 -0.04194
 H99 H 0.30571 -0.17854 -0.03867
 Zn100 Zn 0.26243 -0.09799 -0.02469
 N101 N 0.28911 -0.11788 -0.03677
 C102 C 0.30041 -0.07850 0.01548
 N103 N 0.27680 -0.07458 0.00369
 C104 C 0.26264 -0.05584 0.01339
 C105 C 0.27169 -0.04086 0.03653
 C106 C 0.31022 -0.06393 0.03847
 C107 C 0.26332 -0.06089 -0.06241
 C108 C 0.25374 -0.04906 -0.08414
 C109 C 0.21297 -0.07540 -0.08389
 C110 C 0.22326 -0.08636 -0.06210
 N111 N 0.24837 -0.07981 -0.05236
 H112 H 0.31117 -0.09374 0.00772
 H113 H 0.24384 -0.05323 0.00369
 H114 H 0.25990 -0.02646 0.04436
 H115 H 0.32849 -0.06826 0.04811
 H116 H 0.28288 -0.05504 -0.05376
 H117 H 0.26712 -0.03519 -0.09204
 H118 H 0.19263 -0.08103 -0.09003
 H119 H 0.21090 -0.10020 -0.05308
 C120 C 0.32768 -0.14713 -0.05481
 C121 C 0.19478 -0.15255 0.00338
 C122 C 0.22829 -0.05676 -0.09614
 C123 C 0.29561 -0.04514 0.04962
 C124 C 0.20234 0.16592 0.44705
 H125 H 0.22053 0.16461 0.43802
 C126 C 0.18311 0.17967 0.43564
 H127 H 0.18697 0.18896 0.41806
 C128 C 0.17432 0.15333 0.47922
 H129 H 0.17041 0.14249 0.49570
 C130 C 0.15475 0.16711 0.46871
 H131 H 0.13653 0.16724 0.47796
 N132 N 0.19763 0.15288 0.46837
 C133 C 0.26638 0.14230 0.51748
 H134 H 0.25728 0.12629 0.52654
 C135 C 0.29101 0.15325 0.52760
 H136 H 0.30028 0.14553 0.54444
 C137 C 0.26647 0.16990 0.48322
 H138 H 0.25716 0.17599 0.46562
 C139 C 0.29124 0.18148 0.49276
 H140 H 0.30044 0.19672 0.48258
 Zn141 Zn 0.22280 0.13143 0.48148
 N142 N 0.25453 0.15065 0.49565
 C143 C 0.25376 0.09693 0.45775
 N144 N 0.23148 0.10860 0.45378
 C145 C 0.21761 0.10603 0.43003
 C146 C 0.22682 0.09228 0.40874
 C147 C 0.26365 0.08305 0.43706
 C148 C 0.20416 0.12738 0.53066
 C149 C 0.19452 0.11564 0.55182
 C150 C 0.19577 0.07434 0.52789
 C151 C 0.20515 0.08696 0.50691
 N152 N 0.20902 0.11305 0.50865
 H153 H 0.26447 0.09933 0.47678
 H154 H 0.19974 0.11516 0.42736
 H155 H 0.21578 0.09082 0.38987
 H156 H 0.28210 0.07500 0.44046
 H157 H 0.20789 0.14807 0.53172
 H158 H 0.19085 0.12745 0.56916
 H159 H 0.19258 0.05359 0.52626
 H160 H 0.20941 0.07594 0.48933
 C161 C 0.30393 0.17299 0.51515
 C162 C 0.15875 0.18017 0.44629
 C163 C 0.19013 0.08880 0.55061
 C164 C 0.25045 0.08102 0.41198
 C165 C 0.16350 0.47283 0.21147
 H166 H 0.16189 0.46358 0.22945
 C167 C 0.18047 0.46435 0.19338
 H168 H 0.19181 0.44860 0.19769
 C169 C 0.14903 0.50312 0.18325
 H170 H 0.13633 0.51782 0.17906
 C171 C 0.16580 0.49530 0.16464
 H172 H 0.16616 0.50453 0.14655
 N173 N 0.14790 0.49163 0.20602
 C174 C 0.12199 0.52088 0.28085
 H175 H 0.10190 0.52312 0.27472
 C176 C 0.13148 0.52857 0.30659
 H177 H 0.11841 0.53620 0.32017
 C178 C 0.16379 0.50991 0.27024
 H179 H 0.17647 0.50299 0.25602
 C180 C 0.17419 0.51761 0.29582
 H181 H 0.19468 0.51603 0.30111
 Zn182 Zn 0.12216 0.49997 0.22928
 N183 N 0.13789 0.51104 0.26342
 C184 C 0.07883 0.47118 0.24776
 N185 N 0.09826 0.47021 0.23121
 C186 C 0.10213 0.44774 0.21756
 C187 C 0.08769 0.42486 0.22191
 C188 C 0.06377 0.44880 0.25253
 C189 C 0.11974 0.55054 0.21902
 C190 C 0.10900 0.57245 0.21137
 C191 C 0.06757 0.54708 0.20055
 C192 C 0.07919 0.52551 0.20846
 N193 N 0.10486 0.52768 0.21743
 H194 H 0.07534 0.48917 0.25786
 H195 H 0.11687 0.44725 0.20370
 H196 H 0.09161 0.40708 0.21143
 H197 H 0.04922 0.44988 0.26667
 H198 H 0.14011 0.55167 0.22623
 H199 H 0.12144 0.59031 0.21237
 H200 H 0.04708 0.54513 0.19363
 H201 H 0.06773 0.50711 0.20746
 C202 C 0.15781 0.52666 0.31445
 C203 C 0.18145 0.47532 0.16937
 C204 C 0.08254 0.57099 0.20208
 C205 C 0.06867 0.42513 0.24009
 C206 C -0.15620 -0.00591 0.23627
 H207 H -0.15427 0.00163 0.25659
 C208 C -0.17480 0.00274 0.21893
 H209 H -0.18720 0.01603 0.22743
 C210 C -0.14179 -0.03289 0.20246
 H211 H -0.12840 -0.04636 0.19603
 C212 C -0.15959 -0.02419 0.18416
 H213 H -0.15874 -0.03159 0.16414
 N214 N -0.14025 -0.02347 0.22791
 C215 C -0.11128 -0.05175 0.30112
 H216 H -0.09047 -0.04993 0.29894
 C217 C -0.12078 -0.06136 0.32355
 H218 H -0.10715 -0.06672 0.33873
 C219 C -0.15435 -0.04708 0.28391
 H220 H -0.16750 -0.04224 0.26817
 C221 C -0.16466 -0.05634 0.30609
 H222 H -0.18565 -0.05830 0.30725
 Zn223 Zn -0.11360 -0.03145 0.25229
 N224 N -0.12803 -0.04443 0.28206
 C225 C -0.08782 0.00980 0.28689
 N226 N -0.09220 -0.00033 0.26161
 C227 C -0.08386 0.01292 0.24158
 C228 C -0.07124 0.03768 0.24652
 C229 C -0.07493 0.03438 0.29274
 C230 C -0.10737 -0.08050 0.23061
 C231 C -0.09439 -0.10053 0.21986
 C232 C -0.05477 -0.07172 0.22288
 C233 C -0.06853 -0.05222 0.23364
 N234 N -0.09439 -0.05692 0.23712
 H235 H -0.09515 -0.00069 0.30250
 H236 H -0.08793 0.00457 0.22163
 H237 H -0.06535 0.04823 0.23030
 H238 H -0.07238 0.04251 0.31288
 H239 H -0.12788 -0.08374 0.23393
 H240 H -0.10505 -0.11924 0.21512
 H241 H -0.03429 -0.06752 0.21985
 H242 H -0.05853 -0.03339 0.23924
 C243 C -0.14779 -0.06348 0.32631
 C244 C -0.17651 -0.00554 0.19187
 C245 C -0.06772 -0.09628 0.21581
 C246 C -0.06699 0.04884 0.27235
 C247 C 0.35594 0.49417 0.72825
 H248 H 0.35913 0.50243 0.74830
 C249 C 0.33942 0.50502 0.71052
 H250 H 0.32951 0.52135 0.71725
 C251 C 0.36577 0.46331 0.69513
 H252 H 0.37675 0.44759 0.68907
 C253 C 0.34946 0.47369 0.67664
 H254 H 0.34801 0.46576 0.65645
 N255 N 0.36883 0.47381 0.72034
 C256 C 0.39308 0.44238 0.79310
 H257 H 0.41384 0.44227 0.79111
 C258 C 0.38228 0.43313 0.81505
 H259 H 0.39490 0.42609 0.83009
 C260 C 0.35142 0.45181 0.77589
 H261 H 0.33935 0.45863 0.76037
 C262 C 0.33984 0.44296 0.79762
 H263 H 0.31893 0.44311 0.79866
 Zn264 Zn 0.39392 0.46393 0.74523
 N265 N 0.37766 0.45172 0.77422
 C266 C 0.42015 0.50378 0.78100
 N267 N 0.41649 0.49400 0.75558
 C268 C 0.42592 0.50730 0.73604
 C269 C 0.43867 0.53194 0.74160
 C270 C 0.43314 0.52822 0.78747
 C271 C 0.39882 0.41466 0.72227
 C272 C 0.41157 0.39458 0.71120
 C273 C 0.45231 0.42172 0.71852
 C274 C 0.43875 0.44132 0.72931
 N275 N 0.41243 0.43758 0.73061
 H276 H 0.41200 0.49322 0.79618
 H277 H 0.42237 0.49921 0.71596
 H278 H 0.44526 0.54263 0.72575
 H279 H 0.43498 0.53616 0.80768
 H280 H 0.37793 0.41213 0.72390
 H281 H 0.40021 0.37679 0.70387
 H282 H 0.47327 0.42507 0.71771
 H283 H 0.44927 0.45949 0.73664
 C284 C 0.35535 0.43351 0.81755
 C285 C 0.33644 0.49516 0.68419
 C286 C 0.43867 0.39805 0.70895
 C287 C 0.44193 0.54285 0.76755
 C288 C 0.66051 0.97479 0.71919
 H289 H 0.65786 0.96480 0.73657
 C290 C 0.67542 0.96483 0.69982
 H291 H 0.68408 0.94710 0.70254
 C292 C 0.65048 1.00886 0.69376
 H293 H 0.64022 1.02566 0.69115
 C294 C 0.66542 0.99976 0.67407
 H295 H 0.66694 1.01012 0.65676
 N296 N 0.64798 0.99613 0.71561
 C297 C 0.62429 1.03064 0.78879
 H298 H 0.60364 1.03043 0.78306
 C299 C 0.63412 1.04080 0.81373
 H300 H 0.62020 1.04755 0.82678
 C301 C 0.66615 1.01976 0.77848
 H302 H 0.67849 1.01150 0.76457
 C303 C 0.67692 1.02973 0.80337
 H304 H 0.69776 1.02956 0.80760
 Zn305 Zn 0.62348 1.00523 0.73960
 N306 N 0.64019 1.02010 0.77189
 C307 C 0.60434 0.96699 0.77045
 N308 N 0.60333 0.97446 0.74569
 C309 C 0.59100 0.95882 0.72528
 C310 C 0.57932 0.93447 0.72945
 C311 C 0.59316 0.94292 0.77542
 C312 C 0.61438 1.05435 0.72745
 C313 C 0.60108 1.07398 0.71767
 C314 C 0.56393 1.04307 0.70451
 C315 C 0.57784 1.02402 0.71498
 N316 N 0.60275 1.02991 0.72585
 H317 H 0.61469 0.97923 0.78640
 H318 H 0.59109 0.96484 0.70564
 H319 H 0.57016 0.92194 0.71298
 H320 H 0.59448 0.93730 0.79526
 H321 H 0.63420 1.05852 0.73618
 H322 H 0.61090 1.09320 0.71870
 H323 H 0.54426 1.03811 0.69556
 H324 H 0.56884 1.00455 0.71411
 C325 C 0.66089 1.04041 0.82178
 C326 C 0.67756 0.97703 0.67657
 C327 C 0.57561 1.06842 0.70579
 C328 C 0.58087 0.92613 0.75475
 C329 C -0.00722 0.22270 -0.13716
 H330 H -0.01493 0.23913 -0.14509
 C331 C 0.00052 0.20331 -0.15428
 H332 H -0.00197 0.20484 -0.17518
 C333 C 0.00687 0.20127 -0.10062
 H334 H 0.01074 0.20120 -0.07974
 C335 C 0.01477 0.18146 -0.11700
 H336 H 0.02417 0.16613 -0.10840
 N337 N -0.00396 0.22139 -0.11080
 C338 C -0.00452 0.30047 -0.10092
 H339 H 0.01246 0.30254 -0.08705
 C340 C -0.01129 0.32158 -0.11393
 H341 H 0.00055 0.33975 -0.10980
 C342 C -0.04115 0.27469 -0.12233
 H343 H -0.05280 0.25635 -0.12534
 C344 C -0.04864 0.29529 -0.13573
 H345 H -0.06590 0.29250 -0.14933
 Zn346 Zn -0.01031 0.24926 -0.08686
 N347 N -0.01940 0.27757 -0.10532
 C348 C 0.02352 0.26136 -0.03975
 N349 N 0.02148 0.25843 -0.06637
 C350 C 0.04291 0.26099 -0.08023
 C351 C 0.06771 0.26654 -0.06741
 C352 C 0.04812 0.26720 -0.02604
 C353 C -0.05952 0.25197 -0.06570
 C354 C -0.08106 0.24310 -0.05278
 C355 C -0.05673 0.20898 -0.03836
 C356 C -0.03574 0.21858 -0.05158
 N357 N -0.03774 0.23916 -0.06573
 H358 H 0.00616 0.25915 -0.02919
 H359 H 0.04065 0.25856 -0.10139
 H360 H 0.08447 0.26877 -0.07889
 H361 H 0.04961 0.26946 -0.00486
 H362 H -0.06063 0.26884 -0.07629
 H363 H -0.09825 0.25328 -0.05516
 H364 H -0.05345 0.19302 -0.02691
 H365 H -0.01784 0.20940 -0.05053
 C366 C -0.03368 0.31917 -0.13153
 C367 C 0.01194 0.18249 -0.14421
 C368 C -0.08062 0.22052 -0.03939
 C369 C 0.07060 0.26960 -0.03997
 C370 C 0.48889 0.23433 0.19607
 H371 H 0.48148 0.25300 0.19732
 C372 C 0.47753 0.21468 0.20960
 H373 H 0.46180 0.21862 0.22176
 C374 C 0.51769 0.20636 0.17781
 H375 H 0.53278 0.20294 0.16477
 C376 C 0.50685 0.18616 0.19089
 H377 H 0.51380 0.16741 0.18762
 N378 N 0.50845 0.22981 0.18040
 C379 C 0.55073 0.30159 0.16396
 H380 H 0.55233 0.29660 0.14336
 C381 C 0.56112 0.32564 0.17528
 H382 H 0.57067 0.33903 0.16319
 C383 C 0.53449 0.29074 0.20406
 H384 H 0.52374 0.27721 0.21504
 C385 C 0.54443 0.31478 0.21616
 H386 H 0.54143 0.31950 0.23654
 Zn387 Zn 0.51986 0.25545 0.15878
 N388 N 0.53721 0.28495 0.17820
 C389 C 0.48489 0.29034 0.14290
 N390 N 0.48981 0.26529 0.14019
 C391 C 0.47273 0.24731 0.12593
 C392 C 0.44992 0.25446 0.11318
 C393 C 0.46246 0.29828 0.13055
 C394 C 0.56809 0.24029 0.14680
 C395 C 0.58731 0.23170 0.13144
 C396 C 0.55600 0.22784 0.09369
 C397 C 0.53744 0.23698 0.10973
 N398 N 0.54372 0.24269 0.13583
 H399 H 0.49814 0.30428 0.15493
 H400 H 0.47680 0.22740 0.12458
 H401 H 0.43672 0.24003 0.10155
 H402 H 0.45887 0.31829 0.13325
 H403 H 0.57257 0.24512 0.16757
 H404 H 0.60652 0.22959 0.14058
 H405 H 0.55076 0.22307 0.07300
 H406 H 0.51808 0.23938 0.10133
 C407 C 0.55746 0.33276 0.20153
 C408 C 0.48618 0.19005 0.20675
 C409 C 0.58130 0.22521 0.10458
 C410 C 0.44469 0.28033 0.11529
 C411 C 0.97351 0.71422 0.68263
 H412 H 0.96394 0.73175 0.68360
 C413 C 0.96369 0.69325 0.69547
 H414 H 0.94654 0.69489 0.70626
 C415 C 1.00618 0.69017 0.66566
 H416 H 1.02222 0.68852 0.65347
 C417 C 0.99730 0.66900 0.67840
 H418 H 1.00731 0.65177 0.67635
 N419 N 0.99416 0.71219 0.66774
 C420 C 1.03302 0.78566 0.65147
 H421 H 1.03384 0.78109 0.63068
 C422 C 1.04384 0.80946 0.66299
 H423 H 1.05285 0.82311 0.65082
 C424 C 1.01862 0.77381 0.69200
 H425 H 1.00841 0.75991 0.70303
 C426 C 1.02909 0.79762 0.70436
 H427 H 1.02713 0.80182 0.72504
 Zn428 Zn 1.00379 0.73887 0.64631
 N429 N 1.02042 0.76856 0.66590
 C430 C 0.96639 0.77231 0.63333
 N431 N 0.97273 0.74785 0.62872
 C432 C 0.95599 0.72972 0.61424
 C433 C 0.93164 0.73597 0.60397
 C434 C 0.94239 0.77930 0.62359
 C435 C 1.05207 0.72468 0.63470
 C436 C 1.07111 0.71442 0.62033
 C437 C 1.04139 0.71194 0.58145
 C438 C 1.02262 0.72202 0.59676
 N439 N 1.02810 0.72748 0.62302
 H440 H 0.97960 0.78642 0.64520
 H441 H 0.96124 0.71027 0.61129
 H442 H 0.91830 0.72127 0.59290
 H443 H 0.93787 0.79892 0.62751
 H444 H 1.05602 0.72955 0.65553
 H445 H 1.08976 0.71141 0.63017
 H446 H 1.03664 0.70673 0.56075
 H447 H 1.00356 0.72480 0.58781
 C448 C 1.04164 0.81590 0.68969
 C449 C 0.97532 0.67003 0.69296
 C450 C 1.06569 0.70744 0.59351
 C451 C 0.92447 0.76099 0.60903
 C452 C 0.48289 0.73689 0.35766
 H453 H 0.48083 0.75520 0.34996
 C454 C 0.49102 0.71692 0.34156
 H455 H 0.49440 0.71993 0.32143
 C456 C 0.48284 0.71115 0.39348
 H457 H 0.48063 0.70919 0.41392
 C458 C 0.49083 0.69069 0.37808
 H459 H 0.49459 0.67322 0.38697
 N460 N 0.47915 0.73377 0.38321
 C461 C 0.47892 0.81336 0.39332
 H462 H 0.49361 0.81579 0.40965
 C463 C 0.47418 0.83425 0.37909
 H464 H 0.48508 0.85246 0.38559
 C465 C 0.44610 0.78686 0.36693
 H466 H 0.43546 0.76816 0.36211
 C467 C 0.44069 0.80719 0.35211
 H468 H 0.42625 0.80318 0.33566
 Zn469 Zn 0.47277 0.76215 0.40640
 N470 N 0.46502 0.79021 0.38703
 C471 C 0.52589 0.77288 0.41343
 N472 N 0.50444 0.77134 0.42735
 C473 C 0.50656 0.77576 0.45390
 C474 C 0.53126 0.78162 0.46745
 C475 C 0.55075 0.77851 0.42608
 C476 C 0.42033 0.76007 0.42072
 C477 C 0.39855 0.74952 0.43229
 C478 C 0.42703 0.72479 0.45728
 C479 C 0.44820 0.73571 0.44518
 N480 N 0.44446 0.75237 0.42660
 H481 H 0.52362 0.76963 0.39233
 H482 H 0.48920 0.77480 0.46456
 H483 H 0.53278 0.78487 0.48858
 H484 H 0.56748 0.77984 0.41447
 H485 H 0.41763 0.77356 0.40622
 H486 H 0.37935 0.75487 0.42625
 H487 H 0.43042 0.71112 0.47158
 H488 H 0.46758 0.73033 0.45020
 C489 C 0.45480 0.83158 0.35791
 C490 C 0.49547 0.69358 0.35187
 C491 C 0.40165 0.73098 0.45020
 C492 C 0.55376 0.78272 0.45345
 C493 C 0.39641 -0.01926 0.26824
 C494 C 0.38266 -0.02427 0.24068
 C495 C 0.36880 -0.00489 0.23303
 C496 C 0.36991 0.01804 0.25381
 C497 C 0.41323 0.00636 0.26725
 C498 C 0.39943 0.02594 0.25970
 C499 C 0.37487 -0.01294 0.28588
 C500 C 0.36121 0.00679 0.27893
 H501 H 0.38512 -0.04097 0.22766
 H502 H 0.35864 0.03373 0.24731
 H503 H 0.43427 0.00849 0.27094
 H504 H 0.37130 -0.02319 0.30294
 C505 C 0.09949 1.04648 0.75540
 C506 C 0.10859 1.05305 0.72884
 C507 C 0.12299 1.03553 0.71731
 C508 C 0.12702 1.01260 0.73358
 C509 C 0.08475 1.01950 0.74964
 C510 C 0.09924 1.00170 0.73847
 C511 C 0.12446 1.04212 0.77180
 C512 C 0.13872 1.02407 0.76083
 H513 H 0.10373 1.07018 0.71987
 H514 H 0.13895 0.99844 0.72426
 H515 H 0.06453 1.01478 0.75313
 H516 H 0.12809 1.04975 0.79206
 C517 C 0.60188 0.56479 0.26569
 C518 C 0.61716 0.57278 0.24262
 C519 C 0.63399 0.55581 0.23466
 C520 C 0.63415 0.53208 0.25030
 C521 C 0.58868 0.53790 0.25632
 C522 C 0.60549 0.52064 0.24869
 C523 C 0.62302 0.56008 0.28685
 C524 C 0.63973 0.54279 0.27909
 H525 H 0.61443 0.58959 0.23229
 H526 H 0.64814 0.51851 0.24368
 H527 H 0.56787 0.53280 0.25671
 H528 H 0.62293 0.56782 0.30700
 C529 C 0.89694 0.46909 0.78486
 C530 C 0.87993 0.46091 0.75947
 C531 C 0.86619 0.47965 0.75001
 C532 C 0.87028 0.50516 0.76749
 C533 C 0.91401 0.49306 0.77836
 C534 C 0.90007 0.51190 0.76928
 C535 C 0.87814 0.47933 0.80383
 C536 C 0.86437 0.49839 0.79527
 H537 H 0.88019 0.44219 0.74906
 H538 H 0.85910 0.52046 0.75990
 H539 H 0.93509 0.49459 0.77907
 H540 H 0.87626 0.47194 0.82276
 C541 C 0.28119 0.37524 -0.01899
 C542 C 0.25799 0.35457 -0.02225
 C543 C 0.25141 0.34484 0.00041
 C544 C 0.26899 0.35655 0.02458
 C545 C 0.27319 0.39541 0.00167
 C546 C 0.26691 0.38559 0.02449
 C547 C 0.30324 0.36283 -0.00482
 C548 C 0.29711 0.35309 0.01789
 H549 H 0.24613 0.35009 -0.04058
 H550 H 0.26375 0.34839 0.04299
 H551 H 0.27213 0.41545 -0.00120
 H552 H 0.32230 0.36198 -0.01234
 C553 C 0.74605 0.09127 1.05113
 C554 C 0.72475 0.10873 1.05771
 C555 C 0.72031 0.12604 1.04004
 C556 C 0.73750 0.12433 1.01692
 C557 C 0.73678 0.07874 1.02348
 C558 C 0.73213 0.09611 1.00558
 C559 C 0.77000 0.10948 1.04698
 C560 C 0.76586 0.12655 1.02897
 H561 H 0.71345 0.10685 1.07457
 H562 H 0.73397 0.13854 1.00253
 H563 H 0.73221 0.05834 1.01882
 H564 H 0.78901 0.10808 1.05695
 C565 C 0.24428 0.58498 0.54392
 C566 C 0.22099 0.59957 0.55087
 C567 C 0.21257 0.61471 0.53230
 C568 C 0.22857 0.61407 0.50811
 C569 C 0.23497 0.57014 0.51737
 C570 C 0.22685 0.58537 0.49862
 C571 C 0.26513 0.60559 0.53747
 C572 C 0.25730 0.62061 0.51860
 H573 H 0.21146 0.59735 0.56877
 H574 H 0.22176 0.62642 0.49295
 H575 H 0.23419 0.54955 0.51362
 H576 H 0.28498 0.60721 0.54638
 C577 C 0.77515 0.87397 0.48713
 C578 C 0.74913 0.85735 0.48078
 C579 C 0.73889 0.84719 0.50182
 C580 C 0.75594 0.85426 0.52759
 C581 C 0.76949 0.89407 0.50895
 C582 C 0.75915 0.88384 0.52999
 C583 C 0.79304 0.85678 0.50107
 C584 C 0.78309 0.84605 0.52187
 H585 H 0.73870 0.85566 0.46157
 H586 H 0.74769 0.84554 0.54454
 H587 H 0.77311 0.91454 0.50814
 H588 H 0.81242 0.85392 0.49518
 C589 C -0.04030 0.26771 0.36018
 C590 C -0.04717 0.24208 0.34367
 C591 C -0.02745 0.23414 0.32967
 C592 C -0.00246 0.25292 0.33311
 C593 C -0.01526 0.26355 0.37700
 C594 C 0.00447 0.25569 0.36287
 C595 C -0.03105 0.28650 0.34079
 C596 C -0.01158 0.27892 0.32647
 H597 H -0.06517 0.23008 0.34511
 H598 H 0.01341 0.24662 0.32132
 H599 H -0.01352 0.26488 0.39810
 H600 H -0.03906 0.30474 0.33898
 C601 C 1.04521 0.75389 0.08270
 C602 C 1.05257 0.73202 0.09895
 C603 C 1.03425 0.72428 0.11510
 C604 C 1.00972 0.73890 0.11341
 C605 C 1.01870 0.74346 0.06814
 C606 C 0.99988 0.73591 0.08418
 C607 C 1.03853 0.77499 0.10270
 C608 C 1.01996 0.76736 0.11868
 H609 H 1.07055 0.72296 0.09734
 H610 H 0.99528 0.73282 0.12722
 H611 H 1.01540 0.74124 0.04708
 H612 H 1.04653 0.79480 0.10277
 C613 C 0.53850 0.23906 0.57021
 C614 C 0.54407 0.21701 0.58693
 C615 C 0.52585 0.21182 0.60417
 C616 C 0.50331 0.22920 0.60305
 C617 C 0.51089 0.23083 0.55697
 C618 C 0.49239 0.22576 0.57414
 C619 C 0.53487 0.26163 0.58980
 C620 C 0.51618 0.25693 0.60659
 H621 H 0.56052 0.20577 0.58456
 H622 H 0.48855 0.22517 0.61723
 H623 H 0.50663 0.22772 0.53601
 H624 H 0.54523 0.28043 0.58906
 C625 C 0.46602 0.76137 0.85809
 C626 C 0.45931 0.73557 0.84163
 C627 C 0.47917 0.72776 0.82790
 C628 C 0.50395 0.74669 0.83131
 C629 C 0.49112 0.75771 0.87491
 C630 C 0.51128 0.74999 0.86114
 C631 C 0.47488 0.77995 0.83823
 C632 C 0.49490 0.77265 0.82445
 H633 H 0.44136 0.72334 0.84188
 H634 H 0.51910 0.74051 0.81871
 H635 H 0.49177 0.75973 0.89602
 H636 H 0.46717 0.79835 0.83674
 C637 C 0.43791 -0.10487 0.31574
 C638 C 0.46275 -0.10515 0.32870
 C639 C 0.46843 -0.12615 0.34239
 C640 C 0.44955 -0.14727 0.34327
 C641 C 0.42514 -0.14633 0.32916
 N642 N 0.42010 -0.12553 0.31621
 C643 C 0.43003 -0.08270 0.30201
 N644 N 0.40894 -0.08642 0.28419
 C645 C 0.39906 -0.06687 0.27217
 C646 C 0.41039 -0.04147 0.27794
 C647 C 0.43199 -0.03720 0.29662
 C648 C 0.44200 -0.05768 0.30843
 H649 H 0.48805 -0.12592 0.35144
 H650 H 0.40938 -0.16132 0.32931
 H651 H 0.38161 -0.07114 0.25900
 H652 H 0.44050 -0.01798 0.30313
 H653 H 0.47786 -0.08957 0.32807
 H654 H 0.45801 -0.05361 0.32339
 C655 C 0.94227 0.38398 0.83064
 C656 C 0.96897 0.38021 0.83339
 C657 C 0.97685 0.35906 0.84567
 C658 C 0.95827 0.34155 0.85505
 C659 C 0.93179 0.34585 0.85159
 N660 N 0.92461 0.36660 0.83968
 C661 C 0.93238 0.40602 0.81805
 N662 N 0.90660 0.40444 0.80964
 C663 C 0.89555 0.42397 0.79872
 C664 C 0.91057 0.44711 0.79567
 C665 C 0.93722 0.44930 0.80461
 C666 C 0.94816 0.42884 0.81568
 H667 H 0.99744 0.35619 0.84747
 H668 H 0.91680 0.33302 0.85874
 H669 H 0.87482 0.42157 0.79276
 H670 H 0.94970 0.46683 0.80396
 H671 H 0.98366 0.39305 0.82585
 H672 H 0.96850 0.43138 0.82301
 C673 C 0.04671 1.12638 0.80835
 C674 C 0.04876 1.15206 0.80224
 C675 C 0.03680 1.17024 0.81726
 C676 C 0.02270 1.16295 0.83828
 C677 C 0.02034 1.13693 0.84315
 N678 N 0.03224 1.11957 0.82830
 C679 C 0.06011 1.10653 0.79401
 N680 N 0.05056 1.08148 0.79368
 C681 C 0.06217 1.06209 0.78152
 C682 C 0.08501 1.06739 0.76860
 C683 C 0.09566 1.09311 0.76969
 C684 C 0.08325 1.11265 0.78207
 H685 H 0.03924 1.19012 0.81290
 H686 H 0.00927 1.13043 0.85889
 H687 H 0.05371 1.04271 0.78271
 H688 H 0.11384 1.09809 0.76109
 H689 H 0.05945 1.15815 0.78610
 H690 H 0.09221 1.13217 0.78290
 C691 C 0.53320 0.63507 0.31101
 C692 C 0.51192 0.62804 0.32547
 C693 C 0.49905 0.64711 0.33819
 C694 C 0.50702 0.67312 0.33628
 C695 C 0.52752 0.67930 0.32063
 N696 N 0.54000 0.66042 0.30875
 C697 C 0.54912 0.61603 0.29870
 N698 N 0.56500 0.62359 0.28012
 C699 C 0.58143 0.60797 0.26883
 C700 C 0.58282 0.58287 0.27632
 C701 C 0.56675 0.57485 0.29571
 C702 C 0.54992 0.59120 0.30685
 H703 H 0.48297 0.64154 0.34967
 H704 H 0.53440 0.69910 0.31871
 H705 H 0.59366 0.61579 0.25470
 H706 H 0.56759 0.55594 0.30261
 H707 H 0.50521 0.60817 0.32712
 H708 H 0.53848 0.58457 0.32225
 C709 C 0.57722 0.41185 0.22813
 C710 C 0.55391 0.39896 0.23509
 C711 C 0.54806 0.37288 0.22739
 C712 C 0.56515 0.35954 0.21260
 C713 C 0.58846 0.37294 0.20651
 N714 N 0.59373 0.39836 0.21417
 C715 C 0.58387 0.43988 0.23421
 N716 N 0.60256 0.45208 0.22089
 C717 C 0.60962 0.47776 0.22497
 C718 C 0.59745 0.49283 0.24329
 C719 C 0.57837 0.48067 0.25748
 C720 C 0.57162 0.45429 0.25313
 H721 H 0.52959 0.36343 0.23200
 H722 H 0.60227 0.36334 0.19528
 H723 H 0.62451 0.48634 0.21369
 H724 H 0.56910 0.49142 0.27246
 H725 H 0.53972 0.40883 0.24543
 H726 H 0.55736 0.44550 0.26492
 C727 C 0.06592 0.89386 0.71778
 C728 C 0.04308 0.88155 0.72637
 C729 C 0.03573 0.85575 0.71816
 C730 C 0.05095 0.84218 0.70135
 C731 C 0.07402 0.85497 0.69391
 N732 N 0.08066 0.88011 0.70198
 C733 C 0.07378 0.92164 0.72395
 N734 N 0.09002 0.93383 0.70811
 C735 C 0.09809 0.95929 0.71214
 C736 C 0.08975 0.97416 0.73325
 C737 C 0.07314 0.96200 0.74997
 C738 C 0.06517 0.93581 0.74546
 H739 H 0.01753 0.84678 0.72397
 H740 H 0.08652 0.84516 0.68124
 H741 H 0.11075 0.96787 0.69865
 H742 H 0.06681 0.97258 0.76693
 H743 H 0.03034 0.89182 0.73834
 H744 H 0.05291 0.92685 0.75904
 C745 C 0.94411 0.60209 0.72553
 C746 C 0.95460 0.60018 0.70111
 C747 C 0.96443 0.62231 0.69051
 C748 C 0.96407 0.64653 0.70414
 C749 C 0.95277 0.64767 0.72826
 N750 N 0.94318 0.62573 0.73820
 C751 C 0.93377 0.57888 0.73742
 N752 N 0.91288 0.57993 0.75216
 C753 C 0.90203 0.55893 0.76280
 C754 C 0.91244 0.53522 0.75902
 C755 C 0.93432 0.53390 0.74440
 C756 C 0.94501 0.55560 0.73360
 H757 H 0.97201 0.62043 0.67142
 H758 H 0.95199 0.66588 0.73944
 H759 H 0.88535 0.56078 0.77423
 H760 H 0.94281 0.51595 0.74077
 H761 H 0.95481 0.58181 0.69002
 H762 H 0.96196 0.55415 0.72247
 C763 C 0.44724 0.12427 0.23682
 C764 C 0.43262 0.14393 0.22859
 C765 C 0.44538 0.16571 0.21953
 C766 C 0.47269 0.16808 0.21865
 C767 C 0.48661 0.14827 0.22770
 N768 N 0.47372 0.12712 0.23615
 C769 C 0.43466 0.09971 0.24429
 N770 N 0.44757 0.07829 0.24121
 C771 C 0.43704 0.05478 0.24650
 C772 C 0.41188 0.05172 0.25541
 C773 C 0.39845 0.07363 0.25933
 C774 C 0.40974 0.09763 0.25386
 H775 H 0.43373 0.18017 0.21222
 H776 H 0.50769 0.14940 0.22775
 H777 H 0.44807 0.03845 0.24291
 H778 H 0.37929 0.07231 0.26681
 H779 H 0.41150 0.14215 0.22800
 H780 H 0.39910 0.11426 0.25732
 C781 C 0.32095 0.40613 -0.11547
 C782 C 0.33935 0.39211 -0.12771
 C783 C 0.35054 0.40103 -0.14957
 C784 C 0.34346 0.42384 -0.15931
 C785 C 0.32506 0.43735 -0.14650
 N786 N 0.31456 0.42839 -0.12507
 C787 C 0.30919 0.39781 -0.09178
 N788 N 0.30220 0.41579 -0.07374
 C789 C 0.29246 0.40957 -0.05091
 C790 C 0.28933 0.38376 -0.04510
 C791 C 0.29568 0.36496 -0.06399
 C792 C 0.30547 0.37182 -0.08723
 H793 H 0.36460 0.39002 -0.15896
 H794 H 0.31937 0.45521 -0.15324
 H795 H 0.28796 0.42498 -0.03738
 H796 H 0.29351 0.34483 -0.06044
 H797 H 0.34553 0.37474 -0.12023
 H798 H 0.31007 0.35687 -0.10140
 C799 C 0.82033 0.90807 0.39409
 C800 C 0.84015 0.89561 0.38247
 C801 C 0.85075 0.90500 0.36049
 C802 C 0.84158 0.92668 0.34999
 C803 C 0.82194 0.93874 0.36235
 N804 N 0.81206 0.92936 0.38387
 C805 C 0.80851 0.89893 0.41743
 N806 N 0.79926 0.91616 0.43476
 C807 C 0.78843 0.90918 0.45682
 C808 C 0.78640 0.88330 0.46253
 C809 C 0.79483 0.86517 0.44416
 C810 C 0.80602 0.87285 0.42183
 H811 H 0.86586 0.89515 0.35149
 H812 H 0.81464 0.95574 0.35505
 H813 H 0.78138 0.92398 0.46942
 H814 H 0.79290 0.84494 0.44724
 H815 H 0.84770 0.87902 0.39043
 H816 H 0.81222 0.85844 0.40801
 C817 C 0.77939 0.03117 1.13511
 C818 C 0.77960 0.03955 1.16163
 C819 C 0.79330 0.02709 1.18030
 C820 C 0.80676 0.00554 1.17316
 C821 C 0.80367 -0.00356 1.14627
 N822 N 0.79075 0.00949 1.12837
 C823 C 0.76859 0.04613 1.11428
 N824 N 0.76242 0.03462 1.08964
 C825 C 0.75428 0.04782 1.06924
 C826 C 0.75233 0.07440 1.07305
 C827 C 0.75870 0.08645 1.09834
 C828 C 0.76677 0.07258 1.11882
 H829 H 0.79367 0.03562 1.20006
 H830 H 0.81156 -0.02075 1.13888
 H831 H 0.75024 0.03755 1.05017
 H832 H 0.75818 0.10699 1.10210
 H833 H 0.76975 0.05597 1.16813
 H834 H 0.77260 0.08293 1.13763
 C835 C 0.29350 0.53355 0.62727
 C836 C 0.30938 0.54790 0.64758
 C837 C 0.32314 0.53531 0.66612
 C838 C 0.32133 0.50841 0.66458
 C839 C 0.30555 0.49470 0.64377
 N840 N 0.29226 0.50744 0.62585
 C841 C 0.27909 0.54622 0.60678
 N842 N 0.27371 0.53383 0.58247
 C843 C 0.26182 0.54491 0.56233
 C844 C 0.25464 0.57013 0.56609
 C845 C 0.25973 0.58294 0.59123
 C846 C 0.27154 0.57105 0.61157
 H847 H 0.33572 0.54668 0.68132
 H848 H 0.30362 0.47393 0.64184
 H849 H 0.25905 0.53419 0.54343
 H850 H 0.25496 0.60249 0.59504
 H851 H 0.31185 0.56865 0.64886
 H852 H 0.27479 0.58139 0.63073
 C853 C 0.18663 0.54834 0.39393
 C854 C 0.16248 0.53354 0.38848
 C855 C 0.15321 0.52640 0.36257
 C856 C 0.16788 0.53388 0.34202
 C857 C 0.19194 0.54863 0.34826
 N858 N 0.20049 0.55558 0.37369
 C859 C 0.19695 0.55699 0.42108
 N860 N 0.21262 0.57943 0.42571
 C861 C 0.22239 0.58878 0.45022
 C862 C 0.21668 0.57515 0.47184
 C863 C 0.20097 0.55175 0.46748
 C864 C 0.19107 0.54261 0.44219
 H865 H 0.13459 0.51493 0.35859
 H866 H 0.20368 0.55504 0.33295
 H867 H 0.23482 0.60668 0.45272
 H868 H 0.19599 0.54070 0.48364
 H869 H 0.15054 0.52798 0.40395
 H870 H 0.17924 0.52438 0.43927
 C871 C 0.69005 0.06733 0.89930
 C872 C 0.66731 0.07634 0.88821
 C873 C 0.65806 0.06788 0.86261
 C874 C 0.67099 0.05000 0.84757
 C875 C 0.69391 0.04164 0.85958
 N876 N 0.70249 0.05021 0.88466
 C877 C 0.70050 0.07536 0.92666
 N878 N 0.71711 0.06054 0.93899
 C879 C 0.72731 0.06656 0.96411
 C880 C 0.72100 0.08879 0.97834
 C881 C 0.70402 0.10435 0.96600
 C882 C 0.69394 0.09788 0.94024
 H883 H 0.64105 0.07615 0.85467
 H884 H 0.70452 0.02740 0.84976
 H885 H 0.74059 0.05417 0.97277
 H886 H 0.69821 0.12145 0.97627
 H887 H 0.65630 0.08949 0.89910
 H888 H 0.68145 0.11071 0.93121
 C889 C 0.71440 0.94135 0.61281
 C890 C 0.69248 0.95477 0.60771
 C891 C 0.68077 0.96661 0.62844
 C892 C 0.69078 0.96527 0.65439
 C893 C 0.71276 0.95162 0.65865
 N894 N 0.72375 0.94007 0.63807
 C895 C 0.72683 0.92771 0.59140
 N896 N 0.73859 0.90612 0.59611
 C897 C 0.74943 0.89211 0.57704
 C898 C 0.74895 0.89972 0.55145
 C899 C 0.73744 0.92225 0.54636
 C900 C 0.72646 0.93628 0.56621
 H901 H 0.66339 0.97617 0.62412
 H902 H 0.72128 0.95017 0.67826
 H903 H 0.75836 0.87508 0.58194
 H904 H 0.73628 0.92875 0.52689
 H905 H 0.68385 0.95548 0.58800
 H906 H 0.71785 0.95365 0.56178
 C907 C 0.22488 0.44151 0.10986
 C908 C 0.23564 0.44452 0.13594
 C909 C 0.22181 0.45609 0.15530
 C910 C 0.19739 0.46481 0.14879
 C911 C 0.18779 0.46221 0.12236
 N912 N 0.20152 0.45074 0.10390
 C913 C 0.23771 0.42807 0.08863
 N914 N 0.23136 0.43286 0.06343
 C915 C 0.24106 0.42021 0.04273
 C916 C 0.25782 0.40101 0.04679
 C917 C 0.26473 0.39580 0.07256
 C918 C 0.25479 0.40926 0.09352
 H919 H 0.23024 0.45820 0.17534
 H920 H 0.16897 0.46845 0.11641
 H921 H 0.23493 0.42456 0.02313
 H922 H 0.27774 0.38122 0.07654
 H923 H 0.25451 0.43818 0.14144
 H924 H 0.25980 0.40427 0.11314
 C925 C -0.12523 0.31323 0.40852
 C926 C -0.13966 0.32998 0.39469
 C927 C -0.15784 0.34358 0.40730
 C928 C -0.16183 0.34044 0.43358
 C929 C -0.14714 0.32343 0.44671
 N930 N -0.12922 0.31063 0.43412
 C931 C -0.10480 0.29952 0.39627
 N932 N -0.08300 0.29518 0.41118
 C933 C -0.06263 0.28426 0.40087
 C934 C -0.06344 0.27706 0.37382
 C935 C -0.08634 0.28049 0.35842
 C936 C -0.10695 0.29164 0.36947
 H937 H -0.16889 0.35648 0.39649
 H938 H -0.14953 0.32070 0.46709
 H939 H -0.04581 0.28212 0.41393
 H940 H -0.08795 0.27513 0.33754
 H941 H -0.13652 0.33310 0.37454
 H942 H -0.12426 0.29420 0.35710
 C943 C 0.38504 0.80791 0.91305
 C944 C 0.35854 0.79816 0.91070
 C945 C 0.33998 0.81267 0.92153
 C946 C 0.34752 0.83699 0.93451
 C947 C 0.37412 0.84606 0.93650
 N948 N 0.39188 0.83155 0.92584
 C949 C 0.40564 0.79417 0.90076
 N950 N 0.42930 0.80733 0.89870
 C951 C 0.44873 0.79678 0.88636
 C952 C 0.44481 0.77160 0.87427
 C953 C 0.42104 0.75720 0.87755
 C954 C 0.40157 0.76833 0.89074
 H955 H 0.31958 0.80517 0.91910
 H956 H 0.38081 0.86463 0.94655
 H957 H 0.46703 0.80837 0.88526
 H958 H 0.41703 0.73735 0.87019
 H959 H 0.35179 0.77994 0.90007
 H960 H 0.38368 0.75656 0.89289
 C961 C 1.12991 0.80210 0.02970
 C962 C 1.12905 0.80840 0.00359
 C963 C 1.15032 0.82288 -0.00512
 C964 C 1.17255 0.83096 0.01195
 C965 C 1.17294 0.82357 0.03760
 N966 N 1.15195 0.80967 0.04567
 C967 C 1.10772 0.78802 0.04104
 N968 N 1.11191 0.78031 0.06550
 C969 C 1.09264 0.76869 0.07831
 C970 C 1.06696 0.76401 0.06657
 C971 C 1.06207 0.77207 0.04138
 C972 C 1.08232 0.78389 0.02853
 H973 H 1.14910 0.82823 -0.02506
 H974 H 1.18987 0.82885 0.05129
 H975 H 1.09727 0.76380 0.09806
 H976 H 1.04256 0.77032 0.03181
 H977 H 1.11232 0.80247 -0.01011
 H978 H 1.07762 0.79044 0.00953
 C979 C 0.62168 0.28814 0.51735
 C980 C 0.61708 0.30755 0.50072
 C981 C 0.63805 0.32400 0.49433
 C982 C 0.66361 0.32129 0.50443
 C983 C 0.66745 0.30124 0.52039
 N984 N 0.64670 0.28562 0.52654
 C985 C 0.60013 0.27220 0.52762
 N986 N 0.60522 0.26143 0.55041
 C987 C 0.58625 0.24891 0.56292
 C988 C 0.55998 0.24683 0.55275
 C989 C 0.55440 0.25716 0.52877
 C990 C 0.57439 0.26946 0.51599
 H991 H 0.63411 0.33946 0.48230
 H992 H 0.68686 0.29816 0.52827
 H993 H 0.59156 0.24204 0.58167
 H994 H 0.53454 0.25703 0.52038
 H995 H 0.59755 0.31096 0.49360
 H996 H 0.56940 0.27730 0.49767
 C997 C 0.38320 0.19820 0.54272
 C998 C 0.36453 0.19355 0.56080
 C999 C 0.33855 0.18623 0.55185
 C1000 C 0.33098 0.18347 0.52491
 C1001 C 0.35007 0.18935 0.50753
 N1002 N 0.37534 0.19640 0.51674
 C1003 C 0.41121 0.20481 0.55123
 N1004 N 0.42636 0.21963 0.53652
 C1005 C 0.45226 0.22631 0.54321
 C1006 C 0.46443 0.21781 0.56587
 C1007 C 0.44927 0.20202 0.58093
 C1008 C 0.42274 0.19552 0.57373
 H1009 H 0.32439 0.18258 0.56603
 H1010 H 0.34519 0.18743 0.48661
 H1011 H 0.46311 0.23865 0.53107
 H1012 H 0.45790 0.19430 0.59807
 H1013 H 0.36984 0.19562 0.58166
 H1014 H 0.41159 0.18291 0.58540
 C1015 C 0.89130 0.70864 0.04948
 C1016 C 0.87194 0.70968 0.06724
 C1017 C 0.84584 0.70279 0.05843
 C1018 C 0.83889 0.69443 0.03200
 C1019 C 0.85887 0.69460 0.01469
 N1020 N 0.88420 0.70160 0.02373
 C1021 C 0.91922 0.71470 0.05835
 N1022 N 0.93531 0.72811 0.04335
 C1023 C 0.96108 0.73463 0.05083
 C1024 C 0.97220 0.72734 0.07465
 C1025 C 0.95594 0.71274 0.08988
 C1026 C 0.92953 0.70659 0.08193
 H1027 H 0.83116 0.70382 0.07243
 H1028 H 0.85462 0.68822 -0.00580
 H1029 H 0.97254 0.74610 0.03842
 H1030 H 0.96344 0.70583 0.10791
 H1031 H 0.87692 0.71582 0.08772
 H1032 H 0.91736 0.69529 0.09395
 C1033 C 0.60377 0.71536 0.91214
 C1034 C 0.61170 0.69160 0.90300
 C1035 C 0.63166 0.68111 0.91700
 C1036 C 0.64390 0.69418 0.94008
 C1037 C 0.63563 0.71801 0.94851
 N1038 N 0.61581 0.72776 0.93467
 C1039 C 0.58175 0.72634 0.89833
 N1040 N 0.56543 0.74005 0.91224
 C1041 C 0.54360 0.74872 0.90083
 C1042 C 0.53674 0.74332 0.87374
 C1043 C 0.55445 0.73054 0.85903
 C1044 C 0.57672 0.72205 0.87116
 H1045 H 0.63754 0.66273 0.90978
 H1046 H 0.64448 0.72854 0.96636
 H1047 H 0.53164 0.75945 0.91320
 H1048 H 0.55132 0.72631 0.83817
 H1049 H 0.60213 0.68080 0.88561
 H1050 H 0.58976 0.71203 0.85929
 C1051 C 0.09602 0.21646 0.40952
 C1052 C 0.12188 0.22734 0.40889
 C1053 C 0.14237 0.21568 0.42097
 C1054 C 0.13723 0.19314 0.43356
 C1055 C 0.11104 0.18296 0.43364
 N1056 N 0.09147 0.19476 0.42196
 C1057 C 0.07337 0.22795 0.39751
 N1058 N 0.04980 0.22381 0.40762
 C1059 C 0.02782 0.23296 0.39730
 C1060 C 0.02866 0.24691 0.37512
 C1061 C 0.05267 0.25114 0.36415
 C1062 C 0.07511 0.24188 0.37536
 H1063 H 0.16216 0.22454 0.42079
 H1064 H 0.10602 0.16539 0.44258
 H1065 H 0.00960 0.22865 0.40602
 H1066 H 0.05413 0.26158 0.34692
 H1067 H 0.12624 0.24492 0.39972
 H1068 H 0.09334 0.24497 0.36632
 C1069 C 0.54216 0.12872 0.66778
 C1070 C 0.55281 0.13345 0.69381
 C1071 C 0.56289 0.11353 0.70660
 C1072 C 0.56212 0.08888 0.69368
 C1073 C 0.55027 0.08469 0.66810
 N1074 N 0.54118 0.10452 0.65583
 C1075 C 0.53501 0.14979 0.65195
 N1076 N 0.53800 0.14724 0.62583
 C1077 C 0.53420 0.16642 0.61016
 C1078 C 0.52707 0.19004 0.62065
 C1079 C 0.52259 0.19279 0.64723
 C1080 C 0.52667 0.17274 0.66303
 H1081 H 0.57185 0.11751 0.72638
 H1082 H 0.54949 0.06602 0.65739
 H1083 H 0.53722 0.16336 0.58957
 H1084 H 0.51691 0.21071 0.65594
 H1085 H 0.55464 0.15253 0.70379
 H1086 H 0.52358 0.17531 0.68363
 C1087 C 1.05472 0.63897 0.17396
 C1088 C 1.07065 0.64070 0.19745
 C1089 C 1.07882 0.61844 0.20715
 C1090 C 1.07118 0.59436 0.19359
 C1091 C 1.05391 0.59334 0.17101
 N1092 N 1.04641 0.61538 0.16176
 C1093 C 1.04852 0.66224 0.16121
 N1094 N 1.02560 0.66213 0.14616
 C1095 C 1.01993 0.68233 0.13236
 C1096 C 1.03831 0.70372 0.13253
 C1097 C 1.06188 0.70432 0.14802
 C1098 C 1.06699 0.68376 0.16250
 H1099 H 1.09147 0.62010 0.22507
 H1100 H 1.04741 0.57520 0.16000
 H1101 H 1.00167 0.68115 0.12034
 H1102 H 1.07655 0.72053 0.14849
 H1103 H 1.07707 0.65908 0.20805
 H1104 H 1.08573 0.68427 0.17360
 C1105 C 0.97278 0.84354 0.18094
 C1106 C 0.98559 0.86035 0.20143
 C1107 C 0.97239 0.87989 0.21289
 C1108 C 0.94642 0.88270 0.20415
 C1109 C 0.93418 0.86513 0.18401
 N1110 N 0.94747 0.84634 0.17309
 C1111 C 0.98601 0.82314 0.16716
 N1112 N 0.97114 0.80270 0.15408
 C1113 C 0.98167 0.78407 0.13952
 C1114 C 1.00868 0.78577 0.13694
 C1115 C 1.02444 0.80646 0.15051
 C1116 C 1.01324 0.82513 0.16564
 H1117 H 0.98240 0.89261 0.22879
 H1118 H 0.91425 0.86663 0.17652
 H1119 H 0.96878 0.76862 0.12909
 H1120 H 1.04539 0.80842 0.14906
 H1121 H 1.00543 0.85838 0.20882
 H1122 H 1.02575 0.84136 0.17508
 C1123 C 0.47568 0.33896 0.66774
 C1124 C 0.48397 0.36487 0.66551
 C1125 C 0.47220 0.38403 0.67925
 C1126 C 0.45237 0.37760 0.69559
 C1127 C 0.44535 0.35144 0.69812
 N1128 N 0.45696 0.33304 0.68428
 C1129 C 0.48635 0.31810 0.65193
 N1130 N 0.48675 0.29433 0.66083
 C1131 C 0.49616 0.27447 0.64687
 C1132 C 0.50590 0.27805 0.62248
 C1133 C 0.50494 0.30223 0.61276
 C1134 C 0.49524 0.32217 0.62730
 H1135 H 0.47819 0.40387 0.67651
 H1136 H 0.43055 0.34560 0.71094
 H1137 H 0.49632 0.25607 0.65498
 H1138 H 0.51111 0.30569 0.59355
 H1139 H 0.49934 0.37043 0.65321
 H1140 H 0.49415 0.34034 0.61892
 C1141 C 0.46727 0.62217 0.78739
 C1142 C 0.47794 0.60358 0.80208
 C1143 C 0.47026 0.57760 0.79522
 C1144 C 0.45227 0.57008 0.77364
 C1145 C 0.44266 0.58920 0.75903
 N1146 N 0.44998 0.61439 0.76640
 C1147 C 0.47231 0.64990 0.79564
 N1148 N 0.45299 0.66539 0.79083
 C1149 C 0.45524 0.69061 0.79979
 C1150 C 0.47796 0.70158 0.81466
 C1151 C 0.49855 0.68627 0.81888
 C1152 C 0.49583 0.66044 0.80942
 H1153 H 0.47803 0.56340 0.80701
 H1154 H 0.42846 0.58418 0.74246
 H1155 H 0.43904 0.70191 0.79590
 H1156 H 0.51622 0.69388 0.83052
 H1157 H 0.49113 0.60899 0.81935
 H1158 H 0.51180 0.64885 0.81323
 C1159 C -0.04035 0.12816 0.29058
 C1160 C -0.02934 0.10966 0.30511
 C1161 C -0.03751 0.08367 0.29882
 C1162 C -0.05631 0.07605 0.27791
 C1163 C -0.06621 0.09509 0.26339
 N1164 N -0.05841 0.12029 0.27025
 C1165 C -0.03499 0.15596 0.29843
 N1166 N -0.05445 0.17140 0.29410
 C1167 C -0.05198 0.19669 0.30271
 C1168 C -0.02884 0.20786 0.31670
 C1169 C -0.00803 0.19267 0.32032
 C1170 C -0.01105 0.16668 0.31130
 H1171 H -0.02945 0.06953 0.31050
 H1172 H -0.08098 0.09003 0.24732
 H1173 H -0.06833 0.20791 0.29925
 H1174 H 0.01009 0.20057 0.33114
 H1175 H -0.01549 0.11517 0.32187
 H1176 H 0.00503 0.15511 0.31468
 C1177 C 0.03084 0.35629 0.26503
 C1178 C 0.01617 0.37701 0.26017
 C1179 C 0.02830 0.39916 0.25129
 C1180 C 0.05497 0.40084 0.24714
 C1181 C 0.06881 0.37949 0.25157
 N1182 N 0.05667 0.35823 0.26060
 C1183 C 0.01957 0.33359 0.27727
 N1184 N 0.03567 0.32038 0.29231
 C1185 C 0.02635 0.30131 0.30664
 C1186 C -0.00065 0.29520 0.30693
 C1187 C -0.01746 0.30742 0.29037
 C1188 C -0.00747 0.32641 0.27537
 H1189 H 0.01691 0.41516 0.24807
 H1190 H 0.08951 0.38012 0.24891
 H1191 H 0.03992 0.29222 0.31905
 H1192 H -0.03845 0.30282 0.28968
 H1193 H -0.00416 0.37675 0.26422
 H1194 H -0.02091 0.33569 0.26296
 C1195 C 0.54936 0.85232 0.77367
 C1196 C 0.57488 0.86189 0.78329
 C1197 C 0.58536 0.88556 0.77636
 C1198 C 0.57063 0.89985 0.75987
 C1199 C 0.54563 0.88925 0.74981
 N1200 N 0.53560 0.86627 0.75720
 C1201 C 0.53597 0.82915 0.78338
 N1202 N 0.50940 0.82694 0.78283
 C1203 C 0.49576 0.80806 0.79425
 C1204 C 0.50896 0.79023 0.80782
 C1205 C 0.53622 0.79119 0.80731
 C1206 C 0.54977 0.81047 0.79499
 H1207 H 0.60485 0.89298 0.78434
 H1208 H 0.53363 0.89972 0.73709
 H1209 H 0.47467 0.80757 0.79348
 H1210 H 0.54727 0.77790 0.81750
 H1211 H 0.58632 0.85201 0.79702
 H1212 H 0.57081 0.81095 0.79521
 C1213 C 0.68128 0.58308 0.14231
 C1214 C 0.68551 0.60918 0.13852
 C1215 C 0.69220 0.61672 0.11438
 C1216 C 0.69459 0.59851 0.09304
 C1217 C 0.69028 0.57230 0.09805
 N1218 N 0.68357 0.56551 0.12192
 C1219 C 0.67268 0.57452 0.16745
 N1220 N 0.65781 0.55168 0.16759
 C1221 C 0.64686 0.54420 0.18948
 C1222 C 0.65004 0.56052 0.21262
 C1223 C 0.66631 0.58340 0.21332
 C1224 C 0.67800 0.59028 0.19098
 H1225 H 0.69650 0.63711 0.11339
 H1226 H 0.69079 0.55695 0.08292
 H1227 H 0.63439 0.52636 0.18835
 H1228 H 0.66935 0.59629 0.23101
 H1229 H 0.68326 0.62395 0.15385
 H1230 H 0.69052 0.60807 0.19214
 C1231 C 0.16147 1.05644 0.61811
 C1232 C 0.18168 1.04530 0.60568
 C1233 C 0.19064 1.05530 0.58312
 C1234 C 0.17962 1.07637 0.57309
 C1235 C 0.15898 1.08634 0.58563
 N1236 N 0.15061 1.07630 0.60743
 C1237 C 0.15159 1.04795 0.64271
 N1238 N 0.12771 1.05455 0.64892
 C1239 C 0.11788 1.04981 0.67203
 C1240 C 0.13261 1.03823 0.69104
 C1241 C 0.15698 1.03050 0.68488
 C1242 C 0.16660 1.03536 0.66075
 H1243 H 0.20660 1.04706 0.57395
 H1244 H 0.14964 1.10228 0.57825
 H1245 H 0.09868 1.05548 0.67559
 H1246 H 0.16907 1.02172 0.69907
 H1247 H 0.19049 1.02913 0.61315
 H1248 H 0.18594 1.03030 0.65692
 C1249 C 0.19831 0.97410 0.83634
 C1250 C 0.18744 0.95037 0.84307
 C1251 C 0.19751 0.94009 0.86534
 C1252 C 0.21874 0.95317 0.88156
 C1253 C 0.22938 0.97687 0.87344
 N1254 N 0.21875 0.98666 0.85179
 C1255 C 0.18644 0.98667 0.81423
 N1256 N 0.18698 1.01272 0.81593
 C1257 C 0.17357 1.02530 0.79797
 C1258 C 0.15797 1.01145 0.77709
 C1259 C 0.15854 0.98472 0.77408
 C1260 C 0.17282 0.97231 0.79247
 H1261 H 0.18892 0.92126 0.86886
 H1262 H 0.24501 0.98868 0.88489
 H1263 H 0.17417 1.04600 0.80068
 H1264 H 0.14682 0.97312 0.75844
 H1265 H 0.17079 0.93997 0.83168
 H1266 H 0.17249 0.95162 0.79003
 C1267 C 0.69705 0.49511 0.35878
 C1268 C 0.71499 0.50739 0.37876
 C1269 C 0.72465 0.49331 0.39868
 C1270 C 0.71671 0.46702 0.39867
 C1271 C 0.69904 0.45546 0.37816
 N1272 N 0.68983 0.46957 0.35911
 C1273 C 0.68517 0.50884 0.33750
 N1274 N 0.67350 0.49472 0.31575
 C1275 C 0.66025 0.50536 0.29620
 C1276 C 0.65753 0.53176 0.29818
 C1277 C 0.66990 0.54685 0.32011
 C1278 C 0.68372 0.53552 0.33977
 H1279 H 0.73864 0.50288 0.41384
 H1280 H 0.69214 0.43532 0.37746
 H1281 H 0.65074 0.49291 0.27986
 H1282 H 0.66832 0.56732 0.32236
 H1283 H 0.72185 0.52749 0.37900
 H1284 H 0.69209 0.54750 0.35691
 C1285 C 0.81617 0.46223 0.64538
 C1286 C 0.79710 0.47612 0.63357
 C1287 C 0.78724 0.46883 0.60766
 C1288 C 0.79640 0.44788 0.59352
 C1289 C 0.81524 0.43448 0.60624
 N1290 N 0.82451 0.44194 0.63127
 C1291 C 0.82839 0.46877 0.67237
 N1292 N 0.85105 0.45852 0.67884
 C1293 C 0.86345 0.46215 0.70315
 C1294 C 0.85291 0.47669 0.72320
 C1295 C 0.82983 0.48803 0.71704
 C1296 C 0.81740 0.48405 0.69165
 H1297 H 0.77286 0.47985 0.59856
 H1298 H 0.82247 0.41784 0.59646
 H1299 H 0.88164 0.45370 0.70665
 H1300 H 0.82107 0.49936 0.73196
 H1301 H 0.79021 0.49267 0.64382
 H1302 H 0.79920 0.49227 0.68756
 C1303 C 0.32311 -0.01413 0.12709
 C1304 C 0.29607 -0.01927 0.12065
 C1305 C 0.28690 -0.02809 0.09498
 C1306 C 0.30455 -0.03178 0.07572
 C1307 C 0.33126 -0.02501 0.08270
 N1308 N 0.33973 -0.01690 0.10785
 C1309 C 0.33450 -0.00902 0.15449
 N1310 N 0.35916 -0.01545 0.16008
 C1311 C 0.37063 -0.01354 0.18481
 C1312 C 0.35705 -0.00485 0.20594
 C1313 C 0.33206 0.00305 0.20071
 C1314 C 0.32061 0.00089 0.17499
 H1315 H 0.26615 -0.03341 0.09058
 H1316 H 0.34554 -0.02705 0.06840
 H1317 H 0.39026 -0.01912 0.18795
 H1318 H 0.32112 0.01009 0.21655
 H1319 H 0.28219 -0.01803 0.13542
 H1320 H 0.30118 0.00676 0.17134
 C1321 C 0.28968 0.04786 0.34884
 C1322 C 0.27509 0.06872 0.34464
 C1323 C 0.26143 0.07900 0.36491
 C1324 C 0.26220 0.06853 0.38927
 C1325 C 0.27615 0.04704 0.39219
 N1326 N 0.28955 0.03765 0.37237
 C1327 C 0.30716 0.03787 0.32964
 N1328 N 0.32796 0.02620 0.33897
 C1329 C 0.34532 0.01648 0.32324
 C1330 C 0.34222 0.01785 0.29602
 C1331 C 0.32097 0.02997 0.28583
 C1332 C 0.30336 0.04000 0.30256
 H1333 H 0.25128 0.09584 0.36189
 H1334 H 0.27691 0.03800 0.41040
 H1335 H 0.36175 0.00808 0.33228
 H1336 H 0.31766 0.03128 0.26498
 H1337 H 0.27519 0.07781 0.32648
 H1338 H 0.28681 0.04881 0.29430
 C1339 C 0.79899 0.54879 0.86548
 C1340 C 0.78541 0.57005 0.86027
 C1341 C 0.77242 0.58199 0.88011
 C1342 C 0.77266 0.57268 0.90507
 C1343 C 0.78588 0.55089 0.90910
 N1344 N 0.79874 0.53991 0.88964
 C1345 C 0.81524 0.53679 0.84632
 N1346 N 0.83666 0.52607 0.85568
 C1347 C 0.85268 0.51434 0.83980
 C1348 C 0.84731 0.51232 0.81246
 C1349 C 0.82545 0.52352 0.80224
 C1350 C 0.80936 0.53582 0.81910
 H1351 H 0.76303 0.59906 0.87613
 H1352 H 0.78626 0.54267 0.92775
 H1353 H 0.86970 0.50683 0.84873
 H1354 H 0.82039 0.52225 0.78136
 H1355 H 0.78573 0.57806 0.84152
 H1356 H 0.79225 0.54383 0.81096
 C1357 C 0.12391 0.66848 0.55590
 C1358 C 0.11473 0.69002 0.54489
 C1359 C 0.09497 0.70249 0.55654
 C1360 C 0.08479 0.69367 0.57915
 C1361 C 0.09403 0.67179 0.58902
 N1362 N 0.11299 0.65996 0.57733
 C1363 C 0.14541 0.65466 0.54580
 N1364 N 0.14701 0.63020 0.55224
 C1365 C 0.16753 0.61679 0.54680
 C1366 C 0.18871 0.62824 0.53480
 C1367 C 0.18713 0.65307 0.52687
 C1368 C 0.16549 0.66642 0.53238
 H1369 H 0.08817 0.71934 0.54840
 H1370 H 0.08637 0.66425 0.60624
 H1371 H 0.16751 0.59738 0.55250
 H1372 H 0.20311 0.66255 0.51760
 H1373 H 0.12259 0.69712 0.52760
 H1374 H 0.16522 0.68603 0.52737
 C1375 C 0.63971 0.19031 1.06334
 C1376 C 0.64632 0.21399 1.07803
 C1377 C 0.62702 0.22595 1.09072
 C1378 C 0.60116 0.21459 1.08850
 C1379 C 0.59510 0.19163 1.07254
 N1380 N 0.61434 0.17997 1.06098
 C1381 C 0.65998 0.17459 1.05369
 N1382 N 0.65562 0.14864 1.05360
 C1383 C 0.67423 0.13279 1.04799
 C1384 C 0.69907 0.14292 1.04224
 C1385 C 0.70367 0.16943 1.04071
 C1386 C 0.68417 0.18542 1.04659
 H1387 H 0.63241 0.24371 1.10287
 H1388 H 0.57539 0.18222 1.07049
 H1389 H 0.66987 0.11231 1.04879
 H1390 H 0.72263 0.17782 1.03617
 H1391 H 0.66636 0.22245 1.08102
 H1392 H 0.68817 0.20596 1.04606
 C1393 C 0.85236 0.18665 0.99126
 C1394 C 0.85362 0.21256 0.98628
 C1395 C 0.87599 0.22402 0.97639
 C1396 C 0.89766 0.20997 0.97140
 C1397 C 0.89538 0.18403 0.97745
 N1398 N 0.87332 0.17344 0.98680
 C1399 C 0.82935 0.17269 1.00132
 N1400 N 0.83225 0.14899 1.00942
 C1401 C 0.81245 0.13422 1.01840
 C1402 C 0.78759 0.14302 1.01961
 C1403 C 0.78388 0.16729 1.01114
 C1404 C 0.80468 0.18222 1.00200
 H1405 H 0.87623 0.24426 0.97390
 H1406 H 0.91016 0.17127 0.97346
 H1407 H 0.81615 0.11536 1.02399
 H1408 H 0.76502 0.17481 1.01173
 H1409 H 0.83786 0.22419 0.99028
 H1410 H 0.80112 0.20067 0.99527
 C1411 C 0.33531 0.68826 0.47707
 C1412 C 0.33469 0.71475 0.47496
 C1413 C 0.35632 0.72887 0.46632
 C1414 C 0.37856 0.71674 0.45995
 C1415 C 0.37824 0.69028 0.46228
 N1416 N 0.35707 0.67703 0.47069
 C1417 C 0.31389 0.67183 0.48698
 N1418 N 0.31944 0.64838 0.49405
 C1419 C 0.30163 0.63184 0.50373
 C1420 C 0.27621 0.63849 0.50696
 C1421 C 0.26957 0.66221 0.49911
 C1422 C 0.28838 0.67904 0.48918
 H1423 H 0.35583 0.74931 0.46501
 H1424 H 0.39465 0.67996 0.45708
 H1425 H 0.30741 0.61341 0.50873
 H1426 H 0.25008 0.66792 0.50111
 H1427 H 0.31812 0.72468 0.48034
 H1428 H 0.28282 0.69720 0.48322
 C1429 C 0.63207 0.80381 0.48640
 C1430 C 0.61150 0.81615 0.49682
 C1431 C 0.58570 0.80853 0.48698
 C1432 C 0.58039 0.78876 0.46680
 C1433 C 0.60139 0.77613 0.45790
 N1434 N 0.62627 0.78408 0.46750
 C1435 C 0.65994 0.81326 0.49289
 N1436 N 0.67730 0.80779 0.47496
 C1437 C 0.70279 0.81739 0.47801
 C1438 C 0.71221 0.83382 0.50012
 C1439 C 0.69506 0.83884 0.51950
 C1440 C 0.66890 0.82862 0.51598
 H1441 H 0.57009 0.81895 0.49420
 H1442 H 0.59812 0.76042 0.44274
 H1443 H 0.71552 0.81265 0.46284
 H1444 H 0.70156 0.85151 0.53682
 H1445 H 0.61518 0.83236 0.51134
 H1446 H 0.65594 0.83301 0.53101
 C1447 C 0.14849 0.29275 -0.00740
 C1448 C 0.12754 0.30422 0.00334
 C1449 C 0.10186 0.29573 -0.00623
 C1450 C 0.09705 0.27598 -0.02647
 C1451 C 0.11839 0.26404 -0.03549
 N1452 N 0.14315 0.27284 -0.02618
 C1453 C 0.17605 0.30369 -0.00195
 N1454 N 0.19312 0.29829 -0.02020
 C1455 C 0.21788 0.30984 -0.01882
 C1456 C 0.22667 0.32851 0.00164
 C1457 C 0.21009 0.33332 0.02158
 C1458 C 0.18476 0.32092 0.01991
 H1459 H 0.08592 0.30557 0.00110
 H1460 H 0.11548 0.24837 -0.05072
 H1461 H 0.23029 0.30521 -0.03430
 H1462 H 0.21615 0.34763 0.03770
 H1463 H 0.13074 0.32053 0.01776
 H1464 H 0.17212 0.32537 0.03520
 C1465 C 0.37714 0.30736 0.07695
 C1466 C 0.37459 0.28370 0.08808
 C1467 C 0.39665 0.27458 0.10035
 C1468 C 0.42113 0.28894 0.10158
 C1469 C 0.42283 0.31221 0.08991
 N1470 N 0.40120 0.32063 0.07814
 C1471 C 0.35515 0.31857 0.06317
 N1472 N 0.36112 0.33988 0.05053
 C1473 C 0.34288 0.35146 0.03669
 C1474 C 0.31656 0.34152 0.03471
 C1475 C 0.30958 0.32005 0.04819
 C1476 C 0.32880 0.30845 0.06244
 H1477 H 0.39448 0.25656 0.10924
 H1478 H 0.44137 0.32369 0.08992
 H1479 H 0.34906 0.36841 0.02719
 H1480 H 0.28944 0.31183 0.04713
 H1481 H 0.35607 0.27216 0.08736
 H1482 H 0.32288 0.29184 0.07250
 C1483 C 0.85319 0.78736 0.57838
 C1484 C 0.86231 0.79437 0.60460
 C1485 C 0.88495 0.78486 0.61488
 C1486 C 0.89864 0.76841 0.59923
 C1487 C 0.88819 0.76082 0.57359
 N1488 N 0.86632 0.77065 0.56387
 C1489 C 0.83192 0.79989 0.56495
 N1490 N 0.83032 0.79850 0.53835
 C1491 C 0.81374 0.81181 0.52428
 C1492 C 0.79779 0.82835 0.53699
 C1493 C 0.79779 0.82892 0.56427
 C1494 C 0.81476 0.81469 0.57836
 H1495 H 0.89214 0.79091 0.63492
 H1496 H 0.89813 0.74820 0.56084
 H1497 H 0.81368 0.81006 0.50316
 H1498 H 0.78560 0.84118 0.57482
 H1499 H 0.85306 0.80796 0.61686
 H1500 H 0.81467 0.81585 0.59942
   
