data_POSCAR
  _audit_creation_date              2014-09-24
  _audit_creation_method            'ToBaCCo'
  _symmetry_space_group_name_H-M    'P1'
  _symmetry_Int_Tables_number       1
  _symmetry_cell_setting            triclinic
  loop_
  _symmetry_equiv_pos_as_xyz
 x,y,z
_cell_length_a 76.7132
_cell_length_b 76.0156
_cell_length_c 76.4985
_cell_angle_alpha 90.033900
_cell_angle_beta 90.056400
_cell_angle_gamma 90.027500
loop_
  _atom_site_label
  _atom_site_type_symbol
  _atom_site_fract_x
  _atom_site_fract_y
  _atom_site_fract_z
C1 C 0.31093 0.44243 0.92125
 N2 N 0.32597 0.44913 0.92797
 C3 C 0.33334 0.44197 0.94253
 N4 N 0.32544 0.42794 0.95021
 C5 C 0.31053 0.42102 0.94360
 N6 N 0.30337 0.42833 0.92911
 C7 C 0.44077 0.82717 0.44212
 N8 N 0.42629 0.81926 0.44869
 C9 C 0.41912 0.80503 0.44067
 N10 N 0.42659 0.79869 0.42585
 C11 C 0.44109 0.80637 0.41909
 N12 N 0.44805 0.82060 0.42729
 C13 C 0.93900 0.91907 0.81097
 N14 N 0.94641 0.92628 0.82548
 C15 C 0.93969 0.94114 0.83278
 N16 N 0.92539 0.94864 0.82538
 C17 C 0.91777 0.94156 0.81101
 N18 N 0.92465 0.92677 0.80389
 C19 C 0.44087 -0.07977 0.30780
 N20 N 0.44834 -0.07297 0.32246
 C21 C 0.44192 -0.05819 0.33008
 N22 N 0.42780 -0.05016 0.32292
 C23 C 0.42017 -0.05670 0.30825
 N24 N 0.42677 -0.07151 0.30082
 C25 C 0.80948 0.30764 0.32939
 N26 N 0.82404 0.30069 0.32199
 C27 C 0.83115 0.30800 0.30747
 N28 N 0.82355 0.32245 0.30036
 C29 C 0.80905 0.32965 0.30758
 N30 N 0.80209 0.32219 0.32216
 C31 C -0.18927 0.83229 0.81037
 N32 N -0.17475 0.82509 0.80306
 C33 C -0.16785 0.80994 0.80950
 N34 N -0.17553 0.80209 0.82345
 C35 C -0.18994 0.80909 0.83104
 N36 N -0.19671 0.82417 0.82436
 C37 C 0.94067 0.32879 0.44005
 N38 N 0.92620 0.32143 0.44715
 C39 C 0.91872 0.30698 0.43982
 N40 N 0.92582 0.29995 0.42509
 C41 C 0.94036 0.30715 0.41786
 N42 N 0.94767 0.32154 0.42544
 C43 C 0.44254 0.44117 0.83202
 N44 N 0.42800 0.44862 0.82507
 C45 C 0.42030 0.44173 0.81058
 N46 N 0.42722 0.42708 0.80307
 C47 C 0.44179 0.41951 0.80982
 N48 N 0.44932 0.42666 0.82423
 C49 C 0.81157 0.92007 0.94053
 N50 N 0.82668 0.92697 0.94688
 C51 C 0.83394 0.94156 0.93952
 N52 N 0.82593 0.94909 0.92550
 C53 C 0.81090 0.94235 0.91895
 N54 N 0.80384 0.92792 0.92658
 C55 C 0.30875 0.82998 0.30706
 N56 N 0.32323 0.82234 0.30015
 C57 C 0.32991 0.80734 0.30705
 N58 N 0.32193 0.79991 0.32104
 C59 C 0.30745 0.80728 0.32816
 N60 N 0.30098 0.82235 0.32114
 C61 C 0.80822 0.41953 0.44347
 N62 N 0.82332 0.42627 0.44998
 C63 C 0.83073 0.44075 0.44263
 N64 N 0.82295 0.44835 0.42855
 C65 C 0.80791 0.44174 0.42188
 N66 N 0.80066 0.42736 0.42943
 C67 C 0.94156 0.83198 -0.06110
 N68 N 0.92702 0.82456 -0.05411
 C69 C 0.91992 0.80981 -0.06128
 N70 N 0.92740 0.80261 -0.07573
 C71 C 0.94190 0.80987 -0.08294
 N72 N 0.94886 0.82446 -0.07544
 C73 C 0.30999 0.33029 0.80869
 N74 N 0.30262 0.32295 0.82312
 C75 C 0.30941 0.30809 0.83029
 N76 N 0.32376 0.30068 0.82294
 C77 C 0.33134 0.30789 0.80861
 N78 N 0.32437 0.32270 0.80158
 C79 C 0.16957 0.55651 0.56048
 N80 N 0.17709 0.55029 0.57533
 C81 C 0.19122 0.55843 0.58239
 N82 N 0.19777 0.57299 0.57445
 C83 C 0.19039 0.57940 0.55962
 N84 N 0.17629 0.57109 0.55275
 C85 C 0.58204 0.69332 0.05771
 N86 N 0.57419 0.70066 0.07183
 C87 C 0.55971 0.69332 0.07898
 N88 N 0.55308 0.67836 0.07184
 C89 C 0.56071 0.67086 0.05763
 N90 N 0.57522 0.67840 0.05069
 C91 C 0.69117 0.19217 0.66901
 N92 N 0.67695 0.19987 0.67638
 C93 C 0.67026 0.19361 0.69163
 N94 N 0.67785 0.17946 0.69935
 C95 C 0.69196 0.17157 0.69211
 N96 N 0.69853 0.17801 0.67695
 C97 C 1.08190 0.05724 0.19121
 N98 N 1.07465 0.07214 0.19789
 C99 C 1.06001 0.07915 0.19061
 N100 N 1.05277 0.07121 0.17643
 C101 C 1.05983 0.05637 0.16953
 N102 N 1.07432 0.04950 0.17708
 C103 C 0.05968 0.17053 1.05783
 N104 N 0.05275 0.17793 1.07246
 C105 C 0.05998 0.19261 1.07970
 N106 N 0.07444 0.19971 1.07218
 C107 C 0.08155 0.19246 1.05763
 N108 N 0.07405 0.17795 1.05056
 C109 C 0.16951 0.69264 0.69014
 N110 N 0.17697 0.67841 0.69781
 C111 C 0.19110 0.67047 0.69064
 N112 N 0.19782 0.67698 0.67555
 C113 C 0.19058 0.69125 0.66766
 N114 N 0.17635 0.69898 0.67500
 C115 C 1.19051 0.16935 0.19054
 N116 N 1.19787 0.17622 0.17590
 C117 C 1.19123 0.19088 0.16818
 N118 N 1.17698 0.19869 0.17535
 C119 C 1.16947 0.19206 0.19002
 N120 N 1.17630 0.17741 0.19748
 C121 C 0.66743 1.05747 0.55973
 N122 N 0.67420 1.07231 0.55257
 C123 C 0.68874 1.08000 0.55938
 N124 N 0.69643 1.07261 0.57365
 C125 C 0.68985 1.05771 0.58093
 N126 N 0.67536 1.05027 0.57388
 C127 C 0.55933 0.55701 0.17085
 N128 N 0.55215 0.57176 0.17778
 C129 C 0.55936 0.57970 0.19198
 N130 N 0.57405 0.57277 0.19920
 C131 C 0.58137 0.55797 0.19244
 N132 N 0.57392 0.55022 0.17827
 C133 C 0.66905 0.69278 0.18995
 N134 N 0.67663 0.69970 0.17549
 C135 C 0.69077 0.69197 0.16808
 N136 N 0.69738 0.67705 0.17533
 C137 C 0.68999 0.66998 0.18990
 N138 N 0.67581 0.67792 0.19707
 C139 C 0.16944 0.05856 1.06001
 N140 N 0.17671 0.05136 1.07455
 C141 C 0.19074 0.05880 1.08246
 N142 N 0.19767 0.07367 1.07549
 C143 C 0.19072 0.08108 1.06088
 N144 N 0.17653 0.07351 1.05326
 C145 C 0.58179 0.18836 0.55866
 N146 N 0.57464 0.19637 0.57282
 C147 C 0.56005 0.18979 0.58047
 N148 N 0.55267 0.17497 0.57384
 C149 C 0.55965 0.16677 0.55971
 N150 N 0.57423 0.17354 0.55221
 C151 C 0.08188 0.55824 0.69278
 N152 N 0.07412 0.57264 0.69982
 C153 C 0.05955 0.57964 0.69255
 N154 N 0.05268 0.57205 0.67799
 C155 C 0.06020 0.55754 0.67082
 N156 N 0.07484 0.55076 0.67827
 C157 C 0.67093 0.55877 0.06042
 N158 N 0.67765 0.57358 0.05312
 C159 C 0.69164 0.58178 0.06035
 N160 N 0.69889 0.57502 0.07509
 C161 C 0.69237 0.56022 0.08258
 N162 N 0.67835 0.55219 0.07518
 C163 C 0.05649 0.69296 0.57819
 N164 N 0.07085 0.70026 0.57077
 C165 C 0.07847 0.69283 0.55657
 N166 N 0.07154 0.67788 0.54975
 C167 C 0.05715 0.67039 0.55697
 N168 N 0.04975 0.67796 0.57125
 C169 C 0.55754 1.05578 0.67030
 N170 N 0.55066 1.07069 0.67733
 C171 C 0.55766 1.07796 0.69201
 N172 N 0.57177 1.07027 0.69955
 C173 C 0.57883 1.05542 0.69271
 N174 N 0.57161 1.04829 0.67814
 C175 C 0.44246 0.33059 0.94024
 N176 N 0.44900 0.32289 0.92560
 C177 C 0.44150 0.30824 0.91871
 N178 N 0.42725 0.30126 0.92664
 C179 C 0.42053 0.30872 0.94131
 N180 N 0.42819 0.32338 0.94798
 C181 C 0.94105 0.44023 0.33307
 N182 N 0.92649 0.44754 0.32594
 C183 C 0.91933 0.44080 0.31109
 N184 N 0.92678 0.42649 0.30346
 C185 C 0.94127 0.41901 0.31042
 N186 N 0.94829 0.42600 0.32515
 C187 C 0.30674 0.94413 0.42228
 N188 N 0.29909 0.92956 0.42911
 C189 C 0.30571 0.92167 0.44358
 N190 N 0.32022 0.92848 0.45119
 C191 C 0.32813 0.94303 0.44456
 N192 N 0.32128 0.95074 0.43005
 O193 O 0.29795 0.50113 0.77424
 O194 O 0.29125 0.53192 0.77325
 O195 O 0.25258 0.47944 0.79844
 O196 O 0.22383 0.47887 0.79342
 O197 O 0.27419 0.45530 0.75247
 O198 O 0.27283 0.46213 0.72194
 O199 O 0.20578 0.52423 0.75079
 O200 O 0.21080 0.52103 0.78124
 O201 O 0.24956 0.54806 0.72984
 O202 O 0.28133 0.54227 0.73138
 O203 O 0.22899 0.50364 0.70639
 O204 O 0.23082 0.47160 0.71226
 O205 O 0.20598 0.50337 0.72952
 O206 O 0.21244 0.47119 0.73116
 O207 O 0.24983 0.52486 0.70652
 O208 O 0.28176 0.52339 0.71288
 O209 O 0.22859 0.54770 0.75078
 O210 O 0.23088 0.54175 0.78235
 O211 O 0.29822 0.48006 0.75312
 O212 O 0.29186 0.48216 0.72219
 O213 O 0.25353 0.45489 0.77374
 O214 O 0.22218 0.46124 0.77069
 O215 O 0.27372 0.50043 0.79857
 O216 O 0.27162 0.53154 0.79251
 Zr217 Zr 0.27254 0.51150 0.77337
 O218 O 0.25712 0.52840 0.75803
 Zr219 Zr 0.24230 0.48019 0.77295
 O220 O 0.22536 0.49587 0.75784
 Zr221 Zr 0.27299 0.48097 0.74228
 O222 O 0.25736 0.49639 0.72563
 Zr223 Zr 0.23066 0.52261 0.76215
 O224 O 0.24605 0.50699 0.77910
 Zr225 Zr 0.26129 0.52310 0.73143
 O226 O 0.27848 0.50773 0.74676
 Zr227 Zr 0.23089 0.49192 0.73121
 O228 O 0.24657 0.47473 0.74631
 O229 O 0.26861 0.48488 0.76875
 O230 O 0.23483 0.51865 0.73555
 C231 C 0.30552 0.48884 0.76551
 C232 C 0.26493 0.48808 0.80595
 C233 C 0.26574 0.44759 0.76479
 C234 C 0.19860 0.51588 0.73806
 C235 C 0.23688 0.55518 0.73822
 C236 C 0.23728 0.51642 0.69920
 H237 H 0.25992 0.54075 0.76092
 H238 H 0.26018 0.49364 0.71333
 H239 H 0.27611 0.47740 0.77619
 H240 H 0.21310 0.49308 0.76070
 H241 H 0.21600 0.51523 0.79159
 H242 H 0.21359 0.48587 0.78979
 H243 H 0.28012 0.51321 0.70499
 H244 H 0.29762 0.49377 0.72325
 H245 H 0.24119 0.54939 0.78074
 H246 H 0.26010 0.53057 0.79825
 H247 H 0.24116 0.47323 0.70472
 H248 H 0.26121 0.45646 0.72223
 H249 H 0.29673 0.53174 0.76154
 H250 H 0.27983 0.54973 0.74186
 H251 H 0.22424 0.45472 0.75967
 H252 H 0.20464 0.47289 0.74130
 O253 O 0.27377 -0.04502 0.25213
 O254 O 0.27226 -0.03874 0.22149
 O255 O 0.29694 0.00177 0.27283
 O256 O 0.29118 0.03067 0.27270
 O257 O 0.25223 -0.02101 0.29767
 O258 O 0.22163 -0.02057 0.29136
 O259 O 0.24740 0.04682 0.22802
 O260 O 0.27793 0.04280 0.23098
 O261 O 0.22766 0.00157 0.20538
 O262 O 0.23000 -0.03033 0.21178
 O263 O 0.20414 0.02255 0.24948
 O264 O 0.21041 0.02129 0.28123
 O265 O 0.22670 0.04636 0.24922
 O266 O 0.22885 0.04026 0.28129
 O267 O 0.20463 0.00116 0.22876
 O268 O 0.21178 -0.03084 0.23063
 O269 O 0.24772 0.02354 0.20515
 O270 O 0.27935 0.02218 0.21065
 O271 O 0.25300 -0.04568 0.27331
 O272 O 0.22204 -0.04011 0.27178
 O273 O 0.27261 0.00070 0.29744
 O274 O 0.26875 0.03203 0.29059
 O275 O 0.29738 -0.01973 0.25216
 O276 O 0.29084 -0.01841 0.22133
 Zr277 Zr 0.27208 -0.01956 0.24151
 O278 O 0.25608 -0.00477 0.22468
 Zr279 Zr 0.27124 0.01143 0.27211
 O280 O 0.25543 0.02779 0.25649
 Zr281 Zr 0.24157 -0.02049 0.27231
 O282 O 0.22428 -0.00550 0.25695
 Zr283 Zr 0.25949 0.02213 0.22994
 O284 O 0.27708 0.00741 0.24547
 Zr285 Zr 0.22978 -0.00970 0.23039
 O286 O 0.24578 -0.02630 0.24574
 Zr287 Zr 0.22910 0.02144 0.26088
 O288 O 0.24490 0.00640 0.27799
 O289 O 0.26777 -0.01532 0.26796
 O290 O 0.23317 0.01717 0.23433
 C291 C 0.26538 -0.05281 0.26445
 C292 C 0.30466 -0.01054 0.26427
 C293 C 0.26425 -0.01181 0.30504
 C294 C 0.23472 0.05383 0.23649
 C295 C 0.23546 0.01455 0.19798
 C296 C 0.19707 0.01378 0.23698
 H297 H 0.25886 -0.00773 0.21242
 H298 H 0.21214 -0.00868 0.25987
 H299 H 0.27549 -0.02257 0.27541
 H300 H 0.25796 0.04028 0.25903
 H301 H 0.28854 0.03795 0.23657
 H302 H 0.28711 0.04081 0.26572
 H303 H 0.20401 -0.02925 0.24082
 H304 H 0.22291 -0.04595 0.26025
 H305 H 0.27788 0.01164 0.20321
 H306 H 0.29621 -0.00658 0.22198
 H307 H 0.20326 0.01054 0.27992
 H308 H 0.22168 -0.00874 0.29676
 H309 H 0.26075 -0.04463 0.22189
 H310 H 0.24029 -0.02865 0.20418
 H311 H 0.25791 0.02980 0.29724
 H312 H 0.23864 0.04849 0.27932
 O313 O 0.54650 0.72962 0.24694
 O314 O 0.54044 0.73089 0.27762
 O315 O 0.50126 0.70405 0.22653
 O316 O 0.47249 0.70842 0.22616
 O317 O 0.52149 0.75064 0.20176
 O318 O 0.51956 0.78132 0.20824
 O319 O 0.45427 0.75116 0.27149
 O320 O 0.45997 0.72072 0.26852
 O321 O 0.49816 0.77350 0.29420
 O322 O 0.52951 0.77323 0.28786
 O323 O 0.47603 0.79632 0.24998
 O324 O 0.47714 0.79013 0.21842
 O325 O 0.45354 0.77234 0.25058
 O326 O 0.45954 0.77040 0.21835
 O327 O 0.49701 0.79691 0.27092
 O328 O 0.52928 0.79132 0.26865
 O329 O 0.47747 0.75214 0.29435
 O330 O 0.48059 0.72027 0.28863
 O331 O 0.54598 0.75091 0.22607
 O332 O 0.53877 0.78190 0.22788
 O333 O 0.50135 0.72868 0.20185
 O334 O 0.46994 0.73114 0.20875
 O335 O 0.52277 0.70462 0.24700
 O336 O 0.52115 0.71110 0.27792
 Zr337 Zr 0.52129 0.73009 0.25775
 O338 O 0.50585 0.74534 0.27468
 Zr339 Zr 0.49051 0.72947 0.22717
 O340 O 0.47348 0.74434 0.24298
 Zr341 Zr 0.52046 0.76111 0.22719
 O342 O 0.50465 0.77760 0.24259
 Zr343 Zr 0.47940 0.74044 0.26949
 O344 O 0.49486 0.72364 0.25379
 Zr345 Zr 0.50922 0.77218 0.26911
 O346 O 0.52651 0.75700 0.25371
 Zr347 Zr 0.47826 0.77122 0.23869
 O348 O 0.49404 0.75632 0.22146
 O349 O 0.51679 0.73439 0.23134
 O350 O 0.48279 0.76727 0.26523
 C351 C 0.55369 0.73861 0.23466
 C352 C 0.51388 0.69686 0.23499
 C353 C 0.51322 0.73795 0.19433
 C354 C 0.44661 0.76367 0.26322
 C355 C 0.48578 0.76490 0.30159
 C356 C 0.48425 0.80390 0.26254
 H357 H 0.50897 0.74264 0.28692
 H358 H 0.50711 0.79002 0.23969
 H359 H 0.52433 0.72701 0.22385
 H360 H 0.46125 0.74109 0.24046
 H361 H 0.46527 0.71039 0.26268
 H362 H 0.46243 0.71171 0.23354
 H363 H 0.52692 0.79942 0.25882
 H364 H 0.54478 0.78111 0.23932
 H365 H 0.49082 0.72245 0.29620
 H366 H 0.50978 0.70498 0.27718
 H367 H 0.48760 0.79768 0.21942
 H368 H 0.50785 0.78072 0.20283
 H369 H 0.54572 0.74277 0.27715
 H370 H 0.52898 0.76232 0.29486
 H371 H 0.47177 0.74209 0.20199
 H372 H 0.45181 0.76021 0.22048
 O373 O 0.00171 0.70398 0.72672
 O374 O -0.02896 0.70997 0.72843
 O375 O 0.02143 0.75026 0.70189
 O376 O 0.02161 0.77923 0.70675
 O377 O 0.04682 0.72926 0.74755
 O378 O 0.04066 0.73072 0.77820
 O379 O -0.02316 0.79656 0.75018
 O380 O -0.02022 0.79145 0.71961
 O381 O -0.04527 0.75195 0.77151
 O382 O -0.03870 0.72011 0.77041
 O383 O -0.00106 0.77382 0.79426
 O384 O 0.03053 0.77295 0.78762
 O385 O -0.00213 0.79697 0.77110
 O386 O 0.02991 0.79144 0.76870
 O387 O -0.02193 0.75264 0.79462
 O388 O -0.01966 0.72035 0.78855
 O389 O -0.04571 0.77321 0.75067
 O390 O -0.04036 0.77061 0.71896
 O391 O 0.02261 0.70436 0.74781
 O392 O 0.02140 0.71112 0.77858
 O393 O 0.04634 0.74992 0.72608
 O394 O 0.03937 0.78145 0.72917
 O395 O 0.00119 0.72840 0.70229
 O396 O -0.02951 0.72966 0.70899
 Zr397 Zr -0.00923 0.72938 0.72772
 O398 O -0.02606 0.74467 0.74324
 Zr399 Zr 0.02104 0.76068 0.72734
 O400 O 0.00538 0.77752 0.74261
 Zr401 Zr 0.02158 0.72995 0.75826
 O402 O 0.00624 0.74546 0.77506
 Zr403 Zr -0.02105 0.77148 0.73883
 O404 O -0.00552 0.75619 0.72173
 Zr405 Zr -0.02024 0.74081 0.76979
 O406 O -0.00487 0.72373 0.75432
 Zr407 Zr 0.00995 0.77220 0.76918
 O408 O 0.02707 0.75671 0.75390
 O409 O 0.01712 0.73404 0.73181
 O410 O -0.01652 0.76756 0.76538
 C411 C 0.01399 0.69666 0.73557
 C412 C 0.01299 0.73759 0.69461
 C413 C 0.05403 0.73787 0.73502
 C414 C -0.01493 0.80402 0.76281
 C415 C -0.05274 0.76462 0.76329
 C416 C -0.01351 0.76539 0.80173
 H417 H -0.03827 0.74153 0.74059
 H418 H 0.00926 0.74276 0.78733
 H419 H 0.02455 0.72657 0.72428
 H420 H 0.00777 0.78994 0.73962
 H421 H -0.01464 0.78624 0.70915
 H422 H 0.01442 0.78939 0.71039
 H423 H -0.00960 0.72245 0.79637
 H424 H 0.00992 0.70520 0.77805
 H425 H -0.04777 0.76016 0.72093
 H426 H -0.02902 0.74129 0.70321
 H427 H 0.02943 0.76247 0.79519
 H428 H 0.04609 0.74252 0.77763
 H429 H -0.02830 0.70446 0.74013
 H430 H -0.04615 0.72117 0.75990
 H431 H 0.04608 0.77958 0.74007
 H432 H 0.02776 0.79925 0.75859
 O433 O 0.04827 0.02195 0.00150
 O434 O 0.04212 0.02093 -0.02914
 O435 O 0.00302 0.04671 0.02279
 O436 O -0.02585 0.04200 0.02254
 O437 O 0.02376 -0.00011 0.04636
 O438 O 0.02198 -0.03079 0.03929
 O439 O -0.04406 -0.00034 -0.02271
 O440 O -0.03829 0.03052 -0.01889
 O441 O -0.00043 -0.02184 -0.04625
 O442 O 0.03114 -0.02062 -0.04046
 O443 O -0.02154 -0.04559 -0.00249
 O444 O -0.01974 -0.03977 0.02954
 O445 O -0.04425 -0.02208 -0.00237
 O446 O -0.03821 -0.02073 0.02968
 O447 O -0.00050 -0.04543 -0.02335
 O448 O 0.03159 -0.03928 -0.02159
 O449 O -0.02125 -0.00062 -0.04571
 O450 O -0.01786 0.02905 -0.04150
 O451 O 0.04806 0.00027 0.02196
 O452 O 0.04124 -0.03066 0.01973
 O453 O 0.00330 0.02152 0.04677
 O454 O -0.02799 0.01926 0.03997
 O455 O 0.02420 0.04656 0.00204
 O456 O 0.02340 0.04016 -0.02967
 Zr457 Zr 0.02300 0.02136 -0.00927
 O458 O 0.00737 0.00637 -0.02630
 Zr459 Zr -0.00759 0.02119 0.02145
 O460 O -0.02462 0.00621 0.00568
 Zr461 Zr 0.02265 -0.01017 0.02077
 O462 O 0.00698 -0.02658 0.00510
 Zr463 Zr -0.01904 0.01069 -0.02077
 O464 O -0.00349 0.02758 -0.00512
 Zr465 Zr 0.01120 -0.02052 -0.02135
 O466 O 0.02848 -0.00554 -0.00571
 Zr467 Zr -0.01945 -0.02069 0.00939
 O468 O -0.00377 -0.00574 0.02672
 O469 O 0.01871 0.01658 0.01708
 O470 O -0.01523 -0.01613 -0.01707
 C471 C 0.05562 0.01281 0.01358
 C472 C 0.01544 0.05412 0.01424
 C473 C 0.01535 0.01230 0.05407
 C474 C -0.05140 -0.01326 -0.01478
 C475 C -0.01306 -0.01326 -0.05326
 C476 C -0.01318 -0.05278 -0.01517
 H477 H 0.01003 0.00956 -0.03855
 H478 H 0.00966 -0.03902 0.00773
 H479 H 0.02623 0.02388 0.02469
 H480 H -0.03686 0.00923 0.00835
 H481 H -0.03236 0.04124 -0.01455
 H482 H -0.03573 0.03872 0.01490
 H483 H 0.02968 -0.04745 -0.01171
 H484 H 0.04707 -0.02971 0.00823
 H485 H -0.01147 0.03939 -0.03702
 H486 H 0.01407 0.04881 -0.02727
 H487 H -0.00966 -0.04767 0.02775
 H488 H 0.01037 -0.03027 0.04490
 H489 H 0.04740 0.00906 -0.02889
 H490 H 0.03004 -0.00969 -0.04737
 H491 H -0.02636 0.00798 0.04624
 H492 H -0.04581 -0.01036 0.02805
 O493 O 0.04718 0.51910 0.50362
 O494 O 0.04111 0.51792 0.47280
 O495 O 0.00180 0.54438 0.52405
 O496 O -0.02709 0.53971 0.52390
 O497 O 0.02236 0.49795 0.54855
 O498 O 0.02022 0.46713 0.54197
 O499 O -0.04490 0.49692 0.47868
 O500 O -0.03949 0.52750 0.48201
 O501 O -0.00097 0.47527 0.45595
 O502 O 0.03084 0.47633 0.46253
 O503 O -0.02271 0.45188 0.49962
 O504 O -0.02135 0.45799 0.53161
 O505 O -0.04540 0.47552 0.49937
 O506 O -0.03969 0.47710 0.53139
 O507 O -0.00137 0.45174 0.47908
 O508 O 0.03036 0.45751 0.48091
 O509 O -0.02184 0.49645 0.45588
 O510 O -0.01896 0.52828 0.46179
 O511 O 0.04672 0.49768 0.52435
 O512 O 0.03973 0.46679 0.52258
 O513 O 0.00202 0.51969 0.54847
 O514 O -0.02926 0.51695 0.54170
 O515 O 0.02300 0.54402 0.50330
 O516 O 0.02204 0.53769 0.47262
 Zr517 Zr 0.02198 0.51856 0.49266
 O518 O 0.00660 0.50341 0.47557
 Zr519 Zr -0.00886 0.51884 0.52316
 O520 O -0.02574 0.50380 0.50727
 Zr521 Zr 0.02127 0.48743 0.52313
 O522 O 0.00575 0.47089 0.50745
 Zr523 Zr -0.01990 0.50798 0.48080
 O524 O -0.00450 0.52480 0.49658
 Zr525 Zr 0.01030 0.47663 0.48099
 O526 O 0.02741 0.49172 0.49666
 Zr527 Zr -0.02071 0.47690 0.51131
 O528 O -0.00519 0.49197 0.52872
 O529 O 0.01746 0.51415 0.51903
 O530 O -0.01618 0.48116 0.48484
 C531 C 0.05441 0.51004 0.51584
 C532 C 0.01419 0.55171 0.51538
 C533 C 0.01404 0.51060 0.55596
 C534 C -0.05240 0.48420 0.48678
 C535 C -0.01347 0.48376 0.44861
 C536 C -0.01416 0.44451 0.48716
 H537 H 0.00967 0.50625 0.46336
 H538 H 0.00836 0.45848 0.51024
 H539 H 0.02497 0.52158 0.52653
 H540 H -0.03801 0.50687 0.50978
 H541 H -0.03422 0.53786 0.48784
 H542 H -0.03736 0.53603 0.51699
 H543 H 0.02870 0.44988 0.49125
 H544 H 0.04566 0.46752 0.51111
 H545 H -0.00878 0.52623 0.45416
 H546 H 0.01045 0.54339 0.47290
 H547 H -0.01117 0.45015 0.53012
 H548 H 0.00857 0.46786 0.54747
 H549 H 0.04653 0.50612 0.47331
 H550 H 0.02946 0.48671 0.45486
 H551 H -0.02752 0.50580 0.54815
 H552 H -0.04707 0.48762 0.52974
 O553 O 0.45227 -0.00418 0.47987
 O554 O 0.45880 0.02658 0.48104
 O555 O 0.49790 -0.02537 0.45540
 O556 O 0.52652 -0.02602 0.46040
 O557 O 0.47622 -0.04997 0.50114
 O558 O 0.47779 -0.04351 0.53171
 O559 O 0.54433 0.01958 0.50345
 O560 O 0.53939 0.01640 0.47298
 O561 O 0.50040 0.04275 0.52449
 O562 O 0.46880 0.03670 0.52325
 O563 O 0.52128 -0.00192 0.54761
 O564 O 0.51995 -0.03372 0.54146
 O565 O 0.54437 -0.00169 0.52429
 O566 O 0.53804 -0.03396 0.52241
 O567 O 0.50059 0.01944 0.54772
 O568 O 0.46853 0.01754 0.54145
 O569 O 0.52154 0.04264 0.50373
 O570 O 0.51895 0.03690 0.47194
 O571 O 0.45214 -0.02514 0.50106
 O572 O 0.45876 -0.02359 0.53189
 O573 O 0.49696 -0.05014 0.47994
 O574 O 0.52838 -0.04354 0.48304
 O575 O 0.47668 -0.00450 0.45542
 O576 O 0.47844 0.02658 0.46187
 Zr577 Zr 0.47766 0.00632 0.48077
 O578 O 0.49300 0.02322 0.49627
 Zr579 Zr 0.50808 -0.02478 0.48091
 O580 O 0.52497 -0.00907 0.49606
 Zr581 Zr 0.47746 -0.02442 0.51163
 O582 O 0.49306 -0.00906 0.52837
 Zr583 Zr 0.51949 0.01768 0.49204
 O584 O 0.50418 0.00204 0.47500
 Zr585 Zr 0.48895 0.01768 0.52285
 O586 O 0.47183 0.00233 0.50739
 Zr587 Zr 0.51952 -0.01331 0.52265
 O588 O 0.50390 -0.03049 0.50748
 O589 O 0.48174 -0.02030 0.48516
 O590 O 0.51542 0.01343 0.51861
 C591 C 0.44473 -0.01636 0.48876
 C592 C 0.48559 -0.01669 0.44792
 C593 C 0.48474 -0.05756 0.48880
 C594 C 0.55160 0.01108 0.51600
 C595 C 0.51311 0.05000 0.51627
 C596 C 0.51308 0.01083 0.55495
 H597 H 0.49011 0.03557 0.49350
 H598 H 0.49029 -0.01193 0.54065
 H599 H 0.47422 -0.02774 0.47766
 H600 H 0.53724 -0.01173 0.49314
 H601 H 0.53424 0.01066 0.46256
 H602 H 0.53660 -0.01870 0.46390
 H603 H 0.47050 0.00755 0.54949
 H604 H 0.45301 -0.01197 0.53111
 H605 H 0.50889 0.04476 0.47397
 H606 H 0.48998 0.02579 0.45614
 H607 H 0.50935 -0.03257 0.54872
 H608 H 0.48940 -0.04917 0.53125
 H609 H 0.45339 0.02633 0.49278
 H610 H 0.47000 0.04406 0.51266
 H611 H 0.52625 -0.05030 0.49389
 H612 H 0.54589 -0.03206 0.51233
 O613 O 0.50420 0.54591 0.02251
 O614 O 0.47346 0.53976 0.02068
 O615 O 0.52421 0.49944 0.04692
 O616 O 0.52404 0.47045 0.04173
 O617 O 0.54923 0.52116 0.00162
 O618 O 0.54288 0.51962 -0.02930
 O619 O 0.48001 0.45310 -0.00186
 O620 O 0.48314 0.45850 0.02919
 O621 O 0.45705 0.49784 -0.02270
 O622 O 0.46327 0.52972 -0.02075
 O623 O 0.50132 0.47678 -0.04571
 O624 O 0.53314 0.47827 -0.03918
 O625 O 0.50106 0.45331 -0.02271
 O626 O 0.53275 0.45926 -0.02084
 O627 O 0.48033 0.49784 -0.04573
 O628 O 0.48227 0.53006 -0.03917
 O629 O 0.45711 0.47641 -0.00203
 O630 O 0.46060 0.47893 0.02738
 O631 O 0.52505 0.54581 0.00142
 O632 O 0.52377 0.53952 -0.02922
 O633 O 0.54884 0.49996 0.02257
 O634 O 0.54194 0.46856 0.01965
 O635 O 0.50409 0.52138 0.04670
 O636 O 0.47267 0.52069 0.03977
 Zr637 Zr 0.49326 0.52045 0.02137
 O638 O 0.47653 0.50499 0.00582
 Zr639 Zr 0.52357 0.48927 0.02138
 O640 O 0.50818 0.47249 0.00578
 Zr641 Zr 0.52398 0.52034 -0.00922
 O642 O 0.50855 0.50504 -0.02619
 Zr643 Zr 0.48175 0.47818 0.00968
 O644 O 0.49698 0.49353 0.02713
 Zr645 Zr 0.48202 0.50929 -0.02074
 O646 O 0.49747 0.52633 -0.00519
 Zr647 Zr 0.51260 0.47828 -0.02072
 O648 O 0.52962 0.49359 -0.00512
 O649 O 0.51959 0.51594 0.01717
 O650 O 0.48610 0.48252 -0.01679
 C651 C 0.51647 0.55335 0.01375
 C652 C 0.51590 0.51211 0.05430
 C653 C 0.55648 0.51227 0.01396
 C654 C 0.48844 0.44589 -0.01450
 C655 C 0.44981 0.48502 -0.01448
 C656 C 0.48876 0.48521 -0.05302
 H657 H 0.46427 0.50769 0.00878
 H658 H 0.51145 0.50795 -0.03843
 H659 H 0.52705 0.52336 0.02474
 H660 H 0.51075 0.46006 0.00860
 H661 H 0.48700 0.46438 0.04008
 H662 H 0.51640 0.46061 0.03813
 H663 H 0.49231 0.52821 -0.04705
 H664 H 0.51213 0.54512 -0.02886
 H665 H 0.46456 0.48581 0.03758
 H666 H 0.47479 0.51097 0.04810
 H667 H 0.53157 0.48859 -0.04689
 H668 H 0.54868 0.50801 -0.02847
 H669 H 0.47423 0.54548 0.00908
 H670 H 0.45596 0.52830 -0.01020
 H671 H 0.54852 0.47034 0.00867
 H672 H 0.53115 0.45163 -0.01050
 O673 O 0.75179 0.27034 0.45203
 O674 O 0.72107 0.26891 0.45788
 O675 O 0.77217 0.29433 0.49816
 O676 O 0.77185 0.28916 0.52695
 O677 O 0.79647 0.24848 0.47646
 O678 O 0.78995 0.21764 0.47795
 O679 O 0.72657 0.24601 0.54374
 O680 O 0.72988 0.27666 0.53897
 O681 O 0.70409 0.22518 0.49902
 O682 O 0.71064 0.22673 0.46739
 O683 O 0.74758 0.20155 0.52080
 O684 O 0.77930 0.20733 0.51965
 O685 O 0.74755 0.22495 0.54392
 O686 O 0.77959 0.22644 0.53796
 O687 O 0.72703 0.20177 0.49942
 O688 O 0.72941 0.20820 0.46736
 O689 O 0.70405 0.24581 0.52050
 O690 O 0.70982 0.27783 0.51820
 O691 O 0.77231 0.24876 0.45204
 O692 O 0.77053 0.21767 0.45836
 O693 O 0.79637 0.26946 0.49765
 O694 O 0.78936 0.26634 0.52892
 O695 O 0.75144 0.29460 0.47689
 O696 O 0.72071 0.28815 0.47761
 Zr697 Zr 0.74077 0.26909 0.47722
 O698 O 0.72370 0.25353 0.49220
 Zr699 Zr 0.77107 0.26862 0.50829
 O700 O 0.75520 0.25327 0.52480
 Zr701 Zr 0.77112 0.23792 0.47731
 O702 O 0.75551 0.22102 0.49249
 Zr703 Zr 0.72881 0.25755 0.51889
 O704 O 0.74460 0.27472 0.50394
 Zr705 Zr 0.72912 0.22681 0.48797
 O706 O 0.74473 0.24235 0.47120
 Zr707 Zr 0.75932 0.22652 0.51916
 O708 O 0.77668 0.24187 0.50397
 O709 O 0.76704 0.26454 0.48177
 O710 O 0.73293 0.23083 0.51461
 C711 C 0.76395 0.26138 0.44461
 C712 C 0.76357 0.30200 0.48590
 C713 C 0.80387 0.26077 0.48533
 C714 C 0.73490 0.23335 0.55108
 C715 C 0.69681 0.23332 0.51180
 C716 C 0.73503 0.19437 0.51222
 H717 H 0.71152 0.25641 0.48912
 H718 H 0.75829 0.20866 0.48966
 H719 H 0.77456 0.27213 0.47446
 H720 H 0.75769 0.25611 0.53717
 H721 H 0.73564 0.28716 0.53394
 H722 H 0.76469 0.28543 0.53703
 H723 H 0.73926 0.20007 0.46941
 H724 H 0.75909 0.21852 0.45244
 H725 H 0.70207 0.27580 0.50806
 H726 H 0.72106 0.29366 0.48934
 H727 H 0.77808 0.19998 0.50905
 H728 H 0.79533 0.21804 0.48971
 H729 H 0.72157 0.25721 0.45222
 H730 H 0.70335 0.23738 0.46861
 H731 H 0.79597 0.25534 0.52691
 H732 H 0.77775 0.23659 0.54585
 O733 O 0.79801 0.75119 -0.02244
 O734 O 0.79124 0.72042 -0.02067
 O735 O 0.75285 0.77280 -0.04705
 O736 O 0.72405 0.77329 -0.04206
 O737 O 0.77485 0.79741 -0.00155
 O738 O 0.77310 0.79108 0.02924
 O739 O 0.70553 0.72926 0.00137
 O740 O 0.71096 0.73225 -0.02948
 O741 O 0.74912 0.70519 0.02255
 O742 O 0.78101 0.71068 0.02074
 O743 O 0.72930 0.75021 0.04547
 O744 O 0.73147 0.78223 0.03904
 O745 O 0.70606 0.75052 0.02223
 O746 O 0.71293 0.78248 0.02038
 O747 O 0.74962 0.72851 0.04556
 O748 O 0.78152 0.72970 0.03936
 O749 O 0.72792 0.70563 0.00180
 O750 O 0.73090 0.70905 -0.02770
 O751 O 0.79850 0.77257 -0.00165
 O752 O 0.79223 0.77095 0.02923
 O753 O 0.75385 0.79755 -0.02255
 O754 O 0.72251 0.79139 -0.01994
 O755 O 0.77372 0.75159 -0.04671
 O756 O 0.77236 0.71990 -0.03962
 Zr757 Zr 0.77256 0.74085 -0.02137
 O758 O 0.75681 0.72442 -0.00587
 Zr759 Zr 0.74256 0.77232 -0.02157
 O760 O 0.72546 0.75724 -0.00608
 Zr761 Zr 0.77329 0.77195 0.00917
 O762 O 0.75758 0.75688 0.02607
 Zr763 Zr 0.73044 0.73040 -0.00995
 O764 O 0.74606 0.74536 -0.02732
 Zr765 Zr 0.76115 0.73001 0.02067
 O766 O 0.77850 0.74505 0.00519
 Zr767 Zr 0.73116 0.76158 0.02047
 O768 O 0.74691 0.77831 0.00497
 O769 O 0.76883 0.76756 -0.01723
 O770 O 0.73474 0.73475 0.01655
 C771 C 0.80569 0.76359 -0.01394
 C772 C 0.76507 0.76386 -0.05437
 C773 C 0.76623 0.80495 -0.01389
 C774 C 0.69848 0.73795 0.01393
 C775 C 0.73624 0.69817 0.01435
 C776 C 0.73728 0.73729 0.05278
 H777 H 0.75920 0.71198 -0.00879
 H778 H 0.76047 0.75975 0.03833
 H779 H 0.77636 0.77488 -0.02479
 H780 H 0.71324 0.76014 -0.00899
 H781 H 0.71686 0.73609 -0.04033
 H782 H 0.71409 0.76584 -0.03853
 H783 H 0.78008 0.74008 0.04701
 H784 H 0.79771 0.75919 0.02851
 H785 H 0.73738 0.71311 -0.03808
 H786 H 0.76290 0.72226 -0.04810
 H787 H 0.74173 0.78052 0.04668
 H788 H 0.76165 0.79705 0.02855
 H789 H 0.79682 0.72098 -0.00901
 H790 H 0.77928 0.70311 0.01036
 H791 H 0.72440 0.79800 -0.00895
 H792 H 0.70524 0.78091 0.01011
 O793 O 1.04670 0.22814 0.24702
 O794 O 1.04010 0.22895 0.27781
 O795 O 1.00140 0.20350 0.22561
 O796 O 0.97250 0.20833 0.22550
 O797 O 1.02252 0.25004 0.20195
 O798 O 1.02071 0.28079 0.20890
 O799 O 0.95448 0.25104 0.27096
 O800 O 0.95955 0.22035 0.26714
 O801 O 0.99840 0.27179 0.29447
 O802 O 1.03012 0.27067 0.28842
 O803 O 0.97738 0.29591 0.25067
 O804 O 0.97920 0.29013 0.21862
 O805 O 0.95445 0.27229 0.25010
 O806 O 0.96066 0.27132 0.21834
 O807 O 0.99844 0.29564 0.27155
 O808 O 1.03026 0.28947 0.27004
 O809 O 0.97725 0.25088 0.29399
 O810 O 0.97978 0.21915 0.28781
 O811 O 1.04664 0.24979 0.22652
 O812 O 1.03998 0.28066 0.22850
 O813 O 1.00196 0.22850 0.20146
 O814 O 0.97068 0.23124 0.20789
 O815 O 1.02261 0.20344 0.24640
 O816 O 1.02078 0.20921 0.27725
 Zr817 Zr 1.02133 0.22870 0.25756
 O818 O 1.00586 0.24383 0.27459
 Zr819 Zr 0.99087 0.22907 0.22667
 O820 O 0.97394 0.24412 0.24244
 Zr821 Zr 1.02130 0.26023 0.22748
 O822 O 1.00577 0.27674 0.24310
 Zr823 Zr 0.97936 0.23963 0.26896
 O824 O 0.99481 0.22279 0.25324
 Zr825 Zr 1.00991 0.27065 0.26955
 O826 O 1.02706 0.25555 0.25398
 Zr827 Zr 0.97933 0.27100 0.23873
 O828 O 0.99488 0.25596 0.22142
 O829 O 1.01717 0.23351 0.23119
 O830 O 0.98343 0.26644 0.26524
 C831 C 1.05413 0.23730 0.23499
 C832 C 1.01385 0.19600 0.23411
 C833 C 1.01412 0.23761 0.19424
 C834 C 0.94720 0.26375 0.26262
 C835 C 0.98571 0.26336 0.30152
 C836 C 0.98584 0.30308 0.26332
 H837 H 1.00875 0.24083 0.28681
 H838 H 1.00854 0.28916 0.24049
 H839 H 1.02472 0.22615 0.22368
 H840 H 0.96168 0.24120 0.23969
 H841 H 0.96484 0.20993 0.26145
 H842 H 0.96217 0.21203 0.23228
 H843 H 1.02864 0.29741 0.25994
 H844 H 1.04571 0.27980 0.24007
 H845 H 0.99010 0.22081 0.29538
 H846 H 1.00918 0.20355 0.27653
 H847 H 0.98934 0.29795 0.22045
 H848 H 1.00913 0.28023 0.20319
 H849 H 1.04572 0.24067 0.27746
 H850 H 1.02876 0.26002 0.29572
 H851 H 0.97255 0.24246 0.20158
 H852 H 0.95329 0.26071 0.21956
 O853 O 0.74798 1.04718 0.72809
 O854 O 0.77867 1.04118 0.72961
 O855 O 0.72805 1.00061 0.70386
 O856 O 0.72838 0.97161 0.70900
 O857 O 0.70289 1.02219 0.74911
 O858 O 0.70914 1.02099 0.77983
 O859 O 0.77324 0.95503 0.75278
 O860 O 0.77006 0.95961 0.72215
 O861 O 0.79517 1.00012 0.77340
 O862 O 0.78839 1.03202 0.77163
 O863 O 0.75119 0.97847 0.79652
 O864 O 0.71957 0.97915 0.78999
 O865 O 0.75206 0.95492 0.77350
 O866 O 0.72006 0.96042 0.77138
 O867 O 0.77198 0.99973 0.79645
 O868 O 0.76957 1.03187 0.78998
 O869 O 0.79561 0.97857 0.75284
 O870 O 0.79019 0.98050 0.72115
 O871 O 0.72705 1.04707 0.74912
 O872 O 0.72830 1.04079 0.77991
 O873 O 0.70338 1.00081 0.72832
 O874 O 0.71062 0.96951 0.73139
 O875 O 0.74825 1.02251 0.70390
 O876 O 0.77901 1.02127 0.71040
 Zr877 Zr 0.75890 1.02180 0.72927
 O878 O 0.77584 1.00683 0.74500
 Zr879 Zr 0.72879 0.99040 0.72941
 O880 O 0.74452 0.97388 0.74494
 Zr881 Zr 0.72816 1.02164 0.75986
 O882 O 0.74365 1.00652 0.77689
 Zr883 Zr 0.77092 0.97992 0.74103
 O884 O 0.75531 0.99488 0.72369
 Zr885 Zr 0.77010 1.01115 0.77148
 O886 O 0.75458 1.02789 0.75578
 Zr887 Zr 0.74002 0.97967 0.77144
 O888 O 0.72280 0.99479 0.75590
 O889 O 0.73257 1.01713 0.73348
 O890 O 0.76645 0.98431 0.76751
 C891 C 0.73571 1.05462 0.73684
 C892 C 0.73636 1.01325 0.69640
 C893 C 0.69565 1.01307 0.73693
 C894 C 0.76488 0.94773 0.76540
 C895 C 0.80264 0.98736 0.76534
 C896 C 0.76367 0.98706 0.80379
 H897 H 0.78804 1.00998 0.74228
 H898 H 0.74068 1.00941 0.78912
 H899 H 0.72506 1.02447 0.72590
 H900 H 0.74214 0.96141 0.74215
 H901 H 0.76456 0.96465 0.71156
 H902 H 0.73553 0.96150 0.71282
 H903 H 0.75952 1.02989 0.79783
 H904 H 0.73981 1.04666 0.77937
 H905 H 0.79743 0.99113 0.72281
 H906 H 0.77851 1.00953 0.70481
 H907 H 0.72064 0.98980 0.79735
 H908 H 0.70370 1.00919 0.77932
 H909 H 0.77809 1.04688 0.74123
 H910 H 0.79606 1.03057 0.76134
 H911 H 0.70405 0.97132 0.74237
 H912 H 0.72209 0.95250 0.76133
 O913 O 0.79707 0.50036 0.27487
 O914 O 0.79057 0.53131 0.27354
 O915 O 0.75123 0.47895 0.29841
 O916 O 0.72253 0.47864 0.29297
 O917 O 0.77326 0.45494 0.25251
 O918 O 0.77222 0.46200 0.22191
 O919 O 0.70491 0.52372 0.25040
 O920 O 0.71025 0.52024 0.28131
 O921 O 0.74896 0.54784 0.22995
 O922 O 0.78062 0.54236 0.23221
 O923 O 0.72889 0.50366 0.20613
 O924 O 0.73089 0.47140 0.21187
 O925 O 0.70553 0.50285 0.22915
 O926 O 0.71204 0.47097 0.23020
 O927 O 0.74983 0.52477 0.20664
 O928 O 0.78171 0.52334 0.21366
 O929 O 0.72749 0.54718 0.25035
 O930 O 0.73027 0.54334 0.27991
 O931 O 0.79744 0.47972 0.25335
 O932 O 0.79145 0.48167 0.22257
 O933 O 0.75240 0.45452 0.27360
 O934 O 0.72110 0.46108 0.27049
 O935 O 0.77267 0.49960 0.29875
 O936 O 0.77146 0.53143 0.29252
 Zr937 Zr 0.77172 0.51102 0.27369
 O938 O 0.75628 0.52798 0.25834
 Zr939 Zr 0.74133 0.47990 0.27280
 O940 O 0.72458 0.49551 0.25743
 Zr941 Zr 0.77231 0.48066 0.24242
 O942 O 0.75700 0.49626 0.22567
 Zr943 Zr 0.72978 0.52223 0.26190
 O944 O 0.74507 0.50670 0.27914
 Zr945 Zr 0.76084 0.52294 0.23174
 O946 O 0.77784 0.50738 0.24710
 Zr947 Zr 0.73050 0.49167 0.23087
 O948 O 0.74587 0.47444 0.24619
 O949 O 0.76770 0.48446 0.26887
 O950 O 0.73433 0.51837 0.23538
 C951 C 0.80468 0.48823 0.26595
 C952 C 0.76362 0.48739 0.30604
 C953 C 0.76463 0.44719 0.26469
 C954 C 0.69793 0.51526 0.23763
 C955 C 0.73595 0.55477 0.23797
 C956 C 0.73734 0.51642 0.19911
 H957 H 0.75874 0.54035 0.26153
 H958 H 0.76002 0.49361 0.21339
 H959 H 0.77510 0.47687 0.27632
 H960 H 0.71231 0.49266 0.26014
 H961 H 0.71609 0.51622 0.29214
 H962 H 0.71284 0.48650 0.28959
 H963 H 0.78013 0.51334 0.20554
 H964 H 0.79706 0.49337 0.22349
 H965 H 0.73694 0.53921 0.29016
 H966 H 0.76184 0.52892 0.30076
 H967 H 0.74107 0.47339 0.20420
 H968 H 0.76067 0.45620 0.22220
 H969 H 0.79627 0.53090 0.26194
 H970 H 0.77903 0.54949 0.24290
 H971 H 0.72315 0.45457 0.25947
 H972 H 0.70446 0.47218 0.24058
 O973 O 0.54673 0.22837 0.74801
 O974 O 0.54012 0.22895 0.77861
 O975 O 0.50160 0.20320 0.72633
 O976 O 0.47274 0.20781 0.72613
 O977 O 0.52257 0.24982 0.70269
 O978 O 0.52042 0.28057 0.70957
 O979 O 0.45432 0.25014 0.77148
 O980 O 0.45972 0.21963 0.76795
 O981 O 0.49779 0.27176 0.79511
 O982 O 0.52972 0.27063 0.78913
 O983 O 0.47681 0.29545 0.75120
 O984 O 0.47853 0.28968 0.71936
 O985 O 0.45413 0.27175 0.75099
 O986 O 0.46039 0.27037 0.71893
 O987 O 0.49789 0.29544 0.77207
 O988 O 0.52963 0.28958 0.77085
 O989 O 0.47716 0.25033 0.79466
 O990 O 0.47994 0.21863 0.78845
 O991 O 0.54659 0.24971 0.72720
 O992 O 0.53967 0.28064 0.72936
 O993 O 0.50212 0.22818 0.70225
 O994 O 0.47077 0.23077 0.70858
 O995 O 0.52254 0.20331 0.74741
 O996 O 0.52099 0.20930 0.77822
 Zr997 Zr 0.52132 0.22865 0.75839
 O998 O 0.50573 0.24367 0.77536
 Zr999 Zr 0.49095 0.22870 0.72739
 O1000 O 0.47385 0.24358 0.74313
 Zr1001 Zr 0.52115 0.26006 0.72821
 O1002 O 0.50539 0.27646 0.74376
 Zr1003 Zr 0.47933 0.23913 0.76964
 O1004 O 0.49491 0.22245 0.75396
 Zr1005 Zr 0.50951 0.27052 0.77026
 O1006 O 0.52684 0.25553 0.75475
 Zr1007 Zr 0.47897 0.27050 0.73941
 O1008 O 0.49476 0.25562 0.72213
 O1009 O 0.51721 0.23332 0.73199
 O1010 O 0.48309 0.26600 0.76592
 C1011 C 0.55414 0.23741 0.73590
 C1012 C 0.51389 0.19577 0.73509
 C1013 C 0.51427 0.23729 0.69502
 C1014 C 0.44694 0.26294 0.76338
 C1015 C 0.48529 0.26304 0.80218
 C1016 C 0.48524 0.30274 0.76380
 H1017 H 0.50862 0.24072 0.78760
 H1018 H 0.50805 0.28889 0.74112
 H1019 H 0.52483 0.22597 0.72454
 H1020 H 0.46162 0.24052 0.74039
 H1021 H 0.46505 0.20933 0.76208
 H1022 H 0.46237 0.21140 0.73292
 H1023 H 0.52820 0.29724 0.76050
 H1024 H 0.54549 0.27968 0.74088
 H1025 H 0.49015 0.22047 0.79614
 H1026 H 0.50946 0.20347 0.77752
 H1027 H 0.48887 0.29729 0.72087
 H1028 H 0.50886 0.27989 0.70384
 H1029 H 0.54538 0.24084 0.77854
 H1030 H 0.52814 0.26024 0.79674
 H1031 H 0.47261 0.24197 0.70225
 H1032 H 0.45274 0.26003 0.72058
 O1033 O 0.29422 0.74908 0.47460
 O1034 O 0.28738 0.71834 0.47611
 O1035 O 0.24874 0.77102 0.45069
 O1036 O 0.21990 0.77085 0.45598
 O1037 O 0.27093 0.79532 0.49601
 O1038 O 0.26995 0.78880 0.52671
 O1039 O 0.20206 0.72701 0.49955
 O1040 O 0.20715 0.72998 0.46862
 O1041 O 0.24620 0.70287 0.51998
 O1042 O 0.27792 0.70842 0.51775
 O1043 O 0.22629 0.74752 0.54341
 O1044 O 0.22864 0.77974 0.53716
 O1045 O 0.20288 0.74821 0.52046
 O1046 O 0.20969 0.78004 0.51887
 O1047 O 0.24708 0.72628 0.54311
 O1048 O 0.27884 0.72740 0.53624
 O1049 O 0.22459 0.70332 0.49967
 O1050 O 0.22702 0.70681 0.47017
 O1051 O 0.29493 0.77034 0.49550
 O1052 O 0.28905 0.76890 0.52635
 O1053 O 0.24967 0.79551 0.47528
 O1054 O 0.21854 0.78913 0.47817
 O1055 O 0.26957 0.74977 0.45060
 O1056 O 0.26829 0.71808 0.45739
 Zr1057 Zr 0.26875 0.73883 0.47585
 O1058 O 0.25331 0.72227 0.49152
 Zr1059 Zr 0.23866 0.77017 0.47626
 O1060 O 0.22187 0.75497 0.49199
 Zr1061 Zr 0.26982 0.76976 0.50656
 O1062 O 0.25447 0.75455 0.52364
 Zr1063 Zr 0.22684 0.72815 0.48792
 O1064 O 0.24215 0.74324 0.47036
 Zr1065 Zr 0.25806 0.72774 0.51801
 O1066 O 0.27509 0.74292 0.50233
 Zr1067 Zr 0.22795 0.75918 0.51849
 O1068 O 0.24337 0.77603 0.50277
 O1069 O 0.26503 0.76551 0.48019
 O1070 O 0.23156 0.73238 0.51438
 C1071 C 0.30203 0.76133 0.48318
 C1072 C 0.26087 0.76213 0.44315
 C1073 C 0.26205 0.80293 0.48391
 C1074 C 0.19517 0.73571 0.51219
 C1075 C 0.23320 0.69582 0.51200
 C1076 C 0.23466 0.73477 0.55057
 H1077 H 0.25569 0.70985 0.48851
 H1078 H 0.25755 0.75737 0.53586
 H1079 H 0.27247 0.77293 0.47263
 H1080 H 0.20961 0.75786 0.48928
 H1081 H 0.21292 0.73381 0.45769
 H1082 H 0.20992 0.76358 0.45979
 H1083 H 0.27749 0.73770 0.54403
 H1084 H 0.29451 0.75713 0.52563
 H1085 H 0.23360 0.71077 0.45981
 H1086 H 0.25865 0.72048 0.44913
 H1087 H 0.23877 0.77771 0.54491
 H1088 H 0.25838 0.79457 0.52641
 H1089 H 0.29314 0.71879 0.48769
 H1090 H 0.27613 0.70096 0.50731
 H1091 H 0.22044 0.79561 0.48923
 H1092 H 0.20197 0.77866 0.50860
 O1093 O 0.25295 0.27272 0.95418
 O1094 O 0.22234 0.27111 0.96023
 O1095 O 0.27318 0.29709 1.00045
 O1096 O 0.27324 0.29179 1.02919
 O1097 O 0.29803 0.25146 0.97860
 O1098 O 0.29174 0.22049 0.98000
 O1099 O 0.22878 0.24815 1.04622
 O1100 O 0.23190 0.27928 1.04099
 O1101 O 0.20588 0.22746 1.00143
 O1102 O 0.21223 0.22891 0.96998
 O1103 O 0.25008 0.20398 1.02279
 O1104 O 0.28178 0.21031 1.02147
 O1105 O 0.24982 0.22715 1.04608
 O1106 O 0.28169 0.22910 1.04007
 O1107 O 0.22895 0.20404 1.00198
 O1108 O 0.23130 0.21050 0.96976
 O1109 O 0.20589 0.24786 1.02313
 O1110 O 0.20943 0.27757 1.02039
 O1111 O 0.27371 0.25138 0.95413
 O1112 O 0.27240 0.22045 0.96044
 O1113 O 0.29777 0.27249 0.99975
 O1114 O 0.29078 0.26945 1.03108
 O1115 O 0.25310 0.29700 0.97859
 O1116 O 0.22155 0.29009 0.97944
 Zr1117 Zr 0.24214 0.27156 0.97947
 O1118 O 0.22539 0.25583 0.99468
 Zr1119 Zr 0.27249 0.27137 1.01043
 O1120 O 0.25700 0.25575 1.02704
 Zr1121 Zr 0.27277 0.24064 0.97944
 O1122 O 0.25740 0.22357 0.99466
 Zr1123 Zr 0.23055 0.25972 1.02133
 O1124 O 0.24590 0.27727 1.00622
 Zr1125 Zr 0.23091 0.22910 0.99037
 O1126 O 0.24628 0.24482 0.97350
 Zr1127 Zr 0.26141 0.22909 1.02128
 O1128 O 0.27845 0.24470 1.00605
 O1129 O 0.26846 0.26722 0.98391
 O1130 O 0.23492 0.23307 1.01699
 C1131 C 0.26512 0.26384 0.94670
 C1132 C 0.26493 0.30458 0.98785
 C1133 C 0.30534 0.26383 0.98746
 C1134 C 0.23720 0.23544 1.05340
 C1135 C 0.19861 0.23551 1.01428
 C1136 C 0.23739 0.19669 1.01454
 H1137 H 0.21314 0.25882 0.99193
 H1138 H 0.26028 0.21124 0.99179
 H1139 H 0.27592 0.27481 0.97655
 H1140 H 0.25956 0.25860 1.03939
 H1141 H 0.23584 0.29024 1.03522
 H1142 H 0.26524 0.28841 1.03875
 H1143 H 0.24103 0.20226 0.97194
 H1144 H 0.26078 0.22091 0.95482
 H1145 H 0.21358 0.28799 1.01391
 H1146 H 0.22388 0.29860 0.98896
 H1147 H 0.28041 0.20277 1.01102
 H1148 H 0.29735 0.22109 0.99165
 H1149 H 0.22299 0.25943 0.95453
 H1150 H 0.20519 0.23975 0.97105
 H1151 H 0.29752 0.25852 1.02913
 H1152 H 0.27987 0.23930 1.04789
 C1153 C 0.29019 0.37871 0.78685
 C1154 C 0.28271 0.37159 0.80221
 C1155 C 0.28899 0.35567 0.80911
 C1156 C 0.30281 0.34670 0.80103
 C1157 C 0.31005 0.35372 0.78570
 C1158 C 0.30384 0.36945 0.77868
 C1159 C 0.28347 0.39600 0.78020
 C1160 C 0.29019 0.40429 0.76517
 C1161 C 0.28408 0.42077 0.75998
 C1162 C 0.27105 0.42944 0.76953
 C1163 C 0.26390 0.42104 0.78423
 C1164 C 0.27004 0.40450 0.78964
 C1165 C 0.26919 0.38051 0.81074
 C1166 C 0.26302 0.39661 0.80461
 H1167 H 0.26343 0.37505 0.82248
 H1168 H 0.25269 0.40308 0.81182
 H1169 H 0.28325 0.35043 0.82097
 H1170 H 0.32067 0.34712 0.77909
 H1171 H 0.28984 0.42684 0.74855
 H1172 H 0.25383 0.42755 0.79178
 H1173 H 0.31006 0.37417 0.76695
 H1174 H 0.30032 0.39844 0.75735
 C1175 C 0.28998 -0.12178 0.28618
 C1176 C 0.28172 -0.12954 0.30080
 C1177 C 0.28776 -0.14565 0.30748
 C1178 C 0.30222 -0.15422 0.29998
 C1179 C 0.31026 -0.14644 0.28537
 C1180 C 0.30425 -0.13054 0.27856
 C1181 C 0.28337 -0.10439 0.27969
 C1182 C 0.29070 -0.09560 0.26525
 C1183 C 0.28456 -0.07911 0.26014
 C1184 C 0.27091 -0.07090 0.26921
 C1185 C 0.26321 -0.07976 0.28335
 C1186 C 0.26933 -0.09636 0.28864
 C1187 C 0.26763 -0.12107 0.30885
 C1188 C 0.26162 -0.10481 0.30295
 H1189 H 0.26128 -0.12699 0.32004
 H1190 H 0.25082 -0.09871 0.30977
 H1191 H 0.28129 -0.15132 0.31874
 H1192 H 0.32138 -0.15255 0.27911
 H1193 H 0.29076 -0.07268 0.24915
 H1194 H 0.25263 -0.07363 0.29050
 H1195 H 0.31111 -0.12529 0.26744
 H1196 H 0.30129 -0.10109 0.25778
 C1197 C 0.78925 0.88015 0.79133
 C1198 C 0.80461 0.87318 0.78381
 C1199 C 0.81157 0.85723 0.78996
 C1200 C 0.80360 0.84807 0.80384
 C1201 C 0.78836 0.85517 0.81125
 C1202 C 0.78129 0.87088 0.80511
 C1203 C 0.78229 0.89725 0.78448
 C1204 C 0.76697 0.90512 0.79095
 C1205 C 0.76127 0.92128 0.78451
 C1206 C 0.77058 0.93008 0.77137
 C1207 C 0.78570 0.92218 0.76457
 C1208 C 0.79158 0.90590 0.77101
 C1209 C 0.81306 0.88228 0.77032
 C1210 C 0.80674 0.89832 0.76413
 H1211 H 0.82485 0.87700 0.76456
 H1212 H 0.81386 0.90491 0.75380
 H1213 H 0.82336 0.85212 0.78403
 H1214 H 0.78176 0.84862 0.82193
 H1215 H 0.74954 0.92695 0.79000
 H1216 H 0.79307 0.92881 0.75445
 H1217 H 0.76964 0.87555 0.81146
 H1218 H 0.75921 0.89912 0.80106
 C1219 C 0.45928 0.87226 0.28594
 C1220 C 0.46749 0.87962 0.30081
 C1221 C 0.46153 0.89562 0.30781
 C1222 C 0.44728 0.90456 0.30031
 C1223 C 0.43937 0.89727 0.28537
 C1224 C 0.44525 0.88141 0.27829
 C1225 C 0.46577 0.85491 0.27917
 C1226 C 0.45831 0.84632 0.26464
 C1227 C 0.46451 0.82997 0.25915
 C1228 C 0.47835 0.82170 0.26792
 C1229 C 0.48602 0.83028 0.28226
 C1230 C 0.47984 0.84671 0.28795
 C1231 C 0.48149 0.87090 0.30877
 C1232 C 0.48752 0.85481 0.30248
 H1233 H 0.48781 0.87655 0.32014
 H1234 H 0.49831 0.84856 0.30919
 H1235 H 0.46796 0.90093 0.31929
 H1236 H 0.42843 0.90371 0.27910
 H1237 H 0.45828 0.82371 0.24806
 H1238 H 0.49668 0.82407 0.28923
 H1239 H 0.43853 0.87654 0.26690
 H1240 H 0.44759 0.85189 0.25741
 C1241 C -0.04113 0.87120 0.78798
 C1242 C -0.03350 0.87806 0.80340
 C1243 C -0.03986 0.89376 0.81077
 C1244 C -0.05387 0.90276 0.80304
 C1245 C -0.06128 0.89595 0.78767
 C1246 C -0.05503 0.88044 0.78023
 C1247 C -0.03421 0.85424 0.78071
 C1248 C -0.04105 0.84623 0.76556
 C1249 C -0.03453 0.83018 0.75962
 C1250 C -0.02095 0.82165 0.76854
 C1251 C -0.01383 0.82970 0.78347
 C1252 C -0.02036 0.84582 0.78962
 C1253 C -0.01969 0.86916 0.81148
 C1254 C -0.01328 0.85338 0.80475
 H1255 H -0.01382 0.87440 0.82328
 H1256 H -0.00267 0.84695 0.81158
 H1257 H -0.03398 0.89883 0.82264
 H1258 H -0.07206 0.90257 0.78132
 H1259 H -0.04034 0.82434 0.74809
 H1260 H -0.00339 0.82326 0.79058
 H1261 H -0.06137 0.87593 0.76847
 H1262 H -0.05155 0.85201 0.75817
 C1263 C -0.03687 -0.12061 -0.04108
 C1264 C -0.05217 -0.12776 -0.03357
 C1265 C -0.05911 -0.14366 -0.03995
 C1266 C -0.05119 -0.15252 -0.05404
 C1267 C -0.03593 -0.14531 -0.06131
 C1268 C -0.02887 -0.12969 -0.05494
 C1269 C -0.03004 -0.10347 -0.03416
 C1270 C -0.01491 -0.09536 -0.04077
 C1271 C -0.00938 -0.07914 -0.03435
 C1272 C -0.01868 -0.07051 -0.02109
 C1273 C -0.03360 -0.07866 -0.01414
 C1274 C -0.03932 -0.09501 -0.02057
 C1275 C -0.06059 -0.11886 -0.01993
 C1276 C -0.05435 -0.10281 -0.01362
 H1277 H -0.07231 -0.12429 -0.01415
 H1278 H -0.06146 -0.09637 -0.00319
 H1279 H -0.07089 -0.14889 -0.03410
 H1280 H -0.02932 -0.15167 -0.07210
 H1281 H 0.00220 -0.07326 -0.03997
 H1282 H -0.04096 -0.07217 -0.00391
 H1283 H -0.01723 -0.12493 -0.06123
 H1284 H -0.00718 -0.10118 -0.05100
 C1285 C -0.03735 0.37657 0.46116
 C1286 C -0.05349 0.37015 0.46744
 C1287 C -0.06040 0.35437 0.46081
 C1288 C -0.05159 0.34491 0.44774
 C1289 C -0.03554 0.35126 0.44167
 C1290 C -0.02847 0.36680 0.44828
 C1291 C -0.03062 0.39367 0.46824
 C1292 C -0.01476 0.40119 0.46277
 C1293 C -0.00936 0.41746 0.46921
 C1294 C -0.01954 0.42671 0.48136
 C1295 C -0.03519 0.41915 0.48724
 C1296 C -0.04079 0.40278 0.48075
 C1297 C -0.06278 0.37965 0.48006
 C1298 C -0.05660 0.39564 0.48653
 H1299 H -0.07515 0.37474 0.48488
 H1300 H -0.06439 0.40258 0.49613
 H1301 H -0.07286 0.34967 0.46561
 H1302 H -0.02838 0.34424 0.43165
 H1303 H 0.00281 0.42287 0.46447
 H1304 H -0.04323 0.42615 0.49658
 H1305 H -0.01614 0.37099 0.44296
 H1306 H -0.00636 0.39485 0.45341
 C1307 C 0.46051 -0.12614 0.46550
 C1308 C 0.46853 -0.13326 0.45043
 C1309 C 0.46222 -0.14893 0.44300
 C1310 C 0.44772 -0.15769 0.45019
 C1311 C 0.44003 -0.15069 0.46537
 C1312 C 0.44632 -0.13522 0.47292
 C1313 C 0.46721 -0.10901 0.47259
 C1314 C 0.45996 -0.10069 0.48736
 C1315 C 0.46602 -0.08427 0.49286
 C1316 C 0.47951 -0.07569 0.48387
 C1317 C 0.48722 -0.08417 0.46950
 C1318 C 0.48115 -0.10064 0.46379
 C1319 C 0.48259 -0.12453 0.44261
 C1320 C 0.48874 -0.10856 0.44912
 H1321 H 0.48879 -0.13000 0.43110
 H1322 H 0.49948 -0.10221 0.44243
 H1323 H 0.46848 -0.15404 0.43136
 H1324 H 0.42893 -0.15704 0.47143
 H1325 H 0.45984 -0.07815 0.50403
 H1326 H 0.49768 -0.07776 0.46241
 H1327 H 0.43970 -0.13050 0.48442
 H1328 H 0.44944 -0.10646 0.49472
 C1329 C 0.46470 0.37798 -0.04030
 C1330 C 0.44994 0.37049 -0.03209
 C1331 C 0.44284 0.35465 -0.03836
 C1332 C 0.45004 0.34608 -0.05301
 C1333 C 0.46480 0.35356 -0.06100
 C1334 C 0.47203 0.36920 -0.05475
 C1335 C 0.47164 0.39510 -0.03343
 C1336 C 0.48625 0.40362 -0.04069
 C1337 C 0.49182 0.41985 -0.03426
 C1338 C 0.48306 0.42809 -0.02038
 C1339 C 0.46872 0.41951 -0.01279
 C1340 C 0.46297 0.40317 -0.01919
 C1341 C 0.44217 0.37898 -0.01782
 C1342 C 0.44850 0.39499 -0.01156
 H1343 H 0.43087 0.37326 -0.01151
 H1344 H 0.44188 0.40111 -0.00062
 H1345 H 0.43147 0.34921 -0.03192
 H1346 H 0.47082 0.34742 -0.07225
 H1347 H 0.50295 0.42606 -0.04041
 H1348 H 0.46180 0.42568 -0.00206
 H1349 H 0.48325 0.37424 -0.06158
 H1350 H 0.49349 0.39809 -0.05143
 C1351 C 0.78589 0.37147 0.46350
 C1352 C 0.80202 0.37769 0.47007
 C1353 C 0.80907 0.39359 0.46387
 C1354 C 0.80035 0.40339 0.45099
 C1355 C 0.78418 0.39734 0.44482
 C1356 C 0.77703 0.38167 0.45097
 C1357 C 0.77919 0.35407 0.46985
 C1358 C 0.76356 0.34651 0.46371
 C1359 C 0.75834 0.32986 0.46929
 C1360 C 0.76846 0.32028 0.48124
 C1361 C 0.78379 0.32793 0.48787
 C1362 C 0.78926 0.34462 0.48219
 C1363 C 0.81117 0.36786 0.48256
 C1364 C 0.80493 0.35169 0.48849
 H1365 H 0.82348 0.37263 0.48767
 H1366 H 0.81262 0.34450 0.49798
 H1367 H 0.82155 0.39809 0.46880
 H1368 H 0.77703 0.40465 0.43500
 H1369 H 0.74642 0.32438 0.46399
 H1370 H 0.79179 0.32068 0.49706
 H1371 H 0.76465 0.37774 0.44556
 H1372 H 0.75528 0.35307 0.45438
 C1373 C 0.78952 0.87322 -0.03876
 C1374 C 0.80539 0.87982 -0.03197
 C1375 C 0.81249 0.89556 -0.03854
 C1376 C 0.80417 0.90478 -0.05216
 C1377 C 0.78832 0.89813 -0.05870
 C1378 C 0.78110 0.88269 -0.05212
 C1379 C 0.78260 0.85616 -0.03178
 C1380 C 0.76692 0.84856 -0.03771
 C1381 C 0.76147 0.83222 -0.03151
 C1382 C 0.77140 0.82299 -0.01913
 C1383 C 0.78676 0.83073 -0.01267
 C1384 C 0.79242 0.84716 -0.01891
 C1385 C 0.81426 0.87049 -0.01891
 C1386 C 0.80797 0.85448 -0.01259
 H1387 H 0.82642 0.87550 -0.01366
 H1388 H 0.81548 0.84765 -0.00269
 H1389 H 0.82472 0.90035 -0.03324
 H1390 H 0.78138 0.90479 -0.06911
 H1391 H 0.74950 0.82670 -0.03667
 H1392 H 0.79459 0.82378 -0.00310
 H1393 H 0.76902 0.87834 -0.05788
 H1394 H 0.75872 0.85485 -0.04729
 C1395 C 0.78905 0.28479 0.37683
 C1396 C 0.78172 0.30043 0.36998
 C1397 C 0.78819 0.30766 0.35437
 C1398 C 0.80210 0.29965 0.34546
 C1399 C 0.80921 0.28406 0.35223
 C1400 C 0.80279 0.27671 0.36764
 C1401 C 0.78211 0.27778 0.39378
 C1402 C 0.78864 0.26242 0.40176
 C1403 C 0.78237 0.25691 0.41796
 C1404 C 0.76935 0.26645 0.42669
 C1405 C 0.76236 0.28146 0.41858
 C1406 C 0.76866 0.28720 0.40230
 C1407 C 0.76815 0.30890 0.37887
 C1408 C 0.76180 0.30246 0.39470
 H1409 H 0.76249 0.32085 0.37362
 H1410 H 0.75145 0.30965 0.40117
 H1411 H 0.78256 0.31971 0.34933
 H1412 H 0.81989 0.27751 0.34567
 H1413 H 0.78799 0.24524 0.42380
 H1414 H 0.75229 0.28900 0.42512
 H1415 H 0.80893 0.26480 0.37217
 H1416 H 0.79875 0.25458 0.39586
 C1417 C 0.78940 0.78621 -0.12274
 C1418 C 0.78189 0.80165 -0.12979
 C1419 C 0.78843 0.80890 -0.14536
 C1420 C 0.80271 0.80118 -0.15403
 C1421 C 0.80986 0.78564 -0.14709
 C1422 C 0.80332 0.77825 -0.13175
 C1423 C 0.78255 0.77934 -0.10569
 C1424 C 0.78932 0.76423 -0.09747
 C1425 C 0.78324 0.75898 -0.08111
 C1426 C 0.77019 0.76855 -0.07247
 C1427 C 0.76288 0.78325 -0.08087
 C1428 C 0.76899 0.78872 -0.09730
 C1429 C 0.76814 0.81002 -0.12107
 C1430 C 0.76187 0.80372 -0.10516
 H1431 H 0.76232 0.82181 -0.12649
 H1432 H 0.75142 0.81086 -0.09880
 H1433 H 0.78260 0.82084 -0.15043
 H1434 H 0.82076 0.77915 -0.15337
 H1435 H 0.78908 0.74752 -0.07506
 H1436 H 0.75276 0.79078 -0.07441
 H1437 H 0.80956 0.76645 -0.12709
 H1438 H 0.79950 0.75641 -0.10328
 C1439 C 0.28819 0.46321 0.87389
 C1440 C 0.30410 0.47011 0.88035
 C1441 C 0.31132 0.46354 0.89593
 C1442 C 0.30301 0.44999 0.90522
 C1443 C 0.28713 0.44337 0.89887
 C1444 C 0.27980 0.44987 0.88349
 C1445 C 0.28121 0.47015 0.85692
 C1446 C 0.26568 0.46391 0.84924
 C1447 C 0.26020 0.47012 0.83298
 C1448 C 0.26995 0.48281 0.82393
 C1449 C 0.28515 0.48953 0.83174
 C1450 C 0.29087 0.48326 0.84804
 C1451 C 0.31283 0.48334 0.87109
 C1452 C 0.30637 0.48975 0.85529
 H1453 H 0.32497 0.48868 0.87603
 H1454 H 0.31375 0.49982 0.84852
 H1455 H 0.32359 0.46882 0.90065
 H1456 H 0.28031 0.43299 0.90574
 H1457 H 0.24839 0.46472 0.82736
 H1458 H 0.29287 0.49931 0.82492
 H1459 H 0.26765 0.44411 0.87930
 H1460 H 0.25768 0.45405 0.85540
 C1461 C 0.28770 -0.03353 0.37402
 C1462 C 0.27975 -0.04869 0.38122
 C1463 C 0.28575 -0.05562 0.39713
 C1464 C 0.29980 -0.04783 0.40603
 C1465 C 0.30749 -0.03266 0.39899
 C1466 C 0.30154 -0.02557 0.38324
 C1467 C 0.28129 -0.02693 0.35668
 C1468 C 0.28846 -0.01212 0.34826
 C1469 C 0.28261 -0.00701 0.33175
 C1470 C 0.26940 -0.01645 0.32315
 C1471 C 0.26182 -0.03092 0.33167
 C1472 C 0.26768 -0.03623 0.34824
 C1473 C 0.26606 -0.05704 0.37237
 C1474 C 0.26018 -0.05098 0.35623
 H1475 H 0.25994 -0.06862 0.37791
 H1476 H 0.24971 -0.05806 0.34981
 H1477 H 0.27963 -0.06734 0.40238
 H1478 H 0.31830 -0.02630 0.40556
 H1479 H 0.28869 0.00425 0.32558
 H1480 H 0.25159 -0.03836 0.32524
 H1481 H 0.30810 -0.01400 0.37846
 H1482 H 0.29875 -0.00441 0.35407
 C1483 C -0.03949 -0.03684 -0.12056
 C1484 C -0.03217 -0.05235 -0.12770
 C1485 C -0.03883 -0.05944 -0.14334
 C1486 C -0.05299 -0.05146 -0.15198
 C1487 C -0.06003 -0.03595 -0.14482
 C1488 C -0.05340 -0.02874 -0.12944
 C1489 C -0.03233 -0.02991 -0.10365
 C1490 C -0.03881 -0.01463 -0.09549
 C1491 C -0.03225 -0.00911 -0.07940
 C1492 C -0.01898 -0.01857 -0.07096
 C1493 C -0.01211 -0.03358 -0.07920
 C1494 C -0.01870 -0.03931 -0.09540
 C1495 C -0.01844 -0.06083 -0.11905
 C1496 C -0.01189 -0.05449 -0.10322
 H1497 H -0.01279 -0.07270 -0.12448
 H1498 H -0.00141 -0.06167 -0.09695
 H1499 H -0.03313 -0.07140 -0.14855
 H1500 H -0.07087 -0.02926 -0.15101
 H1501 H -0.03780 0.00255 -0.07345
 H1502 H -0.00188 -0.04106 -0.07286
 H1503 H -0.05954 -0.01693 -0.12470
 H1504 H -0.04906 -0.00681 -0.10117
 C1505 C -0.03713 0.45921 0.38058
 C1506 C -0.05229 0.46712 0.37356
 C1507 C -0.05933 0.46105 0.35767
 C1508 C -0.05162 0.44690 0.34863
 C1509 C -0.03646 0.43925 0.35569
 C1510 C -0.02932 0.44529 0.37133
 C1511 C -0.03023 0.46579 0.39775
 C1512 C -0.01528 0.45871 0.40583
 C1513 C -0.00974 0.46482 0.42210
 C1514 C -0.01885 0.47821 0.43080
 C1515 C -0.03355 0.48564 0.42267
 C1516 C -0.03929 0.47953 0.40630
 C1517 C -0.06047 0.48089 0.38255
 C1518 C -0.05415 0.48692 0.39858
 H1519 H -0.07208 0.48700 0.37721
 H1520 H -0.06108 0.49748 0.40509
 H1521 H -0.07102 0.46721 0.35256
 H1522 H -0.03000 0.42840 0.34919
 H1523 H 0.00167 0.45883 0.42796
 H1524 H -0.04077 0.49598 0.42922
 H1525 H -0.01777 0.43872 0.37597
 H1526 H -0.00774 0.44833 0.39993
 C1527 C 0.46389 -0.03953 0.37868
 C1528 C 0.44884 -0.03147 0.37156
 C1529 C 0.44199 -0.03733 0.35555
 C1530 C 0.44977 -0.05135 0.34647
 C1531 C 0.46481 -0.05915 0.35347
 C1532 C 0.47181 -0.05334 0.36930
 C1533 C 0.47044 -0.03326 0.39610
 C1534 C 0.48517 -0.04053 0.40440
 C1535 C 0.49027 -0.03482 0.42097
 C1536 C 0.48091 -0.02165 0.42975
 C1537 C 0.46650 -0.01395 0.42136
 C1538 C 0.46120 -0.01967 0.40472
 C1539 C 0.44052 -0.01782 0.38060
 C1540 C 0.44654 -0.01208 0.39683
 H1541 H 0.42902 -0.01162 0.37514
 H1542 H 0.43949 -0.00164 0.40339
 H1543 H 0.43036 -0.03115 0.35035
 H1544 H 0.47117 -0.06994 0.34677
 H1545 H 0.50148 -0.04099 0.42702
 H1546 H 0.45912 -0.00376 0.42794
 H1547 H 0.48330 -0.05998 0.37401
 H1548 H 0.49284 -0.05080 0.39845
 C1549 C 0.46496 0.46048 -0.12090
 C1550 C 0.44984 0.46846 -0.12792
 C1551 C 0.44268 0.46231 -0.14371
 C1552 C 0.45018 0.44798 -0.15264
 C1553 C 0.46532 0.44027 -0.14563
 C1554 C 0.47261 0.44641 -0.13008
 C1555 C 0.47194 0.46713 -0.10380
 C1556 C 0.48687 0.46003 -0.09572
 C1557 C 0.49245 0.46618 -0.07948
 C1558 C 0.48339 0.47963 -0.07081
 C1559 C 0.46872 0.48710 -0.07895
 C1560 C 0.46295 0.48095 -0.09529
 C1561 C 0.44175 0.48234 -0.11900
 C1562 C 0.44812 0.48840 -0.10301
 H1563 H 0.43017 0.48847 -0.12435
 H1564 H 0.44126 0.49901 -0.09653
 H1565 H 0.43101 0.46854 -0.14880
 H1566 H 0.47161 0.42928 -0.15207
 H1567 H 0.50384 0.46017 -0.07360
 H1568 H 0.46155 0.49749 -0.07244
 H1569 H 0.48413 0.43979 -0.12543
 H1570 H 0.49437 0.44960 -0.10160
 C1571 C 0.46292 0.78836 0.37023
 C1572 C 0.44786 0.78023 0.37723
 C1573 C 0.44099 0.78593 0.39328
 C1574 C 0.44883 0.79979 0.40256
 C1575 C 0.46389 0.80766 0.39569
 C1576 C 0.47086 0.80204 0.37980
 C1577 C 0.46955 0.78220 0.35283
 C1578 C 0.48424 0.78962 0.34461
 C1579 C 0.48960 0.78379 0.32817
 C1580 C 0.48053 0.77035 0.31945
 C1581 C 0.46603 0.76266 0.32766
 C1582 C 0.46048 0.76850 0.34417
 C1583 C 0.43960 0.76659 0.36808
 C1584 C 0.44577 0.76086 0.35192
 H1585 H 0.42810 0.76033 0.37344
 H1586 H 0.43883 0.75036 0.34532
 H1587 H 0.42936 0.77969 0.39840
 H1588 H 0.47030 0.81833 0.40254
 H1589 H 0.50083 0.79000 0.32222
 H1590 H 0.45883 0.75231 0.32109
 H1591 H 0.48239 0.80870 0.37522
 H1592 H 0.49172 0.80006 0.35053
 C1593 C -0.03634 0.79027 0.86985
 C1594 C -0.05127 0.78219 0.87717
 C1595 C -0.05822 0.78842 0.89302
 C1596 C -0.05065 0.80288 0.90172
 C1597 C -0.03564 0.81060 0.89445
 C1598 C -0.02858 0.80441 0.87884
 C1599 C -0.02965 0.78363 0.85265
 C1600 C -0.01506 0.79099 0.84419
 C1601 C -0.00972 0.78481 0.82789
 C1602 C -0.01869 0.77107 0.81954
 C1603 C -0.03305 0.76340 0.82803
 C1604 C -0.03859 0.76959 0.84442
 C1605 C -0.05934 0.76813 0.86850
 C1606 C -0.05316 0.76199 0.85248
 H1607 H -0.07075 0.76189 0.87410
 H1608 H -0.05999 0.75120 0.84622
 H1609 H -0.06976 0.78217 0.89833
 H1610 H -0.02927 0.82165 0.90072
 H1611 H 0.00140 0.79101 0.82174
 H1612 H -0.04016 0.75280 0.82175
 H1613 H -0.01715 0.81105 0.87401
 H1614 H -0.00766 0.80165 0.84979
 C1615 C 0.37826 0.78571 0.28774
 C1616 C 0.37116 0.80113 0.28019
 C1617 C 0.35524 0.80790 0.28627
 C1618 C 0.34620 0.79961 0.29994
 C1619 C 0.35313 0.78415 0.30717
 C1620 C 0.36889 0.77727 0.30118
 C1621 C 0.39557 0.77924 0.28126
 C1622 C 0.40395 0.76430 0.28819
 C1623 C 0.42032 0.75915 0.28212
 C1624 C 0.42881 0.76867 0.26891
 C1625 C 0.42043 0.78343 0.26171
 C1626 C 0.40400 0.78879 0.26781
 C1627 C 0.38008 0.80984 0.26677
 C1628 C 0.39613 0.80380 0.26071
 H1629 H 0.37463 0.82161 0.26095
 H1630 H 0.40256 0.81110 0.25040
 H1631 H 0.35006 0.81982 0.28050
 H1632 H 0.34646 0.77738 0.31767
 H1633 H 0.42642 0.74772 0.28795
 H1634 H 0.42682 0.79099 0.25156
 H1635 H 0.37354 0.76543 0.30736
 H1636 H 0.39822 0.75648 0.29844
 C1637 C -0.12026 0.78789 0.78884
 C1638 C -0.12670 0.80407 0.78232
 C1639 C -0.14237 0.81108 0.78883
 C1640 C -0.15177 0.80224 0.80191
 C1641 C -0.14545 0.78608 0.80811
 C1642 C -0.12998 0.77898 0.80169
 C1643 C -0.10323 0.78111 0.78196
 C1644 C -0.09555 0.76537 0.78790
 C1645 C -0.07939 0.75992 0.78158
 C1646 C -0.07041 0.76994 0.76908
 C1647 C -0.07811 0.78548 0.76281
 C1648 C -0.09433 0.79116 0.76921
 C1649 C -0.11735 0.81326 0.76953
 C1650 C -0.10153 0.80695 0.76311
 H1651 H -0.12226 0.82563 0.76449
 H1652 H -0.09474 0.81465 0.75333
 H1653 H -0.14708 0.82357 0.78388
 H1654 H -0.15242 0.77886 0.81811
 H1655 H -0.07383 0.74787 0.78666
 H1656 H -0.07131 0.79344 0.75324
 H1657 H -0.12585 0.76657 0.80709
 H1658 H -0.10167 0.75712 0.79757
 C1659 C 0.87161 0.28586 0.46241
 C1660 C 0.87815 0.27897 0.44652
 C1661 C 0.89366 0.28565 0.43935
 C1662 C 0.90276 0.29933 0.44769
 C1663 C 0.89631 0.30598 0.46353
 C1664 C 0.88101 0.29936 0.47082
 C1665 C 0.85472 0.27879 0.46935
 C1666 C 0.84703 0.28494 0.48491
 C1667 C 0.83082 0.27866 0.49032
 C1668 C 0.82184 0.26600 0.48045
 C1669 C 0.82969 0.25931 0.46524
 C1670 C 0.84595 0.26565 0.45961
 C1671 C 0.86903 0.26566 0.43773
 C1672 C 0.85326 0.25918 0.44411
 H1673 H 0.87404 0.26034 0.42559
 H1674 H 0.84659 0.24906 0.43668
 H1675 H 0.89846 0.28037 0.42710
 H1676 H 0.90304 0.31647 0.47035
 H1677 H 0.82518 0.28402 0.50215
 H1678 H 0.82293 0.24953 0.45745
 H1679 H 0.87673 0.30515 0.48294
 H1680 H 0.85313 0.29478 0.49301
 C1681 C 0.87296 0.78693 -0.04000
 C1682 C 0.87955 0.80294 -0.03323
 C1683 C 0.89498 0.81019 -0.04001
 C1684 C 0.90396 0.80184 -0.05369
 C1685 C 0.89743 0.78592 -0.06029
 C1686 C 0.88219 0.77853 -0.05355
 C1687 C 0.85620 0.77986 -0.03270
 C1688 C 0.84849 0.76411 -0.03861
 C1689 C 0.83241 0.75859 -0.03209
 C1690 C 0.82358 0.76852 -0.01941
 C1691 C 0.83147 0.78391 -0.01298
 C1692 C 0.84759 0.78966 -0.01955
 C1693 C 0.87058 0.81179 -0.01993
 C1694 C 0.85492 0.80533 -0.01329
 H1695 H 0.87562 0.82404 -0.01472
 H1696 H 0.84836 0.81281 -0.00318
 H1697 H 0.89982 0.82252 -0.03478
 H1698 H 0.90406 0.77910 -0.07079
 H1699 H 0.82673 0.74662 -0.03727
 H1700 H 0.82483 0.79178 -0.00321
 H1701 H 0.87783 0.76634 -0.05928
 H1702 H 0.85450 0.75596 -0.04844
 C1703 C -0.11857 -0.03703 -0.04113
 C1704 C -0.12572 -0.05240 -0.03356
 C1705 C -0.14152 -0.05935 -0.03986
 C1706 C -0.15038 -0.05134 -0.05390
 C1707 C -0.14312 -0.03609 -0.06137
 C1708 C -0.12754 -0.02904 -0.05509
 C1709 C -0.10162 -0.03011 -0.03411
 C1710 C -0.09354 -0.01482 -0.04064
 C1711 C -0.07750 -0.00922 -0.03407
 C1712 C -0.06904 -0.01863 -0.02075
 C1713 C -0.07718 -0.03369 -0.01389
 C1714 C -0.09332 -0.03946 -0.02044
 C1715 C -0.11696 -0.06089 -0.01987
 C1716 C -0.10108 -0.05461 -0.01352
 H1717 H -0.12239 -0.07268 -0.01406
 H1718 H -0.09476 -0.06177 -0.00303
 H1719 H -0.14676 -0.07114 -0.03387
 H1720 H -0.14945 -0.02946 -0.07218
 H1721 H -0.07162 0.00245 -0.03965
 H1722 H -0.07082 -0.04114 -0.00362
 H1723 H -0.12272 -0.01738 -0.06148
 H1724 H -0.09928 -0.00703 -0.05090
 C1725 C -0.12040 0.46160 0.46162
 C1726 C -0.12726 0.44585 0.46869
 C1727 C -0.14329 0.43921 0.46265
 C1728 C -0.15264 0.44798 0.44948
 C1729 C -0.14582 0.46365 0.44259
 C1730 C -0.12998 0.47040 0.44856
 C1731 C -0.10313 0.46811 0.46822
 C1732 C -0.09514 0.48354 0.46191
 C1733 C -0.07887 0.48883 0.46815
 C1734 C -0.07009 0.47896 0.48091
 C1735 C -0.07806 0.46367 0.48746
 C1736 C -0.09441 0.45818 0.48120
 C1737 C -0.11802 0.43671 0.48162
 C1738 C -0.10195 0.44273 0.48772
 H1739 H -0.12325 0.42465 0.48705
 H1740 H -0.09528 0.43511 0.49765
 H1741 H -0.14835 0.42708 0.46809
 H1742 H -0.15271 0.47078 0.43247
 H1743 H -0.07309 0.50067 0.46281
 H1744 H -0.07142 0.45582 0.49725
 H1745 H -0.12549 0.48245 0.44268
 H1746 H -0.10112 0.49169 0.45206
 C1747 C 0.37565 -0.03871 0.46669
 C1748 C 0.36847 -0.03031 0.45183
 C1749 C 0.35253 -0.03609 0.44483
 C1750 C 0.34357 -0.05047 0.45220
 C1751 C 0.35068 -0.05855 0.46714
 C1752 C 0.36641 -0.05277 0.47429
 C1753 C 0.39300 -0.03255 0.47338
 C1754 C 0.40131 -0.04014 0.48798
 C1755 C 0.41785 -0.03455 0.49316
 C1756 C 0.42659 -0.02119 0.48402
 C1757 C 0.41818 -0.01316 0.46978
 C1758 C 0.40155 -0.01875 0.46440
 C1759 C 0.37742 -0.01642 0.44381
 C1760 C 0.39362 -0.01081 0.44993
 H1761 H 0.37192 -0.00995 0.43246
 H1762 H 0.40011 -0.00018 0.44309
 H1763 H 0.34735 -0.02956 0.43334
 H1764 H 0.34421 -0.06957 0.47333
 H1765 H 0.42391 -0.04096 0.50425
 H1766 H 0.42471 -0.00280 0.46258
 H1767 H 0.37116 -0.05968 0.48563
 H1768 H 0.39541 -0.05055 0.49547
 C1769 C 0.38150 0.46062 -0.03706
 C1770 C 0.37434 0.46829 -0.05230
 C1771 C 0.35823 0.46234 -0.05889
 C1772 C 0.34913 0.44855 -0.05063
 C1773 C 0.35637 0.44111 -0.03542
 C1774 C 0.37221 0.44704 -0.02873
 C1775 C 0.39883 0.46709 -0.03060
 C1776 C 0.40699 0.46026 -0.01557
 C1777 C 0.42332 0.46632 -0.01032
 C1778 C 0.43204 0.47943 -0.01982
 C1779 C 0.42389 0.48657 -0.03469
 C1780 C 0.40742 0.48050 -0.04012
 C1781 C 0.38340 0.48169 -0.06101
 C1782 C 0.39959 0.48762 -0.05509
 H1783 H 0.37795 0.48760 -0.07269
 H1784 H 0.40612 0.49789 -0.06240
 H1785 H 0.35299 0.46832 -0.07063
 H1786 H 0.34985 0.43053 -0.02855
 H1787 H 0.42917 0.46056 0.00122
 H1788 H 0.43047 0.49667 -0.04221
 H1789 H 0.37696 0.44065 -0.01710
 H1790 H 0.40109 0.45014 -0.00768
 C1791 C 0.37311 0.46511 0.79038
 C1792 C 0.37993 0.44960 0.78275
 C1793 C 0.39543 0.44219 0.78919
 C1794 C 0.40429 0.44990 0.80334
 C1795 C 0.39757 0.46537 0.81074
 C1796 C 0.38225 0.47290 0.80438
 C1797 C 0.35625 0.47230 0.78347
 C1798 C 0.34828 0.48753 0.79029
 C1799 C 0.33212 0.49315 0.78405
 C1800 C 0.32346 0.48384 0.77078
 C1801 C 0.33159 0.46901 0.76347
 C1802 C 0.34780 0.46316 0.76974
 C1803 C 0.37111 0.44141 0.76892
 C1804 C 0.35538 0.44802 0.76258
 H1805 H 0.37633 0.42956 0.76304
 H1806 H 0.34895 0.44104 0.75203
 H1807 H 0.40043 0.43024 0.78331
 H1808 H 0.40411 0.47169 0.82162
 H1809 H 0.32626 0.50468 0.78993
 H1810 H 0.32509 0.46165 0.75321
 H1811 H 0.37774 0.48470 0.81073
 H1812 H 0.35414 0.49516 0.80061
 C1813 C 0.37302 -0.03306 0.28820
 C1814 C 0.38011 -0.04825 0.28018
 C1815 C 0.39567 -0.05562 0.28650
 C1816 C 0.40434 -0.04822 0.30092
 C1817 C 0.39745 -0.03298 0.30864
 C1818 C 0.38205 -0.02547 0.30238
 C1819 C 0.35597 -0.02607 0.28152
 C1820 C 0.34763 -0.01127 0.28881
 C1821 C 0.33126 -0.00592 0.28282
 C1822 C 0.32278 -0.01510 0.26934
 C1823 C 0.33131 -0.02947 0.26156
 C1824 C 0.34769 -0.03504 0.26758
 C1825 C 0.37146 -0.05622 0.26612
 C1826 C 0.35560 -0.04977 0.25997
 H1827 H 0.37692 -0.06780 0.25992
 H1828 H 0.34931 -0.05659 0.24924
 H1829 H 0.40082 -0.06736 0.28035
 H1830 H 0.40385 -0.02690 0.31972
 H1831 H 0.32509 0.00524 0.28906
 H1832 H 0.32497 -0.03671 0.25111
 H1833 H 0.37736 -0.01388 0.30900
 H1834 H 0.35333 -0.00380 0.29934
 C1835 C 0.13028 0.53945 0.71479
 C1836 C 0.12388 0.53232 0.69893
 C1837 C 0.10793 0.53818 0.69200
 C1838 C 0.09822 0.55128 0.70054
 C1839 C 0.10453 0.55815 0.71637
 C1840 C 0.12027 0.55232 0.72343
 C1841 C 0.14758 0.53319 0.72151
 C1842 C 0.15520 0.53966 0.73701
 C1843 C 0.17157 0.53382 0.74244
 C1844 C 0.18082 0.52130 0.73266
 C1845 C 0.17321 0.51456 0.71734
 C1846 C 0.15678 0.52043 0.71169
 C1847 C 0.13355 0.51956 0.68995
 C1848 C 0.14964 0.51376 0.69618
 H1849 H 0.12866 0.51407 0.67781
 H1850 H 0.15666 0.50398 0.68865
 H1851 H 0.10326 0.53275 0.67975
 H1852 H 0.09733 0.56819 0.72334
 H1853 H 0.17704 0.53927 0.75433
 H1854 H 0.18022 0.50495 0.70956
 H1855 H 0.12439 0.55821 0.73557
 H1856 H 0.14884 0.54934 0.74508
 C1857 C 0.12911 0.03608 0.21145
 C1858 C 0.12194 0.05158 0.21874
 C1859 C 0.10612 0.05838 0.21229
 C1860 C 0.09732 0.05010 0.19835
 C1861 C 0.10451 0.03459 0.19135
 C1862 C 0.12007 0.02768 0.19778
 C1863 C 0.14623 0.02949 0.21836
 C1864 C 0.15446 0.01426 0.21188
 C1865 C 0.17071 0.00905 0.21822
 C1866 C 0.17924 0.01878 0.23128
 C1867 C 0.17094 0.03375 0.23815
 C1868 C 0.15459 0.03917 0.23178
 C1869 C 0.13073 0.06036 0.23224
 C1870 C 0.14671 0.05432 0.23858
 H1871 H 0.12526 0.07222 0.23788
 H1872 H 0.15306 0.06173 0.24889
 H1873 H 0.10090 0.07034 0.21797
 H1874 H 0.09820 0.02767 0.18069
 H1875 H 0.17669 -0.00258 0.21267
 H1876 H 0.17735 0.04145 0.24821
 H1877 H 0.12483 0.01584 0.19168
 H1878 H 0.14871 0.00624 0.20178
 C1879 C 0.62183 0.71590 0.21034
 C1880 C 0.62855 0.70018 0.21763
 C1881 C 0.64414 0.69294 0.21123
 C1882 C 0.65318 0.70101 0.19743
 C1883 C 0.64662 0.71674 0.19043
 C1884 C 0.63122 0.72412 0.19678
 C1885 C 0.60479 0.72281 0.21709
 C1886 C 0.59681 0.73814 0.21049
 C1887 C 0.58050 0.74350 0.21656
 C1888 C 0.57171 0.73383 0.22945
 C1889 C 0.57982 0.71886 0.23652
 C1890 C 0.59616 0.71327 0.23040
 C1891 C 0.61952 0.69158 0.23105
 C1892 C 0.60368 0.69797 0.23728
 H1893 H 0.62468 0.67958 0.23668
 H1894 H 0.59709 0.69068 0.24750
 H1895 H 0.64902 0.68079 0.21680
 H1896 H 0.65331 0.72335 0.17985
 H1897 H 0.57463 0.75513 0.21088
 H1898 H 0.57322 0.71120 0.24646
 H1899 H 0.62682 0.73613 0.19074
 H1900 H 0.60278 0.74604 0.20045
 C1901 C 0.12238 0.71399 0.71249
 C1902 C 0.12843 0.72009 0.69610
 C1903 C 0.14403 0.71347 0.68903
 C1904 C 0.15368 0.70061 0.69799
 C1905 C 0.14778 0.69488 0.71439
 C1906 C 0.13242 0.70146 0.72157
 C1907 C 0.10530 0.72079 0.71924
 C1908 C 0.09798 0.71520 0.73519
 C1909 C 0.08160 0.72113 0.74045
 C1910 C 0.07206 0.73291 0.73006
 C1911 C 0.07950 0.73903 0.71441
 C1912 C 0.09593 0.73300 0.70891
 C1913 C 0.11871 0.73251 0.68670
 C1914 C 0.10281 0.73881 0.69296
 H1915 H 0.12334 0.73725 0.67419
 H1916 H 0.09568 0.74821 0.68507
 H1917 H 0.14841 0.71805 0.67636
 H1918 H 0.15497 0.68508 0.72171
 H1919 H 0.07630 0.71624 0.75263
 H1920 H 0.07229 0.74810 0.70621
 H1921 H 0.12859 0.69637 0.73414
 H1922 H 0.10451 0.70603 0.74371
 C1923 C 0.62951 0.20787 0.53589
 C1924 C 0.62282 0.21546 0.55140
 C1925 C 0.60714 0.20925 0.55858
 C1926 C 0.59798 0.19536 0.55066
 C1927 C 0.60461 0.18793 0.53524
 C1928 C 0.62011 0.19410 0.52792
 C1929 C 0.64648 0.21466 0.52885
 C1930 C 0.65429 0.20797 0.51356
 C1931 C 0.67039 0.21430 0.50788
 C1932 C 0.67916 0.22753 0.51721
 C1933 C 0.67130 0.23455 0.53226
 C1934 C 0.65514 0.22822 0.53813
 C1935 C 0.63192 0.22902 0.55981
 C1936 C 0.64775 0.23523 0.55335
 H1937 H 0.62680 0.23483 0.57168
 H1938 H 0.65436 0.24562 0.56045
 H1939 H 0.60223 0.21510 0.57052
 H1940 H 0.59784 0.17724 0.52879
 H1941 H 0.67608 0.20862 0.49622
 H1942 H 0.67790 0.24473 0.53966
 H1943 H 0.62453 0.18777 0.51612
 H1944 H 0.64830 0.19774 0.50586
 C1945 C 0.63022 0.71535 0.03830
 C1946 C 0.62336 0.69971 0.03093
 C1947 C 0.60750 0.69279 0.03703
 C1948 C 0.59829 0.70113 0.05057
 C1949 C 0.60501 0.71678 0.05764
 C1950 C 0.62070 0.72382 0.05161
 C1951 C 0.64747 0.72200 0.03180
 C1952 C 0.65558 0.73721 0.03851
 C1953 C 0.67193 0.74251 0.03247
 C1954 C 0.68065 0.73286 0.01951
 C1955 C 0.67251 0.71786 0.01249
 C1956 C 0.65611 0.71235 0.01856
 C1957 C 0.63247 0.69094 0.01768
 C1958 C 0.64848 0.69712 0.01163
 H1959 H 0.62722 0.67900 0.01199
 H1960 H 0.65508 0.68974 0.00147
 H1961 H 0.60249 0.68071 0.03140
 H1962 H 0.59821 0.72360 0.06803
 H1963 H 0.67782 0.75414 0.03815
 H1964 H 0.67909 0.71020 0.00252
 H1965 H 0.62517 0.73580 0.05768
 H1966 H 0.64965 0.74514 0.04857
 C1967 C 0.12340 0.03577 0.03883
 C1968 C 0.13041 0.05131 0.03145
 C1969 C 0.14590 0.05860 0.03817
 C1970 C 0.15448 0.05082 0.05250
 C1971 C 0.14749 0.03524 0.05957
 C1972 C 0.13228 0.02782 0.05285
 C1973 C 0.10652 0.02876 0.03173
 C1974 C 0.09844 0.01347 0.03828
 C1975 C 0.08223 0.00806 0.03198
 C1976 C 0.07361 0.01764 0.01890
 C1977 C 0.08188 0.03252 0.01180
 C1978 C 0.09817 0.03815 0.01813
 C1979 C 0.12173 0.05969 0.01765
 C1980 C 0.10593 0.05329 0.01119
 H1981 H 0.12708 0.07156 0.01193
 H1982 H 0.09960 0.06045 0.00070
 H1983 H 0.15098 0.07059 0.03244
 H1984 H 0.15368 0.02869 0.07051
 H1985 H 0.07629 -0.00353 0.03766
 H1986 H 0.07544 0.04007 0.00165
 H1987 H 0.12762 0.01599 0.05903
 H1988 H 0.10425 0.00560 0.04845
 C1989 C 0.12248 0.53281 0.54038
 C1990 C 0.12978 0.54777 0.53216
 C1991 C 0.14532 0.55514 0.53852
 C1992 C 0.15375 0.54799 0.55319
 C1993 C 0.14664 0.53298 0.56114
 C1994 C 0.13125 0.52546 0.55483
 C1995 C 0.10548 0.52579 0.53359
 C1996 C 0.09698 0.51115 0.54099
 C1997 C 0.08069 0.50576 0.53486
 C1998 C 0.07243 0.51474 0.52113
 C1999 C 0.08109 0.52896 0.51325
 C2000 C 0.09743 0.53456 0.51939
 C2001 C 0.12137 0.55553 0.51786
 C2002 C 0.10553 0.54909 0.51164
 H2003 H 0.12699 0.56695 0.51152
 H2004 H 0.09942 0.55575 0.50071
 H2005 H 0.15064 0.56671 0.53220
 H2006 H 0.15285 0.52710 0.57243
 H2007 H 0.07441 0.49470 0.54117
 H2008 H 0.07493 0.53602 0.50260
 H2009 H 0.12638 0.51406 0.56163
 H2010 H 0.10252 0.50382 0.55170
 C2011 C 0.61943 0.03498 0.54041
 C2012 C 0.62564 0.05115 0.53365
 C2013 C 0.64145 0.05823 0.53972
 C2014 C 0.65121 0.04955 0.55265
 C2015 C 0.64509 0.03345 0.55917
 C2016 C 0.62947 0.02622 0.55314
 C2017 C 0.60227 0.02807 0.53390
 C2018 C 0.59485 0.01225 0.53996
 C2019 C 0.57860 0.00666 0.53391
 C2020 C 0.56930 0.01660 0.52159
 C2021 C 0.57672 0.03224 0.51524
 C2022 C 0.59302 0.03805 0.52132
 C2023 C 0.61593 0.06027 0.52107
 C2024 C 0.59997 0.05388 0.51506
 H2025 H 0.62067 0.07264 0.51588
 H2026 H 0.59290 0.06153 0.50543
 H2027 H 0.64597 0.07071 0.53456
 H2028 H 0.65233 0.02638 0.56909
 H2029 H 0.57326 -0.00547 0.53905
 H2030 H 0.56966 0.04014 0.50579
 H2031 H 0.62548 0.01386 0.55876
 H2032 H 0.60126 0.00404 0.54948
 C2033 C 0.62421 0.53521 0.03928
 C2034 C 0.63118 0.55071 0.03180
 C2035 C 0.64661 0.55805 0.03847
 C2036 C 0.65523 0.55034 0.05276
 C2037 C 0.64841 0.53484 0.05998
 C2038 C 0.63316 0.52734 0.05335
 C2039 C 0.60733 0.52820 0.03219
 C2040 C 0.59919 0.51301 0.03886
 C2041 C 0.58298 0.50760 0.03253
 C2042 C 0.57445 0.51709 0.01932
 C2043 C 0.58277 0.53187 0.01213
 C2044 C 0.59903 0.53750 0.01849
 C2045 C 0.62255 0.55902 0.01793
 C2046 C 0.60681 0.55258 0.01145
 H2047 H 0.62792 0.57086 0.01216
 H2048 H 0.60051 0.55967 0.00090
 H2049 H 0.65169 0.57003 0.03272
 H2050 H 0.65477 0.52852 0.07096
 H2051 H 0.57699 0.49608 0.03829
 H2052 H 0.57638 0.53935 0.00190
 H2053 H 0.62852 0.51553 0.05959
 H2054 H 0.60494 0.50524 0.04914
 C2055 C 0.03963 0.03402 0.12276
 C2056 C 0.03190 0.04923 0.13007
 C2057 C 0.03830 0.05629 0.14580
 C2058 C 0.05266 0.04862 0.15439
 C2059 C 0.06006 0.03332 0.14718
 C2060 C 0.05365 0.02611 0.13168
 C2061 C 0.03285 0.02733 0.10559
 C2062 C 0.03978 0.01241 0.09714
 C2063 C 0.03371 0.00730 0.08070
 C2064 C 0.02053 0.01683 0.07221
 C2065 C 0.01311 0.03135 0.08081
 C2066 C 0.01918 0.03667 0.09732
 C2067 C 0.01806 0.05757 0.12144
 C2068 C 0.01189 0.05147 0.10540
 H2069 H 0.01209 0.06920 0.12704
 H2070 H 0.00136 0.05858 0.09913
 H2071 H 0.03228 0.06805 0.15106
 H2072 H 0.07104 0.02689 0.15339
 H2073 H 0.03965 -0.00402 0.07450
 H2074 H 0.00288 0.03886 0.07447
 H2075 H 0.06007 0.01449 0.12681
 H2076 H 0.05005 0.00462 0.10284
 C2077 C 0.03949 0.53434 0.62358
 C2078 C 0.03241 0.55018 0.63023
 C2079 C 0.03900 0.55751 0.64576
 C2080 C 0.05280 0.54943 0.65479
 C2081 C 0.05972 0.53368 0.64819
 C2082 C 0.05317 0.52620 0.63287
 C2083 C 0.03239 0.52718 0.60672
 C2084 C 0.03857 0.51156 0.59899
 C2085 C 0.03219 0.50594 0.58283
 C2086 C 0.01941 0.51566 0.57392
 C2087 C 0.01272 0.53092 0.58183
 C2088 C 0.01913 0.53675 0.59805
 C2089 C 0.01901 0.55878 0.62120
 C2090 C 0.01256 0.55225 0.60543
 H2091 H 0.01356 0.57090 0.62628
 H2092 H 0.00236 0.55956 0.59884
 H2093 H 0.03353 0.56971 0.65063
 H2094 H 0.07032 0.52708 0.65486
 H2095 H 0.03757 0.49408 0.57715
 H2096 H 0.00285 0.53860 0.57515
 H2097 H 0.05914 0.51416 0.62846
 H2098 H 0.04848 0.50358 0.60504
 C2099 C 0.53801 0.03405 0.62297
 C2100 C 0.53051 0.04951 0.63001
 C2101 C 0.53674 0.05648 0.64587
 C2102 C 0.55065 0.04843 0.65485
 C2103 C 0.55786 0.03295 0.64781
 C2104 C 0.55166 0.02587 0.63219
 C2105 C 0.53132 0.02728 0.60580
 C2106 C 0.53803 0.01209 0.59768
 C2107 C 0.53185 0.00666 0.58140
 C2108 C 0.51874 0.01614 0.57274
 C2109 C 0.51168 0.03109 0.58091
 C2110 C 0.51788 0.03672 0.59728
 C2111 C 0.51701 0.05806 0.62107
 C2112 C 0.51086 0.05183 0.60505
 H2113 H 0.51121 0.06988 0.62644
 H2114 H 0.50053 0.05905 0.59857
 H2115 H 0.53089 0.06840 0.65099
 H2116 H 0.56851 0.02622 0.65427
 H2117 H 0.53754 -0.00495 0.57552
 H2118 H 0.50156 0.03859 0.57439
 H2119 H 0.55790 0.01406 0.62754
 H2120 H 0.54818 0.00425 0.60353
 C2121 C 0.53924 0.53429 0.12318
 C2122 C 0.53213 0.55011 0.12984
 C2123 C 0.53838 0.55719 0.14561
 C2124 C 0.55188 0.54888 0.15487
 C2125 C 0.55869 0.53304 0.14837
 C2126 C 0.55246 0.52581 0.13280
 C2127 C 0.53271 0.52756 0.10593
 C2128 C 0.53914 0.51211 0.09804
 C2129 C 0.53332 0.50691 0.08154
 C2130 C 0.52086 0.51687 0.07245
 C2131 C 0.51395 0.53197 0.08046
 C2132 C 0.51981 0.53740 0.09701
 C2133 C 0.51908 0.55899 0.12054
 C2134 C 0.51308 0.55279 0.10447
 H2135 H 0.51359 0.57107 0.12565
 H2136 H 0.50316 0.56030 0.09768
 H2137 H 0.53297 0.56944 0.15044
 H2138 H 0.56904 0.52625 0.15524
 H2139 H 0.53885 0.49516 0.07577
 H2140 H 0.50432 0.53983 0.07363
 H2141 H 0.55836 0.51371 0.12846
 H2142 H 0.54884 0.50397 0.10423
 C2143 C 0.21342 0.54045 0.63109
 C2144 C 0.19821 0.53242 0.62426
 C2145 C 0.19122 0.53813 0.60826
 C2146 C 0.19904 0.55192 0.59890
 C2147 C 0.21420 0.55974 0.60565
 C2148 C 0.22132 0.55410 0.62148
 C2149 C 0.22028 0.53419 0.64838
 C2150 C 0.23521 0.54142 0.65639
 C2151 C 0.24081 0.53544 0.67270
 C2152 C 0.23176 0.52205 0.68148
 C2153 C 0.21700 0.51460 0.67349
 C2154 C 0.21120 0.52057 0.65712
 C2155 C 0.18995 0.51889 0.63350
 C2156 C 0.19629 0.51311 0.64958
 H2157 H 0.17831 0.51273 0.62828
 H2158 H 0.18933 0.50268 0.65627
 H2159 H 0.17949 0.53195 0.60325
 H2160 H 0.22059 0.57036 0.59874
 H2161 H 0.25223 0.54148 0.67849
 H2162 H 0.20980 0.50431 0.68013
 H2163 H 0.23293 0.56071 0.62596
 H2164 H 0.24269 0.55178 0.65039
 C2165 C 0.21018 0.03731 0.12994
 C2166 C 0.21768 0.05274 0.12282
 C2167 C 0.21148 0.05960 0.10692
 C2168 C 0.19759 0.05147 0.09794
 C2169 C 0.19036 0.03604 0.10505
 C2170 C 0.19655 0.02905 0.12072
 C2171 C 0.21688 0.03066 0.14714
 C2172 C 0.21023 0.01549 0.15536
 C2173 C 0.21649 0.01016 0.17165
 C2174 C 0.22962 0.01973 0.18022
 C2175 C 0.23658 0.03468 0.17197
 C2176 C 0.23032 0.04020 0.15560
 C2177 C 0.23114 0.06140 0.13173
 C2178 C 0.23729 0.05530 0.14778
 H2179 H 0.23692 0.07321 0.12630
 H2180 H 0.24760 0.06260 0.15422
 H2181 H 0.21733 0.07150 0.10176
 H2182 H 0.17972 0.02927 0.09858
 H2183 H 0.21085 -0.00143 0.17762
 H2184 H 0.24670 0.04226 0.17841
 H2185 H 0.19031 0.01727 0.12544
 H2186 H 0.20008 0.00761 0.14956
 C2187 C 0.71197 0.20994 0.61967
 C2188 C 0.69629 0.21719 0.62622
 C2189 C 0.68966 0.21159 0.64243
 C2190 C 0.69838 0.19867 0.65223
 C2191 C 0.71398 0.19164 0.64571
 C2192 C 0.72072 0.19718 0.62972
 C2193 C 0.71847 0.21604 0.60221
 C2194 C 0.73384 0.20949 0.59451
 C2195 C 0.73918 0.21529 0.57808
 C2196 C 0.72944 0.22784 0.56884
 C2197 C 0.71418 0.23460 0.57648
 C2198 C 0.70864 0.22877 0.59300
 C2199 C 0.68722 0.22985 0.61650
 C2200 C 0.69325 0.23550 0.60025
 H2201 H 0.67521 0.23542 0.62149
 H2202 H 0.68570 0.24524 0.59320
 H2203 H 0.67757 0.21713 0.64727
 H2204 H 0.72108 0.18172 0.65296
 H2205 H 0.75100 0.20982 0.57258
 H2206 H 0.70644 0.24422 0.56947
 H2207 H 0.73272 0.19119 0.62549
 H2208 H 0.74191 0.19980 0.60085
 C2209 C 0.71166 0.71389 0.12041
 C2210 C 0.71752 0.69732 0.12649
 C2211 C 0.71098 0.69035 0.14221
 C2212 C 0.69845 0.69958 0.15197
 C2213 C 0.69286 0.71609 0.14596
 C2214 C 0.69936 0.72318 0.13048
 C2215 C 0.71859 0.72068 0.10336
 C2216 C 0.71338 0.73689 0.09610
 C2217 C 0.71972 0.74235 0.07990
 C2218 C 0.73151 0.73190 0.07049
 C2219 C 0.73706 0.71588 0.07778
 C2220 C 0.73066 0.71019 0.09403
 C2221 C 0.72965 0.68769 0.11672
 C2222 C 0.73606 0.69397 0.10084
 H2223 H 0.73416 0.67501 0.12134
 H2224 H 0.74530 0.68592 0.09370
 H2225 H 0.71541 0.67757 0.14665
 H2226 H 0.68330 0.72361 0.15321
 H2227 H 0.71521 0.75478 0.07466
 H2228 H 0.74608 0.70759 0.07063
 H2229 H 0.69443 0.73586 0.12661
 H2230 H 0.70430 0.74550 0.10258
 C2231 C 0.53806 0.71575 0.12606
 C2232 C 0.53167 0.69955 0.11953
 C2233 C 0.53844 0.69249 0.10395
 C2234 C 0.55174 0.70124 0.09480
 C2235 C 0.55783 0.71742 0.10120
 C2236 C 0.55109 0.72461 0.11655
 C2237 C 0.53101 0.72248 0.14309
 C2238 C 0.53673 0.73830 0.15082
 C2239 C 0.53054 0.74350 0.16716
 C2240 C 0.51840 0.73317 0.17626
 C2241 C 0.51213 0.71770 0.16838
 C2242 C 0.51839 0.71227 0.15198
 C2243 C 0.51884 0.69030 0.12875
 C2244 C 0.51237 0.69650 0.14463
 H2245 H 0.51389 0.67793 0.12374
 H2246 H 0.50264 0.68871 0.15138
 H2247 H 0.53360 0.67997 0.09920
 H2248 H 0.56799 0.72456 0.09441
 H2249 H 0.53555 0.75555 0.17281
 H2250 H 0.50275 0.70955 0.17522
 H2251 H 0.55646 0.73700 0.12080
 H2252 H 0.54616 0.74675 0.14463
 C2253 C 0.03605 0.71539 0.62576
 C2254 C 0.02960 0.69911 0.61947
 C2255 C 0.03594 0.69207 0.60372
 C2256 C 0.04886 0.70091 0.59414
 C2257 C 0.05497 0.71719 0.60026
 C2258 C 0.04866 0.72437 0.61579
 C2259 C 0.02952 0.72208 0.64299
 C2260 C 0.03541 0.73793 0.65054
 C2261 C 0.02966 0.74313 0.66704
 C2262 C 0.01780 0.73277 0.67647
 C2263 C 0.01141 0.71724 0.66881
 C2264 C 0.01723 0.71180 0.65226
 C2265 C 0.01715 0.68977 0.62911
 C2266 C 0.01111 0.69597 0.64516
 H2267 H 0.01216 0.67734 0.62429
 H2268 H 0.00167 0.68811 0.65223
 H2269 H 0.03108 0.67948 0.59917
 H2270 H 0.06484 0.72441 0.59312
 H2271 H 0.03477 0.75521 0.67253
 H2272 H 0.00228 0.70906 0.67593
 H2273 H 0.05402 0.73684 0.61981
 H2274 H 0.04464 0.74640 0.64408
 C2275 C 0.53701 0.62801 0.21145
 C2276 C 0.55294 0.62166 0.21836
 C2277 C 0.56001 0.60575 0.21223
 C2278 C 0.55155 0.59606 0.19908
 C2279 C 0.53568 0.60233 0.19241
 C2280 C 0.52848 0.61802 0.19850
 C2281 C 0.53015 0.64528 0.21798
 C2282 C 0.51454 0.65281 0.21180
 C2283 C 0.50911 0.66930 0.21768
 C2284 C 0.51900 0.67874 0.22995
 C2285 C 0.53433 0.67111 0.23657
 C2286 C 0.53998 0.65457 0.23065
 C2287 C 0.56187 0.63134 0.23113
 C2288 C 0.55555 0.64745 0.23711
 H2289 H 0.57405 0.62649 0.23645
 H2290 H 0.56307 0.65453 0.24685
 H2291 H 0.57230 0.60111 0.21751
 H2292 H 0.52877 0.59515 0.18232
 H2293 H 0.49719 0.67476 0.21236
 H2294 H 0.54216 0.67824 0.24603
 H2295 H 0.51632 0.62213 0.19273
 H2296 H 0.50640 0.64634 0.20227
 C2297 C 0.03841 0.62761 0.71408
 C2298 C 0.03208 0.62097 0.69797
 C2299 C 0.03866 0.60511 0.69120
 C2300 C 0.05172 0.59577 0.70014
 C2301 C 0.05775 0.60228 0.71621
 C2302 C 0.05119 0.61791 0.72313
 C2303 C 0.03155 0.64491 0.72054
 C2304 C 0.03724 0.65274 0.73625
 C2305 C 0.03117 0.66928 0.74126
 C2306 C 0.01918 0.67847 0.73086
 C2307 C 0.01299 0.67053 0.71545
 C2308 C 0.01913 0.65393 0.71021
 C2309 C 0.01949 0.63038 0.68856
 C2310 C 0.01318 0.64651 0.69453
 H2311 H 0.01459 0.62531 0.67626
 H2312 H 0.00363 0.65338 0.68662
 H2313 H 0.03388 0.60027 0.67876
 H2314 H 0.06772 0.59535 0.72350
 H2315 H 0.03612 0.67498 0.75326
 H2316 H 0.00374 0.67748 0.70724
 H2317 H 0.05650 0.62221 0.73546
 H2318 H 0.04655 0.64647 0.74477
 C2319 C 0.03962 0.12308 0.03637
 C2320 C 0.03218 0.13028 0.05170
 C2321 C 0.03852 0.14624 0.05856
 C2322 C 0.05255 0.15508 0.05055
 C2323 C 0.05971 0.14785 0.03522
 C2324 C 0.05336 0.13219 0.02822
 C2325 C 0.03289 0.10579 0.02975
 C2326 C 0.03946 0.09760 0.01461
 C2327 C 0.03344 0.08111 0.00945
 C2328 C 0.02062 0.07227 0.01915
 C2329 C 0.01354 0.08057 0.03395
 C2330 C 0.01959 0.09719 0.03931
 C2331 C 0.01872 0.12133 0.06031
 C2332 C 0.01262 0.10511 0.05430
 H2333 H 0.01297 0.12682 0.07205
 H2334 H 0.00238 0.09860 0.06160
 H2335 H 0.03274 0.15149 0.07039
 H2336 H 0.07044 0.15421 0.02852
 H2337 H 0.03908 0.07516 -0.00210
 H2338 H 0.00361 0.07394 0.04157
 H2339 H 0.05960 0.12739 0.01655
 H2340 H 0.04939 0.10357 0.00662
 C2341 C 0.03770 0.62131 0.53625
 C2342 C 0.03074 0.62831 0.55191
 C2343 C 0.03686 0.64447 0.55842
 C2344 C 0.05006 0.65378 0.54967
 C2345 C 0.05679 0.64685 0.53407
 C2346 C 0.05071 0.63091 0.52742
 C2347 C 0.03119 0.60380 0.53000
 C2348 C 0.03739 0.59567 0.51467
 C2349 C 0.03153 0.57901 0.50981
 C2350 C 0.01925 0.56997 0.52000
 C2351 C 0.01258 0.57817 0.53504
 C2352 C 0.01849 0.59491 0.54012
 C2353 C 0.01794 0.61901 0.56114
 C2354 C 0.01199 0.60266 0.55540
 H2355 H 0.01258 0.62437 0.57312
 H2356 H 0.00223 0.59591 0.56313
 H2357 H 0.03154 0.64961 0.57051
 H2358 H 0.06692 0.65373 0.52697
 H2359 H 0.03685 0.57312 0.49807
 H2360 H 0.00311 0.57135 0.54307
 H2361 H 0.05653 0.62630 0.51545
 H2362 H 0.04692 0.60181 0.50632
 C2363 C 0.53724 0.11818 0.54091
 C2364 C 0.55301 0.12461 0.53374
 C2365 C 0.56009 0.14057 0.53971
 C2366 C 0.55179 0.15028 0.55293
 C2367 C 0.53610 0.14391 0.55991
 C2368 C 0.52889 0.12814 0.55400
 C2369 C 0.53029 0.10092 0.53440
 C2370 C 0.51480 0.09331 0.54077
 C2371 C 0.50914 0.07698 0.53465
 C2372 C 0.51868 0.06779 0.52194
 C2373 C 0.53399 0.07540 0.51530
 C2374 C 0.53986 0.09178 0.52144
 C2375 C 0.56175 0.11500 0.52081
 C2376 C 0.55534 0.09893 0.51482
 H2377 H 0.57382 0.11991 0.51532
 H2378 H 0.56267 0.09194 0.50491
 H2379 H 0.57223 0.14528 0.53419
 H2380 H 0.52935 0.15110 0.57008
 H2381 H 0.49727 0.07148 0.54004
 H2382 H 0.54158 0.06843 0.50556
 H2383 H 0.51686 0.12396 0.55996
 H2384 H 0.50691 0.09963 0.55058
 C2385 C 0.54099 0.62223 0.03602
 C2386 C 0.53384 0.62918 0.05161
 C2387 C 0.54009 0.64516 0.05843
 C2388 C 0.55363 0.65434 0.05007
 C2389 C 0.56061 0.64744 0.03457
 C2390 C 0.55440 0.63166 0.02761
 C2391 C 0.53423 0.60493 0.02938
 C2392 C 0.54052 0.59690 0.01403
 C2393 C 0.53438 0.58044 0.00881
 C2394 C 0.52174 0.57149 0.01865
 C2395 C 0.51500 0.57962 0.03370
 C2396 C 0.52116 0.59618 0.03913
 C2397 C 0.52067 0.62001 0.06045
 C2398 C 0.51452 0.60385 0.05438
 H2399 H 0.51517 0.62532 0.07238
 H2400 H 0.50449 0.59720 0.06184
 H2401 H 0.53458 0.65027 0.07044
 H2402 H 0.57101 0.65421 0.02777
 H2403 H 0.53980 0.57460 -0.00291
 H2404 H 0.50525 0.57289 0.04147
 H2405 H 0.56041 0.62705 0.01573
 H2406 H 0.55031 0.60298 0.00594
 C2407 C 0.70843 0.12716 0.53691
 C2408 C 0.71652 0.11977 0.55183
 C2409 C 0.71012 0.10406 0.55910
 C2410 C 0.69547 0.09553 0.55188
 C2411 C 0.68754 0.10298 0.53703
 C2412 C 0.69390 0.11849 0.52966
 C2413 C 0.71551 0.14408 0.52970
 C2414 C 0.70842 0.15243 0.51487
 C2415 C 0.71505 0.16848 0.50904
 C2416 C 0.72898 0.17668 0.51775
 C2417 C 0.73642 0.16823 0.53230
 C2418 C 0.72980 0.15208 0.53831
 C2419 C 0.73084 0.12821 0.55954
 C2420 C 0.73729 0.14404 0.55297
 H2421 H 0.73707 0.12258 0.57096
 H2422 H 0.74827 0.15012 0.55955
 H2423 H 0.71650 0.09865 0.57055
 H2424 H 0.67627 0.09690 0.53099
 H2425 H 0.70902 0.17460 0.49777
 H2426 H 0.74718 0.17436 0.53919
 H2427 H 0.68712 0.12348 0.51836
 H2428 H 0.69766 0.14693 0.50765
 C2429 C 0.71079 0.63031 0.03828
 C2430 C 0.71784 0.62375 0.05410
 C2431 C 0.71174 0.60781 0.06107
 C2432 C 0.69852 0.59824 0.05260
 C2433 C 0.69166 0.60472 0.03687
 C2434 C 0.69770 0.62049 0.02977
 C2435 C 0.71746 0.64753 0.03144
 C2436 C 0.71117 0.65527 0.01594
 C2437 C 0.71747 0.67153 0.01034
 C2438 C 0.73028 0.68051 0.01995
 C2439 C 0.73681 0.67279 0.03530
 C2440 C 0.73047 0.65648 0.04111
 C2441 C 0.73080 0.63320 0.06297
 C2442 C 0.73696 0.64922 0.05663
 H2443 H 0.73619 0.62819 0.07508
 H2444 H 0.74691 0.65608 0.06405
 H2445 H 0.71717 0.60301 0.07325
 H2446 H 0.68150 0.59764 0.03000
 H2447 H 0.71217 0.67712 -0.00155
 H2448 H 0.74662 0.67962 0.04294
 H2449 H 0.69185 0.62476 0.01769
 H2450 H 0.70129 0.64911 0.00800
 C2451 C 0.21151 0.62300 0.71394
 C2452 C 0.21859 0.62950 0.69812
 C2453 C 0.21216 0.64515 0.69077
 C2454 C 0.19859 0.65449 0.69887
 C2455 C 0.19181 0.64815 0.71470
 C2456 C 0.19817 0.63268 0.72216
 C2457 C 0.21832 0.60593 0.72104
 C2458 C 0.21188 0.59815 0.73646
 C2459 C 0.21816 0.58191 0.74216
 C2460 C 0.23111 0.57297 0.73274
 C2461 C 0.23789 0.58081 0.71756
 C2462 C 0.23156 0.59709 0.71163
 C2463 C 0.23186 0.62022 0.68959
 C2464 C 0.23821 0.60438 0.69620
 H2465 H 0.23734 0.62520 0.67751
 H2466 H 0.24837 0.59763 0.68900
 H2467 H 0.21756 0.64987 0.67855
 H2468 H 0.18141 0.65507 0.72134
 H2469 H 0.21268 0.57625 0.75392
 H2470 H 0.24785 0.57406 0.71006
 H2471 H 0.19231 0.62848 0.73426
 H2472 H 0.20184 0.60424 0.74422
 C2473 C 0.20936 0.12176 0.21264
 C2474 C 0.21736 0.12897 0.19760
 C2475 C 0.21129 0.14488 0.19053
 C2476 C 0.19710 0.15383 0.19809
 C2477 C 0.18938 0.14667 0.21317
 C2478 C 0.19540 0.13094 0.22035
 C2479 C 0.21597 0.10454 0.21953
 C2480 C 0.20878 0.09618 0.23430
 C2481 C 0.21507 0.07991 0.23990
 C2482 C 0.22872 0.07152 0.23100
 C2483 C 0.23614 0.07987 0.21641
 C2484 C 0.22987 0.09621 0.21062
 C2485 C 0.23122 0.12015 0.18953
 C2486 C 0.23732 0.10412 0.19589
 H2487 H 0.23737 0.12566 0.17802
 H2488 H 0.24798 0.09775 0.18907
 H2489 H 0.21754 0.15009 0.17893
 H2490 H 0.17849 0.15313 0.21949
 H2491 H 0.20905 0.07383 0.25118
 H2492 H 0.24666 0.07355 0.20934
 H2493 H 0.18881 0.12617 0.23185
 H2494 H 0.19822 0.10186 0.24166
 C2495 C 0.71222 1.12374 0.71464
 C2496 C 0.71903 1.13024 0.69871
 C2497 C 0.71273 1.14608 0.69169
 C2498 C 0.69951 1.15557 0.70019
 C2499 C 0.69306 1.14926 0.71616
 C2500 C 0.69933 1.13362 0.72333
 C2501 C 0.71875 1.10639 0.72131
 C2502 C 0.71250 1.09858 0.73678
 C2503 C 0.71833 1.08201 0.74197
 C2504 C 0.73063 1.07278 0.73196
 C2505 C 0.73732 1.08067 0.71679
 C2506 C 0.73143 1.09729 0.71136
 C2507 C 0.73182 1.12074 0.68969
 C2508 C 0.73788 1.10462 0.69588
 H2509 H 0.73708 1.12574 0.67752
 H2510 H 0.74762 1.09768 0.68828
 H2511 H 0.71788 1.15077 0.67935
 H2512 H 0.68295 1.15632 0.72311
 H2513 H 0.71298 1.07632 0.75378
 H2514 H 0.74679 1.07370 0.70888
 H2515 H 0.69371 1.12944 0.73555
 H2516 H 0.70293 1.10488 0.74496
 C2517 C 0.70971 0.62197 0.21281
 C2518 C 0.71733 0.62883 0.19741
 C2519 C 0.71100 0.64455 0.19007
 C2520 C 0.69703 0.65361 0.19781
 C2521 C 0.68960 0.64678 0.21314
 C2522 C 0.69582 0.63124 0.22056
 C2523 C 0.71663 0.60500 0.22007
 C2524 C 0.70981 0.59699 0.23520
 C2525 C 0.71634 0.58094 0.24113
 C2526 C 0.72992 0.57240 0.23224
 C2527 C 0.73703 0.58045 0.21731
 C2528 C 0.73047 0.59657 0.21116
 C2529 C 0.73112 0.61991 0.18933
 C2530 C 0.73754 0.60413 0.19605
 H2531 H 0.73699 0.62515 0.17755
 H2532 H 0.74814 0.59769 0.18922
 H2533 H 0.71689 0.64962 0.17822
 H2534 H 0.67885 0.65344 0.21948
 H2535 H 0.71056 0.57511 0.25267
 H2536 H 0.74745 0.57400 0.21021
 H2537 H 0.68948 0.62673 0.23229
 H2538 H 0.69931 0.60277 0.24258
 C2539 C 0.53778 0.12660 0.71328
 C2540 C 0.53119 0.11997 0.69729
 C2541 C 0.53744 0.10396 0.69057
 C2542 C 0.55040 0.09443 0.69945
 C2543 C 0.55675 0.10099 0.71539
 C2544 C 0.55054 0.11678 0.72224
 C2545 C 0.53114 0.14398 0.71977
 C2546 C 0.53702 0.15177 0.73543
 C2547 C 0.53107 0.16833 0.74051
 C2548 C 0.51902 0.17760 0.73023
 C2549 C 0.51269 0.16973 0.71485
 C2550 C 0.51870 0.15310 0.70954
 C2551 C 0.51862 0.12950 0.68796
 C2552 C 0.51254 0.14571 0.69393
 H2553 H 0.51354 0.12443 0.67572
 H2554 H 0.50298 0.15265 0.68610
 H2555 H 0.53241 0.09910 0.67822
 H2556 H 0.56668 0.09394 0.72261
 H2557 H 0.53613 0.17397 0.75249
 H2558 H 0.50341 0.17674 0.70673
 H2559 H 0.55606 0.12110 0.73447
 H2560 H 0.54635 0.14543 0.74387
 C2561 C 1.03744 0.12745 0.20997
 C2562 C 1.05311 0.12090 0.21728
 C2563 C 1.06029 0.10503 0.21115
 C2564 C 1.05216 0.09554 0.19765
 C2565 C 1.03653 0.10202 0.19059
 C2566 C 1.02924 0.11769 0.19664
 C2567 C 1.03044 0.14467 0.21654
 C2568 C 1.01510 0.15244 0.20995
 C2569 C 1.00953 0.16885 0.21597
 C2570 C 1.01901 0.17796 0.22880
 C2571 C 1.03408 0.17010 0.23578
 C2572 C 1.03987 0.15366 0.22972
 C2573 C 1.06165 0.13033 0.23049
 C2574 C 1.05519 0.14635 0.23656
 H2575 H 1.07364 0.12533 0.23612
 H2576 H 1.06241 0.15322 0.24667
 H2577 H 1.07237 0.10023 0.21675
 H2578 H 1.02986 0.09501 0.18023
 H2579 H 0.99786 0.17451 0.21034
 H2580 H 1.04161 0.17696 0.24565
 H2581 H 1.01728 0.12194 0.19058
 H2582 H 1.00730 0.14622 0.19998
 C2583 C 0.20894 0.62768 0.53649
 C2584 C 0.21701 0.62082 0.55168
 C2585 C 0.21113 0.60495 0.55896
 C2586 C 0.19716 0.59570 0.55141
 C2587 C 0.18938 0.60240 0.53620
 C2588 C 0.19517 0.61813 0.52881
 C2589 C 0.21528 0.64495 0.52943
 C2590 C 0.20787 0.65309 0.51464
 C2591 C 0.21389 0.66941 0.50889
 C2592 C 0.22750 0.67807 0.51764
 C2593 C 0.23514 0.66994 0.53224
 C2594 C 0.22912 0.65356 0.53821
 C2595 C 0.23077 0.62993 0.55963
 C2596 C 0.23670 0.64593 0.55303
 H2597 H 0.23699 0.62467 0.57123
 H2598 H 0.24731 0.65252 0.55975
 H2599 H 0.21732 0.59994 0.57069
 H2600 H 0.17864 0.59557 0.53000
 H2601 H 0.20770 0.67533 0.49760
 H2602 H 0.24561 0.67648 0.53922
 H2603 H 0.18858 0.62260 0.51719
 H2604 H 0.19731 0.64721 0.50740
 C2605 C 0.21313 0.12908 1.04058
 C2606 C 0.19750 0.12230 1.03338
 C2607 C 0.19035 0.10655 1.03984
 C2608 C 0.19845 0.09744 1.05361
 C2609 C 0.21397 0.10420 1.06065
 C2610 C 0.22123 0.11974 1.05425
 C2611 C 0.22018 0.14608 1.03354
 C2612 C 0.23561 0.15389 1.03985
 C2613 C 0.24131 0.17004 1.03336
 C2614 C 0.23186 0.17890 1.02033
 C2615 C 0.21668 0.17101 1.01363
 C2616 C 0.21079 0.15476 1.02014
 C2617 C 0.18899 0.13140 1.01992
 C2618 C 0.19545 0.14728 1.01349
 H2619 H 0.17702 0.12623 1.01438
 H2620 H 0.18826 0.15388 1.00320
 H2621 H 0.17833 0.10154 1.03428
 H2622 H 0.22059 0.09750 1.07123
 H2623 H 0.25309 0.17571 1.03878
 H2624 H 0.20920 0.17767 1.00359
 H2625 H 0.23312 0.12422 1.06032
 H2626 H 0.24343 0.14788 1.04992
 C2627 C 0.21181 0.70999 0.61877
 C2628 C 0.19665 0.71782 0.62590
 C2629 C 0.18989 0.71183 0.64191
 C2630 C 0.19795 0.69797 0.65100
 C2631 C 0.21303 0.69034 0.64392
 C2632 C 0.21989 0.69624 0.62809
 C2633 C 0.21843 0.71655 0.60151
 C2634 C 0.23330 0.70952 0.59326
 C2635 C 0.23866 0.71570 0.57696
 C2636 C 0.22943 0.72911 0.56838
 C2637 C 0.21476 0.73643 0.57664
 C2638 C 0.20921 0.73024 0.59303
 C2639 C 0.18824 0.73147 0.61694
 C2640 C 0.19436 0.73752 0.60086
 H2641 H 0.17665 0.73749 0.62238
 H2642 H 0.18729 0.74802 0.59441
 H2643 H 0.17823 0.71787 0.64718
 H2644 H 0.21960 0.67968 0.65059
 H2645 H 0.25002 0.70976 0.57099
 H2646 H 0.20744 0.74674 0.57018
 H2647 H 0.23146 0.68975 0.62338
 H2648 H 0.24092 0.69914 0.59906
 C2649 C 0.21332 0.20999 1.12093
 C2650 C 0.19845 0.21821 1.12819
 C2651 C 0.19139 0.21207 1.14400
 C2652 C 0.19873 0.19752 1.15272
 C2653 C 0.21357 0.18951 1.14542
 C2654 C 0.22077 0.19564 1.12984
 C2655 C 0.22027 0.21675 1.10388
 C2656 C 0.23503 0.20953 1.09562
 C2657 C 0.24064 0.21586 1.07948
 C2658 C 0.23176 0.22961 1.07108
 C2659 C 0.21724 0.23716 1.07938
 C2660 C 0.21146 0.23085 1.09563
 C2661 C 0.19053 0.23233 1.11952
 C2662 C 0.19684 0.23846 1.10356
 H2663 H 0.17913 0.23863 1.12506
 H2664 H 0.19011 0.24929 1.09728
 H2665 H 0.17994 0.21851 1.14929
 H2666 H 0.21970 0.17832 1.15168
 H2667 H 0.25190 0.20976 1.07347
 H2668 H 0.21022 0.24779 1.07307
 H2669 H 0.23206 0.18880 1.12496
 H2670 H 0.24240 0.19889 1.10130
 C2671 C 0.71431 0.54130 0.13104
 C2672 C 0.69956 0.53293 0.12361
 C2673 C 0.69264 0.53894 0.10769
 C2674 C 0.70012 0.55335 0.09898
 C2675 C 0.71486 0.56147 0.10629
 C2676 C 0.72188 0.55555 0.12205
 C2677 C 0.72102 0.53477 0.14828
 C2678 C 0.73544 0.54236 0.15686
 C2679 C 0.74086 0.53617 0.17315
 C2680 C 0.73211 0.52221 0.18135
 C2681 C 0.71790 0.51436 0.17275
 C2682 C 0.71230 0.52054 0.15639
 C2683 C 0.69167 0.51876 0.13222
 C2684 C 0.69789 0.51270 0.14825
 H2685 H 0.68039 0.51232 0.12653
 H2686 H 0.69122 0.50178 0.15443
 H2687 H 0.68125 0.53252 0.10223
 H2688 H 0.72099 0.57256 0.09989
 H2689 H 0.75185 0.54253 0.17941
 H2690 H 0.71097 0.50359 0.17891
 H2691 H 0.73315 0.56243 0.12697
 H2692 H 0.74265 0.55319 0.15136
 C2693 C 0.71161 1.03543 0.62806
 C2694 C 0.71767 1.05184 0.62175
 C2695 C 0.71090 1.05886 0.60615
 C2696 C 0.69790 1.04988 0.59677
 C2697 C 0.69213 1.03350 0.60295
 C2698 C 0.69889 1.02634 0.61831
 C2699 C 0.71864 1.02872 0.64511
 C2700 C 0.71321 1.01271 0.65264
 C2701 C 0.71937 1.00751 0.66900
 C2702 C 0.73122 1.01802 0.67831
 C2703 C 0.73720 1.03370 0.67063
 C2704 C 0.73095 1.03914 0.65423
 C2705 C 0.73019 1.06131 0.63122
 C2706 C 0.73666 1.05512 0.64712
 H2707 H 0.73489 1.07384 0.62639
 H2708 H 0.74613 1.06308 0.65406
 H2709 H 0.71548 1.07153 0.60156
 H2710 H 0.68222 1.02616 0.59597
 H2711 H 0.71458 0.99531 0.67450
 H2712 H 0.74632 1.04201 0.67765
 H2713 H 0.69378 1.01379 0.62238
 H2714 H 0.70400 1.00411 0.64628
 C2715 C 0.53955 0.21367 0.62738
 C2716 C 0.53182 0.19827 0.62040
 C2717 C 0.53833 0.19080 0.60494
 C2718 C 0.55265 0.19829 0.59627
 C2719 C 0.56013 0.21370 0.60309
 C2720 C 0.55368 0.22132 0.61839
 C2721 C 0.53258 0.22087 0.64426
 C2722 C 0.53951 0.23594 0.65246
 C2723 C 0.53319 0.24155 0.66864
 C2724 C 0.51973 0.23237 0.67708
 C2725 C 0.51235 0.21768 0.66872
 C2726 C 0.51870 0.21185 0.65251
 C2727 C 0.51785 0.19022 0.62903
 C2728 C 0.51145 0.19684 0.64475
 H2729 H 0.51190 0.17846 0.62367
 H2730 H 0.50078 0.18997 0.65104
 H2731 H 0.53238 0.17891 0.59986
 H2732 H 0.57114 0.21985 0.59669
 H2733 H 0.53914 0.25295 0.67471
 H2734 H 0.50195 0.21041 0.67503
 H2735 H 0.56009 0.23305 0.62301
 H2736 H 0.54999 0.24345 0.64677
 C2737 C 1.03958 0.21491 0.12636
 C2738 C 1.03188 0.19967 0.11903
 C2739 C 1.03845 0.19252 0.10342
 C2740 C 1.05291 0.20014 0.09497
 C2741 C 1.06038 0.21536 0.10232
 C2742 C 1.05383 0.22264 0.11770
 C2743 C 1.03249 0.22185 0.14329
 C2744 C 1.03925 0.23691 0.15165
 C2745 C 1.03288 0.24227 0.16787
 C2746 C 1.01953 0.23285 0.17623
 C2747 C 1.01225 0.21821 0.16769
 C2748 C 1.01864 0.21265 0.15139
 C2749 C 1.01787 0.19147 0.12747
 C2750 C 1.01144 0.19776 0.14333
 H2751 H 1.01193 0.17982 0.12186
 H2752 H 1.00077 0.19076 0.14947
 H2753 H 1.03241 0.18079 0.09808
 H2754 H 1.07148 0.22173 0.09626
 H2755 H 1.03872 0.25368 0.17402
 H2756 H 1.00190 0.21081 0.17393
 H2757 H 1.06029 0.23422 0.12265
 H2758 H 1.04962 0.24462 0.14604
 C2759 C 0.62294 0.21454 0.71389
 C2760 C 0.62899 0.22073 0.69753
 C2761 C 0.64467 0.21427 0.69051
 C2762 C 0.65441 0.20149 0.69949
 C2763 C 0.64854 0.19571 0.71588
 C2764 C 0.63309 0.20214 0.72302
 C2765 C 0.60574 0.22109 0.72054
 C2766 C 0.59834 0.21529 0.73639
 C2767 C 0.58184 0.22098 0.74153
 C2768 C 0.57227 0.23271 0.73112
 C2769 C 0.57978 0.23905 0.71560
 C2770 C 0.59631 0.23324 0.71020
 C2771 C 0.61920 0.23307 0.68812
 C2772 C 0.60322 0.23920 0.69432
 H2773 H 0.62385 0.23790 0.67564
 H2774 H 0.59604 0.24855 0.68641
 H2775 H 0.64904 0.21889 0.67785
 H2776 H 0.65581 0.18599 0.72323
 H2777 H 0.57646 0.21594 0.75361
 H2778 H 0.57253 0.24807 0.70737
 H2779 H 0.62929 0.19702 0.73558
 H2780 H 0.60490 0.20614 0.74489
 C2781 C 1.12224 0.21496 0.21050
 C2782 C 1.12908 0.19930 0.21778
 C2783 C 1.14467 0.19218 0.21132
 C2784 C 1.15356 0.20025 0.19742
 C2785 C 1.14686 0.21587 0.19035
 C2786 C 1.13145 0.22317 0.19680
 C2787 C 1.10524 0.22179 0.21739
 C2788 C 1.09726 0.23717 0.21096
 C2789 C 1.08096 0.24243 0.21709
 C2790 C 1.07216 0.23259 0.22986
 C2791 C 1.08030 0.21760 0.23682
 C2792 C 1.09666 0.21213 0.23067
 C2793 C 1.12017 0.19063 0.23123
 C2794 C 1.10428 0.19686 0.23748
 H2795 H 1.12543 0.17866 0.23682
 H2796 H 1.09776 0.18950 0.24770
 H2797 H 1.14965 0.18008 0.21692
 H2798 H 1.15344 0.22244 0.17968
 H2799 H 1.07509 0.25412 0.21152
 H2800 H 1.07370 0.20985 0.24670
 H2801 H 1.12691 0.23510 0.19070
 H2802 H 1.10323 0.24521 0.20103
 C2803 C 0.12671 0.71419 0.53676
 C2804 C 0.11958 0.69866 0.52944
 C2805 C 0.10367 0.69199 0.53564
 C2806 C 0.09467 0.70048 0.54922
 C2807 C 0.10162 0.71606 0.55620
 C2808 C 0.11736 0.72286 0.55007
 C2809 C 0.14404 0.72052 0.53023
 C2810 C 0.15244 0.73556 0.53698
 C2811 C 0.16884 0.74057 0.53090
 C2812 C 0.17734 0.73082 0.51786
 C2813 C 0.16894 0.71598 0.51083
 C2814 C 0.15248 0.71075 0.51694
 C2815 C 0.12850 0.68974 0.51615
 C2816 C 0.14457 0.69566 0.51003
 H2817 H 0.12303 0.67788 0.51049
 H2818 H 0.15101 0.68818 0.49984
 H2819 H 0.09847 0.67996 0.53007
 H2820 H 0.09497 0.72300 0.56661
 H2821 H 0.17494 0.75208 0.53659
 H2822 H 0.17535 0.70825 0.50081
 H2823 H 0.12202 0.73480 0.55608
 H2824 H 0.14671 0.74355 0.54709
 C2825 C 0.13002 0.21166 1.03628
 C2826 C 0.12330 0.21886 1.05197
 C2827 C 0.10729 0.21290 1.05864
 C2828 C 0.09783 0.19967 1.05000
 C2829 C 0.10439 0.19281 1.03430
 C2830 C 0.12020 0.19872 1.02749
 C2831 C 0.14742 0.21795 1.02990
 C2832 C 0.15539 0.21135 1.01466
 C2833 C 0.17183 0.21724 1.00954
 C2834 C 0.18080 0.22993 1.01939
 C2835 C 0.17286 0.23677 1.03448
 C2836 C 0.15635 0.23086 1.03981
 C2837 C 0.13272 0.23175 1.06105
 C2838 C 0.14888 0.23762 1.05511
 H2839 H 0.12758 0.23729 1.07304
 H2840 H 0.15570 0.24750 1.06270
 H2841 H 0.10240 0.21834 1.07079
 H2842 H 0.09737 0.18267 1.02725
 H2843 H 0.17758 0.21169 0.99784
 H2844 H 0.17964 0.24652 1.04230
 H2845 H 0.12454 0.19282 1.01545
 H2846 H 0.14927 0.20152 1.00656
 C2847 C 0.62965 0.53705 0.21268
 C2848 C 0.62285 0.55300 0.21936
 C2849 C 0.60694 0.55962 0.21301
 C2850 C 0.59768 0.55063 0.19990
 C2851 C 0.60437 0.53468 0.19354
 C2852 C 0.62007 0.52796 0.19982
 C2853 C 0.64692 0.53069 0.21940
 C2854 C 0.65492 0.51518 0.21331
 C2855 C 0.67126 0.51012 0.21949
 C2856 C 0.68011 0.52029 0.23198
 C2857 C 0.67211 0.53561 0.23840
 C2858 C 0.65568 0.54090 0.23216
 C2859 C 0.63208 0.56237 0.23216
 C2860 C 0.64813 0.55645 0.23841
 H2861 H 0.62688 0.57457 0.23732
 H2862 H 0.65480 0.56428 0.24820
 H2863 H 0.60196 0.57195 0.21807
 H2864 H 0.59751 0.52735 0.18351
 H2865 H 0.67704 0.49821 0.21430
 H2866 H 0.67881 0.54367 0.24798
 H2867 H 0.62448 0.51571 0.19429
 H2868 H 0.64891 0.50681 0.20365
 C2869 C 0.62658 1.03367 0.71332
 C2870 C 0.61957 1.04935 0.72042
 C2871 C 0.60375 1.05610 0.71404
 C2872 C 0.59478 1.04758 0.70042
 C2873 C 0.60159 1.03184 0.69369
 C2874 C 0.61721 1.02494 0.70004
 C2875 C 0.64390 1.02736 0.71991
 C2876 C 0.65218 1.01217 0.71339
 C2877 C 0.66873 1.00737 0.71925
 C2878 C 0.67750 1.01748 0.73186
 C2879 C 0.66912 1.03233 0.73886
 C2880 C 0.65251 1.03736 0.73294
 C2881 C 0.62856 1.05840 0.73360
 C2882 C 0.64467 1.05255 0.73971
 H2883 H 0.62317 1.07036 0.73910
 H2884 H 0.65121 1.06018 0.74973
 H2885 H 0.59866 1.06825 0.71941
 H2886 H 0.59495 1.02487 0.68328
 H2887 H 0.67477 0.99579 0.71366
 H2888 H 0.67570 1.04030 0.74860
 H2889 H 0.62179 1.01291 0.69418
 H2890 H 0.64626 1.00393 0.70357
 C2891 C 0.87224 0.46258 0.28894
 C2892 C 0.87834 0.46844 0.30542
 C2893 C 0.89385 0.46157 0.31245
 C2894 C 0.90336 0.44865 0.30341
 C2895 C 0.89729 0.44296 0.28705
 C2896 C 0.88202 0.44982 0.27988
 C2897 C 0.85540 0.46989 0.28209
 C2898 C 0.84824 0.46486 0.26588
 C2899 C 0.83208 0.47126 0.26049
 C2900 C 0.82260 0.48296 0.27103
 C2901 C 0.82992 0.48858 0.28693
 C2902 C 0.84615 0.48210 0.29254
 C2903 C 0.86876 0.48089 0.31493
 C2904 C 0.85299 0.48751 0.30866
 H2905 H 0.87341 0.48540 0.32754
 H2906 H 0.84595 0.49690 0.31665
 H2907 H 0.89832 0.46607 0.32514
 H2908 H 0.90434 0.43308 0.27970
 H2909 H 0.82687 0.46678 0.24810
 H2910 H 0.82276 0.49759 0.29524
 H2911 H 0.87806 0.44478 0.26732
 H2912 H 0.85475 0.45581 0.25722
 C2913 C 0.87018 0.96404 0.79085
 C2914 C 0.87684 0.94820 0.78376
 C2915 C 0.89252 0.94114 0.79012
 C2916 C 0.90173 0.94953 0.80364
 C2917 C 0.89520 0.96534 0.81046
 C2918 C 0.87969 0.97254 0.80417
 C2919 C 0.85313 0.97087 0.78405
 C2920 C 0.84524 0.98633 0.79043
 C2921 C 0.82907 0.99181 0.78411
 C2922 C 0.82032 0.98210 0.77119
 C2923 C 0.82823 0.96685 0.76451
 C2924 C 0.84444 0.96116 0.77086
 C2925 C 0.86769 0.93935 0.77056
 C2926 C 0.85184 0.94568 0.76426
 H2927 H 0.87279 0.92723 0.76512
 H2928 H 0.84519 0.93825 0.75416
 H2929 H 0.89738 0.92890 0.78470
 H2930 H 0.90202 0.97218 0.82084
 H2931 H 0.82332 1.00362 0.78953
 H2932 H 0.82161 0.95914 0.75459
 H2933 H 0.87535 0.98466 0.81004
 H2934 H 0.85121 0.99431 0.80043
 C2935 C 0.37911 0.28582 0.78844
 C2936 C 0.37262 0.30191 0.78177
 C2937 C 0.35686 0.30883 0.78810
 C2938 C 0.34744 0.30008 0.80122
 C2939 C 0.35382 0.28404 0.80764
 C2940 C 0.36938 0.27697 0.80135
 C2941 C 0.39622 0.27913 0.78169
 C2942 C 0.40391 0.26340 0.78765
 C2943 C 0.42016 0.25805 0.78144
 C2944 C 0.42920 0.26814 0.76905
 C2945 C 0.42148 0.28366 0.76276
 C2946 C 0.40518 0.28923 0.76901
 C2947 C 0.38201 0.31114 0.76904
 C2948 C 0.39794 0.30495 0.76281
 H2949 H 0.37704 0.32345 0.76391
 H2950 H 0.40478 0.31269 0.75309
 H2951 H 0.35213 0.32126 0.78301
 H2952 H 0.34684 0.27692 0.81770
 H2953 H 0.42573 0.24600 0.78653
 H2954 H 0.42832 0.29167 0.75325
 H2955 H 0.37360 0.26466 0.80691
 H2956 H 0.39772 0.25509 0.79722
 C2957 C 0.87923 0.28830 0.28568
 C2958 C 0.87286 0.28156 0.30170
 C2959 C 0.85701 0.28774 0.30856
 C2960 C 0.84740 0.30077 0.29980
 C2961 C 0.85369 0.30727 0.28385
 C2962 C 0.86933 0.30113 0.27685
 C2963 C 0.89641 0.28169 0.27901
 C2964 C 0.90394 0.28771 0.26333
 C2965 C 0.92021 0.28162 0.25795
 C2966 C 0.92945 0.26927 0.26797
 C2967 C 0.92191 0.26292 0.28346
 C2968 C 0.90556 0.26906 0.28906
 C2969 C 0.88245 0.26891 0.31090
 C2970 C 0.89846 0.26282 0.30474
 H2971 H 0.87759 0.26374 0.32317
 H2972 H 0.90545 0.25316 0.31245
 H2973 H 0.85235 0.28260 0.32092
 H2974 H 0.84656 0.31727 0.27672
 H2975 H 0.92563 0.28675 0.24592
 H2976 H 0.92892 0.25346 0.29141
 H2977 H 0.87345 0.30675 0.26460
 H2978 H 0.89761 0.29724 0.25506
 C2979 C 0.37086 0.78285 0.45960
 C2980 C 0.37830 0.79773 0.46787
 C2981 C 0.39421 0.80462 0.46190
 C2982 C 0.40287 0.79705 0.44758
 C2983 C 0.39557 0.78215 0.43957
 C2984 C 0.37983 0.77510 0.44548
 C2985 C 0.35354 0.77629 0.46600
 C2986 C 0.34491 0.76174 0.45855
 C2987 C 0.32843 0.75667 0.46443
 C2988 C 0.32011 0.76589 0.47796
 C2989 C 0.32884 0.78010 0.48581
 C2990 C 0.34537 0.78537 0.47993
 C2991 C 0.36971 0.80587 0.48184
 C2992 C 0.35359 0.79985 0.48771
 H2993 H 0.37542 0.81724 0.48820
 H2994 H 0.34737 0.80676 0.49842
 H2995 H 0.39965 0.81613 0.46825
 H2996 H 0.40195 0.77595 0.42854
 H2997 H 0.32209 0.74562 0.45813
 H2998 H 0.32262 0.78737 0.49628
 H2999 H 0.37486 0.76374 0.43868
 H3000 H 0.35050 0.75421 0.44801
 C3001 C 0.37332 0.28844 0.96452
 C3002 C 0.38023 0.28068 0.94920
 C3003 C 0.39579 0.28709 0.94192
 C3004 C 0.40463 0.30135 0.94956
 C3005 C 0.39787 0.30884 0.96489
 C3006 C 0.38248 0.30249 0.97230
 C3007 C 0.35633 0.28162 0.97149
 C3008 C 0.34822 0.28861 0.98649
 C3009 C 0.33195 0.28245 0.99190
 C3010 C 0.32332 0.26911 0.98261
 C3011 C 0.33159 0.26164 0.96799
 C3012 C 0.34790 0.26782 0.96236
 C3013 C 0.37143 0.26677 0.94102
 C3014 C 0.35561 0.26051 0.94744
 H3015 H 0.37674 0.26078 0.92932
 H3016 H 0.34920 0.24989 0.94048
 H3017 H 0.40083 0.28112 0.93008
 H3018 H 0.40439 0.31980 0.97116
 H3019 H 0.32599 0.28844 1.00327
 H3020 H 0.32512 0.25131 0.96066
 H3021 H 0.37791 0.30893 0.98399
 H3022 H 0.35405 0.29900 0.99409
 C3023 C 0.78555 0.46282 0.37452
 C3024 C 0.80147 0.46957 0.38110
 C3025 C 0.80845 0.46300 0.39677
 C3026 C 0.79992 0.44956 0.40602
 C3027 C 0.78399 0.44315 0.39962
 C3028 C 0.77686 0.44968 0.38415
 C3029 C 0.77892 0.46966 0.35737
 C3030 C 0.76346 0.46350 0.34949
 C3031 C 0.75831 0.46961 0.33308
 C3032 C 0.76835 0.48210 0.32409
 C3033 C 0.78350 0.48872 0.33207
 C3034 C 0.78888 0.48254 0.34850
 C3035 C 0.81050 0.48259 0.37185
 C3036 C 0.80436 0.48892 0.35590
 H3037 H 0.82266 0.48780 0.37690
 H3038 H 0.81197 0.49882 0.34914
 H3039 H 0.82077 0.46812 0.40154
 H3040 H 0.77702 0.43287 0.40649
 H3041 H 0.74653 0.46430 0.32732
 H3042 H 0.79144 0.49833 0.32528
 H3043 H 0.76467 0.44408 0.37989
 H3044 H 0.75526 0.45379 0.35562
 C3045 C 0.78761 0.96285 0.87178
 C3046 C 0.80362 0.96975 0.87797
 C3047 C 0.81094 0.96338 0.89359
 C3048 C 0.80263 0.95003 0.90316
 C3049 C 0.78659 0.94351 0.89714
 C3050 C 0.77915 0.94982 0.88174
 C3051 C 0.78059 0.96945 0.85468
 C3052 C 0.76504 0.96307 0.84717
 C3053 C 0.75944 0.96907 0.83088
 C3054 C 0.76909 0.98168 0.82162
 C3055 C 0.78440 0.98843 0.82918
 C3056 C 0.79024 0.98237 0.84552
 C3057 C 0.81237 0.98273 0.86840
 C3058 C 0.80582 0.98891 0.85254
 H3059 H 0.82459 0.98808 0.87315
 H3060 H 0.81320 0.99882 0.84555
 H3061 H 0.82333 0.96859 0.89807
 H3062 H 0.77977 0.93330 0.90426
 H3063 H 0.74756 0.96363 0.82544
 H3064 H 0.79206 0.99811 0.82217
 H3065 H 0.76688 0.94414 0.87781
 H3066 H 0.75710 0.95327 0.85351
 C3067 C 0.28546 0.78457 0.37493
 C3068 C 0.27930 0.80093 0.36861
 C3069 C 0.28615 0.80808 0.35312
 C3070 C 0.29933 0.79927 0.34385
 C3071 C 0.30517 0.78291 0.35002
 C3072 C 0.29834 0.77563 0.36527
 C3073 C 0.27838 0.77776 0.39190
 C3074 C 0.28391 0.76179 0.39942
 C3075 C 0.27778 0.75655 0.41576
 C3076 C 0.26586 0.76696 0.42506
 C3077 C 0.25973 0.78256 0.41736
 C3078 C 0.26595 0.78806 0.40097
 C3079 C 0.26662 0.81025 0.37798
 C3080 C 0.26012 0.80397 0.39382
 H3081 H 0.26184 0.82274 0.37314
 H3082 H 0.25054 0.81183 0.40070
 H3083 H 0.28149 0.82072 0.34854
 H3084 H 0.31522 0.77572 0.34313
 H3085 H 0.28266 0.74438 0.42125
 H3086 H 0.25053 0.79077 0.42438
 H3087 H 0.30353 0.76312 0.36935
 H3088 H 0.29318 0.75327 0.39309
 C3089 C 0.28890 0.28607 0.87806
 C3090 C 0.28247 0.30229 0.87166
 C3091 C 0.28885 0.30923 0.85587
 C3092 C 0.30180 0.30033 0.84636
 C3093 C 0.30791 0.28412 0.85263
 C3094 C 0.30156 0.27705 0.86819
 C3095 C 0.28225 0.27943 0.89528
 C3096 C 0.28809 0.26363 0.90290
 C3097 C 0.28218 0.25844 0.91934
 C3098 C 0.27019 0.26876 0.92865
 C3099 C 0.26389 0.28429 0.92093
 C3100 C 0.26988 0.28971 0.90443
 C3101 C 0.26995 0.31166 0.88120
 C3102 C 0.26381 0.30552 0.89724
 H3103 H 0.26498 0.32405 0.87630
 H3104 H 0.25430 0.31338 0.90421
 H3105 H 0.28399 0.32177 0.85121
 H3106 H 0.31780 0.27685 0.84557
 H3107 H 0.28723 0.24635 0.92488
 H3108 H 0.25466 0.29245 0.92796
 H3109 H 0.30693 0.26462 0.87231
 H3110 H 0.29740 0.25516 0.89655
 C3111 C 0.46051 0.28604 0.87034
 C3112 C 0.46837 0.30128 0.87751
 C3113 C 0.46234 0.30825 0.89340
 C3114 C 0.44838 0.30036 0.90235
 C3115 C 0.44076 0.28514 0.89530
 C3116 C 0.44672 0.27805 0.87956
 C3117 C 0.46706 0.27930 0.85310
 C3118 C 0.45997 0.26441 0.84473
 C3119 C 0.46612 0.25901 0.82841
 C3120 C 0.47955 0.26824 0.81998
 C3121 C 0.48692 0.28291 0.82838
 C3122 C 0.48077 0.28851 0.84476
 C3123 C 0.48207 0.30962 0.86870
 C3124 C 0.48812 0.30338 0.85268
 H3125 H 0.48812 0.32126 0.87420
 H3126 H 0.49865 0.31041 0.84632
 H3127 H 0.46839 0.32001 0.89865
 H3128 H 0.43002 0.27870 0.90188
 H3129 H 0.46016 0.24764 0.82232
 H3130 H 0.49728 0.29023 0.82205
 H3131 H 0.44024 0.26640 0.87481
 H3132 H 0.44956 0.25681 0.85043
 C3133 C 0.96225 0.28741 0.36972
 C3134 C 0.94594 0.28110 0.37570
 C3135 C 0.93900 0.28726 0.39158
 C3136 C 0.94798 0.29985 0.40158
 C3137 C 0.96422 0.30591 0.39566
 C3138 C 0.97129 0.29978 0.38003
 C3139 C 0.96902 0.28088 0.35250
 C3140 C 0.98499 0.28653 0.34535
 C3141 C 0.99045 0.28057 0.32901
 C3142 C 0.98025 0.26873 0.31933
 C3143 C 0.96446 0.26273 0.32650
 C3144 C 0.95877 0.26875 0.34291
 C3145 C 0.93655 0.26891 0.36568
 C3146 C 0.94280 0.26290 0.34963
 H3147 H 0.92406 0.26406 0.37023
 H3148 H 0.93494 0.25361 0.34230
 H3149 H 0.92642 0.28248 0.39596
 H3150 H 0.97154 0.31553 0.40310
 H3151 H 1.00271 0.28541 0.32388
 H3152 H 0.95637 0.25366 0.31915
 H3153 H 0.98376 0.30505 0.37623
 H3154 H 0.99342 0.29567 0.35203
 C3155 C 0.46285 0.37124 0.78896
 C3156 C 0.44653 0.37757 0.78302
 C3157 C 0.43987 0.39353 0.78950
 C3158 C 0.44915 0.40325 0.80206
 C3159 C 0.46543 0.39702 0.80770
 C3160 C 0.47221 0.38132 0.80125
 C3161 C 0.46929 0.35393 0.78215
 C3162 C 0.48520 0.34643 0.78751
 C3163 C 0.49038 0.33001 0.78130
 C3164 C 0.47994 0.32059 0.76949
 C3165 C 0.46419 0.32809 0.76379
 C3166 C 0.45877 0.34459 0.77007
 C3167 C 0.43685 0.36780 0.77087
 C3168 C 0.44283 0.35167 0.76455
 H3169 H 0.42436 0.37262 0.76628
 H3170 H 0.43476 0.34455 0.75530
 H3171 H 0.42726 0.39815 0.78503
 H3172 H 0.47298 0.40426 0.81728
 H3173 H 0.50263 0.32464 0.78591
 H3174 H 0.45592 0.32092 0.75474
 H3175 H 0.48473 0.37728 0.80623
 H3176 H 0.49382 0.35288 0.79661
 C3177 C 0.96317 0.37129 0.28914
 C3178 C 0.94732 0.37805 0.28244
 C3179 C 0.94044 0.39383 0.28908
 C3180 C 0.94902 0.40298 0.30254
 C3181 C 0.96486 0.39636 0.30893
 C3182 C 0.97187 0.38080 0.30233
 C3183 C 0.96978 0.35410 0.28214
 C3184 C 0.98525 0.34617 0.28817
 C3185 C 0.99051 0.32984 0.28179
 C3186 C 0.98060 0.32093 0.26915
 C3187 C 0.96536 0.32891 0.26274
 C3188 C 0.95987 0.34533 0.26917
 C3189 C 0.93829 0.36886 0.26937
 C3190 C 0.94442 0.35286 0.26290
 H3191 H 0.92618 0.37403 0.26420
 H3192 H 0.93684 0.34619 0.25294
 H3193 H 0.92818 0.39877 0.28401
 H3194 H 0.97187 0.40314 0.31922
 H3195 H 1.00237 0.32411 0.28696
 H3196 H 0.95752 0.32218 0.25300
 H3197 H 0.98401 0.37641 0.30792
 H3198 H 0.99342 0.35221 0.29795
 C3199 C 0.28369 0.87278 0.46187
 C3200 C 0.29886 0.87978 0.46980
 C3201 C 0.30570 0.89593 0.46411
 C3202 C 0.29777 0.90525 0.45039
 C3203 C 0.28256 0.89842 0.44277
 C3204 C 0.27558 0.88245 0.44842
 C3205 C 0.27721 0.85517 0.46788
 C3206 C 0.26244 0.84691 0.46061
 C3207 C 0.25738 0.83017 0.46610
 C3208 C 0.26682 0.82119 0.47904
 C3209 C 0.28131 0.82951 0.48669
 C3210 C 0.28658 0.84631 0.48118
 C3211 C 0.30732 0.87050 0.48315
 C3212 C 0.30132 0.85412 0.48870
 H3213 H 0.31891 0.87588 0.48927
 H3214 H 0.30847 0.84738 0.49893
 H3215 H 0.31745 0.90102 0.47015
 H3216 H 0.27608 0.90532 0.43222
 H3217 H 0.24612 0.82417 0.45998
 H3218 H 0.28876 0.82277 0.49670
 H3219 H 0.26396 0.87787 0.44192
 H3220 H 0.25471 0.85300 0.45052
 C3221 C 0.28932 0.37354 0.96607
 C3222 C 0.28252 0.38028 0.95022
 C3223 C 0.28911 0.39603 0.94323
 C3224 C 0.30268 0.40513 0.95165
 C3225 C 0.30919 0.39854 0.96749
 C3226 C 0.30260 0.38303 0.97465
 C3227 C 0.28243 0.35632 0.97271
 C3228 C 0.28848 0.34839 0.98821
 C3229 C 0.28241 0.33188 0.99332
 C3230 C 0.27005 0.32280 0.98320
 C3231 C 0.26346 0.33088 0.96805
 C3232 C 0.26958 0.34746 0.96273
 C3233 C 0.26947 0.37108 0.94122
 C3234 C 0.26319 0.35500 0.94731
 H3235 H 0.26423 0.37625 0.92910
 H3236 H 0.25330 0.34827 0.93969
 H3237 H 0.28395 0.40092 0.93097
 H3238 H 0.31958 0.40530 0.97435
 H3239 H 0.28767 0.32608 1.00512
 H3240 H 0.25391 0.32407 0.96008
 H3241 H 0.30829 0.37861 0.98675
 H3242 H 0.29809 0.35456 0.99648
 C3243 C 0.78850 0.37785 0.28597
 C3244 C 0.78165 0.37098 0.30174
 C3245 C 0.78805 0.35505 0.30853
 C3246 C 0.80142 0.34585 0.29994
 C3247 C 0.80793 0.35257 0.28415
 C3248 C 0.80158 0.36828 0.27723
 C3249 C 0.78183 0.39523 0.27952
 C3250 C 0.78808 0.40334 0.26419
 C3251 C 0.78214 0.41994 0.25922
 C3252 C 0.76973 0.42894 0.26930
 C3253 C 0.76301 0.42073 0.28431
 C3254 C 0.76901 0.40407 0.28952
 C3255 C 0.76869 0.38021 0.31080
 C3256 C 0.76252 0.39639 0.30484
 H3257 H 0.76338 0.37495 0.32284
 H3258 H 0.75266 0.40311 0.31247
 H3259 H 0.78287 0.35004 0.32073
 H3260 H 0.81815 0.34576 0.27712
 H3261 H 0.78752 0.42585 0.24753
 H3262 H 0.75343 0.42750 0.29226
 H3263 H 0.80726 0.37275 0.26515
 H3264 H 0.79773 0.39724 0.25595
   
