data_POSCAR
  _audit_creation_date              2014-09-24
  _audit_creation_method            'ToBaCCo'
  _symmetry_space_group_name_H-M    'P1'
  _symmetry_Int_Tables_number       1
  _symmetry_cell_setting            triclinic
  loop_
  _symmetry_equiv_pos_as_xyz
 x,y,z
_cell_length_a 41.1868
_cell_length_b 41.1908
_cell_length_c 41.1421
_cell_angle_alpha 90.017200
_cell_angle_beta 90.013500
_cell_angle_gamma 90.000500
loop_
  _atom_site_label
  _atom_site_type_symbol
  _atom_site_fract_x
  _atom_site_fract_y
  _atom_site_fract_z
C1 C 0.37202 1.34938 0.32536
 C2 C 0.37219 1.32511 0.34930
 C3 C 0.34844 1.32473 0.37291
 C4 C 0.32416 1.34861 0.37304
 C5 C 0.32404 1.37243 0.34957
 C6 C 0.34817 1.37281 0.32551
 C7 C 0.39092 1.35465 0.29833
 N8 N 0.37923 1.38083 0.28159
 C9 C 0.35292 1.39196 0.29858
 C10 C 0.29689 1.39115 0.35462
 N11 N 0.28004 1.37941 0.38071
 C12 C 0.29706 1.35321 0.39200
 C13 C 0.35350 1.29759 0.39165
 N14 N 0.37986 1.28114 0.38012
 C15 C 0.39133 1.29818 0.35410
 H16 H 0.41127 1.33960 0.29157
 H17 H 0.33737 1.41200 0.29198
 H18 H 0.29018 1.41146 0.33948
 H19 H 0.29042 1.33769 0.41208
 H20 H 0.33823 1.29037 0.41171
 H21 H 0.41170 1.29155 0.33897
 C22 C 0.37252 0.84914 0.82603
 C23 C 0.37258 0.82503 0.85009
 C24 C 0.34872 0.82471 0.87356
 C25 C 0.32441 0.84857 0.87345
 C26 C 0.32433 0.87226 0.84983
 C27 C 0.34859 0.87254 0.82586
 C28 C 0.39158 0.85423 0.79910
 N29 N 0.37990 0.88022 0.78219
 C30 C 0.35348 0.89146 0.79877
 C31 C 0.29713 0.89098 0.85471
 N32 N 0.28024 0.87937 0.88085
 C33 C 0.29727 0.85323 0.89230
 C34 C 0.35370 0.79761 0.89239
 N35 N 0.38010 0.78113 0.88101
 C36 C 0.39170 0.79813 0.85503
 H37 H 0.41203 0.83927 0.79236
 H38 H 0.33805 0.91142 0.79164
 H39 H 0.29042 0.91122 0.83948
 H40 H 0.29063 0.83781 0.91245
 H41 H 0.33832 0.79040 0.91238
 H42 H 0.41210 0.79147 0.83995
 C43 C 0.87168 1.34916 0.82472
 C44 C 0.87199 1.32497 0.84875
 C45 C 0.84840 1.32470 0.87251
 C46 C 0.82412 1.34857 0.87269
 C47 C 0.82383 1.37230 0.84912
 C48 C 0.84783 1.37260 0.82489
 C49 C 0.89052 1.35441 0.79765
 N50 N 0.87883 1.38058 0.78090
 C51 C 0.85254 1.39173 0.79792
 C52 C 0.79671 1.39104 0.85432
 N53 N 0.78006 1.37938 0.88059
 C54 C 0.79719 1.35323 0.89184
 C55 C 0.85360 1.29769 0.89138
 N56 N 0.87988 1.28117 0.87978
 C57 C 0.89118 1.29807 0.85358
 H58 H 0.91087 1.33934 0.79091
 H59 H 0.83704 1.41183 0.79135
 H60 H 0.78984 1.41128 0.83916
 H61 H 0.79075 1.33781 0.91206
 H62 H 0.83849 1.29062 0.91162
 H63 H 0.91143 1.29134 0.83834
 C64 C 0.87240 0.84978 0.32482
 C65 C 0.87246 0.82553 0.34880
 C66 C 0.84891 0.82548 0.37262
 C67 C 0.82490 0.84965 0.37289
 C68 C 0.82490 0.87344 0.34935
 C69 C 0.84883 0.87349 0.32512
 C70 C 0.89113 0.85484 0.29764
 N71 N 0.87961 0.88115 0.28098
 C72 C 0.85357 0.89258 0.29816
 C73 C 0.79794 0.89241 0.35440
 N74 N 0.78118 0.88082 0.38054
 C75 C 0.79788 0.85454 0.39190
 C76 C 0.85384 0.79833 0.39141
 N77 N 0.87991 0.78154 0.37970
 C78 C 0.89133 0.79838 0.35352
 H79 H 0.91122 0.83951 0.29069
 H80 H 0.83824 0.91285 0.29172
 H81 H 0.79105 0.91268 0.33927
 H82 H 0.79090 0.83924 0.41203
 H83 H 0.83873 0.79139 0.41169
 H84 H 0.91146 0.79146 0.33820
 C85 C 0.62718 0.64962 0.32530
 C86 C 0.62714 0.67388 0.34926
 C87 C 0.65071 0.67398 0.37307
 C88 C 0.67471 0.64980 0.37335
 C89 C 0.67468 0.62598 0.34983
 C90 C 0.65073 0.62590 0.32561
 C91 C 0.60851 0.64463 0.29806
 N92 N 0.62007 0.61836 0.28136
 C93 C 0.64605 0.60688 0.29858
 C94 C 0.70168 0.60706 0.35482
 N95 N 0.71851 0.61872 0.38090
 C96 C 0.70180 0.64499 0.39229
 C97 C 0.64585 0.70122 0.39175
 N98 N 0.61980 0.71800 0.37998
 C99 C 0.60833 0.70107 0.35387
 H100 H 0.58848 0.66002 0.29107
 H101 H 0.66142 0.58665 0.29211
 H102 H 0.70856 0.58680 0.33967
 H103 H 0.70883 0.66036 0.41236
 H104 H 0.66101 0.70825 0.41197
 H105 H 0.58822 0.70797 0.33850
 C106 C 0.62817 0.15057 0.82497
 C107 C 0.62782 0.17469 0.84908
 C108 C 0.65137 0.17491 0.87288
 C109 C 0.67568 0.15107 0.87301
 C110 C 0.67602 0.12741 0.84936
 C111 C 0.65204 0.12715 0.82510
 C112 C 0.60938 0.14542 0.79785
 N113 N 0.62112 0.11933 0.78101
 C114 C 0.64739 0.10813 0.79802
 C115 C 0.70319 0.10873 0.85449
 N116 N 0.71982 0.12037 0.88080
 C117 C 0.70263 0.14643 0.89215
 C118 C 0.64618 0.20191 0.89179
 N119 N 0.61993 0.21846 0.88016
 C120 C 0.60866 0.20160 0.85392
 H121 H 0.58903 0.16049 0.79114
 H122 H 0.66293 0.08809 0.79137
 H123 H 0.71012 0.08858 0.83923
 H124 H 0.70905 0.16182 0.91240
 H125 H 0.66127 0.20896 0.91206
 H126 H 0.58846 0.20837 0.83862
 C127 C 1.12728 0.65061 0.82627
 C128 C 1.12724 0.67475 0.85031
 C129 C 1.15112 0.67509 0.87377
 C130 C 1.17544 0.65123 0.87365
 C131 C 1.17549 0.62751 0.85005
 C132 C 1.15121 0.62722 0.82611
 C133 C 1.10826 0.64556 0.79930
 N134 N 1.11996 0.61959 0.78238
 C135 C 1.14635 0.60832 0.79900
 C136 C 1.20271 0.60881 0.85487
 N137 N 1.21964 0.62046 0.88097
 C138 C 1.20263 0.64660 0.89245
 C139 C 1.14617 0.70224 0.89256
 N140 N 1.11976 0.71871 0.88115
 C141 C 1.10814 0.70166 0.85521
 H142 H 1.08786 0.66057 0.79252
 H143 H 1.16180 0.58837 0.79186
 H144 H 1.20940 0.58856 0.83964
 H145 H 1.20933 0.66206 0.91257
 H146 H 1.16157 0.70950 0.91252
 H147 H 1.08773 0.70830 0.84012
 C148 C 1.12794 0.15039 0.32543
 C149 C 1.12773 0.17462 0.34941
 C150 C 1.15145 0.17500 0.37306
 C151 C 1.17576 0.15114 0.37318
 C152 C 1.17592 0.12735 0.34966
 C153 C 1.15181 0.12698 0.32556
 C154 C 1.10910 0.14519 0.29836
 N155 N 1.12084 0.11908 0.28155
 C156 C 1.14712 0.10791 0.29856
 C157 C 1.20309 0.10865 0.35468
 N158 N 1.21992 0.12037 0.38081
 C159 C 1.20286 0.14654 0.39215
 C160 C 1.14635 0.20214 0.39180
 N161 N 1.12000 0.21859 0.38023
 C162 C 1.10857 0.20154 0.35419
 H163 H 1.08876 0.16026 0.29160
 H164 H 1.16272 0.08791 0.29191
 H165 H 1.20983 0.08838 0.33950
 H166 H 1.20949 0.16204 0.41226
 H167 H 1.16159 0.20937 0.41190
 H168 H 1.08824 0.20816 0.33900
 C169 C 0.62719 1.35027 0.67489
 C170 C 0.62703 1.32612 0.65081
 C171 C 0.65051 1.32611 0.62694
 C172 C 0.67457 1.35021 0.62673
 C173 C 0.67470 1.37391 0.65038
 C174 C 0.65081 1.37393 0.67466
 C175 C 0.60855 1.35520 0.70216
 N176 N 0.62017 1.38140 0.71894
 C177 C 0.64619 1.39287 0.70176
 C178 C 0.70177 1.39274 0.64540
 N179 N 0.71845 1.38115 0.61920
 C180 C 0.70159 1.35502 0.60773
 C181 C 0.64557 1.29896 0.60814
 N182 N 0.61956 1.28215 0.61991
 C183 C 0.60818 1.29897 0.64613
 H184 H 0.58846 1.33987 0.70906
 H185 H 0.66160 1.41305 0.70830
 H186 H 0.70880 1.41289 0.66065
 H187 H 0.70847 1.33974 0.58754
 H188 H 0.66067 1.29202 0.58785
 H189 H 0.58815 1.29199 0.66155
 C190 C 0.62722 0.85034 1.17484
 C191 C 0.62718 0.82604 1.15091
 C192 C 0.65077 0.82592 1.12713
 C193 C 0.67478 0.85008 1.12686
 C194 C 0.67475 0.87394 1.15034
 C195 C 0.65079 0.87405 1.17454
 C196 C 0.60853 0.85538 1.20205
 N197 N 0.62009 0.88167 1.21873
 C198 C 0.64610 0.89312 1.20152
 C199 C 0.70176 0.89285 1.14533
 N200 N 0.71857 0.88114 1.11927
 C201 C 0.70186 0.85486 1.10792
 C202 C 0.64590 0.79869 1.10844
 N203 N 0.61982 0.78193 1.12016
 C204 C 0.60835 0.79887 1.14627
 H205 H 0.58848 0.84002 1.20902
 H206 H 0.66147 0.91335 1.20799
 H207 H 0.70863 0.91316 1.16043
 H208 H 0.70888 0.83945 1.08788
 H209 H 0.66107 0.79166 1.08823
 H210 H 0.58821 0.79199 1.16159
 C211 C 1.12683 1.35014 1.17329
 C212 C 1.12681 1.32596 1.14932
 C213 C 1.15080 1.32546 1.12599
 C214 C 1.17521 1.34922 1.12616
 C215 C 1.17524 1.37300 1.14970
 C216 C 1.15085 1.37344 1.17354
 C217 C 1.10775 1.35520 1.20020
 N218 N 1.11952 1.38109 1.21720
 C219 C 1.14598 1.39230 1.20068
 C220 C 1.20257 1.39156 1.14496
 N221 N 1.21957 1.37978 1.11897
 C222 C 1.20250 1.35368 1.10748
 C223 C 1.14592 1.29819 1.10736
 N224 N 1.11945 1.28183 1.11874
 C225 C 1.10770 1.29906 1.14450
 H226 H 1.08731 1.34023 1.20691
 H227 H 1.16153 1.41213 1.20793
 H228 H 1.20928 1.41183 1.16017
 H229 H 1.20923 1.33813 1.08745
 H230 H 1.16147 1.29074 1.08759
 H231 H 1.08723 1.29253 1.15953
 C232 C 1.12645 0.85002 0.67355
 C233 C 1.12670 0.82573 0.64966
 C234 C 1.15061 0.82551 0.62622
 C235 C 1.17466 0.84965 0.62623
 C236 C 1.17434 0.87357 0.64967
 C237 C 1.15006 0.87372 0.67355
 C238 C 1.10750 0.85492 0.70060
 N239 N 1.11898 0.88110 0.71737
 C240 C 1.14511 0.89266 0.70059
 C241 C 1.20141 0.89249 0.64494
 N242 N 1.21853 0.88074 0.61910
 C243 C 1.20198 0.85441 0.60763
 C244 C 1.14595 0.79819 0.60758
 N245 N 1.11968 0.78154 0.61904
 C246 C 1.10789 0.79860 0.64490
 H247 H 1.08740 0.83962 0.70761
 H248 H 1.16037 0.91280 0.70757
 H249 H 1.20807 0.91289 0.66001
 H250 H 1.20925 0.83895 0.58772
 H251 H 1.16140 0.79099 0.58764
 H252 H 1.08753 0.79186 0.65999
 C253 C 0.37292 0.65040 0.67359
 C254 C 0.37296 0.67453 0.64954
 C255 C 0.34913 0.67479 0.62602
 C256 C 0.32487 0.65088 0.62610
 C257 C 0.32481 0.62719 0.64970
 C258 C 0.34905 0.62695 0.67370
 C259 C 0.39190 0.64539 0.70061
 N260 N 0.38022 0.61939 0.71749
 C261 C 0.35389 0.60806 0.70082
 C262 C 0.29759 0.60848 0.64486
 N263 N 0.28067 0.62013 0.61876
 C264 C 0.29770 0.64624 0.60728
 C265 C 0.35403 0.70193 0.60723
 N266 N 0.38035 0.71850 0.61869
 C267 C 0.39198 0.70151 0.64467
 H268 H 0.41226 0.66044 0.70744
 H269 H 0.33847 0.58808 0.70790
 H270 H 0.29087 0.58827 0.66011
 H271 H 0.29101 0.66170 0.58717
 H272 H 0.33864 0.70911 0.58724
 H273 H 0.41231 0.70824 0.65981
 C274 C 0.37328 0.15009 1.17332
 C275 C 0.37323 0.17436 1.14943
 C276 C 0.34924 0.17483 1.12606
 C277 C 0.32494 0.15096 1.12612
 C278 C 0.32500 0.12711 1.14957
 C279 C 0.34936 0.12668 1.17342
 C280 C 0.39231 0.14498 1.20026
 N281 N 0.38062 0.11896 1.21711
 C282 C 0.35424 0.10771 1.20046
 C283 C 0.29774 0.10846 1.14479
 N284 N 0.28066 0.12028 1.11887
 C285 C 0.29764 0.14646 1.10745
 C286 C 0.35406 0.20212 1.10747
 N287 N 0.38049 0.21854 1.11889
 C288 C 0.39226 0.20133 1.14465
 H289 H 0.41267 0.16002 1.20711
 H290 H 0.33878 0.08777 1.20756
 H291 H 0.29111 0.08814 1.15994
 H292 H 0.29083 0.16206 1.08749
 H293 H 0.33853 0.20952 1.08767
 H294 H 0.41273 0.20789 1.15968
 C295 C 0.87352 0.64978 1.17387
 C296 C 0.87339 0.67403 1.14996
 C297 C 0.84961 0.67421 1.12638
 C298 C 0.82555 0.65007 1.12628
 C299 C 0.82573 0.62621 1.14976
 C300 C 0.84991 0.62607 1.17377
 C301 C 0.89238 0.64487 1.20099
 N302 N 0.88087 0.61868 1.21770
 C303 C 0.85478 0.60713 1.20082
 C304 C 0.79864 0.60736 1.14493
 N305 N 0.78164 0.61909 1.11900
 C306 C 0.79831 0.64534 1.10755
 C307 C 0.85434 0.70150 1.10775
 N308 N 0.88052 0.71820 1.11935
 C309 C 0.89219 0.70119 1.14529
 H310 H 0.91246 0.66018 1.20805
 H311 H 0.83954 0.58695 1.20773
 H312 H 0.79184 0.58706 1.16007
 H313 H 0.79116 0.66076 1.08757
 H314 H 0.83898 0.70864 1.08772
 H315 H 0.91245 0.70799 1.16051
 C316 C 0.87276 0.14994 0.67494
 C317 C 0.87283 0.17417 0.65095
 C318 C 0.84928 0.17422 0.62712
 C319 C 0.82525 0.15008 0.62687
 C320 C 0.82523 0.12630 0.65042
 C321 C 0.84917 0.12625 0.67465
 C322 C 0.89145 0.14493 0.70217
 N323 N 0.87987 0.11866 0.71886
 C324 C 0.85385 0.10722 0.70165
 C325 C 0.79821 0.10741 0.64542
 N326 N 0.78144 0.11904 0.61930
 C327 C 0.79820 0.14526 0.60790
 C328 C 0.85416 0.20139 0.60837
 N329 N 0.88021 0.21820 0.62011
 C330 C 0.89166 0.20134 0.64627
 H331 H 0.91151 0.16027 0.70915
 H332 H 0.83848 0.08698 0.70809
 H333 H 0.79127 0.08719 0.66059
 H334 H 0.79122 0.16059 0.58779
 H335 H 0.83902 0.20835 0.58811
 H336 H 0.91176 0.20828 0.66163
 C337 C 1.34989 0.37306 0.67335
 C338 C 1.32574 0.37313 0.64934
 C339 C 1.32526 0.34918 0.62595
 C340 C 1.34902 0.32477 0.62610
 C341 C 1.37277 0.32470 0.64968
 C342 C 1.37319 0.34904 0.67357
 C343 C 1.35495 0.39209 0.70030
 N344 N 1.38082 0.38030 0.71730
 C345 C 1.39204 0.35386 0.70074
 C346 C 1.39133 0.29738 0.64491
 N347 N 1.37958 0.28042 0.61886
 C348 C 1.35351 0.29751 0.60737
 C349 C 1.29803 0.35412 0.60727
 N350 N 1.28167 0.38060 0.61867
 C351 C 1.29886 0.39227 0.64449
 H352 H 1.33997 0.41253 0.70702
 H353 H 1.41188 0.33832 0.70798
 H354 H 1.41155 0.29065 0.66016
 H355 H 1.33802 0.29082 0.58727
 H356 H 1.29062 0.33863 0.58743
 H357 H 1.29232 0.41273 0.65955
 C358 C 1.35000 0.87224 1.17450
 C359 C 1.32581 0.87255 1.15048
 C360 C 1.32540 0.84887 1.12681
 C361 C 1.34917 0.82448 1.12670
 C362 C 1.37292 0.82421 1.15026
 C363 C 1.37333 0.84829 1.17440
 C364 C 1.35518 0.89103 1.20161
 N365 N 1.38120 0.87920 1.21848
 C366 C 1.39234 0.85289 1.20148
 C367 C 1.39149 0.79695 1.14525
 N368 N 1.37972 0.78019 1.11909
 C369 C 1.35365 0.79738 1.10772
 C370 C 1.29827 0.85401 1.10809
 N371 N 1.28185 0.88036 1.11969
 C372 C 1.29892 0.89175 1.14574
 H373 H 1.34014 0.91141 1.20832
 H374 H 1.41227 0.83723 1.20819
 H375 H 1.41166 0.79006 1.16050
 H376 H 1.33817 0.79087 1.08757
 H377 H 1.29100 0.83877 1.08801
 H378 H 1.29230 0.91205 1.16097
 C379 C 0.84941 0.37188 1.17481
 C380 C 0.82522 0.37210 1.15077
 C381 C 0.82501 0.34850 1.12701
 C382 C 0.84895 0.32428 1.12684
 C383 C 0.87268 0.32409 1.15042
 C384 C 0.87291 0.34810 1.17463
 C385 C 0.85457 0.39069 1.20193
 N386 N 0.88075 0.37901 1.21869
 C387 C 0.89199 0.35280 1.20163
 C388 C 0.89147 0.29699 1.14533
 N389 N 0.87983 0.28023 1.11911
 C390 C 0.85366 0.29728 1.10778
 C391 C 0.79793 0.35360 1.10817
 N392 N 0.78134 0.37982 1.11980
 C393 C 0.79824 0.39118 1.14598
 H394 H 0.83945 0.41098 1.20872
 H395 H 0.91208 0.33730 1.20821
 H396 H 0.91171 0.29021 1.16054
 H397 H 0.83820 0.29070 1.08762
 H398 H 0.79087 0.33847 1.08793
 H399 H 0.79146 0.41139 1.16126
 C400 C 0.84971 0.87328 0.67416
 C401 C 0.82532 0.87297 0.65036
 C402 C 0.82516 0.84913 0.62684
 C403 C 0.84943 0.82521 0.62669
 C404 C 0.87344 0.82560 0.65003
 C405 C 0.87357 0.84982 0.67399
 C406 C 0.85467 0.89222 0.70121
 N407 N 0.88104 0.88091 0.71781
 C408 C 0.89266 0.85488 0.70091
 C409 C 0.89250 0.79865 0.64512
 N410 N 0.88073 0.78153 0.61929
 C411 C 0.85426 0.79797 0.60798
 C412 C 0.79783 0.85378 0.60820
 N413 N 0.78111 0.87998 0.61972
 C414 C 0.79813 0.89173 0.64564
 H415 H 0.83925 0.91219 0.70834
 H416 H 0.91300 0.83980 0.70772
 H417 H 0.91301 0.79207 0.66008
 H418 H 0.83875 0.79066 0.58812
 H419 H 0.79072 0.83841 0.58817
 H420 H 0.79135 0.91207 0.66076
 C421 C 0.65022 0.62666 0.67422
 C422 C 0.67459 0.62694 0.65040
 C423 C 0.67475 0.65077 0.62688
 C424 C 0.65050 0.67472 0.62675
 C425 C 0.62652 0.67437 0.65011
 C426 C 0.62639 0.65015 0.67407
 C427 C 0.64526 0.60771 0.70125
 N428 N 0.61891 0.61904 0.71786
 C429 C 0.60731 0.64510 0.70100
 C430 C 0.60748 0.70133 0.64519
 N431 N 0.61924 0.71840 0.61933
 C432 C 0.64568 0.70192 0.60802
 C433 C 0.70205 0.64611 0.60824
 N434 N 0.71878 0.61991 0.61975
 C435 C 0.70177 0.60817 0.64567
 H436 H 0.66064 0.58770 0.70835
 H437 H 0.58700 0.66020 0.70782
 H438 H 0.58699 0.70795 0.66015
 H439 H 0.66117 0.70919 0.58814
 H440 H 0.70915 0.66148 0.58821
 H441 H 0.70856 0.58784 0.66078
 C442 C 0.65102 1.12847 1.17522
 C443 C 0.67525 1.12828 1.15122
 C444 C 0.67546 1.15190 1.12748
 C445 C 0.65149 1.17609 1.12729
 C446 C 0.62773 1.17626 1.15083
 C447 C 0.62749 1.15224 1.17501
 C448 C 0.64579 1.10959 1.20227
 N449 N 0.61954 1.12120 1.21897
 C450 C 0.60833 1.14745 1.20194
 C451 C 0.60888 1.20331 1.14566
 N452 N 0.62050 1.22005 1.11944
 C453 C 0.64674 1.20304 1.10818
 C454 C 0.70251 1.14679 1.10862
 N455 N 0.71909 1.12054 1.12020
 C456 C 0.70221 1.10918 1.14638
 H457 H 0.66088 1.08929 1.20905
 H458 H 0.58818 1.16289 1.20847
 H459 H 0.58858 1.21005 1.16080
 H460 H 0.66219 1.20961 1.08803
 H461 H 0.70955 1.16191 1.08838
 H462 H 0.70896 1.08892 1.16160
 C463 C 0.15030 0.62800 1.17493
 C464 C 0.17447 0.62767 1.15090
 C465 C 0.17487 0.65133 1.12723
 C466 C 0.15110 0.67571 1.12712
 C467 C 0.12737 0.67603 1.15069
 C468 C 0.12697 0.65196 1.17484
 C469 C 0.14508 0.60917 1.20198
 N470 N 0.11902 0.62096 1.21884
 C471 C 0.10791 0.64730 1.20188
 C472 C 0.10878 0.70326 1.14559
 N473 N 0.12052 0.71995 1.11938
 C474 C 0.14659 0.70275 1.10807
 C475 C 0.20195 0.64615 1.10845
 N476 N 0.21836 0.61979 1.12002
 C477 C 0.20134 0.60843 1.14610
 H478 H 0.16008 0.58875 1.20866
 H479 H 0.08795 0.66293 1.20859
 H480 H 0.08859 0.71017 1.16081
 H481 H 0.16205 0.70920 1.08788
 H482 H 0.20918 0.66136 1.08835
 H483 H 0.20796 0.58812 1.16131
 C484 C 0.15086 1.12828 0.67495
 C485 C 0.17501 1.12800 0.65089
 C486 C 0.17527 1.15162 0.62716
 C487 C 0.15139 1.17591 0.62704
 C488 C 0.12770 1.17616 0.65064
 C489 C 0.12743 1.15214 0.67483
 C490 C 0.14567 1.10944 0.70203
 N491 N 0.11954 1.12114 0.71883
 C492 C 0.10836 1.14743 0.70184
 C493 C 0.10895 1.20329 0.64554
 N494 N 0.12057 1.21999 0.61929
 C495 C 0.14671 1.20290 0.60796
 C496 C 0.20229 1.14645 0.60828
 N497 N 0.21881 1.12015 0.61984
 C498 C 0.20191 1.10883 0.64602
 H499 H 0.16073 1.08908 0.70874
 H500 H 0.08830 1.16296 0.70847
 H501 H 0.08874 1.21011 0.66075
 H502 H 0.16211 1.20940 0.58775
 H503 H 0.20938 1.16158 0.58807
 H504 H 0.20863 1.08856 0.66125
 C505 C 1.35010 0.62763 0.32555
 C506 C 1.32593 0.62735 0.34958
 C507 C 1.32560 0.65102 0.37327
 C508 C 1.34942 0.67535 0.37338
 C509 C 1.37315 0.67560 0.34981
 C510 C 1.37349 0.65153 0.32566
 C511 C 1.35525 0.60884 0.29843
 N512 N 1.38130 0.62063 0.28157
 C513 C 1.39249 0.64691 0.29859
 C514 C 1.39174 0.70285 0.35481
 N515 N 1.37999 0.71962 0.38097
 C516 C 1.35394 0.70244 0.39235
 C517 C 1.29848 0.64594 0.39203
 N518 N 1.28198 0.61965 0.38042
 C519 C 1.29899 0.60823 0.35434
 H520 H 1.34016 0.58851 0.29167
 H521 H 1.41247 0.66252 0.29192
 H522 H 1.41189 0.70973 0.33955
 H523 H 1.33845 0.70897 0.41250
 H524 H 1.29129 0.66117 0.41213
 H525 H 1.29228 0.58797 0.33909
 C526 C 1.35008 1.12675 0.82674
 C527 C 1.32599 1.12660 0.85079
 C528 C 1.32547 1.15056 0.87416
 C529 C 1.34913 1.17506 0.87397
 C530 C 1.37281 1.17522 0.85034
 C531 C 1.37328 1.15088 0.82646
 C532 C 1.35516 1.10773 0.79978
 N533 N 1.38094 1.11962 0.78273
 C534 C 1.39208 1.14613 0.79926
 C535 C 1.39127 1.20262 0.85509
 N536 N 1.37951 1.21954 0.88115
 C537 C 1.35353 1.20234 0.89269
 C538 C 1.29828 1.14558 0.89285
 N539 N 1.28196 1.11907 0.88148
 C540 C 1.29915 1.10740 0.85566
 H541 H 1.34029 1.08720 0.79310
 H542 H 1.41182 1.16177 0.79197
 H543 H 1.41141 1.20946 0.83978
 H544 H 1.33807 1.20894 0.91283
 H545 H 1.29084 1.16110 0.91265
 H546 H 1.29263 1.08693 0.84061
 C547 C 0.84982 0.62662 0.82591
 C548 C 0.82547 0.62690 0.84975
 C549 C 0.82536 0.65069 0.87332
 C550 C 0.84963 0.67461 0.87348
 C551 C 0.87359 0.67427 0.85010
 C552 C 0.87367 0.65008 0.82611
 C553 C 0.85475 0.60772 0.79883
 N554 N 0.88111 0.61905 0.78224
 C555 C 0.89274 0.64507 0.79917
 C556 C 0.89261 0.70125 0.85499
 N557 N 0.88086 0.71833 0.88086
 C558 C 0.85445 0.70183 0.89220
 C559 C 0.79806 0.64606 0.89197
 N560 N 0.78128 0.61991 0.88041
 C561 C 0.79825 0.60818 0.85445
 H562 H 0.83934 0.58774 0.79168
 H563 H 0.91308 0.66015 0.79238
 H564 H 0.91304 0.70790 0.83998
 H565 H 0.83896 0.70909 0.91208
 H566 H 0.79100 0.66140 0.91205
 H567 H 0.79139 0.58792 0.83928
 C568 C 0.85020 1.12630 0.32646
 C569 C 0.82580 1.12668 0.35023
 C570 C 0.82562 1.15057 0.37370
 C571 C 0.84990 1.17448 0.37384
 C572 C 0.87395 1.17401 0.35055
 C573 C 0.87407 1.14975 0.32665
 C574 C 0.85510 1.10741 0.29937
 N575 N 0.88144 1.11875 0.28277
 C576 C 0.89311 1.14473 0.29971
 C577 C 0.89296 1.20100 0.35536
 N578 N 0.88112 1.21824 0.38107
 C579 C 0.85466 1.20181 0.39241
 C580 C 0.79822 1.14604 0.39224
 N581 N 0.78147 1.11985 0.38071
 C582 C 0.79855 1.10801 0.35488
 H583 H 0.83965 1.08748 0.29218
 H584 H 0.91341 1.15986 0.29290
 H585 H 0.91348 1.20755 0.34040
 H586 H 0.83906 1.20923 0.41215
 H587 H 0.79106 1.16149 0.41219
 H588 H 0.79176 1.08767 0.33977
 C589 C 0.65009 0.37264 0.32524
 C590 C 0.67436 0.37257 0.34921
 C591 C 0.67434 0.34900 0.37301
 C592 C 0.65006 0.32511 0.37326
 C593 C 0.62622 0.32525 0.34976
 C594 C 0.62625 0.34920 0.32557
 C595 C 0.64513 0.39134 0.29800
 N596 N 0.61877 0.37988 0.28135
 C597 C 0.60721 0.35395 0.29859
 C598 C 0.60717 0.29834 0.35476
 N599 N 0.61879 0.28146 0.38080
 C600 C 0.64514 0.29805 0.39217
 C601 C 0.70154 0.35377 0.39178
 N602 N 0.71843 0.37976 0.38008
 C603 C 0.70161 0.39128 0.35391
 H604 H 0.66056 0.41131 0.29098
 H605 H 0.58690 0.33867 0.29218
 H606 H 0.58682 0.29156 0.33966
 H607 H 0.66055 0.29092 0.41218
 H608 H 0.70845 0.33862 0.41205
 H609 H 0.70860 0.41137 0.33858
 C610 C 0.64984 0.87350 0.82595
 C611 C 0.67420 0.87322 0.84977
 C612 C 0.67439 0.84938 0.87327
 C613 C 0.65017 0.82542 0.87339
 C614 C 0.62617 0.82576 0.85003
 C615 C 0.62603 0.84999 0.82608
 C616 C 0.64491 0.89242 0.79890
 N617 N 0.61859 0.88106 0.78225
 C618 C 0.60698 0.85501 0.79912
 C619 C 0.60718 0.79876 0.85492
 N620 N 0.61898 0.78167 0.88076
 C621 C 0.64540 0.79818 0.89209
 C622 C 0.70173 0.85404 0.89188
 N623 N 0.71843 0.88024 0.88035
 C624 C 0.70139 0.89199 0.85446
 H625 H 0.66030 0.91242 0.79180
 H626 H 0.58669 0.83988 0.79226
 H627 H 0.58670 0.79212 0.83994
 H628 H 0.66092 0.79091 0.91194
 H629 H 0.70888 0.83865 0.91188
 H630 H 0.70816 0.91231 0.83934
 C631 C 0.14982 0.37289 0.82551
 C632 C 0.17404 0.37300 0.84953
 C633 C 0.17421 0.34938 0.87327
 C634 C 0.15016 0.32526 0.87344
 C635 C 0.12638 0.32522 0.84988
 C636 C 0.12622 0.34922 0.82572
 C637 C 0.14478 0.39160 0.79830
 N638 N 0.11859 0.37993 0.78153
 C639 C 0.10722 0.35386 0.79867
 C640 C 0.10757 0.29814 0.85479
 N641 N 0.11925 0.28134 0.88087
 C642 C 0.14542 0.29814 0.89233
 C643 C 0.20140 0.35430 0.89201
 N644 N 0.21808 0.38045 0.88035
 C645 C 0.20114 0.39192 0.85425
 H646 H 0.16005 0.41174 0.79141
 H647 H 0.08710 0.33837 0.79212
 H648 H 0.08735 0.29121 0.83959
 H649 H 0.16077 0.29115 0.91243
 H650 H 0.20848 0.33910 0.91218
 H651 H 0.20797 0.41209 0.83896
 C652 C 0.14947 0.87299 0.32550
 C653 C 0.17370 0.87310 0.34950
 C654 C 0.17391 0.84945 0.37320
 C655 C 0.14988 0.82530 0.37334
 C656 C 0.12610 0.82525 0.34978
 C657 C 0.12591 0.84929 0.32566
 C658 C 0.14446 0.89172 0.29831
 N659 N 0.11831 0.88004 0.28150
 C660 C 0.10693 0.85393 0.29860
 C661 C 0.10735 0.79811 0.35466
 N662 N 0.11907 0.78131 0.38072
 C663 C 0.14521 0.79814 0.39219
 C664 C 0.20113 0.85435 0.39188
 N665 N 0.21779 0.88050 0.38022
 C666 C 0.20080 0.89201 0.35417
 H667 H 0.15973 0.91187 0.29146
 H668 H 0.08685 0.83843 0.29199
 H669 H 0.08714 0.79114 0.33946
 H670 H 0.16057 0.79117 0.41229
 H671 H 0.20827 0.83910 0.41200
 H672 H 0.20760 0.91220 0.33889
 O673 O 1.11726 1.03161 1.16225
 O674 O 1.15492 1.03192 1.20035
 C675 C 1.12852 1.04287 1.18868
 C676 C 1.11118 1.06952 1.20555
 C677 C 1.12298 1.08148 1.23747
 H678 H 1.14330 1.06886 1.24805
 O679 O 0.88329 0.96857 1.16158
 O680 O 0.84559 0.96828 1.19964
 C681 C 0.87198 0.95731 1.18801
 C682 C 0.88926 0.93067 1.20494
 C683 C 0.87742 0.91871 1.23685
 H684 H 0.85699 0.93125 1.24733
 O685 O 1.03198 1.16160 1.11788
 O686 O 1.03207 1.19968 1.15556
 C687 C 1.04308 1.18807 1.12913
 C688 C 1.06955 1.20500 1.11160
 C689 C 1.08082 1.23538 1.12226
 H690 H 1.06905 1.24642 1.14289
 O691 O 0.96822 0.83832 1.11756
 O692 O 0.96825 0.80046 1.15544
 C693 C 0.95713 0.81192 1.12898
 C694 C 0.93051 0.79494 1.11166
 C695 C 0.91922 0.76464 1.12251
 H696 H 0.93114 0.75363 1.14308
 O697 O 1.16102 1.11644 1.03189
 O698 O 1.19906 1.15411 1.03210
 C699 C 1.18744 1.12775 1.04311
 C700 C 1.20441 1.11052 1.06978
 C701 C 1.23634 1.12238 1.08156
 H702 H 1.24686 1.14265 1.06879
 O703 O 0.83872 0.88320 1.03158
 O704 O 0.80076 0.84545 1.03164
 C705 C 0.81226 0.87188 1.04267
 C706 C 0.79522 0.88922 1.06921
 C707 C 0.76490 0.87835 1.08041
 H708 H 0.75384 0.85789 1.06837
 O709 O 0.96885 1.11718 1.16243
 O710 O 0.96867 1.15503 1.20034
 C711 C 0.95770 1.12856 1.18884
 C712 C 0.93118 1.11116 1.20584
 C713 C 0.92007 1.12185 1.23627
 H714 H 0.93208 1.14231 1.24735
 O715 O 1.03145 0.88309 1.16172
 O716 O 1.03181 0.84544 1.19982
 C717 C 1.04271 0.87187 1.18817
 C718 C 1.06926 0.88930 1.20513
 C719 C 1.08101 0.87765 1.23717
 H720 H 1.06839 0.85731 1.24770
 O721 O 1.16196 0.96837 1.11809
 O722 O 1.19982 0.96830 1.15600
 C723 C 1.18836 0.95727 1.12951
 C724 C 1.20534 0.93073 1.11209
 C725 C 1.23558 0.91927 1.12297
 H726 H 1.24655 0.93095 1.14371
 O727 O 0.83871 1.03206 1.11751
 O728 O 0.80086 1.03200 1.15539
 C729 C 0.81232 1.04316 1.12898
 C730 C 0.79533 1.06983 1.11178
 C731 C 0.76522 1.08139 1.12292
 H732 H 0.75430 1.06963 1.14362
 O733 O 0.88382 1.16099 1.03157
 O734 O 0.84611 1.19899 1.03176
 C735 C 0.87251 1.18740 1.04279
 C736 C 0.88976 1.20432 1.06951
 C737 C 0.87785 1.23618 1.08145
 H738 H 0.85751 1.24670 1.06879
 O739 O 1.11693 0.83941 1.03206
 O740 O 1.15469 0.80146 1.03218
 C741 C 1.12829 0.81299 1.04323
 C742 C 1.11100 0.79598 1.06986
 C743 C 1.12291 0.76413 1.08187
 H744 H 1.14346 0.75372 1.06945
 O745 O 0.88331 1.03186 1.16191
 O746 O 0.84564 1.03166 1.20000
 C747 C 0.87202 1.04278 1.18849
 C748 C 0.88936 1.06923 1.20569
 C749 C 0.87859 1.08019 1.23616
 H750 H 0.85820 1.06804 1.24721
 O751 O 1.11791 0.96825 1.16307
 O752 O 1.15561 0.96855 1.20113
 C753 C 1.12926 0.95734 1.18963
 C754 C 1.11202 0.93081 1.20680
 C755 C 1.12249 0.91990 1.23580
 H756 H 1.14306 0.93176 1.24684
 O757 O 1.03162 0.83770 1.11811
 O758 O 1.03162 0.79992 1.15607
 C759 C 1.04270 0.81130 1.12962
 C760 C 1.06934 0.79422 1.11249
 C761 C 1.08042 0.76540 1.12316
 H762 H 1.06856 0.75442 1.14375
 O763 O 0.96862 1.16227 1.11848
 O764 O 0.96873 1.20025 1.15627
 C765 C 0.95760 1.18877 1.12986
 C766 C 0.93104 1.20589 1.11257
 C767 C 0.91989 1.23472 1.12321
 H768 H 0.93154 1.24562 1.14397
 O769 O 0.83881 1.11710 1.03177
 O770 O 0.80092 1.15491 1.03170
 C771 C 0.81239 1.12855 1.04287
 C772 C 0.79537 1.11148 1.06964
 C773 C 0.76523 1.12270 1.08104
 H774 H 0.75431 1.14320 1.06898
 O775 O 1.16167 0.88361 1.03200
 O776 O 1.19960 0.84584 1.03186
 C777 C 1.18814 0.87222 1.04302
 C778 C 1.20526 0.88933 1.06969
 C779 C 1.23554 0.87826 1.08079
 H780 H 1.24653 0.85794 1.06848
 O781 O 0.96812 0.88213 1.16278
 O782 O 0.96849 0.84440 1.20078
 C783 C 0.95725 0.87073 1.18934
 C784 C 0.93070 0.88788 1.20654
 C785 C 0.91966 0.87723 1.23542
 H786 H 0.93144 0.85659 1.24637
 O787 O 1.03222 1.11798 1.16329
 O788 O 1.03201 1.15593 1.20110
 C789 C 1.04319 1.12951 1.18977
 C790 C 1.06976 1.11238 1.20702
 C791 C 1.08083 1.12307 1.23590
 H792 H 1.06911 1.14379 1.24677
 O793 O 0.83876 0.96873 1.11714
 O794 O 0.80087 0.96858 1.15500
 C795 C 0.81234 0.95761 1.12851
 C796 C 0.79528 0.93108 1.11115
 C797 C 0.76497 0.91988 1.12206
 H798 H 0.75401 0.93188 1.14261
 O799 O 1.16256 1.03170 1.11857
 O800 O 1.20037 1.03166 1.15653
 C801 C 1.18900 1.04273 1.13006
 C802 C 1.20614 1.06926 1.11279
 C803 C 1.23501 1.08039 1.12334
 H804 H 1.24595 1.06879 1.14411
 O805 O 0.88298 0.83851 1.03182
 O806 O 0.84518 0.80060 1.03180
 C807 C 0.87157 0.81209 1.04292
 C808 C 0.88876 0.79503 1.06958
 C809 C 0.87782 0.76470 1.08070
 H810 H 0.85741 0.75369 1.06855
 O811 O 1.11683 1.16118 1.03175
 O812 O 1.15472 1.19901 1.03179
 C813 C 1.12826 1.18762 1.04281
 C814 C 1.11104 1.20481 1.06933
 C815 C 1.12191 1.23526 1.08019
 H816 H 1.14216 1.24631 1.06781
 Cu817 Cu 1.13615 0.99996 1.13669
 Cu818 Cu 1.18146 1.00011 1.18233
 Cu819 Cu 0.86479 1.00033 1.13573
 Cu820 Cu 0.81943 1.00011 1.18132
 Cu821 Cu 1.00043 1.13596 1.13675
 Cu822 Cu 1.00036 1.18153 1.18211
 Cu823 Cu 0.99982 0.86408 1.13623
 Cu824 Cu 1.00007 0.81876 1.18183
 C825 C 1.08563 1.08413 1.19150
 H826 H 1.07696 1.07599 1.16802
 C827 C 1.10907 1.10726 1.25247
 C828 C 0.91483 0.91606 1.19096
 H829 H 0.92354 0.92419 1.16749
 C830 C 0.89137 0.89298 1.25191
 C831 C 1.08466 1.19006 1.08497
 H832 H 1.07645 1.16639 1.07696
 C833 C 1.10717 1.25095 1.10685
 C834 C 0.91529 0.80977 1.08503
 H835 H 0.92356 0.83335 1.07683
 C836 C 0.89271 0.74907 1.10733
 C837 C 1.19049 1.08501 1.08453
 H838 H 1.16700 1.07630 1.07650
 C839 C 1.25148 1.10856 1.10732
 C840 C 0.81004 0.91578 1.08454
 H841 H 0.83364 0.92398 1.07632
 C842 C 0.74934 0.89334 1.10703
 C843 C 0.91585 1.08467 1.19090
 H844 H 0.92400 1.07662 1.16720
 C845 C 0.89359 1.10670 1.25187
 C846 C 1.08393 0.91482 1.19110
 H847 H 1.07594 0.92338 1.16752
 C848 C 1.10665 0.89168 1.25231
 C849 C 1.19054 0.91576 1.08528
 H850 H 1.16699 0.92412 1.07708
 C851 C 1.25112 0.89285 1.10762
 C852 C 0.81003 1.08487 1.08498
 H853 H 0.83347 1.07640 1.07657
 C854 C 0.74972 1.10800 1.10786
 C855 C 0.91529 1.19034 1.08424
 H856 H 0.92402 1.16690 1.07613
 C857 C 0.89166 1.25120 1.10730
 C858 C 1.08530 0.80985 1.08437
 H859 H 1.07653 0.83326 1.07621
 C860 C 1.10883 0.74901 1.10752
 O861 O 1.11716 0.96865 0.83761
 O862 O 1.15500 0.96847 0.79971
 C863 C 1.12853 0.95750 0.81120
 C864 C 1.11116 0.93094 0.79423
 C865 C 1.12188 0.91982 0.76380
 H866 H 1.14224 0.93194 0.75268
 O867 O 0.88294 1.03169 0.83857
 O868 O 0.84551 1.03169 0.80023
 C869 C 0.87181 1.04277 0.81200
 C870 C 0.88921 1.06933 0.79504
 C871 C 0.87747 1.08125 0.76308
 H872 H 0.85700 1.06876 0.75261
 O873 O 0.96821 1.16143 0.88210
 O874 O 0.96852 1.19956 0.84449
 C875 C 0.95725 1.18795 0.87080
 C876 C 0.93060 1.20492 0.88807
 C877 C 0.91905 1.23506 0.87699
 H878 H 0.93078 1.24600 0.85628
 O879 O 1.03188 0.83872 0.88280
 O880 O 1.03197 0.80069 0.84507
 C881 C 1.04300 0.81226 0.87149
 C882 C 1.06955 0.79530 0.88890
 C883 C 1.08091 0.76503 0.87804
 H884 H 1.06910 0.75403 0.85739
 O885 O 1.16113 0.88384 0.96854
 O886 O 1.19906 0.84605 0.96834
 C887 C 1.18748 0.87243 0.95726
 C888 C 1.20436 0.88954 0.93044
 C889 C 1.23617 0.87752 0.91847
 H890 H 1.24666 0.85721 0.93119
 O891 O 0.83911 1.11664 0.96835
 O892 O 0.80120 1.15444 0.96820
 C893 C 0.81270 1.12800 0.95718
 C894 C 0.79570 1.11071 0.93053
 C895 C 0.76387 1.12261 0.91847
 H896 H 0.75342 1.14310 0.93096
 O897 O 1.03162 1.11688 0.83786
 O898 O 1.03220 1.15485 0.80009
 C899 C 1.04304 1.12834 0.81157
 C900 C 1.06975 1.11111 0.79466
 C901 C 1.08184 1.12311 0.76286
 H902 H 1.06928 1.14352 0.75236
 O903 O 0.96856 0.88304 0.83821
 O904 O 0.96853 0.84520 0.80029
 C905 C 0.95748 0.87163 0.81176
 C906 C 0.93094 0.88892 0.79467
 C907 C 0.91977 0.87803 0.76430
 H908 H 0.93173 0.85749 0.75332
 O909 O 1.16167 1.03170 0.88224
 O910 O 1.19975 1.03178 0.84457
 C911 C 1.18816 1.04276 0.87102
 C912 C 1.20514 1.06919 0.88860
 C913 C 1.23551 1.08045 0.87794
 H914 H 1.24651 1.06872 0.85726
 O915 O 0.83832 0.96829 0.88268
 O916 O 0.80070 0.96802 0.84454
 C917 C 0.81205 0.95703 0.87108
 C918 C 0.79508 0.93036 0.88831
 C919 C 0.76485 0.91899 0.87734
 H920 H 0.75388 0.93087 0.85673
 O921 O 1.11692 1.16103 0.96836
 O922 O 1.15483 1.19883 0.96842
 C923 C 1.12840 1.18742 0.95729
 C924 C 1.11118 1.20451 0.93070
 C925 C 1.12211 1.23486 0.91957
 H926 H 1.14260 1.24585 0.93162
 O927 O 0.88328 0.83858 0.96840
 O928 O 0.84548 0.80067 0.96838
 C929 C 0.87191 0.81213 0.95733
 C930 C 0.88918 0.79506 0.93076
 C931 C 0.87828 0.76472 0.91964
 H932 H 0.85792 0.75367 0.93182
 O933 O 0.88284 0.96839 0.83823
 O934 O 0.84539 0.96834 0.79992
 C935 C 0.87172 0.95734 0.81163
 C936 C 0.88914 0.93085 0.79460
 C937 C 0.87834 0.91972 0.76419
 H938 H 0.85796 0.93182 0.75308
 O939 O 1.11814 1.03204 0.83671
 O940 O 1.15609 1.03183 0.79891
 C941 C 1.12969 1.04304 0.81026
 C942 C 1.11261 1.06970 0.79308
 C943 C 1.12341 1.08093 0.76431
 H944 H 1.14419 1.06929 0.75347
 O945 O 0.96854 0.83855 0.88267
 O946 O 0.96856 0.80052 0.84494
 C947 C 0.95747 0.81207 0.87134
 C948 C 0.93090 0.79505 0.88868
 C949 C 0.91961 0.76475 0.87779
 H950 H 0.93147 0.75378 0.85717
 O951 O 1.03155 1.16125 0.88247
 O952 O 1.03190 1.19939 0.84487
 C953 C 1.04278 1.18772 0.87130
 C954 C 1.06931 1.20464 0.88878
 C955 C 1.08052 1.23498 0.87799
 H956 H 1.06849 1.24604 0.85753
 O957 O 0.83861 0.88285 0.96816
 O958 O 0.80066 0.84509 0.96820
 C959 C 0.81217 0.87145 0.95706
 C960 C 0.79514 0.88862 0.93037
 C961 C 0.76486 0.87761 0.91913
 H962 H 0.75385 0.85718 0.93124
 O963 O 1.16136 1.11652 0.96848
 O964 O 1.19942 1.15417 0.96869
 C965 C 1.18790 1.12782 0.95754
 C966 C 1.20504 1.11060 0.93098
 C967 C 1.23549 1.12143 0.92013
 H968 H 1.24659 1.14164 0.93256
 O969 O 1.03187 0.88299 0.83808
 O970 O 1.03189 0.84516 0.80016
 C971 C 1.04292 0.87161 0.81161
 C972 C 1.06939 0.88895 0.79443
 C973 C 1.08045 0.87811 0.76400
 H974 H 1.06843 0.85760 0.75301
 O975 O 0.96825 1.11740 0.83713
 O976 O 0.96879 1.15537 0.79937
 C977 C 0.95746 1.12899 0.81064
 C978 C 0.93085 1.11195 0.79339
 C979 C 0.91988 1.12259 0.76448
 H980 H 0.93178 1.14316 0.75350
 O981 O 0.83770 1.03166 0.88232
 O982 O 0.80012 1.03142 0.84414
 C983 C 0.81132 1.04260 0.87065
 C984 C 0.79408 1.06918 0.88774
 C985 C 0.76530 1.08028 0.87699
 H986 H 0.75442 1.06849 0.85629
 O987 O 1.16239 0.96835 0.88142
 O988 O 1.20036 0.96844 0.84365
 C989 C 1.18887 0.95730 0.87003
 C990 C 1.20597 0.93071 0.88730
 C991 C 1.23474 0.91944 0.87662
 H992 H 1.24561 0.93097 0.85578
 O993 O 1.11703 0.83904 0.96868
 O994 O 1.15478 0.80108 0.96874
 C995 C 1.12838 0.81255 0.95765
 C996 C 1.11116 0.79542 0.93108
 C997 C 1.12215 0.76509 0.91998
 H998 H 1.14252 0.75408 0.93220
 O999 O 0.88329 1.16141 0.96812
 O1000 O 0.84557 1.19939 0.96823
 C1001 C 0.87190 1.18786 0.95703
 C1002 C 0.88899 1.20487 0.93027
 C1003 C 0.87779 1.23502 0.91892
 H1004 H 0.85732 1.24595 0.93102
 Cu1005 Cu 1.13605 1.00020 0.86327
 Cu1006 Cu 1.18160 1.00012 0.81791
 Cu1007 Cu 0.86419 1.00003 0.86428
 Cu1008 Cu 0.81915 0.99985 0.81837
 Cu1009 Cu 1.13523 1.13501 1.00010
 Cu1010 Cu 1.18083 1.18032 1.00026
 Cu1011 Cu 1.13541 0.86527 1.00033
 Cu1012 Cu 1.18085 0.81982 1.00028
 Cu1013 Cu 0.86503 1.13525 0.99994
 Cu1014 Cu 0.81966 1.18075 0.99997
 Cu1015 Cu 0.86469 0.86457 0.99999
 Cu1016 Cu 0.81921 0.81915 1.00001
 Cu1017 Cu 0.99985 1.13543 0.86365
 Cu1018 Cu 1.00041 1.18112 0.81841
 Cu1019 Cu 1.00021 0.86461 0.86423
 Cu1020 Cu 1.00025 0.81907 0.81881
 C1021 C 1.08473 0.91554 0.80918
 H1022 H 1.07664 0.92370 0.83286
 C1023 C 1.10687 0.89323 0.74826
 C1024 C 0.91483 1.08387 0.80901
 H1025 H 0.92347 1.07575 0.83252
 C1026 C 0.89155 1.10689 0.74798
 C1027 C 0.91557 1.19020 0.91488
 H1028 H 0.92403 1.16674 0.92324
 C1029 C 0.89246 1.25055 0.89209
 C1030 C 1.08467 0.81014 0.91559
 H1031 H 1.07637 0.83373 0.92376
 C1032 C 1.10739 0.74947 0.89327
 C1033 C 1.19043 0.91507 0.91569
 H1034 H 1.16703 0.92390 0.92384
 C1035 C 1.25119 0.89123 0.89258
 C1036 C 0.80961 1.08507 0.91599
 H1037 H 0.83302 1.07631 0.92419
 C1038 C 0.74884 1.10862 0.89270
 C1039 C 1.08431 1.08547 0.80858
 H1040 H 1.07607 1.07666 0.83198
 C1041 C 1.10765 1.10926 0.74785
 C1042 C 0.91563 0.91550 0.80947
 H1043 H 0.92378 0.92369 0.83313
 C1044 C 0.89328 0.89311 0.74862
 C1045 C 1.19024 1.08426 0.91528
 H1046 H 1.16657 1.07606 0.92330
 C1047 C 1.25113 1.10675 0.89340
 C1048 C 0.80987 0.91518 0.91500
 H1049 H 0.83340 0.92350 0.92328
 C1050 C 0.74927 0.89246 0.89245
 C1051 C 1.08460 1.18977 0.91532
 H1052 H 1.07636 1.16615 0.92345
 C1053 C 1.10710 1.25052 0.89303
 C1054 C 0.91569 0.80985 0.91533
 H1055 H 0.92393 0.83345 0.92353
 C1056 C 0.89313 0.74914 0.89297
 O1057 O 0.96858 0.38307 0.33781
 O1058 O 0.96830 0.34533 0.29979
 C1059 C 0.95731 0.37173 0.31139
 C1060 C 0.93059 0.38895 0.29450
 C1061 C 0.91851 0.37702 0.26266
 H1062 H 0.93114 0.35670 0.25208
 O1063 O 1.03149 0.61692 0.33820
 O1064 O 1.03171 0.65459 0.30013
 C1065 C 1.04272 0.62822 0.31175
 C1066 C 1.06941 0.61100 0.29480
 C1067 C 1.08139 0.62296 0.26293
 H1068 H 1.06877 0.64331 0.25240
 O1069 O 0.83854 0.46750 0.38227
 O1070 O 0.80028 0.46786 0.34477
 C1071 C 0.81197 0.45657 0.37104
 C1072 C 0.79502 0.42992 0.38831
 C1073 C 0.76477 0.41859 0.37732
 H1074 H 0.75375 0.43056 0.35679
 O1075 O 1.16195 0.53181 0.38195
 O1076 O 1.19995 0.53186 0.34420
 C1077 C 1.18841 0.54289 0.37065
 C1078 C 1.20541 0.56939 0.38810
 C1079 C 1.23567 0.58078 0.37724
 H1080 H 1.24666 0.56904 0.35656
 O1081 O 0.88353 0.33849 0.46855
 O1082 O 0.84580 0.30050 0.46850
 C1083 C 0.87222 0.31203 0.45746
 C1084 C 0.88949 0.29502 0.43084
 C1085 C 0.87867 0.26462 0.41983
 H1086 H 0.85848 0.25346 0.43220
 O1087 O 1.11707 0.66094 0.46814
 O1088 O 1.15493 0.69880 0.46822
 C1089 C 1.12849 0.68737 0.45710
 C1090 C 1.11120 0.70448 0.43055
 C1091 C 1.12208 0.73481 0.41937
 H1092 H 1.14262 0.74579 0.43135
 O1093 O 0.88292 0.53091 0.33784
 O1094 O 0.84484 0.53139 0.30016
 C1095 C 0.87141 0.54223 0.31155
 C1096 C 0.88873 0.56880 0.29454
 C1097 C 0.87790 0.57998 0.26417
 H1098 H 0.85743 0.56798 0.25311
 O1099 O 1.11730 0.46870 0.33742
 O1100 O 1.15511 0.46855 0.29948
 C1101 C 1.12865 0.45757 0.31098
 C1102 C 1.11132 0.43101 0.29396
 C1103 C 1.12215 0.41988 0.26358
 H1104 H 1.14250 0.43203 0.25247
 O1105 O 1.03190 0.33849 0.38209
 O1106 O 1.03186 0.30056 0.34426
 C1107 C 1.04295 0.31204 0.37070
 C1108 C 1.06950 0.29502 0.38807
 C1109 C 1.08101 0.26483 0.37709
 H1110 H 1.06935 0.25390 0.35633
 O1111 O 0.96804 0.66162 0.38234
 O1112 O 0.96813 0.69944 0.34442
 C1113 C 0.95697 0.68802 0.37085
 C1114 C 0.93032 0.70508 0.38803
 C1115 C 0.91888 0.73526 0.37694
 H1116 H 0.93075 0.74619 0.35631
 O1117 O 0.83895 0.61676 0.46828
 O1118 O 0.80094 0.65446 0.46827
 C1119 C 0.81246 0.62803 0.45723
 C1120 C 0.79535 0.61065 0.43073
 C1121 C 0.76499 0.62154 0.41961
 H1122 H 0.75400 0.64204 0.43164
 O1123 O 1.16066 0.38349 0.46808
 O1124 O 1.19862 0.34573 0.46795
 C1125 C 1.18705 0.37212 0.45687
 C1126 C 1.20403 0.38932 0.43017
 C1127 C 1.23587 0.37734 0.41823
 H1128 H 1.24632 0.35693 0.43083
 O1129 O 0.96815 0.61670 0.33825
 O1130 O 0.96830 0.65433 0.30015
 C1131 C 0.95717 0.62797 0.31171
 C1132 C 0.93064 0.61065 0.29461
 C1133 C 0.91953 0.62149 0.26421
 H1134 H 0.93161 0.64193 0.25319
 O1135 O 1.03194 0.38304 0.33767
 O1136 O 1.03179 0.34533 0.29962
 C1137 C 1.04295 0.37170 0.31115
 C1138 C 1.06954 0.38900 0.29406
 C1139 C 1.08078 0.37810 0.26371
 H1140 H 1.06889 0.35750 0.25276
 O1141 O 1.16230 0.46843 0.38147
 O1142 O 1.20023 0.46850 0.34365
 C1143 C 1.18874 0.45737 0.37005
 C1144 C 1.20578 0.43072 0.38727
 C1145 C 1.23459 0.41953 0.37664
 H1146 H 1.24553 0.43121 0.35593
 O1147 O 0.83857 0.53089 0.38250
 O1148 O 0.80033 0.53124 0.34498
 C1149 C 0.81208 0.54214 0.37138
 C1150 C 0.79519 0.56871 0.38886
 C1151 C 0.76483 0.57991 0.37808
 H1152 H 0.75374 0.56787 0.35764
 O1153 O 0.88296 0.66171 0.46799
 O1154 O 0.84511 0.69956 0.46801
 C1155 C 0.87148 0.68810 0.45685
 C1156 C 0.88857 0.70510 0.43008
 C1157 C 0.87745 0.73527 0.41870
 H1158 H 0.85693 0.74622 0.43072
 O1159 O 1.11660 0.33862 0.46815
 O1160 O 1.15440 0.30071 0.46829
 C1161 C 1.12802 0.31216 0.45713
 C1162 C 1.11093 0.29506 0.43044
 C1163 C 1.12206 0.26482 0.41925
 H1164 H 1.14241 0.25384 0.43151
 O1165 O 1.11800 0.53207 0.33682
 O1166 O 1.15589 0.53189 0.29896
 C1167 C 1.12949 0.54306 0.31035
 C1168 C 1.11232 0.56966 0.29318
 C1169 C 1.12302 0.58085 0.26437
 H1170 H 1.14379 0.56921 0.25351
 O1171 O 0.88224 0.46757 0.33694
 O1172 O 0.84410 0.46805 0.29932
 C1173 C 0.87056 0.45676 0.31048
 C1174 C 0.88762 0.43023 0.29311
 C1175 C 0.87679 0.41907 0.26433
 H1176 H 0.85594 0.43067 0.25357
 O1177 O 1.03139 0.66121 0.38286
 O1178 O 1.03155 0.69908 0.34498
 C1179 C 1.04255 0.68760 0.37146
 C1180 C 1.06916 0.70459 0.38877
 C1181 C 1.08034 0.73491 0.37792
 H1182 H 1.06823 0.74596 0.35749
 O1183 O 0.96859 0.33866 0.38233
 O1184 O 0.96843 0.30069 0.34454
 C1185 C 0.95745 0.31221 0.37101
 C1186 C 0.93095 0.29516 0.38848
 C1187 C 0.91967 0.26482 0.37766
 H1188 H 0.93139 0.25390 0.35693
 O1189 O 1.16175 0.61666 0.46806
 O1190 O 1.19977 0.65435 0.46831
 C1191 C 1.18825 0.62802 0.45708
 C1192 C 1.20534 0.61089 0.43041
 C1193 C 1.23564 0.62192 0.41930
 H1194 H 1.24664 0.64227 0.43155
 O1195 O 0.83852 0.38242 0.46819
 O1196 O 0.80064 0.34460 0.46821
 C1197 C 0.81212 0.37096 0.45704
 C1198 C 0.79509 0.38809 0.43028
 C1199 C 0.76485 0.37704 0.41895
 H1200 H 0.75389 0.35651 0.43094
 Cu1201 Cu 1.00028 0.36460 0.36375
 Cu1202 Cu 1.00008 0.31918 0.31823
 Cu1203 Cu 0.99974 0.63534 0.36421
 Cu1204 Cu 0.99994 0.68065 0.31860
 Cu1205 Cu 0.86439 0.49916 0.36365
 Cu1206 Cu 0.81854 0.49969 0.31855
 Cu1207 Cu 1.13610 0.50028 0.36320
 Cu1208 Cu 1.18160 0.50019 0.31777
 C1209 C 0.91599 0.41449 0.30852
 H1210 H 0.92423 0.42324 0.33194
 C1211 C 0.89262 0.39084 0.24774
 C1212 C 1.08404 0.58542 0.30874
 H1213 H 1.07589 0.57665 0.33217
 C1214 C 1.10719 0.60912 0.24789
 C1215 C 0.80981 0.41469 0.41496
 H1216 H 0.83333 0.42304 0.42327
 C1217 C 0.74924 0.39198 0.39230
 C1218 C 1.19060 0.58444 0.41485
 H1219 H 1.16704 0.57610 0.42304
 C1220 C 1.25123 0.60723 0.39252
 C1221 C 0.91585 0.30991 0.41523
 H1222 H 0.92404 0.33355 0.42337
 C1223 C 0.89337 0.24910 0.39305
 C1224 C 1.08456 0.68974 0.41527
 H1225 H 1.07634 0.66613 0.42346
 C1226 C 1.10697 0.75046 0.39288
 C1227 C 0.91528 0.58411 0.30941
 H1228 H 0.92343 0.57592 0.33306
 C1229 C 0.89298 0.60650 0.24856
 C1230 C 1.08482 0.41563 0.30883
 H1231 H 1.07663 0.42384 0.33246
 C1232 C 1.10726 0.39324 0.24803
 C1233 C 1.08446 0.30977 0.41491
 H1234 H 1.07606 0.33328 0.42317
 C1235 C 1.10747 0.24928 0.39239
 C1236 C 0.91517 0.69039 0.41478
 H1237 H 0.92357 0.66692 0.42316
 C1238 C 0.89227 0.75081 0.39196
 C1239 C 0.81010 0.58405 0.41538
 H1240 H 0.83374 0.57584 0.42350
 C1241 C 0.74931 0.60651 0.39309
 C1242 C 1.19015 0.41493 0.41551
 H1243 H 1.16673 0.42373 0.42363
 C1244 C 1.25098 0.39122 0.39247
 O1245 O 1.03135 0.38304 0.66199
 O1246 O 1.03179 0.34539 0.70008
 C1247 C 1.04267 0.37182 0.68841
 C1248 C 1.06929 0.38924 0.70530
 C1249 C 1.08114 0.37758 0.73731
 H1250 H 1.06852 0.35726 0.74789
 O1251 O 0.96879 0.61697 0.66198
 O1252 O 0.96872 0.65482 0.69990
 C1253 C 0.95769 0.62837 0.68843
 C1254 C 0.93114 0.61106 0.70549
 C1255 C 0.91990 0.62195 0.73583
 H1256 H 0.93184 0.64250 0.74683
 O1257 O 0.83877 0.53192 0.61740
 O1258 O 0.80086 0.53191 0.65524
 C1259 C 0.81237 0.54305 0.62884
 C1260 C 0.79540 0.56974 0.61162
 C1261 C 0.76518 0.58112 0.62264
 H1262 H 0.75424 0.56924 0.64327
 O1263 O 1.16157 0.46828 0.61776
 O1264 O 1.19965 0.46806 0.65545
 C1265 C 1.18802 0.45710 0.62900
 C1266 C 1.20492 0.43061 0.61145
 C1267 C 1.23526 0.41928 0.62214
 H1268 H 1.24629 0.43101 0.64281
 O1269 O 1.11635 0.33914 0.53159
 O1270 O 1.15416 0.30123 0.53178
 C1271 C 1.12775 0.31278 0.54284
 C1272 C 1.11057 0.29584 0.56959
 C1273 C 1.12258 0.26403 0.58161
 H1274 H 1.14301 0.25358 0.56904
 O1275 O 0.88352 0.66148 0.53145
 O1276 O 0.84568 0.69935 0.53148
 C1277 C 0.87212 0.68790 0.54255
 C1278 C 0.88934 0.70494 0.56919
 C1279 C 0.87836 0.73524 0.58036
 H1280 H 0.85802 0.74630 0.56814
 O1281 O 0.88308 0.46831 0.66168
 O1282 O 0.84533 0.46815 0.69968
 C1283 C 0.87171 0.45710 0.68810
 C1284 C 0.88890 0.43041 0.70508
 C1285 C 0.87684 0.41829 0.73687
 H1286 H 0.85633 0.43076 0.74729
 O1287 O 1.11740 0.53158 0.66242
 O1288 O 1.15528 0.53162 0.70031
 C1289 C 1.12885 0.54271 0.68882
 C1290 C 1.11163 0.56936 0.70580
 C1291 C 1.12256 0.58063 0.73611
 H1292 H 1.14297 0.56855 0.74720
 O1293 O 0.96808 0.33820 0.61788
 O1294 O 0.96821 0.30034 0.65575
 C1295 C 0.95704 0.31179 0.62931
 C1296 C 0.93040 0.29478 0.61204
 C1297 C 0.91904 0.26455 0.62302
 H1298 H 0.93095 0.25357 0.64361
 O1299 O 1.03202 0.66136 0.61734
 O1300 O 1.03205 0.69941 0.65505
 C1301 C 1.04312 0.68783 0.62865
 C1302 C 1.06969 0.70480 0.61128
 C1303 C 1.08098 0.73510 0.62213
 H1304 H 1.06907 0.74611 0.64270
 O1305 O 0.83871 0.38299 0.53163
 O1306 O 0.80080 0.34519 0.53167
 C1307 C 0.81225 0.37165 0.54269
 C1308 C 0.79517 0.38903 0.56920
 C1309 C 0.76484 0.37818 0.58041
 H1310 H 0.75382 0.35766 0.56844
 O1311 O 1.16123 0.61622 0.53150
 O1312 O 1.19925 0.65391 0.53179
 C1313 C 1.18763 0.62752 0.54277
 C1314 C 1.20456 0.61027 0.56946
 C1315 C 1.23647 0.62213 0.58130
 H1316 H 1.24699 0.64240 0.56855
 O1317 O 1.03213 0.61715 0.66210
 O1318 O 1.03213 0.65501 0.70000
 C1319 C 1.04324 0.62859 0.68854
 C1320 C 1.06985 0.61136 0.70564
 C1321 C 1.08116 0.62238 0.73592
 H1322 H 1.06927 0.64301 0.74683
 O1323 O 0.96796 0.38203 0.66309
 O1324 O 0.96840 0.34430 0.70109
 C1325 C 0.95708 0.37059 0.68964
 C1326 C 0.93041 0.38766 0.70679
 C1327 C 0.91916 0.37687 0.73554
 H1328 H 0.93085 0.35614 0.74642
 O1329 O 1.16247 0.53163 0.61846
 O1330 O 1.20047 0.53139 0.65622
 C1331 C 1.18901 0.54256 0.62983
 C1332 C 1.20618 0.56906 0.61254
 C1333 C 1.23504 0.58019 0.62313
 H1334 H 1.24596 0.56859 0.64390
 O1335 O 0.83873 0.46857 0.61704
 O1336 O 0.80079 0.46851 0.65486
 C1337 C 0.81227 0.45751 0.62838
 C1338 C 0.79519 0.43100 0.61103
 C1339 C 0.76485 0.41987 0.62191
 H1340 H 0.75384 0.43197 0.64236
 O1341 O 1.11724 0.66115 0.53153
 O1342 O 1.15510 0.69900 0.53163
 C1343 C 1.12866 0.68757 0.54265
 C1344 C 1.11143 0.70468 0.56924
 C1345 C 1.12237 0.73503 0.58036
 H1346 H 1.14278 0.74605 0.56821
 O1347 O 0.88291 0.33822 0.53203
 O1348 O 0.84516 0.30026 0.53198
 C1349 C 0.87151 0.31180 0.54317
 C1350 C 0.88865 0.29481 0.56994
 C1351 C 0.87761 0.26456 0.58123
 H1352 H 0.85713 0.25358 0.56916
 O1353 O 1.11787 0.46820 0.66311
 O1354 O 1.15581 0.46827 0.70092
 C1355 C 1.12936 0.45718 0.68957
 C1356 C 1.11213 0.43068 0.70681
 C1357 C 1.12270 0.41975 0.73577
 H1358 H 1.14334 0.43155 0.74673
 O1359 O 0.88334 0.53163 0.66181
 O1360 O 0.84562 0.53155 0.69984
 C1361 C 0.87203 0.54261 0.68834
 C1362 C 0.88934 0.56912 0.70547
 C1363 C 0.87846 0.58025 0.73584
 H1364 H 0.85803 0.56816 0.74687
 O1365 O 0.96867 0.66145 0.61747
 O1366 O 0.96862 0.69948 0.65519
 C1367 C 0.95755 0.68791 0.62879
 C1368 C 0.93095 0.70491 0.61141
 C1369 C 0.91955 0.73515 0.62237
 H1370 H 0.93131 0.74607 0.64308
 O1371 O 1.03148 0.33768 0.61829
 O1372 O 1.03160 0.29990 0.65625
 C1373 C 1.04262 0.31129 0.62977
 C1374 C 1.06921 0.29419 0.61253
 C1375 C 1.08041 0.26542 0.62323
 H1376 H 1.06874 0.25451 0.64397
 O1377 O 1.16110 0.38333 0.53150
 O1378 O 1.19908 0.34559 0.53140
 C1379 C 1.18761 0.37198 0.54250
 C1380 C 1.20476 0.38918 0.56908
 C1381 C 1.23518 0.37826 0.57999
 H1382 H 1.24624 0.35802 0.56761
 O1383 O 0.83878 0.61728 0.53171
 O1384 O 0.80079 0.65500 0.53170
 C1385 C 0.81235 0.62866 0.54284
 C1386 C 0.79537 0.61150 0.56957
 C1387 C 0.76512 0.62251 0.58087
 H1388 H 0.75410 0.64296 0.56879
 Cu1389 Cu 0.99969 0.36401 0.63652
 Cu1390 Cu 1.00004 0.31870 0.68210
 Cu1391 Cu 1.00040 0.63544 0.63595
 Cu1392 Cu 1.00038 0.68100 0.68133
 Cu1393 Cu 0.86469 0.36432 0.50011
 Cu1394 Cu 0.81931 0.31882 0.50009
 Cu1395 Cu 1.13488 0.36492 0.49983
 Cu1396 Cu 1.18037 0.31951 0.49986
 Cu1397 Cu 0.86486 0.63553 0.49985
 Cu1398 Cu 0.81933 0.68089 0.49986
 Cu1399 Cu 1.13553 0.63496 0.49978
 Cu1400 Cu 1.18109 0.68030 0.50000
 Cu1401 Cu 0.86476 0.50011 0.63569
 Cu1402 Cu 0.81934 0.50003 0.68121
 Cu1403 Cu 1.13603 0.49993 0.63666
 Cu1404 Cu 1.18161 0.49981 0.68203
 C1405 C 1.08395 0.41473 0.69122
 H1406 H 1.07590 0.42330 0.66767
 C1407 C 1.10686 0.39157 0.75236
 C1408 C 0.91588 0.58447 0.69067
 H1409 H 0.92410 0.57628 0.66705
 C1410 C 0.89338 0.60687 0.75144
 C1411 C 0.81013 0.58493 0.58492
 H1412 H 0.83365 0.57659 0.57660
 C1413 C 0.74958 0.60766 0.60757
 C1414 C 1.19001 0.41556 0.58475
 H1415 H 1.16637 0.42381 0.57671
 C1416 C 1.25084 0.39294 0.60672
 C1417 C 1.08496 0.30974 0.58423
 H1418 H 1.07614 0.33313 0.57606
 C1419 C 1.10872 0.24900 0.60742
 C1420 C 0.91584 0.69016 0.58466
 H1421 H 0.92415 0.66660 0.57642
 C1422 C 0.89309 0.75077 0.60714
 C1423 C 0.91461 0.41590 0.69123
 H1424 H 0.92347 0.42416 0.66787
 C1425 C 0.89074 0.39252 0.75192
 C1426 C 1.08508 0.58469 0.69095
 H1427 H 1.07681 0.57638 0.66738
 C1428 C 1.10768 0.60733 0.75160
 C1429 C 0.91521 0.30954 0.58533
 H1430 H 0.92355 0.33306 0.57703
 C1431 C 0.89248 0.24899 0.60793
 C1432 C 1.08490 0.68995 0.58466
 H1433 H 1.07664 0.66635 0.57648
 C1434 C 1.10748 0.75068 0.60698
 C1435 C 0.80998 0.41562 0.58448
 H1436 H 0.83360 0.42379 0.57628
 C1437 C 0.74924 0.39328 0.60695
 C1438 C 1.19058 0.58480 0.58423
 H1439 H 1.16710 0.57609 0.57618
 C1440 C 1.25154 0.60835 0.60712
 O1441 O 0.46856 0.88275 0.33792
 O1442 O 0.46823 0.84510 0.29981
 C1443 C 0.45728 0.87149 0.31149
 C1444 C 0.43062 0.88881 0.29459
 C1445 C 0.41871 0.87701 0.26264
 H1446 H 0.43135 0.85669 0.25207
 O1447 O 0.53140 1.11682 0.33783
 O1448 O 0.53167 1.15460 0.29986
 C1449 C 0.54268 1.12821 0.31144
 C1450 C 0.56943 1.11103 0.29456
 C1451 C 0.58164 1.12307 0.26282
 H1452 H 0.56909 1.14347 0.25230
 O1453 O 0.33802 0.96809 0.38172
 O1454 O 0.30001 0.96806 0.34396
 C1455 C 0.31155 0.95703 0.37041
 C1456 C 0.29453 0.93054 0.38784
 C1457 C 0.26422 0.91922 0.37701
 H1458 H 0.25321 0.93104 0.35638
 O1459 O 0.66118 1.03236 0.38248
 O1460 O 0.69939 1.03194 0.34494
 C1461 C 0.68773 1.04327 0.37122
 C1462 C 0.70470 1.06991 0.38852
 C1463 C 0.73499 1.08120 0.37763
 H1464 H 0.74597 1.06929 0.35705
 O1465 O 0.38315 0.83938 0.46788
 O1466 O 0.34551 0.80130 0.46766
 C1467 C 0.37191 0.81292 0.45669
 C1468 C 0.38930 0.79590 0.43015
 C1469 C 0.37754 0.76393 0.41830
 H1470 H 0.35708 0.75349 0.43081
 O1471 O 0.61634 1.16153 0.46867
 O1472 O 0.65410 1.19948 0.46857
 C1473 C 0.62768 1.18795 0.45754
 C1474 C 0.61040 1.20491 0.43090
 C1475 C 0.62128 1.23524 0.41976
 H1476 H 0.64159 1.24637 0.43198
 O1477 O 0.38265 1.03120 0.33722
 O1478 O 0.34484 1.03137 0.29926
 C1479 C 0.37130 1.04234 0.31078
 C1480 C 0.38866 1.06889 0.29379
 C1481 C 0.37785 1.08009 0.26342
 H1482 H 0.35744 1.06803 0.25230
 O1483 O 0.61663 0.96902 0.33819
 O1484 O 0.65461 0.96834 0.30043
 C1485 C 0.62805 0.95758 0.31190
 C1486 C 0.61070 0.93097 0.29495
 C1487 C 0.62243 0.91912 0.26296
 H1488 H 0.64281 0.93170 0.25245
 O1489 O 0.53194 0.83805 0.38199
 O1490 O 0.53193 0.80021 0.34406
 C1491 C 0.54304 0.81166 0.37053
 C1492 C 0.56965 0.79465 0.38782
 C1493 C 0.58102 0.76440 0.37689
 H1494 H 0.56916 0.75341 0.35627
 O1495 O 0.46797 1.16125 0.38212
 O1496 O 0.46800 1.19920 0.34433
 C1497 C 0.45689 1.18769 0.37074
 C1498 C 0.43032 1.20470 0.38809
 C1499 C 0.41881 1.23487 0.37707
 H1500 H 0.43047 1.24577 0.35629
 O1501 O 0.33927 1.11633 0.46827
 O1502 O 0.30130 1.15407 0.46809
 C1503 C 0.31288 1.12768 0.45703
 C1504 C 0.29593 1.11046 0.43029
 C1505 C 0.26407 1.12241 0.41836
 H1506 H 0.25358 1.14277 0.43102
 O1507 O 0.66095 0.88304 0.46819
 O1508 O 0.69896 0.84534 0.46818
 C1509 C 0.68744 0.87175 0.45714
 C1510 C 0.70452 0.88910 0.43061
 C1511 C 0.73481 0.87813 0.41939
 H1512 H 0.74577 0.85758 0.43135
 O1513 O 0.46805 1.11673 0.33764
 O1514 O 0.46821 1.15447 0.29965
 C1515 C 0.45706 1.12808 0.31112
 C1516 C 0.43052 1.11080 0.29397
 C1517 C 0.41934 1.12174 0.26362
 H1518 H 0.43131 1.14230 0.25270
 O1519 O 0.53191 0.88225 0.33715
 O1520 O 0.53159 0.84454 0.29909
 C1521 C 0.54278 0.87090 0.31057
 C1522 C 0.56927 0.88815 0.29336
 C1523 C 0.58021 0.87761 0.26440
 H1524 H 0.56838 0.85701 0.25341
 O1525 O 0.66131 0.96896 0.38252
 O1526 O 0.69947 0.96853 0.34494
 C1527 C 0.68777 0.95767 0.37136
 C1528 C 0.70466 0.93107 0.38879
 C1529 C 0.73495 0.91978 0.37791
 H1530 H 0.74601 0.93180 0.35744
 O1531 O 0.33778 1.03147 0.38140
 O1532 O 0.29985 1.03142 0.34357
 C1533 C 0.31133 1.04254 0.36999
 C1534 C 0.29426 1.06915 0.38726
 C1535 C 0.26544 1.08032 0.37665
 H1536 H 0.25452 1.06867 0.35589
 O1537 O 0.38325 1.16127 0.46826
 O1538 O 0.34545 1.19918 0.46832
 C1539 C 0.37182 1.18770 0.45718
 C1540 C 0.38890 1.20474 0.43044
 C1541 C 0.37778 1.23496 0.41920
 H1542 H 0.35743 1.24598 0.43145
 O1543 O 0.61689 0.83814 0.46790
 O1544 O 0.65475 0.80029 0.46796
 C1545 C 0.62837 0.81174 0.45678
 C1546 C 0.61129 0.79469 0.43002
 C1547 C 0.62233 0.76443 0.41879
 H1548 H 0.64276 0.75345 0.43094
 O1549 O 0.61767 1.03235 0.33698
 O1550 O 0.65573 1.03171 0.29929
 C1551 C 0.62933 1.04310 0.31048
 C1552 C 0.61235 1.06969 0.29313
 C1553 C 0.62329 1.08095 0.26443
 H1554 H 0.64415 1.06936 0.25370
 O1555 O 0.38208 0.96781 0.33672
 O1556 O 0.34420 0.96802 0.29884
 C1557 C 0.37059 0.95683 0.31024
 C1558 C 0.38776 0.93023 0.29304
 C1559 C 0.37713 0.91917 0.26415
 H1560 H 0.35643 0.93089 0.25324
 O1561 O 0.53127 1.16116 0.38247
 O1562 O 0.53140 1.19913 0.34471
 C1563 C 0.54237 1.18762 0.37118
 C1564 C 0.56883 1.20471 0.38865
 C1565 C 0.58010 1.23501 0.37776
 H1566 H 0.56828 1.24590 0.35707
 O1567 O 0.46856 0.83763 0.38178
 O1568 O 0.46856 0.79985 0.34380
 C1569 C 0.45750 0.81122 0.37028
 C1570 C 0.43093 0.79410 0.38748
 C1571 C 0.41995 0.76519 0.37694
 H1572 H 0.43183 0.75416 0.35638
 O1573 O 0.66120 1.11747 0.46841
 O1574 O 0.69913 1.15525 0.46840
 C1575 C 0.68762 1.12887 0.45728
 C1576 C 0.70466 1.11169 0.43058
 C1577 C 0.73498 1.12263 0.41941
 H1578 H 0.74602 1.14305 0.43154
 O1579 O 0.33813 0.88332 0.46783
 O1580 O 0.30033 0.84542 0.46779
 C1581 C 0.31172 0.87185 0.45672
 C1582 C 0.29461 0.88898 0.43006
 C1583 C 0.26427 0.87800 0.41896
 H1584 H 0.25326 0.85764 0.43118
 Cu1585 Cu 0.50027 0.86394 0.36352
 Cu1586 Cu 0.50007 0.81864 0.31787
 Cu1587 Cu 0.49965 1.13520 0.36379
 Cu1588 Cu 0.49983 1.18065 0.31832
 Cu1589 Cu 0.36392 0.99962 0.36305
 Cu1590 Cu 0.31842 0.99973 0.31761
 Cu1591 Cu 0.63539 1.00074 0.36380
 Cu1592 Cu 0.68114 1.00006 0.31864
 C1593 C 0.41598 0.91435 0.30862
 H1594 H 0.42409 0.92302 0.33212
 C1595 C 0.39297 0.89093 0.24760
 C1596 C 0.58396 1.08541 0.30851
 H1597 H 0.57562 1.07657 0.33185
 C1598 C 0.60755 1.10927 0.24792
 C1599 C 0.30935 0.91544 0.41454
 H1600 H 0.33295 0.92372 0.42271
 C1601 C 0.24864 0.89278 0.39226
 C1602 C 0.68990 1.08515 0.41517
 H1603 H 0.66633 1.07687 0.42340
 C1604 C 0.75059 1.10772 0.39276
 C1605 C 0.41493 0.80981 0.41556
 H1606 H 0.42358 0.83331 0.42361
 C1607 C 0.39163 0.74876 0.39269
 C1608 C 0.58398 1.19001 0.41540
 H1609 H 0.57577 1.16641 0.42360
 C1610 C 0.60650 1.25070 0.39299
 C1611 C 0.41519 1.08420 0.30869
 H1612 H 0.42336 1.07596 0.33232
 C1613 C 0.39282 1.10671 0.24791
 C1614 C 0.58519 0.91630 0.30899
 H1615 H 0.57658 0.92435 0.33253
 C1616 C 0.60843 0.89343 0.24787
 C1617 C 0.58477 0.80942 0.41456
 H1618 H 0.57643 0.83296 0.42282
 C1619 C 0.60753 0.74883 0.39207
 C1620 C 0.41536 1.19000 0.41493
 H1621 H 0.42378 1.16650 0.42323
 C1622 C 0.39236 1.25045 0.39232
 C1623 C 0.30986 1.08491 0.41557
 H1624 H 0.33330 1.07614 0.42367
 C1625 C 0.24900 1.10857 0.39256
 C1626 C 0.68979 0.91576 0.41533
 H1627 H 0.66621 0.92403 0.42354
 C1628 C 0.75045 0.89312 0.39284
 O1629 O 0.53117 0.88305 0.66182
 O1630 O 0.53123 0.84521 0.69972
 C1631 C 0.54225 0.87166 0.68827
 C1632 C 0.56875 0.88900 0.70538
 C1633 C 0.57991 0.87816 0.73576
 H1634 H 0.56792 0.85764 0.74675
 O1635 O 0.46861 1.11749 0.66253
 O1636 O 0.46846 1.15529 0.70050
 C1637 C 0.45747 1.12884 0.68897
 C1638 C 0.43090 1.11150 0.70597
 C1639 C 0.41975 1.12232 0.73636
 H1640 H 0.43189 1.14267 0.74750
 O1641 O 0.33857 1.03186 0.61778
 O1642 O 0.30052 1.03191 0.65547
 C1643 C 0.31209 1.04296 0.62907
 C1644 C 0.29511 1.06952 0.61169
 C1645 C 0.26494 1.08104 0.62271
 H1646 H 0.25399 1.06933 0.64342
 O1647 O 0.66116 0.96807 0.61735
 O1648 O 0.69906 0.96807 0.65521
 C1649 C 0.68755 0.95692 0.62880
 C1650 C 0.70450 0.93021 0.61158
 C1651 C 0.73472 0.91880 0.62262
 H1652 H 0.74566 0.93068 0.64325
 O1653 O 0.61642 0.83834 0.53137
 O1654 O 0.65428 0.80049 0.53143
 C1655 C 0.62784 0.81194 0.54249
 C1656 C 0.61064 0.79492 0.56915
 C1657 C 0.62163 0.76464 0.58035
 H1658 H 0.64198 0.75357 0.56815
 O1659 O 0.38360 1.16083 0.53172
 O1660 O 0.34581 1.19875 0.53182
 C1661 C 0.37221 1.18722 0.54291
 C1662 C 0.38939 1.20423 0.56963
 C1663 C 0.37745 1.23612 0.58149
 H1664 H 0.35710 1.24657 0.56880
 O1665 O 0.38293 0.96856 0.66243
 O1666 O 0.34505 0.96854 0.70029
 C1667 C 0.37146 0.95744 0.68884
 C1668 C 0.38859 0.93072 0.70582
 C1669 C 0.37755 0.91938 0.73606
 H1670 H 0.35717 0.93151 0.74717
 O1671 O 0.61685 1.03173 0.66162
 O1672 O 0.65460 1.03187 0.69964
 C1673 C 0.62824 1.04295 0.68805
 C1674 C 0.61108 1.06968 0.70503
 C1675 C 0.62311 1.08171 0.73688
 H1676 H 0.64354 1.06914 0.74734
 O1677 O 0.46799 0.83865 0.61711
 O1678 O 0.46795 0.80059 0.65479
 C1679 C 0.45691 0.81217 0.62838
 C1680 C 0.43038 0.79519 0.61095
 C1681 C 0.41911 0.76488 0.62177
 H1682 H 0.43098 0.75387 0.64236
 O1683 O 0.53178 1.16208 0.61803
 O1684 O 0.53181 1.20008 0.65580
 C1685 C 0.54287 1.18853 0.62936
 C1686 C 0.56944 1.20551 0.61199
 C1687 C 0.58075 1.23580 0.62287
 H1688 H 0.56881 1.24685 0.64341
 O1689 O 0.33857 0.88365 0.53130
 O1690 O 0.30076 0.84575 0.53127
 C1691 C 0.31220 0.87217 0.54242
 C1692 C 0.29521 0.88929 0.56916
 C1693 C 0.26490 0.87832 0.58028
 H1694 H 0.25382 0.85801 0.56801
 O1695 O 0.66109 1.11708 0.53182
 O1696 O 0.69903 1.15486 0.53183
 C1697 C 0.68757 1.12842 0.54286
 C1698 C 0.70468 1.11106 0.56935
 C1699 C 0.73501 1.12194 0.58055
 H1700 H 0.74599 1.14247 0.56858
 O1701 O 0.53200 1.11818 0.66315
 O1702 O 0.53183 1.15605 0.70103
 C1703 C 0.54302 1.12967 0.68962
 C1704 C 0.56968 1.11254 0.70674
 C1705 C 0.58092 1.12327 0.73553
 H1706 H 0.56927 1.14401 0.74642
 O1707 O 0.46785 0.88274 0.66202
 O1708 O 0.46784 0.84487 0.69988
 C1709 C 0.45675 0.87130 0.68846
 C1710 C 0.43017 0.88855 0.70558
 C1711 C 0.41875 0.87745 0.73578
 H1712 H 0.43051 0.85671 0.74660
 O1713 O 0.66126 1.03143 0.61707
 O1714 O 0.69920 1.03149 0.65490
 C1715 C 0.68771 1.04251 0.62844
 C1716 C 0.70476 1.06906 0.61112
 C1717 C 0.73509 1.08023 0.62201
 H1718 H 0.74612 1.06816 0.64247
 O1719 O 0.33873 0.96852 0.61763
 O1720 O 0.30066 0.96849 0.65531
 C1721 C 0.31226 0.95741 0.62890
 C1722 C 0.29526 0.93083 0.61147
 C1723 C 0.26500 0.91944 0.62236
 H1724 H 0.25406 0.93119 0.64306
 O1725 O 0.61690 1.16187 0.53213
 O1726 O 0.65468 1.19981 0.53204
 C1727 C 0.62832 1.18832 0.54322
 C1728 C 0.61118 1.20539 0.56992
 C1729 C 0.62219 1.23568 0.58113
 H1730 H 0.64268 1.24663 0.56906
 O1731 O 0.38275 0.83890 0.53127
 O1732 O 0.34511 0.80084 0.53108
 C1733 C 0.37145 0.81238 0.54225
 C1734 C 0.38869 0.79528 0.56884
 C1735 C 0.37777 0.76492 0.57992
 H1736 H 0.35738 0.75390 0.56774
 O1737 O 0.61661 0.96841 0.66179
 O1738 O 0.65433 0.96847 0.69984
 C1739 C 0.62791 0.95741 0.68832
 C1740 C 0.61056 0.93093 0.70542
 C1741 C 0.62138 0.91982 0.73583
 H1742 H 0.64179 0.93192 0.74691
 O1743 O 0.38307 1.03195 0.66231
 O1744 O 0.34521 1.03199 0.70019
 C1745 C 0.37164 1.04307 0.68874
 C1746 C 0.38891 1.06969 0.70583
 C1747 C 0.37798 1.08094 0.73617
 H1748 H 0.35738 1.06904 0.74708
 O1749 O 0.46839 1.16250 0.61850
 O1750 O 0.46844 1.20042 0.65634
 C1751 C 0.45732 1.18895 0.62992
 C1752 C 0.43071 1.20600 0.61264
 C1753 C 0.41954 1.23484 0.62322
 H1754 H 0.43118 1.24580 0.64395
 O1755 O 0.53133 0.83848 0.61738
 O1756 O 0.53136 0.80046 0.65509
 C1757 C 0.54244 0.81202 0.62870
 C1758 C 0.56903 0.79501 0.61135
 C1759 C 0.58043 0.76478 0.62233
 H1760 H 0.56867 0.75389 0.64304
 O1761 O 0.66109 0.88263 0.53164
 O1762 O 0.69909 0.84492 0.53163
 C1763 C 0.68753 0.87126 0.54278
 C1764 C 0.70451 0.88843 0.56952
 C1765 C 0.73475 0.87740 0.58083
 H1766 H 0.74576 0.85694 0.56875
 O1767 O 0.33872 1.11676 0.53172
 O1768 O 0.30077 1.15451 0.53159
 C1769 C 0.31225 1.12816 0.54276
 C1770 C 0.29518 1.11106 0.56946
 C1771 C 0.26499 1.12224 0.58074
 H1772 H 0.25405 1.14269 0.56860
 Cu1773 Cu 0.49958 0.86452 0.63581
 Cu1774 Cu 0.49960 0.81896 0.68117
 Cu1775 Cu 0.50020 1.13627 0.63677
 Cu1776 Cu 0.50012 1.18176 0.68222
 Cu1777 Cu 0.36441 0.86512 0.49957
 Cu1778 Cu 0.31913 0.81952 0.49944
 Cu1779 Cu 0.63504 0.86431 0.49977
 Cu1780 Cu 0.68058 0.81896 0.49980
 Cu1781 Cu 0.36500 1.13502 0.50000
 Cu1782 Cu 0.31953 1.18042 0.49995
 Cu1783 Cu 0.63510 1.13570 0.50028
 Cu1784 Cu 0.68053 1.18116 0.50021
 Cu1785 Cu 0.36462 1.00023 0.63627
 Cu1786 Cu 0.31905 1.00024 0.68162
 Cu1787 Cu 0.63519 0.99990 0.63567
 Cu1788 Cu 0.68061 0.99997 0.68121
 C1789 C 0.58405 0.91556 0.69058
 H1790 H 0.57589 0.92372 0.66692
 C1791 C 0.60640 0.89324 0.75142
 C1792 C 0.41554 1.08498 0.69109
 H1793 H 0.42376 1.07679 0.66747
 C1794 C 0.39310 1.10742 0.75188
 C1795 C 0.30986 1.08452 0.58489
 H1796 H 0.33335 1.07608 0.57659
 C1797 C 0.24944 1.10759 0.60756
 C1798 C 0.68976 0.91502 0.58487
 H1799 H 0.66625 0.92337 0.57653
 C1800 C 0.75030 0.89224 0.60755
 C1801 C 0.58414 0.80972 0.58459
 H1802 H 0.57582 0.83326 0.57633
 C1803 C 0.60689 0.74915 0.60714
 C1804 C 0.41495 1.19034 0.58438
 H1805 H 0.42373 1.16690 0.57631
 C1806 C 0.39131 1.25126 0.60725
 C1807 C 0.41510 0.91535 0.69097
 H1808 H 0.42345 0.92371 0.66745
 C1809 C 0.39227 0.89255 0.75148
 C1810 C 0.58544 1.08427 0.69115
 H1811 H 0.57659 1.07608 0.66775
 C1812 C 0.60926 1.10749 0.75195
 C1813 C 0.41519 0.81003 0.58431
 H1814 H 0.42344 0.83364 0.57617
 C1815 C 0.39262 0.74930 0.60658
 C1816 C 0.58463 1.19067 0.58534
 H1817 H 0.57632 1.16711 0.57712
 C1818 C 0.60730 1.25133 0.60777
 C1819 C 0.31001 0.91574 0.58471
 H1820 H 0.33358 0.92405 0.57650
 C1821 C 0.24936 0.89303 0.60706
 C1822 C 0.68992 1.08444 0.58460
 H1823 H 0.66631 1.07624 0.57640
 C1824 C 0.75065 1.10686 0.60706
 O1825 O 0.46831 0.38256 0.83768
 O1826 O 0.46826 0.34474 0.79973
 C1827 C 0.45722 0.37119 0.81123
 C1828 C 0.43066 0.38849 0.79417
 C1829 C 0.41956 0.37762 0.76377
 H1830 H 0.43168 0.35723 0.75269
 O1831 O 0.53126 0.61681 0.83812
 O1832 O 0.53130 0.65465 0.80023
 C1833 C 0.54235 0.62822 0.81169
 C1834 C 0.56892 0.61094 0.79463
 C1835 C 0.58011 0.62184 0.76428
 H1836 H 0.56812 0.64235 0.75328
 O1837 O 0.33808 0.46833 0.88215
 O1838 O 0.30029 0.46797 0.84418
 C1839 C 0.31173 0.45710 0.87074
 C1840 C 0.29472 0.43059 0.88816
 C1841 C 0.26446 0.41922 0.87726
 H1842 H 0.25349 0.43100 0.85660
 O1843 O 0.66149 0.53174 0.88293
 O1844 O 0.69911 0.53202 0.84480
 C1845 C 0.68774 0.54302 0.87134
 C1846 C 0.70468 0.56975 0.88855
 C1847 C 0.73490 0.58111 0.87755
 H1848 H 0.74589 0.56915 0.85699
 O1849 O 0.38319 0.33929 0.96812
 O1850 O 0.34542 0.30134 0.96805
 C1851 C 0.37181 0.31287 0.95696
 C1852 C 0.38904 0.29584 0.93029
 C1853 C 0.37716 0.26392 0.91843
 H1854 H 0.35674 0.25349 0.93103
 O1855 O 0.61642 0.66167 0.96862
 O1856 O 0.65422 0.69958 0.96856
 C1857 C 0.62779 0.68809 0.95751
 C1858 C 0.61055 0.70509 0.93085
 C1859 C 0.62146 0.73540 0.91969
 H1860 H 0.64177 0.74652 0.93192
 O1861 O 0.38256 0.53153 0.83758
 O1862 O 0.34496 0.53132 0.79943
 C1863 C 0.37128 0.54252 0.81104
 C1864 C 0.38852 0.56916 0.79407
 C1865 C 0.37761 0.58042 0.76375
 H1866 H 0.35722 0.56832 0.75263
 O1867 O 0.61694 0.46824 0.83879
 O1868 O 0.65437 0.46828 0.80048
 C1869 C 0.62809 0.45715 0.81224
 C1870 C 0.61076 0.43054 0.79527
 C1871 C 0.62250 0.41873 0.76326
 H1872 H 0.64289 0.43132 0.75277
 O1873 O 0.53153 0.33808 0.88226
 O1874 O 0.53167 0.30010 0.84448
 C1875 C 0.54269 0.31166 0.87093
 C1876 C 0.56930 0.29475 0.88830
 C1877 C 0.58080 0.26456 0.87732
 H1878 H 0.56900 0.25354 0.85669
 O1879 O 0.46800 0.66116 0.88275
 O1880 O 0.46792 0.69920 0.84505
 C1881 C 0.45689 0.68762 0.87146
 C1882 C 0.43034 0.70458 0.88887
 C1883 C 0.41897 0.73484 0.87799
 H1884 H 0.43078 0.74582 0.85735
 O1885 O 0.33882 0.61605 0.96859
 O1886 O 0.30090 0.65383 0.96841
 C1887 C 0.31247 0.62745 0.95733
 C1888 C 0.29556 0.61032 0.93051
 C1889 C 0.26374 0.62232 0.91855
 H1890 H 0.25323 0.64258 0.93133
 O1891 O 0.66093 0.38330 0.96833
 O1892 O 0.69883 0.34550 0.96817
 C1893 C 0.68733 0.37192 0.95714
 C1894 C 0.70431 0.38919 0.93048
 C1895 C 0.73608 0.37721 0.91833
 H1896 H 0.74650 0.35668 0.93076
 O1897 O 0.46792 0.61702 0.83788
 O1898 O 0.46790 0.65488 0.80000
 C1899 C 0.45682 0.62845 0.81143
 C1900 C 0.43025 0.61120 0.79429
 C1901 C 0.41897 0.62221 0.76400
 H1902 H 0.43085 0.64284 0.75312
 O1903 O 0.53169 0.38202 0.83718
 O1904 O 0.53158 0.34415 0.79928
 C1905 C 0.54271 0.37056 0.81070
 C1906 C 0.56929 0.38775 0.79356
 C1907 C 0.58027 0.37723 0.76461
 H1908 H 0.56844 0.35665 0.75358
 O1909 O 0.66233 0.46834 0.88241
 O1910 O 0.69990 0.46861 0.84424
 C1911 C 0.68871 0.45740 0.87073
 C1912 C 0.70594 0.43078 0.88777
 C1913 C 0.73467 0.41960 0.87693
 H1914 H 0.74552 0.43136 0.85621
 O1915 O 0.33761 0.53167 0.88165
 O1916 O 0.29986 0.53135 0.84365
 C1917 C 0.31117 0.54260 0.87009
 C1918 C 0.29399 0.56918 0.88730
 C1919 C 0.26522 0.58044 0.87660
 H1920 H 0.25439 0.56893 0.85571
 O1921 O 0.38289 0.66089 0.96865
 O1922 O 0.34514 0.69885 0.96874
 C1923 C 0.37152 0.68737 0.95763
 C1924 C 0.38872 0.70449 0.93102
 C1925 C 0.37771 0.73479 0.91989
 H1926 H 0.35731 0.74580 0.93208
 O1927 O 0.61675 0.33852 0.96819
 O1928 O 0.65447 0.30054 0.96833
 C1929 C 0.62812 0.31204 0.95715
 C1930 C 0.61098 0.29494 0.93045
 C1931 C 0.62214 0.26474 0.91918
 H1932 H 0.64264 0.25384 0.93127
 O1933 O 0.61710 0.53156 0.83829
 O1934 O 0.65457 0.53163 0.80001
 C1935 C 0.62822 0.54262 0.81169
 C1936 C 0.61079 0.56908 0.79463
 C1937 C 0.62163 0.58024 0.76425
 H1938 H 0.64207 0.56819 0.75319
 O1939 O 0.38257 0.46814 0.83761
 O1940 O 0.34495 0.46791 0.79947
 C1941 C 0.37133 0.45692 0.81112
 C1942 C 0.38870 0.43031 0.79415
 C1943 C 0.37787 0.41905 0.76378
 H1944 H 0.35732 0.43098 0.75277
 O1945 O 0.53133 0.66139 0.88255
 O1946 O 0.53132 0.69942 0.84484
 C1947 C 0.54241 0.68787 0.87124
 C1948 C 0.56896 0.70493 0.88862
 C1949 C 0.58028 0.73520 0.87767
 H1950 H 0.56851 0.74608 0.85696
 O1951 O 0.46814 0.33755 0.88170
 O1952 O 0.46830 0.29962 0.84387
 C1953 C 0.45713 0.31109 0.87026
 C1954 C 0.43051 0.29402 0.88746
 C1955 C 0.41942 0.26515 0.87690
 H1956 H 0.43117 0.25415 0.85625
 O1957 O 0.66116 0.61745 0.96835
 O1958 O 0.69911 0.65521 0.96834
 C1959 C 0.68759 0.62884 0.95721
 C1960 C 0.70460 0.61164 0.93050
 C1961 C 0.73485 0.62265 0.91921
 H1962 H 0.74584 0.64316 0.93123
 O1963 O 0.33834 0.38339 0.96814
 O1964 O 0.30040 0.34562 0.96832
 C1965 C 0.31186 0.37197 0.95713
 C1966 C 0.29475 0.38908 0.93043
 C1967 C 0.26446 0.37804 0.91925
 H1968 H 0.25346 0.35765 0.93144
 Cu1969 Cu 0.49992 0.36384 0.86350
 Cu1970 Cu 0.49995 0.31835 0.81804
 Cu1971 Cu 0.49963 0.63530 0.86410
 Cu1972 Cu 0.49961 0.68085 0.81873
 Cu1973 Cu 0.36398 0.49995 0.86355
 Cu1974 Cu 0.31874 0.49960 0.81785
 Cu1975 Cu 0.63573 0.49995 0.86444
 Cu1976 Cu 0.68077 0.50016 0.81855
 C1977 C 0.41528 0.41503 0.80899
 H1978 H 0.42344 0.42326 0.83263
 C1979 C 0.39296 0.39254 0.74815
 C1980 C 0.58424 0.58439 0.80945
 H1981 H 0.57607 0.57618 0.83308
 C1982 C 0.60665 0.60682 0.74865
 C1983 C 0.30949 0.41555 0.91492
 H1984 H 0.33305 0.42389 0.92314
 C1985 C 0.24888 0.39277 0.89248
 C1986 C 0.68989 0.58500 0.91520
 H1987 H 0.66637 0.57667 0.92350
 C1988 C 0.75045 0.60771 0.89257
 C1989 C 0.41464 0.30971 0.91563
 H1990 H 0.42338 0.33317 0.92369
 C1991 C 0.39114 0.24873 0.89276
 C1992 C 0.58409 0.69023 0.91537
 H1993 H 0.57583 0.66666 0.92361
 C1994 C 0.60670 0.75088 0.89290
 C1995 C 0.41503 0.58451 0.80896
 H1996 H 0.42329 0.57621 0.83254
 C1997 C 0.39248 0.60713 0.74828
 C1998 C 0.58522 0.41587 0.80926
 H1999 H 0.57658 0.42390 0.83279
 C2000 C 0.60851 0.39307 0.74812
 C2001 C 0.58438 0.30957 0.91504
 H2002 H 0.57595 0.33307 0.92332
 C2003 C 0.60741 0.24912 0.89243
 C2004 C 0.41523 0.68976 0.91556
 H2005 H 0.42355 0.66619 0.92375
 C2006 C 0.39248 0.75039 0.89318
 C2007 C 0.30950 0.58482 0.91573
 H2008 H 0.33291 0.57602 0.92388
 C2009 C 0.24873 0.60861 0.89264
 C2010 C 0.69044 0.41490 0.91602
 H2011 H 0.66708 0.42372 0.92429
 C2012 C 0.75109 0.39119 0.89256
 O2013 O 0.53129 0.38325 1.16206
 O2014 O 0.53171 0.34550 1.20004
 C2015 C 0.54262 0.37194 1.18843
 C2016 C 0.56929 0.38930 1.20528
 C2017 C 0.58123 0.37760 1.23723
 H2018 H 0.56862 0.35727 1.24779
 O2019 O 0.46854 0.61718 1.16206
 O2020 O 0.46819 0.65485 1.20016
 C2021 C 0.45726 0.62843 1.18850
 C2022 C 0.43066 0.61106 1.20543
 C2023 C 0.41875 0.62287 1.23737
 H2024 H 0.43132 0.64326 1.24789
 O2025 O 0.33821 0.53171 1.11827
 O2026 O 0.30032 0.53174 1.15613
 C2027 C 0.31179 0.54279 1.12966
 C2028 C 0.29479 0.56932 1.11224
 C2029 C 0.26459 0.58082 1.12319
 H2030 H 0.25366 0.56918 1.14395
 O2031 O 0.66150 0.46795 1.11760
 O2032 O 0.69963 0.46832 1.15524
 C2033 C 0.68803 0.45703 1.12892
 C2034 C 0.70499 0.43038 1.11164
 C2035 C 0.73518 0.41891 1.12265
 H2036 H 0.74618 0.43073 1.14329
 O2037 O 0.61631 0.33905 1.03164
 O2038 O 0.65403 0.30107 1.03186
 C2039 C 0.62764 0.31267 1.04288
 C2040 C 0.61041 0.29578 1.06962
 C2041 C 0.62240 0.26399 1.08167
 H2042 H 0.64279 0.25350 1.06907
 O2043 O 0.38315 0.66051 1.03204
 O2044 O 0.34540 0.69846 1.03218
 C2045 C 0.37182 0.68693 1.04321
 C2046 C 0.38913 0.70398 1.06981
 C2047 C 0.37729 0.73590 1.08171
 H2048 H 0.35679 0.74631 1.06922
 O2049 O 0.38294 0.46856 1.16251
 O2050 O 0.34525 0.46819 1.20056
 C2051 C 0.37167 0.45727 1.18891
 C2052 C 0.38902 0.43062 1.20578
 C2053 C 0.37716 0.41856 1.23763
 H2054 H 0.35679 0.43113 1.24819
 O2055 O 0.61680 0.53124 1.16176
 O2056 O 0.65473 0.53192 1.19959
 C2057 C 0.62818 0.54266 1.18807
 C2058 C 0.61078 0.56922 1.20503
 C2059 C 0.62247 0.58103 1.23705
 H2060 H 0.64287 0.56846 1.24756
 O2061 O 0.46804 0.33874 1.11775
 O2062 O 0.46804 0.30075 1.15549
 C2063 C 0.45696 0.31230 1.12906
 C2064 C 0.43042 0.29534 1.11159
 C2065 C 0.41911 0.26502 1.12234
 H2066 H 0.43086 0.25405 1.14302
 O2067 O 0.53187 0.66194 1.11797
 O2068 O 0.53183 0.69978 1.15589
 C2069 C 0.54296 0.68833 1.12944
 C2070 C 0.56960 0.70533 1.11217
 C2071 C 0.58099 0.73556 1.12315
 H2072 H 0.56914 0.74654 1.14378
 O2073 O 0.33896 0.38379 1.03162
 O2074 O 0.30103 0.34601 1.03184
 C2075 C 0.31260 0.37240 1.04289
 C2076 C 0.29570 0.38958 1.06968
 C2077 C 0.26380 0.37768 1.08155
 H2078 H 0.25325 0.35743 1.06876
 O2079 O 0.66107 0.61706 1.03179
 O2080 O 0.69904 0.65480 1.03177
 C2081 C 0.68756 0.62837 1.04282
 C2082 C 0.70469 0.61103 1.06932
 C2083 C 0.73508 0.62191 1.08039
 H2084 H 0.74607 0.64236 1.06830
 O2085 O 0.53189 0.61781 1.16288
 O2086 O 0.53154 0.65552 1.20093
 C2087 C 0.54276 0.62918 1.18946
 C2088 C 0.56927 0.61197 1.20667
 C2089 C 0.58019 0.62248 1.23566
 H2090 H 0.56832 0.64303 1.24668
 O2091 O 0.46791 0.38218 1.16337
 O2092 O 0.46831 0.34434 1.20126
 C2093 C 0.45704 0.37070 1.18991
 C2094 C 0.43047 0.38780 1.20721
 C2095 C 0.41936 0.37702 1.23603
 H2096 H 0.43105 0.35626 1.24685
 O2097 O 0.66149 0.53131 1.11747
 O2098 O 0.69961 0.53174 1.15511
 C2099 C 0.68794 0.54260 1.12868
 C2100 C 0.70485 0.56916 1.11123
 C2101 C 0.73522 0.58037 1.12200
 H2102 H 0.74631 0.56838 1.14248
 O2103 O 0.33771 0.46837 1.11870
 O2104 O 0.29987 0.46837 1.15661
 C2105 C 0.31127 0.45730 1.13014
 C2106 C 0.29412 0.43076 1.11283
 C2107 C 0.26528 0.41961 1.12343
 H2108 H 0.25440 0.43117 1.14425
 O2109 O 0.61691 0.66187 1.03211
 O2110 O 0.65472 0.69976 1.03205
 C2111 C 0.62836 0.68828 1.04323
 C2112 C 0.61127 0.70530 1.07001
 C2113 C 0.62233 0.73554 1.08129
 H2114 H 0.64278 0.74652 1.06918
 O2115 O 0.38308 0.33898 1.03155
 O2116 O 0.34533 0.30102 1.03152
 C2117 C 0.37173 0.31251 1.04261
 C2118 C 0.38894 0.29541 1.06924
 C2119 C 0.37805 0.26501 1.08020
 H2120 H 0.35780 0.25392 1.06784
 O2121 O 0.61768 0.46793 1.16279
 O2122 O 0.65565 0.46856 1.20058
 C2123 C 0.62926 0.45720 1.18932
 C2124 C 0.61218 0.43069 1.20668
 C2125 C 0.62286 0.41973 1.23560
 H2126 H 0.64354 0.43152 1.24650
 O2127 O 0.38218 0.53195 1.16335
 O2128 O 0.34445 0.53161 1.20136
 C2129 C 0.37077 0.54288 1.18990
 C2130 C 0.38792 0.56951 1.20707
 C2131 C 0.37730 0.58057 1.23597
 H2132 H 0.35666 0.56880 1.24692
 O2133 O 0.46846 0.66231 1.11820
 O2134 O 0.46845 0.70011 1.15616
 C2135 C 0.45738 0.68872 1.12969
 C2136 C 0.43077 0.70580 1.11249
 C2137 C 0.41973 0.73467 1.12307
 H2138 H 0.43160 0.74569 1.14365
 O2139 O 0.53143 0.33782 1.11845
 O2140 O 0.53142 0.29994 1.15630
 C2141 C 0.54250 0.31136 1.12986
 C2142 C 0.56908 0.29422 1.11261
 C2143 C 0.58030 0.26546 1.12335
 H2144 H 0.56868 0.25460 1.14414
 O2145 O 0.66130 0.38297 1.03175
 O2146 O 0.69921 0.34517 1.03167
 C2147 C 0.68775 0.37155 1.04283
 C2148 C 0.70485 0.38868 1.06952
 C2149 C 0.73505 0.37754 1.08082
 H2150 H 0.74595 0.35703 1.06873
 O2151 O 0.33835 0.61636 1.03207
 O2152 O 0.30042 0.65413 1.03195
 C2153 C 0.31189 0.62777 1.04311
 C2154 C 0.29482 0.61070 1.06983
 C2155 C 0.26458 0.62181 1.08100
 H2156 H 0.25358 0.64214 1.06871
 Cu2157 Cu 0.49964 0.36428 1.13664
 Cu2158 Cu 0.49989 0.31884 1.18207
 Cu2159 Cu 0.50022 0.63604 1.13647
 Cu2160 Cu 0.49998 0.68136 1.18210
 Cu2161 Cu 0.36466 0.36515 0.99984
 Cu2162 Cu 0.31924 0.31970 0.99995
 Cu2163 Cu 0.63505 0.36475 0.99996
 Cu2164 Cu 0.68042 0.31925 1.00001
 Cu2165 Cu 0.36458 0.63466 1.00035
 Cu2166 Cu 0.31914 0.68010 1.00032
 Cu2167 Cu 0.63509 0.63574 1.00022
 Cu2168 Cu 0.68057 0.68115 1.00018
 Cu2169 Cu 0.36404 0.50017 1.13693
 Cu2170 Cu 0.31869 0.49996 1.18248
 Cu2171 Cu 0.63557 0.49954 1.13613
 Cu2172 Cu 0.68123 0.50020 1.18141
 C2173 C 0.58394 0.41477 1.19119
 H2174 H 0.57581 0.42336 1.16767
 C2175 C 0.60701 0.39156 1.25222
 C2176 C 0.41607 0.58545 1.19145
 H2177 H 0.42418 0.57678 1.16795
 C2178 C 0.39307 0.60888 1.25246
 C2179 C 0.30954 0.58426 1.08540
 H2180 H 0.33307 0.57586 1.07716
 C2181 C 0.24904 0.60725 1.10787
 C2182 C 0.69020 0.41528 1.08491
 H2183 H 0.66671 0.42369 1.07659
 C2184 C 0.75065 0.39230 1.10756
 C2185 C 0.58481 0.30972 1.08427
 H2186 H 0.57601 0.33311 1.07608
 C2187 C 0.60860 0.24901 1.10754
 C2188 C 0.41479 0.69010 1.08439
 H2189 H 0.42351 0.66664 1.07630
 C2190 C 0.39137 0.75107 1.10734
 C2191 C 0.41461 0.41607 1.19175
 H2192 H 0.42331 0.42429 1.16831
 C2193 C 0.39106 0.39275 1.25258
 C2194 C 0.58525 0.58387 1.19100
 H2195 H 0.57667 0.57585 1.16744
 C2196 C 0.60843 0.60667 1.25218
 C2197 C 0.41533 0.31020 1.08487
 H2198 H 0.42357 0.33382 1.07678
 C2199 C 0.39276 0.24940 1.10694
 C2200 C 0.58473 0.69058 1.08543
 H2201 H 0.57637 0.66706 1.07712
 C2202 C 0.60752 0.75113 1.10802
 C2203 C 0.30968 0.41506 1.08448
 H2204 H 0.33313 0.42380 1.07640
 C2205 C 0.24875 0.39148 1.10738
 C2206 C 0.68994 0.58447 1.08470
 H2207 H 0.66630 0.57626 1.07659
 C2208 C 0.75077 0.60692 1.10692
   
