data_POSCAR
  _audit_creation_date              2014-09-24
  _audit_creation_method            'ToBaCCo'
  _symmetry_space_group_name_H-M    'P1'
  _symmetry_Int_Tables_number       1
  _symmetry_cell_setting            triclinic
  loop_
  _symmetry_equiv_pos_as_xyz
 x,y,z
_cell_length_a 39.3154
_cell_length_b 39.4335
_cell_length_c 42.4685
_cell_angle_alpha 89.032300
_cell_angle_beta 90.103200
_cell_angle_gamma 90.664000
loop_
  _atom_site_label
  _atom_site_type_symbol
  _atom_site_fract_x
  _atom_site_fract_y
  _atom_site_fract_z
C1 C 0.42089 0.00903 0.27619
 C2 C 0.39587 0.03861 0.26993
 C3 C 0.37394 0.03318 0.24550
 C4 C 0.37882 -0.00106 0.22954
 C5 C 0.39741 -0.02156 0.28078
 C6 C 0.37532 -0.02771 0.25686
 C7 C 0.43835 0.00415 0.24446
 C8 C 0.41681 0.00020 0.21954
 H9 H 0.39486 0.06167 0.28318
 H10 H 0.36095 -0.00545 0.20984
 H11 H 0.39531 -0.03416 0.30349
 H12 H 0.46524 0.00951 0.24150
 C13 C 0.06689 -0.00176 0.77433
 C14 C 0.09399 -0.02987 0.77277
 C15 C 0.11629 -0.02600 0.74833
 C16 C 0.10969 0.00592 0.72785
 C17 C 0.08840 0.03084 0.77539
 C18 C 0.11076 0.03570 0.75135
 C19 C 0.05083 -0.00146 0.74348
 C20 C 0.07404 0.00213 0.71746
 H21 H 0.09506 -0.05137 0.78878
 H22 H 0.12857 0.00840 0.70872
 H23 H 0.08824 0.04701 0.79568
 H24 H 0.02364 -0.00472 0.74075
 C25 C 0.56982 0.48833 0.28742
 C26 C 0.59416 0.45803 0.28416
 C27 C 0.61628 0.46106 0.25959
 C28 C 0.61237 0.49424 0.24044
 C29 C 0.59377 0.51905 0.28918
 C30 C 0.61638 0.52240 0.26531
 C31 C 0.55255 0.49153 0.25529
 C32 C 0.57428 0.49407 0.23022
 H33 H 0.59445 0.43617 0.29976
 H34 H 0.63106 0.49682 0.22116
 H35 H 0.59328 0.53636 0.30867
 H36 H 0.52541 0.48763 0.25280
 C37 C 0.92684 0.51613 0.79227
 C38 C 0.91064 0.55029 0.78263
 C39 C 0.88856 0.54856 0.75780
 C40 C 0.88521 0.51245 0.74447
 C41 C 0.89687 0.49180 0.79755
 C42 C 0.87476 0.48942 0.77305
 C43 C 0.94367 0.50451 0.76206
 C44 C 0.92238 0.50288 0.73692
 H45 H 0.91741 0.57406 0.79333
 H46 H 0.86793 0.51086 0.72386
 H47 H 0.89467 0.47649 0.81885
 H48 H 0.97099 0.50210 0.75976
 C49 C 0.28319 0.36554 1.00059
 C50 C 0.27675 0.33583 1.02356
 C51 C 0.24784 0.31775 1.01794
 C52 C 0.22714 0.33105 0.98943
 C53 C 0.28192 0.34908 0.96802
 C54 C 0.25298 0.33057 0.96192
 C55 C 0.25069 0.38650 1.00200
 C56 C 0.22115 0.36909 0.99632
 H57 H 0.29272 0.32968 1.04347
 H58 H 0.20364 0.31596 0.98520
 H59 H 0.30316 0.35076 0.95188
 H60 H 0.25141 0.41340 1.00667
 C61 C 0.77314 0.13295 0.99911
 C62 C 0.76697 0.16108 0.97441
 C63 C 0.73877 0.17979 0.97944
 C64 C 0.71734 0.16712 1.00797
 C65 C 0.77187 0.15155 1.03083
 C66 C 0.74268 0.16932 1.03561
 C67 C 0.74215 0.11258 0.99828
 C68 C 0.71115 0.13059 1.00334
 H69 H 0.78214 0.16537 0.95359
 H70 H 0.69423 0.18249 1.01127
 H71 H 0.79242 0.15088 1.04769
 H72 H 0.74289 0.08528 0.99634
 C73 C 0.28268 0.63230 0.50150
 C74 C 0.27631 0.65335 0.47135
 C75 C 0.24793 0.67254 0.47199
 C76 C 0.22762 0.66889 0.50294
 C77 C 0.28273 0.65910 0.52745
 C78 C 0.25391 0.67819 0.52839
 C79 C 0.24973 0.61175 0.50713
 C80 C 0.22083 0.63050 0.50834
 H81 H 0.29444 0.65623 0.45236
 H82 H 0.20442 0.68467 0.50335
 H83 H 0.30384 0.66277 0.54344
 H84 H 0.24992 0.58456 0.51025
 C85 C 0.79481 0.87114 0.49241
 C86 C 0.78929 0.85210 0.52375
 C87 C 0.76032 0.83328 0.52549
 C88 C 0.73818 0.83566 0.49568
 C89 C 0.79128 0.84379 0.46705
 C90 C 0.76169 0.82528 0.46869
 C91 C 0.76210 0.89220 0.48795
 C92 C 0.73223 0.87390 0.48957
 H93 H 0.80654 0.85456 0.54349
 H94 H 0.71491 0.81969 0.49760
 H95 H 0.80819 0.84257 0.44707
 H96 H 0.76240 0.91843 0.48052
 C97 C -0.00501 0.27073 0.40713
 C98 C 0.01254 0.28844 0.37908
 C99 C 0.01625 0.26861 0.35360
 C100 C -0.00063 0.23363 0.35759
 C101 C -0.03764 0.25929 0.39531
 C102 C -0.03544 0.23935 0.36771
 C103 C 0.01488 0.23791 0.41291
 C104 C 0.01707 0.21843 0.38673
 H105 H 0.02586 0.31252 0.38125
 H106 H 0.00157 0.21723 0.33671
 H107 H -0.06153 0.26564 0.40608
 H108 H 0.02111 0.22853 0.43627
 C109 C 0.00441 0.77188 0.10508
 C110 C -0.00996 0.78064 0.13693
 C111 C -0.01693 0.75358 0.15586
 C112 C -0.00455 0.71995 0.14250
 C113 C 0.03732 0.75349 0.11287
 C114 C 0.03259 0.72671 0.13315
 C115 C -0.01928 0.74448 0.09193
 C116 C -0.02293 0.71660 0.11093
 H117 H -0.01572 0.80646 0.14312
 H118 H -0.00744 0.69762 0.15843
 H119 H 0.06228 0.76297 0.10637
 H120 H -0.02815 0.74519 0.06780
 C121 C 0.53323 0.27470 0.61529
 C122 C 0.49479 0.27382 0.62095
 C123 C 0.48335 0.24459 0.63446
 C124 C 0.51090 0.21867 0.64075
 C125 C 0.54896 0.26690 0.64741
 C126 C 0.53721 0.23721 0.66035
 C127 C 0.54071 0.24323 0.59600
 C128 C 0.52794 0.21393 0.60886
 H129 H 0.47873 0.29563 0.61694
 H130 H 0.50131 0.19525 0.65242
 H131 H 0.57103 0.28020 0.65654
 H132 H 0.55539 0.24445 0.57453
 C133 C 0.48188 0.77757 0.89602
 C134 C 0.51572 0.78425 0.87924
 C135 C 0.52586 0.75814 0.86110
 C136 C 0.50101 0.72782 0.86138
 C137 C 0.45660 0.76868 0.87007
 C138 C 0.46682 0.74272 0.85203
 C139 C 0.48627 0.74607 0.91340
 C140 C 0.49740 0.71858 0.89454
 H141 H 0.53105 0.80675 0.88327
 H142 H 0.50869 0.70743 0.84543
 H143 H 0.43143 0.77940 0.86806
 H144 H 0.47793 0.74255 0.93752
 C145 C -0.23459 0.67442 0.97267
 C146 C -0.20576 0.64918 0.98096
 C147 C -0.21313 0.62791 1.00575
 C148 C -0.24821 0.63391 1.02029
 C149 C -0.26571 0.65165 0.96789
 C150 C -0.27362 0.63044 0.99238
 C151 C -0.24077 0.69275 1.00358
 C152 C -0.24663 0.67204 1.02912
 H153 H -0.18133 0.64838 0.96947
 H154 H -0.25410 0.61654 1.04016
 H155 H -0.27786 0.64973 0.94513
 H156 H -0.23435 0.71938 1.00573
 C157 C -0.25590 0.31697 0.47721
 C158 C -0.28448 0.34363 0.48030
 C159 C -0.27930 0.36646 0.50363
 C160 C -0.24608 0.36038 0.52211
 C161 C -0.22389 0.33900 0.47302
 C162 C -0.21783 0.36131 0.49646
 C163 C -0.25311 0.30153 0.50844
 C164 C -0.24902 0.32503 0.53370
 H165 H -0.30704 0.34482 0.46595
 H166 H -0.24138 0.37972 0.54020
 H167 H -0.20882 0.33868 0.45188
 H168 H -0.25907 0.27495 0.51248
 C169 C 0.23517 -0.18180 -0.03552
 C170 C 0.20458 -0.15830 -0.02955
 C171 C 0.20959 -0.13583 -0.00589
 C172 C 0.24439 -0.13979 0.01056
 C173 C 0.26475 -0.15690 -0.04057
 C174 C 0.27066 -0.13509 -0.01665
 C175 C 0.24150 -0.19834 -0.00543
 C176 C 0.24533 -0.17586 0.02053
 H177 H 0.18082 -0.15895 -0.04218
 H178 H 0.24848 -0.12149 0.02960
 H179 H 0.27733 -0.15437 -0.06311
 H180 H 0.23796 -0.22545 -0.00234
 C181 C 0.27271 1.18099 0.45941
 C182 C 0.30626 1.16274 0.46808
 C183 C 0.30334 1.13997 0.49262
 C184 C 0.26728 1.13836 0.50685
 C185 C 0.24713 1.15232 0.45423
 C186 C 0.24360 1.12995 0.47861
 C187 C 0.26203 1.19739 0.49009
 C188 C 0.25994 1.17575 0.51531
 H189 H 0.33032 1.16761 0.45652
 H190 H 0.26478 1.12029 0.52702
 H191 H 0.23270 1.15045 0.43261
 H192 H 0.26154 1.22469 0.49256
 C193 C 0.12107 0.53150 0.25176
 C194 C 0.09009 0.52867 0.23000
 C195 C 0.06972 0.50121 0.23568
 C196 C 0.08279 0.47775 0.26229
 C197 C 0.10643 0.52882 0.28546
 C198 C 0.08628 0.50075 0.29090
 C199 C 0.13930 0.49778 0.24732
 C200 C 0.11974 0.46962 0.25312
 H201 H 0.08812 0.54283 0.20816
 H202 H 0.06657 0.45487 0.26652
 H203 H 0.11261 0.54682 0.30363
 H204 H 0.16597 0.49639 0.24115
 C205 C -0.11848 1.02529 0.25423
 C206 C -0.09022 1.02251 0.27873
 C207 C -0.06984 0.99514 0.27581
 C208 C -0.08038 0.97188 0.24811
 C209 C -0.09908 1.02443 0.22281
 C210 C -0.07901 0.99655 0.21933
 C211 C -0.13692 0.99341 0.25606
 C212 C -0.11685 0.96351 0.25245
 H213 H -0.08445 1.04231 0.29525
 H214 H -0.06326 0.94998 0.24578
 H215 H -0.09959 1.04506 0.20573
 H216 H -0.16438 0.99302 0.25619
 C217 C 0.38147 0.53768 -0.24800
 C218 C 0.40375 0.53256 -0.21875
 C219 C 0.42359 0.50476 -0.21917
 C220 C 0.41822 0.48278 -0.24856
 C221 C 0.40652 0.53627 -0.27570
 C222 C 0.42582 0.50767 -0.27601
 C223 C 0.36078 0.50459 -0.25029
 C224 C 0.37938 0.47541 -0.25103
 H225 H 0.40513 0.54979 -0.19942
 H226 H 0.43450 0.46006 -0.24852
 H227 H 0.40727 0.55544 -0.29414
 H228 H 0.33364 0.50530 -0.25412
 C229 C 0.62405 0.03942 -0.24813
 C230 C 0.60325 0.03387 -0.27829
 C231 C 0.58464 0.00482 -0.27838
 C232 C 0.58760 -0.01654 -0.24787
 C233 C 0.59708 0.03716 -0.22176
 C234 C 0.57827 0.00780 -0.22146
 C235 C 0.64482 0.00668 -0.24364
 C236 C 0.62592 -0.02276 -0.24308
 H237 H 0.60211 0.05149 -0.29799
 H238 H 0.57149 -0.03980 -0.24784
 H239 H 0.59478 0.05594 -0.20371
 H240 H 0.67210 0.00731 -0.24029
 C241 C 0.02769 0.24842 0.84335
 C242 C 0.03839 0.27078 0.87089
 C243 C 0.01354 0.27568 0.89263
 C244 C -0.01937 0.25632 0.88475
 C245 C 0.01509 0.21525 0.85829
 C246 C -0.00920 0.21955 0.88018
 C247 C -0.00265 0.26394 0.83047
 C248 C -0.02879 0.26882 0.85341
 H249 H 0.06328 0.28259 0.87159
 H250 H -0.03880 0.25747 0.90290
 H251 H 0.02535 0.19059 0.85303
 H252 H -0.00683 0.26692 0.80542
 C253 C 0.52001 0.25269 0.14556
 C254 C 0.53122 0.23280 0.11726
 C255 C 0.50576 0.22481 0.09720
 C256 C 0.47111 0.23882 0.10652
 C257 C 0.50318 0.28426 0.13145
 C258 C 0.47795 0.27663 0.11058
 C259 C 0.49081 0.23202 0.16012
 C260 C 0.46464 0.22567 0.14005
 H261 H 0.55737 0.22538 0.11371
 H262 H 0.44993 0.23317 0.09006
 H263 H 0.51313 0.30975 0.13392
 H264 H 0.48820 0.22881 0.18541
 C265 C 0.02739 0.77237 0.63082
 C266 C 0.02698 0.73400 0.62631
 C267 C -0.00100 0.72256 0.61089
 C268 C -0.02584 0.75019 0.60127
 C269 C 0.02296 0.78764 0.59778
 C270 C -0.00486 0.77558 0.58235
 C271 C -0.00616 0.78028 0.64730
 C272 C -0.03385 0.76840 0.63165
 H273 H 0.04797 0.71789 0.63310
 H274 H -0.04869 0.74128 0.58831
 H275 H 0.03617 0.81049 0.58985
 H276 H -0.00779 0.79428 0.66894
 C277 C 0.52332 0.73301 0.34667
 C278 C 0.53286 0.75975 0.37111
 C279 C 0.50745 0.76715 0.39143
 C280 C 0.47513 0.74621 0.38602
 C281 C 0.51094 0.70214 0.36579
 C282 C 0.48594 0.70945 0.38629
 C283 C 0.49115 0.74658 0.33076
 C284 C 0.46601 0.75373 0.35161
 H285 H 0.55653 0.77393 0.36971
 H286 H 0.45466 0.75061 0.40325
 H287 H 0.52066 0.67678 0.36359
 H288 H 0.48823 0.74900 0.30548
 Zr289 Zr 0.02677 -0.02355 1.03860
 O290 O 0.06467 -0.00426 1.06913
 O291 O 0.02167 -0.07358 1.05469
 O292 O 0.00881 -0.02258 1.08581
 O293 O 0.08230 -0.03864 0.97719
 O294 O -0.04104 0.00648 1.08216
 O295 O 0.07480 -0.04623 1.03008
 O296 O -0.02239 -0.09383 1.02513
 O297 O -0.02597 -0.03163 1.03546
 O298 O 0.01784 -0.04945 0.99678
 O299 O 0.00488 0.02491 1.03922
 O300 O 0.04771 0.00767 1.00251
 Zr301 Zr -0.03832 0.02203 0.95570
 Zr302 Zr -0.04753 0.01655 1.03382
 Zr303 Zr 0.03619 -0.01795 0.96088
 Zr304 Zr -0.03460 -0.05557 0.99270
 O305 O 0.07738 0.00940 0.94035
 O306 O -0.08023 -0.07100 1.01564
 O307 O -0.01624 -0.02642 0.95468
 O308 O -0.05875 -0.00876 0.99200
 O309 O -0.02975 0.04841 0.99747
 O310 O 0.01435 0.03001 0.95906
 C311 C 0.00020 -0.09666 1.04681
 C312 C 0.09243 -0.04899 1.00453
 C313 C -0.01788 -0.00912 1.09790
 O314 O -0.09123 -0.00964 1.05080
 O315 O -0.09124 0.04213 1.01844
 O316 O -0.08437 0.04803 0.96525
 C317 C -0.10102 0.05265 0.99112
 O318 O 0.06412 0.06332 1.03264
 Zr319 Zr 0.02278 0.05462 1.00135
 O320 O -0.03331 0.07170 0.93915
 O321 O -0.05151 0.06233 1.05879
 O322 O 0.00898 0.09444 1.03159
 O323 O 0.06526 0.07347 0.97548
 O324 O 0.00491 0.09511 0.97318
 C325 C -0.01607 0.09673 0.94992
 O326 O -0.07847 0.00402 0.92700
 O327 O 0.04349 -0.06521 0.93907
 O328 O -0.02265 0.01617 0.90797
 O329 O 0.02614 -0.01444 0.91257
 O330 O -0.01965 -0.09827 0.96657
 O331 O -0.07086 -0.06559 0.95675
 C332 C 0.00270 -0.00008 0.89624
 H333 H 0.02931 -0.07165 0.99621
 H334 H -0.08354 -0.01228 0.98917
 H335 H 0.02353 0.04344 0.94102
 H336 H 0.01019 0.03652 1.05915
 H337 H -0.08256 -0.09590 1.01340
 H338 H -0.10205 0.00521 1.06639
 H339 H -0.07229 0.06031 1.07190
 H340 H 0.02138 0.11519 1.02443
 H341 H -0.03347 -0.11795 0.97411
 H342 H 0.06343 -0.06252 0.92498
 H343 H 0.08821 -0.00596 0.92521
 H344 H 0.06625 0.09836 0.97830
 H345 H -0.08136 -0.08824 0.96048
 H346 H -0.08470 0.02297 0.91253
 H347 H 0.07134 -0.02321 1.08343
 H348 H 0.07106 0.08753 1.03142
 Zr349 Zr 0.53986 0.48039 0.55039
 O350 O 0.57748 0.50430 0.57824
 O351 O 0.53976 0.43108 0.56872
 O352 O 0.52361 0.48214 0.59795
 O353 O 0.59377 0.46457 0.48780
 O354 O 0.47030 0.50452 0.59453
 O355 O 0.58840 0.45923 0.54114
 O356 O 0.49848 0.40515 0.53950
 O357 O 0.48766 0.46843 0.54951
 O358 O 0.53113 0.45218 0.50985
 O359 O 0.51445 0.52711 0.55003
 O360 O 0.55752 0.51120 0.51254
 Zr361 Zr 0.46889 0.51699 0.46843
 Zr362 Zr 0.46252 0.51491 0.54659
 Zr363 Zr 0.54623 0.48298 0.47233
 Zr364 Zr 0.47922 0.44184 0.50826
 O365 O 0.58495 0.51240 0.45020
 O366 O 0.43748 0.42464 0.53597
 O367 O 0.49433 0.47029 0.46852
 O368 O 0.45159 0.48676 0.50641
 O369 O 0.47711 0.54588 0.50865
 O370 O 0.52091 0.52911 0.46946
 C371 C 0.52221 0.40518 0.56037
 C372 C 0.60503 0.45546 0.51515
 C373 C 0.49540 0.49208 0.61006
 O374 O 0.41934 0.48848 0.56443
 O375 O 0.41812 0.53995 0.53144
 O376 O 0.42199 0.54087 0.47785
 C377 C 0.40683 0.54803 0.50386
 O378 O 0.57147 0.56844 0.53949
 Zr379 Zr 0.52911 0.55614 0.51051
 O380 O 0.46958 0.56605 0.44997
 O381 O 0.45793 0.56063 0.57154
 O382 O 0.51544 0.59638 0.54030
 O383 O 0.56802 0.57712 0.48139
 O384 O 0.50529 0.59419 0.48312
 C385 C 0.48358 0.59313 0.46041
 O386 O 0.42902 0.49439 0.44226
 O387 O 0.55597 0.43581 0.45117
 O388 O 0.48250 0.51012 0.42063
 O389 O 0.53393 0.48399 0.42441
 O390 O 0.49401 0.39929 0.48189
 O391 O 0.44107 0.42769 0.47531
 C392 C 0.50851 0.49542 0.40863
 H393 H 0.54408 0.43084 0.50915
 H394 H 0.42694 0.48172 0.50457
 H395 H 0.52820 0.54240 0.45061
 H396 H 0.51956 0.53978 0.56944
 H397 H 0.43708 0.39954 0.53524
 H398 H 0.40847 0.50355 0.57982
 H399 H 0.43780 0.55791 0.58541
 H400 H 0.52645 0.61737 0.53190
 H401 H 0.48153 0.37921 0.49050
 H402 H 0.57514 0.43947 0.43633
 H403 H 0.59635 0.49733 0.43518
 H404 H 0.56724 0.60206 0.48354
 H405 H 0.43038 0.40596 0.48220
 H406 H 0.42057 0.51194 0.42726
 H407 H 0.58626 0.48674 0.59305
 H408 H 0.57801 0.59255 0.53605
 Zr409 Zr 0.48304 1.01710 0.54103
 O410 O 0.44673 1.00123 0.57510
 O411 O 0.49652 1.06524 0.55648
 O412 O 0.50544 1.01091 0.58647
 O413 O 0.42245 1.04113 0.48526
 O414 O 0.55196 0.97857 0.57717
 O415 O 0.43758 1.04594 0.53698
 O416 O 0.53582 1.08430 0.52062
 O417 O 0.53546 1.02062 0.53214
 O418 O 0.48899 1.04352 0.49823
 O419 O 0.50013 0.96682 0.53952
 O420 O 0.45453 0.98947 0.50775
 Zr421 Zr 0.53260 0.96867 0.45186
 Zr422 Zr 0.55196 0.97068 0.52846
 Zr423 Zr 0.46319 1.01510 0.46488
 Zr424 Zr 0.54072 1.04526 0.48845
 O425 O 0.41717 0.99168 0.45050
 O426 O 0.58981 1.05594 0.50685
 O427 O 0.51502 1.01902 0.45308
 O428 O 0.56000 0.99653 0.48552
 O429 O 0.52672 0.94191 0.49464
 O430 O 0.48017 0.96532 0.46080
 C431 C 0.51734 1.08757 0.54518
 C432 C 0.41769 1.05206 0.51325
 C433 C 0.53219 0.99464 0.59567
 O434 O 0.59884 0.99307 0.54177
 O435 O 0.59204 0.94334 0.50874
 O436 O 0.57953 0.94222 0.45619
 C437 C 0.59878 0.93545 0.48022
 O438 O 0.43641 0.93582 0.53943
 Zr439 Zr 0.47457 0.94056 0.50418
 O440 O 0.52332 0.91832 0.43924
 O441 O 0.55534 0.92313 0.55201
 O442 O 0.48707 0.89850 0.53362
 O443 O 0.42796 0.92653 0.48249
 O444 O 0.48492 0.89910 0.47587
 C445 C 0.50490 0.89504 0.45243
 O446 O 0.56876 0.98306 0.41709
 O447 O 0.45729 1.06314 0.44254
 O448 O 0.51154 0.97853 0.40607
 O449 O 0.46622 1.01232 0.41608
 O450 O 0.52645 1.08942 0.46269
 O451 O 0.57337 1.05284 0.44904
 C452 C 0.48654 0.99768 0.39721
 H453 H 0.47991 1.06682 0.49851
 H454 H 0.58445 0.99852 0.48020
 H455 H 0.46786 0.95318 0.44394
 H456 H 0.49622 0.95479 0.55987
 H457 H 0.59426 1.08056 0.50377
 H458 H 0.61048 0.97636 0.55561
 H459 H 0.57741 0.92300 0.56333
 H460 H 0.47122 0.87965 0.52848
 H461 H 0.54285 1.10772 0.46804
 H462 H 0.43478 1.06307 0.43196
 H463 H 0.40579 1.00800 0.43608
 H464 H 0.42449 0.90189 0.48638
 H465 H 0.58637 1.07430 0.45145
 H466 H 0.57115 0.96357 0.40278
 H467 H 0.44396 1.02030 0.58979
 H468 H 0.42630 0.91271 0.53909
 Zr469 Zr -0.03697 0.50766 1.06019
 O470 O -0.07394 0.48652 1.09115
 O471 O -0.03212 0.55719 1.07693
 O472 O -0.01756 0.50216 1.10661
 O473 O -0.09622 0.52419 1.00171
 O474 O 0.03221 0.47381 1.09998
 O475 O -0.08448 0.53236 1.05363
 O476 O 0.00616 0.58168 1.04291
 O477 O 0.01562 0.51651 1.05552
 O478 O -0.03042 0.53558 1.01840
 O479 O -0.01463 0.45936 1.05843
 O480 O -0.05972 0.47820 1.02454
 Zr481 Zr 0.02403 0.46793 0.97360
 Zr482 Zr 0.03747 0.46848 1.05124
 Zr483 Zr -0.05054 0.50603 0.98297
 Zr484 Zr 0.02166 0.54304 1.01296
 O485 O -0.09184 0.47921 0.96277
 O486 O 0.06557 0.55794 1.03849
 O487 O 0.00138 0.51597 0.97517
 O488 O 0.04623 0.49664 1.00977
 O489 O 0.01784 0.43902 1.01506
 O490 O -0.02826 0.45860 0.97864
 C491 C -0.01542 0.58279 1.06559
 C492 C -0.10368 0.53558 1.02898
 C493 C 0.00933 0.48725 1.11722
 O494 O 0.08146 0.49393 1.06784
 O495 O 0.08094 0.44476 1.03286
 O496 O 0.07088 0.44235 0.97995
 C497 C 0.08919 0.43636 1.00470
 O498 O -0.07453 0.42156 1.05334
 Zr499 Zr -0.03439 0.43176 1.02093
 O500 O 0.01987 0.41853 0.95736
 O501 O 0.04367 0.42082 1.07403
 O502 O -0.02077 0.39000 1.05030
 O503 O -0.07706 0.41408 0.99513
 O504 O -0.01552 0.39267 0.99309
 C505 C 0.00515 0.39231 0.96966
 O506 O 0.06235 0.48785 0.94335
 O507 O -0.05989 0.55470 0.96309
 O508 O 0.00622 0.47814 0.92681
 O509 O -0.04259 0.50748 0.93458
 O510 O 0.00836 0.58617 0.98548
 O511 O 0.05811 0.55410 0.97715
 C512 C -0.01946 0.49565 0.91680
 H513 H -0.04234 0.55752 1.01793
 H514 H 0.07084 0.50063 1.00617
 H515 H -0.03779 0.44612 0.96053
 H516 H -0.01900 0.44619 1.07808
 H517 H 0.06764 0.58294 1.03634
 H518 H 0.09321 0.47786 1.08225
 H519 H 0.06516 0.42215 1.08622
 H520 H -0.03396 0.36994 1.04322
 H521 H 0.02509 0.60429 0.99039
 H522 H -0.08318 0.55431 0.95419
 H523 H -0.10325 0.49523 0.94809
 H524 H -0.07808 0.38914 0.99813
 H525 H 0.07326 0.57281 0.98397
 H526 H 0.06777 0.46991 0.92810
 H527 H -0.08023 0.50463 1.10591
 H528 H -0.08306 0.39805 1.05074
 Zr529 Zr -0.02095 0.46669 0.47091
 O530 O -0.05483 0.48031 0.43417
 O531 O -0.01194 0.41631 0.46021
 O532 O 0.00369 0.46862 0.42572
 O533 O -0.08133 0.44683 0.52873
 O534 O 0.05164 0.50017 0.43461
 O535 O -0.07000 0.44275 0.47627
 O536 O 0.02879 0.39903 0.49522
 O537 O 0.03149 0.46408 0.47977
 O538 O -0.01507 0.44248 0.51490
 O539 O -0.00299 0.51715 0.46991
 O540 O -0.04808 0.49586 0.50346
 Zr541 Zr 0.03030 0.52018 0.55748
 Zr542 Zr 0.04875 0.51455 0.48143
 Zr543 Zr -0.03928 0.47239 0.54747
 Zr544 Zr 0.03696 0.44135 0.52414
 O545 O -0.08521 0.49501 0.56179
 O546 O 0.08443 0.43033 0.50326
 O547 O 0.01255 0.46940 0.55901
 O548 O 0.05706 0.49084 0.52515
 O549 O 0.02431 0.54505 0.51387
 O550 O -0.02204 0.52225 0.54828
 C551 C 0.00781 0.39394 0.47246
 C552 C -0.08930 0.43774 0.50077
 C553 C 0.03227 0.48257 0.41675
 O554 O 0.09794 0.49540 0.47303
 O555 O 0.08515 0.54901 0.49842
 O556 O 0.07549 0.55043 0.55133
 C557 C 0.09221 0.55940 0.52618
 O558 O -0.06427 0.54948 0.46748
 Zr559 Zr -0.02767 0.54519 0.50419
 O560 O 0.01852 0.56906 0.57108
 O561 O 0.05065 0.55811 0.45158
 O562 O -0.01156 0.58657 0.47517
 O563 O -0.07565 0.55882 0.52257
 O564 O -0.01990 0.58648 0.53399
 C565 C -0.00180 0.59085 0.55889
 O566 O 0.06755 0.50648 0.59122
 O567 O -0.04408 0.42518 0.57167
 O568 O 0.00828 0.51540 0.60319
 O569 O -0.03684 0.47930 0.59615
 O570 O 0.02319 0.39944 0.55359
 O571 O 0.07229 0.43562 0.56176
 C572 C -0.01751 0.49772 0.61339
 H573 H -0.02549 0.41953 0.51610
 H574 H 0.08160 0.49037 0.53043
 H575 H -0.03495 0.53467 0.56431
 H576 H -0.00649 0.52767 0.44884
 H577 H 0.08860 0.40581 0.50668
 H578 H 0.10919 0.51118 0.45780
 H579 H 0.07347 0.55884 0.44167
 H580 H -0.02655 0.60590 0.47971
 H581 H 0.03861 0.38054 0.54871
 H582 H -0.06624 0.42522 0.58276
 H583 H -0.09645 0.47895 0.57678
 H584 H -0.07877 0.58333 0.51805
 H585 H 0.08490 0.41426 0.55920
 H586 H 0.07047 0.52614 0.60527
 H587 H -0.05822 0.45983 0.42121
 H588 H -0.07158 0.57336 0.46539
 Zr589 Zr 0.45663 -0.01907 -0.05006
 O590 O 0.42377 -0.00255 -0.08660
 O591 O 0.46020 -0.07056 -0.05936
 O592 O 0.48002 -0.02145 -0.09511
 O593 O 0.39236 -0.02724 0.00611
 O594 O 0.53299 0.00153 -0.08746
 O595 O 0.40681 -0.04004 -0.04430
 O596 O 0.49559 -0.09058 -0.02088
 O597 O 0.50773 -0.02932 -0.03950
 O598 O 0.45754 -0.04024 -0.00458
 O599 O 0.48243 0.02785 -0.05370
 O600 O 0.43289 0.01662 -0.02112
 Zr601 Zr 0.51272 0.03219 0.03409
 Zr602 Zr 0.53288 0.01780 -0.04066
 Zr603 Zr 0.43648 -0.00427 0.02450
 Zr604 Zr 0.50824 -0.04862 0.00658
 O605 O 0.39419 0.02683 0.03338
 O606 O 0.55465 -0.06855 -0.00992
 O607 O 0.48679 -0.01468 0.03819
 O608 O 0.53598 -0.00315 0.00488
 O609 O 0.51216 0.05390 -0.01122
 O610 O 0.46183 0.04243 0.02322
 C611 C 0.47630 -0.09437 -0.04503
 C612 C 0.38601 -0.04070 -0.02066
 C613 C 0.50995 -0.01215 -0.10474
 O614 O 0.57713 -0.01116 -0.04761
 O615 O 0.57520 0.04485 -0.02296
 O616 O 0.56113 0.05638 0.02784
 C617 C 0.58145 0.05831 0.00390
 O618 O 0.42495 0.06762 -0.05940
 Zr619 Zr 0.46124 0.06213 -0.02257
 O620 O 0.50944 0.08354 0.04248
 O621 O 0.54383 0.05957 -0.07106
 O622 O 0.48145 0.09755 -0.05593
 O623 O 0.41764 0.08610 -0.00432
 O624 O 0.47890 0.10508 0.00129
 C625 C 0.49729 0.10812 0.02611
 O626 O 0.54747 0.01690 0.06958
 O627 O 0.42335 -0.04721 0.05275
 O628 O 0.49045 0.03098 0.07998
 O629 O 0.43786 0.00734 0.07229
 O630 O 0.48749 -0.08716 0.03650
 O631 O 0.53894 -0.05564 0.04737
 C632 C 0.46099 0.02025 0.08989
 H633 H 0.44451 -0.06176 -0.00238
 H634 H 0.55985 -0.00708 0.01130
 H635 H 0.45146 0.05838 0.03808
 H636 H 0.48096 0.03746 -0.07534
 H637 H 0.55460 -0.09310 -0.00454
 H638 H 0.59124 0.00144 -0.06329
 H639 H 0.56627 0.05529 -0.08074
 H640 H 0.46911 0.11912 -0.05348
 H641 H 0.50119 -0.10784 0.03370
 H642 H 0.40084 -0.04275 0.06222
 H643 H 0.37975 0.01442 0.04894
 H644 H 0.41881 0.11026 -0.01109
 H645 H 0.54979 -0.07815 0.04671
 H646 H 0.55249 0.03714 0.08245
 H647 H 0.41780 -0.02277 -0.09915
 H648 H 0.41909 0.09185 -0.06207
 Zr649 Zr 0.53973 0.51540 -0.04370
 O650 O 0.57471 0.49635 -0.07661
 O651 O 0.53518 0.56575 -0.05966
 O652 O 0.51813 0.51314 -0.09007
 O653 O 0.60140 0.52639 0.01458
 O654 O 0.46599 0.48839 -0.08234
 O655 O 0.58942 0.53669 -0.03733
 O656 O 0.50045 0.58885 -0.02290
 O657 O 0.48858 0.52728 -0.03596
 O658 O 0.53745 0.53969 -0.00026
 O659 O 0.51343 0.46857 -0.04331
 O660 O 0.56085 0.48113 -0.01020
 Zr661 Zr 0.47836 0.47176 0.04324
 Zr662 Zr 0.46284 0.48067 -0.03369
 Zr663 Zr 0.55614 0.50535 0.03313
 Zr664 Zr 0.48668 0.54978 0.00828
 O665 O 0.59732 0.47370 0.04544
 O666 O 0.44107 0.56948 -0.01105
 O667 O 0.50571 0.51799 0.04399
 O668 O 0.45786 0.50516 0.00946
 O669 O 0.48049 0.44666 0.00027
 O670 O 0.52937 0.45936 0.03556
 C671 C 0.51869 0.59044 -0.04789
 C672 C 0.60919 0.53830 -0.01288
 C673 C 0.48947 0.50068 -0.10018
 O674 O 0.42115 0.51050 -0.04839
 O675 O 0.41814 0.45876 -0.01575
 O676 O 0.42910 0.44922 0.03639
 C677 C 0.41000 0.44689 0.01153
 O678 O 0.57057 0.42658 -0.04092
 Zr679 Zr 0.53145 0.43613 -0.00784
 O680 O 0.47871 0.42137 0.05743
 O681 O 0.45283 0.43456 -0.05695
 O682 O 0.51417 0.39864 -0.03957
 O683 O 0.57176 0.41170 0.01639
 O684 O 0.50716 0.39619 0.01756
 C685 C 0.48821 0.39534 0.04232
 O686 O 0.44318 0.49173 0.07546
 O687 O 0.56920 0.54945 0.05843
 O688 O 0.49945 0.47426 0.08959
 O689 O 0.55297 0.49593 0.08169
 O690 O 0.50795 0.58998 0.03476
 O691 O 0.45497 0.56074 0.04721
 C692 C 0.52914 0.48410 0.09951
 H693 H 0.55062 0.56122 0.00028
 H694 H 0.43386 0.51042 0.01419
 H695 H 0.53838 0.44408 0.05224
 H696 H 0.51600 0.45682 -0.06355
 H697 H 0.44150 0.59433 -0.00795
 H698 H 0.40740 0.49646 -0.06290
 H699 H 0.43000 0.43634 -0.06667
 H700 H 0.52516 0.37700 -0.03346
 H701 H 0.49508 0.61079 0.02947
 H702 H 0.59122 0.54501 0.06906
 H703 H 0.61244 0.48701 0.05937
 H704 H 0.56916 0.38712 0.01249
 H705 H 0.44566 0.58383 0.04455
 H706 H 0.43634 0.47276 0.08981
 H707 H 0.58084 0.51548 -0.09106
 H708 H 0.57694 0.40236 -0.03969
 Zr709 Zr 0.05926 1.01283 0.44078
 O710 O 0.09700 0.99282 0.41116
 O711 O 0.05525 1.06175 0.42194
 O712 O 0.04068 1.00730 0.39363
 O713 O 0.11393 1.03258 0.50296
 O714 O -0.00982 0.97857 0.39986
 O715 O 0.10815 1.03574 0.44951
 O716 O 0.01036 1.08274 0.44928
 O717 O 0.00657 1.02085 0.44391
 O718 O 0.05107 1.04057 0.48161
 O719 O 0.03605 0.96448 0.44243
 O720 O 0.07968 0.98359 0.47818
 Zr721 Zr -0.00596 0.97064 0.52641
 Zr722 Zr -0.01630 0.97283 0.44831
 Zr723 Zr 0.06855 1.01050 0.51899
 Zr724 Zr -0.00104 1.04711 0.48544
 O725 O 0.11104 0.98508 0.53844
 O726 O -0.04746 1.06052 0.46321
 O727 O 0.01657 1.01949 0.52500
 O728 O -0.02611 1.00018 0.48909
 O729 O 0.00172 0.94318 0.48525
 O730 O 0.04637 0.96221 0.52279
 C731 C 0.03316 1.08446 0.42756
 C732 C 0.12486 1.04103 0.47547
 C733 C 0.01353 0.99243 0.38281
 O734 O -0.05911 0.99845 0.42984
 O735 O -0.06091 0.94837 0.46521
 O736 O -0.05403 0.94660 0.51868
 C737 C -0.07098 0.94035 0.49322
 O738 O 0.09660 0.92527 0.45249
 Zr739 Zr 0.05403 0.93668 0.48096
 O740 O -0.00481 0.91957 0.54068
 O741 O -0.02186 0.92506 0.42677
 O742 O 0.04466 0.89652 0.44940
 O743 O 0.09275 0.91600 0.50998
 O744 O 0.02966 0.89610 0.50416
 C745 C 0.00756 0.89406 0.52631
 O746 O -0.04369 0.98999 0.55647
 O747 O 0.07367 1.05843 0.54027
 O748 O 0.01185 0.97646 0.57393
 O749 O 0.06167 1.00580 0.56753
 O750 O 0.01592 1.09177 0.50810
 O751 O -0.03576 1.06028 0.52143
 C752 C 0.03882 0.99156 0.58490
 H753 H 0.06282 1.06291 0.48108
 H754 H -0.05073 1.00402 0.49201
 H755 H 0.05515 0.94892 0.54097
 H756 H 0.04103 0.95178 0.42312
 H757 H -0.04897 1.08558 0.46331
 H758 H -0.07092 0.98244 0.41564
 H759 H -0.04259 0.92614 0.41347
 H760 H 0.05845 0.87697 0.45658
 H761 H 0.00290 1.11096 0.49901
 H762 H 0.09452 1.05768 0.55335
 H763 H 0.12249 1.00104 0.55293
 H764 H 0.09366 0.89154 0.50512
 H765 H -0.04539 1.08288 0.51662
 H766 H -0.05035 0.97130 0.57123
 H767 H 0.10369 1.01131 0.39622
 H768 H 0.11602 0.93950 0.45949
 Zr769 Zr 0.72256 0.27570 0.21554
 O770 O 0.74325 0.31239 0.18384
 O771 O 0.67183 0.27277 0.20079
 O772 O 0.72248 0.25741 0.16859
 O773 O 0.71172 0.33271 0.27597
 O774 O 0.74453 0.20427 0.17354
 O775 O 0.70209 0.32455 0.22366
 O776 O 0.64947 0.23155 0.23321
 O777 O 0.71121 0.22379 0.22055
 O778 O 0.69715 0.26896 0.25846
 O779 O 0.76974 0.25102 0.21417
 O780 O 0.75602 0.29512 0.25006
 Zr781 Zr 0.76575 0.20924 0.29901
 Zr782 Zr 0.75808 0.19953 0.22122
 Zr783 Zr 0.73058 0.28600 0.29275
 Zr784 Zr 0.68786 0.21722 0.26432
 O785 O 0.76096 0.32587 0.31077
 O786 O 0.66934 0.17250 0.24280
 O787 O 0.71886 0.23446 0.30079
 O788 O 0.73314 0.19021 0.26413
 O789 O 0.79177 0.21559 0.25624
 O790 O 0.77707 0.26116 0.29401
 C791 C 0.64755 0.25317 0.21042
 C792 C 0.70072 0.34260 0.24880
 C793 C 0.73162 0.22865 0.15728
 O794 O 0.73031 0.15579 0.20777
 O795 O 0.78373 0.15613 0.23639
 O796 O 0.79006 0.16235 0.28942
 C797 C 0.79457 0.14613 0.26347
 O798 O 0.81271 0.30737 0.21826
 Zr799 Zr 0.80149 0.26729 0.25083
 O800 O 0.81535 0.21231 0.31530
 O801 O 0.80221 0.19407 0.19337
 O802 O 0.83976 0.25032 0.21990
 O803 O 0.82360 0.30868 0.27504
 O804 O 0.84124 0.24678 0.27867
 C805 C 0.84151 0.22696 0.30313
 O806 O 0.74609 0.16991 0.32845
 O807 O 0.68441 0.29643 0.31612
 O808 O 0.76014 0.22506 0.34661
 O809 O 0.73480 0.27666 0.34113
 O810 O 0.64660 0.23473 0.29149
 O811 O 0.67665 0.18226 0.30162
 C812 C 0.74619 0.25188 0.35788
 H813 H 0.67560 0.28161 0.25947
 H814 H 0.72846 0.16571 0.26766
 H815 H 0.79126 0.26978 0.31148
 H816 H 0.78113 0.25521 0.19368
 H817 H 0.64439 0.17156 0.24599
 H818 H 0.74416 0.14413 0.19184
 H819 H 0.79856 0.17371 0.18038
 H820 H 0.86149 0.26120 0.22626
 H821 H 0.62603 0.22174 0.28516
 H822 H 0.68867 0.31633 0.32956
 H823 H 0.74675 0.33781 0.32622
 H824 H 0.84853 0.30766 0.27187
 H825 H 0.65358 0.17251 0.29856
 H826 H 0.76488 0.16279 0.34262
 H827 H 0.72443 0.31983 0.16985
 H828 H 0.83740 0.31262 0.21877
 Zr829 Zr 0.77139 0.73123 0.70588
 O830 O 0.75352 0.69314 0.67525
 O831 O 0.81707 0.74561 0.68463
 O832 O 0.76146 0.75152 0.66023
 O833 O 0.80471 0.67619 0.76271
 O834 O 0.72779 0.79711 0.66913
 O835 O 0.80108 0.68632 0.70969
 O836 O 0.83566 0.79043 0.71350
 O837 O 0.77257 0.78402 0.71099
 O838 O 0.80212 0.74133 0.74493
 O839 O 0.72046 0.74582 0.71107
 O840 O 0.74901 0.70389 0.74371
 Zr841 Zr 0.72972 0.78383 0.79596
 Zr842 Zr 0.72227 0.79824 0.71843
 Zr843 Zr 0.77867 0.71670 0.78292
 Zr844 Zr 0.80161 0.79353 0.75107
 O845 O 0.76042 0.67026 0.80249
 O846 O 0.80720 0.84248 0.73009
 O847 O 0.78086 0.76911 0.79095
 O848 O 0.75215 0.81033 0.75776
 O849 O 0.69877 0.77390 0.75679
 O850 O 0.72846 0.73108 0.79058
 C851 C 0.83790 0.77001 0.69043
 C852 C 0.81115 0.66882 0.73398
 C853 C 0.74412 0.77743 0.65075
 O854 O 0.73864 0.84664 0.70185
 O855 O 0.69241 0.83600 0.73885
 O856 O 0.70080 0.82909 0.79182
 C857 C 0.68835 0.84496 0.76757
 O858 O 0.69285 0.68135 0.71836
 Zr859 Zr 0.69944 0.72146 0.75071
 O860 O 0.68151 0.77340 0.81450
 O861 O 0.67319 0.79618 0.69801
 O862 O 0.65365 0.73068 0.72567
 O863 O 0.69038 0.67535 0.77592
 O864 O 0.66117 0.73082 0.78361
 C865 C 0.65833 0.75243 0.80570
 O866 O 0.74722 0.82214 0.82656
 O867 O 0.82908 0.71603 0.80054
 O868 O 0.74241 0.76476 0.84184
 O869 O 0.77889 0.72169 0.83176
 O870 O 0.84999 0.78296 0.77086
 O871 O 0.81170 0.82789 0.78807
 C872 C 0.76296 0.74093 0.85067
 H873 H 0.82572 0.73336 0.74236
 H874 H 0.75304 0.83507 0.76132
 H875 H 0.71861 0.71900 0.80911
 H876 H 0.70694 0.74015 0.69214
 H877 H 0.83175 0.84848 0.73035
 H878 H 0.71997 0.85590 0.68869
 H879 H 0.67068 0.81720 0.68514
 H880 H 0.63615 0.71465 0.73404
 H881 H 0.86627 0.80006 0.76218
 H882 H 0.83177 0.69440 0.81249
 H883 H 0.77902 0.66091 0.81567
 H884 H 0.66559 0.67055 0.77505
 H885 H 0.83265 0.84114 0.78324
 H886 H 0.72938 0.82506 0.84277
 H887 H 0.77125 0.69028 0.65894
 H888 H 0.67000 0.67094 0.72118
 Zr889 Zr 0.22913 0.22185 0.78218
 O890 O 0.24277 0.18544 0.81699
 O891 O 0.17864 0.23061 0.79371
 O892 O 0.23001 0.24300 0.82822
 O893 O 0.21220 0.16296 0.72346
 O894 O 0.26364 0.29033 0.82256
 O895 O 0.20353 0.17449 0.77530
 O896 O 0.16172 0.27167 0.75881
 O897 O 0.22509 0.27432 0.77459
 O898 O 0.20607 0.22862 0.73807
 O899 O 0.27923 0.24102 0.78419
 O900 O 0.26042 0.19678 0.74983
 Zr901 Zr 0.28371 0.27790 0.69763
 Zr902 Zr 0.27518 0.29301 0.77431
 Zr903 Zr 0.23787 0.20617 0.70573
 Zr904 Zr 0.20388 0.28066 0.72972
 O905 O 0.26245 0.16116 0.69235
 O906 O 0.19049 0.32771 0.74945
 O907 O 0.23361 0.25823 0.69493
 O908 O 0.25256 0.30217 0.73029
 O909 O 0.30775 0.27129 0.74144
 O910 O 0.28719 0.22545 0.70577
 C911 C 0.15646 0.25070 0.78174
 C912 C 0.20031 0.15542 0.75086
 C913 C 0.24578 0.26930 0.83924
 O914 O 0.25109 0.33849 0.78704
 O915 O 0.30364 0.33469 0.75735
 O916 O 0.31139 0.32428 0.70509
 C917 C 0.31516 0.34272 0.72993
 O918 O 0.31485 0.18186 0.78630
 Zr919 Zr 0.30932 0.21898 0.74981
 O920 O 0.33321 0.26809 0.68388
 O921 O 0.32050 0.29701 0.80102
 O922 O 0.34996 0.23584 0.77869
 O923 O 0.32434 0.17185 0.73126
 O924 O 0.35084 0.22813 0.71961
 C925 C 0.35498 0.24708 0.69493
 O926 O 0.27015 0.31593 0.66433
 O927 O 0.19194 0.20119 0.68004
 O928 O 0.27988 0.25798 0.65128
 O929 O 0.24796 0.20943 0.65734
 O930 O 0.16220 0.26648 0.70081
 O931 O 0.19891 0.31549 0.69127
 C932 C 0.26501 0.23098 0.64059
 H933 H 0.18314 0.21814 0.73661
 H934 H 0.25083 0.32673 0.72546
 H935 H 0.30041 0.21349 0.68965
 H936 H 0.28962 0.23666 0.80509
 H937 H 0.16597 0.33121 0.74526
 H938 H 0.26631 0.34998 0.80224
 H939 H 0.31955 0.31875 0.81236
 H940 H 0.37011 0.22214 0.77356
 H941 H 0.14319 0.28193 0.70538
 H942 H 0.19285 0.17917 0.66917
 H943 H 0.24719 0.14955 0.67724
 H944 H 0.34901 0.16928 0.73544
 H945 H 0.17720 0.32778 0.69317
 H946 H 0.29024 0.31979 0.65057
 H947 H 0.22226 0.18106 0.83009
 H948 H 0.33908 0.17555 0.78819
 Zr949 Zr 0.26008 0.78694 0.29425
 O950 O 0.23468 0.81979 0.32502
 O951 O 0.30913 0.78754 0.31314
 O952 O 0.25579 0.76502 0.34068
 O953 O 0.27270 0.84916 0.23575
 O954 O 0.23565 0.71146 0.33218
 O955 O 0.27838 0.83786 0.28842
 O956 O 0.33914 0.75525 0.27890
 O957 O 0.27669 0.73704 0.28850
 O958 O 0.28895 0.78656 0.25284
 O959 O 0.21544 0.75725 0.29114
 O960 O 0.22782 0.80558 0.25809
 Zr961 Zr 0.22984 0.72331 0.20555
 Zr962 Zr 0.23230 0.70797 0.28320
 Zr963 Zr 0.25686 0.80274 0.21685
 Zr964 Zr 0.30383 0.73694 0.24615
 O965 O 0.22424 0.84196 0.20134
 O966 O 0.32484 0.69385 0.26913
 O967 O 0.27427 0.75362 0.20777
 O968 O 0.26134 0.70514 0.24199
 O969 O 0.20032 0.72322 0.24659
 O970 O 0.21312 0.77303 0.21182
 C971 C 0.33654 0.77425 0.30300
 C972 C 0.28144 0.85753 0.26375
 C973 C 0.24475 0.73551 0.35044
 O974 O 0.26396 0.66852 0.29987
 O975 O 0.21475 0.66226 0.26461
 O976 O 0.20914 0.67313 0.21189
 C977 C 0.20564 0.65383 0.23679
 O978 O 0.16894 0.81033 0.28518
 Zr979 Zr 0.18536 0.77299 0.25321
 O980 O 0.18135 0.72055 0.18686
 O981 O 0.18540 0.69386 0.30435
 O982 O 0.14653 0.75108 0.28185
 O983 O 0.16037 0.81224 0.22780
 O984 O 0.15025 0.74785 0.22372
 C985 C 0.15322 0.72962 0.19897
 O986 O 0.25619 0.69020 0.17577
 O987 O 0.30278 0.81826 0.19465
 O988 O 0.23376 0.74529 0.15915
 O989 O 0.25222 0.79943 0.16804
 O990 O 0.34459 0.76045 0.22106
 O991 O 0.32139 0.70502 0.20991
 C992 C 0.24231 0.77572 0.14974
 H993 H 0.30943 0.80135 0.25330
 H994 H 0.26868 0.68165 0.23807
 H995 H 0.19878 0.78135 0.19422
 H996 H 0.20163 0.75874 0.31052
 H997 H 0.34993 0.69633 0.26820
 H998 H 0.24962 0.65343 0.31337
 H999 H 0.18867 0.67158 0.31500
 H1000 H 0.12458 0.76036 0.27440
 H1001 H 0.36597 0.74976 0.22834
 H1002 H 0.29817 0.83990 0.18330
 H1003 H 0.23776 0.85700 0.18709
 H1004 H 0.13562 0.80756 0.22943
 H1005 H 0.34479 0.69756 0.21489
 H1006 H 0.23930 0.68189 0.16025
 H1007 H 0.25183 0.82762 0.34053
 H1008 H 0.14408 0.81349 0.28303
 Zr1009 Zr 0.22976 0.79356 0.70033
 O1010 O 0.25160 0.83115 0.67025
 O1011 O 0.17988 0.79154 0.68412
 O1012 O 0.23082 0.77667 0.65304
 O1013 O 0.21612 0.84830 0.76219
 O1014 O 0.25560 0.72458 0.65685
 O1015 O 0.20827 0.84191 0.70937
 O1016 O 0.15453 0.75163 0.71612
 O1017 O 0.21840 0.74144 0.70317
 O1018 O 0.20301 0.78536 0.74229
 O1019 O 0.27689 0.76885 0.69951
 O1020 O 0.26168 0.81227 0.73628
 Zr1021 Zr 0.27061 0.72480 0.78279
 Zr1022 Zr 0.26542 0.71701 0.70490
 Zr1023 Zr 0.23514 0.80127 0.77804
 Zr1024 Zr 0.19327 0.73356 0.74589
 O1025 O 0.26486 0.84030 0.79831
 O1026 O 0.17526 0.69134 0.72021
 O1027 O 0.22334 0.74945 0.78374
 O1028 O 0.23884 0.70672 0.74671
 O1029 O 0.29778 0.73263 0.74094
 O1030 O 0.28189 0.77679 0.77983
 C1031 C 0.15415 0.77411 0.69385
 C1032 C 0.20562 0.85896 0.73507
 C1033 C 0.24223 0.74910 0.64110
 O1034 O 0.23758 0.67456 0.68851
 O1035 O 0.28962 0.67217 0.72009
 O1036 O 0.29390 0.67781 0.77331
 C1037 C 0.29894 0.66157 0.74757
 O1038 O 0.31717 0.82672 0.70645
 Zr1039 Zr 0.30711 0.78470 0.73717
 O1040 O 0.32098 0.72684 0.79853
 O1041 O 0.31109 0.71154 0.67926
 O1042 O 0.34667 0.77175 0.70584
 O1043 O 0.32839 0.82417 0.76450
 O1044 O 0.34693 0.76215 0.76272
 C1045 C 0.34744 0.74087 0.78597
 O1046 O 0.25084 0.68481 0.81149
 O1047 O 0.18825 0.81102 0.80047
 O1048 O 0.26312 0.73837 0.83058
 O1049 O 0.23695 0.78956 0.82610
 O1050 O 0.15229 0.74889 0.77453
 O1051 O 0.18077 0.69557 0.78020
 C1052 C 0.24770 0.76405 0.84224
 H1053 H 0.18151 0.79806 0.74343
 H1054 H 0.23398 0.68215 0.74946
 H1055 H 0.29563 0.78446 0.79799
 H1056 H 0.28901 0.77382 0.67952
 H1057 H 0.15016 0.69060 0.72230
 H1058 H 0.25213 0.66332 0.67286
 H1059 H 0.30825 0.69105 0.66627
 H1060 H 0.36759 0.78387 0.71261
 H1061 H 0.13172 0.73625 0.76767
 H1062 H 0.19222 0.82994 0.81513
 H1063 H 0.25007 0.85159 0.81372
 H1064 H 0.35326 0.82419 0.76086
 H1065 H 0.15832 0.68542 0.77512
 H1066 H 0.26942 0.67733 0.82577
 H1067 H 0.23318 0.83923 0.65610
 H1068 H 0.34110 0.83433 0.70895
 Zr1069 Zr 0.25361 0.20990 0.19393
 O1070 O 0.23261 0.17219 0.16459
 O1071 O 0.30313 0.21523 0.17556
 O1072 O 0.24738 0.22861 0.14700
 O1073 O 0.27339 0.15380 0.25480
 O1074 O 0.21650 0.27680 0.15240
 O1075 O 0.27808 0.16244 0.20171
 O1076 O 0.32538 0.25792 0.20502
 O1077 O 0.26103 0.26259 0.19631
 O1078 O 0.28254 0.21858 0.23434
 O1079 O 0.20453 0.23076 0.19661
 O1080 O 0.22548 0.18808 0.23182
 Zr1081 Zr 0.21437 0.27290 0.27943
 Zr1082 Zr 0.21242 0.28310 0.20115
 Zr1083 Zr 0.25422 0.19931 0.27193
 Zr1084 Zr 0.28848 0.27086 0.23762
 O1085 O 0.22784 0.15847 0.29421
 O1086 O 0.30264 0.31557 0.21220
 O1087 O 0.26300 0.25157 0.27719
 O1088 O 0.24144 0.29411 0.24117
 O1089 O 0.18438 0.26451 0.23939
 O1090 O 0.20621 0.22041 0.27720
 C1091 C 0.32754 0.23519 0.18389
 C1092 C 0.28256 0.14458 0.22724
 C1093 C 0.23138 0.25460 0.13564
 O1094 O 0.23662 0.32679 0.18168
 O1095 O 0.18835 0.32648 0.21837
 O1096 O 0.18765 0.31880 0.27177
 C1097 C 0.18081 0.33592 0.24637
 O1098 O 0.16826 0.16960 0.20741
 Zr1099 Zr 0.17825 0.21213 0.23624
 O1100 O 0.16601 0.26707 0.29857
 O1101 O 0.16377 0.28693 0.18009
 O1102 O 0.13585 0.22283 0.20688
 O1103 O 0.16125 0.17125 0.26548
 O1104 O 0.13909 0.23265 0.26363
 C1105 C 0.13930 0.25314 0.28691
 O1106 O 0.23341 0.31326 0.30689
 O1107 O 0.30314 0.18994 0.29105
 O1108 O 0.22784 0.25828 0.32644
 O1109 O 0.25704 0.20928 0.31983
 O1110 O 0.33082 0.25522 0.26499
 O1111 O 0.30141 0.30928 0.27024
 C1112 C 0.24627 0.23348 0.33680
 H1113 H 0.30488 0.20727 0.23418
 H1114 H 0.24504 0.31883 0.24352
 H1115 H 0.19458 0.21141 0.29630
 H1116 H 0.19110 0.22538 0.17756
 H1117 H 0.32771 0.31806 0.21348
 H1118 H 0.21974 0.33797 0.16775
 H1119 H 0.16375 0.30834 0.16752
 H1120 H 0.11600 0.21010 0.21555
 H1121 H 0.35115 0.26719 0.25655
 H1122 H 0.30142 0.16908 0.30436
 H1123 H 0.24427 0.14734 0.30864
 H1124 H 0.13607 0.17078 0.26433
 H1125 H 0.32511 0.31712 0.26651
 H1126 H 0.21572 0.31848 0.32270
 H1127 H 0.25063 0.16611 0.14944
 H1128 H 0.14489 0.16092 0.21138
 Zr1129 Zr 0.72887 0.70929 0.29697
 O1130 O 0.74093 0.67439 0.33363
 O1131 O 0.67702 0.71584 0.30477
 O1132 O 0.72657 0.73089 0.34260
 O1133 O 0.71915 0.64892 0.23861
 O1134 O 0.75351 0.78227 0.33656
 O1135 O 0.70682 0.66024 0.28979
 O1136 O 0.66086 0.75435 0.26706
 O1137 O 0.72216 0.76122 0.28728
 O1138 O 0.70967 0.71344 0.25112
 O1139 O 0.77724 0.73200 0.30203
 O1140 O 0.76448 0.68497 0.26816
 Zr1141 Zr 0.78740 0.76573 0.21499
 Zr1142 Zr 0.77076 0.78333 0.28991
 Zr1143 Zr 0.74581 0.69190 0.22226
 Zr1144 Zr 0.70486 0.76486 0.24080
 O1145 O 0.77495 0.64823 0.21367
 O1146 O 0.68701 0.81176 0.25758
 O1147 O 0.73906 0.74305 0.20942
 O1148 O 0.75198 0.78954 0.24402
 O1149 O 0.80707 0.76194 0.26078
 O1150 O 0.79404 0.71407 0.22503
 C1151 C 0.65488 0.73435 0.29061
 C1152 C 0.70561 0.64112 0.26526
 C1153 C 0.73780 0.75954 0.35311
 O1154 O 0.74329 0.82824 0.29763
 O1155 O 0.80010 0.82514 0.27386
 O1156 O 0.81299 0.81297 0.22291
 C1157 C 0.81455 0.83218 0.24735
 O1158 O 0.81333 0.67233 0.30731
 Zr1159 Zr 0.81164 0.71025 0.27120
 O1160 O 0.83913 0.75957 0.20808
 O1161 O 0.81234 0.79095 0.32082
 O1162 O 0.84676 0.72715 0.30571
 O1163 O 0.83356 0.66596 0.25264
 O1164 O 0.85677 0.72554 0.24869
 C1165 C 0.86214 0.74485 0.22457
 O1166 O 0.77648 0.80241 0.17955
 O1167 O 0.70337 0.68322 0.19258
 O1168 O 0.78639 0.74513 0.16851
 O1169 O 0.75974 0.69383 0.17500
 O1170 O 0.66678 0.74701 0.20954
 O1171 O 0.70124 0.79763 0.20070
 C1172 C 0.77440 0.71666 0.15794
 H1173 H 0.68751 0.70173 0.24827
 H1174 H 0.74957 0.81379 0.23811
 H1175 H 0.80997 0.70329 0.21030
 H1176 H 0.78599 0.72905 0.32376
 H1177 H 0.66274 0.81356 0.25149
 H1178 H 0.75550 0.84069 0.31436
 H1179 H 0.80885 0.81304 0.33106
 H1180 H 0.86766 0.71355 0.30368
 H1181 H 0.64650 0.76139 0.21212
 H1182 H 0.70707 0.66135 0.18203
 H1183 H 0.76148 0.63384 0.19926
 H1184 H 0.85746 0.66516 0.26004
 H1185 H 0.67878 0.80874 0.20057
 H1186 H 0.79777 0.80636 0.16743
 H1187 H 0.71953 0.66930 0.34524
 H1188 H 0.83713 0.66512 0.31057
 Zr1189 Zr 0.76347 0.30280 0.80929
 O1190 O 0.74186 0.33756 0.84072
 O1191 O 0.81382 0.30370 0.82536
 O1192 O 0.75718 0.28267 0.85673
 O1193 O 0.77470 0.36229 0.74754
 O1194 O 0.73992 0.22784 0.84943
 O1195 O 0.78112 0.35392 0.80061
 O1196 O 0.84155 0.27111 0.78977
 O1197 O 0.77908 0.25225 0.80420
 O1198 O 0.78972 0.30045 0.76639
 O1199 O 0.71841 0.27339 0.80846
 O1200 O 0.73003 0.32111 0.77378
 Zr1201 Zr 0.72724 0.23680 0.72351
 Zr1202 Zr 0.73402 0.22340 0.80099
 Zr1203 Zr 0.75625 0.31578 0.73111
 Zr1204 Zr 0.80378 0.25047 0.76061
 O1205 O 0.72396 0.35530 0.71570
 O1206 O 0.82524 0.20870 0.78528
 O1207 O 0.77235 0.26611 0.72309
 O1208 O 0.76070 0.21907 0.75871
 O1209 O 0.70074 0.23907 0.76604
 O1210 O 0.71154 0.28699 0.72883
 C1211 C 0.84071 0.29113 0.81330
 C1212 C 0.78403 0.37223 0.77493
 C1213 C 0.74635 0.25315 0.86707
 O1214 O 0.76568 0.18338 0.81635
 O1215 O 0.71268 0.17789 0.78396
 O1216 O 0.70855 0.18646 0.73085
 C1217 C 0.70394 0.16836 0.75622
 O1218 O 0.67578 0.32906 0.80349
 Zr1219 Zr 0.68692 0.28941 0.77196
 O1220 O 0.67599 0.23144 0.71173
 O1221 O 0.68821 0.21041 0.82465
 O1222 O 0.64808 0.27336 0.80369
 O1223 O 0.66113 0.32673 0.74477
 O1224 O 0.64888 0.26158 0.74926
 C1225 C 0.64925 0.24050 0.72658
 O1226 O 0.75085 0.20329 0.69211
 O1227 O 0.80143 0.32864 0.70643
 O1228 O 0.72883 0.25681 0.67628
 O1229 O 0.74934 0.31062 0.68257
 O1230 O 0.84312 0.27165 0.73206
 O1231 O 0.81935 0.21623 0.72542
 C1232 C 0.73848 0.28632 0.66536
 H1233 H 0.81025 0.31513 0.76524
 H1234 H 0.76745 0.19535 0.75507
 H1235 H 0.69632 0.29442 0.71153
 H1236 H 0.70504 0.27557 0.82800
 H1237 H 0.85029 0.21093 0.78350
 H1238 H 0.75173 0.16876 0.83060
 H1239 H 0.69253 0.18954 0.83730
 H1240 H 0.62684 0.28497 0.79733
 H1241 H 0.86482 0.26105 0.73862
 H1242 H 0.79640 0.34884 0.69311
 H1243 H 0.73713 0.36932 0.70032
 H1244 H 0.63648 0.32283 0.74829
 H1245 H 0.84243 0.20792 0.73047
 H1246 H 0.73280 0.19467 0.67787
 H1247 H 0.76045 0.34515 0.85488
 H1248 H 0.65237 0.33716 0.79961
 C1249 C 0.47017 0.98585 0.31005
 C1250 C 0.44624 1.01161 0.30356
 C1251 C 0.44520 1.03800 0.32559
 C1252 C 0.46164 1.03471 0.35495
 C1253 C 0.47968 1.00503 0.36338
 C1254 C 0.48651 0.98278 0.33904
 C1255 C 0.48765 0.94512 0.33770
 C1256 C 0.47032 0.94825 0.30564
 H1257 H 0.42958 1.05999 0.32197
 H1258 H 0.45757 1.05427 0.37210
 H1259 H 0.47144 0.93253 0.35599
 H1260 H 0.51412 0.93567 0.33629
 H1261 H 0.44479 0.93611 0.30548
 H1262 H 0.48707 0.94096 0.28587
 C1263 C -0.05035 0.54104 0.84337
 C1264 C -0.04943 0.51578 0.82068
 C1265 C -0.03010 0.48650 0.82827
 C1266 C -0.01683 0.48101 0.85895
 C1267 C -0.02345 0.50425 0.88289
 C1268 C -0.03830 0.53514 0.87364
 C1269 C -0.06634 0.55509 0.88785
 C1270 C -0.07919 0.56186 0.85481
 H1271 H -0.02807 0.46632 0.81143
 H1272 H -0.00483 0.45709 0.86463
 H1273 H -0.05680 0.57830 0.89964
 H1274 H -0.08470 0.53919 0.90159
 H1275 H -0.07664 0.58900 0.84759
 H1276 H -0.10451 0.55007 0.85017
 C1277 C 0.02866 0.02637 0.81462
 C1278 C 0.04189 -0.00367 0.80220
 C1279 C 0.03606 -0.03370 0.82002
 C1280 C 0.01933 -0.03293 0.84932
 C1281 C 0.00722 -0.00231 0.86176
 C1282 C 0.01234 0.02730 0.84382
 C1283 C -0.01388 0.05108 0.83117
 C1284 C 0.00417 0.05026 0.79968
 H1285 H 0.04506 -0.05783 0.81197
 H1286 H 0.01734 -0.05620 0.86315
 H1287 H -0.01229 0.07628 0.84245
 H1288 H -0.03980 0.03949 0.83070
 H1289 H 0.01650 0.07484 0.79298
 H1290 H -0.01124 0.03827 0.78082
 C1291 C 0.53178 0.51807 0.32615
 C1292 C 0.54500 0.48744 0.31512
 C1293 C 0.53909 0.45812 0.33388
 C1294 C 0.52269 0.46023 0.36312
 C1295 C 0.51112 0.49147 0.37441
 C1296 C 0.51583 0.52032 0.35538
 C1297 C 0.48906 0.54299 0.34192
 C1298 C 0.50669 0.54070 0.31036
 H1299 H 0.54778 0.43356 0.32678
 H1300 H 0.52090 0.43764 0.37793
 H1301 H 0.49039 0.56883 0.35198
 H1302 H 0.46331 0.53102 0.34230
 H1303 H 0.51850 0.56509 0.30234
 H1304 H 0.49119 0.52743 0.29231
 C1305 C 0.58167 0.47468 0.17397
 C1306 C 0.56167 0.48975 0.19708
 C1307 C 0.52748 0.49686 0.18835
 C1308 C 0.51564 0.49243 0.15710
 C1309 C 0.53773 0.48128 0.13349
 C1310 C 0.57016 0.47094 0.14327
 C1311 C 0.60459 0.47699 0.12952
 C1312 C 0.61725 0.48152 0.16295
 H1313 H 0.51012 0.50757 0.20511
 H1314 H 0.49010 0.50021 0.15100
 H1315 H 0.60656 0.50083 0.11530
 H1316 H 0.61473 0.45400 0.11821
 H1317 H 0.62580 0.50790 0.16725
 H1318 H 0.63530 0.46153 0.17057
 C1319 C 0.08733 1.00628 0.66106
 C1320 C 0.06436 0.99824 0.68530
 C1321 C 0.03241 0.98431 0.67567
 C1322 C 0.02376 0.98103 0.64327
 C1323 C 0.04641 0.99224 0.61946
 C1324 C 0.07853 1.00374 0.62952
 C1325 C 0.09776 1.03538 0.62071
 C1326 C 0.10737 1.03824 0.65513
 H1327 H 0.01386 0.97570 0.69284
 H1328 H -0.00095 0.97076 0.63699
 H1329 H 0.08092 1.05613 0.61232
 H1330 H 0.11991 1.03027 0.60536
 H1331 H 0.09613 1.06057 0.66672
 H1332 H 0.13508 1.03496 0.65920
 C1333 C -0.04939 0.53057 0.69072
 C1334 C -0.06304 0.50121 0.70504
 C1335 C -0.05472 0.46987 0.69197
 C1336 C -0.03747 0.46862 0.66293
 C1337 C -0.02700 0.49868 0.64696
 C1338 C -0.03192 0.52940 0.66223
 C1339 C -0.04801 0.56120 0.65024
 C1340 C -0.06711 0.56240 0.68126
 H1341 H -0.06244 0.44645 0.70371
 H1342 H -0.03369 0.44422 0.65222
 H1343 H -0.06484 0.55689 0.62958
 H1344 H -0.02922 0.58222 0.64729
 H1345 H -0.09505 0.55868 0.67870
 H1346 H -0.05931 0.58411 0.69609
 C1347 C 0.46337 0.00700 0.17839
 C1348 C 0.42870 0.00800 0.18662
 C1349 C 0.40634 0.02067 0.16330
 C1350 C 0.41772 0.02756 0.13236
 C1351 C 0.45191 0.02237 0.12366
 C1352 C 0.47469 0.01398 0.14780
 C1353 C 0.50070 -0.01322 0.14949
 C1354 C 0.48843 -0.02084 0.18285
 H1355 H 0.37977 0.02456 0.16838
 H1356 H 0.39923 0.03514 0.11474
 H1357 H 0.52704 -0.00271 0.14857
 H1358 H 0.49536 -0.03413 0.13288
 H1359 H 0.50780 -0.01475 0.20106
 H1360 H 0.47600 -0.04619 0.18563
 C1361 C 0.32381 0.41388 -0.01384
 C1362 C 0.31535 0.38708 0.00653
 C1363 C 0.33835 0.38275 0.03246
 C1364 C 0.36843 0.40323 0.03550
 C1365 C 0.37658 0.42882 0.01291
 C1366 C 0.35244 0.43336 -0.01094
 C1367 C 0.34657 0.45144 -0.04156
 C1368 C 0.31408 0.42960 -0.04461
 H1369 H 0.33418 0.36351 0.05036
 H1370 H 0.38580 0.39802 0.05474
 H1371 H 0.36611 0.44546 -0.05944
 H1372 H 0.34156 0.47887 -0.03848
 H1373 H 0.31518 0.41143 -0.06428
 H1374 H 0.29021 0.44430 -0.04302
 C1375 C -0.14044 0.87267 0.49946
 C1376 C -0.17064 0.89030 0.49262
 C1377 C -0.16725 0.92618 0.49050
 C1378 C -0.13495 0.94246 0.49177
 C1379 C -0.10494 0.92373 0.49610
 C1380 C -0.10875 0.88880 0.50140
 C1381 C -0.09104 0.85982 0.48672
 C1382 C -0.12554 0.84213 0.48469
 H1383 H -0.18901 0.94220 0.48712
 H1384 H -0.13335 0.96972 0.48844
 H1385 H -0.07343 0.84682 0.50326
 H1386 H -0.07997 0.86659 0.46334
 H1387 H -0.12768 0.81926 0.50026
 H1388 H -0.13402 0.83847 0.46002
 C1389 C -0.18908 0.08254 1.01348
 C1390 C -0.19460 0.11150 0.99458
 C1391 C -0.16992 0.11750 0.97044
 C1392 C -0.14034 0.09733 0.96805
 C1393 C -0.13396 0.07085 0.98991
 C1394 C -0.16010 0.06319 1.01132
 C1395 C -0.16081 0.05378 1.04549
 C1396 C -0.19288 0.07503 1.04788
 H1397 H -0.17194 0.13840 0.95394
 H1398 H -0.12152 0.10389 0.95030
 H1399 H -0.13893 0.06459 1.05873
 H1400 H -0.16565 0.02622 1.04947
 H1401 H -0.18912 0.09761 1.06279
 H1402 H -0.21610 0.05963 1.05314
 C1403 C 0.32778 0.59533 0.52840
 C1404 C 0.31436 0.60992 0.50094
 C1405 C 0.33168 0.60104 0.47278
 C1406 C 0.36140 0.58067 0.47346
 C1407 C 0.37469 0.56762 0.50218
 C1408 C 0.35609 0.57557 0.52898
 C1409 C 0.35518 0.57080 0.56382
 C1410 C 0.32316 0.59294 0.56319
 H1411 H 0.32252 0.60924 0.44996
 H1412 H 0.37395 0.57536 0.45144
 H1413 H 0.37731 0.58304 0.57555
 H1414 H 0.35004 0.54398 0.57095
 H1415 H 0.32700 0.61767 0.57491
 H1416 H 0.29949 0.57889 0.56984
 C1417 C 0.18140 0.59218 0.54149
 C1418 C 0.18654 0.61589 0.51666
 C1419 C 0.15703 0.62668 0.50060
 C1420 C 0.12527 0.61014 0.50571
 C1421 C 0.12164 0.58338 0.52814
 C1422 C 0.14974 0.57702 0.54752
 C1423 C 0.16511 0.54442 0.55809
 C1424 C 0.19969 0.56063 0.55123
 H1425 H 0.15895 0.64599 0.48227
 H1426 H 0.10406 0.61673 0.49058
 H1427 H 0.15864 0.52307 0.54228
 H1428 H 0.16076 0.53918 0.58357
 H1429 H 0.21267 0.54803 0.53148
 H1430 H 0.21541 0.56430 0.57271
 C1431 C 0.67560 0.07948 -0.00450
 C1432 C 0.67908 0.11317 0.00566
 C1433 C 0.64954 0.12722 0.01938
 C1434 C 0.61808 0.10892 0.02047
 C1435 C 0.61480 0.07642 0.00718
 C1436 C 0.64461 0.06211 -0.00423
 C1437 C 0.65155 0.04515 -0.03462
 C1438 C 0.68545 0.06399 -0.03509
 H1439 H 0.65020 0.15231 0.02919
 H1440 H 0.59592 0.12109 0.02994
 H1441 H 0.63421 0.05344 -0.05390
 H1442 H 0.65413 0.01725 -0.03158
 H1443 H 0.68768 0.08306 -0.05460
 H1444 H 0.70743 0.04668 -0.03255
 C1445 C 0.69393 0.92442 0.47987
 C1446 C 0.69805 0.88913 0.48230
 C1447 C 0.66837 0.86915 0.47682
 C1448 C 0.63591 0.88419 0.47340
 C1449 C 0.63221 0.91960 0.47507
 C1450 C 0.66210 0.93908 0.47666
 C1451 C 0.67152 0.96812 0.49708
 C1452 C 0.70638 0.95224 0.50059
 H1453 H 0.66949 0.84184 0.47649
 H1454 H 0.61358 0.86800 0.47170
 H1455 H 0.65718 0.96815 0.51954
 H1456 H 0.67203 0.99266 0.48382
 H1457 H 0.71199 0.94319 0.52497
 H1458 H 0.72687 0.96780 0.48930
 C1459 C 0.18327 0.41731 1.01228
 C1460 C 0.18726 0.38633 0.99690
 C1461 C 0.15836 0.37388 0.98068
 C1462 C 0.12662 0.39068 0.98201
 C1463 C 0.12260 0.41978 1.00052
 C1464 C 0.15201 0.43314 1.01437
 C1465 C 0.15878 0.44503 1.04693
 C1466 C 0.19314 0.42786 1.04473
 H1467 H 0.15986 0.35085 0.96754
 H1468 H 0.10490 0.37985 0.97000
 H1469 H 0.14164 0.43289 1.06472
 H1470 H 0.16079 0.47313 1.04797
 H1471 H 0.19589 0.40608 1.06141
 H1472 H 0.21483 0.44619 1.04452
 C1473 C -0.03185 0.31923 0.43337
 C1474 C -0.00616 0.29487 0.43417
 C1475 C 0.02497 0.30361 0.44898
 C1476 C 0.02996 0.33573 0.46206
 C1477 C 0.00402 0.35981 0.46029
 C1478 C -0.02673 0.35090 0.44613
 C1479 C -0.06119 0.35171 0.46057
 C1480 C -0.06677 0.31672 0.44748
 H1481 H 0.04640 0.28666 0.44813
 H1482 H 0.05431 0.34207 0.47252
 H1483 H -0.07747 0.37128 0.44925
 H1484 H -0.06047 0.35211 0.48674
 H1485 H -0.08706 0.31606 0.42923
 H1486 H -0.06889 0.29650 0.46598
 C1487 C 0.45353 -0.16599 -0.09789
 C1488 C 0.47180 -0.19291 -0.08445
 C1489 C 0.48616 -0.18830 -0.05431
 C1490 C 0.48553 -0.15657 -0.04024
 C1491 C 0.47152 -0.12867 -0.05649
 C1492 C 0.45336 -0.13458 -0.08415
 C1493 C 0.45471 -0.11622 -0.11517
 C1494 C 0.45476 -0.15074 -0.13039
 H1495 H 0.50069 -0.20809 -0.04281
 H1496 H 0.49855 -0.15341 -0.01797
 H1497 H 0.47888 -0.10170 -0.11871
 H1498 H 0.43118 -0.10170 -0.12006
 H1499 H 0.47882 -0.15610 -0.14298
 H1500 H 0.43115 -0.15610 -0.14396
 C1501 C 0.03310 -0.17342 1.08951
 C1502 C 0.00624 -0.19659 1.08522
 C1503 C -0.02480 -0.18391 1.07337
 C1504 C -0.02720 -0.15071 1.06240
 C1505 C 0.00125 -0.12905 1.06331
 C1506 C 0.03064 -0.14025 1.07852
 C1507 C 0.06649 -0.13879 1.06745
 C1508 C 0.06925 -0.17532 1.07865
 H1509 H -0.04775 -0.19933 1.07330
 H1510 H -0.05116 -0.14233 1.05252
 H1511 H 0.08207 -0.12105 1.08169
 H1512 H 0.06870 -0.13545 1.04148
 H1513 H 0.08730 -0.17855 1.09863
 H1514 H 0.07257 -0.19345 1.05914
 C1515 C 0.54643 0.33649 0.61820
 C1516 C 0.54313 0.30751 0.59963
 C1517 C 0.53331 0.31177 0.56788
 C1518 C 0.52707 0.34371 0.55532
 C1519 C 0.53064 0.37246 0.57397
 C1520 C 0.54064 0.36863 0.60535
 C1521 C 0.57094 0.38383 0.62103
 C1522 C 0.57773 0.34891 0.63473
 H1523 H 0.52763 0.29026 0.55321
 H1524 H 0.51897 0.34583 0.53098
 H1525 H 0.56372 0.40255 0.63904
 H1526 H 0.59073 0.39276 0.60405
 H1527 H 0.57492 0.34758 0.66077
 H1528 H 0.60138 0.33739 0.62563
 C1529 C 0.51268 1.15263 0.60752
 C1530 C 0.52647 1.18155 0.59240
 C1531 C 0.53318 1.17985 0.55983
 C1532 C 0.52984 1.14919 0.54422
 C1533 C 0.51922 1.11983 0.56073
 C1534 C 0.50893 1.12250 0.59187
 C1535 C 0.51870 1.10141 0.61979
 C1536 C 0.52311 1.13438 0.63724
 H1537 H 0.54116 1.20178 0.54606
 H1538 H 0.53605 1.14841 0.51941
 H1539 H 0.54291 1.08765 0.61634
 H1540 H 0.49709 1.08557 0.62867
 H1541 H 0.54984 1.13963 0.64414
 H1542 H 0.50425 1.13685 0.65651
 C1543 C -0.02539 0.67685 1.06634
 C1544 C -0.03205 0.68333 1.09800
 C1545 C -0.04089 0.65543 1.11776
 C1546 C -0.03704 0.62203 1.10710
 C1547 C -0.02386 0.61649 1.07682
 C1548 C -0.02140 0.64427 1.05606
 C1549 C 0.00588 0.65458 1.03329
 C1550 C 0.00194 0.69034 1.04485
 H1551 H -0.04804 0.65923 1.14203
 H1552 H -0.04172 0.60092 1.12321
 H1553 H -0.00255 0.65193 1.00846
 H1554 H 0.03112 0.64368 1.03915
 H1555 H -0.00811 0.70794 1.02644
 H1556 H 0.02472 0.69980 1.05773
 C1557 C 0.50696 0.68265 -0.05986
 C1558 C 0.50363 0.68643 -0.09252
 C1559 C 0.50596 0.65687 -0.11087
 C1560 C 0.51368 0.62549 -0.09668
 C1561 C 0.51889 0.62309 -0.06404
 C1562 C 0.51416 0.65180 -0.04599
 C1563 C 0.53774 0.66724 -0.02254
 C1564 C 0.52990 0.70127 -0.03775
 H1565 H 0.50120 0.65726 -0.13591
 H1566 H 0.51439 0.60302 -0.11099
 H1567 H 0.56459 0.65956 -0.02572
 H1568 H 0.52792 0.66457 0.00191
 H1569 H 0.55214 0.71328 -0.04987
 H1570 H 0.51569 0.71822 -0.02193
 C1571 C 0.05717 1.17063 0.39811
 C1572 C 0.02534 1.18247 0.38839
 C1573 C -0.00055 1.15845 0.38251
 C1574 C 0.00330 1.12474 0.39259
 C1575 C 0.03344 1.11470 0.40767
 C1576 C 0.06130 1.13704 0.40715
 C1577 C 0.08645 1.14594 0.43215
 C1578 C 0.08207 1.18289 0.42211
 H1579 H -0.02511 1.16635 0.37366
 H1580 H -0.01833 1.10751 0.39146
 H1581 H 0.11221 1.13610 0.42701
 H1582 H 0.07688 1.14010 0.45629
 H1583 H 0.10527 1.19421 0.41107
 H1584 H 0.07048 1.19832 0.44078
 C1585 C 0.74631 0.72425 0.93730
 C1586 C 0.77043 0.69900 0.94466
 C1587 C 0.79770 0.69633 0.92323
 C1588 C 0.79695 0.71332 0.89379
 C1589 C 0.76891 0.73342 0.88461
 C1590 C 0.74569 0.74105 0.90825
 C1591 C 0.70793 0.74380 0.90825
 C1592 C 0.70843 0.72587 0.94033
 H1593 H 0.81834 0.67909 0.92738
 H1594 H 0.81695 0.70806 0.87712
 H1595 H 0.69566 0.72851 0.88951
 H1596 H 0.69951 0.77056 0.90936
 H1597 H 0.69532 0.70086 0.93998
 H1598 H 0.70062 0.74252 0.95984
 C1599 C 0.24480 0.22730 0.42546
 C1600 C 0.27261 0.20565 0.43135
 C1601 C 0.29660 0.20323 0.40685
 C1602 C 0.28948 0.21648 0.37667
 C1603 C 0.25801 0.23200 0.36987
 C1604 C 0.23781 0.24035 0.39551
 C1605 C 0.20032 0.23830 0.40035
 C1606 C 0.20774 0.22448 0.43331
 H1607 H 0.31905 0.18795 0.40944
 H1608 H 0.30708 0.21113 0.35784
 H1609 H 0.18774 0.21947 0.38483
 H1610 H 0.18853 0.26378 0.40036
 H1611 H 0.19835 0.19807 0.43694
 H1612 H 0.20047 0.24222 0.45215
 C1613 C 0.76608 0.26745 0.44327
 C1614 C 0.74023 0.29071 0.45088
 C1615 C 0.71092 0.28906 0.43147
 C1616 C 0.71159 0.27226 0.40248
 C1617 C 0.74112 0.25573 0.39219
 C1618 C 0.76630 0.25028 0.41489
 C1619 C 0.80404 0.24887 0.41370
 C1620 C 0.80419 0.26696 0.44520
 H1621 H 0.68805 0.30251 0.43682
 H1622 H 0.69006 0.27512 0.38673
 H1623 H 0.81487 0.26449 0.39402
 H1624 H 0.81346 0.22245 0.41551
 H1625 H 0.81712 0.29196 0.44337
 H1626 H 0.81323 0.25059 0.46499
 C1627 C 0.25921 0.77093 0.92988
 C1628 C 0.23257 0.79337 0.93713
 C1629 C 0.20539 0.79428 0.91526
 C1630 C 0.20899 0.78046 0.88520
 C1631 C 0.23960 0.76512 0.87611
 C1632 C 0.26254 0.75710 0.90014
 C1633 C 0.30036 0.75733 0.90164
 C1634 C 0.29699 0.77173 0.93457
 H1635 H 0.18257 0.80832 0.91935
 H1636 H 0.18916 0.78512 0.86796
 H1637 H 0.31207 0.77545 0.88436
 H1638 H 0.31091 0.73131 0.90164
 H1639 H 0.30832 0.79743 0.93631
 H1640 H 0.30512 0.75366 0.95342
 C1641 C 0.24514 0.77692 0.05993
 C1642 C 0.24260 0.81185 0.05221
 C1643 C 0.23422 0.83323 0.07738
 C1644 C 0.23237 0.82068 0.10855
 C1645 C 0.23888 0.78631 0.11612
 C1646 C 0.24324 0.76449 0.09093
 C1647 C 0.27012 0.73889 0.08574
 C1648 C 0.27236 0.75228 0.05202
 H1649 H 0.22911 0.85983 0.07367
 H1650 H 0.22697 0.83845 0.12701
 H1651 H 0.25994 0.71252 0.08755
 H1652 H 0.29350 0.74387 0.09977
 H1653 H 0.26367 0.73338 0.03453
 H1654 H 0.29706 0.76500 0.04643
 C1655 C 0.74382 0.28072 0.57570
 C1656 C 0.74532 0.31515 0.56584
 C1657 C 0.73820 0.33904 0.58941
 C1658 C 0.73372 0.32902 0.62114
 C1659 C 0.73633 0.29475 0.63104
 C1660 C 0.73946 0.27083 0.60729
 C1661 C 0.76355 0.24215 0.60472
 C1662 C 0.76848 0.25278 0.57042
 H1663 H 0.73625 0.36578 0.58410
 H1664 H 0.72966 0.34862 0.63825
 H1665 H 0.75051 0.21714 0.60765
 H1666 H 0.78677 0.24563 0.61936
 H1667 H 0.75850 0.23363 0.55376
 H1668 H 0.79458 0.26243 0.56514
 C1669 C 0.28793 0.18256 0.56810
 C1670 C 0.26102 0.18997 0.54754
 C1671 C 0.23993 0.21733 0.55567
 C1672 C 0.24312 0.23319 0.58519
 C1673 C 0.26808 0.22273 0.60699
 C1674 C 0.29111 0.19825 0.59709
 C1675 C 0.30354 0.16674 0.61298
 C1676 C 0.29991 0.14946 0.58136
 H1677 H 0.22013 0.22561 0.53964
 H1678 H 0.22477 0.25210 0.59169
 H1679 H 0.28559 0.15650 0.63100
 H1680 H 0.33039 0.16934 0.62090
 H1681 H 0.27981 0.12940 0.58134
 H1682 H 0.32470 0.14197 0.57123
 C1683 C 0.77663 0.66402 0.08436
 C1684 C 0.76066 0.68464 0.06171
 C1685 C 0.75661 0.71922 0.06982
 C1686 C 0.76458 0.73098 0.10043
 C1687 C 0.77657 0.70849 0.12397
 C1688 C 0.78384 0.67540 0.11444
 C1689 C 0.77685 0.64137 0.12913
 C1690 C 0.76882 0.62893 0.09634
 H1691 H 0.74560 0.73698 0.05312
 H1692 H 0.75857 0.75683 0.10633
 H1693 H 0.75398 0.64061 0.14440
 H1694 H 0.80007 0.62984 0.13950
 H1695 H 0.74158 0.62166 0.09358
 H1696 H 0.78733 0.61004 0.08793
 C1697 C 0.13861 0.58642 0.22115
 C1698 C 0.14465 0.56217 0.24526
 C1699 C 0.17566 0.56557 0.26179
 C1700 C 0.19739 0.59389 0.25669
 C1701 C 0.18906 0.61984 0.23469
 C1702 C 0.16028 0.61434 0.21600
 C1703 C 0.13155 0.63755 0.20914
 C1704 C 0.10783 0.60753 0.21488
 H1705 H 0.18242 0.54698 0.27972
 H1706 H 0.21966 0.59659 0.27153
 H1707 H 0.13170 0.64644 0.18420
 H1708 H 0.12905 0.65768 0.22698
 H1709 H 0.09406 0.60001 0.19316
 H1710 H 0.09156 0.61015 0.23607
 C1711 C 0.66083 0.08462 0.77919
 C1712 C 0.64625 0.07192 0.75170
 C1713 C 0.65454 0.09119 0.72387
 C1714 C 0.67378 0.12205 0.72499
 C1715 C 0.68643 0.13468 0.75381
 C1716 C 0.67960 0.11403 0.78017
 C1717 C 0.68403 0.11196 0.81496
 C1718 C 0.66316 0.07873 0.81389
 H1719 H 0.64670 0.08288 0.70089
 H1720 H 0.67844 0.13604 0.70324
 H1721 H 0.67063 0.13262 0.82715
 H1722 H 0.71102 0.10832 0.82193
 H1723 H 0.63823 0.08056 0.82595
 H1724 H 0.67813 0.05580 0.82001
 C1725 C 0.83738 0.06740 0.23407
 C1726 C 0.85830 0.05586 0.25839
 C1727 C 0.85472 0.07358 0.28730
 C1728 C 0.83350 0.10253 0.28967
 C1729 C 0.81428 0.11422 0.26357
 C1730 C 0.81675 0.09471 0.23652
 C1731 C 0.80473 0.09237 0.20331
 C1732 C 0.82787 0.06137 0.20065
 H1733 H 0.86789 0.06541 0.30836
 H1734 H 0.83257 0.11584 0.31174
 H1735 H 0.81335 0.11432 0.18853
 H1736 H 0.77717 0.08602 0.20177
 H1737 H 0.84936 0.06573 0.18408
 H1738 H 0.81371 0.03705 0.19780
 C1739 C 0.35619 0.59106 0.77754
 C1740 C 0.35892 0.56927 0.75170
 C1741 C 0.33734 0.57622 0.72572
 C1742 C 0.31680 0.60544 0.72461
 C1743 C 0.31677 0.62850 0.74970
 C1744 C 0.33553 0.61958 0.77648
 C1745 C 0.36018 0.64074 0.79422
 C1746 C 0.38310 0.61020 0.79526
 H1747 H 0.33722 0.55955 0.70572
 H1748 H 0.30186 0.61049 0.70364
 H1749 H 0.35012 0.64746 0.81770
 H1750 H 0.37067 0.66217 0.77979
 H1751 H 0.38668 0.60030 0.81969
 H1752 H 0.40693 0.61391 0.78148
 C1753 C 0.38163 0.41401 0.72941
 C1754 C 0.36319 0.44143 0.74148
 C1755 C 0.32750 0.43633 0.74383
 C1756 C 0.31194 0.40496 0.73695
 C1757 C 0.33110 0.37701 0.72745
 C1758 C 0.36598 0.38272 0.72261
 C1759 C 0.39544 0.36286 0.73448
 C1760 C 0.41243 0.39652 0.74219
 H1761 H 0.31121 0.45574 0.75283
 H1762 H 0.28491 0.40184 0.74124
 H1763 H 0.40838 0.34920 0.71529
 H1764 H 0.38912 0.34711 0.75568
 H1765 H 0.43548 0.40178 0.72772
 H1766 H 0.41586 0.40022 0.76788
 C1767 C 0.83202 0.92650 0.25457
 C1768 C 0.86731 0.93070 0.24961
 C1769 C 0.88466 0.90104 0.24025
 C1770 C 0.86749 0.86916 0.23768
 C1771 C 0.83258 0.86560 0.24501
 C1772 C 0.81554 0.89518 0.25270
 C1773 C 0.79273 0.90208 0.27977
 C1774 C 0.81047 0.93628 0.28200
 H1775 H 0.91163 0.90169 0.23570
 H1776 H 0.88206 0.84698 0.23205
 H1777 H 0.79770 0.88542 0.30059
 H1778 H 0.76563 0.90388 0.27249
 H1779 H 0.82550 0.93928 0.30401
 H1780 H 0.79315 0.95759 0.27626
 C1781 C 0.62190 0.91300 0.75753
 C1782 C 0.64004 0.94282 0.76458
 C1783 C 0.67149 0.93837 0.78049
 C1784 C 0.68588 0.90573 0.78443
 C1785 C 0.66940 0.87673 0.77240
 C1786 C 0.63642 0.88114 0.76071
 C1787 C 0.61887 0.86798 0.73222
 C1788 C 0.60275 0.90275 0.72871
 H1789 H 0.68585 0.96004 0.78871
 H1790 H 0.71116 0.90364 0.79440
 H1791 H 0.60019 0.84749 0.73814
 H1792 H 0.63666 0.86236 0.71274
 H1793 H 0.57479 0.90207 0.73254
 H1794 H 0.61120 0.91691 0.70732
 C1795 C 0.15850 0.42750 0.22930
 C1796 C 0.13427 0.43508 0.25209
 C1797 C 0.12767 0.41015 0.27565
 C1798 C 0.14319 0.37788 0.27450
 C1799 C 0.16485 0.36964 0.24926
 C1800 C 0.17293 0.39571 0.22766
 C1801 C 0.17261 0.39651 0.19249
 C1802 C 0.15681 0.43144 0.19434
 H1803 H 0.11056 0.41555 0.29484
 H1804 H 0.13729 0.35908 0.29262
 H1805 H 0.15518 0.37710 0.18238
 H1806 H 0.19870 0.39720 0.18247
 H1807 H 0.13027 0.43228 0.18530
 H1808 H 0.17385 0.45214 0.18546
 C1809 C 0.08230 0.22044 0.82941
 C1810 C 0.05684 0.24368 0.82131
 C1811 C 0.06348 0.26683 0.79629
 C1812 C 0.09572 0.26851 0.78238
 C1813 C 0.12205 0.24785 0.79397
 C1814 C 0.11405 0.22260 0.81610
 C1815 C 0.13158 0.21295 0.84612
 C1816 C 0.09656 0.20988 0.86081
 H1817 H 0.04506 0.28561 0.78916
 H1818 H 0.10054 0.28750 0.76417
 H1819 H 0.14718 0.23405 0.85578
 H1820 H 0.14492 0.18835 0.84482
 H1821 H 0.09246 0.22855 0.87967
 H1822 H 0.08944 0.18330 0.86727
 C1823 C 0.57771 0.70392 0.33476
 C1824 C 0.55286 0.72724 0.32526
 C1825 C 0.56263 0.75389 0.30448
 C1826 C 0.59581 0.75635 0.29299
 C1827 C 0.62009 0.73228 0.30215
 C1828 C 0.61059 0.70639 0.32320
 C1829 C 0.61361 0.66919 0.31874
 C1830 C 0.57753 0.66616 0.33074
 H1831 H 0.54515 0.77406 0.29861
 H1832 H 0.60253 0.77739 0.27740
 H1833 H 0.63263 0.65768 0.33498
 H1834 H 0.61632 0.66226 0.29359
 H1835 H 0.57580 0.65217 0.35364
 H1836 H 0.55906 0.65764 0.31256
 C1837 C 0.57399 0.28284 0.16073
 C1838 C 0.54958 0.25743 0.16721
 C1839 C 0.55984 0.22879 0.18499
 C1840 C 0.59191 0.22738 0.19839
 C1841 C 0.61503 0.25441 0.19423
 C1842 C 0.60616 0.28139 0.17428
 C1843 C 0.60729 0.31833 0.18078
 C1844 C 0.57199 0.32011 0.16657
 H1845 H 0.54360 0.20658 0.18765
 H1846 H 0.59842 0.20497 0.21210
 H1847 H 0.62688 0.33183 0.16633
 H1848 H 0.60792 0.32378 0.20639
 H1849 H 0.57124 0.33527 0.14427
 H1850 H 0.55197 0.32639 0.18394
 C1851 C 0.06051 0.78051 0.68076
 C1852 C 0.05859 0.78390 0.64793
 C1853 C 0.08898 0.79141 0.63137
 C1854 C 0.12033 0.79072 0.64695
 C1855 C 0.12177 0.78130 0.67895
 C1856 C 0.09145 0.77912 0.69592
 C1857 C 0.07884 0.75366 0.71971
 C1858 C 0.04466 0.75523 0.70311
 H1859 H 0.08923 0.79431 0.60601
 H1860 H 0.14341 0.79401 0.63329
 H1861 H 0.07826 0.76412 0.74383
 H1862 H 0.09115 0.72855 0.71769
 H1863 H 0.02449 0.76666 0.71770
 H1864 H 0.03732 0.73100 0.69182
 C1865 C 0.90667 0.74861 0.63453
 C1866 C 0.93124 0.77313 0.64166
 C1867 C 0.92137 0.80179 0.65844
 C1868 C 0.88918 0.80245 0.67236
 C1869 C 0.86695 0.77434 0.66962
 C1870 C 0.87511 0.74908 0.64839
 C1871 C 0.87373 0.71130 0.65206
 C1872 C 0.90852 0.71081 0.63667
 H1873 H 0.93905 0.82252 0.66246
 H1874 H 0.88296 0.82350 0.68726
 H1875 H 0.85339 0.69975 0.63737
 H1876 H 0.87403 0.70262 0.67712
 H1877 H 0.90820 0.69899 0.61309
 H1878 H 0.92904 0.70186 0.65274
 C1879 C 0.42189 0.24074 0.17915
 C1880 C 0.43008 0.22222 0.15261
 C1881 C 0.40370 0.20479 0.13691
 C1882 C 0.36961 0.20833 0.14674
 C1883 C 0.36184 0.23035 0.17151
 C1884 C 0.38882 0.24488 0.18816
 C1885 C 0.39506 0.28111 0.19677
 C1886 C 0.43164 0.27632 0.18717
 H1887 H 0.40925 0.18972 0.11651
 H1888 H 0.34950 0.19517 0.13429
 H1889 H 0.39244 0.28553 0.22237
 H1890 H 0.38123 0.29927 0.18120
 H1891 H 0.44972 0.27734 0.20729
 H1892 H 0.43906 0.29200 0.16628
 C1893 C 0.40432 0.76040 0.36113
 C1894 C 0.43298 0.76728 0.34250
 C1895 C 0.42888 0.78677 0.31475
 C1896 C 0.39622 0.79307 0.30324
 C1897 C 0.36763 0.78088 0.31992
 C1898 C 0.37202 0.76731 0.35012
 C1899 C 0.35765 0.73531 0.36436
 C1900 C 0.39310 0.72778 0.37644
 H1901 H 0.45058 0.79452 0.30062
 H1902 H 0.39344 0.80408 0.27985
 H1903 H 0.34848 0.71705 0.34646
 H1904 H 0.33940 0.74035 0.38356
 H1905 H 0.40465 0.70525 0.36547
 H1906 H 0.39505 0.72848 0.40254
 C1907 C 0.91253 0.28216 0.86756
 C1908 C 0.93987 0.28377 0.84630
 C1909 C 0.93408 0.30062 0.81711
 C1910 C 0.90088 0.30796 0.80739
 C1911 C 0.87333 0.29974 0.82714
 C1912 C 0.88000 0.29098 0.85831
 C1913 C 0.86377 0.26422 0.87829
 C1914 C 0.89907 0.25332 0.88762
 H1915 H 0.95440 0.30591 0.80059
 H1916 H 0.89653 0.31645 0.78333
 H1917 H 0.84929 0.24489 0.86479
 H1918 H 0.85022 0.27630 0.89783
 H1919 H 0.90599 0.22809 0.87838
 H1920 H 0.90380 0.25657 0.91318
 C1921 C 0.58164 0.97532 0.67053
 C1922 C 0.56566 0.99473 0.69322
 C1923 C 0.53482 1.01050 0.68469
 C1924 C 0.52250 1.00934 0.65331
 C1925 C 0.54129 0.99303 0.62975
 C1926 C 0.56978 0.97450 0.63974
 C1927 C 0.60506 0.97446 0.62668
 C1928 C 0.61800 0.97553 0.66031
 H1929 H 0.52166 1.02582 0.70162
 H1930 H 0.49965 1.02302 0.64719
 H1931 H 0.61128 0.99789 0.61281
 H1932 H 0.61088 0.95031 0.61480
 H1933 H 0.63162 0.99958 0.66585
 H1934 H 0.63159 0.95213 0.66750
 C1935 C 0.01774 0.51208 1.20202
 C1936 C 0.04417 0.49076 1.21224
 C1937 C 0.05036 0.46181 1.19434
 C1938 C 0.03610 0.45885 1.16408
 C1939 C 0.01490 0.48450 1.15154
 C1940 C 0.00307 0.50863 1.17249
 C1941 C -0.00275 0.54577 1.16877
 C1942 C 0.01288 0.54969 1.20138
 H1943 H 0.06956 0.44390 1.20177
 H1944 H 0.04442 0.43831 1.14944
 H1945 H -0.03026 0.55189 1.16797
 H1946 H 0.01285 0.55756 1.14960
 H1947 H -0.00586 0.55769 1.21927
 H1948 H 0.03675 0.56489 1.20087
 C1949 C -0.04971 -0.03809 1.17769
 C1950 C -0.05542 -0.00689 1.19214
 C1951 C -0.03935 0.02201 1.17849
 C1952 C -0.02341 0.02038 1.14887
 C1953 C -0.02258 -0.01026 1.13235
 C1954 C -0.03389 -0.03965 1.14830
 C1955 C -0.05712 -0.06727 1.13751
 C1956 C -0.07426 -0.06579 1.16951
 H1957 H -0.04129 0.04647 1.18951
 H1958 H -0.01448 0.04369 1.13764
 H1959 H -0.04341 -0.09137 1.13376
 H1960 H -0.07384 -0.05910 1.11771
 H1961 H -0.07017 -0.08916 1.18387
 H1962 H -0.10103 -0.05701 1.16835
 C1963 C 0.47678 0.52254 0.68992
 C1964 C 0.45057 0.49999 0.69897
 C1965 C 0.44865 0.46884 0.68324
 C1966 C 0.46794 0.46364 0.65580
 C1967 C 0.49015 0.48916 0.64413
 C1968 C 0.49642 0.51701 0.66338
 C1969 C 0.49954 0.55402 0.65589
 C1970 C 0.47800 0.56015 0.68491
 H1971 H 0.42966 0.45006 0.69000
 H1972 H 0.46245 0.44153 0.64178
 H1973 H 0.48671 0.56138 0.63349
 H1974 H 0.52615 0.56347 0.65829
 H1975 H 0.45311 0.57138 0.67866
 H1976 H 0.49220 0.57321 0.70393
 C1977 C 0.45151 0.46993 -0.17688
 C1978 C 0.45035 0.49972 -0.19489
 C1979 C 0.47102 0.52727 -0.18489
 C1980 C 0.48736 0.52651 -0.15512
 C1981 C 0.48246 0.49857 -0.13449
 C1982 C 0.46622 0.46972 -0.14708
 C1983 C 0.43894 0.44659 -0.13427
 C1984 C 0.42339 0.44647 -0.16701
 H1985 H 0.47186 0.55060 -0.19872
 H1986 H 0.50035 0.54909 -0.14700
 H1987 H 0.42210 0.45907 -0.11711
 H1988 H 0.44895 0.42149 -0.12672
 H1989 H 0.39796 0.45850 -0.16828
 H1990 H 0.42507 0.42146 -0.17851
 C1991 C -0.02309 1.02174 0.30716
 C1992 C -0.03903 0.99209 0.29608
 C1993 C -0.03054 0.96128 0.31090
 C1994 C -0.00798 0.96081 0.33678
 C1995 C 0.00660 0.99109 0.34867
 C1996 C -0.00106 1.02144 0.33304
 C1997 C 0.02326 1.04515 0.31661
 C1998 C -0.00089 1.04569 0.28884
 H1999 H -0.04323 0.93799 0.30413
 H2000 H -0.00437 0.93704 0.34945
 H2001 H 0.04805 1.03316 0.31139
 H2002 H 0.02527 1.06996 0.32857
 H2003 H 0.00981 1.03414 0.26735
 H2004 H -0.01313 1.07069 0.28495
 C2005 C 0.03848 0.48112 0.32705
 C2006 C 0.07264 0.49081 0.32236
 C2007 C 0.09431 0.48919 0.34864
 C2008 C 0.08113 0.48290 0.37899
 C2009 C 0.04569 0.47869 0.38418
 C2010 C 0.02518 0.47556 0.35731
 C2011 C -0.00755 0.49219 0.34894
 C2012 C 0.00681 0.49813 0.31600
 H2013 H 0.12128 0.49433 0.34593
 H2014 H 0.09860 0.48388 0.39870
 H2015 H -0.01154 0.51601 0.36203
 H2016 H -0.02933 0.47397 0.34955
 H2017 H 0.01104 0.52539 0.30991
 H2018 H -0.00666 0.48326 0.29770
 C2019 C 0.52560 0.01492 -0.18822
 C2020 C 0.55541 -0.00254 -0.19520
 C2021 C 0.56361 -0.03048 -0.17556
 C2022 C 0.54592 -0.03651 -0.14701
 C2023 C 0.51883 -0.01554 -0.13821
 C2024 C 0.50757 0.00835 -0.16057
 C2025 C 0.49855 0.04479 -0.15720
 C2026 C 0.51818 0.05193 -0.18750
 H2027 H 0.58573 -0.04556 -0.18065
 H2028 H 0.55542 -0.05545 -0.13057
 H2029 H 0.51044 0.05649 -0.13617
 H2030 H 0.47076 0.04892 -0.15971
 H2031 H 0.54115 0.06802 -0.18377
 H2032 H 0.50164 0.06007 -0.20741
 C2033 C 0.67461 0.60570 -0.03527
 C2034 C 0.69873 0.60391 -0.01070
 C2035 C 0.69633 0.57507 0.00944
 C2036 C 0.66846 0.55207 0.00729
 C2037 C 0.64243 0.55673 -0.01545
 C2038 C 0.64756 0.58275 -0.03773
 C2039 C 0.62369 0.60943 -0.04903
 C2040 C 0.65307 0.63460 -0.04632
 H2041 H 0.71505 0.57069 0.02767
 H2042 H 0.66639 0.53166 0.02459
 H2043 H 0.60281 0.61378 -0.03203
 H2044 H 0.61538 0.60537 -0.07373
 H2045 H 0.64921 0.65378 -0.02779
 H2046 H 0.66139 0.64507 -0.06955
 C2047 C 0.20389 1.08760 0.50471
 C2048 C 0.21849 1.10120 0.47732
 C2049 C 0.20580 1.08852 0.44834
 C2050 C 0.17619 1.06769 0.44726
 C2051 C 0.15877 1.05856 0.47514
 C2052 C 0.17488 1.06715 0.50364
 C2053 C 0.16089 1.08247 0.53280
 C2054 C 0.19269 1.10466 0.53392
 H2055 H 0.21745 1.09609 0.42624
 H2056 H 0.16608 1.06035 0.42462
 H2057 H 0.15929 1.06383 0.55269
 H2058 H 0.13737 1.09716 0.52820
 H2059 H 0.20942 1.09862 0.55434
 H2060 H 0.18758 1.13211 0.53006
 C2061 C 0.17759 -0.08341 0.97836
 C2062 C 0.18478 -0.10868 1.00082
 C2063 C 0.16535 -0.10843 1.02880
 C2064 C 0.13661 -0.08697 1.03141
 C2065 C 0.12642 -0.06574 1.00591
 C2066 C 0.14945 -0.06286 0.98075
 C2067 C 0.14542 -0.06027 0.94581
 C2068 C 0.17661 -0.08265 0.94323
 H2069 H 0.17065 -0.12654 1.04756
 H2070 H 0.12111 -0.08886 1.05234
 H2071 H 0.14984 -0.03401 0.93668
 H2072 H 0.12186 -0.07294 0.93728
 H2073 H 0.19902 -0.06910 0.93294
 H2074 H 0.17063 -0.10760 0.93274
 C2075 C 0.68975 0.42005 0.48846
 C2076 C 0.69614 0.39394 0.51032
 C2077 C 0.67618 0.39361 0.53800
 C2078 C 0.64791 0.41557 0.54096
 C2079 C 0.63880 0.43827 0.51619
 C2080 C 0.66209 0.44129 0.49121
 C2081 C 0.65816 0.44468 0.45631
 C2082 C 0.68876 0.42157 0.45334
 H2083 H 0.68055 0.37456 0.55615
 H2084 H 0.63164 0.41265 0.56138
 H2085 H 0.66323 0.47100 0.44764
 H2086 H 0.63431 0.43278 0.44752
 H2087 H 0.71150 0.43475 0.44327
 H2088 H 0.68218 0.39695 0.44246
 C2089 C -0.17449 0.39776 0.52406
 C2090 C -0.18766 0.38495 0.49609
 C2091 C -0.16996 0.39434 0.46799
 C2092 C -0.13834 0.41208 0.46890
 C2093 C -0.12348 0.42098 0.49790
 C2094 C -0.14347 0.41499 0.52494
 C2095 C -0.13442 0.39929 0.55607
 C2096 C -0.16839 0.38049 0.55504
 H2097 H -0.17977 0.38717 0.44523
 H2098 H -0.12510 0.41768 0.44707
 H2099 H -0.13303 0.41832 0.57505
 H2100 H -0.11217 0.38223 0.55461
 H2101 H -0.18647 0.38879 0.57339
 H2102 H -0.16588 0.35255 0.55298
 C2103 C 0.32236 -0.10867 -0.04349
 C2104 C 0.29757 -0.10776 -0.01958
 C2105 C 0.29900 -0.07935 0.00026
 C2106 C 0.32656 -0.05589 -0.00147
 C2107 C 0.35327 -0.05978 -0.02343
 C2108 C 0.34914 -0.08538 -0.04546
 C2109 C 0.37366 -0.11142 -0.05592
 C2110 C 0.34456 -0.13699 -0.05379
 H2111 H 0.27981 -0.07569 0.01801
 H2112 H 0.32785 -0.03578 0.01555
 H2113 H 0.39419 -0.11623 -0.03842
 H2114 H 0.38245 -0.10651 -0.08044
 H2115 H 0.34817 -0.15666 -0.03505
 H2116 H 0.33705 -0.14684 -0.07720
 C2117 C 0.32744 1.08496 0.51363
 C2118 C 0.33220 1.11906 0.50462
 C2119 C 0.36577 1.13214 0.50632
 C2120 C 0.39359 1.11054 0.51268
 C2121 C 0.38865 1.07529 0.51723
 C2122 C 0.35491 1.06355 0.51919
 C2123 C 0.33750 1.03431 0.50390
 C2124 C 0.30747 1.05761 0.49790
 H2125 H 0.37078 1.15866 0.50095
 H2126 H 0.41917 1.12095 0.51123
 H2127 H 0.33164 1.01339 0.52096
 H2128 H 0.35038 1.02645 0.48195
 H2129 H 0.28440 1.05013 0.51154
 H2130 H 0.30292 1.06321 0.47249
 C2131 C -0.19145 0.56854 1.00885
 C2132 C -0.18908 0.60226 1.01813
 C2133 C -0.16183 0.61107 1.03821
 C2134 C -0.13556 0.58765 1.04497
 C2135 C -0.13556 0.55535 1.03099
 C2136 C -0.16511 0.54600 1.01441
 C2137 C -0.17046 0.52942 0.98334
 C2138 C -0.19950 0.55396 0.97753
 H2139 H -0.15967 0.63666 1.04692
 H2140 H -0.11364 0.59613 1.05832
 H2141 H -0.17915 0.50261 0.98604
 H2142 H -0.14901 0.53375 0.96671
 H2143 H -0.22492 0.54134 0.97724
 H2144 H -0.19463 0.57222 0.95775
 C2145 C -0.02438 0.68067 0.57404
 C2146 C -0.00598 0.68753 0.60139
 C2147 C 0.00850 0.66027 0.61824
 C2148 C 0.00877 0.62797 0.60507
 C2149 C -0.00566 0.62276 0.57511
 C2150 C -0.02435 0.64887 0.56120
 C2151 C -0.02305 0.66277 0.52828
 C2152 C -0.02293 0.69783 0.54237
 H2153 H 0.02124 0.66420 0.64052
 H2154 H 0.02187 0.60775 0.61747
 H2155 H -0.04668 0.65692 0.51492
 H2156 H 0.00105 0.65672 0.51601
 H2157 H -0.04642 0.71222 0.53691
 H2158 H 0.00127 0.71214 0.53840
 C2159 C 0.53548 0.17623 0.07453
 C2160 C 0.51091 0.20144 0.07144
 C2161 C 0.48805 0.19979 0.04593
 C2162 C 0.48555 0.17006 0.02840
 C2163 C 0.50555 0.14197 0.03685
 C2164 C 0.53251 0.14679 0.05789
 C2165 C 0.54458 0.12545 0.08515
 C2166 C 0.54812 0.15788 0.10335
 H2167 H 0.47004 0.21983 0.04141
 H2168 H 0.46560 0.16786 0.01091
 H2169 H 0.56935 0.11324 0.08052
 H2170 H 0.52457 0.10825 0.09511
 H2171 H 0.57501 0.16453 0.10887
 H2172 H 0.53027 0.15914 0.12359
 C2173 C -0.00693 0.18952 0.93051
 C2174 C -0.02032 0.19143 0.90013
 C2175 C -0.03248 0.16175 0.88597
 C2176 C -0.03233 0.13092 0.90260
 C2177 C -0.01943 0.12928 0.93352
 C2178 C -0.00645 0.15884 0.94696
 C2179 C -0.01715 0.17467 0.97695
 C2180 C -0.01830 0.20809 0.95892
 H2181 H -0.04066 0.16224 0.86159
 H2182 H -0.04128 0.10831 0.89091
 H2183 H 0.00328 0.17383 0.99506
 H2184 H -0.04255 0.16553 0.98516
 H2185 H 0.00108 0.22681 0.96691
 H2186 H -0.04449 0.21809 0.95631
 C2187 C 0.48011 0.68593 0.43990
 C2188 C 0.47199 0.68430 0.40800
 C2189 C 0.45781 0.65421 0.39636
 C2190 C 0.45835 0.62462 0.41496
 C2191 C 0.47400 0.62498 0.44488
 C2192 C 0.48163 0.65653 0.45802
 C2193 C 0.51234 0.66883 0.47546
 C2194 C 0.51053 0.70114 0.45562
 H2195 H 0.45026 0.65264 0.37187
 H2196 H 0.45035 0.60103 0.40438
 H2197 H 0.53545 0.65385 0.47058
 H2198 H 0.50696 0.67291 0.50079
 H2199 H 0.53254 0.70472 0.43943
 H2200 H 0.50391 0.72381 0.46945
 C2201 C 0.47812 0.80978 0.42458
 C2202 C 0.50835 0.79670 0.41235
 C2203 C 0.53899 0.81434 0.41900
 C2204 C 0.53820 0.84655 0.43251
 C2205 C 0.50696 0.86084 0.44065
 C2206 C 0.47768 0.84086 0.43908
 C2207 C 0.44393 0.85015 0.42582
 C2208 C 0.44436 0.81650 0.40926
 H2209 H 0.56340 0.80450 0.41225
 H2210 H 0.56173 0.86070 0.43554
 H2211 H 0.44525 0.87243 0.40943
 H2212 H 0.42408 0.85143 0.44435
 H2213 H 0.44629 0.81956 0.38328
 H2214 H 0.42398 0.79888 0.41780
 C2215 C -0.00796 0.30367 0.94218
 C2216 C 0.01619 0.30142 0.91779
 C2217 C 0.04212 0.32669 0.91682
 C2218 C 0.04003 0.35555 0.93542
 C2219 C 0.01255 0.35945 0.95604
 C2220 C -0.00893 0.33167 0.96146
 C2221 C -0.04654 0.33104 0.96451
 C2222 C -0.04616 0.30132 0.94270
 H2223 H 0.06236 0.32655 0.89974
 H2224 H 0.05837 0.37591 0.93169
 H2225 H -0.05876 0.35383 0.95390
 H2226 H -0.05485 0.32418 0.98882
 H2227 H -0.05786 0.30800 0.91965
 H2228 H -0.05577 0.27761 0.95421
 C2229 C 0.48225 0.30189 0.05749
 C2230 C 0.46709 0.30141 0.08729
 C2231 C 0.44962 0.33012 0.09705
 C2232 C 0.45357 0.36067 0.08024
 C2233 C 0.47570 0.36255 0.05410
 C2234 C 0.48664 0.33224 0.04117
 C2235 C 0.52097 0.32280 0.02949
 C2236 C 0.51632 0.28951 0.04730
 H2237 H 0.43676 0.33011 0.11958
 H2238 H 0.44257 0.38329 0.08989
 H2239 H 0.54171 0.33885 0.03931
 H2240 H 0.52143 0.31989 0.00351
 H2241 H 0.53463 0.28643 0.06709
 H2242 H 0.51423 0.26745 0.03147
 C2243 C -0.00178 0.79946 0.52888
 C2244 C -0.01971 0.79558 0.55708
 C2245 C -0.04005 0.82261 0.56676
 C2246 C -0.03245 0.85543 0.55566
 C2247 C -0.00614 0.86033 0.53359
 C2248 C 0.00537 0.83182 0.51759
 C2249 C 0.04020 0.82258 0.50704
 C2250 C 0.03253 0.78703 0.51930
 H2251 H -0.05616 0.81985 0.58731
 H2252 H -0.04461 0.87674 0.56656
 H2253 H 0.06066 0.83565 0.52047
 H2254 H 0.04281 0.82385 0.48101
 H2255 H 0.04914 0.77928 0.53926
 H2256 H 0.03063 0.76810 0.50026
 C2257 C 0.20656 0.29212 0.05628
 C2258 C 0.23719 0.29011 0.03990
 C2259 C 0.26141 0.26674 0.05154
 C2260 C 0.25770 0.25159 0.08174
 C2261 C 0.23008 0.26020 0.10101
 C2262 C 0.20341 0.27820 0.08646
 C2263 C 0.18244 0.30723 0.09720
 C2264 C 0.18590 0.32227 0.06421
 H2265 H 0.28514 0.26351 0.03907
 H2266 H 0.27846 0.23682 0.09133
 H2267 H 0.19538 0.32307 0.11508
 H2268 H 0.15595 0.29930 0.10308
 H2269 H 0.20101 0.34623 0.06337
 H2270 H 0.16148 0.32294 0.05099
 C2271 C 0.77085 0.78626 0.56526
 C2272 C 0.75105 0.81333 0.55413
 C2273 C 0.72345 0.82291 0.57297
 C2274 C 0.71964 0.80952 0.60391
 C2275 C 0.74306 0.78578 0.61645
 C2276 C 0.76667 0.77261 0.59539
 C2277 C 0.80373 0.76577 0.59892
 C2278 C 0.80834 0.78042 0.56577
 H2279 H 0.70670 0.84290 0.56493
 H2280 H 0.69982 0.81955 0.61864
 H2281 H 0.80908 0.73819 0.60070
 H2282 H 0.81583 0.78155 0.61737
 H2283 H 0.81604 0.76114 0.54845
 H2284 H 0.82387 0.80410 0.56538
 C2285 C 0.21660 0.71083 0.56493
 C2286 C 0.24864 0.70536 0.55162
 C2287 C 0.27615 0.72485 0.56312
 C2288 C 0.27254 0.74416 0.59051
 C2289 C 0.24138 0.74454 0.60685
 C2290 C 0.21307 0.72977 0.59213
 C2291 C 0.18629 0.70627 0.60506
 C2292 C 0.19010 0.68566 0.57536
 H2293 H 0.30113 0.72288 0.55268
 H2294 H 0.29508 0.75540 0.60094
 H2295 H 0.16117 0.71877 0.60678
 H2296 H 0.19457 0.69248 0.62676
 H2297 H 0.16721 0.68630 0.55997
 H2298 H 0.20065 0.65997 0.57983
 C2299 C 0.75719 0.21656 0.07324
 C2300 C 0.73604 0.18950 0.06419
 C2301 C 0.70729 0.18257 0.08318
 C2302 C 0.70355 0.19831 0.11270
 C2303 C 0.72774 0.22233 0.12326
 C2304 C 0.75295 0.23272 0.10183
 C2305 C 0.79029 0.23804 0.10600
 C2306 C 0.79500 0.22037 0.07472
 H2307 H 0.68940 0.16284 0.07660
 H2308 H 0.68342 0.18960 0.12833
 H2309 H 0.80067 0.22353 0.12646
 H2310 H 0.79756 0.26536 0.10501
 H2311 H 0.80845 0.19591 0.07750
 H2312 H 0.80501 0.23753 0.05580
 C2313 C 0.75407 0.23697 0.95512
 C2314 C 0.73111 0.20943 0.95874
 C2315 C 0.70570 0.20639 0.93568
 C2316 C 0.70831 0.22505 0.90711
 C2317 C 0.73670 0.24669 0.90070
 C2318 C 0.75690 0.25500 0.92662
 C2319 C 0.79432 0.25868 0.92992
 C2320 C 0.79129 0.24065 0.96167
 H2321 H 0.68664 0.18642 0.93774
 H2322 H 0.69032 0.21925 0.88860
 H2323 H 0.80259 0.28563 0.93161
 H2324 H 0.80751 0.24302 0.91236
 H2325 H 0.79630 0.25771 0.98177
 H2326 H 0.80559 0.21663 0.96273
 C2327 C 0.21359 0.69284 0.42607
 C2328 C 0.24094 0.69765 0.44647
 C2329 C 0.26543 0.72271 0.43768
 C2330 C 0.26481 0.73835 0.40733
 C2331 C 0.24070 0.72794 0.38475
 C2332 C 0.21395 0.70683 0.39581
 C2333 C 0.19734 0.67588 0.38249
 C2334 C 0.19671 0.66090 0.41566
 H2335 H 0.28667 0.72798 0.45318
 H2336 H 0.28509 0.75576 0.40062
 H2337 H 0.21431 0.66163 0.36668
 H2338 H 0.17153 0.68114 0.37301
 H2339 H 0.21315 0.63830 0.41871
 H2340 H 0.17057 0.65796 0.42530
 C2341 C 0.76613 0.77266 0.43587
 C2342 C 0.74982 0.80294 0.44308
 C2343 C 0.72189 0.81228 0.42406
 C2344 C 0.71461 0.79492 0.39596
 C2345 C 0.73446 0.76722 0.38678
 C2346 C 0.75846 0.75509 0.40854
 C2347 C 0.79468 0.74510 0.40420
 C2348 C 0.80298 0.76427 0.43410
 H2349 H 0.70795 0.83504 0.42908
 H2350 H 0.69585 0.80531 0.37988
 H2351 H 0.80639 0.75673 0.38273
 H2352 H 0.79808 0.71725 0.40683
 H2353 H 0.81961 0.78681 0.42975
 H2354 H 0.81106 0.74743 0.45392
 C2355 C 0.21821 0.30032 0.91945
 C2356 C 0.24967 0.30848 0.93351
 C2357 C 0.27885 0.29487 0.91914
 C2358 C 0.27686 0.27911 0.88960
 C2359 C 0.24561 0.27572 0.87359
 C2360 C 0.21631 0.28468 0.89008
 C2361 C 0.18692 0.30560 0.87971
 C2362 C 0.18856 0.32230 0.91170
 H2363 H 0.30369 0.29800 0.92975
 H2364 H 0.30022 0.27179 0.87819
 H2365 H 0.16346 0.29011 0.87633
 H2366 H 0.19342 0.32320 0.85983
 H2367 H 0.16605 0.31566 0.92640
 H2368 H 0.19542 0.34972 0.91048
 C2369 C 0.83117 0.45195 0.74659
 C2370 C 0.84516 0.46508 0.77411
 C2371 C 0.83191 0.45165 0.80294
 C2372 C 0.81032 0.42258 0.80366
 C2373 C 0.80077 0.40650 0.77556
 C2374 C 0.80979 0.42354 0.74729
 C2375 C 0.82489 0.41040 0.71767
 C2376 C 0.84809 0.44143 0.71699
 H2377 H 0.83974 0.46215 0.82520
 H2378 H 0.80290 0.41163 0.82621
 H2379 H 0.80626 0.41028 0.69795
 H2380 H 0.83890 0.38636 0.72156
 H2381 H 0.84272 0.45906 0.69695
 H2382 H 0.87538 0.43529 0.72053
 C2383 C 0.34826 0.92208 0.28592
 C2384 C 0.34763 0.94581 0.26068
 C2385 C 0.31901 0.94399 0.24056
 C2386 C 0.29520 0.91683 0.24331
 C2387 C 0.29883 0.89104 0.26667
 C2388 C 0.32448 0.89579 0.28897
 C2389 C 0.35039 0.87136 0.30074
 C2390 C 0.37642 0.89988 0.29752
 H2391 H 0.31559 0.96238 0.22172
 H2392 H 0.27524 0.91483 0.22581
 H2393 H 0.35451 0.85045 0.28404
 H2394 H 0.34569 0.86324 0.32556
 H2395 H 0.39591 0.89533 0.27917
 H2396 H 0.38667 0.90798 0.32065
 C2397 C 0.16979 0.94258 0.76263
 C2398 C 0.14331 0.94906 0.74146
 C2399 C 0.14299 0.92992 0.71358
 C2400 C 0.16509 0.90187 0.71005
 C2401 C 0.18817 0.89252 0.73428
 C2402 C 0.19135 0.91536 0.75922
 C2403 C 0.19545 0.91109 0.79405
 C2404 C 0.17194 0.94122 0.79767
 H2405 H 0.12395 0.93489 0.69569
 H2406 H 0.16211 0.88605 0.68962
 H2407 H 0.22194 0.91639 0.80192
 H2408 H 0.18397 0.88711 0.80330
 H2409 H 0.18501 0.96395 0.80729
 H2410 H 0.14753 0.93413 0.80926
 C2411 C 0.66940 0.42909 0.27328
 C2412 C 0.64218 0.43510 0.25280
 C2413 C 0.63960 0.41411 0.22626
 C2414 C 0.66075 0.38536 0.22328
 C2415 C 0.68446 0.37663 0.24711
 C2416 C 0.68964 0.40075 0.27068
 C2417 C 0.69453 0.39804 0.30554
 C2418 C 0.67250 0.42938 0.30828
 H2419 H 0.61953 0.41822 0.20919
 H2420 H 0.65654 0.36859 0.20375
 H2421 H 0.72142 0.40258 0.31258
 H2422 H 0.68232 0.37500 0.31606
 H2423 H 0.68683 0.45200 0.31659
 H2424 H 0.64812 0.42406 0.32066
 C2425 C 0.65866 0.56188 0.23845
 C2426 C 0.64389 0.54888 0.26603
 C2427 C 0.65534 0.56318 0.29475
 C2428 C 0.67629 0.59257 0.29500
 C2429 C 0.68701 0.60805 0.26658
 C2430 C 0.67948 0.59064 0.23874
 C2431 C 0.66531 0.60354 0.20824
 C2432 C 0.64266 0.57209 0.20793
 H2433 H 0.64703 0.55272 0.31719
 H2434 H 0.68283 0.60385 0.31732
 H2435 H 0.68463 0.60386 0.18917
 H2436 H 0.65095 0.62747 0.21082
 H2437 H 0.64940 0.55475 0.18870
 H2438 H 0.61511 0.57759 0.21019
 C2439 C 0.13134 0.09164 0.77299
 C2440 C 0.13561 0.06501 0.75170
 C2441 C 0.16523 0.06661 0.73292
 C2442 C 0.18732 0.09530 0.73367
 C2443 C 0.18089 0.12291 0.75368
 C2444 C 0.15341 0.11942 0.77424
 C2445 C 0.12516 0.14341 0.77998
 C2446 C 0.10097 0.11326 0.77841
 H2447 H 0.17104 0.04641 0.71699
 H2448 H 0.20881 0.09639 0.71775
 H2449 H 0.12171 0.16221 0.76045
 H2450 H 0.12666 0.15419 0.80385
 H2451 H 0.08359 0.11423 0.75774
 H2452 H 0.08838 0.10749 0.80133
 C2453 C 0.34974 0.07906 0.21011
 C2454 C 0.34682 0.05724 0.23643
 C2455 C 0.31748 0.05990 0.25505
 C2456 C 0.29449 0.08664 0.24990
 C2457 C 0.30029 0.11150 0.22602
 C2458 C 0.32703 0.10563 0.20504
 C2459 C 0.35463 0.12904 0.19363
 C2460 C 0.37934 0.10012 0.19912
 H2461 H 0.31356 0.04273 0.27492
 H2462 H 0.27364 0.08936 0.26627
 H2463 H 0.35902 0.15082 0.20951
 H2464 H 0.35150 0.13598 0.16833
 H2465 H 0.39807 0.10505 0.21820
 H2466 H 0.39041 0.09066 0.17693
 C2467 C 0.83860 0.57728 0.73102
 C2468 C 0.87144 0.57911 0.74394
 C2469 C 0.88680 0.61172 0.74480
 C2470 C 0.86788 0.64121 0.73789
 C2471 C 0.83319 0.63902 0.72957
 C2472 C 0.81985 0.60645 0.72433
 C2473 C 0.78748 0.59013 0.73534
 C2474 C 0.80787 0.55833 0.74254
 H2475 H 0.91278 0.61473 0.75285
 H2476 H 0.87955 0.66580 0.74180
 H2477 H 0.76897 0.58682 0.71579
 H2478 H 0.77708 0.60214 0.75673
 H2479 H 0.80112 0.53677 0.72712
 H2480 H 0.80927 0.55185 0.76810
 C2481 C 0.93591 0.78349 0.18226
 C2482 C 0.95864 0.75625 0.18184
 C2483 C 0.95292 0.72911 0.20332
 C2484 C 0.92238 0.72681 0.22023
 C2485 C 0.89706 0.75113 0.21501
 C2486 C 0.90553 0.78068 0.19814
 C2487 C 0.88637 0.79966 0.17312
 C2488 C 0.91963 0.80309 0.15568
 H2489 H 0.96999 0.70792 0.20489
 H2490 H 0.91714 0.70421 0.23432
 H2491 H 0.87657 0.82429 0.18124
 H2492 H 0.86761 0.78374 0.16026
 H2493 H 0.92902 0.82978 0.15411
 H2494 H 0.91958 0.78929 0.13305
 C2495 C 0.44248 0.22042 0.67308
 C2496 C 0.44864 0.23973 0.64575
 C2497 C 0.42115 0.25630 0.63120
 C2498 C 0.38987 0.25782 0.64671
 C2499 C 0.38594 0.24276 0.67685
 C2500 C 0.41161 0.22174 0.68825
 C2501 C 0.42761 0.22030 0.72013
 C2502 C 0.46165 0.21925 0.70350
 H2503 H 0.42438 0.26984 0.60899
 H2504 H 0.36959 0.27231 0.63591
 H2505 H 0.42117 0.19633 0.73305
 H2506 H 0.42383 0.24388 0.73363
 H2507 H 0.47513 0.19488 0.70721
 H2508 H 0.47732 0.24248 0.70710
 C2509 C 0.44203 0.73926 0.79911
 C2510 C 0.44345 0.72707 0.83009
 C2511 C 0.41472 0.71030 0.84268
 C2512 C 0.38332 0.71294 0.82731
 C2513 C 0.38075 0.73164 0.79885
 C2514 C 0.41104 0.74165 0.78375
 C2515 C 0.42089 0.77464 0.76823
 C2516 C 0.45481 0.77197 0.78507
 H2517 H 0.41531 0.70007 0.86652
 H2518 H 0.36080 0.70350 0.83935
 H2519 H 0.40553 0.79625 0.77643
 H2520 H 0.42309 0.77251 0.74226
 H2521 H 0.45894 0.79207 0.80278
 H2522 H 0.47651 0.76814 0.76881
 C2523 C 0.93525 0.22155 0.31967
 C2524 C 0.93574 0.22669 0.35232
 C2525 C 0.90489 0.22137 0.36879
 C2526 C 0.87415 0.21815 0.35243
 C2527 C 0.87365 0.22129 0.31942
 C2528 C 0.90462 0.22010 0.30354
 C2529 C 0.91774 0.24006 0.27603
 C2530 C 0.95155 0.24133 0.29323
 H2531 H 0.90402 0.22159 0.39426
 H2532 H 0.85069 0.21674 0.36571
 H2533 H 0.90585 0.26541 0.27347
 H2534 H 0.91840 0.22484 0.25425
 H2535 H 0.95952 0.26735 0.30002
 H2536 H 0.97116 0.22623 0.28118
 C2537 C 0.07561 0.28810 0.34283
 C2538 C 0.04490 0.27419 0.33188
 C2539 C 0.04489 0.25934 0.30200
 C2540 C 0.07560 0.25356 0.28633
 C2541 C 0.10672 0.26262 0.30049
 C2542 C 0.10581 0.28255 0.32734
 C2543 C 0.12547 0.27909 0.35729
 C2544 C 0.09236 0.28500 0.37445
 H2545 H 0.02175 0.24954 0.29196
 H2546 H 0.07501 0.24005 0.26435
 H2547 H 0.14436 0.30000 0.36015
 H2548 H 0.13555 0.25311 0.36110
 H2549 H 0.09222 0.30927 0.38739
 H2550 H 0.08339 0.26243 0.38828
 C2551 C 0.57333 0.72648 0.83722
 C2552 C 0.55888 0.75749 0.84507
 C2553 C 0.57693 0.78755 0.83715
 C2554 C 0.61003 0.78597 0.82512
 C2555 C 0.62521 0.75437 0.82042
 C2556 C 0.60569 0.72501 0.82479
 C2557 C 0.61420 0.69380 0.84336
 C2558 C 0.57867 0.69528 0.85705
 H2559 H 0.56600 0.81221 0.84080
 H2560 H 0.62371 0.80931 0.81953
 H2561 H 0.63464 0.69821 0.86103
 H2562 H 0.61803 0.67160 0.82803
 H2563 H 0.57833 0.70041 0.88273
 H2564 H 0.56229 0.67376 0.84951
 C2565 C 0.58368 0.19994 0.67632
 C2566 C 0.55611 0.22001 0.68488
 C2567 C 0.55598 0.23420 0.71488
 C2568 C 0.58647 0.23673 0.73154
 C2569 C 0.61673 0.22551 0.71758
 C2570 C 0.61406 0.20306 0.69251
 C2571 C 0.63502 0.20040 0.66338
 C2572 C 0.60196 0.19719 0.64544
 H2573 H 0.53456 0.24886 0.72266
 H2574 H 0.58700 0.25206 0.75245
 H2575 H 0.65030 0.17688 0.66331
 H2576 H 0.64929 0.22410 0.65722
 H2577 H 0.59861 0.17194 0.63462
 H2578 H 0.59782 0.21899 0.62907
 C2579 C 0.06121 0.71224 0.18338
 C2580 C 0.06104 0.71206 0.15041
 C2581 C 0.09194 0.70657 0.13476
 C2582 C 0.12266 0.70949 0.15126
 C2583 C 0.12236 0.71798 0.18336
 C2584 C 0.09154 0.71553 0.19951
 C2585 C 0.07679 0.73770 0.22390
 C2586 C 0.04352 0.73453 0.20629
 H2587 H 0.09257 0.70477 0.10934
 H2588 H 0.14627 0.70894 0.13818
 H2589 H 0.08724 0.76401 0.22322
 H2590 H 0.07628 0.72516 0.24753
 H2591 H 0.03535 0.75912 0.19583
 H2592 H 0.02400 0.72053 0.22031
   
