data_POSCAR
  _audit_creation_date              2014-09-24
  _audit_creation_method            'ToBaCCo'
  _symmetry_space_group_name_H-M    'P1'
  _symmetry_Int_Tables_number       1
  _symmetry_cell_setting            triclinic
  loop_
  _symmetry_equiv_pos_as_xyz
 x,y,z
_cell_length_a 55.0820
_cell_length_b 54.9952
_cell_length_c 54.7567
_cell_angle_alpha 89.972300
_cell_angle_beta 89.970000
_cell_angle_gamma 90.020700
loop_
  _atom_site_label
  _atom_site_type_symbol
  _atom_site_fract_x
  _atom_site_fract_y
  _atom_site_fract_z
N1 N 0.36048 1.34602 0.29426
 N2 N 0.34330 1.36257 0.29453
 C3 C 0.34654 1.37773 0.27544
 C4 C 0.36661 1.36992 0.26227
 C5 C 0.37520 1.34998 0.27506
 H6 H 0.33551 1.39354 0.27166
 H7 H 0.39125 1.33944 0.27096
 Cu8 Cu 0.31940 1.36322 0.32077
 Cu9 Cu 0.36302 1.32092 0.31913
 Cu10 Cu 0.32030 1.32165 0.36575
 N11 N 0.29543 1.36362 0.34693
 N12 N 0.29590 1.34735 0.36451
 C13 C 0.27801 1.35219 0.38057
 C14 C 0.26591 1.37294 0.37292
 C15 C 0.27726 1.37944 0.35125
 H16 H 0.27425 1.34160 0.39679
 H17 H 0.27264 1.39457 0.33954
 N18 N 0.34646 1.29718 0.36363
 N19 N 0.36262 1.29699 0.34582
 C20 C 0.37789 1.27821 0.34920
 C21 C 0.37098 1.26581 0.37004
 C22 C 0.35115 1.27850 0.37887
 H23 H 0.39309 1.27402 0.33747
 H24 H 0.34088 1.27427 0.39516
 H25 H 0.32663 1.32027 0.32863
 H26 H 0.34680 1.34043 0.34703
 N27 N 0.36257 0.84653 0.79574
 N28 N 0.34430 0.86187 0.79518
 C29 C 0.34718 0.87702 0.77606
 C30 C 0.36831 0.87070 0.76393
 C31 C 0.37773 0.85144 0.77710
 H32 H 0.33505 0.89180 0.77158
 H33 H 0.39441 0.84178 0.77334
 Cu34 Cu 0.31881 0.86101 0.81974
 Cu35 Cu 0.36531 0.82136 0.82050
 Cu36 Cu 0.32035 0.81932 0.86477
 N37 N 0.29447 0.86039 0.84547
 N38 N 0.29501 0.84393 0.86286
 C39 C 0.27640 0.84784 0.87830
 C40 C 0.26331 0.86768 0.87002
 C41 C 0.27551 0.87538 0.84932
 H42 H 0.27287 0.83731 0.89460
 H43 H 0.27105 0.89096 0.83814
 N44 N 0.34758 0.79611 0.86361
 N45 N 0.36491 0.79717 0.84698
 C46 C 0.38136 0.77967 0.85162
 C47 C 0.37419 0.76712 0.87229
 C48 C 0.35253 0.77781 0.87919
 H49 H 0.39737 0.77625 0.84074
 H50 H 0.34140 0.77273 0.89463
 H51 H 0.32861 0.81851 0.82796
 H52 H 0.34647 0.83998 0.84734
 N53 N 0.86270 1.34566 0.79435
 N54 N 0.84451 1.36113 0.79376
 C55 C 0.84732 1.37603 0.77445
 C56 C 0.86826 1.36936 0.76206
 C57 C 0.87771 1.35022 0.77549
 H58 H 0.83532 1.39093 0.77005
 H59 H 0.89439 1.34051 0.77187
 Cu60 Cu 0.81924 1.36062 0.81865
 Cu61 Cu 0.86568 1.32098 0.81964
 Cu62 Cu 0.82145 1.32015 0.86471
 N63 N 0.79499 1.36042 0.84455
 N64 N 0.79598 1.34460 0.86254
 C65 C 0.77736 1.34865 0.87794
 C66 C 0.76375 1.36784 0.86900
 C67 C 0.77568 1.37503 0.84792
 H68 H 0.77398 1.33852 0.89453
 H69 H 0.77081 1.39004 0.83616
 N70 N 0.84869 1.29693 0.86377
 N71 N 0.86561 1.29737 0.84670
 C72 C 0.88196 1.27976 0.85137
 C73 C 0.87517 1.26783 0.87254
 C74 C 0.85381 1.27896 0.87969
 H75 H 0.89762 1.27581 0.84017
 H76 H 0.84291 1.27430 0.89543
 H77 H 0.82910 1.31835 0.82781
 H78 H 0.84733 1.34028 0.84629
 N79 N 0.86194 0.84656 0.29524
 N80 N 0.84629 0.86447 0.29717
 C81 C 0.85168 0.88163 0.28046
 C82 C 0.87192 0.87410 0.26739
 C83 C 0.87766 0.85154 0.27710
 H84 H 0.84142 0.89816 0.27783
 H85 H 0.89198 0.83947 0.27110
 Cu86 Cu 0.81941 0.86311 0.32024
 Cu87 Cu 0.86058 0.81806 0.31627
 Cu88 Cu 0.81953 0.82025 0.36410
 N89 N 0.79445 0.86195 0.34540
 N90 N 0.79456 0.84515 0.36249
 C91 C 0.77569 0.84881 0.37764
 C92 C 0.76286 0.86884 0.36952
 C93 C 0.77547 0.87691 0.34918
 H94 H 0.77154 0.83773 0.39344
 H95 H 0.77137 0.89280 0.33832
 N96 N 0.84593 0.79625 0.36242
 N97 N 0.86132 0.79514 0.34399
 C98 C 0.87739 0.77717 0.34828
 C99 C 0.87197 0.76659 0.37057
 C100 C 0.85170 0.77894 0.37882
 H101 H 0.89214 0.77228 0.33621
 H102 H 0.84200 0.77562 0.39566
 H103 H 0.82400 0.81936 0.32689
 H104 H 0.84642 0.83826 0.34427
 N105 N 0.63788 0.65453 0.29523
 N106 N 0.65527 0.63818 0.29495
 C107 C 0.65169 0.62307 0.27594
 C108 C 0.63111 0.63052 0.26351
 C109 C 0.62266 0.65036 0.27648
 H110 H 0.66302 0.60762 0.27160
 H111 H 0.60659 0.66094 0.27254
 Cu112 Cu 0.68077 0.63767 0.31956
 Cu113 Cu 0.63652 0.68024 0.31949
 Cu114 Cu 0.68002 0.67917 0.36493
 N115 N 0.70355 0.63638 0.34671
 N116 N 0.70321 0.65264 0.36428
 C117 C 0.72065 0.64732 0.38063
 C118 C 0.73236 0.62638 0.37313
 C119 C 0.72124 0.62012 0.35134
 H120 H 0.72458 0.65792 0.39677
 H121 H 0.72577 0.60486 0.33976
 N122 N 0.65504 0.70457 0.36266
 N123 N 0.63820 0.70480 0.34555
 C124 C 0.62343 0.72396 0.34931
 C125 C 0.63158 0.73657 0.36955
 C126 C 0.65148 0.72358 0.37771
 H127 H 0.60774 0.72837 0.33832
 H128 H 0.66227 0.72750 0.39371
 H129 H 0.67304 0.68060 0.32775
 H130 H 0.65335 0.65993 0.34639
 N131 N 0.63685 0.15361 0.79558
 N132 N 0.65467 0.13778 0.79471
 C133 C 0.65137 0.12311 0.77528
 C134 C 0.63052 0.13043 0.76312
 C135 C 0.62160 0.14959 0.77683
 H136 H 0.66307 0.10807 0.77049
 H137 H 0.60517 0.15980 0.77343
 Cu138 Cu 0.68030 0.13782 0.81920
 Cu139 Cu 0.63491 0.17852 0.82061
 Cu140 Cu 0.67919 0.17833 0.86551
 N141 N 0.70458 0.13752 0.84501
 N142 N 0.70392 0.15311 0.86320
 C143 C 0.72261 0.14859 0.87839
 C144 C 0.73588 0.12935 0.86908
 C145 C 0.72375 0.12264 0.84800
 H146 H 0.72638 0.15859 0.89496
 H147 H 0.72834 0.10781 0.83592
 N148 N 0.65261 0.20239 0.86451
 N149 N 0.63586 0.20235 0.84730
 C150 C 0.62052 0.22097 0.85113
 C151 C 0.62802 0.23357 0.87161
 C152 C 0.64828 0.22111 0.87980
 H153 H 0.60493 0.22499 0.83988
 H154 H 0.65914 0.22559 0.89562
 H155 H 0.67175 0.18028 0.82872
 H156 H 0.65306 0.15872 0.84727
 N157 N 1.13804 0.65431 0.79583
 N158 N 1.15576 0.63833 0.79533
 C159 C 1.15221 0.62301 0.77649
 C160 C 1.13124 0.62990 0.76440
 C161 C 1.12259 0.64966 0.77738
 H162 H 1.16388 0.60785 0.77203
 H163 H 1.10630 0.65994 0.77355
 Cu164 Cu 1.18180 0.63860 0.81931
 Cu165 Cu 1.13665 0.68024 0.81991
 Cu166 Cu 1.18038 0.67960 0.86514
 N167 N 1.20409 0.63692 0.84684
 N168 N 1.20356 0.65303 0.86454
 C169 C 1.22063 0.64741 0.88116
 C170 C 1.23231 0.62643 0.87371
 C171 C 1.22156 0.62046 0.85165
 H172 H 1.22432 0.65782 0.89749
 H173 H 1.22613 0.60525 0.84001
 N174 N 1.15537 0.70493 0.86278
 N175 N 1.13839 0.70499 0.84580
 C176 C 1.12368 0.72421 0.84947
 C177 C 1.13204 0.73703 0.86951
 C178 C 1.15197 0.72409 0.87765
 H179 H 1.10791 0.72853 0.83856
 H180 H 1.16289 0.72811 0.89353
 H181 H 1.17311 0.68122 0.82808
 H182 H 1.15399 0.65991 0.84656
 N183 N 1.13869 0.15500 0.29489
 N184 N 1.15639 0.13899 0.29449
 C185 C 1.15284 0.12360 0.27571
 C186 C 1.13189 0.13054 0.26356
 C187 C 1.12327 0.15036 0.27643
 H188 H 1.16429 0.10820 0.27154
 H189 H 1.10683 0.16046 0.27274
 Cu190 Cu 1.18140 0.13969 0.31947
 Cu191 Cu 1.13645 0.18026 0.31975
 Cu192 Cu 1.18056 0.17977 0.36528
 N193 N 1.20513 0.13782 0.34561
 N194 N 1.20487 0.15389 0.36339
 C195 C 1.22253 0.14843 0.37946
 C196 C 1.23424 0.12760 0.37156
 C197 C 1.22287 0.12151 0.34986
 H198 H 1.22634 0.15863 0.39590
 H199 H 1.22711 0.10625 0.33818
 N200 N 1.15422 0.20416 0.36373
 N201 N 1.13744 0.20418 0.34650
 C202 C 1.12142 0.22207 0.35110
 C203 C 1.12818 0.23369 0.37239
 C204 C 1.14925 0.22210 0.37972
 H205 H 1.10576 0.22619 0.33996
 H206 H 1.15989 0.22621 0.39578
 H207 H 1.17282 0.18215 0.32856
 H208 H 1.15389 0.16081 0.34692
 N209 N 0.63847 1.34534 0.70520
 N210 N 0.65583 1.36174 0.70546
 C211 C 0.65230 1.37675 0.72458
 C212 C 0.63181 1.36912 0.73709
 C213 C 0.62336 1.34933 0.72407
 H214 H 0.66355 1.39226 0.72896
 H215 H 0.60718 1.33885 0.72786
 Cu216 Cu 0.68105 1.36187 0.68056
 Cu217 Cu 0.63616 1.32049 0.68010
 Cu218 Cu 0.68026 1.32090 0.63494
 N219 N 0.70550 1.36213 0.65491
 N220 N 0.70512 1.34601 0.63719
 C221 C 0.72380 1.35031 0.62194
 C222 C 0.73680 1.36998 0.63070
 C223 C 0.72449 1.37721 0.65151
 H224 H 0.72758 1.34001 0.60556
 H225 H 0.72892 1.39247 0.66311
 N226 N 0.65357 1.29700 0.63590
 N227 N 0.63684 1.29686 0.65316
 C228 C 0.62078 1.27902 0.64847
 C229 C 0.62748 1.26757 0.62705
 C230 C 0.64855 1.27921 0.61976
 H231 H 0.60518 1.27475 0.65966
 H232 H 0.65925 1.27513 0.60373
 H233 H 0.67277 1.31917 0.67185
 H234 H 0.65370 1.34020 0.65317
 N235 N 0.63816 0.84536 1.20425
 N236 N 0.65594 0.86130 1.20464
 C237 C 0.65141 0.87783 1.22222
 C238 C 0.62949 0.87203 1.23323
 C239 C 0.62181 0.85112 1.22155
 H240 H 0.66311 0.89299 1.22664
 H241 H 0.60540 0.84097 1.22525
 Cu242 Cu 0.68312 0.85917 1.18193
 Cu243 Cu 0.63670 0.81913 1.18059
 Cu244 Cu 0.68092 0.81856 1.13581
 N245 N 0.70574 0.86050 1.15457
 N246 N 0.70484 0.84451 1.13677
 C247 C 0.72197 0.84987 1.12011
 C248 C 0.73417 0.87053 1.12766
 C249 C 0.72357 0.87661 1.14980
 H250 H 0.72524 0.83956 1.10364
 H251 H 0.72834 0.89179 1.16140
 N252 N 0.65514 0.79387 1.13790
 N253 N 0.63825 0.79413 1.15498
 C254 C 0.62224 0.77617 1.15052
 C255 C 0.62921 0.76422 1.12944
 C256 C 0.65035 0.77570 1.12215
 H257 H 0.60631 0.77243 1.16142
 H258 H 0.66098 0.77155 1.10609
 H259 H 0.67334 0.81677 1.17278
 H260 H 0.65514 0.83883 1.15430
 N261 N 1.13670 1.34595 1.20424
 N262 N 1.15376 1.36264 1.20395
 C263 C 1.14904 1.37916 1.22148
 C264 C 1.12775 1.37254 1.23316
 C265 C 1.12064 1.35118 1.22198
 H266 H 1.16013 1.39490 1.22539
 H267 H 1.10474 1.34045 1.22622
 Cu268 Cu 1.18002 1.36154 1.18025
 Cu269 Cu 1.13536 1.31986 1.18043
 Cu270 Cu 1.18076 1.31840 1.13662
 N271 N 1.20526 1.36054 1.15547
 N272 N 1.20553 1.34363 1.13853
 C273 C 1.22455 1.34747 1.12358
 C274 C 1.23704 1.36775 1.13173
 C275 C 1.22409 1.37575 1.15182
 H276 H 1.22880 1.33656 1.10773
 H277 H 1.22796 1.39169 1.16269
 N278 N 1.15405 1.29452 1.13785
 N279 N 1.13695 1.29500 1.15473
 C280 C 1.12080 1.27722 1.15016
 C281 C 1.12784 1.26514 1.12920
 C282 C 1.14920 1.27636 1.12209
 H283 H 1.10482 1.27357 1.16100
 H284 H 1.16008 1.27189 1.10628
 H285 H 1.17227 1.31843 1.17326
 H286 H 1.15363 1.33848 1.15308
 N287 N 1.13705 0.84688 0.70323
 N288 N 1.15491 0.86271 0.70386
 C289 C 1.15055 0.87892 0.72178
 C290 C 1.12865 0.87306 0.73273
 C291 C 1.12079 0.85242 0.72070
 H292 H 1.16231 0.89395 0.72646
 H293 H 1.10435 0.84228 0.72430
 Cu294 Cu 1.18183 0.86115 0.68084
 Cu295 Cu 1.13559 0.82097 0.67921
 Cu296 Cu 1.18162 0.81870 0.63629
 N297 N 1.20684 0.86008 0.65574
 N298 N 1.20669 0.84350 0.63846
 C299 C 1.22552 0.84743 0.62330
 C300 C 1.23837 0.86738 0.63165
 C301 C 1.22580 0.87514 0.65210
 H302 H 1.22934 0.83687 0.60710
 H303 H 1.22992 0.89088 0.66317
 N304 N 1.15466 0.79520 0.63708
 N305 N 1.13712 0.79611 0.65347
 C306 C 1.12085 0.77850 0.64861
 C307 C 1.12833 0.76606 0.62799
 C308 C 1.15001 0.77692 0.62139
 H309 H 1.10457 0.77513 0.65910
 H310 H 1.16127 0.77211 0.60595
 H311 H 1.17252 0.81847 0.67286
 H312 H 1.15504 0.83964 0.65274
 N313 N 0.36304 0.65259 0.70356
 N314 N 0.34573 0.63614 0.70332
 C315 C 0.34911 0.62068 0.72208
 C316 C 0.36951 0.62798 0.73489
 C317 C 0.37808 0.64810 0.72240
 H318 H 0.33764 0.60521 0.72607
 H319 H 0.39390 0.65885 0.72691
 Cu320 Cu 0.32032 0.63680 0.67870
 Cu321 Cu 0.36458 0.67880 0.67972
 Cu322 Cu 0.31973 0.68006 0.63530
 N323 N 0.29559 0.63736 0.65339
 N324 N 0.29535 0.65442 0.63657
 C325 C 0.27638 0.65071 0.62154
 C326 C 0.26383 0.63041 0.62959
 C327 C 0.27674 0.62222 0.64963
 H328 H 0.27198 0.66195 0.60595
 H329 H 0.27272 0.60635 0.66059
 N330 N 0.34598 0.70430 0.63715
 N331 N 0.36302 0.70380 0.65408
 C332 C 0.37813 0.72273 0.65063
 C333 C 0.37008 0.73593 0.63074
 C334 C 0.34985 0.72356 0.62246
 H335 H 0.39390 0.72663 0.66169
 H336 H 0.33880 0.72833 0.60686
 H337 H 0.32777 0.68006 0.67221
 H338 H 0.34685 0.66035 0.65212
 N339 N 0.36242 0.15358 1.20479
 N340 N 0.34469 0.13758 1.20513
 C341 C 0.34787 0.12254 1.22428
 C342 C 0.36861 0.12964 1.23664
 C343 C 0.37750 0.14921 1.22358
 H344 H 0.33625 0.10730 1.22869
 H345 H 0.39384 0.15939 1.22743
 Cu346 Cu 0.31960 0.13789 1.18014
 Cu347 Cu 0.36493 0.17860 1.17988
 Cu348 Cu 0.32010 0.17973 1.13543
 N349 N 0.29464 0.13843 1.15505
 N350 N 0.29484 0.15499 1.13773
 C351 C 0.27583 0.15123 1.12277
 C352 C 0.26284 0.13141 1.13130
 C353 C 0.27549 0.12357 1.15165
 H354 H 0.27190 0.16191 1.10668
 H355 H 0.27112 0.10802 1.16293
 N356 N 0.34728 0.20308 1.13633
 N357 N 0.36438 0.20250 1.15320
 C358 C 0.38058 0.22024 1.14865
 C359 C 0.37354 0.23244 1.12777
 C360 C 0.35218 0.22129 1.12062
 H361 H 0.39636 0.22408 1.15973
 H362 H 0.34117 0.22606 1.10500
 H363 H 0.32818 0.18058 1.17219
 H364 H 0.34673 0.15978 1.15273
 N365 N 0.86354 0.65267 1.20227
 N366 N 0.84535 0.63727 1.20375
 C367 C 0.85010 0.62101 1.22153
 C368 C 0.87261 0.62638 1.23145
 C369 C 0.88042 0.64678 1.21896
 H370 H 0.83813 0.60635 1.22687
 H371 H 0.89706 0.65676 1.22194
 Cu372 Cu 0.81723 0.63987 1.18234
 Cu373 Cu 0.86425 0.67908 1.17886
 Cu374 Cu 0.81866 0.68013 1.13569
 N375 N 0.79367 0.63899 1.15585
 N376 N 0.79461 0.65436 1.13749
 C377 C 0.77642 0.64947 1.12187
 C378 C 0.76309 0.63023 1.13105
 C379 C 0.77472 0.62386 1.15257
 H380 H 0.77294 0.65929 1.10511
 H381 H 0.76993 0.60918 1.16478
 N382 N 0.84457 0.70470 1.13707
 N383 N 0.86190 0.70435 1.15367
 C384 C 0.87696 0.72323 1.14978
 C385 C 0.86852 0.73630 1.12999
 C386 C 0.84811 0.72387 1.12219
 H387 H 0.89306 0.72712 1.16037
 H388 H 0.83690 0.72831 1.10662
 H389 H 0.82725 0.68194 1.17238
 H390 H 0.84449 0.65938 1.15346
 N391 N 0.86233 0.15556 0.70482
 N392 N 0.84486 0.13928 0.70507
 C393 C 0.84823 0.12423 0.72417
 C394 C 0.86878 0.13164 0.73667
 C395 C 0.87742 0.15141 0.72369
 H396 H 0.83694 0.10869 0.72834
 H397 H 0.89366 0.16179 0.72754
 Cu398 Cu 0.82008 0.13870 0.67978
 Cu399 Cu 0.86485 0.18018 0.67942
 Cu400 Cu 0.82064 0.17979 0.63430
 N401 N 0.79504 0.13909 0.65474
 N402 N 0.79544 0.15508 0.63689
 C403 C 0.77659 0.15090 0.62183
 C404 C 0.76346 0.13142 0.63089
 C405 C 0.77585 0.12424 0.65167
 H406 H 0.77270 0.16118 0.60544
 H407 H 0.77150 0.10904 0.66340
 N408 N 0.84763 0.20335 0.63493
 N409 N 0.86435 0.20357 0.65219
 C410 C 0.88032 0.22150 0.64742
 C411 C 0.87357 0.23288 0.62598
 C412 C 0.85257 0.22113 0.61875
 H413 H 0.89582 0.22599 0.65865
 H414 H 0.84174 0.22531 0.60284
 H415 H 0.82818 0.18146 0.67121
 H416 H 0.84735 0.16063 0.65243
 N417 N 1.34640 0.36293 0.70336
 N418 N 1.36298 0.34575 0.70353
 C419 C 1.37901 0.35044 0.72153
 C420 C 1.37224 0.37185 0.73299
 C421 C 1.35126 0.37905 0.72116
 H422 H 1.39461 0.33931 0.72585
 H423 H 1.34048 0.39500 0.72505
 Cu424 Cu 1.36230 0.31953 0.67953
 Cu425 Cu 1.32068 0.36422 0.67914
 Cu426 Cu 1.31932 0.31831 0.63584
 N427 N 1.36104 0.29360 0.65525
 N428 N 1.34417 0.29329 0.63828
 C429 C 1.34777 0.27404 0.62356
 C430 C 1.36777 0.26127 0.63192
 C431 C 1.37597 0.27449 0.65187
 H432 H 1.33693 0.26988 0.60763
 H433 H 1.39193 0.27075 0.66272
 N434 N 1.29571 0.34523 0.63644
 N435 N 1.29612 0.36255 0.65310
 C436 C 1.27834 0.37862 0.64825
 C437 C 1.26635 0.37129 0.62734
 C438 C 1.27762 0.34986 0.62054
 H439 H 1.27453 0.39469 0.65893
 H440 H 1.27314 0.33870 0.60494
 H441 H 1.31923 0.32721 0.67244
 H442 H 1.33921 0.34569 0.65208
 N443 N 1.34653 0.86153 1.20550
 N444 N 1.36279 0.84405 1.20565
 C445 C 1.37953 0.84893 1.22292
 C446 C 1.37364 0.87091 1.23391
 C447 C 1.35230 0.87807 1.22263
 H448 H 1.39486 0.83738 1.22714
 H449 H 1.34193 0.89435 1.22635
 Cu450 Cu 1.36079 0.81693 1.18281
 Cu451 Cu 1.32013 0.86272 1.18196
 Cu452 Cu 1.32083 0.81932 1.13631
 N453 N 1.36307 0.79492 1.15501
 N454 N 1.34730 0.79588 1.13703
 C455 C 1.35313 0.77908 1.12016
 C456 C 1.37397 0.76713 1.12768
 C457 C 1.37950 0.77740 1.15018
 H458 H 1.34296 0.77582 1.10359
 H459 H 1.39432 0.77245 1.16213
 N460 N 1.29559 0.84458 1.13872
 N461 N 1.29521 0.86099 1.15628
 C462 C 1.27668 0.87645 1.15228
 C463 C 1.26502 0.86967 1.13098
 C464 C 1.27731 0.84919 1.12306
 H465 H 1.27243 0.89199 1.16358
 H466 H 1.27356 0.83880 1.10674
 H467 H 1.31847 0.82625 1.17324
 H468 H 1.34041 0.84522 1.15545
 N469 N 0.84541 0.36244 1.20468
 N470 N 0.86144 0.34473 1.20510
 C471 C 0.87640 0.34802 1.22429
 C472 C 0.86906 0.36865 1.23685
 C473 C 0.84957 0.37752 1.22356
 H474 H 0.89170 0.33648 1.22864
 H475 H 0.83926 0.39386 1.22733
 Cu476 Cu 0.86128 0.31944 1.18030
 Cu477 Cu 0.82056 0.36489 1.17945
 Cu478 Cu 0.82031 0.32009 1.13486
 N479 N 0.86121 0.29457 1.15505
 N480 N 0.84502 0.29488 1.13741
 C481 C 0.84901 0.27597 1.12237
 C482 C 0.86862 0.26289 1.13113
 C483 C 0.87611 0.27542 1.15171
 H484 H 0.83856 0.27208 1.10610
 H485 H 0.89148 0.27103 1.16319
 N486 N 0.79690 0.34714 1.13544
 N487 N 0.79700 0.36420 1.15240
 C488 C 0.77917 0.38024 1.14754
 C489 C 0.76752 0.37315 1.12635
 C490 C 0.77902 0.35192 1.11938
 H491 H 0.77494 0.39600 1.15854
 H492 H 0.77463 0.34083 1.10370
 H493 H 0.81875 0.32817 1.17164
 H494 H 0.83988 0.34683 1.15262
 N495 N 0.84752 0.86354 0.70337
 N496 N 0.86409 0.84637 0.70314
 C497 C 0.88063 0.85107 0.72062
 C498 C 0.87420 0.87247 0.73223
 C499 C 0.85289 0.87968 0.72103
 H500 H 0.89621 0.83982 0.72464
 H501 H 0.84220 0.89559 0.72533
 Cu502 Cu 0.86288 0.81975 0.67980
 Cu503 Cu 0.82087 0.86427 0.68018
 Cu504 Cu 0.81964 0.81918 0.63612
 N505 N 0.86207 0.79504 0.65442
 N506 N 0.84541 0.79501 0.63726
 C507 C 0.84946 0.77620 0.62206
 C508 C 0.86958 0.76358 0.63031
 C509 C 0.87727 0.77625 0.65072
 H510 H 0.83863 0.77199 0.60615
 H511 H 0.89297 0.77220 0.66184
 N512 N 0.79509 0.84516 0.63808
 N513 N 0.79539 0.86209 0.65514
 C514 C 0.77638 0.87709 0.65175
 C515 C 0.76331 0.86911 0.63176
 C516 C 0.77587 0.84900 0.62336
 H517 H 0.77253 0.89294 0.66276
 H518 H 0.77136 0.83812 0.60755
 H519 H 0.81974 0.82729 0.67292
 H520 H 0.83966 0.84626 0.65284
 N521 N 0.65541 0.63657 0.70428
 N522 N 0.64014 0.65487 0.70557
 C523 C 0.62529 0.65152 0.72479
 C524 C 0.63170 0.63006 0.73632
 C525 C 0.65076 0.62094 0.72264
 H526 H 0.61056 0.66353 0.72969
 H527 H 0.66038 0.60410 0.72579
 Cu528 Cu 0.64034 0.68106 0.68173
 Cu529 Cu 0.67981 0.63435 0.67871
 Cu530 Cu 0.67955 0.67943 0.63448
 N531 N 0.63995 0.70553 0.65611
 N532 N 0.65508 0.70476 0.63757
 C533 C 0.65028 0.72343 0.62240
 C534 C 0.63128 0.73678 0.63209
 C535 C 0.62506 0.72473 0.65339
 H536 H 0.65976 0.72703 0.60548
 H537 H 0.61041 0.72926 0.66570
 N538 N 0.70293 0.65233 0.63452
 N539 N 0.70308 0.63522 0.65142
 C540 C 0.72096 0.61931 0.64638
 C541 C 0.73240 0.62652 0.62509
 C542 C 0.72070 0.64771 0.61826
 H543 H 0.72541 0.60359 0.65736
 H544 H 0.72493 0.65894 0.60262
 H545 H 0.68225 0.67117 0.67128
 H546 H 0.65974 0.65330 0.65308
 N547 N 0.65418 1.13652 1.20423
 N548 N 0.63750 1.15359 1.20436
 C549 C 0.62270 1.15011 1.22363
 C550 C 0.63067 1.12990 1.23646
 C551 C 0.65048 1.12152 1.22333
 H552 H 0.60706 1.16121 1.22785
 H553 H 0.66131 1.10561 1.22732
 Cu554 Cu 0.63667 1.17853 1.17922
 Cu555 Cu 0.67950 1.13506 1.17940
 Cu556 Cu 0.67865 1.17982 1.13463
 N557 N 0.63660 1.20372 1.15432
 N558 N 0.65280 1.20393 1.13670
 C559 C 0.64835 1.22291 1.12180
 C560 C 0.62854 1.23552 1.13079
 C561 C 0.62146 1.22270 1.15136
 H562 H 0.65878 1.22734 1.10566
 H563 H 0.60618 1.22671 1.16305
 N564 N 0.70328 1.15383 1.13581
 N565 N 0.70353 1.13675 1.15276
 C566 C 0.72248 1.12184 1.14864
 C567 C 0.73498 1.13010 1.12837
 C568 C 0.72212 1.15025 1.12054
 H569 H 0.72695 1.10608 1.15956
 H570 H 0.72616 1.16137 1.10477
 H571 H 0.67980 1.17187 1.17151
 H572 H 0.66002 1.15222 1.15210
 N573 N 0.15393 0.63670 1.20379
 N574 N 0.13715 0.65368 1.20403
 C575 C 0.12031 0.64798 1.22094
 C576 C 0.12674 0.62606 1.23171
 C577 C 0.14848 0.61971 1.22061
 H578 H 0.10491 0.65928 1.22557
 H579 H 0.15979 0.60418 1.22476
 Cu580 Cu 0.13988 0.68260 1.18365
 Cu581 Cu 0.18211 0.63848 1.18246
 Cu582 Cu 0.17784 0.68045 1.13534
 N583 N 0.13871 0.70676 1.15768
 N584 N 0.15317 0.70557 1.13863
 C585 C 0.14808 0.72407 1.12336
 C586 C 0.12954 0.73782 1.13346
 C587 C 0.12389 0.72608 1.15521
 H588 H 0.15717 0.72737 1.10616
 H589 H 0.10976 0.73082 1.16805
 N590 N 0.20176 0.65383 1.13560
 N591 N 0.20395 0.63845 1.15397
 C592 C 0.22219 0.62289 1.14910
 C593 C 0.23174 0.62851 1.12642
 C594 C 0.21851 0.64841 1.11852
 H595 H 0.22795 0.60832 1.16104
 H596 H 0.22119 0.65849 1.10179
 H597 H 0.18244 0.67511 1.17215
 H598 H 0.16047 0.65433 1.15669
 N599 N 0.15259 1.13550 0.70280
 N600 N 0.13630 1.15293 0.70372
 C601 C 0.12031 1.14784 0.72167
 C602 C 0.12674 1.12582 0.73226
 C603 C 0.14759 1.11879 0.72003
 H604 H 0.10509 1.15921 0.72666
 H605 H 0.15841 1.10276 0.72346
 Cu606 Cu 0.13725 1.18036 0.68109
 Cu607 Cu 0.17877 1.13534 0.67912
 Cu608 Cu 0.17939 1.18129 0.63611
 N609 N 0.13750 1.20540 0.65581
 N610 N 0.15366 1.20539 0.63813
 C611 C 0.14933 1.22426 0.62309
 C612 C 0.12963 1.23715 0.63199
 C613 C 0.12236 1.22439 0.65262
 H614 H 0.15971 1.22835 0.60683
 H615 H 0.10699 1.22839 0.66421
 N616 N 0.20400 1.15534 0.63711
 N617 N 0.20386 1.13801 0.65376
 C618 C 0.22278 1.12306 0.64979
 C619 C 0.23567 1.13149 0.62985
 C620 C 0.22307 1.15183 0.62206
 H621 H 0.22672 1.10694 0.66036
 H622 H 0.22742 1.16306 0.60645
 H623 H 0.18008 1.17249 0.67274
 H624 H 0.15931 1.15424 0.65283
 N625 N 1.34601 0.63782 0.29613
 N626 N 1.36261 0.65498 0.29608
 C627 C 1.37887 0.65023 0.27833
 C628 C 1.37221 0.62881 0.26686
 C629 C 1.35107 0.62166 0.27843
 H630 H 1.39452 0.66136 0.27416
 H631 H 1.34039 0.60564 0.27448
 Cu632 Cu 1.36186 0.68137 0.31974
 Cu633 Cu 1.32019 0.63660 0.32023
 Cu634 Cu 1.31957 0.68171 0.36433
 N635 N 1.36135 0.70635 0.34489
 N636 N 1.34488 0.70639 0.36227
 C637 C 1.34904 0.72529 0.37732
 C638 C 1.36899 0.73807 0.36870
 C639 C 1.37655 0.72522 0.34831
 H640 H 1.33853 0.72930 0.39352
 H641 H 1.39223 0.72910 0.33707
 N642 N 1.29549 0.65516 0.36323
 N643 N 1.29559 0.63824 0.34616
 C644 C 1.27765 0.62226 0.35073
 C645 C 1.26586 0.62920 0.37188
 C646 C 1.27743 0.65034 0.37914
 H647 H 1.27369 0.60643 0.33974
 H648 H 1.27323 0.66112 0.39509
 H649 H 1.31896 0.67352 0.32764
 H650 H 1.33940 0.65471 0.34726
 N651 N 1.34630 1.13662 0.79652
 N652 N 1.36333 1.15336 0.79672
 C653 C 1.37966 1.14829 0.77913
 C654 C 1.37263 1.12709 0.76749
 C655 C 1.35118 1.12039 0.77879
 H656 H 1.39552 1.15916 0.77509
 H657 H 1.33999 1.10483 0.77444
 Cu658 Cu 1.36318 1.17992 0.82022
 Cu659 Cu 1.31941 1.13685 0.81949
 Cu660 Cu 1.31920 1.18211 0.86324
 N661 N 1.36352 1.20382 0.84644
 N662 N 1.34620 1.20484 0.86292
 C663 C 1.35121 1.22276 0.87888
 C664 C 1.37307 1.23328 0.87234
 C665 C 1.38022 1.22099 0.85147
 H666 H 1.33997 1.22761 0.89432
 H667 H 1.39640 1.22429 0.84078
 N668 N 1.29347 1.15744 0.86074
 N669 N 1.29367 1.14001 0.84421
 C670 C 1.27443 1.12536 0.84796
 C671 C 1.26130 1.13416 0.86758
 C672 C 1.27407 1.15436 0.87541
 H673 H 1.27049 1.10910 0.83760
 H674 H 1.26993 1.16550 0.89112
 H675 H 1.31965 1.17383 0.82634
 H676 H 1.33863 1.15431 0.84684
 N677 N 0.84568 0.63790 0.79543
 N678 N 0.86108 0.65612 0.79416
 C679 C 0.87733 0.65157 0.77634
 C680 C 0.87197 0.62913 0.76616
 C681 C 0.85158 0.62117 0.77855
 H682 H 0.89206 0.66355 0.77127
 H683 H 0.84181 0.60438 0.77558
 Cu684 Cu 0.85875 0.68369 0.81631
 Cu685 Cu 0.81973 0.63659 0.81944
 Cu686 Cu 0.81988 0.68124 0.86384
 N687 N 0.86115 0.70616 0.84365
 N688 N 0.84581 0.70522 0.86202
 C689 C 0.85175 0.72237 0.87846
 C690 C 0.87213 0.73456 0.87019
 C691 C 0.87743 0.72397 0.84785
 H692 H 0.84206 0.72563 0.89533
 H693 H 0.89214 0.72876 0.83567
 N694 N 0.79522 0.65531 0.86246
 N695 N 0.79508 0.63839 0.84539
 C696 C 0.77700 0.62259 0.85007
 C697 C 0.76543 0.62965 0.87133
 C698 C 0.77725 0.65067 0.87849
 H699 H 0.77288 0.60672 0.83919
 H700 H 0.77335 0.66147 0.89450
 H701 H 0.81691 0.67338 0.82702
 H702 H 0.83985 0.65568 0.84489
 N703 N 0.84539 1.13622 0.29615
 N704 N 0.86176 1.15359 0.29565
 C705 C 0.87789 1.14875 0.27778
 C706 C 0.87139 1.12703 0.26677
 C707 C 0.85049 1.11980 0.27870
 H708 H 0.89337 1.15997 0.27326
 H709 H 0.83991 1.10363 0.27512
 Cu710 Cu 0.86094 1.18035 0.31893
 Cu711 Cu 0.81960 1.13518 0.32027
 Cu712 Cu 0.81880 1.18084 0.36369
 N713 N 0.86043 1.20550 0.34398
 N714 N 0.84396 1.20553 0.36135
 C715 C 0.84804 1.22443 0.37638
 C716 C 0.86797 1.23716 0.36785
 C717 C 0.87558 1.22444 0.34742
 H718 H 0.83750 1.22844 0.39255
 H719 H 0.89119 1.22852 0.33617
 N720 N 0.79484 1.15428 0.36297
 N721 N 0.79500 1.13707 0.34620
 C722 C 0.77712 1.12111 0.35107
 C723 C 0.76534 1.12840 0.37211
 C724 C 0.77682 1.14969 0.37897
 H725 H 0.77320 1.10508 0.34037
 H726 H 0.77259 1.16074 0.39473
 H727 H 0.81811 1.17218 0.32706
 H728 H 0.83882 1.15382 0.34685
 N729 N 0.65574 0.36101 0.29375
 N730 N 0.63935 0.34363 0.29358
 C731 C 0.62439 0.34703 0.27442
 C732 C 0.63204 0.36745 0.26166
 C733 C 0.65177 0.37604 0.27476
 H734 H 0.60873 0.33586 0.27041
 H735 H 0.66216 0.39231 0.27099
 Cu736 Cu 0.63845 0.31873 0.31892
 Cu737 Cu 0.68046 0.36340 0.31897
 Cu738 Cu 0.67882 0.32046 0.36520
 N739 N 0.63715 0.29563 0.34591
 N740 N 0.65311 0.29625 0.36373
 C741 C 0.64781 0.27874 0.38006
 C742 C 0.62708 0.26670 0.37235
 C743 C 0.62107 0.27767 0.35035
 H744 H 0.65816 0.27516 0.39644
 H745 H 0.60604 0.27299 0.33856
 N746 N 0.70339 0.34643 0.36361
 N747 N 0.70395 0.36286 0.34605
 C748 C 0.72206 0.37868 0.35060
 C749 C 0.73320 0.37212 0.37225
 C750 C 0.72111 0.35138 0.37980
 H751 H 0.72668 0.39405 0.33920
 H752 H 0.72482 0.34085 0.39604
 H753 H 0.68114 0.32687 0.32800
 H754 H 0.66000 0.34666 0.34583
 N755 N 0.65294 0.86346 0.79691
 N756 N 0.63710 0.84562 0.79583
 C757 C 0.62059 0.85073 0.77842
 C758 C 0.62624 0.87315 0.76833
 C759 C 0.64708 0.88049 0.78031
 H760 H 0.60561 0.83903 0.77342
 H761 H 0.65735 0.89693 0.77705
 Cu762 Cu 0.63947 0.81760 0.81743
 Cu763 Cu 0.67990 0.86347 0.81971
 Cu764 Cu 0.68017 0.81826 0.86350
 N765 N 0.63715 0.79521 0.84486
 N766 N 0.65312 0.79546 0.86269
 C767 C 0.64722 0.77826 0.87913
 C768 C 0.62620 0.76681 0.87143
 C769 C 0.62050 0.77784 0.84941
 H770 H 0.65746 0.77430 0.89549
 H771 H 0.60544 0.77346 0.83753
 N772 N 0.70582 0.84314 0.86108
 N773 N 0.70564 0.86041 0.84434
 C774 C 0.72491 0.87504 0.84779
 C775 C 0.73808 0.86642 0.86744
 C776 C 0.72528 0.84635 0.87562
 H777 H 0.72886 0.89113 0.83717
 H778 H 0.72956 0.83528 0.89136
 H779 H 0.68189 0.82642 0.82678
 H780 H 0.66013 0.84452 0.84576
 N781 N 0.15383 0.36142 0.79617
 N782 N 0.13799 0.34356 0.79545
 C783 C 0.12273 0.34725 0.77661
 C784 C 0.12950 0.36848 0.76477
 C785 C 0.14914 0.37711 0.77790
 H786 H 0.10771 0.33548 0.77199
 H787 H 0.15935 0.39351 0.77424
 Cu788 Cu 0.13859 0.31714 0.81913
 Cu789 Cu 0.17978 0.36256 0.82014
 Cu790 Cu 0.17882 0.31873 0.86551
 N791 N 0.13602 0.29533 0.84707
 N792 N 0.15195 0.29582 0.86490
 C793 C 0.14607 0.27883 0.88158
 C794 C 0.12498 0.26731 0.87408
 C795 C 0.11937 0.27801 0.85183
 H796 H 0.15642 0.27505 0.89791
 H797 H 0.10442 0.27336 0.83992
 N798 N 0.20441 0.34361 0.86304
 N799 N 0.20458 0.36054 0.84596
 C800 C 0.22384 0.37519 0.84952
 C801 C 0.23659 0.36691 0.86961
 C802 C 0.22357 0.34705 0.87791
 H803 H 0.22815 0.39097 0.83856
 H804 H 0.22757 0.33623 0.89389
 H805 H 0.18115 0.32592 0.82837
 H806 H 0.15957 0.34494 0.84655
 N807 N 0.15366 0.86145 0.29626
 N808 N 0.13835 0.84314 0.29530
 C809 C 0.12306 0.84652 0.27644
 C810 C 0.12922 0.86807 0.26486
 C811 C 0.14855 0.87716 0.27814
 H812 H 0.10844 0.83431 0.27167
 H813 H 0.15832 0.89386 0.27461
 Cu814 Cu 0.13965 0.81650 0.31862
 Cu815 Cu 0.17974 0.86288 0.32010
 Cu816 Cu 0.17893 0.81952 0.36576
 N817 N 0.13673 0.79533 0.34691
 N818 N 0.15211 0.79653 0.36520
 C819 C 0.14608 0.77975 0.38203
 C820 C 0.12551 0.76759 0.37409
 C821 C 0.12035 0.77772 0.35148
 H822 H 0.15615 0.77641 0.39864
 H823 H 0.10588 0.77249 0.33920
 N824 N 0.20449 0.84443 0.36310
 N825 N 0.20464 0.86113 0.34579
 C826 C 0.22394 0.87580 0.34910
 C827 C 0.23672 0.86779 0.36929
 C828 C 0.22369 0.84805 0.37788
 H829 H 0.22827 0.89137 0.33786
 H830 H 0.22778 0.83734 0.39392
 H831 H 0.18172 0.82622 0.32861
 H832 H 0.15929 0.84492 0.34620
 O833 O 0.97795 0.91233 0.87859
 O834 O 0.97834 0.88406 0.85006
 C835 C 0.96976 0.90369 0.85872
 C836 C 0.94951 0.91611 0.84601
 C837 C 0.93991 0.90644 0.82433
 H838 H 0.94772 0.88997 0.81694
 O839 O 1.02466 1.08664 0.87791
 O840 O 1.02474 1.11477 0.84921
 C841 C 1.03319 1.09519 0.85813
 C842 C 1.05371 1.08273 0.84586
 C843 C 1.06348 1.09214 0.82413
 H844 H 1.05562 1.10841 0.81634
 O845 O 0.87908 0.97516 0.91101
 O846 O 0.85113 0.97501 0.88221
 C847 C 0.85966 0.96652 0.90198
 C848 C 0.84760 0.94560 0.91398
 C849 C 0.82734 0.93441 0.90314
 H850 H 0.81941 0.94246 0.88699
 O851 O 1.12262 1.02410 0.91317
 O852 O 1.15117 1.02412 0.88494
 C853 C 1.14218 1.03275 0.90446
 C854 C 1.15381 1.05391 0.91645
 C855 C 1.17388 1.06542 0.90559
 H856 H 1.18206 1.05743 0.88951
 O857 O 0.91288 0.87840 0.97534
 O858 O 0.88486 0.84976 0.97518
 C859 C 0.90451 0.85861 0.96683
 C860 C 0.91732 0.84627 0.94648
 C861 C 0.90777 0.82494 0.93611
 H862 H 0.89115 0.81738 0.94344
 O863 O 1.08723 1.12145 0.97633
 O864 O 1.11518 1.15017 0.97663
 C865 C 1.09571 1.14127 0.96797
 C866 C 1.08323 1.15360 0.94741
 C867 C 1.09237 1.17545 0.93774
 H868 H 1.10849 1.18341 0.94572
 O869 O 0.91264 1.02296 0.87820
 O870 O 0.88456 1.02284 0.84951
 C871 C 0.90408 1.03139 0.85839
 C872 C 0.91620 1.05213 0.84618
 C873 C 0.90543 1.06310 0.82572
 H874 H 0.88948 1.05482 0.81778
 O875 O 1.08977 0.97633 0.87977
 O876 O 1.11830 0.97629 0.85150
 C877 C 1.09851 0.96796 0.86002
 C878 C 1.08590 0.94788 0.84721
 C879 C 1.09547 0.93829 0.82547
 H880 H 1.11205 0.94590 0.81816
 O881 O 1.02531 0.87921 0.91238
 O882 O 1.02580 0.85103 0.88375
 C883 C 1.03400 0.85968 0.90362
 C884 C 1.05458 0.84750 0.91604
 C885 C 1.06570 0.82712 0.90538
 H886 H 1.05796 0.81932 0.88900
 O887 O 0.97704 1.12018 0.91090
 O888 O 0.97727 1.14844 0.88231
 C889 C 0.96883 1.13994 0.90216
 C890 C 0.94881 1.15279 0.91483
 C891 C 0.93931 1.17449 0.90523
 H892 H 0.94694 1.18173 0.88855
 O893 O 0.87966 1.08808 0.97475
 O894 O 0.85158 1.11664 0.97432
 C895 C 0.86021 1.09689 0.96597
 C896 C 0.84808 1.08454 0.94521
 C897 C 0.82748 1.09488 0.93419
 H898 H 0.81958 1.11114 0.94198
 O899 O 1.12148 0.91193 0.97797
 O900 O 1.14960 0.88339 0.97809
 C901 C 1.14107 0.90310 0.96951
 C902 C 1.15344 0.91521 0.94871
 C903 C 1.17392 0.90441 0.93794
 H904 H 1.18173 0.88845 0.94637
 O905 O 0.97700 1.08679 0.87765
 O906 O 0.97707 1.11506 0.84907
 C907 C 0.96848 1.09551 0.85794
 C908 C 0.94760 1.08347 0.84591
 C909 C 0.93645 1.09424 0.82552
 H910 H 0.94442 1.11037 0.81752
 O911 O 1.02547 0.91248 0.87892
 O912 O 1.02579 0.88428 0.85031
 C913 C 1.03406 0.90397 0.85915
 C914 C 1.05438 0.91665 0.84676
 C915 C 1.06424 0.90733 0.82502
 H916 H 1.05659 0.89095 0.81725
 O917 O 1.12269 0.97631 0.91346
 O918 O 1.15125 0.97618 0.88525
 C919 C 1.14230 0.96766 0.90488
 C920 C 1.15410 0.94670 0.91718
 C921 C 1.17453 0.93551 0.90666
 H922 H 1.18272 0.94351 0.89059
 O923 O 0.87940 1.02289 0.91153
 O924 O 0.85137 1.02277 0.88280
 C925 C 0.85992 1.03140 0.90254
 C926 C 0.84783 1.05238 0.91443
 C927 C 0.82715 1.06292 0.90382
 H928 H 0.81893 1.05409 0.88826
 O929 O 0.91317 1.12115 0.97532
 O930 O 0.88511 1.14973 0.97507
 C931 C 0.90480 1.14094 0.96681
 C932 C 0.91760 1.15335 0.94651
 C933 C 0.90839 1.17505 0.93663
 H934 H 0.89206 1.18285 0.94433
 O935 O 1.08832 0.87867 0.97793
 O936 O 1.11645 0.85015 0.97818
 C937 C 1.09702 0.85902 0.96943
 C938 C 1.08520 0.84709 0.94828
 C939 C 1.09596 0.82666 0.93737
 H940 H 1.11159 0.81847 0.94600
 O941 O 1.08977 1.02374 0.87941
 O942 O 1.11829 1.02370 0.85114
 C943 C 1.09846 1.03202 0.85956
 C944 C 1.08569 1.05196 0.84657
 C945 C 1.09515 1.06164 0.82477
 H946 H 1.11181 1.05420 0.81743
 O947 O 0.91310 0.97548 0.87840
 O948 O 0.88516 0.97539 0.84957
 C949 C 0.90481 0.96712 0.85846
 C950 C 0.91773 0.94706 0.84591
 C951 C 0.90842 0.93711 0.82423
 H952 H 0.89186 0.94448 0.81661
 O953 O 1.02437 1.12017 0.91110
 O954 O 1.02455 1.14835 0.88244
 C955 C 1.03271 1.13991 0.90241
 C956 C 1.05250 1.15283 0.91531
 C957 C 1.06191 1.17465 0.90591
 H958 H 1.05442 1.18191 0.88917
 O959 O 0.97776 0.87889 0.91189
 O960 O 0.97824 0.85061 0.88337
 C961 C 0.96955 0.85917 0.90307
 C962 C 0.94912 0.84653 0.91535
 C963 C 0.93927 0.82520 0.90527
 H964 H 0.94701 0.81804 0.88862
 O965 O 1.12079 1.08854 0.97675
 O966 O 1.14873 1.11726 0.97701
 C967 C 1.14036 1.09752 0.96840
 C968 C 1.15284 1.08559 0.94766
 C969 C 1.17294 1.09678 0.93655
 H970 H 1.18044 1.11302 0.94471
 O971 O 0.87929 0.91126 0.97504
 O972 O 0.85127 0.88260 0.97491
 C973 C 0.85983 0.90231 0.96643
 C974 C 0.84770 0.91429 0.94554
 C975 C 0.82738 0.90346 0.93455
 H976 H 0.81944 0.88748 0.94286
 Cu977 Cu 1.00158 0.89855 0.89831
 Cu978 Cu 1.00207 0.86465 0.86404
 Cu979 Cu 1.00077 1.10056 0.89720
 Cu980 Cu 1.00096 1.13442 0.86282
 Cu981 Cu 0.89881 0.99909 0.89771
 Cu982 Cu 0.86521 0.99898 0.86318
 Cu983 Cu 1.10343 1.00013 0.89934
 Cu984 Cu 1.13770 1.00005 0.86547
 C985 C 0.93854 0.93668 0.85643
 H986 H 0.94560 0.94401 0.87335
 C987 C 0.91974 0.91718 0.81280
 C988 C 1.06472 1.06240 0.85672
 H989 H 1.05751 1.05530 0.87370
 C990 C 1.08380 1.08135 0.81291
 C991 C 0.85765 0.93536 0.93515
 H992 H 0.87368 0.94347 0.94322
 C993 C 0.81770 0.91264 0.91264
 C994 C 1.14340 1.06417 0.93746
 H995 H 1.12750 1.05582 0.94555
 C996 C 1.18292 1.08755 0.91477
 C997 C 0.93823 0.85671 0.93617
 H998 H 0.94546 0.87338 0.94377
 C999 C 0.91893 0.81379 0.91585
 C1000 C 1.06303 1.14268 0.93630
 H1001 H 1.05609 1.12566 0.94342
 C1002 C 1.08142 1.18662 0.91736
 C1003 C 0.93731 1.06243 0.85613
 H1004 H 0.94539 1.05439 0.87226
 C1005 C 0.91466 1.08488 0.81592
 C1006 C 1.06511 0.93719 0.85749
 H1007 H 1.05787 0.94426 0.87445
 C1008 C 1.08440 0.91840 0.81374
 C1009 C 1.06449 0.85739 0.93748
 H1010 H 1.05642 0.87350 0.94546
 C1011 C 1.08710 0.81718 0.91522
 C1012 C 0.93808 1.14260 0.93572
 H1013 H 0.94507 1.12567 0.94300
 C1014 C 0.91953 1.18628 0.91641
 C1015 C 0.85813 1.06331 0.93516
 H1016 H 0.87438 1.05558 0.94314
 C1017 C 0.81740 1.08483 0.91283
 C1018 C 1.14367 0.93636 0.93819
 H1019 H 1.12753 0.94445 0.94604
 C1020 C 1.18396 0.91367 0.91619
 O1021 O 1.02257 0.91263 1.12205
 O1022 O 1.02225 0.88436 1.15063
 C1023 C 1.03094 0.90390 1.14180
 C1024 C 1.05188 0.91574 1.15392
 C1025 C 1.06240 0.90505 1.17465
 H1026 H 1.05353 0.88960 1.18297
 O1027 O 0.97586 1.08654 1.12181
 O1028 O 0.97575 1.11462 1.15053
 C1029 C 0.96741 1.09498 1.14165
 C1030 C 0.94706 1.08235 1.15402
 C1031 C 0.93717 1.09184 1.17564
 H1032 H 0.94488 1.10824 1.18330
 O1033 O 0.87801 1.02382 1.08691
 O1034 O 0.84944 1.02396 1.11513
 C1035 C 0.85841 1.03247 1.09553
 C1036 C 0.84655 1.05335 1.08324
 C1037 C 0.82595 1.06436 1.09359
 H1038 H 0.81774 1.05631 1.10963
 O1039 O 1.12181 0.97602 1.08882
 O1040 O 1.14993 0.97638 1.11745
 C1041 C 1.14152 0.96786 1.09765
 C1042 C 1.15419 0.94754 1.08531
 C1043 C 1.17536 0.93743 1.09541
 H1044 H 1.18267 0.94511 1.11204
 O1045 O 1.08816 0.87876 1.02591
 O1046 O 1.11635 0.85032 1.02621
 C1047 C 1.09677 0.85917 1.03466
 C1048 C 1.08443 0.84722 1.05557
 C1049 C 1.09486 0.82683 1.06702
 H1050 H 1.11119 0.81890 1.05945
 O1051 O 0.91239 1.12090 1.02324
 O1052 O 0.88422 1.14937 1.02299
 C1053 C 0.90359 1.14045 1.03186
 C1054 C 0.91528 1.15223 1.05321
 C1055 C 0.90454 1.17265 1.06423
 H1056 H 0.88879 1.18084 1.05579
 O1057 O 0.91057 0.97585 1.12043
 O1058 O 0.88196 0.97593 1.14862
 C1059 C 0.90171 0.96747 1.14015
 C1060 C 0.91414 0.94730 1.15301
 C1061 C 0.90431 0.93758 1.17458
 H1062 H 0.88757 0.94509 1.18158
 O1063 O 1.08729 1.02290 1.12187
 O1064 O 1.11531 1.02292 1.15061
 C1065 C 1.09571 1.03128 1.14175
 C1066 C 1.08345 1.05189 1.15401
 C1067 C 1.09395 1.06241 1.17479
 H1068 H 1.10941 1.05359 1.18308
 O1069 O 0.97542 0.87909 1.08845
 O1070 O 0.97500 0.85095 1.11715
 C1071 C 0.96685 0.85950 1.09722
 C1072 C 0.94645 0.84716 1.08470
 C1073 C 0.93552 0.82658 1.09520
 H1074 H 0.94338 0.81870 1.11148
 O1075 O 1.02287 1.12061 1.08851
 O1076 O 1.02255 1.14890 1.11703
 C1077 C 1.03098 1.14043 1.09718
 C1078 C 1.05100 1.15328 1.08449
 C1079 C 1.06084 1.17472 1.09432
 H1080 H 1.05333 1.18193 1.11107
 O1081 O 0.87897 0.91153 1.02280
 O1082 O 0.85087 0.88297 1.02267
 C1083 C 0.85928 0.90278 1.03112
 C1084 C 0.84649 0.91538 1.05134
 C1085 C 0.82514 0.90553 1.06137
 H1086 H 0.81804 0.88873 1.05398
 O1087 O 1.11998 1.08839 1.02461
 O1088 O 1.14798 1.11705 1.02489
 C1089 C 1.13937 1.09732 1.03337
 C1090 C 1.15144 1.08528 1.05434
 C1091 C 1.17189 1.09598 1.06524
 H1092 H 1.17980 1.11196 1.05691
 O1093 O 1.02343 1.08733 1.12199
 O1094 O 1.02336 1.11560 1.15053
 C1095 C 1.03195 1.09606 1.14170
 C1096 C 1.05269 1.08385 1.15386
 C1097 C 1.06383 1.09439 1.17441
 H1098 H 1.05622 1.11077 1.18225
 O1099 O 0.97496 0.91232 1.12196
 O1100 O 0.97470 0.88418 1.15064
 C1101 C 0.96635 0.90378 1.14172
 C1102 C 0.94583 0.91630 1.15392
 C1103 C 0.93581 0.90693 1.17560
 H1104 H 0.94358 0.89072 1.18361
 O1105 O 1.12069 1.02369 1.08874
 O1106 O 1.14870 1.02406 1.11750
 C1107 C 1.14000 1.03257 1.09776
 C1108 C 1.15179 1.05372 1.08579
 C1109 C 1.17221 1.06480 1.09643
 H1110 H 1.18033 1.05663 1.11244
 O1111 O 0.87784 0.97610 1.08658
 O1112 O 0.84920 0.97619 1.11472
 C1113 C 0.85808 0.96768 1.09507
 C1114 C 0.84584 0.94719 1.08249
 C1115 C 0.82450 0.93705 1.09220
 H1116 H 0.81689 0.94469 1.10872
 O1117 O 1.08664 1.12149 1.02408
 O1118 O 1.11466 1.15014 1.02432
 C1119 C 1.09500 1.14129 1.03258
 C1120 C 1.08226 1.15366 1.05289
 C1121 C 1.09186 1.17505 1.06302
 H1122 H 1.10841 1.18256 1.05551
 O1123 O 0.91246 0.87852 1.02312
 O1124 O 0.88436 0.84995 1.02297
 C1125 C 0.90384 0.85883 1.03160
 C1126 C 0.91581 0.84679 1.05254
 C1127 C 0.90526 0.82613 1.06322
 H1128 H 0.88965 0.81788 1.05458
 O1129 O 1.08796 0.97537 1.12164
 O1130 O 1.11609 0.97538 1.15028
 C1131 C 1.09656 0.96683 1.14138
 C1132 C 1.08420 0.94616 1.15355
 C1133 C 1.09460 0.93499 1.17415
 H1134 H 1.11094 0.94260 1.18200
 O1135 O 0.91102 1.02329 1.12059
 O1136 O 0.88248 1.02336 1.14883
 C1137 C 0.90236 1.03158 1.14042
 C1138 C 0.91518 1.05147 1.15339
 C1139 C 0.90562 1.06121 1.17509
 H1140 H 0.88893 1.05380 1.18240
 O1141 O 0.97543 1.12010 1.08874
 O1142 O 0.97507 1.14820 1.11745
 C1143 C 0.96672 1.13957 1.09763
 C1144 C 0.94601 1.15171 1.08538
 C1145 C 0.93498 1.17212 1.09608
 H1146 H 0.94293 1.17993 1.11235
 O1147 O 1.02293 0.87911 1.08908
 O1148 O 1.02250 0.85088 1.11770
 C1149 C 1.03130 0.85953 1.09807
 C1150 C 1.05231 0.84736 1.08636
 C1151 C 1.06288 0.82688 1.09735
 H1152 H 1.05405 0.81887 1.11303
 O1153 O 1.12176 0.91172 1.02565
 O1154 O 1.14994 0.88326 1.02579
 C1155 C 1.14142 0.90305 1.03409
 C1156 C 1.15400 0.91570 1.05431
 C1157 C 1.17509 0.90578 1.06470
 H1158 H 1.18227 0.88894 1.05749
 O1159 O 0.87911 1.08786 1.02253
 O1160 O 0.85096 1.11635 1.02216
 C1161 C 0.85945 1.09668 1.03082
 C1162 C 0.84703 1.08463 1.05156
 C1163 C 0.82640 1.09530 1.06216
 H1164 H 0.81851 1.11116 1.05363
 Cu1165 Cu 0.99893 0.89862 1.10253
 Cu1166 Cu 0.99855 0.86477 1.13690
 Cu1167 Cu 0.99946 1.10081 1.10243
 Cu1168 Cu 0.99917 1.13464 1.13677
 Cu1169 Cu 0.89871 0.89779 0.99909
 Cu1170 Cu 0.86504 0.86344 0.99893
 Cu1171 Cu 1.10207 0.89807 1.00191
 Cu1172 Cu 1.13586 0.86388 1.00209
 Cu1173 Cu 0.89891 1.10167 0.99893
 Cu1174 Cu 0.86517 1.13589 0.99856
 Cu1175 Cu 1.10087 1.10209 1.00040
 Cu1176 Cu 1.13448 1.13648 1.00075
 Cu1177 Cu 0.89717 0.99977 1.10076
 Cu1178 Cu 0.86285 0.99987 1.13459
 Cu1179 Cu 1.10166 0.99941 1.10236
 Cu1180 Cu 1.13532 0.99971 1.13683
 C1181 C 1.06289 0.93631 1.14352
 H1182 H 1.05515 0.94433 1.12722
 C1183 C 1.08446 0.91372 1.18424
 C1184 C 0.93616 1.06192 1.14325
 H1185 H 0.94341 1.05479 1.12631
 C1186 C 0.91684 1.08104 1.18683
 C1187 C 0.85696 1.06365 1.06222
 H1188 H 0.87321 1.05566 1.05449
 C1189 C 0.81630 1.08601 1.08386
 C1190 C 1.14395 0.93681 1.06449
 H1191 H 1.12742 0.94427 1.05684
 C1192 C 1.18643 0.91686 1.08488
 C1193 C 1.06319 0.85739 1.06547
 H1194 H 1.05541 0.87350 1.05721
 C1195 C 1.08483 0.81707 1.08859
 C1196 C 0.93600 1.14188 1.06395
 H1197 H 0.94406 1.12581 1.05590
 C1198 C 0.91357 1.18216 1.08632
 C1199 C 0.93508 0.93672 1.14300
 H1200 H 0.94246 0.94382 1.12609
 C1201 C 0.91538 0.91782 1.18657
 C1202 C 1.06275 1.06265 1.14371
 H1203 H 1.05484 1.05486 1.12739
 C1204 C 1.08520 1.08443 1.18440
 C1205 C 0.93645 0.85715 1.06336
 H1206 H 0.94436 0.87341 1.05552
 C1207 C 0.91419 0.81655 1.08527
 C1208 C 1.06157 1.14315 1.06350
 H1209 H 1.05434 1.12640 1.05605
 C1210 C 1.08095 1.18621 1.08336
 C1211 C 0.85646 0.93644 1.06182
 H1212 H 0.87314 0.94391 1.05448
 C1213 C 0.81351 0.91658 1.08142
 C1214 C 1.14151 1.06415 1.06476
 H1215 H 1.12542 1.05610 1.05678
 C1216 C 1.18185 1.08657 1.08694
 O1217 O 0.97601 0.41193 0.37815
 O1218 O 0.97622 0.38363 0.34964
 C1219 C 0.96757 0.40317 0.35844
 C1220 C 0.94668 0.41510 0.34631
 C1221 C 0.93573 0.40433 0.32582
 H1222 H 0.94399 0.38838 0.31780
 O1223 O 1.02412 0.58763 0.37733
 O1224 O 1.02417 0.61576 0.34863
 C1225 C 1.03262 0.59618 0.35754
 C1226 C 1.05302 0.58365 0.34521
 C1227 C 1.06283 0.59302 0.32347
 H1228 H 1.05511 0.60938 0.31572
 O1229 O 0.87853 0.47628 0.41148
 O1230 O 0.85018 0.47636 0.38306
 C1231 C 0.85876 0.46800 0.40288
 C1232 C 0.84613 0.44787 0.41565
 C1233 C 0.82463 0.43794 0.40609
 H1234 H 0.81717 0.44544 0.38944
 O1235 O 1.12141 0.52365 0.41210
 O1236 O 1.14974 0.52345 0.38364
 C1237 C 1.14116 0.53192 0.40342
 C1238 C 1.15374 0.55220 0.41596
 C1239 C 1.17516 0.56215 0.40620
 H1240 H 1.18257 0.55450 0.38960
 O1241 O 0.91188 0.37938 0.47533
 O1242 O 0.88346 0.35113 0.47555
 C1243 C 0.90304 0.35977 0.46686
 C1244 C 0.91504 0.34752 0.44599
 C1245 C 0.90433 0.32705 0.43509
 H1246 H 0.88837 0.31915 0.44343
 O1247 O 1.08760 0.62116 0.47511
 O1248 O 1.11585 0.64958 0.47503
 C1249 C 1.09620 0.64086 0.46659
 C1250 C 1.08357 0.65338 0.44624
 C1251 C 1.09284 0.67515 0.43659
 H1252 H 1.10924 0.68276 0.44431
 O1253 O 0.91243 0.52323 0.37783
 O1254 O 0.88416 0.52325 0.34933
 C1255 C 0.90392 0.53153 0.35794
 C1256 C 0.91666 0.55156 0.34514
 C1257 C 0.90714 0.56122 0.32341
 H1258 H 0.89063 0.55358 0.31597
 O1259 O 1.08751 0.47657 0.37873
 O1260 O 1.11585 0.47637 0.35028
 C1261 C 1.09607 0.46815 0.35893
 C1262 C 1.08339 0.44806 0.34624
 C1263 C 1.09304 0.43835 0.32461
 H1264 H 1.10963 0.44596 0.31731
 O1265 O 1.02348 0.37874 0.41173
 O1266 O 1.02365 0.35044 0.38323
 C1267 C 1.03189 0.35903 0.40311
 C1268 C 1.05195 0.34636 0.41591
 C1269 C 1.06185 0.32488 0.40624
 H1270 H 1.05448 0.31762 0.38945
 O1271 O 0.97643 0.62100 0.41031
 O1272 O 0.97651 0.64917 0.38163
 C1273 C 0.96813 0.64070 0.40151
 C1274 C 0.94807 0.65349 0.41416
 C1275 C 0.93836 0.67505 0.40445
 H1276 H 0.94591 0.68228 0.38772
 O1277 O 0.87971 0.58862 0.47485
 O1278 O 0.85147 0.61703 0.47476
 C1279 C 0.86003 0.59725 0.46642
 C1280 C 0.84737 0.58446 0.44627
 C1281 C 0.82558 0.59366 0.43666
 H1282 H 0.81799 0.61015 0.44428
 O1283 O 1.12086 0.41101 0.47592
 O1284 O 1.14905 0.38256 0.47568
 C1285 C 1.14043 0.40229 0.46728
 C1286 C 1.15278 0.41491 0.44678
 C1287 C 1.17424 0.40542 0.43660
 H1288 H 1.18205 0.38900 0.44418
 O1289 O 0.97660 0.58725 0.37729
 O1290 O 0.97663 0.61537 0.34858
 C1291 C 0.96825 0.59570 0.35740
 C1292 C 0.94805 0.58294 0.34488
 C1293 C 0.93821 0.59234 0.32318
 H1294 H 0.94576 0.60886 0.31560
 O1295 O 1.02352 0.41226 0.37836
 O1296 O 1.02375 0.38401 0.34979
 C1297 C 1.03199 0.40376 0.35854
 C1298 C 1.05213 0.41657 0.34600
 C1299 C 1.06204 0.40718 0.32432
 H1300 H 1.05454 0.39068 0.31665
 O1301 O 1.12076 0.47593 0.41203
 O1302 O 1.14909 0.47583 0.38357
 C1303 C 1.14029 0.46730 0.40325
 C1304 C 1.15257 0.44666 0.41555
 C1305 C 1.17382 0.43671 0.40552
 H1306 H 1.18082 0.44435 0.38876
 O1307 O 0.87918 0.52382 0.41127
 O1308 O 0.85085 0.52388 0.38283
 C1309 C 0.85956 0.53232 0.40256
 C1310 C 0.84715 0.55269 0.41513
 C1311 C 0.82538 0.56218 0.40579
 H1312 H 0.81777 0.55429 0.38941
 O1313 O 0.91301 0.62188 0.47490
 O1314 O 0.88485 0.65035 0.47492
 C1315 C 0.90446 0.64161 0.46644
 C1316 C 0.91699 0.65399 0.44595
 C1317 C 0.90751 0.67551 0.43594
 H1318 H 0.89113 0.68318 0.44366
 O1319 O 1.08715 0.37823 0.47653
 O1320 O 1.11525 0.34969 0.47649
 C1321 C 1.09560 0.35845 0.46812
 C1322 C 1.08296 0.34602 0.44777
 C1323 C 1.09255 0.32455 0.43782
 H1324 H 1.10898 0.31699 0.44552
 O1325 O 1.08835 0.52406 0.37840
 O1326 O 1.11670 0.52378 0.34996
 C1327 C 1.09706 0.53232 0.35855
 C1328 C 1.08456 0.55249 0.34572
 C1329 C 1.09408 0.56209 0.32392
 H1330 H 1.11059 0.55442 0.31651
 O1331 O 0.91186 0.47567 0.37818
 O1332 O 0.88351 0.47567 0.34976
 C1333 C 0.90306 0.46710 0.35854
 C1334 C 0.91511 0.44625 0.34641
 C1335 C 0.90445 0.43520 0.32592
 H1336 H 0.88838 0.44326 0.31796
 O1337 O 1.02382 0.62094 0.41063
 O1338 O 1.02391 0.64915 0.38200
 C1339 C 1.03218 0.64065 0.40192
 C1340 C 1.05223 0.65336 0.41470
 C1341 C 1.06170 0.67521 0.40540
 H1342 H 1.05394 0.68284 0.38896
 O1343 O 0.97597 0.37872 0.41140
 O1344 O 0.97608 0.35044 0.38287
 C1345 C 0.96745 0.35916 0.40253
 C1346 C 0.94652 0.34716 0.41456
 C1347 C 0.93545 0.32675 0.40386
 H1348 H 0.94355 0.31868 0.38779
 O1349 O 1.12107 0.58808 0.47558
 O1350 O 1.14937 0.61645 0.47553
 C1351 C 1.14082 0.59666 0.46723
 C1352 C 1.15350 0.58391 0.44712
 C1353 C 1.17488 0.59359 0.43710
 H1354 H 1.18220 0.61029 0.44452
 O1355 O 0.87867 0.41264 0.47574
 O1356 O 0.85026 0.38438 0.47614
 C1357 C 0.85887 0.40404 0.46756
 C1358 C 0.84621 0.41658 0.44729
 C1359 C 0.82474 0.40690 0.43745
 H1360 H 0.81740 0.39032 0.44510
 Cu1361 Cu 0.99980 0.39824 0.39777
 Cu1362 Cu 1.00004 0.36430 0.36353
 Cu1363 Cu 1.00022 0.60136 0.39674
 Cu1364 Cu 1.00029 0.63515 0.36231
 Cu1365 Cu 0.89833 0.49975 0.39754
 Cu1366 Cu 0.86436 0.49984 0.36337
 Cu1367 Cu 1.10169 0.50014 0.39820
 Cu1368 Cu 1.13571 0.49983 0.36406
 C1369 C 0.93621 0.43605 0.35648
 H1370 H 0.94420 0.44412 0.37263
 C1371 C 0.91393 0.41354 0.31609
 C1372 C 1.06382 0.56320 0.35601
 H1373 H 1.05662 0.55617 0.37302
 C1374 C 1.08301 0.58202 0.31218
 C1375 C 0.85652 0.43731 0.43651
 H1376 H 0.87330 0.44462 0.44375
 C1377 C 0.81329 0.41783 0.41725
 C1378 C 1.14332 0.56296 0.43670
 H1379 H 1.12661 0.55563 0.44410
 C1380 C 1.18637 0.58250 0.41703
 C1381 C 0.93614 0.35742 0.43559
 H1382 H 0.94417 0.37355 0.44357
 C1383 C 0.91367 0.31715 0.41330
 C1384 C 1.06302 0.64283 0.43539
 H1385 H 1.05600 0.62584 0.44248
 C1386 C 1.08164 0.68674 0.41661
 C1387 C 0.93738 0.56229 0.35550
 H1388 H 0.94459 0.55518 0.37246
 C1389 C 0.91813 0.58123 0.31181
 C1390 C 1.06268 0.43730 0.35658
 H1391 H 1.05540 0.44444 0.37350
 C1392 C 1.08214 0.41831 0.31301
 C1393 C 1.06239 0.35656 0.43694
 H1394 H 1.05513 0.37335 0.44427
 C1395 C 1.08177 0.31334 0.41744
 C1396 C 0.93750 0.64333 0.43514
 H1397 H 0.94464 0.62649 0.44247
 C1398 C 0.91841 0.68668 0.41553
 C1399 C 0.85779 0.56373 0.43560
 H1400 H 0.87478 0.55673 0.44266
 C1401 C 0.81395 0.58226 0.41682
 C1402 C 1.14235 0.43580 0.43636
 H1403 H 1.12570 0.44312 0.44390
 C1404 C 1.18539 0.41657 0.41632
 O1405 O 1.02343 0.41290 0.62152
 O1406 O 1.02304 0.38463 0.65009
 C1407 C 1.03175 0.40417 0.64130
 C1408 C 1.05265 0.41605 0.65346
 C1409 C 1.06320 0.40542 0.67420
 H1410 H 1.05438 0.38992 0.68252
 O1411 O 0.97715 0.58774 0.62143
 O1412 O 0.97740 0.61604 0.64994
 C1413 C 0.96892 0.59636 0.64130
 C1414 C 0.94866 0.58391 0.65397
 C1415 C 0.93883 0.59368 0.67551
 H1416 H 0.94658 0.61017 0.68293
 O1417 O 0.87955 0.52485 0.58735
 O1418 O 0.85107 0.52505 0.61566
 C1419 C 0.85983 0.53332 0.59585
 C1420 C 0.84733 0.55345 0.58297
 C1421 C 0.82559 0.56312 0.59224
 H1422 H 0.81796 0.55553 0.60878
 O1423 O 1.12162 0.47580 0.58737
 O1424 O 1.15010 0.47592 0.61565
 C1425 C 1.14139 0.46748 0.59592
 C1426 C 1.15388 0.44722 0.58326
 C1427 C 1.17533 0.43728 0.59289
 H1428 H 1.18278 0.44487 0.60948
 O1429 O 1.08803 0.37824 0.52439
 O1430 O 1.11625 0.34981 0.52446
 C1431 C 1.09677 0.35870 0.53313
 C1432 C 1.08467 0.34687 0.55427
 C1433 C 1.09506 0.32638 0.56553
 H1434 H 1.11112 0.31823 0.55761
 O1435 O 0.91293 0.62162 0.52280
 O1436 O 0.88466 0.65000 0.52290
 C1437 C 0.90418 0.64115 0.53151
 C1438 C 0.91618 0.65299 0.55263
 C1439 C 0.90565 0.67348 0.56372
 H1440 H 0.88971 0.68164 0.55558
 O1441 O 0.91232 0.47713 0.62102
 O1442 O 0.88385 0.47738 0.64935
 C1443 C 0.90342 0.46870 0.64068
 C1444 C 0.91520 0.44776 0.65291
 C1445 C 0.90426 0.43689 0.67336
 H1446 H 0.88845 0.44541 0.68133
 O1447 O 1.08838 0.52330 0.62085
 O1448 O 1.11675 0.52328 0.64924
 C1449 C 1.09716 0.53184 0.64050
 C1450 C 1.08519 0.55274 0.65263
 C1451 C 1.09578 0.56350 0.67329
 H1452 H 1.11153 0.55504 0.68144
 O1453 O 0.97633 0.37950 0.58771
 O1454 O 0.97606 0.35113 0.61618
 C1455 C 0.96791 0.35975 0.59627
 C1456 C 0.94790 0.34711 0.58339
 C1457 C 0.93824 0.32539 0.59278
 H1458 H 0.94582 0.31785 0.60935
 O1459 O 1.02412 0.62123 0.58745
 O1460 O 1.02411 0.64966 0.61584
 C1461 C 1.03241 0.64103 0.59601
 C1462 C 1.05248 0.65370 0.58325
 C1463 C 1.06244 0.67508 0.59304
 H1464 H 1.05506 0.68226 0.60986
 O1465 O 0.87926 0.41276 0.52351
 O1466 O 0.85101 0.38434 0.52388
 C1467 C 0.85974 0.40404 0.53225
 C1468 C 0.84764 0.41629 0.55306
 C1469 C 0.82703 0.40583 0.56393
 H1470 H 0.81898 0.38989 0.55567
 O1471 O 1.12056 0.58818 0.52330
 O1472 O 1.14880 0.61661 0.52330
 C1473 C 1.14011 0.59696 0.53187
 C1474 C 1.15230 0.58478 0.55268
 C1475 C 1.17285 0.59536 0.56354
 H1476 H 1.18073 0.61145 0.55539
 O1477 O 1.02471 0.58782 0.62076
 O1478 O 1.02492 0.61627 0.64913
 C1479 C 1.03338 0.59663 0.64036
 C1480 C 1.05417 0.58448 0.65248
 C1481 C 1.06513 0.59501 0.67311
 H1482 H 1.05714 0.61112 0.68111
 O1483 O 0.97578 0.41253 0.62144
 O1484 O 0.97538 0.38416 0.64990
 C1485 C 0.96701 0.40379 0.64105
 C1486 C 0.94614 0.41596 0.65304
 C1487 C 0.93481 0.40530 0.67342
 H1488 H 0.94255 0.38904 0.68138
 O1489 O 1.12131 0.52339 0.58731
 O1490 O 1.14969 0.52353 0.61570
 C1491 C 1.14086 0.53204 0.59603
 C1492 C 1.15274 0.55301 0.58389
 C1493 C 1.17331 0.56388 0.59441
 H1494 H 1.18155 0.55547 0.61022
 O1495 O 0.87922 0.47722 0.58770
 O1496 O 0.85078 0.47744 0.61606
 C1497 C 0.85957 0.46878 0.59645
 C1498 C 0.84751 0.44789 0.58438
 C1499 C 0.82695 0.43706 0.59502
 H1500 H 0.81888 0.44535 0.61100
 O1501 O 1.08761 0.62167 0.52287
 O1502 O 1.11585 0.65010 0.52276
 C1503 C 1.09618 0.64144 0.53121
 C1504 C 1.08362 0.65397 0.55154
 C1505 C 1.09327 0.67543 0.56155
 H1506 H 1.10974 0.68298 0.55389
 O1507 O 0.91246 0.37945 0.52311
 O1508 O 0.88421 0.35103 0.52330
 C1509 C 0.90394 0.35970 0.53158
 C1510 C 0.91666 0.34711 0.55178
 C1511 C 0.90726 0.32541 0.56148
 H1512 H 0.89080 0.31789 0.55379
 O1513 O 1.08851 0.47566 0.62099
 O1514 O 1.11697 0.47555 0.64930
 C1515 C 1.09728 0.46712 0.64067
 C1516 C 1.08494 0.44652 0.65301
 C1517 C 1.09538 0.43539 0.67361
 H1518 H 1.11175 0.44302 0.68139
 O1519 O 0.91254 0.52466 0.62120
 O1520 O 0.88410 0.52493 0.64955
 C1521 C 0.90394 0.53309 0.64100
 C1522 C 0.91678 0.55308 0.65376
 C1523 C 0.90722 0.56311 0.67532
 H1524 H 0.89053 0.55582 0.68273
 O1525 O 0.97663 0.62071 0.58769
 O1526 O 0.97665 0.64899 0.61622
 C1527 C 0.96810 0.64029 0.59651
 C1528 C 0.94735 0.65249 0.58437
 C1529 C 0.93657 0.67302 0.59509
 H1530 H 0.94490 0.68092 0.61109
 O1531 O 1.02383 0.37929 0.58855
 O1532 O 1.02348 0.35106 0.61717
 C1533 C 1.03221 0.35968 0.59750
 C1534 C 1.05306 0.34738 0.58560
 C1535 C 1.06365 0.32682 0.59646
 H1536 H 1.05505 0.31892 0.61234
 O1537 O 1.12113 0.41157 0.52358
 O1538 O 1.14941 0.38319 0.52343
 C1539 C 1.14091 0.40297 0.53181
 C1540 C 1.15365 0.41567 0.55191
 C1541 C 1.17511 0.40602 0.56179
 H1542 H 1.18245 0.38940 0.55425
 O1543 O 0.87965 0.58856 0.52252
 O1544 O 0.85134 0.61690 0.52244
 C1545 C 0.85994 0.59719 0.53089
 C1546 C 0.84734 0.58460 0.55119
 C1547 C 0.82561 0.59399 0.56074
 H1548 H 0.81810 0.61039 0.55288
 Cu1549 Cu 0.99983 0.39891 0.60198
 Cu1550 Cu 0.99942 0.36495 0.63622
 Cu1551 Cu 1.00064 0.60152 0.60150
 Cu1552 Cu 1.00078 0.63557 0.63563
 Cu1553 Cu 0.89840 0.39890 0.49938
 Cu1554 Cu 0.86440 0.36488 0.49977
 Cu1555 Cu 1.10146 0.39757 0.50011
 Cu1556 Cu 1.13527 0.36341 0.49998
 Cu1557 Cu 0.89919 0.60237 0.49872
 Cu1558 Cu 0.86530 0.63647 0.49872
 Cu1559 Cu 1.10137 0.60194 0.49919
 Cu1560 Cu 1.13531 0.63602 0.49911
 Cu1561 Cu 0.89875 0.50103 0.60147
 Cu1562 Cu 0.86459 0.50131 0.63548
 Cu1563 Cu 1.10211 0.49947 0.60131
 Cu1564 Cu 1.13621 0.49954 0.63532
 C1565 C 1.06361 0.43664 0.64304
 H1566 H 1.05584 0.44463 0.62674
 C1567 C 1.08524 0.41416 0.68381
 C1568 C 0.93776 0.56334 0.64350
 H1569 H 0.94501 0.55597 0.62666
 C1570 C 0.91847 0.58306 0.68682
 C1571 C 0.85785 0.56408 0.56220
 H1572 H 0.87481 0.55699 0.55517
 C1573 C 0.81409 0.58298 0.58086
 C1574 C 1.14342 0.43653 0.56251
 H1575 H 1.12665 0.44383 0.55524
 C1576 C 1.18659 0.41706 0.58190
 C1577 C 1.06370 0.35726 0.56451
 H1578 H 1.05593 0.37342 0.55635
 C1579 C 1.08533 0.31676 0.58731
 C1580 C 0.93702 0.64261 0.56314
 H1581 H 0.94490 0.62645 0.55508
 C1582 C 0.91503 0.68305 0.58562
 C1583 C 0.93616 0.43718 0.64291
 H1584 H 0.94439 0.44516 0.62682
 C1585 C 0.91319 0.41497 0.68313
 C1586 C 1.06438 0.56336 0.64236
 H1587 H 1.05644 0.55549 0.62609
 C1588 C 1.08660 0.58530 0.68310
 C1589 C 0.93724 0.35760 0.56261
 H1590 H 0.94434 0.37455 0.55550
 C1591 C 0.91831 0.31391 0.58156
 C1592 C 1.06296 0.64351 0.56227
 H1593 H 1.05564 0.62676 0.55489
 C1594 C 1.08244 0.68661 0.58195
 C1595 C 0.85775 0.43733 0.56342
 H1596 H 0.87398 0.44517 0.55549
 C1597 C 0.81718 0.41533 0.58564
 C1598 C 1.14236 0.56361 0.56302
 H1599 H 1.12617 0.55567 0.55512
 C1600 C 1.18289 0.58573 0.58511
 O1601 O 0.58738 1.02457 0.62138
 O1602 O 0.61556 1.02475 0.64997
 C1603 C 0.59602 1.03321 0.64106
 C1604 C 0.58394 1.05410 0.65306
 C1605 C 0.59445 1.06490 0.67373
 H1606 H 0.61020 1.05650 0.68197
 O1607 O 0.41143 0.97730 0.62005
 O1608 O 0.38300 0.97740 0.64843
 C1609 C 0.40269 0.96895 0.63983
 C1610 C 0.41475 0.94838 0.65235
 C1611 C 0.40402 0.93793 0.67310
 H1612 H 0.38830 0.94663 0.68102
 O1613 O 0.52308 1.12224 0.58744
 O1614 O 0.52279 1.15062 0.61586
 C1615 C 0.53127 1.14205 0.59607
 C1616 C 0.55144 1.15472 0.58343
 C1617 C 0.56131 1.17621 0.59312
 H1618 H 0.55372 1.18360 0.60976
 O1619 O 0.47633 0.87955 0.58869
 O1620 O 0.47616 0.85154 0.61753
 C1621 C 0.46789 0.85996 0.59759
 C1622 C 0.44743 0.84748 0.58533
 C1623 C 0.43678 0.82689 0.59605
 H1624 H 0.44510 0.81907 0.61210
 O1625 O 0.62051 1.08914 0.52448
 O1626 O 0.64884 1.11748 0.52452
 C1627 C 0.64005 1.09790 0.53313
 C1628 C 0.65211 1.08571 0.55402
 C1629 C 0.67260 1.09623 0.56508
 H1630 H 0.68047 1.11248 0.55721
 O1631 O 0.37975 0.91155 0.52345
 O1632 O 0.35165 0.88298 0.52363
 C1633 C 0.36015 0.90279 0.53197
 C1634 C 0.34776 0.91508 0.55260
 C1635 C 0.32742 0.90426 0.56363
 H1636 H 0.31973 0.88809 0.55552
 O1637 O 0.47594 1.08835 0.62079
 O1638 O 0.47582 1.11653 0.64942
 C1639 C 0.46747 1.09685 0.64061
 C1640 C 0.44710 1.08424 0.65302
 C1641 C 0.43734 1.09361 0.67477
 H1642 H 0.44512 1.10995 0.68249
 O1643 O 0.52314 0.91348 0.62237
 O1644 O 0.52275 0.88555 0.65127
 C1645 C 0.53122 0.90515 0.64242
 C1646 C 0.55128 0.91786 0.65511
 C1647 C 0.56092 0.90837 0.67686
 H1648 H 0.55322 0.89190 0.68440
 O1649 O 0.62074 0.97654 0.58873
 O1650 O 0.64880 0.97668 0.61743
 C1651 C 0.64024 0.96805 0.59772
 C1652 C 0.65243 0.94718 0.58579
 C1653 C 0.67291 0.93641 0.59659
 H1654 H 0.68083 0.94486 0.61252
 O1655 O 0.37792 1.02454 0.58639
 O1656 O 0.34959 1.02448 0.61486
 C1657 C 0.35826 1.03294 0.59511
 C1658 C 0.34603 1.05362 0.58293
 C1659 C 0.32543 1.06431 0.59354
 H1660 H 0.31725 1.05571 0.60928
 O1661 O 0.41161 1.12168 0.52313
 O1662 O 0.38325 1.14997 0.52278
 C1663 C 0.40273 1.14125 0.53163
 C1664 C 0.41459 1.15326 0.55276
 C1665 C 0.40370 1.17343 0.56411
 H1666 H 0.38751 1.18126 0.55617
 O1667 O 0.58787 0.87883 0.52521
 O1668 O 0.61621 0.85052 0.52549
 C1669 C 0.59661 0.85931 0.53397
 C1670 C 0.58447 0.84744 0.55500
 C1671 C 0.59489 0.82694 0.56619
 H1672 H 0.61094 0.81879 0.55824
 O1673 O 0.41119 1.02482 0.61990
 O1674 O 0.38284 1.02483 0.64834
 C1675 C 0.40257 1.03320 0.63971
 C1676 C 0.41528 1.05328 0.65249
 C1677 C 0.40581 1.06296 0.67425
 H1678 H 0.38918 1.05549 0.68163
 O1679 O 0.58735 0.97706 0.62211
 O1680 O 0.61542 0.97729 0.65080
 C1681 C 0.59575 0.96891 0.64212
 C1682 C 0.58290 0.94896 0.65496
 C1683 C 0.59228 0.93919 0.67672
 H1684 H 0.60887 0.94665 0.68418
 O1685 O 0.52383 0.87984 0.58931
 O1686 O 0.52366 0.85191 0.61821
 C1687 C 0.53229 0.86037 0.59843
 C1688 C 0.55308 0.84804 0.58650
 C1689 C 0.56371 0.82750 0.59735
 H1690 H 0.55516 0.81967 0.61327
 O1691 O 0.47559 1.12168 0.58747
 O1692 O 0.47529 1.14987 0.61609
 C1693 C 0.46689 1.14117 0.59633
 C1694 C 0.44602 1.15320 0.58424
 C1695 C 0.43498 1.17348 0.59513
 H1696 H 0.44326 1.18146 0.61113
 O1697 O 0.37817 1.08883 0.52278
 O1698 O 0.34979 1.11711 0.52239
 C1699 C 0.35846 1.09754 0.53107
 C1700 C 0.34619 1.08536 0.55179
 C1701 C 0.32573 1.09595 0.56283
 H1702 H 0.31791 1.11219 0.55492
 O1703 O 0.62104 0.91206 0.52501
 O1704 O 0.64938 0.88375 0.52515
 C1705 C 0.64064 0.90340 0.53359
 C1706 C 0.65268 0.91564 0.55442
 C1707 C 0.67316 0.90514 0.56551
 H1708 H 0.68121 0.88908 0.55748
 O1709 O 0.47562 0.91314 0.62166
 O1710 O 0.47527 0.88510 0.65046
 C1711 C 0.46684 0.90458 0.64133
 C1712 C 0.44590 0.91682 0.65307
 C1713 C 0.43470 0.90650 0.67370
 H1714 H 0.44249 0.89041 0.68196
 O1715 O 0.52356 1.08897 0.62090
 O1716 O 0.52343 1.11736 0.64932
 C1717 C 0.53206 1.09780 0.64057
 C1718 C 0.55287 1.08576 0.65278
 C1719 C 0.56383 1.09642 0.67335
 H1720 H 0.55578 1.11254 0.68126
 O1721 O 0.37827 0.97682 0.58671
 O1722 O 0.34990 0.97679 0.61514
 C1723 C 0.35877 0.96814 0.59556
 C1724 C 0.34702 0.94697 0.58364
 C1725 C 0.32674 0.93577 0.59445
 H1726 H 0.31857 0.94395 0.61043
 O1727 O 0.62077 1.02426 0.58827
 O1728 O 0.64891 1.02439 0.61688
 C1729 C 0.64028 1.03286 0.59712
 C1730 C 0.65234 1.05377 0.58505
 C1731 C 0.67291 1.06449 0.59569
 H1732 H 0.68109 1.05584 0.61140
 O1733 O 0.41288 0.87824 0.52387
 O1734 O 0.38477 0.84968 0.52403
 C1735 C 0.40425 0.85863 0.53256
 C1736 C 0.41634 0.84681 0.55359
 C1737 C 0.40592 0.82625 0.56464
 H1738 H 0.39004 0.81799 0.55649
 O1739 O 0.58715 1.12221 0.52362
 O1740 O 0.61545 1.15059 0.52359
 C1741 C 0.59568 1.14200 0.53192
 C1742 C 0.58295 1.15467 0.55206
 C1743 C 0.59254 1.17614 0.56201
 H1744 H 0.60914 1.18355 0.55449
 Cu1745 Cu 0.60128 1.00052 0.60222
 Cu1746 Cu 0.63503 1.00076 0.63660
 Cu1747 Cu 0.39750 1.00093 0.60037
 Cu1748 Cu 0.36346 1.00092 0.63450
 Cu1749 Cu 0.49959 1.10246 0.60132
 Cu1750 Cu 0.49930 1.13641 0.63554
 Cu1751 Cu 0.49978 0.89931 0.60262
 Cu1752 Cu 0.49947 0.86571 0.63725
 C1753 C 0.56313 1.06463 0.64273
 H1754 H 0.55523 1.05668 0.62648
 C1755 C 0.58531 1.08677 0.68339
 C1756 C 0.43572 0.93773 0.64247
 H1757 H 0.44379 0.94540 0.62615
 C1758 C 0.41308 0.91627 0.68327
 C1759 C 0.56213 1.14435 0.56263
 H1760 H 0.55488 1.12757 0.55529
 C1761 C 0.58149 1.18757 0.58214
 C1762 C 0.43709 0.85731 0.56409
 H1763 H 0.44485 0.87357 0.55607
 C1764 C 0.41531 0.81675 0.58655
 C1765 C 0.64209 1.06450 0.56419
 H1766 H 0.62591 1.05663 0.55619
 C1767 C 0.68259 1.08639 0.58658
 C1768 C 0.35741 0.93645 0.56272
 H1769 H 0.37344 0.94458 0.55466
 C1770 C 0.31742 0.91374 0.58528
 C1771 C 0.43617 1.06382 0.64224
 H1772 H 0.44336 1.05671 0.62527
 C1773 C 0.41711 1.08270 0.68606
 C1774 C 0.56213 0.93842 0.64455
 H1775 H 0.55503 0.94558 0.62756
 C1776 C 0.58105 0.91925 0.68830
 C1777 C 0.64246 0.93665 0.56471
 H1778 H 0.62631 0.94449 0.55664
 C1779 C 0.68282 0.91470 0.58728
 C1780 C 0.35622 1.06423 0.56201
 H1781 H 0.37243 1.05638 0.55405
 C1782 C 0.31580 1.08622 0.58442
 C1783 C 0.43573 1.14325 0.56303
 H1784 H 0.44387 1.12730 0.55482
 C1785 C 0.41312 1.18309 0.58598
 C1786 C 0.56358 0.85785 0.56532
 H1787 H 0.55578 0.87401 0.55717
 C1788 C 0.58529 0.81738 0.58801
 O1789 O 0.58803 0.97633 0.37891
 O1790 O 0.61654 0.97656 0.35063
 C1791 C 0.59681 0.96808 0.35912
 C1792 C 0.58445 0.94784 0.34630
 C1793 C 0.59434 0.93816 0.32475
 H1794 H 0.61089 0.94594 0.31755
 O1795 O 0.41303 1.02261 0.37909
 O1796 O 0.38482 1.02265 0.35053
 C1797 C 0.40436 1.03118 0.35941
 C1798 C 0.41632 1.05208 0.34730
 C1799 C 0.40558 1.06273 0.32669
 H1800 H 0.38994 1.05404 0.31858
 O1801 O 0.47680 1.12132 0.41186
 O1802 O 0.47680 1.14938 0.38307
 C1803 C 0.46838 1.14091 0.40294
 C1804 C 0.44779 1.15335 0.41506
 C1805 C 0.43764 1.17433 0.40461
 H1806 H 0.44661 1.18247 0.38909
 O1807 O 0.52473 0.87875 0.41199
 O1808 O 0.52509 0.85041 0.38352
 C1809 C 0.53336 0.85916 0.40332
 C1810 C 0.55394 0.84705 0.41578
 C1811 C 0.56504 0.82659 0.40523
 H1812 H 0.55724 0.81866 0.38894
 O1813 O 0.62096 0.91188 0.47720
 O1814 O 0.64926 0.88353 0.47727
 C1815 C 0.64052 0.90311 0.46864
 C1816 C 0.65253 0.91517 0.44765
 C1817 C 0.67289 0.90448 0.43653
 H1818 H 0.68084 0.88838 0.44460
 O1819 O 0.37917 1.08799 0.47513
 O1820 O 0.35072 1.11619 0.47463
 C1821 C 0.35949 1.09639 0.46648
 C1822 C 0.34709 1.08339 0.44629
 C1823 C 0.32562 1.09275 0.43615
 H1824 H 0.31802 1.10937 0.44346
 O1825 O 0.52425 1.08781 0.37852
 O1826 O 0.52412 1.11589 0.34976
 C1827 C 0.53268 1.09638 0.35870
 C1828 C 0.55349 1.08425 0.34660
 C1829 C 0.56434 1.09473 0.32590
 H1830 H 0.55601 1.11052 0.31764
 O1831 O 0.47725 0.91172 0.37831
 O1832 O 0.47759 0.88340 0.34982
 C1833 C 0.46901 0.90303 0.35848
 C1834 C 0.44872 0.91543 0.34581
 C1835 C 0.43891 0.90557 0.32431
 H1836 H 0.44653 0.88895 0.31707
 O1837 O 0.62104 1.02369 0.41290
 O1838 O 0.64967 1.02361 0.38474
 C1839 C 0.64084 1.03204 0.40443
 C1840 C 0.65331 1.05232 0.41707
 C1841 C 0.67474 1.06223 0.40735
 H1842 H 0.68212 1.05463 0.39072
 O1843 O 0.37950 0.97466 0.41169
 O1844 O 0.35149 0.97456 0.38294
 C1845 C 0.36006 0.96604 0.40270
 C1846 C 0.34799 0.94514 0.41471
 C1847 C 0.32755 0.93418 0.40402
 H1848 H 0.31954 0.94240 0.38799
 O1849 O 0.58796 1.12197 0.47588
 O1850 O 0.61631 1.15029 0.47581
 C1851 C 0.59670 1.14158 0.46728
 C1852 C 0.58428 1.15394 0.44669
 C1853 C 0.59384 1.17542 0.43662
 H1854 H 0.61029 1.18302 0.44424
 O1855 O 0.41328 0.87803 0.47601
 O1856 O 0.38512 0.84952 0.47614
 C1857 C 0.40468 0.85832 0.46755
 C1858 C 0.41682 0.84622 0.44665
 C1859 C 0.40617 0.82579 0.43561
 H1860 H 0.39021 0.81775 0.44383
 O1861 O 0.41278 0.97503 0.37824
 O1862 O 0.38473 0.97512 0.34953
 C1863 C 0.40437 0.96673 0.35829
 C1864 C 0.41713 0.94657 0.34565
 C1865 C 0.40763 0.93648 0.32407
 H1866 H 0.39107 0.94389 0.31650
 O1867 O 0.58823 1.02391 0.37904
 O1868 O 0.61691 1.02406 0.35092
 C1869 C 0.59717 1.03248 0.35944
 C1870 C 0.58509 1.05314 0.34704
 C1871 C 0.59571 1.06394 0.32637
 H1872 H 0.61177 1.05581 0.31847
 O1873 O 0.47720 0.87834 0.41159
 O1874 O 0.47745 0.85000 0.38312
 C1875 C 0.46882 0.85867 0.40280
 C1876 C 0.44806 0.84644 0.41496
 C1877 C 0.43706 0.82603 0.40417
 H1878 H 0.44520 0.81816 0.38803
 O1879 O 0.52429 1.12141 0.41159
 O1880 O 0.52421 1.14950 0.38284
 C1881 C 0.53266 1.14104 0.40269
 C1882 C 0.55294 1.15370 0.41516
 C1883 C 0.56275 1.17519 0.40538
 H1884 H 0.55511 1.18251 0.38874
 O1885 O 0.37965 0.91077 0.47570
 O1886 O 0.35151 0.88223 0.47585
 C1887 C 0.36013 0.90185 0.46719
 C1888 C 0.34801 0.91378 0.44625
 C1889 C 0.32756 0.90310 0.43533
 H1890 H 0.31956 0.88714 0.44362
 O1891 O 0.62078 1.08831 0.47675
 O1892 O 0.64919 1.11657 0.47671
 C1893 C 0.64057 1.09679 0.46842
 C1894 C 0.65320 1.08396 0.44833
 C1895 C 0.67466 1.09355 0.43836
 H1896 H 0.68206 1.11019 0.44581
 O1897 O 0.52472 0.91178 0.37824
 O1898 O 0.52507 0.88346 0.34975
 C1899 C 0.53327 0.90324 0.35846
 C1900 C 0.55346 0.91607 0.34596
 C1901 C 0.56364 0.90667 0.32438
 H1902 H 0.55632 0.89009 0.31670
 O1903 O 0.47663 1.08773 0.37882
 O1904 O 0.47646 1.11582 0.35006
 C1905 C 0.46799 1.09628 0.35909
 C1906 C 0.44717 1.08400 0.34717
 C1907 C 0.43589 1.09454 0.32671
 H1908 H 0.44356 1.11082 0.31872
 O1909 O 0.37925 1.02238 0.41190
 O1910 O 0.35106 1.02223 0.38333
 C1911 C 0.35961 1.03076 0.40310
 C1912 C 0.34708 1.05125 0.41545
 C1913 C 0.32563 1.06098 0.40557
 H1914 H 0.31835 1.05311 0.38904
 O1915 O 0.62086 0.97605 0.41270
 O1916 O 0.64934 0.97604 0.38438
 C1917 C 0.64047 0.96750 0.40401
 C1918 C 0.65248 0.94664 0.41616
 C1919 C 0.67291 0.93574 0.40544
 H1920 H 0.68094 0.94408 0.38948
 O1921 O 0.58780 0.87867 0.47735
 O1922 O 0.61611 0.85032 0.47758
 C1923 C 0.59657 0.85903 0.46890
 C1924 C 0.58469 0.84692 0.44789
 C1925 C 0.59545 0.82643 0.43708
 H1926 H 0.61115 0.81834 0.44569
 O1927 O 0.41191 1.12183 0.47530
 O1928 O 0.38357 1.15012 0.47477
 C1929 C 0.40332 1.14143 0.46659
 C1930 C 0.41589 1.15360 0.44602
 C1931 C 0.40588 1.17447 0.43515
 H1932 H 0.38975 1.18259 0.44296
 Cu1933 Cu 0.60168 1.00000 0.39872
 Cu1934 Cu 0.63599 1.00007 0.36486
 Cu1935 Cu 0.39892 0.99861 0.39813
 Cu1936 Cu 0.36520 0.99866 0.36373
 Cu1937 Cu 0.60127 1.10258 0.50017
 Cu1938 Cu 0.63531 1.13656 0.50014
 Cu1939 Cu 0.60158 0.89818 0.50119
 Cu1940 Cu 0.63557 0.86418 0.50138
 Cu1941 Cu 0.39807 1.10229 0.49909
 Cu1942 Cu 0.36402 1.13622 0.49851
 Cu1943 Cu 0.39922 0.89748 0.49974
 Cu1944 Cu 0.36546 0.86322 0.49995
 Cu1945 Cu 0.50053 1.10173 0.39805
 Cu1946 Cu 0.50039 1.13542 0.36352
 Cu1947 Cu 0.50097 0.89797 0.39789
 Cu1948 Cu 0.50134 0.86395 0.36374
 C1949 C 0.56377 0.93692 0.35652
 H1950 H 0.55631 0.94405 0.37336
 C1951 C 0.58373 0.91795 0.31314
 C1952 C 0.43716 1.06280 0.35741
 H1953 H 0.44526 1.05494 0.37361
 C1954 C 0.41441 1.08466 0.31693
 C1955 C 0.43683 1.14317 0.43581
 H1956 H 0.44427 1.12669 0.44366
 C1957 C 0.41599 1.18446 0.41376
 C1958 C 0.56392 0.85710 0.43711
 H1959 H 0.55587 0.87326 0.44499
 C1960 C 0.58650 0.81676 0.41506
 C1961 C 0.64242 0.93623 0.43728
 H1962 H 0.62633 0.94422 0.44534
 C1963 C 0.68262 0.91396 0.41474
 C1964 C 0.35746 1.06238 0.43605
 H1965 H 0.37422 1.05525 0.44351
 C1966 C 0.31427 1.08136 0.41615
 C1967 C 0.56398 1.06344 0.35702
 H1968 H 0.55605 1.05559 0.37332
 C1969 C 0.58615 1.08544 0.31625
 C1970 C 0.43795 0.93616 0.35610
 H1971 H 0.44519 0.94360 0.37290
 C1972 C 0.41876 0.91633 0.31275
 C1973 C 0.64289 1.06308 0.43782
 H1974 H 0.62611 1.05583 0.44515
 C1975 C 0.68605 1.08246 0.41823
 C1976 C 0.35809 0.93478 0.43580
 H1977 H 0.37422 0.94277 0.44378
 C1978 C 0.31777 0.91248 0.41353
 C1979 C 0.56361 1.14345 0.43604
 H1980 H 0.55635 1.12670 0.44347
 C1981 C 0.58281 1.18672 0.41635
 C1982 C 0.43777 0.85640 0.43619
 H1983 H 0.44574 0.87252 0.44425
 C1984 C 0.41540 0.81620 0.41366
 O1985 O 0.47601 0.41261 0.87878
 O1986 O 0.47612 0.38440 0.85018
 C1987 C 0.46764 0.40400 0.85896
 C1988 C 0.44720 0.41638 0.84650
 C1989 C 0.43738 0.40675 0.82489
 H1990 H 0.44523 0.39042 0.81722
 O1991 O 0.52350 0.58587 0.87821
 O1992 O 0.52336 0.61387 0.84938
 C1993 C 0.53201 0.59444 0.85843
 C1994 C 0.55309 0.58252 0.84655
 C1995 C 0.56380 0.59305 0.82581
 H1996 H 0.55498 0.60842 0.81729
 O1997 O 0.37760 0.47498 0.91321
 O1998 O 0.34931 0.47489 0.88473
 C1999 C 0.35807 0.46637 0.90440
 C2000 C 0.34616 0.44545 0.91648
 C2001 C 0.32582 0.43429 0.90582
 H2002 H 0.31767 0.44243 0.88982
 O2003 O 0.62249 0.52321 0.91315
 O2004 O 0.65082 0.52310 0.88470
 C2005 C 0.64215 0.53161 0.90442
 C2006 C 0.65445 0.55215 0.91682
 C2007 C 0.67574 0.56232 0.90700
 H2008 H 0.68335 0.55460 0.89053
 O2009 O 0.41238 0.37838 0.97705
 O2010 O 0.38442 0.34967 0.97728
 C2011 C 0.40395 0.35855 0.96870
 C2012 C 0.41652 0.34621 0.94821
 C2013 C 0.40718 0.32457 0.93829
 H2014 H 0.39091 0.31673 0.94609
 O2015 O 0.58733 0.62109 0.97523
 O2016 O 0.61536 0.64971 0.97510
 C2017 C 0.59581 0.64079 0.96662
 C2018 C 0.58317 0.65299 0.94608
 C2019 C 0.59237 0.67465 0.93607
 H2020 H 0.60868 0.68253 0.94373
 O2021 O 0.41096 0.52259 0.88003
 O2022 O 0.38248 0.52264 0.85174
 C2023 C 0.40222 0.53099 0.86030
 C2024 C 0.41447 0.55141 0.84771
 C2025 C 0.40395 0.56177 0.82683
 H2026 H 0.38814 0.55318 0.81896
 O2027 O 0.58880 0.47590 0.87991
 O2028 O 0.61707 0.47581 0.85138
 C2029 C 0.59740 0.46744 0.86014
 C2030 C 0.58506 0.44687 0.84785
 C2031 C 0.59562 0.43597 0.82724
 H2032 H 0.61171 0.44401 0.81930
 O2033 O 0.52331 0.37914 0.91241
 O2034 O 0.52319 0.35092 0.88382
 C2035 C 0.53158 0.35941 0.90366
 C2036 C 0.55192 0.34675 0.91601
 C2037 C 0.56202 0.32575 0.90560
 H2038 H 0.55318 0.31784 0.88991
 O2039 O 0.47604 0.61964 0.91131
 O2040 O 0.47601 0.64764 0.88247
 C2041 C 0.46772 0.63931 0.90245
 C2042 C 0.44776 0.65226 0.91510
 C2043 C 0.43834 0.67395 0.90541
 H2044 H 0.44597 0.68106 0.88867
 O2045 O 0.37887 0.58845 0.97649
 O2046 O 0.35075 0.61697 0.97599
 C2047 C 0.35922 0.59702 0.96793
 C2048 C 0.34645 0.58397 0.94800
 C2049 C 0.32481 0.59330 0.93815
 H2050 H 0.31744 0.61004 0.94543
 O2051 O 0.62072 0.41049 0.97619
 O2052 O 0.64861 0.38174 0.97638
 C2053 C 0.64020 0.40145 0.96771
 C2054 C 0.65258 0.41350 0.94690
 C2055 C 0.67297 0.40274 0.93588
 H2056 H 0.68061 0.38645 0.94384
 O2057 O 0.47575 0.58610 0.87819
 O2058 O 0.47561 0.61410 0.84936
 C2059 C 0.46707 0.59465 0.85848
 C2060 C 0.44608 0.58251 0.84673
 C2061 C 0.43508 0.59277 0.82597
 H2062 H 0.44312 0.60867 0.81757
 O2063 O 0.52370 0.41263 0.87919
 O2064 O 0.52373 0.38435 0.85066
 C2065 C 0.53232 0.40389 0.85954
 C2066 C 0.55331 0.41585 0.84754
 C2067 C 0.56422 0.40520 0.82696
 H2068 H 0.55588 0.38937 0.81880
 O2069 O 0.62219 0.47547 0.91301
 O2070 O 0.65045 0.47535 0.88448
 C2071 C 0.64164 0.46675 0.90413
 C2072 C 0.65340 0.44558 0.91603
 C2073 C 0.67387 0.43462 0.90539
 H2074 H 0.68221 0.44313 0.88968
 O2075 O 0.37787 0.52269 0.91356
 O2076 O 0.34939 0.52258 0.88528
 C2077 C 0.35819 0.53113 0.90494
 C2078 C 0.34589 0.55167 0.91737
 C2079 C 0.32430 0.56134 0.90780
 H2080 H 0.31672 0.55339 0.89144
 O2081 O 0.41239 0.62147 0.97617
 O2082 O 0.38436 0.65007 0.97573
 C2083 C 0.40396 0.64112 0.96743
 C2084 C 0.41666 0.65320 0.94688
 C2085 C 0.40753 0.67488 0.93691
 H2086 H 0.39129 0.68284 0.94463
 O2087 O 0.58716 0.37769 0.97672
 O2088 O 0.61501 0.34890 0.97698
 C2089 C 0.59557 0.35788 0.96834
 C2090 C 0.58323 0.34590 0.94753
 C2091 C 0.59325 0.32503 0.93664
 H2092 H 0.60923 0.31673 0.94459
 O2093 O 0.58924 0.52338 0.87973
 O2094 O 0.61757 0.52336 0.85126
 C2095 C 0.59791 0.53180 0.85995
 C2096 C 0.58551 0.55224 0.84747
 C2097 C 0.59609 0.56326 0.82687
 H2098 H 0.61256 0.55568 0.81926
 O2099 O 0.41089 0.47520 0.87982
 O2100 O 0.38258 0.47528 0.85136
 C2101 C 0.40233 0.46696 0.85993
 C2102 C 0.41516 0.44703 0.84706
 C2103 C 0.40561 0.43713 0.82544
 H2104 H 0.38886 0.44441 0.81818
 O2105 O 0.52344 0.61977 0.91096
 O2106 O 0.52332 0.64777 0.88211
 C2107 C 0.53174 0.63942 0.90202
 C2108 C 0.55186 0.65230 0.91452
 C2109 C 0.56134 0.67396 0.90478
 H2110 H 0.55365 0.68113 0.88811
 O2111 O 0.47591 0.37938 0.91232
 O2112 O 0.47589 0.35117 0.88372
 C2113 C 0.46754 0.35969 0.90359
 C2114 C 0.44749 0.34692 0.91630
 C2115 C 0.43781 0.32537 0.90660
 H2116 H 0.44524 0.31828 0.88977
 O2117 O 0.62101 0.58824 0.97591
 O2118 O 0.64911 0.61680 0.97593
 C2119 C 0.64074 0.59693 0.96764
 C2120 C 0.65365 0.58419 0.94765
 C2121 C 0.67490 0.59410 0.93755
 H2122 H 0.68188 0.61103 0.94477
 O2123 O 0.37862 0.41103 0.97698
 O2124 O 0.35065 0.38232 0.97727
 C2125 C 0.35908 0.40202 0.96862
 C2126 C 0.34670 0.41395 0.94785
 C2127 C 0.32636 0.40305 0.93694
 H2128 H 0.31861 0.38696 0.94521
 Cu2129 Cu 0.49970 0.39883 0.89849
 Cu2130 Cu 0.49971 0.36493 0.86420
 Cu2131 Cu 0.49968 0.59998 0.89749
 Cu2132 Cu 0.49956 0.63356 0.86287
 Cu2133 Cu 0.39712 0.49883 0.89956
 Cu2134 Cu 0.36304 0.49887 0.86548
 Cu2135 Cu 0.60290 0.49955 0.89935
 Cu2136 Cu 0.63684 0.49941 0.86512
 C2137 C 0.43620 0.43678 0.85719
 H2138 H 0.44345 0.44407 0.87406
 C2139 C 0.41697 0.41739 0.81369
 C2140 C 0.56405 0.56207 0.85721
 H2141 H 0.55616 0.55413 0.87350
 C2142 C 0.58600 0.58438 0.81649
 C2143 C 0.35646 0.43514 0.93749
 H2144 H 0.37252 0.44328 0.94545
 C2145 C 0.31642 0.41238 0.91520
 C2146 C 0.64381 0.56298 0.93742
 H2147 H 0.62718 0.55549 0.94485
 C2148 C 0.68660 0.58295 0.91763
 C2149 C 0.43695 0.35699 0.93733
 H2150 H 0.44407 0.37384 0.94465
 C2151 C 0.41809 0.31353 0.91784
 C2152 C 0.56268 0.64218 0.93539
 H2153 H 0.55569 0.62528 0.94275
 C2154 C 0.58121 0.68578 0.91579
 C2155 C 0.43557 0.56185 0.85751
 H2156 H 0.44350 0.55422 0.87391
 C2157 C 0.41336 0.58317 0.81643
 C2158 C 0.56389 0.43668 0.85788
 H2159 H 0.55597 0.44464 0.87413
 C2160 C 0.58607 0.41441 0.81730
 C2161 C 0.56258 0.35663 0.93703
 H2162 H 0.55514 0.37311 0.94487
 C2163 C 0.58338 0.31529 0.91504
 C2164 C 0.43701 0.64223 0.93606
 H2165 H 0.44390 0.62528 0.94338
 C2166 C 0.41863 0.68590 0.91656
 C2167 C 0.35660 0.56288 0.93774
 H2168 H 0.37346 0.55575 0.94499
 C2169 C 0.31308 0.58173 0.91848
 C2170 C 0.64292 0.43488 0.93679
 H2171 H 0.62682 0.44292 0.94478
 C2172 C 0.68319 0.41253 0.91443
 O2173 O 0.52292 0.41356 1.12322
 O2174 O 0.52269 0.38542 1.15192
 C2175 C 0.53140 0.40486 1.14296
 C2176 C 0.55256 0.41661 1.15477
 C2177 C 0.56373 0.40567 1.17505
 H2178 H 0.55523 0.39000 1.18339
 O2179 O 0.47597 0.58769 1.12118
 O2180 O 0.47630 0.61586 1.14980
 C2181 C 0.46772 0.59627 1.14105
 C2182 C 0.44734 0.58389 1.15363
 C2183 C 0.43769 0.59360 1.17526
 H2184 H 0.44557 0.61002 1.18269
 O2185 O 0.37736 0.52476 1.08773
 O2186 O 0.34894 0.52491 1.11609
 C2187 C 0.35767 0.53324 1.09631
 C2188 C 0.34533 0.55357 1.08361
 C2189 C 0.32363 0.56337 1.09285
 H2190 H 0.31573 0.55558 1.10917
 O2191 O 0.62114 0.47575 1.08740
 O2192 O 0.64965 0.47605 1.11565
 C2193 C 0.64093 0.46750 1.09597
 C2194 C 0.65344 0.44720 1.08338
 C2195 C 0.67510 0.43756 1.09283
 H2196 H 0.68270 0.44536 1.10926
 O2197 O 0.58707 0.37855 1.02461
 O2198 O 0.61497 0.34982 1.02503
 C2199 C 0.59553 0.35898 1.03351
 C2200 C 0.58325 0.34740 1.05465
 C2201 C 0.59328 0.32661 1.06566
 H2202 H 0.60906 0.31811 1.05754
 O2203 O 0.41197 0.62222 1.02401
 O2204 O 0.38391 0.65080 1.02367
 C2205 C 0.40344 0.64203 1.03233
 C2206 C 0.41600 0.65445 1.05282
 C2207 C 0.40667 0.67605 1.06284
 H2208 H 0.39031 0.68383 1.05518
 O2209 O 0.41057 0.47734 1.12133
 O2210 O 0.38220 0.47758 1.14976
 C2211 C 0.40181 0.46901 1.14110
 C2212 C 0.41387 0.44836 1.15352
 C2213 C 0.40290 0.43741 1.17389
 H2214 H 0.38679 0.44559 1.18161
 O2215 O 0.58776 0.52341 1.12058
 O2216 O 0.61621 0.52360 1.14890
 C2217 C 0.59656 0.53205 1.14019
 C2218 C 0.58452 0.55291 1.15233
 C2219 C 0.59522 0.56377 1.17288
 H2220 H 0.61109 0.55542 1.18092
 O2221 O 0.47566 0.37995 1.08980
 O2222 O 0.47562 0.35175 1.11844
 C2223 C 0.46740 0.36018 1.09850
 C2224 C 0.44754 0.34727 1.08571
 C2225 C 0.43802 0.32555 1.09527
 H2226 H 0.44554 0.31831 1.11199
 O2227 O 0.52315 0.62119 1.08746
 O2228 O 0.52333 0.64942 1.11604
 C2229 C 0.53156 0.64088 1.09613
 C2230 C 0.55168 0.65354 1.08343
 C2231 C 0.56181 0.67475 1.09344
 H2232 H 0.55451 0.68180 1.11034
 O2233 O 0.37909 0.41177 1.02469
 O2234 O 0.35115 0.38305 1.02503
 C2235 C 0.35959 0.40292 1.03331
 C2236 C 0.34720 0.41522 1.05391
 C2237 C 0.32680 0.40448 1.06486
 H2238 H 0.31910 0.38830 1.05675
 O2239 O 0.62035 0.58856 1.02359
 O2240 O 0.64841 0.61718 1.02373
 C2241 C 0.63980 0.59747 1.03226
 C2242 C 0.65196 0.58524 1.05307
 C2243 C 0.67245 0.59576 1.06414
 H2244 H 0.68024 0.61207 1.05634
 O2245 O 0.52363 0.58788 1.12086
 O2246 O 0.52391 0.61614 1.14940
 C2247 C 0.53236 0.59657 1.14049
 C2248 C 0.55327 0.58444 1.15245
 C2249 C 0.56436 0.59505 1.17297
 H2250 H 0.55634 0.61111 1.18103
 O2251 O 0.47516 0.41380 1.12270
 O2252 O 0.47495 0.38558 1.15130
 C2253 C 0.46644 0.40511 1.14233
 C2254 C 0.44539 0.41714 1.15416
 C2255 C 0.43407 0.40643 1.17451
 H2256 H 0.44205 0.39039 1.18267
 O2257 O 0.62091 0.52342 1.08720
 O2258 O 0.64932 0.52361 1.11556
 C2259 C 0.64048 0.53207 1.09589
 C2260 C 0.65241 0.55305 1.08383
 C2261 C 0.67305 0.56368 1.09439
 H2262 H 0.68140 0.55491 1.10994
 O2263 O 0.37761 0.47704 1.08788
 O2264 O 0.34925 0.47713 1.11632
 C2265 C 0.35810 0.46841 1.09674
 C2266 C 0.34637 0.44721 1.08487
 C2267 C 0.32603 0.43605 1.09562
 H2268 H 0.31780 0.44431 1.11152
 O2269 O 0.58703 0.62164 1.02300
 O2270 O 0.61505 0.65028 1.02291
 C2271 C 0.59544 0.64148 1.03134
 C2272 C 0.58283 0.65391 1.05171
 C2273 C 0.59263 0.67517 1.06195
 H2274 H 0.60918 0.68266 1.05440
 O2275 O 0.41235 0.37856 1.02482
 O2276 O 0.38442 0.34982 1.02503
 C2277 C 0.40397 0.35879 1.03339
 C2278 C 0.41661 0.34657 1.05383
 C2279 C 0.40736 0.32487 1.06365
 H2280 H 0.39111 0.31702 1.05585
 O2281 O 0.58825 0.47579 1.12131
 O2282 O 0.61679 0.47597 1.14953
 C2283 C 0.59710 0.46745 1.14105
 C2284 C 0.58492 0.44694 1.15365
 C2285 C 0.59591 0.43561 1.17384
 H2286 H 0.61248 0.44319 1.18123
 O2287 O 0.41084 0.52477 1.12100
 O2288 O 0.38250 0.52508 1.14946
 C2289 C 0.40232 0.53323 1.14081
 C2290 C 0.41527 0.55322 1.15348
 C2291 C 0.40594 0.56318 1.17517
 H2292 H 0.38929 0.55590 1.18273
 O2293 O 0.47570 0.62136 1.08811
 O2294 O 0.47597 0.64954 1.11674
 C2295 C 0.46743 0.64105 1.09695
 C2296 C 0.44723 0.65384 1.08447
 C2297 C 0.43760 0.67539 1.09425
 H2298 H 0.44518 0.68254 1.11099
 O2299 O 0.52306 0.38055 1.08965
 O2300 O 0.52295 0.35245 1.11839
 C2301 C 0.53148 0.36096 1.09856
 C2302 C 0.55206 0.34846 1.08640
 C2303 C 0.56236 0.32765 1.09703
 H2304 H 0.55374 0.31985 1.11294
 O2305 O 0.62081 0.41122 1.02381
 O2306 O 0.64883 0.38258 1.02414
 C2307 C 0.64045 0.40254 1.03226
 C2308 C 0.65319 0.41541 1.05226
 C2309 C 0.67484 0.40604 1.06198
 H2310 H 0.68226 0.38944 1.05447
 O2311 O 0.37870 0.58902 1.02409
 O2312 O 0.35054 0.61751 1.02365
 C2313 C 0.35897 0.59779 1.03226
 C2314 C 0.34610 0.58525 1.05240
 C2315 C 0.32447 0.59485 1.06196
 H2316 H 0.31735 0.61152 1.05434
 Cu2317 Cu 0.49916 0.39986 1.10354
 Cu2318 Cu 0.49901 0.36605 1.13794
 Cu2319 Cu 0.49957 0.60167 1.10157
 Cu2320 Cu 0.49989 0.63552 1.13590
 Cu2321 Cu 0.39842 0.39780 1.00085
 Cu2322 Cu 0.36484 0.36335 1.00121
 Cu2323 Cu 0.60112 0.39731 1.00030
 Cu2324 Cu 0.63461 0.36282 1.00071
 Cu2325 Cu 0.39834 0.60249 1.00024
 Cu2326 Cu 0.36461 0.63673 0.99969
 Cu2327 Cu 0.60112 0.60203 0.99941
 Cu2328 Cu 0.63480 0.63637 0.99938
 Cu2329 Cu 0.39688 0.50103 1.10159
 Cu2330 Cu 0.36284 0.50128 1.13572
 Cu2331 Cu 0.60167 0.49949 1.10129
 Cu2332 Cu 0.63583 0.49981 1.13524
 C2333 C 0.56326 0.43727 1.14425
 H2334 H 0.55506 0.44546 1.12827
 C2335 C 0.58609 0.41425 1.18406
 C2336 C 0.43624 0.56346 1.14309
 H2337 H 0.44334 0.55614 1.12618
 C2338 C 0.41738 0.58301 1.18668
 C2339 C 0.35619 0.56442 1.06314
 H2340 H 0.37313 0.55721 1.05616
 C2341 C 0.31258 0.58368 1.08179
 C2342 C 0.64287 0.43625 1.06282
 H2343 H 0.62597 0.44334 1.05566
 C2344 C 0.68646 0.41739 1.08184
 C2345 C 0.56265 0.35823 1.06521
 H2346 H 0.55515 0.37461 1.05722
 C2347 C 0.58365 0.31714 1.08750
 C2348 C 0.43654 0.64375 1.06354
 H2349 H 0.44367 0.62694 1.05614
 C2350 C 0.41775 0.68720 1.08318
 C2351 C 0.43513 0.43812 1.14379
 H2352 H 0.44337 0.44616 1.12774
 C2353 C 0.41215 0.41575 1.18391
 C2354 C 0.56353 0.56338 1.14223
 H2355 H 0.55549 0.55544 1.12605
 C2356 C 0.58600 0.58553 1.18273
 C2357 C 0.43694 0.35742 1.06475
 H2358 H 0.44392 0.37438 1.05752
 C2359 C 0.41832 0.31373 1.08398
 C2360 C 0.56208 0.64348 1.06232
 H2361 H 0.55465 0.62686 1.05478
 C2362 C 0.58192 0.68620 1.08248
 C2363 C 0.35684 0.43661 1.06403
 H2364 H 0.37291 0.44468 1.05601
 C2365 C 0.31672 0.41402 1.08644
 C2366 C 0.64200 0.56393 1.06314
 H2367 H 0.62578 0.55611 1.05520
 C2368 C 0.68256 0.58573 1.08552
 C2369 C 1.11993 1.11836 1.24208
 C2370 C 1.13687 1.10217 1.22686
 C2371 C 1.12577 1.09126 1.20761
 C2372 C 1.09841 1.09714 1.20530
 C2373 C 1.08754 1.09076 1.23034
 C2374 C 1.09873 1.10183 1.24949
 C2375 C 1.10911 1.13622 1.22340
 C2376 C 1.09796 1.12518 1.20417
 H2377 H 1.15633 1.10090 1.22962
 H2378 H 1.13628 1.08136 1.19413
 H2379 H 1.07224 1.07854 1.23277
 H2380 H 1.09300 1.09908 1.26826
 H2381 H 1.11089 1.15584 1.22467
 H2382 H 1.09059 1.13554 1.18903
 C2383 C 1.11979 0.61818 0.74233
 C2384 C 1.09980 0.59990 0.74893
 C2385 C 1.08909 0.58926 0.72926
 C2386 C 1.09921 0.59775 0.70454
 C2387 C 1.09700 0.62573 0.70506
 C2388 C 1.10765 0.63633 0.72481
 C2389 C 1.13754 0.60401 0.72600
 C2390 C 1.12689 0.59352 0.70622
 H2391 H 1.09448 0.59568 0.76756
 H2392 H 1.07457 0.57603 0.73110
 H2393 H 1.08923 0.63654 0.69044
 H2394 H 1.10854 0.65592 0.72697
 H2395 H 1.15707 0.60381 0.72857
 H2396 H 1.13770 0.58500 0.69204
 C2397 C 0.61939 1.11952 0.74222
 C2398 C 0.63701 1.10622 0.72497
 C2399 C 0.62599 1.09579 0.70535
 C2400 C 0.59816 1.09926 0.70467
 C2401 C 0.58913 1.08996 0.72951
 C2402 C 0.60015 1.10050 0.74905
 C2403 C 0.60615 1.13766 0.72544
 C2404 C 0.59516 1.12714 0.70584
 H2405 H 0.65662 1.10637 0.72694
 H2406 H 0.63650 1.08749 0.69081
 H2407 H 0.57515 1.07619 0.73153
 H2408 H 0.59556 1.09570 0.76773
 H2409 H 0.60659 1.15725 0.72784
 H2410 H 0.58675 1.13804 0.69167
 C2411 C 0.61951 0.61880 1.24154
 C2412 C 0.60698 0.63681 1.22416
 C2413 C 0.59626 0.62608 1.20453
 C2414 C 0.59876 0.59811 1.20400
 C2415 C 0.62650 0.59415 1.20540
 C2416 C 0.63724 0.60481 1.22504
 C2417 C 0.59981 0.60031 1.24838
 C2418 C 0.58902 0.58953 1.22884
 H2419 H 0.60758 0.65642 1.22635
 H2420 H 0.58818 0.63679 1.19001
 H2421 H 0.63722 0.58542 1.19128
 H2422 H 0.65678 0.60464 1.22756
 H2423 H 0.59481 0.59600 1.26707
 H2424 H 0.57480 0.57600 1.23086
 C2425 C 0.88322 0.88587 1.24700
 C2426 C 0.87550 0.87510 1.22232
 C2427 C 0.88620 0.88591 1.20271
 C2428 C 0.90384 0.90656 1.20927
 C2429 C 0.88883 0.92410 1.22525
 C2430 C 0.87802 0.91332 1.24479
 C2431 C 0.91112 0.88426 1.24710
 C2432 C 0.92187 0.89512 1.22751
 H2433 H 0.86244 0.86042 1.22038
 H2434 H 0.88224 0.88048 1.18407
 H2435 H 0.88797 0.94362 1.22261
 H2436 H 0.86799 0.92387 1.25814
 H2437 H 0.92162 0.87601 1.26169
 H2438 H 0.94147 0.89637 1.22587
 C2439 C 0.87917 0.38093 0.74135
 C2440 C 0.89071 0.36311 0.72304
 C2441 C 0.90155 0.37417 0.70363
 C2442 C 0.90016 0.40221 0.70418
 C2443 C 0.87263 0.40721 0.70622
 C2444 C 0.86175 0.39623 0.72563
 C2445 C 0.89974 0.39838 0.74846
 C2446 C 0.91063 0.40945 0.72912
 H2447 H 0.88953 0.34346 0.72457
 H2448 H 0.90919 0.36376 0.68866
 H2449 H 0.86198 0.41661 0.69250
 H2450 H 0.84222 0.39684 0.72814
 H2451 H 0.90527 0.40180 0.76717
 H2452 H 0.92541 0.42231 0.73136
 C2453 C 0.37961 0.88280 0.74201
 C2454 C 0.40081 0.89959 0.74876
 C2455 C 0.41151 0.91054 0.72925
 C2456 C 0.40020 0.90381 0.70454
 C2457 C 0.40084 0.87576 0.70372
 C2458 C 0.39018 0.86484 0.72332
 C2459 C 0.36223 0.89872 0.72696
 C2460 C 0.37286 0.90953 0.70734
 H2461 H 0.40682 0.90270 0.76738
 H2462 H 0.42668 0.92299 0.73123
 H2463 H 0.40801 0.86529 0.68855
 H2464 H 0.38860 0.84523 0.72486
 H2465 H 0.34281 0.89982 0.73008
 H2466 H 0.36202 0.91915 0.69394
 C2467 C 0.37781 0.38146 1.24174
 C2468 C 0.39749 0.39980 1.24913
 C2469 C 0.40852 0.41095 1.22991
 C2470 C 0.39905 0.40289 1.20482
 C2471 C 0.40148 0.37493 1.20479
 C2472 C 0.39051 0.36380 1.22406
 C2473 C 0.36029 0.39582 1.22529
 C2474 C 0.37130 0.40688 1.20599
 H2475 H 0.40232 0.40379 1.26794
 H2476 H 0.42269 0.42447 1.23234
 H2477 H 0.40960 0.36454 1.19006
 H2478 H 0.38976 0.34413 1.22567
 H2479 H 0.34070 0.39583 1.22745
 H2480 H 0.36072 0.41578 1.19188
 C2481 C 0.88058 1.11944 0.75824
 C2482 C 0.86308 1.10463 0.77427
 C2483 C 0.87399 1.09350 0.79354
 C2484 C 0.90166 1.09786 0.79506
 C2485 C 0.91154 1.09027 0.76996
 C2486 C 0.90058 1.10152 0.75079
 C2487 C 0.89284 1.13708 0.77618
 C2488 C 0.90372 1.12587 0.79546
 H2489 H 0.84352 1.10439 0.77190
 H2490 H 0.86336 1.08433 0.80745
 H2491 H 0.92594 1.07702 0.76750
 H2492 H 0.90564 1.09793 0.73197
 H2493 H 0.89194 1.15674 0.77461
 H2494 H 0.91166 1.13617 0.81034
 C2495 C 0.88516 0.61385 0.25242
 C2496 C 0.88189 0.58610 0.25290
 C2497 C 0.89306 0.57503 0.27212
 C2498 C 0.90640 0.59274 0.28940
 C2499 C 0.92396 0.60637 0.27224
 C2500 C 0.91286 0.61748 0.25306
 C2501 C 0.87611 0.62264 0.27737
 C2502 C 0.88718 0.61166 0.29662
 H2503 H 0.87266 0.57589 0.23870
 H2504 H 0.89352 0.55539 0.27388
 H2505 H 0.94358 0.60589 0.27384
 H2506 H 0.92317 0.62652 0.23881
 H2507 H 0.86212 0.63636 0.27970
 H2508 H 0.88259 0.61600 0.31541
 C2509 C 0.38026 1.11778 0.25847
 C2510 C 0.39159 1.13590 0.27656
 C2511 C 0.40253 1.12517 0.29608
 C2512 C 0.40138 1.09713 0.29579
 C2513 C 0.37388 1.09184 0.29378
 C2514 C 0.36297 1.10246 0.27423
 C2515 C 0.40099 1.10052 0.25150
 C2516 C 0.41198 1.08975 0.27093
 H2517 H 0.39017 1.15551 0.27478
 H2518 H 0.41006 1.13581 0.31094
 H2519 H 0.36326 1.08255 0.30762
 H2520 H 0.34348 1.10159 0.27151
 H2521 H 0.40656 1.09705 0.23280
 H2522 H 0.42697 1.07711 0.26881
 C2523 C 0.38069 0.61616 0.75701
 C2524 C 0.36299 0.60078 0.77227
 C2525 C 0.37336 0.59013 0.79210
 C2526 C 0.40078 0.59548 0.79490
 C2527 C 0.41208 0.58815 0.77034
 C2528 C 0.40163 0.59893 0.75060
 C2529 C 0.39149 0.63427 0.77543
 C2530 C 0.40187 0.62351 0.79525
 H2531 H 0.34358 0.59989 0.76903
 H2532 H 0.36231 0.58088 0.80561
 H2533 H 0.42708 0.57546 0.76865
 H2534 H 0.40772 0.59546 0.73207
 H2535 H 0.39024 0.65388 0.77358
 H2536 H 0.40910 0.63411 0.81029
 C2537 C 1.11651 0.88570 0.75388
 C2538 C 1.08865 0.88361 0.75405
 C2539 C 1.07789 0.89479 0.77341
 C2540 C 1.09590 0.90695 0.79118
 C2541 C 1.11393 0.88678 0.79810
 C2542 C 1.12465 0.87572 0.77870
 C2543 C 1.12130 0.91322 0.75520
 C2544 C 1.11047 0.92436 0.77457
 H2545 H 1.07814 0.87527 0.73954
 H2546 H 1.05829 0.89608 0.77499
 H2547 H 1.11800 0.88169 0.81682
 H2548 H 1.13782 0.86119 0.78083
 H2549 H 1.13112 0.92336 0.74136
 H2550 H 1.11092 0.94396 0.77668
 C2551 C 1.11526 0.38531 0.25399
 C2552 C 1.08743 0.38299 0.25375
 C2553 C 1.07628 0.39424 0.27285
 C2554 C 1.09395 0.40672 0.29073
 C2555 C 1.11203 0.38676 0.29813
 C2556 C 1.12311 0.37560 0.27900
 C2557 C 1.11982 0.41287 0.25510
 C2558 C 1.10861 0.42409 0.27416
 H2559 H 1.07723 0.37434 0.23919
 H2560 H 1.05666 0.39530 0.27419
 H2561 H 1.11583 0.38185 0.31696
 H2562 H 1.13634 0.36118 0.28146
 H2563 H 1.12965 0.42300 0.24126
 H2564 H 1.10876 0.44373 0.27600
 C2565 C 0.61702 0.88489 0.25409
 C2566 C 0.58914 0.88301 0.25365
 C2567 C 0.57802 0.89429 0.27274
 C2568 C 0.59571 0.90640 0.29086
 C2569 C 0.61344 0.88611 0.29824
 C2570 C 0.62452 0.87492 0.27911
 C2571 C 0.62198 0.91236 0.25543
 C2572 C 0.61078 0.92364 0.27450
 H2573 H 0.57890 0.87461 0.23898
 H2574 H 0.55840 0.89561 0.27399
 H2575 H 0.61704 0.88105 0.31706
 H2576 H 0.63753 0.86031 0.28159
 H2577 H 0.63215 0.92239 0.24176
 H2578 H 0.61124 0.94326 0.27645
 C2579 C 0.62001 0.38091 0.75889
 C2580 C 0.63778 0.39355 0.77639
 C2581 C 0.62682 0.40427 0.79591
 C2582 C 0.59888 0.40168 0.79616
 C2583 C 0.59056 0.41138 0.77123
 C2584 C 0.60156 0.40056 0.75182
 C2585 C 0.60592 0.36314 0.77531
 C2586 C 0.59500 0.37390 0.79480
 H2587 H 0.65738 0.39293 0.77445
 H2588 H 0.63735 0.41232 0.81056
 H2589 H 0.57712 0.42565 0.76904
 H2590 H 0.59753 0.40559 0.73308
 H2591 H 0.60582 0.34357 0.77281
 H2592 H 0.58612 0.36318 0.80884
 C2593 C 1.24083 1.11978 1.11982
 C2594 C 1.24733 1.10023 1.10097
 C2595 C 1.22774 1.08952 1.09034
 C2596 C 1.20319 1.09921 1.09941
 C2597 C 1.20409 1.09645 1.12745
 C2598 C 1.22378 1.10707 1.13805
 C2599 C 1.22427 1.13767 1.10615
 C2600 C 1.20457 1.12703 1.09563
 H2601 H 1.26584 1.09532 1.09624
 H2602 H 1.22953 1.07548 1.07651
 H2603 H 1.18970 1.08843 1.13834
 H2604 H 1.22611 1.10765 1.15772
 H2605 H 1.22692 1.15723 1.10599
 H2606 H 1.19048 1.13786 1.08708
 C2607 C 1.24183 0.61884 0.61808
 C2608 C 1.22548 0.60502 0.63613
 C2609 C 1.20580 0.59443 0.62555
 C2610 C 1.20421 0.59829 0.59765
 C2611 C 1.20491 0.62624 0.59497
 C2612 C 1.22459 0.63690 0.60551
 C2613 C 1.24834 0.60020 0.59831
 C2614 C 1.22875 0.58950 0.58767
 H2615 H 1.22822 0.60484 0.65575
 H2616 H 1.19182 0.58575 0.63647
 H2617 H 1.19043 0.63702 0.58702
 H2618 H 1.22686 0.65649 0.60604
 H2619 H 1.26684 0.59578 0.59309
 H2620 H 1.23052 0.57595 0.57338
 C2621 C 0.74148 1.11964 0.61955
 C2622 C 0.72616 1.10435 0.63733
 C2623 C 0.70651 1.09366 0.62682
 C2624 C 0.70391 1.09888 0.59922
 C2625 C 0.70359 1.12694 0.59802
 C2626 C 0.72326 1.13773 0.60851
 C2627 C 0.74795 1.10232 0.59860
 C2628 C 0.72839 1.09150 0.58803
 H2629 H 0.72917 1.10361 0.65690
 H2630 H 0.69300 1.08440 0.63783
 H2631 H 0.68857 1.13754 0.59087
 H2632 H 0.72503 1.15734 0.60987
 H2633 H 0.76642 1.09883 0.59261
 H2634 H 0.73018 1.07871 0.57304
 C2635 C 0.74120 0.61850 1.11945
 C2636 C 0.72346 0.63674 1.10784
 C2637 C 0.70390 0.62617 1.09695
 C2638 C 0.70378 0.59813 1.09841
 C2639 C 0.72840 0.59030 1.08784
 C2640 C 0.74787 0.60092 1.09877
 C2641 C 0.72530 0.60357 1.13699
 C2642 C 0.70572 0.59311 1.12612
 H2643 H 0.72553 0.65634 1.10898
 H2644 H 0.68930 0.63696 1.08926
 H2645 H 0.73031 0.57748 1.07290
 H2646 H 0.76640 0.59716 1.09318
 H2647 H 0.72800 0.60278 1.15660
 H2648 H 0.69190 0.58396 1.13685
 C2649 C 1.24175 0.87956 0.88206
 C2650 C 1.24894 0.89951 0.90024
 C2651 C 1.22975 0.91047 0.91134
 C2652 C 1.20488 0.90064 0.90339
 C2653 C 1.20483 0.90281 0.87527
 C2654 C 1.22412 0.89194 0.86419
 C2655 C 1.22562 0.86200 0.89668
 C2656 C 1.20634 0.87290 0.90770
 H2657 H 1.26761 0.90456 0.90407
 H2658 H 1.23205 0.92487 0.92470
 H2659 H 1.19019 0.91084 0.86476
 H2660 H 1.22588 0.89114 0.84447
 H2661 H 1.22814 0.84243 0.89703
 H2662 H 1.19249 0.86224 0.91687
 C2663 C 1.24564 0.38458 0.38440
 C2664 C 1.22125 0.37299 0.37749
 C2665 C 1.20168 0.38380 0.38809
 C2666 C 1.20801 0.40534 0.40480
 C2667 C 1.22658 0.39505 0.42317
 C2668 C 1.24616 0.38416 0.41254
 C2669 C 1.24289 0.41174 0.37811
 C2670 C 1.22342 0.42257 0.38879
 H2671 H 1.21949 0.35742 0.36543
 H2672 H 1.18326 0.37747 0.38499
 H2673 H 1.22508 0.39711 0.44282
 H2674 H 1.26106 0.37688 0.42326
 H2675 H 1.25617 0.42223 0.36791
 H2676 H 1.22092 0.44210 0.38768
 C2677 C 0.74099 0.88043 0.38121
 C2678 C 0.72483 0.89469 0.36337
 C2679 C 0.70534 0.90546 0.37410
 C2680 C 0.70371 0.90129 0.40195
 C2681 C 0.70394 0.87329 0.40426
 C2682 C 0.72347 0.86245 0.39356
 C2683 C 0.74779 0.89869 0.40121
 C2684 C 0.72839 0.90957 0.41199
 H2685 H 0.72742 0.89488 0.34372
 H2686 H 0.69144 0.91433 0.36326
 H2687 H 0.68922 0.86269 0.41205
 H2688 H 0.72539 0.84282 0.39272
 H2689 H 0.76637 0.90280 0.40637
 H2690 H 0.73044 0.92306 0.42632
 C2691 C 0.74183 0.37944 0.88070
 C2692 C 0.72539 0.39349 0.86293
 C2693 C 0.70582 0.40403 0.87378
 C2694 C 0.70440 0.39993 0.90166
 C2695 C 0.70502 0.37194 0.90407
 C2696 C 0.72460 0.36132 0.89324
 C2697 C 0.74853 0.39785 0.90062
 C2698 C 0.72905 0.40852 0.91151
 H2699 H 0.72789 0.39379 0.84328
 H2700 H 0.69181 0.41286 0.86306
 H2701 H 0.69064 0.36114 0.91219
 H2702 H 0.72691 0.34173 0.89264
 H2703 H 0.76708 0.40212 0.90574
 H2704 H 0.73100 0.42192 0.92593
 C2705 C 0.75490 0.88321 1.11488
 C2706 C 0.75489 0.91101 1.11775
 C2707 C 0.77383 0.92228 1.10641
 C2708 C 0.79140 0.90472 1.09329
 C2709 C 0.79883 0.88618 1.11293
 C2710 C 0.77984 0.87500 1.12417
 C2711 C 0.75574 0.87921 1.08706
 C2712 C 0.77467 0.89051 1.07579
 H2713 H 0.74062 0.92111 1.12691
 H2714 H 0.77523 0.94194 1.10571
 H2715 H 0.81756 0.88221 1.11762
 H2716 H 0.78235 0.86151 1.13842
 H2717 H 0.74185 0.86969 1.07680
 H2718 H 0.77641 0.89066 1.05606
 C2719 C 0.75864 0.38184 0.61913
 C2720 C 0.77552 0.36399 0.60579
 C2721 C 0.79505 0.37477 0.59508
 C2722 C 0.79599 0.40266 0.59836
 C2723 C 0.77131 0.41182 0.58913
 C2724 C 0.75187 0.40098 0.59993
 C2725 C 0.77545 0.39513 0.63714
 C2726 C 0.79499 0.40587 0.62637
 H2727 H 0.77316 0.34440 0.60595
 H2728 H 0.80930 0.36406 0.58663
 H2729 H 0.76932 0.42576 0.57522
 H2730 H 0.73329 0.40567 0.59528
 H2731 H 0.77313 0.39484 0.65682
 H2732 H 0.80923 0.41426 0.63714
 C2733 C 0.25987 0.87943 0.61965
 C2734 C 0.27654 0.86184 0.60574
 C2735 C 0.29576 0.87285 0.59471
 C2736 C 0.29660 0.90071 0.59827
 C2737 C 0.27166 0.90983 0.58971
 C2738 C 0.25254 0.89875 0.60084
 C2739 C 0.27700 0.89262 0.63742
 C2740 C 0.29622 0.90362 0.62632
 H2741 H 0.27438 0.84222 0.60584
 H2742 H 0.30995 0.86227 0.58599
 H2743 H 0.26927 0.92391 0.57602
 H2744 H 0.23383 0.90337 0.59667
 H2745 H 0.27501 0.89222 0.65714
 H2746 H 0.31057 0.91216 0.63683
 C2747 C 0.25872 0.37975 1.12002
 C2748 C 0.27583 0.36211 1.10673
 C2749 C 0.29521 0.37313 1.09601
 C2750 C 0.29574 0.40105 1.09920
 C2751 C 0.27093 0.40984 1.08995
 C2752 C 0.25166 0.39875 1.10079
 C2753 C 0.27535 0.39332 1.13799
 C2754 C 0.29472 0.40433 1.12719
 H2755 H 0.27380 0.34248 1.10702
 H2756 H 0.30967 0.36258 1.08772
 H2757 H 0.26873 0.42370 1.07600
 H2758 H 0.23301 0.40312 1.09610
 H2759 H 0.27299 0.39308 1.15767
 H2760 H 0.30882 0.41304 1.13791
 C2761 C 0.75804 1.11764 0.88021
 C2762 C 0.77650 1.13586 0.89061
 C2763 C 0.79631 1.12521 0.90099
 C2764 C 0.79590 1.09714 0.90029
 C2765 C 0.77159 1.09002 0.91203
 C2766 C 0.75188 1.10071 0.90160
 C2767 C 0.77302 1.10200 0.86248
 C2768 C 0.79281 1.09144 0.87285
 H2769 H 0.77464 1.15546 0.88911
 H2770 H 0.81135 1.13590 0.90793
 H2771 H 0.77003 1.07758 0.92735
 H2772 H 0.73352 1.09741 0.90801
 H2773 H 0.76971 1.10091 0.84298
 H2774 H 0.80610 1.08196 0.86176
 C2775 C 0.75367 0.61411 0.38519
 C2776 C 0.77812 0.62402 0.37625
 C2777 C 0.79767 0.61327 0.38684
 C2778 C 0.79124 0.59344 0.40555
 C2779 C 0.77392 0.60593 0.42379
 C2780 C 0.75439 0.61680 0.41314
 C2781 C 0.75499 0.58651 0.38095
 C2782 C 0.77449 0.57568 0.39166
 H2783 H 0.77990 0.63832 0.36269
 H2784 H 0.81617 0.61839 0.38229
 H2785 H 0.77589 0.60505 0.44349
 H2786 H 0.74014 0.62529 0.42383
 H2787 H 0.74104 0.57611 0.37163
 H2788 H 0.77662 0.55607 0.39164
 C2789 C 0.25516 1.11468 0.38372
 C2790 C 0.27992 1.12506 0.37630
 C2791 C 0.29908 1.11377 0.38707
 C2792 C 0.29199 1.09297 0.40443
 C2793 C 0.27394 1.10448 0.42260
 C2794 C 0.25481 1.11588 0.41179
 C2795 C 0.25675 1.08733 0.37808
 C2796 C 0.27584 1.07595 0.38897
 H2797 H 0.28219 1.14008 0.36362
 H2798 H 0.31772 1.11916 0.38355
 H2799 H 0.27533 1.10278 0.44230
 H2800 H 0.24023 1.12400 0.42233
 H2801 H 0.24312 1.07735 0.36789
 H2802 H 0.27780 1.05635 0.38820
 C2803 C 0.25337 0.61395 0.88605
 C2804 C 0.25445 0.58632 0.88201
 C2805 C 0.27373 0.57536 0.89302
 C2806 C 0.29057 0.59306 0.90693
 C2807 C 0.29736 0.61268 0.88814
 C2808 C 0.27800 0.62353 0.87725
 C2809 C 0.25390 0.61685 0.91400
 C2810 C 0.27324 0.60590 0.92491
 H2811 H 0.24060 0.57601 0.87244
 H2812 H 0.27570 0.55574 0.89310
 H2813 H 0.31594 0.61773 0.88387
 H2814 H 0.28005 0.63775 0.86365
 H2815 H 0.23974 0.62575 0.92449
 H2816 H 0.27523 0.60548 0.94462
 C2817 C 1.11484 1.24451 1.11664
 C2818 C 1.12407 1.21947 1.12466
 C2819 C 1.11263 1.20057 1.11354
 C2820 C 1.09288 1.20821 1.09527
 C2821 C 1.07577 1.22498 1.10988
 C2822 C 1.08725 1.24383 1.12111
 C2823 C 1.11726 1.24465 1.08867
 C2824 C 1.10571 1.22581 1.07749
 H2825 H 1.13836 1.21681 1.13804
 H2826 H 1.11719 1.18176 1.11744
 H2827 H 1.05614 1.22341 1.10996
 H2828 H 1.07727 1.25781 1.13082
 H2829 H 1.12617 1.25899 1.07840
 H2830 H 1.10465 1.22453 1.05774
 C2831 C 1.11562 0.74529 0.61536
 C2832 C 1.11821 0.74545 0.58739
 C2833 C 1.10697 0.72645 0.57612
 C2834 C 1.09421 0.70873 0.59382
 C2835 C 1.11393 0.70131 0.61221
 C2836 C 1.12508 0.72034 0.62341
 C2837 C 1.08803 0.74428 0.61966
 C2838 C 1.07683 0.72534 0.60832
 H2839 H 1.12709 0.75986 0.57719
 H2840 H 1.10615 0.72507 0.55637
 H2841 H 1.11875 0.68255 0.61605
 H2842 H 1.13938 0.71784 0.63682
 H2843 H 1.07782 0.75811 0.62936
 H2844 H 1.05721 0.72360 0.60827
 C2845 C 0.61479 1.24665 0.61466
 C2846 C 0.62410 1.22180 0.62319
 C2847 C 0.61289 1.20264 0.61230
 C2848 C 0.59323 1.20983 0.59375
 C2849 C 0.57591 1.22675 0.60794
 C2850 C 0.58718 1.24586 0.61892
 C2851 C 0.61744 1.24632 0.58671
 C2852 C 0.60610 1.22721 0.57577
 H2853 H 0.63835 1.21947 0.63668
 H2854 H 0.61759 1.18393 0.61652
 H2855 H 0.55629 1.22503 0.60796
 H2856 H 0.57708 1.25990 0.62844
 H2857 H 0.62631 1.26054 0.57625
 H2858 H 0.60521 1.22556 0.55604
 C2859 C 0.61611 0.74384 1.11658
 C2860 C 0.61852 0.74438 1.08859
 C2861 C 0.60692 0.72575 1.07712
 C2862 C 0.59401 0.70796 1.09464
 C2863 C 0.61373 0.69997 1.11280
 C2864 C 0.62524 0.71865 1.12421
 C2865 C 0.58854 0.74321 1.12105
 C2866 C 0.57698 0.72461 1.10951
 H2867 H 0.62744 0.75885 1.07851
 H2868 H 0.60586 0.72473 1.05736
 H2869 H 0.61825 0.68108 1.11637
 H2870 H 0.63954 0.71573 1.13753
 H2871 H 0.57863 0.75705 1.13105
 H2872 H 0.55734 0.72314 1.10959
 C2873 C 0.88758 1.24652 0.88455
 C2874 C 0.87721 1.22200 0.87629
 C2875 C 0.88800 1.20245 0.88692
 C2876 C 0.90832 1.20896 0.90500
 C2877 C 0.92588 1.22530 0.89037
 C2878 C 0.91502 1.24479 0.87961
 C2879 C 0.88559 1.24625 0.91256
 C2880 C 0.89648 1.22674 0.92326
 H2881 H 0.86265 1.22017 0.86305
 H2882 H 0.88262 1.18392 0.88277
 H2883 H 0.94543 1.22295 0.88989
 H2884 H 0.92538 1.25848 0.86984
 H2885 H 0.87734 1.26071 0.92319
 H2886 H 0.89761 1.22493 0.94296
 C2887 C 0.88491 0.74571 0.38291
 C2888 C 0.87502 0.72083 0.37517
 C2889 C 0.88633 0.70171 0.38605
 C2890 C 0.90668 0.70895 0.40381
 C2891 C 0.92374 0.72543 0.38873
 C2892 C 0.91234 0.74451 0.37775
 C2893 C 0.88319 0.74584 0.41097
 C2894 C 0.89463 0.72677 0.42188
 H2895 H 0.86026 0.71846 0.36225
 H2896 H 0.88124 0.68300 0.38236
 H2897 H 0.94332 0.72346 0.38804
 H2898 H 0.92225 0.75824 0.36758
 H2899 H 0.87481 0.76029 0.42150
 H2900 H 0.89607 0.72535 0.44159
 C2901 C 0.38288 1.24375 0.38119
 C2902 C 0.36487 1.22461 0.39071
 C2903 C 0.37569 1.20486 0.40106
 C2904 C 0.40371 1.20598 0.40121
 C2905 C 0.41015 1.20975 0.37400
 C2906 C 0.39943 1.22948 0.36368
 C2907 C 0.39897 1.24994 0.40318
 C2908 C 0.40982 1.23027 0.41359
 H2909 H 0.34531 1.22606 0.38874
 H2910 H 0.36522 1.18946 0.40762
 H2911 H 0.42012 1.19687 0.36287
 H2912 H 0.40098 1.23311 0.34427
 H2913 H 0.40158 1.26828 0.41001
 H2914 H 0.42170 1.23185 0.42933
 C2915 C 0.38668 0.74589 0.88432
 C2916 C 0.37612 0.72133 0.87645
 C2917 C 0.38693 0.70186 0.88720
 C2918 C 0.40744 0.70848 0.90501
 C2919 C 0.42495 0.72458 0.89004
 C2920 C 0.41407 0.74398 0.87914
 C2921 C 0.38496 0.74596 0.91235
 C2922 C 0.39586 0.72652 0.92318
 H2923 H 0.36146 0.71940 0.86334
 H2924 H 0.38145 0.68330 0.88329
 H2925 H 0.44449 0.72222 0.88953
 H2926 H 0.42445 0.75755 0.86924
 H2927 H 0.37686 0.76058 0.92287
 H2928 H 0.39716 0.72493 0.94289
 C2929 C 1.12052 0.75887 0.88136
 C2930 C 1.13808 0.77445 0.89656
 C2931 C 1.12741 0.79392 0.90746
 C2932 C 1.09989 0.79610 0.90248
 C2933 C 1.09842 0.79645 0.87430
 C2934 C 1.10908 0.77695 0.86333
 C2935 C 1.09998 0.75201 0.89897
 C2936 C 1.08925 0.77139 0.90998
 H2937 H 1.15754 0.77145 0.89743
 H2938 H 1.13814 0.80737 0.91710
 H2939 H 1.09082 0.81129 0.86372
 H2940 H 1.11015 0.77518 0.84362
 H2941 H 1.09439 0.73341 0.90253
 H2942 H 1.07450 0.76933 0.92297
 C2943 C 1.11535 0.25450 0.38480
 C2944 C 1.08780 0.25536 0.38024
 C2945 C 1.07642 0.27438 0.39127
 C2946 C 1.09361 0.29115 0.40579
 C2947 C 1.10624 0.27362 0.42376
 C2948 C 1.11768 0.25459 0.41278
 C2949 C 1.12481 0.27940 0.37659
 C2950 C 1.11349 0.29848 0.38751
 H2951 H 1.07777 0.24145 0.37046
 H2952 H 1.05681 0.27618 0.39097
 H2953 H 1.10515 0.27511 0.44349
 H2954 H 1.12646 0.24030 0.42321
 H2955 H 1.13919 0.28183 0.36324
 H2956 H 1.11823 0.31722 0.38346
 C2957 C 0.62000 0.75839 0.38140
 C2958 C 0.63758 0.77416 0.39637
 C2959 C 0.62688 0.79366 0.40720
 C2960 C 0.59932 0.79566 0.40239
 C2961 C 0.59769 0.79584 0.37423
 C2962 C 0.60838 0.77633 0.36333
 C2963 C 0.59959 0.75155 0.39918
 C2964 C 0.58883 0.77095 0.41011
 H2965 H 0.65708 0.77137 0.39696
 H2966 H 0.63762 0.80739 0.41644
 H2967 H 0.59017 0.81069 0.36360
 H2968 H 0.60954 0.77457 0.34362
 H2969 H 0.59407 0.73295 0.40286
 H2970 H 0.57411 0.76892 0.42315
 C2971 C 0.61631 0.25572 0.88280
 C2972 C 0.59966 0.26985 0.86528
 C2973 C 0.58901 0.28966 0.87547
 C2974 C 0.59559 0.29367 0.90259
 C2975 C 0.58957 0.26947 0.91527
 C2976 C 0.60037 0.24972 0.90497
 C2977 C 0.63438 0.27495 0.89200
 C2978 C 0.62360 0.29480 0.90224
 H2979 H 0.59810 0.26615 0.84589
 H2980 H 0.57917 0.30250 0.86417
 H2981 H 0.57781 0.26804 0.93112
 H2982 H 0.59784 0.23144 0.91203
 H2983 H 0.65392 0.27353 0.88984
 H2984 H 0.63407 0.31030 0.90854
 C2985 C 0.88027 0.75811 1.11835
 C2986 C 0.89271 0.77533 1.13657
 C2987 C 0.90358 0.79486 1.12590
 C2988 C 0.90132 0.79541 1.09780
 C2989 C 0.91106 0.77069 1.08922
 C2990 C 0.90011 0.75126 1.09994
 C2991 C 0.86271 0.77461 1.10418
 C2992 C 0.87361 0.79414 1.09358
 H2993 H 0.89188 0.77315 1.15625
 H2994 H 0.91151 0.80933 1.13675
 H2995 H 0.92542 0.76867 1.07579
 H2996 H 0.90513 0.73265 1.09570
 H2997 H 0.84316 0.77219 1.10392
 H2998 H 0.86303 0.80827 1.08477
 C2999 C 0.88591 0.25409 0.61370
 C3000 C 0.88270 0.25490 0.58582
 C3001 C 0.89372 0.27426 0.57496
 C3002 C 0.90685 0.29138 0.59296
 C3003 C 0.88755 0.29814 0.61206
 C3004 C 0.87665 0.27873 0.62286
 C3005 C 0.91358 0.25493 0.61738
 C3006 C 0.92455 0.27429 0.60648
 H3007 H 0.87385 0.24074 0.57529
 H3008 H 0.89437 0.27613 0.55524
 H3009 H 0.88285 0.31675 0.61669
 H3010 H 0.86268 0.28075 0.63670
 H3011 H 0.92391 0.24078 0.62648
 H3012 H 0.94415 0.27616 0.60614
 C3013 C 0.38185 0.75793 0.61944
 C3014 C 0.39647 0.77360 0.63743
 C3015 C 0.40726 0.79327 0.62696
 C3016 C 0.40276 0.79549 0.59919
 C3017 C 0.41067 0.77092 0.58851
 C3018 C 0.39978 0.75136 0.59906
 C3019 C 0.36393 0.77589 0.60771
 C3020 C 0.37480 0.79555 0.59725
 H3021 H 0.39679 0.77066 0.65702
 H3022 H 0.41613 0.80700 0.63802
 H3023 H 0.42380 0.76908 0.57384
 H3024 H 0.40361 0.73284 0.59340
 H3025 H 0.34434 0.77405 0.60869
 H3026 H 0.36427 0.81044 0.58970
 C3027 C 0.38600 0.25373 1.11581
 C3028 C 0.38400 0.25400 1.08782
 C3029 C 0.39503 0.27343 1.07711
 C3030 C 0.40697 0.29115 1.09537
 C3031 C 0.38669 0.29778 1.11347
 C3032 C 0.37577 0.27829 1.12411
 C3033 C 0.41347 0.25530 1.12070
 C3034 C 0.42444 0.27473 1.10994
 H3035 H 0.37573 0.23955 1.07720
 H3036 H 0.39633 0.27512 1.05741
 H3037 H 0.38141 0.31635 1.11761
 H3038 H 0.36119 0.28021 1.13733
 H3039 H 0.42379 0.24148 1.13029
 H3040 H 0.44401 0.27691 1.11026
 C3041 C 1.11537 1.11389 0.75251
 C3042 C 1.08755 1.11640 0.75315
 C3043 C 1.07694 1.10534 0.77270
 C3044 C 1.09504 1.09283 0.79018
 C3045 C 1.10900 1.07524 0.77334
 C3046 C 1.11965 1.08620 0.75377
 C3047 C 1.12406 1.12367 0.77724
 C3048 C 1.11350 1.11271 0.79681
 H3049 H 1.07693 1.12500 0.73886
 H3050 H 1.05735 1.10438 0.77456
 H3051 H 1.10905 1.05562 0.77544
 H3052 H 1.12876 1.07574 0.73969
 H3053 H 1.13743 1.13806 0.77922
 H3054 H 1.11786 1.11779 0.81546
 C3055 C 1.11518 0.61430 0.25195
 C3056 C 1.08739 0.61718 0.25254
 C3057 C 1.07657 0.60624 0.27203
 C3058 C 1.09445 0.59343 0.28951
 C3059 C 1.10824 0.57571 0.27264
 C3060 C 1.11911 0.58659 0.25314
 C3061 C 1.12395 0.62391 0.27673
 C3062 C 1.11316 0.61305 0.29625
 H3063 H 1.07692 0.62595 0.23825
 H3064 H 1.05697 0.60557 0.27386
 H3065 H 1.10812 0.55610 0.27473
 H3066 H 1.12835 0.57611 0.23915
 H3067 H 1.13752 0.63810 0.27881
 H3068 H 1.11754 0.61801 0.31493
 C3069 C 0.61962 1.11889 0.25737
 C3070 C 0.63753 1.10604 0.27466
 C3071 C 0.62674 1.09530 0.29428
 C3072 C 0.59884 1.09811 0.29494
 C3073 C 0.59519 1.12593 0.29372
 C3074 C 0.60591 1.13671 0.27411
 C3075 C 0.60088 1.09939 0.25056
 C3076 C 0.59009 1.08858 0.27011
 H3077 H 0.65711 1.10654 0.27256
 H3078 H 0.63741 1.08712 0.30877
 H3079 H 0.58661 1.13664 0.30794
 H3080 H 0.60596 1.15632 0.27182
 H3081 H 0.59650 1.09441 0.23189
 H3082 H 0.57651 1.07441 0.26808
 C3083 C 0.61971 0.61832 0.75810
 C3084 C 0.63763 0.60746 0.77662
 C3085 C 0.62672 0.59658 0.79611
 C3086 C 0.59868 0.59728 0.79533
 C3087 C 0.59305 0.62468 0.79288
 C3088 C 0.60385 0.63555 0.77341
 C3089 C 0.60290 0.59721 0.75109
 C3090 C 0.59193 0.58627 0.77047
 H3091 H 0.65722 0.60908 0.77509
 H3092 H 0.63719 0.58935 0.81124
 H3093 H 0.58330 0.63532 0.80636
 H3094 H 0.60272 0.65504 0.77057
 H3095 H 0.59983 0.59139 0.73240
 H3096 H 0.57949 0.57111 0.76831
 C3097 C 0.88691 0.88471 0.75326
 C3098 C 0.87707 0.87663 0.77816
 C3099 C 0.88818 0.88745 0.79746
 C3100 C 0.90825 0.90554 0.79035
 C3101 C 0.92559 0.89096 0.77373
 C3102 C 0.91440 0.88001 0.75448
 C3103 C 0.88475 0.91260 0.75330
 C3104 C 0.89597 0.92349 0.77256
 H3105 H 0.86260 0.86340 0.78042
 H3106 H 0.88320 0.88342 0.81622
 H3107 H 0.94518 0.89067 0.77566
 H3108 H 0.92453 0.87028 0.74058
 H3109 H 0.87620 0.92301 0.73882
 H3110 H 0.89712 0.94312 0.77412
 C3111 C 0.88032 0.37967 0.25762
 C3112 C 0.89902 0.39914 0.25058
 C3113 C 0.90987 0.41006 0.27001
 C3114 C 0.90120 0.40068 0.29495
 C3115 C 0.87332 0.40347 0.29440
 C3116 C 0.86247 0.39261 0.27492
 C3117 C 0.89409 0.36195 0.27440
 C3118 C 0.90485 0.37285 0.29391
 H3119 H 0.90335 0.40400 0.23185
 H3120 H 0.92341 0.42425 0.26786
 H3121 H 0.86270 0.41168 0.30891
 H3122 H 0.84287 0.39203 0.27296
 H3123 H 0.89387 0.34231 0.27236
 H3124 H 0.91327 0.36223 0.30830
 C3125 C 0.38583 0.88291 0.25363
 C3126 C 0.37638 0.87486 0.27871
 C3127 C 0.38748 0.88603 0.29783
 C3128 C 0.40718 0.90440 0.29044
 C3129 C 0.42460 0.88997 0.27373
 C3130 C 0.41345 0.87868 0.25464
 C3131 C 0.38329 0.91084 0.25355
 C3132 C 0.39446 0.92202 0.27268
 H3133 H 0.36217 0.86141 0.28124
 H3134 H 0.38269 0.88210 0.31666
 H3135 H 0.44421 0.88987 0.27562
 H3136 H 0.42364 0.86887 0.24084
 H3137 H 0.37461 0.92115 0.23908
 H3138 H 0.39527 0.94168 0.27413
 C3139 C 0.38462 0.38442 0.75408
 C3140 C 0.37608 0.37498 0.77898
 C3141 C 0.38693 0.38605 0.79831
 C3142 C 0.40550 0.40570 0.79122
 C3143 C 0.42332 0.39283 0.77371
 C3144 C 0.41239 0.38165 0.75442
 C3145 C 0.38054 0.41210 0.75504
 C3146 C 0.39150 0.42321 0.77431
 H3147 H 0.36258 0.36077 0.78123
 H3148 H 0.38269 0.38125 0.81706
 H3149 H 0.44293 0.39367 0.77533
 H3150 H 0.42274 0.37282 0.74008
 H3151 H 0.37112 0.42236 0.74102
 H3152 H 0.39150 0.44285 0.77623
 C3153 C 1.11737 0.87967 1.24295
 C3154 C 1.10033 0.90064 1.24979
 C3155 C 1.08962 0.91158 1.23029
 C3156 C 1.09684 0.90074 1.20549
 C3157 C 1.12485 0.90164 1.20513
 C3158 C 1.13551 0.89074 1.22472
 C3159 C 1.10188 0.86238 1.22736
 C3160 C 1.09132 0.87327 1.20775
 H3161 H 1.09692 0.90636 1.26845
 H3162 H 1.07707 0.92667 1.23232
 H3163 H 1.13552 0.90906 1.19022
 H3164 H 1.15509 0.88929 1.22652
 H3165 H 1.10078 0.84289 1.23020
 H3166 H 1.08182 0.86263 1.19409
 C3167 C 1.11784 0.38021 0.74280
 C3168 C 1.10047 0.40095 0.74952
 C3169 C 1.08989 0.41189 0.72994
 C3170 C 1.09755 0.40125 0.70517
 C3171 C 1.12555 0.40245 0.70517
 C3172 C 1.13608 0.39156 0.72484
 C3173 C 1.10275 0.36284 0.72690
 C3174 C 1.09232 0.37372 0.70721
 H3175 H 1.09676 0.40655 0.76816
 H3176 H 1.07714 0.42681 0.73188
 H3177 H 1.13633 0.40980 0.69031
 H3178 H 1.15564 0.39010 0.72675
 H3179 H 1.10192 0.34332 0.72959
 H3180 H 1.08317 0.36306 0.69333
 C3181 C 0.61370 0.88590 0.74748
 C3182 C 0.58599 0.88264 0.74704
 C3183 C 0.57493 0.89398 0.72792
 C3184 C 0.59259 0.90744 0.71065
 C3185 C 0.60626 0.92491 0.72786
 C3186 C 0.61734 0.91366 0.74699
 C3187 C 0.62245 0.87702 0.72246
 C3188 C 0.61149 0.88824 0.70330
 H3189 H 0.57580 0.87330 0.76118
 H3190 H 0.55531 0.89452 0.72627
 H3191 H 0.60596 0.94457 0.72622
 H3192 H 0.62652 0.92385 0.76122
 H3193 H 0.63619 0.86308 0.72002
 H3194 H 0.61590 0.88387 0.68448
 C3195 C 0.62048 0.37898 1.24131
 C3196 C 0.60269 0.39905 1.24903
 C3197 C 0.59159 0.41044 1.23001
 C3198 C 0.59911 0.40092 1.20476
 C3199 C 0.62709 0.40278 1.20440
 C3200 C 0.63818 0.39143 1.22347
 C3201 C 0.60556 0.36184 1.22494
 C3202 C 0.59455 0.37321 1.20585
 H3203 H 0.59910 0.40391 1.26790
 H3204 H 0.57858 0.42502 1.23269
 H3205 H 0.63750 0.41089 1.18968
 H3206 H 0.65781 0.39030 1.22491
 H3207 H 0.60501 0.34222 1.22704
 H3208 H 0.58516 0.36293 1.19183
 C3209 C 0.88394 1.11431 1.24591
 C3210 C 0.91167 1.11742 1.24560
 C3211 C 0.92279 1.10610 1.22652
 C3212 C 0.90517 1.09280 1.20913
 C3213 C 0.89132 1.07533 1.22622
 C3214 C 0.88017 1.08657 1.24533
 C3215 C 0.87538 1.12333 1.22088
 C3216 C 0.88641 1.11213 1.20173
 H3217 H 0.92186 1.12661 1.25983
 H3218 H 0.94242 1.10544 1.22500
 H3219 H 0.89156 1.05568 1.22454
 H3220 H 0.87086 1.07639 1.25949
 H3221 H 0.86175 1.13737 1.21841
 H3222 H 0.88217 1.11662 1.18290
 C3223 C 0.88488 0.61647 0.74546
 C3224 C 0.91246 0.62068 0.74484
 C3225 C 0.92389 0.60939 0.72591
 C3226 C 0.90667 0.59502 0.70897
 C3227 C 0.89365 0.57741 0.72656
 C3228 C 0.88221 0.58861 0.74550
 C3229 C 0.87579 0.62460 0.72030
 C3230 C 0.88711 0.61342 0.70132
 H3231 H 0.92238 0.63053 0.75882
 H3232 H 0.94352 0.60939 0.72434
 H3233 H 0.89457 0.55774 0.72521
 H3234 H 0.87336 0.57836 0.75991
 H3235 H 0.86159 0.63803 0.71764
 H3236 H 0.88255 0.61732 0.68243
 C3237 C 0.38492 1.11477 0.74624
 C3238 C 0.41264 1.11806 0.74551
 C3239 C 0.42352 1.10717 0.72605
 C3240 C 0.40571 1.09405 0.70873
 C3241 C 0.39223 1.07620 0.72578
 C3242 C 0.38130 1.08705 0.74525
 C3243 C 0.37590 1.12415 0.72150
 C3244 C 0.38672 1.11337 0.70198
 H3245 H 0.42304 1.12699 0.75975
 H3246 H 0.44312 1.10671 0.72417
 H3247 H 0.39247 1.05659 0.72370
 H3248 H 0.37208 1.07662 0.75930
 H3249 H 0.36215 1.13814 0.71950
 H3250 H 0.38221 1.11823 0.68331
 C3251 C 0.38479 0.61624 1.24595
 C3252 C 0.41238 0.62035 1.24491
 C3253 C 0.42345 0.60910 1.22577
 C3254 C 0.40592 0.59486 1.20904
 C3255 C 0.39312 0.57722 1.22676
 C3256 C 0.38202 0.58839 1.24594
 C3257 C 0.37531 0.62449 1.22098
 C3258 C 0.38631 0.61337 1.20177
 H3259 H 0.42260 0.62997 1.25882
 H3260 H 0.44306 0.60898 1.22396
 H3261 H 0.39388 0.55756 1.22527
 H3262 H 0.37324 0.57817 1.26043
 H3263 H 0.36116 0.63802 1.21860
 H3264 H 0.38153 0.61743 1.18297
 C3265 C 1.11320 1.24709 0.88555
 C3266 C 1.08570 1.24537 0.88081
 C3267 C 1.07490 1.22579 0.89155
 C3268 C 1.09255 1.20939 0.90601
 C3269 C 1.11276 1.20299 0.88777
 C3270 C 1.12349 1.22257 0.87713
 C3271 C 1.11527 1.24668 0.91362
 C3272 C 1.10445 1.22710 0.92427
 H3273 H 1.07527 1.25904 0.87111
 H3274 H 1.05537 1.22332 0.89108
 H3275 H 1.11805 1.18447 0.88343
 H3276 H 1.13794 1.22074 0.86375
 H3277 H 1.12326 1.26119 0.92438
 H3278 H 1.10316 1.22534 0.94397
 C3279 C 1.11377 0.74730 0.38542
 C3280 C 1.08616 0.74612 0.38119
 C3281 C 1.07525 0.72649 0.39171
 C3282 C 1.09290 0.70953 0.40546
 C3283 C 1.11266 0.70318 0.38672
 C3284 C 1.12351 0.72281 0.37628
 C3285 C 1.11637 0.74628 0.41342
 C3286 C 1.10541 0.72667 0.42386
 H3287 H 1.07580 0.76023 0.37203
 H3288 H 1.05566 0.72439 0.39167
 H3289 H 1.11767 0.68467 0.38200
 H3290 H 1.13777 0.72102 0.36268
 H3291 H 1.12461 0.76050 0.42436
 H3292 H 1.10431 0.72465 0.44354
 C3293 C 0.61521 1.24661 0.38400
 C3294 C 0.58761 1.24535 0.37970
 C3295 C 0.57666 1.22596 0.39060
 C3296 C 0.59423 1.20925 0.40478
 C3297 C 0.61407 1.20252 0.38624
 C3298 C 0.62498 1.22193 0.37543
 C3299 C 0.61769 1.24615 0.41204
 C3300 C 0.60670 1.22675 0.42285
 H3301 H 0.57724 1.25928 0.37031
 H3302 H 0.55707 1.22394 0.39060
 H3303 H 0.61915 1.18392 0.38201
 H3304 H 0.63934 1.21987 0.36199
 H3305 H 0.62602 1.26054 0.42271
 H3306 H 0.60567 1.22503 0.44256
 C3307 C 0.61355 0.74566 0.88353
 C3308 C 0.58618 0.74392 0.87829
 C3309 C 0.57514 0.72456 0.88916
 C3310 C 0.59249 0.70834 0.90419
 C3311 C 0.61302 0.70163 0.88642
 C3312 C 0.62396 0.72104 0.87566
 C3313 C 0.61518 0.74570 0.91158
 C3314 C 0.60413 0.72632 0.92237
 H3315 H 0.57602 0.75752 0.86820
 H3316 H 0.55559 0.72225 0.88851
 H3317 H 0.61843 0.68304 0.88254
 H3318 H 0.63867 0.71903 0.86261
 H3319 H 0.62322 0.76031 0.92216
 H3320 H 0.60270 0.72475 0.94207
 C3321 C 0.88029 1.24093 1.11961
 C3322 C 0.86245 1.22426 1.10598
 C3323 C 0.87315 1.20465 1.09531
 C3324 C 0.90092 1.20341 1.09896
 C3325 C 0.91044 1.22808 1.08994
 C3326 C 0.89972 1.24761 1.10070
 C3327 C 0.89313 1.22391 1.13772
 C3328 C 0.90375 1.20425 1.12703
 H3329 H 0.84291 1.22675 1.10599
 H3330 H 0.86244 1.19049 1.08668
 H3331 H 0.92449 1.22998 1.07616
 H3332 H 0.90463 1.26619 1.09613
 H3333 H 0.89257 1.22613 1.15742
 H3334 H 0.91170 1.18980 1.13788
 C3335 C 0.88140 0.74169 0.61877
 C3336 C 0.86352 0.72377 0.60692
 C3337 C 0.87442 0.70419 0.59636
 C3338 C 0.90239 0.70427 0.59831
 C3339 C 0.91025 0.72894 0.58777
 C3340 C 0.89931 0.74842 0.59842
 C3341 C 0.89606 0.72593 0.63665
 C3342 C 0.90688 0.70636 0.62608
 H3343 H 0.84392 0.72566 0.60777
 H3344 H 0.86391 0.68939 0.58862
 H3345 H 0.92341 0.73090 0.57314
 H3346 H 0.90310 0.76699 0.59285
 H3347 H 0.89647 0.72878 0.65626
 H3348 H 0.91593 0.69269 0.63706
 C3349 C 0.37911 1.24076 0.62058
 C3350 C 0.36134 1.22314 0.60800
 C3351 C 0.37234 1.20392 0.59690
 C3352 C 0.40027 1.20393 0.59913
 C3353 C 0.40826 1.22889 0.58945
 C3354 C 0.39726 1.24806 0.60059
 C3355 C 0.39357 1.22440 0.63812
 C3356 C 0.40448 1.20515 0.62701
 H3357 H 0.34172 1.22476 0.60893
 H3358 H 0.36188 1.18927 0.58880
 H3359 H 0.42153 1.23127 0.57498
 H3360 H 0.40116 1.26677 0.59559
 H3361 H 0.39384 1.22662 0.65782
 H3362 H 0.41346 1.19113 0.63760
 C3363 C 0.38578 0.74712 1.11586
 C3364 C 0.41333 0.74557 1.12033
 C3365 C 0.42417 0.72620 1.10931
 C3366 C 0.40652 0.70978 1.09485
 C3367 C 0.38651 0.70305 1.11320
 C3368 C 0.37574 0.72244 1.12413
 C3369 C 0.38346 0.74696 1.08779
 C3370 C 0.39432 0.72755 1.07686
 H3371 H 0.42372 0.75920 1.13015
 H3372 H 0.44373 0.72389 1.10960
 H3373 H 0.38123 0.68446 1.11725
 H3374 H 0.36131 0.72038 1.13749
 H3375 H 0.37523 0.76146 1.07721
 H3376 H 0.39530 0.72590 1.05714
 C3377 C 0.88519 0.75528 0.88260
 C3378 C 0.88350 0.75487 0.91065
 C3379 C 0.89503 0.77378 0.92172
 C3380 C 0.90715 0.79172 0.90382
 C3381 C 0.92412 0.77531 0.88857
 C3382 C 0.91261 0.75640 0.87742
 C3383 C 0.87542 0.78028 0.87508
 C3384 C 0.88683 0.79924 0.88613
 H3385 H 0.87509 0.74033 0.92105
 H3386 H 0.89651 0.77499 0.94144
 H3387 H 0.94372 0.77709 0.88799
 H3388 H 0.92243 0.74268 0.86716
 H3389 H 0.86071 0.78285 0.86213
 H3390 H 0.88186 0.81802 0.88259
 C3391 C 0.87990 0.25891 0.37955
 C3392 C 0.89258 0.27621 0.36155
 C3393 C 0.90341 0.29566 0.37243
 C3394 C 0.90085 0.29607 0.40053
 C3395 C 0.87310 0.29483 0.40447
 C3396 C 0.86226 0.27539 0.39366
 C3397 C 0.89952 0.25190 0.39812
 C3398 C 0.91043 0.27125 0.40904
 H3399 H 0.89194 0.27415 0.34184
 H3400 H 0.91158 0.31014 0.36177
 H3401 H 0.86244 0.30889 0.41328
 H3402 H 0.84271 0.27297 0.39383
 H3403 H 0.90443 0.23325 0.40233
 H3404 H 0.92465 0.26910 0.42259
 C3405 C 0.38062 0.75854 0.37981
 C3406 C 0.39470 0.77495 0.36194
 C3407 C 0.40593 0.79415 0.37281
 C3408 C 0.40234 0.79533 0.40076
 C3409 C 0.37444 0.79534 0.40363
 C3410 C 0.36316 0.77613 0.39283
 C3411 C 0.39921 0.75121 0.39934
 C3412 C 0.41051 0.77036 0.41022
 H3413 H 0.39447 0.77281 0.34224
 H3414 H 0.41479 0.80816 0.36206
 H3415 H 0.36415 0.80997 0.41198
 H3416 H 0.34352 0.77445 0.39247
 H3417 H 0.40315 0.73249 0.40426
 H3418 H 0.42409 0.76796 0.42438
 C3419 C 0.38567 0.25421 0.88481
 C3420 C 0.38346 0.25397 0.91282
 C3421 C 0.39448 0.27318 0.92395
 C3422 C 0.40666 0.29115 0.90609
 C3423 C 0.42415 0.27487 0.89132
 C3424 C 0.41317 0.25572 0.88012
 C3425 C 0.37563 0.27897 0.87691
 C3426 C 0.38656 0.29820 0.88797
 H3427 H 0.37498 0.23939 0.92311
 H3428 H 0.39555 0.27458 0.94368
 H3429 H 0.44373 0.27699 0.89110
 H3430 H 0.42348 0.24207 0.87027
 H3431 H 0.36116 0.28120 0.86364
 H3432 H 0.38141 0.31686 0.88411
 C3433 C 1.11806 0.75859 1.12268
 C3434 C 1.10153 0.75187 1.10115
 C3435 C 1.09071 0.77128 1.09026
 C3436 C 1.09724 0.79591 1.10168
 C3437 C 1.09121 0.79311 1.12912
 C3438 C 1.10191 0.77362 1.13998
 C3439 C 1.13607 0.77731 1.11223
 C3440 C 1.12524 0.79679 1.10137
 H3441 H 1.09851 0.73335 1.09499
 H3442 H 1.07848 0.76929 1.07484
 H3443 H 1.08147 0.80647 1.13989
 H3444 H 1.10060 0.77072 1.15953
 H3445 H 1.15565 0.77590 1.11403
 H3446 H 1.13574 0.81195 1.09431
 C3447 C 1.11840 0.25800 0.62109
 C3448 C 1.10088 0.25133 0.60036
 C3449 C 1.09013 0.27083 0.58954
 C3450 C 1.09773 0.29548 0.60025
 C3451 C 1.09270 0.29331 0.62794
 C3452 C 1.10334 0.27373 0.63873
 C3453 C 1.13646 0.27609 0.60962
 C3454 C 1.12571 0.29564 0.59884
 H3455 H 1.09712 0.23277 0.59472
 H3456 H 1.07722 0.26888 0.57470
 H3457 H 1.08351 0.30701 0.63877
 H3458 H 1.10261 0.27100 0.65834
 H3459 H 1.15605 0.27437 0.61087
 H3460 H 1.13633 0.31048 0.59129
 C3461 C 0.61912 0.75868 0.62092
 C3462 C 0.63693 0.77750 0.61043
 C3463 C 0.62589 0.79709 0.59999
 C3464 C 0.59788 0.79612 0.60072
 C3465 C 0.59125 0.77159 0.58909
 C3466 C 0.60232 0.75211 0.59959
 C3467 C 0.60319 0.77341 0.63862
 C3468 C 0.59225 0.79298 0.62818
 H3469 H 0.65653 0.77604 0.61190
 H3470 H 0.63624 0.81234 0.59291
 H3471 H 0.57872 0.76971 0.57391
 H3472 H 0.59926 0.73362 0.59337
 H3473 H 0.60215 0.77013 0.65812
 H3474 H 0.58256 0.80612 0.63927
 C3475 C 0.61670 0.25769 1.11981
 C3476 C 0.63473 0.27637 1.10946
 C3477 C 0.62393 0.29618 1.09921
 C3478 C 0.59592 0.29559 1.10001
 C3479 C 0.58895 0.27126 1.08817
 C3480 C 0.59977 0.25153 1.09848
 C3481 C 0.60101 0.27246 1.13769
 C3482 C 0.59031 0.29228 1.12747
 H3483 H 0.65431 0.27463 1.11081
 H3484 H 0.63447 0.31132 1.09214
 H3485 H 0.57647 0.26969 1.07291
 H3486 H 0.59653 0.23315 1.09203
 H3487 H 0.59994 0.26893 1.15716
 H3488 H 0.58083 0.30543 1.13871
 C3489 C 1.23990 1.12225 0.87987
 C3490 C 1.22367 1.13970 0.89449
 C3491 C 1.20461 1.12861 0.90574
 C3492 C 1.20350 1.10082 0.90166
 C3493 C 1.20325 1.09844 0.87356
 C3494 C 1.22231 1.10952 0.86224
 C3495 C 1.24749 1.10253 0.89816
 C3496 C 1.22854 1.09139 0.90950
 H3497 H 1.22589 1.15931 0.89464
 H3498 H 1.19066 1.13913 0.91490
 H3499 H 1.18868 1.09006 0.86323
 H3500 H 1.22397 1.11018 0.84250
 H3501 H 1.26625 1.09780 0.90193
 H3502 H 1.23114 1.07713 0.92296
 C3503 C 1.24507 0.61632 0.38433
 C3504 C 1.22018 0.62561 0.37602
 C3505 C 1.20115 0.61421 0.38695
 C3506 C 1.20850 0.59441 0.40533
 C3507 C 1.22539 0.57723 0.39094
 C3508 C 1.24437 0.58868 0.37991
 C3509 C 1.24487 0.61877 0.41230
 C3510 C 1.22589 0.60724 0.42329
 H3511 H 1.21773 0.64003 0.36269
 H3512 H 1.18243 0.61890 0.38292
 H3513 H 1.22381 0.55757 0.39086
 H3514 H 1.25842 0.57866 0.37035
 H3515 H 1.25904 0.62773 0.42272
 H3516 H 1.22429 0.60626 0.44302
 C3517 C 0.74462 1.11574 0.38486
 C3518 C 0.71971 1.12484 0.37641
 C3519 C 0.70072 1.11365 0.38761
 C3520 C 0.70814 1.09424 0.40638
 C3521 C 0.72504 1.07679 0.39231
 C3522 C 0.74396 1.08803 0.38100
 C3523 C 0.74447 1.11876 0.41278
 C3524 C 0.72552 1.10746 0.42405
 H3525 H 0.71722 1.13899 0.36281
 H3526 H 0.68199 1.11826 0.38355
 H3527 H 0.72346 1.05713 0.39262
 H3528 H 0.75799 1.07784 0.37158
 H3529 H 0.75869 1.12788 0.42299
 H3530 H 0.72401 1.10681 0.44379
 C3531 C 0.74484 0.61682 0.88415
 C3532 C 0.71983 0.62503 0.87508
 C3533 C 0.70096 0.61367 0.88632
 C3534 C 0.70857 0.59498 0.90573
 C3535 C 0.72610 0.57759 0.89239
 C3536 C 0.74493 0.58901 0.88105
 C3537 C 0.74418 0.62059 0.91198
 C3538 C 0.72536 0.60911 0.92327
 H3539 H 0.71719 0.63868 0.86101
 H3540 H 0.68218 0.61766 0.88183
 H3541 H 0.72487 0.55792 0.89306
 H3542 H 0.75926 0.57897 0.87194
 H3543 H 0.75806 0.63022 0.92218
 H3544 H 0.72366 0.60890 0.94301
 C3545 C 1.24441 0.88267 1.11839
 C3546 C 1.24429 0.87989 1.09044
 C3547 C 1.22557 0.89154 1.07923
 C3548 C 1.20828 0.90481 1.09693
 C3549 C 1.20053 0.88537 1.11555
 C3550 C 1.21934 0.87385 1.12673
 C3551 C 1.24410 0.91036 1.12244
 C3552 C 1.22535 0.92194 1.11118
 H3553 H 1.25850 0.87087 1.08013
 H3554 H 1.22429 0.89255 1.05948
 H3555 H 1.18171 0.88108 1.11963
 H3556 H 1.21659 0.85972 1.14031
 H3557 H 1.25827 0.92027 1.13196
 H3558 H 1.22406 0.94162 1.11096
 C3559 C 1.24549 0.38389 0.61479
 C3560 C 1.24485 0.41161 0.61856
 C3561 C 1.22582 0.42280 0.60741
 C3562 C 1.20879 0.40530 0.59357
 C3563 C 1.22603 0.39204 0.57578
 C3564 C 1.24509 0.38079 0.58688
 C3565 C 1.22066 0.37480 0.62352
 C3566 C 1.20155 0.38594 0.61248
 H3567 H 1.25895 0.42184 0.62783
 H3568 H 1.22420 0.44246 0.60709
 H3569 H 1.22437 0.39265 0.55604
 H3570 H 1.25924 0.37168 0.57656
 H3571 H 1.21829 0.36073 0.63723
 H3572 H 1.18285 0.38137 0.61679
 C3573 C 0.74140 0.88099 0.62035
 C3574 C 0.72333 0.86308 0.60878
 C3575 C 0.70377 0.87402 0.59826
 C3576 C 0.70401 0.90205 0.59998
 C3577 C 0.70631 0.90676 0.62770
 C3578 C 0.72586 0.89589 0.63823
 C3579 C 0.74807 0.89874 0.59981
 C3580 C 0.72860 0.90970 0.58921
 H3581 H 0.72510 0.84345 0.60981
 H3582 H 0.68888 0.86350 0.59072
 H3583 H 0.69273 0.91594 0.63869
 H3584 H 0.72883 0.89641 0.65782
 H3585 H 0.76659 0.90241 0.59409
 H3586 H 0.73052 0.92273 0.57444
 C3587 C 0.74632 0.38538 1.11404
 C3588 C 0.74550 0.41313 1.11739
 C3589 C 0.72613 0.42396 1.10645
 C3590 C 0.70900 0.40606 1.09324
 C3591 C 0.72601 0.39270 1.07531
 C3592 C 0.74539 0.38182 1.08619
 C3593 C 0.72177 0.37619 1.12343
 C3594 C 0.70234 0.38695 1.11260
 H3595 H 0.75967 0.42360 1.12628
 H3596 H 0.72427 0.44359 1.10586
 H3597 H 0.72401 0.39305 1.05560
 H3598 H 0.75947 0.37280 1.07570
 H3599 H 0.71983 0.36234 1.13743
 H3600 H 0.68378 0.38225 1.11736
 C3601 C 0.75708 1.11882 1.11672
 C3602 C 0.75075 1.09866 1.09846
 C3603 C 0.77042 1.08815 1.08779
 C3604 C 0.79488 1.09860 1.09623
 C3605 C 0.79286 1.12628 1.09180
 C3606 C 0.77308 1.13674 1.10237
 C3607 C 0.77465 1.10694 1.13498
 C3608 C 0.79441 1.09651 1.12434
 H3609 H 0.73230 1.09317 1.09421
 H3610 H 0.76876 1.07368 1.07441
 H3611 H 0.80669 1.13724 1.08298
 H3612 H 0.77018 1.15625 1.10199
 H3613 H 0.77249 1.10780 1.15466
 H3614 H 0.80905 1.08891 1.13518
 C3615 C 0.75378 0.61456 0.61279
 C3616 C 0.77822 0.62357 0.62264
 C3617 C 0.79780 0.61300 0.61187
 C3618 C 0.79139 0.59424 0.59210
 C3619 C 0.77410 0.57612 0.60479
 C3620 C 0.75458 0.58675 0.61568
 C3621 C 0.75509 0.61862 0.58503
 C3622 C 0.77461 0.60794 0.57419
 H3623 H 0.77999 0.63716 0.63690
 H3624 H 0.81629 0.61761 0.61694
 H3625 H 0.77612 0.55651 0.60407
 H3626 H 0.74038 0.57613 0.62437
 H3627 H 0.74113 0.62780 0.57452
 H3628 H 0.77678 0.60789 0.55450
 C3629 C 0.25748 1.11981 0.61806
 C3630 C 0.25066 1.10227 0.59740
 C3631 C 0.27005 1.09137 0.58658
 C3632 C 0.29471 1.09889 0.59725
 C3633 C 0.29498 1.12694 0.59574
 C3634 C 0.27549 1.13781 0.60649
 C3635 C 0.27313 1.10474 0.63570
 C3636 C 0.29259 1.09396 0.62494
 H3637 H 0.23212 1.09883 0.59166
 H3638 H 0.26804 1.07862 0.57158
 H3639 H 0.30985 1.13750 0.58819
 H3640 H 0.27373 1.15744 0.60768
 H3641 H 0.27032 1.10407 0.65531
 H3642 H 0.30624 1.08470 0.63578
 C3643 C 0.25287 0.61630 1.11389
 C3644 C 0.27749 0.62446 1.12405
 C3645 C 0.29685 0.61355 1.11323
 C3646 C 0.29009 0.59528 1.09312
 C3647 C 0.27224 0.57745 1.10544
 C3648 C 0.25290 0.58844 1.11634
 C3649 C 0.25452 0.62079 1.08620
 C3650 C 0.27381 0.60972 1.07534
 H3651 H 0.27954 0.63785 1.13848
 H3652 H 0.31543 0.61762 1.11845
 H3653 H 0.27392 0.55781 1.10474
 H3654 H 0.23851 0.57815 1.12510
 H3655 H 0.24096 0.63051 1.07568
 H3656 H 0.27613 0.60997 1.05566
 C3657 C 0.75978 0.87829 0.87917
 C3658 C 0.77671 0.86068 0.89274
 C3659 C 0.79608 0.87174 0.90344
 C3660 C 0.79677 0.89962 0.89992
 C3661 C 0.79593 0.90262 0.87189
 C3662 C 0.77657 0.89158 0.86113
 C3663 C 0.75270 0.89752 0.89815
 C3664 C 0.77196 0.90862 0.90895
 H3665 H 0.77455 0.84107 0.89269
 H3666 H 0.81040 0.86123 0.91203
 H3667 H 0.81011 0.91114 0.86112
 H3668 H 0.77430 0.89118 0.84144
 H3669 H 0.73405 0.90201 0.90272
 H3670 H 0.76975 0.92260 0.92277
 C3671 C 0.75414 0.38470 0.38471
 C3672 C 0.75463 0.41244 0.38115
 C3673 C 0.77376 0.42363 0.39217
 C3674 C 0.79100 0.40608 0.40570
 C3675 C 0.77400 0.39259 0.42357
 C3676 C 0.75488 0.38135 0.41259
 C3677 C 0.77892 0.37582 0.37562
 C3678 C 0.79810 0.38694 0.38655
 H3679 H 0.74049 0.42262 0.37189
 H3680 H 0.77546 0.44328 0.39246
 H3681 H 0.77579 0.39310 0.44330
 H3682 H 0.74084 0.37221 0.42305
 H3683 H 0.78120 0.36193 0.36173
 H3684 H 0.81677 0.38251 0.38198
 C3685 C 0.25878 0.87934 0.38070
 C3686 C 0.27575 0.86135 0.39371
 C3687 C 0.29548 0.87200 0.40419
 C3688 C 0.29646 0.89990 0.40102
 C3689 C 0.29512 0.90326 0.37305
 C3690 C 0.27540 0.89265 0.36252
 C3691 C 0.25232 0.89841 0.40007
 C3692 C 0.27194 0.90910 0.41064
 H3693 H 0.27335 0.84176 0.39343
 H3694 H 0.30985 0.86122 0.41233
 H3695 H 0.30930 0.91155 0.36209
 H3696 H 0.27285 0.89242 0.34287
 H3697 H 0.23383 0.90314 0.40503
 H3698 H 0.27019 0.92298 0.42463
 C3699 C 0.25836 0.37858 0.88142
 C3700 C 0.27498 0.36079 0.89517
 C3701 C 0.29439 0.37162 0.90604
 C3702 C 0.29545 0.39948 0.90244
 C3703 C 0.29486 0.40241 0.87440
 C3704 C 0.27545 0.39162 0.86349
 C3705 C 0.25137 0.39792 0.90032
 C3706 C 0.27068 0.40880 0.91126
 H3707 H 0.27259 0.34120 0.89515
 H3708 H 0.30849 0.36095 0.91478
 H3709 H 0.30921 0.41079 0.86374
 H3710 H 0.27329 0.39127 0.84379
 H3711 H 0.23275 0.40262 0.90476
 H3712 H 0.26854 0.42278 0.92508
   
