data_POSCAR
  _audit_creation_date              2014-09-24
  _audit_creation_method            'ToBaCCo'
  _symmetry_space_group_name_H-M    'P1'
  _symmetry_Int_Tables_number       1
  _symmetry_cell_setting            triclinic
  loop_
  _symmetry_equiv_pos_as_xyz
 x,y,z
_cell_length_a 49.4152
_cell_length_b 48.4976
_cell_length_c 48.2324
_cell_angle_alpha 91.037500
_cell_angle_beta 90.099900
_cell_angle_gamma 90.707700
loop_
  _atom_site_label
  _atom_site_type_symbol
  _atom_site_fract_x
  _atom_site_fract_y
  _atom_site_fract_z
C1 C 0.72352 0.66328 0.97600
 H2 H 0.74421 0.66705 0.96999
 C3 C 0.70291 0.67841 0.96382
 H4 H 0.70809 0.69394 0.94882
 C5 C 0.69137 0.63795 1.00189
 H6 H 0.68676 0.62140 1.01586
 C7 C 0.67018 0.65261 0.99028
 H8 H 0.64954 0.64722 0.99564
 N9 N 0.71749 0.64332 0.99455
 C10 C 0.78630 0.63847 1.04389
 H11 H 0.77507 0.62751 1.05944
 C12 C 0.81026 0.65195 1.05157
 H13 H 0.81683 0.65126 1.07297
 C14 C 0.79259 0.65089 0.99711
 H15 H 0.78613 0.64955 0.97571
 C16 C 0.81682 0.66475 1.00393
 H17 H 0.82830 0.67480 0.98782
 Zn18 Zn 0.74463 0.61930 1.00799
 N19 N 0.77747 0.63867 1.01716
 C20 C 0.77633 0.57986 0.98006
 N21 N 0.75219 0.59298 0.97987
 C22 C 0.73476 0.59003 0.95814
 C23 C 0.74191 0.57434 0.93482
 C24 C 0.78437 0.56407 0.95706
 C25 C 0.72247 0.62009 1.06043
 C26 C 0.71178 0.61031 1.08505
 C27 C 0.71814 0.56382 1.06782
 C28 C 0.72894 0.57469 1.04341
 N29 N 0.73088 0.60240 1.04026
 H30 H 0.78992 0.58281 0.99750
 H31 H 0.71565 0.60063 0.95845
 H32 H 0.72799 0.57272 0.91749
 H33 H 0.80429 0.55503 0.95699
 H34 H 0.72451 0.64208 1.05746
 H35 H 0.70728 0.62574 1.10073
 H36 H 0.71600 0.54167 1.06858
 H37 H 0.73550 0.56098 1.02688
 C38 C 0.82570 0.66572 1.03161
 C39 C 0.67578 0.67284 0.97061
 C40 C 0.70889 0.58159 1.08947
 C41 C 0.76735 0.56178 0.93371
 C42 C 0.71978 0.31569 0.52817
 H43 H 0.73786 0.31378 0.54063
 C44 C 0.69588 0.30205 0.53586
 H45 H 0.69581 0.28978 0.55439
 C46 C 0.69739 0.33597 0.49033
 H47 H 0.69762 0.34980 0.47309
 C48 C 0.67330 0.32243 0.49697
 H49 H 0.65561 0.32558 0.48418
 N50 N 0.71994 0.33276 0.50611
 C51 C 0.80155 0.35244 0.47829
 H52 H 0.80063 0.37439 0.48255
 C53 C 0.82423 0.34146 0.46548
 H54 H 0.84091 0.35514 0.46041
 C55 C 0.78065 0.30824 0.48002
 H56 H 0.76334 0.29560 0.48543
 C57 C 0.80308 0.29631 0.46684
 H58 H 0.80287 0.27441 0.46206
 Zn59 Zn 0.75072 0.35560 0.49990
 N60 N 0.78035 0.33591 0.48526
 C61 C 0.78613 0.36803 0.54434
 N62 N 0.76102 0.37291 0.53409
 C63 C 0.74358 0.38973 0.54795
 C64 C 0.75191 0.40387 0.57214
 C65 C 0.79525 0.38169 0.56828
 C66 C 0.73903 0.37207 0.44651
 C67 C 0.73183 0.38953 0.42516
 C68 C 0.73296 0.42778 0.45794
 C69 C 0.74018 0.40952 0.47873
 N70 N 0.74234 0.38210 0.47282
 H71 H 0.79934 0.35367 0.53391
 H72 H 0.72343 0.39271 0.53981
 H73 H 0.73819 0.41798 0.58239
 H74 H 0.81547 0.37776 0.57582
 H75 H 0.74130 0.35024 0.44228
 H76 H 0.72814 0.38083 0.40465
 H77 H 0.73088 0.44949 0.46305
 H78 H 0.74373 0.41730 0.49954
 C79 C 0.82505 0.31316 0.45899
 C80 C 0.67200 0.30590 0.52053
 C81 C 0.72829 0.41774 0.43081
 C82 C 0.77833 0.40039 0.58214
 C83 C 0.22928 -0.17713 0.02858
 H84 H 0.24471 -0.17258 0.04398
 C85 C 0.20590 -0.19172 0.03598
 H86 H 0.20349 -0.19827 0.05719
 C87 C 0.21288 -0.17248 -0.01729
 H88 H 0.21557 -0.16451 -0.03791
 C89 C 0.18909 -0.18675 -0.01072
 H90 H 0.17365 -0.18990 -0.02646
 N91 N 0.23207 -0.16741 0.00248
 C92 C 0.31416 -0.14527 -0.02200
 H93 H 0.31359 -0.12358 -0.01640
 C94 C 0.33765 -0.15634 -0.03314
 H95 H 0.35522 -0.14305 -0.03556
 C96 C 0.29174 -0.18869 -0.02539
 H97 H 0.27361 -0.20102 -0.02253
 C98 C 0.31492 -0.20066 -0.03696
 H99 H 0.31442 -0.22222 -0.04318
 Zn100 Zn 0.26077 -0.14262 -0.00521
 N101 N 0.29172 -0.16133 -0.01860
 C102 C 0.29392 -0.13013 0.04091
 N103 N 0.27057 -0.12287 0.02808
 C104 C 0.25490 -0.10241 0.03886
 C105 C 0.26328 -0.08749 0.06254
 C106 C 0.30316 -0.11561 0.06432
 C107 C 0.26233 -0.11716 -0.05778
 C108 C 0.25252 -0.10153 -0.07954
 C109 C 0.21504 -0.08814 -0.05057
 C110 C 0.22550 -0.10430 -0.02951
 N111 N 0.24885 -0.11831 -0.03329
 H112 H 0.30554 -0.14726 0.03303
 H113 H 0.23606 -0.09730 0.02905
 H114 H 0.25094 -0.07082 0.07047
 H115 H 0.32200 -0.12150 0.07394
 H116 H 0.28054 -0.12882 -0.06092
 H117 H 0.26480 -0.10071 -0.09802
 H118 H 0.19559 -0.07892 -0.04669
 H119 H 0.21409 -0.10676 -0.01063
 C120 C 0.33812 -0.18422 -0.04141
 C121 C 0.18514 -0.19604 0.01638
 C122 C 0.22821 -0.08663 -0.07662
 C123 C 0.28801 -0.09370 0.07515
 C124 C 0.21298 0.17092 0.47830
 H125 H 0.23324 0.17950 0.47880
 C126 C 0.19177 0.18645 0.46774
 H127 H 0.19585 0.20694 0.46008
 C128 C 0.18287 0.13357 0.48671
 H129 H 0.17968 0.11268 0.49358
 C130 C 0.16106 0.14856 0.47689
 H131 H 0.14110 0.13908 0.47613
 N132 N 0.20824 0.14482 0.48715
 C133 C 0.27490 0.14187 0.53762
 H134 H 0.26285 0.13043 0.55218
 C135 C 0.29831 0.15531 0.54692
 H136 H 0.30391 0.15373 0.56854
 C137 C 0.28303 0.15637 0.49171
 H138 H 0.27714 0.15618 0.47009
 C139 C 0.30670 0.17033 0.50023
 H140 H 0.31864 0.18134 0.48512
 Zn141 Zn 0.23660 0.12182 0.49923
 N142 N 0.26758 0.14267 0.51046
 C143 C 0.27019 0.08389 0.47127
 N144 N 0.24664 0.09798 0.46959
 C145 C 0.23168 0.09757 0.44588
 C146 C 0.24065 0.08324 0.42238
 C147 C 0.27999 0.06934 0.44817
 C148 C 0.20791 0.11645 0.54810
 C149 C 0.19843 0.10436 0.57221
 C150 C 0.22276 0.06299 0.55985
 C151 C 0.23145 0.07578 0.53555
 N152 N 0.22385 0.10205 0.53020
 H153 H 0.28197 0.08498 0.49019
 H154 H 0.21314 0.10905 0.44480
 H155 H 0.22862 0.08352 0.40360
 H156 H 0.29938 0.05930 0.44953
 H157 H 0.20277 0.13754 0.54375
 H158 H 0.18570 0.11612 0.58621
 H159 H 0.22882 0.04209 0.56402
 H160 H 0.24448 0.06488 0.52124
 C161 C 0.31455 0.16994 0.52825
 C162 C 0.16549 0.17516 0.46687
 C163 C 0.20587 0.07736 0.57831
 C164 C 0.26542 0.06941 0.42310
 C165 C 0.17118 0.47525 0.22054
 H166 H 0.17269 0.46610 0.24077
 C167 C 0.18508 0.46372 0.19802
 H168 H 0.19720 0.44560 0.20117
 C169 C 0.15185 0.50872 0.19160
 H170 H 0.13823 0.52568 0.18886
 C171 C 0.16553 0.49801 0.16861
 H172 H 0.16281 0.50749 0.14866
 N173 N 0.15479 0.49722 0.21693
 C174 C 0.13838 0.53242 0.29883
 H175 H 0.11659 0.53289 0.29670
 C176 C 0.15050 0.54160 0.32340
 H177 H 0.13790 0.54955 0.33999
 C178 C 0.18111 0.52164 0.27944
 H179 H 0.19283 0.51373 0.26222
 C180 C 0.19418 0.53087 0.30378
 H181 H 0.21602 0.52992 0.30522
 Zn182 Zn 0.13300 0.50903 0.24705
 N183 N 0.15363 0.52225 0.27767
 C184 C 0.11830 0.46723 0.28348
 N185 N 0.11222 0.47811 0.25848
 C186 C 0.09333 0.46599 0.24151
 C187 C 0.07896 0.44254 0.25006
 C188 C 0.10466 0.44390 0.29270
 C189 C 0.12490 0.56196 0.22906
 C190 C 0.11106 0.58514 0.22046
 C191 C 0.06888 0.56083 0.22832
 C192 C 0.08362 0.53790 0.23655
 N193 N 0.11114 0.53876 0.23629
 H194 H 0.13422 0.47621 0.29618
 H195 H 0.08941 0.47454 0.22135
 H196 H 0.06361 0.43345 0.23659
 H197 H 0.11028 0.43545 0.31250
 H198 H 0.14679 0.56219 0.22946
 H199 H 0.12262 0.60288 0.21368
 H200 H 0.04699 0.55982 0.22868
 H201 H 0.07305 0.51956 0.24320
 C202 C 0.17872 0.54061 0.32628
 C203 C 0.18204 0.47489 0.17151
 C204 C 0.08264 0.58482 0.21986
 C205 C 0.08444 0.43138 0.27614
 C206 C -0.16846 0.02471 0.20658
 H207 H -0.17221 0.03332 0.22696
 C208 C -0.18394 0.03341 0.18419
 H209 H -0.19824 0.04967 0.18815
 C210 C -0.14474 -0.00631 0.17758
 H211 H -0.12997 -0.02231 0.17499
 C212 C -0.15972 0.00169 0.15460
 H213 H -0.15616 -0.00900 0.13510
 N214 N -0.14835 0.00617 0.20274
 C215 C -0.14019 -0.00217 0.28917
 H216 H -0.12547 0.01430 0.29192
 C217 C -0.15360 -0.01254 0.31228
 H218 H -0.14913 -0.00387 0.33265
 C219 C -0.16285 -0.03456 0.25964
 H220 H -0.16608 -0.04317 0.23903
 C221 C -0.17637 -0.04587 0.28226
 H222 H -0.19018 -0.06313 0.27898
 Zn223 Zn -0.12436 -0.00123 0.23276
 N224 N -0.14478 -0.01345 0.26352
 C225 C -0.11898 0.05412 0.25154
 N226 N -0.10481 0.03168 0.24289
 C227 C -0.07726 0.03247 0.24207
 C228 C -0.06305 0.05651 0.24977
 C229 C -0.10561 0.07850 0.25945
 C230 C -0.09987 -0.05388 0.23501
 C231 C -0.08414 -0.07570 0.22522
 C232 C -0.06704 -0.04625 0.18925
 C233 C -0.08313 -0.02502 0.19970
 N234 N -0.09974 -0.02937 0.22171
 H235 H -0.14070 0.05295 0.25322
 H236 H -0.06614 0.01439 0.23584
 H237 H -0.04115 0.05671 0.24885
 H238 H -0.11737 0.09578 0.26697
 H239 H -0.11276 -0.05691 0.25276
 H240 H -0.08559 -0.09542 0.23531
 H241 H -0.05446 -0.04253 0.17131
 H242 H -0.08312 -0.00527 0.18961
 C243 C -0.17155 -0.03499 0.30901
 C244 C -0.17907 0.02275 0.15720
 C245 C -0.06793 -0.07224 0.20162
 C246 C -0.07726 0.07995 0.25866
 C247 C 0.32553 0.52864 0.72720
 H248 H 0.32494 0.53642 0.74835
 C249 C 0.30938 0.54056 0.70695
 H250 H 0.29591 0.55706 0.71292
 C251 C 0.34461 0.49844 0.69363
 H252 H 0.35912 0.48281 0.68819
 C253 C 0.32908 0.50992 0.67275
 H254 H 0.33194 0.50280 0.65157
 N255 N 0.34270 0.50794 0.72026
 C256 C 0.36583 0.46638 0.79597
 H257 H 0.38722 0.46479 0.79157
 C258 C 0.35516 0.45414 0.81950
 H259 H 0.36851 0.44331 0.83328
 C260 C 0.32253 0.48246 0.78321
 H261 H 0.30983 0.49309 0.76875
 C262 C 0.31099 0.47067 0.80677
 H263 H 0.28943 0.47235 0.81030
 Zn264 Zn 0.36732 0.49503 0.74715
 N265 N 0.34959 0.48034 0.77846
 C266 C 0.39436 0.53116 0.78524
 N267 N 0.38980 0.52517 0.75795
 C268 C 0.40008 0.54142 0.73770
 C269 C 0.41543 0.56496 0.74462
 C270 C 0.41007 0.55410 0.79302
 C271 C 0.37434 0.44324 0.72305
 C272 C 0.38804 0.42109 0.71115
 C273 C 0.43025 0.44583 0.71886
 C274 C 0.41564 0.46786 0.73014
 N275 N 0.38816 0.46625 0.73170
 H276 H 0.38565 0.51837 0.80106
 H277 H 0.39592 0.53632 0.71617
 H278 H 0.42330 0.57793 0.72838
 H279 H 0.41346 0.55870 0.81482
 H280 H 0.35254 0.44238 0.72503
 H281 H 0.37677 0.40312 0.70376
 H282 H 0.45209 0.44728 0.71737
 H283 H 0.42620 0.48618 0.73764
 C284 C 0.32741 0.45616 0.82512
 C285 C 0.31137 0.53152 0.67916
 C286 C 0.41627 0.42235 0.70891
 C287 C 0.42061 0.57137 0.77259
 C288 C 0.66985 0.97826 0.70577
 H289 H 0.67475 0.96991 0.72576
 C290 C 0.68438 0.96988 0.68233
 H291 H 0.70002 0.95468 0.68468
 C292 C 0.64209 1.00647 0.67841
 H293 H 0.62485 1.01978 0.67661
 C294 C 0.65651 0.99923 0.65459
 H295 H 0.65073 1.00812 0.63507
 N296 N 0.64887 0.99592 0.70339
 C297 C 0.63879 1.00592 0.79163
 H298 H 0.62104 0.99286 0.79351
 C299 C 0.65183 1.01558 0.81559
 H300 H 0.64374 1.00949 0.83543
 C301 C 0.66858 1.03170 0.76346
 H302 H 0.67496 1.03789 0.74304
 C303 C 0.68150 1.04290 0.78697
 H304 H 0.69819 1.05723 0.78413
 Zn305 Zn 0.62661 1.00270 0.73477
 N306 N 0.64748 1.01374 0.76618
 C307 C 0.62432 0.95069 0.75674
 N308 N 0.60877 0.96863 0.74259
 C309 C 0.58317 0.96147 0.73444
 C310 C 0.57148 0.93654 0.74304
 C311 C 0.61350 0.92591 0.76588
 C312 C 0.61665 1.05561 0.71840
 C313 C 0.60262 1.07949 0.71248
 C314 C 0.56155 1.05729 0.72808
 C315 C 0.57648 1.03362 0.73366
 N316 N 0.60344 1.03293 0.72792
 H317 H 0.64499 0.95614 0.76199
 H318 H 0.57171 0.97500 0.72147
 H319 H 0.55072 0.93150 0.73756
 H320 H 0.62589 0.91253 0.77824
 H321 H 0.63820 1.05494 0.71475
 H322 H 0.61358 1.09671 0.70371
 H323 H 0.54009 1.05748 0.73256
 H324 H 0.56654 1.01622 0.74305
 C325 C 0.67314 1.03498 0.81368
 C326 C 0.67757 0.98009 0.65612
 C327 C 0.57463 1.08056 0.71705
 C328 C 0.58654 0.91898 0.75979
 C329 C 0.03616 0.23095 -0.15034
 H330 H 0.04562 0.25109 -0.15200
 C331 C 0.04681 0.20839 -0.16489
 H332 H 0.06422 0.21149 -0.17811
 C333 C 0.00245 0.20237 -0.13047
 H334 H -0.01421 0.19980 -0.11627
 C335 C 0.01251 0.17928 -0.14448
 H336 H 0.00332 0.15929 -0.14087
 N337 N 0.01434 0.22760 -0.13355
 C338 C -0.01707 0.31028 -0.11862
 H339 H -0.01850 0.30945 -0.09626
 C340 C -0.02614 0.33343 -0.13240
 H341 H -0.03484 0.35019 -0.12043
 C342 C -0.00531 0.28852 -0.16122
 H343 H 0.00235 0.27076 -0.17237
 C344 C -0.01412 0.31138 -0.17590
 H345 H -0.01270 0.31114 -0.19830
 Zn346 Zn 0.00258 0.25785 -0.11140
 N347 N -0.00692 0.28844 -0.13307
 C348 C 0.04530 0.29159 -0.09265
 N349 N 0.03157 0.26776 -0.08744
 C350 C 0.04079 0.24963 -0.06848
 C351 C 0.06501 0.25507 -0.05415
 C352 C 0.06966 0.29758 -0.07917
 C353 C -0.05001 0.24143 -0.11014
 C354 C -0.07433 0.23099 -0.10026
 C355 C -0.05655 0.23497 -0.05367
 C356 C -0.03218 0.24505 -0.06470
 N357 N -0.02923 0.24728 -0.09257
 H358 H 0.03820 0.30530 -0.10839
 H359 H 0.02994 0.23043 -0.06535
 H360 H 0.07268 0.24019 -0.03972
 H361 H 0.08090 0.31612 -0.08429
 H362 H -0.04735 0.24430 -0.13216
 H363 H -0.09029 0.22747 -0.11532
 H364 H -0.05739 0.23205 -0.03153
 H365 H -0.01548 0.25037 -0.05103
 C366 C -0.02487 0.33419 -0.16146
 C367 C 0.03518 0.18202 -0.16174
 C368 C -0.07802 0.22648 -0.07159
 C369 C 0.07994 0.27899 -0.06007
 C370 C 0.47376 0.22887 0.18027
 H371 H 0.46443 0.24894 0.18100
 C372 C 0.46124 0.20657 0.19320
 H373 H 0.44243 0.20966 0.20426
 C374 C 0.50884 0.20010 0.16366
 H375 H 0.52676 0.19732 0.15123
 C376 C 0.49716 0.17732 0.17652
 H377 H 0.50638 0.15729 0.17394
 N378 N 0.49692 0.22521 0.16553
 C379 C 0.53370 0.30581 0.15135
 H380 H 0.53642 0.30343 0.12919
 C381 C 0.54198 0.33012 0.16476
 H382 H 0.55155 0.34622 0.15282
 C383 C 0.51805 0.28740 0.19370
 H384 H 0.50856 0.27070 0.20476
 C385 C 0.52617 0.31148 0.20804
 H386 H 0.52278 0.31321 0.23018
 Zn387 Zn 0.50951 0.25486 0.14385
 N388 N 0.52157 0.28528 0.16577
 C389 C 0.47085 0.29220 0.12463
 N390 N 0.48005 0.26601 0.12168
 C391 C 0.46741 0.24736 0.10448
 C392 C 0.44485 0.25506 0.08895
 C393 C 0.44855 0.30073 0.10952
 C394 C 0.56215 0.23662 0.13497
 C395 C 0.58482 0.22831 0.11995
 C396 C 0.56020 0.23637 0.07760
 C397 C 0.53788 0.24429 0.09348
 N398 N 0.53912 0.24385 0.12163
 H399 H 0.48043 0.30649 0.13908
 H400 H 0.47479 0.22648 0.10295
 H401 H 0.43513 0.24010 0.07515
 H402 H 0.44139 0.32159 0.11253
 H403 H 0.56272 0.23694 0.15740
 H404 H 0.60256 0.22168 0.13107
 H405 H 0.55884 0.23699 0.05522
 H406 H 0.51968 0.25091 0.08326
 C407 C 0.53794 0.33338 0.19341
 C408 C 0.47274 0.18029 0.19099
 C409 C 0.58402 0.22794 0.09082
 C410 C 0.43530 0.28215 0.09129
 C411 C 0.95653 0.72509 0.67812
 H412 H 0.94717 0.74511 0.67951
 C413 C 0.94507 0.70270 0.69196
 H414 H 0.92702 0.70569 0.70429
 C415 C 0.99081 0.69655 0.65943
 H416 H 1.00806 0.69391 0.64600
 C417 C 0.98020 0.67374 0.67309
 H418 H 0.98954 0.65383 0.67003
 N419 N 0.97882 0.72157 0.66200
 C420 C 1.01598 0.80145 0.64622
 H421 H 1.01603 0.79943 0.62384
 C422 C 1.02786 0.82448 0.65895
 H423 H 1.03672 0.84029 0.64612
 C424 C 1.00406 0.78310 0.68982
 H425 H 0.99502 0.76666 0.70163
 C426 C 1.01600 0.80595 0.70356
 H427 H 1.01621 0.80692 0.72600
 Zn428 Zn 0.99112 0.75118 0.64003
 N429 N 1.00438 0.78135 0.66161
 C430 C 0.95337 0.78945 0.62070
 N431 N 0.96182 0.76296 0.61784
 C432 C 0.94914 0.74491 0.60003
 C433 C 0.92765 0.75363 0.58351
 C434 C 0.93226 0.79904 0.60450
 C435 C 1.04383 0.73433 0.63197
 C436 C 1.06726 0.72699 0.61776
 C437 C 1.04296 0.73140 0.57458
 C438 C 1.01990 0.73874 0.58969
 N439 N 1.02072 0.73981 0.61789
 H440 H 0.96284 0.80328 0.63567
 H441 H 0.95587 0.72379 0.59853
 H442 H 0.91800 0.73922 0.56910
 H443 H 0.92592 0.82023 0.60710
 H444 H 1.04400 0.73570 0.65438
 H445 H 1.08526 0.72220 0.62947
 H446 H 1.04207 0.73077 0.55215
 H447 H 1.00154 0.74384 0.57885
 C448 C 1.02845 0.82680 0.68799
 C449 C 0.95678 0.67653 0.68923
 C450 C 1.06707 0.72547 0.58867
 C451 C 0.91929 0.78117 0.58541
 C452 C 0.51578 0.73333 0.34764
 H453 H 0.52322 0.75372 0.34264
 C454 C 0.52603 0.71026 0.33377
 H455 H 0.54111 0.71301 0.31775
 C456 C 0.48868 0.70481 0.37615
 H457 H 0.47502 0.70280 0.39350
 C458 C 0.49823 0.68117 0.36262
 H459 H 0.49174 0.66104 0.36960
 N460 N 0.49817 0.73016 0.36900
 C461 C 0.46799 0.78861 0.34765
 H462 H 0.45981 0.76837 0.34266
 C463 C 0.46045 0.81099 0.33174
 H464 H 0.44537 0.80716 0.31585
 C465 C 0.49682 0.81712 0.37509
 H466 H 0.51133 0.81953 0.39167
 C467 C 0.48998 0.84012 0.35966
 H468 H 0.50019 0.85941 0.36467
 Zn469 Zn 0.49144 0.76107 0.39223
 N470 N 0.48511 0.79212 0.36952
 C471 C 0.52427 0.78859 0.43369
 N472 N 0.52269 0.76718 0.41506
 C473 C 0.54431 0.75057 0.41050
 C474 C 0.56929 0.75681 0.42260
 C475 C 0.54903 0.79562 0.44632
 C476 C 0.43662 0.74891 0.39956
 C477 C 0.41295 0.74200 0.41354
 C478 C 0.43778 0.74471 0.45669
 C479 C 0.46107 0.75187 0.44182
 N480 N 0.46010 0.75366 0.41370
 H481 H 0.50670 0.80117 0.43756
 H482 H 0.54268 0.73301 0.39655
 H483 H 0.58652 0.74405 0.41765
 H484 H 0.55043 0.81380 0.45964
 H485 H 0.43633 0.74961 0.37726
 H486 H 0.39474 0.73750 0.40170
 H487 H 0.43889 0.74293 0.47901
 H488 H 0.47999 0.75534 0.45268
 C489 C 0.47084 0.83770 0.33792
 C490 C 0.51793 0.68377 0.34190
 C491 C 0.41335 0.73957 0.44244
 C492 C 0.57214 0.78023 0.43983
 Si493 Si 0.37180 0.00104 0.25037
 Si494 Si 0.12710 1.00390 0.76270
 Si495 Si 0.62560 0.51295 0.27303
 Si496 Si 0.86575 0.49446 0.75601
 Si497 Si 0.26111 0.36242 0.00557
 Si498 Si 0.74496 0.13128 0.99292
 Si499 Si 0.24086 0.63784 0.50887
 Si500 Si 0.75698 0.87263 0.48824
 Si501 Si 0.00205 0.25279 0.35921
 Si502 Si 1.00558 0.74773 0.11054
 Si503 Si 0.49351 0.24582 0.61563
 Si504 Si 0.51190 0.74567 0.85916
 C505 C 0.43835 -0.09304 0.29748
 C506 C 0.43769 -0.11891 0.28407
 C507 C 0.44957 -0.14147 0.29691
 C508 C 0.46154 -0.13876 0.32358
 C509 C 0.46266 -0.11207 0.33616
 C510 C 0.45107 -0.08933 0.32329
 C511 C 0.42456 -0.06962 0.28474
 C512 C 0.42447 -0.04390 0.29858
 C513 C 0.40993 -0.02217 0.28716
 C514 C 0.39511 -0.02630 0.26248
 C515 C 0.39594 -0.05201 0.24855
 C516 C 0.41070 -0.07373 0.25955
 C517 C 0.45109 -0.06311 0.33624
 C518 C 0.43806 -0.04076 0.32407
 C519 C 0.42449 -0.12195 0.25834
 C520 C 0.41110 -0.09977 0.24635
 H521 H 0.46089 -0.05992 0.35617
 H522 H 0.43816 -0.02103 0.33496
 H523 H 0.42393 -0.14181 0.24768
 H524 H 0.40061 -0.10316 0.22681
 H525 H 0.44952 -0.16098 0.28570
 H526 H 0.47085 -0.10892 0.35679
 H527 H 0.40900 -0.00250 0.29814
 H528 H 0.38438 -0.05563 0.22976
 C529 C 0.93758 0.40225 0.79876
 C530 C 0.93499 0.37567 0.78694
 C531 C 0.94823 0.35364 0.79938
 C532 C 0.96382 0.35802 0.82361
 C533 C 0.96689 0.38504 0.83461
 C534 C 0.95362 0.40717 0.82242
 C535 C 0.92230 0.42514 0.78682
 C536 C 0.92389 0.45146 0.79941
 C537 C 0.90791 0.47268 0.78908
 C538 C 0.89044 0.46764 0.76644
 C539 C 0.88965 0.44136 0.75361
 C540 C 0.90543 0.41997 0.76381
 C541 C 0.95535 0.43398 0.83393
 C542 C 0.94068 0.45573 0.82266
 C543 C 0.91845 0.37147 0.76349
 C544 C 0.90393 0.39325 0.75211
 H545 H 0.96772 0.43806 0.85215
 H546 H 0.94214 0.47595 0.83251
 H547 H 0.91633 0.35107 0.75414
 H548 H 0.89102 0.38902 0.73431
 H549 H 0.94539 0.33295 0.79094
 H550 H 0.97915 0.38873 0.85299
 H551 H 0.90809 0.49272 0.79940
 H552 H 0.87599 0.43706 0.73648
 C553 C 0.07174 1.10897 0.80460
 C554 C 0.04344 1.11096 0.80456
 C555 C 0.03149 1.13518 0.81489
 C556 C 0.04769 1.15721 0.82534
 C557 C 0.07607 1.15486 0.82484
 C558 C 0.08818 1.13084 0.81451
 C559 C 0.08444 1.08338 0.79439
 C560 C 0.11274 1.08149 0.79460
 C561 C 0.12473 1.05721 0.78502
 C562 C 0.10875 1.03475 0.77567
 C563 C 0.08042 1.03687 0.77517
 C564 C 0.06809 1.06129 0.78467
 C565 C 0.11644 1.12813 0.81430
 C566 C 0.12852 1.10388 0.80444
 C567 C 0.02771 1.08857 0.79447
 C568 C 0.03982 1.06417 0.78469
 H569 H 0.12933 1.14487 0.82189
 H570 H 0.15039 1.10258 0.80466
 H571 H 0.00584 1.08985 0.79428
 H572 H 0.02694 1.04739 0.77720
 H573 H 0.00964 1.13686 0.81490
 H574 H 0.08875 1.17137 0.83328
 H575 H 0.14661 1.05569 0.78495
 H576 H 0.06810 1.01994 0.76713
 C577 C 0.56097 0.61233 0.31450
 C578 C 0.53255 0.61162 0.31406
 C579 C 0.51830 0.63514 0.32278
 C580 C 0.53243 0.65922 0.33139
 C581 C 0.56091 0.65953 0.33148
 C582 C 0.57528 0.63613 0.32324
 C583 C 0.57610 0.58770 0.30565
 C584 C 0.60449 0.58846 0.30643
 C585 C 0.61880 0.56527 0.29757
 C586 C 0.60500 0.54173 0.28731
 C587 C 0.57656 0.54089 0.28709
 C588 C 0.56193 0.56398 0.29632
 C589 C 0.60369 0.63604 0.32378
 C590 C 0.61806 0.61255 0.31558
 C591 C 0.51904 0.58742 0.30494
 C592 C 0.53348 0.56404 0.29612
 H593 H 0.61490 0.65428 0.33059
 H594 H 0.63998 0.61332 0.31621
 H595 H 0.49713 0.58658 0.30449
 H596 H 0.52227 0.54590 0.28904
 H597 H 0.49637 0.63482 0.32276
 H598 H 0.57187 0.67782 0.33866
 H599 H 0.64075 0.56579 0.29779
 H600 H 0.56592 0.52265 0.27941
 C601 C 0.56654 0.40874 0.23141
 C602 C 0.57079 0.38369 0.24487
 C603 C 0.56047 0.35912 0.23295
 C604 C 0.54631 0.35951 0.20760
 C605 C 0.54154 0.38495 0.19488
 C606 C 0.55175 0.40960 0.20659
 C607 C 0.57870 0.43439 0.24294
 C608 C 0.57529 0.45927 0.22892
 C609 C 0.58829 0.48328 0.23907
 C610 C 0.60474 0.48231 0.26279
 C611 C 0.60726 0.45748 0.27712
 C612 C 0.59439 0.43336 0.26718
 C613 C 0.54813 0.43499 0.19357
 C614 C 0.55972 0.45941 0.20454
 C615 C 0.58602 0.38364 0.26950
 C616 C 0.59762 0.40806 0.28047
 H617 H 0.53665 0.43591 0.17445
 H618 H 0.55688 0.47847 0.19357
 H619 H 0.58940 0.36449 0.28012
 H620 H 0.60963 0.40704 0.29923
 H621 H 0.56441 0.33963 0.24275
 H622 H 0.53029 0.38547 0.17558
 H623 H 0.58645 0.50243 0.22801
 H624 H 0.61978 0.45660 0.29551
 C625 C 0.06922 0.89815 0.72218
 C626 C 0.08074 0.88335 0.69998
 C627 C 0.06776 0.85947 0.68991
 C628 C 0.04303 0.85051 0.70132
 C629 C 0.03205 0.86510 0.72416
 C630 C 0.04513 0.88907 0.73467
 C631 C 0.08252 0.92382 0.73224
 C632 C 0.07127 0.93874 0.75457
 C633 C 0.08424 0.96322 0.76401
 C634 C 0.10768 0.97286 0.75057
 C635 C 0.11875 0.95736 0.72858
 C636 C 0.10631 0.93292 0.71930
 C637 C 0.03448 0.90446 0.75704
 C638 C 0.04739 0.92878 0.76690
 C639 C 0.10480 0.89295 0.68788
 C640 C 0.11735 0.91738 0.69735
 H641 H 0.01596 0.89770 0.76695
 H642 H 0.03847 0.93999 0.78416
 H643 H 0.11384 0.88164 0.67075
 H644 H 0.13580 0.92422 0.68733
 H645 H 0.07674 0.84802 0.67282
 H646 H 0.01302 0.85836 0.73306
 H647 H 0.07631 0.97450 0.78173
 H648 H 0.13739 0.96400 0.71882
 C649 C 0.91941 0.60304 0.72007
 C650 C 0.90338 0.62307 0.70755
 C651 C 0.91561 0.64751 0.69844
 C652 C 0.94372 0.65183 0.70138
 C653 C 0.95945 0.63162 0.71423
 C654 C 0.94737 0.60718 0.72364
 C655 C 0.90674 0.57700 0.72906
 C656 C 0.92276 0.55679 0.74127
 C657 C 0.91060 0.53191 0.74949
 C658 C 0.88266 0.52737 0.74566
 C659 C 0.86711 0.54757 0.73275
 C660 C 0.87894 0.57255 0.72470
 C661 C 0.96274 0.58656 0.73611
 C662 C 0.95064 0.56181 0.74479
 C663 C 0.87556 0.61796 0.70382
 C664 C 0.86356 0.59308 0.71216
 H665 H 0.98434 0.58950 0.73901
 H666 H 0.96325 0.54641 0.75419
 H667 H 0.86299 0.63321 0.69413
 H668 H 0.84206 0.58988 0.70872
 H669 H 0.90345 0.66272 0.68814
 H670 H 0.98107 0.63486 0.71666
 H671 H 0.92298 0.51619 0.75849
 H672 H 0.84591 0.54367 0.72835
 C673 C 0.43134 0.10747 0.21792
 C674 C 0.41698 0.12777 0.20386
 C675 C 0.43050 0.15193 0.19594
 C676 C 0.45829 0.15569 0.20159
 C677 C 0.47238 0.13516 0.21580
 C678 C 0.45895 0.11102 0.22411
 C679 C 0.41727 0.08183 0.22589
 C680 C 0.43160 0.06142 0.23984
 C681 C 0.41807 0.03702 0.24729
 C682 C 0.39049 0.03313 0.24088
 C683 C 0.37670 0.05347 0.22624
 C684 C 0.38987 0.07801 0.21899
 C685 C 0.47262 0.09017 0.23814
 C686 C 0.45916 0.06582 0.24592
 C687 C 0.38950 0.12328 0.19752
 C688 C 0.37619 0.09876 0.20487
 H689 H 0.49392 0.09264 0.24307
 H690 H 0.47046 0.05025 0.25667
 H691 H 0.37823 0.13875 0.18661
 H692 H 0.35503 0.09603 0.19946
 H693 H 0.41965 0.16740 0.18456
 H694 H 0.49376 0.13798 0.22025
 H695 H 0.42908 0.02119 0.25785
 H696 H 0.35583 0.05006 0.22009
 C697 C 0.29722 0.41756 -0.10186
 C698 C 0.28900 0.44444 -0.10780
 C699 C 0.29827 0.45685 -0.13218
 C700 C 0.31591 0.44262 -0.15019
 C701 C 0.32359 0.41556 -0.14403
 C702 C 0.31433 0.40293 -0.11992
 C703 C 0.28806 0.40458 -0.07605
 C704 C 0.29646 0.37777 -0.07018
 C705 C 0.28794 0.36559 -0.04561
 C706 C 0.27121 0.37993 -0.02693
 C707 C 0.26303 0.40685 -0.03287
 C708 C 0.27135 0.41929 -0.05762
 C709 C 0.32215 0.37609 -0.11336
 C710 C 0.31333 0.36369 -0.08891
 C711 C 0.27207 0.45845 -0.08900
 C712 C 0.26344 0.44610 -0.06432
 H713 H 0.33532 0.36462 -0.12718
 H714 H 0.31990 0.34298 -0.08454
 H715 H 0.26560 0.47920 -0.09330
 H716 H 0.25053 0.45769 -0.05034
 H717 H 0.29246 0.47777 -0.13674
 H718 H 0.33688 0.40439 -0.15799
 H719 H 0.29442 0.34490 -0.04097
 H720 H 0.25031 0.41806 -0.01845
 C721 C 0.79633 0.92717 0.38162
 C722 C 0.79394 0.95579 0.37860
 C723 C 0.80412 0.96812 0.35459
 C724 C 0.81627 0.95193 0.33362
 C725 C 0.81805 0.92321 0.33679
 C726 C 0.80836 0.91075 0.36089
 C727 C 0.78644 0.91420 0.40717
 C728 C 0.78966 0.88573 0.41053
 C729 C 0.78076 0.87361 0.43507
 C730 C 0.76808 0.88956 0.45577
 C731 C 0.76504 0.91806 0.45223
 C732 C 0.77432 0.93055 0.42792
 C733 C 0.81091 0.88228 0.36488
 C734 C 0.80183 0.87000 0.38935
 C735 C 0.78167 0.97148 0.39979
 C736 C 0.77194 0.95907 0.42398
 H737 H 0.82022 0.86941 0.34906
 H738 H 0.80436 0.84800 0.39170
 H739 H 0.77965 0.99357 0.39770
 H740 H 0.76265 0.97193 0.43981
 H741 H 0.80266 0.99023 0.35217
 H742 H 0.82775 0.91073 0.32089
 H743 H 0.78377 0.85177 0.43813
 H744 H 0.75571 0.93052 0.46833
 C745 C 0.78484 0.05991 1.08748
 C746 C 0.77149 0.06085 1.11309
 C747 C 0.78288 0.04761 1.13587
 C748 C 0.80787 0.03369 1.13351
 C749 C 0.82034 0.03235 1.10704
 C750 C 0.80905 0.04551 1.08418
 C751 C 0.77375 0.07513 1.06390
 C752 C 0.78768 0.07503 1.03853
 C753 C 0.77791 0.09086 1.01671
 C754 C 0.75469 0.10693 1.02039
 C755 C 0.74038 0.10606 1.04552
 C756 C 0.74995 0.09031 1.06748
 C757 C 0.82207 0.04533 1.05827
 C758 C 0.81156 0.05984 1.03584
 C759 C 0.74726 0.07558 1.11562
 C760 C 0.73669 0.09008 1.09321
 H761 H 0.84080 0.03425 1.05543
 H762 H 0.82248 0.05955 1.01637
 H763 H 0.73665 0.07635 1.13526
 H764 H 0.71825 0.10162 1.09620
 H765 H 0.77189 0.04805 1.15524
 H766 H 0.83982 0.02278 1.10426
 H767 H 0.78887 0.09150 0.99728
 H768 H 0.72225 0.11807 1.04834
 C769 C 0.27527 0.57401 0.61149
 C770 C 0.28375 0.58898 0.63521
 C771 C 0.29458 0.57486 0.65766
 C772 C 0.29698 0.54592 0.65660
 C773 C 0.28754 0.53118 0.63292
 C774 C 0.27696 0.54516 0.61018
 C775 C 0.26537 0.58893 0.58719
 C776 C 0.25805 0.57412 0.56296
 C777 C 0.24996 0.58860 0.53944
 C778 C 0.24894 0.61757 0.54030
 C779 C 0.25603 0.63197 0.56485
 C780 C 0.26438 0.61782 0.58831
 C781 C 0.26878 0.53096 0.58585
 C782 C 0.25959 0.54520 0.56260
 C783 C 0.28204 0.61787 0.63566
 C784 C 0.27246 0.63205 0.61262
 H785 H 0.26997 0.50868 0.58458
 H786 H 0.25393 0.53350 0.54410
 H787 H 0.28849 0.62965 0.65385
 H788 H 0.27177 0.65437 0.61369
 H789 H 0.30220 0.58655 0.67543
 H790 H 0.28892 0.50890 0.63196
 H791 H 0.24526 0.57732 0.52047
 H792 H 0.25622 0.65425 0.56546
 C793 C 0.21115 0.57294 0.40270
 C794 C 0.18926 0.55424 0.40318
 C795 C 0.17963 0.54275 0.37815
 C796 C 0.19147 0.55007 0.35271
 C797 C 0.21407 0.56805 0.35267
 C798 C 0.22387 0.57974 0.37765
 C799 C 0.22014 0.58656 0.42877
 C800 C 0.24122 0.60620 0.42816
 C801 C 0.24843 0.62046 0.45268
 C802 C 0.23442 0.61548 0.47751
 C803 C 0.21414 0.59491 0.47802
 C804 C 0.20670 0.58056 0.45363
 C805 C 0.24546 0.59887 0.37801
 C806 C 0.25399 0.61188 0.40284
 C807 C 0.17685 0.54814 0.42857
 C808 C 0.18543 0.56108 0.45338
 H809 H 0.25550 0.60426 0.35887
 H810 H 0.27035 0.62693 0.40211
 H811 H 0.16000 0.53366 0.42919
 H812 H 0.17496 0.55622 0.47243
 H813 H 0.16246 0.52862 0.37836
 H814 H 0.22315 0.57393 0.33317
 H815 H 0.26425 0.63604 0.45205
 H816 H 0.20334 0.59100 0.49712
 C817 C 0.70329 0.07311 0.88710
 C818 C 0.69649 0.04498 0.88718
 C819 C 0.68663 0.03229 0.86275
 C820 C 0.68449 0.04729 0.83792
 C821 C 0.69257 0.07536 0.83821
 C822 C 0.70123 0.08848 0.86282
 C823 C 0.71253 0.08685 0.91300
 C824 C 0.71781 0.11533 0.91320
 C825 C 0.72617 0.12836 0.93787
 C826 C 0.73107 0.11288 0.96169
 C827 C 0.72561 0.08439 0.96138
 C828 C 0.71585 0.07128 0.93706
 C829 C 0.70723 0.11687 0.86377
 C830 C 0.71507 0.13014 0.88863
 C831 C 0.69959 0.03012 0.91175
 C832 C 0.70940 0.04298 0.93617
 H833 H 0.70556 0.12899 0.84521
 H834 H 0.71931 0.15211 0.88855
 H835 H 0.69453 0.00833 0.91205
 H836 H 0.71173 0.03073 0.95457
 H837 H 0.68142 0.01053 0.86296
 H838 H 0.69038 0.08763 0.81981
 H839 H 0.73001 0.15043 0.93831
 H840 H 0.72881 0.07255 0.97991
 C841 C 0.71446 0.94476 0.58329
 C842 C 0.68776 0.95412 0.58190
 C843 C 0.67606 0.96620 0.60554
 C844 C 0.69096 0.96939 0.63045
 C845 C 0.71814 0.96079 0.63101
 C846 C 0.72981 0.94804 0.60767
 C847 C 0.72615 0.93016 0.55913
 C848 C 0.75218 0.91911 0.56117
 C849 C 0.76225 0.90314 0.53907
 C850 C 0.74657 0.89855 0.51503
 C851 C 0.72120 0.91108 0.51264
 C852 C 0.71059 0.92641 0.53492
 C853 C 0.75624 0.93773 0.60849
 C854 C 0.76717 0.92333 0.58570
 C855 C 0.67299 0.95043 0.55715
 C856 C 0.68427 0.93696 0.53399
 H857 H 0.76834 0.94018 0.62715
 H858 H 0.78736 0.91505 0.58746
 H859 H 0.65238 0.95769 0.55579
 H860 H 0.67205 0.93416 0.51546
 H861 H 0.65501 0.97208 0.60473
 H862 H 0.73010 0.96353 0.64972
 H863 H 0.78179 0.89360 0.54114
 H864 H 0.70908 0.90745 0.49415
 C865 C 0.21753 0.43416 0.10091
 C866 C 0.19181 0.44581 0.09846
 C867 C 0.18053 0.45949 0.12147
 C868 C 0.19480 0.46164 0.14681
 C869 C 0.22082 0.45022 0.14867
 C870 C 0.23219 0.43630 0.12585
 C871 C 0.22900 0.41874 0.07715
 C872 C 0.25428 0.40621 0.07997
 C873 C 0.26443 0.39031 0.05789
 C874 C 0.24956 0.38702 0.03313
 C875 C 0.22462 0.40032 0.03030
 C876 C 0.21409 0.41604 0.05239
 C877 C 0.25774 0.42405 0.12761
 C878 C 0.26856 0.40918 0.10509
 C879 C 0.17765 0.44304 0.07324
 C880 C 0.18863 0.42845 0.05057
 H881 H 0.26928 0.42560 0.14671
 H882 H 0.28813 0.39966 0.10746
 H883 H 0.15780 0.45199 0.07108
 H884 H 0.17691 0.42653 0.03162
 H885 H 0.16032 0.46772 0.11985
 H886 H 0.23214 0.45202 0.16789
 H887 H 0.28350 0.37997 0.06048
 H888 H 0.21297 0.39748 0.01137
 C889 C -0.10442 0.28497 0.41589
 C890 C -0.11582 0.26822 0.43638
 C891 C -0.13949 0.27690 0.45004
 C892 C -0.15155 0.30211 0.44319
 C893 C -0.14033 0.31791 0.42173
 C894 C -0.11667 0.30968 0.40832
 C895 C -0.07895 0.27676 0.40236
 C896 C -0.06742 0.29395 0.38238
 C897 C -0.04300 0.28649 0.36999
 C898 C -0.02994 0.26211 0.37741
 C899 C -0.04223 0.24444 0.39664
 C900 C -0.06661 0.25197 0.40963
 C901 C -0.10476 0.32603 0.38783
 C902 C -0.08049 0.31832 0.37511
 C903 C -0.10298 0.24347 0.44306
 C904 C -0.07890 0.23540 0.42980
 H905 H -0.11411 0.34512 0.38182
 H906 H -0.07179 0.33164 0.35959
 H907 H -0.11155 0.23027 0.45875
 H908 H -0.06966 0.21621 0.43562
 H909 H -0.14796 0.26459 0.46651
 H910 H -0.14983 0.33694 0.41575
 H911 H -0.03456 0.29960 0.35421
 H912 H -0.03291 0.22499 0.40143
 C913 C 0.40971 0.78597 0.91842
 C914 C 0.39981 0.81214 0.91221
 C915 C 0.37612 0.82127 0.92499
 C916 C 0.36240 0.80472 0.94428
 C917 C 0.37235 0.77827 0.95001
 C918 C 0.39608 0.76879 0.93708
 C919 C 0.43481 0.77642 0.90506
 C920 C 0.44468 0.75009 0.91086
 C921 C 0.46838 0.74101 0.89760
 C922 C 0.48211 0.75829 0.87904
 C923 C 0.47191 0.78456 0.87357
 C924 C 0.44829 0.79373 0.88646
 C925 C 0.40662 0.74261 0.94249
 C926 C 0.43044 0.73339 0.92955
 C927 C 0.41385 0.82881 0.89342
 C928 C 0.43772 0.81976 0.88078
 H929 H 0.39634 0.72911 0.95682
 H930 H 0.43778 0.71304 0.93423
 H931 H 0.40635 0.84905 0.88849
 H932 H 0.44796 0.83324 0.86639
 H933 H 0.36831 0.84134 0.91987
 H934 H 0.36200 0.76540 0.96487
 H935 H 0.47593 0.72053 0.90137
 H936 H 0.48180 0.79779 0.85878
 C937 C 1.10906 0.77318 0.04588
 C938 C 1.10956 0.79556 0.02783
 C939 C 1.13444 0.80470 0.01719
 C940 C 1.15873 0.79192 0.02489
 C941 C 1.15775 0.76901 0.04240
 C942 C 1.13296 0.75956 0.05297
 C943 C 1.08322 0.76469 0.05862
 C944 C 1.08291 0.74296 0.07742
 C945 C 1.05875 0.73635 0.09108
 C946 C 1.03529 0.75192 0.08684
 C947 C 1.03550 0.77247 0.06665
 C948 C 1.05954 0.77920 0.05268
 C949 C 1.13165 0.73730 0.07119
 C950 C 1.10703 0.72909 0.08315
 C951 C 1.08528 0.80896 0.02160
 C952 C 1.06070 0.80093 0.03382
 H953 H 1.14990 0.72650 0.07669
 H954 H 1.10701 0.71222 0.09757
 H955 H 1.08538 0.82621 0.00763
 H956 H 1.04258 0.81224 0.02896
 H957 H 1.13504 0.82257 0.00402
 H958 H 1.17634 0.75895 0.04821
 H959 H 1.05874 0.71976 0.10573
 H960 H 1.01740 0.78394 0.06248
 C961 C 0.59581 0.27604 0.55145
 C962 C 0.59719 0.30162 0.53838
 C963 C 0.62202 0.31088 0.52786
 C964 C 0.64548 0.29477 0.53020
 C965 C 0.64357 0.26884 0.54290
 C966 C 0.61879 0.25946 0.55371
 C967 C 0.57006 0.26697 0.56398
 C968 C 0.56892 0.24196 0.57813
 C969 C 0.54494 0.23446 0.59177
 C970 C 0.52251 0.25207 0.59172
 C971 C 0.52350 0.27628 0.57618
 C972 C 0.54736 0.28404 0.56254
 C973 C 0.61662 0.23413 0.56729
 C974 C 0.59212 0.22554 0.57932
 C975 C 0.57386 0.31780 0.53672
 C976 C 0.54935 0.30913 0.54855
 H977 H 0.63415 0.22107 0.56910
 H978 H 0.59149 0.20615 0.59013
 H979 H 0.57467 0.33754 0.52657
 H980 H 0.53197 0.32247 0.54727
 H981 H 0.62321 0.33111 0.51874
 H982 H 0.66134 0.25613 0.54460
 H983 H 0.54420 0.21546 0.60318
 H984 H 0.50629 0.28979 0.57573
 C985 C 0.38795 0.20585 0.56076
 C986 C 0.36396 0.20751 0.57620
 C987 C 0.33988 0.19699 0.56474
 C988 C 0.33966 0.18406 0.53835
 C989 C 0.36381 0.18319 0.52278
 C990 C 0.38807 0.19411 0.53394
 C991 C 0.41354 0.21601 0.57324
 C992 C 0.43770 0.21432 0.55797
 C993 C 0.46206 0.22370 0.57025
 C994 C 0.46207 0.23404 0.59765
 C995 C 0.43778 0.23539 0.61264
 C996 C 0.41341 0.22670 0.60047
 C997 C 0.41258 0.19291 0.51919
 C998 C 0.43694 0.20295 0.53095
 C999 C 0.36459 0.21898 0.60314
 C1000 C 0.38895 0.22829 0.61513
 H1001 H 0.41298 0.18395 0.49846
 H1002 H 0.45537 0.20149 0.51891
 H1003 H 0.34618 0.22035 0.61522
 H1004 H 0.38866 0.23665 0.63612
 H1005 H 0.32136 0.19837 0.57666
 H1006 H 0.36395 0.17314 0.50253
 H1007 H 0.48088 0.22252 0.55882
 H1008 H 0.43787 0.24322 0.63384
 C1009 C 0.89918 0.70528 0.05953
 C1010 C 0.89899 0.69130 0.03377
 C1011 C 0.87470 0.67908 0.02406
 C1012 C 0.85088 0.68073 0.04010
 C1013 C 0.85142 0.69570 0.06541
 C1014 C 0.87549 0.70771 0.07535
 C1015 C 0.92483 0.71687 0.07059
 C1016 C 0.92504 0.72980 0.09686
 C1017 C 0.94955 0.73950 0.10795
 C1018 C 0.97369 0.73675 0.09291
 C1019 C 0.97332 0.72434 0.06635
 C1020 C 0.94878 0.71407 0.05513
 C1021 C 0.87643 0.72148 0.10120
 C1022 C 0.90082 0.73225 0.11183
 C1023 C 0.92324 0.68926 0.01867
 C1024 C 0.94768 0.70050 0.02913
 H1025 H 0.85823 0.72351 0.11354
 H1026 H 0.90079 0.74232 0.13207
 H1027 H 0.92340 0.67860 -0.00126
 H1028 H 0.96593 0.69818 0.01694
 H1029 H 0.87456 0.66749 0.00464
 H1030 H 0.83313 0.69759 0.07764
 H1031 H 0.94990 0.74878 0.12857
 H1032 H 0.99204 0.72194 0.05495
 C1033 C 0.60939 0.70739 0.92630
 C1034 C 0.63290 0.69969 0.91193
 C1035 C 0.65482 0.68928 0.92672
 C1036 C 0.65334 0.68628 0.95567
 C1037 C 0.62973 0.69452 0.96983
 C1038 C 0.60767 0.70509 0.95521
 C1039 C 0.58594 0.71747 0.91066
 C1040 C 0.56223 0.72487 0.92490
 C1041 C 0.53976 0.73389 0.90975
 C1042 C 0.54106 0.73503 0.88070
 C1043 C 0.56502 0.72792 0.86684
 C1044 C 0.58754 0.71908 0.88169
 C1045 C 0.58375 0.71298 0.96880
 C1046 C 0.56144 0.72275 0.95391
 C1047 C 0.63381 0.70197 0.88296
 C1048 C 0.61149 0.71150 0.86808
 H1049 H 0.58217 0.71138 0.99111
 H1050 H 0.54333 0.72841 0.96518
 H1051 H 0.65183 0.69609 0.87166
 H1052 H 0.61293 0.71273 0.84572
 H1053 H 0.67265 0.68255 0.91556
 H1054 H 0.62849 0.69246 0.99213
 H1055 H 0.52140 0.73967 0.92046
 H1056 H 0.56600 0.72897 0.84443
 C1057 C 0.09931 0.21326 0.42591
 C1058 C 0.12435 0.21091 0.41235
 C1059 C 0.14628 0.19961 0.42645
 C1060 C 0.14309 0.19000 0.45360
 C1061 C 0.11795 0.19274 0.46705
 C1062 C 0.09599 0.20459 0.45333
 C1063 C 0.07593 0.22420 0.41079
 C1064 C 0.05080 0.22650 0.42421
 C1065 C 0.02844 0.23627 0.40939
 C1066 C 0.03113 0.24266 0.38121
 C1067 C 0.05647 0.24049 0.36824
 C1068 C 0.07900 0.23149 0.38295
 C1069 C 0.07064 0.20744 0.46619
 C1070 C 0.04848 0.21838 0.45194
 C1071 C 0.12676 0.21914 0.38470
 C1072 C 0.10441 0.22912 0.37018
 H1073 H 0.06783 0.20096 0.48738
 H1074 H 0.02925 0.22002 0.46257
 H1075 H 0.14596 0.21740 0.37403
 H1076 H 0.10699 0.23482 0.34872
 H1077 H 0.16550 0.19716 0.41594
 H1078 H 0.11549 0.18536 0.48799
 H1079 H 0.00910 0.23826 0.41959
 H1080 H 0.05857 0.24544 0.34651
 C1081 C 0.53459 0.15153 0.68612
 C1082 C 0.52180 0.12555 0.68377
 C1083 C 0.53422 0.10257 0.69536
 C1084 C 0.55939 0.10541 0.70896
 C1085 C 0.57120 0.13191 0.71229
 C1086 C 0.55910 0.15496 0.70057
 C1087 C 0.52288 0.17526 0.67187
 C1088 C 0.53654 0.20084 0.67279
 C1089 C 0.52653 0.22269 0.65726
 C1090 C 0.50320 0.21894 0.64084
 C1091 C 0.48919 0.19351 0.64097
 C1092 C 0.49906 0.17150 0.65628
 C1093 C 0.57162 0.18113 0.70196
 C1094 C 0.56058 0.20367 0.68823
 C1095 C 0.49748 0.12286 0.66878
 C1096 C 0.48629 0.14546 0.65529
 H1097 H 0.59052 0.18404 0.71313
 H1098 H 0.57127 0.22331 0.68918
 H1099 H 0.48735 0.10297 0.66690
 H1100 H 0.46784 0.14234 0.64340
 H1101 H 0.52506 0.08231 0.69240
 H1102 H 0.59030 0.13445 0.72317
 H1103 H 0.53768 0.24206 0.65672
 H1104 H 0.47141 0.19025 0.62816
 C1105 C 1.04371 0.65414 0.18377
 C1106 C 1.03256 0.62761 0.17959
 C1107 C 1.04465 0.60511 0.19240
 C1108 C 1.06778 0.60899 0.20926
 C1109 C 1.07789 0.63599 0.21417
 C1110 C 1.06621 0.65855 0.20114
 C1111 C 1.03245 0.67752 0.16859
 C1112 C 1.04472 0.70371 0.17139
 C1113 C 1.03541 0.72530 0.15510
 C1114 C 1.01395 0.72083 0.13631
 C1115 C 1.00120 0.69476 0.13453
 C1116 C 1.01058 0.67291 0.15041
 C1117 C 1.07724 0.68528 0.20430
 C1118 C 1.06677 0.70745 0.18954
 C1119 C 1.01018 0.62397 0.16183
 C1120 C 0.99933 0.64626 0.14754
 H1121 H 1.09457 0.68895 0.21771
 H1122 H 1.07632 0.72758 0.19198
 H1123 H 1.00132 0.60363 0.15851
 H1124 H 0.98241 0.64246 0.13361
 H1125 H 1.03683 0.58449 0.18814
 H1126 H 1.09530 0.63938 0.22755
 H1127 H 1.04576 0.74513 0.15594
 H1128 H 0.98498 0.69093 0.11980
 C1129 C 0.96874 0.85654 0.16432
 C1130 C 0.95701 0.87644 0.14744
 C1131 C 0.94589 0.90008 0.15976
 C1132 C 0.94623 0.90388 0.18880
 C1133 C 0.95853 0.88391 0.20541
 C1134 C 0.96971 0.86012 0.19326
 C1135 C 0.97935 0.83104 0.15151
 C1136 C 0.99020 0.81064 0.16842
 C1137 C 0.99907 0.78586 0.15618
 C1138 C 0.99728 0.78161 0.12729
 C1139 C 0.98632 0.80229 0.11075
 C1140 C 0.97742 0.82707 0.12269
 C1141 C 0.98126 0.83951 0.20947
 C1142 C 0.99128 0.81518 0.19727
 C1143 C 0.95592 0.87193 0.11860
 C1144 C 0.96591 0.84764 0.10644
 H1145 H 0.98219 0.84203 0.23182
 H1146 H 0.99965 0.79964 0.21056
 H1147 H 0.94691 0.88714 0.10536
 H1148 H 0.96435 0.84479 0.08416
 H1149 H 0.93603 0.91499 0.14681
 H1150 H 0.95908 0.88672 0.22774
 H1151 H 1.00643 0.76976 0.16930
 H1152 H 0.98347 0.79866 0.08875
 C1153 C 0.45376 0.35312 0.66992
 C1154 C 0.45963 0.35927 0.69788
 C1155 C 0.44824 0.38279 0.71043
 C1156 C 0.43064 0.39943 0.69527
 C1157 C 0.42518 0.39313 0.66727
 C1158 C 0.43681 0.37008 0.65440
 C1159 C 0.46486 0.32800 0.65684
 C1160 C 0.45866 0.32180 0.62901
 C1161 C 0.46848 0.29754 0.61690
 C1162 C 0.48404 0.27926 0.63242
 C1163 C 0.49014 0.28565 0.66031
 C1164 C 0.48073 0.31023 0.67261
 C1165 C 0.43133 0.36331 0.62652
 C1166 C 0.44217 0.33960 0.61399
 C1167 C 0.47612 0.34137 0.71284
 C1168 C 0.48638 0.31720 0.70046
 H1169 H 0.41836 0.37629 0.61435
 H1170 H 0.43726 0.33495 0.59249
 H1171 H 0.48078 0.34584 0.73443
 H1172 H 0.49866 0.30375 0.71286
 H1173 H 0.45217 0.38759 0.73212
 H1174 H 0.41157 0.40602 0.65570
 H1175 H 0.46313 0.29239 0.59561
 H1176 H 0.50169 0.27149 0.67255
 C1177 C 0.46355 0.64348 0.80086
 C1178 C 0.47234 0.61735 0.80886
 C1179 C 0.45863 0.59378 0.79883
 C1180 C 0.43646 0.59620 0.78079
 C1181 C 0.42841 0.62245 0.77218
 C1182 C 0.44169 0.64627 0.78251
 C1183 C 0.47680 0.66838 0.81282
 C1184 C 0.46705 0.69455 0.80615
 C1185 C 0.47860 0.71808 0.81911
 C1186 C 0.49983 0.71537 0.83826
 C1187 C 0.50975 0.68907 0.84416
 C1188 C 0.49819 0.66549 0.83168
 C1189 C 0.43304 0.67280 0.77564
 C1190 C 0.44542 0.69653 0.78737
 C1191 C 0.49419 0.61533 0.82733
 C1192 C 0.50696 0.63901 0.83849
 H1193 H 0.41620 0.67524 0.76152
 H1194 H 0.43775 0.71657 0.78197
 H1195 H 0.50121 0.59528 0.83354
 H1196 H 0.52347 0.63657 0.85301
 H1197 H 0.46486 0.57353 0.80536
 H1198 H 0.41113 0.62430 0.75848
 H1199 H 0.47054 0.73829 0.81505
 H1200 H 0.52559 0.68665 0.85940
 C1201 C -0.03824 0.15274 0.29195
 C1202 C -0.02733 0.12676 0.29731
 C1203 C -0.03959 0.10310 0.28552
 C1204 C -0.06275 0.10525 0.26865
 C1205 C -0.07294 0.13158 0.26286
 C1206 C -0.06087 0.15538 0.27462
 C1207 C -0.02648 0.17750 0.30574
 C1208 C -0.03814 0.20336 0.30141
 C1209 C -0.02808 0.22652 0.31617
 C1210 C -0.00681 0.22370 0.33523
 C1211 C 0.00522 0.19787 0.33866
 C1212 C -0.00462 0.17464 0.32405
 C1213 C -0.07145 0.18170 0.27009
 C1214 C -0.06030 0.20528 0.28329
 C1215 C -0.00495 0.12486 0.31513
 C1216 C 0.00622 0.14840 0.32829
 H1217 H -0.08885 0.18403 0.25667
 H1218 H -0.06944 0.22510 0.27970
 H1219 H 0.00368 0.10494 0.31938
 H1220 H 0.02312 0.14597 0.34233
 H1221 H -0.03180 0.08298 0.29046
 H1222 H -0.09055 0.13348 0.24963
 H1223 H -0.03753 0.24639 0.31382
 H1224 H 0.02133 0.19543 0.35360
 C1225 C 0.04627 0.35870 0.30796
 C1226 C 0.05156 0.38142 0.32567
 C1227 C 0.06285 0.40544 0.31474
 C1228 C 0.06962 0.40675 0.28643
 C1229 C 0.06359 0.38399 0.26875
 C1230 C 0.05188 0.35984 0.27947
 C1231 C 0.03516 0.33307 0.31964
 C1232 C 0.02985 0.31017 0.30207
 C1233 C 0.01948 0.28572 0.31351
 C1234 C 0.01495 0.28436 0.34221
 C1235 C 0.02071 0.30731 0.35945
 C1236 C 0.03050 0.33183 0.34829
 C1237 C 0.04620 0.33658 0.26249
 C1238 C 0.03529 0.31222 0.27357
 C1239 C 0.04607 0.37952 0.35412
 C1240 C 0.03583 0.35507 0.36527
 H1241 H 0.05039 0.33715 0.24046
 H1242 H 0.03131 0.29477 0.25976
 H1243 H 0.05009 0.39696 0.36795
 H1244 H 0.03215 0.35431 0.38739
 H1245 H 0.06682 0.42301 0.32842
 H1246 H 0.06885 0.38469 0.24697
 H1247 H 0.01531 0.26786 0.30030
 H1248 H 0.01731 0.30611 0.38161
 C1249 C 0.55449 0.84733 0.79896
 C1250 C 0.56712 0.86832 0.81490
 C1251 C 0.57692 0.89183 0.80177
 C1252 C 0.57416 0.89461 0.77294
 C1253 C 0.56088 0.87376 0.75720
 C1254 C 0.55118 0.84982 0.77017
 C1255 C 0.54472 0.82222 0.81273
 C1256 C 0.53236 0.80091 0.79692
 C1257 C 0.52301 0.77707 0.81033
 C1258 C 0.52573 0.77505 0.83924
 C1259 C 0.53832 0.79646 0.85462
 C1260 C 0.54792 0.82005 0.84152
 C1261 C 0.53862 0.82814 0.75502
 C1262 C 0.52942 0.80410 0.76815
 C1263 C 0.56997 0.86532 0.84364
 C1264 C 0.56045 0.84159 0.85675
 H1265 H 0.53597 0.82972 0.73280
 H1266 H 0.51988 0.78790 0.75568
 H1267 H 0.57967 0.88143 0.85609
 H1268 H 0.56298 0.84006 0.87899
 H1269 H 0.58689 0.90802 0.81395
 H1270 H 0.55887 0.87584 0.73495
 H1271 H 0.51337 0.76054 0.79846
 H1272 H 0.54030 0.79490 0.87693
 C1273 C 0.67583 0.55298 0.16420
 C1274 C 0.67095 0.57996 0.15590
 C1275 C 0.68155 0.58908 0.13079
 C1276 C 0.69774 0.57181 0.11356
 C1277 C 0.70181 0.54430 0.12243
 C1278 C 0.69096 0.53493 0.14758
 C1279 C 0.66459 0.54340 0.19071
 C1280 C 0.66899 0.51621 0.19897
 C1281 C 0.65773 0.50716 0.22404
 C1282 C 0.64262 0.52531 0.24086
 C1283 C 0.63824 0.55236 0.23198
 C1284 C 0.64918 0.56153 0.20705
 C1285 C 0.69513 0.50785 0.15659
 C1286 C 0.68425 0.49863 0.18177
 C1287 C 0.65532 0.59746 0.17281
 C1288 C 0.64466 0.58841 0.19798
 H1289 H 0.70681 0.49362 0.14402
 H1290 H 0.68783 0.47758 0.18782
 H1291 H 0.65134 0.61838 0.16656
 H1292 H 0.63272 0.60256 0.21040
 H1293 H 0.67574 0.60943 0.12448
 H1294 H 0.71450 0.53022 0.11090
 H1295 H 0.66008 0.48591 0.22998
 H1296 H 0.62579 0.56632 0.24388
 C1297 C 0.17499 1.04495 0.65386
 C1298 C 0.20297 1.04405 0.64890
 C1299 C 0.21311 1.05364 0.62356
 C1300 C 0.19540 1.06452 0.60373
 C1301 C 0.16744 1.06490 0.60895
 C1302 C 0.15709 1.05506 0.63390
 C1303 C 0.16420 1.03547 0.68056
 C1304 C 0.13620 1.03629 0.68525
 C1305 C 0.12596 1.02709 0.71043
 C1306 C 0.14339 1.01737 0.73097
 C1307 C 0.17146 1.01697 0.72639
 C1308 C 0.18201 1.02586 0.70091
 C1309 C 0.12922 1.05552 0.63942
 C1310 C 0.11893 1.04618 0.66465
 C1311 C 0.22018 1.03409 0.66962
 C1312 C 0.20989 1.02523 0.69519
 H1313 H 0.11526 1.06323 0.62413
 H1314 H 0.09729 1.04684 0.66812
 H1315 H 0.24181 1.03332 0.66611
 H1316 H 0.22387 1.01780 0.71060
 H1317 H 0.23470 1.05358 0.61962
 H1318 H 0.15380 1.07315 0.59362
 H1319 H 0.10429 1.02726 0.71398
 H1320 H 0.18489 1.00951 0.74226
 C1321 C 0.19250 0.95521 0.85737
 C1322 C 0.21152 0.93474 0.85167
 C1323 C 0.22408 0.92139 0.87374
 C1324 C 0.21740 0.92777 0.90184
 C1325 C 0.19844 0.94912 0.90668
 C1326 C 0.18603 0.96269 0.88473
 C1327 C 0.17847 0.96853 0.83425
 C1328 C 0.15904 0.98865 0.84009
 C1329 C 0.14477 1.00025 0.81821
 C1330 C 0.14971 0.99180 0.79066
 C1331 C 0.16936 0.97179 0.78501
 C1332 C 0.18397 0.96014 0.80681
 C1333 C 0.16691 0.98340 0.88971
 C1334 C 0.15362 0.99615 0.86777
 C1335 C 0.21701 0.92734 0.82391
 C1336 C 0.20340 0.93975 0.80187
 H1337 H 0.16184 0.98950 0.91078
 H1338 H 0.13869 1.01171 0.87251
 H1339 H 0.23166 0.91151 0.81917
 H1340 H 0.20792 0.93312 0.78084
 H1341 H 0.23748 0.90466 0.86845
 H1342 H 0.19375 0.95622 0.92749
 H1343 H 0.12903 1.01493 0.82288
 H1344 H 0.17269 0.96474 0.76385
 C1345 C 0.69362 0.46567 0.36641
 C1346 C 0.71462 0.44746 0.35989
 C1347 C 0.72689 0.43281 0.38124
 C1348 C 0.71801 0.43600 0.40887
 C1349 C 0.69753 0.45507 0.41510
 C1350 C 0.68514 0.46982 0.39394
 C1351 C 0.67932 0.47962 0.34387
 C1352 C 0.65741 0.49668 0.35032
 C1353 C 0.64256 0.50816 0.32875
 C1354 C 0.64945 0.50269 0.30092
 C1355 C 0.67192 0.48619 0.29477
 C1356 C 0.68690 0.47446 0.31622
 C1357 C 0.66369 0.48778 0.39962
 C1358 C 0.65003 0.50096 0.37817
 C1359 C 0.72223 0.44351 0.33205
 C1360 C 0.70860 0.45677 0.31058
 H1361 H 0.65701 0.49120 0.42077
 H1362 H 0.63318 0.51417 0.38338
 H1363 H 0.73848 0.42958 0.32676
 H1364 H 0.71471 0.45268 0.28935
 H1365 H 0.74285 0.41841 0.37629
 H1366 H 0.69027 0.45740 0.43620
 H1367 H 0.62484 0.52016 0.33376
 H1368 H 0.67707 0.48146 0.27348
 C1369 C 0.81110 0.44443 0.65260
 C1370 C 0.82641 0.44188 0.62822
 C1371 C 0.81517 0.42808 0.60516
 C1372 C 0.78889 0.41659 0.60630
 C1373 C 0.77348 0.41989 0.63068
 C1374 C 0.78461 0.43369 0.65402
 C1375 C 0.82333 0.45799 0.67729
 C1376 C 0.80837 0.45998 0.70199
 C1377 C 0.82059 0.47195 0.72573
 C1378 C 0.84753 0.48151 0.72463
 C1379 C 0.86202 0.47981 0.69967
 C1380 C 0.85006 0.46803 0.67592
 C1381 C 0.77009 0.43648 0.67895
 C1382 C 0.78176 0.44938 0.70251
 C1383 C 0.85289 0.45269 0.62753
 C1384 C 0.86454 0.46553 0.65100
 H1385 H 0.74964 0.42833 0.68036
 H1386 H 0.76997 0.45079 0.72139
 H1387 H 0.86485 0.45089 0.60878
 H1388 H 0.88515 0.47328 0.64973
 H1389 H 0.82697 0.42605 0.58631
 H1390 H 0.75329 0.41100 0.63175
 H1391 H 0.80952 0.47310 0.74508
 H1392 H 0.88286 0.48706 0.69896
 C1393 C 0.31997 -0.04894 0.14545
 C1394 C 0.29264 -0.05727 0.14551
 C1395 C 0.28189 -0.07124 0.12211
 C1396 C 0.29850 -0.07727 0.09912
 C1397 C 0.32572 -0.06836 0.09933
 C1398 C 0.33656 -0.05419 0.12240
 C1399 C 0.33167 -0.03512 0.17027
 C1400 C 0.35911 -0.02726 0.17027
 C1401 C 0.37043 -0.01520 0.19423
 C1402 C 0.35469 -0.01153 0.21819
 C1403 C 0.32708 -0.01885 0.21785
 C1404 C 0.31542 -0.03076 0.19380
 C1405 C 0.36381 -0.04560 0.12304
 C1406 C 0.37489 -0.03230 0.14657
 C1407 C 0.27685 -0.05199 0.16920
 C1408 C 0.28806 -0.03904 0.19295
 H1409 H 0.37676 -0.04946 0.10532
 H1410 H 0.39608 -0.02630 0.14636
 H1411 H 0.25574 -0.05828 0.16952
 H1412 H 0.27528 -0.03574 0.21090
 H1413 H 0.26096 -0.07821 0.12210
 H1414 H 0.33848 -0.07264 0.08154
 H1415 H 0.39174 -0.00956 0.19462
 H1416 H 0.31498 -0.01603 0.23636
 C1417 C 0.30202 0.03617 0.34939
 C1418 C 0.28763 0.06089 0.34815
 C1419 C 0.27508 0.07117 0.37215
 C1420 C 0.27695 0.05703 0.39737
 C1421 C 0.29100 0.03194 0.39808
 C1422 C 0.30363 0.02144 0.37414
 C1423 C 0.31649 0.02606 0.32457
 C1424 C 0.33158 0.00182 0.32602
 C1425 C 0.34664 -0.00675 0.30288
 C1426 C 0.34728 0.00917 0.27877
 C1427 C 0.33091 0.03259 0.27717
 C1428 C 0.31568 0.04133 0.30013
 C1429 C 0.31836 -0.00315 0.37456
 C1430 C 0.33207 -0.01282 0.35090
 C1431 C 0.28670 0.07521 0.32310
 C1432 C 0.30047 0.06559 0.29949
 H1433 H 0.31967 -0.01480 0.39347
 H1434 H 0.34360 -0.03161 0.35225
 H1435 H 0.27558 0.09427 0.32187
 H1436 H 0.29963 0.07752 0.28073
 H1437 H 0.26473 0.09071 0.37143
 H1438 H 0.29232 0.02077 0.41729
 H1439 H 0.35834 -0.02539 0.30408
 H1440 H 0.33065 0.04459 0.25854
 C1441 C 0.79989 0.52746 0.85852
 C1442 C 0.80468 0.51421 0.88369
 C1443 C 0.79312 0.52481 0.90815
 C1444 C 0.77708 0.54863 0.90756
 C1445 C 0.77191 0.56114 0.88195
 C1446 C 0.78333 0.55070 0.85740
 C1447 C 0.81340 0.51752 0.83307
 C1448 C 0.80944 0.53141 0.80812
 C1449 C 0.82379 0.52304 0.78443
 C1450 C 0.84249 0.50151 0.78579
 C1451 C 0.84504 0.48680 0.81054
 C1452 C 0.83081 0.49494 0.83437
 C1453 C 0.77922 0.56359 0.83190
 C1454 C 0.79202 0.55408 0.80765
 C1455 C 0.82157 0.49112 0.88399
 C1456 C 0.83440 0.48163 0.85973
 H1457 H 0.76639 0.58149 0.83075
 H1458 H 0.78874 0.56493 0.78852
 H1459 H 0.82533 0.48062 0.90323
 H1460 H 0.84772 0.46411 0.86098
 H1461 H 0.79697 0.51485 0.92767
 H1462 H 0.76001 0.57974 0.88124
 H1463 H 0.82098 0.53392 0.76534
 H1464 H 0.85860 0.46953 0.81169
 C1465 C 0.13899 0.69723 0.54819
 C1466 C 0.11359 0.68812 0.53831
 C1467 C 0.09005 0.69823 0.55091
 C1468 C 0.09183 0.71711 0.57342
 C1469 C 0.11749 0.72672 0.58239
 C1470 C 0.14114 0.71673 0.56996
 C1471 C 0.16379 0.68528 0.53629
 C1472 C 0.18915 0.69359 0.54688
 C1473 C 0.21252 0.68068 0.53687
 C1474 C 0.21053 0.65914 0.51704
 C1475 C 0.18513 0.65228 0.50543
 C1476 C 0.16162 0.66501 0.51525
 C1477 C 0.16690 0.72523 0.57940
 C1478 C 0.19051 0.71387 0.56803
 C1479 C 0.11228 0.66840 0.51663
 C1480 C 0.13590 0.65707 0.50526
 H1481 H 0.16882 0.74037 0.59609
 H1482 H 0.20995 0.72054 0.57631
 H1483 H 0.09283 0.66127 0.50874
 H1484 H 0.13397 0.64149 0.48896
 H1485 H 0.07045 0.69053 0.54401
 H1486 H 0.11906 0.74160 0.59937
 H1487 H 0.23210 0.68694 0.54502
 H1488 H 0.18328 0.63645 0.48953
 C1489 C 0.65155 0.19541 1.04555
 C1490 C 0.65632 0.21185 1.06934
 C1491 C 0.63425 0.22326 1.08355
 C1492 C 0.60751 0.21786 1.07444
 C1493 C 0.60324 0.20161 1.05026
 C1494 C 0.62515 0.19038 1.03575
 C1495 C 0.67456 0.18234 1.03124
 C1496 C 0.66964 0.16517 1.00801
 C1497 C 0.69130 0.15143 0.99551
 C1498 C 0.71770 0.15441 1.00626
 C1499 C 0.72240 0.17215 1.02920
 C1500 C 0.70086 0.18622 1.04179
 C1501 C 0.62112 0.17355 1.01206
 C1502 C 0.64300 0.16119 0.99840
 C1503 C 0.68301 0.21596 1.07881
 C1504 C 0.70489 0.20327 1.06534
 H1505 H 0.60084 0.16956 1.00426
 H1506 H 0.63898 0.14798 0.98047
 H1507 H 0.68698 0.22867 1.09711
 H1508 H 0.72508 0.20650 1.07367
 H1509 H 0.63788 0.23606 1.10186
 H1510 H 0.58283 0.19687 1.04326
 H1511 H 0.68712 0.13741 0.97832
 H1512 H 0.74239 0.17393 1.03819
 C1513 C 0.85065 0.18803 0.95605
 C1514 C 0.86535 0.20508 0.97455
 C1515 C 0.88959 0.21762 0.96560
 C1516 C 0.89887 0.21394 0.93789
 C1517 C 0.88343 0.19622 0.92001
 C1518 C 0.85973 0.18325 0.92895
 C1519 C 0.82531 0.17468 0.96525
 C1520 C 0.81132 0.15685 0.94691
 C1521 C 0.78757 0.14390 0.95569
 C1522 C 0.77687 0.14946 0.98219
 C1523 C 0.79146 0.16688 1.00069
 C1524 C 0.81579 0.17960 0.99227
 C1525 C 0.84510 0.16528 0.91117
 C1526 C 0.82138 0.15214 0.92007
 C1527 C 0.85532 0.20942 1.00156
 C1528 C 0.83095 0.19697 1.01024
 H1529 H 0.85206 0.16129 0.89021
 H1530 H 0.81071 0.13836 0.90576
 H1531 H 0.86636 0.22261 1.01611
 H1532 H 0.82395 0.20094 1.03119
 H1533 H 0.90007 0.23142 0.97998
 H1534 H 0.89043 0.19088 0.89938
 H1535 H 0.77797 0.12909 0.94181
 H1536 H 0.78432 0.17013 1.02163
 C1537 C 0.34186 0.70468 0.47805
 C1538 C 0.33949 0.72678 0.45985
 C1539 C 0.36305 0.73924 0.44946
 C1540 C 0.38879 0.72954 0.45694
 C1541 C 0.39077 0.70809 0.47609
 C1542 C 0.36736 0.69539 0.48650
 C1543 C 0.31723 0.69011 0.48735
 C1544 C 0.31973 0.66708 0.50434
 C1545 C 0.29646 0.65218 0.51161
 C1546 C 0.27087 0.66024 0.50216
 C1547 C 0.26851 0.68370 0.48570
 C1548 C 0.29174 0.69867 0.47805
 C1549 C 0.36894 0.67282 0.50424
 C1550 C 0.34552 0.65886 0.51297
 C1551 C 0.31364 0.73525 0.45160
 C1552 C 0.29017 0.72145 0.46056
 H1553 H 0.38848 0.66549 0.51093
 H1554 H 0.34765 0.64118 0.52618
 H1555 H 0.31156 0.75235 0.43764
 H1556 H 0.27066 0.72832 0.45330
 H1557 H 0.36140 0.75589 0.43488
 H1558 H 0.41047 0.70025 0.48163
 H1559 H 0.29849 0.63378 0.52379
 H1560 H 0.24879 0.68963 0.47813
 C1561 C 0.65098 0.81092 0.46232
 C1562 C 0.64587 0.80164 0.43507
 C1563 C 0.62022 0.79100 0.42826
 C1564 C 0.59953 0.79000 0.44829
 C1565 C 0.60496 0.79931 0.47560
 C1566 C 0.63080 0.80965 0.48277
 C1567 C 0.67770 0.82304 0.46931
 C1568 C 0.68279 0.83273 0.49643
 C1569 C 0.70779 0.84552 0.50254
 C1570 C 0.72704 0.84960 0.48148
 C1571 C 0.72192 0.83904 0.45465
 C1572 C 0.69731 0.82565 0.44844
 C1573 C 0.63679 0.81917 0.50982
 C1574 C 0.66239 0.83039 0.51657
 C1575 C 0.66630 0.80378 0.41498
 C1576 C 0.69156 0.81570 0.42153
 H1577 H 0.62149 0.81822 0.52584
 H1578 H 0.66605 0.83783 0.53757
 H1579 H 0.66256 0.79663 0.39389
 H1580 H 0.70657 0.81750 0.40529
 H1581 H 0.61605 0.78434 0.40708
 H1582 H 0.58913 0.79852 0.49110
 H1583 H 0.71171 0.85342 0.52333
 H1584 H 0.73651 0.84194 0.43830
 C1585 C 0.15841 0.30021 -0.02907
 C1586 C 0.13667 0.29856 -0.01037
 C1587 C 0.11107 0.28995 -0.02021
 C1588 C 0.10726 0.28381 -0.04856
 C1589 C 0.12938 0.28478 -0.06681
 C1590 C 0.15503 0.29296 -0.05720
 C1591 C 0.18477 0.31130 -0.01942
 C1592 C 0.20603 0.31418 -0.03848
 C1593 C 0.23018 0.32710 -0.02989
 C1594 C 0.23290 0.33774 -0.00274
 C1595 C 0.21204 0.33340 0.01657
 C1596 C 0.18774 0.32036 0.00825
 C1597 C 0.17707 0.29515 -0.07539
 C1598 C 0.20219 0.30552 -0.06617
 C1599 C 0.14076 0.30673 0.01745
 C1600 C 0.16584 0.31751 0.02659
 H1601 H 0.17471 0.28945 -0.09709
 H1602 H 0.21848 0.30758 -0.08103
 H1603 H 0.12422 0.30550 0.03211
 H1604 H 0.16788 0.32433 0.04801
 H1605 H 0.09391 0.28939 -0.00626
 H1606 H 0.12633 0.28002 -0.08866
 H1607 H 0.24612 0.33016 -0.04487
 H1608 H 0.21410 0.34145 0.03758
 C1609 C 0.36482 0.31160 0.05009
 C1610 C 0.36443 0.28479 0.06063
 C1611 C 0.38790 0.27465 0.07319
 C1612 C 0.41143 0.29131 0.07537
 C1613 C 0.41162 0.31776 0.06381
 C1614 C 0.38835 0.32810 0.05139
 C1615 C 0.33990 0.32296 0.03823
 C1616 C 0.34021 0.35010 0.02860
 C1617 C 0.31632 0.36125 0.01845
 C1618 C 0.29229 0.34550 0.01779
 C1619 C 0.29219 0.31817 0.02693
 C1620 C 0.31608 0.30679 0.03743
 C1621 C 0.38798 0.35492 0.04094
 C1622 C 0.36427 0.36577 0.02977
 C1623 C 0.34037 0.26904 0.05908
 C1624 C 0.31662 0.27983 0.04763
 H1625 H 0.40605 0.36779 0.04180
 H1626 H 0.36470 0.38670 0.02229
 H1627 H 0.33979 0.24831 0.06707
 H1628 H 0.29846 0.26710 0.04711
 H1629 H 0.38753 0.25435 0.08221
 H1630 H 0.42977 0.33052 0.06498
 H1631 H 0.31628 0.38237 0.01146
 H1632 H 0.27358 0.30612 0.02646
 C1633 C 0.85404 0.81467 0.53887
 C1634 C 0.85068 0.78864 0.55080
 C1635 C 0.87247 0.77707 0.56510
 C1636 C 0.89720 0.79165 0.56782
 C1637 C 0.90035 0.81738 0.55507
 C1638 C 0.87884 0.82903 0.54067
 C1639 C 0.83091 0.82758 0.52503
 C1640 C 0.83417 0.85394 0.51383
 C1641 C 0.81187 0.86669 0.50188
 C1642 C 0.78647 0.85341 0.50134
 C1643 C 0.78349 0.82677 0.51200
 C1644 C 0.80576 0.81374 0.52404
 C1645 C 0.88146 0.85510 0.52867
 C1646 C 0.85948 0.86735 0.51546
 C1647 C 0.82539 0.77514 0.54886
 C1648 C 0.80330 0.78748 0.53573
 H1649 H 0.90054 0.86631 0.52988
 H1650 H 0.86222 0.88767 0.50683
 H1651 H 0.82251 0.75505 0.55794
 H1652 H 0.78406 0.77654 0.53507
 H1653 H 0.86988 0.75735 0.57506
 H1654 H 0.91945 0.82853 0.55682
 H1655 H 0.81406 0.88729 0.49374
 H1656 H 0.76385 0.81660 0.51164
   
