data_POSCAR
  _audit_creation_date              2014-09-24
  _audit_creation_method            'ToBaCCo'
  _symmetry_space_group_name_H-M    'P1'
  _symmetry_Int_Tables_number       1
  _symmetry_cell_setting            triclinic
  loop_
  _symmetry_equiv_pos_as_xyz
 x,y,z
_cell_length_a 57.7822
_cell_length_b 57.7864
_cell_length_c 57.7280
_cell_angle_alpha 90.070700
_cell_angle_beta 90.012800
_cell_angle_gamma 89.910600
loop_
  _atom_site_label
  _atom_site_type_symbol
  _atom_site_fract_x
  _atom_site_fract_y
  _atom_site_fract_z
C1 C 0.36855 0.26723 -0.01250
 C2 C 0.36866 0.26728 0.01126
 C3 C 0.35647 0.28678 0.01817
 N4 N 0.34906 0.29870 -0.00057
 C5 C 0.35630 0.28674 -0.01937
 C6 C 0.35390 0.29414 0.04135
 C7 C 0.33985 0.31294 0.04826
 C8 C 0.34019 0.32303 0.07008
 C9 C 0.32332 0.33986 0.07018
 C10 C 0.31314 0.33961 0.04841
 N11 N 0.32317 0.32301 0.03526
 C12 C 0.29428 0.35367 0.04170
 C13 C 0.28679 0.35633 0.01857
 C14 C 0.26723 0.36853 0.01185
 C15 C 0.26706 0.36853 -0.01190
 C16 C 0.28655 0.35634 -0.01897
 N17 N 0.29862 0.34904 -0.00029
 C18 C 0.29380 0.35371 -0.04222
 C19 C 0.31269 0.33968 -0.04912
 C20 C 0.32281 0.34003 -0.07094
 C21 C 0.33967 0.32321 -0.07103
 C22 C 0.33945 0.31299 -0.04928
 N23 N 0.32282 0.32302 -0.03613
 C24 C 0.35354 0.29410 -0.04256
 H25 H 0.37685 0.25448 -0.02347
 H26 H 0.37705 0.25457 0.02218
 H27 H 0.31702 0.31714 -0.02018
 H28 H 0.35133 0.31862 0.08450
 H29 H 0.31897 0.35093 0.08468
 H30 H 0.25457 0.37684 0.02290
 H31 H 0.25424 0.37686 -0.02275
 H32 H 0.35073 0.31889 -0.08554
 H33 H 0.31730 0.31721 0.01929
 H34 H 0.31839 0.35115 -0.08536
 C35 C 0.73398 0.63152 -0.01179
 C36 C 0.73389 0.63155 0.01197
 C37 C 0.71439 0.64381 0.01876
 N38 N 0.70252 0.65113 -0.00004
 C39 C 0.71450 0.64376 -0.01877
 C40 C 0.70698 0.64651 0.04191
 C41 C 0.68816 0.66059 0.04872
 C42 C 0.67804 0.66033 0.07051
 C43 C 0.66118 0.67716 0.07050
 C44 C 0.66145 0.68725 0.04871
 N45 N 0.67810 0.67719 0.03564
 C46 C 0.64731 0.70601 0.04187
 C47 C 0.64463 0.71332 0.01870
 C48 C 0.63226 0.73271 0.01182
 C49 C 0.63232 0.73271 -0.01194
 C50 C 0.64473 0.71331 -0.01881
 N51 N 0.65210 0.70144 -0.00005
 C52 C 0.64749 0.70598 -0.04197
 C53 C 0.66160 0.68718 -0.04880
 C54 C 0.66132 0.67707 -0.07060
 C55 C 0.67817 0.66023 -0.07063
 C56 C 0.68832 0.66049 -0.04882
 N57 N 0.67825 0.67713 -0.03573
 C58 C 0.70718 0.64641 -0.04199
 H59 H 0.74673 0.62313 -0.02269
 H60 H 0.74657 0.62320 0.02297
 H61 H 0.68407 0.68297 -0.01975
 H62 H 0.68243 0.64926 0.08498
 H63 H 0.65007 0.68155 0.08496
 H64 H 0.62378 0.74536 0.02277
 H65 H 0.62389 0.74536 -0.02291
 H66 H 0.68254 0.64915 -0.08512
 H67 H 0.68393 0.68299 0.01967
 H68 H 0.65022 0.68145 -0.08506
 C69 C 0.61534 0.28278 1.01145
 C70 C 0.61533 0.28296 0.98770
 C71 C 0.63487 0.29509 0.98092
 N72 N 0.64689 0.30213 0.99975
 C73 C 0.63491 0.29481 1.01846
 C74 C 0.64197 0.29822 0.95773
 C75 C 0.66081 0.31223 0.95098
 C76 C 0.67049 0.31247 0.92899
 C77 C 0.68732 0.32929 0.92909
 C78 C 0.68747 0.33887 0.95114
 N79 N 0.67115 0.32848 0.96429
 C80 C 0.70148 0.35766 0.95809
 C81 C 0.70447 0.36466 0.98134
 C82 C 0.71662 0.38413 0.98835
 C83 C 0.71662 0.38401 1.01211
 C84 C 0.70447 0.36447 1.01886
 N85 N 0.69725 0.35259 1.00003
 C86 C 0.70150 0.35723 1.04202
 C87 C 0.68760 0.33829 1.04873
 C88 C 0.68764 0.32841 1.07062
 C89 C 0.67087 0.31154 1.07055
 C90 C 0.66099 0.31156 1.04861
 N91 N 0.67121 0.32804 1.03551
 C92 C 0.64209 0.29760 1.04173
 H93 H 0.60251 0.27454 1.02232
 H94 H 0.60250 0.27489 0.97668
 H95 H 0.66550 0.33379 1.01948
 H96 H 0.66577 0.30179 0.91431
 H97 H 0.69807 0.33407 0.91451
 H98 H 0.72483 0.39697 0.97748
 H99 H 0.72483 0.39675 1.02314
 H100 H 0.66630 0.30065 1.08508
 H101 H 0.66555 0.33399 0.98045
 H102 H 0.69848 0.33301 1.08520
 C103 C 0.28336 0.61491 0.98846
 C104 C 0.28334 0.61493 1.01222
 C105 C 0.29542 0.63451 1.01915
 N106 N 0.30263 0.64647 1.00039
 C107 C 0.29545 0.63445 0.98161
 C108 C 0.29832 0.64173 1.04239
 C109 C 0.31229 0.66066 1.04917
 C110 C 0.31227 0.67063 1.07107
 C111 C 0.32913 0.68740 1.07106
 C112 C 0.33905 0.68727 1.04915
 N113 N 0.32876 0.67083 1.03601
 C114 C 0.35804 0.70112 1.04234
 C115 C 0.36523 0.70392 1.01909
 C116 C 0.38485 0.71588 1.01213
 C117 C 0.38481 0.71582 0.98838
 C118 C 0.36519 0.70382 0.98155
 N119 N 0.35318 0.69674 1.00035
 C120 C 0.35801 0.70086 0.95835
 C121 C 0.33911 0.68694 0.95154
 C122 C 0.32936 0.68684 0.92958
 C123 C 0.31249 0.67006 0.92959
 C124 C 0.31239 0.66036 0.95156
 N125 N 0.32878 0.67064 0.96475
 C126 C 0.29839 0.64155 0.95840
 H127 H 0.27520 0.60209 0.97750
 H128 H 0.27515 0.60212 1.02314
 H129 H 0.33440 0.66503 0.98086
 H130 H 0.30138 0.66612 1.08564
 H131 H 0.33374 0.69829 1.08561
 H132 H 0.39773 0.72403 1.02303
 H133 H 0.39765 0.72389 0.97739
 H134 H 0.30170 0.66537 0.91500
 H135 H 0.33448 0.66504 1.01998
 H136 H 0.33406 0.69758 0.91497
 C137 C -0.01148 0.28230 0.38382
 C138 C 0.01225 0.28256 0.38368
 C139 C 0.01884 0.29473 0.36408
 N140 N -0.00006 0.30172 0.35218
 C141 C -0.01865 0.29432 0.36428
 C142 C 0.04195 0.29793 0.35683
 C143 C 0.04852 0.31199 0.33794
 C144 C 0.07041 0.31229 0.32808
 C145 C 0.07014 0.32917 0.31129
 C146 C 0.04810 0.33873 0.31136
 N147 N 0.03511 0.32826 0.32776
 C148 C 0.04103 0.35760 0.29751
 C149 C 0.01777 0.36459 0.29476
 C150 C 0.01068 0.38420 0.28288
 C151 C -0.01305 0.38406 0.28303
 C152 C -0.01973 0.36434 0.29499
 N153 N -0.00084 0.35241 0.30196
 C154 C -0.04287 0.35696 0.29799
 C155 C -0.04938 0.33783 0.31181
 C156 C -0.07117 0.32772 0.31180
 C157 C -0.07090 0.31079 0.32852
 C158 C -0.04897 0.31097 0.33834
 N159 N -0.03604 0.32760 0.32813
 C160 C -0.04194 0.29702 0.35721
 H161 H -0.02223 0.27399 0.39671
 H162 H 0.02337 0.27451 0.39645
 H163 H -0.02006 0.33345 0.33383
 H164 H 0.08512 0.30162 0.33265
 H165 H 0.08462 0.33402 0.30044
 H166 H 0.02147 0.39716 0.27475
 H167 H -0.02413 0.39689 0.27503
 H168 H -0.08532 0.29977 0.33310
 H169 H 0.01900 0.33373 0.33351
 H170 H -0.08582 0.33225 0.30103
 C171 C -0.01140 0.73263 0.63077
 C172 C 0.01233 0.73239 0.63083
 C173 C 0.01900 0.71285 0.64307
 N174 N 0.00014 0.70111 0.65034
 C175 C -0.01850 0.71320 0.64297
 C176 C 0.04210 0.70533 0.64581
 C177 C 0.04881 0.68651 0.65991
 C178 C 0.07056 0.67631 0.65973
 C179 C 0.07045 0.65950 0.67658
 C180 C 0.04863 0.65987 0.68660
 N181 N 0.03565 0.67654 0.67649
 C182 C 0.04169 0.64582 0.70536
 C183 C 0.01851 0.64324 0.71259
 C184 C 0.01151 0.63094 0.73197
 C185 C -0.01223 0.63110 0.73189
 C186 C -0.01897 0.64349 0.71246
 N187 N -0.00016 0.65076 0.70064
 C188 C -0.04209 0.64636 0.70506
 C189 C -0.04882 0.66051 0.68628
 C190 C -0.07060 0.66038 0.67616
 C191 C -0.07053 0.67723 0.65935
 C192 C -0.04869 0.68724 0.65964
 N193 N -0.03567 0.67707 0.67626
 C194 C -0.04175 0.70606 0.64559
 H195 H -0.02221 0.74545 0.62239
 H196 H 0.02340 0.74500 0.62253
 H197 H -0.01969 0.68277 0.68212
 H198 H 0.08507 0.68062 0.64869
 H199 H 0.08485 0.64835 0.68102
 H200 H 0.02237 0.62245 0.74467
 H201 H -0.02325 0.62275 0.74451
 H202 H -0.08497 0.68171 0.64827
 H203 H 0.01968 0.68244 0.68224
 H204 H -0.08510 0.64937 0.68051
 C205 C 0.98863 0.63120 0.26751
 C206 C 1.01236 0.63123 0.26736
 C207 C 1.01935 0.64347 0.28685
 N208 N 1.00065 0.65077 0.29890
 C209 C 0.98186 0.64342 0.28706
 C210 C 1.04256 0.64614 0.29413
 C211 C 1.04938 0.66018 0.31304
 C212 C 1.07115 0.65984 0.32323
 C213 C 1.07116 0.67667 0.34008
 C214 C 1.04939 0.68689 0.33979
 N215 N 1.03632 0.67685 0.32312
 C216 C 1.04260 0.70580 0.35384
 C217 C 1.01941 0.71318 0.35652
 C218 C 1.01247 0.73272 0.36872
 C219 C 0.98874 0.73269 0.36875
 C220 C 0.98191 0.71316 0.35658
 N221 N 1.00067 0.70122 0.34925
 C222 C 0.95877 0.70580 0.35397
 C223 C 0.95196 0.68693 0.33997
 C224 C 0.93020 0.67682 0.34032
 C225 C 0.93020 0.65992 0.32351
 C226 C 0.95195 0.66017 0.31334
 N227 N 0.96502 0.67682 0.32333
 C228 C 0.95874 0.64606 0.29453
 H229 H 0.97763 0.62285 0.25484
 H230 H 1.02324 0.62289 0.25456
 H231 H 0.98095 0.68263 0.31745
 H232 H 1.08560 0.64872 0.31886
 H233 H 1.08561 0.68101 0.35119
 H234 H 1.02338 0.74548 0.37703
 H235 H 0.97777 0.74542 0.37709
 H236 H 0.91576 0.64882 0.31918
 H237 H 1.02038 0.68273 0.31727
 H238 H 0.91577 0.68125 0.35143
 C239 C 0.98878 0.26738 0.63071
 C240 C 1.01252 0.26753 0.63088
 C241 C 1.01914 0.28698 0.64333
 N242 N 1.00025 0.29873 0.65061
 C243 C 0.98166 0.28672 0.64305
 C244 C 1.04221 0.29445 0.64623
 C245 C 1.04880 0.31324 0.66044
 C246 C 1.07052 0.32343 0.66034
 C247 C 1.07032 0.34023 0.67724
 C248 C 1.04847 0.33987 0.68724
 N249 N 1.03556 0.32322 0.67702
 C250 C 1.04142 0.35390 0.70608
 C251 C 1.01814 0.35648 0.71320
 C252 C 1.01093 0.36870 0.73264
 C253 C 0.98720 0.36859 0.73235
 C254 C 0.98064 0.35631 0.71278
 N255 N 0.99956 0.34906 0.70105
 C256 C 0.95758 0.35351 0.70520
 C257 C 0.95100 0.33936 0.68634
 C258 C 0.92928 0.33947 0.67609
 C259 C 0.92951 0.32259 0.65926
 C260 C 0.95137 0.31264 0.65967
 N261 N 0.96426 0.32281 0.67638
 C262 C 0.95844 0.29388 0.64561
 H263 H 0.97800 0.25465 0.62218
 H264 H 1.02362 0.25495 0.62252
 H265 H 0.98024 0.31712 0.68231
 H266 H 1.08507 0.31913 0.64933
 H267 H 1.08469 0.35136 0.68175
 H268 H 1.02167 0.37711 0.74549
 H269 H 0.97606 0.37689 0.74495
 H270 H 0.91517 0.31810 0.64807
 H271 H 1.01960 0.31730 0.68271
 H272 H 0.91471 0.35047 0.68038
 C273 C 0.36906 -0.01273 0.26655
 C274 C 0.36916 0.01101 0.26656
 C275 C 0.35694 0.01796 0.28604
 N276 N 0.34953 -0.00073 0.29798
 C277 C 0.35679 -0.01954 0.28606
 C278 C 0.35436 0.04114 0.29336
 C279 C 0.34032 0.04811 0.31215
 C280 C 0.34068 0.06993 0.32220
 C281 C 0.32385 0.07010 0.33906
 C282 C 0.31367 0.04837 0.33886
 N283 N 0.32366 0.03518 0.32226
 C284 C 0.29487 0.04171 0.35300
 C285 C 0.28743 0.01862 0.35574
 C286 C 0.26800 0.01192 0.36811
 C287 C 0.26786 -0.01182 0.36813
 C288 C 0.28723 -0.01885 0.35577
 N289 N 0.29921 -0.00021 0.34835
 C290 C 0.29442 -0.04205 0.35307
 C291 C 0.31319 -0.04905 0.33901
 C292 C 0.32317 -0.07089 0.33937
 C293 C 0.34001 -0.07109 0.32254
 C294 C 0.33988 -0.04935 0.31231
 N295 N 0.32333 -0.03612 0.32234
 C296 C 0.35401 -0.04269 0.29344
 H297 H 0.37738 -0.02372 0.25383
 H298 H 0.37756 0.02189 0.25385
 H299 H 0.31758 -0.02015 0.31646
 H300 H 0.35182 0.08430 0.31777
 H301 H 0.31954 0.08462 0.35011
 H302 H 0.25540 0.02297 0.37653
 H303 H 0.25515 -0.02266 0.37657
 H304 H 0.35101 -0.08565 0.31822
 H305 H 0.31778 0.01922 0.31648
 H306 H 0.31871 -0.08525 0.35052
 C307 C 0.63070 -0.01164 0.73176
 C308 C 0.63065 0.01210 0.73170
 C309 C 0.64303 0.01890 0.71230
 N310 N 0.65051 0.00012 0.70048
 C311 C 0.64312 -0.01857 0.71240
 C312 C 0.64573 0.04203 0.70493
 C313 C 0.65987 0.04879 0.68616
 C314 C 0.65962 0.07055 0.67603
 C315 C 0.67648 0.07048 0.65920
 C316 C 0.68658 0.04868 0.65951
 N317 N 0.67650 0.03567 0.67614
 C318 C 0.70540 0.04181 0.64547
 C319 C 0.71283 0.01866 0.64287
 C320 C 0.73235 0.01181 0.63068
 C321 C 0.73248 -0.01192 0.63076
 C322 C 0.71300 -0.01884 0.64299
 N323 N 0.70098 -0.00009 0.65024
 C324 C 0.70574 -0.04204 0.64574
 C325 C 0.68687 -0.04880 0.65981
 C326 C 0.67677 -0.07060 0.65963
 C327 C 0.65989 -0.07050 0.67642
 C328 C 0.66009 -0.04866 0.68642
 N329 N 0.67672 -0.03564 0.67635
 C330 C 0.64592 -0.04175 0.70515
 H331 H 0.62228 -0.02254 0.74444
 H332 H 0.62217 0.02309 0.74432
 H333 H 0.68248 -0.01965 0.68213
 H334 H 0.64852 0.08502 0.68038
 H335 H 0.68088 0.08490 0.64810
 H336 H 0.74502 0.02276 0.62232
 H337 H 0.74527 -0.02284 0.62246
 H338 H 0.64882 -0.08492 0.68085
 H339 H 0.68232 0.01971 0.68199
 H340 H 0.68121 -0.08513 0.64864
 C341 C 0.26741 1.01188 0.63140
 C342 C 0.26734 0.98814 0.63131
 C343 C 0.28669 0.98116 0.64371
 N344 N 0.29861 0.99982 0.65121
 C345 C 0.28680 1.01863 0.64385
 C346 C 0.29394 0.95798 0.64636
 C347 C 0.31267 0.95105 0.66048
 C348 C 0.32271 0.92923 0.66017
 C349 C 0.33952 0.92913 0.67705
 C350 C 0.33930 0.95090 0.68722
 N351 N 0.32274 0.96406 0.67717
 C352 C 0.35336 0.95762 0.70608
 C353 C 0.35609 0.98073 0.71354
 C354 C 0.36832 0.98744 0.73309
 C355 C 0.36840 1.01118 0.73323
 C356 C 0.35621 1.01823 0.71374
 N357 N 0.34884 0.99956 0.70170
 C358 C 0.35361 1.04145 0.70648
 C359 C 0.33958 1.04835 0.68760
 C360 C 0.33991 1.07014 0.67748
 C361 C 0.32312 1.07020 0.66059
 C362 C 0.31297 1.04846 0.66081
 N363 N 0.32296 1.03535 0.67746
 C364 C 0.29420 1.04173 0.64665
 H365 H 0.25481 1.02290 0.62297
 H366 H 0.25467 0.97727 0.62281
 H367 H 0.31707 1.01941 0.68324
 H368 H 0.31831 0.91481 0.64903
 H369 H 0.35056 0.91463 0.68141
 H370 H 0.37662 0.97640 0.74576
 H371 H 0.37677 1.02201 0.74603
 H372 H 0.31880 1.08466 0.64950
 H373 H 0.31695 0.98003 0.68304
 H374 H 0.35101 1.08455 0.68190
 C375 C 0.73193 0.98823 0.36902
 C376 C 0.73209 1.01196 0.36892
 C377 C 0.71264 1.01896 0.35664
 N378 N 0.70060 1.00026 0.34939
 C379 C 0.71241 0.98146 0.35680
 C380 C 0.70540 1.04218 0.35388
 C381 C 0.68655 1.04902 0.33978
 C382 C 0.67644 1.07084 0.34001
 C383 C 0.65964 1.07086 0.32314
 C384 C 0.65989 1.04905 0.31300
 N385 N 0.67648 1.03595 0.32313
 C386 C 0.64586 1.04224 0.29409
 C387 C 0.64315 1.01903 0.28681
 C388 C 0.63097 1.01206 0.26728
 C389 C 0.63088 0.98833 0.26742
 C390 C 0.64301 0.98154 0.28700
 N391 N 0.65035 1.00032 0.29887
 C392 C 0.64555 0.95842 0.29447
 C393 C 0.65953 0.95161 0.31336
 C394 C 0.65915 0.92988 0.32354
 C395 C 0.67595 0.92986 0.34044
 C396 C 0.68614 0.95159 0.34012
 N397 N 0.67618 0.96464 0.32342
 C398 C 0.70495 0.95835 0.35422
 H399 H 0.74456 0.97723 0.37742
 H400 H 0.74488 1.02283 0.37724
 H401 H 0.68207 0.98054 0.31756
 H402 H 0.68082 1.08531 0.35109
 H403 H 0.64859 1.08534 0.31873
 H404 H 0.62271 1.02294 0.25446
 H405 H 0.62255 0.97734 0.25472
 H406 H 0.68025 0.91544 0.35159
 H407 H 0.68230 1.01996 0.31733
 H408 H 0.64802 0.91547 0.31916
 O409 O 0.85011 0.81858 0.47786
 O410 O 0.81823 0.85033 0.52300
 O411 O 0.85034 0.81862 0.52285
 O412 O 0.81800 0.85029 0.47802
 O413 O 0.79108 0.82312 0.47809
 O414 O 0.82351 0.79137 0.52304
 O415 O 0.79131 0.82317 0.52319
 O416 O 0.82329 0.79132 0.47793
 Cu417 Cu 0.83687 0.83719 0.50042
 Cu418 Cu 0.80458 0.80449 0.50057
 C419 C 0.84217 0.79955 0.47035
 C420 C 0.79934 0.84219 0.53064
 C421 C 0.84247 0.79961 0.53045
 C422 C 0.79903 0.84214 0.47056
 O423 O 0.18297 0.15076 0.52203
 O424 O 0.15146 0.18308 0.47711
 O425 O 0.18313 0.15094 0.47703
 O426 O 0.15128 0.18284 0.52207
 O427 O 0.17845 0.20975 0.52240
 O428 O 0.21041 0.17775 0.47723
 O429 O 0.17864 0.20998 0.47732
 O430 O 0.21023 0.17758 0.52235
 Cu431 Cu 0.16447 0.16420 0.49953
 Cu432 Cu 0.19719 0.19648 0.49985
 C433 C 0.20194 0.15865 0.52972
 C434 C 0.15964 0.20203 0.46971
 C435 C 0.20217 0.15888 0.46959
 C436 C 0.15941 0.20171 0.52978
 O437 O 0.18190 0.84959 0.47696
 O438 O 0.15024 0.81754 0.52188
 O439 O 0.18193 0.84953 0.52193
 O440 O 0.15019 0.81761 0.47690
 O441 O 0.17734 0.79059 0.47674
 O442 O 0.20919 0.82261 0.52191
 O443 O 0.17740 0.79053 0.52185
 O444 O 0.20915 0.82267 0.47680
 Cu445 Cu 0.16333 0.83628 0.49942
 Cu446 Cu 0.19602 0.80387 0.49931
 C447 C 0.20091 0.84163 0.46937
 C448 C 0.15840 0.79859 0.52939
 C449 C 0.20095 0.84154 0.52946
 C450 C 0.15832 0.79868 0.46928
 O451 O 0.85002 0.18132 0.52140
 O452 O 0.81801 0.14972 0.47632
 O453 O 0.84998 0.18148 0.47643
 O454 O 0.81804 0.14961 0.52131
 O455 O 0.79101 0.17674 0.52150
 O456 O 0.82303 0.20870 0.47651
 O457 O 0.79096 0.17684 0.47639
 O458 O 0.82308 0.20855 0.52159
 Cu459 Cu 0.83672 0.16279 0.49884
 Cu460 Cu 0.80429 0.19545 0.49900
 C461 C 0.84205 0.20031 0.52903
 C462 C 0.79904 0.15785 0.46882
 C463 C 0.84199 0.20053 0.46899
 C464 C 0.79910 0.15772 0.52892
 O465 O 0.47746 0.84892 0.81785
 O466 O 0.52283 0.81744 0.84952
 O467 O 0.52239 0.84942 0.81778
 O468 O 0.47791 0.81688 0.84956
 O469 O 0.47817 0.78990 0.82235
 O470 O 0.52277 0.82252 0.79050
 O471 O 0.52322 0.79045 0.82233
 O472 O 0.47771 0.82204 0.79055
 Cu473 Cu 0.50011 0.83588 0.83642
 Cu474 Cu 0.50050 0.80350 0.80367
 C475 C 0.47000 0.84089 0.79882
 C476 C 0.53062 0.79859 0.84136
 C477 C 0.53003 0.84154 0.79875
 C478 C 0.47061 0.79785 0.84141
 O479 O 0.52329 0.18198 0.14965
 O480 O 0.47849 0.14967 0.18120
 O481 O 0.47836 0.18169 0.14949
 O482 O 0.52344 0.14993 0.18138
 O483 O 0.52319 0.17681 0.20868
 O484 O 0.47799 0.20866 0.17670
 O485 O 0.47813 0.17655 0.20850
 O486 O 0.52303 0.20895 0.17687
 Cu487 Cu 0.50093 0.16310 0.16269
 Cu488 Cu 0.50056 0.19546 0.19545
 C489 C 0.53063 0.20098 0.15784
 C490 C 0.47081 0.15758 0.20021
 C491 C 0.47063 0.20057 0.15763
 C492 C 0.53085 0.15792 0.20045
 O493 O 0.52162 0.15049 0.81750
 O494 O 0.47653 0.18223 0.84944
 O495 O 0.47667 0.15004 0.81781
 O496 O 0.52146 0.18267 0.84914
 O497 O 0.52101 0.20952 0.82187
 O498 O 0.47611 0.17680 0.79045
 O499 O 0.47597 0.20907 0.82218
 O500 O 0.52118 0.17724 0.79013
 Cu501 Cu 0.49912 0.16366 0.83622
 Cu502 Cu 0.49852 0.19586 0.80339
 C503 C 0.52895 0.15842 0.79839
 C504 C 0.46871 0.20105 0.84129
 C505 C 0.46889 0.15784 0.79881
 C506 C 0.52872 0.20165 0.84089
 O507 O 0.47720 0.81690 0.15018
 O508 O 0.52177 0.84946 0.18194
 O509 O 0.52214 0.81742 0.15017
 O510 O 0.47683 0.84902 0.18189
 O511 O 0.47709 0.82220 0.20918
 O512 O 0.52253 0.79048 0.17735
 O513 O 0.52215 0.82262 0.20921
 O514 O 0.47747 0.78998 0.17737
 Cu515 Cu 0.49944 0.83590 0.16331
 Cu516 Cu 0.49983 0.80360 0.19603
 C517 C 0.46990 0.79789 0.15833
 C518 C 0.52942 0.84161 0.20096
 C519 C 0.52992 0.79858 0.15832
 C520 C 0.46938 0.84104 0.20093
 O521 O 0.84948 0.52249 0.81733
 O522 O 0.81726 0.47785 0.84920
 O523 O 0.84906 0.47755 0.81721
 O524 O 0.81776 0.52277 0.84937
 O525 O 0.79055 0.52321 0.82242
 O526 O 0.82196 0.47786 0.79015
 O527 O 0.79006 0.47817 0.82223
 O528 O 0.82236 0.52292 0.79029
 Cu529 Cu 0.83612 0.50012 0.83599
 Cu530 Cu 0.80349 0.50057 0.80354
 C531 C 0.84142 0.53019 0.79840
 C532 C 0.79817 0.47056 0.84118
 C533 C 0.84088 0.47013 0.79822
 C534 C 0.79883 0.53056 0.84141
 O535 O 0.18221 0.47795 0.15035
 O536 O 0.15050 0.52325 0.18202
 O537 O 0.18259 0.52288 0.15030
 O538 O 0.15018 0.47832 0.18211
 O539 O 0.17706 0.47810 0.20939
 O540 O 0.20954 0.52276 0.17751
 O541 O 0.17736 0.52314 0.20931
 O542 O 0.20918 0.47771 0.17754
 Cu543 Cu 0.16366 0.50062 0.16345
 Cu544 Cu 0.19601 0.50041 0.19619
 C545 C 0.20109 0.47025 0.15851
 C546 C 0.15848 0.53076 0.20105
 C547 C 0.20159 0.53026 0.15845
 C548 C 0.15806 0.47077 0.20116
 O549 O 0.81789 0.52173 0.15122
 O550 O 0.84897 0.47661 0.18366
 O551 O 0.81719 0.47681 0.15162
 O552 O 0.84965 0.52154 0.18321
 O553 O 0.82255 0.52235 0.21025
 O554 O 0.79000 0.47750 0.17856
 O555 O 0.82187 0.47730 0.21070
 O556 O 0.79070 0.52254 0.17817
 Cu557 Cu 0.83616 0.49909 0.16471
 Cu558 Cu 0.80353 0.49999 0.19716
 C559 C 0.79902 0.52970 0.15915
 C560 C 0.84076 0.46943 0.20270
 C561 C 0.79807 0.46969 0.15966
 C562 C 0.84165 0.52944 0.20209
 O563 O 0.18189 0.52153 0.84997
 O564 O 0.14936 0.47676 0.81848
 O565 O 0.18146 0.47660 0.85019
 O566 O 0.14974 0.52170 0.81831
 O567 O 0.17654 0.52133 0.79097
 O568 O 0.20837 0.47611 0.82296
 O569 O 0.17617 0.47626 0.79116
 O570 O 0.20879 0.52114 0.82273
 Cu571 Cu 0.16291 0.49919 0.83698
 Cu572 Cu 0.19518 0.49867 0.80419
 C573 C 0.20088 0.52881 0.84176
 C574 C 0.15719 0.46902 0.79946
 C575 C 0.20031 0.46882 0.84205
 C576 C 0.15770 0.52906 0.79923
 C577 C 0.28248 0.36703 0.05939
 C578 C 0.27245 0.37855 0.07365
 C579 C 0.26020 0.39277 0.09005
 C580 C 0.23600 0.39391 0.08933
 C581 C 0.22408 0.40879 0.10427
 C582 C 0.23631 0.42263 0.12000
 C583 C 0.26051 0.42125 0.12097
 C584 C 0.27244 0.40634 0.10602
 C585 C 0.22407 0.43901 0.13427
 C586 C 0.21366 0.45309 0.14566
 H587 H 0.22638 0.38358 0.07696
 H588 H 0.20538 0.40981 0.10329
 H589 H 0.27015 0.43195 0.13298
 H590 H 0.29117 0.40568 0.10664
 C591 C 0.71878 0.63311 0.05954
 C592 C 0.72877 0.62156 0.07376
 C593 C 0.74093 0.60728 0.09013
 C594 C 0.72867 0.59476 0.10688
 C595 C 0.74045 0.57981 0.12187
 C596 C 0.76452 0.57733 0.12015
 C597 C 0.77680 0.59011 0.10362
 C598 C 0.76503 0.60505 0.08865
 C599 C 0.77652 0.56093 0.13454
 C600 C 0.78673 0.54684 0.14607
 H601 H 0.71002 0.59628 0.10810
 H602 H 0.73077 0.56992 0.13451
 H603 H 0.79539 0.58824 0.10207
 H604 H 0.77466 0.61456 0.07568
 C605 C 0.71393 0.37033 0.94039
 C606 C 0.72444 0.38132 0.92613
 C607 C 0.73715 0.39500 0.90969
 C608 C 0.72536 0.40886 0.89365
 C609 C 0.73774 0.42332 0.87871
 C610 C 0.76196 0.42395 0.87975
 C611 C 0.77376 0.40981 0.89554
 C612 C 0.76138 0.39537 0.91047
 C613 C 0.77465 0.43993 0.86550
 C614 C 0.78536 0.45371 0.85410
 H615 H 0.70662 0.40880 0.89299
 H616 H 0.72843 0.43427 0.86665
 H617 H 0.79247 0.41026 0.89657
 H618 H 0.77067 0.38482 0.92290
 C619 C 0.28589 0.62897 0.94064
 C620 C 0.27533 0.61803 0.92634
 C621 C 0.26253 0.60439 0.90989
 C622 C 0.27424 0.58997 0.89425
 C623 C 0.26175 0.57553 0.87935
 C624 C 0.23750 0.57546 0.88002
 C625 C 0.22580 0.59016 0.89540
 C626 C 0.23829 0.60459 0.91030
 C627 C 0.22466 0.55948 0.86586
 C628 C 0.21384 0.54569 0.85455
 H629 H 0.29298 0.58958 0.89389
 H630 H 0.27097 0.56414 0.86762
 H631 H 0.20707 0.59015 0.89616
 H632 H 0.22907 0.61557 0.92242
 C633 C 0.05992 0.28569 0.36935
 C634 C 0.07441 0.27537 0.38026
 C635 C 0.09110 0.26288 0.39389
 C636 C 0.10581 0.27480 0.40905
 C637 C 0.12087 0.26253 0.42352
 C638 C 0.12126 0.23830 0.42288
 C639 C 0.10683 0.22639 0.40744
 C640 C 0.09177 0.23866 0.39298
 C641 C 0.13549 0.22561 0.43892
 C642 C 0.14683 0.21489 0.45277
 H643 H 0.10532 0.29353 0.40999
 H644 H 0.13186 0.27190 0.43548
 H645 H 0.10690 0.20765 0.40690
 H646 H 0.08037 0.22927 0.38143
 C647 C 0.05979 0.71704 0.63246
 C648 C 0.07403 0.72702 0.62095
 C649 C 0.09039 0.73922 0.60673
 C650 C 0.10562 0.72696 0.59234
 C651 C 0.12047 0.73890 0.57742
 C652 C 0.12014 0.76314 0.57685
 C653 C 0.10516 0.77539 0.59150
 C654 C 0.09031 0.76346 0.60640
 C655 C 0.13429 0.77545 0.56049
 C656 C 0.14560 0.78593 0.54646
 H657 H 0.10573 0.70821 0.59238
 H658 H 0.13190 0.72925 0.56609
 H659 H 0.10467 0.79413 0.59112
 H660 H 0.07851 0.77311 0.61736
 C661 C 0.94117 0.71770 0.36735
 C662 C 0.92700 0.72783 0.37887
 C663 C 0.91068 0.74019 0.39309
 C664 C 0.91186 0.76435 0.39463
 C665 C 0.89697 0.77635 0.40950
 C666 C 0.88082 0.76424 0.42290
 C667 C 0.87940 0.74009 0.42112
 C668 C 0.89431 0.72808 0.40624
 C669 C 0.86652 0.77652 0.43923
 C670 C 0.85510 0.78696 0.45326
 H671 H 0.92454 0.77387 0.38464
 H672 H 0.89829 0.79500 0.41082
 H673 H 0.86706 0.73054 0.43149
 H674 H 0.89333 0.70939 0.40526
 C675 C 0.94100 0.28191 0.63212
 C676 C 0.92694 0.27175 0.62053
 C677 C 0.91071 0.25940 0.60624
 C678 C 0.91251 0.23532 0.60402
 C679 C 0.89761 0.22337 0.58915
 C680 C 0.88086 0.23543 0.57642
 C681 C 0.87885 0.25948 0.57886
 C682 C 0.89375 0.27145 0.59375
 C683 C 0.86651 0.22323 0.56011
 C684 C 0.85503 0.21284 0.54610
 H685 H 0.92563 0.22585 0.61351
 H686 H 0.89940 0.20479 0.58731
 H687 H 0.86603 0.26900 0.56901
 H688 H 0.89228 0.29008 0.59527
 C689 C 0.36780 0.05863 0.28147
 C690 C 0.37937 0.07273 0.27138
 C691 C 0.39364 0.08897 0.25909
 C692 C 0.40655 0.10550 0.27127
 C693 C 0.42146 0.12037 0.25935
 C694 C 0.42349 0.11877 0.23521
 C695 C 0.41033 0.10246 0.22302
 C696 C 0.39544 0.08759 0.23493
 C697 C 0.43980 0.13308 0.22303
 C698 C 0.45378 0.14455 0.21268
 H699 H 0.40537 0.10664 0.28997
 H700 H 0.43163 0.13285 0.26896
 H701 H 0.41184 0.10099 0.20437
 H702 H 0.38563 0.07480 0.22536
 C703 C 0.63230 0.05967 0.71673
 C704 C 0.62073 0.07386 0.72678
 C705 C 0.60645 0.09018 0.73906
 C706 C 0.60537 0.08946 0.76329
 C707 C 0.59044 0.10433 0.77525
 C708 C 0.57651 0.11998 0.76303
 C709 C 0.57783 0.12094 0.73881
 C710 C 0.59277 0.10607 0.72684
 C711 C 0.56012 0.13421 0.77531
 C712 C 0.54606 0.14557 0.78576
 H713 H 0.61577 0.07715 0.77290
 H714 H 0.58948 0.10335 0.79397
 H715 H 0.56705 0.13290 0.72918
 H716 H 0.59339 0.10669 0.70810
 C717 C 0.36669 0.93993 0.71785
 C718 C 0.37819 0.92566 0.72784
 C719 C 0.39240 0.90923 0.73999
 C720 C 0.40619 0.89352 0.72764
 C721 C 0.42111 0.87856 0.73950
 C722 C 0.42228 0.87926 0.76373
 C723 C 0.40822 0.89472 0.77608
 C724 C 0.39331 0.90968 0.76424
 C725 C 0.43869 0.86502 0.77591
 C726 C 0.45280 0.85367 0.78628
 H727 H 0.40569 0.89312 0.70889
 H728 H 0.43200 0.86676 0.72977
 H729 H 0.40908 0.89550 0.79482
 H730 H 0.38282 0.92184 0.77394
 C731 C 0.63214 0.94084 0.28262
 C732 C 0.62059 0.92669 0.27253
 C733 C 0.60633 0.91043 0.26020
 C734 C 0.60472 0.91165 0.23601
 C735 C 0.58986 0.89677 0.22404
 C736 C 0.57654 0.88059 0.23620
 C737 C 0.57838 0.87915 0.26036
 C738 C 0.59325 0.89404 0.27234
 C739 C 0.56029 0.86624 0.22393
 C740 C 0.54636 0.85472 0.21351
 H741 H 0.61466 0.92434 0.22647
 H742 H 0.58850 0.89811 0.20537
 H743 H 0.56807 0.86677 0.26994
 H744 H 0.59429 0.89302 0.29105
 C745 C 0.36610 0.28285 0.94069
 C746 C 0.37752 0.27274 0.92642
 C747 C 0.39164 0.26038 0.91001
 C748 C 0.39329 0.23623 0.91128
 C749 C 0.40810 0.22424 0.89632
 C750 C 0.42133 0.23634 0.88002
 C751 C 0.41943 0.26047 0.87852
 C752 C 0.40461 0.27248 0.89349
 C753 C 0.43763 0.22407 0.86568
 C754 C 0.45163 0.21363 0.85423
 H755 H 0.38344 0.22672 0.92408
 H756 H 0.40951 0.20559 0.89772
 H757 H 0.42968 0.27002 0.86606
 H758 H 0.40355 0.29117 0.89244
 C759 C 0.63410 0.71778 0.94040
 C760 C 0.62256 0.72779 0.92618
 C761 C 0.60830 0.73996 0.90980
 C762 C 0.59495 0.72766 0.89370
 C763 C 0.58000 0.73950 0.87875
 C764 C 0.57836 0.76367 0.87986
 C765 C 0.59197 0.77598 0.89573
 C766 C 0.60690 0.76415 0.91067
 C767 C 0.56194 0.77580 0.86559
 C768 C 0.54782 0.78612 0.85420
 H769 H 0.59582 0.70894 0.89297
 H770 H 0.56947 0.72981 0.86663
 H771 H 0.59075 0.79466 0.89682
 H772 H 0.61705 0.77382 0.92314
 C773 C 0.36996 0.71294 0.05914
 C774 C 0.38088 0.72350 0.07347
 C775 C 0.39448 0.73632 0.08995
 C776 C 0.40846 0.72462 0.10596
 C777 C 0.42288 0.73711 0.12089
 C778 C 0.42336 0.76133 0.11987
 C779 C 0.40909 0.77302 0.10411
 C780 C 0.39469 0.76054 0.08918
 C781 C 0.43931 0.77414 0.13409
 C782 C 0.45307 0.78495 0.14545
 H783 H 0.40853 0.70588 0.10660
 H784 H 0.43393 0.72788 0.13293
 H785 H 0.40942 0.79174 0.10308
 H786 H 0.38405 0.76975 0.07677
 C787 C 0.63023 0.28573 0.05849
 C788 C 0.61938 0.27516 0.07283
 C789 C 0.60586 0.26238 0.08935
 C790 C 0.59183 0.27412 0.10532
 C791 C 0.57749 0.26166 0.12031
 C792 C 0.57714 0.23743 0.11939
 C793 C 0.59146 0.22570 0.10369
 C794 C 0.60579 0.23815 0.08870
 C795 C 0.56123 0.22465 0.13363
 C796 C 0.54748 0.21387 0.14500
 H797 H 0.59166 0.29286 0.10588
 H798 H 0.56639 0.27091 0.13229
 H799 H 0.59123 0.20697 0.10274
 H800 H 0.61647 0.22891 0.07634
 C801 C 0.28247 0.05939 0.63324
 C802 C 0.27252 0.07362 0.62166
 C803 C 0.26039 0.08999 0.60736
 C804 C 0.27273 0.10596 0.59395
 C805 C 0.26093 0.12089 0.57896
 C806 C 0.23675 0.11989 0.57734
 C807 C 0.22441 0.10415 0.59101
 C808 C 0.23620 0.08923 0.60598
 C809 C 0.22466 0.13419 0.56092
 C810 C 0.21437 0.14565 0.54684
 H811 H 0.29145 0.10660 0.59481
 H812 H 0.27065 0.13291 0.56839
 H813 H 0.20572 0.10315 0.58981
 H814 H 0.22650 0.07686 0.61618
 C815 C 0.71673 0.05885 0.36643
 C816 C 0.72689 0.07308 0.37784
 C817 C 0.73929 0.08945 0.39193
 C818 C 0.72720 0.10564 0.40539
 C819 C 0.73927 0.12057 0.42017
 C820 C 0.76346 0.11936 0.42152
 C821 C 0.77554 0.10340 0.40780
 C822 C 0.76349 0.08847 0.39304
 C823 C 0.77583 0.13363 0.43778
 C824 C 0.78635 0.14501 0.45176
 H825 H 0.70848 0.10645 0.40475
 H826 H 0.72974 0.13276 0.43080
 H827 H 0.79423 0.10223 0.40880
 H828 H 0.77299 0.07593 0.38280
 C829 C 0.71708 0.94126 0.63321
 C830 C 0.72726 0.92701 0.62181
 C831 C 0.73970 0.91065 0.60771
 C832 C 0.76384 0.91205 0.60607
 C833 C 0.77591 0.89713 0.59128
 C834 C 0.76388 0.88075 0.57804
 C835 C 0.73976 0.87912 0.57992
 C836 C 0.72768 0.89404 0.59474
 C837 C 0.77622 0.86647 0.56174
 C838 C 0.78670 0.85507 0.54773
 H839 H 0.77329 0.92492 0.61592
 H840 H 0.79454 0.89863 0.58987
 H841 H 0.73027 0.86660 0.56968
 H842 H 0.70900 0.89290 0.59579
 C843 C 0.28249 0.94046 0.36648
 C844 C 0.27236 0.92636 0.37802
 C845 C 0.26004 0.91011 0.39225
 C846 C 0.27217 0.89361 0.40525
 C847 C 0.26020 0.87873 0.42013
 C848 C 0.23607 0.88032 0.42205
 C849 C 0.22393 0.89660 0.40879
 C850 C 0.23589 0.91146 0.39393
 C851 C 0.22384 0.86603 0.43834
 C852 C 0.21345 0.85459 0.45234
 H853 H 0.29085 0.89249 0.40416
 H854 H 0.26977 0.86628 0.43039
 H855 H 0.20529 0.89805 0.41022
 H856 H 0.22635 0.92424 0.38404
 C857 C 0.05791 0.36656 0.71753
 C858 C 0.07200 0.37806 0.72778
 C859 C 0.08821 0.39224 0.74026
 C860 C 0.10584 0.40391 0.72841
 C861 C 0.12075 0.41872 0.74045
 C862 C 0.11808 0.42190 0.76437
 C863 C 0.10064 0.40999 0.77625
 C864 C 0.08574 0.39520 0.76422
 C865 C 0.13250 0.43812 0.77661
 C866 C 0.14406 0.45205 0.78698
 H867 H 0.10782 0.40183 0.70986
 H868 H 0.13410 0.42794 0.73108
 H869 H 0.09835 0.41240 0.79472
 H870 H 0.07209 0.38635 0.77353
 C871 C 0.05923 0.63354 0.28281
 C872 C 0.07346 0.62209 0.27267
 C873 C 0.08984 0.60795 0.26031
 C874 C 0.08843 0.60615 0.23615
 C875 C 0.10339 0.59133 0.22417
 C876 C 0.11982 0.57824 0.23630
 C877 C 0.12147 0.58029 0.26043
 C878 C 0.10650 0.59513 0.27242
 C879 C 0.13415 0.56192 0.22405
 C880 C 0.14559 0.54789 0.21363
 H881 H 0.07553 0.61590 0.22663
 H882 H 0.10188 0.58980 0.20553
 H883 H 0.13403 0.57015 0.26999
 H884 H 0.10766 0.59631 0.29112
 C885 C 0.94013 0.36885 0.28645
 C886 C 0.92561 0.37977 0.27616
 C887 C 0.90890 0.39341 0.26370
 C888 C 0.90786 0.39211 0.23949
 C889 C 0.89283 0.40659 0.22721
 C890 C 0.87880 0.42244 0.23910
 C891 C 0.87955 0.42345 0.26334
 C892 C 0.89458 0.40896 0.27562
 C893 C 0.86466 0.43852 0.22637
 C894 C 0.85342 0.45242 0.21561
 H895 H 0.91897 0.38025 0.23010
 H896 H 0.89249 0.40576 0.20847
 H897 H 0.86887 0.43573 0.27270
 H898 H 0.89536 0.41020 0.29433
 C899 C 0.94024 0.63305 0.71684
 C900 C 0.92604 0.62155 0.72687
 C901 C 0.90972 0.60733 0.73913
 C902 C 0.89407 0.59343 0.72689
 C903 C 0.87924 0.57852 0.73885
 C904 C 0.88000 0.57748 0.76309
 C905 C 0.89541 0.59164 0.77533
 C906 C 0.91024 0.60653 0.76338
 C907 C 0.86578 0.56116 0.77538
 C908 C 0.85438 0.54718 0.78582
 H909 H 0.89362 0.59384 0.70813
 H910 H 0.86746 0.56756 0.72920
 H911 H 0.89622 0.59089 0.79407
 H912 H 0.92236 0.61711 0.77301
 C913 C 0.71841 0.63374 0.94133
 C914 C 0.72844 0.62223 0.92707
 C915 C 0.74062 0.60801 0.91063
 C916 C 0.72841 0.59580 0.89358
 C917 C 0.74019 0.58089 0.87852
 C918 C 0.76421 0.57816 0.88046
 C919 C 0.77645 0.59063 0.89729
 C920 C 0.76468 0.60551 0.91235
 C921 C 0.77622 0.56178 0.86599
 C922 C 0.78645 0.54771 0.85444
 H923 H 0.70979 0.59753 0.89219
 H924 H 0.73055 0.57124 0.86564
 H925 H 0.79501 0.58855 0.89902
 H926 H 0.77426 0.61478 0.92555
 C927 C 0.28243 0.36631 0.94116
 C928 C 0.27224 0.37775 0.92698
 C929 C 0.25981 0.39188 0.91066
 C930 C 0.27181 0.40455 0.89384
 C931 C 0.25976 0.41935 0.87891
 C932 C 0.23567 0.42153 0.88076
 C933 C 0.22365 0.40860 0.89737
 C934 C 0.23569 0.39382 0.91228
 C935 C 0.22336 0.43779 0.86643
 C936 C 0.21291 0.45177 0.85498
 H937 H 0.29047 0.40326 0.89251
 H938 H 0.26923 0.42935 0.86621
 H939 H 0.20504 0.41023 0.89903
 H940 H 0.22626 0.38420 0.92531
 C941 C 0.28649 0.62990 0.05922
 C942 C 0.27593 0.61905 0.07357
 C943 C 0.26313 0.60552 0.09007
 C944 C 0.27484 0.59130 0.10586
 C945 C 0.26236 0.57693 0.12079
 C946 C 0.23812 0.57673 0.11999
 C947 C 0.22641 0.59123 0.10447
 C948 C 0.23889 0.60559 0.08954
 C949 C 0.22529 0.56081 0.13420
 C950 C 0.21449 0.54707 0.14556
 H951 H 0.29359 0.59101 0.10632
 H952 H 0.27159 0.56569 0.13264
 H953 H 0.20768 0.59112 0.10362
 H954 H 0.22967 0.61642 0.07730
 C955 C 0.71390 0.36976 0.05988
 C956 C 0.72435 0.38067 0.07430
 C957 C 0.73697 0.39426 0.09092
 C958 C 0.72511 0.40879 0.10633
 C959 C 0.73745 0.42319 0.12140
 C960 C 0.76170 0.42311 0.12110
 C961 C 0.77355 0.40830 0.10595
 C962 C 0.76121 0.39391 0.09088
 C963 C 0.77441 0.43906 0.13539
 C964 C 0.78516 0.45284 0.14680
 H965 H 0.70636 0.40929 0.10641
 H966 H 0.72811 0.43466 0.13296
 H967 H 0.79229 0.40819 0.10548
 H968 H 0.77056 0.38284 0.07894
 C969 C 0.94167 0.71746 0.63296
 C970 C 0.92755 0.72770 0.62148
 C971 C 0.91133 0.74022 0.60731
 C972 C 0.91391 0.76413 0.60430
 C973 C 0.89902 0.77619 0.58950
 C974 C 0.88148 0.76440 0.57762
 C975 C 0.87869 0.74053 0.58086
 C976 C 0.89359 0.72846 0.59568
 C977 C 0.86708 0.77666 0.56138
 C978 C 0.85554 0.78707 0.54744
 H979 H 0.92764 0.77337 0.61311
 H980 H 0.90141 0.79462 0.58705
 H981 H 0.86525 0.73122 0.57167
 H982 H 0.89151 0.70995 0.59779
 C983 C 0.94143 0.28503 0.36915
 C984 C 0.92721 0.27436 0.38005
 C985 C 0.91083 0.26146 0.39362
 C986 C 0.91317 0.23741 0.39566
 C987 C 0.89820 0.22498 0.41001
 C988 C 0.88082 0.23653 0.42240
 C989 C 0.87825 0.26053 0.42010
 C990 C 0.89323 0.27298 0.40573
 C991 C 0.86647 0.22390 0.43834
 C992 C 0.85498 0.21325 0.45211
 H993 H 0.92681 0.22835 0.38648
 H994 H 0.90043 0.20644 0.41176
 H995 H 0.86495 0.26966 0.42970
 H996 H 0.89134 0.29158 0.40438
 C997 C 0.05998 0.28276 0.63290
 C998 C 0.07430 0.27282 0.62139
 C999 C 0.09078 0.26069 0.60717
 C1000 C 0.09070 0.23646 0.60656
 C1001 C 0.10569 0.22461 0.59167
 C1002 C 0.12081 0.23694 0.57730
 C1003 C 0.12113 0.26118 0.57815
 C1004 C 0.10614 0.27304 0.59306
 C1005 C 0.13511 0.22473 0.56093
 C1006 C 0.14652 0.21432 0.54688
 H1007 H 0.07880 0.22675 0.61730
 H1008 H 0.10521 0.20588 0.59107
 H1009 H 0.13267 0.27089 0.56703
 H1010 H 0.10625 0.29178 0.59331
 C1011 C 0.05927 0.71705 0.36645
 C1012 C 0.07351 0.72713 0.37791
 C1013 C 0.08988 0.73941 0.39207
 C1014 C 0.10610 0.72723 0.40539
 C1015 C 0.12103 0.73919 0.42025
 C1016 C 0.11980 0.76336 0.42184
 C1017 C 0.10381 0.77555 0.40825
 C1018 C 0.08889 0.76360 0.39341
 C1019 C 0.13407 0.77561 0.43817
 C1020 C 0.14546 0.78605 0.45220
 H1021 H 0.10693 0.70852 0.40457
 H1022 H 0.13325 0.72959 0.43077
 H1023 H 0.10263 0.79423 0.40943
 H1024 H 0.07633 0.77318 0.38328
 C1025 C 0.63254 0.94070 0.71703
 C1026 C 0.62101 0.92657 0.72714
 C1027 C 0.60679 0.91031 0.73947
 C1028 C 0.59361 0.89398 0.72732
 C1029 C 0.57876 0.87910 0.73930
 C1030 C 0.57706 0.88050 0.76348
 C1031 C 0.59048 0.89662 0.77564
 C1032 C 0.60531 0.91150 0.76366
 C1033 C 0.56084 0.86616 0.77576
 C1034 C 0.54694 0.85464 0.78619
 H1035 H 0.59454 0.89300 0.70860
 H1036 H 0.56838 0.86677 0.72972
 H1037 H 0.58922 0.89793 0.79432
 H1038 H 0.61534 0.92414 0.77322
 C1039 C 0.36656 0.94053 0.28224
 C1040 C 0.37798 0.92620 0.27220
 C1041 C 0.39210 0.90972 0.25996
 C1042 C 0.39346 0.91061 0.23575
 C1043 C 0.40828 0.89560 0.22385
 C1044 C 0.42182 0.87963 0.23610
 C1045 C 0.42021 0.87849 0.26029
 C1046 C 0.40536 0.89351 0.27221
 C1047 C 0.43817 0.86530 0.22390
 C1048 C 0.45223 0.85389 0.21350
 H1049 H 0.38337 0.92316 0.22613
 H1050 H 0.40949 0.89672 0.20515
 H1051 H 0.43069 0.86630 0.26995
 H1052 H 0.40453 0.89276 0.29094
 C1053 C 0.63333 0.05892 0.28274
 C1054 C 0.62192 0.07313 0.27255
 C1055 C 0.60782 0.08947 0.26011
 C1056 C 0.60618 0.08803 0.23594
 C1057 C 0.59139 0.10293 0.22388
 C1058 C 0.57817 0.11934 0.23593
 C1059 C 0.58007 0.12102 0.26008
 C1060 C 0.59487 0.10611 0.27215
 C1061 C 0.56190 0.13362 0.22359
 C1062 C 0.54791 0.14503 0.21310
 H1063 H 0.61602 0.07515 0.22648
 H1064 H 0.58998 0.10140 0.20522
 H1065 H 0.56984 0.13356 0.26958
 H1066 H 0.59593 0.10729 0.29085
 C1067 C 0.36626 0.05804 0.71780
 C1068 C 0.37775 0.07222 0.72792
 C1069 C 0.39193 0.08855 0.74023
 C1070 C 0.39468 0.08649 0.76425
 C1071 C 0.40950 0.10148 0.77613
 C1072 C 0.42165 0.11860 0.76405
 C1073 C 0.41868 0.12087 0.74006
 C1074 C 0.40383 0.10588 0.72817
 C1075 C 0.43792 0.13307 0.77614
 C1076 C 0.45189 0.14467 0.78642
 H1077 H 0.38565 0.07308 0.77372
 H1078 H 0.41175 0.09949 0.79466
 H1079 H 0.42808 0.13398 0.73053
 H1080 H 0.40191 0.10755 0.70958
 C1081 C 0.63383 0.71780 0.05947
 C1082 C 0.62221 0.72780 0.07365
 C1083 C 0.60786 0.73997 0.08999
 C1084 C 0.59454 0.72767 0.10608
 C1085 C 0.57952 0.73950 0.12099
 C1086 C 0.57777 0.76366 0.11985
 C1087 C 0.59135 0.77597 0.10399
 C1088 C 0.60635 0.76415 0.08909
 C1089 C 0.56129 0.77578 0.13410
 C1090 C 0.54714 0.78610 0.14548
 H1091 H 0.59550 0.70896 0.10684
 H1092 H 0.56902 0.72980 0.13311
 H1093 H 0.59005 0.79464 0.10288
 H1094 H 0.61648 0.77381 0.07663
 C1095 C 0.36736 0.28227 0.05891
 C1096 C 0.37894 0.27217 0.07304
 C1097 C 0.39324 0.25985 0.08930
 C1098 C 0.39464 0.23567 0.08822
 C1099 C 0.40955 0.22370 0.10307
 C1100 C 0.42314 0.23586 0.11907
 C1101 C 0.42151 0.26003 0.12038
 C1102 C 0.40658 0.27200 0.10552
 C1103 C 0.43950 0.22359 0.13332
 C1104 C 0.45354 0.21315 0.14472
 H1105 H 0.38450 0.22612 0.07566
 H1106 H 0.41076 0.20503 0.10183
 H1107 H 0.43202 0.26961 0.13261
 H1108 H 0.40571 0.29071 0.10642
 C1109 C 0.62932 0.28593 0.93987
 C1110 C 0.61832 0.27554 0.92549
 C1111 C 0.60460 0.26296 0.90894
 C1112 C 0.58934 0.27480 0.89426
 C1113 C 0.57482 0.26244 0.87932
 C1114 C 0.57551 0.23820 0.87902
 C1115 C 0.59105 0.22639 0.89342
 C1116 C 0.60556 0.23874 0.90836
 C1117 C 0.55947 0.22542 0.86489
 C1118 C 0.54563 0.21461 0.85361
 H1119 H 0.58836 0.29352 0.89467
 H1120 H 0.56278 0.27174 0.86835
 H1121 H 0.59164 0.20764 0.89342
 H1122 H 0.61720 0.22941 0.91974
 C1123 C 0.37060 0.71327 0.94057
 C1124 C 0.38155 0.72376 0.92625
 C1125 C 0.39519 0.73647 0.90977
 C1126 C 0.39501 0.76071 0.91012
 C1127 C 0.40944 0.77312 0.89520
 C1128 C 0.42411 0.76135 0.87986
 C1129 C 0.42402 0.73711 0.87924
 C1130 C 0.40958 0.72469 0.89417
 C1131 C 0.44007 0.77412 0.86565
 C1132 C 0.45381 0.78492 0.85428
 H1133 H 0.38405 0.76999 0.92221
 H1134 H 0.40946 0.79186 0.89591
 H1135 H 0.43538 0.72782 0.86753
 H1136 H 0.40994 0.70595 0.89385
 C1137 C 0.71669 0.94074 0.36771
 C1138 C 0.72666 0.92653 0.37931
 C1139 C 0.73881 0.91015 0.39362
 C1140 C 0.72680 0.89730 0.41030
 C1141 C 0.73885 0.88246 0.42517
 C1142 C 0.76295 0.88040 0.42342
 C1143 C 0.77491 0.89299 0.40651
 C1144 C 0.76287 0.90784 0.39165
 C1145 C 0.77554 0.86628 0.43966
 C1146 C 0.78621 0.85496 0.45359
 H1147 H 0.70821 0.89905 0.41205
 H1148 H 0.72944 0.87289 0.43826
 H1149 H 0.79356 0.89163 0.40508
 H1150 H 0.77234 0.91779 0.37890
 C1151 C 0.28210 0.94045 0.63287
 C1152 C 0.27206 0.92631 0.62126
 C1153 C 0.25984 0.91001 0.60695
 C1154 C 0.23565 0.91096 0.60557
 C1155 C 0.22378 0.89606 0.59064
 C1156 C 0.23604 0.88015 0.57700
 C1157 C 0.26022 0.87898 0.57861
 C1158 C 0.27210 0.89389 0.59356
 C1159 C 0.22387 0.86587 0.56062
 C1160 C 0.21349 0.85445 0.54657
 H1161 H 0.22602 0.92344 0.61576
 H1162 H 0.20510 0.89719 0.58945
 H1163 H 0.26988 0.86683 0.56805
 H1164 H 0.29081 0.89310 0.59441
 C1165 C 0.28315 0.05942 0.36639
 C1166 C 0.27320 0.07370 0.37794
 C1167 C 0.26106 0.09015 0.39220
 C1168 C 0.27339 0.10577 0.40606
 C1169 C 0.26155 0.12077 0.42098
 C1170 C 0.23733 0.12019 0.42208
 C1171 C 0.22499 0.10480 0.40796
 C1172 C 0.23683 0.08981 0.39306
 C1173 C 0.22515 0.13452 0.43845
 C1174 C 0.21475 0.14596 0.45250
 H1175 H 0.29213 0.10609 0.40561
 H1176 H 0.27126 0.13252 0.43191
 H1177 H 0.20627 0.10413 0.40875
 H1178 H 0.22713 0.07771 0.38250
 C1179 C 0.71723 0.05936 0.63205
 C1180 C 0.72729 0.07350 0.62048
 C1181 C 0.73956 0.08976 0.60621
 C1182 C 0.76380 0.08962 0.60588
 C1183 C 0.77580 0.10441 0.59098
 C1184 C 0.76361 0.11940 0.57632
 C1185 C 0.73937 0.11979 0.57688
 C1186 C 0.72736 0.10500 0.59180
 C1187 C 0.77598 0.13354 0.55998
 C1188 C 0.78647 0.14487 0.54597
 H1189 H 0.77340 0.07782 0.61686
 H1190 H 0.79454 0.10388 0.59062
 H1191 H 0.72977 0.13124 0.56554
 H1192 H 0.70861 0.10516 0.59183
 C1193 C 0.94113 0.63260 0.28279
 C1194 C 0.92694 0.62101 0.27282
 C1195 C 0.91058 0.60671 0.26067
 C1196 C 0.91141 0.60526 0.23646
 C1197 C 0.89646 0.59035 0.22465
 C1198 C 0.88062 0.57680 0.23700
 C1199 C 0.87956 0.57847 0.26119
 C1200 C 0.89452 0.59341 0.27301
 C1201 C 0.86625 0.56047 0.22488
 C1202 C 0.85473 0.54646 0.21456
 H1203 H 0.92385 0.61538 0.22677
 H1204 H 0.89750 0.58911 0.20595
 H1205 H 0.86745 0.56800 0.27092
 H1206 H 0.89382 0.59431 0.29175
 C1207 C 0.93979 0.36683 0.71687
 C1208 C 0.92546 0.37833 0.72680
 C1209 C 0.90897 0.39255 0.73892
 C1210 C 0.90861 0.39262 0.76318
 C1211 C 0.89367 0.40754 0.77507
 C1212 C 0.87904 0.42245 0.76274
 C1213 C 0.87913 0.42212 0.73847
 C1214 C 0.89408 0.40719 0.72658
 C1215 C 0.86486 0.43887 0.77503
 C1216 C 0.85358 0.45297 0.78552
 H1217 H 0.92014 0.38146 0.77290
 H1218 H 0.89383 0.40774 0.79384
 H1219 H 0.86798 0.43367 0.72877
 H1220 H 0.89431 0.40735 0.70781
 C1221 C 0.05920 0.63235 0.71728
 C1222 C 0.07330 0.62075 0.72742
 C1223 C 0.08951 0.60645 0.73980
 C1224 C 0.08807 0.60472 0.76396
 C1225 C 0.10289 0.58982 0.77596
 C1226 C 0.11922 0.57655 0.76387
 C1227 C 0.12089 0.57850 0.73973
 C1228 C 0.10606 0.59343 0.72772
 C1229 C 0.13346 0.56019 0.77615
 C1230 C 0.14484 0.54615 0.78661
 H1231 H 0.07525 0.61462 0.77346
 H1232 H 0.10137 0.58836 0.79461
 H1233 H 0.13339 0.56824 0.73019
 H1234 H 0.10725 0.59455 0.70902
 C1235 C 0.05860 0.37036 0.28499
 C1236 C 0.07278 0.38143 0.27444
 C1237 C 0.08913 0.39517 0.26169
 C1238 C 0.08734 0.39677 0.23754
 C1239 C 0.10228 0.41125 0.22521
 C1240 C 0.11907 0.42420 0.23698
 C1241 C 0.12109 0.42234 0.26109
 C1242 C 0.10614 0.40785 0.27343
 C1243 C 0.13343 0.44017 0.22441
 C1244 C 0.14495 0.45394 0.21382
 H1245 H 0.07416 0.38714 0.22830
 H1246 H 0.10049 0.41264 0.20658
 H1247 H 0.13393 0.43235 0.27038
 H1248 H 0.10760 0.40682 0.29211
   
