data_POSCAR
  _audit_creation_date              2014-09-24
  _audit_creation_method            'ToBaCCo'
  _symmetry_space_group_name_H-M    'P1'
  _symmetry_Int_Tables_number       1
  _symmetry_cell_setting            triclinic
  loop_
  _symmetry_equiv_pos_as_xyz
 x,y,z
_cell_length_a 59.5135
_cell_length_b 58.7688
_cell_length_c 62.5295
_cell_angle_alpha 90.042500
_cell_angle_beta 89.962700
_cell_angle_gamma 90.535300
loop_
  _atom_site_label
  _atom_site_type_symbol
  _atom_site_fract_x
  _atom_site_fract_y
  _atom_site_fract_z
O1 O 0.32396 0.35837 0.01658
 O2 O 0.35718 0.32758 -0.02289
 O3 O 0.32728 0.35890 -0.02433
 O4 O 0.35357 0.32573 0.01868
 O5 O 0.32717 0.29935 0.01551
 O6 O 0.29983 0.33354 -0.02631
 O7 O 0.33033 0.30165 -0.02607
 O8 O 0.29732 0.33200 0.01514
 Cu9 Cu 0.34327 0.34512 -0.00257
 Cu10 Cu 0.31100 0.31395 -0.00563
 C11 C 0.30484 0.35085 0.02228
 C12 C 0.34941 0.30965 -0.03155
 C13 C 0.30881 0.35214 -0.03248
 C14 C 0.34508 0.30670 0.02424
 O15 O 0.67237 0.64333 0.02323
 O16 O 0.64236 0.67652 -0.01707
 O17 O 0.67023 0.64252 -0.01841
 O18 O 0.64469 0.67701 0.02404
 O19 O 0.67255 0.70191 0.02152
 O20 O 0.69929 0.66598 -0.01967
 O21 O 0.67137 0.70000 -0.02004
 O22 O 0.70077 0.66769 0.02200
 Cu23 Cu 0.65464 0.65736 0.00307
 Cu24 Cu 0.68891 0.68629 0.00081
 C25 C 0.69160 0.64986 0.02969
 C26 C 0.65157 0.69399 -0.02532
 C27 C 0.68922 0.64812 -0.02624
 C28 C 0.65396 0.69559 0.02975
 O29 O 0.68349 0.35060 0.98197
 O30 O 0.65123 0.31621 1.02008
 O31 O 0.68042 0.34967 1.02261
 O32 O 0.65464 0.31719 0.97878
 O33 O 0.68133 0.29151 0.98114
 O34 O 0.70846 0.32548 1.02388
 O35 O 0.67929 0.29208 1.02287
 O36 O 0.71078 0.32539 0.98230
 Cu37 Cu 0.66460 0.33577 1.00072
 Cu38 Cu 0.69772 0.30605 1.00262
 C39 C 0.70276 0.34418 0.97591
 C40 C 0.65967 0.29838 1.02807
 C41 C 0.69920 0.34367 1.03033
 C42 C 0.66327 0.29860 0.97270
 O43 O 0.31383 0.64825 0.97839
 O44 O 0.34494 0.67681 1.02121
 O45 O 0.31234 0.64755 1.01998
 O46 O 0.34565 0.67833 0.97973
 O47 O 0.32090 0.70605 0.97965
 O48 O 0.28737 0.67499 1.02011
 O49 O 0.32054 0.70486 1.02129
 O50 O 0.28847 0.67543 0.97849
 Cu51 Cu 0.33163 0.65998 0.99983
 Cu52 Cu 0.30180 0.69313 0.99991
 C53 C 0.29589 0.65678 0.97111
 C54 C 0.33827 0.69571 1.02852
 C55 C 0.29411 0.65587 1.02697
 C56 C 0.33906 0.69745 0.97281
 O57 O 0.02191 0.32745 0.36234
 O58 O -0.01815 0.36185 0.33234
 O59 O -0.02127 0.33203 0.36363
 O60 O 0.02472 0.35631 0.33177
 O61 O 0.02048 0.32896 0.30783
 O62 O -0.02587 0.30452 0.34004
 O63 O -0.02274 0.33419 0.30882
 O64 O 0.01778 0.29936 0.33919
 Cu65 Cu 0.00197 0.34716 0.34992
 Cu66 Cu -0.00308 0.31390 0.32165
 C67 C 0.02691 0.30766 0.35589
 C68 C -0.02681 0.35428 0.31517
 C69 C -0.03124 0.31391 0.35762
 C70 C 0.03044 0.34691 0.31435
 O71 O 0.02037 0.66547 0.63945
 O72 O -0.03095 0.64231 0.66412
 O73 O -0.02210 0.67194 0.63425
 O74 O 0.01155 0.63604 0.66959
 O75 O 0.01442 0.66420 0.69285
 O76 O -0.02328 0.69859 0.65902
 O77 O -0.02898 0.66845 0.68941
 O78 O 0.02013 0.69423 0.66214
 Cu79 Cu -0.00535 0.65120 0.64947
 Cu80 Cu -0.00430 0.68415 0.67829
 C81 C 0.02865 0.68416 0.64611
 C82 C -0.03843 0.65099 0.68128
 C83 C -0.02863 0.69136 0.64051
 C84 C 0.01881 0.64393 0.68721
 O85 O 1.01732 0.64012 0.32848
 O86 O 0.97918 0.67820 0.35737
 O87 O 0.97469 0.64749 0.32823
 O88 O 1.02210 0.66991 0.35915
 O89 O 1.02701 0.69760 0.33583
 O90 O 0.98111 0.67287 0.30289
 O91 O 0.98406 0.70441 0.33252
 O92 O 1.02449 0.66729 0.30503
 Cu93 Cu 0.99788 0.65634 0.34580
 Cu94 Cu 1.00478 0.68822 0.31661
 C95 C 1.02733 0.64713 0.31175
 C96 C 0.97486 0.69772 0.34976
 C97 C 0.96996 0.65597 0.31016
 C98 C 1.03243 0.68783 0.35322
 O99 O 0.97920 0.32728 0.64287
 O100 O 1.02411 0.34910 0.67758
 O101 O 1.02164 0.31981 0.64696
 O102 O 0.98178 0.35734 0.67389
 O103 O 0.97373 0.33041 0.69732
 O104 O 1.01390 0.29242 0.66994
 O105 O 1.01648 0.32235 0.70132
 O106 O 0.97113 0.30040 0.66635
 Cu107 Cu 1.00230 0.34109 0.65798
 Cu108 Cu 0.99304 0.30867 0.68610
 C109 C 0.96780 0.30987 0.64838
 C110 C 1.02792 0.33963 0.69543
 C111 C 1.02456 0.29963 0.65359
 C112 C 0.97128 0.35058 0.69042
 O113 O 0.32379 -0.02321 0.35612
 O114 O 0.35421 0.02281 0.32891
 O115 O 0.32181 0.02109 0.35705
 O116 O 0.35551 -0.02049 0.32746
 O117 O 0.32997 -0.02157 0.30187
 O118 O 0.29639 0.02064 0.33139
 O119 O 0.32907 0.02265 0.30295
 O120 O 0.29802 -0.02354 0.33078
 Cu121 Cu 0.34121 0.00011 0.34508
 Cu122 Cu 0.31076 -0.00046 0.31419
 C123 C 0.30570 -0.03120 0.34829
 C124 C 0.34738 0.03007 0.31097
 C125 C 0.30327 0.02787 0.34940
 C126 C 0.34879 -0.02773 0.30940
 O127 O 0.64486 0.01361 0.67817
 O128 O 0.67914 -0.02702 0.64860
 O129 O 0.64983 -0.02993 0.67883
 O130 O 0.67548 0.01670 0.64802
 O131 O 0.70176 0.02095 0.67266
 O132 O 0.67634 -0.02637 0.70331
 O133 O 0.70645 -0.02306 0.67223
 O134 O 0.67143 0.01755 0.70256
 Cu135 Cu 0.65965 -0.00688 0.66098
 Cu136 Cu 0.69172 -0.00245 0.69015
 C137 C 0.65196 0.02219 0.69556
 C138 C 0.69868 -0.03185 0.65512
 C139 C 0.65854 -0.03599 0.69643
 C140 C 0.69312 0.02660 0.65491
 O141 O 0.35801 0.98055 0.68191
 O142 O 0.32759 1.02208 0.64950
 O143 O 0.35484 1.02421 0.68159
 O144 O 0.33086 0.97791 0.64925
 O145 O 0.30138 0.97602 0.67061
 O146 O 0.32670 1.02107 0.70444
 O147 O 0.29885 1.02019 0.67175
 O148 O 0.32871 0.97683 0.70335
 Cu149 Cu 0.34565 1.00136 0.66329
 Cu150 Cu 0.31097 0.99830 0.68975
 C151 C 0.34871 0.97173 0.69824
 C152 C 0.30810 1.02838 0.65509
 C153 C 0.34518 1.03028 0.69875
 C154 C 0.31193 0.96923 0.65415
 O155 O 0.67632 1.02317 0.34901
 O156 O 0.64513 0.98072 0.31733
 O157 O 0.67466 0.97928 0.34808
 O158 O 0.64550 1.02469 0.31958
 O159 O 0.67076 1.02365 0.29375
 O160 O 0.70289 0.98153 0.32527
 O161 O 0.67320 0.97931 0.29428
 O162 O 0.70170 1.02588 0.32344
 Cu163 Cu 0.65772 1.00188 0.33591
 Cu164 Cu 0.68985 1.00262 0.30672
 C165 C 0.69428 1.03203 0.34159
 C166 C 0.65392 0.97263 0.30047
 C167 C 0.69404 0.97312 0.34207
 C168 C 0.65270 1.03158 0.30159
 C169 C 0.86661 0.80419 0.47772
 C170 C 0.87558 0.79726 0.49727
 C171 C 0.87030 0.80821 0.51647
 C172 C 0.85538 0.82685 0.51615
 C173 C 0.84587 0.83396 0.49642
 C174 C 0.85158 0.82264 0.47712
 C175 C 0.84166 0.82967 0.45787
 C176 C 0.82653 0.84758 0.45749
 C177 C 0.82069 0.85915 0.47635
 C178 C 0.83037 0.85221 0.49602
 C179 C 0.84983 0.83871 0.53492
 C180 C 0.83417 0.85613 0.53461
 C181 C 0.82411 0.86303 0.51538
 C182 C 0.80758 0.88014 0.51505
 C183 C 0.79827 0.88688 0.49557
 C184 C 0.80481 0.87696 0.47621
 H185 H 0.84526 0.82116 0.44292
 H186 H 0.81912 0.85195 0.44226
 H187 H 0.85741 0.83461 0.55012
 H188 H 0.83006 0.86413 0.54968
 H189 H 0.88687 0.78286 0.49752
 H190 H 0.78565 0.90008 0.49549
 C191 C 0.20167 0.13339 0.52434
 C192 C 0.21124 0.12606 0.50514
 C193 C 0.20353 0.13370 0.48532
 C194 C 0.18530 0.14897 0.48450
 C195 C 0.17551 0.15679 0.50386
 C196 C 0.18387 0.14917 0.52386
 C197 C 0.17483 0.15819 0.54280
 C198 C 0.15780 0.17424 0.54219
 C199 C 0.14899 0.18174 0.52262
 C200 C 0.15784 0.17288 0.50325
 C201 C 0.17715 0.15727 0.46494
 C202 C 0.15955 0.17269 0.46432
 C203 C 0.14965 0.18071 0.48326
 C204 C 0.13239 0.19708 0.48281
 C205 C 0.12403 0.20576 0.50202
 C206 C 0.13217 0.19856 0.52182
 H207 H 0.18118 0.15332 0.55833
 H208 H 0.15179 0.18088 0.55726
 H209 H 0.18445 0.15214 0.44987
 H210 H 0.15412 0.17865 0.44882
 H211 H 0.22502 0.11411 0.50563
 H212 H 0.11110 0.21865 0.50155
 C213 C 0.14806 0.78453 0.52112
 C214 C 0.14032 0.77633 0.50143
 C215 C 0.14926 0.78411 0.48204
 C216 C 0.16681 0.80054 0.48224
 C217 C 0.17467 0.80932 0.50208
 C218 C 0.16537 0.80119 0.52159
 C219 C 0.17413 0.80941 0.54102
 C220 C 0.19113 0.82582 0.54134
 C221 C 0.20014 0.83462 0.52225
 C222 C 0.19216 0.82597 0.50241
 C223 C 0.17720 0.80787 0.46323
 C224 C 0.19439 0.82407 0.46357
 C225 C 0.20189 0.83362 0.48293
 C226 C 0.21936 0.85010 0.48341
 C227 C 0.22679 0.85865 0.50307
 C228 C 0.21743 0.85133 0.52243
 H229 H 0.16811 0.80305 0.55622
 H230 H 0.19738 0.83124 0.55677
 H231 H 0.17240 0.80089 0.44787
 H232 H 0.20193 0.82881 0.44845
 H233 H 0.12675 0.76387 0.50121
 H234 H 0.23991 0.87159 0.50328
 C235 C 0.85313 0.20779 0.51988
 C236 C 0.86016 0.21717 0.50044
 C237 C 0.85376 0.20788 0.48075
 C238 C 0.83895 0.18887 0.48036
 C239 C 0.83074 0.17971 0.49993
 C240 C 0.83819 0.18890 0.51978
 C241 C 0.83126 0.17834 0.53887
 C242 C 0.81652 0.15983 0.53861
 C243 C 0.80818 0.15104 0.51926
 C244 C 0.81573 0.16074 0.49968
 C245 C 0.83291 0.17815 0.46107
 C246 C 0.81818 0.15965 0.46082
 C247 C 0.80893 0.15101 0.47985
 C248 C 0.79380 0.13227 0.47975
 C249 C 0.78601 0.12352 0.49918
 C250 C 0.79320 0.13222 0.51884
 H251 H 0.83737 0.18405 0.55425
 H252 H 0.81200 0.15229 0.55380
 H253 H 0.83978 0.18368 0.44592
 H254 H 0.81444 0.15196 0.44550
 H255 H 0.87135 0.23186 0.50065
 H256 H 0.77415 0.10938 0.49903
 C257 C 0.47532 0.80609 0.87249
 C258 C 0.49463 0.79733 0.88196
 C259 C 0.51616 0.80431 0.87568
 C260 C 0.51860 0.82024 0.85885
 C261 C 0.49912 0.82946 0.84913
 C262 C 0.47739 0.82266 0.85622
 C263 C 0.45840 0.83244 0.84674
 C264 C 0.46063 0.84877 0.83075
 C265 C 0.48192 0.85525 0.82296
 C266 C 0.50138 0.84556 0.83230
 C267 C 0.53990 0.82749 0.85172
 C268 C 0.54210 0.84268 0.83478
 C269 C 0.52310 0.85199 0.82491
 C270 C 0.52518 0.86747 0.80773
 C271 C 0.50590 0.87694 0.79883
 C272 C 0.48440 0.87143 0.80634
 H273 H 0.44159 0.82770 0.85171
 H274 H 0.44542 0.85613 0.82449
 H275 H 0.55515 0.82143 0.85906
 H276 H 0.55891 0.84718 0.82962
 H277 H 0.49285 0.78479 0.89460
 H278 H 0.50771 0.88906 0.78583
 C279 C 0.47560 0.13970 0.20151
 C280 C 0.49614 0.13102 0.20854
 C281 C 0.51656 0.13747 0.19920
 C282 C 0.51666 0.15330 0.18217
 C283 C 0.49608 0.16284 0.17518
 C284 C 0.47545 0.15602 0.18482
 C285 C 0.45531 0.16539 0.17722
 C286 C 0.45544 0.18195 0.16130
 C287 C 0.47563 0.18907 0.15169
 C288 C 0.49614 0.17919 0.15843
 C289 C 0.53677 0.16001 0.17210
 C290 C 0.53673 0.17545 0.15525
 C291 C 0.51669 0.18555 0.14839
 C292 C 0.51650 0.20162 0.13154
 C293 C 0.49626 0.21174 0.12570
 C294 C 0.47596 0.20590 0.13555
 H295 H 0.43916 0.16011 0.18349
 H296 H 0.43949 0.18896 0.15645
 H297 H 0.55281 0.15333 0.17707
 H298 H 0.55266 0.17948 0.14779
 H299 H 0.49625 0.11878 0.22153
 H300 H 0.49628 0.22442 0.11308
 C301 C 0.52370 0.13877 0.79672
 C302 C 0.50323 0.13252 0.78730
 C303 C 0.48287 0.14170 0.79408
 C304 C 0.48274 0.15769 0.81097
 C305 C 0.50336 0.16447 0.82060
 C306 C 0.52394 0.15505 0.81343
 C307 C 0.54409 0.16201 0.82332
 C308 C 0.54420 0.17873 0.83910
 C309 C 0.52408 0.18840 0.84632
 C310 C 0.50341 0.18089 0.83728
 C311 C 0.46264 0.16749 0.81810
 C312 C 0.46267 0.18331 0.83464
 C313 C 0.48282 0.19013 0.84458
 C314 C 0.48302 0.20650 0.86116
 C315 C 0.50356 0.21427 0.86934
 C316 C 0.52402 0.20571 0.86205
 H317 H 0.56005 0.15477 0.81886
 H318 H 0.56027 0.18390 0.84566
 H319 H 0.44667 0.16316 0.81083
 H320 H 0.44671 0.19050 0.83926
 H321 H 0.50313 0.12026 0.77431
 H322 H 0.50366 0.22722 0.88172
 C323 C 0.51749 0.86765 0.19655
 C324 C 0.49697 0.87536 0.20452
 C325 C 0.47640 0.86652 0.19741
 C326 C 0.47627 0.84938 0.18149
 C327 C 0.49699 0.84077 0.17369
 C328 C 0.51770 0.84979 0.18138
 C329 C 0.53793 0.84099 0.17341
 C330 C 0.53791 0.82318 0.15869
 C331 C 0.51765 0.81414 0.15068
 C332 C 0.49699 0.82327 0.15798
 C333 C 0.45607 0.84094 0.17284
 C334 C 0.45608 0.82385 0.15745
 C335 C 0.47631 0.81481 0.14975
 C336 C 0.47642 0.79728 0.13425
 C337 C 0.49686 0.78792 0.12783
 C338 C 0.51740 0.79599 0.13579
 H339 H 0.55403 0.84764 0.17861
 H340 H 0.55397 0.81667 0.15355
 H341 H 0.43998 0.84757 0.17772
 H342 H 0.43996 0.81769 0.15180
 H343 H 0.49707 0.88854 0.21668
 H344 H 0.49681 0.77426 0.11614
 C345 C 0.79854 0.47939 0.86250
 C346 C 0.78794 0.49926 0.86937
 C347 C 0.79184 0.52028 0.85950
 C348 C 0.80639 0.52150 0.84161
 C349 C 0.81748 0.50156 0.83449
 C350 C 0.81386 0.48053 0.84520
 C351 C 0.82609 0.46139 0.83868
 C352 C 0.84060 0.46248 0.82125
 C353 C 0.84346 0.48274 0.80960
 C354 C 0.83230 0.50266 0.81667
 C355 C 0.80982 0.54196 0.83041
 C356 C 0.82439 0.54306 0.81300
 C357 C 0.83605 0.52372 0.80607
 C358 C 0.85109 0.52474 0.78856
 C359 C 0.86128 0.50480 0.78136
 C360 C 0.85769 0.48385 0.79146
 H361 H 0.82481 0.44540 0.84715
 H362 H 0.84975 0.44727 0.81721
 H363 H 0.80107 0.55731 0.83483
 H364 H 0.82621 0.55921 0.80485
 H365 H 0.77643 0.49838 0.88282
 H366 H 0.87253 0.50569 0.76772
 C367 C 0.13645 0.51670 0.20471
 C368 C 0.12859 0.49569 0.21230
 C369 C 0.13576 0.47516 0.20353
 C370 C 0.15137 0.47535 0.18653
 C371 C 0.16010 0.49643 0.17899
 C372 C 0.15261 0.51722 0.18805
 C373 C 0.16122 0.53785 0.17997
 C374 C 0.17761 0.53809 0.16405
 C375 C 0.18538 0.51774 0.15499
 C376 C 0.17638 0.49669 0.16235
 C377 C 0.15863 0.45503 0.17704
 C378 C 0.17412 0.45533 0.16040
 C379 C 0.18364 0.47589 0.15314
 C380 C 0.19998 0.47630 0.13670
 C381 C 0.20901 0.49717 0.13005
 C382 C 0.20209 0.51777 0.13891
 H383 H 0.15550 0.55407 0.18590
 H384 H 0.18405 0.55445 0.15886
 H385 H 0.15235 0.43865 0.18233
 H386 H 0.17856 0.43918 0.15337
 H387 H 0.11654 0.49529 0.22533
 H388 H 0.22180 0.49738 0.11766
 C389 C 0.86928 0.48264 0.20137
 C390 C 0.87485 0.50388 0.21016
 C391 C 0.86551 0.52401 0.20250
 C392 C 0.84936 0.52303 0.18597
 C393 C 0.84355 0.50171 0.17672
 C394 C 0.85393 0.48150 0.18407
 C395 C 0.84909 0.46088 0.17357
 C396 C 0.83327 0.45980 0.15720
 C397 C 0.82154 0.47928 0.15075
 C398 C 0.82731 0.50059 0.16009
 C399 C 0.83852 0.54274 0.17881
 C400 C 0.82253 0.54163 0.16263
 C401 C 0.81686 0.52081 0.15288
 C402 C 0.80066 0.51957 0.13640
 C403 C 0.79454 0.49838 0.12798
 C404 C 0.80460 0.47820 0.13483
 H405 H 0.85769 0.44536 0.17771
 H406 H 0.83051 0.44351 0.14954
 H407 H 0.84206 0.55920 0.18587
 H408 H 0.81445 0.55730 0.15804
 H409 H 0.88674 0.50481 0.22328
 H410 H 0.78166 0.49762 0.11572
 C411 C 0.19849 0.48050 0.86163
 C412 C 0.20372 0.50165 0.87069
 C413 C 0.19343 0.52162 0.86383
 C414 C 0.17708 0.52061 0.84747
 C415 C 0.17191 0.49939 0.83770
 C416 C 0.18270 0.47925 0.84473
 C417 C 0.17794 0.45861 0.83422
 C418 C 0.16259 0.45761 0.81746
 C419 C 0.15149 0.47723 0.81046
 C420 C 0.15629 0.49838 0.82054
 C421 C 0.16611 0.54026 0.84036
 C422 C 0.15043 0.53919 0.82388
 C423 C 0.14567 0.51856 0.81336
 C424 C 0.13042 0.51742 0.79598
 C425 C 0.12596 0.49639 0.78630
 C426 C 0.13612 0.47640 0.79328
 H427 H 0.18631 0.44304 0.83861
 H428 H 0.15973 0.44129 0.80985
 H429 H 0.16952 0.55672 0.84747
 H430 H 0.14215 0.55479 0.81947
 H431 H 0.21603 0.50260 0.88347
 H432 H 0.11437 0.49554 0.77292
 C433 C 0.29242 0.38879 0.03446
 C434 C 0.27899 0.40275 0.04699
 C435 C 0.26441 0.39335 0.06216
 C436 C 0.26302 0.36958 0.06449
 C437 C 0.27605 0.35545 0.05141
 C438 C 0.29099 0.36503 0.03644
 N439 N 0.25099 0.40852 0.07449
 N440 N 0.24252 0.40343 0.09256
 C441 C 0.22936 0.41988 0.10374
 C442 C 0.22972 0.42052 0.12612
 C443 C 0.21959 0.43851 0.13710
 C444 C 0.20828 0.45559 0.12577
 C445 C 0.20700 0.45421 0.10340
 C446 C 0.21755 0.43661 0.09246
 H447 H 0.30361 0.39658 0.02285
 H448 H 0.28007 0.42104 0.04502
 H449 H 0.25164 0.36203 0.07604
 H450 H 0.27465 0.33715 0.05312
 H451 H 0.23890 0.40780 0.13498
 H452 H 0.22117 0.43951 0.15433
 H453 H 0.19845 0.46725 0.09435
 H454 H 0.21694 0.43634 0.07516
 C455 C 0.69159 0.61924 0.05736
 C456 C 0.70274 0.60540 0.07196
 C457 C 0.72580 0.60812 0.07542
 C458 C 0.73761 0.62542 0.06455
 C459 C 0.72641 0.63948 0.05004
 C460 C 0.70333 0.63626 0.04606
 N461 N 0.73682 0.59234 0.08921
 N462 N 0.75802 0.59214 0.09180
 C463 C 0.76853 0.57533 0.10492
 C464 C 0.79200 0.57396 0.10515
 C465 C 0.80260 0.55627 0.11606
 C466 C 0.78980 0.53990 0.12712
 C467 C 0.76631 0.54170 0.12745
 C468 C 0.75574 0.55927 0.11647
 H469 H 0.67379 0.61642 0.05476
 H470 H 0.69348 0.59213 0.08024
 H471 H 0.75548 0.62783 0.06700
 H472 H 0.73589 0.65244 0.04156
 H473 H 0.80204 0.58614 0.09623
 H474 H 0.82073 0.55494 0.11535
 H475 H 0.75616 0.52912 0.13578
 H476 H 0.73757 0.55995 0.11657
 C477 C 0.71408 0.38318 0.96519
 C478 C 0.72695 0.39831 0.95311
 C479 C 0.74166 0.39029 0.93748
 C480 C 0.74379 0.36672 0.93429
 C481 C 0.73131 0.35141 0.94690
 C482 C 0.71617 0.35960 0.96229
 N483 N 0.75415 0.40667 0.92536
 N484 N 0.76289 0.40253 0.90722
 C485 C 0.77477 0.42020 0.89605
 C486 C 0.77485 0.42038 0.87366
 C487 C 0.78334 0.43928 0.86256
 C488 C 0.79255 0.45791 0.87377
 C489 C 0.79361 0.45704 0.89618
 C490 C 0.78467 0.43845 0.90724
 H491 H 0.70275 0.38992 0.97715
 H492 H 0.72528 0.41644 0.95574
 H493 H 0.75524 0.36023 0.92234
 H494 H 0.73324 0.33328 0.94448
 H495 H 0.76715 0.40648 0.86486
 H496 H 0.78195 0.43976 0.84530
 H497 H 0.80061 0.47120 0.90515
 H498 H 0.78495 0.43857 0.92455
 C499 C 0.29563 0.62995 0.94035
 C500 C 0.28427 0.61661 0.92535
 C501 C 0.26086 0.61717 0.92398
 C502 C 0.24882 0.63213 0.93719
 C503 C 0.26026 0.64590 0.95201
 C504 C 0.28373 0.64447 0.95404
 N505 N 0.24997 0.60132 0.90996
 N506 N 0.22884 0.59778 0.90977
 C507 C 0.21923 0.58058 0.89620
 C508 C 0.19669 0.57410 0.89897
 C509 C 0.18780 0.55541 0.88780
 C510 C 0.20138 0.54320 0.87354
 C511 C 0.22365 0.55026 0.87014
 C512 C 0.23252 0.56879 0.88133
 H513 H 0.31374 0.62867 0.94147
 H514 H 0.29370 0.60516 0.91523
 H515 H 0.23067 0.63283 0.93633
 H516 H 0.25073 0.65693 0.96244
 H517 H 0.18629 0.58295 0.91044
 H518 H 0.17064 0.54998 0.89078
 H519 H 0.23437 0.54092 0.85929
 H520 H 0.24996 0.57345 0.87882
 C521 C 0.05792 0.30588 0.38252
 C522 C 0.07265 0.29374 0.39541
 C523 C 0.07311 0.27001 0.39455
 C524 C 0.05911 0.25840 0.37998
 C525 C 0.04447 0.27061 0.36679
 C526 C 0.04346 0.29447 0.36827
 N527 N 0.08706 0.25841 0.40954
 N528 N 0.08736 0.23688 0.41165
 C529 C 0.10084 0.22653 0.42792
 C530 C 0.09887 0.20308 0.43165
 C531 C 0.10991 0.19313 0.44903
 C532 C 0.12318 0.20657 0.46275
 C533 C 0.12582 0.22986 0.45853
 C534 C 0.11481 0.23977 0.44125
 H535 H 0.05770 0.32425 0.38390
 H536 H 0.08337 0.30284 0.40657
 H537 H 0.05922 0.24001 0.37908
 H538 H 0.03348 0.26140 0.35596
 H539 H 0.08811 0.19269 0.42158
 H540 H 0.10751 0.17516 0.45222
 H541 H 0.13591 0.24049 0.46902
 H542 H 0.11670 0.25791 0.43874
 C543 C 0.06038 0.68142 0.62006
 C544 C 0.07683 0.69160 0.60722
 C545 C 0.08078 0.71506 0.60826
 C546 C 0.06881 0.72820 0.62312
 C547 C 0.05252 0.71797 0.63622
 C548 C 0.04778 0.69455 0.63444
 N549 N 0.09595 0.72513 0.59312
 N550 N 0.09837 0.74655 0.59101
 C551 C 0.11273 0.75609 0.57485
 C552 C 0.11262 0.77963 0.57134
 C553 C 0.12471 0.78912 0.55427
 C554 C 0.13733 0.77514 0.54066
 C555 C 0.13794 0.75164 0.54456
 C556 C 0.12578 0.74217 0.56151
 H557 H 0.05719 0.66333 0.61839
 H558 H 0.08596 0.68131 0.59584
 H559 H 0.07163 0.74639 0.62424
 H560 H 0.04301 0.72852 0.64710
 H561 H 0.10253 0.79053 0.58141
 H562 H 0.12373 0.80723 0.55130
 H563 H 0.14743 0.74058 0.53412
 H564 H 0.12615 0.72393 0.56385
 C565 C 0.95821 0.73614 0.35647
 C566 C 0.94430 0.75053 0.36830
 C567 C 0.93096 0.74180 0.38486
 C568 C 0.93147 0.71838 0.38934
 C569 C 0.94553 0.70405 0.37772
 C570 C 0.95921 0.71280 0.36129
 N571 N 0.91813 0.75710 0.39777
 N572 N 0.90444 0.74976 0.41186
 C573 C 0.89267 0.76447 0.42617
 C574 C 0.87796 0.75468 0.44107
 C575 C 0.86844 0.76795 0.45716
 C576 C 0.87347 0.79127 0.45851
 C577 C 0.88749 0.80134 0.44306
 C578 C 0.89701 0.78803 0.42691
 H579 H 0.96860 0.74338 0.34393
 H580 H 0.94415 0.76856 0.36476
 H581 H 0.92141 0.71121 0.40214
 H582 H 0.94584 0.68613 0.38174
 H583 H 0.87458 0.73655 0.44072
 H584 H 0.85784 0.75988 0.46909
 H585 H 0.89181 0.81925 0.44408
 H586 H 0.90845 0.79593 0.41562
 C587 C 0.95344 0.30472 0.61126
 C588 C 0.93982 0.29351 0.59640
 C589 C 0.92356 0.27778 0.60313
 C590 C 0.92072 0.27356 0.62509
 C591 C 0.93472 0.28443 0.64002
 C592 C 0.95139 0.29995 0.63319
 N593 N 0.91155 0.26515 0.58720
 N594 N 0.89323 0.25447 0.59076
 C595 C 0.88310 0.24122 0.57406
 C596 C 0.85968 0.23877 0.57301
 C597 C 0.84967 0.22744 0.55566
 C598 C 0.86309 0.21772 0.53961
 C599 C 0.88657 0.21942 0.54127
 C600 C 0.89647 0.23118 0.55821
 H601 H 0.96622 0.31643 0.60547
 H602 H 0.94223 0.29676 0.57950
 H603 H 0.90835 0.26127 0.63058
 H604 H 0.93280 0.28042 0.65683
 H605 H 0.84919 0.24645 0.58513
 H606 H 0.83152 0.22671 0.55449
 H607 H 0.89724 0.21210 0.52907
 H608 H 0.91461 0.23263 0.55886
 C609 C 0.38516 0.04592 0.30255
 C610 C 0.39962 0.05890 0.28988
 C611 C 0.39115 0.07282 0.27376
 C612 C 0.36782 0.07381 0.27045
 C613 C 0.35325 0.06024 0.28280
 C614 C 0.36187 0.04608 0.29891
 N615 N 0.40685 0.08429 0.26013
 N616 N 0.40242 0.10227 0.24970
 C617 C 0.41916 0.11186 0.23584
 C618 C 0.42197 0.13551 0.23452
 C619 C 0.44004 0.14484 0.22297
 C620 C 0.45493 0.13058 0.21191
 C621 C 0.45139 0.10694 0.21254
 C622 C 0.43382 0.09765 0.22453
 H623 H 0.39234 0.03498 0.31464
 H624 H 0.41759 0.05790 0.29243
 H625 H 0.36102 0.08431 0.25784
 H626 H 0.33537 0.06057 0.27962
 H627 H 0.41086 0.14664 0.24329
 H628 H 0.44275 0.16309 0.22313
 H629 H 0.46270 0.09561 0.20423
 H630 H 0.43181 0.07934 0.22525
 C631 C 0.61353 0.03385 0.70624
 C632 C 0.59894 0.04667 0.71872
 C633 C 0.60731 0.06318 0.73275
 C634 C 0.63064 0.06670 0.73440
 C635 C 0.64537 0.05341 0.72227
 C636 C 0.63688 0.03691 0.70803
 N637 N 0.59164 0.07549 0.74552
 N638 N 0.59621 0.09442 0.75447
 C639 C 0.57954 0.10547 0.76720
 C640 C 0.57936 0.12925 0.76854
 C641 C 0.56156 0.14031 0.77873
 C642 C 0.54418 0.12760 0.78837
 C643 C 0.54503 0.10375 0.78787
 C644 C 0.56246 0.09277 0.77727
 H645 H 0.60654 0.02109 0.69558
 H646 H 0.58099 0.04377 0.71743
 H647 H 0.63741 0.07930 0.74533
 H648 H 0.66332 0.05603 0.72394
 H649 H 0.59238 0.13922 0.76075
 H650 H 0.56096 0.15872 0.77853
 H651 H 0.53175 0.09364 0.79510
 H652 H 0.56240 0.07436 0.77659
 C653 C 0.35110 0.93927 0.72422
 C654 C 0.36383 0.92505 0.73741
 C655 C 0.38717 0.92799 0.73877
 C656 C 0.39778 0.94472 0.72620
 C657 C 0.38521 0.95845 0.71265
 C658 C 0.36174 0.95608 0.71173
 N659 N 0.40000 0.91411 0.75297
 N660 N 0.41839 0.92165 0.76069
 C661 C 0.43291 0.90845 0.77387
 C662 C 0.44942 0.91984 0.78573
 C663 C 0.46539 0.90765 0.79716
 C664 C 0.46533 0.88377 0.79662
 C665 C 0.44858 0.87225 0.78490
 C666 C 0.43225 0.88453 0.77378
 H667 H 0.33302 0.93708 0.72371
 H668 H 0.35547 0.91214 0.74695
 H669 H 0.41583 0.94710 0.72682
 H670 H 0.39383 0.97134 0.70327
 H671 H 0.45018 0.93826 0.78574
 H672 H 0.47830 0.91685 0.80590
 H673 H 0.44857 0.85386 0.78387
 H674 H 0.41980 0.87544 0.76440
 C675 C 0.65213 0.93921 0.27552
 C676 C 0.63971 0.92408 0.26272
 C677 C 0.61634 0.92610 0.26125
 C678 C 0.60537 0.94275 0.27342
 C679 C 0.61765 0.95736 0.28667
 C680 C 0.64115 0.95596 0.28759
 N681 N 0.60379 0.91143 0.24730
 N682 N 0.58616 0.91877 0.23822
 C683 C 0.57165 0.90492 0.22536
 C684 C 0.55629 0.91578 0.21201
 C685 C 0.53970 0.90326 0.20143
 C686 C 0.53796 0.87962 0.20431
 C687 C 0.55382 0.86854 0.21716
 C688 C 0.57078 0.88111 0.22748
 H689 H 0.67026 0.93779 0.27605
 H690 H 0.64834 0.91124 0.25349
 H691 H 0.58728 0.94440 0.27270
 H692 H 0.60881 0.97019 0.29574
 H693 H 0.55671 0.93413 0.21041
 H694 H 0.52747 0.91215 0.19179
 H695 H 0.55245 0.85040 0.21996
 H696 H 0.58234 0.87246 0.23799
 C697 C 0.38001 0.31061 0.94132
 C698 C 0.39396 0.29994 0.92659
 C699 C 0.39149 0.27672 0.92237
 C700 C 0.37423 0.26428 0.93252
 C701 C 0.35995 0.27506 0.94712
 C702 C 0.36303 0.29826 0.95193
 N703 N 0.40753 0.26624 0.90857
 N704 N 0.40856 0.24485 0.90566
 C705 C 0.42579 0.23526 0.89252
 C706 C 0.42863 0.21164 0.89221
 C707 C 0.44684 0.20209 0.88138
 C708 C 0.46228 0.21611 0.87049
 C709 C 0.45900 0.23970 0.87020
 C710 C 0.44091 0.24923 0.88109
 H711 H 0.38265 0.32855 0.94455
 H712 H 0.40720 0.30966 0.91884
 H713 H 0.37203 0.24627 0.92944
 H714 H 0.34699 0.26517 0.95509
 H715 H 0.41718 0.20070 0.90103
 H716 H 0.44930 0.18386 0.88202
 H717 H 0.47080 0.25078 0.86196
 H718 H 0.43910 0.26754 0.88102
 C719 C 0.64937 0.72052 0.94332
 C720 C 0.63672 0.73395 0.92936
 C721 C 0.61338 0.73539 0.93187
 C722 C 0.60270 0.72260 0.94795
 C723 C 0.61519 0.70874 0.96144
 C724 C 0.63865 0.70779 0.95944
 N725 N 0.60060 0.74983 0.91817
 N726 N 0.58248 0.75861 0.92496
 C727 C 0.56794 0.77190 0.91189
 C728 C 0.55211 0.78566 0.92196
 C729 C 0.53606 0.79711 0.90997
 C730 C 0.53534 0.79465 0.88765
 C731 C 0.55139 0.78100 0.87745
 C732 C 0.56783 0.76990 0.88949
 H733 H 0.66745 0.71997 0.94145
 H734 H 0.64513 0.74366 0.91696
 H735 H 0.58465 0.72326 0.94999
 H736 H 0.60653 0.69917 0.97380
 H737 H 0.55194 0.78712 0.93923
 H738 H 0.52368 0.80735 0.91816
 H739 H 0.55077 0.77842 0.86031
 H740 H 0.57973 0.75900 0.88146
 C741 C 0.36658 0.69421 0.05780
 C742 C 0.38093 0.70486 0.07238
 C743 C 0.38100 0.72852 0.07457
 C744 C 0.36574 0.74150 0.06263
 C745 C 0.35106 0.73078 0.04820
 C746 C 0.35173 0.70707 0.04532
 N747 N 0.39763 0.73878 0.08809
 N748 N 0.40106 0.76016 0.08899
 C749 C 0.41871 0.76959 0.10192
 C750 C 0.42377 0.79285 0.10038
 C751 C 0.44223 0.80207 0.11133
 C752 C 0.45567 0.78814 0.12421
 C753 C 0.45028 0.76495 0.12614
 C754 C 0.43195 0.75573 0.11512
 H755 H 0.36735 0.67590 0.05604
 H756 H 0.39260 0.69471 0.08152
 H757 H 0.36549 0.75984 0.06412
 H758 H 0.33981 0.74108 0.03873
 H759 H 0.41382 0.80368 0.09017
 H760 H 0.44635 0.81995 0.10940
 H761 H 0.46056 0.75392 0.13589
 H762 H 0.42842 0.73769 0.11658
 C763 C 0.65607 0.27210 0.05955
 C764 C 0.64270 0.25940 0.07373
 C765 C 0.61933 0.25851 0.07110
 C766 C 0.60940 0.27092 0.05447
 C767 C 0.62261 0.28405 0.04074
 C768 C 0.64606 0.28466 0.04305
 N769 N 0.60571 0.24542 0.08552
 N770 N 0.58673 0.23769 0.07943
 C771 C 0.57129 0.22614 0.09327
 C772 C 0.55356 0.21391 0.08402
 C773 C 0.53647 0.20481 0.09673
 C774 C 0.53668 0.20810 0.11896
 C775 C 0.55474 0.21997 0.12838
 C776 C 0.57213 0.22875 0.11561
 H777 H 0.67414 0.27241 0.06167
 H778 H 0.65055 0.25001 0.08657
 H779 H 0.59135 0.27070 0.05230
 H780 H 0.61451 0.29351 0.02808
 H781 H 0.55265 0.21200 0.06681
 H782 H 0.52256 0.19593 0.08915
 H783 H 0.55493 0.22313 0.14544
 H784 H 0.58555 0.23849 0.12302
 C785 C 0.30809 0.05816 0.62665
 C786 C 0.29680 0.07289 0.61296
 C787 C 0.27343 0.07467 0.61387
 C788 C 0.26137 0.06209 0.62925
 C789 C 0.27269 0.04751 0.64320
 C790 C 0.29614 0.04510 0.64174
 N791 N 0.26246 0.08846 0.59827
 N792 N 0.24121 0.08905 0.59614
 C793 C 0.23102 0.10224 0.57955
 C794 C 0.20796 0.09975 0.57563
 C795 C 0.19810 0.11054 0.55809
 C796 C 0.21119 0.12422 0.54443
 C797 C 0.23413 0.12734 0.54881
 C798 C 0.24399 0.11646 0.56622
 H799 H 0.32616 0.05679 0.62524
 H800 H 0.30625 0.08251 0.60117
 H801 H 0.24326 0.06324 0.63025
 H802 H 0.26306 0.03763 0.65465
 H803 H 0.19781 0.08876 0.58571
 H804 H 0.18043 0.10768 0.55476
 H805 H 0.24452 0.13773 0.53837
 H806 H 0.26184 0.11872 0.56890
 C807 C 0.72475 0.06018 0.34519
 C808 C 0.73728 0.07526 0.35791
 C809 C 0.73204 0.07793 0.37956
 C810 C 0.71338 0.06642 0.38815
 C811 C 0.70035 0.05202 0.37535
 C812 C 0.70620 0.04817 0.35381
 N813 N 0.74616 0.09153 0.39303
 N814 N 0.75178 0.08399 0.41130
 C815 C 0.76465 0.09690 0.42638
 C816 C 0.77684 0.08517 0.44188
 C817 C 0.78756 0.09696 0.45837
 C818 C 0.78575 0.12072 0.45999
 C819 C 0.77382 0.13258 0.44418
 C820 C 0.76359 0.12075 0.42726
 H821 H 0.72968 0.05787 0.32865
 H822 H 0.75163 0.08413 0.35112
 H823 H 0.70901 0.06853 0.40484
 H824 H 0.68622 0.04324 0.38263
 H825 H 0.77761 0.06678 0.44141
 H826 H 0.79652 0.08743 0.47043
 H827 H 0.77173 0.15082 0.44539
 H828 H 0.75390 0.13005 0.41558
 C829 C 0.70168 0.93660 0.62881
 C830 C 0.71401 0.92401 0.61408
 C831 C 0.73716 0.92751 0.61199
 C832 C 0.74820 0.94293 0.62572
 C833 C 0.73587 0.95532 0.64081
 C834 C 0.71241 0.95270 0.64201
 N835 N 0.74850 0.91621 0.59488
 N836 N 0.76878 0.92043 0.58965
 C837 C 0.77883 0.90940 0.57160
 C838 C 0.80075 0.91540 0.56544
 C839 C 0.81035 0.90581 0.54710
 C840 C 0.79811 0.89000 0.53483
 C841 C 0.77627 0.88386 0.54108
 C842 C 0.76670 0.89342 0.55932
 H843 H 0.68363 0.93418 0.62949
 H844 H 0.70536 0.91214 0.60362
 H845 H 0.76614 0.94583 0.62439
 H846 H 0.74448 0.96774 0.65073
 H847 H 0.81024 0.92778 0.57466
 H848 H 0.82720 0.91080 0.54238
 H849 H 0.76661 0.87173 0.53171
 H850 H 0.74972 0.88852 0.56364
 C851 C 0.27039 0.94665 0.35628
 C852 C 0.25833 0.93130 0.36913
 C853 C 0.26905 0.91975 0.38579
 C854 C 0.29217 0.92330 0.38913
 C855 C 0.30414 0.93879 0.37651
 C856 C 0.29333 0.95088 0.36016
 N857 N 0.25600 0.90574 0.39998
 N858 N 0.26533 0.89380 0.41438
 C859 C 0.25293 0.88096 0.42992
 C860 C 0.26483 0.86760 0.44446
 C861 C 0.25370 0.85677 0.46133
 C862 C 0.23042 0.85915 0.46390
 C863 C 0.21833 0.87210 0.44903
 C864 C 0.22949 0.88288 0.43206
 H865 H 0.26161 0.95579 0.34385
 H866 H 0.24051 0.92878 0.36643
 H867 H 0.30086 0.91465 0.40192
 H868 H 0.32181 0.94159 0.37981
 H869 H 0.28290 0.86615 0.44306
 H870 H 0.26333 0.84704 0.47275
 H871 H 0.20041 0.87444 0.45099
 H872 H 0.21997 0.89330 0.42112
 C873 C 0.04515 0.34529 0.73172
 C874 C 0.05975 0.35728 0.74532
 C875 C 0.07484 0.37343 0.73701
 C876 C 0.07584 0.37679 0.71478
 C877 C 0.06117 0.36503 0.70124
 C878 C 0.04531 0.34956 0.70960
 N879 N 0.08741 0.38772 0.75135
 N880 N 0.10131 0.40251 0.74433
 C881 C 0.11257 0.41866 0.75782
 C882 C 0.12691 0.43469 0.74827
 C883 C 0.13556 0.45286 0.76015
 C884 C 0.13009 0.45515 0.78186
 C885 C 0.11655 0.43854 0.79175
 C886 C 0.10782 0.42034 0.77980
 H887 H 0.03307 0.33351 0.73860
 H888 H 0.05874 0.35458 0.76243
 H889 H 0.08733 0.38916 0.70790
 H890 H 0.06181 0.36856 0.68425
 H891 H 0.13055 0.43365 0.73132
 H892 H 0.14582 0.46566 0.75225
 H893 H 0.11195 0.44025 0.80843
 H894 H 0.09665 0.40822 0.78749
 C895 C 0.03757 0.60782 0.30078
 C896 C 0.04986 0.59280 0.28817
 C897 C 0.06685 0.60089 0.27465
 C898 C 0.07152 0.62435 0.27381
 C899 C 0.05882 0.63952 0.28606
 C900 C 0.04169 0.63135 0.29962
 N901 N 0.07821 0.58496 0.26127
 N902 N 0.09716 0.58903 0.25255
 C903 C 0.10710 0.57243 0.23879
 C904 C 0.13053 0.57081 0.23746
 C905 C 0.14036 0.55310 0.22580
 C906 C 0.12679 0.53735 0.21470
 C907 C 0.10335 0.53974 0.21528
 C908 C 0.09358 0.55699 0.22733
 H909 H 0.02434 0.60108 0.31092
 H910 H 0.04605 0.57475 0.28883
 H911 H 0.08448 0.63094 0.26330
 H912 H 0.06230 0.65760 0.28488
 H913 H 0.14113 0.58258 0.24627
 H914 H 0.15845 0.55128 0.22598
 H915 H 0.09257 0.52772 0.20694
 H916 H 0.07544 0.55810 0.22796
 C917 C 0.94439 0.36094 0.28645
 C918 C 0.93252 0.37582 0.27318
 C919 C 0.93577 0.39945 0.27509
 C920 C 0.95043 0.40797 0.29066
 C921 C 0.96185 0.39323 0.30420
 C922 C 0.95924 0.36955 0.30205
 N923 N 0.92527 0.41526 0.26098
 N924 N 0.90803 0.41043 0.24977
 C925 C 0.89876 0.42712 0.23571
 C926 C 0.87569 0.42687 0.23137
 C927 C 0.86604 0.44454 0.21961
 C928 C 0.87954 0.46225 0.21137
 C929 C 0.90284 0.46179 0.21489
 C930 C 0.91234 0.44450 0.22708
 H931 H 0.94213 0.34276 0.28442
 H932 H 0.92135 0.36891 0.26111
 H933 H 0.95310 0.42616 0.29219
 H934 H 0.97334 0.40038 0.31589
 H935 H 0.86503 0.41360 0.23799
 H936 H 0.84798 0.44479 0.21753
 H937 H 0.91359 0.47525 0.20874
 H938 H 0.93027 0.44487 0.23005
 C939 C 0.92911 0.62368 0.68136
 C940 C 0.91253 0.61131 0.69222
 C941 C 0.90894 0.61479 0.71407
 C942 C 0.92138 0.63174 0.72482
 C943 C 0.93783 0.64435 0.71390
 C944 C 0.94226 0.64000 0.69219
 N945 N 0.89406 0.59957 0.72517
 N946 N 0.89185 0.59972 0.74541
 C947 C 0.87832 0.58301 0.75623
 C948 C 0.87932 0.58166 0.77857
 C949 C 0.86927 0.56335 0.78933
 C950 C 0.85780 0.54629 0.77786
 C951 C 0.85574 0.54833 0.75558
 C952 C 0.86590 0.56654 0.74482
 H953 H 0.93203 0.62004 0.66461
 H954 H 0.90308 0.59828 0.68378
 H955 H 0.91888 0.63473 0.74173
 H956 H 0.94771 0.65679 0.72266
 H957 H 0.88894 0.59415 0.78753
 H958 H 0.87139 0.56188 0.80648
 H959 H 0.84711 0.53526 0.74643
 H960 H 0.86484 0.56719 0.72756
 C961 C 0.68776 0.61487 0.95021
 C962 C 0.69782 0.60074 0.93507
 C963 C 0.71945 0.60552 0.92749
 C964 C 0.73085 0.62502 0.93487
 C965 C 0.72074 0.63936 0.94990
 C966 C 0.69913 0.63433 0.95800
 N967 N 0.72959 0.58981 0.91292
 N968 N 0.74993 0.59161 0.90678
 C969 C 0.75983 0.57508 0.89283
 C970 C 0.78308 0.57567 0.88936
 C971 C 0.79350 0.55837 0.87769
 C972 C 0.78068 0.54042 0.86900
 C973 C 0.75726 0.54034 0.87179
 C974 C 0.74690 0.55750 0.88361
 H975 H 0.67110 0.61038 0.95588
 H976 H 0.68887 0.58575 0.92950
 H977 H 0.74760 0.62908 0.92920
 H978 H 0.73007 0.65416 0.95540
 H979 H 0.79325 0.58906 0.89645
 H980 H 0.81162 0.55853 0.87608
 H981 H 0.74709 0.52657 0.86537
 H982 H 0.72889 0.55667 0.88598
 C983 C 0.30850 0.38572 0.94449
 C984 C 0.29744 0.39983 0.93004
 C985 C 0.27578 0.39440 0.92298
 C986 C 0.26546 0.37414 0.92996
 C987 C 0.27662 0.35976 0.94420
 C988 C 0.29816 0.36558 0.95201
 N989 N 0.26444 0.41028 0.90951
 N990 N 0.24367 0.40849 0.90489
 C991 C 0.23267 0.42524 0.89206
 C992 C 0.20917 0.42510 0.89082
 C993 C 0.19793 0.44264 0.88026
 C994 C 0.21014 0.46034 0.87044
 C995 C 0.23371 0.46001 0.87103
 C996 C 0.24491 0.44265 0.88176
 H997 H 0.32508 0.39081 0.94992
 H998 H 0.30557 0.41540 0.92473
 H999 H 0.24872 0.36956 0.92462
 H1000 H 0.26808 0.34441 0.94951
 H1001 H 0.19954 0.41186 0.89877
 H1002 H 0.17973 0.44280 0.88031
 H1003 H 0.24343 0.47358 0.86367
 H1004 H 0.26308 0.44312 0.88241
 C1005 C 0.25998 0.65114 0.04864
 C1006 C 0.24709 0.63829 0.06308
 C1007 C 0.25554 0.61815 0.07173
 C1008 C 0.27707 0.61093 0.06574
 C1009 C 0.28977 0.62343 0.05104
 C1010 C 0.28141 0.64370 0.04218
 N1011 N 0.24175 0.60462 0.08569
 N1012 N 0.25026 0.58891 0.09699
 C1013 C 0.23717 0.57360 0.10983
 C1014 C 0.24848 0.55839 0.12311
 C1015 C 0.23674 0.54108 0.13365
 C1016 C 0.21343 0.53867 0.13099
 C1017 C 0.20188 0.55443 0.11832
 C1018 C 0.21367 0.57192 0.10786
 H1019 H 0.25290 0.66661 0.04221
 H1020 H 0.23047 0.64399 0.06748
 H1021 H 0.28391 0.59530 0.07204
 H1022 H 0.30617 0.61709 0.04662
 H1023 H 0.26659 0.55943 0.12462
 H1024 H 0.24595 0.52892 0.14316
 H1025 H 0.18395 0.55255 0.11578
 H1026 H 0.20462 0.58338 0.09749
 C1027 C 0.70161 0.37960 0.04978
 C1028 C 0.71374 0.39488 0.06246
 C1029 C 0.73413 0.38855 0.07162
 C1030 C 0.74224 0.36648 0.06829
 C1031 C 0.73044 0.35128 0.05505
 C1032 C 0.71010 0.35779 0.04532
 N1033 N 0.74703 0.40547 0.08269
 N1034 N 0.76151 0.40080 0.09695
 C1035 C 0.77452 0.41880 0.10631
 C1036 C 0.77759 0.41968 0.12849
 C1037 C 0.78796 0.43870 0.13790
 C1038 C 0.79628 0.45659 0.12510
 C1039 C 0.79418 0.45496 0.10277
 C1040 C 0.78316 0.43638 0.09348
 H1041 H 0.68606 0.38537 0.04268
 H1042 H 0.70741 0.41191 0.06489
 H1043 H 0.75811 0.36137 0.07513
 H1044 H 0.73750 0.33465 0.05212
 H1045 H 0.77086 0.40626 0.13854
 H1046 H 0.78884 0.43979 0.15517
 H1047 H 0.80041 0.46849 0.09255
 H1048 H 0.78108 0.43583 0.07628
 C1049 C 0.95577 0.69842 0.60510
 C1050 C 0.94448 0.71247 0.59081
 C1051 C 0.93511 0.73287 0.59776
 C1052 C 0.93721 0.73929 0.61929
 C1053 C 0.94917 0.72559 0.63357
 C1054 C 0.95866 0.70494 0.62663
 N1055 N 0.92450 0.74712 0.58233
 N1056 N 0.90929 0.76132 0.58709
 C1057 C 0.89993 0.77538 0.57076
 C1058 C 0.87686 0.77980 0.57067
 C1059 C 0.86712 0.79109 0.55332
 C1060 C 0.88055 0.79897 0.53630
 C1061 C 0.90386 0.79549 0.53706
 C1062 C 0.91344 0.78360 0.55401
 H1063 H 0.96282 0.68276 0.59902
 H1064 H 0.94300 0.70743 0.57420
 H1065 H 0.93021 0.75516 0.62488
 H1066 H 0.95096 0.73119 0.64999
 H1067 H 0.86626 0.77340 0.58344
 H1068 H 0.84905 0.79302 0.55284
 H1069 H 0.91455 0.80129 0.52410
 H1070 H 0.93134 0.78047 0.55391
 C1071 C 0.94889 0.31229 0.39173
 C1072 C 0.93465 0.30085 0.40591
 C1073 C 0.92298 0.28131 0.39944
 C1074 C 0.92532 0.27342 0.37838
 C1075 C 0.94008 0.28448 0.36427
 C1076 C 0.95237 0.30388 0.37089
 N1077 N 0.91066 0.26869 0.41514
 N1078 N 0.89447 0.25525 0.41060
 C1079 C 0.88425 0.24197 0.42718
 C1080 C 0.86093 0.23851 0.42752
 C1081 C 0.85079 0.22708 0.44473
 C1082 C 0.86403 0.21816 0.46130
 C1083 C 0.88748 0.22091 0.46036
 C1084 C 0.89747 0.23289 0.44360
 H1085 H 0.95793 0.32715 0.39752
 H1086 H 0.93303 0.30698 0.42217
 H1087 H 0.91655 0.25817 0.37318
 H1088 H 0.94216 0.27753 0.34834
 H1089 H 0.85057 0.24549 0.41495
 H1090 H 0.83265 0.22561 0.44535
 H1091 H 0.89804 0.21422 0.47294
 H1092 H 0.91554 0.23520 0.44346
 C1093 C 0.04122 0.26205 0.64746
 C1094 C 0.05465 0.24772 0.63497
 C1095 C 0.06667 0.25641 0.61748
 C1096 C 0.06538 0.27973 0.61279
 C1097 C 0.05180 0.29395 0.62497
 C1098 C 0.03927 0.28532 0.64234
 N1099 N 0.07913 0.24134 0.60396
 N1100 N 0.09201 0.24921 0.58943
 C1101 C 0.10370 0.23534 0.57434
 C1102 C 0.11829 0.24609 0.55992
 C1103 C 0.12822 0.23381 0.54340
 C1104 C 0.12370 0.21049 0.54103
 C1105 C 0.10953 0.19945 0.55580
 C1106 C 0.09961 0.21181 0.57246
 H1107 H 0.03189 0.25473 0.66069
 H1108 H 0.05545 0.22977 0.63875
 H1109 H 0.07443 0.28693 0.59934
 H1110 H 0.05098 0.31173 0.62050
 H1111 H 0.12143 0.26423 0.56114
 H1112 H 0.13896 0.24262 0.53205
 H1113 H 0.10566 0.18151 0.55402
 H1114 H 0.08822 0.20320 0.58334
 C1115 C 0.05650 0.68512 0.38469
 C1116 C 0.07237 0.69463 0.39853
 C1117 C 0.08131 0.71628 0.39465
 C1118 C 0.07491 0.72810 0.37614
 C1119 C 0.05931 0.71841 0.36194
 C1120 C 0.04949 0.69697 0.36630
 N1121 N 0.09604 0.72604 0.41032
 N1122 N 0.10166 0.74698 0.41047
 C1123 C 0.11568 0.75613 0.42708
 C1124 C 0.11723 0.77976 0.42973
 C1125 C 0.12877 0.78902 0.44725
 C1126 C 0.13933 0.77472 0.46209
 C1127 C 0.13843 0.75107 0.45896
 C1128 C 0.12669 0.74184 0.44165
 H1129 H 0.04958 0.66852 0.38859
 H1130 H 0.07724 0.68535 0.41272
 H1131 H 0.08175 0.74486 0.37280
 H1132 H 0.05445 0.72805 0.34796
 H1133 H 0.10872 0.79096 0.41870
 H1134 H 0.12890 0.80729 0.44958
 H1135 H 0.14635 0.73975 0.47029
 H1136 H 0.12582 0.72352 0.43992
 C1137 C 0.63190 0.93114 0.69938
 C1138 C 0.61880 0.91628 0.71166
 C1139 C 0.62040 0.91645 0.73396
 C1140 C 0.63626 0.93081 0.74391
 C1141 C 0.64969 0.94548 0.73159
 C1142 C 0.64713 0.94623 0.70925
 N1143 N 0.60439 0.90334 0.74594
 N1144 N 0.60229 0.90492 0.76614
 C1145 C 0.58482 0.89281 0.77727
 C1146 C 0.58087 0.89767 0.79889
 C1147 C 0.56198 0.88855 0.80929
 C1148 C 0.54701 0.87424 0.79818
 C1149 C 0.55151 0.86859 0.77683
 C1150 C 0.57027 0.87775 0.76644
 H1151 H 0.62967 0.93126 0.68219
 H1152 H 0.60663 0.90529 0.70382
 H1153 H 0.63779 0.93120 0.76116
 H1154 H 0.66124 0.95700 0.73960
 H1155 H 0.59185 0.90935 0.80739
 H1156 H 0.55856 0.89334 0.82569
 H1157 H 0.54000 0.85773 0.76799
 H1158 H 0.57292 0.87370 0.74974
 C1159 C 0.38708 0.95966 0.29918
 C1160 C 0.40160 0.94767 0.28589
 C1161 C 0.39312 0.93293 0.27026
 C1162 C 0.36975 0.93021 0.26799
 C1163 C 0.35511 0.94273 0.28095
 C1164 C 0.36370 0.95761 0.29663
 N1165 N 0.40868 0.92203 0.25625
 N1166 N 0.40413 0.90395 0.24586
 C1167 C 0.42054 0.89456 0.23171
 C1168 C 0.42249 0.87092 0.22974
 C1169 C 0.44024 0.86159 0.21801
 C1170 C 0.45573 0.87586 0.20739
 C1171 C 0.45294 0.89955 0.20851
 C1172 C 0.43566 0.90881 0.22071
 H1173 H 0.39417 0.97121 0.31094
 H1174 H 0.41958 0.94998 0.28767
 H1175 H 0.36290 0.91903 0.25582
 H1176 H 0.33715 0.94095 0.27863
 H1177 H 0.41098 0.85975 0.23822
 H1178 H 0.44233 0.84331 0.21780
 H1179 H 0.46467 0.91090 0.20052
 H1180 H 0.43429 0.92713 0.22188
 C1181 C 0.62427 0.06246 0.30081
 C1182 C 0.61011 0.07709 0.28972
 C1183 C 0.61052 0.07790 0.26739
 C1184 C 0.62605 0.06452 0.25616
 C1185 C 0.64057 0.05007 0.26730
 C1186 C 0.63944 0.04856 0.28972
 N1187 N 0.59420 0.09160 0.25674
 N1188 N 0.59098 0.09110 0.23662
 C1189 C 0.57367 0.10440 0.22687
 C1190 C 0.56840 0.10091 0.20527
 C1191 C 0.55021 0.11215 0.19595
 C1192 C 0.53728 0.12731 0.20809
 C1193 C 0.54293 0.13123 0.22956
 C1194 C 0.56096 0.11991 0.23889
 H1195 H 0.62311 0.06176 0.31808
 H1196 H 0.59824 0.08735 0.29854
 H1197 H 0.62669 0.06493 0.23886
 H1198 H 0.65204 0.03947 0.25836
 H1199 H 0.57794 0.08893 0.19585
 H1200 H 0.54586 0.10863 0.17945
 H1201 H 0.53302 0.14271 0.23922
 H1202 H 0.56465 0.12294 0.25561
 C1203 C 0.35131 0.04928 0.73429
 C1204 C 0.36390 0.06388 0.74748
 C1205 C 0.38126 0.07730 0.73888
 C1206 C 0.38541 0.07652 0.71677
 C1207 C 0.37307 0.06180 0.70367
 C1208 C 0.35618 0.04771 0.71234
 N1209 N 0.39558 0.09018 0.75292
 N1210 N 0.41082 0.10334 0.74556
 C1211 C 0.42680 0.11504 0.75879
 C1212 C 0.44254 0.12943 0.74894
 C1213 C 0.46019 0.13894 0.76071
 C1214 C 0.46231 0.13424 0.78260
 C1215 C 0.44614 0.12041 0.79271
 C1216 C 0.42840 0.11089 0.78089
 H1217 H 0.33845 0.03855 0.74142
 H1218 H 0.36056 0.06424 0.76450
 H1219 H 0.39873 0.08668 0.70968
 H1220 H 0.37712 0.06107 0.68680
 H1221 H 0.44157 0.13260 0.73191
 H1222 H 0.47264 0.14940 0.75263
 H1223 H 0.44773 0.11635 0.80953
 H1224 H 0.41652 0.09966 0.78880
 C1225 C 0.64740 0.73351 0.04716
 C1226 C 0.63474 0.74751 0.06064
 C1227 C 0.61728 0.73832 0.07306
 C1228 C 0.61294 0.71478 0.07218
 C1229 C 0.62534 0.70086 0.05854
 C1230 C 0.64249 0.71010 0.04566
 N1231 N 0.60322 0.75320 0.08527
 N1232 N 0.58847 0.74531 0.09811
 C1233 C 0.57284 0.75930 0.10940
 C1234 C 0.55804 0.74882 0.12381
 C1235 C 0.54072 0.76116 0.13322
 C1236 C 0.53793 0.78427 0.12838
 C1237 C 0.55318 0.79505 0.11445
 C1238 C 0.57063 0.78266 0.10505
 H1239 H 0.66043 0.74112 0.03734
 H1240 H 0.63822 0.76562 0.06108
 H1241 H 0.59951 0.70721 0.08153
 H1242 H 0.62121 0.68289 0.05781
 H1243 H 0.55947 0.73082 0.12717
 H1244 H 0.52896 0.75251 0.14373
 H1245 H 0.55104 0.81278 0.11025
 H1246 H 0.58176 0.79107 0.09381
 C1247 C 0.35071 0.26966 0.04332
 C1248 C 0.36259 0.25609 0.05772
 C1249 C 0.38012 0.26540 0.06990
 C1250 C 0.38545 0.28865 0.06776
 C1251 C 0.37378 0.30217 0.05320
 C1252 C 0.35643 0.29277 0.04066
 N1253 N 0.39319 0.25073 0.08322
 N1254 N 0.40797 0.25861 0.09600
 C1255 C 0.42251 0.24436 0.10824
 C1256 C 0.43796 0.25470 0.12211
 C1257 C 0.45450 0.24181 0.13210
 C1258 C 0.45578 0.21831 0.12840
 C1259 C 0.43972 0.20769 0.11523
 C1260 C 0.42310 0.22063 0.10524
 H1261 H 0.33749 0.26190 0.03384
 H1262 H 0.35838 0.23819 0.05912
 H1263 H 0.39903 0.29625 0.07690
 H1264 H 0.37854 0.31992 0.05157
 H1265 H 0.43776 0.27295 0.12445
 H1266 H 0.46695 0.25031 0.14198
 H1267 H 0.44073 0.18964 0.11192
 H1268 H 0.41140 0.21228 0.09448
 C1269 C 0.65526 0.26137 0.95437
 C1270 C 0.64215 0.24811 0.94043
 C1271 C 0.62548 0.25818 0.92790
 C1272 C 0.62243 0.28184 0.92906
 C1273 C 0.63526 0.29502 0.94315
 C1274 C 0.65157 0.28490 0.95619
 N1275 N 0.61081 0.24408 0.91527
 N1276 N 0.59677 0.25277 0.90237
 C1277 C 0.58054 0.23965 0.89066
 C1278 C 0.56685 0.25094 0.87601
 C1279 C 0.54910 0.23949 0.86601
 C1280 C 0.54476 0.21650 0.87054
 C1281 C 0.55882 0.20490 0.88480
 C1282 C 0.57672 0.21639 0.89476
 H1283 H 0.66762 0.25309 0.96431
 H1284 H 0.64463 0.22989 0.93976
 H1285 H 0.60963 0.29008 0.91961
 H1286 H 0.63210 0.31311 0.94414
 H1287 H 0.56953 0.26888 0.87285
 H1288 H 0.53827 0.24875 0.85522
 H1289 H 0.55547 0.18724 0.88871
 H1290 H 0.58698 0.20739 0.90620
 C1291 C 0.36941 0.69806 0.94524
 C1292 C 0.38344 0.70969 0.93099
 C1293 C 0.38149 0.73319 0.92826
 C1294 C 0.36474 0.74497 0.93947
 C1295 C 0.35043 0.73327 0.95356
 C1296 C 0.35291 0.70975 0.95685
 N1297 N 0.39751 0.74459 0.91486
 N1298 N 0.39902 0.76615 0.91336
 C1299 C 0.41623 0.77665 0.90058
 C1300 C 0.42032 0.80009 0.90252
 C1301 C 0.43896 0.81014 0.89244
 C1302 C 0.45349 0.79683 0.88005
 C1303 C 0.44875 0.77360 0.87728
 C1304 C 0.43029 0.76357 0.88742
 H1305 H 0.37163 0.67992 0.94730
 H1306 H 0.39629 0.70045 0.92244
 H1307 H 0.36294 0.76317 0.93758
 H1308 H 0.33787 0.74271 0.96232
 H1309 H 0.40968 0.81035 0.91265
 H1310 H 0.44258 0.82802 0.89502
 H1311 H 0.45992 0.76306 0.86793
 H1312 H 0.42747 0.74545 0.88557
 C1313 C 0.69484 0.94368 0.37082
 C1314 C 0.70652 0.92999 0.38515
 C1315 C 0.72997 0.92910 0.38455
 C1316 C 0.74169 0.94136 0.36870
 C1317 C 0.72996 0.95493 0.35412
 C1318 C 0.70644 0.95663 0.35539
 N1319 N 0.74126 0.91677 0.40104
 N1320 N 0.76254 0.91650 0.40303
 C1321 C 0.77306 0.90492 0.42051
 C1322 C 0.79647 0.90613 0.42274
 C1323 C 0.80696 0.89651 0.44058
 C1324 C 0.79413 0.88541 0.45635
 C1325 C 0.77073 0.88384 0.45393
 C1326 C 0.76027 0.89345 0.43615
 H1327 H 0.67672 0.94452 0.37213
 H1328 H 0.69731 0.92061 0.39727
 H1329 H 0.75985 0.94089 0.36793
 H1330 H 0.73934 0.96479 0.34246
 H1331 H 0.80652 0.91502 0.41091
 H1332 H 0.82501 0.89814 0.44233
 H1333 H 0.76056 0.87547 0.46601
 H1334 H 0.74215 0.89231 0.43487
 C1335 C 0.31542 0.94033 0.62499
 C1336 C 0.30592 0.92449 0.61094
 C1337 C 0.28289 0.91960 0.61165
 C1338 C 0.26946 0.93023 0.62714
 C1339 C 0.27900 0.94591 0.64143
 C1340 C 0.30203 0.95139 0.64026
 N1341 N 0.27359 0.90459 0.59586
 N1342 N 0.25254 0.90145 0.59357
 C1343 C 0.24372 0.88703 0.57703
 C1344 C 0.22060 0.88705 0.57288
 C1345 C 0.21182 0.87483 0.55552
 C1346 C 0.22608 0.86209 0.54230
 C1347 C 0.24915 0.86153 0.54688
 C1348 C 0.25793 0.87389 0.56408
 H1349 H 0.33322 0.94410 0.62376
 H1350 H 0.31643 0.91639 0.59907
 H1351 H 0.25160 0.92667 0.62801
 H1352 H 0.26827 0.95419 0.65300
 H1353 H 0.20949 0.89719 0.58265
 H1354 H 0.19404 0.87583 0.55202
 H1355 H 0.26044 0.85194 0.53678
 H1356 H 0.27586 0.87355 0.56696
 C1357 C 0.26633 0.04626 0.35739
 C1358 C 0.25274 0.05965 0.37054
 C1359 C 0.26192 0.07097 0.38825
 C1360 C 0.28503 0.06908 0.39246
 C1361 C 0.29855 0.05549 0.37951
 C1362 C 0.28931 0.04373 0.36198
 N1363 N 0.24736 0.08315 0.40240
 N1364 N 0.25519 0.09552 0.41741
 C1365 C 0.24122 0.10669 0.43275
 C1366 C 0.25139 0.12134 0.44757
 C1367 C 0.23882 0.13086 0.46410
 C1368 C 0.21581 0.12582 0.46610
 C1369 C 0.20544 0.11149 0.45099
 C1370 C 0.21804 0.10207 0.43431
 H1371 H 0.25871 0.03732 0.34406
 H1372 H 0.23496 0.06088 0.36716
 H1373 H 0.29253 0.07758 0.40610
 H1374 H 0.31620 0.05392 0.38342
 H1375 H 0.26925 0.12490 0.44662
 H1376 H 0.24715 0.14169 0.47572
 H1377 H 0.18779 0.10711 0.45251
 H1378 H 0.20987 0.09061 0.42313
 C1379 C 0.71702 0.06172 0.65096
 C1380 C 0.72881 0.07722 0.63805
 C1381 C 0.72862 0.07475 0.61578
 C1382 C 0.71555 0.05738 0.60646
 C1383 C 0.70325 0.04236 0.61927
 C1384 C 0.70424 0.04409 0.64163
 N1385 N 0.74219 0.08942 0.60274
 N1386 N 0.75091 0.08174 0.58565
 C1387 C 0.76360 0.09541 0.57102
 C1388 C 0.77726 0.08441 0.55615
 C1389 C 0.78801 0.09674 0.54004
 C1390 C 0.78491 0.12032 0.53828
 C1391 C 0.77160 0.13152 0.55351
 C1392 C 0.76118 0.11916 0.56998
 H1393 H 0.71797 0.06339 0.66819
 H1394 H 0.73877 0.09060 0.64541
 H1395 H 0.71500 0.05537 0.58925
 H1396 H 0.69362 0.02885 0.61170
 H1397 H 0.77911 0.06611 0.55675
 H1398 H 0.79805 0.08774 0.52837
 H1399 H 0.76860 0.14961 0.55215
 H1400 H 0.75041 0.12791 0.58119
 C1401 C 0.93542 0.63186 0.30793
 C1402 C 0.91987 0.61917 0.29615
 C1403 C 0.92040 0.61946 0.27382
 C1404 C 0.93596 0.63370 0.26325
 C1405 C 0.95144 0.64670 0.27508
 C1406 C 0.95171 0.64533 0.29753
 N1407 N 0.90638 0.60357 0.26257
 N1408 N 0.90701 0.60093 0.24238
 C1409 C 0.89403 0.58340 0.23211
 C1410 C 0.89637 0.58003 0.21004
 C1411 C 0.88620 0.56123 0.20012
 C1412 C 0.87346 0.54563 0.21219
 C1413 C 0.87042 0.54947 0.23413
 C1414 C 0.88053 0.56824 0.24402
 H1415 H 0.93512 0.63061 0.32521
 H1416 H 0.90797 0.60826 0.30444
 H1417 H 0.93666 0.63416 0.24596
 H1418 H 0.96386 0.65690 0.26669
 H1419 H 0.90682 0.59147 0.20070
 H1420 H 0.88896 0.55834 0.18321
 H1421 H 0.86077 0.53752 0.24369
 H1422 H 0.87847 0.57040 0.26110
 C1423 C 0.96033 0.39028 0.69943
 C1424 C 0.94798 0.40585 0.71135
 C1425 C 0.93159 0.39833 0.72578
 C1426 C 0.92762 0.37486 0.72824
 C1427 C 0.94035 0.35916 0.71660
 C1428 C 0.95685 0.36676 0.70208
 N1429 N 0.91990 0.41498 0.73811
 N1430 N 0.90180 0.41076 0.74827
 C1431 C 0.89118 0.42819 0.76060
 C1432 C 0.86811 0.42669 0.76489
 C1433 C 0.85716 0.44451 0.77537
 C1434 C 0.86934 0.46375 0.78234
 C1435 C 0.89261 0.46478 0.77870
 C1436 C 0.90342 0.44726 0.76783
 H1437 H 0.97306 0.39666 0.68853
 H1438 H 0.95123 0.42389 0.70939
 H1439 H 0.91509 0.36871 0.73944
 H1440 H 0.93736 0.34114 0.71898
 H1441 H 0.85847 0.41212 0.75936
 H1442 H 0.83913 0.44355 0.77760
 H1443 H 0.90234 0.47945 0.78387
 H1444 H 0.92130 0.44870 0.76489
 C1445 C 0.02810 0.60534 0.70069
 C1446 C 0.03979 0.59089 0.71431
 C1447 C 0.05584 0.59963 0.72848
 C1448 C 0.05988 0.62323 0.72920
 C1449 C 0.04771 0.63784 0.71590
 C1450 C 0.03185 0.62896 0.70140
 N1451 N 0.06748 0.58405 0.74198
 N1452 N 0.08589 0.58889 0.75136
 C1453 C 0.09665 0.57235 0.76460
 C1454 C 0.11997 0.57343 0.76755
 C1455 C 0.13106 0.55595 0.77836
 C1456 C 0.11882 0.53756 0.78700
 C1457 C 0.09534 0.53710 0.78485
 C1458 C 0.08436 0.55425 0.77365
 H1459 H 0.01581 0.59806 0.68983
 H1460 H 0.03650 0.57274 0.71370
 H1461 H 0.07214 0.63032 0.74018
 H1462 H 0.05087 0.65600 0.71675
 H1463 H 0.12965 0.58724 0.76057
 H1464 H 0.14923 0.55640 0.77940
 H1465 H 0.08557 0.52303 0.79127
 H1466 H 0.06630 0.55316 0.77173
 C1467 C 0.06425 0.37197 0.31135
 C1468 C 0.07970 0.38429 0.29911
 C1469 C 0.07938 0.38277 0.27681
 C1470 C 0.06418 0.36772 0.26680
 C1471 C 0.04891 0.35503 0.27910
 C1472 C 0.04842 0.35757 0.30145
 N1473 N 0.09340 0.39807 0.26491
 N1474 N 0.09191 0.40051 0.24474
 C1475 C 0.10515 0.41731 0.23377
 C1476 C 0.10065 0.42193 0.21222
 C1477 C 0.11127 0.44026 0.20195
 C1478 C 0.12671 0.45398 0.21313
 C1479 C 0.13185 0.44883 0.23445
 C1480 C 0.12121 0.43063 0.24470
 H1481 H 0.06433 0.37412 0.32856
 H1482 H 0.09134 0.39584 0.30697
 H1483 H 0.06369 0.36627 0.24955
 H1484 H 0.03682 0.34408 0.27110
 H1485 H 0.08822 0.41190 0.20366
 H1486 H 0.10692 0.44422 0.18557
 H1487 H 0.14361 0.45937 0.24332
 H1488 H 0.12500 0.42744 0.26135
   
