data_POSCAR
  _audit_creation_date              2014-09-24
  _audit_creation_method            'ToBaCCo'
  _symmetry_space_group_name_H-M    'P1'
  _symmetry_Int_Tables_number       1
  _symmetry_cell_setting            triclinic
  loop_
  _symmetry_equiv_pos_as_xyz
 x,y,z
_cell_length_a 45.3490
_cell_length_b 47.1956
_cell_length_c 55.0129
_cell_angle_alpha 89.962200
_cell_angle_beta 89.998300
_cell_angle_gamma 89.934000
loop_
  _atom_site_label
  _atom_site_type_symbol
  _atom_site_fract_x
  _atom_site_fract_y
  _atom_site_fract_z
Zr1 Zr 0.24540 0.24901 0.29139
 O2 O 0.27151 0.26789 0.31887
 O3 O 0.21356 0.22732 0.31212
 O4 O 0.22140 0.27978 0.31126
 O5 O 0.29253 0.19224 0.28222
 O6 O 0.20192 0.30818 0.28182
 O7 O 0.26973 0.21879 0.31135
 O8 O 0.18245 0.20971 0.28333
 O9 O 0.20703 0.25577 0.27107
 O10 O 0.23911 0.21231 0.27076
 O11 O 0.25389 0.28545 0.27042
 O12 O 0.28437 0.24397 0.27065
 Zr13 Zr 0.24647 0.24993 0.20651
 Zr14 Zr 0.21623 0.29073 0.24892
 Zr15 Zr 0.27647 0.20826 0.24888
 Zr16 Zr 0.20187 0.21966 0.24964
 O17 O 0.32290 0.20393 0.24761
 O18 O 0.15757 0.23408 0.24874
 O19 O 0.23868 0.21295 0.22713
 O20 O 0.20807 0.25510 0.22736
 O21 O 0.25334 0.28685 0.22671
 O22 O 0.28487 0.24333 0.22684
 C23 C 0.19022 0.21381 0.30554
 C24 C 0.28730 0.19879 0.30458
 C25 C 0.20619 0.30138 0.30416
 O26 O 0.16984 0.29507 0.24709
 O27 O 0.20543 0.31051 0.21592
 O28 O 0.22467 0.28194 0.18653
 C29 C 0.21034 0.30407 0.19356
 O30 O 0.31370 0.29129 0.27988
 Zr31 Zr 0.29060 0.27935 0.24788
 O32 O 0.27712 0.27213 0.18548
 O33 O 0.22788 0.33410 0.25085
 O34 O 0.29151 0.32425 0.24897
 O35 O 0.33524 0.26623 0.24537
 O36 O 0.30623 0.29374 0.21370
 C37 C 0.29822 0.28881 0.19158
 O38 O 0.21882 0.23227 0.17947
 O39 O 0.26500 0.16484 0.25015
 O40 O 0.26814 0.21815 0.18647
 O41 O 0.28773 0.18912 0.21549
 O42 O 0.19908 0.17488 0.25184
 O43 O 0.18274 0.20338 0.21727
 C44 C 0.28298 0.19621 0.19318
 H45 H 0.23648 0.19515 0.28087
 H46 H 0.19058 0.25785 0.21685
 H47 H 0.30251 0.24016 0.21659
 H48 H 0.25739 0.30210 0.28096
 H49 H 0.14478 0.21782 0.25304
 H50 H 0.16554 0.31565 0.24768
 H51 H 0.20931 0.34515 0.24990
 H52 H 0.31159 0.33031 0.24414
 H53 H 0.17835 0.17003 0.25573
 H54 H 0.28376 0.15408 0.25065
 H55 H 0.32719 0.18334 0.24712
 H56 H 0.34701 0.28307 0.24073
 H57 H 0.16403 0.19361 0.22125
 H58 H 0.22698 0.23793 0.16345
 H59 H 0.26306 0.26211 0.33476
 H60 H 0.32985 0.30447 0.27556
 Zr61 Zr 0.75510 0.74973 0.29218
 O62 O 0.73454 0.72597 0.32009
 O63 O 0.78403 0.77563 0.31226
 O64 O 0.78528 0.72285 0.31029
 O65 O 0.69709 0.79660 0.28575
 O66 O 0.80874 0.69957 0.27953
 O67 O 0.72636 0.77474 0.31380
 O68 O 0.80961 0.79897 0.28275
 O69 O 0.79285 0.75043 0.27022
 O70 O 0.75317 0.78748 0.27237
 O71 O 0.75274 0.71300 0.27044
 O72 O 0.71481 0.74815 0.27288
 Zr73 Zr 0.74918 0.75106 0.20725
 Zr74 Zr 0.78946 0.71508 0.24741
 Zr75 Zr 0.71458 0.78521 0.25185
 Zr76 Zr 0.78982 0.78744 0.24964
 O77 O 0.66806 0.78147 0.25194
 O78 O 0.83599 0.78141 0.24622
 O79 O 0.75113 0.78813 0.22861
 O80 O 0.78913 0.75222 0.22660
 O81 O 0.75094 0.71290 0.22663
 O82 O 0.71159 0.74997 0.22921
 C83 C 0.80443 0.79269 0.30510
 C84 C 0.70450 0.79085 0.30778
 C85 C 0.80414 0.70466 0.30221
 O86 O 0.83571 0.71932 0.24405
 O87 O 0.80227 0.69898 0.21326
 O88 O 0.77574 0.72445 0.18562
 C89 C 0.79480 0.70530 0.19131
 O90 O 0.69610 0.69561 0.28178
 Zr91 Zr 0.71425 0.71293 0.24940
 O92 O 0.72202 0.72433 0.18680
 O93 O 0.78659 0.67034 0.24835
 O94 O 0.72235 0.66868 0.24876
 O95 O 0.66777 0.71796 0.24945
 O96 O 0.69890 0.69750 0.21553
 C97 C 0.70438 0.70442 0.19329
 O98 O 0.77107 0.77425 0.17968
 O99 O 0.71767 0.82985 0.25432
 O100 O 0.72025 0.77898 0.18898
 O101 O 0.69813 0.80337 0.21976
 O102 O 0.78407 0.83182 0.25350
 O103 O 0.80321 0.80813 0.21714
 C104 C 0.70225 0.79791 0.19709
 H105 H 0.75307 0.80446 0.28292
 H106 H 0.80620 0.75306 0.21540
 H107 H 0.69299 0.75033 0.21979
 H108 H 0.75310 0.69566 0.28058
 H109 H 0.84568 0.79956 0.25046
 H110 H 0.84397 0.69987 0.24388
 H111 H 0.80693 0.66294 0.24650
 H112 H 0.70356 0.65921 0.24449
 H113 H 0.80372 0.84011 0.25688
 H114 H 0.69724 0.83713 0.25574
 H115 H 0.65990 0.80096 0.25226
 H116 H 0.65904 0.69951 0.24475
 H117 H 0.81962 0.82130 0.22075
 H118 H 0.76303 0.76778 0.16385
 H119 H 0.74267 0.73272 0.33580
 H120 H 0.68272 0.67977 0.27760
 Zr121 Zr 0.75382 0.24663 -0.29133
 O122 O 0.73138 0.26788 -0.31979
 O123 O 0.78385 0.22117 -0.31057
 O124 O 0.78251 0.27274 -0.31110
 O125 O 0.69948 0.19646 -0.28327
 O126 O 0.80491 0.29969 -0.28216
 O127 O 0.72748 0.21891 -0.31177
 O128 O 0.81109 0.20072 -0.28048
 O129 O 0.79182 0.24916 -0.26995
 O130 O 0.75439 0.21007 -0.27002
 O131 O 0.74940 0.28458 -0.27160
 O132 O 0.71351 0.24730 -0.27213
 Zr133 Zr 0.74887 0.25018 -0.20674
 Zr134 Zr 0.78649 0.28574 -0.24906
 Zr135 Zr 0.71573 0.21152 -0.24966
 Zr136 Zr 0.79118 0.21343 -0.24766
 O137 O 0.66909 0.21314 -0.25006
 O138 O 0.83696 0.22206 -0.24505
 O139 O 0.75262 0.21200 -0.22650
 O140 O 0.78865 0.25007 -0.22638
 O141 O 0.74815 0.28704 -0.22796
 O142 O 0.71103 0.24792 -0.22845
 C143 C 0.80520 0.20546 -0.30301
 C144 C 0.70709 0.20148 -0.30546
 C145 C 0.80055 0.29219 -0.30438
 O146 O 0.83289 0.28425 -0.24531
 O147 O 0.79767 0.30534 -0.21616
 O148 O 0.77373 0.28025 -0.18671
 C149 C 0.79082 0.30049 -0.19385
 O150 O 0.69146 0.29792 -0.28307
 Zr151 Zr 0.71118 0.28383 -0.25016
 O152 O 0.72057 0.27655 -0.18722
 O153 O 0.78115 0.33011 -0.25269
 O154 O 0.71672 0.32840 -0.25180
 O155 O 0.66503 0.27669 -0.24913
 O156 O 0.69576 0.30078 -0.21673
 C157 C 0.70206 0.29543 -0.19429
 O158 O 0.77255 0.22995 -0.17846
 O159 O 0.72119 0.16699 -0.24970
 O160 O 0.72141 0.22195 -0.18703
 O161 O 0.70040 0.19490 -0.21671
 O162 O 0.78824 0.16862 -0.24927
 O163 O 0.80601 0.19574 -0.21429
 C164 C 0.70417 0.20189 -0.19432
 H165 H 0.75532 0.19245 -0.27975
 H166 H 0.80581 0.25099 -0.21529
 H167 H 0.69257 0.24728 -0.21886
 H168 H 0.74872 0.30114 -0.28264
 H169 H 0.84763 0.20420 -0.24860
 H170 H 0.83997 0.30407 -0.24640
 H171 H 0.80105 0.33864 -0.25144
 H172 H 0.69748 0.33716 -0.24770
 H173 H 0.80837 0.16125 -0.25237
 H174 H 0.70118 0.15867 -0.25079
 H175 H 0.66201 0.19329 -0.24955
 H176 H 0.65546 0.29502 -0.24522
 H177 H 0.82331 0.18342 -0.21734
 H178 H 0.76433 0.23707 -0.16291
 H179 H 0.73959 0.26083 -0.33538
 H180 H 0.67734 0.31339 -0.27950
 Zr181 Zr 0.24497 0.75591 -0.29186
 O182 O 0.26699 0.73492 -0.32066
 O183 O 0.21563 0.78259 -0.31074
 O184 O 0.21587 0.73058 -0.31209
 O185 O 0.30063 0.80452 -0.28304
 O186 O 0.19289 0.70356 -0.28348
 O187 O 0.27206 0.78353 -0.31180
 O188 O 0.18901 0.80296 -0.28041
 O189 O 0.20683 0.75392 -0.27061
 O190 O 0.24538 0.79202 -0.27001
 O191 O 0.24837 0.71752 -0.27259
 O192 O 0.28519 0.75375 -0.27256
 Zr193 Zr 0.24944 0.75046 -0.20719
 Zr194 Zr 0.21118 0.71683 -0.25019
 Zr195 Zr 0.28392 0.78911 -0.24961
 Zr196 Zr 0.20846 0.78913 -0.24777
 O197 O 0.33049 0.78622 -0.25005
 O198 O 0.16243 0.78171 -0.24534
 O199 O 0.24694 0.78910 -0.22650
 O200 O 0.20984 0.75204 -0.22701
 O201 O 0.24929 0.71403 -0.22892
 O202 O 0.28745 0.75222 -0.22879
 C203 C 0.19467 0.79878 -0.30309
 C204 C 0.29299 0.80040 -0.30540
 C205 C 0.19760 0.71117 -0.30563
 O206 O 0.16478 0.71946 -0.24691
 O207 O 0.19897 0.69716 -0.21762
 O208 O 0.22315 0.72085 -0.18766
 C209 C 0.20525 0.70131 -0.19507
 O210 O 0.30598 0.70271 -0.28398
 Zr211 Zr 0.28645 0.71679 -0.25099
 O212 O 0.27683 0.72288 -0.18798
 O213 O 0.21537 0.67239 -0.25407
 O214 O 0.27966 0.67242 -0.25323
 O215 O 0.33276 0.72287 -0.24978
 O216 O 0.30130 0.69881 -0.21775
 C217 C 0.29497 0.70379 -0.19526
 O218 O 0.22640 0.77077 -0.17863
 O219 O 0.27974 0.83376 -0.24892
 O220 O 0.27762 0.77770 -0.18707
 O221 O 0.29975 0.80456 -0.21639
 O222 O 0.21265 0.83387 -0.24878
 O223 O 0.19405 0.80656 -0.21419
 C224 C 0.29561 0.79732 -0.19410
 H225 H 0.24496 0.80986 -0.27948
 H226 H 0.19255 0.75137 -0.21603
 H227 H 0.30587 0.75217 -0.21916
 H228 H 0.24871 0.70114 -0.28382
 H229 H 0.15230 0.79992 -0.24866
 H230 H 0.15717 0.69984 -0.24814
 H231 H 0.19524 0.66432 -0.25302
 H232 H 0.29860 0.66307 -0.24915
 H233 H 0.19275 0.84182 -0.25183
 H234 H 0.29997 0.84157 -0.24997
 H235 H 0.33815 0.80586 -0.24930
 H236 H 0.34187 0.70428 -0.24600
 H237 H 0.17713 0.81939 -0.21709
 H238 H 0.23435 0.76306 -0.16318
 H239 H 0.25896 0.74253 -0.33614
 H240 H 0.31971 0.68689 -0.28050
 Zr241 Zr 1.25318 1.25525 0.79005
 O242 O 1.22608 1.23718 0.81730
 O243 O 1.28410 1.27792 0.81090
 O244 O 1.27669 1.22610 0.81177
 O245 O 1.20630 1.31114 0.77742
 O246 O 1.29935 1.19730 0.78424
 O247 O 1.22747 1.28599 0.80822
 O248 O 1.31625 1.29447 0.78238
 O249 O 1.29251 1.24829 0.77105
 O250 O 1.25999 1.29107 0.76843
 O251 O 1.24644 1.21766 0.77020
 O252 O 1.21512 1.25870 0.76806
 Zr253 Zr 1.25554 1.25052 0.70518
 Zr254 Zr 1.28513 1.21215 0.75001
 Zr255 Zr 1.22363 1.29349 0.74538
 Zr256 Zr 1.29809 1.28340 0.74852
 O257 O 1.17726 1.29694 0.74226
 O258 O 1.34266 1.26973 0.74896
 O259 O 1.26220 1.28841 0.72477
 O260 O 1.29319 1.24698 0.72735
 O261 O 1.24884 1.21434 0.72654
 O262 O 1.21639 1.25741 0.72432
 C263 C 1.30778 1.29101 0.80451
 C264 C 1.21046 1.30576 0.80011
 C265 C 1.29375 1.20525 0.80617
 O266 O 1.33164 1.20844 0.74967
 O267 O 1.29878 1.19194 0.71790
 O268 O 1.27930 1.21836 0.68709
 C269 C 1.29488 1.19754 0.69521
 O270 O 1.18659 1.21119 0.77824
 Zr271 Zr 1.21058 1.22215 0.74641
 O272 O 1.22609 1.22669 0.68418
 O273 O 1.27406 1.16876 0.75306
 O274 O 1.21052 1.17731 0.74883
 O275 O 1.16578 1.23426 0.74246
 O276 O 1.19618 1.20617 0.71243
 C277 C 1.20485 1.21017 0.69035
 O278 O 1.28364 1.26747 0.67809
 O279 O 1.23410 1.33719 0.74591
 O280 O 1.23386 1.28124 0.68350
 O281 O 1.21494 1.31200 0.71144
 O282 O 1.29987 1.32829 0.74957
 O283 O 1.31825 1.29880 0.71624
 C284 C 1.22001 1.30412 0.68945
 H285 H 1.26202 1.30867 0.77807
 H286 H 1.31121 1.24427 0.71746
 H287 H 1.19915 1.26001 0.71350
 H288 H 1.24292 1.20143 0.78124
 H289 H 1.35502 1.28635 0.75310
 H290 H 1.33629 1.18800 0.75129
 H291 H 1.29290 1.15810 0.75322
 H292 H 1.19071 1.17068 0.74380
 H293 H 1.32026 1.33365 0.75413
 H294 H 1.21518 1.34770 0.74533
 H295 H 1.17268 1.31741 0.74089
 H296 H 1.15446 1.21698 0.73832
 H297 H 1.33634 1.30945 0.72047
 H298 H 1.27606 1.26093 0.66213
 H299 H 1.23359 1.24385 0.83325
 H300 H 1.17102 1.19734 0.77403
 Zr301 Zr 0.74412 0.74810 0.79202
 O302 O 0.76486 0.77131 0.82017
 O303 O 0.71640 0.72068 0.81176
 O304 O 0.71355 0.77281 0.81186
 O305 O 0.80252 0.70187 0.78336
 O306 O 0.68759 0.79585 0.78238
 O307 O 0.77398 0.72326 0.81218
 O308 O 0.69096 0.69772 0.78198
 O309 O 0.70584 0.74687 0.77088
 O310 O 0.74680 0.71128 0.77098
 O311 O 0.74456 0.78589 0.77170
 O312 O 0.78384 0.75164 0.77209
 Zr313 Zr 0.74749 0.75112 0.70718
 Zr314 Zr 0.70723 0.78338 0.74951
 Zr315 Zr 0.78475 0.71551 0.74983
 Zr316 Zr 0.70963 0.71104 0.74894
 O317 O 0.83104 0.72104 0.74945
 O318 O 0.66317 0.71532 0.74631
 O319 O 0.74759 0.71288 0.72718
 O320 O 0.70832 0.74739 0.72732
 O321 O 0.74496 0.78817 0.72796
 O322 O 0.78575 0.75204 0.72841
 C323 C 0.69626 0.70347 0.80441
 C324 C 0.79532 0.70692 0.80563
 C325 C 0.69300 0.78980 0.80475
 O326 O 0.66102 0.77782 0.74705
 O327 O 0.69168 0.79972 0.71657
 O328 O 0.71880 0.77775 0.68720
 C329 C 0.69828 0.79480 0.69426
 O330 O 0.80077 0.80421 0.78263
 Zr331 Zr 0.78244 0.78803 0.74991
 O332 O 0.77329 0.77959 0.68717
 O333 O 0.70871 0.82810 0.75188
 O334 O 0.77295 0.83202 0.75081
 O335 O 0.82907 0.78462 0.74901
 O336 O 0.79666 0.80543 0.71636
 C337 C 0.79080 0.79946 0.69399
 O338 O 0.72565 0.72885 0.67905
 O339 O 0.78342 0.67070 0.75050
 O340 O 0.77641 0.72490 0.68735
 O341 O 0.80015 0.69906 0.71649
 O342 O 0.71724 0.66678 0.75141
 O343 O 0.69631 0.69137 0.71598
 C344 C 0.79471 0.70553 0.69414
 H345 H 0.74759 0.69384 0.78097
 H346 H 0.69091 0.74635 0.71650
 H347 H 0.80402 0.75264 0.71858
 H348 H 0.74375 0.80267 0.78247
 H349 H 0.65437 0.69660 0.75006
 H350 H 0.65196 0.79692 0.74794
 H351 H 0.68805 0.83488 0.75093
 H352 H 0.79136 0.84221 0.74664
 H353 H 0.69804 0.65767 0.75499
 H354 H 0.80414 0.66405 0.75118
 H355 H 0.83984 0.70183 0.74873
 H356 H 0.83701 0.80364 0.74509
 H357 H 0.68082 0.67715 0.71944
 H358 H 0.73296 0.73652 0.66336
 H359 H 0.75747 0.76372 0.83587
 H360 H 0.81329 0.82082 0.77888
 Zr361 Zr 1.25175 0.74709 0.20864
 O362 O 1.22669 0.76844 0.18173
 O363 O 1.28170 0.72363 0.18731
 O364 O 1.27728 0.77569 0.18841
 O365 O 1.20034 0.69414 0.21763
 O366 O 1.30124 0.80169 0.21713
 O367 O 1.22450 0.71982 0.18873
 O368 O 1.31191 0.70363 0.21567
 O369 O 1.29098 0.75024 0.22836
 O370 O 1.25536 0.70966 0.22868
 O371 O 1.24702 0.78393 0.22976
 O372 O 1.21289 0.74505 0.22971
 Zr373 Zr 1.25222 0.74713 0.29357
 Zr374 Zr 1.28550 0.78567 0.25057
 Zr375 Zr 1.21821 0.70850 0.25093
 Zr376 Zr 1.29331 0.71366 0.24956
 O377 O 1.17165 0.70808 0.25331
 O378 O 1.33885 0.72379 0.25077
 O379 O 1.25648 0.70995 0.27243
 O380 O 1.29051 0.74922 0.27199
 O381 O 1.24860 0.78475 0.27351
 O382 O 1.21318 0.74382 0.27348
 C383 C 1.30442 0.70891 0.19358
 C384 C 1.20561 0.70106 0.19536
 C385 C 1.29530 0.79528 0.19489
 O386 O 1.33215 0.78603 0.25146
 O387 O 1.29989 0.80310 0.28342
 O388 O 1.27849 0.77648 0.31317
 C389 C 1.29565 0.79658 0.30584
 O390 O 1.18809 0.79495 0.22112
 Zr391 Zr 1.21037 0.78054 0.25280
 O392 O 1.22383 0.77176 0.31502
 O393 O 1.27767 0.82985 0.24932
 O394 O 1.21353 0.82536 0.25241
 O395 O 1.16474 0.77120 0.25542
 O396 O 1.19596 0.79536 0.28709
 C397 C 1.20370 0.78971 0.30912
 O398 O 1.27813 0.72702 0.32057
 O399 O 1.22557 0.66429 0.24862
 O400 O 1.22809 0.71636 0.31345
 O401 O 1.20739 0.68881 0.28393
 O402 O 1.29185 0.66889 0.24641
 O403 O 1.31099 0.69511 0.28163
 C404 C 1.21270 0.69487 0.30631
 H405 H 1.25640 0.69259 0.21826
 H406 H 1.30847 0.75013 0.28218
 H407 H 1.19553 0.74177 0.28392
 H408 H 1.24485 0.80093 0.21935
 H409 H 1.34998 0.70647 0.24629
 H410 H 1.33834 0.80615 0.25069
 H411 H 1.29722 0.83919 0.24972
 H412 H 1.19409 0.83303 0.25737
 H413 H 1.31194 0.66241 0.24202
 H414 H 1.20592 0.65513 0.24831
 H415 H 1.16560 0.68791 0.25357
 H416 H 1.15447 0.78895 0.26003
 H417 H 1.32812 0.68307 0.27736
 H418 H 1.27047 0.73329 0.33659
 H419 H 1.23410 0.76229 0.16559
 H420 H 1.17348 0.80963 0.22568
 Zr421 Zr 0.74791 1.25424 0.20812
 O422 O 0.77305 1.23354 0.18092
 O423 O 0.71753 1.27764 0.18714
 O424 O 0.72255 1.22566 0.18771
 O425 O 0.79889 1.30750 0.21742
 O426 O 0.69901 1.19909 0.21631
 O427 O 0.77476 1.28207 0.18837
 O428 O 0.68725 1.29691 0.21579
 O429 O 0.70884 1.25039 0.22797
 O430 O 0.74398 1.29135 0.22852
 O431 O 0.75323 1.21717 0.22888
 O432 O 0.78685 1.25642 0.22910
 Zr433 Zr 0.74787 1.25302 0.29305
 Zr434 Zr 0.71488 1.21471 0.24981
 Zr435 Zr 0.78122 1.29262 0.25066
 Zr436 Zr 0.70618 1.28664 0.24951
 O437 O 0.82779 1.29357 0.25295
 O438 O 0.66077 1.27600 0.25081
 O439 O 0.74308 1.29045 0.27228
 O440 O 0.70951 1.25077 0.27160
 O441 O 0.75188 1.21575 0.27263
 O442 O 0.78678 1.25705 0.27287
 C443 C 0.69467 1.29201 0.19363
 C444 C 0.79359 1.30082 0.19510
 C445 C 0.70472 1.20585 0.19410
 O446 O 0.66825 1.21380 0.25106
 O447 O 0.70121 1.19642 0.28252
 O448 O 0.72228 1.22291 0.31248
 C449 C 0.70559 1.20253 0.30498
 O450 O 0.81228 1.20693 0.21999
 Zr451 Zr 0.78994 1.22065 0.25185
 O452 O 0.77669 1.22853 0.31419
 O453 O 0.72321 1.17064 0.24792
 O454 O 0.78731 1.17580 0.25105
 O455 O 0.83547 1.23047 0.25443
 O456 O 0.80465 1.20549 0.28599
 C457 C 0.79695 1.21082 0.30810
 O458 O 0.72174 1.27241 0.32027
 O459 O 0.77331 1.33677 0.24871
 O460 O 0.77173 1.28377 0.31315
 O461 O 0.79199 1.31196 0.28384
 O462 O 0.70708 1.33145 0.24674
 O463 O 0.68847 1.30454 0.28182
 C464 C 0.78687 1.30550 0.30618
 H465 H 0.74269 1.30855 0.21826
 H466 H 0.69163 1.24946 0.28187
 H467 H 0.80446 1.25915 0.28327
 H468 H 0.75553 1.20034 0.21831
 H469 H 0.64941 1.29325 0.24655
 H470 H 0.66231 1.19363 0.25012
 H471 H 0.70377 1.16108 0.24834
 H472 H 0.80685 1.16828 0.25590
 H473 H 0.68687 1.33777 0.24251
 H474 H 0.79285 1.34614 0.24843
 H475 H 0.83358 1.31380 0.25334
 H476 H 0.84597 1.21278 0.25888
 H477 H 0.67119 1.31646 0.27773
 H478 H 0.72954 1.26603 0.33621
 H479 H 0.76546 1.23982 0.16487
 H480 H 0.82708 1.19236 0.22438
 N481 N 0.55228 1.03018 0.02748
 N482 N 0.57249 1.04925 0.03333
 N483 N 0.53205 0.97037 0.04370
 N484 N 0.53774 0.95082 0.06021
 N485 N 0.55263 0.97059 0.02696
 N486 N 0.57281 0.95114 0.03151
 N487 N 0.53119 1.02986 0.04380
 N488 N 0.53621 1.04864 0.06094
 C489 C 0.56183 1.06085 0.05416
 C490 C 0.56308 0.93878 0.05222
 N491 N 0.44740 0.97042 0.02758
 N492 N 0.42708 0.95148 0.03349
 N493 N 0.46821 1.02964 0.04383
 N494 N 0.46188 1.04728 0.06161
 N495 N 0.44738 1.02999 0.02724
 N496 N 0.42617 1.04781 0.03353
 N497 N 0.46878 0.97027 0.04367
 N498 N 0.46378 0.95136 0.06072
 Mn499 Mn 0.50005 0.99999 0.04386
 C500 C 0.43793 0.93952 0.05412
 C501 C 0.43584 1.05880 0.05487
 N502 N 0.55270 0.97051 -0.02517
 N503 N 0.57285 0.95098 -0.02972
 N504 N 0.53198 1.02963 -0.04217
 N505 N 0.53772 1.04913 -0.05875
 N506 N 0.55212 1.03005 -0.02503
 N507 N 0.57199 1.04978 -0.02941
 N508 N 0.53193 0.97000 -0.04179
 N509 N 0.53745 0.95023 -0.05811
 Mn510 Mn 0.55274 1.00039 0.00103
 C511 C 0.56291 0.93832 -0.05025
 C512 C 0.56261 1.06172 -0.05040
 N513 N 0.44735 1.02982 -0.02581
 N514 N 0.42670 1.04838 -0.03196
 N515 N 0.46795 0.96990 -0.04183
 N516 N 0.46190 0.95043 -0.05834
 N517 N 0.44746 0.97023 -0.02494
 N518 N 0.42713 0.95097 -0.02942
 N519 N 0.46837 1.02942 -0.04227
 N520 N 0.46272 1.04766 -0.05977
 Mn521 Mn 0.44704 1.00019 0.00099
 Mn522 Mn 0.50005 0.99969 -0.04225
 Cl523 Cl 0.49992 1.00011 0.00087
 C524 C 0.43689 1.05964 -0.05310
 C525 C 0.43651 0.93856 -0.05019
 N526 N 1.02971 0.46819 0.45735
 N527 N 1.04970 0.46250 0.44055
 N528 N 0.96761 0.44993 0.47577
 N529 N 0.94748 0.43053 0.47103
 N530 N 0.96766 0.46964 0.45889
 N531 N 0.94746 0.46407 0.44223
 N532 N 1.02942 0.44820 0.47396
 N533 N 1.04922 0.42857 0.46906
 C534 C 1.06188 0.43781 0.44827
 C535 C 0.93477 0.43976 0.45022
 N536 N 0.97196 0.46837 0.54516
 N537 N 0.95308 0.46335 0.56279
 N538 N 1.03204 0.44699 0.52591
 N539 N 1.05205 0.42706 0.52939
 N540 N 1.03387 0.46649 0.54282
 N541 N 1.05517 0.46033 0.55831
 N542 N 0.97018 0.44884 0.52828
 N543 N 0.95012 0.42972 0.53417
 Mn544 Mn 0.99971 0.44825 0.50096
 C545 C 0.93936 0.43937 0.55564
 C546 C 1.06652 0.43578 0.54957
 N547 N 0.96932 0.53102 0.45975
 N548 N 0.95033 0.53844 0.44272
 N549 N 1.03201 0.54911 0.47538
 N550 N 1.05213 0.56846 0.47053
 N551 N 1.03124 0.52981 0.45818
 N552 N 1.05082 0.53570 0.44111
 N553 N 0.97012 0.55023 0.47704
 N554 N 0.95167 0.57115 0.47213
 Mn555 Mn 0.99953 0.49966 0.45826
 C556 C 0.93914 0.56331 0.45082
 C557 C 1.06393 0.55975 0.44921
 N558 N 1.03522 0.52746 0.54376
 N559 N 1.05479 0.53291 0.56081
 N560 N 0.97249 0.54905 0.52979
 N561 N 0.95351 0.56895 0.53636
 N562 N 0.97344 0.52884 0.54618
 N563 N 0.95509 0.53429 0.56415
 N564 N 1.03440 0.54806 0.52771
 N565 N 1.05342 0.56812 0.53356
 Mn566 Mn 1.00371 0.49778 0.54463
 Mn567 Mn 1.00218 0.54938 0.50246
 Cl568 Cl 1.00124 0.49881 0.50153
 C569 C 1.06634 0.55811 0.55406
 C570 C 0.94254 0.55920 0.55774
 N571 N 1.03207 0.46896 -0.04425
 N572 N 1.05183 0.46315 -0.06114
 N573 N 0.96980 0.44968 -0.02685
 N574 N 0.94961 0.43028 -0.03130
 N575 N 0.97000 0.46905 -0.04401
 N576 N 0.94982 0.46323 -0.06062
 N577 N 1.03173 0.44902 -0.02759
 N578 N 1.05138 0.42923 -0.03264
 C579 C 1.06397 0.43845 -0.05352
 C580 C 0.93705 0.43911 -0.05228
 N581 N 0.97119 0.46971 0.04206
 N582 N 0.95192 0.46495 0.05943
 N583 N 1.03249 0.44896 0.02454
 N584 N 1.05286 0.42959 0.02875
 N585 N 1.03314 0.46874 0.04126
 N586 N 1.05396 0.46332 0.05738
 N587 N 0.97049 0.44949 0.02573
 N588 N 0.95071 0.43011 0.03183
 Mn589 Mn 1.00106 0.44902 -0.00106
 C590 C 0.93902 0.44040 0.05280
 C591 C 1.06628 0.43894 0.04920
 N592 N 0.97046 0.53025 -0.04400
 N593 N 0.95180 0.53620 -0.06161
 N594 N 1.03239 0.55017 -0.02723
 N595 N 1.05242 0.56970 -0.03186
 N596 N 1.03242 0.53059 -0.04422
 N597 N 1.05242 0.53653 -0.06096
 N598 N 0.97040 0.55039 -0.02749
 N599 N 0.95169 0.57071 -0.03373
 Mn600 Mn 1.00129 0.49972 -0.04436
 C601 C 0.93991 0.56127 -0.05493
 C602 C 1.06499 0.56085 -0.05284
 N603 N 1.03330 0.52951 0.04130
 N604 N 1.05297 0.53445 0.05832
 N605 N 0.97077 0.55016 0.02556
 N606 N 0.95115 0.56978 0.03146
 N607 N 0.97146 0.53013 0.04213
 N608 N 0.95226 0.53539 0.05951
 N609 N 1.03281 0.55014 0.02530
 N610 N 1.05223 0.56990 0.03126
 Mn611 Mn 1.00234 0.49953 0.04181
 Mn612 Mn 1.00151 0.55055 -0.00099
 Cl613 Cl 1.00151 0.49975 -0.00121
 C614 C 1.06493 0.55948 0.05178
 C615 C 0.93948 0.55999 0.05259
 N616 N 0.55126 1.03257 0.52528
 N617 N 0.57127 1.05168 0.53144
 N618 N 0.53347 0.97264 0.54294
 N619 N 0.53886 0.95261 0.55911
 N620 N 0.55429 0.97319 0.52641
 N621 N 0.57435 0.95362 0.53074
 N622 N 0.52986 1.03211 0.54133
 N623 N 0.53451 1.05091 0.55856
 C624 C 0.56017 1.06329 0.55209
 C625 C 0.56439 0.94084 0.55114
 N626 N 0.44924 0.96835 0.52583
 N627 N 0.42876 0.94998 0.53269
 N628 N 0.46675 1.02909 0.54035
 N629 N 0.45937 1.04810 0.55681
 N630 N 0.44670 1.02783 0.52316
 N631 N 0.42511 1.04594 0.52753
 N632 N 0.47015 0.96980 0.54228
 N633 N 0.46458 0.95259 0.56055
 Mn634 Mn 0.50007 1.00088 0.54187
 C635 C 0.43897 0.94000 0.55430
 C636 C 0.43355 1.05871 0.54845
 N637 N 0.55584 0.97100 0.47437
 N638 N 0.57739 0.95268 0.47046
 N639 N 0.53274 1.02835 0.45528
 N640 N 0.53804 1.04749 0.43829
 N641 N 0.55223 1.03043 0.47285
 N642 N 0.57111 1.05099 0.46841
 N643 N 0.53553 0.96879 0.45748
 N644 N 0.54277 0.94899 0.44161
 Mn645 Mn 0.55367 1.00187 0.49971
 C646 C 0.56880 0.93887 0.45006
 C647 C 0.56189 1.06165 0.44690
 N648 N 0.44785 1.02528 0.47041
 N649 N 0.42643 1.04266 0.46356
 N650 N 0.47157 0.96583 0.45658
 N651 N 0.46651 0.94564 0.44047
 N652 N 0.45091 0.96583 0.47334
 N653 N 0.43154 0.94560 0.46923
 N654 N 0.46911 1.02521 0.45418
 N655 N 0.46280 1.04243 0.43606
 Mn656 Mn 0.44836 0.99685 0.49815
 Mn657 Mn 0.50225 0.99698 0.45563
 Cl658 Cl 0.50103 0.99917 0.49881
 C659 C 0.43631 1.05349 0.44217
 C660 C 0.44166 0.93295 0.44883
 N661 N 1.05344 1.03041 0.52575
 N662 N 1.07371 1.04956 0.53130
 N663 N 1.03214 0.97119 0.54231
 N664 N 1.03718 0.95146 0.55879
 N665 N 1.05271 0.97078 0.52552
 N666 N 1.07227 0.95075 0.53010
 N667 N 1.03223 1.03067 0.54198
 N668 N 1.03726 1.04991 0.55876
 C669 C 1.06301 1.06178 0.55187
 C670 C 1.06214 0.93870 0.55083
 N671 N 0.94753 0.97195 0.52627
 N672 N 0.92654 0.95390 0.53267
 N673 N 0.96896 1.03134 0.54198
 N674 N 0.96387 1.05121 0.55829
 N675 N 0.94836 1.03150 0.52521
 N676 N 0.92869 1.05145 0.52967
 N677 N 0.96879 0.97186 0.54247
 N678 N 0.96301 0.95383 0.56008
 Mn679 Mn 1.00054 1.00126 0.54235
 C680 C 0.93682 0.94246 0.55371
 C681 C 0.93882 1.06377 0.55027
 N682 N 1.05284 0.97044 0.47297
 N683 N 1.07280 0.95093 0.46751
 N684 N 1.03262 1.03007 0.45636
 N685 N 1.03759 1.05027 0.44028
 N686 N 1.05321 1.03005 0.47314
 N687 N 1.07275 1.05016 0.46891
 N688 N 1.03166 0.97052 0.45670
 N689 N 1.03645 0.95117 0.43995
 Mn690 Mn 1.05343 1.00042 0.49934
 C691 C 1.06198 0.93886 0.44694
 C692 C 1.06261 1.06274 0.44842
 N693 N 0.94815 1.03096 0.47265
 N694 N 0.92825 1.05045 0.46701
 N695 N 0.96824 0.97105 0.45680
 N696 N 0.96278 0.95106 0.44066
 N697 N 0.94770 0.97136 0.47363
 N698 N 0.92775 0.95164 0.46940
 N699 N 0.96927 1.03055 0.45633
 N700 N 0.96449 1.04966 0.43936
 Mn701 Mn 0.94758 1.00144 0.49943
 Mn702 Mn 1.00045 1.00054 0.45635
 Cl703 Cl 1.00049 1.00090 0.49936
 C704 C 0.93903 1.06216 0.44626
 C705 C 0.93758 0.93896 0.44886
 N706 N 0.55077 0.52960 0.02700
 N707 N 0.57101 0.54865 0.03283
 N708 N 0.53055 0.46998 0.04317
 N709 N 0.53572 0.44966 0.05913
 N710 N 0.55100 0.47010 0.02628
 N711 N 0.57060 0.44997 0.03025
 N712 N 0.52955 0.52951 0.04323
 N713 N 0.53457 0.54837 0.06030
 C714 C 0.56028 0.56043 0.05355
 C715 C 0.56069 0.43724 0.05072
 N716 N 0.44607 0.46951 0.02695
 N717 N 0.42660 0.44951 0.03221
 N718 N 0.46617 0.52927 0.04309
 N719 N 0.46104 0.54963 0.05898
 N720 N 0.44567 0.52908 0.02624
 N721 N 0.42607 0.54921 0.03018
 N722 N 0.46725 0.46975 0.04320
 N723 N 0.46302 0.45005 0.05972
 Mn724 Mn 0.49837 0.49964 0.04339
 C725 C 0.43778 0.43738 0.05266
 C726 C 0.43603 0.56201 0.05059
 N727 N 0.55117 0.47023 -0.02622
 N728 N 0.57139 0.45108 -0.03198
 N729 N 0.53013 0.52963 -0.04233
 N730 N 0.53527 0.54963 -0.05855
 N731 N 0.55060 0.52977 -0.02546
 N732 N 0.57017 0.54981 -0.02971
 N733 N 0.52988 0.47016 -0.04237
 N734 N 0.53473 0.45106 -0.05926
 Mn735 Mn 0.55126 0.49992 0.00040
 C736 C 0.56048 0.43906 -0.05255
 C737 C 0.56019 0.56220 -0.05031
 N738 N 0.44553 0.52900 -0.02632
 N739 N 0.42510 0.54787 -0.03230
 N740 N 0.46673 0.46966 -0.04237
 N741 N 0.46192 0.44944 -0.05843
 N742 N 0.44619 0.46947 -0.02557
 N743 N 0.42683 0.44921 -0.02973
 N744 N 0.46690 0.52916 -0.04240
 N745 N 0.46189 0.54805 -0.05946
 Mn746 Mn 0.44547 0.49926 0.00034
 Mn747 Mn 0.49841 0.49966 -0.04255
 Cl748 Cl 0.49837 0.49964 0.00040
 C749 C 0.43597 0.55984 -0.05292
 C750 C 0.43706 0.43673 -0.05021
 C751 C 0.28799 1.18136 0.14949
 C752 C 0.30267 1.16629 0.13122
 C753 C 0.32654 1.14874 0.13700
 C754 C 0.33487 1.14551 0.16146
 C755 C 0.32000 1.16018 0.17974
 C756 C 0.29671 1.17867 0.17395
 N757 N 0.34249 1.13485 0.11792
 N758 N 0.36768 1.12396 0.12200
 C759 C 0.38460 1.10937 0.10399
 C760 C 0.37321 1.10276 0.08090
 C761 C 0.39012 1.08690 0.06445
 C762 C 0.41855 1.07765 0.07089
 C763 C 0.43000 1.08512 0.09373
 C764 C 0.41310 1.10071 0.11011
 H765 H 0.27005 1.19535 0.14445
 H766 H 0.29593 1.16886 0.11246
 H767 H 0.35308 1.13183 0.16644
 H768 H 0.32735 1.15766 0.19835
 H769 H 0.35116 1.10927 0.07583
 H770 H 0.38076 1.08140 0.04697
 H771 H 0.45183 1.07836 0.09923
 H772 H 0.42208 1.10574 0.12783
 C773 C 0.81116 0.69947 0.65078
 C774 C 0.82666 0.68459 0.63284
 C775 C 0.84177 0.65962 0.63865
 C776 C 0.84137 0.64974 0.66277
 C777 C 0.82617 0.66470 0.68074
 C778 C 0.81083 0.68973 0.67498
 N779 N 0.85768 0.64484 0.62000
 N780 N 0.86912 0.62065 0.62399
 C781 C 0.88592 0.60537 0.60626
 C782 C 0.89599 0.57828 0.61227
 C783 C 0.91373 0.56310 0.59616
 C784 C 0.92192 0.57485 0.57368
 C785 C 0.91132 0.60189 0.56737
 C786 C 0.89338 0.61708 0.58355
 H787 H 0.79969 0.71873 0.64573
 H788 H 0.82685 0.69250 0.61436
 H789 H 0.85298 0.63055 0.66779
 H790 H 0.82632 0.65654 0.69914
 H791 H 0.89038 0.56905 0.62969
 H792 H 0.92148 0.54231 0.60156
 H793 H 0.91730 0.61145 0.55016
 H794 H 0.88584 0.63806 0.57854
 C795 C 0.66028 0.83048 0.18798
 C796 C 0.64244 0.84530 0.17177
 C797 C 0.64805 0.84433 0.14685
 C798 C 0.67181 0.82811 0.13811
 C799 C 0.68965 0.81295 0.15436
 C800 C 0.68410 0.81408 0.17952
 N801 N 0.62933 0.86038 0.13112
 N802 N 0.63385 0.86302 0.10842
 C803 C 0.61459 0.87995 0.09375
 C804 C 0.62293 0.88683 0.06999
 C805 C 0.60576 0.90542 0.05612
 C806 C 0.57980 0.91716 0.06583
 C807 C 0.57082 0.90927 0.08928
 C808 C 0.58810 0.89092 0.10317
 H809 H 0.65515 0.83170 0.20717
 H810 H 0.62419 0.85775 0.17866
 H811 H 0.67649 0.82711 0.11883
 H812 H 0.70777 0.80048 0.14728
 H813 H 0.64324 0.87846 0.06249
 H814 H 0.61310 0.91107 0.03803
 H815 H 0.55087 0.91792 0.09718
 H816 H 0.58102 0.88575 0.12143
 C817 C 1.20299 0.35152 0.67529
 C818 C 1.18878 0.36887 0.65846
 C819 C 1.17932 0.35794 0.63621
 C820 C 1.18551 0.32951 0.63040
 C821 C 1.20011 0.31207 0.64722
 C822 C 1.20828 0.32278 0.67010
 N823 N 1.16178 0.37580 0.62091
 N824 N 1.15034 0.36757 0.60102
 C825 C 1.13137 0.38586 0.58722
 C826 C 1.11864 0.37581 0.56572
 C827 C 1.09812 0.39235 0.55305
 C828 C 1.08993 0.41922 0.56179
 C829 C 1.10336 0.42961 0.58297
 C830 C 1.12390 0.41312 0.59558
 H831 H 1.20926 0.36049 0.69265
 H832 H 1.18418 0.39072 0.66311
 H833 H 1.17837 0.32063 0.61324
 H834 H 1.20383 0.28999 0.64279
 H835 H 1.12413 0.35486 0.55909
 H836 H 1.08815 0.38382 0.53673
 H837 H 1.09756 0.45027 0.59009
 H838 H 1.13340 0.42144 0.61215
 C839 C 0.66285 1.16899 -0.18472
 C840 C 0.64489 1.15447 -0.16848
 C841 C 0.64973 1.15641 -0.14353
 C842 C 0.67289 1.17341 -0.13477
 C843 C 0.69089 1.18836 -0.15113
 C844 C 0.68611 1.18616 -0.17634
 N845 N 0.63079 1.14046 -0.12791
 N846 N 0.63431 1.13832 -0.10505
 C847 C 0.61467 1.12122 -0.09084
 C848 C 0.62193 1.11482 -0.06674
 C849 C 0.60452 1.09603 -0.05330
 C850 C 0.57938 1.08356 -0.06375
 C851 C 0.57141 1.09095 -0.08757
 C852 C 0.58895 1.10952 -0.10104
 H853 H 0.65818 1.16690 -0.20394
 H854 H 0.62712 1.14144 -0.17539
 H855 H 0.67695 1.17518 -0.11544
 H856 H 0.70853 1.20147 -0.14411
 H857 H 0.64161 1.12371 -0.05864
 H858 H 0.61109 1.09080 -0.03491
 H859 H 0.55213 1.08174 -0.09605
 H860 H 0.58268 1.11428 -0.11959
 C861 C 1.19039 0.64836 0.31755
 C862 C 1.17572 0.63061 0.33378
 C863 C 1.16964 0.63959 0.35742
 C864 C 1.17940 0.66647 0.36503
 C865 C 1.19441 0.68433 0.34876
 C866 C 1.19952 0.67562 0.32467
 N867 N 1.15234 0.62140 0.37263
 N868 N 1.14431 0.62800 0.39406
 C869 C 1.12584 0.60962 0.40821
 C870 C 1.11693 0.61823 0.43140
 C871 C 1.09734 0.60167 0.44497
 C872 C 1.08627 0.57612 0.43551
 C873 C 1.09579 0.56712 0.41248
 C874 C 1.11539 0.58371 0.39892
 H875 H 1.19421 0.64081 0.29923
 H876 H 1.16838 0.60996 0.32771
 H877 H 1.17494 0.67386 0.38329
 H878 H 1.20112 0.70519 0.35476
 H879 H 1.12476 0.63812 0.43879
 H880 H 1.09045 0.60915 0.46269
 H881 H 1.08767 0.54753 0.40474
 H882 H 1.12192 0.57652 0.38103
 C883 C 0.33947 0.82671 -0.18393
 C884 C 0.35743 0.84109 -0.16759
 C885 C 0.35057 0.84165 -0.14290
 C886 C 0.32548 0.82709 -0.13448
 C887 C 0.30746 0.81225 -0.15092
 C888 C 0.31414 0.81221 -0.17592
 N889 N 0.36937 0.85781 -0.12729
 N890 N 0.36435 0.86209 -0.10484
 C891 C 0.38388 0.87936 -0.09064
 C892 C 0.37580 0.88701 -0.06699
 C893 C 0.39332 0.90573 -0.05356
 C894 C 0.41937 0.91695 -0.06356
 C895 C 0.42801 0.90844 -0.08694
 C896 C 0.41041 0.88989 -0.10040
 H897 H 0.34564 0.82690 -0.20295
 H898 H 0.37671 0.85218 -0.17426
 H899 H 0.31983 0.82725 -0.11536
 H900 H 0.28819 0.80121 -0.14420
 H901 H 0.35549 0.87907 -0.05922
 H902 H 0.38616 0.91185 -0.03553
 H903 H 0.44798 0.91667 -0.09509
 H904 H 0.41731 0.88421 -0.11860
 C905 C 0.80896 0.35198 0.31787
 C906 C 0.82348 0.36959 0.33429
 C907 C 0.82956 0.36032 0.35787
 C908 C 0.81998 0.33326 0.36520
 C909 C 0.80512 0.31555 0.34874
 C910 C 0.79997 0.32457 0.32471
 N911 N 0.84665 0.37844 0.37330
 N912 N 0.85476 0.37159 0.39466
 C913 C 0.87301 0.38996 0.40902
 C914 C 0.88232 0.38096 0.43201
 C915 C 0.90180 0.39751 0.44569
 C916 C 0.91234 0.42344 0.43656
 C917 C 0.90234 0.43285 0.41377
 C918 C 0.88287 0.41627 0.40010
 H919 H 0.80513 0.35977 0.29961
 H920 H 0.83069 0.39037 0.32844
 H921 H 0.82444 0.32565 0.38340
 H922 H 0.79852 0.29457 0.35454
 H923 H 0.87494 0.36078 0.43913
 H924 H 0.90907 0.38972 0.46322
 H925 H 0.91004 0.45273 0.40627
 H926 H 0.87601 0.42378 0.38238
 C927 C 1.18941 0.35106 0.18187
 C928 C 1.17612 0.36916 0.16510
 C929 C 1.17125 0.36029 0.14124
 C930 C 1.18089 0.33326 0.13394
 C931 C 1.19453 0.31511 0.15071
 C932 C 1.19833 0.32365 0.17500
 N933 N 1.15491 0.37859 0.12547
 N934 N 1.14728 0.37163 0.10405
 C935 C 1.12938 0.39002 0.08946
 C936 C 1.11944 0.38055 0.06681
 C937 C 1.09956 0.39687 0.05329
 C938 C 1.08936 0.42297 0.06229
 C939 C 1.10024 0.43295 0.08459
 C940 C 1.12005 0.41661 0.09809
 H941 H 1.19230 0.35846 0.20034
 H942 H 1.16881 0.38993 0.17090
 H943 H 1.17735 0.32599 0.11551
 H944 H 1.20123 0.29416 0.14488
 H945 H 1.12644 0.36012 0.05996
 H946 H 1.09161 0.38871 0.03611
 H947 H 1.09285 0.45303 0.09192
 H948 H 1.12746 0.42448 0.11552
 C949 C 0.65242 0.82037 0.68282
 C950 C 0.63481 0.83462 0.66615
 C951 C 0.64435 0.83846 0.64230
 C952 C 0.67172 0.82729 0.63496
 C953 C 0.68942 0.81265 0.65168
 C954 C 0.68003 0.80941 0.67588
 N955 N 0.62610 0.85483 0.62651
 N956 N 0.63324 0.86136 0.60489
 C957 C 0.61441 0.87905 0.59054
 C958 C 0.62422 0.88856 0.56788
 C959 C 0.60750 0.90811 0.55467
 C960 C 0.58066 0.91835 0.56400
 C961 C 0.57027 0.90793 0.58628
 C962 C 0.58701 0.88847 0.59947
 H963 H 0.64430 0.81794 0.70122
 H964 H 0.61377 0.84316 0.67194
 H965 H 0.67947 0.83012 0.61650
 H966 H 0.71055 0.80438 0.64585
 H967 H 0.64525 0.88146 0.56081
 H968 H 0.61594 0.91572 0.53745
 H969 H 0.54960 0.91537 0.59381
 H970 H 0.57883 0.88133 0.61692
 C971 C 1.17352 0.66166 -0.18697
 C972 C 1.15936 0.64362 -0.17076
 C973 C 1.16256 0.64713 -0.14578
 C974 C 1.18088 0.66886 -0.13697
 C975 C 1.19569 0.68694 -0.15329
 C976 C 1.19197 0.68386 -0.17870
 N977 N 1.14622 0.62846 -0.13026
 N978 N 1.14401 0.63133 -0.10734
 C979 C 1.12625 0.61211 -0.09331
 C980 C 1.11978 0.61856 -0.06906
 C981 C 1.10039 0.60150 -0.05570
 C982 C 1.08737 0.57745 -0.06633
 C983 C 1.09479 0.57037 -0.09035
 C984 C 1.11392 0.58759 -0.10376
 H985 H 1.16980 0.65788 -0.20616
 H986 H 1.14533 0.62694 -0.17775
 H987 H 1.18372 0.67186 -0.11761
 H988 H 1.20964 0.70347 -0.14594
 H989 H 1.12908 0.63731 -0.06073
 H990 H 1.09519 0.60742 -0.03717
 H991 H 1.08515 0.55198 -0.09901
 H992 H 1.11866 0.58197 -0.12244
 C993 C 0.67130 1.16272 0.31428
 C994 C 0.65370 1.14727 0.33013
 C995 C 0.65357 1.15333 0.35490
 C996 C 0.67185 1.17499 0.36394
 C997 C 0.68954 1.19080 0.34794
 C998 C 0.68918 1.18499 0.32284
 N999 N 0.63427 1.13714 0.37002
 N1000 N 0.63358 1.13887 0.39307
 C1001 C 0.61360 1.12158 0.40677
 C1002 C 0.61797 1.11826 0.43176
 C1003 C 0.60053 1.09932 0.44501
 C1004 C 0.57812 1.08375 0.43345
 C1005 C 0.57280 1.08816 0.40862
 C1006 C 0.59050 1.10678 0.39534
 H1007 H 0.67038 1.15741 0.29515
 H1008 H 0.63981 1.13055 0.32303
 H1009 H 0.67207 1.17994 0.38315
 H1010 H 0.70301 1.20778 0.35511
 H1011 H 0.63558 1.12958 0.44081
 H1012 H 0.60497 1.09642 0.46419
 H1013 H 0.55567 1.07648 0.39928
 H1014 H 0.58646 1.10920 0.37605
 C1015 C 0.80800 0.69918 0.14716
 C1016 C 0.82248 0.68441 0.12857
 C1017 C 0.83806 0.65949 0.13371
 C1018 C 0.83903 0.64949 0.15778
 C1019 C 0.82492 0.66436 0.17638
 C1020 C 0.80929 0.68943 0.17134
 N1021 N 0.85334 0.64498 0.11454
 N1022 N 0.86452 0.62058 0.11809
 C1023 C 0.88116 0.60543 0.10019
 C1024 C 0.89049 0.57799 0.10584
 C1025 C 0.90863 0.56304 0.08992
 C1026 C 0.91802 0.57535 0.06798
 C1027 C 0.90800 0.60267 0.06191
 C1028 C 0.88963 0.61766 0.07794
 H1029 H 0.79619 0.71844 0.14267
 H1030 H 0.82159 0.69241 0.11013
 H1031 H 0.85101 0.63035 0.16232
 H1032 H 0.82625 0.65615 0.19473
 H1033 H 0.88412 0.56837 0.12293
 H1034 H 0.91586 0.54200 0.09510
 H1035 H 0.91491 0.61266 0.04513
 H1036 H 0.88270 0.63893 0.07325
 C1037 C 0.33148 1.15956 0.68576
 C1038 C 0.34786 1.14358 0.66931
 C1039 C 0.34339 1.14658 0.64435
 C1040 C 0.32185 1.16557 0.63581
 C1041 C 0.30549 1.18185 0.65231
 C1042 C 0.31036 1.17918 0.67749
 N1043 N 0.36181 1.13061 0.62833
 N1044 N 0.35831 1.12972 0.60541
 C1045 C 0.37813 1.11353 0.59062
 C1046 C 0.37043 1.10697 0.56663
 C1047 C 0.38872 1.08957 0.55254
 C1048 C 0.41517 1.07888 0.56225
 C1049 C 0.42335 1.08644 0.58597
 C1050 C 0.40497 1.10346 0.60007
 H1051 H 0.33594 1.15694 0.70497
 H1052 H 0.36441 1.12899 0.67604
 H1053 H 0.31810 1.16818 0.61651
 H1054 H 0.28936 1.19673 0.64536
 H1055 H 0.34988 1.11470 0.55909
 H1056 H 0.38197 1.08412 0.53425
 H1057 H 0.44364 1.07860 0.59392
 H1058 H 0.41163 1.10849 0.61847
 C1059 C 0.81385 0.34681 -0.18338
 C1060 C 0.82795 0.36503 -0.16724
 C1061 C 0.83250 0.35706 -0.14311
 C1062 C 0.82173 0.33074 -0.13493
 C1063 C 0.80721 0.31244 -0.15113
 C1064 C 0.80371 0.32009 -0.17568
 N1065 N 0.84939 0.37564 -0.12797
 N1066 N 0.85662 0.36979 -0.10619
 C1067 C 0.87483 0.38860 -0.09224
 C1068 C 0.88369 0.38051 -0.06889
 C1069 C 0.90332 0.39733 -0.05564
 C1070 C 0.91443 0.42265 -0.06556
 C1071 C 0.90482 0.43122 -0.08869
 C1072 C 0.88523 0.41434 -0.10195
 H1073 H 0.81119 0.35361 -0.20206
 H1074 H 0.83607 0.38525 -0.17373
 H1075 H 0.82498 0.32417 -0.11627
 H1076 H 0.79959 0.29204 -0.14467
 H1077 H 0.87589 0.36077 -0.06118
 H1078 H 0.91027 0.39021 -0.03782
 H1079 H 0.91297 0.45062 -0.09677
 H1080 H 0.87870 0.42115 -0.11996
 C1081 C 0.33326 0.83341 0.31540
 C1082 C 0.35143 0.84786 0.33150
 C1083 C 0.34970 0.84273 0.35639
 C1084 C 0.32912 0.82297 0.36526
 C1085 C 0.31088 0.80813 0.34902
 C1086 C 0.31294 0.81309 0.32383
 N1087 N 0.36939 0.85802 0.37184
 N1088 N 0.36853 0.85728 0.39492
 C1089 C 0.38894 0.87373 0.40892
 C1090 C 0.38319 0.87871 0.43353
 C1091 C 0.40100 0.89729 0.44680
 C1092 C 0.42513 0.91082 0.43569
 C1093 C 0.43182 0.90459 0.41138
 C1094 C 0.41379 0.88634 0.39805
 H1095 H 0.33565 0.83794 0.29620
 H1096 H 0.36713 0.86312 0.32452
 H1097 H 0.32744 0.81876 0.38456
 H1098 H 0.29552 0.79263 0.35609
 H1099 H 0.36422 0.86909 0.44215
 H1100 H 0.39546 0.90161 0.46559
 H1101 H 0.45029 0.91467 0.40239
 H1102 H 0.41891 0.88259 0.37910
 C1103 C 1.14204 1.19344 0.31871
 C1104 C 1.12462 1.17910 0.33558
 C1105 C 1.13584 1.17217 0.35846
 C1106 C 1.16450 1.18084 0.36479
 C1107 C 1.18196 1.19548 0.34794
 C1108 C 1.17109 1.20132 0.32451
 N1109 N 1.11829 1.15476 0.37406
 N1110 N 1.12731 1.14561 0.39451
 C1111 C 1.10967 1.12677 0.40887
 C1112 C 1.12104 1.11619 0.43071
 C1113 C 1.10540 1.09586 0.44398
 C1114 C 1.07811 1.08578 0.43551
 C1115 C 1.06632 1.09707 0.41398
 C1116 C 1.08194 1.11737 0.40076
 H1117 H 1.13289 1.19784 0.30091
 H1118 H 1.10258 1.17255 0.33053
 H1119 H 1.17361 1.17569 0.38243
 H1120 H 1.20427 1.20124 0.35290
 H1121 H 1.14238 1.12320 0.43714
 H1122 H 1.11497 1.08757 0.46056
 H1123 H 1.04529 1.08978 0.40707
 H1124 H 1.07262 1.12522 0.38393
 C1125 C 0.65080 0.67664 -0.18488
 C1126 C 0.63277 0.66284 -0.16820
 C1127 C 0.64087 0.66113 -0.14380
 C1128 C 0.66717 0.67397 -0.13595
 C1129 C 0.68525 0.68814 -0.15266
 C1130 C 0.67737 0.68929 -0.17738
 N1131 N 0.62237 0.64523 -0.12782
 N1132 N 0.62871 0.64035 -0.10570
 C1133 C 0.60984 0.62314 -0.09097
 C1134 C 0.61933 0.61483 -0.06785
 C1135 C 0.60271 0.59562 -0.05420
 C1136 C 0.57623 0.58458 -0.06351
 C1137 C 0.56610 0.59391 -0.08625
 C1138 C 0.58277 0.61297 -0.09990
 H1139 H 0.64385 0.67739 -0.20370
 H1140 H 0.61255 0.65301 -0.17440
 H1141 H 0.67381 0.67285 -0.11708
 H1142 H 0.70553 0.69774 -0.14635
 H1143 H 0.64011 0.62252 -0.06076
 H1144 H 0.61095 0.58886 -0.03665
 H1145 H 0.54572 0.58586 -0.09381
 H1146 H 0.57482 0.61920 -0.11767
 C1147 C 0.85146 1.17977 0.68598
 C1148 C 0.86936 1.16589 0.66919
 C1149 C 0.86057 1.16337 0.64497
 C1150 C 0.83379 1.17556 0.63742
 C1151 C 0.81588 1.18975 0.65421
 C1152 C 0.82438 1.19165 0.67876
 N1153 N 0.87877 1.14729 0.62886
 N1154 N 0.87159 1.14181 0.60702
 C1155 C 0.88998 1.12448 0.59195
 C1156 C 0.87969 1.11596 0.56913
 C1157 C 0.89598 1.09680 0.55511
 C1158 C 0.92290 1.08601 0.56378
 C1159 C 0.93376 1.09550 0.58624
 C1160 C 0.91744 1.11452 0.60024
 H1161 H 0.85882 1.18106 0.70467
 H1162 H 0.88996 1.15656 0.67516
 H1163 H 0.82659 1.17385 0.61872
 H1164 H 0.79516 1.19870 0.64810
 H1165 H 0.85859 1.12350 0.56253
 H1166 H 0.88716 1.08990 0.53781
 H1167 H 0.95450 1.08765 0.59331
 H1168 H 0.92599 1.12090 0.61777
 C1169 C 0.35275 0.68934 0.18023
 C1170 C 0.37055 0.67581 0.16321
 C1171 C 0.35960 0.66926 0.14019
 C1172 C 0.33076 0.67749 0.13389
 C1173 C 0.31288 0.69139 0.15093
 C1174 C 0.32355 0.69682 0.17447
 N1175 N 0.37768 0.65257 0.12445
 N1176 N 0.36916 0.64370 0.10380
 C1177 C 0.38748 0.62544 0.08949
 C1178 C 0.37669 0.61485 0.06749
 C1179 C 0.39289 0.59478 0.05440
 C1180 C 0.42017 0.58499 0.06322
 C1181 C 0.43145 0.59639 0.08486
 C1182 C 0.41526 0.61644 0.09790
 H1183 H 0.36176 0.69356 0.19810
 H1184 H 0.39273 0.66957 0.16821
 H1185 H 0.32187 0.67260 0.11613
 H1186 H 0.29048 0.69695 0.14601
 H1187 H 0.35532 0.62156 0.06084
 H1188 H 0.38372 0.58640 0.03772
 H1189 H 0.45246 0.58932 0.09201
 H1190 H 0.42415 0.62433 0.11485
 C1191 C 1.15372 0.82951 0.68817
 C1192 C 1.13614 0.84382 0.67143
 C1193 C 1.14192 0.84190 0.64661
 C1194 C 1.16533 0.82492 0.63843
 C1195 C 1.18288 0.81014 0.65515
 C1196 C 1.17757 0.81241 0.68042
 N1197 N 1.12394 0.85810 0.63041
 N1198 N 1.12928 0.86070 0.60783
 C1199 C 1.11085 0.87806 0.59279
 C1200 C 1.12021 0.88514 0.56932
 C1201 C 1.10397 0.90435 0.55527
 C1202 C 1.07796 0.91649 0.56450
 C1203 C 1.06795 0.90837 0.58761
 C1204 C 1.08427 0.88942 0.60168
 H1205 H 1.14838 0.83200 0.70725
 H1206 H 1.11811 0.85688 0.67788
 H1207 H 1.17009 0.82313 0.61921
 H1208 H 1.20078 0.79727 0.64817
 H1209 H 1.14061 0.87651 0.56224
 H1210 H 1.11210 0.91016 0.53744
 H1211 H 1.04792 0.91728 0.59515
 H1212 H 1.07640 0.88411 0.61969
 C1213 C 0.64614 0.31161 0.18076
 C1214 C 0.62802 0.32495 0.16383
 C1215 C 0.63854 0.33123 0.14062
 C1216 C 0.66727 0.32296 0.13405
 C1217 C 0.68547 0.30926 0.15099
 C1218 C 0.67523 0.30406 0.17470
 N1219 N 0.62014 0.34766 0.12492
 N1220 N 0.62827 0.35619 0.10405
 C1221 C 0.60971 0.37422 0.08974
 C1222 C 0.62017 0.38452 0.06752
 C1223 C 0.60378 0.40443 0.05439
 C1224 C 0.57665 0.41434 0.06339
 C1225 C 0.56566 0.40320 0.08524
 C1226 C 0.58204 0.38331 0.09832
 H1227 H 0.63743 0.30756 0.19876
 H1228 H 0.60592 0.33122 0.16905
 H1229 H 0.67583 0.32765 0.11612
 H1230 H 0.70777 0.30365 0.14583
 H1231 H 0.64144 0.37772 0.06072
 H1232 H 0.61273 0.41260 0.03754
 H1233 H 0.54476 0.41037 0.09253
 H1234 H 0.57340 0.37563 0.11545
 C1235 C 0.85096 0.81743 0.31640
 C1236 C 0.86867 0.83172 0.33303
 C1237 C 0.85931 0.83552 0.35698
 C1238 C 0.83219 0.82401 0.36447
 C1239 C 0.81446 0.80932 0.34782
 C1240 C 0.82349 0.80635 0.32349
 N1241 N 0.87733 0.85228 0.37271
 N1242 N 0.86984 0.85916 0.39419
 C1243 C 0.88823 0.87717 0.40868
 C1244 C 0.87800 0.88666 0.43125
 C1245 C 0.89440 0.90624 0.44472
 C1246 C 0.92138 0.91655 0.43576
 C1247 C 0.93210 0.90623 0.41352
 C1248 C 0.91568 0.88676 0.40007
 H1249 H 0.85874 0.81524 0.29788
 H1250 H 0.88953 0.84047 0.32710
 H1251 H 0.82456 0.82671 0.38297
 H1252 H 0.79341 0.80101 0.35378
 H1253 H 0.85691 0.87945 0.43810
 H1254 H 0.88565 0.91378 0.46185
 H1255 H 0.95286 0.91371 0.40622
 H1256 H 0.92419 0.87969 0.38272
 C1257 C 0.35588 0.31121 -0.18206
 C1258 C 0.37346 0.32476 -0.16488
 C1259 C 0.36235 0.33096 -0.14184
 C1260 C 0.33357 0.32250 -0.13570
 C1261 C 0.31591 0.30866 -0.15288
 C1262 C 0.32674 0.30342 -0.17641
 N1263 N 0.38021 0.34744 -0.12580
 N1264 N 0.37148 0.35574 -0.10503
 C1265 C 0.38949 0.37377 -0.09030
 C1266 C 0.37835 0.38389 -0.06824
 C1267 C 0.39424 0.40378 -0.05473
 C1268 C 0.42155 0.41383 -0.06319
 C1269 C 0.43320 0.40287 -0.08487
 C1270 C 0.41733 0.38301 -0.09833
 H1271 H 0.36503 0.30722 -0.19992
 H1272 H 0.39560 0.33119 -0.16977
 H1273 H 0.32455 0.32713 -0.11792
 H1274 H 0.29357 0.30288 -0.14800
 H1275 H 0.35694 0.37697 -0.06188
 H1276 H 0.38479 0.41183 -0.03803
 H1277 H 0.45425 0.41014 -0.09174
 H1278 H 0.42649 0.37547 -0.11530
 C1279 C 1.18083 0.34902 -0.19012
 C1280 C 1.16559 0.36622 -0.17378
 C1281 C 1.16371 0.35883 -0.14925
 C1282 C 1.17776 0.33405 -0.14100
 C1283 C 1.19332 0.31684 -0.15735
 C1284 C 1.19479 0.32402 -0.18216
 N1285 N 1.14680 0.37663 -0.13345
 N1286 N 1.14185 0.37070 -0.11126
 C1287 C 1.12408 0.38886 -0.09634
 C1288 C 1.11620 0.37995 -0.07295
 C1289 C 1.09715 0.39637 -0.05871
 C1290 C 1.08586 0.42210 -0.06765
 C1291 C 1.09458 0.43145 -0.09080
 C1292 C 1.11344 0.41496 -0.10505
 H1293 H 1.18166 0.35537 -0.20903
 H1294 H 1.15486 0.38527 -0.18032
 H1295 H 1.17660 0.32795 -0.12206
 H1296 H 1.20382 0.29776 -0.15063
 H1297 H 1.12426 0.35992 -0.06599
 H1298 H 1.09086 0.38869 -0.04089
 H1299 H 1.08629 0.45120 -0.09815
 H1300 H 1.11930 0.42244 -0.12302
 C1301 C 0.65689 0.81162 0.32153
 C1302 C 0.63966 0.82621 0.33835
 C1303 C 0.65120 0.83388 0.36092
 C1304 C 0.68020 0.82581 0.36694
 C1305 C 0.69753 0.81077 0.35009
 C1306 C 0.68616 0.80407 0.32699
 N1307 N 0.63312 0.85090 0.37653
 N1308 N 0.64155 0.86096 0.39684
 C1309 C 0.62241 0.87891 0.41089
 C1310 C 0.63266 0.89077 0.43264
 C1311 C 0.61502 0.90981 0.44577
 C1312 C 0.58681 0.91731 0.43727
 C1313 C 0.57632 0.90485 0.41577
 C1314 C 0.59389 0.88586 0.40272
 H1315 H 0.64732 0.80653 0.30403
 H1316 H 0.61736 0.83223 0.33352
 H1317 H 0.68956 0.83153 0.38436
 H1318 H 0.72003 0.80529 0.35476
 H1319 H 0.65455 0.88568 0.43919
 H1320 H 0.62369 0.91906 0.46229
 H1321 H 0.55467 0.91012 0.40879
 H1322 H 0.58532 0.87702 0.38600
 C1323 C 0.81063 0.70166 -0.15065
 C1324 C 0.82609 0.68743 -0.13230
 C1325 C 0.84305 0.66348 -0.13778
 C1326 C 0.84491 0.65426 -0.16204
 C1327 C 0.82982 0.66867 -0.18043
 C1328 C 0.81228 0.69240 -0.17495
 N1329 N 0.85813 0.64877 -0.11860
 N1330 N 0.86945 0.62445 -0.12221
 C1331 C 0.88535 0.60890 -0.10408
 C1332 C 0.89309 0.62067 -0.08147
 C1333 C 0.91028 0.60503 -0.06497
 C1334 C 0.91975 0.57750 -0.07090
 C1335 C 0.91114 0.56573 -0.09326
 C1336 C 0.89426 0.58134 -0.10966
 H1337 H 0.79742 0.71994 -0.14582
 H1338 H 0.82454 0.69483 -0.11372
 H1339 H 0.85803 0.63592 -0.16682
 H1340 H 0.83152 0.66092 -0.19891
 H1341 H 0.88643 0.64202 -0.07680
 H1342 H 0.91662 0.61463 -0.04788
 H1343 H 0.91800 0.54457 -0.09839
 H1344 H 0.88841 0.57206 -0.12700
 C1345 C 0.29309 1.18323 0.34816
 C1346 C 0.30769 1.16756 0.36617
 C1347 C 0.33216 1.15079 0.36028
 C1348 C 0.34162 1.14956 0.33595
 C1349 C 0.32687 1.16493 0.31791
 C1350 C 0.30252 1.18210 0.32378
 N1351 N 0.34707 1.13522 0.37911
 N1352 N 0.37153 1.12281 0.37502
 C1353 C 0.38730 1.10659 0.39285
 C1354 C 0.41520 1.09629 0.38669
 C1355 C 0.43117 1.07962 0.40299
 C1356 C 0.41943 1.07260 0.42586
 C1357 C 0.39146 1.08318 0.43225
 C1358 C 0.37548 1.10016 0.41587
 H1359 H 0.27432 1.19611 0.35330
 H1360 H 0.30007 1.16867 0.38480
 H1361 H 0.36037 1.13667 0.33083
 H1362 H 0.33480 1.16358 0.29938
 H1363 H 0.42454 1.10107 0.36904
 H1364 H 0.45263 1.07185 0.39745
 H1365 H 0.38185 1.07810 0.44974
 H1366 H 0.35388 1.10786 0.42101
 C1367 C 1.18752 0.69849 0.15245
 C1368 C 1.17259 0.68456 0.13375
 C1369 C 1.15954 0.65821 0.13791
 C1370 C 1.16104 0.64608 0.16126
 C1371 C 1.17560 0.66018 0.18009
 C1372 C 1.18922 0.68643 0.17583
 N1373 N 1.14472 0.64425 0.11831
 N1374 N 1.13679 0.61851 0.12006
 C1375 C 1.12111 0.60399 0.10129
 C1376 C 1.11496 0.57529 0.10465
 C1377 C 1.09773 0.56070 0.08788
 C1378 C 1.08613 0.57464 0.06741
 C1379 C 1.09318 0.60325 0.06349
 C1380 C 1.11061 0.61791 0.08037
 H1381 H 1.19761 0.71879 0.14861
 H1382 H 1.17145 0.69419 0.11590
 H1383 H 1.15089 0.62578 0.16497
 H1384 H 1.17659 0.65034 0.19787
 H1385 H 1.12301 0.56437 0.12065
 H1386 H 1.09283 0.53861 0.09135
 H1387 H 1.08447 0.61448 0.04788
 H1388 H 1.11516 0.64016 0.07743
 C1389 C 0.70374 1.18471 0.65135
 C1390 C 0.68909 1.17026 0.63275
 C1391 C 0.66194 1.15722 0.63717
 C1392 C 0.64970 1.15847 0.66065
 C1393 C 0.66448 1.17260 0.67935
 C1394 C 0.69160 1.18603 0.67489
 N1395 N 0.64739 1.14255 0.61776
 N1396 N 0.62109 1.13359 0.62008
 C1397 C 0.60598 1.11804 0.60155
 C1398 C 0.57665 1.11047 0.60569
 C1399 C 0.56157 1.09358 0.58907
 C1400 C 0.57565 1.08376 0.56791
 C1401 C 0.60487 1.09210 0.56329
 C1402 C 0.61999 1.10917 0.58003
 H1403 H 0.72469 1.19466 0.64734
 H1404 H 0.69884 1.16935 0.61479
 H1405 H 0.62881 1.14839 0.66460
 H1406 H 0.65452 1.17327 0.69723
 H1407 H 0.56563 1.11722 0.62217
 H1408 H 0.53905 1.08762 0.59312
 H1409 H 0.61624 1.08480 0.54716
 H1410 H 0.64271 1.11481 0.57646
 C1411 C 0.81108 0.30415 0.15203
 C1412 C 0.82637 0.31803 0.13349
 C1413 C 0.84050 0.34377 0.13804
 C1414 C 0.83954 0.35539 0.16159
 C1415 C 0.82457 0.34134 0.18026
 C1416 C 0.81002 0.31564 0.17564
 N1417 N 0.85592 0.35755 0.11864
 N1418 N 0.86541 0.38274 0.12089
 C1419 C 0.88170 0.39700 0.10230
 C1420 C 0.88955 0.42520 0.10623
 C1421 C 0.90724 0.43945 0.08955
 C1422 C 0.91760 0.42565 0.06857
 C1423 C 0.90892 0.39756 0.06413
 C1424 C 0.89103 0.38326 0.08093
 H1425 H 0.80027 0.28429 0.14789
 H1426 H 0.82706 0.30880 0.11548
 H1427 H 0.85049 0.37521 0.16560
 H1428 H 0.82411 0.35074 0.19821
 H1429 H 0.88243 0.43599 0.12258
 H1430 H 0.91339 0.46114 0.09344
 H1431 H 0.91665 0.38645 0.04812
 H1432 H 0.88516 0.36139 0.07755
 C1433 C 0.29901 0.81203 0.65212
 C1434 C 0.31373 0.82692 0.63379
 C1435 C 0.33751 0.84452 0.63939
 C1436 C 0.34626 0.84739 0.66378
 C1437 C 0.33136 0.83286 0.68225
 C1438 C 0.30746 0.81473 0.67680
 N1439 N 0.35232 0.85933 0.62012
 N1440 N 0.37657 0.87218 0.62377
 C1441 C 0.39191 0.88768 0.60528
 C1442 C 0.41981 0.89836 0.61078
 C1443 C 0.43522 0.91460 0.59386
 C1444 C 0.42289 0.92081 0.57101
 C1445 C 0.39499 0.90970 0.56522
 C1446 C 0.37959 0.89314 0.58224
 H1447 H 0.28080 0.79856 0.64677
 H1448 H 0.30670 0.82456 0.61509
 H1449 H 0.36451 0.86103 0.66862
 H1450 H 0.33884 0.83581 0.70078
 H1451 H 0.42954 0.89430 0.62843
 H1452 H 0.45666 0.92277 0.59893
 H1453 H 0.38495 0.91417 0.54778
 H1454 H 0.35797 0.88510 0.57760
 C1455 C 0.29818 1.19177 -0.14961
 C1456 C 0.31197 1.17656 -0.13087
 C1457 C 0.33618 1.15904 -0.13583
 C1458 C 0.34621 1.15663 -0.15994
 C1459 C 0.33226 1.17146 -0.17868
 C1460 C 0.30814 1.18931 -0.17377
 N1461 N 0.35026 1.14380 -0.11640
 N1462 N 0.37496 1.13157 -0.11978
 C1463 C 0.39014 1.11527 -0.10170
 C1464 C 0.41845 1.10558 -0.10721
 C1465 C 0.43372 1.08826 -0.09100
 C1466 C 0.42086 1.07996 -0.06887
 C1467 C 0.39256 1.09014 -0.06300
 C1468 C 0.37726 1.10778 -0.07932
 H1469 H 0.27960 1.20526 -0.14522
 H1470 H 0.30393 1.17861 -0.11242
 H1471 H 0.36476 1.14313 -0.16436
 H1472 H 0.34060 1.16912 -0.19701
 H1473 H 0.42859 1.11119 -0.12438
 H1474 H 0.45548 1.08090 -0.09611
 H1475 H 0.38211 1.08406 -0.04609
 H1476 H 0.35529 1.11501 -0.07473
 C1477 C 0.83880 0.66492 0.31179
 C1478 C 0.85387 0.64773 0.32825
 C1479 C 0.85208 0.65285 0.35319
 C1480 C 0.83506 0.67573 0.36166
 C1481 C 0.81969 0.69295 0.34515
 C1482 C 0.82130 0.68763 0.31999
 N1483 N 0.86755 0.63415 0.36925
 N1484 N 0.86925 0.63785 0.39212
 C1485 C 0.88511 0.61821 0.40716
 C1486 C 0.89125 0.62526 0.43136
 C1487 C 0.90829 0.60713 0.44587
 C1488 C 0.91913 0.58149 0.43640
 C1489 C 0.91205 0.57402 0.41240
 C1490 C 0.89533 0.59223 0.39788
 H1491 H 0.84055 0.66004 0.29261
 H1492 H 0.86694 0.63017 0.32153
 H1493 H 0.83338 0.68006 0.38093
 H1494 H 0.80643 0.71025 0.35208
 H1495 H 0.88344 0.64514 0.43879
 H1496 H 0.91336 0.61338 0.46434
 H1497 H 0.92005 0.55440 0.40460
 H1498 H 0.89069 0.58612 0.37931
 C1499 C 0.70082 1.19054 0.15055
 C1500 C 0.68683 1.17535 0.13204
 C1501 C 0.66147 1.15956 0.13700
 C1502 C 0.65042 1.15879 0.16089
 C1503 C 0.66460 1.17362 0.17948
 C1504 C 0.68988 1.18979 0.17451
 N1505 N 0.64739 1.14428 0.11772
 N1506 N 0.62189 1.13363 0.12063
 C1507 C 0.60705 1.11737 0.10245
 C1508 C 0.57816 1.10885 0.10715
 C1509 C 0.56331 1.09134 0.09091
 C1510 C 0.57722 1.08174 0.06961
 C1511 C 0.60602 1.09093 0.06444
 C1512 C 0.62090 1.10871 0.08079
 H1513 H 0.72036 1.20268 0.14614
 H1514 H 0.69564 1.17605 0.11375
 H1515 H 0.63093 1.14657 0.16525
 H1516 H 0.65558 1.17266 0.19769
 H1517 H 0.56728 1.11543 0.12375
 H1518 H 0.54109 1.08477 0.09539
 H1519 H 0.61723 1.08382 0.04817
 H1520 H 0.64332 1.11507 0.07684
 C1521 C 1.18006 0.70701 0.65125
 C1522 C 1.16623 0.69170 0.63272
 C1523 C 1.15412 0.66503 0.63752
 C1524 C 1.15521 0.65411 0.66128
 C1525 C 1.16866 0.66950 0.67984
 C1526 C 1.18155 0.69596 0.67499
 N1527 N 1.14075 0.64934 0.61818
 N1528 N 1.13387 0.62342 0.62099
 C1529 C 1.11950 0.60704 0.60266
 C1530 C 1.11365 0.57855 0.60753
 C1531 C 1.09741 0.56234 0.59115
 C1532 C 1.08663 0.57446 0.56958
 C1533 C 1.09350 0.60281 0.56419
 C1534 C 1.10985 0.61906 0.58066
 H1535 H 1.18967 0.72742 0.64698
 H1536 H 1.16534 0.70041 0.61452
 H1537 H 1.14575 0.63365 0.66551
 H1538 H 1.16952 0.66035 0.69789
 H1539 H 1.12105 0.56910 0.62441
 H1540 H 1.09255 0.54052 0.59575
 H1541 H 1.08544 0.61266 0.54769
 H1542 H 1.11419 0.64109 0.57654
 C1543 C 0.64688 0.81541 -0.18371
 C1544 C 0.62965 0.83023 -0.16701
 C1545 C 0.63933 0.83403 -0.14314
 C1546 C 0.66625 0.82193 -0.13579
 C1547 C 0.68348 0.80671 -0.15249
 C1548 C 0.67418 0.80376 -0.17676
 N1549 N 0.62181 0.85128 -0.12732
 N1550 N 0.62973 0.85830 -0.10596
 C1551 C 0.61177 0.87664 -0.09133
 C1552 C 0.62243 0.88609 -0.06886
 C1553 C 0.60628 0.90570 -0.05513
 C1554 C 0.57912 0.91608 -0.06370
 C1555 C 0.56806 0.90590 -0.08588
 C1556 C 0.58422 0.88642 -0.09959
 H1557 H 0.63890 0.81331 -0.20217
 H1558 H 0.60893 0.83941 -0.17286
 H1559 H 0.67413 0.82457 -0.11736
 H1560 H 0.70440 0.79799 -0.14661
 H1561 H 0.64360 0.87876 -0.06226
 H1562 H 0.61530 0.91313 -0.03807
 H1563 H 0.54717 0.91343 -0.09292
 H1564 H 0.57538 0.87941 -0.11684
 C1565 C 1.18349 0.34761 0.31547
 C1566 C 1.16952 0.36550 0.33194
 C1567 C 1.16428 0.35663 0.35573
 C1568 C 1.17392 0.32964 0.36321
 C1569 C 1.18822 0.31162 0.34669
 C1570 C 1.19271 0.32032 0.32251
 N1571 N 1.14792 0.37511 0.37129
 N1572 N 1.14069 0.36868 0.39293
 C1573 C 1.12303 0.38745 0.40734
 C1574 C 1.11404 0.37878 0.43048
 C1575 C 1.09476 0.39558 0.44409
 C1576 C 1.08419 0.42140 0.43471
 C1577 C 1.09401 0.43056 0.41183
 C1578 C 1.11325 0.41371 0.39822
 H1579 H 1.18688 0.35518 0.29709
 H1580 H 1.16220 0.38624 0.32602
 H1581 H 1.17004 0.32236 0.38160
 H1582 H 1.19508 0.29075 0.35262
 H1583 H 1.12139 0.35863 0.43771
 H1584 H 1.08764 0.38805 0.46173
 H1585 H 1.08627 0.45037 0.40421
 H1586 H 1.11994 0.42095 0.38038
 C1587 C 0.29858 0.81131 0.15152
 C1588 C 0.31247 0.82653 0.13298
 C1589 C 0.33823 0.84179 0.13774
 C1590 C 0.34976 0.84204 0.16149
 C1591 C 0.33566 0.82717 0.18013
 C1592 C 0.31001 0.81149 0.17532
 N1593 N 0.35222 0.85703 0.11839
 N1594 N 0.37802 0.86708 0.12099
 C1595 C 0.39278 0.88324 0.10268
 C1596 C 0.42196 0.89111 0.10694
 C1597 C 0.43676 0.90852 0.09059
 C1598 C 0.42253 0.91866 0.06961
 C1599 C 0.39342 0.91010 0.06485
 C1600 C 0.37858 0.89242 0.08132
 H1601 H 0.27873 0.79957 0.14725
 H1602 H 0.30330 0.82625 0.11480
 H1603 H 0.36956 0.85385 0.16569
 H1604 H 0.34504 0.82769 0.19823
 H1605 H 0.43310 0.88412 0.12330
 H1606 H 0.45923 0.91460 0.09474
 H1607 H 0.38196 0.91764 0.04884
 H1608 H 0.35593 0.88656 0.07771
 C1609 C 0.81888 0.29589 0.65278
 C1610 C 0.83339 0.31074 0.63436
 C1611 C 0.84582 0.33725 0.63910
 C1612 C 0.84421 0.34856 0.66271
 C1613 C 0.83003 0.33362 0.68120
 C1614 C 0.81695 0.30726 0.67638
 N1615 N 0.86015 0.35228 0.61986
 N1616 N 0.86826 0.37785 0.62265
 C1617 C 0.88360 0.39340 0.60432
 C1618 C 0.89138 0.42141 0.60929
 C1619 C 0.90856 0.43667 0.59291
 C1620 C 0.91830 0.42406 0.57121
 C1621 C 0.90950 0.39627 0.56572
 C1622 C 0.89225 0.38096 0.58222
 H1623 H 0.80918 0.27552 0.64855
 H1624 H 0.83467 0.30174 0.61628
 H1625 H 0.85389 0.36894 0.66688
 H1626 H 0.82884 0.34298 0.69914
 H1627 H 0.88475 0.43118 0.62624
 H1628 H 0.91489 0.45811 0.59756
 H1629 H 0.91674 0.38610 0.54912
 H1630 H 0.88638 0.35928 0.57803
 C1631 C 1.20260 1.19190 0.64753
 C1632 C 1.18867 1.17638 0.62916
 C1633 C 1.16137 1.16354 0.63341
 C1634 C 1.14810 1.16637 0.65641
 C1635 C 1.16214 1.18160 0.67487
 C1636 C 1.18956 1.19455 0.67066
 N1637 N 1.14781 1.14725 0.61444
 N1638 N 1.12168 1.13783 0.61672
 C1639 C 1.10733 1.12062 0.59886
 C1640 C 1.07807 1.11290 0.60303
 C1641 C 1.06361 1.09456 0.58721
 C1642 C 1.07822 1.08335 0.56682
 C1643 C 1.10742 1.09172 0.56213
 C1644 C 1.12195 1.11028 0.57810
 H1645 H 1.22382 1.20142 0.64372
 H1646 H 1.19921 1.17430 0.61159
 H1647 H 1.12705 1.15654 0.66024
 H1648 H 1.15148 1.18325 0.69244
 H1649 H 1.06658 1.12075 0.61893
 H1650 H 1.04107 1.08867 0.59130
 H1651 H 1.11919 1.08338 0.54658
 H1652 H 1.14466 1.11598 0.57455
 C1653 C 0.70074 0.68847 0.14994
 C1654 C 0.68659 0.67336 0.13146
 C1655 C 0.66064 0.65843 0.13632
 C1656 C 0.64915 0.65842 0.16008
 C1657 C 0.66348 0.67317 0.17864
 C1658 C 0.68933 0.68850 0.17374
 N1659 N 0.64645 0.64318 0.11708
 N1660 N 0.62065 0.63316 0.11985
 C1661 C 0.60572 0.61694 0.10169
 C1662 C 0.57664 0.60888 0.10624
 C1663 C 0.56172 0.59137 0.09004
 C1664 C 0.57573 0.58135 0.06893
 C1665 C 0.60470 0.59011 0.06389
 C1666 C 0.61967 0.60786 0.08020
 H1667 H 0.72078 0.69989 0.14564
 H1668 H 0.69576 0.67343 0.11328
 H1669 H 0.62921 0.64686 0.16436
 H1670 H 0.65414 0.67282 0.19676
 H1671 H 0.56569 0.61579 0.12271
 H1672 H 0.53936 0.58513 0.09441
 H1673 H 0.61599 0.58266 0.04776
 H1674 H 0.64223 0.61386 0.07636
 C1675 C 1.20075 0.80631 0.35247
 C1676 C 1.18673 0.82166 0.37095
 C1677 C 1.16005 0.83562 0.36643
 C1678 C 1.14749 0.83406 0.34309
 C1679 C 1.16160 0.81905 0.32456
 C1680 C 1.18842 0.80501 0.32900
 N1681 N 1.14639 0.85181 0.38544
 N1682 N 1.12061 0.86200 0.38273
 C1683 C 1.10613 0.87930 0.40046
 C1684 C 1.07718 0.88776 0.39577
 C1685 C 1.06271 0.90635 0.41141
 C1686 C 1.07702 0.91705 0.43212
 C1687 C 1.10588 0.90792 0.43731
 C1688 C 1.12040 0.88912 0.42155
 H1689 H 1.22148 0.79589 0.35645
 H1690 H 1.19673 0.82275 0.38880
 H1691 H 1.12694 0.84476 0.33904
 H1692 H 1.15147 0.81842 0.30674
 H1693 H 1.06597 0.88033 0.37960
 H1694 H 1.04045 0.91284 0.40692
 H1695 H 1.11741 0.91586 0.45313
 H1696 H 1.14287 0.88285 0.42549
 C1697 C 0.70047 0.31443 -0.15195
 C1698 C 0.68671 0.32983 -0.13350
 C1699 C 0.65944 0.34275 -0.13762
 C1700 C 0.64624 0.34058 -0.16071
 C1701 C 0.66020 0.32551 -0.17933
 C1702 C 0.68733 0.31206 -0.17505
 N1703 N 0.64570 0.35812 -0.11825
 N1704 N 0.61908 0.36636 -0.11984
 C1705 C 0.60472 0.38248 -0.10129
 C1706 C 0.57498 0.38903 -0.10444
 C1707 C 0.56049 0.40648 -0.08791
 C1708 C 0.57561 0.41790 -0.06787
 C1709 C 0.60528 0.41051 -0.06412
 C1710 C 0.61982 0.39286 -0.08078
 H1711 H 0.72156 0.30456 -0.14818
 H1712 H 0.69718 0.33150 -0.11587
 H1713 H 0.62523 0.35062 -0.16439
 H1714 H 0.64959 0.32404 -0.19693
 H1715 H 0.56314 0.38107 -0.12011
 H1716 H 0.53756 0.41162 -0.09122
 H1717 H 0.61741 0.41907 -0.04885
 H1718 H 0.64291 0.38799 -0.07802
 C1719 C 0.80021 1.19412 0.35138
 C1720 C 0.81434 1.17879 0.36981
 C1721 C 0.84100 1.16485 0.36519
 C1722 C 0.85341 1.16639 0.34178
 C1723 C 0.83916 1.18140 0.32330
 C1724 C 0.81238 1.19544 0.32786
 N1725 N 0.85477 1.14873 0.38419
 N1726 N 0.88049 1.13844 0.38142
 C1727 C 0.89498 1.12125 0.39924
 C1728 C 0.92384 1.11255 0.39452
 C1729 C 0.93828 1.09411 0.41031
 C1730 C 0.92404 1.08380 0.43121
 C1731 C 0.89528 1.09317 0.43643
 C1732 C 0.88077 1.11182 0.42051
 H1733 H 0.77950 1.20453 0.35546
 H1734 H 0.80447 1.17771 0.38771
 H1735 H 0.87394 1.15569 0.33767
 H1736 H 0.84917 1.18204 0.30543
 H1737 H 0.93498 1.11969 0.37822
 H1738 H 0.96048 1.08743 0.40582
 H1739 H 0.88380 1.08554 0.45240
 H1740 H 0.85838 1.11828 0.42448
 C1741 C 0.29585 0.68377 -0.15322
 C1742 C 0.30936 0.66804 -0.13482
 C1743 C 0.33666 0.65514 -0.13887
 C1744 C 0.35007 0.65757 -0.16186
 C1745 C 0.33635 0.67297 -0.18043
 C1746 C 0.30926 0.68651 -0.17619
 N1747 N 0.35031 0.63970 -0.11946
 N1748 N 0.37697 0.63157 -0.12093
 C1749 C 0.39133 0.61553 -0.10229
 C1750 C 0.42113 0.60915 -0.10533
 C1751 C 0.43571 0.59197 -0.08863
 C1752 C 0.42065 0.58066 -0.06851
 C1753 C 0.39090 0.58783 -0.06490
 C1754 C 0.37625 0.60522 -0.08174
 H1755 H 0.27478 0.69370 -0.14948
 H1756 H 0.29872 0.66618 -0.11727
 H1757 H 0.37111 0.64756 -0.16548
 H1758 H 0.34716 0.67472 -0.19792
 H1759 H 0.43296 0.61706 -0.12103
 H1760 H 0.45870 0.58698 -0.09186
 H1761 H 0.37880 0.57935 -0.04957
 H1762 H 0.35313 0.60997 -0.07904
 C1763 C 0.79428 0.81638 0.65080
 C1764 C 0.80836 0.83189 0.63249
 C1765 C 0.83398 0.84725 0.63759
 C1766 C 0.84509 0.84738 0.66148
 C1767 C 0.83083 0.83221 0.67987
 C1768 C 0.80540 0.81632 0.67471
 N1769 N 0.84841 0.86247 0.61839
 N1770 N 0.87398 0.87295 0.62142
 C1771 C 0.88931 0.88881 0.60319
 C1772 C 0.91822 0.89715 0.60810
 C1773 C 0.93373 0.91381 0.59158
 C1774 C 0.92053 0.92274 0.56975
 C1775 C 0.89163 0.91388 0.56448
 C1776 C 0.87607 0.89694 0.58111
 H1777 H 0.77460 0.80453 0.64626
 H1778 H 0.79948 0.83168 0.61422
 H1779 H 0.86477 0.85924 0.66596
 H1780 H 0.83999 0.83257 0.69805
 H1781 H 0.92864 0.89098 0.62501
 H1782 H 0.95597 0.92017 0.59619
 H1783 H 0.88092 0.92048 0.54781
 H1784 H 0.85366 0.89071 0.57696
 C1785 C 0.30100 0.30580 0.14850
 C1786 C 0.31504 0.32087 0.12995
 C1787 C 0.34234 0.33371 0.13410
 C1788 C 0.35557 0.33126 0.15715
 C1789 C 0.34140 0.31648 0.17581
 C1790 C 0.31392 0.30363 0.17171
 N1791 N 0.35575 0.34988 0.11502
 N1792 N 0.38188 0.35931 0.11711
 C1793 C 0.39577 0.37667 0.09914
 C1794 C 0.42500 0.38466 0.10299
 C1795 C 0.43880 0.40356 0.08724
 C1796 C 0.42351 0.41499 0.06727
 C1797 C 0.39441 0.40620 0.06281
 C1798 C 0.38055 0.38712 0.07869
 H1799 H 0.27971 0.29637 0.14479
 H1800 H 0.30455 0.32271 0.11233
 H1801 H 0.37662 0.34114 0.16087
 H1802 H 0.35191 0.31518 0.19346
 H1803 H 0.43692 0.37672 0.11864
 H1804 H 0.46130 0.40976 0.09110
 H1805 H 0.38215 0.41472 0.04757
 H1806 H 0.35785 0.38119 0.07541
   
