data_POSCAR
  _audit_creation_date              2014-09-24
  _audit_creation_method            'ToBaCCo'
  _symmetry_space_group_name_H-M    'P1'
  _symmetry_Int_Tables_number       1
  _symmetry_cell_setting            triclinic
  loop_
  _symmetry_equiv_pos_as_xyz
 x,y,z
_cell_length_a 89.0044
_cell_length_b 89.3827
_cell_length_c 89.7124
_cell_angle_alpha 90.022100
_cell_angle_beta 89.960400
_cell_angle_gamma 89.960500
loop_
  _atom_site_label
  _atom_site_type_symbol
  _atom_site_fract_x
  _atom_site_fract_y
  _atom_site_fract_z
N1 N 0.36333 0.32246 0.33300
 N2 N 0.36291 0.33271 0.32252
 C3 C 0.37463 0.33066 0.31325
 C4 C 0.38287 0.31844 0.31815
 C5 C 0.37529 0.31353 0.33073
 H6 H 0.37696 0.33754 0.30362
 H7 H 0.37832 0.30426 0.33785
 Cu8 Cu 0.34727 0.34793 0.32207
 Cu9 Cu 0.34847 0.32152 0.34890
 Cu10 Cu 0.32108 0.34900 0.34913
 N11 N 0.33209 0.36359 0.32279
 N12 N 0.32194 0.36394 0.33342
 C13 C 0.31302 0.37592 0.33146
 C14 C 0.31780 0.38359 0.31891
 C15 C 0.32995 0.37538 0.31369
 H16 H 0.30368 0.37875 0.33862
 H17 H 0.33687 0.37792 0.30411
 N18 N 0.32202 0.33295 0.36411
 N19 N 0.33245 0.32247 0.36406
 C20 C 0.33018 0.31333 0.37579
 C21 C 0.31771 0.31830 0.38364
 C22 C 0.31285 0.33077 0.37584
 H23 H 0.33722 0.30387 0.37852
 H24 H 0.30331 0.33775 0.37847
 H25 H 0.33133 0.33186 0.33739
 H26 H 0.34385 0.34414 0.34876
 N27 N 0.36273 0.82136 -0.16836
 N28 N 0.36322 0.83222 -0.17820
 C29 C 0.37537 0.83030 -0.18697
 C30 C 0.38296 0.81746 -0.18240
 C31 C 0.37446 0.81215 -0.17052
 H32 H 0.37842 0.83775 -0.19595
 H33 H 0.37650 0.80230 -0.16386
 Cu34 Cu 0.34800 0.84792 -0.17807
 Cu35 Cu 0.34671 0.81958 -0.15367
 Cu36 Cu 0.32202 0.84948 -0.15102
 N37 N 0.33264 0.86348 -0.17796
 N38 N 0.32283 0.86417 -0.16703
 C39 C 0.31382 0.87605 -0.16909
 C40 C 0.31815 0.88341 -0.18203
 C41 C 0.33021 0.87500 -0.18735
 H42 H 0.30476 0.87896 -0.16165
 H43 H 0.33682 0.87711 -0.19723
 N44 N 0.32295 0.83333 -0.13612
 N45 N 0.33218 0.82183 -0.13724
 C46 C 0.32995 0.81265 -0.12555
 C47 C 0.31867 0.81858 -0.11664
 C48 C 0.31453 0.83171 -0.12376
 H49 H 0.33612 0.80243 -0.12369
 H50 H 0.30587 0.83945 -0.12033
 H51 H 0.33029 0.83261 -0.16397
 H52 H 0.34426 0.84235 -0.15185
 N53 N 0.86246 0.32211 -0.16685
 N54 N 0.86210 0.33228 -0.17742
 C55 C 0.87426 0.33057 -0.18621
 C56 C 0.88270 0.31864 -0.18089
 C57 C 0.87479 0.31359 -0.16856
 H58 H 0.87666 0.33745 -0.19582
 H59 H 0.87753 0.30418 -0.16152
 Cu60 Cu 0.84551 0.34643 -0.17909
 Cu61 Cu 0.84647 0.32006 -0.15225
 Cu62 Cu 0.81939 0.34774 -0.15200
 N63 N 0.83143 0.36306 -0.17739
 N64 N 0.82143 0.36359 -0.16664
 C65 C 0.81293 0.37591 -0.16827
 C66 C 0.81776 0.38366 -0.18082
 C67 C 0.82963 0.37509 -0.18626
 H68 H 0.80370 0.37872 -0.16096
 H69 H 0.83639 0.37723 -0.19604
 N70 N 0.82091 0.33243 -0.13632
 N71 N 0.83122 0.32184 -0.13642
 C72 C 0.82935 0.31312 -0.12432
 C73 C 0.81723 0.31846 -0.11618
 C74 C 0.81220 0.33075 -0.12417
 H75 H 0.83636 0.30363 -0.12165
 H76 H 0.80279 0.33788 -0.12146
 H77 H 0.82931 0.33046 -0.16359
 H78 H 0.84208 0.34271 -0.15251
 N79 N 0.86276 0.82172 0.33296
 N80 N 0.86219 0.83166 0.32220
 C81 C 0.87435 0.83003 0.31341
 C82 C 0.88303 0.81835 0.31892
 C83 C 0.87525 0.81339 0.33137
 H84 H 0.87660 0.83677 0.30366
 H85 H 0.87817 0.80415 0.33856
 Cu86 Cu 0.84535 0.84549 0.32035
 Cu87 Cu 0.84683 0.81962 0.34762
 Cu88 Cu 0.81967 0.84726 0.34778
 N89 N 0.83152 0.86232 0.32214
 N90 N 0.82172 0.86303 0.33305
 C91 C 0.81336 0.87546 0.33152
 C92 C 0.81809 0.88309 0.31886
 C93 C 0.82975 0.87433 0.31324
 H94 H 0.80429 0.87840 0.33896
 H95 H 0.83637 0.87635 0.30335
 N96 N 0.82130 0.83206 0.36355
 N97 N 0.83162 0.82147 0.36349
 C98 C 0.82977 0.81283 0.37565
 C99 C 0.81767 0.81823 0.38379
 C100 C 0.81262 0.83046 0.37573
 H101 H 0.83678 0.80335 0.37839
 H102 H 0.80319 0.83758 0.37841
 H103 H 0.82944 0.82975 0.33643
 H104 H 0.84234 0.84224 0.34705
 N105 N 0.63714 0.67897 0.33289
 N106 N 0.63683 0.66824 0.32290
 C107 C 0.62445 0.66984 0.31443
 C108 C 0.61657 0.68230 0.31934
 C109 C 0.62502 0.68779 0.33111
 H110 H 0.62149 0.66251 0.30531
 H111 H 0.62279 0.69767 0.33769
 Cu112 Cu 0.65292 0.65357 0.32138
 Cu113 Cu 0.65360 0.68120 0.34688
 Cu114 Cu 0.67843 0.65142 0.34917
 N115 N 0.66766 0.63754 0.32239
 N116 N 0.67749 0.63665 0.33326
 C117 C 0.68621 0.62453 0.33113
 C118 C 0.68155 0.61734 0.31825
 C119 C 0.66972 0.62595 0.31302
 H120 H 0.69523 0.62118 0.33847
 H121 H 0.66319 0.62403 0.30305
 N122 N 0.67767 0.66760 0.36408
 N123 N 0.66832 0.67900 0.36307
 C124 C 0.67051 0.68819 0.37475
 C125 C 0.68187 0.68237 0.38356
 C126 C 0.68614 0.66929 0.37640
 H127 H 0.66433 0.69844 0.37662
 H128 H 0.69473 0.66152 0.37995
 H129 H 0.67036 0.66853 0.33647
 H130 H 0.65612 0.65831 0.34789
 N131 N 0.63700 0.17826 -0.16664
 N132 N 0.63613 0.16702 -0.17603
 C133 C 0.62376 0.16872 -0.18451
 C134 C 0.61648 0.18174 -0.18019
 C135 C 0.62526 0.18748 -0.16880
 H136 H 0.62031 0.16104 -0.19317
 H137 H 0.62344 0.19774 -0.16268
 Cu138 Cu 0.65141 0.15144 -0.17626
 Cu139 Cu 0.65354 0.18043 -0.15266
 Cu140 Cu 0.67909 0.15117 -0.15078
 N141 N 0.66710 0.13629 -0.17660
 N142 N 0.67791 0.13627 -0.16664
 C143 C 0.68717 0.12467 -0.16934
 C144 C 0.68185 0.11683 -0.18166
 C145 C 0.66904 0.12464 -0.18591
 H146 H 0.69693 0.12213 -0.16266
 H147 H 0.66169 0.12218 -0.19516
 N148 N 0.67835 0.16748 -0.13595
 N149 N 0.66870 0.17866 -0.13680
 C150 C 0.67081 0.18785 -0.12511
 C151 C 0.68240 0.18226 -0.11645
 C152 C 0.68692 0.16933 -0.12371
 H153 H 0.66436 0.19789 -0.12308
 H154 H 0.69568 0.16171 -0.12026
 H155 H 0.66963 0.16740 -0.16363
 H156 H 0.65664 0.15765 -0.15046
 N157 N 0.13691 0.67822 -0.16789
 N158 N 0.13662 0.66731 -0.17767
 C159 C 0.12424 0.66872 -0.18617
 C160 C 0.11634 0.68126 -0.18151
 C161 C 0.12479 0.68700 -0.16986
 H162 H 0.12140 0.66136 -0.19530
 H163 H 0.12240 0.69688 -0.16332
 Cu164 Cu 0.15267 0.65259 -0.17890
 Cu165 Cu 0.15329 0.68058 -0.15381
 Cu166 Cu 0.17837 0.65102 -0.15126
 N167 N 0.16756 0.63672 -0.17781
 N168 N 0.17748 0.63605 -0.16700
 C169 C 0.18624 0.62393 -0.16901
 C170 C 0.18150 0.61651 -0.18174
 C171 C 0.16961 0.62500 -0.18702
 H172 H 0.19533 0.62071 -0.16169
 H173 H 0.16300 0.62288 -0.19689
 N174 N 0.17754 0.66736 -0.13653
 N175 N 0.16806 0.67866 -0.13761
 C176 C 0.17016 0.68795 -0.12599
 C177 C 0.18161 0.68232 -0.11717
 C178 C 0.18602 0.66925 -0.12424
 H179 H 0.16389 0.69814 -0.12417
 H180 H 0.19471 0.66161 -0.12065
 H181 H 0.17010 0.66789 -0.16416
 H182 H 0.15602 0.65773 -0.15250
 N183 N 0.13640 0.17781 0.33322
 N184 N 0.13661 0.16740 0.32288
 C185 C 0.12487 0.16945 0.31364
 C186 C 0.11684 0.18186 0.31839
 C187 C 0.12455 0.18688 0.33087
 H188 H 0.12240 0.16244 0.30413
 H189 H 0.12171 0.19629 0.33788
 Cu190 Cu 0.15198 0.15195 0.32281
 Cu191 Cu 0.15138 0.17869 0.34905
 Cu192 Cu 0.17894 0.15112 0.34888
 N193 N 0.16738 0.13653 0.32274
 N194 N 0.17790 0.13626 0.33300
 C195 C 0.18692 0.12441 0.33059
 C196 C 0.18175 0.11676 0.31816
 C197 C 0.16930 0.12482 0.31349
 H198 H 0.19638 0.12150 0.33754
 H199 H 0.16221 0.12238 0.30403
 N200 N 0.17801 0.16714 0.36398
 N201 N 0.16754 0.17760 0.36406
 C202 C 0.16985 0.18669 0.37582
 C203 C 0.18236 0.18172 0.38357
 C204 C 0.18723 0.16930 0.37567
 H205 H 0.16280 0.19612 0.37863
 H206 H 0.19681 0.16235 0.37822
 H207 H 0.16835 0.16814 0.33741
 H208 H 0.15622 0.15607 0.34933
 N209 N 0.63687 0.32171 0.66750
 N210 N 0.63728 0.33190 0.67803
 C211 C 0.62514 0.33028 0.68685
 C212 C 0.61667 0.31836 0.68159
 C213 C 0.62453 0.31323 0.66926
 H214 H 0.62275 0.33721 0.69644
 H215 H 0.62177 0.30376 0.66229
 Cu216 Cu 0.65388 0.34602 0.67958
 Cu217 Cu 0.65281 0.31953 0.65289
 Cu218 Cu 0.68035 0.34674 0.65271
 N219 N 0.66818 0.36242 0.67785
 N220 N 0.67838 0.36270 0.66726
 C221 C 0.68698 0.37495 0.66892
 C222 C 0.68193 0.38287 0.68123
 C223 C 0.66993 0.37454 0.68659
 H224 H 0.69647 0.37761 0.66190
 H225 H 0.66301 0.37702 0.69619
 N226 N 0.67859 0.33144 0.63702
 N227 N 0.66807 0.32106 0.63711
 C228 C 0.66972 0.31234 0.62498
 C229 C 0.68191 0.31744 0.61682
 C230 C 0.68723 0.32960 0.62483
 H231 H 0.66264 0.30289 0.62239
 H232 H 0.69663 0.33668 0.62198
 H233 H 0.67005 0.32975 0.66434
 H234 H 0.65760 0.34217 0.65306
 N235 N 0.63642 0.82205 1.16691
 N236 N 0.63688 0.83221 1.17748
 C237 C 0.62509 0.83018 1.18669
 C238 C 0.61678 0.81807 1.18160
 C239 C 0.62439 0.81322 1.16902
 H240 H 0.62266 0.83710 1.19627
 H241 H 0.62149 0.80389 1.16193
 Cu242 Cu 0.65271 0.84723 1.17807
 Cu243 Cu 0.65125 0.82106 1.15105
 Cu244 Cu 0.67894 0.84817 1.15094
 N245 N 0.66805 0.86274 1.17736
 N246 N 0.67824 0.86300 1.16677
 C247 C 0.68731 0.87484 1.16884
 C248 C 0.68258 0.88253 1.18142
 C249 C 0.67029 0.87446 1.18653
 H250 H 0.69668 0.87757 1.16169
 H251 H 0.66340 0.87697 1.19613
 N252 N 0.67778 0.83223 1.13585
 N253 N 0.66722 0.82189 1.13591
 C254 C 0.66931 0.81274 1.12417
 C255 C 0.68179 0.81753 1.11628
 C256 C 0.68686 0.82993 1.12407
 H257 H 0.66227 0.80324 1.12161
 H258 H 0.69637 0.83690 1.12127
 H259 H 0.66856 0.83118 1.16263
 H260 H 0.65616 0.84370 1.15134
 N261 N 0.13731 0.32176 1.16800
 N262 N 0.13712 0.33247 1.17802
 C263 C 0.12472 0.33104 1.18649
 C264 C 0.11669 0.31869 1.18159
 C265 C 0.12509 0.31309 1.16980
 H266 H 0.12200 0.33826 1.19577
 H267 H 0.12266 0.30336 1.16307
 Cu268 Cu 0.15349 0.34673 1.17975
 Cu269 Cu 0.15382 0.31943 1.15398
 Cu270 Cu 0.17831 0.34948 1.15152
 N271 N 0.16770 0.36316 1.17848
 N272 N 0.17726 0.36427 1.16739
 C273 C 0.18576 0.37656 1.16934
 C274 C 0.18128 0.38361 1.18238
 C275 C 0.16975 0.37473 1.18786
 H276 H 0.19456 0.38003 1.16181
 H277 H 0.16340 0.37644 1.19799
 N278 N 0.17768 0.33326 1.13667
 N279 N 0.16851 0.32173 1.13772
 C280 C 0.17089 0.31252 1.12607
 C281 C 0.18217 0.31850 1.11722
 C282 C 0.18618 0.33166 1.12436
 H283 H 0.16475 0.30228 1.12418
 H284 H 0.19479 0.33946 1.12096
 H285 H 0.17072 0.33202 1.16411
 H286 H 0.15615 0.34225 1.15316
 N287 N 0.13721 0.82166 0.66759
 N288 N 0.13699 0.83224 0.67774
 C289 C 0.12461 0.83063 0.68622
 C290 C 0.11664 0.81830 0.68115
 C291 C 0.12503 0.81291 0.66928
 H292 H 0.12172 0.83783 0.69547
 H293 H 0.12273 0.80313 0.66259
 Cu294 Cu 0.15325 0.84667 0.67950
 Cu295 Cu 0.15371 0.81945 0.65358
 Cu296 Cu 0.17816 0.84949 0.65127
 N297 N 0.16760 0.86302 0.67833
 N298 N 0.17714 0.86417 0.66722
 C299 C 0.18571 0.87639 0.66923
 C300 C 0.18131 0.88338 0.68233
 C301 C 0.16975 0.87453 0.68778
 H302 H 0.19452 0.87985 0.66170
 H303 H 0.16343 0.87622 0.69793
 N304 N 0.17752 0.83338 0.63632
 N305 N 0.16837 0.82184 0.63733
 C306 C 0.17075 0.81268 0.62565
 C307 C 0.18204 0.81869 0.61682
 C308 C 0.18603 0.83184 0.62401
 H309 H 0.16463 0.80243 0.62374
 H310 H 0.19463 0.83966 0.62064
 H311 H 0.17054 0.83204 0.66384
 H312 H 0.15598 0.84229 0.65288
 N313 N 0.36323 0.67760 0.66709
 N314 N 0.36292 0.66748 0.67770
 C315 C 0.37468 0.66972 0.68688
 C316 C 0.38283 0.68190 0.68174
 C317 C 0.37515 0.68660 0.66915
 H318 H 0.37721 0.66286 0.69647
 H319 H 0.37793 0.69593 0.66201
 Cu320 Cu 0.34730 0.65222 0.67839
 Cu321 Cu 0.34831 0.67833 0.65127
 Cu322 Cu 0.32100 0.65083 0.65140
 N323 N 0.33215 0.63649 0.67782
 N324 N 0.32196 0.63604 0.66725
 C325 C 0.31307 0.62407 0.66937
 C326 C 0.31792 0.61650 0.68196
 C327 C 0.33008 0.62477 0.68703
 H328 H 0.30370 0.62118 0.66228
 H329 H 0.33703 0.62234 0.69660
 N330 N 0.32186 0.66674 0.63626
 N331 N 0.33228 0.67722 0.63620
 C332 C 0.32997 0.68630 0.62444
 C333 C 0.31748 0.68131 0.61667
 C334 C 0.31265 0.66888 0.62455
 H335 H 0.33699 0.69576 0.62167
 H336 H 0.30309 0.66190 0.62201
 H337 H 0.33121 0.66804 0.66297
 H338 H 0.34374 0.65565 0.65166
 N339 N 0.36411 0.17747 1.16666
 N340 N 0.36338 0.16781 1.17766
 C341 C 0.37507 0.17010 1.18692
 C342 C 0.38361 0.18186 1.18141
 C343 C 0.37624 0.18622 1.16852
 H344 H 0.37727 0.16359 1.19683
 H345 H 0.37930 0.19526 1.16113
 Cu346 Cu 0.34739 0.15299 1.17879
 Cu347 Cu 0.34912 0.17834 1.15095
 Cu348 Cu 0.31920 0.15379 1.15376
 N349 N 0.33256 0.13703 1.17756
 N350 N 0.32164 0.13740 1.16774
 C351 C 0.31279 0.12536 1.16960
 C352 C 0.31845 0.11687 1.18124
 C353 C 0.33105 0.12466 1.18600
 H354 H 0.30282 0.12317 1.16310
 H355 H 0.33855 0.12163 1.19499
 N356 N 0.32122 0.16838 1.13747
 N357 N 0.33272 0.17759 1.13626
 C358 C 0.33094 0.18598 1.12392
 C359 C 0.31769 0.18183 1.11697
 C360 C 0.31186 0.17059 1.12590
 H361 H 0.33877 0.19445 1.12024
 H362 H 0.30152 0.16451 1.12417
 H363 H 0.33214 0.17039 1.16398
 H364 H 0.34213 0.15614 1.15237
 N365 N 0.86366 0.67775 1.16705
 N366 N 0.86314 0.66744 1.17748
 C367 C 0.87470 0.66948 1.18693
 C368 C 0.88295 0.68175 1.18219
 C369 C 0.87555 0.68671 1.16952
 H370 H 0.87690 0.66259 1.19657
 H371 H 0.87862 0.69605 1.16251
 Cu372 Cu 0.84766 0.65214 1.17727
 Cu373 Cu 0.84886 0.67880 1.15100
 Cu374 Cu 0.81921 0.65359 1.15301
 N375 N 0.83222 0.63676 1.17704
 N376 N 0.82116 0.63736 1.16737
 C377 C 0.81202 0.62558 1.16948
 C378 C 0.81763 0.61704 1.18112
 C379 C 0.83050 0.62453 1.18563
 H380 H 0.80192 0.62355 1.16311
 H381 H 0.83810 0.62130 1.19444
 N382 N 0.82132 0.66843 1.13690
 N383 N 0.83260 0.67797 1.13606
 C384 C 0.83085 0.68647 1.12378
 C385 C 0.81790 0.68200 1.11647
 C386 C 0.81219 0.67051 1.12513
 H387 H 0.83852 0.69517 1.12033
 H388 H 0.80204 0.66420 1.12308
 H389 H 0.83207 0.66996 1.16362
 H390 H 0.84211 0.65654 1.15117
 N391 N 0.86333 0.17759 0.66644
 N392 N 0.86254 0.16805 0.67754
 C393 C 0.87418 0.17043 0.68683
 C394 C 0.88274 0.18215 0.68128
 C395 C 0.87543 0.18639 0.66830
 H396 H 0.87626 0.16404 0.69683
 H397 H 0.87851 0.19536 0.66083
 Cu398 Cu 0.84654 0.15327 0.67882
 Cu399 Cu 0.84843 0.17824 0.65063
 Cu400 Cu 0.81867 0.15350 0.65343
 N401 N 0.83190 0.13714 0.67756
 N402 N 0.82108 0.13728 0.66762
 C403 C 0.81233 0.12518 0.66954
 C404 C 0.81794 0.11688 0.68135
 C405 C 0.83042 0.12486 0.68614
 H406 H 0.80242 0.12284 0.66299
 H407 H 0.83783 0.12204 0.69525
 N408 N 0.82073 0.16793 0.63701
 N409 N 0.83214 0.17725 0.63583
 C410 C 0.83035 0.18557 0.62344
 C411 C 0.81720 0.18121 0.61642
 C412 C 0.81143 0.16997 0.62536
 H413 H 0.83808 0.19412 0.61977
 H414 H 0.80114 0.16381 0.62362
 H415 H 0.83134 0.17035 0.66355
 H416 H 0.84160 0.15603 0.65229
 N417 N 0.32153 0.36272 0.66787
 N418 N 0.33234 0.36278 0.67782
 C419 C 0.33100 0.37507 0.68638
 C420 C 0.31860 0.38316 0.68162
 C421 C 0.31287 0.37492 0.66982
 H422 H 0.33830 0.37768 0.69565
 H423 H 0.30308 0.37748 0.66317
 Cu424 Cu 0.34667 0.34642 0.67934
 Cu425 Cu 0.31909 0.34646 0.65366
 Cu426 Cu 0.34908 0.32185 0.65095
 N427 N 0.36298 0.33201 0.67795
 N428 N 0.36394 0.32256 0.66678
 C429 C 0.37615 0.31390 0.66860
 C430 C 0.38335 0.31814 0.68163
 C431 C 0.37461 0.32971 0.68726
 H432 H 0.37937 0.30502 0.66108
 H433 H 0.37656 0.33605 0.69733
 N434 N 0.33284 0.32277 0.63612
 N435 N 0.32130 0.33195 0.63725
 C436 C 0.31207 0.32972 0.62557
 C437 C 0.31807 0.31854 0.61663
 C438 C 0.33125 0.31442 0.62375
 H439 H 0.30180 0.33589 0.62367
 H440 H 0.33902 0.30580 0.62031
 H441 H 0.33165 0.32951 0.66370
 H442 H 0.34198 0.34400 0.65277
 N443 N 0.32114 0.86312 0.16693
 N444 N 0.33218 0.86366 0.17663
 C445 C 0.33049 0.87590 0.18523
 C446 C 0.31766 0.88345 0.18070
 C447 C 0.31203 0.87495 0.16904
 H448 H 0.33807 0.87909 0.19407
 H449 H 0.30195 0.87704 0.16266
 Cu450 Cu 0.34758 0.84824 0.17688
 Cu451 Cu 0.31917 0.84684 0.15259
 Cu452 Cu 0.34884 0.82159 0.15062
 N453 N 0.36310 0.83295 0.17710
 N454 N 0.36364 0.82265 0.16666
 C455 C 0.37555 0.81370 0.16914
 C456 C 0.38294 0.81868 0.18180
 C457 C 0.37466 0.83093 0.18655
 H458 H 0.37866 0.80436 0.16213
 H459 H 0.37684 0.83783 0.19620
 N460 N 0.33256 0.82241 0.13568
 N461 N 0.32124 0.83191 0.13653
 C462 C 0.31206 0.82971 0.12482
 C463 C 0.31779 0.81819 0.11618
 C464 C 0.33081 0.81384 0.12345
 H465 H 0.30187 0.83597 0.12282
 H466 H 0.33850 0.80513 0.12005
 H467 H 0.33199 0.83045 0.16319
 H468 H 0.34203 0.84385 0.15076
 N469 N 0.82132 0.36332 0.16796
 N470 N 0.83214 0.36344 0.17789
 C471 C 0.83074 0.37577 0.18643
 C472 C 0.81831 0.38380 0.18160
 C473 C 0.81264 0.37549 0.16983
 H474 H 0.83816 0.37859 0.19553
 H475 H 0.80271 0.37785 0.16332
 Cu476 Cu 0.84661 0.34716 0.17927
 Cu477 Cu 0.81872 0.34699 0.15393
 Cu478 Cu 0.84867 0.32246 0.15085
 N479 N 0.86282 0.33262 0.17775
 N480 N 0.86367 0.32320 0.16655
 C481 C 0.87588 0.31450 0.16827
 C482 C 0.88318 0.31867 0.18126
 C483 C 0.87451 0.33024 0.18698
 H484 H 0.87900 0.30559 0.16073
 H485 H 0.87658 0.33654 0.19706
 N486 N 0.83226 0.32335 0.13619
 N487 N 0.82073 0.33253 0.13751
 C488 C 0.81132 0.33035 0.12598
 C489 C 0.81714 0.31917 0.11695
 C490 C 0.83044 0.31502 0.12382
 H491 H 0.80093 0.33639 0.12438
 H492 H 0.83826 0.30656 0.12009
 H493 H 0.83151 0.33010 0.16386
 H494 H 0.84164 0.34459 0.15274
 N495 N 0.82139 0.86369 0.66778
 N496 N 0.83219 0.86377 0.67777
 C497 C 0.83048 0.87581 0.68666
 C498 C 0.81789 0.88369 0.68201
 C499 C 0.81244 0.87561 0.66999
 H500 H 0.83790 0.87867 0.69575
 H501 H 0.80256 0.87804 0.66343
 Cu502 Cu 0.84755 0.84822 0.67769
 Cu503 Cu 0.81946 0.84790 0.65292
 Cu504 Cu 0.84685 0.82044 0.65266
 N505 N 0.86298 0.83274 0.67759
 N506 N 0.86279 0.82209 0.66748
 C507 C 0.87468 0.81304 0.66957
 C508 C 0.88285 0.81828 0.68164
 C509 C 0.87505 0.83083 0.68644
 H510 H 0.87703 0.80324 0.66291
 H511 H 0.87802 0.83811 0.69560
 N512 N 0.83144 0.82219 0.63695
 N513 N 0.82098 0.83267 0.63707
 C514 C 0.81222 0.83102 0.62496
 C515 C 0.81734 0.81889 0.61678
 C516 C 0.82958 0.81360 0.62475
 H517 H 0.80271 0.83808 0.62240
 H518 H 0.83669 0.80423 0.62188
 H519 H 0.83048 0.83141 0.66463
 H520 H 0.84214 0.84307 0.65179
 N521 N 0.67759 0.63554 0.66686
 N522 N 0.66808 0.63646 0.67801
 C523 C 0.67036 0.62482 0.68728
 C524 C 0.68197 0.61612 0.68164
 C525 C 0.68626 0.62335 0.66864
 H526 H 0.66396 0.62283 0.69732
 H527 H 0.69518 0.62016 0.66111
 Cu528 Cu 0.65355 0.65267 0.67940
 Cu529 Cu 0.67835 0.65038 0.65107
 Cu530 Cu 0.65374 0.68029 0.65382
 N531 N 0.63732 0.66721 0.67803
 N532 N 0.63744 0.67798 0.66808
 C533 C 0.62527 0.68670 0.67006
 C534 C 0.61697 0.68108 0.68189
 C535 C 0.62501 0.66866 0.68663
 H536 H 0.62278 0.69646 0.66340
 H537 H 0.62233 0.66139 0.69587
 N538 N 0.66831 0.67810 0.63742
 N539 N 0.67750 0.66658 0.63627
 C540 C 0.68590 0.66818 0.62390
 C541 C 0.68181 0.68134 0.61682
 C542 C 0.67059 0.68732 0.62576
 H543 H 0.69454 0.66043 0.62044
 H544 H 0.66442 0.69757 0.62389
 H545 H 0.67064 0.66765 0.66391
 H546 H 0.65611 0.65747 0.65285
 N547 N 0.67810 0.13532 0.16697
 N548 N 0.66795 0.13570 0.17761
 C549 C 0.67020 0.12405 0.18687
 C550 C 0.68246 0.11591 0.18177
 C551 C 0.68716 0.12347 0.16910
 H552 H 0.66330 0.12158 0.19648
 H553 H 0.69652 0.12067 0.16194
 Cu554 Cu 0.65256 0.15116 0.17777
 Cu555 Cu 0.67891 0.15023 0.15113
 Cu556 Cu 0.65387 0.17990 0.15385
 N557 N 0.63722 0.16669 0.17795
 N558 N 0.63775 0.17787 0.16846
 C559 C 0.62596 0.18698 0.17086
 C560 C 0.61748 0.18121 0.18252
 C561 C 0.62503 0.16829 0.18671
 H562 H 0.62377 0.19702 0.16450
 H563 H 0.62198 0.16065 0.19554
 N564 N 0.66863 0.17797 0.13752
 N565 N 0.67797 0.16655 0.13639
 C566 C 0.68635 0.16824 0.12402
 C567 C 0.68211 0.18134 0.11694
 C568 C 0.67080 0.18719 0.12585
 H569 H 0.69507 0.16058 0.12055
 H570 H 0.66446 0.19732 0.12389
 H571 H 0.67026 0.16685 0.16412
 H572 H 0.65656 0.15717 0.15169
 N573 N 0.17758 0.63609 0.16637
 N574 N 0.16745 0.63655 0.17701
 C575 C 0.16970 0.62494 0.18633
 C576 C 0.18189 0.61673 0.18121
 C577 C 0.18658 0.62420 0.16851
 H578 H 0.16285 0.62252 0.19597
 H579 H 0.19599 0.62136 0.16142
 Cu580 Cu 0.15213 0.65210 0.17709
 Cu581 Cu 0.17855 0.65088 0.15046
 Cu582 Cu 0.15361 0.68062 0.15287
 N583 N 0.13684 0.66769 0.17709
 N584 N 0.13743 0.67871 0.16742
 C585 C 0.12567 0.68790 0.16964
 C586 C 0.11717 0.68237 0.18136
 C587 C 0.12464 0.66950 0.18581
 H588 H 0.12361 0.69799 0.16331
 H589 H 0.12139 0.66196 0.19464
 N590 N 0.16837 0.67849 0.13659
 N591 N 0.17774 0.66709 0.13562
 C592 C 0.18623 0.66872 0.12332
 C593 C 0.18203 0.68178 0.11610
 C594 C 0.17064 0.68766 0.12489
 H595 H 0.19496 0.66102 0.11998
 H596 H 0.16436 0.69781 0.12291
 H597 H 0.16995 0.66764 0.16334
 H598 H 0.15625 0.65785 0.15096
 N599 N 0.17758 0.13590 0.66733
 N600 N 0.16723 0.13624 0.67776
 C601 C 0.16929 0.12454 0.68699
 C602 C 0.18163 0.11642 0.68213
 C603 C 0.18660 0.12402 0.66959
 H604 H 0.16238 0.12222 0.69662
 H605 H 0.19597 0.12109 0.66250
 Cu606 Cu 0.15197 0.15183 0.67826
 Cu607 Cu 0.17855 0.15080 0.65156
 Cu608 Cu 0.15108 0.17831 0.65155
 N609 N 0.13636 0.16706 0.67773
 N610 N 0.13609 0.17741 0.66734
 C611 C 0.12417 0.18641 0.66961
 C612 C 0.11647 0.18141 0.68210
 C613 C 0.12458 0.16909 0.68693
 H614 H 0.12123 0.19576 0.66256
 H615 H 0.12218 0.16220 0.69652
 N616 N 0.16721 0.17731 0.63650
 N617 N 0.17765 0.16683 0.63651
 C618 C 0.18689 0.16904 0.62483
 C619 C 0.18206 0.18152 0.61703
 C620 C 0.16955 0.18647 0.62481
 H621 H 0.19648 0.16209 0.62226
 H622 H 0.16253 0.19594 0.62207
 H623 H 0.16815 0.16790 0.66320
 H624 H 0.15580 0.15566 0.65160
 N625 N 0.32254 0.63621 0.33297
 N626 N 0.33229 0.63724 0.32202
 C627 C 0.33026 0.62568 0.31261
 C628 C 0.31856 0.61694 0.31790
 C629 C 0.31394 0.62402 0.33087
 H630 H 0.33674 0.62387 0.30257
 H631 H 0.30501 0.62058 0.33827
 Cu632 Cu 0.34678 0.65345 0.32100
 Cu633 Cu 0.32147 0.65089 0.34891
 Cu634 Cu 0.34592 0.68093 0.34668
 N635 N 0.36282 0.66812 0.32267
 N636 N 0.36244 0.67881 0.33270
 C637 C 0.37453 0.68766 0.33097
 C638 C 0.38303 0.68222 0.31919
 C639 C 0.37521 0.66977 0.31422
 H640 H 0.37672 0.69752 0.33759
 H641 H 0.37822 0.66248 0.30508
 N642 N 0.33121 0.67853 0.36288
 N643 N 0.32206 0.66699 0.36386
 C644 C 0.31355 0.66851 0.37618
 C645 C 0.31755 0.68164 0.38339
 C646 C 0.32884 0.68766 0.37458
 H647 H 0.30497 0.66067 0.37954
 H648 H 0.33496 0.69791 0.37652
 H649 H 0.32928 0.66820 0.33627
 H650 H 0.34369 0.65806 0.34754
 N651 N 0.32101 0.13684 0.83278
 N652 N 0.33203 0.13628 0.82304
 C653 C 0.33036 0.12400 0.81450
 C654 C 0.31758 0.11644 0.81914
 C655 C 0.31194 0.12498 0.83077
 H656 H 0.33794 0.12075 0.80566
 H657 H 0.30190 0.12288 0.83721
 Cu658 Cu 0.34743 0.15170 0.82280
 Cu659 Cu 0.31898 0.15311 0.84710
 Cu660 Cu 0.34859 0.17835 0.84908
 N661 N 0.36291 0.16703 0.82258
 N662 N 0.36339 0.17732 0.83304
 C663 C 0.37526 0.18631 0.83060
 C664 C 0.38271 0.18137 0.81794
 C665 C 0.37451 0.16909 0.81316
 H666 H 0.37831 0.19563 0.83764
 H667 H 0.37677 0.16220 0.80352
 N668 N 0.33232 0.17751 0.86403
 N669 N 0.32101 0.16800 0.86318
 C670 C 0.31182 0.17018 0.87490
 C671 C 0.31753 0.18169 0.88355
 C672 C 0.33054 0.18606 0.87627
 H673 H 0.30164 0.16391 0.87691
 H674 H 0.33822 0.19476 0.87969
 H675 H 0.33180 0.16949 0.83648
 H676 H 0.34185 0.15609 0.84892
 N677 N 0.82224 0.63566 0.83338
 N678 N 0.83245 0.63581 0.82280
 C679 C 0.83007 0.62413 0.81361
 C680 C 0.81768 0.61620 0.81870
 C681 C 0.81302 0.62393 0.83129
 H682 H 0.83694 0.62155 0.80403
 H683 H 0.80357 0.62133 0.83839
 Cu684 Cu 0.84806 0.65102 0.82238
 Cu685 Cu 0.82151 0.65070 0.84907
 Cu686 Cu 0.84674 0.68006 0.84612
 N687 N 0.86348 0.66643 0.82234
 N688 N 0.86292 0.67770 0.83172
 C689 C 0.87471 0.68677 0.82931
 C690 C 0.88324 0.68089 0.81776
 C691 C 0.87572 0.66794 0.81364
 H692 H 0.87687 0.69688 0.83557
 H693 H 0.87879 0.66030 0.80483
 N694 N 0.83205 0.67838 0.86245
 N695 N 0.82257 0.66711 0.86368
 C696 C 0.81418 0.66907 0.87603
 C697 C 0.81863 0.68218 0.88297
 C698 C 0.83002 0.68775 0.87403
 H699 H 0.80554 0.66144 0.87973
 H700 H 0.83631 0.69794 0.87574
 H701 H 0.83031 0.66699 0.83578
 H702 H 0.84392 0.65729 0.84840
 N703 N 0.82192 0.13582 0.33330
 N704 N 0.83213 0.13600 0.32274
 C705 C 0.82995 0.12419 0.31367
 C706 C 0.81767 0.11614 0.31881
 C707 C 0.81288 0.12393 0.33131
 H708 H 0.83688 0.12159 0.30413
 H709 H 0.80349 0.12123 0.33845
 Cu710 Cu 0.84743 0.15151 0.32191
 Cu711 Cu 0.82118 0.15082 0.34899
 Cu712 Cu 0.84883 0.17803 0.34857
 N713 N 0.86316 0.16662 0.32223
 N714 N 0.86361 0.17693 0.33265
 C715 C 0.87554 0.18585 0.33030
 C716 C 0.88306 0.18089 0.31769
 C717 C 0.87483 0.16863 0.31288
 H718 H 0.87856 0.19516 0.33736
 H719 H 0.87710 0.16174 0.30324
 N720 N 0.83290 0.17727 0.36377
 N721 N 0.82234 0.16693 0.36392
 C722 C 0.81324 0.16935 0.37568
 C723 C 0.81832 0.18181 0.38335
 C724 C 0.83081 0.18653 0.37543
 H725 H 0.80374 0.16240 0.37854
 H726 H 0.83782 0.19607 0.37790
 H727 H 0.83153 0.16771 0.33714
 H728 H 0.84394 0.15538 0.34859
 N729 N 0.67830 0.36394 0.33296
 N730 N 0.66829 0.36345 0.32222
 C731 C 0.66996 0.37560 0.31349
 C732 C 0.68171 0.38416 0.31903
 C733 C 0.68670 0.37635 0.33142
 H734 H 0.66318 0.37791 0.30377
 H735 H 0.69602 0.37918 0.33859
 Cu736 Cu 0.65440 0.34673 0.32034
 Cu737 Cu 0.68040 0.34799 0.34749
 Cu738 Cu 0.65338 0.32023 0.34702
 N739 N 0.63783 0.33258 0.32187
 N740 N 0.63744 0.32234 0.33236
 C741 C 0.62512 0.31382 0.33055
 C742 C 0.61727 0.31898 0.31823
 C743 C 0.62571 0.33096 0.31305
 H744 H 0.62224 0.30447 0.33762
 H745 H 0.62341 0.33780 0.30338
 N746 N 0.66858 0.32194 0.36289
 N747 N 0.67883 0.33259 0.36309
 C748 C 0.68745 0.33090 0.37529
 C749 C 0.68245 0.31854 0.38317
 C750 C 0.67044 0.31316 0.37494
 H751 H 0.69682 0.33803 0.37811
 H752 H 0.66348 0.30362 0.37759
 H753 H 0.67059 0.33072 0.33584
 H754 H 0.65775 0.34290 0.34692
 N755 N 0.67829 0.86355 0.83298
 N756 N 0.66816 0.86333 0.82235
 C757 C 0.66995 0.87552 0.81370
 C758 C 0.68192 0.88383 0.81918
 C759 C 0.68689 0.87581 0.83146
 H760 H 0.66310 0.87805 0.80408
 H761 H 0.69632 0.87844 0.83857
 Cu762 Cu 0.65390 0.84691 0.82044
 Cu763 Cu 0.68017 0.84743 0.84740
 Cu764 Cu 0.65269 0.82013 0.84681
 N765 N 0.63723 0.83285 0.82181
 N766 N 0.63679 0.82247 0.83217
 C767 C 0.62444 0.81403 0.83022
 C768 C 0.61663 0.81938 0.81796
 C769 C 0.62511 0.83140 0.81295
 H770 H 0.62149 0.80459 0.83716
 H771 H 0.62286 0.83834 0.80335
 N772 N 0.66795 0.82150 0.86267
 N773 N 0.67841 0.83193 0.86289
 C774 C 0.68708 0.82995 0.87503
 C775 C 0.68185 0.81763 0.88287
 C776 C 0.66967 0.81260 0.87465
 H777 H 0.69646 0.83702 0.87795
 H778 H 0.66264 0.80307 0.87711
 H779 H 0.66998 0.83048 0.83560
 H780 H 0.65743 0.84275 0.84694
 N781 N 0.17852 0.36278 0.83303
 N782 N 0.16779 0.36305 0.82300
 C783 C 0.16948 0.37531 0.81443
 C784 C 0.18198 0.38315 0.81934
 C785 C 0.18741 0.37480 0.83119
 H786 H 0.16216 0.37825 0.80528
 H787 H 0.19729 0.37706 0.83783
 Cu788 Cu 0.15290 0.34715 0.82163
 Cu789 Cu 0.18063 0.34652 0.84724
 Cu790 Cu 0.15065 0.32201 0.84959
 N791 N 0.13677 0.33248 0.82269
 N792 N 0.13587 0.32286 0.83371
 C793 C 0.12371 0.31417 0.83175
 C794 C 0.11647 0.31855 0.81879
 C795 C 0.12514 0.33024 0.81334
 H796 H 0.12053 0.30519 0.83917
 H797 H 0.12312 0.33672 0.80337
 N798 N 0.16678 0.32277 0.86453
 N799 N 0.17833 0.33194 0.86353
 C800 C 0.18749 0.32964 0.87525
 C801 C 0.18146 0.31840 0.88408
 C802 C 0.16832 0.31434 0.87686
 H803 H 0.19774 0.33580 0.87723
 H804 H 0.16052 0.30573 0.88020
 H805 H 0.16793 0.32990 0.83683
 H806 H 0.15768 0.34420 0.84815
 N807 N 0.17875 0.86364 0.33284
 N808 N 0.16795 0.86396 0.32286
 C809 C 0.16982 0.87604 0.31408
 C810 C 0.18251 0.88371 0.31879
 C811 C 0.18786 0.87545 0.33074
 H812 H 0.16246 0.87905 0.30499
 H813 H 0.19775 0.87770 0.33734
 Cu814 Cu 0.15241 0.84861 0.32271
 Cu815 Cu 0.18048 0.84765 0.34750
 Cu816 Cu 0.15299 0.82033 0.34722
 N817 N 0.13694 0.83321 0.32256
 N818 N 0.13710 0.82228 0.33237
 C819 C 0.12523 0.81329 0.32996
 C820 C 0.11710 0.81887 0.31801
 C821 C 0.12491 0.83155 0.31362
 H822 H 0.12271 0.80346 0.33651
 H823 H 0.12216 0.83894 0.30448
 N824 N 0.16833 0.82178 0.36304
 N825 N 0.17881 0.83223 0.36312
 C826 C 0.18748 0.83041 0.37527
 C827 C 0.18228 0.81820 0.38326
 C828 C 0.17009 0.81304 0.37514
 H829 H 0.19698 0.83741 0.37800
 H830 H 0.16294 0.80367 0.37787
 H831 H 0.16938 0.83145 0.33542
 H832 H 0.15775 0.84291 0.34850
 C833 C 0.24422 1.04724 0.25449
 C834 C 0.25561 1.04726 0.24423
 C835 C 0.25950 1.03242 0.24182
 N836 N 0.25087 1.02340 0.25035
 C837 C 0.24151 1.03240 0.25812
 C838 C 0.27056 1.02762 0.23151
 C839 C 0.27396 1.01247 0.22820
 C840 C 0.28358 1.00794 0.21689
 C841 C 0.28352 0.99257 0.21681
 C842 C 0.27385 0.98803 0.22808
 N843 N 0.26834 1.00025 0.23516
 C844 C 0.27040 0.97288 0.23132
 C845 C 0.25944 0.96808 0.24172
 C846 C 0.25590 0.95322 0.24447
 C847 C 0.24462 0.95321 0.25485
 C848 C 0.24151 0.96807 0.25810
 N849 N 0.25062 0.97709 0.25008
 C850 C 0.23082 0.97287 0.26878
 C851 C 0.22785 0.98803 0.27242
 C852 C 0.21890 0.99259 0.28426
 C853 C 0.21892 1.00795 0.28425
 C854 C 0.22782 1.01245 0.27238
 N855 N 0.23300 1.00024 0.26507
 C856 C 0.23079 1.02760 0.26875
 H857 H 0.23858 1.05708 0.25877
 H858 H 0.26034 1.05710 0.23901
 H859 H 0.23868 1.00024 0.25500
 H860 H 0.28988 1.01497 0.20931
 H861 H 0.28977 0.98555 0.20917
 H862 H 0.26088 0.94336 0.23951
 H863 H 0.23940 0.94333 0.25952
 H864 H 0.21312 1.01501 0.29220
 H865 H 0.26182 1.00023 0.24468
 H866 H 0.21303 0.98560 0.29219
 C867 C 0.24391 0.54664 0.75488
 C868 C 0.25532 0.54661 0.74465
 C869 C 0.25923 0.53177 0.74230
 N870 N 0.25055 0.52278 0.75082
 C871 C 0.24118 0.53182 0.75854
 C872 C 0.27028 0.52693 0.73199
 C873 C 0.27353 0.51175 0.72862
 C874 C 0.28292 0.50717 0.71714
 C875 C 0.28277 0.49180 0.71706
 C876 C 0.27338 0.48731 0.72856
 N877 N 0.26802 0.49955 0.73572
 C878 C 0.27007 0.47217 0.73195
 C879 C 0.25917 0.46741 0.74245
 C880 C 0.25622 0.45257 0.74588
 C881 C 0.24486 0.45261 0.75619
 C882 C 0.24122 0.46747 0.75880
 N883 N 0.25000 0.47646 0.75039
 C884 C 0.23034 0.47232 0.76928
 C885 C 0.22720 0.48751 0.77273
 C886 C 0.21804 0.49210 0.78440
 C887 C 0.21811 0.50747 0.78439
 C888 C 0.22724 0.51194 0.77268
 N889 N 0.23251 0.49969 0.76547
 C890 C 0.23036 0.52707 0.76911
 H891 H 0.23824 0.55649 0.75908
 H892 H 0.26002 0.55645 0.73938
 H893 H 0.23847 0.49968 0.75557
 H894 H 0.28911 0.51414 0.70943
 H895 H 0.28879 0.48475 0.70927
 H896 H 0.26171 0.44269 0.74150
 H897 H 0.24003 0.44277 0.76132
 H898 H 0.21222 0.51454 0.79226
 H899 H 0.26177 0.49956 0.74544
 H900 H 0.21204 0.48512 0.79225
 C901 C 0.74474 0.04612 0.24510
 C902 C 0.75607 0.04612 0.25541
 C903 C 0.75928 0.03126 0.25852
 N904 N 0.75021 0.02224 0.25047
 C905 C 0.74129 0.03126 0.24225
 C906 C 0.77008 0.02645 0.26908
 C907 C 0.77320 0.01130 0.27261
 C908 C 0.78231 0.00677 0.28432
 C909 C 0.78236 -0.00860 0.28428
 C910 C 0.77329 -0.01313 0.27255
 N911 N 0.76801 -0.00091 0.26531
 C912 C 0.77027 -0.02828 0.26896
 C913 C 0.75955 -0.03309 0.25834
 C914 C 0.75642 -0.04795 0.25516
 C915 C 0.74510 -0.04794 0.24483
 C916 C 0.74160 -0.03308 0.24202
 N917 N 0.75046 -0.02406 0.25030
 C918 C 0.73065 -0.02827 0.23162
 C919 C 0.72729 -0.01313 0.22829
 C920 C 0.71777 -0.00860 0.21690
 C921 C 0.71767 0.00676 0.21697
 C922 C 0.72715 0.01131 0.22838
 N923 N 0.73269 -0.00091 0.23542
 C924 C 0.73036 0.02647 0.23182
 H925 H 0.73970 0.05600 0.24023
 H926 H 0.76127 0.05599 0.26011
 H927 H 0.73899 -0.00092 0.24509
 H928 H 0.78824 0.01379 0.29219
 H929 H 0.78832 -0.01562 0.29213
 H930 H 0.76167 -0.05781 0.25984
 H931 H 0.74007 -0.05781 0.23992
 H932 H 0.71141 0.01377 0.20934
 H933 H 0.76215 -0.00090 0.25536
 H934 H 0.71163 -0.01563 0.20920
 C935 C 0.74553 0.45229 0.74401
 C936 C 0.75678 0.45233 0.75441
 C937 C 0.75955 0.46719 0.75792
 N938 N 0.75030 0.47617 0.75001
 C939 C 0.74169 0.46712 0.74148
 C940 C 0.77002 0.47203 0.76877
 C941 C 0.77281 0.48719 0.77249
 C942 C 0.78151 0.49175 0.78449
 C943 C 0.78145 0.50712 0.78449
 C944 C 0.77269 0.51162 0.77251
 N945 N 0.76774 0.49939 0.76508
 C946 C 0.76975 0.52676 0.76879
 C947 C 0.75916 0.53152 0.75802
 C948 C 0.75618 0.54637 0.75460
 C949 C 0.74490 0.54633 0.74424
 C950 C 0.74123 0.53148 0.74166
 N951 N 0.74998 0.52249 0.75011
 C952 C 0.73016 0.52664 0.73139
 C953 C 0.72680 0.51147 0.72811
 C954 C 0.71689 0.50690 0.71708
 C955 C 0.71702 0.49152 0.71703
 C956 C 0.72699 0.48703 0.72803
 N957 N 0.73266 0.49927 0.73491
 C958 C 0.73057 0.47189 0.73122
 H959 H 0.74077 0.44242 0.73887
 H960 H 0.76222 0.44250 0.75894
 H961 H 0.73950 0.49928 0.74418
 H962 H 0.78726 0.48475 0.79250
 H963 H 0.78715 0.51416 0.79250
 H964 H 0.76149 0.55625 0.75916
 H965 H 0.74002 0.55618 0.73917
 H966 H 0.71057 0.48448 0.70959
 H967 H 0.76229 0.49937 0.75489
 H968 H 0.71033 0.51389 0.70969
 C969 C 0.24610 0.54725 0.24333
 C970 C 0.25661 0.54722 0.25447
 C971 C 0.25883 0.53239 0.25846
 N972 N 0.24997 0.52342 0.25013
 C973 C 0.24214 0.53245 0.24088
 C974 C 0.26926 0.52755 0.26936
 C975 C 0.27258 0.51239 0.27269
 C976 C 0.28409 0.50782 0.28207
 C977 C 0.28407 0.49245 0.28204
 C978 C 0.27250 0.48796 0.27271
 N979 N 0.26541 0.50020 0.26726
 C980 C 0.26903 0.47282 0.26948
 C981 C 0.25846 0.46806 0.25867
 C982 C 0.25514 0.45322 0.25558
 C983 C 0.24467 0.45326 0.24442
 C984 C 0.24179 0.46814 0.24107
 N985 N 0.25024 0.47712 0.24980
 C986 C 0.23096 0.47300 0.23058
 C987 C 0.22730 0.48815 0.22770
 C988 C 0.21512 0.49272 0.21919
 C989 C 0.21513 0.50808 0.21923
 C990 C 0.22736 0.51256 0.22770
 N991 N 0.23486 0.50033 0.23261
 C992 C 0.23116 0.52770 0.23051
 H993 H 0.24191 0.55709 0.23767
 H994 H 0.26212 0.55703 0.25896
 H995 H 0.24517 0.50031 0.23795
 H996 H 0.29188 0.51481 0.28816
 H997 H 0.29186 0.48539 0.28808
 H998 H 0.25972 0.44333 0.26085
 H999 H 0.23958 0.44342 0.23953
 H1000 H 0.20694 0.51515 0.21376
 H1001 H 0.25568 0.50022 0.26098
 H1002 H 0.20692 0.48572 0.21366
 C1003 C 0.74404 1.04757 0.75518
 C1004 C 0.75539 1.04753 0.74487
 C1005 C 0.75930 1.03268 0.74255
 N1006 N 0.75070 1.02371 0.75116
 C1007 C 0.74135 1.03275 0.75889
 C1008 C 0.77036 1.02783 0.73225
 C1009 C 0.77383 1.01265 0.72911
 C1010 C 0.78351 1.00806 0.71788
 C1011 C 0.78353 0.99269 0.71798
 C1012 C 0.77385 0.98822 0.72925
 N1013 N 0.76825 1.00048 0.73617
 C1014 C 0.77046 0.97308 0.73263
 C1015 C 0.75946 0.96833 0.74303
 C1016 C 0.75588 0.95349 0.74581
 C1017 C 0.74455 0.95354 0.75615
 C1018 C 0.74147 0.96841 0.75935
 N1019 N 0.75064 0.97739 0.75134
 C1020 C 0.73073 0.97327 0.76997
 C1021 C 0.72778 0.98845 0.77354
 C1022 C 0.71882 0.99308 0.78534
 C1023 C 0.71882 1.00846 0.78523
 C1024 C 0.72774 1.01288 0.77334
 N1025 N 0.73293 1.00061 0.76612
 C1026 C 0.73065 1.02801 0.76956
 H1027 H 0.73842 1.05743 0.75943
 H1028 H 0.76011 1.05735 0.73959
 H1029 H 0.73860 1.00055 0.75605
 H1030 H 0.78980 1.01503 0.71025
 H1031 H 0.78986 0.98563 0.71044
 H1032 H 0.76084 0.94360 0.74088
 H1033 H 0.73928 0.94369 0.76082
 H1034 H 0.71299 1.01556 0.79312
 H1035 H 0.76167 1.00052 0.74566
 H1036 H 0.71294 0.98614 0.79331
 C1037 C 0.74397 0.54754 0.25460
 C1038 C 0.75533 0.54747 0.24429
 C1039 C 0.75917 0.53261 0.24194
 N1040 N 0.75054 0.52366 0.25053
 C1041 C 0.74123 0.53272 0.25829
 C1042 C 0.77019 0.52773 0.23162
 C1043 C 0.77363 0.51256 0.22847
 C1044 C 0.78321 0.50796 0.21715
 C1045 C 0.78327 0.49259 0.21728
 C1046 C 0.77370 0.48813 0.22866
 N1047 N 0.76814 0.50039 0.23561
 C1048 C 0.77039 0.47300 0.23211
 C1049 C 0.75943 0.46826 0.24255
 C1050 C 0.75595 0.45343 0.24547
 C1051 C 0.74459 0.45350 0.25576
 C1052 C 0.74138 0.46838 0.25880
 N1053 N 0.75050 0.47734 0.25073
 C1054 C 0.73055 0.47325 0.26933
 C1055 C 0.72753 0.48844 0.27283
 C1056 C 0.71847 0.49307 0.28456
 C1057 C 0.71849 0.50844 0.28447
 C1058 C 0.72750 0.51287 0.27265
 N1059 N 0.73274 0.50060 0.26546
 C1060 C 0.73050 0.52800 0.26895
 H1061 H 0.73838 0.55741 0.25885
 H1062 H 0.76008 0.55728 0.23903
 H1063 H 0.73853 0.50053 0.25545
 H1064 H 0.78941 0.51493 0.20944
 H1065 H 0.78953 0.48553 0.20970
 H1066 H 0.76101 0.44353 0.24065
 H1067 H 0.73938 0.44366 0.26051
 H1068 H 0.71263 0.51554 0.29233
 H1069 H 0.76171 0.50046 0.24520
 H1070 H 0.71253 0.48613 0.29249
 C1071 C 0.25540 0.04671 0.75624
 C1072 C 0.24504 0.04680 0.74498
 C1073 C 0.24238 0.03197 0.74124
 N1074 N 0.25087 0.02288 0.74985
 C1075 C 0.25885 0.03184 0.75902
 C1076 C 0.23179 0.02724 0.73046
 C1077 C 0.22825 0.01211 0.72729
 C1078 C 0.21636 0.00762 0.71835
 C1079 C 0.21635 -0.00775 0.71831
 C1080 C 0.22825 -0.01231 0.72718
 N1081 N 0.23562 -0.00013 0.73238
 C1082 C 0.23181 -0.02748 0.73020
 C1083 C 0.24260 -0.03234 0.74072
 C1084 C 0.24547 -0.04722 0.74405
 C1085 C 0.25597 -0.04729 0.75519
 C1086 C 0.25928 -0.03245 0.75829
 N1087 N 0.25109 -0.02337 0.74941
 C1088 C 0.26994 -0.02770 0.76897
 C1089 C 0.27355 -0.01257 0.77202
 C1090 C 0.28565 -0.00809 0.78067
 C1091 C 0.28553 0.00728 0.78086
 C1092 C 0.27336 0.01182 0.77233
 N1093 N 0.26597 -0.00036 0.76716
 C1094 C 0.26954 0.02697 0.76964
 H1095 H 0.25988 0.05652 0.76173
 H1096 H 0.23991 0.05669 0.74022
 H1097 H 0.25570 -0.00035 0.76172
 H1098 H 0.20834 0.01466 0.71262
 H1099 H 0.20832 -0.01475 0.71253
 H1100 H 0.24042 -0.05705 0.73910
 H1101 H 0.26063 -0.05718 0.76039
 H1102 H 0.29366 0.01432 0.78646
 H1103 H 0.24566 -0.00016 0.73819
 H1104 H 0.29387 -0.01517 0.78609
 C1105 C 0.24437 0.25523 1.04725
 C1106 C 0.25564 0.24480 1.04720
 C1107 C 0.25903 0.24193 1.03238
 N1108 N 0.25014 0.25027 1.02343
 C1109 C 0.24113 0.25839 1.03246
 C1110 C 0.26994 0.23144 1.02755
 C1111 C 0.27327 0.22809 1.01245
 C1112 C 0.28289 0.21676 1.00790
 C1113 C 0.28289 0.21679 0.99258
 C1114 C 0.27326 0.22815 0.98810
 N1115 N 0.26771 0.23516 1.00030
 C1116 C 0.26983 0.23147 0.97302
 C1117 C 0.25881 0.24187 0.96828
 C1118 C 0.25482 0.24423 0.95352
 C1119 C 0.24353 0.25464 0.95357
 C1120 C 0.24097 0.25840 0.96835
 N1121 N 0.25031 0.25056 0.97729
 C1122 C 0.23036 0.26918 0.97317
 C1123 C 0.22740 0.27281 0.98828
 C1124 C 0.21850 0.28472 0.99282
 C1125 C 0.21845 0.28466 1.00813
 C1126 C 0.22741 0.27277 1.01262
 N1127 N 0.23256 0.26544 1.00043
 C1128 C 0.23039 0.26909 1.02772
 H1129 H 0.23926 0.26001 1.05712
 H1130 H 0.26072 0.23990 1.05701
 H1131 H 0.23824 0.25533 1.00039
 H1132 H 0.28917 0.20911 1.01487
 H1133 H 0.28917 0.20917 0.98557
 H1134 H 0.25942 0.23888 0.94369
 H1135 H 0.23785 0.25890 0.94379
 H1136 H 0.21257 0.29260 1.01512
 H1137 H 0.26120 0.24473 1.00034
 H1138 H 0.21270 0.29272 0.98583
 C1139 C 0.24455 0.75572 0.54702
 C1140 C 0.25577 0.74524 0.54701
 C1141 C 0.25890 0.74201 0.53221
 N1142 N 0.24989 0.75017 0.52322
 C1143 C 0.24107 0.75856 0.53221
 C1144 C 0.26958 0.73127 0.52742
 C1145 C 0.27260 0.72763 0.51232
 C1146 C 0.28174 0.71589 0.50781
 C1147 C 0.28171 0.71585 0.49250
 C1148 C 0.27254 0.72755 0.48798
 N1149 N 0.26730 0.73486 0.50014
 C1150 C 0.26945 0.73111 0.47288
 C1151 C 0.25868 0.74175 0.46809
 C1152 C 0.25546 0.74485 0.45328
 C1153 C 0.24419 0.75528 0.45328
 C1154 C 0.24078 0.75822 0.46809
 N1155 N 0.24967 0.74993 0.47708
 C1156 C 0.22990 0.76877 0.47287
 C1157 C 0.22673 0.77230 0.48798
 C1158 C 0.21725 0.78377 0.49249
 C1159 C 0.21734 0.78386 0.50780
 C1160 C 0.22686 0.77245 0.51233
 N1161 N 0.23229 0.76528 0.50016
 C1162 C 0.23017 0.76907 0.52743
 H1163 H 0.23958 0.76071 0.55685
 H1164 H 0.26094 0.74049 0.55685
 H1165 H 0.23859 0.75557 0.50017
 H1166 H 0.28778 0.70807 0.51480
 H1167 H 0.28772 0.70798 0.48551
 H1168 H 0.26061 0.74006 0.44345
 H1169 H 0.23916 0.76018 0.44344
 H1170 H 0.21114 0.79158 0.51479
 H1171 H 0.26140 0.74483 0.50013
 H1172 H 0.21097 0.79140 0.48550
 C1173 C 0.25494 0.75613 -0.04734
 C1174 C 0.24355 0.74584 -0.04736
 C1175 C 0.24099 0.74198 -0.03261
 N1176 N 0.25046 0.74961 -0.02363
 C1177 C 0.25901 0.75829 -0.03257
 C1178 C 0.23031 0.73126 -0.02787
 C1179 C 0.22739 0.72752 -0.01279
 C1180 C 0.21850 0.71559 -0.00834
 C1181 C 0.21846 0.71556 0.00698
 C1182 C 0.22738 0.72743 0.01155
 N1183 N 0.23254 0.73483 -0.00060
 C1184 C 0.23031 0.73107 0.02667
 C1185 C 0.24105 0.74171 0.03148
 C1186 C 0.24415 0.74493 0.04630
 C1187 C 0.25549 0.75526 0.04633
 C1188 C 0.25909 0.75802 0.03154
 N1189 N 0.25024 0.74970 0.02253
 C1190 C 0.27017 0.76835 0.02678
 C1191 C 0.27366 0.77161 0.01170
 C1192 C 0.28360 0.78269 0.00722
 C1193 C 0.28365 0.78269 -0.00810
 C1194 C 0.27372 0.77163 -0.01265
 N1195 N 0.26794 0.76475 -0.00050
 C1196 C 0.27021 0.76847 -0.02776
 H1197 H 0.25956 0.76152 -0.05712
 H1198 H 0.23780 0.74171 -0.05716
 H1199 H 0.26110 0.75543 -0.00052
 H1200 H 0.21271 0.70764 -0.01538
 H1201 H 0.21257 0.70759 0.01392
 H1202 H 0.23889 0.74025 0.05612
 H1203 H 0.26049 0.76018 0.05617
 H1204 H 0.29015 0.79015 -0.01507
 H1205 H 0.23816 0.74496 -0.00057
 H1206 H 0.29006 0.79013 0.01423
 C1207 C 0.24500 0.24399 0.45355
 C1208 C 0.25627 0.25440 0.45353
 C1209 C 0.25908 0.25798 0.46832
 N1210 N 0.24980 0.25013 0.47730
 C1211 C 0.24117 0.24153 0.46834
 C1212 C 0.26957 0.26889 0.47307
 C1213 C 0.27221 0.27282 0.48817
 C1214 C 0.28066 0.28506 0.49267
 C1215 C 0.28051 0.28518 0.50798
 C1216 C 0.27205 0.27297 0.51250
 N1217 N 0.26725 0.26536 0.50035
 C1218 C 0.26927 0.26921 0.52760
 C1219 C 0.25889 0.25822 0.53239
 C1220 C 0.25668 0.25409 0.54712
 C1221 C 0.24544 0.24364 0.54716
 C1222 C 0.24113 0.24163 0.53243
 N1223 N 0.24937 0.25059 0.52346
 C1224 C 0.22992 0.23142 0.52768
 C1225 C 0.22629 0.22830 0.51259
 C1226 C 0.21612 0.21744 0.50808
 C1227 C 0.21618 0.21738 0.49276
 C1228 C 0.22637 0.22821 0.48823
 N1229 N 0.23225 0.23496 0.50040
 C1230 C 0.23000 0.23131 0.47313
 H1231 H 0.24018 0.23884 0.44374
 H1232 H 0.26164 0.25892 0.44369
 H1233 H 0.23949 0.24396 0.50038
 H1234 H 0.28631 0.29316 0.48568
 H1235 H 0.28597 0.29340 0.51498
 H1236 H 0.26256 0.25814 0.55687
 H1237 H 0.24107 0.23804 0.55694
 H1238 H 0.20956 0.21004 0.48576
 H1239 H 0.26207 0.25498 0.50040
 H1240 H 0.20947 0.21015 0.51509
 C1241 C 0.75444 0.74339 1.04639
 C1242 C 0.74396 0.75461 1.04637
 C1243 C 0.74181 0.75871 1.03161
 N1244 N 0.75070 0.75035 1.02266
 C1245 C 0.75844 0.74098 1.03164
 C1246 C 0.73147 0.76977 1.02681
 C1247 C 0.72824 0.77325 1.01172
 C1248 C 0.71705 0.78306 1.00720
 C1249 C 0.71702 0.78301 0.99188
 C1250 C 0.72821 0.77319 0.98737
 N1251 N 0.73516 0.76753 0.99955
 C1252 C 0.73149 0.76972 0.97228
 C1253 C 0.74198 0.75878 0.96752
 C1254 C 0.74469 0.75512 0.95273
 C1255 C 0.75525 0.74397 0.95276
 C1256 C 0.75867 0.74109 0.96757
 N1257 N 0.75056 0.75018 0.97652
 C1258 C 0.76961 0.73064 0.97238
 C1259 C 0.77338 0.72785 0.98748
 C1260 C 0.78555 0.71928 0.99202
 C1261 C 0.78550 0.71927 1.00734
 C1262 C 0.77328 0.72779 1.01181
 N1263 N 0.76581 0.73276 0.99964
 C1264 C 0.76940 0.73053 1.02690
 H1265 H 0.75861 0.73767 1.05618
 H1266 H 0.73843 0.75910 1.05615
 H1267 H 0.75546 0.73806 0.99961
 H1268 H 0.70951 0.78947 1.01419
 H1269 H 0.70947 0.78939 0.98488
 H1270 H 0.73958 0.75994 0.94289
 H1271 H 0.75995 0.73871 0.94294
 H1272 H 0.79364 0.71369 1.01437
 H1273 H 0.74454 0.76074 0.99956
 H1274 H 0.79372 0.71366 0.98505
 C1275 C 0.74437 0.25538 0.54667
 C1276 C 0.75469 0.24402 0.54667
 C1277 C 0.75796 0.24091 0.53187
 N1278 N 0.74990 0.25000 0.52288
 C1279 C 0.74158 0.25888 0.53186
 C1280 C 0.76836 0.22990 0.52710
 C1281 C 0.77175 0.22657 0.51200
 C1282 C 0.78304 0.21686 0.50750
 C1283 C 0.78310 0.21690 0.49218
 C1284 C 0.77188 0.22668 0.48765
 N1285 N 0.76484 0.23228 0.49982
 C1286 C 0.76872 0.23023 0.47256
 C1287 C 0.75851 0.24141 0.46778
 C1288 C 0.75643 0.24557 0.45303
 C1289 C 0.74608 0.25690 0.45303
 C1290 C 0.74208 0.25932 0.46778
 N1291 N 0.74972 0.24985 0.47674
 C1292 C 0.73122 0.26988 0.47253
 C1293 C 0.72747 0.27276 0.48762
 C1294 C 0.71544 0.28155 0.49212
 C1295 C 0.71542 0.28155 0.50742
 C1296 C 0.72738 0.27270 0.51195
 N1297 N 0.73484 0.26763 0.49979
 C1298 C 0.73096 0.26966 0.52705
 H1299 H 0.73933 0.26032 0.55649
 H1300 H 0.75918 0.23862 0.55651
 H1301 H 0.74502 0.26202 0.49980
 H1302 H 0.79062 0.21053 0.51451
 H1303 H 0.79072 0.21057 0.48520
 H1304 H 0.76192 0.24105 0.44324
 H1305 H 0.74202 0.26271 0.44324
 H1306 H 0.70736 0.28733 0.51440
 H1307 H 0.75536 0.23895 0.49981
 H1308 H 0.70739 0.28727 0.48510
 C1309 C 0.74755 0.24149 0.04699
 C1310 C 0.75827 0.25247 0.04702
 C1311 C 0.75966 0.25740 0.03242
 N1312 N 0.74995 0.24991 0.02355
 C1313 C 0.74261 0.24011 0.03240
 C1314 C 0.76917 0.26920 0.02780
 C1315 C 0.77130 0.27354 0.01276
 C1316 C 0.77907 0.28621 0.00826
 C1317 C 0.77917 0.28615 -0.00706
 C1318 C 0.77143 0.27346 -0.01157
 N1319 N 0.76688 0.26575 0.00059
 C1320 C 0.76937 0.26909 -0.02662
 C1321 C 0.75972 0.25739 -0.03130
 C1322 C 0.75786 0.25295 -0.04600
 C1323 C 0.74711 0.24201 -0.04601
 C1324 C 0.74268 0.24006 -0.03131
 N1325 N 0.75030 0.24959 -0.02238
 C1326 C 0.73110 0.23025 -0.02664
 C1327 C 0.72675 0.22812 -0.01160
 C1328 C 0.71399 0.22043 -0.00708
 C1329 C 0.71395 0.22051 0.00824
 C1330 C 0.72671 0.22818 0.01272
 N1331 N 0.73453 0.23261 0.00056
 C1332 C 0.73098 0.23038 0.02776
 H1333 H 0.74375 0.23531 0.05666
 H1334 H 0.76425 0.25642 0.05675
 H1335 H 0.74527 0.23705 0.00058
 H1336 H 0.78429 0.29458 0.01527
 H1337 H 0.78448 0.29448 -0.01405
 H1338 H 0.76343 0.25730 -0.05581
 H1339 H 0.74286 0.23637 -0.05581
 H1340 H 0.70548 0.21545 0.01528
 H1341 H 0.76240 0.25508 0.00061
 H1342 H 0.70557 0.21525 -0.01407
 C1343 C 0.75515 0.75539 0.45354
 C1344 C 0.74488 0.74400 0.45357
 C1345 C 0.74199 0.74061 0.46838
 N1346 N 0.75023 0.74955 0.47735
 C1347 C 0.75831 0.75860 0.46833
 C1348 C 0.73133 0.72989 0.47319
 C1349 C 0.72768 0.72696 0.48830
 C1350 C 0.71566 0.71819 0.49284
 C1351 C 0.71560 0.71831 0.50815
 C1352 C 0.72762 0.72708 0.51264
 N1353 N 0.73508 0.73210 0.50046
 C1354 C 0.73121 0.73014 0.52773
 C1355 C 0.74192 0.74084 0.53247
 C1356 C 0.74541 0.74377 0.54725
 C1357 C 0.75563 0.75521 0.54722
 C1358 C 0.75827 0.75881 0.53241
 N1359 N 0.74985 0.75002 0.52345
 C1360 C 0.76857 0.76987 0.52759
 C1361 C 0.77198 0.77307 0.51249
 C1362 C 0.78367 0.78227 0.50797
 C1363 C 0.78374 0.78216 0.49265
 C1364 C 0.77208 0.77290 0.48817
 N1365 N 0.76480 0.76761 0.50034
 C1366 C 0.76870 0.76960 0.47309
 H1367 H 0.75970 0.76071 0.44369
 H1368 H 0.73994 0.73897 0.44375
 H1369 H 0.75494 0.76149 0.50034
 H1370 H 0.70759 0.71245 0.48587
 H1371 H 0.70745 0.71272 0.51516
 H1372 H 0.74103 0.73831 0.55709
 H1373 H 0.76061 0.76019 0.55703
 H1374 H 0.79167 0.78804 0.48563
 H1375 H 0.74524 0.73774 0.50046
 H1376 H 0.79155 0.78824 0.51497
 C1377 C 1.04708 0.24450 0.25506
 C1378 C 1.04706 0.25493 0.24388
 C1379 C 1.03214 0.25830 0.24096
 N1380 N 1.02311 0.25031 0.25007
 C1381 C 1.03217 0.24183 0.25870
 C1382 C 1.02729 0.26911 0.23047
 C1383 C 1.01206 0.27288 0.22773
 C1384 C 1.00745 0.28501 0.21923
 C1385 C 0.99202 0.28498 0.21926
 C1386 C 0.98753 0.27278 0.22770
 N1387 N 0.99982 0.26532 0.23261
 C1388 C 0.97233 0.26889 0.23040
 C1389 C 0.96755 0.25788 0.24068
 C1390 C 0.95270 0.25376 0.24294
 C1391 C 0.95272 0.24326 0.25405
 C1392 C 0.96758 0.24122 0.25824
 N1393 N 0.97658 0.25019 0.25005
 C1394 C 0.97241 0.23096 0.26928
 C1395 C 0.98762 0.22793 0.27292
 C1396 C 0.99220 0.21698 0.28289
 C1397 C 1.00764 0.21710 0.28298
 C1398 C 1.01217 0.22814 0.27307
 N1399 N 0.99987 0.23485 0.26723
 C1400 C 1.02737 0.23148 0.26968
 H1401 H 1.05700 0.23946 0.25992
 H1402 H 1.05696 0.25957 0.23863
 H1403 H 0.99984 0.24403 0.26027
 H1404 H 1.01445 0.29316 0.21363
 H1405 H 0.98492 0.29311 0.21375
 H1406 H 0.94284 0.25786 0.23718
 H1407 H 0.94287 0.23767 0.25843
 H1408 H 1.01472 0.20975 0.28951
 H1409 H 0.99986 0.25499 0.23782
 H1410 H 0.98518 0.20950 0.28932
 C1411 C 0.54723 0.24360 0.75528
 C1412 C 0.54730 0.25487 0.74493
 C1413 C 0.53242 0.25873 0.74243
 N1414 N 0.52332 0.25014 0.75092
 C1415 C 0.53230 0.24084 0.75876
 C1416 C 0.52766 0.26990 0.73225
 C1417 C 0.51247 0.27356 0.72913
 C1418 C 0.50798 0.28385 0.71844
 C1419 C 0.49254 0.28389 0.71838
 C1420 C 0.48792 0.27360 0.72902
 N1421 N 0.50016 0.26760 0.73569
 C1422 C 0.47270 0.26992 0.73194
 C1423 C 0.46783 0.25861 0.74190
 C1424 C 0.45296 0.25432 0.74374
 C1425 C 0.45291 0.24296 0.75397
 C1426 C 0.46774 0.24065 0.75812
 N1427 N 0.47679 0.25023 0.75073
 C1428 C 0.47246 0.23015 0.76895
 C1429 C 0.48763 0.22745 0.77291
 C1430 C 0.49206 0.21895 0.78507
 C1431 C 0.50749 0.21899 0.78522
 C1432 C 0.51215 0.22756 0.77319
 N1433 N 0.49996 0.23244 0.76558
 C1434 C 0.52740 0.23035 0.76953
 H1435 H 0.55710 0.23818 0.75979
 H1436 H 0.55723 0.25964 0.73984
 H1437 H 0.50004 0.23769 0.75529
 H1438 H 0.51508 0.29055 0.71126
 H1439 H 0.48553 0.29060 0.71114
 H1440 H 0.44314 0.25879 0.73820
 H1441 H 0.44305 0.23708 0.75790
 H1442 H 0.51446 0.21338 0.79337
 H1443 H 0.50010 0.26026 0.74454
 H1444 H 0.48491 0.21337 0.79308
 C1445 C -0.04770 0.24458 0.74523
 C1446 C -0.04769 0.25589 0.75552
 C1447 C -0.03277 0.25941 0.75826
 N1448 N -0.02372 0.25054 0.74999
 C1449 C -0.03278 0.24143 0.74202
 C1450 C -0.02795 0.27042 0.76856
 C1451 C -0.01273 0.27388 0.77176
 C1452 C -0.00817 0.28368 0.78287
 C1453 C 0.00726 0.28376 0.78278
 C1454 C 0.01182 0.27398 0.77163
 N1455 N -0.00046 0.26828 0.76478
 C1456 C 0.02704 0.27054 0.76837
 C1457 C 0.03186 0.25940 0.75819
 C1458 C 0.04674 0.25536 0.75595
 C1459 C 0.04673 0.24397 0.74575
 C1460 C 0.03184 0.24138 0.74200
 N1461 N 0.02281 0.25083 0.74963
 C1462 C 0.02703 0.23067 0.73141
 C1463 C 0.01182 0.22771 0.72779
 C1464 C 0.00729 0.21877 0.71598
 C1465 C -0.00814 0.21873 0.71601
 C1466 C -0.01272 0.22771 0.72779
 N1467 N -0.00045 0.23289 0.73509
 C1468 C -0.02795 0.23070 0.73142
 H1469 H -0.05761 0.23938 0.74056
 H1470 H -0.05760 0.26093 0.76041
 H1471 H -0.00045 0.23860 0.74513
 H1472 H -0.01522 0.29002 0.79041
 H1473 H 0.01431 0.29017 0.79025
 H1474 H 0.05662 0.26000 0.76124
 H1475 H 0.05660 0.23823 0.74161
 H1476 H -0.01516 0.21282 0.70812
 H1477 H -0.00048 0.26160 0.75539
 H1478 H 0.01437 0.21295 0.70806
 C1479 C 0.45313 0.25635 0.25491
 C1480 C 0.45315 0.24588 0.24376
 C1481 C 0.46802 0.24187 0.24144
 N1482 N 0.47703 0.24960 0.25079
 C1483 C 0.46799 0.25850 0.25904
 C1484 C 0.47285 0.23093 0.23108
 C1485 C 0.48806 0.22709 0.22838
 C1486 C 0.49261 0.21490 0.21992
 C1487 C 0.50805 0.21489 0.21992
 C1488 C 0.51260 0.22704 0.22843
 N1489 N 0.50033 0.23457 0.23331
 C1490 C 0.52782 0.23086 0.23118
 C1491 C 0.53263 0.24178 0.24158
 C1492 C 0.54753 0.24525 0.24444
 C1493 C 0.54752 0.25579 0.25552
 C1494 C 0.53260 0.25842 0.25918
 N1495 N 0.52356 0.24982 0.25064
 C1496 C 0.52776 0.26885 0.27008
 C1497 C 0.51254 0.27208 0.27354
 C1498 C 0.50796 0.28316 0.28339
 C1499 C 0.49252 0.28313 0.28341
 C1500 C 0.48799 0.27204 0.27356
 N1501 N 0.50028 0.26520 0.26784
 C1502 C 0.47278 0.26883 0.27005
 H1503 H 0.44326 0.26186 0.25933
 H1504 H 0.44330 0.24174 0.23802
 H1505 H 0.50029 0.25593 0.26098
 H1506 H 0.48554 0.20677 0.21439
 H1507 H 0.51509 0.20676 0.21433
 H1508 H 0.55745 0.24061 0.23921
 H1509 H 0.55741 0.26093 0.26030
 H1510 H 0.48544 0.29058 0.28984
 H1511 H 0.50032 0.24489 0.23854
 H1512 H 0.51500 0.29064 0.28981
 C1513 C 0.95299 0.74216 0.75266
 C1514 C 0.95296 0.75334 0.74222
 C1515 C 0.96770 0.75816 0.74081
 N1516 N 0.97667 0.75037 0.75017
 C1517 C 0.96773 0.74050 0.75735
 C1518 C 0.97244 0.76973 0.73110
 C1519 C 0.98761 0.77384 0.72861
 C1520 C 0.99215 0.78583 0.71987
 C1521 C 1.00761 0.78576 0.71980
 C1522 C 1.01214 0.77374 0.72850
 N1523 N 0.99987 0.76651 0.73371
 C1524 C 1.02730 0.76955 0.73090
 C1525 C 1.03205 0.75804 0.74068
 C1526 C 1.04680 0.75325 0.74214
 C1527 C 1.04679 0.74218 0.75269
 C1528 C 1.03204 0.74053 0.75739
 N1529 N 1.02309 0.75032 0.75012
 C1530 C 1.02731 0.73046 0.76861
 C1531 C 1.01213 0.72810 0.77273
 C1532 C 1.00759 0.72027 0.78529
 C1533 C 0.99214 0.72023 0.78525
 C1534 C 0.98763 0.72805 0.77267
 N1535 N 0.99989 0.73261 0.76500
 C1536 C 0.97247 0.73036 0.76850
 H1537 H 0.94323 0.73599 0.75637
 H1538 H 0.94318 0.75742 0.73632
 H1539 H 0.99991 0.73716 0.75438
 H1540 H 0.98506 0.79371 0.71399
 H1541 H 1.01471 0.79359 0.71385
 H1542 H 1.05658 0.75728 0.73621
 H1543 H 1.05656 0.73605 0.75648
 H1544 H 0.98503 0.71507 0.79358
 H1545 H 0.99987 0.75651 0.73944
 H1546 H 1.01467 0.71515 0.79367
 C1547 C 0.54702 0.74503 0.25582
 C1548 C 0.54700 0.75633 0.24552
 C1549 C 0.53207 0.75953 0.24243
 N1550 N 0.52303 0.75046 0.25047
 C1551 C 0.53211 0.74158 0.25868
 C1552 C 0.52722 0.77026 0.23185
 C1553 C 0.51199 0.77325 0.22827
 C1554 C 0.50740 0.78222 0.21650
 C1555 C 0.49197 0.78216 0.21649
 C1556 C 0.48746 0.77322 0.22830
 N1557 N 0.49974 0.76806 0.23559
 C1558 C 0.47225 0.77021 0.23192
 C1559 C 0.46746 0.75953 0.24256
 C1560 C 0.45257 0.75683 0.24623
 C1561 C 0.45258 0.74551 0.25651
 C1562 C 0.46749 0.74163 0.25886
 N1563 N 0.47652 0.75023 0.25030
 C1564 C 0.47234 0.73061 0.26912
 C1565 C 0.48756 0.72720 0.27236
 C1566 C 0.49213 0.71754 0.28358
 C1567 C 0.50756 0.71757 0.28358
 C1568 C 0.51210 0.72725 0.27236
 N1569 N 0.49982 0.73281 0.26538
 C1570 C 0.52731 0.73063 0.26905
 H1571 H 0.55694 0.73997 0.26065
 H1572 H 0.55691 0.76148 0.24078
 H1573 H 0.49981 0.73935 0.25590
 H1574 H 0.51441 0.78813 0.20860
 H1575 H 0.48488 0.78796 0.20857
 H1576 H 0.44268 0.76244 0.24198
 H1577 H 0.44271 0.74081 0.26176
 H1578 H 0.51462 0.71127 0.29113
 H1579 H 0.49975 0.76234 0.24561
 H1580 H 0.48510 0.71122 0.29114
 C1581 C 0.04722 0.74530 0.24384
 C1582 C 0.04727 0.75670 0.25404
 C1583 C 0.03239 0.75942 0.25777
 N1584 N 0.02330 0.75008 0.25010
 C1585 C 0.03231 0.74141 0.24157
 C1586 C 0.02764 0.77019 0.26836
 C1587 C 0.01245 0.77329 0.27200
 C1588 C 0.00799 0.78238 0.28373
 C1589 C -0.00744 0.78244 0.28381
 C1590 C -0.01209 0.77331 0.27219
 N1591 N 0.00013 0.76802 0.26486
 C1592 C -0.02734 0.77016 0.26883
 C1593 C -0.03222 0.75923 0.25847
 C1594 C -0.04715 0.75556 0.25597
 C1595 C -0.04719 0.74416 0.24577
 C1596 C -0.03230 0.74120 0.24229
 N1597 N -0.02320 0.75042 0.25010
 C1598 C -0.02754 0.73029 0.23185
 C1599 C -0.01235 0.72704 0.22833
 C1600 C -0.00788 0.71765 0.21684
 C1601 C 0.00755 0.71761 0.21674
 C1602 C 0.01219 0.72704 0.22813
 N1603 N -0.00003 0.73249 0.23533
 C1604 C 0.02743 0.73036 0.23134
 H1605 H 0.05708 0.74058 0.23856
 H1606 H 0.05718 0.76234 0.25819
 H1607 H 0.00002 0.73876 0.24501
 H1608 H 0.01511 0.78826 0.29156
 H1609 H -0.01442 0.78841 0.29171
 H1610 H -0.05702 0.76041 0.26110
 H1611 H -0.05711 0.73864 0.24148
 H1612 H 0.01454 0.71147 0.20898
 H1613 H 0.00008 0.76208 0.25496
 H1614 H -0.01500 0.71158 0.20916
 C1615 C 0.45279 0.75669 0.75415
 C1616 C 0.45278 0.74528 0.74396
 C1617 C 0.46769 0.74147 0.74149
 N1618 N 0.47675 0.75024 0.74983
 C1619 C 0.46770 0.75956 0.75758
 C1620 C 0.47251 0.73027 0.73137
 C1621 C 0.48774 0.72679 0.72817
 C1622 C 0.49231 0.71696 0.71709
 C1623 C 0.50775 0.71698 0.71707
 C1624 C 0.51229 0.72677 0.72819
 N1625 N 0.50001 0.73248 0.73507
 C1626 C 0.52751 0.73026 0.73136
 C1627 C 0.53232 0.74147 0.74146
 C1628 C 0.54724 0.74506 0.74416
 C1629 C 0.54721 0.75656 0.75425
 C1630 C 0.53230 0.75958 0.75756
 N1631 N 0.52325 0.75035 0.74971
 C1632 C 0.52746 0.77037 0.76809
 C1633 C 0.51224 0.77332 0.77172
 C1634 C 0.50769 0.78206 0.78369
 C1635 C 0.49226 0.78200 0.78375
 C1636 C 0.48772 0.77321 0.77183
 N1637 N 0.49999 0.76819 0.76439
 C1638 C 0.47252 0.77021 0.76824
 H1639 H 0.44290 0.76218 0.75857
 H1640 H 0.44288 0.74042 0.73891
 H1641 H 0.49998 0.76260 0.75428
 H1642 H 0.48528 0.71055 0.70960
 H1643 H 0.51482 0.71065 0.70953
 H1644 H 0.55716 0.73997 0.73937
 H1645 H 0.55711 0.76198 0.75870
 H1646 H 0.48519 0.78766 0.79179
 H1647 H 0.50001 0.73921 0.74443
 H1648 H 0.51476 0.78775 0.79170
 C1649 C 0.42279 0.29958 0.29808
 C1650 C 0.41494 0.29168 0.30933
 C1651 C 0.40205 0.29794 0.31588
 C1652 C 0.39669 0.31202 0.31140
 C1653 C 0.40457 0.31985 0.30032
 C1654 C 0.41743 0.31376 0.29376
 C1655 C 0.43634 0.29237 0.29116
 C1656 C 0.44483 0.29919 0.27974
 C1657 C 0.45694 0.29169 0.27321
 C1658 C 0.46091 0.27734 0.27799
 C1659 C 0.45285 0.27057 0.28955
 C1660 C 0.44060 0.27793 0.29614
 C1661 C 0.41990 0.27753 0.31388
 C1662 C 0.43244 0.27080 0.30743
 H1663 H 0.41391 0.27148 0.32251
 H1664 H 0.43571 0.25976 0.31123
 H1665 H 0.39607 0.29163 0.32431
 H1666 H 0.40086 0.33077 0.29666
 H1667 H 0.46307 0.29697 0.26420
 H1668 H 0.45592 0.25938 0.29311
 H1669 H 0.42293 0.32035 0.28531
 H1670 H 0.44221 0.31018 0.27554
 C1671 C 0.42245 0.79781 0.79919
 C1672 C 0.41605 0.81071 0.79262
 C1673 C 0.40314 0.81730 0.79886
 C1674 C 0.39620 0.81113 0.81157
 C1675 C 0.40273 0.79834 0.81804
 C1676 C 0.41561 0.79181 0.81200
 C1677 C 0.43604 0.79094 0.79202
 C1678 C 0.44317 0.77801 0.79764
 C1679 C 0.45530 0.77161 0.79011
 C1680 C 0.46067 0.77798 0.77692
 C1681 C 0.45403 0.79104 0.77140
 C1682 C 0.44175 0.79755 0.77883
 C1683 C 0.42246 0.81688 0.77974
 C1684 C 0.43499 0.81042 0.77297
 H1685 H 0.41761 0.82679 0.77470
 H1686 H 0.43939 0.81551 0.76291
 H1687 H 0.39845 0.82709 0.79352
 H1688 H 0.39798 0.79316 0.82784
 H1689 H 0.46034 0.76145 0.79441
 H1690 H 0.45820 0.79587 0.76111
 H1691 H 0.41993 0.78201 0.81753
 H1692 H 0.43944 0.77252 0.80768
 C1693 C -0.07738 0.29878 0.79994
 C1694 C -0.08510 0.31033 0.79234
 C1695 C -0.09793 0.31691 0.79872
 C1696 C -0.10335 0.31214 0.81265
 C1697 C -0.09548 0.30085 0.82024
 C1698 C -0.08271 0.29427 0.81402
 C1699 C -0.06402 0.29171 0.79251
 C1700 C -0.05580 0.27985 0.79896
 C1701 C -0.04386 0.27324 0.79130
 C1702 C -0.03978 0.27835 0.77714
 C1703 C -0.04758 0.29031 0.77071
 C1704 C -0.05970 0.29697 0.77824
 C1705 C -0.08010 0.31515 0.77833
 C1706 C -0.06767 0.30863 0.77145
 H1707 H -0.08597 0.32403 0.77252
 H1708 H -0.06435 0.31267 0.76054
 H1709 H -0.10381 0.32557 0.79264
 H1710 H -0.09917 0.29698 0.83105
 H1711 H -0.03793 0.26393 0.79631
 H1712 H -0.04442 0.29414 0.75968
 H1713 H -0.07726 0.28561 0.82040
 H1714 H -0.05853 0.27536 0.80978
 C1715 C -0.07685 0.79869 0.29997
 C1716 C -0.08494 0.80977 0.29204
 C1717 C -0.09784 0.81629 0.29835
 C1718 C -0.10293 0.81196 0.31253
 C1719 C -0.09469 0.80118 0.32046
 C1720 C -0.08185 0.79465 0.31431
 C1721 C -0.06345 0.79162 0.29261
 C1722 C -0.05494 0.78013 0.29934
 C1723 C -0.04298 0.77346 0.29174
 C1724 C -0.03914 0.77819 0.27737
 C1725 C -0.04727 0.78978 0.27066
 C1726 C -0.05943 0.79645 0.27811
 C1727 C -0.08024 0.81415 0.27779
 C1728 C -0.06775 0.80766 0.27100
 H1729 H -0.08640 0.82266 0.27173
 H1730 H -0.06466 0.81135 0.25990
 H1731 H -0.10401 0.82457 0.29202
 H1732 H -0.09811 0.79769 0.33148
 H1733 H -0.03684 0.76441 0.29697
 H1734 H -0.04434 0.79328 0.25945
 H1735 H -0.07609 0.78641 0.32096
 H1736 H -0.05746 0.77593 0.31032
 C1737 C 0.57667 0.70218 0.30032
 C1738 C 0.58441 0.69067 0.29267
 C1739 C 0.59724 0.68408 0.29901
 C1740 C 0.60263 0.68882 0.31295
 C1741 C 0.59478 0.70007 0.32060
 C1742 C 0.58199 0.70665 0.31443
 C1743 C 0.56333 0.70927 0.29293
 C1744 C 0.55509 0.72109 0.29943
 C1745 C 0.54318 0.72774 0.29178
 C1746 C 0.53914 0.72270 0.27758
 C1747 C 0.54696 0.71077 0.27110
 C1748 C 0.55905 0.70408 0.27862
 C1749 C 0.57945 0.68591 0.27863
 C1750 C 0.56704 0.69245 0.27177
 H1751 H 0.58534 0.67706 0.27278
 H1752 H 0.56375 0.68847 0.26083
 H1753 H 0.60315 0.67547 0.29288
 H1754 H 0.59848 0.70387 0.33144
 H1755 H 0.53721 0.73701 0.29684
 H1756 H 0.54384 0.70699 0.26004
 H1757 H 0.57652 0.71527 0.32086
 H1758 H 0.55777 0.72552 0.31028
 C1759 C 0.57670 0.20182 0.80081
 C1760 C 0.58427 0.19013 0.79323
 C1761 C 0.59708 0.18351 0.79956
 C1762 C 0.60262 0.18837 0.81339
 C1763 C 0.59494 0.19979 0.82096
 C1764 C 0.58217 0.20642 0.81481
 C1765 C 0.56336 0.20893 0.79344
 C1766 C 0.55535 0.22097 0.79982
 C1767 C 0.54345 0.22764 0.79218
 C1768 C 0.53916 0.22239 0.77813
 C1769 C 0.54676 0.21024 0.77178
 C1770 C 0.55887 0.20355 0.77926
 C1771 C 0.57913 0.18523 0.77931
 C1772 C 0.56669 0.19177 0.77249
 H1773 H 0.58489 0.17625 0.77353
 H1774 H 0.56325 0.18765 0.76166
 H1775 H 0.60288 0.17476 0.79350
 H1776 H 0.59876 0.20366 0.83174
 H1777 H 0.53769 0.23711 0.79712
 H1778 H 0.54346 0.20631 0.76082
 H1779 H 0.57682 0.21515 0.82119
 H1780 H 0.55822 0.22558 0.81054
 C1781 C 1.07645 0.69993 0.79827
 C1782 C 1.08495 0.70841 0.80859
 C1783 C 1.09775 0.70217 0.81533
 C1784 C 1.10240 0.68755 0.81190
 C1785 C 1.09384 0.67913 0.80179
 C1786 C 1.08106 0.68518 0.79509
 C1787 C 1.06311 0.70716 0.79100
 C1788 C 1.05395 0.69974 0.78050
 C1789 C 1.04210 0.70724 0.77354
 C1790 C 1.03911 0.72222 0.77689
 C1791 C 1.04781 0.72962 0.78759
 C1792 C 1.05975 0.72222 0.79466
 C1793 C 1.08079 0.72315 0.81196
 C1794 C 1.06850 0.72991 0.80512
 H1795 H 1.08728 0.72965 0.81987
 H1796 H 1.06591 0.74143 0.80792
 H1797 H 1.10426 0.70892 0.82299
 H1798 H 1.09699 0.66778 0.79900
 H1799 H 1.03538 0.70142 0.76531
 H1800 H 1.04542 0.74124 0.79014
 H1801 H 1.07501 0.67813 0.78741
 H1802 H 1.05582 0.68824 0.77738
 C1803 C 1.07706 0.20075 0.29815
 C1804 C 1.08484 0.20865 0.30943
 C1805 C 1.09769 0.20240 0.31604
 C1806 C 1.10307 0.18832 0.31158
 C1807 C 1.09521 0.18045 0.30051
 C1808 C 1.08240 0.18653 0.29390
 C1809 C 1.06362 0.20799 0.29108
 C1810 C 1.05528 0.20120 0.27955
 C1811 C 1.04327 0.20871 0.27290
 C1812 C 1.03924 0.22305 0.27767
 C1813 C 1.04714 0.22981 0.28935
 C1814 C 1.05932 0.22243 0.29603
 C1815 C 1.07986 0.22281 0.31394
 C1816 C 1.06738 0.22955 0.30740
 H1817 H 1.08579 0.22885 0.32261
 H1818 H 1.06406 0.24058 0.31122
 H1819 H 1.10362 0.20870 0.32450
 H1820 H 1.09888 0.16950 0.29690
 H1821 H 1.03725 0.20343 0.26383
 H1822 H 1.04400 0.24097 0.29293
 H1823 H 1.07695 0.17994 0.28542
 H1824 H 1.05797 0.19024 0.27531
 C1825 C 0.57690 0.29851 0.70091
 C1826 C 0.58498 0.30964 0.70876
 C1827 C 0.59776 0.31624 0.70232
 C1828 C 0.60276 0.31190 0.68811
 C1829 C 0.59454 0.30105 0.68027
 C1830 C 0.58182 0.29445 0.68654
 C1831 C 0.56362 0.29138 0.70837
 C1832 C 0.55506 0.27992 0.70166
 C1833 C 0.54319 0.27322 0.70934
 C1834 C 0.53953 0.27785 0.72378
 C1835 C 0.54769 0.28940 0.73049
 C1836 C 0.55973 0.29615 0.72294
 C1837 C 0.58040 0.31399 0.72306
 C1838 C 0.56804 0.30740 0.72998
 H1839 H 0.58654 0.32254 0.72906
 H1840 H 0.56505 0.31106 0.74112
 H1841 H 0.60395 0.32455 0.70859
 H1842 H 0.59791 0.29755 0.66923
 H1843 H 0.53696 0.26424 0.70409
 H1844 H 0.54484 0.29286 0.74173
 H1845 H 0.57607 0.28615 0.67995
 H1846 H 0.55745 0.27581 0.69062
 C1847 C 0.57680 0.79852 0.20076
 C1848 C 0.58504 0.80945 0.20873
 C1849 C 0.59796 0.81587 0.20240
 C1850 C 0.60289 0.81161 0.18814
 C1851 C 0.59450 0.80098 0.18018
 C1852 C 0.58166 0.79454 0.18635
 C1853 C 0.56338 0.79155 0.20811
 C1854 C 0.55481 0.78012 0.20137
 C1855 C 0.54285 0.77351 0.20897
 C1856 C 0.53904 0.77825 0.22334
 C1857 C 0.54721 0.78980 0.23007
 C1858 C 0.55941 0.79638 0.22263
 C1859 C 0.58043 0.81381 0.22302
 C1860 C 0.56786 0.80747 0.22979
 H1861 H 0.58669 0.82222 0.22911
 H1862 H 0.56483 0.81115 0.24091
 H1863 H 0.60427 0.82403 0.20875
 H1864 H 0.59779 0.79758 0.16908
 H1865 H 0.53667 0.76449 0.20374
 H1866 H 0.54431 0.79331 0.24128
 H1867 H 0.57576 0.78645 0.17965
 H1868 H 0.55730 0.77591 0.19038
 C1869 C 1.07667 0.30001 0.20160
 C1870 C 1.08451 0.29205 0.19038
 C1871 C 1.09738 0.29826 0.18376
 C1872 C 1.10269 0.31241 0.18811
 C1873 C 1.09467 0.32040 0.19900
 C1874 C 1.08186 0.31433 0.20564
 C1875 C 1.06334 0.29272 0.20881
 C1876 C 1.05519 0.29941 0.22056
 C1877 C 1.04328 0.29186 0.22733
 C1878 C 1.03910 0.27760 0.22243
 C1879 C 1.04686 0.27093 0.21059
 C1880 C 1.05901 0.27830 0.20385
 C1881 C 1.07956 0.27786 0.18592
 C1882 C 1.06704 0.27117 0.19246
 H1883 H 1.08551 0.27178 0.17728
 H1884 H 1.06374 0.26013 0.18868
 H1885 H 1.10337 0.29189 0.17539
 H1886 H 1.09825 0.33141 0.20249
 H1887 H 1.03742 0.29704 0.23657
 H1888 H 1.04368 0.25979 0.20697
 H1889 H 1.07625 0.32103 0.21394
 H1890 H 1.05799 0.31030 0.22489
 C1891 C 1.07669 0.79840 0.70003
 C1892 C 1.08480 0.80939 0.70804
 C1893 C 1.09762 0.81601 0.70173
 C1894 C 1.10270 0.81177 0.68751
 C1895 C 1.09454 0.80098 0.67955
 C1896 C 1.08172 0.79439 0.68567
 C1897 C 1.06330 0.79130 0.70734
 C1898 C 1.05451 0.78019 0.70035
 C1899 C 1.04257 0.77347 0.70791
 C1900 C 1.03912 0.77767 0.72253
 C1901 C 1.04747 0.78893 0.72950
 C1902 C 1.05952 0.79577 0.72203
 C1903 C 1.08024 0.81353 0.72241
 C1904 C 1.06790 0.80684 0.72927
 H1905 H 1.08643 0.82197 0.72854
 H1906 H 1.06496 0.81031 0.74047
 H1907 H 1.10382 0.82422 0.70812
 H1908 H 1.09802 0.79755 0.66851
 H1909 H 1.03617 0.76473 0.70246
 H1910 H 1.04475 0.79211 0.74085
 H1911 H 1.07603 0.78611 0.67902
 H1912 H 1.05674 0.77640 0.68916
 C1913 C 0.42277 0.70180 0.70069
 C1914 C 0.41454 0.69095 0.70877
 C1915 C 0.40164 0.68442 0.70251
 C1916 C 0.39668 0.68854 0.68822
 C1917 C 0.40499 0.69918 0.68020
 C1918 C 0.41783 0.70571 0.68629
 C1919 C 0.43624 0.70881 0.70793
 C1920 C 0.44496 0.72000 0.70098
 C1921 C 0.45698 0.72663 0.70848
 C1922 C 0.46066 0.72219 0.72297
 C1923 C 0.45235 0.71086 0.72990
 C1924 C 0.44014 0.70421 0.72254
 C1925 C 0.41913 0.68677 0.72311
 C1926 C 0.43166 0.69324 0.72983
 H1927 H 0.41287 0.67843 0.72929
 H1928 H 0.43465 0.68971 0.74100
 H1929 H 0.39536 0.67630 0.70893
 H1930 H 0.40165 0.70251 0.66910
 H1931 H 0.46329 0.73546 0.70307
 H1932 H 0.45518 0.70756 0.74118
 H1933 H 0.42367 0.71381 0.67954
 H1934 H 0.44258 0.72397 0.68989
 C1935 C 0.42345 0.20184 0.20044
 C1936 C 0.41481 0.19151 0.20878
 C1937 C 0.40197 0.18492 0.20248
 C1938 C 0.39743 0.18850 0.18792
 C1939 C 0.40610 0.19868 0.17967
 C1940 C 0.41891 0.20525 0.18579
 C1941 C 0.43687 0.20892 0.20771
 C1942 C 0.44614 0.21942 0.20041
 C1943 C 0.45807 0.22620 0.20792
 C1944 C 0.46105 0.22265 0.22280
 C1945 C 0.45227 0.21190 0.23007
 C1946 C 0.44019 0.20505 0.22267
 C1947 C 0.41891 0.18796 0.22344
 C1948 C 0.43130 0.19460 0.23024
 H1949 H 0.41233 0.18003 0.22982
 H1950 H 0.43388 0.19162 0.24166
 H1951 H 0.39539 0.17720 0.20909
 H1952 H 0.40305 0.20164 0.16838
 H1953 H 0.46483 0.23449 0.20220
 H1954 H 0.45463 0.20920 0.24161
 H1955 H 0.42500 0.21302 0.17888
 H1956 H 0.44428 0.22272 0.18901
 C1957 C -0.07728 0.70022 0.20279
 C1958 C -0.08518 0.70842 0.19180
 C1959 C -0.09803 0.70230 0.18506
 C1960 C -0.10331 0.68808 0.18914
 C1961 C -0.09540 0.67996 0.19999
 C1962 C -0.08258 0.68590 0.20672
 C1963 C -0.06380 0.70728 0.20994
 C1964 C -0.05522 0.70012 0.22108
 C1965 C -0.04320 0.70747 0.22787
 C1966 C -0.03942 0.72205 0.22367
 C1967 C -0.04752 0.72916 0.21233
 C1968 C -0.05968 0.72192 0.20548
 C1969 C -0.08033 0.72275 0.18771
 C1970 C -0.06788 0.72936 0.19442
 H1971 H -0.08635 0.72902 0.17927
 H1972 H -0.06469 0.74054 0.19097
 H1973 H -0.10404 0.70880 0.17680
 H1974 H -0.09902 0.66891 0.20331
 H1975 H -0.03699 0.70190 0.23664
 H1976 H -0.04453 0.74047 0.20913
 H1977 H -0.07707 0.67911 0.21500
 H1978 H -0.05771 0.68895 0.22487
 C1979 C -0.07754 0.20227 0.70046
 C1980 C -0.08567 0.19127 0.70843
 C1981 C -0.09852 0.18471 0.70211
 C1982 C -0.10348 0.18888 0.68784
 C1983 C -0.09523 0.19964 0.67990
 C1984 C -0.08247 0.20623 0.68608
 C1985 C -0.06414 0.20933 0.70779
 C1986 C -0.05562 0.22078 0.70103
 C1987 C -0.04366 0.22742 0.70859
 C1988 C -0.03979 0.22270 0.72294
 C1989 C -0.04791 0.21112 0.72969
 C1990 C -0.06012 0.20451 0.72229
 C1991 C -0.08102 0.18694 0.72271
 C1992 C -0.06849 0.19337 0.72946
 H1993 H -0.08721 0.17849 0.72880
 H1994 H -0.06542 0.18970 0.74056
 H1995 H -0.10470 0.17646 0.70846
 H1996 H -0.09857 0.20304 0.66882
 H1997 H -0.03751 0.23645 0.70333
 H1998 H -0.04497 0.20762 0.74088
 H1999 H -0.07667 0.21442 0.67939
 H2000 H -0.05815 0.22498 0.69005
 C2001 C 0.29797 0.42346 0.30009
 C2002 C 0.30866 0.41509 0.29188
 C2003 C 0.31520 0.40224 0.29812
 C2004 C 0.31124 0.39745 0.31250
 C2005 C 0.30077 0.40589 0.32066
 C2006 C 0.29424 0.41870 0.31459
 C2007 C 0.29094 0.43687 0.29286
 C2008 C 0.27999 0.44580 0.29998
 C2009 C 0.27322 0.45770 0.29248
 C2010 C 0.27726 0.46103 0.27779
 C2011 C 0.28845 0.45260 0.27071
 C2012 C 0.29525 0.44052 0.27809
 C2013 C 0.31262 0.41947 0.27741
 C2014 C 0.30606 0.43190 0.27067
 H2015 H 0.32083 0.41309 0.27112
 H2016 H 0.30936 0.43470 0.25938
 H2017 H 0.32316 0.39582 0.29160
 H2018 H 0.29754 0.40264 0.33182
 H2019 H 0.26458 0.46417 0.29804
 H2020 H 0.29150 0.45521 0.25930
 H2021 H 0.28627 0.42465 0.32144
 H2022 H 0.27632 0.44368 0.31123
 C2023 C 0.29836 -0.07742 0.79939
 C2024 C 0.31008 -0.08492 0.79178
 C2025 C 0.31673 -0.09775 0.79804
 C2026 C 0.31172 -0.10353 0.81178
 C2027 C 0.29999 -0.09599 0.81918
 C2028 C 0.29345 -0.08318 0.81314
 C2029 C 0.29144 -0.06388 0.79228
 C2030 C 0.27984 -0.05551 0.79905
 C2031 C 0.27325 -0.04348 0.79161
 C2032 C 0.27808 -0.03948 0.77734
 C2033 C 0.28994 -0.04732 0.77066
 C2034 C 0.29665 -0.05946 0.77802
 C2035 C 0.31498 -0.07971 0.77788
 C2036 C 0.30834 -0.06733 0.77110
 H2037 H 0.32396 -0.08542 0.77202
 H2038 H 0.31238 -0.06390 0.76023
 H2039 H 0.32563 -0.10328 0.79194
 H2040 H 0.29569 -0.09985 0.82975
 H2041 H 0.26408 -0.03746 0.79684
 H2042 H 0.29363 -0.04414 0.75959
 H2043 H 0.28448 -0.07806 0.81941
 H2044 H 0.27555 -0.05816 0.80998
 C2045 C 0.79812 0.42279 0.80034
 C2046 C 0.81061 0.41589 0.79341
 C2047 C 0.81723 0.40312 0.79980
 C2048 C 0.81154 0.39687 0.81308
 C2049 C 0.79927 0.40401 0.81999
 C2050 C 0.79268 0.41672 0.81377
 C2051 C 0.79107 0.43610 0.79291
 C2052 C 0.77836 0.44354 0.79874
 C2053 C 0.77182 0.45545 0.79104
 C2054 C 0.77784 0.46028 0.77747
 C2055 C 0.79065 0.45326 0.77170
 C2056 C 0.79726 0.44119 0.77927
 C2057 C 0.81634 0.42165 0.78004
 C2058 C 0.80981 0.43402 0.77313
 H2059 H 0.82594 0.41641 0.77473
 H2060 H 0.81457 0.43792 0.76271
 H2061 H 0.82670 0.39803 0.79418
 H2062 H 0.79450 0.39984 0.83025
 H2063 H 0.76186 0.46077 0.79554
 H2064 H 0.79519 0.45700 0.76111
 H2065 H 0.78327 0.42152 0.81963
 H2066 H 0.77315 0.44024 0.80907
 C2067 C 0.79854 -0.07763 0.30022
 C2068 C 0.81080 -0.08471 0.29308
 C2069 C 0.81741 -0.09752 0.29940
 C2070 C 0.81192 -0.10364 0.31282
 C2071 C 0.79988 -0.09631 0.31994
 C2072 C 0.79332 -0.08356 0.31379
 C2073 C 0.79147 -0.06428 0.29287
 C2074 C 0.77899 -0.05665 0.29893
 C2075 C 0.77241 -0.04473 0.29131
 C2076 C 0.77817 -0.04006 0.27757
 C2077 C 0.79075 -0.04727 0.27155
 C2078 C 0.79741 -0.05936 0.27906
 C2079 C 0.81629 -0.07910 0.27955
 C2080 C 0.80974 -0.06671 0.27269
 H2081 H 0.82572 -0.08447 0.27407
 H2082 H 0.81431 -0.06292 0.26214
 H2083 H 0.82670 -0.10276 0.29362
 H2084 H 0.79527 -0.10037 0.33032
 H2085 H 0.76263 -0.03926 0.29600
 H2086 H 0.79508 -0.04366 0.26084
 H2087 H 0.78408 -0.07863 0.31982
 H2088 H 0.77398 -0.05982 0.30940
 C2089 C 0.29843 0.57656 0.70104
 C2090 C 0.30921 0.58492 0.70911
 C2091 C 0.31561 0.59782 0.70280
 C2092 C 0.31144 0.60265 0.68849
 C2093 C 0.30089 0.59420 0.68047
 C2094 C 0.29449 0.58135 0.68661
 C2095 C 0.29152 0.56310 0.70835
 C2096 C 0.28036 0.55429 0.70145
 C2097 C 0.27380 0.54230 0.70900
 C2098 C 0.27832 0.53872 0.72349
 C2099 C 0.28963 0.54712 0.73037
 C2100 C 0.29618 0.55932 0.72297
 C2101 C 0.31344 0.58045 0.72347
 C2102 C 0.30709 0.56792 0.73024
 H2103 H 0.32173 0.58682 0.72964
 H2104 H 0.31066 0.56503 0.74142
 H2105 H 0.32367 0.60421 0.70921
 H2106 H 0.29754 0.59742 0.66934
 H2107 H 0.26497 0.53594 0.70364
 H2108 H 0.29297 0.54439 0.74168
 H2109 H 0.28645 0.57540 0.67986
 H2110 H 0.27634 0.55659 0.69035
 C2111 C 0.29871 1.07699 0.20020
 C2112 C 0.31051 1.08450 0.20767
 C2113 C 0.31706 1.09731 0.20133
 C2114 C 0.31198 1.10293 0.18760
 C2115 C 0.30041 1.09533 0.18016
 C2116 C 0.29387 1.08256 0.18632
 C2117 C 0.29171 1.06363 0.20758
 C2118 C 0.27971 1.05554 0.20121
 C2119 C 0.27315 1.04360 0.20885
 C2120 C 0.27845 1.03941 0.22291
 C2121 C 0.29058 1.04707 0.22923
 C2122 C 0.29721 1.05915 0.22171
 C2123 C 0.31559 1.07932 0.22151
 C2124 C 0.30909 1.06693 0.22838
 H2125 H 0.32465 1.08504 0.22722
 H2126 H 0.31331 1.06350 0.23918
 H2127 H 0.32590 1.10304 0.20732
 H2128 H 0.29630 1.09922 0.16950
 H2129 H 0.26373 1.03777 0.20391
 H2130 H 0.29456 1.04383 0.24019
 H2131 H 0.28500 1.07730 0.18006
 H2132 H 0.27506 1.05835 0.19048
 C2133 C 0.79800 0.57714 0.20014
 C2134 C 0.80994 0.58456 0.20747
 C2135 C 0.81640 0.59741 0.20114
 C2136 C 0.81111 0.60316 0.18755
 C2137 C 0.79939 0.59566 0.18023
 C2138 C 0.79293 0.58284 0.18639
 C2139 C 0.79111 0.56372 0.20751
 C2140 C 0.77898 0.55571 0.20129
 C2141 C 0.77251 0.54375 0.20897
 C2142 C 0.77803 0.53945 0.22291
 C2143 C 0.79030 0.54702 0.22907
 C2144 C 0.79684 0.55913 0.22152
 C2145 C 0.81526 0.57925 0.22118
 C2146 C 0.80885 0.56682 0.22805
 H2147 H 0.82443 0.58490 0.22678
 H2148 H 0.81326 0.56327 0.23874
 H2149 H 0.82537 0.60305 0.20703
 H2150 H 0.79514 0.59964 0.16967
 H2151 H 0.76296 0.53799 0.20416
 H2152 H 0.79446 0.54368 0.23994
 H2153 H 0.78393 0.57766 0.18024
 H2154 H 0.77416 0.55861 0.19066
 C2155 C 0.79839 1.07703 0.70058
 C2156 C 0.81013 1.08466 0.70801
 C2157 C 0.81661 1.09747 0.70160
 C2158 C 0.81154 1.10296 0.68782
 C2159 C 0.80006 1.09521 0.68039
 C2160 C 0.79358 1.08244 0.68663
 C2161 C 0.79143 1.06370 0.70805
 C2162 C 0.77944 1.05554 0.70174
 C2163 C 0.77291 1.04365 0.70947
 C2164 C 0.77823 1.03956 0.72356
 C2165 C 0.79033 1.04730 0.72983
 C2166 C 0.79693 1.05935 0.72222
 C2167 C 0.81522 1.07961 0.72190
 C2168 C 0.80877 1.06723 0.72885
 H2169 H 0.82425 1.08541 0.72758
 H2170 H 0.81300 1.06388 0.73967
 H2171 H 0.82542 1.10329 0.70756
 H2172 H 0.79597 1.09897 0.66967
 H2173 H 0.76348 1.03776 0.70458
 H2174 H 0.79433 1.04414 0.74080
 H2175 H 0.78477 1.07707 0.68037
 H2176 H 0.77478 1.05827 0.69100
 C2177 C 0.70015 0.57761 0.29788
 C2178 C 0.70835 0.58551 0.30887
 C2179 C 0.70217 0.59832 0.31557
 C2180 C 0.68790 0.60358 0.31141
 C2181 C 0.67980 0.59569 0.30054
 C2182 C 0.68579 0.58289 0.29388
 C2183 C 0.70729 0.56415 0.29078
 C2184 C 0.70010 0.55551 0.27971
 C2185 C 0.70752 0.54351 0.27296
 C2186 C 0.72220 0.53983 0.27713
 C2187 C 0.72933 0.54799 0.28840
 C2188 C 0.72202 0.56011 0.29523
 C2189 C 0.72276 0.58073 0.31297
 C2190 C 0.72946 0.56834 0.30627
 H2191 H 0.72904 0.58677 0.32139
 H2192 H 0.74070 0.56521 0.30970
 H2193 H 0.70866 0.60435 0.32382
 H2194 H 0.66872 0.59934 0.29717
 H2195 H 0.70192 0.53726 0.26424
 H2196 H 0.74072 0.54508 0.29157
 H2197 H 0.67901 0.57738 0.28558
 H2198 H 0.68886 0.55793 0.27595
 C2199 C 0.70033 1.07783 0.79807
 C2200 C 0.70802 1.08510 0.80980
 C2201 C 0.70179 1.09786 0.81657
 C2202 C 0.68800 1.10386 0.81167
 C2203 C 0.68054 1.09661 0.79987
 C2204 C 0.68654 1.08382 0.79323
 C2205 C 0.70741 1.06429 0.79107
 C2206 C 0.70049 1.05603 0.77956
 C2207 C 0.70789 1.04396 0.77293
 C2208 C 0.72227 1.03983 0.77766
 C2209 C 0.72909 1.04758 0.78940
 C2210 C 0.72177 1.05974 0.79616
 C2211 C 0.72202 1.07976 0.81457
 C2212 C 0.72880 1.06744 0.80781
 H2213 H 0.72796 1.08534 0.82353
 H2214 H 0.73975 1.06390 0.81176
 H2215 H 0.70797 1.10320 0.82548
 H2216 H 0.66991 1.10066 0.79568
 H2217 H 0.70254 1.03799 0.76386
 H2218 H 0.74024 1.04430 0.79302
 H2219 H 0.68024 1.07889 0.78422
 H2220 H 0.68947 1.05877 0.77539
 C2221 C 0.20006 0.57665 0.79815
 C2222 C 0.20840 0.58477 0.80888
 C2223 C 0.20222 0.59761 0.81554
 C2224 C 0.18782 0.60267 0.81159
 C2225 C 0.17958 0.59455 0.80101
 C2226 C 0.18556 0.58172 0.79440
 C2227 C 0.20718 0.56318 0.79106
 C2228 C 0.19987 0.55437 0.78020
 C2229 C 0.20729 0.54239 0.77342
 C2230 C 0.22208 0.53890 0.77734
 C2231 C 0.22932 0.54721 0.78844
 C2232 C 0.22202 0.55932 0.79529
 C2233 C 0.22292 0.58016 0.81276
 C2234 C 0.22960 0.56774 0.80609
 H2235 H 0.22932 0.58637 0.82097
 H2236 H 0.24095 0.56478 0.80932
 H2237 H 0.20883 0.60384 0.82355
 H2238 H 0.16840 0.59805 0.79781
 H2239 H 0.20159 0.53600 0.76487
 H2240 H 0.24080 0.54445 0.79141
 H2241 H 0.17864 0.57601 0.78635
 H2242 H 0.18853 0.55663 0.77665
 C2243 C 0.20035 1.07698 0.29788
 C2244 C 0.20866 1.08507 0.30865
 C2245 C 0.20249 1.09791 0.31530
 C2246 C 0.18811 1.10300 0.31133
 C2247 C 0.17986 1.09487 0.30074
 C2248 C 0.18585 1.08205 0.29412
 C2249 C 0.20751 1.06356 0.29075
 C2250 C 0.20026 1.05481 0.27981
 C2251 C 0.20771 1.04289 0.27300
 C2252 C 0.22248 1.03937 0.27699
 C2253 C 0.22967 1.04760 0.28817
 C2254 C 0.22234 1.05968 0.29503
 C2255 C 0.22316 1.08045 0.31258
 C2256 C 0.22986 1.06804 0.30591
 H2257 H 0.22951 1.08662 0.32085
 H2258 H 0.24117 1.06503 0.30923
 H2259 H 0.20909 1.10408 0.32336
 H2260 H 0.16868 1.09834 0.29753
 H2261 H 0.20207 1.03655 0.26436
 H2262 H 0.24112 1.04479 0.29121
 H2263 H 0.17897 1.07639 0.28600
 H2264 H 0.18896 1.05712 0.27616
 C2265 C 0.70193 0.42261 0.70022
 C2266 C 0.69074 0.41463 0.70813
 C2267 C 0.68412 0.40185 0.70182
 C2268 C 0.68848 0.39675 0.68765
 C2269 C 0.69941 0.40484 0.67976
 C2270 C 0.70604 0.41757 0.68591
 C2271 C 0.70905 0.43592 0.70756
 C2272 C 0.72058 0.44437 0.70080
 C2273 C 0.72728 0.45627 0.70838
 C2274 C 0.72257 0.46007 0.72277
 C2275 C 0.71094 0.45202 0.72951
 C2276 C 0.70420 0.43994 0.72207
 C2277 C 0.68632 0.41934 0.72238
 C2278 C 0.69290 0.43173 0.72918
 H2279 H 0.67773 0.41327 0.72843
 H2280 H 0.68919 0.43482 0.74027
 H2281 H 0.67576 0.39576 0.70814
 H2282 H 0.70294 0.40137 0.66875
 H2283 H 0.73634 0.46241 0.70312
 H2284 H 0.70743 0.45495 0.74072
 H2285 H 0.71439 0.42322 0.67928
 H2286 H 0.72476 0.44188 0.68980
 C2287 C 0.70259 -0.07777 0.20051
 C2288 C 0.69074 -0.08521 0.20797
 C2289 C 0.68419 -0.09803 0.20166
 C2290 C 0.68928 -0.10370 0.18794
 C2291 C 0.70093 -0.09616 0.18053
 C2292 C 0.70749 -0.08341 0.18668
 C2293 C 0.70956 -0.06436 0.20782
 C2294 C 0.72166 -0.05639 0.20149
 C2295 C 0.72819 -0.04441 0.20907
 C2296 C 0.72275 -0.04005 0.22304
 C2297 C 0.71053 -0.04759 0.22933
 C2298 C 0.70394 -0.05974 0.22187
 C2299 C 0.68556 -0.07990 0.22174
 C2300 C 0.69201 -0.06745 0.22854
 H2301 H 0.67644 -0.08556 0.22743
 H2302 H 0.68769 -0.06389 0.23927
 H2303 H 0.67525 -0.10365 0.20761
 H2304 H 0.70509 -0.10006 0.16989
 H2305 H 0.73771 -0.03868 0.20417
 H2306 H 0.70644 -0.04422 0.24022
 H2307 H 0.71641 -0.07820 0.18042
 H2308 H 0.72642 -0.05932 0.19083
 C2309 C 0.19997 0.42336 0.20262
 C2310 C 0.20722 0.41650 0.19035
 C2311 C 0.20102 0.40366 0.18374
 C2312 C 0.18761 0.39740 0.18917
 C2313 C 0.18039 0.40434 0.20125
 C2314 C 0.18644 0.41712 0.20788
 C2315 C 0.20718 0.43681 0.20961
 C2316 C 0.20106 0.44426 0.22209
 C2317 C 0.20859 0.45630 0.22859
 C2318 C 0.22227 0.46125 0.22274
 C2319 C 0.22834 0.45423 0.21016
 C2320 C 0.22095 0.44203 0.20360
 C2321 C 0.22071 0.42237 0.18481
 C2322 C 0.22741 0.43486 0.19129
 H2323 H 0.22625 0.41714 0.17539
 H2324 H 0.23792 0.43887 0.18668
 H2325 H 0.20685 0.39846 0.17450
 H2326 H 0.16998 0.39995 0.20565
 H2327 H 0.20389 0.46162 0.23840
 H2328 H 0.23903 0.45804 0.20578
 H2329 H 0.18035 0.42187 0.21713
 H2330 H 0.19063 0.44085 0.22716
 C2331 C 0.20037 -0.07703 0.70256
 C2332 C 0.20732 -0.08371 0.69002
 C2333 C 0.20100 -0.09650 0.68344
 C2334 C 0.18778 -0.10289 0.68914
 C2335 C 0.18086 -0.09615 0.70150
 C2336 C 0.18703 -0.08341 0.70812
 C2337 C 0.20770 -0.06361 0.70949
 C2338 C 0.20186 -0.05630 0.72219
 C2339 C 0.20950 -0.04428 0.72860
 C2340 C 0.22301 -0.03921 0.72247
 C2341 C 0.22878 -0.04608 0.70967
 C2342 C 0.22127 -0.05825 0.70318
 C2343 C 0.22061 -0.07770 0.68419
 C2344 C 0.22743 -0.06525 0.69062
 H2345 H 0.22592 -0.08279 0.67456
 H2346 H 0.23780 -0.06113 0.68578
 H2347 H 0.20660 -0.10154 0.67397
 H2348 H 0.17061 -0.10065 0.70615
 H2349 H 0.20502 -0.03907 0.73857
 H2350 H 0.23933 -0.04216 0.70504
 H2351 H 0.18118 -0.07881 0.71760
 H2352 H 0.19159 -0.05982 0.72749
 C2353 C 0.29780 0.29951 0.42343
 C2354 C 0.30911 0.29159 0.41561
 C2355 C 0.31560 0.29778 0.40272
 C2356 C 0.31103 0.31185 0.39741
 C2357 C 0.29997 0.31974 0.40535
 C2358 C 0.29345 0.31370 0.41815
 C2359 C 0.29082 0.29232 0.43686
 C2360 C 0.27907 0.29902 0.44506
 C2361 C 0.27249 0.29155 0.45707
 C2362 C 0.27759 0.27737 0.46129
 C2363 C 0.28947 0.27072 0.45350
 C2364 C 0.29603 0.27800 0.44126
 C2365 C 0.31381 0.27751 0.42062
 C2366 C 0.30746 0.27089 0.43319
 H2367 H 0.32251 0.27145 0.41467
 H2368 H 0.31143 0.25993 0.43655
 H2369 H 0.32408 0.29147 0.39676
 H2370 H 0.29630 0.33069 0.40175
 H2371 H 0.26320 0.29673 0.46294
 H2372 H 0.29325 0.25964 0.45671
 H2373 H 0.28503 0.32035 0.42370
 H2374 H 0.27457 0.30985 0.44224
 C2375 C 0.29884 0.79954 -0.07691
 C2376 C 0.30972 0.79145 -0.08513
 C2377 C 0.31625 0.79776 -0.09792
 C2378 C 0.31213 0.81213 -0.10280
 C2379 C 0.30150 0.82020 -0.09446
 C2380 C 0.29495 0.81404 -0.08172
 C2381 C 0.29176 0.79220 -0.06361
 C2382 C 0.28048 0.79912 -0.05494
 C2383 C 0.27380 0.79153 -0.04306
 C2384 C 0.27828 0.77697 -0.03949
 C2385 C 0.28967 0.77006 -0.04776
 C2386 C 0.29638 0.77751 -0.05982
 C2387 C 0.31392 0.77703 -0.08065
 C2388 C 0.30742 0.77023 -0.06825
 H2389 H 0.32230 0.77085 -0.08690
 H2390 H 0.31096 0.75900 -0.06534
 H2391 H 0.32441 0.79131 -0.10415
 H2392 H 0.29814 0.83135 -0.09772
 H2393 H 0.26491 0.79691 -0.03678
 H2394 H 0.29300 0.75871 -0.04501
 H2395 H 0.28683 0.82081 -0.07588
 H2396 H 0.27648 0.81026 -0.05726
 C2397 C 0.79762 0.29997 -0.07611
 C2398 C 0.80914 0.29218 -0.08375
 C2399 C 0.81557 0.29831 -0.09668
 C2400 C 0.81078 0.31223 -0.10220
 C2401 C 0.79962 0.32007 -0.09436
 C2402 C 0.79313 0.31407 -0.08152
 C2403 C 0.79060 0.29275 -0.06271
 C2404 C 0.77848 0.29917 -0.05483
 C2405 C 0.77187 0.29163 -0.04289
 C2406 C 0.77730 0.27766 -0.03839
 C2407 C 0.78956 0.27129 -0.04586
 C2408 C 0.79611 0.27862 -0.05808
 C2409 C 0.81410 0.27826 -0.07853
 C2410 C 0.80780 0.27168 -0.06592
 H2411 H 0.82296 0.27231 -0.08434
 H2412 H 0.81197 0.26084 -0.06240
 H2413 H 0.82417 0.29205 -0.10252
 H2414 H 0.79580 0.33092 -0.09810
 H2415 H 0.76230 0.29658 -0.03726
 H2416 H 0.79361 0.26037 -0.04244
 H2417 H 0.78462 0.32067 -0.07604
 H2418 H 0.77371 0.30982 -0.05789
 C2419 C 0.79791 0.80002 0.42389
 C2420 C 0.80896 0.79185 0.41596
 C2421 C 0.81553 0.79793 0.40306
 C2422 C 0.81121 0.81209 0.39779
 C2423 C 0.80044 0.82024 0.40585
 C2424 C 0.79389 0.81434 0.41870
 C2425 C 0.79076 0.79288 0.43727
 C2426 C 0.77938 0.79991 0.44572
 C2427 C 0.77255 0.79246 0.45760
 C2428 C 0.77694 0.77792 0.46136
 C2429 C 0.78854 0.77096 0.45340
 C2430 C 0.79541 0.77828 0.44135
 C2431 C 0.81326 0.77758 0.42079
 C2432 C 0.80663 0.77095 0.43321
 H2433 H 0.82177 0.77135 0.41476
 H2434 H 0.81022 0.75980 0.43638
 H2435 H 0.82377 0.79142 0.39700
 H2436 H 0.79698 0.83127 0.40227
 H2437 H 0.76358 0.79791 0.46370
 H2438 H 0.79188 0.75968 0.45636
 H2439 H 0.78563 0.82115 0.42431
 H2440 H 0.77540 0.81102 0.44321
 C2441 C 0.70023 0.29798 0.57661
 C2442 C 0.70824 0.30921 0.58439
 C2443 C 0.70214 0.31563 0.59734
 C2444 C 0.68808 0.31104 0.60280
 C2445 C 0.68006 0.30011 0.59488
 C2446 C 0.68601 0.29367 0.58199
 C2447 C 0.70741 0.29100 0.56316
 C2448 C 0.70064 0.27932 0.55496
 C2449 C 0.70814 0.27271 0.54298
 C2450 C 0.72243 0.27768 0.53880
 C2451 C 0.72915 0.28948 0.54657
 C2452 C 0.72182 0.29609 0.55876
 C2453 C 0.72237 0.31387 0.57931
 C2454 C 0.72899 0.30748 0.56675
 H2455 H 0.72848 0.32251 0.58523
 H2456 H 0.74001 0.31138 0.56338
 H2457 H 0.70855 0.32401 0.60328
 H2458 H 0.66911 0.29644 0.59860
 H2459 H 0.70292 0.26350 0.53709
 H2460 H 0.74030 0.29316 0.54336
 H2461 H 0.67929 0.28531 0.57647
 H2462 H 0.68972 0.27494 0.55777
 C2463 C 0.70064 0.79777 1.07645
 C2464 C 0.70866 0.80886 1.08442
 C2465 C 0.70243 0.81530 1.09730
 C2466 C 0.68823 0.81087 1.10251
 C2467 C 0.68026 0.79997 1.09450
 C2468 C 0.68633 0.79352 1.08167
 C2469 C 0.70786 0.79090 1.06298
 C2470 C 0.70096 0.77955 1.05445
 C2471 C 0.70848 0.77304 1.04242
 C2472 C 0.72294 0.77776 1.03857
 C2473 C 0.72980 0.78926 1.04666
 C2474 C 0.72242 0.79581 1.05885
 C2475 C 0.72293 0.81336 1.07959
 C2476 C 0.72966 0.80698 1.06709
 H2477 H 0.72907 0.82188 1.08566
 H2478 H 0.74078 0.81075 1.06390
 H2479 H 0.70883 0.82362 1.10335
 H2480 H 0.66923 0.79639 1.09806
 H2481 H 0.70314 0.76407 1.03627
 H2482 H 0.74107 0.79277 1.04368
 H2483 H 0.67964 0.78519 1.07607
 H2484 H 0.68989 0.77537 1.05699
 C2485 C 0.20194 0.29978 1.07728
 C2486 C 0.19107 0.29162 1.08544
 C2487 C 0.18461 0.29781 1.09834
 C2488 C 0.18873 0.31213 1.10334
 C2489 C 0.19931 0.32028 1.09503
 C2490 C 0.20581 0.31423 1.08221
 C2491 C 0.20896 0.29256 1.06387
 C2492 C 0.22038 0.29945 1.05538
 C2493 C 0.22702 0.29195 1.04341
 C2494 C 0.22233 0.27754 1.03952
 C2495 C 0.21080 0.27067 1.04762
 C2496 C 0.20419 0.27799 1.05983
 C2497 C 0.18679 0.27730 1.08077
 C2498 C 0.19315 0.27066 1.06820
 H2499 H 0.17842 0.27106 1.08697
 H2500 H 0.18952 0.25950 1.06512
 H2501 H 0.17647 0.29130 1.10453
 H2502 H 0.20266 0.33140 1.09837
 H2503 H 0.23605 0.29730 1.03730
 H2504 H 0.20733 0.25942 1.04466
 H2505 H 0.21386 0.32107 1.07636
 H2506 H 0.22455 0.31047 1.05794
 C2507 C 0.20183 0.79995 0.57690
 C2508 C 0.19069 0.79197 0.58486
 C2509 C 0.18420 0.79818 0.59773
 C2510 C 0.18862 0.81234 0.60294
 C2511 C 0.19950 0.82030 0.59486
 C2512 C 0.20602 0.81424 0.58205
 C2513 C 0.20883 0.79270 0.56349
 C2514 C 0.22037 0.79948 0.55508
 C2515 C 0.22698 0.79195 0.54312
 C2516 C 0.22215 0.77759 0.53919
 C2517 C 0.21047 0.77085 0.54718
 C2518 C 0.20386 0.77823 0.55934
 C2519 C 0.18616 0.77776 0.58003
 C2520 C 0.19258 0.77106 0.56753
 H2521 H 0.17759 0.77167 0.58609
 H2522 H 0.18877 0.76000 0.56434
 H2523 H 0.17583 0.79180 0.60374
 H2524 H 0.20312 0.83129 0.59839
 H2525 H 0.23609 0.79720 0.53706
 H2526 H 0.20688 0.75966 0.54415
 H2527 H 0.21434 0.82092 0.57641
 H2528 H 0.22466 0.81045 0.55769
 C2529 C 0.29756 0.70029 0.57698
 C2530 C 0.30901 0.70805 0.58472
 C2531 C 0.31549 0.70179 0.59756
 C2532 C 0.31077 0.68780 0.60294
 C2533 C 0.29952 0.68008 0.59513
 C2534 C 0.29301 0.68619 0.58235
 C2535 C 0.29064 0.70756 0.56355
 C2536 C 0.27887 0.70097 0.55532
 C2537 C 0.27236 0.70852 0.54333
 C2538 C 0.27752 0.72270 0.53919
 C2539 C 0.28943 0.72924 0.54699
 C2540 C 0.29596 0.72184 0.55918
 C2541 C 0.31386 0.72208 0.57969
 C2542 C 0.30750 0.72881 0.56718
 H2543 H 0.32266 0.72801 0.58558
 H2544 H 0.31156 0.73973 0.56383
 H2545 H 0.32409 0.70799 0.60343
 H2546 H 0.29570 0.66921 0.59881
 H2547 H 0.26307 0.70343 0.53741
 H2548 H 0.29329 0.74030 0.54381
 H2549 H 0.28443 0.67969 0.57690
 H2550 H 0.27434 0.69013 0.55808
 C2551 C 0.29792 0.20049 1.07710
 C2552 C 0.30967 0.20808 1.08456
 C2553 C 0.31616 0.20187 1.09742
 C2554 C 0.31107 0.18815 1.10314
 C2555 C 0.29950 0.18060 1.09565
 C2556 C 0.29302 0.18664 1.08281
 C2557 C 0.29103 0.20771 1.06364
 C2558 C 0.27911 0.20121 1.05554
 C2559 C 0.27261 0.20875 1.04355
 C2560 C 0.27790 0.22284 1.03928
 C2561 C 0.28998 0.22928 1.04691
 C2562 C 0.29654 0.22186 1.05907
 C2563 C 0.31476 0.22193 1.07929
 C2564 C 0.30833 0.22867 1.06683
 H2565 H 0.32377 0.22773 1.08499
 H2566 H 0.31257 0.23948 1.06332
 H2567 H 0.32497 0.20794 1.10311
 H2568 H 0.29541 0.16994 1.09964
 H2569 H 0.26321 0.20373 1.03773
 H2570 H 0.29395 0.24026 1.04361
 H2571 H 0.28415 0.18031 1.07761
 H2572 H 0.27449 0.19045 1.05841
 C2573 C 0.79831 0.70031 1.07638
 C2574 C 0.80906 0.70860 1.08457
 C2575 C 0.81559 0.70248 1.09746
 C2576 C 0.81142 0.68822 1.10255
 C2577 C 0.80081 0.68002 1.09437
 C2578 C 0.79437 0.68592 1.08147
 C2579 C 0.79133 0.70740 1.06290
 C2580 C 0.78053 0.70010 1.05397
 C2581 C 0.77379 0.70750 1.04200
 C2582 C 0.77769 0.72226 1.03864
 C2583 C 0.78876 0.72950 1.04706
 C2584 C 0.79558 0.72220 1.05914
 C2585 C 0.81305 0.72305 1.08001
 C2586 C 0.80641 0.72973 1.06762
 H2587 H 0.82129 0.72940 1.08626
 H2588 H 0.80971 0.74102 1.06470
 H2589 H 0.82365 0.70903 1.10372
 H2590 H 0.79748 0.66893 1.09789
 H2591 H 0.76524 0.70182 1.03554
 H2592 H 0.79174 0.74095 1.04438
 H2593 H 0.78623 0.67908 1.07576
 H2594 H 0.77697 0.68879 1.05614
 C2595 C 0.79725 0.19950 0.57650
 C2596 C 0.80852 0.20752 0.58425
 C2597 C 0.81512 0.20141 0.59709
 C2598 C 0.81058 0.18740 0.60255
 C2599 C 0.79948 0.17945 0.59479
 C2600 C 0.79292 0.18536 0.58194
 C2601 C 0.79019 0.20661 0.56306
 C2602 C 0.77879 0.19963 0.55463
 C2603 C 0.77205 0.20707 0.54269
 C2604 C 0.77656 0.22154 0.53884
 C2605 C 0.78819 0.22844 0.54677
 C2606 C 0.79499 0.22113 0.55886
 C2607 C 0.81297 0.22170 0.57929
 C2608 C 0.80633 0.22837 0.56690
 H2609 H 0.82161 0.22784 0.58520
 H2610 H 0.81004 0.23945 0.56365
 H2611 H 0.82357 0.20779 0.60302
 H2612 H 0.79584 0.16855 0.59858
 H2613 H 0.76306 0.20165 0.53660
 H2614 H 0.79163 0.23967 0.54374
 H2615 H 0.78442 0.17870 0.57653
 H2616 H 0.77476 0.18856 0.55717
 C2617 C 0.70045 0.70195 0.42354
 C2618 C 0.70819 0.69035 0.41600
 C2619 C 0.70201 0.68391 0.40310
 C2620 C 0.68816 0.68886 0.39745
 C2621 C 0.68044 0.70023 0.40507
 C2622 C 0.68645 0.70667 0.41793
 C2623 C 0.70766 0.70884 0.43702
 C2624 C 0.70109 0.72074 0.44507
 C2625 C 0.70861 0.72723 0.45709
 C2626 C 0.72273 0.72195 0.46145
 C2627 C 0.72925 0.70992 0.45382
 C2628 C 0.72188 0.70340 0.44161
 C2629 C 0.72214 0.68536 0.42125
 C2630 C 0.72882 0.69173 0.43379
 H2631 H 0.72806 0.67646 0.41551
 H2632 H 0.73970 0.68756 0.43730
 H2633 H 0.70819 0.67522 0.39733
 H2634 H 0.66965 0.70417 0.40117
 H2635 H 0.70354 0.73662 0.46286
 H2636 H 0.74028 0.70598 0.45715
 H2637 H 0.67996 0.71536 0.42323
 H2638 H 0.69031 0.72538 0.44213
 C2639 C 0.70061 0.20198 -0.07635
 C2640 C 0.70844 0.19038 -0.08379
 C2641 C 0.70240 0.18391 -0.09674
 C2642 C 0.68857 0.18879 -0.10250
 C2643 C 0.68071 0.20009 -0.09491
 C2644 C 0.68660 0.20658 -0.08203
 C2645 C 0.70770 0.20899 -0.06288
 C2646 C 0.70117 0.22109 -0.05510
 C2647 C 0.70861 0.22769 -0.04309
 C2648 C 0.72259 0.22228 -0.03843
 C2649 C 0.72904 0.21003 -0.04577
 C2650 C 0.72181 0.20347 -0.05804
 C2651 C 0.72231 0.18539 -0.07835
 C2652 C 0.72881 0.19174 -0.06572
 H2653 H 0.72829 0.17648 -0.08401
 H2654 H 0.73962 0.18755 -0.06204
 H2655 H 0.70866 0.17524 -0.10245
 H2656 H 0.66991 0.20395 -0.09886
 H2657 H 0.70359 0.23724 -0.03756
 H2658 H 0.73996 0.20600 -0.04222
 H2659 H 0.67999 0.21520 -0.07675
 H2660 H 0.69051 0.22584 -0.05828
 C2661 C 0.19999 0.70234 -0.07732
 C2662 C 0.20819 0.69129 -0.08520
 C2663 C 0.20205 0.68466 -0.09803
 C2664 C 0.18786 0.68898 -0.10334
 C2665 C 0.17976 0.69990 -0.09547
 C2666 C 0.18569 0.70646 -0.08263
 C2667 C 0.20710 0.70940 -0.06388
 C2668 C 0.19990 0.72049 -0.05523
 C2669 C 0.20731 0.72723 -0.04327
 C2670 C 0.22200 0.72304 -0.03964
 C2671 C 0.22914 0.71173 -0.04779
 C2672 C 0.22183 0.70490 -0.05987
 C2673 C 0.22256 0.68710 -0.08042
 C2674 C 0.22926 0.69380 -0.06807
 H2675 H 0.22884 0.67864 -0.08644
 H2676 H 0.24049 0.69031 -0.06495
 H2677 H 0.20854 0.67637 -0.10405
 H2678 H 0.16872 0.70337 -0.09915
 H2679 H 0.20171 0.73598 -0.03702
 H2680 H 0.24053 0.70853 -0.04491
 H2681 H 0.17892 0.71482 -0.07714
 H2682 H 0.18865 0.72427 -0.05761
 C2683 C 0.20213 0.20059 0.42338
 C2684 C 0.19089 0.20850 0.41547
 C2685 C 0.18446 0.20227 0.40259
 C2686 C 0.18905 0.18819 0.39731
 C2687 C 0.20013 0.18036 0.40525
 C2688 C 0.20658 0.18643 0.41808
 C2689 C 0.20895 0.20779 0.43689
 C2690 C 0.22038 0.20096 0.44541
 C2691 C 0.22685 0.20845 0.45746
 C2692 C 0.22200 0.22280 0.46137
 C2693 C 0.21038 0.22957 0.45331
 C2694 C 0.20387 0.22222 0.44109
 C2695 C 0.18622 0.22265 0.42037
 C2696 C 0.19258 0.22936 0.43289
 H2697 H 0.17760 0.22870 0.41434
 H2698 H 0.18868 0.24038 0.43611
 H2699 H 0.17601 0.20858 0.39660
 H2700 H 0.20387 0.16943 0.40163
 H2701 H 0.23590 0.20317 0.46359
 H2702 H 0.20676 0.24076 0.45633
 H2703 H 0.21506 0.17985 0.42361
 H2704 H 0.22468 0.18998 0.44282
 C2705 C 0.30027 0.42303 0.70202
 C2706 C 0.29179 0.41488 0.69144
 C2707 C 0.29790 0.40208 0.68465
 C2708 C 0.31242 0.39710 0.68828
 C2709 C 0.32088 0.40536 0.69860
 C2710 C 0.31494 0.41813 0.70536
 C2711 C 0.29314 0.43634 0.70939
 C2712 C 0.30050 0.44501 0.72032
 C2713 C 0.29309 0.45685 0.72735
 C2714 C 0.27826 0.46036 0.72360
 C2715 C 0.27093 0.45215 0.71248
 C2716 C 0.27821 0.44014 0.70542
 C2717 C 0.27716 0.41941 0.68783
 C2718 C 0.27053 0.43176 0.69466
 H2719 H 0.27067 0.41321 0.67969
 H2720 H 0.25912 0.43470 0.69160
 H2721 H 0.29115 0.39583 0.67678
 H2722 H 0.33217 0.40199 0.70153
 H2723 H 0.29885 0.46315 0.73594
 H2724 H 0.25942 0.45491 0.70963
 H2725 H 0.32200 0.42392 0.71324
 H2726 H 0.31187 0.44272 0.72379
 C2727 C 0.29815 0.92335 0.19986
 C2728 C 0.30969 0.91554 0.20743
 C2729 C 0.31610 0.90268 0.20106
 C2730 C 0.31118 0.89732 0.18717
 C2731 C 0.29985 0.90518 0.17964
 C2732 C 0.29343 0.91801 0.18584
 C2733 C 0.29131 0.93679 0.20726
 C2734 C 0.27956 0.94518 0.20081
 C2735 C 0.27309 0.95715 0.20849
 C2736 C 0.27826 0.96110 0.22267
 C2737 C 0.29017 0.95316 0.22907
 C2738 C 0.29668 0.94102 0.22152
 C2739 C 0.31464 0.92047 0.22141
 C2740 C 0.30828 0.93293 0.22830
 H2741 H 0.32348 0.91450 0.22721
 H2742 H 0.31238 0.93616 0.23921
 H2743 H 0.32473 0.89671 0.20713
 H2744 H 0.29590 0.90147 0.16885
 H2745 H 0.26385 0.96323 0.20348
 H2746 H 0.29404 0.95621 0.24012
 H2747 H 0.28477 0.92352 0.17949
 H2748 H 0.27504 0.94259 0.18996
 C2749 C 0.79873 0.42369 0.20074
 C2750 C 0.81011 0.41578 0.20845
 C2751 C 0.81662 0.40296 0.20206
 C2752 C 0.81194 0.39775 0.18804
 C2753 C 0.80084 0.40578 0.18034
 C2754 C 0.79433 0.41856 0.18655
 C2755 C 0.79169 0.43701 0.20818
 C2756 C 0.77997 0.44537 0.20164
 C2757 C 0.77335 0.45726 0.20931
 C2758 C 0.77832 0.46116 0.22357
 C2759 C 0.79015 0.45320 0.23010
 C2760 C 0.79681 0.44112 0.22256
 C2761 C 0.81480 0.42057 0.22256
 C2762 C 0.80831 0.43298 0.22946
 H2763 H 0.82355 0.41456 0.22845
 H2764 H 0.81224 0.43613 0.24045
 H2765 H 0.82513 0.39690 0.20822
 H2766 H 0.79710 0.40224 0.16942
 H2767 H 0.76414 0.46332 0.20421
 H2768 H 0.79387 0.45620 0.24121
 H2769 H 0.78583 0.42417 0.18007
 H2770 H 0.77558 0.44281 0.19074
 C2771 C 0.79843 0.92358 0.70127
 C2772 C 0.80970 0.91555 0.70901
 C2773 C 0.81612 0.90269 0.70261
 C2774 C 0.81146 0.89756 0.68855
 C2775 C 0.80043 0.90569 0.68085
 C2776 C 0.79401 0.91851 0.68707
 C2777 C 0.79152 0.93698 0.70869
 C2778 C 0.77996 0.94551 0.70209
 C2779 C 0.77343 0.95746 0.70975
 C2780 C 0.77836 0.96125 0.72406
 C2781 C 0.79007 0.95314 0.73063
 C2782 C 0.79662 0.94101 0.72310
 C2783 C 0.81439 0.92027 0.72315
 C2784 C 0.80800 0.93273 0.73004
 H2785 H 0.82305 0.91415 0.72906
 H2786 H 0.81192 0.93582 0.74105
 H2787 H 0.82456 0.89654 0.70878
 H2788 H 0.79670 0.90222 0.66991
 H2789 H 0.76432 0.96363 0.70463
 H2790 H 0.79376 0.95607 0.74177
 H2791 H 0.78558 0.92419 0.68058
 H2792 H 0.77561 0.94304 0.69116
 C2793 C 0.70176 0.57622 0.70061
 C2794 C 0.69086 0.58446 0.70867
 C2795 C 0.68438 0.59734 0.70240
 C2796 C 0.68857 0.60228 0.68812
 C2797 C 0.69926 0.59395 0.68012
 C2798 C 0.70575 0.58113 0.68623
 C2799 C 0.70873 0.56278 0.70787
 C2800 C 0.71998 0.55406 0.70095
 C2801 C 0.72660 0.54208 0.70847
 C2802 C 0.72207 0.53842 0.72294
 C2803 C 0.71065 0.54671 0.72983
 C2804 C 0.70403 0.55889 0.72245
 C2805 C 0.68658 0.57989 0.72298
 C2806 C 0.69300 0.56737 0.72972
 H2807 H 0.67820 0.58615 0.72915
 H2808 H 0.68940 0.56439 0.74087
 H2809 H 0.67621 0.60360 0.70881
 H2810 H 0.70269 0.59727 0.66904
 H2811 H 0.73549 0.53578 0.70310
 H2812 H 0.70728 0.54390 0.74110
 H2813 H 0.71391 0.57529 0.67950
 H2814 H 0.72403 0.55643 0.68988
 C2815 C 0.70225 0.07612 0.20091
 C2816 C 0.69112 0.08421 0.20880
 C2817 C 0.68464 0.09707 0.20248
 C2818 C 0.68908 0.10212 0.18831
 C2819 C 0.69999 0.09394 0.18046
 C2820 C 0.70647 0.08114 0.18662
 C2821 C 0.70915 0.06265 0.20818
 C2822 C 0.72058 0.05406 0.20141
 C2823 C 0.72714 0.04207 0.20896
 C2824 C 0.72235 0.03827 0.22332
 C2825 C 0.71074 0.04641 0.23005
 C2826 C 0.70417 0.05860 0.22264
 C2827 C 0.68660 0.07950 0.22301
 C2828 C 0.69296 0.06697 0.22976
 H2829 H 0.67805 0.08566 0.22905
 H2830 H 0.68917 0.06388 0.24082
 H2831 H 0.67633 0.10326 0.20879
 H2832 H 0.70361 0.09737 0.16948
 H2833 H 0.73618 0.03588 0.20371
 H2834 H 0.70720 0.04351 0.24125
 H2835 H 0.71478 0.07541 0.18001
 H2836 H 0.72482 0.05654 0.19044
 C2837 C 0.20182 0.57697 0.20013
 C2838 C 0.19166 0.58572 0.20860
 C2839 C 0.18506 0.59855 0.20234
 C2840 C 0.18850 0.60295 0.18770
 C2841 C 0.19846 0.59414 0.17931
 C2842 C 0.20503 0.58136 0.18540
 C2843 C 0.20892 0.56357 0.20734
 C2844 C 0.21930 0.55422 0.19992
 C2845 C 0.22615 0.54234 0.20737
 C2846 C 0.22280 0.53947 0.22232
 C2847 C 0.21220 0.54836 0.22973
 C2848 C 0.20528 0.56039 0.22239
 C2849 C 0.18831 0.58176 0.22334
 C2850 C 0.19500 0.56939 0.23009
 H2851 H 0.18051 0.58843 0.22983
 H2852 H 0.19216 0.56691 0.24158
 H2853 H 0.17747 0.60525 0.20902
 H2854 H 0.20125 0.59707 0.16794
 H2855 H 0.23435 0.53553 0.20156
 H2856 H 0.20963 0.54606 0.24133
 H2857 H 0.21264 0.57515 0.17837
 H2858 H 0.22243 0.55597 0.18844
 C2859 C 0.20068 0.07679 0.70233
 C2860 C 0.20844 0.08438 0.69081
 C2861 C 0.20215 0.09719 0.68423
 C2862 C 0.18812 0.10269 0.68891
 C2863 C 0.18038 0.09500 0.70019
 C2864 C 0.18653 0.08225 0.70680
 C2865 C 0.20802 0.06343 0.70938
 C2866 C 0.20147 0.05539 0.72125
 C2867 C 0.20905 0.04340 0.72781
 C2868 C 0.22322 0.03908 0.72261
 C2869 C 0.22976 0.04675 0.71066
 C2870 C 0.22233 0.05893 0.70408
 C2871 C 0.22250 0.07923 0.68600
 C2872 C 0.22927 0.06676 0.69246
 H2873 H 0.22842 0.08500 0.67714
 H2874 H 0.24020 0.06329 0.68838
 H2875 H 0.20835 0.10295 0.67558
 H2876 H 0.16946 0.09875 0.70394
 H2877 H 0.20397 0.03760 0.73714
 H2878 H 0.24081 0.04343 0.70677
 H2879 H 0.18001 0.07690 0.71541
 H2880 H 0.19065 0.05830 0.72582
 C2881 C 0.29992 0.57722 0.29766
 C2882 C 0.29195 0.58492 0.30897
 C2883 C 0.29813 0.59775 0.31558
 C2884 C 0.31221 0.60320 0.31108
 C2885 C 0.32011 0.59551 0.29991
 C2886 C 0.31410 0.58270 0.29330
 C2887 C 0.29275 0.56375 0.29066
 C2888 C 0.29962 0.55543 0.27914
 C2889 C 0.29215 0.54339 0.27255
 C2890 C 0.27778 0.53932 0.27736
 C2891 C 0.27095 0.54722 0.28900
 C2892 C 0.27828 0.55941 0.29564
 C2893 C 0.27777 0.57988 0.31353
 C2894 C 0.27108 0.56741 0.30700
 H2895 H 0.27167 0.58576 0.32220
 H2896 H 0.26003 0.56407 0.31082
 H2897 H 0.29179 0.60361 0.32407
 H2898 H 0.33105 0.59931 0.29627
 H2899 H 0.29746 0.53739 0.26347
 H2900 H 0.25975 0.54408 0.29259
 H2901 H 0.32072 0.57732 0.28478
 H2902 H 0.31063 0.55813 0.27492
 C2903 C 0.29808 0.07632 0.80054
 C2904 C 0.30925 0.08431 0.79262
 C2905 C 0.31572 0.09721 0.79883
 C2906 C 0.31114 0.10248 0.81286
 C2907 C 0.30015 0.09447 0.82074
 C2908 C 0.29372 0.08157 0.81471
 C2909 C 0.29115 0.06284 0.79331
 C2910 C 0.27986 0.05417 0.80020
 C2911 C 0.27321 0.04224 0.79263
 C2912 C 0.27769 0.03866 0.77812
 C2913 C 0.28923 0.04680 0.77133
 C2914 C 0.29596 0.05886 0.77878
 C2915 C 0.31375 0.07954 0.77842
 C2916 C 0.30721 0.06712 0.77164
 H2917 H 0.32232 0.08563 0.77235
 H2918 H 0.31092 0.06404 0.76054
 H2919 H 0.32407 0.10331 0.79251
 H2920 H 0.29646 0.09813 0.83164
 H2921 H 0.26429 0.03597 0.79797
 H2922 H 0.29264 0.04396 0.76007
 H2923 H 0.28529 0.07598 0.82130
 H2924 H 0.27585 0.05652 0.81130
 C2925 C 0.79762 0.57651 0.79967
 C2926 C 0.80926 0.58412 0.79205
 C2927 C 0.81577 0.59698 0.79832
 C2928 C 0.81091 0.60249 0.81218
 C2929 C 0.79947 0.59480 0.81975
 C2930 C 0.79292 0.58201 0.81363
 C2931 C 0.79070 0.56305 0.79241
 C2932 C 0.77875 0.55495 0.79887
 C2933 C 0.77226 0.54291 0.79134
 C2934 C 0.77763 0.53858 0.77733
 C2935 C 0.78971 0.54626 0.77093
 C2936 C 0.79621 0.55851 0.77829
 C2937 C 0.81428 0.57895 0.77817
 C2938 C 0.80791 0.56640 0.77146
 H2939 H 0.82322 0.58474 0.77235
 H2940 H 0.81212 0.56293 0.76066
 H2941 H 0.82454 0.60273 0.79224
 H2942 H 0.79551 0.59857 0.83051
 H2943 H 0.76284 0.53709 0.79632
 H2944 H 0.79371 0.54294 0.75999
 H2945 H 0.78419 0.57666 0.82002
 H2946 H 0.77406 0.55785 0.80956
 C2947 C 0.79796 0.07620 0.29994
 C2948 C 0.80942 0.08397 0.29222
 C2949 C 0.81585 0.09689 0.29845
 C2950 C 0.81106 0.10230 0.31237
 C2951 C 0.79983 0.09443 0.32007
 C2952 C 0.79338 0.08159 0.31399
 C2953 C 0.79108 0.06271 0.29270
 C2954 C 0.77929 0.05446 0.29926
 C2955 C 0.77281 0.04242 0.29173
 C2956 C 0.77801 0.03825 0.27762
 C2957 C 0.78994 0.04606 0.27111
 C2958 C 0.79644 0.05831 0.27848
 C2959 C 0.81432 0.07891 0.27826
 C2960 C 0.80799 0.06634 0.27155
 H2961 H 0.82312 0.08483 0.27235
 H2962 H 0.81209 0.06297 0.26068
 H2963 H 0.82445 0.10279 0.29228
 H2964 H 0.79596 0.09814 0.33088
 H2965 H 0.76350 0.03649 0.29679
 H2966 H 0.79381 0.04286 0.26009
 H2967 H 0.78480 0.07610 0.32047
 H2968 H 0.77473 0.05724 0.31004
 C2969 C 0.70161 0.42406 0.30024
 C2970 C 0.69048 0.41607 0.29227
 C2971 C 0.68388 0.40324 0.29852
 C2972 C 0.68818 0.39812 0.31269
 C2973 C 0.69899 0.40628 0.32067
 C2974 C 0.70561 0.41904 0.31458
 C2975 C 0.70879 0.43737 0.29294
 C2976 C 0.72041 0.44570 0.29968
 C2977 C 0.72718 0.45758 0.29213
 C2978 C 0.72243 0.46151 0.27780
 C2979 C 0.71070 0.45357 0.27107
 C2980 C 0.70394 0.44147 0.27846
 C2981 C 0.68611 0.42082 0.27804
 C2982 C 0.69265 0.43327 0.27131
 H2983 H 0.67755 0.41475 0.27194
 H2984 H 0.68895 0.43641 0.26023
 H2985 H 0.67558 0.39713 0.29215
 H2986 H 0.70245 0.40284 0.33170
 H2987 H 0.73633 0.46359 0.29737
 H2988 H 0.70718 0.45657 0.25989
 H2989 H 0.71386 0.42475 0.32128
 H2990 H 0.72464 0.44310 0.31063
 C2991 C 0.70194 0.92381 0.80063
 C2992 C 0.69063 0.91602 0.79272
 C2993 C 0.68402 0.90315 0.79888
 C2994 C 0.68849 0.89778 0.81292
 C2995 C 0.69953 0.90571 0.82082
 C2996 C 0.70616 0.91852 0.81481
 C2997 C 0.70907 0.93720 0.79343
 C2998 C 0.72081 0.94541 0.80013
 C2999 C 0.72753 0.95736 0.79265
 C3000 C 0.72261 0.96151 0.77843
 C3001 C 0.71075 0.95371 0.77176
 C3002 C 0.70404 0.94154 0.77908
 C3003 C 0.68606 0.92101 0.77863
 C3004 C 0.69259 0.93352 0.77198
 H3005 H 0.67737 0.91509 0.77258
 H3006 H 0.68875 0.93683 0.76101
 H3007 H 0.67556 0.89722 0.79256
 H3008 H 0.70315 0.90206 0.83173
 H3009 H 0.73678 0.96326 0.79784
 H3010 H 0.70710 0.95687 0.76067
 H3011 H 0.71459 0.92404 0.82145
 H3012 H 0.72516 0.94265 0.81099
 C3013 C 0.20187 0.42298 0.80041
 C3014 C 0.19055 0.41510 0.79260
 C3015 C 0.18397 0.40229 0.79891
 C3016 C 0.18853 0.39704 0.81295
 C3017 C 0.19961 0.40501 0.82074
 C3018 C 0.20618 0.41779 0.81461
 C3019 C 0.20893 0.43633 0.79307
 C3020 C 0.22058 0.44471 0.79972
 C3021 C 0.22723 0.45663 0.79212
 C3022 C 0.22234 0.46056 0.77784
 C3023 C 0.21057 0.45259 0.77122
 C3024 C 0.20390 0.44048 0.77867
 C3025 C 0.18595 0.41993 0.77846
 C3026 C 0.19247 0.43235 0.77166
 H3027 H 0.17726 0.41392 0.77249
 H3028 H 0.18862 0.43552 0.76065
 H3029 H 0.17551 0.39627 0.79266
 H3030 H 0.20327 0.40142 0.83167
 H3031 H 0.23640 0.46268 0.79729
 H3032 H 0.20692 0.45560 0.76008
 H3033 H 0.21465 0.42336 0.82115
 H3034 H 0.22490 0.44212 0.81064
 C3035 C 0.20240 0.92349 0.29984
 C3036 C 0.19103 0.91565 0.29206
 C3037 C 0.18449 0.90282 0.29834
 C3038 C 0.18910 0.89754 0.31236
 C3039 C 0.20020 0.90549 0.32013
 C3040 C 0.20676 0.91827 0.31401
 C3041 C 0.20945 0.93684 0.29251
 C3042 C 0.22121 0.94511 0.29910
 C3043 C 0.22786 0.95703 0.29151
 C3044 C 0.22284 0.96108 0.27731
 C3045 C 0.21096 0.95322 0.27075
 C3046 C 0.20431 0.94109 0.27818
 C3047 C 0.18635 0.92055 0.27798
 C3048 C 0.19282 0.93302 0.27121
 H3049 H 0.17762 0.91458 0.27202
 H3050 H 0.18889 0.93627 0.26024
 H3051 H 0.17599 0.89682 0.29212
 H3052 H 0.20387 0.90190 0.33105
 H3053 H 0.23711 0.96299 0.29663
 H3054 H 0.20721 0.95634 0.25967
 H3055 H 0.21523 0.92383 0.32055
 H3056 H 0.22563 0.94243 0.30996
 C3057 C 0.42317 0.29826 0.70088
 C3058 C 0.41482 0.30907 0.70892
 C3059 C 0.40197 0.31559 0.70256
 C3060 C 0.39716 0.31150 0.68821
 C3061 C 0.40558 0.30088 0.68023
 C3062 C 0.41837 0.29435 0.68644
 C3063 C 0.43659 0.29128 0.70823
 C3064 C 0.44548 0.28019 0.70130
 C3065 C 0.45745 0.27358 0.70889
 C3066 C 0.46091 0.27795 0.72345
 C3067 C 0.45245 0.28919 0.73037
 C3068 C 0.44030 0.29583 0.72291
 C3069 C 0.41924 0.31322 0.72332
 C3070 C 0.43170 0.30675 0.73016
 H3071 H 0.41288 0.32153 0.72947
 H3072 H 0.43456 0.31025 0.74137
 H3073 H 0.39564 0.32370 0.70895
 H3074 H 0.40234 0.29752 0.66911
 H3075 H 0.46390 0.26483 0.70350
 H3076 H 0.45512 0.29244 0.74171
 H3077 H 0.42428 0.28624 0.67974
 H3078 H 0.44326 0.27628 0.69015
 C3079 C 0.42265 0.80023 0.20254
 C3080 C 0.41474 0.79197 0.19160
 C3081 C 0.40192 0.79809 0.18479
 C3082 C 0.39669 0.81237 0.18877
 C3083 C 0.40461 0.82054 0.19957
 C3084 C 0.41739 0.81460 0.20635
 C3085 C 0.43611 0.79317 0.20975
 C3086 C 0.44473 0.80042 0.22080
 C3087 C 0.45672 0.79308 0.22767
 C3088 C 0.46041 0.77841 0.22365
 C3089 C 0.45228 0.77122 0.21239
 C3090 C 0.44016 0.77846 0.20544
 C3091 C 0.41954 0.77758 0.18764
 C3092 C 0.43195 0.77096 0.19443
 H3093 H 0.41350 0.77125 0.17926
 H3094 H 0.43507 0.75971 0.19112
 H3095 H 0.39588 0.79154 0.17660
 H3096 H 0.40100 0.83163 0.20281
 H3097 H 0.46298 0.79872 0.23636
 H3098 H 0.45519 0.75984 0.20933
 H3099 H 0.42293 0.82144 0.21458
 H3100 H 0.44232 0.81166 0.22444
 C3101 C 0.92298 0.29840 0.20010
 C3102 C 0.91432 0.30862 0.20857
 C3103 C 0.90149 0.31532 0.20233
 C3104 C 0.89700 0.31194 0.18771
 C3105 C 0.90571 0.30191 0.17932
 C3106 C 0.91849 0.29523 0.18538
 C3107 C 0.93636 0.29119 0.20729
 C3108 C 0.94561 0.28072 0.19988
 C3109 C 0.95752 0.27382 0.20731
 C3110 C 0.96051 0.27722 0.22222
 C3111 C 0.95173 0.28790 0.22962
 C3112 C 0.93967 0.29486 0.22230
 C3113 C 0.91839 0.31198 0.22327
 C3114 C 0.93078 0.30523 0.23000
 H3115 H 0.91180 0.31984 0.22976
 H3116 H 0.93335 0.30808 0.24146
 H3117 H 0.89489 0.32296 0.20904
 H3118 H 0.90271 0.29914 0.16797
 H3119 H 0.96425 0.26556 0.20151
 H3120 H 0.95411 0.29049 0.24119
 H3121 H 0.92462 0.28758 0.17835
 H3122 H 0.94374 0.27754 0.18844
 C3123 C 0.92284 0.79849 0.70052
 C3124 C 0.91456 0.80930 0.70863
 C3125 C 0.90168 0.81586 0.70236
 C3126 C 0.89673 0.81172 0.68808
 C3127 C 0.90503 0.80107 0.68004
 C3128 C 0.91789 0.79456 0.68613
 C3129 C 0.93630 0.79147 0.70776
 C3130 C 0.94526 0.78056 0.70064
 C3131 C 0.95725 0.77387 0.70813
 C3132 C 0.96061 0.77792 0.72280
 C3133 C 0.95210 0.78901 0.72990
 C3134 C 0.93999 0.79581 0.72250
 C3135 C 0.91904 0.81335 0.72305
 C3136 C 0.93144 0.80671 0.72985
 H3137 H 0.91273 0.82165 0.72926
 H3138 H 0.93432 0.81010 0.74110
 H3139 H 0.89536 0.82396 0.70879
 H3140 H 0.90165 0.79773 0.66895
 H3141 H 0.96376 0.76527 0.70258
 H3142 H 0.95475 0.79207 0.74130
 H3143 H 0.92370 0.78640 0.67940
 H3144 H 0.94311 0.77688 0.68941
 C3145 C 0.57734 0.30004 0.29829
 C3146 C 0.58512 0.29227 0.30966
 C3147 C 0.59796 0.29858 0.31622
 C3148 C 0.60337 0.31260 0.31161
 C3149 C 0.59553 0.32034 0.30044
 C3150 C 0.58270 0.31420 0.29388
 C3151 C 0.56392 0.29269 0.29128
 C3152 C 0.55558 0.29933 0.27965
 C3153 C 0.54360 0.29172 0.27307
 C3154 C 0.53959 0.27742 0.27800
 C3155 C 0.54751 0.27082 0.28975
 C3156 C 0.55966 0.27830 0.29638
 C3157 C 0.58015 0.27815 0.31433
 C3158 C 0.56770 0.27133 0.30784
 H3159 H 0.58608 0.27221 0.32307
 H3160 H 0.56442 0.26033 0.31175
 H3161 H 0.60387 0.29235 0.32474
 H3162 H 0.59925 0.33123 0.29671
 H3163 H 0.53757 0.29687 0.26393
 H3164 H 0.54441 0.25968 0.29344
 H3165 H 0.57724 0.32069 0.28534
 H3166 H 0.55823 0.31026 0.27533
 C3167 C 0.57675 0.80088 0.79757
 C3168 C 0.58479 0.79264 0.80842
 C3169 C 0.59761 0.79882 0.81517
 C3170 C 0.60273 0.81315 0.81122
 C3171 C 0.59464 0.82133 0.80055
 C3172 C 0.58183 0.81533 0.79384
 C3173 C 0.56337 0.79369 0.79032
 C3174 C 0.55468 0.80085 0.77927
 C3175 C 0.54278 0.79337 0.77237
 C3176 C 0.53926 0.77867 0.77636
 C3177 C 0.54746 0.77156 0.78763
 C3178 C 0.55950 0.77892 0.79459
 C3179 C 0.58017 0.77819 0.81234
 C3180 C 0.56781 0.77147 0.80555
 H3181 H 0.58630 0.77189 0.82067
 H3182 H 0.56481 0.76020 0.80885
 H3183 H 0.60375 0.79225 0.82327
 H3184 H 0.59817 0.83245 0.79735
 H3185 H 0.53648 0.79896 0.76367
 H3186 H 0.54466 0.76016 0.79068
 H3187 H 0.57617 0.82217 0.78569
 H3188 H 0.55698 0.81211 0.77563
 C3189 C 0.07665 0.29874 0.79947
 C3190 C 0.08487 0.30971 0.79154
 C3191 C 0.09773 0.31622 0.79792
 C3192 C 0.10265 0.31196 0.81218
 C3193 C 0.09433 0.30122 0.82006
 C3194 C 0.08154 0.29470 0.81384
 C3195 C 0.06324 0.29177 0.79210
 C3196 C 0.05453 0.28048 0.79890
 C3197 C 0.04254 0.27391 0.79131
 C3198 C 0.03889 0.27851 0.77686
 C3199 C 0.04720 0.28992 0.77007
 C3200 C 0.05937 0.29652 0.77754
 C3201 C 0.08032 0.31404 0.77723
 C3202 C 0.06784 0.30760 0.77039
 H3203 H 0.08657 0.32247 0.77116
 H3204 H 0.06487 0.31124 0.75925
 H3205 H 0.10397 0.32445 0.79161
 H3206 H 0.09763 0.29774 0.83113
 H3207 H 0.03623 0.26501 0.79660
 H3208 H 0.04440 0.29334 0.75881
 H3209 H 0.07571 0.28650 0.82048
 H3210 H 0.05689 0.27639 0.80995
 C3211 C 0.07718 0.80038 0.29770
 C3212 C 0.08556 0.79192 0.30813
 C3213 C 0.09842 0.79805 0.31481
 C3214 C 0.10324 0.81258 0.31124
 C3215 C 0.09482 0.82098 0.30101
 C3216 C 0.08198 0.81502 0.29434
 C3217 C 0.06376 0.79325 0.29050
 C3218 C 0.05480 0.80062 0.27979
 C3219 C 0.04285 0.79323 0.27292
 C3220 C 0.03952 0.77839 0.27659
 C3221 C 0.04802 0.77106 0.28750
 C3222 C 0.06012 0.77833 0.29442
 C3223 C 0.08118 0.77730 0.31170
 C3224 C 0.06874 0.77066 0.30499
 H3225 H 0.08756 0.77082 0.31971
 H3226 H 0.06593 0.75926 0.30802
 H3227 H 0.10480 0.79133 0.32260
 H3228 H 0.09807 0.83227 0.29812
 H3229 H 0.03633 0.79899 0.26449
 H3230 H 0.04537 0.75956 0.29031
 H3231 H 0.07606 0.82204 0.28654
 H3232 H 0.05693 0.81199 0.27640
 C3233 C 0.57691 0.69962 0.70206
 C3234 C 0.58483 0.70773 0.69102
 C3235 C 0.59771 0.70155 0.68435
 C3236 C 0.60298 0.68734 0.68852
 C3237 C 0.59494 0.67925 0.69930
 C3238 C 0.58211 0.68526 0.70597
 C3239 C 0.56352 0.70684 0.70929
 C3240 C 0.55510 0.69988 0.72068
 C3241 C 0.54318 0.70739 0.72754
 C3242 C 0.53934 0.72190 0.72316
 C3243 C 0.54728 0.72879 0.71156
 C3244 C 0.55938 0.72143 0.70468
 C3245 C 0.57998 0.72203 0.68681
 C3246 C 0.56752 0.72872 0.69348
 H3247 H 0.58600 0.72822 0.67831
 H3248 H 0.56433 0.73987 0.68994
 H3249 H 0.60374 0.70802 0.67609
 H3250 H 0.59853 0.66820 0.70269
 H3251 H 0.53710 0.70197 0.73650
 H3252 H 0.54426 0.74006 0.70823
 H3253 H 0.57651 0.67849 0.71422
 H3254 H 0.55765 0.68879 0.72464
 C3255 C 0.57754 0.20000 0.20272
 C3256 C 0.58526 0.20785 0.19135
 C3257 C 0.59814 0.20163 0.18474
 C3258 C 0.60358 0.18757 0.18923
 C3259 C 0.59572 0.17972 0.20032
 C3260 C 0.58290 0.18580 0.20696
 C3261 C 0.56409 0.20725 0.20979
 C3262 C 0.55595 0.20062 0.22157
 C3263 C 0.54394 0.20816 0.22823
 C3264 C 0.53967 0.22235 0.22320
 C3265 C 0.54739 0.22893 0.21130
 C3266 C 0.55961 0.22156 0.20464
 C3267 C 0.58016 0.22193 0.18671
 C3268 C 0.56759 0.22861 0.19318
 H3269 H 0.58604 0.22794 0.17799
 H3270 H 0.56420 0.23958 0.18928
 H3271 H 0.60402 0.20793 0.17626
 H3272 H 0.59945 0.16881 0.20401
 H3273 H 0.53810 0.20303 0.23750
 H3274 H 0.54415 0.24002 0.20757
 H3275 H 0.57740 0.17919 0.21539
 H3276 H 0.55881 0.18978 0.22600
 C3277 C 0.07714 0.70210 0.20030
 C3278 C 0.08514 0.69092 0.20816
 C3279 C 0.09805 0.68441 0.20186
 C3280 C 0.10327 0.68893 0.18779
 C3281 C 0.09520 0.69989 0.17996
 C3282 C 0.08233 0.70639 0.18609
 C3283 C 0.06364 0.70905 0.20759
 C3284 C 0.05508 0.72049 0.20085
 C3285 C 0.04306 0.72708 0.20843
 C3286 C 0.03923 0.72234 0.22279
 C3287 C 0.04739 0.71078 0.22951
 C3288 C 0.05957 0.70414 0.22206
 C3289 C 0.08036 0.68642 0.22234
 C3290 C 0.06786 0.69289 0.22914
 H3291 H 0.08646 0.67783 0.22835
 H3292 H 0.06472 0.68912 0.24019
 H3293 H 0.10418 0.67605 0.20812
 H3294 H 0.09880 0.70352 0.16902
 H3295 H 0.03688 0.73610 0.20319
 H3296 H 0.04444 0.70724 0.24070
 H3297 H 0.07668 0.71477 0.17951
 H3298 H 0.05757 0.72467 0.18986
 C3299 C 0.07656 0.20014 0.70229
 C3300 C 0.08479 0.20841 0.69159
 C3301 C 0.09766 0.20219 0.68495
 C3302 C 0.10265 0.18781 0.68886
 C3303 C 0.09439 0.17962 0.69939
 C3304 C 0.08154 0.18565 0.70600
 C3305 C 0.06311 0.20734 0.70942
 C3306 C 0.05424 0.20013 0.72030
 C3307 C 0.04228 0.20760 0.72711
 C3308 C 0.03886 0.22235 0.72319
 C3309 C 0.04726 0.22952 0.71209
 C3310 C 0.05937 0.22216 0.70523
 C3311 C 0.08027 0.22291 0.68773
 C3312 C 0.06786 0.22964 0.69441
 H3313 H 0.08654 0.22922 0.67950
 H3314 H 0.06492 0.24095 0.69114
 H3315 H 0.10393 0.20874 0.67692
 H3316 H 0.09777 0.16843 0.70253
 H3317 H 0.03584 0.20198 0.73569
 H3318 H 0.04453 0.24095 0.70908
 H3319 H 0.07576 0.17880 0.71406
 H3320 H 0.05645 0.18884 0.72390
 C3321 C 0.42294 0.70214 0.30028
 C3322 C 0.41512 0.69078 0.29250
 C3323 C 0.40229 0.68420 0.29881
 C3324 C 0.39696 0.68878 0.31283
 C3325 C 0.40487 0.69989 0.32060
 C3326 C 0.41768 0.70647 0.31446
 C3327 C 0.43631 0.70921 0.29293
 C3328 C 0.44467 0.72086 0.29956
 C3329 C 0.45660 0.72751 0.29195
 C3330 C 0.46054 0.72265 0.27765
 C3331 C 0.45260 0.71090 0.27104
 C3332 C 0.44050 0.70419 0.27852
 C3333 C 0.42000 0.68618 0.27838
 C3334 C 0.43242 0.69274 0.27154
 H3335 H 0.41403 0.67746 0.27243
 H3336 H 0.43564 0.68888 0.26054
 H3337 H 0.39630 0.67571 0.29258
 H3338 H 0.40121 0.70357 0.33150
 H3339 H 0.46266 0.73666 0.29710
 H3340 H 0.45565 0.70726 0.25990
 H3341 H 0.42320 0.71498 0.32097
 H3342 H 0.44207 0.72515 0.31049
 C3343 C 0.42258 0.19996 0.79765
 C3344 C 0.41441 0.20824 0.80841
 C3345 C 0.40153 0.20207 0.81505
 C3346 C 0.39648 0.18773 0.81108
 C3347 C 0.40462 0.17957 0.80042
 C3348 C 0.41748 0.18555 0.79381
 C3349 C 0.43613 0.20706 0.79064
 C3350 C 0.44506 0.19978 0.77984
 C3351 C 0.45713 0.20716 0.77315
 C3352 C 0.46058 0.22189 0.77710
 C3353 C 0.45214 0.22912 0.78813
 C3354 C 0.43996 0.22184 0.79491
 C3355 C 0.41901 0.22269 0.81235
 C3356 C 0.43147 0.22936 0.80571
 H3357 H 0.41276 0.22903 0.82059
 H3358 H 0.43444 0.24065 0.80900
 H3359 H 0.39531 0.20862 0.82312
 H3360 H 0.40113 0.16844 0.79718
 H3361 H 0.46362 0.20149 0.76463
 H3362 H 0.45489 0.24055 0.79114
 H3363 H 0.42319 0.17872 0.78568
 H3364 H 0.44283 0.18849 0.77625
 C3365 C 0.92313 0.69967 0.79762
 C3366 C 0.91458 0.70809 0.80796
 C3367 C 0.90175 0.70184 0.81460
 C3368 C 0.89710 0.68726 0.81105
 C3369 C 0.90567 0.67890 0.80089
 C3370 C 0.91850 0.68498 0.79427
 C3371 C 0.93653 0.70693 0.79049
 C3372 C 0.94576 0.69958 0.77999
 C3373 C 0.95769 0.70710 0.77318
 C3374 C 0.96067 0.72204 0.77670
 C3375 C 0.95191 0.72937 0.78740
 C3376 C 0.93988 0.72195 0.79430
 C3377 C 0.91873 0.72278 0.81149
 C3378 C 0.93108 0.72958 0.80477
 H3379 H 0.91222 0.72922 0.81944
 H3380 H 0.93371 0.74104 0.80774
 H3381 H 0.89526 0.70854 0.82233
 H3382 H 0.90253 0.66759 0.79798
 H3383 H 0.96442 0.70135 0.76490
 H3384 H 0.95429 0.74095 0.79008
 H3385 H 0.92454 0.67801 0.78649
 H3386 H 0.94387 0.68813 0.77672
 C3387 C 0.92274 0.19992 0.29741
 C3388 C 0.91492 0.20776 0.30873
 C3389 C 0.90210 0.20146 0.31532
 C3390 C 0.89678 0.18737 0.31083
 C3391 C 0.90462 0.17959 0.29967
 C3392 C 0.91741 0.18574 0.29306
 C3393 C 0.93619 0.20722 0.29043
 C3394 C 0.94467 0.20047 0.27894
 C3395 C 0.95670 0.20804 0.27238
 C3396 C 0.96059 0.22240 0.27719
 C3397 C 0.95255 0.22911 0.28881
 C3398 C 0.94039 0.22167 0.29542
 C3399 C 0.91981 0.22193 0.31330
 C3400 C 0.93226 0.22873 0.30678
 H3401 H 0.91384 0.22792 0.32198
 H3402 H 0.93549 0.23977 0.31061
 H3403 H 0.89616 0.20772 0.32382
 H3404 H 0.90093 0.16866 0.29602
 H3405 H 0.96283 0.20281 0.26334
 H3406 H 0.95558 0.24030 0.29240
 H3407 H 0.92289 0.17921 0.28453
 H3408 H 0.94209 0.18948 0.27471
 C3409 C 0.29951 0.29884 0.57668
 C3410 C 0.29079 0.30874 0.58545
 C3411 C 0.29694 0.31530 0.59831
 C3412 C 0.31174 0.31209 0.60272
 C3413 C 0.32041 0.30245 0.59383
 C3414 C 0.31442 0.29592 0.58102
 C3415 C 0.29235 0.29166 0.56333
 C3416 C 0.29996 0.28139 0.55405
 C3417 C 0.29255 0.27446 0.54221
 C3418 C 0.27745 0.27764 0.53932
 C3419 C 0.26986 0.28814 0.54812
 C3420 C 0.27715 0.29511 0.56013
 C3421 C 0.27590 0.31190 0.58148
 C3422 C 0.26923 0.30523 0.56910
 H3423 H 0.26923 0.31954 0.58815
 H3424 H 0.25762 0.30792 0.56661
 H3425 H 0.29004 0.32267 0.60502
 H3426 H 0.33191 0.29986 0.59672
 H3427 H 0.29850 0.26633 0.53546
 H3428 H 0.25814 0.29056 0.54583
 H3429 H 0.32166 0.28855 0.57476
 H3430 H 0.31154 0.27835 0.55586
 C3431 C 0.29817 0.79935 0.07631
 C3432 C 0.30965 0.79161 0.08404
 C3433 C 0.31611 0.79788 0.09689
 C3434 C 0.31126 0.81180 0.10234
 C3435 C 0.29998 0.81950 0.09456
 C3436 C 0.29353 0.81341 0.08174
 C3437 C 0.29128 0.79208 0.06288
 C3438 C 0.27960 0.79873 0.05455
 C3439 C 0.27308 0.79116 0.04258
 C3440 C 0.27812 0.77689 0.03856
 C3441 C 0.28995 0.77029 0.04644
 C3442 C 0.29652 0.77773 0.05858
 C3443 C 0.31450 0.77756 0.07904
 C3444 C 0.30807 0.77077 0.06659
 H3445 H 0.32330 0.77164 0.08493
 H3446 H 0.31210 0.75982 0.06328
 H3447 H 0.32472 0.79170 0.10279
 H3448 H 0.29610 0.83034 0.09832
 H3449 H 0.26388 0.79631 0.03657
 H3450 H 0.29374 0.75919 0.04333
 H3451 H 0.28489 0.81988 0.07632
 H3452 H 0.27517 0.80963 0.05721
 C3453 C 0.79707 0.30041 0.07726
 C3454 C 0.80935 0.29319 0.08425
 C3455 C 0.81590 0.29942 0.09707
 C3456 C 0.81044 0.31284 0.10316
 C3457 C 0.79842 0.32008 0.09606
 C3458 C 0.79183 0.31400 0.08330
 C3459 C 0.79008 0.29311 0.06389
 C3460 C 0.77747 0.29908 0.05645
 C3461 C 0.77095 0.29147 0.04450
 C3462 C 0.77695 0.27787 0.03959
 C3463 C 0.78970 0.27198 0.04658
 C3464 C 0.79621 0.27940 0.05876
 C3465 C 0.81494 0.27971 0.07852
 C3466 C 0.80855 0.27300 0.06603
 H3467 H 0.82436 0.27419 0.08385
 H3468 H 0.81322 0.26250 0.06211
 H3469 H 0.82511 0.29359 0.10240
 H3470 H 0.79405 0.33055 0.10030
 H3471 H 0.76104 0.29607 0.03920
 H3472 H 0.79422 0.26137 0.04280
 H3473 H 0.78264 0.32012 0.07840
 H3474 H 0.77228 0.30945 0.05983
 C3475 C 0.79758 0.80058 0.57671
 C3476 C 0.80893 0.79263 0.58442
 C3477 C 0.81547 0.79874 0.59731
 C3478 C 0.81086 0.81273 0.60279
 C3479 C 0.79979 0.82069 0.59495
 C3480 C 0.79325 0.81474 0.58212
 C3481 C 0.79048 0.79340 0.56334
 C3482 C 0.77882 0.80020 0.55511
 C3483 C 0.77204 0.79267 0.54324
 C3484 C 0.77677 0.77830 0.53927
 C3485 C 0.78866 0.77159 0.54699
 C3486 C 0.79547 0.77897 0.55903
 C3487 C 0.81355 0.77852 0.57938
 C3488 C 0.80697 0.77184 0.56696
 H3489 H 0.82228 0.77245 0.58524
 H3490 H 0.81082 0.76083 0.56363
 H3491 H 0.82395 0.79238 0.60318
 H3492 H 0.79608 0.83158 0.59870
 H3493 H 0.76285 0.79794 0.53732
 H3494 H 0.79226 0.76042 0.54386
 H3495 H 0.78475 0.82139 0.57668
 H3496 H 0.77458 0.81117 0.55778
 C3497 C 0.29778 0.70028 0.42338
 C3498 C 0.30908 0.70818 0.41556
 C3499 C 0.31556 0.70200 0.40267
 C3500 C 0.31099 0.68795 0.39730
 C3501 C 0.29995 0.68006 0.40525
 C3502 C 0.29345 0.68609 0.41808
 C3503 C 0.29079 0.70751 0.43680
 C3504 C 0.27908 0.70081 0.44505
 C3505 C 0.27247 0.70834 0.45701
 C3506 C 0.27747 0.72258 0.46112
 C3507 C 0.28932 0.72923 0.45329
 C3508 C 0.29593 0.72187 0.44112
 C3509 C 0.31377 0.72228 0.42055
 C3510 C 0.30737 0.72895 0.43307
 H3511 H 0.32247 0.72831 0.41460
 H3512 H 0.31130 0.73993 0.43638
 H3513 H 0.32407 0.70831 0.39678
 H3514 H 0.29620 0.66916 0.40160
 H3515 H 0.26322 0.70317 0.46295
 H3516 H 0.29304 0.74034 0.45644
 H3517 H 0.28501 0.67946 0.42362
 H3518 H 0.27466 0.68993 0.44231
 C3519 C 0.29785 0.20049 0.92343
 C3520 C 0.30927 0.20827 0.91565
 C3521 C 0.31575 0.20202 0.90280
 C3522 C 0.31098 0.18806 0.89739
 C3523 C 0.29976 0.18031 0.90521
 C3524 C 0.29329 0.18639 0.91804
 C3525 C 0.29094 0.20775 0.93687
 C3526 C 0.27932 0.20106 0.94526
 C3527 C 0.27280 0.20861 0.95725
 C3528 C 0.27777 0.22291 0.96123
 C3529 C 0.28952 0.22956 0.95327
 C3530 C 0.29610 0.22213 0.94112
 C3531 C 0.31403 0.22236 0.92061
 C3532 C 0.30758 0.22914 0.93305
 H3533 H 0.32278 0.22832 0.91467
 H3534 H 0.31155 0.24012 0.93633
 H3535 H 0.32430 0.20823 0.89686
 H3536 H 0.29594 0.16945 0.90148
 H3537 H 0.26364 0.20343 0.96331
 H3538 H 0.29324 0.24069 0.95635
 H3539 H 0.28471 0.17989 0.92350
 H3540 H 0.27495 0.19013 0.94263
 C3541 C 0.80028 0.70227 0.92283
 C3542 C 0.79252 0.69058 0.91549
 C3543 C 0.79863 0.68400 0.90262
 C3544 C 0.81243 0.68889 0.89681
 C3545 C 0.82017 0.70036 0.90422
 C3546 C 0.81423 0.70695 0.91705
 C3547 C 0.79314 0.70930 0.93628
 C3548 C 0.79971 0.72130 0.94414
 C3549 C 0.79224 0.72792 0.95614
 C3550 C 0.77817 0.72264 0.96065
 C3551 C 0.77166 0.71050 0.95323
 C3552 C 0.77897 0.70387 0.94104
 C3553 C 0.77863 0.68562 0.92090
 C3554 C 0.77201 0.69210 0.93341
 H3555 H 0.77270 0.67665 0.91530
 H3556 H 0.76118 0.68795 0.93706
 H3557 H 0.79241 0.67525 0.89701
 H3558 H 0.83092 0.70427 0.90017
 H3559 H 0.79730 0.73738 0.96177
 H3560 H 0.76068 0.70655 0.95670
 H3561 H 0.82073 0.71570 0.92221
 H3562 H 0.81046 0.72592 0.94108
 C3563 C 0.79945 0.20190 0.42300
 C3564 C 0.79125 0.19106 0.41487
 C3565 C 0.79748 0.18451 0.40205
 C3566 C 0.81186 0.18860 0.39704
 C3567 C 0.81999 0.19927 0.40520
 C3568 C 0.81392 0.20582 0.41798
 C3569 C 0.79223 0.20888 0.43643
 C3570 C 0.79930 0.22001 0.44510
 C3571 C 0.79180 0.22661 0.45710
 C3572 C 0.77720 0.22218 0.46079
 C3573 C 0.77016 0.21091 0.45253
 C3574 C 0.77751 0.20428 0.44036
 C3575 C 0.77681 0.18689 0.41949
 C3576 C 0.77010 0.19335 0.43197
 H3577 H 0.77054 0.17856 0.41330
 H3578 H 0.75885 0.18983 0.43500
 H3579 H 0.79096 0.17639 0.39587
 H3580 H 0.83117 0.20257 0.40178
 H3581 H 0.79728 0.23541 0.46337
 H3582 H 0.75879 0.20762 0.45538
 H3583 H 0.82075 0.21395 0.42371
 H3584 H 0.81048 0.22396 0.44270
 C3585 C 0.70192 0.30014 0.42328
 C3586 C 0.69184 0.29155 0.41459
 C3587 C 0.68535 0.29768 0.40169
 C3588 C 0.68883 0.31230 0.39714
 C3589 C 0.69869 0.32084 0.40588
 C3590 C 0.70513 0.31490 0.41876
 C3591 C 0.70899 0.29301 0.43669
 C3592 C 0.71935 0.30051 0.44596
 C3593 C 0.72621 0.29309 0.45784
 C3594 C 0.72286 0.27810 0.46079
 C3595 C 0.71222 0.27064 0.45202
 C3596 C 0.70533 0.27794 0.43998
 C3597 C 0.68846 0.27680 0.41866
 C3598 C 0.69508 0.27014 0.43107
 H3599 H 0.68072 0.27023 0.41203
 H3600 H 0.69225 0.25863 0.43362
 H3601 H 0.67786 0.29087 0.39503
 H3602 H 0.70147 0.33221 0.40281
 H3603 H 0.73442 0.29895 0.46458
 H3604 H 0.70966 0.25902 0.45437
 H3605 H 0.71267 0.32202 0.42493
 H3606 H 0.72250 0.31200 0.44411
 C3607 C 0.70049 0.79785 0.92279
 C3608 C 0.70824 0.80941 0.91525
 C3609 C 0.70204 0.81591 0.90239
 C3610 C 0.68814 0.81106 0.89676
 C3611 C 0.68040 0.79973 0.90440
 C3612 C 0.68645 0.79322 0.91722
 C3613 C 0.70775 0.79088 0.93621
 C3614 C 0.70114 0.77906 0.94432
 C3615 C 0.70870 0.77251 0.95629
 C3616 C 0.72292 0.77765 0.96051
 C3617 C 0.72947 0.78961 0.95284
 C3618 C 0.72204 0.79621 0.94071
 C3619 C 0.72223 0.81432 0.92044
 C3620 C 0.72898 0.80787 0.93289
 H3621 H 0.72815 0.82322 0.91470
 H3622 H 0.73989 0.81197 0.93636
 H3623 H 0.70825 0.82458 0.89667
 H3624 H 0.66960 0.79580 0.90053
 H3625 H 0.70360 0.76320 0.96213
 H3626 H 0.74054 0.79347 0.95610
 H3627 H 0.67996 0.78453 0.92251
 H3628 H 0.69029 0.77454 0.94148
 C3629 C 0.19998 0.29859 0.92404
 C3630 C 0.20849 0.30897 0.91563
 C3631 C 0.20234 0.31553 0.90277
 C3632 C 0.18776 0.31188 0.89799
 C3633 C 0.17930 0.30175 0.90651
 C3634 C 0.18528 0.29521 0.91933
 C3635 C 0.20714 0.29144 0.93741
 C3636 C 0.19975 0.28073 0.94634
 C3637 C 0.20719 0.27385 0.95820
 C3638 C 0.22209 0.27754 0.96147
 C3639 C 0.22944 0.28848 0.95301
 C3640 C 0.22212 0.29539 0.94099
 C3641 C 0.22315 0.31260 0.91997
 C3642 C 0.22982 0.30596 0.93237
 H3643 H 0.22966 0.32060 0.91359
 H3644 H 0.24126 0.30903 0.93515
 H3645 H 0.20910 0.32328 0.89637
 H3646 H 0.16798 0.29878 0.90333
 H3647 H 0.20143 0.26539 0.96468
 H3648 H 0.24101 0.29128 0.95559
 H3649 H 0.17821 0.28746 0.92529
 H3650 H 0.18833 0.27730 0.94423
 C3651 C 0.20161 0.79960 0.42339
 C3652 C 0.19055 0.79158 0.41535
 C3653 C 0.18416 0.79777 0.40243
 C3654 C 0.18862 0.81192 0.39725
 C3655 C 0.19939 0.81993 0.40542
 C3656 C 0.20579 0.81390 0.41829
 C3657 C 0.20855 0.79236 0.43681
 C3658 C 0.22003 0.79917 0.44527
 C3659 C 0.22663 0.79164 0.45722
 C3660 C 0.22186 0.77726 0.46111
 C3661 C 0.21023 0.77048 0.45308
 C3662 C 0.20362 0.77786 0.44092
 C3663 C 0.18604 0.77736 0.42014
 C3664 C 0.19241 0.77066 0.43266
 H3665 H 0.17753 0.77124 0.41403
 H3666 H 0.18863 0.75958 0.43582
 H3667 H 0.17590 0.79137 0.39629
 H3668 H 0.20296 0.83094 0.40191
 H3669 H 0.23570 0.79692 0.46331
 H3670 H 0.20667 0.75927 0.45606
 H3671 H 0.21403 0.82062 0.42399
 H3672 H 0.22428 0.81016 0.44270
 C3673 C 0.70161 0.69993 0.57689
 C3674 C 0.69165 0.70858 0.58568
 C3675 C 0.68509 0.70243 0.59854
 C3676 C 0.68832 0.68768 0.60292
 C3677 C 0.69803 0.67909 0.59403
 C3678 C 0.70458 0.68508 0.58122
 C3679 C 0.70877 0.70708 0.56352
 C3680 C 0.71912 0.69954 0.55424
 C3681 C 0.72606 0.70695 0.54240
 C3682 C 0.72279 0.72197 0.53948
 C3683 C 0.71216 0.72947 0.54826
 C3684 C 0.70524 0.72219 0.56031
 C3685 C 0.68844 0.72340 0.58172
 C3686 C 0.69508 0.73005 0.56931
 H3687 H 0.68078 0.73003 0.58841
 H3688 H 0.69235 0.74161 0.56682
 H3689 H 0.67768 0.70928 0.60525
 H3690 H 0.70065 0.66763 0.59691
 H3691 H 0.73425 0.70106 0.53566
 H3692 H 0.70967 0.74112 0.54595
 H3693 H 0.71198 0.67789 0.57495
 H3694 H 0.72222 0.68803 0.55606
 C3695 C 0.70163 0.20009 0.07697
 C3696 C 0.69189 0.20877 0.08596
 C3697 C 0.68539 0.20256 0.09883
 C3698 C 0.68852 0.18774 0.10304
 C3699 C 0.69807 0.17914 0.09399
 C3700 C 0.70453 0.18518 0.08115
 C3701 C 0.70871 0.20729 0.06358
 C3702 C 0.71868 0.19965 0.05399
 C3703 C 0.72553 0.20708 0.04210
 C3704 C 0.72259 0.22222 0.03950
 C3705 C 0.71239 0.22985 0.04865
 C3706 C 0.70545 0.22252 0.06066
 C3707 C 0.68886 0.22369 0.08223
 C3708 C 0.69552 0.23042 0.06987
 H3709 H 0.68137 0.23034 0.08908
 H3710 H 0.69296 0.24205 0.06757
 H3711 H 0.67813 0.20943 0.10569
 H3712 H 0.70061 0.16764 0.09675
 H3713 H 0.73342 0.20110 0.03509
 H3714 H 0.71015 0.24160 0.04658
 H3715 H 0.71183 0.17799 0.07478
 H3716 H 0.72152 0.18804 0.05556
 C3717 C 0.20174 0.70041 0.07612
 C3718 C 0.19079 0.70855 0.08421
 C3719 C 0.18432 0.70239 0.09712
 C3720 C 0.18855 0.68812 0.10219
 C3721 C 0.19919 0.67999 0.09393
 C3722 C 0.20569 0.68600 0.08111
 C3723 C 0.20877 0.70762 0.06271
 C3724 C 0.22027 0.70074 0.05429
 C3725 C 0.22694 0.70823 0.04235
 C3726 C 0.22219 0.72262 0.03841
 C3727 C 0.21057 0.72946 0.04642
 C3728 C 0.20394 0.72215 0.05861
 C3729 C 0.18642 0.72283 0.07947
 C3730 C 0.19281 0.72945 0.06691
 H3731 H 0.17799 0.72905 0.08562
 H3732 H 0.18913 0.74058 0.06378
 H3733 H 0.17612 0.70887 0.10327
 H3734 H 0.20261 0.66889 0.09732
 H3735 H 0.23603 0.70291 0.03630
 H3736 H 0.20706 0.74069 0.04343
 H3737 H 0.21380 0.67918 0.07532
 H3738 H 0.22449 0.68975 0.05690
 C3739 C 0.20198 0.20060 0.57738
 C3740 C 0.19094 0.20860 0.58549
 C3741 C 0.18445 0.20231 0.59831
 C3742 C 0.18880 0.18807 0.60334
 C3743 C 0.19970 0.18015 0.59522
 C3744 C 0.20619 0.18628 0.58244
 C3745 C 0.20884 0.20785 0.56391
 C3746 C 0.22006 0.20091 0.55517
 C3747 C 0.22655 0.20843 0.54314
 C3748 C 0.22194 0.22293 0.53948
 C3749 C 0.21056 0.22983 0.54779
 C3750 C 0.20403 0.22244 0.55998
 C3751 C 0.18653 0.22291 0.58085
 C3752 C 0.19294 0.22968 0.56838
 H3753 H 0.17806 0.22904 0.58703
 H3754 H 0.18924 0.24083 0.56536
 H3755 H 0.17616 0.20868 0.60447
 H3756 H 0.20324 0.16910 0.59865
 H3757 H 0.23541 0.20304 0.53682
 H3758 H 0.20712 0.24112 0.54496
 H3759 H 0.21449 0.17961 0.57673
 H3760 H 0.22415 0.18981 0.55755
   
