data_POSCAR
  _audit_creation_date              2014-09-24
  _audit_creation_method            'ToBaCCo'
  _symmetry_space_group_name_H-M    'P1'
  _symmetry_Int_Tables_number       1
  _symmetry_cell_setting            triclinic
  loop_
  _symmetry_equiv_pos_as_xyz
 x,y,z
_cell_length_a 51.7377
_cell_length_b 51.8300
_cell_length_c 51.7781
_cell_angle_alpha 89.962900
_cell_angle_beta 90.069000
_cell_angle_gamma 89.873400
loop_
  _atom_site_label
  _atom_site_type_symbol
  _atom_site_fract_x
  _atom_site_fract_y
  _atom_site_fract_z
C1 C 0.25086 0.99578 -0.01753
 C2 C 0.25299 0.99566 0.00864
 C3 C 0.25306 0.97153 0.02403
 C4 C 0.25474 1.01988 0.02385
 C5 C 0.25019 1.02027 -0.03242
 C6 C 0.24938 0.97163 -0.03291
 C7 C 0.23171 0.95481 0.02393
 C8 C 0.23055 0.93426 0.04147
 C9 C 0.25070 0.93033 0.05919
 C10 C 0.27232 0.94647 0.05877
 C11 C 0.27346 0.96698 0.04136
 C12 C 0.23638 1.02468 0.04320
 C13 C 0.23848 1.04640 0.05894
 C14 C 0.25909 1.06358 0.05566
 C15 C 0.27742 1.05905 0.03621
 C16 C 0.27528 1.03725 0.02039
 C17 C 0.26865 1.02452 -0.05179
 C18 C 0.26813 1.04719 -0.06635
 C19 C 0.24904 1.06582 -0.06182
 C20 C 0.23044 1.06167 -0.04264
 C21 C 0.23093 1.03894 -0.02804
 C22 C 0.26894 0.95281 -0.03161
 C23 C 0.26821 0.93129 -0.04795
 C24 C 0.24799 0.92847 -0.06577
 C25 C 0.22832 0.94701 -0.06687
 C26 C 0.22905 0.96848 -0.05062
 H27 H 0.21556 0.95831 0.01106
 H28 H 0.21366 0.92196 0.04175
 H29 H 0.28796 0.94368 0.07243
 H30 H 0.28996 0.97981 0.04187
 H31 H 0.22051 1.01142 0.04623
 H32 H 0.22418 1.04952 0.07392
 H33 H 0.28986 1.03362 0.00584
 H34 H 0.28354 1.01027 -0.05555
 H35 H 0.28253 1.05015 -0.08122
 H36 H 0.21547 1.07588 -0.03911
 H37 H 0.21624 1.03579 -0.01351
 H38 H 0.28508 0.95513 -0.01848
 H39 H 0.28363 0.91715 -0.04705
 H40 H 0.21265 0.94511 -0.08063
 H41 H 0.21388 0.98286 -0.05205
 H42 H 0.29356 1.07207 0.03349
 C43 C 0.75394 0.49466 0.50559
 C44 C 0.75160 0.49471 0.47944
 C45 C 0.74960 0.47051 0.46425
 C46 C 0.75114 0.51911 0.46439
 C47 C 0.75604 0.51888 0.52068
 C48 C 0.75404 0.47057 0.52106
 C49 C 0.76897 0.45147 0.46540
 C50 C 0.76762 0.42975 0.44939
 C51 C 0.74698 0.42696 0.43206
 C52 C 0.72755 0.44574 0.43107
 C53 C 0.72888 0.46741 0.44700
 C54 C 0.76943 0.52291 0.44477
 C55 C 0.76901 0.54540 0.42993
 C56 C 0.75019 0.56431 0.43443
 C57 C 0.73178 0.56063 0.45390
 C58 C 0.73218 0.53808 0.46878
 C59 C 0.73785 0.52389 0.54013
 C60 C 0.74037 0.54555 0.55588
 C61 C 0.76118 0.56238 0.55249
 C62 C 0.77931 0.55770 0.53295
 C63 C 0.77678 0.53597 0.51710
 C64 C 0.73257 0.45401 0.52132
 C65 C 0.73158 0.43344 0.53885
 C66 C 0.75201 0.42934 0.55620
 C67 C 0.77372 0.44535 0.55543
 C68 C 0.77470 0.46587 0.53803
 H69 H 0.78538 0.45375 0.47819
 H70 H 0.78287 0.41542 0.45018
 H71 H 0.71157 0.44385 0.41766
 H72 H 0.71387 0.48196 0.44570
 H73 H 0.78408 0.50843 0.44099
 H74 H 0.78326 0.54798 0.41484
 H75 H 0.71761 0.53528 0.48351
 H76 H 0.72183 0.51084 0.54327
 H77 H 0.72630 0.54894 0.57100
 H78 H 0.79557 0.57055 0.53028
 H79 H 0.79123 0.53216 0.50247
 H80 H 0.71624 0.45762 0.50872
 H81 H 0.71461 0.42124 0.53941
 H82 H 0.78958 0.44243 0.56881
 H83 H 0.79130 0.47858 0.53825
 H84 H 0.71701 0.57505 0.45741
 C85 C 0.74780 1.00716 0.99316
 C86 C 0.74763 0.98094 0.99272
 C87 C 0.74945 0.96607 0.96831
 C88 C 0.74610 0.96547 1.01681
 C89 C 0.74656 1.02187 1.01769
 C90 C 0.74896 1.02298 0.96930
 C91 C 0.73073 0.94727 0.96289
 C92 C 0.73326 0.93132 0.94135
 C93 C 0.75463 0.93385 0.92501
 C94 C 0.77323 0.95281 0.93003
 C95 C 0.77069 0.96885 0.95164
 C96 C 0.72516 0.96801 1.03390
 C97 C 0.72384 0.95269 1.05614
 C98 C 0.74335 0.93461 1.06134
 C99 C 0.76416 0.93197 1.04431
 C100 C 0.76550 0.94724 1.02215
 C101 C 0.76588 1.01934 1.03664
 C102 C 0.76524 1.03480 1.05878
 C103 C 0.74538 1.05292 1.06205
 C104 C 0.72600 1.05529 1.04335
 C105 C 0.72661 1.03991 1.02126
 C106 C 0.76843 1.04165 0.96692
 C107 C 0.76817 1.05905 0.94636
 C108 C 0.74834 1.05813 0.92797
 C109 C 0.72915 1.03913 0.92984
 C110 C 0.72945 1.02161 0.95046
 H111 H 0.71434 0.94470 0.97563
 H112 H 0.71882 0.91665 0.93772
 H113 H 0.78994 0.95481 0.91761
 H114 H 0.78562 0.98288 0.95577
 H115 H 0.70977 0.98163 1.02988
 H116 H 0.70756 0.95477 1.06911
 H117 H 0.78171 0.94489 1.00913
 H118 H 0.78166 1.00584 1.03398
 H119 H 0.78045 1.03296 1.07307
 H120 H 0.71063 1.06934 1.04563
 H121 H 0.71167 1.04224 1.00677
 H122 H 0.78351 1.04312 0.98137
 H123 H 0.78309 1.07367 0.94523
 H124 H 0.71361 1.03828 0.91582
 H125 H 0.71400 1.00766 0.95224
 H126 H 0.77930 0.91798 1.04810
 C127 C 0.24708 0.48001 0.49601
 C128 C 0.24734 0.50623 0.49561
 C129 C 0.24625 0.52181 0.51963
 C130 C 0.24844 0.52128 0.47127
 C131 C 0.24843 0.46435 0.47202
 C132 C 0.24584 0.46536 0.52063
 C133 C 0.22636 0.54003 0.52263
 C134 C 0.22598 0.55637 0.54402
 C135 C 0.24556 0.55482 0.56262
 C136 C 0.26534 0.53649 0.55995
 C137 C 0.26573 0.52006 0.53850
 C138 C 0.22856 0.51980 0.45282
 C139 C 0.22817 0.53688 0.43183
 C140 C 0.24763 0.55548 0.42921
 C141 C 0.26784 0.55644 0.44714
 C142 C 0.26821 0.53950 0.46807
 C143 C 0.26923 0.46669 0.45474
 C144 C 0.27110 0.45026 0.43335
 C145 C 0.25228 0.43130 0.42915
 C146 C 0.23143 0.42910 0.44618
 C147 C 0.22955 0.44545 0.46751
 C148 C 0.26530 0.44732 0.52636
 C149 C 0.26432 0.43296 0.54915
 C150 C 0.24381 0.43632 0.56642
 C151 C 0.22421 0.45417 0.56079
 C152 C 0.22516 0.46858 0.53794
 H153 H 0.21129 0.54178 0.50819
 H154 H 0.21066 0.57054 0.54583
 H155 H 0.28068 0.53525 0.57416
 H156 H 0.28147 0.50644 0.53627
 H157 H 0.21290 0.50618 0.45523
 H158 H 0.21235 0.53609 0.41814
 H159 H 0.28357 0.54106 0.48222
 H160 H 0.28429 0.48077 0.45816
 H161 H 0.28742 0.45203 0.42039
 H162 H 0.21681 0.41446 0.44319
 H163 H 0.21348 0.44320 0.48071
 H164 H 0.28130 0.44446 0.51319
 H165 H 0.27952 0.41912 0.55325
 H166 H 0.20815 0.45679 0.57393
 H167 H 0.20972 0.48206 0.53363
 H168 H 0.28292 0.57081 0.44537
 C169 C 0.99364 0.25013 0.02031
 C170 C 0.99355 0.25008 -0.00595
 C171 C 0.96940 0.24892 -0.02139
 C172 C 1.01779 0.25161 -0.02115
 C173 C 1.01811 0.25167 0.03530
 C174 C 0.96952 0.24819 0.03568
 C175 C 0.96678 0.22955 -0.04014
 C176 C 0.94617 0.23005 -0.05753
 C177 C 0.92796 0.25003 -0.05653
 C178 C 0.92999 0.26907 -0.03737
 C179 C 0.95065 0.26852 -0.01985
 C180 C 1.03693 0.23242 -0.01922
 C181 C 1.05879 0.23335 -0.03510
 C182 C 1.06158 0.25340 -0.05308
 C183 C 1.04265 0.27266 -0.05484
 C184 C 1.02086 0.27173 -0.03903
 C185 C 1.03507 0.27264 0.03250
 C186 C 1.05776 0.27388 0.04720
 C187 C 1.06360 0.25426 0.06495
 C188 C 1.04664 0.23343 0.06788
 C189 C 1.02402 0.23219 0.05322
 C190 C 0.96453 0.26667 0.05487
 C191 C 0.94322 0.26409 0.07116
 C192 C 0.92669 0.24292 0.06860
 C193 C 0.93131 0.22453 0.04930
 C194 C 0.95267 0.22712 0.03292
 H195 H 0.98116 0.21442 -0.04176
 H196 H 0.94493 0.21525 -0.07226
 H197 H 0.91611 0.28473 -0.03644
 H198 H 0.95262 0.28389 -0.00583
 H199 H 1.03466 0.21652 -0.00584
 H200 H 1.07321 0.21823 -0.03365
 H201 H 1.00622 0.28658 -0.04090
 H202 H 1.03061 0.28809 0.01911
 H203 H 1.07060 0.29021 0.04484
 H204 H 1.05082 0.21817 0.08160
 H205 H 1.01111 0.21596 0.05576
 H206 H 0.97739 0.28293 0.05744
 H207 H 0.93990 0.27837 0.08607
 H208 H 0.91872 0.20798 0.04726
 H209 H 0.95647 0.21236 0.01861
 H210 H 1.04449 0.28822 -0.06873
 C211 C 0.49651 0.75072 0.51894
 C212 C 0.49630 0.75050 0.49269
 C213 C 0.52045 0.75166 0.47731
 C214 C 0.47204 0.74943 0.47747
 C215 C 0.47243 0.74920 0.53442
 C216 C 0.52103 0.75215 0.53379
 C217 C 0.52353 0.77154 0.45916
 C218 C 0.54511 0.77203 0.44306
 C219 C 0.56381 0.75256 0.44479
 C220 C 0.56105 0.73278 0.46304
 C221 C 0.53940 0.73229 0.47923
 C222 C 0.45345 0.76917 0.47909
 C223 C 0.43246 0.76956 0.46199
 C224 C 0.42998 0.75026 0.44320
 C225 C 0.44807 0.73021 0.44205
 C226 C 0.46901 0.72983 0.45903
 C227 C 0.45531 0.72832 0.53188
 C228 C 0.43379 0.72631 0.54814
 C229 C 0.42931 0.74507 0.56711
 C230 C 0.44617 0.76600 0.56950
 C231 C 0.46763 0.76802 0.55332
 C232 C 0.52682 0.73276 0.55184
 C233 C 0.54950 0.73394 0.56641
 C234 C 0.56658 0.75459 0.56322
 C235 C 0.56089 0.77410 0.54535
 C236 C 0.53815 0.77295 0.53073
 H237 H 0.50903 0.78654 0.45729
 H238 H 0.54700 0.78734 0.42893
 H239 H 0.57533 0.71752 0.46440
 H240 H 0.53711 0.71655 0.49280
 H241 H 0.45573 0.78470 0.49288
 H242 H 0.41863 0.78525 0.46292
 H243 H 0.48327 0.71459 0.45737
 H244 H 0.45896 0.71333 0.51779
 H245 H 0.42096 0.70994 0.54624
 H246 H 0.44295 0.78057 0.58416
 H247 H 0.48069 0.78414 0.55571
 H248 H 0.51378 0.71667 0.55456
 H249 H 0.55365 0.71881 0.58026
 H250 H 0.57390 0.79027 0.54287
 H251 H 0.53378 0.78833 0.51724
 H252 H 0.44640 0.71525 0.42754
 C253 C 0.00785 0.74824 0.00402
 C254 C -0.01835 0.75005 0.00352
 C255 C -0.03409 0.75124 0.02747
 C256 C -0.03295 0.75067 -0.02116
 C257 C 0.02344 0.74667 -0.01999
 C258 C 0.02284 0.74821 0.02844
 C259 C -0.03292 0.73154 0.04610
 C260 C -0.04959 0.73196 0.06740
 C261 C -0.06762 0.75202 0.07017
 C262 C -0.06857 0.77184 0.05180
 C263 C -0.05198 0.77140 0.03057
 C264 C -0.05213 0.73211 -0.02570
 C265 C -0.06663 0.73272 -0.04843
 C266 C -0.06225 0.75202 -0.06685
 C267 C -0.04317 0.77068 -0.06244
 C268 C -0.02862 0.77006 -0.03964
 C269 C 0.04278 0.76510 -0.02437
 C270 C 0.05888 0.76314 -0.04587
 C271 C 0.05595 0.74264 -0.06321
 C272 C 0.03653 0.72425 -0.05911
 C273 C 0.02036 0.72622 -0.03753
 C274 C 0.02211 0.76937 0.04537
 C275 C 0.03910 0.77048 0.06643
 C276 C 0.05688 0.75046 0.07063
 C277 C 0.05711 0.72905 0.05422
 C278 C 0.04026 0.72795 0.03321
 H279 H -0.01963 0.71554 0.04380
 H280 H -0.04874 0.71640 0.08137
 H281 H -0.08245 0.78743 0.05360
 H282 H -0.05330 0.78666 0.01631
 H283 H -0.05583 0.71712 -0.01160
 H284 H -0.08140 0.71824 -0.05151
 H285 H -0.01423 0.78482 -0.03626
 H286 H 0.04554 0.78090 -0.01097
 H287 H 0.07386 0.77746 -0.04874
 H288 H 0.03414 0.70820 -0.07229
 H289 H 0.00583 0.71158 -0.03421
 H290 H 0.00915 0.78540 0.04171
 H291 H 0.03888 0.78723 0.07893
 H292 H 0.07085 0.71352 0.05722
 H293 H 0.04124 0.71160 0.02023
 H294 H -0.03970 0.78583 -0.07644
 C295 C 0.50509 0.24866 0.50619
 C296 C 0.47891 0.25091 0.50648
 C297 C 0.46354 0.25144 0.48222
 C298 C 0.46400 0.25265 0.53091
 C299 C 0.52092 0.24850 0.53010
 C300 C 0.51988 0.24669 0.48173
 C301 C 0.46768 0.27040 0.46325
 C302 C 0.45263 0.27076 0.44077
 C303 C 0.43321 0.25230 0.43716
 C304 C 0.42892 0.23351 0.45609
 C305 C 0.44393 0.23312 0.47852
 C306 C 0.44656 0.27315 0.53435
 C307 C 0.43081 0.27419 0.55620
 C308 C 0.43217 0.25467 0.57483
 C309 C 0.44970 0.23425 0.57170
 C310 C 0.46553 0.23320 0.54980
 C311 C 0.53812 0.22795 0.53439
 C312 C 0.55585 0.22890 0.55468
 C313 C 0.55674 0.25048 0.57086
 C314 C 0.53917 0.27079 0.56718
 C315 C 0.52130 0.26982 0.54685
 C316 C 0.51616 0.22602 0.46458
 C317 C 0.53178 0.22357 0.44264
 C318 C 0.55122 0.24172 0.43779
 C319 C 0.55474 0.26248 0.45467
 C320 C 0.53922 0.26491 0.47654
 H321 H 0.48239 0.28498 0.46597
 H322 H 0.45599 0.28550 0.42633
 H323 H 0.41388 0.21921 0.45356
 H324 H 0.44034 0.21846 0.49299
 H325 H 0.44495 0.28822 0.51993
 H326 H 0.41725 0.29000 0.55835
 H327 H 0.47845 0.21695 0.54725
 H328 H 0.53826 0.21146 0.52155
 H329 H 0.56939 0.21313 0.55727
 H330 H 0.53980 0.28766 0.57950
 H331 H 0.50853 0.28608 0.54354
 H332 H 0.50162 0.21154 0.46851
 H333 H 0.52902 0.20735 0.42977
 H334 H 0.56979 0.27656 0.45116
 H335 H 0.54247 0.28088 0.48963
 H336 H 0.45077 0.21893 0.58590
 C337 C 1.00399 0.01760 0.25165
 C338 C 1.00405 -0.00862 0.25142
 C339 C 1.02820 -0.02398 0.25021
 C340 C 0.97983 -0.02386 0.25269
 C341 C 0.97955 0.03257 0.25289
 C342 C 1.02816 0.03294 0.25028
 C343 C 1.03111 -0.04226 0.23044
 C344 C 1.05188 -0.05944 0.23069
 C345 C 1.06996 -0.05866 0.25081
 C346 C 1.06761 -0.03998 0.27027
 C347 C 1.04677 -0.02268 0.26998
 C348 C 0.96087 -0.02196 0.23332
 C349 C 0.93918 -0.03805 0.23390
 C350 C 0.93635 -0.05621 0.25379
 C351 C 0.95506 -0.05789 0.27328
 C352 C 0.97668 -0.04188 0.27269
 C353 C 0.96229 0.02974 0.27364
 C354 C 0.93960 0.04445 0.27458
 C355 C 0.93410 0.06219 0.25488
 C356 C 0.95131 0.06516 0.23428
 C357 C 0.97394 0.05050 0.23333
 C358 C 1.03292 0.05175 0.26919
 C359 C 1.05438 0.06791 0.26726
 C360 C 1.07129 0.06560 0.24632
 C361 C 1.06686 0.04670 0.22749
 C362 C 1.04535 0.03044 0.22942
 H363 H 1.01685 -0.04365 0.21517
 H364 H 1.05339 -0.07381 0.21556
 H365 H 1.08138 -0.03926 0.28604
 H366 H 1.04457 -0.00901 0.28564
 H367 H 0.96321 -0.00848 0.21750
 H368 H 0.92493 -0.03666 0.21860
 H369 H 0.99119 -0.04372 0.28768
 H370 H 0.96652 0.01634 0.28915
 H371 H 0.92648 0.04215 0.29070
 H372 H 0.94731 0.07891 0.21902
 H373 H 0.98709 0.05304 0.21726
 H374 H 1.01980 0.05411 0.28531
 H375 H 1.05753 0.08253 0.28188
 H376 H 1.07973 0.04486 0.21110
 H377 H 1.04174 0.01643 0.21435
 H378 H 0.95321 -0.07190 0.28872
 C379 C 0.50641 0.52062 0.75080
 C380 C 0.50640 0.49449 0.75314
 C381 C 0.53051 0.47896 0.75318
 C382 C 0.48209 0.47948 0.75528
 C383 C 0.48197 0.53570 0.75013
 C384 C 0.53070 0.53576 0.74904
 C385 C 0.54716 0.47877 0.73175
 C386 C 0.56772 0.46118 0.73065
 C387 C 0.57173 0.44369 0.75094
 C388 C 0.55565 0.44438 0.77262
 C389 C 0.53513 0.46184 0.77371
 C390 C 0.47709 0.45990 0.73725
 C391 C 0.45538 0.44422 0.73986
 C392 C 0.43845 0.44781 0.76060
 C393 C 0.44312 0.46748 0.77856
 C394 C 0.46491 0.48325 0.77595
 C395 C 0.47802 0.55540 0.76830
 C396 C 0.45546 0.57022 0.76768
 C397 C 0.43665 0.56564 0.74880
 C398 C 0.44049 0.54610 0.73050
 C399 C 0.46310 0.53123 0.73109
 C400 C 0.54964 0.53445 0.76850
 C401 C 0.57138 0.55048 0.76744
 C402 C 0.57430 0.56799 0.74701
 C403 C 0.55562 0.56913 0.72748
 C404 C 0.53393 0.55319 0.72853
 H405 H 0.54360 0.49148 0.71551
 H406 H 0.57996 0.46069 0.71370
 H407 H 0.55850 0.43089 0.78837
 H408 H 0.52237 0.46156 0.79027
 H409 H 0.49021 0.45660 0.72129
 H410 H 0.45202 0.42901 0.72591
 H411 H 0.46868 0.49798 0.79029
 H412 H 0.49241 0.55924 0.78301
 H413 H 0.45275 0.58536 0.78185
 H414 H 0.42614 0.54251 0.71568
 H415 H 0.46602 0.51645 0.71662
 H416 H 0.54727 0.52154 0.78477
 H417 H 0.58563 0.54957 0.78276
 H418 H 0.55759 0.58267 0.71166
 H419 H 0.51947 0.55462 0.71345
 H420 H 0.43021 0.47031 0.79477
 C421 C 1.02097 1.00668 0.74876
 C422 C 0.99469 1.00660 0.74861
 C423 C 0.97966 0.98231 0.74711
 C424 C 0.97907 1.03063 0.74966
 C425 C 1.03611 1.03089 0.75078
 C426 C 1.03619 0.98236 0.74737
 C427 C 0.96183 0.97905 0.72693
 C428 C 0.94609 0.95726 0.72609
 C429 C 0.94788 0.93854 0.74548
 C430 C 0.96581 0.94149 0.76556
 C431 C 0.98163 0.96334 0.76642
 C432 C 0.98072 1.04940 0.73015
 C433 C 0.96325 1.07010 0.72964
 C434 C 0.94402 1.07213 0.74863
 C435 C 0.94286 1.05384 0.76849
 C436 C 0.96020 1.03321 0.76896
 C437 C 1.03304 1.04773 0.77182
 C438 C 1.04905 1.06933 0.77438
 C439 C 1.06831 1.07417 0.75600
 C440 C 1.07122 1.05759 0.73488
 C441 C 1.05528 1.03605 0.73233
 C442 C 1.05414 0.97672 0.76693
 C443 C 1.06905 0.95426 0.76582
 C444 C 1.06632 0.93720 0.74503
 C445 C 1.04854 0.94276 0.72532
 C446 C 1.03360 0.96529 0.72644
 H447 H 0.95993 0.99356 0.71198
 H448 H 0.93220 0.95522 0.71055
 H449 H 0.96720 0.92719 0.78077
 H450 H 0.99496 0.96576 0.78237
 H451 H 0.99483 1.04747 0.71483
 H452 H 0.96430 1.08403 0.71407
 H453 H 0.95851 1.01881 0.78404
 H454 H 1.01873 1.04380 0.78655
 H455 H 1.04676 1.08194 0.79090
 H456 H 1.08610 1.06108 0.72061
 H457 H 1.05808 1.02319 0.71608
 H458 H 1.05653 0.98972 0.78314
 H459 H 1.08278 0.95030 0.78115
 H460 H 1.04633 0.92984 0.70903
 H461 H 1.02020 0.96954 0.71092
 H462 H 0.92807 1.05509 0.78327
 C463 C 0.51850 0.50400 0.24764
 C464 C 0.49223 0.50428 0.24789
 C465 C 0.47682 0.48019 0.24696
 C466 C 0.47700 0.52854 0.24883
 C467 C 0.53400 0.52801 0.24923
 C468 C 0.53334 0.47948 0.24620
 C469 C 0.45853 0.47698 0.22718
 C470 C 0.44240 0.45547 0.22694
 C471 C 0.44424 0.43697 0.24654
 C472 C 0.46263 0.43986 0.26622
 C473 C 0.47885 0.46143 0.26647
 C474 C 0.47863 0.54697 0.22899
 C475 C 0.46146 0.56790 0.22843
 C476 C 0.44259 0.57049 0.24767
 C477 C 0.44146 0.55257 0.26784
 C478 C 0.45850 0.53170 0.26839
 C479 C 0.53145 0.54508 0.27017
 C480 C 0.54780 0.56647 0.27232
 C481 C 0.56687 0.57088 0.25364
 C482 C 0.56926 0.55408 0.23264
 C483 C 0.55300 0.53275 0.23048
 C484 C 0.55155 0.47376 0.26550
 C485 C 0.56614 0.45111 0.26427
 C486 C 0.56283 0.43398 0.24366
 C487 C 0.54480 0.43959 0.22423
 C488 C 0.53016 0.46230 0.22543
 H489 H 0.45658 0.49134 0.21208
 H490 H 0.42817 0.45348 0.21170
 H491 H 0.46408 0.42572 0.28158
 H492 H 0.49252 0.46383 0.28213
 H493 H 0.49246 0.54459 0.21349
 H494 H 0.46240 0.58159 0.21264
 H495 H 0.45682 0.51756 0.28372
 H496 H 0.51729 0.54147 0.28512
 H497 H 0.54589 0.57925 0.28875
 H498 H 0.58400 0.55724 0.21813
 H499 H 0.55540 0.51971 0.21431
 H500 H 0.55438 0.48683 0.28156
 H501 H 0.58011 0.44702 0.27934
 H502 H 0.54221 0.42655 0.20810
 H503 H 0.51655 0.46661 0.21011
 H504 H 0.42689 0.55433 0.28277
 O505 O 0.26134 0.18359 0.20096
 O506 O 0.28910 0.17543 0.23729
 O507 O 0.19304 0.21366 0.23820
 O508 O 0.18338 0.24665 0.26424
 O509 O 0.22489 0.25179 0.17091
 O510 O 0.26108 0.28007 0.16488
 O511 O 0.25946 0.28398 0.30591
 O512 O 0.22932 0.24892 0.31129
 O513 O 0.32634 0.24974 0.27508
 O514 O 0.33457 0.22073 0.23803
 O515 O 0.29567 0.31599 0.24127
 O516 O 0.25894 0.32442 0.21112
 O517 O 0.26024 0.31553 0.27533
 O518 O 0.23146 0.32425 0.23846
 O519 O 0.32676 0.28486 0.24093
 O520 O 0.33493 0.24858 0.21085
 O521 O 0.29487 0.25016 0.30574
 O522 O 0.26385 0.22042 0.31309
 O523 O 0.26145 0.21534 0.17052
 O524 O 0.28961 0.25129 0.16441
 O525 O 0.19354 0.25064 0.20173
 O526 O 0.18691 0.27944 0.23853
 O527 O 0.22420 0.18262 0.23655
 O528 O 0.26107 0.17393 0.26486
 Zr529 Zr 0.25921 0.20330 0.23649
 O530 O 0.28284 0.22495 0.26151
 Zr531 Zr 0.21375 0.24857 0.23700
 O532 O 0.23554 0.27225 0.26191
 Zr533 Zr 0.25965 0.24967 0.19209
 O534 O 0.28355 0.27321 0.21506
 Zr535 Zr 0.26024 0.24943 0.28457
 O536 O 0.23611 0.22521 0.26197
 Zr537 Zr 0.30607 0.25005 0.23977
 O538 O 0.28443 0.22633 0.21448
 Zr539 Zr 0.26057 0.29552 0.24000
 O540 O 0.23646 0.27402 0.21490
 O541 O 0.23542 0.22520 0.21263
 O542 O 0.28459 0.27393 0.26407
 C543 C 0.26221 0.19159 0.17749
 C544 C 0.20056 0.19004 0.23782
 C545 C 0.20117 0.25212 0.17820
 C546 C 0.25975 0.30772 0.29883
 C547 C 0.31860 0.25009 0.29861
 C548 C 0.31931 0.30845 0.24155
 H549 H 0.29317 0.21308 0.27238
 H550 H 0.29437 0.28406 0.20372
 H551 H 0.22451 0.21442 0.20123
 H552 H 0.22374 0.28257 0.27281
 H553 H 0.21806 0.23426 0.30648
 H554 H 0.18953 0.25519 0.28016
 H555 H 0.33161 0.26283 0.19856
 H556 H 0.30336 0.23947 0.17056
 H557 H 0.25411 0.20537 0.30671
 H558 H 0.24615 0.17636 0.27656
 H559 H 0.27348 0.32150 0.19908
 H560 H 0.24906 0.29356 0.17114
 H561 H 0.30285 0.18182 0.22567
 H562 H 0.33071 0.20800 0.25173
 H563 H 0.19242 0.29224 0.22547
 H564 H 0.21846 0.32010 0.25181
 O565 O 0.74729 0.82626 0.22165
 O566 O 0.72004 0.83382 0.25820
 O567 O 0.81638 0.79638 0.25771
 O568 O 0.82634 0.76358 0.28416
 O569 O 0.78444 0.75848 0.19089
 O570 O 0.74839 0.73012 0.18462
 O571 O 0.75087 0.72501 0.32579
 O572 O 0.78102 0.75997 0.33118
 O573 O 0.68384 0.75846 0.29554
 O574 O 0.67489 0.78796 0.25882
 O575 O 0.71470 0.69303 0.26052
 O576 O 0.75157 0.68523 0.23068
 O577 O 0.74991 0.69372 0.29499
 O578 O 0.77896 0.68542 0.25811
 O579 O 0.68332 0.72386 0.26068
 O580 O 0.67453 0.76049 0.23137
 O581 O 0.71554 0.75848 0.32605
 O582 O 0.74633 0.78857 0.33319
 O583 O 0.74743 0.79477 0.19098
 O584 O 0.71967 0.75855 0.18455
 O585 O 0.81604 0.75946 0.22154
 O586 O 0.82317 0.73070 0.25809
 O587 O 0.78490 0.82714 0.25657
 O588 O 0.74833 0.83505 0.28573
 Zr589 Zr 0.75010 0.80614 0.25692
 O590 O 0.72683 0.78405 0.28185
 Zr591 Zr 0.79600 0.76129 0.25685
 O592 O 0.77459 0.73719 0.28168
 Zr593 Zr 0.74976 0.76019 0.21216
 O594 O 0.72626 0.73622 0.23504
 Zr595 Zr 0.74990 0.75964 0.30462
 O596 O 0.77365 0.78426 0.28209
 Zr597 Zr 0.70369 0.75890 0.26005
 O598 O 0.72492 0.78308 0.23487
 Zr599 Zr 0.74960 0.71390 0.25972
 O600 O 0.77332 0.73583 0.23468
 O601 O 0.77390 0.78466 0.23276
 O602 O 0.72559 0.73506 0.28407
 C603 C 0.74635 0.81845 0.19814
 C604 C 0.80862 0.81993 0.25737
 C605 C 0.80822 0.75812 0.19805
 C606 C 0.75045 0.70135 0.31854
 C607 C 0.69178 0.75815 0.31903
 C608 C 0.69098 0.70032 0.26080
 H609 H 0.71647 0.79572 0.29287
 H610 H 0.71550 0.72538 0.22362
 H611 H 0.78458 0.79558 0.22129
 H612 H 0.78652 0.72686 0.29249
 H613 H 0.79218 0.77473 0.32645
 H614 H 0.82064 0.75424 0.29980
 H615 H 0.67808 0.74666 0.21871
 H616 H 0.70586 0.77021 0.19082
 H617 H 0.75638 0.80351 0.32703
 H618 H 0.76368 0.83289 0.29696
 H619 H 0.73716 0.68828 0.21847
 H620 H 0.76056 0.71665 0.19067
 H621 H 0.70606 0.82726 0.24692
 H622 H 0.67858 0.80043 0.27278
 H623 H 0.81746 0.71773 0.24527
 H624 H 0.79180 0.68942 0.27169
 O625 O 0.75055 0.18299 0.78459
 O626 O 0.72369 0.17508 0.74892
 O627 O 0.81852 0.21542 0.74853
 O628 O 0.82824 0.24935 0.72450
 O629 O 0.78555 0.25050 0.81716
 O630 O 0.74970 0.27787 0.82444
 O631 O 0.75026 0.28572 0.68248
 O632 O 0.78054 0.25208 0.67588
 O633 O 0.68422 0.25126 0.71359
 O634 O 0.67554 0.22252 0.74924
 O635 O 0.71538 0.31706 0.74843
 O636 O 0.75135 0.32551 0.77727
 O637 O 0.74990 0.31681 0.71350
 O638 O 0.78013 0.32400 0.75121
 O639 O 0.68420 0.28616 0.74821
 O640 O 0.67698 0.24832 0.77835
 O641 O 0.71526 0.25197 0.68247
 O642 O 0.74696 0.22181 0.67502
 O643 O 0.74963 0.21365 0.81607
 O644 O 0.72063 0.24988 0.82286
 O645 O 0.81718 0.25089 0.78661
 O646 O 0.82299 0.28141 0.74986
 O647 O 0.78798 0.18388 0.74920
 O648 O 0.75018 0.17638 0.71993
 Zr649 Zr 0.75240 0.20402 0.74995
 O650 O 0.72797 0.22622 0.72610
 Zr651 Zr 0.79717 0.24978 0.75098
 O652 O 0.77508 0.27349 0.72624
 Zr653 Zr 0.75113 0.24892 0.79573
 O654 O 0.72745 0.27346 0.77348
 Zr655 Zr 0.75026 0.25106 0.70332
 O656 O 0.77521 0.22687 0.72521
 Zr657 Zr 0.70482 0.25097 0.74852
 O658 O 0.72675 0.22614 0.77261
 Zr659 Zr 0.75021 0.29629 0.74875
 O660 O 0.77409 0.27427 0.77374
 O661 O 0.77580 0.22538 0.77453
 O662 O 0.72604 0.27523 0.72448
 C663 C 0.74934 0.19012 0.80826
 C664 C 0.81150 0.19173 0.74817
 C665 C 0.80929 0.25137 0.81014
 C666 C 0.74995 0.30930 0.68986
 C667 C 0.69160 0.25185 0.68998
 C668 C 0.69174 0.30975 0.74816
 H669 H 0.71753 0.21459 0.71515
 H670 H 0.71674 0.28412 0.78513
 H671 H 0.78684 0.21433 0.78559
 H672 H 0.78673 0.28400 0.71539
 H673 H 0.79274 0.23809 0.68054
 H674 H 0.82148 0.25616 0.70798
 H675 H 0.67915 0.26343 0.78980
 H676 H 0.70767 0.23713 0.81700
 H677 H 0.75924 0.20804 0.67990
 H678 H 0.76608 0.17790 0.70944
 H679 H 0.73871 0.32089 0.79081
 H680 H 0.76074 0.29215 0.81821
 H681 H 0.70906 0.18160 0.75936
 H682 H 0.68056 0.20880 0.73696
 H683 H 0.81822 0.29301 0.76427
 H684 H 0.79159 0.32165 0.73611
 O685 O 0.24007 0.80684 0.78576
 O686 O 0.26827 0.81422 0.74991
 O687 O 0.17230 0.77620 0.74747
 O688 O 0.16321 0.74273 0.72203
 O689 O 0.20286 0.73954 0.81627
 O690 O 0.23886 0.71113 0.82380
 O691 O 0.24065 0.70427 0.68294
 O692 O 0.21005 0.73884 0.67614
 O693 O 0.30627 0.73910 0.71437
 O694 O 0.31400 0.76839 0.75115
 O695 O 0.27490 0.67328 0.74918
 O696 O 0.23751 0.66584 0.77852
 O697 O 0.24057 0.67336 0.71419
 O698 O 0.21065 0.66560 0.75042
 O699 O 0.30599 0.70426 0.74918
 O700 O 0.31375 0.74112 0.77878
 O701 O 0.27541 0.73848 0.68301
 O702 O 0.24425 0.76782 0.67459
 O703 O 0.23969 0.77571 0.81681
 O704 O 0.26739 0.73969 0.82436
 O705 O 0.17206 0.74014 0.78480
 O706 O 0.16631 0.71041 0.74862
 O707 O 0.20346 0.80710 0.74922
 O708 O 0.24107 0.81506 0.72162
 Zr709 Zr 0.23849 0.78636 0.75060
 O710 O 0.26261 0.76408 0.72660
 Zr711 Zr 0.19302 0.74129 0.75000
 O712 O 0.21531 0.71699 0.72608
 Zr713 Zr 0.23806 0.74095 0.79592
 O714 O 0.26239 0.71680 0.77401
 Zr715 Zr 0.24045 0.73926 0.70352
 O716 O 0.21588 0.76403 0.72506
 Zr717 Zr 0.28541 0.73929 0.74930
 O718 O 0.26329 0.76367 0.77359
 Zr719 Zr 0.23988 0.69409 0.74906
 O720 O 0.21530 0.71623 0.77314
 O721 O 0.21422 0.76509 0.77437
 O722 O 0.26439 0.71505 0.72505
 C723 C 0.24067 0.79931 0.80940
 C724 C 0.17984 0.79978 0.74751
 C725 C 0.17928 0.73917 0.80850
 C726 C 0.24087 0.68069 0.69054
 C727 C 0.29899 0.73867 0.69066
 C728 C 0.29854 0.68068 0.74909
 H729 H 0.27314 0.77572 0.71575
 H730 H 0.27297 0.70613 0.78582
 H731 H 0.20313 0.77620 0.78529
 H732 H 0.20379 0.70647 0.71510
 H733 H 0.19850 0.75349 0.68039
 H734 H 0.16951 0.73346 0.70658
 H735 H 0.31026 0.72705 0.79119
 H736 H 0.28144 0.75103 0.81815
 H737 H 0.23374 0.78269 0.68022
 H738 H 0.22634 0.81256 0.70968
 H739 H 0.25171 0.66901 0.79091
 H740 H 0.22683 0.69764 0.81763
 H741 H 0.28194 0.80793 0.76176
 H742 H 0.31026 0.78108 0.73736
 H743 H 0.17159 0.69791 0.76210
 H744 H 0.19812 0.66938 0.73647
 O745 O 0.24822 0.33099 0.72941
 O746 O 0.22025 0.33805 0.76550
 O747 O 0.31660 0.30065 0.76667
 O748 O 0.32632 0.26730 0.79231
 O749 O 0.28579 0.26357 0.69845
 O750 O 0.24988 0.23535 0.69121
 O751 O 0.25006 0.22838 0.83231
 O752 O 0.28005 0.26328 0.83867
 O753 O 0.18348 0.26220 0.80136
 O754 O 0.17509 0.29211 0.76493
 O755 O 0.21500 0.19723 0.76609
 O756 O 0.25235 0.18985 0.73671
 O757 O 0.24968 0.19750 0.80108
 O758 O 0.27929 0.18969 0.76458
 O759 O 0.18359 0.22803 0.76609
 O760 O 0.17531 0.26507 0.73705
 O761 O 0.21466 0.26179 0.83241
 O762 O 0.24529 0.29185 0.84045
 O763 O 0.24880 0.29985 0.69840
 O764 O 0.22118 0.26374 0.69105
 O765 O 0.31692 0.26429 0.72958
 O766 O 0.32341 0.23493 0.76587
 O767 O 0.28514 0.33141 0.76534
 O768 O 0.24786 0.33899 0.79359
 Zr769 Zr 0.25036 0.31042 0.76449
 O770 O 0.22669 0.28798 0.78874
 Zr771 Zr 0.29629 0.26558 0.76461
 O772 O 0.27449 0.24115 0.78877
 Zr773 Zr 0.25080 0.26504 0.71918
 O774 O 0.22694 0.24075 0.74132
 Zr775 Zr 0.24938 0.26328 0.81158
 O776 O 0.27348 0.28820 0.78977
 Zr777 Zr 0.20394 0.26309 0.76623
 O778 O 0.22557 0.28762 0.74174
 Zr779 Zr 0.24989 0.21813 0.76609
 O780 O 0.27401 0.24040 0.74174
 O781 O 0.27460 0.28928 0.74046
 O782 O 0.22544 0.23896 0.79030
 C783 C 0.24762 0.32345 0.70580
 C784 C 0.30884 0.32419 0.76667
 C785 C 0.30946 0.26315 0.70596
 C786 C 0.24983 0.20482 0.82474
 C787 C 0.19102 0.26155 0.82498
 C788 C 0.19127 0.20450 0.76607
 H789 H 0.21613 0.29949 0.79973
 H790 H 0.21638 0.23005 0.72958
 H791 H 0.28550 0.30038 0.72938
 H792 H 0.28624 0.23070 0.79964
 H793 H 0.29129 0.27809 0.83430
 H794 H 0.32022 0.25809 0.80787
 H795 H 0.17901 0.25132 0.72434
 H796 H 0.20725 0.27531 0.69724
 H797 H 0.25558 0.30681 0.83475
 H798 H 0.26287 0.33665 0.80522
 H799 H 0.23810 0.19301 0.72435
 H800 H 0.26192 0.22177 0.69730
 H801 H 0.20649 0.33161 0.75389
 H802 H 0.17863 0.30449 0.77901
 H803 H 0.31799 0.22222 0.75269
 H804 H 0.29194 0.19356 0.77838
 O805 O 0.76529 0.68373 0.70020
 O806 O 0.79349 0.67593 0.73625
 O807 O 0.69763 0.71460 0.73815
 O808 O 0.68823 0.74818 0.76333
 O809 O 0.72892 0.75167 0.66963
 O810 O 0.76511 0.77967 0.66279
 O811 O 0.76497 0.78557 0.80371
 O812 O 0.73485 0.75068 0.80997
 O813 O 0.83145 0.75053 0.77261
 O814 O 0.83921 0.72117 0.73590
 O815 O 0.80061 0.81653 0.73843
 O816 O 0.76366 0.82467 0.70838
 O817 O 0.76543 0.81668 0.77268
 O818 O 0.73643 0.82499 0.73596
 O819 O 0.83160 0.78530 0.73817
 O820 O 0.83924 0.74858 0.70827
 O821 O 0.80033 0.75161 0.80361
 O822 O 0.76931 0.72212 0.81180
 O823 O 0.76531 0.71509 0.66936
 O824 O 0.79352 0.75080 0.66245
 O825 O 0.69788 0.75094 0.70078
 O826 O 0.69176 0.78040 0.73723
 O827 O 0.72862 0.68339 0.73652
 O828 O 0.76597 0.67490 0.76420
 Zr829 Zr 0.76371 0.70392 0.73549
 O830 O 0.78771 0.72584 0.75991
 Zr831 Zr 0.71843 0.74937 0.73586
 O832 O 0.74058 0.77332 0.76018
 Zr833 Zr 0.76385 0.74968 0.69046
 O834 O 0.78809 0.77346 0.71280
 Zr835 Zr 0.76545 0.75072 0.78288
 O836 O 0.74098 0.72628 0.76092
 Zr837 Zr 0.81078 0.75055 0.73756
 O838 O 0.78877 0.72654 0.71289
 Zr839 Zr 0.76544 0.79618 0.73766
 O840 O 0.74099 0.77443 0.71315
 O841 O 0.73973 0.72557 0.71159
 O842 O 0.78965 0.77484 0.76177
 C843 C 0.76601 0.69144 0.67663
 C844 C 0.70504 0.69094 0.73815
 C845 C 0.70530 0.75215 0.67716
 C846 C 0.76515 0.80920 0.79628
 C847 C 0.82397 0.75125 0.79621
 C848 C 0.82423 0.80892 0.73863
 H849 H 0.79811 0.71408 0.77083
 H850 H 0.79882 0.78413 0.70121
 H851 H 0.72862 0.71464 0.70052
 H852 H 0.72892 0.78382 0.77106
 H853 H 0.72348 0.73600 0.80549
 H854 H 0.69471 0.75657 0.77919
 H855 H 0.83601 0.76288 0.69602
 H856 H 0.80732 0.73906 0.66864
 H857 H 0.75940 0.70703 0.80578
 H858 H 0.75132 0.67757 0.77617
 H859 H 0.77818 0.82162 0.69635
 H860 H 0.75329 0.79335 0.66903
 H861 H 0.80711 0.68211 0.72436
 H862 H 0.83532 0.70848 0.74963
 H863 H 0.69709 0.79291 0.72381
 H864 H 0.72349 0.82103 0.74943
 O865 O 0.24900 0.68219 0.28527
 O866 O 0.22173 0.67484 0.24978
 O867 O 0.31658 0.71511 0.24895
 O868 O 0.32600 0.74928 0.22515
 O869 O 0.28450 0.74931 0.31835
 O870 O 0.24871 0.77644 0.32653
 O871 O 0.24772 0.78640 0.18470
 O872 O 0.27784 0.75278 0.17728
 O873 O 0.18196 0.75162 0.21605
 O874 O 0.17359 0.72237 0.25125
 O875 O 0.21357 0.81680 0.25173
 O876 O 0.24999 0.82480 0.28004
 O877 O 0.24764 0.81705 0.21615
 O878 O 0.27831 0.82371 0.25356
 O879 O 0.18237 0.78592 0.25151
 O880 O 0.17550 0.74748 0.28087
 O881 O 0.21266 0.75267 0.18462
 O882 O 0.24417 0.72269 0.17630
 O883 O 0.24856 0.71239 0.31720
 O884 O 0.21966 0.74852 0.32489
 O885 O 0.31573 0.75017 0.28741
 O886 O 0.32119 0.78102 0.25103
 O887 O 0.28602 0.68358 0.24952
 O888 O 0.24792 0.67652 0.22054
 Zr889 Zr 0.25048 0.70373 0.25093
 O890 O 0.22582 0.72630 0.22770
 Zr891 Zr 0.29530 0.74944 0.25206
 O892 O 0.27295 0.77355 0.22796
 Zr893 Zr 0.24982 0.74795 0.29736
 O894 O 0.22591 0.77283 0.27576
 Zr895 Zr 0.24787 0.75146 0.20503
 O896 O 0.27302 0.72691 0.22625
 Zr897 Zr 0.20295 0.75073 0.25076
 O898 O 0.22513 0.72553 0.27422
 Zr899 Zr 0.24838 0.79602 0.25110
 O900 O 0.27253 0.77361 0.27546
 O901 O 0.27421 0.72472 0.27553
 O902 O 0.22389 0.77534 0.22681
 C903 C 0.24810 0.68898 0.30906
 C904 C 0.30953 0.69143 0.24836
 C905 C 0.30813 0.75037 0.31103
 C906 C 0.24750 0.80987 0.19241
 C907 C 0.18910 0.75247 0.19238
 C908 C 0.18994 0.80950 0.25182
 H909 H 0.21524 0.71484 0.21670
 H910 H 0.21536 0.78330 0.28774
 H911 H 0.28537 0.71352 0.28632
 H912 H 0.28449 0.78420 0.21713
 H913 H 0.29002 0.73865 0.18157
 H914 H 0.31909 0.75647 0.20886
 H915 H 0.17789 0.76230 0.29265
 H916 H 0.20666 0.73580 0.31905
 H917 H 0.25634 0.70873 0.18090
 H918 H 0.26370 0.67819 0.20991
 H919 H 0.23758 0.81997 0.29371
 H920 H 0.25968 0.79083 0.32042
 H921 H 0.20722 0.68122 0.26050
 H922 H 0.17854 0.70876 0.23881
 H923 H 0.31652 0.79252 0.26556
 H924 H 0.28960 0.82155 0.23830
 O925 O 0.73667 0.30315 0.28583
 O926 O 0.76514 0.31015 0.25026
 O927 O 0.66936 0.27175 0.24712
 O928 O 0.66077 0.23793 0.22196
 O929 O 0.69898 0.23631 0.31681
 O930 O 0.73489 0.20804 0.32531
 O931 O 0.73888 0.19915 0.18465
 O932 O 0.70830 0.23346 0.17686
 O933 O 0.80392 0.23448 0.21646
 O934 O 0.81110 0.26435 0.25285
 O935 O 0.77214 0.16917 0.25227
 O936 O 0.73414 0.16208 0.28068
 O937 O 0.73855 0.16866 0.21630
 O938 O 0.70798 0.16129 0.25203
 O939 O 0.80318 0.20022 0.25218
 O940 O 0.81044 0.23770 0.28095
 O941 O 0.77351 0.23353 0.18468
 O942 O 0.74238 0.26254 0.17540
 O943 O 0.73584 0.27249 0.31734
 O944 O 0.76334 0.23660 0.32590
 O945 O 0.66865 0.23625 0.28489
 O946 O 0.66354 0.20598 0.24908
 O947 O 0.70042 0.30276 0.24890
 O948 O 0.73837 0.31037 0.22156
 Zr949 Zr 0.73549 0.28215 0.25099
 O950 O 0.76004 0.25960 0.22771
 Zr951 Zr 0.69013 0.23695 0.25041
 O952 O 0.71286 0.21238 0.22719
 Zr953 Zr 0.73448 0.23743 0.29698
 O954 O 0.75919 0.21304 0.27580
 Zr955 Zr 0.73827 0.23439 0.20469
 O956 O 0.71330 0.25940 0.22548
 Zr957 Zr 0.78255 0.23519 0.25110
 O958 O 0.76000 0.25987 0.27467
 Zr959 Zr 0.73712 0.18988 0.25086
 O960 O 0.71213 0.21230 0.27425
 O961 O 0.71092 0.26119 0.27472
 O962 O 0.76197 0.21053 0.22690
 C963 C 0.73700 0.29596 0.30957
 C964 C 0.67685 0.29535 0.24697
 C965 C 0.67553 0.23572 0.30870
 C966 C 0.73912 0.17569 0.19256
 C967 C 0.79697 0.23385 0.19265
 C968 C 0.79576 0.17663 0.25261
 H969 H 0.77070 0.27111 0.21685
 H970 H 0.76957 0.20260 0.28798
 H971 H 0.69968 0.27244 0.28533
 H972 H 0.70154 0.20167 0.21618
 H973 H 0.69661 0.24812 0.18073
 H974 H 0.66730 0.22839 0.20677
 H975 H 0.80669 0.22395 0.29366
 H976 H 0.77746 0.24791 0.31979
 H977 H 0.73174 0.27746 0.18066
 H978 H 0.72371 0.30773 0.20956
 H979 H 0.74792 0.16563 0.29344
 H980 H 0.72284 0.19452 0.31927
 H981 H 0.77877 0.30400 0.26221
 H982 H 0.80752 0.27682 0.23883
 H983 H 0.66868 0.19367 0.26279
 H984 H 0.69566 0.16487 0.23785
 C985 C 0.26144 0.08317 0.07137
 C986 C 0.26298 0.10074 0.08655
 C987 C 0.26402 0.12069 0.10505
 C988 C 0.26432 0.13731 0.12131
 C989 C 0.26407 0.15640 0.14073
 C990 C 0.26343 0.17251 0.15749
 C991 C 0.76416 0.58376 0.56991
 C992 C 0.76591 0.60106 0.58533
 C993 C 0.76714 0.62072 0.60410
 C994 C 0.76759 0.63713 0.62054
 C995 C 0.76751 0.65607 0.64008
 C996 C 0.76701 0.67218 0.65683
 C997 C 0.74198 0.91828 0.08379
 C998 C 0.74149 0.90405 0.10219
 C999 C 0.74158 0.88681 0.12330
 C1000 C 0.74213 0.87166 0.14097
 C1001 C 0.74325 0.85349 0.16125
 C1002 C 0.74453 0.83764 0.17825
 C1003 C 0.24281 0.42092 0.58953
 C1004 C 0.24257 0.40741 0.60849
 C1005 C 0.24288 0.39092 0.63019
 C1006 C 0.24356 0.37628 0.64827
 C1007 C 0.24474 0.35849 0.66890
 C1008 C 0.24597 0.34278 0.68603
 C1009 C 0.74717 0.07663 0.90930
 C1010 C 0.74659 0.09369 0.89346
 C1011 C 0.74642 0.11421 0.87552
 C1012 C 0.74665 0.13193 0.86044
 C1013 C 0.74729 0.15265 0.84274
 C1014 C 0.74810 0.17005 0.82731
 C1015 C 0.24625 0.57482 0.40929
 C1016 C 0.24562 0.59184 0.39343
 C1017 C 0.24542 0.61240 0.37555
 C1018 C 0.24563 0.63021 0.36057
 C1019 C 0.24624 0.65109 0.34306
 C1020 C 0.24699 0.66866 0.32783
 C1021 C 0.24778 0.90729 0.91622
 C1022 C 0.24720 0.89010 0.90053
 C1023 C 0.24614 0.87049 0.88161
 C1024 C 0.24502 0.85404 0.86518
 C1025 C 0.24354 0.83498 0.84573
 C1026 C 0.24222 0.81874 0.82909
 C1027 C 0.74611 0.40551 0.41444
 C1028 C 0.74501 0.38808 0.39907
 C1029 C 0.74341 0.36818 0.38054
 C1030 C 0.74189 0.35148 0.36441
 C1031 C 0.74007 0.33214 0.34531
 C1032 C 0.73858 0.31567 0.32896
 C1033 C 0.08534 0.25549 0.07978
 C1034 C 0.10423 0.25602 0.09344
 C1035 C 0.12588 0.25605 0.11009
 C1036 C 0.14391 0.25563 0.12486
 C1037 C 0.16448 0.25473 0.14279
 C1038 C 0.18154 0.25366 0.15865
 C1039 C 0.58955 0.75581 0.57884
 C1040 C 0.60840 0.75624 0.59253
 C1041 C 0.62997 0.75615 0.60923
 C1042 C 0.64794 0.75565 0.62403
 C1043 C 0.66847 0.75468 0.64197
 C1044 C 0.68554 0.75361 0.65778
 C1045 C 0.07265 0.74035 0.91660
 C1046 C 0.08809 0.73893 0.89925
 C1047 C 0.10683 0.73797 0.87950
 C1048 C 0.12323 0.73765 0.86299
 C1049 C 0.14271 0.73779 0.84394
 C1050 C 0.15943 0.73826 0.82778
 C1051 C 0.56848 0.23875 0.41623
 C1052 C 0.58378 0.23697 0.39881
 C1053 C 0.60247 0.23562 0.37904
 C1054 C 0.61891 0.23501 0.36259
 C1055 C 0.63852 0.23484 0.34369
 C1056 C 0.65541 0.23507 0.32770
 C1057 C 0.91507 0.75193 0.08999
 C1058 C 0.89921 0.75224 0.10704
 C1059 C 0.88014 0.75302 0.12653
 C1060 C 0.86363 0.75396 0.14292
 C1061 C 0.84418 0.75530 0.16200
 C1062 C 0.82764 0.75655 0.17834
 C1063 C 0.41467 0.25520 0.59644
 C1064 C 0.39937 0.25603 0.61398
 C1065 C 0.38089 0.25733 0.63399
 C1066 C 0.36475 0.25862 0.65073
 C1067 C 0.34558 0.26024 0.67007
 C1068 C 0.32909 0.26162 0.68646
 C1069 C 0.90940 0.25156 0.92481
 C1070 C 0.89372 0.25247 0.90757
 C1071 C 0.87599 0.25302 0.88681
 C1072 C 0.86110 0.25311 0.86888
 C1073 C 0.84359 0.25283 0.84792
 C1074 C 0.82828 0.25231 0.83035
 C1075 C 0.40998 0.75162 0.42392
 C1076 C 0.39400 0.75228 0.40698
 C1077 C 0.37593 0.75255 0.38656
 C1078 C 0.36073 0.75242 0.36891
 C1079 C 0.34291 0.75194 0.34828
 C1080 C 0.32735 0.75131 0.33096
 C1081 C 0.09243 0.08347 0.24383
 C1082 C 0.10961 0.09908 0.24221
 C1083 C 0.12924 0.11793 0.24078
 C1084 C 0.14571 0.13433 0.23985
 C1085 C 0.16480 0.15375 0.23902
 C1086 C 0.18108 0.17037 0.23844
 C1087 C 0.59576 0.58566 0.74645
 C1088 C 0.61319 0.60105 0.74560
 C1089 C 0.63309 0.61962 0.74427
 C1090 C 0.64978 0.63579 0.74294
 C1091 C 0.66908 0.65496 0.74126
 C1092 C 0.68548 0.67140 0.73981
 C1093 C 0.92551 0.09084 0.74722
 C1094 C 0.90841 0.10668 0.74642
 C1095 C 0.88781 0.12461 0.74602
 C1096 C 0.87002 0.13967 0.74605
 C1097 C 0.84919 0.15733 0.74648
 C1098 C 0.83169 0.17272 0.74712
 C1099 C 0.42323 0.59041 0.24614
 C1100 C 0.40621 0.60632 0.24541
 C1101 C 0.38568 0.62429 0.24512
 C1102 C 0.36793 0.63938 0.24531
 C1103 C 0.34714 0.65705 0.24599
 C1104 C 0.32968 0.67244 0.24691
 C1105 C 0.08136 0.91560 0.74393
 C1106 C 0.09517 0.89683 0.74350
 C1107 C 0.11195 0.87529 0.74357
 C1108 C 0.12677 0.85730 0.74403
 C1109 C 0.14469 0.83673 0.74497
 C1110 C 0.16048 0.81960 0.74602
 C1111 C 0.57847 0.41102 0.24239
 C1112 C 0.59218 0.39219 0.24194
 C1113 C 0.60889 0.37063 0.24206
 C1114 C 0.62370 0.35266 0.24264
 C1115 C 0.64164 0.33213 0.24378
 C1116 C 0.65746 0.31507 0.24509
 C1117 C 0.91619 0.92694 0.25378
 C1118 C 0.89892 0.91137 0.25414
 C1119 C 0.87932 0.89251 0.25488
 C1120 C 0.86293 0.87604 0.25564
 C1121 C 0.84401 0.85650 0.25651
 C1122 C 0.82790 0.83975 0.25708
 C1123 C 0.41700 0.43047 0.76370
 C1124 C 0.39961 0.41515 0.76558
 C1125 C 0.37984 0.39650 0.76702
 C1126 C 0.36333 0.38015 0.76767
 C1127 C 0.34429 0.36070 0.76782
 C1128 C 0.32812 0.34400 0.76751
 C1129 C 0.08200 0.25381 0.93038
 C1130 C 0.09953 0.25458 0.91510
 C1131 C 0.11944 0.25588 0.89657
 C1132 C 0.13608 0.25720 0.88038
 C1133 C 0.15526 0.25884 0.86113
 C1134 C 0.17157 0.26018 0.84460
 C1135 C 0.58505 0.75250 0.42691
 C1136 C 0.60221 0.75291 0.41121
 C1137 C 0.62169 0.75380 0.39220
 C1138 C 0.63795 0.75478 0.37560
 C1139 C 0.65671 0.75605 0.35590
 C1140 C 0.67267 0.75709 0.33902
 C1141 C 0.92292 0.75286 0.91143
 C1142 C 0.90917 0.75319 0.89263
 C1143 C 0.89237 0.75316 0.87116
 C1144 C 0.87745 0.75287 0.85329
 C1145 C 0.85936 0.75233 0.83290
 C1146 C 0.84343 0.75182 0.81591
 C1147 C 0.41722 0.25277 0.41438
 C1148 C 0.40331 0.25277 0.39568
 C1149 C 0.38643 0.25241 0.37423
 C1150 C 0.37155 0.25191 0.35630
 C1151 C 0.35361 0.25121 0.33574
 C1152 C 0.33785 0.25063 0.31857
 C1153 C 0.07611 0.75237 0.09062
 C1154 C 0.09301 0.75338 0.10662
 C1155 C 0.11338 0.75396 0.12474
 C1156 C 0.13101 0.75404 0.13996
 C1157 C 0.15165 0.75373 0.15778
 C1158 C 0.16902 0.75324 0.17329
 C1159 C 0.57681 0.25217 0.59006
 C1160 C 0.59431 0.25299 0.60545
 C1161 C 0.61526 0.25337 0.62295
 C1162 C 0.63326 0.25332 0.63776
 C1163 C 0.65418 0.25294 0.65529
 C1164 C 0.67164 0.25247 0.67073
 C1165 C 0.90571 0.23978 0.08658
 C1166 C 0.88864 0.23770 0.10229
 C1167 C 0.86908 0.23588 0.12121
 C1168 C 0.85260 0.23479 0.13762
 C1169 C 0.83339 0.23402 0.15695
 C1170 C 0.81689 0.23375 0.17338
 C1171 C 0.40808 0.74257 0.58489
 C1172 C 0.39080 0.74101 0.60041
 C1173 C 0.37102 0.73972 0.61913
 C1174 C 0.35441 0.73902 0.63542
 C1175 C 0.33513 0.73859 0.65470
 C1176 C 0.31868 0.73851 0.67117
 C1177 C 0.24839 0.08882 0.92262
 C1178 C 0.24823 0.10769 0.90900
 C1179 C 0.24838 0.12930 0.89240
 C1180 C 0.24870 0.14732 0.87769
 C1181 C 0.24917 0.16790 0.85984
 C1182 C 0.24954 0.18502 0.84409
 C1183 C 0.74956 0.58706 0.41848
 C1184 C 0.74939 0.60567 0.40452
 C1185 C 0.74952 0.62696 0.38750
 C1186 C 0.74978 0.64470 0.37244
 C1187 C 0.75014 0.66496 0.35422
 C1188 C 0.75038 0.68182 0.33817
 C1189 C 0.74531 0.07006 0.08387
 C1190 C 0.74482 0.08518 0.10152
 C1191 C 0.74384 0.10359 0.12153
 C1192 C 0.74279 0.11977 0.13818
 C1193 C 0.74144 0.13909 0.15729
 C1194 C 0.74030 0.15577 0.17343
 C1195 C 0.24572 0.57292 0.58367
 C1196 C 0.24541 0.58876 0.60069
 C1197 C 0.24463 0.60788 0.62006
 C1198 C 0.24377 0.62451 0.63629
 C1199 C 0.24264 0.64417 0.65510
 C1200 C 0.24174 0.66094 0.67118
 C1201 C 0.75782 0.91604 0.90393
 C1202 C 0.75997 0.90041 0.88684
 C1203 C 0.76193 0.88149 0.86735
 C1204 C 0.76318 0.86500 0.85099
 C1205 C 0.76420 0.84548 0.83202
 C1206 C 0.76477 0.82883 0.81579
 C1207 C 0.25465 0.41337 0.40803
 C1208 C 0.25617 0.39776 0.39082
 C1209 C 0.25750 0.37899 0.37110
 C1210 C 0.25832 0.36270 0.35449
 C1211 C 0.25899 0.34347 0.33517
 C1212 C 0.25939 0.32707 0.31866
 C1213 C 0.24874 0.91093 0.07898
 C1214 C 0.24766 0.89539 0.09627
 C1215 C 0.24696 0.87771 0.11700
 C1216 C 0.24674 0.86273 0.13481
 C1217 C 0.24683 0.84500 0.15551
 C1218 C 0.24708 0.82937 0.17275
 C1219 C 0.75030 0.40990 0.57598
 C1220 C 0.74944 0.39432 0.59325
 C1221 C 0.74899 0.37663 0.61398
 C1222 C 0.74896 0.36168 0.63181
 C1223 C 0.74922 0.34404 0.65259
 C1224 C 0.74955 0.32855 0.66995
 C1225 C 0.08589 0.09543 0.75911
 C1226 C 0.10129 0.11274 0.76119
 C1227 C 0.11990 0.13253 0.76308
 C1228 C 0.13612 0.14915 0.76428
 C1229 C 0.15534 0.16842 0.76525
 C1230 C 0.17180 0.18484 0.76577
 C1231 C 0.58476 0.59194 0.25633
 C1232 C 0.60038 0.60908 0.25806
 C1233 C 0.61922 0.62870 0.25953
 C1234 C 0.63559 0.64519 0.26036
 C1235 C 0.65494 0.66434 0.26089
 C1236 C 0.67147 0.68070 0.26101
 C1237 C 0.08868 0.92289 0.25204
 C1238 C 0.10453 0.90583 0.25271
 C1239 C 0.12243 0.88527 0.25303
 C1240 C 0.13749 0.86751 0.25301
 C1241 C 0.15519 0.84678 0.25272
 C1242 C 0.17070 0.82942 0.25234
 C1243 C 0.59115 0.42385 0.74908
 C1244 C 0.60671 0.40654 0.74809
 C1245 C 0.62440 0.38577 0.74749
 C1246 C 0.63934 0.36790 0.74735
 C1247 C 0.65699 0.34709 0.74749
 C1248 C 0.67248 0.32969 0.74776
 C1249 C 0.91118 0.07791 0.25589
 C1250 C 0.89239 0.09168 0.25616
 C1251 C 0.87090 0.10846 0.25593
 C1252 C 0.85298 0.12333 0.25541
 C1253 C 0.83253 0.14135 0.25452
 C1254 C 0.81550 0.15721 0.25365
 C1255 C 0.41380 0.58151 0.74800
 C1256 C 0.39507 0.59539 0.74773
 C1257 C 0.37363 0.61228 0.74776
 C1258 C 0.35574 0.62722 0.74799
 C1259 C 0.33530 0.64529 0.74839
 C1260 C 0.31827 0.66120 0.74876
 C1261 C 0.93036 0.91706 0.74519
 C1262 C 0.91496 0.89968 0.74452
 C1263 C 0.89629 0.87994 0.74338
 C1264 C 0.87997 0.86345 0.74223
 C1265 C 0.86058 0.84443 0.74082
 C1266 C 0.84394 0.82826 0.73970
 C1267 C 0.42636 0.41578 0.24684
 C1268 C 0.41069 0.39863 0.24662
 C1269 C 0.39174 0.37914 0.24591
 C1270 C 0.37522 0.36282 0.24505
 C1271 C 0.35568 0.34394 0.24383
 C1272 C 0.33899 0.32781 0.24275
   
