data_POSCAR
  _audit_creation_date              2014-09-24
  _audit_creation_method            'ToBaCCo'
  _symmetry_space_group_name_H-M    'P1'
  _symmetry_Int_Tables_number       1
  _symmetry_cell_setting            triclinic
  loop_
  _symmetry_equiv_pos_as_xyz
 x,y,z
_cell_length_a 56.4308
_cell_length_b 54.6665
_cell_length_c 54.4840
_cell_angle_alpha 90.032200
_cell_angle_beta 89.776100
_cell_angle_gamma 90.201600
loop_
  _atom_site_label
  _atom_site_type_symbol
  _atom_site_fract_x
  _atom_site_fract_y
  _atom_site_fract_z
C1 C 0.30324 0.45258 0.91647
 C2 C 0.29448 0.43057 0.92626
 C3 C 0.30520 0.41998 0.94686
 C4 C 0.32461 0.43169 0.95795
 C5 C 0.33474 0.45256 0.94708
 C6 C 0.32307 0.46363 0.92726
 H7 H 0.28024 0.42097 0.91701
 H8 H 0.33352 0.42275 0.97308
 H9 H 0.33047 0.48007 0.91908
 C10 C 0.44643 0.83153 0.45560
 C11 C 0.45139 0.82154 0.43222
 C12 C 0.43787 0.80209 0.42272
 C13 C 0.41835 0.79332 0.43609
 C14 C 0.41189 0.80418 0.45838
 C15 C 0.42713 0.82158 0.46891
 H16 H 0.46490 0.82965 0.42060
 H17 H 0.40739 0.77895 0.42838
 H18 H 0.42296 0.82832 0.48711
 C19 C 0.94206 0.91125 0.80548
 C20 C 0.92391 0.92255 0.79232
 C21 C 0.91484 0.94507 0.80011
 C22 C 0.92422 0.95636 0.82105
 C23 C 0.94150 0.94454 0.83545
 C24 C 0.95107 0.92239 0.82669
 H25 H 0.91602 0.91325 0.77677
 H26 H 0.91710 0.97386 0.82674
 H27 H 0.96403 0.91253 0.83742
 C28 C 0.44154 -0.08274 0.29867
 C29 C 0.42353 -0.06998 0.28644
 C30 C 0.41671 -0.04652 0.29443
 C31 C 0.42836 -0.03601 0.31459
 C32 C 0.44500 -0.04940 0.32804
 C33 C 0.45234 -0.07224 0.31934
 H34 H 0.41395 -0.07886 0.27169
 H35 H 0.42275 -0.01829 0.32137
 H36 H 0.46514 -0.08272 0.32972
 C37 C 0.81168 0.30039 0.33027
 C38 C 0.79998 0.32080 0.32057
 C39 C 0.80798 0.33179 0.29883
 C40 C 0.82774 0.32206 0.28656
 C41 C 0.83981 0.30169 0.29607
 C42 C 0.83192 0.29133 0.31830
 H43 H 0.78492 0.32847 0.33025
 H44 H 0.83395 0.33066 0.26981
 H45 H 0.84169 0.27642 0.32651
 C46 C -0.19388 0.82946 0.80383
 C47 C -0.17547 0.81486 0.79459
 C48 C -0.16523 0.79652 0.80891
 C49 C -0.17424 0.79178 0.83243
 C50 C -0.19427 0.80439 0.84114
 C51 C -0.20477 0.82219 0.82598
 H52 H -0.16814 0.81856 0.77653
 H53 H -0.16535 0.77863 0.84405
 H54 H -0.22020 0.83185 0.83265
 C55 C 0.94621 0.33772 0.44650
 C56 C 0.93035 0.32294 0.46001
 C57 C 0.92089 0.30132 0.45011
 C58 C 0.92922 0.29313 0.42726
 C59 C 0.94673 0.30637 0.41457
 C60 C 0.95529 0.32846 0.42425
 H61 H 0.92426 0.32892 0.47792
 H62 H 0.92141 0.27709 0.41879
 H63 H 0.96751 0.33926 0.41331
 C64 C 0.44960 0.45058 0.82642
 C65 C 0.42952 0.46103 0.81548
 C66 C 0.41957 0.45065 0.79427
 C67 C 0.42939 0.42912 0.78457
 C68 C 0.44847 0.41765 0.79624
 C69 C 0.45892 0.42882 0.81668
 H70 H 0.42125 0.47684 0.82387
 H71 H 0.42136 0.42052 0.76870
 H72 H 0.47370 0.41999 0.82567
 C73 C 0.80544 0.91863 0.94859
 C74 C 0.79616 0.92827 0.92680
 C75 C 0.80829 0.94686 0.91413
 C76 C 0.82907 0.95684 0.92408
 C77 C 0.83830 0.94755 0.94604
 C78 C 0.82665 0.92825 0.95805
 H79 H 0.78052 0.92003 0.91868
 H80 H 0.83879 0.97078 0.91406
 H81 H 0.83452 0.92016 0.97424
 C82 C 0.30219 0.83651 0.30112
 C83 C 0.32090 0.82302 0.29103
 C84 C 0.32992 0.80252 0.30321
 C85 C 0.32033 0.79575 0.32605
 C86 C 0.30061 0.80818 0.33575
 C87 C 0.29039 0.82714 0.32187
 H88 H 0.32923 0.82919 0.27415
 H89 H 0.32873 0.78137 0.33653
 H90 H 0.27498 0.83656 0.32901
 C91 C 0.80548 0.41771 0.44928
 C92 C 0.79749 0.42631 0.42650
 C93 C 0.80903 0.44587 0.41481
 C94 C 0.82871 0.45686 0.42599
 C95 C 0.83676 0.44851 0.44883
 C96 C 0.82491 0.42919 0.46055
 H97 H 0.78302 0.41703 0.41730
 H98 H 0.83818 0.47140 0.41656
 H99 H 0.83176 0.42198 0.47765
 C100 C 0.94553 0.83139 -0.04130
 C101 C 0.95138 0.82075 -0.06413
 C102 C 0.93843 0.80075 -0.07340
 C103 C 0.91875 0.79204 -0.06013
 C104 C 0.91141 0.80374 -0.03854
 C105 C 0.92608 0.82170 -0.02823
 H106 H 0.96519 0.82875 -0.07546
 H107 H 0.90835 0.77703 -0.06740
 H108 H 0.92133 0.82917 -0.01046
 C109 C 0.31358 0.33025 0.79293
 C110 C 0.33362 0.31847 0.78335
 C111 C 0.34103 0.29594 0.79313
 C112 C 0.32845 0.28572 0.81299
 C113 C 0.30834 0.29740 0.82257
 C114 C 0.30078 0.31939 0.81210
 H115 H 0.34396 0.32727 0.76904
 H116 H 0.33476 0.26907 0.82150
 H117 H 0.28557 0.32881 0.81978
 C118 C 0.16254 0.55668 0.54728
 C119 C 0.17283 0.57883 0.53955
 C120 C 0.19215 0.58898 0.55207
 C121 C 0.20149 0.57668 0.57242
 C122 C 0.19188 0.55417 0.58011
 C123 C 0.17198 0.54463 0.56786
 H124 H 0.16556 0.58844 0.52391
 H125 H 0.21616 0.58473 0.58241
 H126 H 0.16381 0.52789 0.57441
 C127 C 0.57675 0.70348 0.05110
 C128 C 0.56629 0.68296 0.03999
 C129 C 0.54730 0.67093 0.05145
 C130 C 0.53752 0.68063 0.07304
 C131 C 0.54768 0.70132 0.08402
 C132 C 0.56694 0.71306 0.07268
 H133 H 0.57474 0.67468 0.02414
 H134 H 0.52356 0.67072 0.08253
 H135 H 0.57573 0.72807 0.08198
 C136 C 0.70185 0.19794 0.66937
 C137 C 0.70945 0.17478 0.67693
 C138 C 0.69973 0.16366 0.69801
 C139 C 0.68335 0.17692 0.71227
 C140 C 0.67533 0.19998 0.70457
 C141 C 0.68513 0.21066 0.68348
 H142 H 0.72211 0.16493 0.66567
 H143 H 0.67489 0.16828 0.72794
 H144 H 0.67811 0.22781 0.67672
 C145 C 1.08577 0.05329 0.20035
 C146 C 1.07439 0.04222 0.18032
 C147 C 1.05468 0.05330 0.16908
 C148 C 1.04707 0.07620 0.17811
 C149 C 1.05883 0.08772 0.19754
 C150 C 1.07787 0.07601 0.20890
 H151 H 1.08180 0.02557 0.17275
 H152 H 1.03213 0.08541 0.16983
 H153 H 1.08726 0.08514 0.22364
 C154 C 0.05373 0.17354 1.04587
 C155 C 0.04667 0.18473 1.06795
 C156 C 0.05789 0.20631 1.07639
 C157 C 0.07505 0.21733 1.06107
 C158 C 0.08328 0.20555 1.03990
 C159 C 0.07254 0.18368 1.03236
 H160 H 0.03339 0.17566 1.07912
 H161 H 0.08311 0.23459 1.06625
 H162 H 0.07935 0.17411 1.01640
 C163 C 0.16320 0.69747 0.70909
 C164 C 0.17495 0.67596 0.71616
 C165 C 0.19254 0.66577 0.70116
 C166 C 0.19955 0.67788 0.67969
 C167 C 0.18801 0.69924 0.67233
 C168 C 0.16963 0.70880 0.68682
 H169 H 0.16963 0.66645 0.73275
 H170 H 0.21307 0.66991 0.66800
 H171 H 0.15994 0.72461 0.68038
 C172 C 1.19911 0.17473 0.19834
 C173 C 1.18233 0.18933 0.21048
 C174 C 1.17374 0.21071 0.19948
 C175 C 1.18311 0.21812 0.17673
 C176 C 1.19996 0.20372 0.16445
 C177 C 1.20822 0.18226 0.17554
 H178 H 1.17450 0.18291 0.22751
 H179 H 1.17599 0.23414 0.16769
 H180 H 1.22050 0.17059 0.16569
 C181 C 0.66920 1.04835 0.54338
 C182 C 0.68184 1.06890 0.53475
 C183 C 0.70189 1.07757 0.54724
 C184 C 0.71126 1.06347 0.56640
 C185 C 0.70025 1.04165 0.57385
 C186 C 0.67926 1.03411 0.56219
 H187 H 0.67463 1.07957 0.51977
 H188 H 0.72671 1.07004 0.57623
 H189 H 0.66986 1.01824 0.56918
 C190 C 0.55197 0.54653 0.16875
 C191 C 0.57288 0.53777 0.17959
 C192 C 0.58178 0.54866 0.20104
 C193 C 0.56898 0.56765 0.21226
 C194 C 0.54867 0.57723 0.20115
 C195 C 0.54038 0.56671 0.17931
 H196 H 0.58267 0.52312 0.17086
 H197 H 0.57589 0.57624 0.22870
 H198 H 0.52508 0.57451 0.17028
 C199 C 0.65935 0.69794 0.20999
 C200 C 0.67082 0.67636 0.21726
 C201 C 0.69132 0.66851 0.20498
 C202 C 0.70087 0.68277 0.18599
 C203 C 0.68941 0.70408 0.17826
 C204 C 0.66850 0.71143 0.19010
 H205 H 0.66333 0.66523 0.23182
 H206 H 0.71647 0.67645 0.17623
 H207 H 0.65913 0.72742 0.18358
 C208 C 0.16897 0.04420 1.04431
 C209 C 0.17929 0.06445 1.03232
 C210 C 0.19580 0.07954 1.04437
 C211 C 0.20463 0.07219 1.06724
 C212 C 0.19575 0.05116 1.07882
 C213 C 0.17797 0.03739 1.06742
 H214 H 0.17244 0.07039 1.01479
 H215 H 0.21742 0.08355 1.07676
 H216 H 0.17059 0.02174 1.07703
 C217 C 0.58748 0.20163 0.54381
 C218 C 0.57924 0.21281 0.56538
 C219 C 0.55879 0.20397 0.57720
 C220 C 0.54583 0.18484 0.56651
 C221 C 0.55413 0.17336 0.54511
 C222 C 0.57442 0.18243 0.53329
 H223 H 0.58994 0.22673 0.57424
 H224 H 0.53085 0.17704 0.57632
 H225 H 0.58154 0.17282 0.51751
 C226 C 0.08609 0.54523 0.70216
 C227 C 0.07681 0.53748 0.67966
 C228 C 0.05714 0.54927 0.66950
 C229 C 0.04601 0.56815 0.68254
 C230 C 0.05492 0.57578 0.70531
 C231 C 0.07508 0.56437 0.71494
 H232 H 0.08575 0.52326 0.66932
 H233 H 0.03119 0.57772 0.67443
 H234 H 0.08263 0.57091 0.73200
 C235 C 0.66554 0.55207 0.04667
 C236 C 0.67521 0.53929 0.06652
 C237 C 0.69406 0.54920 0.07990
 C238 C 0.70442 0.57125 0.07240
 C239 C 0.69453 0.58474 0.05311
 C240 C 0.67525 0.57491 0.04005
 H241 H 0.66680 0.52259 0.07291
 H242 H 0.71885 0.57900 0.08299
 H243 H 0.66715 0.58551 0.02555
 C244 C 0.05437 0.70027 0.58999
 C245 C 0.04238 0.68128 0.57791
 C246 C 0.04839 0.67498 0.55372
 C247 C 0.06654 0.68788 0.54169
 C248 C 0.07893 0.70660 0.55371
 C249 C 0.07259 0.71291 0.57781
 H250 H 0.02897 0.67085 0.58766
 H251 H 0.07170 0.68266 0.52323
 H252 H 0.08238 0.72706 0.58740
 C253 C 0.55938 1.04907 0.66559
 C254 C 0.55138 1.07064 0.67690
 C255 C 0.56059 1.07807 0.69969
 C256 C 0.57638 1.06250 0.71205
 C257 C 0.58496 1.04124 0.70071
 C258 C 0.57580 1.03431 0.67788
 H259 H 0.53956 1.08267 0.66698
 H260 H 0.58361 1.06805 0.72958
 H261 H 0.58240 1.01789 0.66905
 C262 C 0.44857 0.33053 0.94725
 C263 C 0.46179 0.31768 0.92948
 C264 C 0.45414 0.29482 0.92081
 C265 C 0.43375 0.28408 0.93095
 C266 C 0.42017 0.29662 0.94842
 C267 C 0.42804 0.31937 0.95716
 H268 H 0.47674 0.32652 0.92056
 H269 H 0.42720 0.26693 0.92358
 H270 H 0.41747 0.32893 0.97074
 C271 C 0.93946 0.45386 0.33157
 C272 C 0.92215 0.46483 0.31667
 C273 C 0.91526 0.45403 0.29437
 C274 C 0.92710 0.43306 0.28617
 C275 C 0.94498 0.42252 0.30029
 C276 C 0.95093 0.43270 0.32303
 H277 H 0.91319 0.48117 0.32299
 H278 H 0.92198 0.42450 0.26902
 H279 H 0.96413 0.42376 0.33426
 C280 C 0.30403 0.95825 0.41993
 C281 C 0.29207 0.93873 0.43163
 C282 C 0.30172 0.92740 0.45237
 C283 C 0.32326 0.93570 0.46190
 C284 C 0.33565 0.95468 0.45037
 C285 C 0.32611 0.96588 0.42948
 H286 H 0.27625 0.93093 0.42349
 H287 H 0.33123 0.92621 0.47725
 H288 H 0.33609 0.98037 0.42059
 O289 O 0.25713 0.46873 0.81005
 O290 O 0.21806 0.46441 0.80263
 O291 O 0.28764 0.43484 0.74391
 O292 O 0.28492 0.44168 0.70319
 O293 O 0.31785 0.50067 0.77256
 O294 O 0.30715 0.54259 0.77085
 O295 O 0.21870 0.49746 0.68189
 O296 O 0.22692 0.45634 0.68774
 O297 O 0.19025 0.52618 0.74500
 O298 O 0.20052 0.52416 0.78957
 O299 O 0.24557 0.56109 0.71199
 O300 O 0.29017 0.55512 0.71253
 O301 O 0.24670 0.52751 0.67952
 O302 O 0.28930 0.53025 0.68565
 O303 O 0.21991 0.56035 0.74430
 O304 O 0.22464 0.55129 0.78863
 O305 O 0.18984 0.49611 0.71610
 O306 O 0.20098 0.45246 0.72278
 O307 O 0.28514 0.49889 0.80821
 O308 O 0.28115 0.54209 0.79832
 O309 O 0.31804 0.47055 0.74367
 O310 O 0.30725 0.47447 0.69958
 O311 O 0.26219 0.43402 0.77644
 O312 O 0.21748 0.43966 0.76998
 Zr313 Zr 0.24354 0.46742 0.77426
 O314 O 0.21870 0.48794 0.75428
 Zr315 Zr 0.28343 0.47020 0.72940
 O316 O 0.25992 0.48999 0.70699
 Zr317 Zr 0.28260 0.51336 0.77237
 O318 O 0.25967 0.53543 0.75158
 Zr319 Zr 0.22461 0.48212 0.71666
 O320 O 0.24816 0.45953 0.73671
 Zr321 Zr 0.22454 0.52549 0.75962
 O322 O 0.24738 0.50503 0.78217
 Zr323 Zr 0.26375 0.52755 0.71400
 O324 O 0.28922 0.50790 0.73463
 O325 O 0.27864 0.47613 0.76671
 O326 O 0.22854 0.51965 0.72208
 C327 C 0.27339 0.48214 0.81967
 C328 C 0.27859 0.42460 0.76298
 C329 C 0.32810 0.48355 0.76033
 C330 C 0.22938 0.51497 0.67059
 C331 C 0.17995 0.51339 0.72840
 C332 C 0.22924 0.57056 0.72541
 H333 H 0.20247 0.48294 0.75910
 H334 H 0.26284 0.55284 0.75523
 H335 H 0.28968 0.46686 0.77716
 H336 H 0.26294 0.48608 0.68954
 H337 H 0.23350 0.44120 0.69496
 H338 H 0.27341 0.44568 0.69018
 H339 H 0.23768 0.56304 0.78551
 H340 H 0.26630 0.53978 0.80779
 H341 H 0.18939 0.45222 0.70914
 H342 H 0.22134 0.42583 0.78102
 H343 H 0.28692 0.56696 0.72586
 H344 H 0.31235 0.54376 0.75352
 H345 H 0.21246 0.48122 0.80581
 H346 H 0.18920 0.51062 0.78663
 H347 H 0.31650 0.48958 0.70271
 H348 H 0.29113 0.51373 0.67856
 O349 O 0.18634 0.03187 0.25212
 O350 O 0.19639 0.02974 0.29397
 O351 O 0.24506 0.07030 0.22013
 O352 O 0.28476 0.06552 0.21821
 O353 O 0.21811 0.00499 0.18592
 O354 O 0.22289 -0.03788 0.19438
 O355 O 0.31467 0.00624 0.27823
 O356 O 0.30583 0.04746 0.27490
 O357 O 0.25598 -0.02616 0.31434
 O358 O 0.21523 -0.03045 0.30741
 O359 O 0.28523 -0.05741 0.24941
 O360 O 0.27960 -0.04753 0.20429
 O361 O 0.31523 -0.02153 0.24707
 O362 O 0.30480 -0.02196 0.20459
 O363 O 0.25834 -0.05929 0.28049
 O364 O 0.21310 -0.05226 0.27828
 O365 O 0.28451 0.00329 0.31254
 O366 O 0.27494 0.04687 0.30527
 O367 O 0.18703 0.00313 0.22174
 O368 O 0.19787 -0.03973 0.22321
 O369 O 0.24399 0.03706 0.18545
 O370 O 0.28739 0.03524 0.19204
 O371 O 0.21725 0.06787 0.25038
 O372 O 0.22577 0.05809 0.29417
 Zr373 Zr 0.22152 0.03251 0.26516
 O374 O 0.24436 0.01157 0.28710
 Zr375 Zr 0.26101 0.03554 0.21978
 O376 O 0.28568 0.01509 0.24005
 Zr377 Zr 0.22197 -0.01008 0.22134
 O378 O 0.24503 -0.03265 0.24148
 Zr379 Zr 0.27975 0.01968 0.27787
 O380 O 0.25689 0.04277 0.25754
 Zr381 Zr 0.24052 -0.02572 0.27913
 O382 O 0.21549 -0.00509 0.25916
 Zr383 Zr 0.28020 -0.02246 0.23393
 O384 O 0.25717 -0.00187 0.21130
 O385 O 0.22604 0.02710 0.22775
 O386 O 0.27595 -0.01778 0.27167
 C387 C 0.17650 0.01945 0.23479
 C388 C 0.22784 0.07919 0.23280
 C389 C 0.22784 0.02368 0.17562
 C390 C 0.32523 -0.00964 0.26459
 C391 C 0.27300 -0.01366 0.32383
 C392 C 0.27530 -0.06829 0.26768
 H393 H 0.24096 0.01517 0.30456
 H394 H 0.24194 -0.04998 0.23739
 H395 H 0.21485 0.03703 0.21808
 H396 H 0.30190 0.02022 0.23540
 H397 H 0.29742 0.06256 0.27001
 H398 H 0.29868 0.06122 0.22827
 H399 H 0.21752 -0.06493 0.26615
 H400 H 0.19017 -0.03887 0.23954
 H401 H 0.28908 0.04684 0.31603
 H402 H 0.21276 0.07024 0.29340
 H403 H 0.26762 -0.06025 0.20803
 H404 H 0.23813 -0.03596 0.18551
 H405 H 0.18968 0.01303 0.29314
 H406 H 0.21124 -0.01392 0.31342
 H407 H 0.28425 0.02077 0.18157
 H408 H 0.31000 -0.00480 0.20256
 O409 O 0.42663 0.74418 0.28045
 O410 O 0.43521 0.70236 0.27761
 O411 O 0.48485 0.77412 0.32041
 O412 O 0.52473 0.77500 0.31691
 O413 O 0.46150 0.80923 0.25390
 O414 O 0.46715 0.80059 0.21145
 O415 O 0.55418 0.71226 0.25827
 O416 O 0.54444 0.71682 0.29929
 O417 O 0.49797 0.68121 0.22171
 O418 O 0.45488 0.68842 0.22055
 O419 O 0.52859 0.74299 0.19396
 O420 O 0.52461 0.78842 0.20385
 O421 O 0.55714 0.74346 0.23068
 O422 O 0.54920 0.78636 0.23013
 O423 O 0.49910 0.71481 0.18990
 O424 O 0.45530 0.71615 0.19622
 O425 O 0.52311 0.68032 0.25426
 O426 O 0.51194 0.68822 0.29810
 O427 O 0.42935 0.77459 0.25189
 O428 O 0.44152 0.77246 0.20882
 O429 O 0.48621 0.80884 0.28684
 O430 O 0.52962 0.80023 0.28654
 O431 O 0.45607 0.74502 0.31720
 O432 O 0.46333 0.70109 0.30766
 Zr433 Zr 0.46121 0.73003 0.28182
 O434 O 0.48385 0.70718 0.26138
 Zr435 Zr 0.50208 0.77384 0.28610
 O436 O 0.52672 0.75241 0.26654
 Zr437 Zr 0.46464 0.77374 0.23925
 O438 O 0.48781 0.75290 0.21734
 Zr439 Zr 0.51907 0.71497 0.27082
 O440 O 0.49636 0.73634 0.29326
 Zr441 Zr 0.48151 0.71559 0.22390
 O442 O 0.45661 0.73643 0.24396
 Zr443 Zr 0.52292 0.75875 0.22877
 O444 O 0.49994 0.78234 0.24851
 O445 O 0.46721 0.76719 0.27662
 O446 O 0.51683 0.72147 0.23320
 C447 C 0.41792 0.76200 0.26804
 C448 C 0.46687 0.76222 0.32882
 C449 C 0.47090 0.81923 0.27287
 C450 C 0.56579 0.72534 0.24273
 C451 C 0.51350 0.67067 0.23519
 C452 C 0.51738 0.72638 0.18198
 H453 H 0.47992 0.68986 0.26477
 H454 H 0.48550 0.75730 0.19992
 H455 H 0.45611 0.77734 0.28627
 H456 H 0.54293 0.75626 0.27222
 H457 H 0.53581 0.72211 0.31423
 H458 H 0.53791 0.76360 0.31355
 H459 H 0.45826 0.73067 0.18582
 H460 H 0.43269 0.75682 0.21000
 H461 H 0.52555 0.67679 0.29849
 H462 H 0.44961 0.70220 0.31904
 H463 H 0.51321 0.78514 0.19049
 H464 H 0.48295 0.80829 0.21320
 H465 H 0.43071 0.70234 0.26008
 H466 H 0.45588 0.67755 0.23501
 H467 H 0.52743 0.81073 0.27192
 H468 H 0.55373 0.78825 0.24752
 O469 O 0.00417 0.67710 0.72966
 O470 O -0.03586 0.68346 0.72742
 O471 O 0.03467 0.74288 0.69994
 O472 O 0.03158 0.78334 0.70727
 O473 O 0.06232 0.71324 0.76590
 O474 O 0.04967 0.71375 0.80786
 O475 O -0.03511 0.80438 0.76024
 O476 O -0.02692 0.79779 0.71934
 O477 O -0.06672 0.73968 0.78692
 O478 O -0.05619 0.69603 0.78612
 O479 O -0.01170 0.77181 0.82598
 O480 O 0.03193 0.77233 0.82180
 O481 O -0.01076 0.80454 0.79355
 O482 O 0.03346 0.79841 0.79574
 O483 O -0.03852 0.74088 0.82313
 O484 O -0.03268 0.69626 0.81343
 O485 O -0.06451 0.77103 0.75959
 O486 O -0.05335 0.76345 0.71573
 O487 O 0.03039 0.67785 0.76144
 O488 O 0.02395 0.68578 0.80498
 O489 O 0.06411 0.74403 0.73786
 O490 O 0.05207 0.78712 0.74054
 O491 O 0.00749 0.71216 0.69657
 O492 O -0.03648 0.71625 0.70222
 Zr493 Zr -0.01081 0.71220 0.73031
 O494 O -0.03633 0.73183 0.75042
 Zr495 Zr 0.02911 0.75688 0.73547
 O496 O 0.00496 0.77877 0.75505
 Zr497 Zr 0.02658 0.71288 0.77743
 O498 O 0.00279 0.73314 0.79938
 Zr499 Zr -0.02991 0.76935 0.74555
 O500 O -0.00567 0.74975 0.72339
 Zr501 Zr -0.03206 0.72567 0.78816
 O502 O -0.00840 0.70348 0.76791
 Zr503 Zr 0.00727 0.77075 0.79266
 O504 O 0.03341 0.75057 0.77330
 O505 O 0.02409 0.71956 0.74009
 O506 O -0.02759 0.76314 0.78322
 C507 C 0.02005 0.66724 0.74325
 C508 C 0.02455 0.72537 0.68818
 C509 C 0.07359 0.72677 0.75040
 C510 C -0.02637 0.81437 0.77953
 C511 C -0.07567 0.75796 0.77545
 C512 C -0.02924 0.75921 0.83434
 H513 H -0.05239 0.72727 0.74477
 H514 H 0.00522 0.72909 0.81686
 H515 H 0.03561 0.70975 0.73056
 H516 H 0.00818 0.79622 0.75159
 H517 H -0.02032 0.79033 0.70423
 H518 H 0.01924 0.79570 0.71059
 H519 H -0.02055 0.69954 0.82608
 H520 H 0.00899 0.67679 0.80193
 H521 H -0.06511 0.77689 0.71575
 H522 H -0.03295 0.70450 0.68881
 H523 H 0.03016 0.75715 0.83152
 H524 H 0.05607 0.73061 0.80870
 H525 H -0.03862 0.67743 0.74429
 H526 H -0.06422 0.69702 0.77006
 H527 H 0.05815 0.78591 0.75749
 H528 H 0.03118 0.81009 0.78210
 O529 O 0.06472 0.03128 -0.00198
 O530 O 0.05451 0.02992 -0.04293
 O531 O 0.00476 0.06649 0.03241
 O532 O -0.03467 0.06044 0.03375
 O533 O 0.03329 0.00147 0.06444
 O534 O 0.03093 -0.04141 0.05398
 O535 O -0.06283 0.00151 -0.02846
 O536 O -0.05563 0.04320 -0.02247
 O537 O -0.00827 -0.03020 -0.06288
 O538 O 0.03639 -0.02741 -0.05942
 O539 O -0.02938 -0.06258 0.00099
 O540 O -0.02796 -0.05236 0.04476
 O541 O -0.06096 -0.03030 -0.00153
 O542 O -0.05290 -0.02615 0.04424
 O543 O -0.00273 -0.06308 -0.03032
 O544 O 0.03994 -0.05240 -0.03315
 O545 O -0.03328 0.00211 -0.06220
 O546 O -0.02453 0.04534 -0.05304
 O547 O 0.06484 0.00194 0.02771
 O548 O 0.05567 -0.04081 0.02614
 O549 O 0.00553 0.03150 0.06606
 O550 O -0.03705 0.02888 0.05862
 O551 O 0.03180 0.06640 0.00124
 O552 O 0.02447 0.05691 -0.04288
 Zr553 Zr 0.02921 0.03109 -0.01423
 O554 O 0.00674 0.00998 -0.03683
 Zr555 Zr -0.01032 0.03120 0.03133
 O556 O -0.03450 0.01045 0.01049
 Zr557 Zr 0.03033 -0.01246 0.02834
 O558 O 0.00801 -0.03533 0.00760
 Zr559 Zr -0.02862 0.01676 -0.02697
 O560 O -0.00635 0.03990 -0.00609
 Zr561 Zr 0.01164 -0.02740 -0.03007
 O562 O 0.03620 -0.00647 -0.00939
 Zr563 Zr -0.02756 -0.02698 0.01545
 O564 O -0.00508 -0.00623 0.03861
 O565 O 0.02509 0.02470 0.02319
 O566 O -0.02365 -0.02070 -0.02195
 C567 C 0.07510 0.01839 0.01457
 C568 C 0.02071 0.07684 0.01903
 C569 C 0.02204 0.01863 0.07570
 C570 C -0.07147 -0.01770 -0.01815
 C571 C -0.02490 -0.01714 -0.07235
 C572 C -0.01844 -0.07341 -0.01665
 H573 H 0.00956 0.01415 -0.05426
 H574 H 0.01202 -0.05249 0.01148
 H575 H 0.03596 0.03478 0.03326
 H576 H -0.05096 0.01463 0.01504
 H577 H -0.04766 0.05859 -0.01749
 H578 H -0.04875 0.05577 0.02407
 H579 H 0.04155 -0.06026 -0.01693
 H580 H 0.06398 -0.03891 0.01021
 H581 H -0.03886 0.04561 -0.06352
 H582 H 0.03698 0.06966 -0.04168
 H583 H -0.01408 -0.06318 0.04268
 H584 H 0.01517 -0.04150 0.06196
 H585 H 0.05720 0.01240 -0.04646
 H586 H 0.03174 -0.01459 -0.07125
 H587 H -0.03544 0.01266 0.06648
 H588 H -0.06479 -0.01349 0.04035
 O589 O 0.05959 0.53848 0.49564
 O590 O 0.04840 0.53576 0.45454
 O591 O -0.00031 0.57105 0.53156
 O592 O -0.03833 0.56230 0.53955
 O593 O 0.03424 0.50649 0.56079
 O594 O 0.03021 0.46341 0.55126
 O595 O -0.06759 0.50495 0.47288
 O596 O -0.06189 0.54670 0.48067
 O597 O -0.01289 0.47747 0.43506
 O598 O 0.03086 0.47774 0.43863
 O599 O -0.03256 0.44170 0.50187
 O600 O -0.03012 0.45030 0.54365
 O601 O -0.06456 0.47417 0.50086
 O602 O -0.05272 0.47905 0.54711
 O603 O -0.01070 0.44357 0.46696
 O604 O 0.03345 0.45144 0.46431
 O605 O -0.03956 0.50824 0.43846
 O606 O -0.03148 0.55133 0.44919
 O607 O 0.06291 0.50655 0.52229
 O608 O 0.05326 0.46378 0.52109
 O609 O 0.00561 0.53541 0.56535
 O610 O -0.03862 0.53038 0.56018
 O611 O 0.02619 0.57166 0.49995
 O612 O 0.01779 0.56277 0.45617
 Zr613 Zr 0.02397 0.53655 0.48413
 O614 O 0.00085 0.51546 0.46239
 Zr615 Zr -0.01307 0.53489 0.53196
 O616 O -0.03806 0.51458 0.51177
 Zr617 Zr 0.02832 0.49220 0.52544
 O618 O 0.00489 0.46945 0.50585
 Zr619 Zr -0.03407 0.52160 0.47412
 O620 O -0.01128 0.54455 0.49452
 Zr621 Zr 0.00647 0.47798 0.46824
 O622 O 0.03190 0.49904 0.48763
 Zr623 Zr -0.03027 0.47732 0.51591
 O624 O -0.00655 0.49754 0.53816
 O625 O 0.02193 0.52935 0.52149
 O626 O -0.02838 0.48419 0.47839
 C627 C 0.07154 0.52487 0.51039
 C628 C 0.01509 0.58185 0.51788
 C629 C 0.02353 0.52325 0.57306
 C630 C -0.07563 0.48599 0.48408
 C631 C -0.03015 0.49042 0.42673
 C632 C -0.02509 0.43251 0.48168
 H633 H 0.00299 0.52008 0.44497
 H634 H 0.00900 0.45219 0.50912
 H635 H 0.03304 0.53979 0.53085
 H636 H -0.05435 0.51845 0.51727
 H637 H -0.05433 0.56234 0.48548
 H638 H -0.05031 0.56128 0.52642
 H639 H 0.03161 0.43946 0.47779
 H640 H 0.05767 0.46368 0.50350
 H641 H -0.04619 0.55168 0.43929
 H642 H 0.03043 0.57542 0.45687
 H643 H -0.01397 0.44334 0.54392
 H644 H 0.01634 0.46518 0.56230
 H645 H 0.05464 0.51888 0.45364
 H646 H 0.02897 0.49329 0.42959
 H647 H -0.03376 0.51603 0.57001
 H648 H -0.06677 0.48893 0.54283
 O649 O 0.56475 0.03513 0.49233
 O650 O 0.55366 0.03241 0.45150
 O651 O 0.50560 0.06638 0.52973
 O652 O 0.46653 0.05902 0.53270
 O653 O 0.53819 0.00265 0.55862
 O654 O 0.53657 -0.04006 0.54861
 O655 O 0.43746 0.00133 0.47128
 O656 O 0.44431 0.04231 0.47564
 O657 O 0.49366 -0.02897 0.43270
 O658 O 0.53630 -0.02713 0.43515
 O659 O 0.47384 -0.06308 0.49841
 O660 O 0.47613 -0.05419 0.54076
 O661 O 0.44109 -0.03070 0.49776
 O662 O 0.45255 -0.02677 0.54356
 O663 O 0.49868 -0.06255 0.46558
 O664 O 0.54230 -0.05045 0.46261
 O665 O 0.46603 0.00100 0.43559
 O666 O 0.47409 0.04489 0.44428
 O667 O 0.56773 0.00489 0.52085
 O668 O 0.55973 -0.03881 0.51856
 O669 O 0.50953 0.03157 0.56228
 O670 O 0.46603 0.02670 0.55663
 O671 O 0.53078 0.06799 0.49696
 O672 O 0.52234 0.05848 0.45284
 Zr673 Zr 0.52913 0.03267 0.48101
 O674 O 0.50673 0.01068 0.45930
 Zr675 Zr 0.49168 0.03074 0.52845
 O676 O 0.46737 0.00966 0.50824
 Zr677 Zr 0.53377 -0.01131 0.52286
 O678 O 0.51098 -0.03478 0.50334
 Zr679 Zr 0.47162 0.01631 0.47056
 O680 O 0.49373 0.04007 0.49094
 Zr681 Zr 0.51300 -0.02666 0.46569
 O682 O 0.53774 -0.00468 0.48503
 Zr683 Zr 0.47550 -0.02749 0.51270
 O684 O 0.49861 -0.00650 0.53501
 O685 O 0.52678 0.02556 0.51836
 O686 O 0.47770 -0.02110 0.47512
 C687 C 0.57629 0.02310 0.50866
 C688 C 0.52091 0.07738 0.51612
 C689 C 0.52750 0.01975 0.57045
 C690 C 0.42944 -0.01781 0.48216
 C691 C 0.47594 -0.01687 0.42427
 C692 C 0.48393 -0.07347 0.48000
 H693 H 0.50881 0.01501 0.44180
 H694 H 0.51548 -0.05185 0.50699
 H695 H 0.53766 0.03596 0.52797
 H696 H 0.45103 0.01340 0.51360
 H697 H 0.45209 0.05768 0.48096
 H698 H 0.45265 0.05456 0.52261
 H699 H 0.54284 -0.06019 0.47787
 H700 H 0.56743 -0.03600 0.50244
 H701 H 0.45965 0.04435 0.43396
 H702 H 0.53445 0.07165 0.45374
 H703 H 0.49205 -0.06168 0.54042
 H704 H 0.52201 -0.03953 0.55880
 H705 H 0.55981 0.01551 0.45031
 H706 H 0.53532 -0.01100 0.42702
 H707 H 0.47001 0.01159 0.56571
 H708 H 0.43947 -0.01531 0.54002
 O709 O 0.49823 0.47078 -0.06871
 O710 O 0.53881 0.47287 -0.06103
 O711 O 0.46786 0.43690 -0.00605
 O712 O 0.46848 0.44261 0.03498
 O713 O 0.43738 0.50239 -0.03429
 O714 O 0.44671 0.54435 -0.03101
 O715 O 0.53253 0.49980 0.06080
 O716 O 0.52679 0.45889 0.05327
 O717 O 0.56281 0.53201 -0.00070
 O718 O 0.55493 0.53130 -0.04454
 O719 O 0.50474 0.56344 0.03147
 O720 O 0.46094 0.55599 0.02904
 O721 O 0.50341 0.52852 0.06298
 O722 O 0.46086 0.53003 0.05446
 O723 O 0.53172 0.56485 0.00036
 O724 O 0.52863 0.55623 -0.04511
 O725 O 0.56299 0.50136 0.02757
 O726 O 0.55350 0.45720 0.01894
 O727 O 0.47206 0.50251 -0.06857
 O728 O 0.47344 0.54569 -0.05704
 O729 O 0.43625 0.47221 -0.00557
 O730 O 0.44591 0.47433 0.03901
 O731 O 0.49611 0.43676 -0.03601
 O732 O 0.53935 0.44489 -0.02959
 Zr733 Zr 0.51243 0.47162 -0.03330
 O734 O 0.53581 0.49269 -0.01184
 Zr735 Zr 0.47059 0.47191 0.00976
 O736 O 0.49279 0.49174 0.03365
 Zr737 Zr 0.47215 0.51611 -0.03211
 O738 O 0.49336 0.53845 -0.00955
 Zr739 Zr 0.52874 0.48567 0.02527
 O740 O 0.50650 0.46277 0.00382
 Zr741 Zr 0.52903 0.53021 -0.01634
 O742 O 0.50788 0.50931 -0.04050
 Zr743 Zr 0.48800 0.52928 0.02761
 O744 O 0.46402 0.50946 0.00515
 O745 O 0.47679 0.47884 -0.02710
 O746 O 0.52378 0.52317 0.02086
 C747 C 0.48280 0.48449 -0.07909
 C748 C 0.47887 0.42677 -0.02406
 C749 C 0.42690 0.48481 -0.02295
 C750 C 0.52066 0.51626 0.07228
 C751 C 0.57283 0.51930 0.01604
 C752 C 0.52118 0.57408 0.01909
 H753 H 0.55235 0.48844 -0.01607
 H754 H 0.48979 0.55582 -0.01287
 H755 H 0.46642 0.46912 -0.03799
 H756 H 0.48920 0.48709 0.05081
 H757 H 0.52073 0.44377 0.04546
 H758 H 0.48060 0.44571 0.04765
 H759 H 0.51627 0.56845 -0.04127
 H760 H 0.48906 0.54485 -0.06527
 H761 H 0.56513 0.45748 0.03254
 H762 H 0.53750 0.43265 -0.04290
 H763 H 0.46362 0.56757 0.01535
 H764 H 0.44023 0.54446 -0.01410
 H765 H 0.53898 0.48980 -0.06746
 H766 H 0.56392 0.51582 -0.04391
 H767 H 0.43627 0.48914 0.03608
 H768 H 0.45989 0.51349 0.06167
 O769 O 0.76242 0.27730 0.43382
 O770 O 0.72153 0.27194 0.43788
 O771 O 0.78563 0.31186 0.49843
 O772 O 0.78450 0.30582 0.53891
 O773 O 0.82154 0.24678 0.47229
 O774 O 0.81228 0.20432 0.47391
 O775 O 0.72015 0.24666 0.56090
 O776 O 0.72498 0.28774 0.55360
 O777 O 0.69443 0.21375 0.49772
 O778 O 0.70562 0.21388 0.45448
 O779 O 0.75281 0.18359 0.53323
 O780 O 0.79446 0.19207 0.53500
 O781 O 0.74983 0.21880 0.56452
 O782 O 0.79445 0.22102 0.55751
 O783 O 0.72677 0.18176 0.50160
 O784 O 0.73228 0.18952 0.45625
 O785 O 0.69172 0.24470 0.52552
 O786 O 0.70068 0.28869 0.51749
 O787 O 0.79008 0.24701 0.43568
 O788 O 0.78762 0.20359 0.44586
 O789 O 0.81930 0.27723 0.50065
 O790 O 0.80640 0.27493 0.54464
 O791 O 0.75871 0.31110 0.46742
 O792 O 0.71619 0.29982 0.46864
 Zr793 Zr 0.74512 0.27511 0.46790
 O794 O 0.72118 0.25340 0.48815
 Zr795 Zr 0.78403 0.27654 0.51358
 O796 O 0.76109 0.25605 0.53617
 Zr797 Zr 0.78688 0.23250 0.47160
 O798 O 0.76502 0.20944 0.49300
 Zr799 Zr 0.72565 0.26091 0.52557
 O800 O 0.74835 0.28433 0.50530
 Zr801 Zr 0.72942 0.21616 0.48433
 O802 O 0.75144 0.23765 0.46125
 Zr803 Zr 0.76776 0.21876 0.53039
 O804 O 0.79237 0.23932 0.50927
 O805 O 0.78062 0.26960 0.47639
 O806 O 0.73217 0.22357 0.52169
 C807 C 0.77933 0.26456 0.42455
 C808 C 0.77429 0.32196 0.48073
 C809 C 0.83070 0.26430 0.48481
 C810 C 0.73142 0.23005 0.57273
 C811 C 0.68311 0.22626 0.51390
 C812 C 0.73671 0.17268 0.52072
 H813 H 0.70481 0.25702 0.48286
 H814 H 0.76939 0.19220 0.49004
 H815 H 0.79143 0.28005 0.46658
 H816 H 0.76339 0.26093 0.55348
 H817 H 0.73087 0.30311 0.54612
 H818 H 0.77066 0.30346 0.54984
 H819 H 0.74522 0.17821 0.46071
 H820 H 0.77220 0.20392 0.43730
 H821 H 0.68818 0.28827 0.53032
 H822 H 0.71834 0.31195 0.45526
 H823 H 0.79508 0.18216 0.51982
 H824 H 0.81727 0.20380 0.49128
 H825 H 0.72326 0.25518 0.43126
 H826 H 0.69677 0.22945 0.45381
 H827 H 0.81667 0.26044 0.54251
 H828 H 0.79033 0.23459 0.56874
 O829 O 0.68283 0.72344 0.00853
 O830 O 0.69272 0.72714 -0.03337
 O831 O 0.74290 0.69396 0.04283
 O832 O 0.78473 0.70498 0.04353
 O833 O 0.70954 0.75690 0.07340
 O834 O 0.71031 0.79919 0.06418
 O835 O 0.80820 0.76282 -0.01697
 O836 O 0.80342 0.72163 -0.01404
 O837 O 0.74698 0.78879 -0.05476
 O838 O 0.70550 0.78729 -0.04784
 O839 O 0.77508 0.82250 0.00744
 O840 O 0.76696 0.81656 0.05299
 O841 O 0.80592 0.79031 0.01419
 O842 O 0.79241 0.79115 0.05710
 O843 O 0.74729 0.82193 -0.02265
 O844 O 0.70235 0.81163 -0.01972
 O845 O 0.77862 0.76351 -0.05157
 O846 O 0.77271 0.71806 -0.04401
 O847 O 0.67921 0.75412 0.03673
 O848 O 0.68659 0.79818 0.03424
 O849 O 0.74019 0.73007 0.07642
 O850 O 0.78226 0.73135 0.06915
 O851 O 0.71695 0.69196 0.01106
 O852 O 0.72484 0.70166 -0.03288
 Zr853 Zr 0.71779 0.72729 -0.00453
 O854 O 0.73887 0.75016 -0.02686
 Zr855 Zr 0.75628 0.72997 0.04137
 O856 O 0.77930 0.75215 0.02072
 Zr857 Zr 0.71297 0.77103 0.03774
 O858 O 0.73454 0.79547 0.01760
 Zr859 Zr 0.77457 0.74606 -0.01708
 O860 O 0.75373 0.72108 0.00379
 Zr861 Zr 0.73132 0.78710 -0.01981
 O862 O 0.70794 0.76421 0.00017
 Zr863 Zr 0.77035 0.78902 0.02584
 O864 O 0.74862 0.76695 0.04856
 O865 O 0.72085 0.73428 0.03282
 O866 O 0.76708 0.78281 -0.01167
 C867 C 0.67109 0.73563 0.02470
 C868 C 0.72752 0.68262 0.02969
 C869 C 0.72209 0.74138 0.08526
 C870 C 0.81720 0.77962 -0.00323
 C871 C 0.76611 0.77939 -0.06322
 C872 C 0.76477 0.83180 -0.01129
 H873 H 0.73630 0.74584 -0.04429
 H874 H 0.72997 0.81255 0.02106
 H875 H 0.71064 0.72363 0.04304
 H876 H 0.79572 0.74848 0.02580
 H877 H 0.79676 0.70580 -0.00851
 H878 H 0.78388 0.69446 0.02879
 H879 H 0.70628 0.82552 -0.00880
 H880 H 0.67923 0.79578 0.01795
 H881 H 0.78635 0.72024 -0.05533
 H882 H 0.71278 0.68842 -0.03207
 H883 H 0.75528 0.82870 0.04722
 H884 H 0.72629 0.80100 0.07139
 H885 H 0.68421 0.74293 -0.03257
 H886 H 0.70584 0.77099 -0.05572
 H887 H 0.78142 0.74795 0.07628
 H888 H 0.80335 0.77705 0.05652
 O889 O 1.07154 0.23086 0.24886
 O890 O 1.06048 0.23147 0.29008
 O891 O 1.01250 0.19422 0.21419
 O892 O 0.97330 0.19978 0.21082
 O893 O 1.03984 0.26183 0.18252
 O894 O 1.03724 0.30363 0.19370
 O895 O 0.94230 0.25490 0.27324
 O896 O 0.95285 0.21352 0.26954
 O897 O 0.99921 0.28849 0.31104
 O898 O 1.04318 0.28780 0.30517
 O899 O 0.97273 0.32025 0.24945
 O900 O 0.97851 0.31394 0.20418
 O901 O 0.94310 0.28565 0.24508
 O902 O 0.95475 0.28652 0.20136
 O903 O 1.00111 0.32193 0.27898
 O904 O 1.04387 0.31465 0.28014
 O905 O 0.97066 0.25920 0.30763
 O906 O 0.98191 0.21538 0.30105
 O907 O 1.07146 0.26021 0.21908
 O908 O 1.06134 0.30333 0.22256
 O909 O 1.01447 0.22970 0.18052
 O910 O 0.97096 0.23126 0.18737
 O911 O 1.04057 0.19549 0.24412
 O912 O 1.03092 0.20291 0.28828
 Zr913 Zr 1.03597 0.22995 0.26080
 O914 O 1.01275 0.24996 0.28359
 Zr915 Zr 0.99725 0.22931 0.21491
 O916 O 0.97227 0.24878 0.23593
 Zr917 Zr 1.03671 0.27432 0.21896
 O918 O 1.01340 0.29605 0.23982
 Zr919 Zr 0.97758 0.24245 0.27351
 O920 O 1.00071 0.22031 0.25231
 Zr921 Zr 1.01724 0.28749 0.27718
 O922 O 1.04246 0.26771 0.25648
 Zr923 Zr 0.97816 0.28652 0.23162
 O924 O 1.00157 0.26701 0.20829
 O925 O 1.03223 0.23694 0.22348
 O926 O 0.98191 0.28001 0.26896
 C927 C 1.08175 0.24368 0.23203
 C928 C 1.02958 0.18478 0.22648
 C929 C 1.03040 0.24378 0.17107
 C930 C 0.93237 0.27219 0.26102
 C931 C 0.98109 0.27670 0.31913
 C932 C 0.98361 0.33096 0.26715
 H933 H 1.01548 0.24570 0.30099
 H934 H 1.01670 0.31350 0.23651
 H935 H 1.04338 0.22742 0.21323
 H936 H 0.95614 0.24383 0.23088
 H937 H 0.96200 0.19889 0.26457
 H938 H 0.96033 0.20243 0.22276
 H939 H 1.04419 0.32380 0.26450
 H940 H 1.06926 0.30110 0.23859
 H941 H 0.96752 0.21544 0.31155
 H942 H 1.04405 0.19093 0.28720
 H943 H 0.99098 0.32597 0.20841
 H944 H 1.02138 0.30391 0.18601
 H945 H 1.06567 0.24872 0.29142
 H946 H 1.04006 0.27377 0.31619
 H947 H 0.97372 0.24669 0.17828
 H948 H 0.94575 0.27096 0.20176
 O949 O 0.74487 1.05750 0.71161
 O950 O 0.78580 1.05357 0.71414
 O951 O 0.71947 0.99155 0.68055
 O952 O 0.72077 0.95140 0.68854
 O953 O 0.68705 1.01997 0.74753
 O954 O 0.69819 1.02065 0.78890
 O955 O 0.78532 0.93073 0.74226
 O956 O 0.78131 0.93916 0.70161
 O957 O 0.81534 0.99629 0.77339
 O958 O 0.80503 1.03871 0.77243
 O959 O 0.75961 0.96139 0.80794
 O960 O 0.71622 0.96057 0.80260
 O961 O 0.75964 0.92948 0.77436
 O962 O 0.71527 0.93588 0.77523
 O963 O 0.78505 0.99376 0.80750
 O964 O 0.77830 1.03896 0.79755
 O965 O 0.81490 0.96460 0.74628
 O966 O 0.80692 0.97366 0.70129
 O967 O 0.71833 1.05647 0.74333
 O968 O 0.72408 1.04813 0.78737
 O969 O 0.68764 0.99134 0.71718
 O970 O 0.69975 0.94761 0.72075
 O971 O 0.74686 1.02218 0.67853
 O972 O 0.78991 1.02175 0.68766
 Zr973 Zr 0.76201 1.02351 0.71385
 O974 O 0.78682 1.00401 0.73491
 Zr975 Zr 0.72264 0.97809 0.71654
 O976 O 0.74624 0.95627 0.73658
 Zr977 Zr 0.72245 1.02145 0.75929
 O978 O 0.74524 1.00095 0.78192
 Zr979 Zr 0.78147 0.96647 0.72917
 O980 O 0.75795 0.98593 0.70629
 Zr981 Zr 0.78043 1.00940 0.77251
 O982 O 0.75761 1.03160 0.75144
 Zr983 Zr 0.74176 0.96338 0.77416
 O984 O 0.71635 0.98371 0.75420
 O985 O 0.72678 1.01534 0.72189
 O986 O 0.77694 0.97188 0.76673
 C987 C 0.72827 1.06697 0.72475
 C988 C 0.73070 1.00854 0.66903
 C989 C 0.67706 1.00732 0.73060
 C990 C 0.77601 0.91998 0.76084
 C991 C 0.82498 0.97793 0.76268
 C992 C 0.77592 0.97469 0.81758
 H993 H 0.80313 1.00891 0.73026
 H994 H 0.74183 1.00457 0.79934
 H995 H 0.71556 1.02468 0.71164
 H996 H 0.74335 0.93891 0.73240
 H997 H 0.77495 0.94690 0.68659
 H998 H 0.73505 0.94113 0.69022
 H999 H 0.76668 1.03453 0.81045
 H1000 H 0.73818 1.05841 0.78393
 H1001 H 0.81938 0.96096 0.70240
 H1002 H 0.78710 1.03424 0.67479
 H1003 H 0.71788 0.97513 0.81324
 H1004 H 0.69399 1.00323 0.79134
 H1005 H 0.78513 1.06078 0.73080
 H1006 H 0.81207 1.03961 0.75581
 H1007 H 0.69074 0.95018 0.73615
 H1008 H 0.71798 0.92480 0.76113
 O1009 O 0.71223 0.49801 0.18703
 O1010 O 0.71536 0.45668 0.19608
 O1011 O 0.68610 0.53087 0.25291
 O1012 O 0.69618 0.53155 0.29272
 O1013 O 0.74478 0.56268 0.21544
 O1014 O 0.78611 0.55402 0.21336
 O1015 O 0.75534 0.46740 0.31328
 O1016 O 0.71496 0.47255 0.31064
 O1017 O 0.78020 0.43523 0.25026
 O1018 O 0.77418 0.44128 0.20618
 O1019 O 0.81397 0.49946 0.27268
 O1020 O 0.80497 0.54111 0.27495
 O1021 O 0.78519 0.49530 0.30905
 O1022 O 0.77955 0.54197 0.30094
 O1023 O 0.81129 0.46858 0.24486
 O1024 O 0.79720 0.46909 0.20098
 O1025 O 0.75338 0.43510 0.28159
 O1026 O 0.71006 0.44354 0.27764
 O1027 O 0.74157 0.52654 0.18297
 O1028 O 0.78442 0.52523 0.18839
 O1029 O 0.72057 0.56439 0.24886
 O1030 O 0.72715 0.55459 0.29307
 O1031 O 0.68313 0.50104 0.22394
 O1032 O 0.69229 0.45657 0.23075
 Zr1033 Zr 0.71711 0.48474 0.22282
 O1034 O 0.74031 0.46171 0.24225
 Zr1035 Zr 0.72173 0.52905 0.26439
 O1036 O 0.74403 0.50726 0.28626
 Zr1037 Zr 0.75916 0.52729 0.21709
 O1038 O 0.78363 0.50668 0.23727
 Zr1039 Zr 0.73764 0.46996 0.27971
 O1040 O 0.71277 0.49172 0.26059
 Zr1041 Zr 0.77578 0.46932 0.23295
 O1042 O 0.75244 0.48998 0.21087
 Zr1043 Zr 0.77924 0.51298 0.27512
 O1044 O 0.75716 0.53662 0.25459
 O1045 O 0.72408 0.52184 0.22708
 O1046 O 0.77315 0.47575 0.27046
 C1047 C 0.72352 0.51455 0.17492
 C1048 C 0.67462 0.51917 0.23622
 C1049 C 0.72983 0.57370 0.22936
 C1050 C 0.77416 0.47827 0.32081
 C1051 C 0.76986 0.42513 0.26872
 C1052 C 0.82297 0.48193 0.26006
 H1053 H 0.73607 0.44441 0.23916
 H1054 H 0.79975 0.51102 0.23154
 H1055 H 0.71331 0.53214 0.21728
 H1056 H 0.74163 0.51118 0.30381
 H1057 H 0.69928 0.47770 0.30442
 H1058 H 0.70043 0.51913 0.30510
 H1059 H 0.80839 0.48302 0.20215
 H1060 H 0.78184 0.50936 0.18005
 H1061 H 0.71182 0.43220 0.29171
 H1062 H 0.67880 0.45804 0.21922
 H1063 H 0.80816 0.54489 0.25752
 H1064 H 0.78605 0.56375 0.22870
 H1065 H 0.73124 0.45584 0.18835
 H1066 H 0.75978 0.43142 0.20941
 H1067 H 0.74135 0.56433 0.28863
 H1068 H 0.77047 0.53668 0.31559
 O1069 O 0.44462 0.24575 0.77875
 O1070 O 0.45492 0.20472 0.77613
 O1071 O 0.50427 0.27905 0.81527
 O1072 O 0.54267 0.28644 0.80804
 O1073 O 0.47302 0.31074 0.74927
 O1074 O 0.47926 0.30217 0.70636
 O1075 O 0.57270 0.22076 0.75172
 O1076 O 0.56482 0.22669 0.79291
 O1077 O 0.51757 0.18433 0.72008
 O1078 O 0.47422 0.18925 0.71895
 O1079 O 0.54288 0.24841 0.68717
 O1080 O 0.53884 0.29114 0.69430
 O1081 O 0.57303 0.25086 0.72277
 O1082 O 0.56012 0.29537 0.72352
 O1083 O 0.51609 0.21723 0.68588
 O1084 O 0.47268 0.21527 0.69340
 O1085 O 0.54298 0.18645 0.75209
 O1086 O 0.53360 0.19658 0.79517
 O1087 O 0.44355 0.27304 0.74717
 O1088 O 0.45554 0.27291 0.70448
 O1089 O 0.50011 0.31387 0.77997
 O1090 O 0.54430 0.30798 0.77671
 O1091 O 0.47647 0.24881 0.81384
 O1092 O 0.48427 0.20524 0.80477
 Zr1093 Zr 0.47996 0.23357 0.77853
 O1094 O 0.50328 0.21149 0.75816
 Zr1095 Zr 0.51825 0.28014 0.77943
 O1096 O 0.54348 0.25948 0.75989
 Zr1097 Zr 0.47890 0.27562 0.73456
 O1098 O 0.50271 0.25553 0.71257
 Zr1099 Zr 0.53820 0.22195 0.76601
 O1100 O 0.51506 0.24271 0.78831
 Zr1101 Zr 0.49937 0.21804 0.72048
 O1102 O 0.47374 0.23800 0.74066
 Zr1103 Zr 0.53788 0.26414 0.72210
 O1104 O 0.51392 0.28690 0.74171
 O1105 O 0.48331 0.27086 0.77207
 O1106 O 0.53451 0.22664 0.72820
 C1107 C 0.43370 0.26092 0.76474
 C1108 C 0.48793 0.26580 0.82505
 C1109 C 0.48295 0.32229 0.76705
 C1110 C 0.58297 0.23362 0.73503
 C1111 C 0.53377 0.17514 0.73385
 C1112 C 0.53258 0.23042 0.67636
 H1113 H 0.50041 0.19415 0.76246
 H1114 H 0.49947 0.25906 0.69512
 H1115 H 0.47194 0.28025 0.78219
 H1116 H 0.55961 0.26450 0.76486
 H1117 H 0.55666 0.23202 0.80811
 H1118 H 0.55429 0.27299 0.80728
 H1119 H 0.47458 0.22928 0.68206
 H1120 H 0.44996 0.25575 0.70416
 H1121 H 0.54781 0.18597 0.79578
 H1122 H 0.47100 0.20599 0.81675
 H1123 H 0.52323 0.29094 0.68613
 H1124 H 0.49389 0.31196 0.70859
 H1125 H 0.44937 0.20426 0.75892
 H1126 H 0.47539 0.17983 0.73438
 H1127 H 0.54035 0.31796 0.76214
 H1128 H 0.57032 0.29380 0.73815
 O1129 O 0.27648 0.82481 0.50724
 O1130 O 0.26741 0.81822 0.54947
 O1131 O 0.30829 0.76315 0.48003
 O1132 O 0.30145 0.72228 0.47775
 O1133 O 0.24653 0.79217 0.44225
 O1134 O 0.20542 0.79259 0.45066
 O1135 O 0.24110 0.69559 0.53740
 O1136 O 0.28134 0.70338 0.53573
 O1137 O 0.20781 0.75550 0.56857
 O1138 O 0.21034 0.79795 0.56495
 O1139 O 0.18121 0.72935 0.50408
 O1140 O 0.19274 0.73088 0.46079
 O1141 O 0.21312 0.69663 0.50734
 O1142 O 0.21853 0.70575 0.46208
 O1143 O 0.17872 0.75918 0.53303
 O1144 O 0.19066 0.80436 0.53394
 O1145 O 0.23702 0.72692 0.57004
 O1146 O 0.28031 0.73603 0.56506
 O1147 O 0.24889 0.82581 0.47677
 O1148 O 0.20574 0.81857 0.47893
 O1149 O 0.27673 0.76487 0.44340
 O1150 O 0.27253 0.71999 0.45179
 O1151 O 0.30686 0.79001 0.51178
 O1152 O 0.29310 0.78612 0.55452
 Zr1153 Zr 0.27125 0.78995 0.52313
 O1154 O 0.24869 0.76795 0.54475
 Zr1155 Zr 0.27370 0.74815 0.47845
 O1156 O 0.25192 0.72415 0.49878
 Zr1157 Zr 0.23206 0.79113 0.47777
 O1158 O 0.20810 0.76864 0.49708
 Zr1159 Zr 0.25523 0.73109 0.53653
 O1160 O 0.27951 0.75290 0.51642
 Zr1161 Zr 0.21325 0.77362 0.53492
 O1162 O 0.23556 0.79823 0.51554
 Zr1163 Zr 0.21623 0.73158 0.49097
 O1164 O 0.23808 0.75417 0.46868
 O1165 O 0.26725 0.78445 0.48567
 O1166 O 0.21952 0.73667 0.52859
 C1167 C 0.26616 0.83522 0.48901
 C1168 C 0.31782 0.77935 0.49417
 C1169 C 0.26457 0.78166 0.43261
 C1170 C 0.22438 0.68584 0.52476
 C1171 C 0.21879 0.73778 0.57897
 C1172 C 0.16974 0.74176 0.52022
 H1173 H 0.25126 0.77134 0.56238
 H1174 H 0.19183 0.77280 0.49192
 H1175 H 0.27818 0.79429 0.47574
 H1176 H 0.25620 0.70704 0.49496
 H1177 H 0.29645 0.71147 0.53115
 H1178 H 0.29700 0.70916 0.48937
 H1179 H 0.18235 0.80388 0.51802
 H1180 H 0.20858 0.82833 0.49395
 H1181 H 0.27890 0.72193 0.57643
 H1182 H 0.30533 0.79922 0.55425
 H1183 H 0.18285 0.74576 0.46174
 H1184 H 0.20512 0.77628 0.44276
 H1185 H 0.25272 0.82721 0.54546
 H1186 H 0.22656 0.80348 0.56892
 H1187 H 0.25837 0.72303 0.44159
 H1188 H 0.23159 0.69436 0.46588
 O1189 O 0.25605 0.28152 0.92740
 O1190 O 0.21519 0.28083 0.93438
 O1191 O 0.28567 0.31113 0.99278
 O1192 O 0.28404 0.30289 1.03342
 O1193 O 0.31459 0.24669 0.96089
 O1194 O 0.30349 0.20412 0.96309
 O1195 O 0.21749 0.24712 1.05482
 O1196 O 0.22561 0.28823 1.05005
 O1197 O 0.18686 0.22117 0.99132
 O1198 O 0.19598 0.22378 0.94729
 O1199 O 0.24279 0.18377 1.02122
 O1200 O 0.28598 0.18868 1.02114
 O1201 O 0.24472 0.21643 1.05526
 O1202 O 0.28823 0.21486 1.04686
 O1203 O 0.21685 0.18603 0.98976
 O1204 O 0.22012 0.19744 0.94560
 O1205 O 0.18744 0.25065 1.02084
 O1206 O 0.19989 0.29393 1.01551
 O1207 O 0.28051 0.24838 0.92631
 O1208 O 0.27869 0.20555 0.93544
 O1209 O 0.31620 0.27476 0.99168
 O1210 O 0.30548 0.26977 1.03567
 O1211 O 0.25813 0.31401 0.96246
 O1212 O 0.21493 0.30745 0.96689
 Zr1213 Zr 0.24088 0.27974 0.96260
 O1214 O 0.21610 0.25902 0.98269
 Zr1215 Zr 0.28154 0.27525 1.00638
 O1216 O 0.25799 0.25492 1.02866
 Zr1217 Zr 0.27938 0.23360 0.96210
 O1218 O 0.25626 0.21112 0.98257
 Zr1219 Zr 0.22268 0.26350 1.02029
 O1220 O 0.24628 0.28633 1.00030
 Zr1221 Zr 0.22111 0.22162 0.97595
 O1222 O 0.24412 0.24238 0.95345
 Zr1223 Zr 0.26107 0.21752 1.02031
 O1224 O 0.28659 0.23767 0.99975
 O1225 O 0.27606 0.27073 0.96903
 O1226 O 0.22576 0.22604 1.01361
 C1227 C 0.27072 0.26721 0.91646
 C1228 C 0.27515 0.32274 0.97542
 C1229 C 0.32550 0.26304 0.97359
 C1230 C 0.22794 0.22896 1.06513
 C1231 C 0.17700 0.23390 1.00831
 C1232 C 0.22613 0.17473 1.00787
 H1233 H 0.19993 0.26445 0.97846
 H1234 H 0.25904 0.19385 0.97810
 H1235 H 0.28693 0.28068 0.95882
 H1236 H 0.26136 0.25828 1.04614
 H1237 H 0.23264 0.30345 1.04332
 H1238 H 0.27242 0.29881 1.04641
 H1239 H 0.23237 0.18479 0.94815
 H1240 H 0.26262 0.20579 0.92831
 H1241 H 0.18808 0.29381 1.02904
 H1242 H 0.21744 0.32005 0.95402
 H1243 H 0.28510 0.18002 1.00523
 H1244 H 0.31082 0.20438 0.97956
 H1245 H 0.21472 0.26432 0.92692
 H1246 H 0.18724 0.23932 0.94921
 H1247 H 0.31384 0.25421 1.03234
 H1248 H 0.28698 0.22923 1.05781
 C1249 C 0.28805 0.38112 0.75476
 C1250 C 0.29695 0.35839 0.76177
 C1251 C 0.30708 0.35517 0.78496
 C1252 C 0.30929 0.37545 0.80099
 C1253 C 0.30005 0.39847 0.79400
 C1254 C 0.28882 0.40109 0.77089
 C1255 C 0.30289 0.41827 0.81028
 N1256 N 0.31408 0.41503 0.83201
 N1257 N 0.32274 0.39340 0.83856
 C1258 C 0.32079 0.37354 0.82380
 H1259 H 0.27994 0.38300 0.73687
 H1260 H 0.29532 0.34303 0.74931
 H1261 H 0.29666 0.43633 0.80589
 H1262 H 0.32856 0.35655 0.82991
 C1263 C 0.26665 -0.11097 0.27926
 C1264 C 0.27299 -0.13397 0.28787
 C1265 C 0.29679 -0.13990 0.29222
 C1266 C 0.31447 -0.12135 0.28889
 C1267 C 0.30791 -0.09793 0.27985
 C1268 C 0.28376 -0.09286 0.27486
 C1269 C 0.32561 -0.07981 0.27766
 N1270 N 0.34819 -0.08465 0.28436
 N1271 N 0.35425 -0.10622 0.29361
 C1272 C 0.33821 -0.12450 0.29647
 H1273 H 0.24807 -0.10723 0.27603
 H1274 H 0.25912 -0.14747 0.29062
 H1275 H 0.32175 -0.06166 0.27133
 H1276 H 0.34416 -0.14087 0.30552
 C1277 C 0.76842 0.87967 0.77967
 C1278 C 0.77560 0.85813 0.79093
 C1279 C 0.79963 0.85157 0.79191
 C1280 C 0.81664 0.86772 0.78092
 C1281 C 0.80899 0.88824 0.76699
 C1282 C 0.78467 0.89523 0.76789
 C1283 C 0.82643 0.90150 0.75384
 N1284 N 0.84971 0.89648 0.75692
 N1285 N 0.85690 0.87949 0.77259
 C1286 C 0.84122 0.86544 0.78511
 H1287 H 0.74977 0.88431 0.78034
 H1288 H 0.76199 0.84643 0.79870
 H1289 H 0.82232 0.91576 0.74107
 H1290 H 0.84820 0.85312 0.79868
 C1291 C 0.46577 0.86330 0.26343
 C1292 C 0.45836 0.88692 0.26948
 C1293 C 0.44717 0.89164 0.29198
 C1294 C 0.44245 0.87200 0.30826
 C1295 C 0.45032 0.84812 0.30231
 C1296 C 0.46246 0.84386 0.27987
 C1297 C 0.44516 0.82909 0.31885
 N1298 N 0.43302 0.83379 0.33983
 N1299 N 0.42544 0.85615 0.34533
 C1300 C 0.42961 0.87538 0.33023
 H1301 H 0.47462 0.86026 0.24602
 H1302 H 0.46184 0.90173 0.25674
 H1303 H 0.45037 0.81050 0.31520
 H1304 H 0.42254 0.89300 0.33541
 C1305 C -0.02923 0.85883 0.77185
 C1306 C -0.03683 0.88228 0.77813
 C1307 C -0.05076 0.88608 0.79911
 C1308 C -0.05782 0.86583 0.81362
 C1309 C -0.04993 0.84207 0.80734
 C1310 C -0.03529 0.83869 0.78647
 C1311 C -0.05751 0.82231 0.82188
 N1312 N -0.07205 0.82624 0.84133
 N1313 N -0.07954 0.84854 0.84723
 C1314 C -0.07299 0.86846 0.83403
 H1315 H -0.01826 0.85641 0.75567
 H1316 H -0.03160 0.89762 0.76673
 H1317 H -0.05236 0.80375 0.81770
 H1318 H -0.07993 0.88606 0.83947
 C1319 C -0.04931 -0.10516 -0.01788
 C1320 C -0.05809 -0.12814 -0.02346
 C1321 C -0.04348 -0.14661 -0.03322
 C1322 C -0.01871 -0.14167 -0.03537
 C1323 C -0.00973 -0.11788 -0.02975
 C1324 C -0.02549 -0.09918 -0.02176
 C1325 C 0.01492 -0.11414 -0.03100
 N1326 N 0.02950 -0.13275 -0.03738
 N1327 N 0.02121 -0.15504 -0.04214
 C1328 C -0.00226 -0.16022 -0.04101
 H1329 H -0.06170 -0.09156 -0.01122
 H1330 H -0.07698 -0.13072 -0.02141
 H1331 H 0.02296 -0.09701 -0.02611
 H1332 H -0.00763 -0.17901 -0.04367
 C1333 C -0.01761 0.39277 0.46152
 C1334 C -0.02449 0.37013 0.45220
 C1335 C -0.04791 0.36167 0.45468
 C1336 C -0.06485 0.37748 0.46596
 C1337 C -0.05735 0.39936 0.47777
 C1338 C -0.03350 0.40762 0.47457
 C1339 C -0.07459 0.41262 0.49108
 N1340 N -0.09774 0.40608 0.49007
 N1341 N -0.10502 0.38733 0.47650
 C1342 C -0.08945 0.37320 0.46405
 H1343 H 0.00060 0.39858 0.45882
 H1344 H -0.01102 0.35889 0.44363
 H1345 H -0.07048 0.42834 0.50199
 H1346 H -0.09650 0.35920 0.45216
 C1347 C 0.45371 -0.10611 0.48166
 C1348 C 0.44453 -0.12898 0.47612
 C1349 C 0.45816 -0.14688 0.46405
 C1350 C 0.48264 -0.14155 0.45973
 C1351 C 0.49187 -0.11767 0.46480
 C1352 C 0.47683 -0.09940 0.47502
 C1353 C 0.51619 -0.11350 0.46075
 N1354 N 0.53031 -0.13184 0.45268
 N1355 N 0.52192 -0.15426 0.44879
 C1356 C 0.49876 -0.15981 0.45239
 H1357 H 0.44196 -0.09307 0.49038
 H1358 H 0.42592 -0.13173 0.48001
 H1359 H 0.52447 -0.09625 0.46472
 H1360 H 0.49343 -0.17869 0.45031
 C1361 C 0.48643 0.38325 -0.03427
 C1362 C 0.47904 0.35991 -0.04133
 C1363 C 0.45508 0.35482 -0.04656
 C1364 C 0.43864 0.37459 -0.04641
 C1365 C 0.44626 0.39831 -0.03904
 C1366 C 0.47025 0.40245 -0.03232
 C1367 C 0.42984 0.41756 -0.03999
 N1368 N 0.40747 0.41350 -0.04794
 N1369 N 0.40048 0.39155 -0.05556
 C1370 C 0.41531 0.37213 -0.05546
 H1371 H 0.50491 0.38620 -0.02977
 H1372 H 0.49212 0.34545 -0.04177
 H1373 H 0.43474 0.43597 -0.03532
 H1374 H 0.40881 0.35530 -0.06333
 C1375 C 0.80481 0.35221 0.46989
 C1376 C 0.81237 0.37523 0.46244
 C1377 C 0.79618 0.39432 0.45926
 C1378 C 0.77185 0.39012 0.46443
 C1379 C 0.76414 0.36651 0.47200
 C1380 C 0.78084 0.34734 0.47434
 C1381 C 0.74002 0.36311 0.47762
 N1382 N 0.72471 0.38205 0.47550
 N1383 N 0.73192 0.40417 0.46836
 C1384 C 0.75495 0.40888 0.46287
 H1385 H 0.81775 0.33781 0.47143
 H1386 H 0.83102 0.37797 0.45842
 H1387 H 0.73326 0.34576 0.48409
 H1388 H 0.75984 0.42731 0.45770
 C1389 C 0.76542 0.87685 -0.01723
 C1390 C 0.77541 0.89810 -0.02716
 C1391 C 0.79593 0.89698 -0.04175
 C1392 C 0.80595 0.87387 -0.04740
 C1393 C 0.79558 0.85234 -0.03762
 C1394 C 0.77546 0.85398 -0.02204
 C1395 C 0.80527 0.82964 -0.04450
 N1396 N 0.82401 0.82870 -0.06011
 N1397 N 0.83381 0.84893 -0.06924
 C1398 C 0.82549 0.87143 -0.06341
 H1399 H 0.74981 0.87826 -0.00570
 H1400 H 0.76727 0.91558 -0.02312
 H1401 H 0.79793 0.81262 -0.03788
 H1402 H 0.83399 0.88715 -0.07164
 C1403 C 0.79515 0.29638 0.39714
 C1404 C 0.80296 0.30505 0.37450
 C1405 C 0.80357 0.28972 0.35391
 C1406 C 0.79598 0.26504 0.35629
 C1407 C 0.78829 0.25611 0.37950
 C1408 C 0.78791 0.27202 0.40003
 C1409 C 0.78034 0.23177 0.38110
 N1410 N 0.78021 0.21738 0.36082
 N1411 N 0.78725 0.22577 0.33903
 C1412 C 0.79496 0.24911 0.33604
 H1413 H 0.79487 0.30883 0.41264
 H1414 H 0.80859 0.32397 0.37304
 H1415 H 0.77391 0.22414 0.39814
 H1416 H 0.79980 0.25504 0.31780
 C1417 C 0.78414 0.76905 -0.10332
 C1418 C 0.79398 0.77492 -0.12606
 C1419 C 0.79611 0.79933 -0.13373
 C1420 C 0.78797 0.81813 -0.11777
 C1421 C 0.77518 0.81198 -0.09609
 C1422 C 0.77448 0.78712 -0.08804
 C1423 C 0.76431 0.83125 -0.08309
 N1424 N 0.76818 0.85481 -0.08978
 N1425 N 0.78235 0.86055 -0.10846
 C1426 C 0.79270 0.84305 -0.12237
 H1427 H 0.78364 0.75001 -0.09781
 H1428 H 0.79998 0.76015 -0.13776
 H1429 H 0.75300 0.82826 -0.06756
 H1430 H 0.80468 0.84885 -0.13675
 C1431 C 0.30378 0.47213 0.85021
 C1432 C 0.31086 0.46458 0.87339
 C1433 C 0.29443 0.46194 0.89262
 C1434 C 0.27037 0.46792 0.88842
 C1435 C 0.26311 0.47552 0.86468
 C1436 C 0.27996 0.47700 0.84534
 C1437 C 0.23929 0.48214 0.86134
 N1438 N 0.22381 0.48082 0.88039
 N1439 N 0.23058 0.47357 0.90261
 C1440 C 0.25332 0.46721 0.90731
 H1441 H 0.31691 0.47322 0.83567
 H1442 H 0.32934 0.46013 0.87612
 H1443 H 0.23296 0.48891 0.84397
 H1444 H 0.25788 0.46204 0.92584
 C1445 C 0.30392 -0.02316 0.35438
 C1446 C 0.31162 -0.02934 0.37780
 C1447 C 0.29552 -0.03221 0.39741
 C1448 C 0.27120 -0.02655 0.39322
 C1449 C 0.26349 -0.02001 0.36924
 C1450 C 0.27995 -0.01916 0.34951
 C1451 C 0.23965 -0.01332 0.36608
 N1452 N 0.22457 -0.01327 0.38548
 N1453 N 0.23177 -0.01904 0.40795
 C1454 C 0.25453 -0.02535 0.41254
 H1455 H 0.31678 -0.02232 0.33970
 H1456 H 0.33025 -0.03348 0.38007
 H1457 H 0.23303 -0.00729 0.34860
 H1458 H 0.25945 -0.02855 0.43140
 C1459 C -0.01956 -0.03718 -0.11266
 C1460 C -0.02754 -0.04700 -0.13470
 C1461 C -0.05157 -0.04602 -0.14134
 C1462 C -0.06792 -0.03547 -0.12434
 C1463 C -0.05949 -0.02346 -0.10282
 C1464 C -0.03496 -0.02516 -0.09644
 C1465 C -0.07640 -0.01124 -0.08813
 N1466 N -0.09983 -0.01315 -0.09309
 N1467 N -0.10775 -0.02664 -0.11161
 C1468 C -0.09269 -0.03818 -0.12707
 H1469 H -0.00087 -0.03871 -0.10843
 H1470 H -0.01447 -0.05486 -0.14696
 H1471 H -0.07178 -0.00025 -0.07266
 H1472 H -0.10035 -0.04983 -0.14095
 C1473 C -0.02301 0.47560 0.38457
 C1474 C -0.03018 0.46657 0.36191
 C1475 C -0.05426 0.46425 0.35608
 C1476 C -0.07144 0.47207 0.37354
 C1477 C -0.06408 0.48370 0.39565
 C1478 C -0.03948 0.48404 0.40191
 C1479 C -0.08190 0.49367 0.41086
 N1480 N -0.10509 0.49023 0.40546
 N1481 N -0.11186 0.47738 0.38599
 C1482 C -0.09587 0.46789 0.37009
 H1483 H -0.00421 0.47604 0.38855
 H1484 H -0.01667 0.46099 0.34891
 H1485 H -0.07809 0.50391 0.42714
 H1486 H -0.10250 0.45689 0.35516
 C1487 C 0.48323 -0.03026 0.38150
 C1488 C 0.47602 -0.03823 0.35838
 C1489 C 0.45196 -0.04115 0.35297
 C1490 C 0.43483 -0.03637 0.37149
 C1491 C 0.44202 -0.02665 0.39448
 C1492 C 0.46664 -0.02412 0.39977
 C1493 C 0.42413 -0.02065 0.41151
 N1494 N 0.40105 -0.02514 0.40633
 N1495 N 0.39452 -0.03567 0.38543
 C1496 C 0.41062 -0.04176 0.36803
 H1497 H 0.50204 -0.02855 0.38506
 H1498 H 0.48935 -0.04219 0.34459
 H1499 H 0.42794 -0.01278 0.42901
 H1500 H 0.40430 -0.05116 0.35191
 C1501 C 0.46881 0.45288 -0.10757
 C1502 C 0.46064 0.44471 -0.13016
 C1503 C 0.45918 0.46060 -0.15026
 C1504 C 0.46662 0.48530 -0.14745
 C1505 C 0.47459 0.49374 -0.12419
 C1506 C 0.47547 0.47734 -0.10410
 C1507 C 0.48223 0.51815 -0.12213
 N1508 N 0.48184 0.53304 -0.14201
 N1509 N 0.47455 0.52511 -0.16384
 C1510 C 0.46710 0.50176 -0.16728
 H1511 H 0.46927 0.44007 -0.09239
 H1512 H 0.45499 0.42582 -0.13182
 H1513 H 0.48895 0.52541 -0.10509
 H1514 H 0.46205 0.49623 -0.18556
 C1515 C 0.47390 0.77317 0.37211
 C1516 C 0.46709 0.78337 0.39445
 C1517 C 0.44383 0.79143 0.39835
 C1518 C 0.42701 0.78898 0.37916
 C1519 C 0.43370 0.77757 0.35672
 C1520 C 0.45758 0.77002 0.35307
 C1521 C 0.41647 0.77550 0.33820
 N1522 N 0.39440 0.78454 0.34176
 N1523 N 0.38838 0.79591 0.36243
 C1524 C 0.40396 0.79869 0.38109
 H1525 H 0.49223 0.76783 0.36959
 H1526 H 0.48020 0.78516 0.40882
 H1527 H 0.42029 0.76729 0.32076
 H1528 H 0.39823 0.80899 0.39692
 C1529 C -0.02329 0.77275 0.87711
 C1530 C -0.03092 0.78329 0.89900
 C1531 C -0.05477 0.78945 0.90268
 C1532 C -0.07134 0.78442 0.88372
 C1533 C -0.06382 0.77205 0.86207
 C1534 C -0.03931 0.76699 0.85837
 C1535 C -0.08108 0.76643 0.84435
 N1536 N -0.10382 0.77367 0.84750
 N1537 N -0.11053 0.78650 0.86704
 C1538 C -0.09506 0.79240 0.88504
 H1539 H -0.00455 0.76915 0.87470
 H1540 H -0.01795 0.78693 0.91316
 H1541 H -0.07689 0.75658 0.82794
 H1542 H -0.10143 0.80379 0.89982
 C1543 C 0.39209 0.79591 0.27961
 C1544 C 0.37124 0.80559 0.28885
 C1545 C 0.35153 0.79062 0.29347
 C1546 C 0.35290 0.76524 0.28820
 C1547 C 0.37437 0.75528 0.27894
 C1548 C 0.39415 0.77082 0.27489
 C1549 C 0.37501 0.73019 0.27336
 N1550 N 0.35551 0.71608 0.27703
 N1551 N 0.33537 0.72541 0.28568
 C1552 C 0.33335 0.74949 0.29126
 H1553 H 0.40713 0.80806 0.27702
 H1554 H 0.37065 0.82499 0.29286
 H1555 H 0.39061 0.72174 0.26562
 H1556 H 0.31640 0.75608 0.29771
 C1557 C -0.10273 0.79123 0.78608
 C1558 C -0.12390 0.80046 0.79499
 C1559 C -0.14306 0.78496 0.80021
 C1560 C -0.14076 0.75948 0.79616
 C1561 C -0.11900 0.74997 0.78712
 C1562 C -0.09972 0.76609 0.78239
 C1563 C -0.11765 0.72474 0.78234
 N1564 N -0.13662 0.71009 0.78683
 N1565 N -0.15692 0.71899 0.79552
 C1566 C -0.15970 0.74317 0.80020
 H1567 H -0.08826 0.80390 0.78274
 H1568 H -0.12521 0.81996 0.79811
 H1569 H -0.10198 0.71656 0.77453
 H1570 H -0.17673 0.74940 0.80678
 C1571 C 0.85942 0.29703 0.47665
 C1572 C 0.88082 0.30593 0.46786
 C1573 C 0.89944 0.29015 0.46165
 C1574 C 0.89644 0.26466 0.46564
 C1575 C 0.87423 0.25549 0.47420
 C1576 C 0.85533 0.27193 0.47899
 C1577 C 0.87207 0.23023 0.47847
 N1578 N 0.89075 0.21525 0.47426
 N1579 N 0.91151 0.22382 0.46630
 C1580 C 0.91504 0.24799 0.46201
 H1581 H 0.84551 0.30996 0.48064
 H1582 H 0.88243 0.32544 0.46513
 H1583 H 0.85600 0.22233 0.48578
 H1584 H 0.93249 0.25396 0.45629
 C1585 C 0.85773 0.76858 -0.01623
 C1586 C 0.88025 0.77425 -0.02508
 C1587 C 0.88755 0.79861 -0.02778
 C1588 C 0.87185 0.81760 -0.02038
 C1589 C 0.85018 0.81172 -0.00836
 C1590 C 0.84220 0.78693 -0.00817
 C1591 C 0.83704 0.83122 0.00185
 N1592 N 0.84381 0.85469 -0.00214
 N1593 N 0.86261 0.86014 -0.01587
 C1594 C 0.87653 0.84243 -0.02551
 H1595 H 0.85231 0.74955 -0.01581
 H1596 H 0.89183 0.75941 -0.03048
 H1597 H 0.82143 0.82854 0.01279
 H1598 H 0.89072 0.84801 -0.03758
 C1599 C -0.11524 -0.01508 -0.02118
 C1600 C -0.13703 -0.02352 -0.02990
 C1601 C -0.13827 -0.04409 -0.04521
 C1602 C -0.11718 -0.05627 -0.05211
 C1603 C -0.09508 -0.04779 -0.04318
 C1604 C -0.09422 -0.02715 -0.02742
 C1605 C -0.07440 -0.05980 -0.05108
 N1606 N -0.07593 -0.07912 -0.06662
 N1607 N -0.09671 -0.08721 -0.07483
 C1608 C -0.11737 -0.07646 -0.06814
 H1609 H -0.11477 0.00088 -0.00939
 H1610 H -0.15307 -0.01397 -0.02468
 H1611 H -0.05702 -0.05384 -0.04532
 H1612 H -0.13369 -0.08359 -0.07565
 C1613 C -0.11948 0.48317 0.48550
 C1614 C -0.14096 0.47372 0.47700
 C1615 C -0.14140 0.45659 0.45781
 C1616 C -0.11977 0.44800 0.44772
 C1617 C -0.09804 0.45754 0.45641
 C1618 C -0.09802 0.47545 0.47522
 C1619 C -0.07688 0.44876 0.44591
 N1620 N -0.07759 0.43136 0.42819
 N1621 N -0.09802 0.42205 0.42032
 C1622 C -0.11909 0.42968 0.42952
 H1623 H -0.11960 0.49669 0.50004
 H1624 H -0.15736 0.48022 0.48506
 H1625 H -0.05980 0.45553 0.45164
 H1626 H -0.13507 0.42110 0.42280
 C1627 C 0.38618 -0.01110 0.47985
 C1628 C 0.36357 -0.01754 0.47177
 C1629 C 0.35990 -0.03920 0.45857
 C1630 C 0.37940 -0.05458 0.45319
 C1631 C 0.40235 -0.04805 0.46139
 C1632 C 0.40563 -0.02625 0.47506
 C1633 C 0.42153 -0.06286 0.45431
 N1634 N 0.41778 -0.08312 0.44048
 N1635 N 0.39617 -0.08946 0.43308
 C1636 C 0.37691 -0.07586 0.43888
 H1637 H 0.38857 0.00590 0.48978
 H1638 H 0.34882 -0.00554 0.47579
 H1639 H 0.43954 -0.05825 0.45915
 H1640 H 0.35996 -0.08148 0.43177
 C1641 C 0.38528 0.47278 -0.01434
 C1642 C 0.36300 0.46431 -0.02148
 C1643 C 0.35776 0.46017 -0.04633
 C1644 C 0.37622 0.46279 -0.06409
 C1645 C 0.39875 0.47178 -0.05683
 C1646 C 0.40313 0.47724 -0.03171
 C1647 C 0.41673 0.47320 -0.07480
 N1648 N 0.41255 0.46594 -0.09814
 N1649 N 0.39174 0.45670 -0.10475
 C1650 C 0.37366 0.45446 -0.08852
 H1651 H 0.38857 0.47605 0.00497
 H1652 H 0.34951 0.46172 -0.00751
 H1653 H 0.43433 0.47909 -0.07050
 H1654 H 0.35789 0.44521 -0.09474
 C1655 C 0.35592 0.45206 0.77401
 C1656 C 0.37783 0.44413 0.78233
 C1657 C 0.39708 0.46031 0.78407
 C1658 C 0.39412 0.48502 0.77668
 C1659 C 0.37159 0.49319 0.76854
 C1660 C 0.35235 0.47652 0.76744
 C1661 C 0.36931 0.51767 0.76105
 N1662 N 0.38834 0.53286 0.76171
 N1663 N 0.40950 0.52517 0.76912
 C1664 C 0.41308 0.50178 0.77648
 H1665 H 0.34138 0.43905 0.77336
 H1666 H 0.37963 0.42521 0.78795
 H1667 H 0.35273 0.52476 0.75430
 H1668 H 0.43077 0.49647 0.78168
 C1669 C 0.35571 -0.01882 0.29533
 C1670 C 0.37737 -0.02835 0.30248
 C1671 C 0.39467 -0.03489 0.28513
 C1672 C 0.39013 -0.03058 0.25992
 C1673 C 0.36781 -0.02098 0.25259
 C1674 C 0.35014 -0.01589 0.27054
 C1675 C 0.36434 -0.01601 0.22756
 N1676 N 0.38176 -0.02081 0.21106
 N1677 N 0.40253 -0.02998 0.21790
 C1678 C 0.40737 -0.03487 0.24175
 H1679 H 0.34277 -0.01468 0.30934
 H1680 H 0.38029 -0.03130 0.32186
 H1681 H 0.34829 -0.00765 0.22102
 H1682 H 0.42479 -0.04162 0.24626
 C1683 C 0.15062 0.54479 0.71831
 C1684 C 0.12799 0.55254 0.71225
 C1685 C 0.10925 0.53580 0.71043
 C1686 C 0.11335 0.51073 0.71539
 C1687 C 0.13649 0.50280 0.72163
 C1688 C 0.15531 0.52002 0.72259
 C1689 C 0.13974 0.47800 0.72751
 N1690 N 0.12114 0.46224 0.72664
 N1691 N 0.09950 0.46964 0.72054
 C1692 C 0.09493 0.49334 0.71502
 H1693 H 0.16473 0.55825 0.71925
 H1694 H 0.12518 0.57177 0.70843
 H1695 H 0.15669 0.47105 0.73329
 H1696 H 0.07691 0.49839 0.71076
 C1697 C 0.14859 0.03096 0.20245
 C1698 C 0.12682 0.03921 0.19407
 C1699 C 0.10784 0.04265 0.21032
 C1700 C 0.11076 0.03690 0.23551
 C1701 C 0.13305 0.02856 0.24409
 C1702 C 0.15219 0.02600 0.22739
 C1703 C 0.13516 0.02241 0.26902
 N1704 N 0.11628 0.02476 0.28429
 N1705 N 0.09539 0.03263 0.27627
 C1706 C 0.09194 0.03865 0.25242
 H1707 H 0.16304 0.02927 0.18940
 H1708 H 0.12499 0.04364 0.17479
 H1709 H 0.15142 0.01528 0.27640
 H1710 H 0.07445 0.04439 0.24687
 C1711 C 0.59535 0.69472 0.22985
 C1712 C 0.61789 0.68815 0.22174
 C1713 C 0.63653 0.70520 0.22153
 C1714 C 0.63257 0.72899 0.23111
 C1715 C 0.60952 0.73575 0.23908
 C1716 C 0.59066 0.71863 0.23767
 C1717 C 0.60627 0.75933 0.24882
 N1718 N 0.62486 0.77503 0.25032
 N1719 N 0.64649 0.76868 0.24292
 C1720 C 0.65102 0.74621 0.23351
 H1721 H 0.58115 0.68135 0.22883
 H1722 H 0.62055 0.66985 0.21462
 H1723 H 0.58929 0.76523 0.25580
 H1724 H 0.66906 0.74191 0.22842
 C1725 C 0.10367 0.69578 0.74062
 C1726 C 0.12490 0.68872 0.72978
 C1727 C 0.14221 0.70607 0.72333
 C1728 C 0.13844 0.73097 0.72967
 C1729 C 0.11641 0.73821 0.74010
 C1730 C 0.09852 0.72046 0.74463
 C1731 C 0.11332 0.76294 0.74634
 N1732 N 0.13108 0.77925 0.74235
 N1733 N 0.15176 0.77246 0.73276
 C1734 C 0.15611 0.74890 0.72644
 H1735 H 0.09056 0.68189 0.74456
 H1736 H 0.12731 0.66956 0.72541
 H1737 H 0.09729 0.76933 0.75504
 H1738 H 0.17351 0.74439 0.71947
 C1739 C 0.64044 0.23578 0.51859
 C1740 C 0.61736 0.22989 0.52582
 C1741 C 0.61193 0.20669 0.53522
 C1742 C 0.63023 0.18914 0.53772
 C1743 C 0.65358 0.19497 0.52993
 C1744 C 0.65868 0.21854 0.52026
 C1745 C 0.67140 0.17746 0.53353
 N1746 N 0.66618 0.15566 0.54410
 N1747 N 0.64434 0.15024 0.55160
 C1748 C 0.62624 0.16623 0.54893
 H1749 H 0.64413 0.25399 0.51168
 H1750 H 0.60365 0.24362 0.52430
 H1751 H 0.68954 0.18114 0.52877
 H1752 H 0.60910 0.16095 0.55607
 C1753 C 0.62768 0.74209 0.02785
 C1754 C 0.60483 0.73428 0.03404
 C1755 C 0.60099 0.71094 0.04391
 C1756 C 0.62055 0.69536 0.04825
 C1757 C 0.64365 0.70314 0.04161
 C1758 C 0.64717 0.72665 0.03117
 C1759 C 0.66265 0.68737 0.04652
 N1760 N 0.65869 0.66534 0.05718
 N1761 N 0.63705 0.65811 0.06367
 C1762 C 0.61790 0.67241 0.05979
 H1763 H 0.63017 0.76024 0.02026
 H1764 H 0.59005 0.74653 0.03118
 H1765 H 0.68064 0.69244 0.04238
 H1766 H 0.60093 0.66573 0.06609
 C1767 C 0.10589 0.02569 0.04538
 C1768 C 0.12885 0.03080 0.05283
 C1769 C 0.14730 0.03419 0.03567
 C1770 C 0.14227 0.03002 0.01036
 C1771 C 0.11864 0.02488 0.00279
 C1772 C 0.10022 0.02347 0.02051
 C1773 C 0.11448 0.02017 -0.02220
 N1774 N 0.13274 0.02036 -0.03843
 N1775 N 0.15492 0.02457 -0.03133
 C1776 C 0.16034 0.02909 -0.00754
 H1777 H 0.09216 0.02425 0.05929
 H1778 H 0.13160 0.03394 0.07224
 H1779 H 0.09708 0.01565 -0.02892
 H1780 H 0.17880 0.03122 -0.00276
 C1781 C 0.10027 0.55656 0.52252
 C1782 C 0.12190 0.56410 0.53208
 C1783 C 0.14061 0.54757 0.53507
 C1784 C 0.13761 0.52309 0.52679
 C1785 C 0.11528 0.51533 0.51745
 C1786 C 0.09627 0.53216 0.51597
 C1787 C 0.11298 0.49107 0.50923
 N1788 N 0.13175 0.47570 0.51028
 N1789 N 0.15270 0.48300 0.51878
 C1790 C 0.15632 0.50616 0.52691
 H1791 H 0.08604 0.56964 0.52164
 H1792 H 0.12368 0.58290 0.53812
 H1793 H 0.09665 0.48435 0.50140
 H1794 H 0.17390 0.51118 0.53290
 C1795 C 0.61767 0.01321 0.51948
 C1796 C 0.63992 0.01903 0.52887
 C1797 C 0.64606 0.04327 0.53471
 C1798 C 0.62847 0.06182 0.53207
 C1799 C 0.60611 0.05599 0.52153
 C1800 C 0.60061 0.03129 0.51535
 C1801 C 0.58951 0.07502 0.51901
 N1802 N 0.59448 0.09779 0.52732
 N1803 N 0.61472 0.10285 0.53862
 C1804 C 0.63161 0.08564 0.54170
 H1805 H 0.61368 -0.00579 0.51548
 H1806 H 0.65266 0.00441 0.53100
 H1807 H 0.57245 0.07225 0.51098
 H1808 H 0.64692 0.09073 0.55236
 C1809 C 0.60082 0.55075 0.03037
 C1810 C 0.62326 0.55893 0.03704
 C1811 C 0.64289 0.54330 0.03592
 C1812 C 0.63977 0.51908 0.02701
 C1813 C 0.61678 0.51064 0.02057
 C1814 C 0.59715 0.52657 0.02272
 C1815 C 0.61438 0.48668 0.01150
 N1816 N 0.63373 0.47221 0.00916
 N1817 N 0.65530 0.48014 0.01509
 C1818 C 0.65900 0.50308 0.02380
 H1819 H 0.58604 0.56328 0.03170
 H1820 H 0.62517 0.57743 0.04393
 H1821 H 0.59741 0.47941 0.00591
 H1822 H 0.67698 0.50869 0.02774
 C1823 C 0.03183 0.05074 0.10545
 C1824 C 0.03928 0.05935 0.12808
 C1825 C 0.04458 0.04327 0.14743
 C1826 C 0.04056 0.01770 0.14371
 C1827 C 0.03333 0.00893 0.12023
 C1828 C 0.02944 0.02571 0.10082
 C1829 C 0.02898 -0.01624 0.11741
 N1830 N 0.03129 -0.03156 0.13678
 N1831 N 0.03727 -0.02336 0.15891
 C1832 C 0.04164 0.00067 0.16311
 H1833 H 0.02847 0.06391 0.09109
 H1834 H 0.04220 0.07887 0.12977
 H1835 H 0.02306 -0.02386 0.10027
 H1836 H 0.04511 0.00624 0.18178
 C1837 C 0.01820 0.52795 0.61776
 C1838 C 0.02627 0.53436 0.64102
 C1839 C 0.04937 0.54315 0.64435
 C1840 C 0.06450 0.54617 0.62370
 C1841 C 0.05639 0.53930 0.60009
 C1842 C 0.03311 0.52990 0.59726
 C1843 C 0.07164 0.54294 0.57992
 N1844 N 0.09350 0.55269 0.58331
 N1845 N 0.10106 0.55935 0.60544
 C1846 C 0.08728 0.55661 0.62569
 H1847 H 0.00024 0.52116 0.61575
 H1848 H 0.01445 0.53228 0.65661
 H1849 H 0.06633 0.53851 0.56147
 H1850 H 0.09420 0.56301 0.64301
 C1851 C 0.52073 0.03325 0.61322
 C1852 C 0.52833 0.04133 0.63612
 C1853 C 0.55255 0.04325 0.64146
 C1854 C 0.56939 0.03908 0.62240
 C1855 C 0.56162 0.03116 0.59894
 C1856 C 0.53700 0.02737 0.59464
 C1857 C 0.57872 0.02897 0.58014
 N1858 N 0.60181 0.03405 0.58461
 N1859 N 0.60905 0.04169 0.60650
 C1860 C 0.59366 0.04467 0.62539
 H1861 H 0.50187 0.03129 0.61008
 H1862 H 0.51515 0.04500 0.65016
 H1863 H 0.57404 0.02424 0.56170
 H1864 H 0.60048 0.05230 0.64222
 C1865 C 0.55161 0.52816 0.10196
 C1866 C 0.55920 0.53546 0.12515
 C1867 C 0.54339 0.53625 0.14507
 C1868 C 0.51964 0.52831 0.14160
 C1869 C 0.51185 0.52125 0.11785
 C1870 C 0.52788 0.52187 0.09777
 C1871 C 0.48838 0.51298 0.11520
 N1872 N 0.47374 0.51204 0.13496
 N1873 N 0.48104 0.51859 0.15723
 C1874 C 0.50348 0.52653 0.16126
 H1875 H 0.56422 0.52835 0.08689
 H1876 H 0.57743 0.54130 0.12738
 H1877 H 0.48170 0.50668 0.09778
 H1878 H 0.50853 0.53089 0.17987
 C1879 C 0.19614 0.52631 0.64339
 C1880 C 0.18709 0.53604 0.62170
 C1881 C 0.20202 0.54131 0.60174
 C1882 C 0.22637 0.53503 0.60325
 C1883 C 0.23563 0.52546 0.62547
 C1884 C 0.22047 0.52191 0.64598
 C1885 C 0.25972 0.51901 0.62611
 N1886 N 0.27355 0.52213 0.60594
 N1887 N 0.26487 0.53102 0.58510
 C1888 C 0.24177 0.53741 0.58302
 H1889 H 0.18419 0.52341 0.65874
 H1890 H 0.16840 0.54040 0.62086
 H1891 H 0.26756 0.51091 0.64219
 H1892 H 0.23560 0.54374 0.56541
 C1893 C 0.22201 0.01549 0.13133
 C1894 C 0.21441 0.02224 0.10796
 C1895 C 0.20330 0.04480 0.10404
 C1896 C 0.19907 0.06055 0.12425
 C1897 C 0.20716 0.05386 0.14792
 C1898 C 0.21894 0.03124 0.15135
 C1899 C 0.20250 0.06982 0.16758
 N1900 N 0.19051 0.09090 0.16373
 N1901 N 0.18265 0.09704 0.14159
 C1902 C 0.18637 0.08255 0.12178
 H1903 H 0.23073 -0.00197 0.13375
 H1904 H 0.21739 0.00985 0.09274
 H1905 H 0.20795 0.06561 0.18601
 H1906 H 0.17904 0.08826 0.10443
 C1907 C 0.73891 0.22132 0.61662
 C1908 C 0.73190 0.21353 0.63992
 C1909 C 0.70835 0.20689 0.64463
 C1910 C 0.69155 0.20768 0.62538
 C1911 C 0.69860 0.21587 0.60175
 C1912 C 0.72254 0.22290 0.59738
 C1913 C 0.68159 0.21556 0.58299
 N1914 N 0.65914 0.20797 0.58766
 N1915 N 0.65256 0.20022 0.60979
 C1916 C 0.66800 0.19960 0.62873
 H1917 H 0.75732 0.22619 0.61356
 H1918 H 0.74498 0.21256 0.65439
 H1919 H 0.68595 0.22073 0.56455
 H1920 H 0.66170 0.19247 0.64606
 C1921 C 0.69072 0.72683 0.11320
 C1922 C 0.68275 0.71790 0.13568
 C1923 C 0.69793 0.71687 0.15594
 C1924 C 0.72131 0.72622 0.15375
 C1925 C 0.72945 0.73528 0.13081
 C1926 C 0.71416 0.73488 0.11026
 C1927 C 0.75251 0.74497 0.12941
 N1928 N 0.76651 0.74521 0.14958
 N1929 N 0.75892 0.73659 0.17109
 C1930 C 0.73680 0.72721 0.17390
 H1931 H 0.67879 0.72643 0.09766
 H1932 H 0.66484 0.71077 0.13700
 H1933 H 0.75935 0.75284 0.11265
 H1934 H 0.73143 0.72099 0.19192
 C1935 C 0.51121 0.72390 0.13729
 C1936 C 0.51855 0.71797 0.11358
 C1937 C 0.54094 0.70784 0.10939
 C1938 C 0.55608 0.70304 0.12955
 C1939 C 0.54867 0.70925 0.15363
 C1940 C 0.52614 0.71997 0.15736
 C1941 C 0.56377 0.70369 0.17332
 N1942 N 0.58493 0.69279 0.16903
 N1943 N 0.59190 0.68690 0.14643
 C1944 C 0.57820 0.69152 0.12658
 H1945 H 0.49380 0.73177 0.14000
 H1946 H 0.50668 0.72131 0.09837
 H1947 H 0.55882 0.70757 0.19208
 H1948 H 0.58466 0.68584 0.10878
 C1949 C 0.01759 0.72052 0.64390
 C1950 C 0.02478 0.71433 0.62026
 C1951 C 0.04798 0.70654 0.61559
 C1952 C 0.06421 0.70456 0.63532
 C1953 C 0.05696 0.71117 0.65938
 C1954 C 0.03347 0.71936 0.66352
 C1955 C 0.07325 0.70842 0.67867
 N1956 N 0.09528 0.69971 0.67404
 N1957 N 0.10203 0.69334 0.65149
 C1958 C 0.08726 0.69533 0.63203
 H1959 H -0.00051 0.72640 0.64692
 H1960 H 0.01212 0.71569 0.60542
 H1961 H 0.06864 0.71276 0.69741
 H1962 H 0.09359 0.68929 0.61431
 C1963 C 0.52953 0.64313 0.20343
 C1964 C 0.53778 0.62061 0.19516
 C1965 C 0.53798 0.60015 0.21068
 C1966 C 0.52901 0.60243 0.23493
 C1967 C 0.52064 0.62545 0.24340
 C1968 C 0.52131 0.64602 0.22755
 C1969 C 0.51116 0.62685 0.26726
 N1970 N 0.51047 0.60665 0.28168
 N1971 N 0.51838 0.58511 0.27378
 C1972 C 0.52751 0.58228 0.25090
 H1973 H 0.53004 0.65862 0.19102
 H1974 H 0.54462 0.61926 0.17660
 H1975 H 0.50389 0.64364 0.27446
 H1976 H 0.53315 0.56423 0.24532
 C1977 C 0.05186 0.64012 0.72911
 C1978 C 0.06030 0.61810 0.71988
 C1979 C 0.04522 0.59786 0.71735
 C1980 C 0.02131 0.59968 0.72519
 C1981 C 0.01277 0.62217 0.73475
 C1982 C 0.02819 0.64261 0.73628
 C1983 C -0.01087 0.62328 0.74282
 N1984 N -0.02500 0.60322 0.74118
 N1985 N -0.01702 0.58214 0.73215
 C1986 C 0.00565 0.57965 0.72418
 H1987 H 0.06367 0.65569 0.72963
 H1988 H 0.07858 0.61711 0.71381
 H1989 H -0.01811 0.63973 0.75081
 H1990 H 0.01126 0.56199 0.71742
 C1991 C 0.03716 0.10672 0.04837
 C1992 C 0.04503 0.13000 0.05488
 C1993 C 0.04342 0.14961 0.03841
 C1994 C 0.03297 0.14566 0.01507
 C1995 C 0.02509 0.12185 0.00841
 C1996 C 0.02750 0.10223 0.02518
 C1997 C 0.01453 0.11862 -0.01470
 N1998 N 0.01211 0.13797 -0.03004
 N1999 N 0.01938 0.16030 -0.02377
 C2000 C 0.02961 0.16484 -0.00174
 H2001 H 0.03932 0.09189 0.06128
 H2002 H 0.05304 0.13258 0.07274
 H2003 H 0.00786 0.10102 -0.02057
 H2004 H 0.03469 0.18344 0.00250
 C2005 C 0.04607 0.61264 0.52503
 C2006 C 0.05415 0.63485 0.53405
 C2007 C 0.03824 0.65273 0.54222
 C2008 C 0.01354 0.64843 0.53999
 C2009 C 0.00530 0.62555 0.53094
 C2010 C 0.02185 0.60721 0.52426
 C2011 C -0.01926 0.62218 0.52815
 N2012 N -0.03443 0.64035 0.53442
 N2013 N -0.02671 0.66172 0.54303
 C2014 C -0.00328 0.66644 0.54590
 H2015 H 0.05895 0.59915 0.51952
 H2016 H 0.07311 0.63777 0.53543
 H2017 H -0.02654 0.60561 0.52043
 H2018 H 0.00195 0.68437 0.55232
 C2019 C 0.52603 0.12198 0.50890
 C2020 C 0.53387 0.14520 0.51598
 C2021 C 0.54525 0.14871 0.53854
 C2022 C 0.54940 0.12832 0.55400
 C2023 C 0.54106 0.10487 0.54702
 C2024 C 0.52914 0.10175 0.52431
 C2025 C 0.54606 0.08499 0.56253
 N2026 N 0.55846 0.08843 0.58349
 N2027 N 0.56647 0.11040 0.58996
 C2028 C 0.56253 0.13039 0.57591
 H2029 H 0.51733 0.11979 0.49134
 H2030 H 0.53112 0.16055 0.50377
 H2031 H 0.54082 0.06667 0.55791
 H2032 H 0.57011 0.14753 0.58188
 C2033 C 0.52357 0.61886 0.01325
 C2034 C 0.52957 0.64232 0.02125
 C2035 C 0.54107 0.64580 0.04372
 C2036 C 0.54741 0.62516 0.05806
 C2037 C 0.54114 0.60138 0.04998
 C2038 C 0.52888 0.59836 0.02757
 C2039 C 0.54792 0.58125 0.06438
 N2040 N 0.56021 0.58484 0.08540
 N2041 N 0.56623 0.60715 0.09297
 C2042 C 0.56035 0.62739 0.08002
 H2043 H 0.51436 0.61670 -0.00404
 H2044 H 0.52505 0.65791 0.00994
 H2045 H 0.54393 0.56270 0.05889
 H2046 H 0.56610 0.64494 0.08695
 C2047 C 0.72483 0.13014 0.51118
 C2048 C 0.71601 0.10716 0.51748
 C2049 C 0.71088 0.10112 0.54199
 C2050 C 0.71341 0.11952 0.56038
 C2051 C 0.72236 0.14301 0.55387
 C2052 C 0.72853 0.14817 0.52904
 C2053 C 0.72313 0.16113 0.57221
 N2054 N 0.71560 0.15620 0.59530
 N2055 N 0.70681 0.13444 0.60130
 C2056 C 0.70514 0.11612 0.58467
 H2057 H 0.72885 0.13387 0.49208
 H2058 H 0.71375 0.09371 0.50304
 H2059 H 0.72878 0.17943 0.56839
 H2060 H 0.69654 0.09948 0.59057
 C2061 C 0.71926 0.63939 0.01908
 C2062 C 0.71094 0.61596 0.02457
 C2063 C 0.70298 0.61008 0.04823
 C2064 C 0.70311 0.62845 0.06671
 C2065 C 0.71232 0.65209 0.06135
 C2066 C 0.72035 0.65759 0.03718
 C2067 C 0.71166 0.66989 0.08009
 N2068 N 0.70230 0.66441 0.10235
 N2069 N 0.69326 0.64244 0.10717
 C2070 C 0.69315 0.62438 0.09014
 H2071 H 0.72493 0.64337 0.00048
 H2072 H 0.71071 0.60227 0.01019
 H2073 H 0.71771 0.68833 0.07723
 H2074 H 0.68472 0.60730 0.09501
 C2075 C 0.22496 0.61484 0.73305
 C2076 C 0.21603 0.63786 0.72723
 C2077 C 0.20175 0.64110 0.70653
 C2078 C 0.19593 0.62067 0.69164
 C2079 C 0.20518 0.59734 0.69747
 C2080 C 0.21993 0.59457 0.71822
 C2081 C 0.19869 0.57732 0.68271
 N2082 N 0.18391 0.58060 0.66344
 N2083 N 0.17512 0.60248 0.65799
 C2084 C 0.18054 0.62259 0.67145
 H2085 H 0.23594 0.61281 0.74919
 H2086 H 0.22031 0.65328 0.73892
 H2087 H 0.20492 0.55907 0.68654
 H2088 H 0.17248 0.63976 0.66638
 C2089 C 0.23579 0.12235 0.22193
 C2090 C 0.22895 0.14529 0.21344
 C2091 C 0.20520 0.15025 0.20813
 C2092 C 0.18793 0.13154 0.21129
 C2093 C 0.19480 0.10830 0.22044
 C2094 C 0.21907 0.10370 0.22572
 C2095 C 0.17721 0.09005 0.22259
 N2096 N 0.15454 0.09479 0.21612
 N2097 N 0.14819 0.11647 0.20732
 C2098 C 0.16408 0.13489 0.20447
 H2099 H 0.25439 0.11908 0.22551
 H2100 H 0.24236 0.15928 0.21080
 H2101 H 0.18121 0.07185 0.22861
 H2102 H 0.15789 0.15173 0.19644
 C2103 C 0.71828 1.10989 0.73475
 C2104 C 0.71110 1.13338 0.72828
 C2105 C 0.70499 1.13909 0.70394
 C2106 C 0.70395 1.11975 0.68635
 C2107 C 0.71131 1.09584 0.69304
 C2108 C 0.71930 1.09120 0.71724
 C2109 C 0.70921 1.07695 0.67556
 N2110 N 0.70004 1.08162 0.65313
 N2111 N 0.69252 1.10382 0.64705
 C2112 C 0.69391 1.12291 0.66287
 H2113 H 0.72375 1.10644 0.75347
 H2114 H 0.71150 1.14751 0.74223
 H2115 H 0.71398 1.05833 0.67970
 H2116 H 0.68635 1.14007 0.65711
 C2117 C 0.72069 0.61692 0.23911
 C2118 C 0.71104 0.63966 0.23342
 C2119 C 0.70148 0.64416 0.21019
 C2120 C 0.70134 0.62525 0.19238
 C2121 C 0.71147 0.60221 0.19801
 C2122 C 0.72132 0.59809 0.22165
 C2123 C 0.70995 0.58361 0.18019
 N2124 N 0.69936 0.58793 0.15836
 N2125 N 0.68977 0.60947 0.15317
 C2126 C 0.69024 0.62819 0.16944
 H2127 H 0.72765 0.61393 0.25737
 H2128 H 0.71096 0.65388 0.24728
 H2129 H 0.71643 0.56549 0.18347
 H2130 H 0.68148 0.64497 0.16437
 C2131 C 0.52506 0.13382 0.71767
 C2132 C 0.53135 0.11068 0.70929
 C2133 C 0.55498 0.10292 0.70957
 C2134 C 0.57253 0.11896 0.71926
 C2135 C 0.56569 0.14137 0.73056
 C2136 C 0.54183 0.14972 0.72812
 C2137 C 0.58336 0.15459 0.74321
 N2138 N 0.60630 0.14739 0.74214
 N2139 N 0.61295 0.12798 0.72919
 C2140 C 0.59694 0.11380 0.71740
 H2141 H 0.50670 0.13929 0.71607
 H2142 H 0.51758 0.09885 0.70212
 H2143 H 0.57975 0.17066 0.75385
 H2144 H 0.60360 0.09884 0.70647
 C2145 C 1.02238 0.14044 0.22124
 C2146 C 1.02948 0.11701 0.21432
 C2147 C 1.05222 0.11291 0.20476
 C2148 C 1.06794 0.13296 0.20155
 C2149 C 1.06084 0.15670 0.20896
 C2150 C 1.03791 0.16034 0.21903
 C2151 C 1.07671 0.17624 0.20520
 N2152 N 1.09812 0.17220 0.19461
 N2153 N 1.10469 0.14997 0.18739
 C2154 C 1.09034 0.13026 0.19039
 H2155 H 1.00470 0.14304 0.22860
 H2156 H 1.01717 0.10191 0.21651
 H2157 H 1.07220 0.19472 0.21024
 H2158 H 1.09651 0.11280 0.18367
 C2159 C 0.19403 0.65668 0.53932
 C2160 C 0.18631 0.63338 0.54599
 C2161 C 0.20157 0.61324 0.54458
 C2162 C 0.22507 0.61672 0.53589
 C2163 C 0.23295 0.64052 0.52918
 C2164 C 0.21723 0.66060 0.53101
 C2165 C 0.25620 0.64326 0.52017
 N2166 N 0.27051 0.62347 0.51816
 N2167 N 0.26309 0.60116 0.52434
 C2168 C 0.24086 0.59708 0.53301
 H2169 H 0.18193 0.67188 0.54112
 H2170 H 0.16830 0.63107 0.55257
 H2171 H 0.26304 0.66083 0.51441
 H2172 H 0.23569 0.57852 0.53721
 C2173 C 0.23352 0.13345 1.02475
 C2174 C 0.22637 0.11078 1.03381
 C2175 C 0.20243 0.10394 1.03404
 C2176 C 0.18543 0.12041 1.02426
 C2177 C 0.19304 0.14219 1.01224
 C2178 C 0.21728 0.14967 1.01411
 C2179 C 0.17571 0.15569 0.99949
 N2180 N 0.15252 0.14936 1.00109
 N2181 N 0.14526 0.13063 1.01474
 C2182 C 0.16085 0.11625 1.02672
 H2183 H 0.25211 0.13831 1.02600
 H2184 H 0.23972 0.09861 1.04110
 H2185 H 0.17977 0.17126 0.98828
 H2186 H 0.15375 0.10189 1.03820
 C2187 C 0.22349 0.73164 0.62355
 C2188 C 0.21591 0.72255 0.64617
 C2189 C 0.19419 0.71026 0.64838
 C2190 C 0.17985 0.70693 0.62735
 C2191 C 0.18753 0.71624 0.60436
 C2192 C 0.20950 0.72876 0.60259
 C2193 C 0.17332 0.71182 0.58367
 N2194 N 0.15274 0.69915 0.58603
 N2195 N 0.14551 0.69045 0.60763
 C2196 C 0.15838 0.69381 0.62833
 H2197 H 0.24048 0.74088 0.62236
 H2198 H 0.22722 0.72482 0.66204
 H2199 H 0.17855 0.71798 0.56563
 H2200 H 0.15181 0.68600 0.64527
 C2201 C 0.23667 0.22171 1.10913
 C2202 C 0.22997 0.21568 1.13309
 C2203 C 0.20646 0.20937 1.13865
 C2204 C 0.18956 0.20827 1.11948
 C2205 C 0.19631 0.21476 1.09522
 C2206 C 0.22002 0.22184 1.09010
 C2207 C 0.17919 0.21310 1.07665
 N2208 N 0.15690 0.20543 1.08204
 N2209 N 0.15062 0.19911 1.10473
 C2210 C 0.16616 0.20016 1.12359
 H2211 H 0.25493 0.22675 1.10547
 H2212 H 0.24316 0.21621 1.14748
 H2213 H 0.18345 0.21738 1.05785
 H2214 H 0.16013 0.19423 1.14147
 C2215 C 0.73026 0.52161 0.13066
 C2216 C 0.72322 0.53005 0.10770
 C2217 C 0.70024 0.53886 0.10407
 C2218 C 0.68399 0.53932 0.12401
 C2219 C 0.69102 0.53030 0.14724
 C2220 C 0.71443 0.52147 0.15053
 C2221 C 0.67471 0.53187 0.16679
 N2222 N 0.65295 0.54158 0.16320
 N2223 N 0.64642 0.55023 0.14146
 C2224 C 0.66121 0.54965 0.12184
 H2225 H 0.74830 0.51534 0.13302
 H2226 H 0.73589 0.53006 0.09272
 H2227 H 0.67917 0.52609 0.18500
 H2228 H 0.65506 0.55771 0.10496
 C2229 C 0.69977 1.01853 0.63887
 C2230 C 0.69235 1.02642 0.61589
 C2231 C 0.70856 1.02928 0.59652
 C2232 C 0.73258 1.02261 0.60023
 C2233 C 0.74018 1.01492 0.62382
 C2234 C 0.72367 1.01363 0.64344
 C2235 C 0.76404 1.00825 0.62680
 N2236 N 0.77918 1.00934 0.60744
 N2237 N 0.77205 1.01646 0.58531
 C2238 C 0.74928 1.02302 0.58101
 H2239 H 0.68691 1.01742 0.65355
 H2240 H 0.67394 1.03146 0.61358
 H2241 H 0.77068 1.00171 0.64416
 H2242 H 0.74439 1.02808 0.56254
 C2243 C 0.52555 0.22966 0.63158
 C2244 C 0.53195 0.22342 0.60761
 C2245 C 0.55335 0.21137 0.60276
 C2246 C 0.56844 0.20515 0.62258
 C2247 C 0.56205 0.21185 0.64686
 C2248 C 0.54045 0.22416 0.65130
 C2249 C 0.57718 0.20528 0.66613
 N2250 N 0.59727 0.19258 0.66139
 N2251 N 0.60316 0.18592 0.63867
 C2252 C 0.58943 0.19165 0.61915
 H2253 H 0.50882 0.23881 0.63479
 H2254 H 0.52004 0.22785 0.59272
 H2255 H 0.57302 0.20994 0.68490
 H2256 H 0.59499 0.18530 0.60126
 C2257 C 1.02205 0.22597 0.13036
 C2258 C 1.02866 0.21594 0.10793
 C2259 C 1.05235 0.21634 0.09986
 C2260 C 1.06964 0.22740 0.11554
 C2261 C 1.06243 0.23997 0.13725
 C2262 C 1.03849 0.23779 0.14559
 C2263 C 1.07990 0.25330 0.15010
 N2264 N 1.10301 0.25160 0.14354
 N2265 N 1.11001 0.23728 0.12522
 C2266 C 1.09423 0.22474 0.11142
 H2267 H 1.00364 0.22438 0.13591
 H2268 H 1.01479 0.20817 0.09664
 H2269 H 1.07598 0.26505 0.16534
 H2270 H 1.10120 0.21245 0.09769
 C2271 C 0.61051 0.20317 0.71895
 C2272 C 0.63274 0.19479 0.71219
 C2273 C 0.65279 0.20973 0.71455
 C2274 C 0.65017 0.23371 0.72411
 C2275 C 0.62732 0.24221 0.73111
 C2276 C 0.60738 0.22665 0.72840
 C2277 C 0.62533 0.26586 0.74091
 N2278 N 0.64495 0.28006 0.74337
 N2279 N 0.66635 0.27212 0.73681
 C2280 C 0.66965 0.24942 0.72733
 H2281 H 0.59538 0.19145 0.71594
 H2282 H 0.63418 0.17666 0.70426
 H2283 H 0.60844 0.27310 0.74680
 H2284 H 0.68745 0.24379 0.72263
 C2285 C 1.11003 0.22996 0.20092
 C2286 C 1.13218 0.22244 0.19287
 C2287 C 1.15156 0.22198 0.20885
 C2288 C 1.14841 0.23003 0.23343
 C2289 C 1.12563 0.23769 0.24162
 C2290 C 1.10630 0.23741 0.22513
 C2291 C 1.12314 0.24575 0.26596
 N2292 N 1.14220 0.24607 0.28105
 N2293 N 1.16355 0.23900 0.27338
 C2294 C 1.16733 0.23108 0.25009
 H2295 H 1.09527 0.22869 0.18843
 H2296 H 1.13392 0.21585 0.17419
 H2297 H 1.10632 0.25208 0.27302
 H2298 H 1.18511 0.22600 0.24474
 C2299 C 0.13994 0.70935 0.52623
 C2300 C 0.11823 0.70083 0.53474
 C2301 C 0.10054 0.71712 0.54230
 C2302 C 0.10438 0.74261 0.53969
 C2303 C 0.12664 0.75134 0.53107
 C2304 C 0.14492 0.73444 0.52535
 C2305 C 0.12947 0.77668 0.52772
 N2306 N 0.11146 0.79213 0.53321
 N2307 N 0.09070 0.78394 0.54156
 C2308 C 0.08649 0.75973 0.54485
 H2309 H 0.15339 0.69611 0.52143
 H2310 H 0.11559 0.68125 0.53639
 H2311 H 0.14549 0.78435 0.52006
 H2312 H 0.06907 0.75412 0.55100
 C2313 C 0.14780 0.20447 1.02384
 C2314 C 0.12512 0.19731 1.03071
 C2315 C 0.10605 0.21349 1.02885
 C2316 C 0.11001 0.23727 1.01925
 C2317 C 0.13326 0.24449 1.01210
 C2318 C 0.15225 0.22785 1.01462
 C2319 C 0.13660 0.26808 1.00247
 N2320 N 0.11784 0.28337 1.00023
 N2321 N 0.09604 0.27660 1.00687
 C2322 C 0.09147 0.25407 1.01625
 H2323 H 0.16231 0.19205 1.02698
 H2324 H 0.12263 0.17930 1.03864
 H2325 H 0.15387 0.27443 0.99655
 H2326 H 0.07339 0.24942 1.02101
 C2327 C 0.63248 0.51080 0.22574
 C2328 C 0.61031 0.51770 0.21679
 C2329 C 0.60566 0.54205 0.21039
 C2330 C 0.62395 0.55975 0.21275
 C2331 C 0.64620 0.55296 0.22278
 C2332 C 0.65061 0.52809 0.22918
 C2333 C 0.66364 0.57127 0.22482
 N2334 N 0.65924 0.59442 0.21730
 N2335 N 0.63872 0.60055 0.20720
 C2336 C 0.62110 0.58398 0.20434
 H2337 H 0.63554 0.49171 0.22998
 H2338 H 0.59665 0.50388 0.21476
 H2339 H 0.68084 0.56758 0.23194
 H2340 H 0.60527 0.58994 0.19508
 C2341 C 0.64796 1.01952 0.69999
 C2342 C 0.62587 1.02773 0.69278
 C2343 C 0.60707 1.02954 0.70961
 C2344 C 0.61073 1.02200 0.73422
 C2345 C 0.63355 1.01397 0.74167
 C2346 C 0.65233 1.01316 0.72435
 C2347 C 0.63659 1.00648 0.76611
 N2348 N 0.61800 1.00698 0.78194
 N2349 N 0.59658 1.01431 0.77493
 C2350 C 0.59228 1.02171 0.75161
 H2351 H 0.66212 1.01920 0.68659
 H2352 H 0.62380 1.03361 0.67396
 H2353 H 0.65343 0.99981 0.77264
 H2354 H 0.57442 1.02691 0.74682
 C2355 C 0.85408 0.45134 0.26738
 C2356 C 0.87618 0.44463 0.27622
 C2357 C 0.89351 0.46231 0.28154
 C2358 C 0.88888 0.48715 0.27587
 C2359 C 0.86611 0.49401 0.26728
 C2360 C 0.84821 0.47596 0.26428
 C2361 C 0.86232 0.51867 0.26119
 N2362 N 0.88003 0.53528 0.26388
 N2363 N 0.90135 0.52885 0.27199
 C2364 C 0.90643 0.50537 0.27791
 H2365 H 0.84100 0.43720 0.26431
 H2366 H 0.87929 0.42548 0.28008
 H2367 H 0.84576 0.52477 0.25354
 H2368 H 0.92426 0.50111 0.28362
 C2369 C 0.85040 0.94875 0.78407
 C2370 C 0.87206 0.94071 0.79293
 C2371 C 0.89273 0.95448 0.78917
 C2372 C 0.89143 0.97690 0.77623
 C2373 C 0.86928 0.98502 0.76707
 C2374 C 0.84871 0.97062 0.77096
 C2375 C 0.86857 1.00718 0.75408
 N2376 N 0.88876 1.02029 0.75061
 N2377 N 0.90955 1.01267 0.75919
 C2378 C 0.91159 0.99141 0.77183
 H2379 H 0.83469 0.93796 0.78782
 H2380 H 0.87266 0.92375 0.80319
 H2381 H 0.85221 1.01412 0.74655
 H2382 H 0.92893 0.98599 0.77819
 C2383 C 0.40294 0.27060 0.79541
 C2384 C 0.38086 0.27958 0.80225
 C2385 C 0.36347 0.28447 0.78465
 C2386 C 0.36817 0.27881 0.75967
 C2387 C 0.39084 0.26981 0.75268
 C2388 C 0.40862 0.26648 0.77071
 C2389 C 0.39463 0.26370 0.72792
 N2390 N 0.37705 0.26675 0.71132
 N2391 N 0.35586 0.27526 0.71784
 C2392 C 0.35077 0.28124 0.74143
 H2393 H 0.41613 0.26801 0.80950
 H2394 H 0.37766 0.28362 0.82145
 H2395 H 0.41110 0.25588 0.72169
 H2396 H 0.33305 0.28738 0.74570
 C2397 C 0.90139 0.30299 0.26891
 C2398 C 0.87937 0.31016 0.27785
 C2399 C 0.86199 0.29282 0.28405
 C2400 C 0.86664 0.26769 0.27940
 C2401 C 0.88943 0.26035 0.27092
 C2402 C 0.90727 0.27821 0.26664
 C2403 C 0.89320 0.23539 0.26605
 N2404 N 0.87544 0.21899 0.26957
 N2405 N 0.85409 0.22587 0.27733
 C2406 C 0.84903 0.24962 0.28215
 H2407 H 0.91438 0.31700 0.26486
 H2408 H 0.87625 0.32948 0.28083
 H2409 H 0.90978 0.22882 0.25870
 H2410 H 0.83113 0.25416 0.28743
 C2411 C 0.35834 0.76854 0.48052
 C2412 C 0.38085 0.77441 0.47170
 C2413 C 0.38822 0.79883 0.46952
 C2414 C 0.37257 0.81767 0.47731
 C2415 C 0.35083 0.81157 0.48913
 C2416 C 0.34284 0.78671 0.48903
 C2417 C 0.33768 0.83094 0.49957
 N2418 N 0.34445 0.85447 0.49597
 N2419 N 0.36338 0.86015 0.48253
 C2420 C 0.37741 0.84261 0.47278
 H2421 H 0.35289 0.74952 0.48055
 H2422 H 0.39239 0.75970 0.46584
 H2423 H 0.32206 0.82816 0.51044
 H2424 H 0.39187 0.84846 0.46119
 C2425 C 0.36750 0.27197 0.98386
 C2426 C 0.39021 0.28046 0.97800
 C2427 C 0.39581 0.28789 0.95408
 C2428 C 0.37801 0.28718 0.93576
 C2429 C 0.35507 0.27807 0.94156
 C2430 C 0.34980 0.27029 0.96591
 C2431 C 0.33779 0.27844 0.92296
 N2432 N 0.34320 0.28710 0.90032
 N2433 N 0.36463 0.29582 0.89499
 C2434 C 0.38211 0.29637 0.91194
 H2435 H 0.36368 0.26665 1.00262
 H2436 H 0.40354 0.28126 0.99224
 H2437 H 0.31988 0.27258 0.92620
 H2438 H 0.39883 0.30451 0.90669
 C2439 C 0.77010 0.47210 0.36550
 C2440 C 0.77852 0.46420 0.38815
 C2441 C 0.80115 0.45395 0.39025
 C2442 C 0.81539 0.45111 0.36893
 C2443 C 0.80683 0.45922 0.34590
 C2444 C 0.78412 0.47008 0.34435
 C2445 C 0.82100 0.45527 0.32497
 N2446 N 0.84235 0.44423 0.32713
 N2447 N 0.85041 0.43666 0.34875
 C2448 C 0.83765 0.43961 0.36966
 H2449 H 0.75255 0.47999 0.36448
 H2450 H 0.76733 0.46618 0.40423
 H2451 H 0.81513 0.46043 0.30688
 H2452 H 0.84488 0.43259 0.38652
 C2453 C 0.78354 0.98344 0.86148
 C2454 C 0.79127 0.97671 0.88483
 C2455 C 0.80094 0.95352 0.88897
 C2456 C 0.80369 0.93710 0.86902
 C2457 C 0.79580 0.94392 0.84534
 C2458 C 0.78520 0.96712 0.84172
 C2459 C 0.79948 0.92749 0.82583
 N2460 N 0.81011 0.90567 0.82992
 N2461 N 0.81744 0.89922 0.85217
 C2462 C 0.81468 0.91417 0.87182
 H2463 H 0.77579 1.00136 0.85891
 H2464 H 0.78940 0.98955 0.89986
 H2465 H 0.79451 0.93198 0.80730
 H2466 H 0.82139 0.90811 0.88932
 C2467 C 0.28013 0.77176 0.39118
 C2468 C 0.28893 0.77799 0.36804
 C2469 C 0.29172 0.80253 0.36104
 C2470 C 0.28545 0.82114 0.37813
 C2471 C 0.27388 0.81484 0.40050
 C2472 C 0.27229 0.78974 0.40767
 C2473 C 0.26509 0.83419 0.41503
 N2474 N 0.26936 0.85775 0.40867
 N2475 N 0.28230 0.86347 0.38906
 C2476 C 0.29094 0.84599 0.37395
 H2477 H 0.27898 0.75258 0.39607
 H2478 H 0.29366 0.76340 0.35550
 H2479 H 0.25513 0.83133 0.43153
 H2480 H 0.30222 0.85181 0.35899
 C2481 C 0.28656 0.29785 0.88783
 C2482 C 0.29596 0.30500 0.86535
 C2483 C 0.29703 0.28863 0.84555
 C2484 C 0.28768 0.26469 0.84839
 C2485 C 0.27826 0.25732 0.87146
 C2486 C 0.27819 0.27399 0.89140
 C2487 C 0.26854 0.23370 0.87351
 N2488 N 0.26852 0.21849 0.85384
 N2489 N 0.27736 0.22539 0.83222
 C2490 C 0.28681 0.24798 0.82878
 H2491 H 0.28669 0.31082 0.90290
 H2492 H 0.30302 0.32338 0.86358
 H2493 H 0.26046 0.22738 0.89034
 H2494 H 0.29317 0.25273 0.81066
 C2495 C 0.45657 0.27477 0.85496
 C2496 C 0.44841 0.28157 0.87800
 C2497 C 0.46411 0.28492 0.89761
 C2498 C 0.48860 0.28045 0.89389
 C2499 C 0.49696 0.27357 0.87023
 C2500 C 0.48073 0.27126 0.85053
 C2501 C 0.52123 0.26857 0.86734
 N2502 N 0.53606 0.27070 0.88677
 N2503 N 0.52823 0.27726 0.90889
 C2504 C 0.50503 0.28210 0.91315
 H2505 H 0.44393 0.27306 0.84019
 H2506 H 0.42965 0.28505 0.88029
 H2507 H 0.52852 0.26255 0.85001
 H2508 H 0.49960 0.28680 0.93161
 C2509 C 0.98599 0.28302 0.36374
 C2510 C 0.97766 0.29008 0.38680
 C2511 C 0.95443 0.29852 0.38984
 C2512 C 0.93941 0.30040 0.36916
 C2513 C 0.94794 0.29336 0.34569
 C2514 C 0.97131 0.28422 0.34312
 C2515 C 0.93302 0.29664 0.32538
 N2516 N 0.91091 0.30576 0.32854
 N2517 N 0.90279 0.31209 0.35060
 C2518 C 0.91629 0.30985 0.37099
 H2519 H 1.00401 0.27645 0.36199
 H2520 H 0.98941 0.28891 0.40243
 H2521 H 0.93890 0.29252 0.30700
 H2522 H 0.90891 0.31576 0.38833
 C2523 C 0.48808 0.36681 0.77365
 C2524 C 0.47974 0.38980 0.78062
 C2525 C 0.45625 0.39293 0.78844
 C2526 C 0.44096 0.37228 0.78974
 C2527 C 0.44938 0.34896 0.78236
 C2528 C 0.47312 0.34633 0.77408
 C2529 C 0.43393 0.32880 0.78448
 N2530 N 0.41163 0.33188 0.79323
 N2531 N 0.40378 0.35370 0.80033
 C2532 C 0.41769 0.37392 0.79907
 H2533 H 0.50635 0.36500 0.76774
 H2534 H 0.49173 0.40531 0.77991
 H2535 H 0.43943 0.31057 0.77967
 H2536 H 0.41046 0.39093 0.80579
 C2537 C 0.95187 0.35616 0.28463
 C2538 C 0.94256 0.37821 0.29283
 C2539 C 0.95614 0.39965 0.29194
 C2540 C 0.97955 0.39892 0.28256
 C2541 C 0.98894 0.37646 0.27395
 C2542 C 0.97485 0.35499 0.27503
 C2543 C 1.01197 0.37643 0.26403
 N2544 N 1.02474 0.39748 0.26319
 N2545 N 1.01597 0.41854 0.27146
 C2546 C 0.99381 0.42001 0.28104
 H2547 H 0.94122 0.33977 0.28623
 H2548 H 0.92465 0.37855 0.30008
 H2549 H 1.01983 0.35997 0.25670
 H2550 H 0.98751 0.43763 0.28726
 C2551 C 0.26599 0.88055 0.48759
 C2552 C 0.27416 0.90290 0.47835
 C2553 C 0.29233 0.90361 0.46079
 C2554 C 0.30244 0.88155 0.45226
 C2555 C 0.29478 0.85897 0.46220
 C2556 C 0.27617 0.85850 0.47987
 C2557 C 0.30595 0.83756 0.45374
 N2558 N 0.32305 0.83877 0.43623
 N2559 N 0.32972 0.85998 0.42642
 C2560 C 0.31994 0.88137 0.43375
 H2561 H 0.25167 0.88045 0.50089
 H2562 H 0.26633 0.91974 0.48496
 H2563 H 0.30162 0.81995 0.46097
 H2564 H 0.32556 0.89794 0.42467
 C2565 C 0.26831 0.36716 0.97034
 C2566 C 0.27550 0.39060 0.96334
 C2567 C 0.29847 0.39485 0.95442
 C2568 C 0.31438 0.37493 0.95201
 C2569 C 0.30719 0.35121 0.95958
 C2570 C 0.28397 0.34738 0.96891
 C2571 C 0.32327 0.33184 0.95661
 N2572 N 0.34498 0.33600 0.94673
 N2573 N 0.35163 0.35816 0.93929
 C2574 C 0.33706 0.37769 0.94139
 H2575 H 0.25037 0.36443 0.97699
 H2576 H 0.26305 0.40557 0.96486
 H2577 H 0.31870 0.31339 0.96169
 H2578 H 0.34330 0.39503 0.93436
 C2579 C 0.80192 0.39851 0.28329
 C2580 C 0.81123 0.37601 0.29015
 C2581 C 0.79709 0.35489 0.29020
 C2582 C 0.77304 0.35659 0.28292
 C2583 C 0.76358 0.37960 0.27587
 C2584 C 0.77826 0.40067 0.27609
 C2585 C 0.73983 0.38056 0.26826
 N2586 N 0.72651 0.35987 0.26791
 N2587 N 0.73537 0.33831 0.27449
 C2588 C 0.75817 0.33593 0.28188
 H2589 H 0.81317 0.41452 0.28407
 H2590 H 0.82957 0.37513 0.29590
 H2591 H 0.73180 0.39748 0.26237
 H2592 H 0.76449 0.31790 0.28660
   
