data_POSCAR
  _audit_creation_date              2014-09-24
  _audit_creation_method            'ToBaCCo'
  _symmetry_space_group_name_H-M    'P1'
  _symmetry_Int_Tables_number       1
  _symmetry_cell_setting            triclinic
  loop_
  _symmetry_equiv_pos_as_xyz
 x,y,z
_cell_length_a 84.3972
_cell_length_b 84.1734
_cell_length_c 83.1979
_cell_angle_alpha 89.935200
_cell_angle_beta 89.965600
_cell_angle_gamma 89.902700
loop_
  _atom_site_label
  _atom_site_type_symbol
  _atom_site_fract_x
  _atom_site_fract_y
  _atom_site_fract_z
N1 N 0.37486 0.33161 0.34519
 N2 N 0.37527 0.34258 0.33392
 C3 C 0.38724 0.33917 0.32372
 C4 C 0.39440 0.32522 0.32876
 C5 C 0.38625 0.32078 0.34239
 H6 H 0.38979 0.34559 0.31286
 H7 H 0.38811 0.31006 0.34933
 Cu8 Cu 0.35868 0.35873 0.33277
 Cu9 Cu 0.35850 0.33073 0.36167
 Cu10 Cu 0.32873 0.35894 0.35925
 N11 N 0.34213 0.37495 0.33181
 N12 N 0.33036 0.37456 0.34215
 C13 C 0.31970 0.38581 0.33837
 C14 C 0.32503 0.39384 0.32501
 C15 C 0.33936 0.38676 0.32114
 H16 H 0.30860 0.38781 0.34459
 H17 H 0.34665 0.38936 0.31089
 N18 N 0.32924 0.34232 0.37583
 N19 N 0.34088 0.33190 0.37718
 C20 C 0.33753 0.32188 0.38936
 C21 C 0.32303 0.32612 0.39577
 C22 C 0.31812 0.33908 0.38695
 H23 H 0.34461 0.31170 0.39272
 H24 H 0.30700 0.34533 0.38823
 H25 H 0.34118 0.34108 0.34771
 H26 H 0.35279 0.35456 0.36111
 N27 N 0.37511 0.83040 -0.16196
 N28 N 0.37108 0.83844 -0.17488
 C29 C 0.38173 0.83571 -0.18658
 C30 C 0.39309 0.82542 -0.18064
 C31 C 0.38861 0.82236 -0.16493
 H32 H 0.38108 0.84058 -0.19860
 H33 H 0.39428 0.81428 -0.15660
 Cu34 Cu 0.35207 0.85130 -0.17564
 Cu35 Cu 0.36128 0.82952 -0.14326
 Cu36 Cu 0.33099 0.85728 -0.14166
 N37 N 0.33763 0.86900 -0.17336
 N38 N 0.32966 0.87176 -0.16006
 C39 C 0.32048 0.88474 -0.16225
 C40 C 0.32287 0.89023 -0.17779
 C41 C 0.33385 0.87999 -0.18442
 H42 H 0.31231 0.88948 -0.15344
 H43 H 0.33860 0.88037 -0.19650
 N44 N 0.33452 0.84118 -0.12464
 N45 N 0.34592 0.83044 -0.12553
 C46 C 0.34383 0.81960 -0.11384
 C47 C 0.33059 0.82374 -0.10507
 C48 C 0.32500 0.83754 -0.11214
 H49 H 0.35080 0.80890 -0.11241
 H50 H 0.31407 0.84364 -0.10925
 H51 H 0.33985 0.83759 -0.15321
 H52 H 0.35441 0.85318 -0.14675
 N53 N 0.87480 0.33202 -0.15825
 N54 N 0.87104 0.33999 -0.17131
 C55 C 0.88150 0.33659 -0.18300
 C56 C 0.89244 0.32595 -0.17698
 C57 C 0.88792 0.32331 -0.16121
 H58 H 0.88090 0.34112 -0.19516
 H59 H 0.89320 0.31498 -0.15287
 Cu60 Cu 0.85238 0.35333 -0.17255
 Cu61 Cu 0.86094 0.33185 -0.13944
 Cu62 Cu 0.83058 0.35956 -0.13937
 N63 N 0.83809 0.37127 -0.17073
 N64 N 0.82978 0.37402 -0.15765
 C65 C 0.82055 0.38689 -0.16006
 C66 C 0.82317 0.39233 -0.17555
 C67 C 0.83442 0.38218 -0.18193
 H68 H 0.81209 0.39152 -0.15148
 H69 H 0.83929 0.38248 -0.19396
 N70 N 0.83349 0.34380 -0.12210
 N71 N 0.84533 0.33352 -0.12184
 C72 C 0.84308 0.32330 -0.10956
 C73 C 0.82907 0.32724 -0.10193
 C74 C 0.82333 0.34028 -0.11016
 H75 H 0.85027 0.31290 -0.10726
 H76 H 0.81202 0.34605 -0.10826
 H77 H 0.84015 0.33938 -0.15022
 H78 H 0.85442 0.35516 -0.14360
 N79 N 0.87159 0.82966 0.34075
 N80 N 0.86885 0.83734 0.32726
 C81 C 0.87989 0.83342 0.31635
 C82 C 0.89018 0.82270 0.32326
 C83 C 0.88464 0.82052 0.33881
 H84 H 0.88022 0.83782 0.30413
 H85 H 0.88934 0.81246 0.34775
 Cu86 Cu 0.85099 0.85144 0.32443
 Cu87 Cu 0.85691 0.83116 0.35894
 Cu88 Cu 0.82897 0.86122 0.35641
 N89 N 0.83817 0.87048 0.32470
 N90 N 0.83007 0.87481 0.33746
 C91 C 0.82219 0.88836 0.33414
 C92 C 0.82543 0.89253 0.31837
 C93 C 0.83564 0.88095 0.31276
 H94 H 0.81411 0.89428 0.34228
 H95 H 0.84061 0.88003 0.30081
 N96 N 0.82971 0.84604 0.37438
 N97 N 0.84056 0.83478 0.37565
 C98 C 0.83681 0.82533 0.38819
 C99 C 0.82282 0.83080 0.39489
 C100 C 0.81867 0.84391 0.38586
 H101 H 0.84298 0.81450 0.39135
 H102 H 0.80787 0.85076 0.38695
 H103 H 0.83729 0.83960 0.34702
 H104 H 0.85266 0.85450 0.35325
 N105 N 0.62585 0.66900 0.34105
 N106 N 0.62879 0.65943 0.32893
 C107 C 0.61803 0.66190 0.31730
 C108 C 0.60775 0.67363 0.32235
 C109 C 0.61298 0.67787 0.33753
 H110 H 0.61799 0.65599 0.30577
 H111 H 0.60831 0.68728 0.34502
 Cu112 Cu 0.64699 0.64546 0.32859
 Cu113 Cu 0.64027 0.67028 0.35937
 Cu114 Cu 0.66943 0.64122 0.36171
 N115 N 0.66100 0.62748 0.33143
 N116 N 0.66977 0.62562 0.34435
 C117 C 0.67916 0.61278 0.34235
 C118 C 0.67603 0.60639 0.32735
 C119 C 0.66443 0.61598 0.32082
 H120 H 0.68818 0.60892 0.35072
 H121 H 0.65938 0.61505 0.30892
 N122 N 0.66705 0.65824 0.37786
 N123 N 0.65612 0.66945 0.37679
 C124 C 0.65893 0.68053 0.38809
 C125 C 0.67218 0.67605 0.39672
 C126 C 0.67699 0.66183 0.39001
 H127 H 0.65241 0.69153 0.38936
 H128 H 0.68763 0.65527 0.39296
 H129 H 0.66062 0.66057 0.34925
 H130 H 0.64580 0.64627 0.35770
 N131 N 0.62933 0.17318 -0.16127
 N132 N 0.62449 0.16015 -0.16842
 C133 C 0.61093 0.16327 -0.17640
 C134 C 0.60726 0.17917 -0.17414
 C135 C 0.61921 0.18507 -0.16455
 H136 H 0.60458 0.15483 -0.18377
 H137 H 0.62064 0.19719 -0.16050
 Cu138 Cu 0.63741 0.14099 -0.16755
 Cu139 Cu 0.64885 0.17410 -0.14903
 Cu140 Cu 0.66509 0.13767 -0.13870
 N141 N 0.65408 0.12499 -0.16875
 N142 N 0.66445 0.12313 -0.15709
 C143 C 0.67438 0.11115 -0.16093
 C144 C 0.67021 0.10551 -0.17599
 C145 C 0.65727 0.11457 -0.18058
 H146 H 0.68436 0.10742 -0.15368
 H147 H 0.65078 0.11378 -0.19176
 N148 N 0.66956 0.15736 -0.12663
 N149 N 0.66389 0.17126 -0.13127
 C150 C 0.66939 0.18263 -0.12146
 C151 C 0.67899 0.17565 -0.11007
 C152 C 0.67889 0.15956 -0.11364
 H153 H 0.66652 0.19512 -0.12245
 H154 H 0.68537 0.15026 -0.10751
 H155 H 0.66079 0.15363 -0.15599
 H156 H 0.64434 0.15167 -0.14113
 N157 N 0.12719 0.67043 -0.15751
 N158 N 0.12946 0.66208 -0.17066
 C159 C 0.11812 0.66566 -0.18139
 C160 C 0.10818 0.67687 -0.17466
 C161 C 0.11423 0.67964 -0.15946
 H162 H 0.11746 0.66088 -0.19343
 H163 H 0.11001 0.68827 -0.15084
 Cu164 Cu 0.14745 0.64801 -0.17337
 Cu165 Cu 0.14240 0.66994 -0.13987
 Cu166 Cu 0.17124 0.64073 -0.14185
 N167 N 0.16114 0.62951 -0.17265
 N168 N 0.17012 0.62634 -0.16014
 C169 C 0.17865 0.61312 -0.16318
 C170 C 0.17482 0.60787 -0.17845
 C171 C 0.16371 0.61855 -0.18410
 H172 H 0.18751 0.60814 -0.15525
 H173 H 0.15819 0.61855 -0.19583
 N174 N 0.17030 0.65656 -0.12446
 N175 N 0.15910 0.66749 -0.12345
 C176 C 0.16256 0.67741 -0.11124
 C177 C 0.17671 0.67259 -0.10444
 C178 C 0.18127 0.65935 -0.11308
 H179 H 0.15601 0.68808 -0.10834
 H180 H 0.19224 0.65283 -0.11175
 H181 H 0.16198 0.66129 -0.15211
 H182 H 0.14741 0.64629 -0.14434
 N183 N 0.12586 0.17021 0.34090
 N184 N 0.12873 0.16104 0.32846
 C185 C 0.11815 0.16419 0.31681
 C186 C 0.10807 0.17593 0.32226
 C187 C 0.11324 0.17950 0.33761
 H188 H 0.11796 0.15857 0.30513
 H189 H 0.10856 0.18856 0.34552
 Cu190 Cu 0.14629 0.14622 0.32808
 Cu191 Cu 0.13967 0.17012 0.35966
 Cu192 Cu 0.16689 0.13930 0.36201
 N193 N 0.15934 0.12749 0.33066
 N194 N 0.16721 0.12449 0.34396
 C195 C 0.17618 0.11139 0.34175
 C196 C 0.17377 0.10605 0.32620
 C197 C 0.16300 0.11650 0.31958
 H198 H 0.18459 0.10673 0.35036
 H199 H 0.15872 0.11652 0.30732
 N200 N 0.16481 0.15577 0.37875
 N201 N 0.15478 0.16778 0.37755
 C202 C 0.15802 0.17844 0.38913
 C203 C 0.17061 0.17284 0.39808
 C204 C 0.17457 0.15841 0.39128
 H205 H 0.15237 0.18992 0.39031
 H206 H 0.18471 0.15114 0.39433
 H207 H 0.15986 0.15962 0.34993
 H208 H 0.14379 0.14598 0.35709
 N209 N 0.62425 0.33185 0.65890
 N210 N 0.62692 0.34103 0.67137
 C211 C 0.61605 0.33799 0.68279
 C212 C 0.60602 0.32632 0.67714
 C213 C 0.61151 0.32269 0.66193
 H214 H 0.61571 0.34351 0.69452
 H215 H 0.60702 0.31358 0.65399
 Cu216 Cu 0.64482 0.35545 0.67210
 Cu217 Cu 0.63850 0.33145 0.64055
 Cu218 Cu 0.66680 0.36115 0.63870
 N219 N 0.65889 0.37348 0.66980
 N220 N 0.66725 0.37601 0.65671
 C221 C 0.67668 0.38874 0.65906
 C222 C 0.67405 0.39434 0.67447
 C223 C 0.66269 0.38442 0.68089
 H224 H 0.68544 0.39299 0.65060
 H225 H 0.65803 0.38476 0.69300
 N226 N 0.66446 0.34471 0.62193
 N227 N 0.65401 0.33310 0.62301
 C228 C 0.65696 0.32235 0.61144
 C229 C 0.66977 0.32749 0.60256
 C230 C 0.67420 0.34175 0.60943
 H231 H 0.65086 0.31113 0.61012
 H232 H 0.68455 0.34868 0.60639
 H233 H 0.65877 0.34140 0.65082
 H234 H 0.64343 0.35557 0.64300
 N235 N 0.62618 0.83144 1.15573
 N236 N 0.62882 0.83948 1.16901
 C237 C 0.61791 0.83553 1.18007
 C238 C 0.60785 0.82443 1.17345
 C239 C 0.61336 0.82211 1.15793
 H240 H 0.61763 0.83998 1.19226
 H241 H 0.60896 0.81361 1.14929
 Cu242 Cu 0.64678 0.85358 1.17145
 Cu243 Cu 0.64101 0.83215 1.13768
 Cu244 Cu 0.67009 0.86103 1.13964
 N245 N 0.66058 0.87196 1.17074
 N246 N 0.66930 0.87521 1.15807
 C247 C 0.67799 0.88829 1.16106
 C248 C 0.67458 0.89336 1.17647
 C249 C 0.66351 0.88274 1.18228
 H250 H 0.68675 0.89323 1.15299
 H251 H 0.65831 0.88263 1.19417
 N252 N 0.66888 0.84547 1.12210
 N253 N 0.65750 0.83477 1.12098
 C254 C 0.66084 0.82496 1.10862
 C255 C 0.67508 0.82960 1.10189
 C256 C 0.67983 0.84261 1.11071
 H257 H 0.65418 0.81440 1.10564
 H258 H 0.69094 0.84889 1.10952
 H259 H 0.66072 0.84027 1.14975
 H260 H 0.64617 0.85556 1.14245
 N261 N 0.12629 0.33102 1.15868
 N262 N 0.12871 0.33959 1.17165
 C263 C 0.11764 0.33605 1.18269
 C264 C 0.10770 0.32467 1.17637
 C265 C 0.11348 0.32173 1.16106
 H266 H 0.11707 0.34108 1.19464
 H267 H 0.10913 0.31299 1.15263
 Cu268 Cu 0.14645 0.35406 1.17367
 Cu269 Cu 0.14115 0.33142 1.14061
 Cu270 Cu 0.16971 0.36087 1.14171
 N271 N 0.16015 0.37252 1.17251
 N272 N 0.16892 0.37546 1.15979
 C273 C 0.17768 0.38854 1.16252
 C274 C 0.17427 0.39397 1.17781
 C275 C 0.16310 0.38354 1.18381
 H276 H 0.18650 0.39325 1.15438
 H277 H 0.15793 0.38366 1.19571
 N278 N 0.16862 0.34493 1.12450
 N279 N 0.15756 0.33387 1.12378
 C280 C 0.16099 0.32393 1.11154
 C281 C 0.17498 0.32889 1.10448
 C282 C 0.17946 0.34221 1.11297
 H283 H 0.15455 0.31317 1.10880
 H284 H 0.19031 0.34884 1.11142
 H285 H 0.16068 0.34029 1.15241
 H286 H 0.14588 0.35505 1.14458
 N287 N 0.12518 0.83139 0.65722
 N288 N 0.12794 0.83950 0.67041
 C289 C 0.11673 0.83612 0.68134
 C290 C 0.10638 0.82528 0.67471
 C291 C 0.11203 0.82253 0.65934
 H292 H 0.11649 0.84067 0.69349
 H293 H 0.10750 0.81404 0.65076
 Cu294 Cu 0.14658 0.85264 0.67302
 Cu295 Cu 0.14017 0.83138 0.63937
 Cu296 Cu 0.17047 0.85900 0.64134
 N297 N 0.16123 0.87033 0.67240
 N298 N 0.17026 0.87320 0.65986
 C299 C 0.17941 0.88595 0.66299
 C300 C 0.17593 0.89119 0.67835
 C301 C 0.16437 0.88101 0.68396
 H302 H 0.18839 0.89062 0.65500
 H303 H 0.15888 0.88120 0.69571
 N304 N 0.16855 0.84341 0.62377
 N305 N 0.15675 0.83318 0.62276
 C306 C 0.15966 0.82305 0.61057
 C307 C 0.17408 0.82697 0.60378
 C308 C 0.17938 0.83993 0.61241
 H309 H 0.15258 0.81273 0.60776
 H310 H 0.19076 0.84569 0.61117
 H311 H 0.16029 0.83885 0.65146
 H312 H 0.14643 0.85468 0.64400
 N313 N 0.37424 0.67004 0.66146
 N314 N 0.37110 0.66146 0.67427
 C315 C 0.38200 0.66444 0.68565
 C316 C 0.39259 0.67541 0.67961
 C317 C 0.38736 0.67872 0.66420
 H318 H 0.38205 0.65927 0.69756
 H319 H 0.39232 0.68730 0.65593
 Cu320 Cu 0.35281 0.64765 0.67535
 Cu321 Cu 0.36000 0.67036 0.64304
 Cu322 Cu 0.33133 0.64097 0.64184
 N323 N 0.33908 0.62938 0.67335
 N324 N 0.33098 0.62637 0.66020
 C325 C 0.32213 0.61324 0.66264
 C326 C 0.32486 0.60789 0.67816
 C327 C 0.33567 0.61840 0.68455
 H328 H 0.31377 0.60840 0.65410
 H329 H 0.34038 0.61830 0.69664
 N330 N 0.33370 0.65725 0.62479
 N331 N 0.34440 0.66867 0.62556
 C332 C 0.34162 0.67927 0.61377
 C333 C 0.32864 0.67427 0.60508
 C334 C 0.32394 0.66022 0.61229
 H335 H 0.34797 0.69030 0.61217
 H336 H 0.31346 0.65342 0.60943
 H337 H 0.33936 0.66105 0.65336
 H338 H 0.35465 0.64641 0.64634
 N339 N 0.37448 0.16857 1.15880
 N340 N 0.37190 0.15932 1.17126
 C341 C 0.38264 0.16254 1.18274
 C342 C 0.39251 0.17439 1.17714
 C343 C 0.38706 0.17793 1.16188
 H344 H 0.38294 0.15705 1.19450
 H345 H 0.39137 0.18719 1.15401
 Cu346 Cu 0.35419 0.14466 1.17195
 Cu347 Cu 0.36007 0.16905 1.14057
 Cu348 Cu 0.33187 0.13927 1.13875
 N349 N 0.34037 0.12644 1.16950
 N350 N 0.33181 0.12409 1.15651
 C351 C 0.32253 0.11124 1.15880
 C352 C 0.32545 0.10535 1.17406
 C353 C 0.33685 0.11524 1.18044
 H354 H 0.31364 0.10710 1.15044
 H355 H 0.34168 0.11472 1.19247
 N356 N 0.33384 0.15600 1.12220
 N357 N 0.34437 0.16754 1.12319
 C358 C 0.34120 0.17849 1.11184
 C359 C 0.32814 0.17358 1.10324
 C360 C 0.32381 0.15923 1.11001
 H361 H 0.34729 0.18971 1.11057
 H362 H 0.31334 0.15240 1.10715
 H363 H 0.33997 0.15895 1.15101
 H364 H 0.35527 0.14493 1.14286
 N365 N 0.87449 0.66909 1.15967
 N366 N 0.87176 0.65979 1.17206
 C367 C 0.88260 0.66257 1.18351
 C368 C 0.89274 0.67420 1.17803
 C369 C 0.88732 0.67810 1.16282
 H370 H 0.88288 0.65684 1.19515
 H371 H 0.89192 0.68727 1.15499
 Cu372 Cu 0.85392 0.64544 1.17279
 Cu373 Cu 0.86013 0.66960 1.14129
 Cu374 Cu 0.83231 0.63937 1.13943
 N375 N 0.84061 0.62696 1.17036
 N376 N 0.83231 0.62430 1.15728
 C377 C 0.82327 0.61129 1.15958
 C378 C 0.82611 0.60565 1.17495
 C379 C 0.83720 0.61583 1.18139
 H380 H 0.81455 0.60690 1.15117
 H381 H 0.84185 0.61559 1.19350
 N382 N 0.83416 0.65604 1.12283
 N383 N 0.84441 0.66784 1.12384
 C384 C 0.84102 0.67868 1.11243
 C385 C 0.82812 0.67338 1.10376
 C386 C 0.82411 0.65898 1.11059
 H387 H 0.84686 0.69003 1.11112
 H388 H 0.81383 0.65189 1.10772
 H389 H 0.84004 0.65943 1.15146
 H390 H 0.85565 0.64553 1.14373
 N391 N 0.87589 0.16678 0.65798
 N392 N 0.87451 0.15601 0.66936
 C393 C 0.88549 0.15873 0.68076
 C394 C 0.89438 0.17170 0.67611
 C395 C 0.88808 0.17648 0.66154
 H396 H 0.88658 0.15210 0.69188
 H397 H 0.89135 0.18692 0.65468
 Cu398 Cu 0.85787 0.14006 0.66917
 Cu399 Cu 0.86027 0.16899 0.64084
 Cu400 Cu 0.82812 0.14362 0.64251
 N401 N 0.83960 0.12598 0.66963
 N402 N 0.82778 0.12781 0.65951
 C403 C 0.81631 0.11731 0.66306
 C404 C 0.82123 0.10840 0.67609
 C405 C 0.83607 0.11416 0.67998
 H406 H 0.80510 0.11642 0.65681
 H407 H 0.84348 0.11041 0.68992
 N408 N 0.83043 0.16018 0.62605
 N409 N 0.84293 0.16953 0.62496
 C410 C 0.84057 0.18003 0.61291
 C411 C 0.82582 0.17718 0.60628
 C412 C 0.81977 0.16454 0.61487
 H413 H 0.84848 0.18967 0.60985
 H414 H 0.80813 0.15936 0.61346
 H415 H 0.84220 0.15994 0.65492
 H416 H 0.85252 0.14582 0.64097
 N417 N 0.33030 0.37379 0.65670
 N418 N 0.33931 0.37139 0.66935
 C419 C 0.33602 0.38244 0.68052
 C420 C 0.32434 0.39231 0.67455
 C421 C 0.32097 0.38653 0.65937
 H422 H 0.34134 0.38296 0.69233
 H423 H 0.31189 0.39078 0.65127
 Cu424 Cu 0.35378 0.35354 0.67081
 Cu425 Cu 0.33030 0.35902 0.63869
 Cu426 Cu 0.36064 0.33128 0.63787
 N427 N 0.37222 0.33995 0.66903
 N428 N 0.37530 0.33166 0.65601
 C429 C 0.38833 0.32271 0.65863
 C430 C 0.39350 0.32552 0.67415
 C431 C 0.38303 0.33651 0.68037
 H432 H 0.39304 0.31404 0.65030
 H433 H 0.38294 0.34119 0.69247
 N434 N 0.34426 0.33271 0.62097
 N435 N 0.33243 0.34298 0.62162
 C436 C 0.32173 0.33926 0.61026
 C437 C 0.32711 0.32610 0.60200
 C438 C 0.34147 0.32230 0.60900
 H439 H 0.31036 0.34501 0.60878
 H440 H 0.34858 0.31188 0.60651
 H441 H 0.34046 0.33908 0.64951
 H442 H 0.35436 0.35468 0.64174
 N443 N 0.33067 0.87444 0.16129
 N444 N 0.33920 0.87078 0.17397
 C445 C 0.33658 0.88156 0.18559
 C446 C 0.32590 0.89263 0.17982
 C447 C 0.32241 0.88781 0.16434
 H448 H 0.34169 0.88115 0.19750
 H449 H 0.31385 0.89312 0.15628
 Cu450 Cu 0.35232 0.85190 0.17465
 Cu451 Cu 0.32949 0.86031 0.14283
 Cu452 Cu 0.35744 0.83019 0.14092
 N453 N 0.37004 0.83751 0.17207
 N454 N 0.37234 0.82916 0.15892
 C455 C 0.38526 0.81989 0.16097
 C456 C 0.39125 0.82267 0.17622
 C457 C 0.38131 0.83391 0.18286
 H458 H 0.38962 0.81138 0.15229
 H459 H 0.38203 0.83884 0.19484
 N460 N 0.34100 0.83341 0.12425
 N461 N 0.33018 0.84472 0.12528
 C462 C 0.31926 0.84254 0.11373
 C463 C 0.32345 0.82934 0.10489
 C464 C 0.33734 0.82386 0.11178
 H465 H 0.30856 0.84949 0.11237
 H466 H 0.34358 0.81304 0.10872
 H467 H 0.33806 0.83912 0.15291
 H468 H 0.35323 0.85375 0.14565
 N469 N 0.83044 0.37406 0.16003
 N470 N 0.83963 0.37087 0.17237
 C471 C 0.83711 0.38170 0.18396
 C472 C 0.82581 0.39230 0.17856
 C473 C 0.82183 0.38716 0.16331
 H474 H 0.84281 0.38167 0.19561
 H475 H 0.81284 0.39214 0.15552
 Cu476 Cu 0.85352 0.35253 0.17272
 Cu477 Cu 0.82937 0.35992 0.14154
 Cu478 Cu 0.85878 0.33131 0.13881
 N479 N 0.87158 0.33861 0.16983
 N480 N 0.87396 0.33057 0.15651
 C481 C 0.88682 0.32120 0.15842
 C482 C 0.89264 0.32352 0.17379
 C483 C 0.88272 0.33466 0.18064
 H484 H 0.89101 0.31264 0.14970
 H485 H 0.88320 0.33905 0.19284
 N486 N 0.84202 0.33392 0.12245
 N487 N 0.83046 0.34442 0.12387
 C488 C 0.81945 0.34155 0.11255
 C489 C 0.82439 0.32875 0.10348
 C490 C 0.83877 0.32424 0.10999
 H491 H 0.80824 0.34772 0.11151
 H492 H 0.84564 0.31387 0.10673
 H493 H 0.83916 0.33928 0.15131
 H494 H 0.85333 0.35472 0.14371
 N495 N 0.82982 0.87439 0.65814
 N496 N 0.83875 0.87262 0.67097
 C497 C 0.83514 0.88394 0.68172
 C498 C 0.82327 0.89335 0.67543
 C499 C 0.82014 0.88701 0.66038
 H500 H 0.84040 0.88498 0.69353
 H501 H 0.81107 0.89084 0.65205
 Cu502 Cu 0.85350 0.85515 0.67340
 Cu503 Cu 0.83063 0.85908 0.64043
 Cu504 Cu 0.86079 0.83106 0.64224
 N505 N 0.87209 0.84166 0.67281
 N506 N 0.87526 0.83252 0.66042
 C507 C 0.88837 0.82392 0.66361
 C508 C 0.89353 0.82783 0.67889
 C509 C 0.88295 0.83911 0.68436
 H510 H 0.89323 0.81483 0.65585
 H511 H 0.88286 0.84463 0.69608
 N512 N 0.84488 0.83149 0.62495
 N513 N 0.83357 0.84233 0.62397
 C514 C 0.82382 0.83848 0.61173
 C515 C 0.82915 0.82446 0.60493
 C516 C 0.84248 0.82039 0.61359
 H517 H 0.81298 0.84469 0.60876
 H518 H 0.84940 0.80965 0.61223
 H519 H 0.84012 0.83995 0.65261
 H520 H 0.85439 0.85487 0.64428
 N521 N 0.66943 0.62545 0.65874
 N522 N 0.66024 0.62856 0.67110
 C523 C 0.66282 0.61770 0.68268
 C524 C 0.67418 0.60718 0.67726
 C525 C 0.67812 0.61238 0.66199
 H526 H 0.65719 0.61771 0.69436
 H527 H 0.68719 0.60752 0.65423
 Cu528 Cu 0.64643 0.64694 0.67161
 Cu529 Cu 0.67060 0.63981 0.64039
 Cu530 Cu 0.64165 0.66897 0.63810
 N531 N 0.62851 0.66106 0.66884
 N532 N 0.62637 0.66953 0.65573
 C533 C 0.61359 0.67898 0.65778
 C534 C 0.60755 0.67623 0.67301
 C535 C 0.61727 0.66478 0.67962
 H536 H 0.60957 0.68782 0.64926
 H537 H 0.61659 0.66001 0.69168
 N538 N 0.65844 0.66644 0.62173
 N539 N 0.66970 0.65557 0.62290
 C540 C 0.68075 0.65837 0.61158
 C541 C 0.67619 0.67153 0.60281
 C542 C 0.66196 0.67630 0.60947
 H543 H 0.69178 0.65191 0.61039
 H544 H 0.65538 0.68693 0.60644
 H545 H 0.66107 0.66040 0.65047
 H546 H 0.64667 0.64537 0.64255
 N547 N 0.66789 0.12587 0.15737
 N548 N 0.65938 0.12873 0.17030
 C549 C 0.66276 0.11781 0.18158
 C550 C 0.67400 0.10755 0.17545
 C551 C 0.67699 0.11294 0.16003
 H552 H 0.65785 0.11767 0.19360
 H553 H 0.68577 0.10837 0.15175
 Cu554 Cu 0.64563 0.14707 0.17201
 Cu555 Cu 0.66799 0.14047 0.13914
 Cu556 Cu 0.63985 0.17051 0.13986
 N557 N 0.62775 0.16147 0.17070
 N558 N 0.62522 0.17045 0.15802
 C559 C 0.61236 0.17960 0.16072
 C560 C 0.60667 0.17617 0.17594
 C561 C 0.61671 0.16462 0.18191
 H562 H 0.60791 0.18857 0.15256
 H563 H 0.61622 0.15920 0.19369
 N564 N 0.65580 0.16843 0.12265
 N565 N 0.66620 0.15669 0.12208
 C566 C 0.67635 0.15937 0.10986
 C567 C 0.67227 0.17355 0.10259
 C568 C 0.65919 0.17896 0.11096
 H569 H 0.68674 0.15228 0.10729
 H570 H 0.65322 0.19022 0.10926
 H571 H 0.65987 0.16065 0.15063
 H572 H 0.64455 0.14649 0.14291
 N573 N 0.16978 0.62663 0.15657
 N574 N 0.16111 0.62895 0.16950
 C575 C 0.16478 0.61791 0.18058
 C576 C 0.17634 0.60811 0.17428
 C577 C 0.17923 0.61391 0.15899
 H578 H 0.15981 0.61735 0.19255
 H579 H 0.18815 0.60976 0.15065
 Cu580 Cu 0.14658 0.64671 0.17141
 Cu581 Cu 0.16956 0.64164 0.13866
 Cu582 Cu 0.14027 0.67050 0.13958
 N583 N 0.12828 0.66061 0.17017
 N584 N 0.12558 0.66973 0.15763
 C585 C 0.11263 0.67871 0.16049
 C586 C 0.10705 0.67501 0.17567
 C587 C 0.11723 0.66349 0.18144
 H588 H 0.10814 0.68783 0.15254
 H589 H 0.11694 0.65804 0.19322
 N590 N 0.15635 0.66928 0.12247
 N591 N 0.16736 0.65812 0.12189
 C592 C 0.17749 0.66150 0.10983
 C593 C 0.17268 0.67553 0.10266
 C594 C 0.15926 0.68010 0.11094
 H595 H 0.18826 0.65500 0.10727
 H596 H 0.15270 0.69103 0.10930
 H597 H 0.16050 0.66122 0.15045
 H598 H 0.14586 0.64657 0.14228
 N599 N 0.16701 0.12374 0.65697
 N600 N 0.15848 0.12634 0.66994
 C601 C 0.16216 0.11544 0.68115
 C602 C 0.17361 0.10547 0.67494
 C603 C 0.17642 0.11101 0.65952
 H604 H 0.15733 0.11515 0.69319
 H605 H 0.18529 0.10670 0.65121
 Cu606 Cu 0.14429 0.14436 0.67193
 Cu607 Cu 0.16676 0.13851 0.63886
 Cu608 Cu 0.13804 0.16789 0.63996
 N609 N 0.12620 0.15855 0.67074
 N610 N 0.12348 0.16746 0.65805
 C611 C 0.11066 0.17661 0.66083
 C612 C 0.10519 0.17332 0.67613
 C613 C 0.11531 0.16182 0.68208
 H614 H 0.10621 0.18564 0.65274
 H615 H 0.11506 0.15662 0.69397
 N616 N 0.15390 0.16636 0.62275
 N617 N 0.16456 0.15488 0.62197
 C618 C 0.17461 0.15801 0.60977
 C619 C 0.17016 0.17224 0.60280
 C620 C 0.15702 0.17719 0.61130
 H621 H 0.18518 0.15124 0.60707
 H622 H 0.15085 0.18837 0.60987
 H623 H 0.15834 0.15830 0.65067
 H624 H 0.14328 0.14386 0.64286
 N625 N 0.33340 0.62540 0.33983
 N626 N 0.34364 0.62763 0.32812
 C627 C 0.34131 0.61658 0.31670
 C628 C 0.32905 0.60687 0.32151
 C629 C 0.32431 0.61271 0.33629
 H630 H 0.34766 0.61593 0.30543
 H631 H 0.31436 0.60868 0.34339
 Cu632 Cu 0.35861 0.64512 0.32815
 Cu633 Cu 0.33112 0.64055 0.35741
 Cu634 Cu 0.35782 0.67179 0.35818
 N635 N 0.37451 0.66171 0.32999
 N636 N 0.37394 0.67233 0.34153
 C637 C 0.38553 0.68307 0.33923
 C638 C 0.39390 0.67883 0.32563
 C639 C 0.38666 0.66518 0.32008
 H640 H 0.38754 0.69339 0.34669
 H641 H 0.38965 0.65870 0.30928
 N642 N 0.34075 0.66930 0.37406
 N643 N 0.33071 0.65729 0.37404
 C644 C 0.31988 0.65962 0.38576
 C645 C 0.32329 0.67380 0.39336
 C646 C 0.33656 0.67959 0.38567
 H647 H 0.30975 0.65209 0.38799
 H648 H 0.34231 0.69083 0.38796
 H649 H 0.34031 0.65979 0.34541
 H650 H 0.35457 0.64726 0.35706
 N651 N 0.33085 0.12536 0.84397
 N652 N 0.33886 0.12777 0.83063
 C653 C 0.33512 0.11650 0.81989
 C654 C 0.32412 0.10648 0.82676
 C655 C 0.32166 0.11237 0.84211
 H656 H 0.33954 0.11603 0.80770
 H657 H 0.31317 0.10811 0.85084
 Cu658 Cu 0.35232 0.14608 0.82752
 Cu659 Cu 0.33152 0.14064 0.86161
 Cu660 Cu 0.35971 0.17041 0.85856
 N661 N 0.37040 0.16018 0.82759
 N662 N 0.37364 0.16944 0.83985
 C663 C 0.38659 0.17815 0.83633
 C664 C 0.39155 0.17411 0.82100
 C665 C 0.38101 0.16271 0.81583
 H666 H 0.39160 0.18721 0.84401
 H667 H 0.38089 0.15693 0.80422
 N668 N 0.34439 0.16915 0.87642
 N669 N 0.33404 0.15749 0.87792
 C670 C 0.32442 0.16067 0.89045
 C671 C 0.32878 0.17512 0.89693
 C672 C 0.34147 0.18016 0.88777
 H673 H 0.31417 0.15371 0.89378
 H674 H 0.34750 0.19144 0.88875
 H675 H 0.33921 0.16045 0.84906
 H676 H 0.35482 0.14637 0.85652
 N677 N 0.83137 0.62529 0.84192
 N678 N 0.83947 0.62831 0.82877
 C679 C 0.83582 0.61756 0.81746
 C680 C 0.82484 0.60719 0.82378
 C681 C 0.82226 0.61235 0.83938
 H682 H 0.84044 0.61756 0.80533
 H683 H 0.81380 0.60761 0.84787
 Cu684 Cu 0.85335 0.64645 0.82682
 Cu685 Cu 0.83191 0.63977 0.86031
 Cu686 Cu 0.86077 0.66904 0.85907
 N687 N 0.87168 0.66015 0.82778
 N688 N 0.87494 0.66873 0.84054
 C689 C 0.88797 0.67751 0.83754
 C690 C 0.89295 0.67426 0.82202
 C691 C 0.88236 0.66321 0.81622
 H692 H 0.89294 0.68618 0.84567
 H693 H 0.88220 0.65811 0.80429
 N694 N 0.84515 0.66733 0.87661
 N695 N 0.83442 0.65594 0.87739
 C696 C 0.82452 0.65903 0.88974
 C697 C 0.82911 0.67314 0.89683
 C698 C 0.84221 0.67805 0.88823
 H699 H 0.81394 0.65232 0.89248
 H700 H 0.84848 0.68914 0.88970
 H701 H 0.84007 0.65991 0.84884
 H702 H 0.85526 0.64516 0.85582
 N703 N 0.82933 0.12628 0.34264
 N704 N 0.84055 0.12565 0.33167
 C705 C 0.83715 0.11391 0.32120
 C706 C 0.82296 0.10706 0.32582
 C707 C 0.81834 0.11519 0.33943
 H708 H 0.84401 0.11107 0.31057
 H709 H 0.80760 0.11338 0.34627
 Cu710 Cu 0.85754 0.14134 0.33161
 Cu711 Cu 0.82907 0.14196 0.35972
 Cu712 Cu 0.85888 0.17017 0.35935
 N713 N 0.87468 0.15685 0.33194
 N714 N 0.87551 0.16782 0.34318
 C715 C 0.88770 0.17764 0.33988
 C716 C 0.89477 0.17258 0.32577
 C717 C 0.88625 0.15937 0.32109
 H718 H 0.89054 0.18825 0.34659
 H719 H 0.88784 0.15267 0.31010
 N720 N 0.84244 0.16935 0.37627
 N721 N 0.83090 0.15876 0.37604
 C722 C 0.82051 0.16212 0.38780
 C723 C 0.82574 0.17538 0.39591
 C724 C 0.83972 0.17966 0.38840
 H725 H 0.80953 0.15585 0.38993
 H726 H 0.84678 0.19006 0.39095
 H727 H 0.84054 0.15932 0.34695
 H728 H 0.85314 0.14648 0.35999
 N729 N 0.66876 0.37447 0.34086
 N730 N 0.66110 0.37111 0.32753
 C731 C 0.66453 0.38202 0.31629
 C732 C 0.67491 0.39284 0.32285
 C733 C 0.67736 0.38778 0.33850
 H734 H 0.66024 0.38180 0.30405
 H735 H 0.68545 0.39285 0.34716
 Cu736 Cu 0.64816 0.35236 0.32531
 Cu737 Cu 0.66845 0.35998 0.35922
 Cu738 Cu 0.64096 0.32946 0.35752
 N739 N 0.63025 0.33815 0.32607
 N740 N 0.62705 0.32940 0.33876
 C741 C 0.61405 0.32060 0.33568
 C742 C 0.60901 0.32407 0.32022
 C743 C 0.61956 0.33521 0.31451
 H744 H 0.60900 0.31195 0.34382
 H745 H 0.61958 0.34063 0.30271
 N746 N 0.65625 0.33180 0.37530
 N747 N 0.66635 0.34374 0.37625
 C748 C 0.67616 0.34121 0.38878
 C749 C 0.67219 0.32690 0.39586
 C750 C 0.65952 0.32127 0.38704
 H751 H 0.68631 0.34848 0.39168
 H752 H 0.65379 0.30987 0.38846
 H753 H 0.66140 0.33940 0.34765
 H754 H 0.64538 0.35346 0.35423
 N755 N 0.66928 0.87477 0.84429
 N756 N 0.66029 0.87266 0.83158
 C757 C 0.66385 0.88373 0.82050
 C758 C 0.67566 0.89332 0.82660
 C759 C 0.67882 0.88736 0.84176
 H760 H 0.65862 0.88446 0.80865
 H761 H 0.68796 0.89133 0.84992
 Cu762 Cu 0.64557 0.85506 0.82997
 Cu763 Cu 0.66919 0.85974 0.86208
 Cu764 Cu 0.63911 0.83184 0.86240
 N765 N 0.62726 0.84126 0.83153
 N766 N 0.62443 0.83248 0.84430
 C767 C 0.61159 0.82338 0.84149
 C768 C 0.60623 0.82662 0.82611
 C769 C 0.61641 0.83803 0.82019
 H770 H 0.60712 0.81436 0.84956
 H771 H 0.61631 0.84308 0.80823
 N772 N 0.65540 0.83309 0.87938
 N773 N 0.66710 0.84348 0.87894
 C774 C 0.67773 0.83974 0.89038
 C775 C 0.67244 0.82645 0.89847
 C776 C 0.65820 0.82259 0.89130
 H777 H 0.68902 0.84559 0.89204
 H778 H 0.65118 0.81211 0.89366
 H779 H 0.65911 0.84001 0.85082
 H780 H 0.64511 0.85531 0.85907
 N781 N 0.16821 0.37404 0.84370
 N782 N 0.15928 0.37218 0.83088
 C783 C 0.16296 0.38339 0.82000
 C784 C 0.17483 0.39279 0.82625
 C785 C 0.17788 0.38659 0.84136
 H786 H 0.15780 0.38432 0.80814
 H787 H 0.18703 0.39036 0.84961
 Cu788 Cu 0.14453 0.35467 0.82866
 Cu789 Cu 0.16785 0.35872 0.86137
 Cu790 Cu 0.13825 0.33033 0.85996
 N791 N 0.12616 0.34084 0.82965
 N792 N 0.12345 0.33163 0.84211
 C793 C 0.11048 0.32277 0.83922
 C794 C 0.10490 0.32657 0.82408
 C795 C 0.11512 0.33807 0.81835
 H796 H 0.10602 0.31357 0.84709
 H797 H 0.11485 0.34357 0.80660
 N798 N 0.15438 0.33089 0.87697
 N799 N 0.16544 0.34194 0.87785
 C800 C 0.17544 0.33821 0.88993
 C801 C 0.17053 0.32405 0.89670
 C802 C 0.15719 0.31975 0.88822
 H803 H 0.18621 0.34458 0.89273
 H804 H 0.15056 0.30885 0.88959
 H805 H 0.15859 0.33962 0.84916
 H806 H 0.14417 0.35429 0.85778
 N807 N 0.16907 0.87368 0.34062
 N808 N 0.16024 0.87042 0.32804
 C809 C 0.16304 0.88118 0.31643
 C810 C 0.17413 0.89184 0.32206
 C811 C 0.17771 0.88679 0.33748
 H812 H 0.15767 0.88108 0.30463
 H813 H 0.18648 0.89181 0.34546
 Cu814 Cu 0.14635 0.85212 0.32750
 Cu815 Cu 0.16989 0.85949 0.35915
 Cu816 Cu 0.14090 0.83049 0.36115
 N817 N 0.12827 0.83821 0.33013
 N818 N 0.12590 0.82993 0.34331
 C819 C 0.11296 0.82075 0.34132
 C820 C 0.10703 0.82348 0.32606
 C821 C 0.11700 0.83463 0.31933
 H822 H 0.10868 0.81216 0.34996
 H823 H 0.11641 0.83936 0.30726
 N824 N 0.15738 0.83304 0.37776
 N825 N 0.16867 0.84385 0.37676
 C826 C 0.17942 0.84112 0.38840
 C827 C 0.17458 0.82809 0.39722
 C828 C 0.16054 0.82331 0.39023
 H829 H 0.19040 0.84757 0.38984
 H830 H 0.15383 0.81278 0.39324
 H831 H 0.16060 0.83890 0.34907
 H832 H 0.14603 0.85403 0.35655
 C833 C 0.24976 1.04316 0.25039
 C834 C 0.25889 1.03488 0.23920
 C835 C 0.25808 1.01826 0.23867
 C836 C 0.24931 1.00965 0.25034
 C837 C 0.24068 1.01844 0.26196
 C838 C 0.24033 1.03509 0.26150
 C839 C 0.24925 0.99173 0.25043
 C840 C 0.23734 0.98307 0.25864
 C841 C 0.23749 0.96640 0.25889
 C842 C 0.24935 0.95817 0.25064
 C843 C 0.26114 0.96636 0.24230
 C844 C 0.26120 0.98300 0.24235
 H845 H 0.24996 1.05605 0.25042
 H846 H 0.26460 1.01230 0.22929
 H847 H 0.23395 1.01260 0.27127
 H848 H 0.22760 0.98900 0.26455
 H849 H 0.24940 0.94529 0.25071
 H850 H 0.27094 0.98887 0.23640
 C851 C 0.24897 0.54136 0.74918
 C852 C 0.26065 0.53320 0.74063
 C853 C 0.26103 0.51654 0.74106
 C854 C 0.24954 0.50779 0.74983
 C855 C 0.23777 0.51649 0.75824
 C856 C 0.23760 0.53313 0.75805
 C857 C 0.24981 0.48983 0.75023
 C858 C 0.24115 0.48120 0.76198
 C859 C 0.24074 0.46454 0.76175
 C860 C 0.25018 0.45629 0.75081
 C861 C 0.25942 0.46438 0.73958
 C862 C 0.25867 0.48101 0.73880
 H863 H 0.24879 0.55425 0.74899
 H864 H 0.27068 0.51072 0.73490
 H865 H 0.22834 0.51061 0.76465
 H866 H 0.23437 0.48712 0.77121
 H867 H 0.25027 0.44340 0.75100
 H868 H 0.26528 0.48678 0.72936
 C869 C 0.75326 -0.04161 0.24538
 C870 C 0.76488 -0.03336 0.25387
 C871 C 0.76462 -0.01673 0.25415
 C872 C 0.75240 -0.00806 0.24642
 C873 C 0.74071 -0.01679 0.23798
 C874 C 0.74122 -0.03343 0.23737
 C875 C 0.75138 0.00978 0.24783
 C876 C 0.74162 0.01883 0.23740
 C877 C 0.73917 0.03512 0.23997
 C878 C 0.74728 0.04278 0.25238
 C879 C 0.75797 0.03444 0.26202
 C880 C 0.75973 0.01802 0.26001
 H881 H 0.75346 -0.05449 0.24519
 H882 H 0.77417 -0.01083 0.26033
 H883 H 0.73073 -0.01097 0.23239
 H884 H 0.73561 0.01337 0.22738
 H885 H 0.74581 0.05546 0.25410
 H886 H 0.76732 0.01191 0.26841
 C887 C 0.74987 0.45710 0.75021
 C888 C 0.75910 0.46527 0.76137
 C889 C 0.75824 0.48187 0.76214
 C890 C 0.74927 0.49065 0.75075
 C891 C 0.74062 0.48195 0.73906
 C892 C 0.74033 0.46529 0.73931
 C893 C 0.74892 0.50860 0.75107
 C894 C 0.73725 0.51725 0.74247
 C895 C 0.73704 0.53390 0.74255
 C896 C 0.74825 0.54219 0.75155
 C897 C 0.75981 0.53407 0.76032
 C898 C 0.76025 0.51742 0.75995
 H899 H 0.75010 0.44422 0.75005
 H900 H 0.76487 0.48765 0.77153
 H901 H 0.73378 0.48781 0.72985
 H902 H 0.72793 0.51135 0.73595
 H903 H 0.74802 0.55507 0.75166
 H904 H 0.76983 0.51166 0.76627
 C905 C 0.24902 0.45912 0.25179
 C906 C 0.26063 0.46710 0.26053
 C907 C 0.26280 0.48344 0.25820
 C908 C 0.25368 0.49206 0.24677
 C909 C 0.24300 0.48322 0.23711
 C910 C 0.24036 0.46699 0.23990
 C911 C 0.25485 0.51001 0.24537
 C912 C 0.24398 0.51887 0.23587
 C913 C 0.24444 0.53552 0.23539
 C914 C 0.25579 0.54365 0.24435
 C915 C 0.26666 0.53538 0.25382
 C916 C 0.26629 0.51873 0.25421
 H917 H 0.24726 0.44650 0.25368
 H918 H 0.27141 0.48910 0.26581
 H919 H 0.23635 0.48867 0.22753
 H920 H 0.23457 0.51325 0.22926
 H921 H 0.25598 0.55654 0.24416
 H922 H 0.27517 0.51298 0.26145
 C923 C 0.74314 1.04270 0.74766
 C924 C 0.75571 1.03531 0.73966
 C925 C 0.75842 1.01900 0.74191
 C926 C 0.74794 1.00962 0.75125
 C927 C 0.73559 1.01762 0.75957
 C928 C 0.73345 1.03409 0.75809
 C929 C 0.74958 0.99171 0.75191
 C930 C 0.74141 0.98260 0.76364
 C931 C 0.74177 0.96595 0.76330
 C932 C 0.75155 0.95820 0.75228
 C933 C 0.76030 0.96676 0.74101
 C934 C 0.75881 0.98335 0.74037
 H935 H 0.74133 1.05538 0.74631
 H936 H 0.76859 1.01383 0.73602
 H937 H 0.72722 1.01133 0.76701
 H938 H 0.73432 0.98811 0.77286
 H939 H 0.75219 0.94533 0.75234
 H940 H 0.76503 0.98945 0.73086
 C941 C 0.75092 0.54311 0.25162
 C942 C 0.76021 0.53501 0.24043
 C943 C 0.75989 0.51837 0.24003
 C944 C 0.75149 0.50960 0.25182
 C945 C 0.74282 0.51823 0.26354
 C946 C 0.74194 0.53484 0.26294
 C947 C 0.75175 0.49168 0.25188
 C948 C 0.74020 0.48287 0.26044
 C949 C 0.74049 0.46623 0.26060
 C950 C 0.75210 0.45812 0.25191
 C951 C 0.76354 0.46642 0.24320
 C952 C 0.76348 0.48308 0.24332
 H953 H 0.75068 0.55599 0.25155
 H954 H 0.76651 0.51255 0.23062
 H955 H 0.73641 0.51230 0.27303
 H956 H 0.73057 0.48866 0.26666
 H957 H 0.75219 0.44523 0.25189
 H958 H 0.77294 0.48903 0.23701
 C959 C 0.24929 -0.04231 0.75209
 C960 C 0.26036 -0.03400 0.76120
 C961 C 0.26028 -0.01736 0.76110
 C962 C 0.24889 -0.00872 0.75207
 C963 C 0.23771 -0.01757 0.74303
 C964 C 0.23801 -0.03424 0.74295
 C965 C 0.24872 0.00926 0.75205
 C966 C 0.24002 0.01795 0.74035
 C967 C 0.23936 0.03459 0.74079
 C968 C 0.24853 0.04281 0.75195
 C969 C 0.25778 0.03469 0.76316
 C970 C 0.25729 0.01805 0.76371
 H971 H 0.24950 -0.05520 0.75208
 H972 H 0.26952 -0.01148 0.76776
 H973 H 0.22837 -0.01185 0.73634
 H974 H 0.23345 0.01208 0.73097
 H975 H 0.24850 0.05570 0.75190
 H976 H 0.26395 0.01229 0.77311
 C977 C 0.25233 0.25309 1.04328
 C978 C 0.24188 0.26293 1.03485
 C979 C 0.24038 0.26122 1.01816
 C980 C 0.24864 0.24916 1.00972
 C981 C 0.25802 0.23851 1.01886
 C982 C 0.26032 0.24077 1.03541
 C983 C 0.24791 0.24804 0.99159
 C984 C 0.25924 0.23910 0.98283
 C985 C 0.25903 0.23864 0.96598
 C986 C 0.24764 0.24738 0.95756
 C987 C 0.23638 0.25642 0.96582
 C988 C 0.23635 0.25650 0.98267
 H989 H 0.25370 0.25456 1.05615
 H990 H 0.23302 0.26976 1.01203
 H991 H 0.26390 0.22854 1.01331
 H992 H 0.26877 0.23289 0.98879
 H993 H 0.24765 0.24728 0.94453
 H994 H 0.22705 0.26312 0.98852
 C995 C 0.25082 0.74835 0.54341
 C996 C 0.23824 0.75624 0.53590
 C997 C 0.23566 0.75401 0.51939
 C998 C 0.24630 0.74494 0.50993
 C999 C 0.25858 0.73668 0.51803
 C1000 C 0.26063 0.73811 0.53470
 C1001 C 0.24542 0.74520 0.49177
 C1002 C 0.25404 0.73418 0.48229
 C1003 C 0.25559 0.73631 0.46563
 C1004 C 0.24761 0.74881 0.45806
 C1005 C 0.23786 0.75899 0.46687
 C1006 C 0.23700 0.75737 0.48361
 H1007 H 0.25262 0.74975 0.55623
 H1008 H 0.22557 0.75986 0.51407
 H1009 H 0.26712 0.72956 0.51158
 H1010 H 0.26012 0.72422 0.48768
 H1011 H 0.24863 0.75032 0.44516
 H1012 H 0.23026 0.76623 0.49002
 C1013 C 0.25722 0.74533 -0.04285
 C1014 C 0.26706 0.75576 -0.03446
 C1015 C 0.26506 0.75763 -0.01784
 C1016 C 0.25256 0.75000 -0.00953
 C1017 C 0.24202 0.74053 -0.01863
 C1018 C 0.24460 0.73778 -0.03507
 C1019 C 0.25042 0.75204 0.00838
 C1020 C 0.24094 0.74140 0.01739
 C1021 C 0.23808 0.74390 0.03381
 C1022 C 0.24550 0.75653 0.04169
 C1023 C 0.25596 0.76646 0.03341
 C1024 C 0.25797 0.76454 0.01679
 H1025 H 0.25884 0.74376 -0.05568
 H1026 H 0.27355 0.76497 -0.01166
 H1027 H 0.23178 0.73510 -0.01315
 H1028 H 0.23559 0.73115 0.01185
 H1029 H 0.24380 0.75808 0.05451
 H1030 H 0.26533 0.77309 0.01070
 C1031 C 0.24913 0.24867 0.45817
 C1032 C 0.25959 0.25848 0.46654
 C1033 C 0.26129 0.25666 0.48319
 C1034 C 0.25308 0.24461 0.49166
 C1035 C 0.24374 0.23393 0.48255
 C1036 C 0.24124 0.23632 0.46605
 C1037 C 0.25316 0.24410 0.50983
 C1038 C 0.24132 0.23569 0.51838
 C1039 C 0.24006 0.23678 0.53513
 C1040 C 0.25023 0.24684 0.54357
 C1041 C 0.26235 0.25495 0.53558
 C1042 C 0.26417 0.25306 0.51891
 H1043 H 0.24754 0.25031 0.44535
 H1044 H 0.26859 0.26524 0.48931
 H1045 H 0.23784 0.22399 0.48812
 H1046 H 0.23245 0.22875 0.51228
 H1047 H 0.24900 0.24800 0.55649
 H1048 H 0.27391 0.25914 0.51323
 C1049 C 0.75023 0.75005 1.04282
 C1050 C 0.74008 0.76002 1.03417
 C1051 C 0.73875 0.75816 1.01748
 C1052 C 0.74693 0.74590 1.00927
 C1053 C 0.75603 0.73517 1.01862
 C1054 C 0.75818 0.73757 1.03518
 C1055 C 0.74697 0.74514 0.99112
 C1056 C 0.75891 0.73670 0.98269
 C1057 C 0.76019 0.73765 0.96591
 C1058 C 0.74993 0.74759 0.95736
 C1059 C 0.73768 0.75565 0.96523
 C1060 C 0.73584 0.75387 0.98190
 H1061 H 0.75154 0.75168 1.05568
 H1062 H 0.73176 0.76686 1.01112
 H1063 H 0.76196 0.72516 1.01319
 H1064 H 0.76781 0.72986 0.98893
 H1065 H 0.75117 0.74867 0.94444
 H1066 H 0.72598 0.75987 0.98751
 C1067 C 0.75043 0.25436 0.54318
 C1068 C 0.74033 0.26429 0.53447
 C1069 C 0.74213 0.26557 0.51779
 C1070 C 0.75437 0.25738 0.50956
 C1071 C 0.76523 0.24845 0.51897
 C1072 C 0.76297 0.24650 0.53559
 C1073 C 0.75483 0.25703 0.49138
 C1074 C 0.76362 0.24528 0.48305
 C1075 C 0.76228 0.24349 0.46636
 C1076 C 0.75170 0.25305 0.45779
 C1077 C 0.74330 0.26516 0.46550
 C1078 C 0.74539 0.26753 0.48206
 H1079 H 0.74881 0.25312 0.55605
 H1080 H 0.73335 0.27247 0.51147
 H1081 H 0.77520 0.24246 0.51357
 H1082 H 0.77107 0.23688 0.48929
 H1083 H 0.75039 0.25139 0.44494
 H1084 H 0.73910 0.27732 0.48749
 C1085 C 0.75498 0.24658 -0.04293
 C1086 C 0.76661 0.25494 -0.03457
 C1087 C 0.76791 0.25306 -0.01787
 C1088 C 0.75668 0.24395 -0.00912
 C1089 C 0.74535 0.23522 -0.01808
 C1090 C 0.74467 0.23633 -0.03489
 C1091 C 0.75582 0.24479 0.00904
 C1092 C 0.74615 0.23426 0.01802
 C1093 C 0.74322 0.23682 0.03444
 C1094 C 0.75090 0.24925 0.04237
 C1095 C 0.76154 0.25902 0.03417
 C1096 C 0.76369 0.25701 0.01759
 H1097 H 0.75416 0.24786 -0.05587
 H1098 H 0.77735 0.25935 -0.01193
 H1099 H 0.73641 0.22810 -0.01228
 H1100 H 0.74037 0.22428 0.01241
 H1101 H 0.74899 0.25098 0.05514
 H1102 H 0.77110 0.26557 0.01157
 C1103 C 0.74481 0.75721 0.45763
 C1104 C 0.75529 0.76711 0.46591
 C1105 C 0.75735 0.76508 0.48252
 C1106 C 0.74986 0.75252 0.49092
 C1107 C 0.74043 0.74188 0.48187
 C1108 C 0.73747 0.74449 0.46547
 C1109 C 0.75196 0.75041 0.50885
 C1110 C 0.74159 0.74061 0.51785
 C1111 C 0.74412 0.73775 0.53428
 C1112 C 0.75652 0.74550 0.54218
 C1113 C 0.76616 0.75627 0.53394
 C1114 C 0.76419 0.75830 0.51732
 H1115 H 0.74305 0.75885 0.44483
 H1116 H 0.76472 0.77360 0.48861
 H1117 H 0.73516 0.73153 0.48734
 H1118 H 0.73149 0.73501 0.51231
 H1119 H 0.75810 0.74381 0.55500
 H1120 H 0.77251 0.76595 0.51127
 C1121 C 1.04161 0.24887 0.24761
 C1122 C 1.03371 0.23737 0.25660
 C1123 C 1.01713 0.23666 0.25624
 C1124 C 1.00812 0.24767 0.24711
 C1125 C 1.01656 0.25929 0.23814
 C1126 C 1.03319 0.25980 0.23832
 C1127 C 0.99018 0.24701 0.24700
 C1128 C 0.98119 0.25554 0.23543
 C1129 C 0.96458 0.25544 0.23582
 C1130 C 0.95672 0.24561 0.24673
 C1131 C 0.96516 0.23662 0.25791
 C1132 C 0.98172 0.23788 0.25853
 H1133 H 1.05446 0.24933 0.24785
 H1134 H 1.01163 0.22711 0.26282
 H1135 H 1.01053 0.26836 0.23131
 H1136 H 0.98678 0.26265 0.22627
 H1137 H 0.94388 0.24514 0.24668
 H1138 H 0.98767 0.23148 0.26799
 C1139 C 0.54071 0.25460 0.75468
 C1140 C 0.53252 0.24381 0.76435
 C1141 C 0.51624 0.24152 0.76191
 C1142 C 0.50810 0.24936 0.74927
 C1143 C 0.51710 0.25918 0.73886
 C1144 C 0.53316 0.26222 0.74187
 C1145 C 0.49038 0.24778 0.74729
 C1146 C 0.48163 0.25890 0.73805
 C1147 C 0.46509 0.25792 0.73686
 C1148 C 0.45701 0.24595 0.74509
 C1149 C 0.46525 0.23489 0.75442
 C1150 C 0.48182 0.23563 0.75527
 H1151 H 0.55326 0.25651 0.75664
 H1152 H 0.51016 0.23390 0.77030
 H1153 H 0.51181 0.26479 0.72850
 H1154 H 0.48729 0.26888 0.73229
 H1155 H 0.44419 0.24544 0.74448
 H1156 H 0.48776 0.22650 0.76211
 C1157 C -0.04328 0.24841 0.75047
 C1158 C -0.03535 0.26012 0.75915
 C1159 C -0.01875 0.26070 0.75884
 C1160 C -0.00975 0.24940 0.75008
 C1161 C -0.01823 0.23757 0.74151
 C1162 C -0.03484 0.23717 0.74159
 C1163 C 0.00819 0.24996 0.74986
 C1164 C 0.01710 0.24078 0.73875
 C1165 C 0.03370 0.24066 0.73914
 C1166 C 0.04168 0.25083 0.74958
 C1167 C 0.03333 0.26059 0.76014
 C1168 C 0.01675 0.25963 0.76081
 H1169 H -0.05613 0.24808 0.75056
 H1170 H -0.01320 0.27037 0.76517
 H1171 H -0.01226 0.22828 0.73497
 H1172 H 0.01147 0.23336 0.72988
 H1173 H 0.05454 0.25110 0.74952
 H1174 H 0.01087 0.26674 0.76979
 C1175 C 0.45675 0.24794 0.25447
 C1176 C 0.46520 0.25861 0.26400
 C1177 C 0.48161 0.26014 0.26185
 C1178 C 0.48970 0.25165 0.24961
 C1179 C 0.48048 0.24203 0.23925
 C1180 C 0.46423 0.23974 0.24199
 C1181 C 0.50754 0.25241 0.24800
 C1182 C 0.51600 0.24095 0.23885
 C1183 C 0.53259 0.24120 0.23801
 C1184 C 0.54101 0.25275 0.24641
 C1185 C 0.53310 0.26414 0.25558
 C1186 C 0.51650 0.26412 0.25617
 H1187 H 0.44409 0.24659 0.25626
 H1188 H 0.48779 0.26771 0.27018
 H1189 H 0.48573 0.23596 0.22914
 H1190 H 0.51004 0.23131 0.23285
 H1191 H 0.55386 0.25272 0.24599
 H1192 H 0.51089 0.27350 0.26294
 C1193 C 1.04277 0.75088 0.75075
 C1194 C 1.03467 0.74173 0.76203
 C1195 C 1.01809 0.74230 0.76254
 C1196 C 1.00939 0.75092 0.75083
 C1197 C 1.01805 0.75946 0.73906
 C1198 C 1.03462 0.76001 0.73948
 C1199 C 0.99153 0.75101 0.75087
 C1200 C 0.98291 0.76300 0.74273
 C1201 C 0.96632 0.76299 0.74256
 C1202 C 0.95809 0.75118 0.75084
 C1203 C 0.96621 0.73928 0.75914
 C1204 C 0.98281 0.73911 0.75902
 H1205 H 1.05560 0.75086 0.75071
 H1206 H 1.01224 0.73570 0.77191
 H1207 H 1.01217 0.76602 0.72967
 H1208 H 0.98882 0.77268 0.73676
 H1209 H 0.94527 0.75125 0.75081
 H1210 H 0.98866 0.72938 0.76500
 C1211 C 0.54368 0.74480 0.24373
 C1212 C 0.53543 0.73391 0.25322
 C1213 C 0.51884 0.73436 0.25357
 C1214 C 0.51022 0.74612 0.24502
 C1215 C 0.51900 0.75707 0.23561
 C1216 C 0.53559 0.75634 0.23488
 C1217 C 0.49241 0.74752 0.24668
 C1218 C 0.48336 0.75720 0.23612
 C1219 C 0.46720 0.76006 0.23898
 C1220 C 0.45966 0.75244 0.25180
 C1221 C 0.46792 0.74181 0.26156
 C1222 C 0.48421 0.73965 0.25926
 H1223 H 0.55651 0.74449 0.24348
 H1224 H 0.51297 0.72530 0.26052
 H1225 H 0.51330 0.76673 0.22934
 H1226 H 0.48867 0.76286 0.22581
 H1227 H 0.44707 0.75422 0.25373
 H1228 H 0.49022 0.73207 0.26775
 C1229 C -0.04225 0.74698 0.25320
 C1230 C -0.03417 0.75831 0.26226
 C1231 C -0.01756 0.75848 0.26221
 C1232 C -0.00875 0.74711 0.25331
 C1233 C -0.01738 0.73568 0.24438
 C1234 C -0.03398 0.73576 0.24417
 C1235 C 0.00918 0.74722 0.25321
 C1236 C 0.01792 0.73842 0.24164
 C1237 C 0.03451 0.73799 0.24201
 C1238 C 0.04265 0.74748 0.25296
 C1239 C 0.03447 0.75689 0.26398
 C1240 C 0.01789 0.75620 0.26462
 H1241 H -0.05510 0.74697 0.25309
 H1242 H -0.01184 0.76791 0.26877
 H1243 H -0.01154 0.72633 0.23780
 H1244 H 0.01215 0.73159 0.23239
 H1245 H 0.05550 0.74762 0.25284
 H1246 H 0.01209 0.76302 0.27388
 C1247 C 0.45956 0.75158 0.74886
 C1248 C 0.46774 0.76341 0.75710
 C1249 C 0.48433 0.76363 0.75679
 C1250 C 0.49302 0.75180 0.74847
 C1251 C 0.48436 0.73987 0.74030
 C1252 C 0.46774 0.73985 0.74040
 C1253 C 0.51089 0.75192 0.74836
 C1254 C 0.51958 0.74330 0.73665
 C1255 C 0.53617 0.74280 0.73708
 C1256 C 0.54432 0.75210 0.74821
 C1257 C 0.53615 0.76129 0.75944
 C1258 C 0.51956 0.76061 0.76001
 H1259 H 0.44670 0.75149 0.74906
 H1260 H 0.49018 0.77338 0.76275
 H1261 H 0.49025 0.73021 0.73420
 H1262 H 0.51370 0.73663 0.72733
 H1263 H 0.55717 0.75212 0.74817
 H1264 H 0.51367 0.76713 0.76945
 C1265 C 0.42780 0.29758 0.30420
 N1266 N 0.42641 0.31334 0.30094
 N1267 N 0.41591 0.32227 0.30884
 C1268 C 0.40655 0.31577 0.32040
 N1269 N 0.40809 0.30006 0.32374
 N1270 N 0.41843 0.29111 0.31572
 C1271 C 0.43836 0.28738 0.29468
 N1272 N 0.43556 0.27153 0.29374
 N1273 N 0.44442 0.26231 0.28434
 C1274 C 0.45658 0.26853 0.27571
 N1275 N 0.45956 0.28435 0.27685
 N1276 N 0.45056 0.29362 0.28611
 C1277 C 0.42844 0.80378 0.79350
 N1278 N 0.41804 0.81376 0.78623
 N1279 N 0.40687 0.82112 0.79473
 C1280 C 0.40552 0.81859 0.81079
 N1281 N 0.41603 0.80870 0.81811
 N1282 N 0.42733 0.80148 0.80962
 C1283 C 0.43967 0.79455 0.78383
 N1284 N 0.45243 0.78740 0.79067
 N1285 N 0.46184 0.77800 0.78197
 C1286 C 0.45869 0.77530 0.76621
 N1287 N 0.44598 0.78253 0.75938
 N1288 N 0.43672 0.79208 0.76800
 C1289 C -0.07391 0.30111 0.79600
 N1290 N -0.08531 0.30992 0.78872
 N1291 N -0.09574 0.31811 0.79740
 C1292 C -0.09530 0.31765 0.81369
 N1293 N -0.08387 0.30888 0.82102
 N1294 N -0.07330 0.30080 0.81232
 C1295 C -0.06324 0.29126 0.78628
 N1296 N -0.04957 0.28530 0.79246
 N1297 N -0.04038 0.27577 0.78366
 C1298 C -0.04464 0.27173 0.76846
 N1299 N -0.05828 0.27774 0.76231
 N1300 N -0.06734 0.28742 0.77101
 C1301 C -0.07415 0.79855 0.29831
 N1302 N -0.08478 0.80785 0.29049
 N1303 N -0.09587 0.81570 0.29859
 C1304 C -0.09692 0.81444 0.31481
 N1305 N -0.08625 0.80519 0.32271
 N1306 N -0.07501 0.79740 0.31459
 C1307 C -0.06285 0.78903 0.28895
 N1308 N -0.05004 0.78204 0.29590
 N1309 N -0.04045 0.77273 0.28727
 C1310 C -0.04345 0.77000 0.27147
 N1311 N -0.05619 0.77707 0.26457
 N1312 N -0.06563 0.78650 0.27311
 C1313 C 0.57382 0.69603 0.29353
 N1314 N 0.57380 0.69835 0.30969
 N1315 N 0.58447 0.69111 0.31901
 C1316 C 0.59543 0.68120 0.31248
 N1317 N 0.59528 0.67874 0.29636
 N1318 N 0.58475 0.68609 0.28706
 C1319 C 0.56306 0.70490 0.28294
 N1320 N 0.56680 0.70683 0.26720
 N1321 N 0.55775 0.71570 0.25764
 C1322 C 0.54444 0.72276 0.26340
 N1323 N 0.54051 0.72059 0.27909
 N1324 N 0.54970 0.71188 0.28872
 C1325 C 0.57173 0.20640 0.80416
 N1326 N 0.58344 0.21336 0.81280
 N1327 N 0.59451 0.20458 0.81994
 C1328 C 0.59440 0.18852 0.81861
 N1329 N 0.58263 0.18151 0.81006
 N1330 N 0.57147 0.19030 0.80298
 C1331 C 0.56044 0.21632 0.79523
 N1332 N 0.54752 0.20990 0.78799
 N1333 N 0.53813 0.21884 0.77878
 C1334 C 0.54139 0.23447 0.77638
 N1335 N 0.55418 0.24088 0.78382
 N1336 N 0.56345 0.23201 0.79314
 C1337 C 1.07326 0.70205 0.80038
 N1338 N 1.08279 0.69148 0.79277
 N1339 N 1.09358 0.68323 0.80089
 C1340 C 1.09539 0.68533 0.81693
 N1341 N 1.08577 0.69582 0.82465
 N1342 N 1.07484 0.70402 0.81651
 C1343 C 1.06248 0.71192 0.79078
 N1344 N 1.05046 0.72040 0.79752
 N1345 N 1.04123 0.72967 0.78841
 C1346 C 1.04388 0.73089 0.77233
 N1347 N 1.05585 0.72237 0.76570
 N1348 N 1.06489 0.71301 0.77472
 C1349 C 1.07342 0.19903 0.29497
 N1350 N 1.08408 0.18916 0.28795
 N1351 N 1.09488 0.18160 0.29675
 C1352 C 1.09557 0.18378 0.31289
 N1353 N 1.08488 0.19362 0.31997
 N1354 N 1.07394 0.20107 0.31116
 C1355 C 1.06231 0.20809 0.28496
 N1356 N 1.04935 0.21525 0.29141
 N1357 N 1.03983 0.22412 0.28225
 C1358 C 1.04306 0.22624 0.26640
 N1359 N 1.05599 0.21903 0.25999
 N1360 N 1.06536 0.21002 0.26907
 C1361 C 0.57163 0.30206 0.70364
 N1362 N 0.57284 0.29979 0.68753
 N1363 N 0.58362 0.30771 0.67897
 C1364 C 0.59347 0.31825 0.68622
 N1365 N 0.59207 0.32067 0.70228
 N1366 N 0.58141 0.31267 0.71083
 C1367 C 0.56082 0.29245 0.71344
 N1368 N 0.56292 0.29171 0.72958
 N1369 N 0.55391 0.28228 0.73857
 C1370 C 0.54235 0.27332 0.73181
 N1371 N 0.54005 0.27424 0.71567
 N1372 N 0.54920 0.28358 0.70663
 C1373 C 0.57404 0.79820 0.19887
 N1374 N 0.58457 0.80760 0.20663
 N1375 N 0.59504 0.81619 0.19843
 C1376 C 0.59553 0.81556 0.18214
 N1377 N 0.58496 0.80620 0.17431
 N1378 N 0.57434 0.79771 0.18254
 C1379 C 0.56338 0.78797 0.20822
 N1380 N 0.55022 0.78141 0.20157
 N1381 N 0.54104 0.77168 0.21016
 C1382 C 0.54481 0.76805 0.22562
 N1383 N 0.55792 0.77467 0.23222
 N1384 N 0.56696 0.78453 0.22373
 C1385 C 1.07247 0.30039 0.20187
 N1386 N 1.07361 0.29873 0.18566
 N1387 N 1.08470 0.30656 0.17740
 C1388 C 1.09496 0.31641 0.18507
 N1389 N 1.09365 0.31819 0.20122
 N1390 N 1.08270 0.31027 0.20947
 C1391 C 1.06127 0.29086 0.21135
 N1392 N 1.06371 0.28894 0.22735
 N1393 N 1.05441 0.27945 0.23598
 C1394 C 1.04213 0.27169 0.22901
 N1395 N 1.03946 0.27381 0.21304
 N1396 N 1.04892 0.28319 0.20434
 C1397 C 1.07224 0.79988 0.70043
 N1398 N 1.08196 0.81036 0.70786
 N1399 N 1.09247 0.81872 0.69951
 C1400 C 1.09378 0.81683 0.68339
 N1401 N 1.08395 0.80646 0.67584
 N1402 N 1.07331 0.79814 0.68423
 C1403 C 1.06180 0.78987 0.71023
 N1404 N 1.04953 0.78160 0.70378
 N1405 N 1.04056 0.77226 0.71305
 C1406 C 1.04373 0.77075 0.72901
 N1407 N 1.05597 0.77905 0.73536
 N1408 N 1.06476 0.78849 0.72618
 C1409 C 0.42820 0.69865 0.70529
 N1410 N 0.42761 0.69979 0.68901
 N1411 N 0.41641 0.69220 0.68074
 C1412 C 0.40550 0.68313 0.68846
 N1413 N 0.40625 0.68182 0.70469
 N1414 N 0.41733 0.68952 0.71296
 C1415 C 0.43946 0.70816 0.71463
 N1416 N 0.43648 0.71121 0.73035
 N1417 N 0.44581 0.72092 0.73866
 C1418 C 0.45862 0.72775 0.73164
 N1419 N 0.46181 0.72446 0.71599
 N1420 N 0.45234 0.71489 0.70760
 C1421 C 0.42592 0.19964 0.20392
 N1422 N 0.41598 0.18918 0.21115
 N1423 N 0.40563 0.18087 0.20252
 C1424 C 0.40472 0.18282 0.18636
 N1425 N 0.41471 0.19323 0.17909
 N1426 N 0.42518 0.20145 0.18772
 C1427 C 0.43650 0.20949 0.21372
 N1428 N 0.44859 0.21780 0.20698
 N1429 N 0.45768 0.22721 0.21598
 C1430 C 0.45485 0.22877 0.23199
 N1431 N 0.44278 0.22042 0.23866
 N1432 N 0.43383 0.21090 0.22972
 C1433 C -0.07262 0.69687 0.20552
 N1434 N -0.07305 0.69901 0.18933
 N1435 N -0.08395 0.69166 0.18044
 C1436 C -0.09469 0.68184 0.18743
 N1437 N -0.09408 0.67955 0.20356
 N1438 N -0.08332 0.68700 0.21245
 C1439 C -0.06170 0.70595 0.21565
 N1440 N -0.06506 0.70801 0.23146
 N1441 N -0.05595 0.71716 0.24062
 C1442 C -0.04296 0.72437 0.23438
 N1443 N -0.03940 0.72209 0.21862
 N1444 N -0.04866 0.71310 0.20939
 C1445 C -0.07252 0.19624 0.70394
 N1446 N -0.07290 0.19823 0.68774
 N1447 N -0.08333 0.19029 0.67879
 C1448 C -0.09360 0.17993 0.68572
 N1449 N -0.09309 0.17782 0.70189
 N1450 N -0.08282 0.18591 0.71084
 C1451 C -0.06190 0.20585 0.71396
 N1452 N -0.06554 0.20857 0.72960
 N1453 N -0.05665 0.21821 0.73849
 C1454 C -0.04363 0.22530 0.73216
 N1455 N -0.03986 0.22245 0.71655
 N1456 N -0.04889 0.21296 0.70758
 C1457 C 0.29889 0.42804 0.29983
 N1458 N 0.31455 0.42598 0.29658
 N1459 N 0.32304 0.41517 0.30461
 C1460 C 0.31616 0.40616 0.31624
 N1461 N 0.30056 0.40835 0.31951
 N1462 N 0.29208 0.41899 0.31140
 C1463 C 0.28907 0.43899 0.29036
 N1464 N 0.27310 0.43716 0.29019
 N1465 N 0.26405 0.44641 0.28101
 C1466 C 0.27059 0.45802 0.27185
 N1467 N 0.28656 0.46005 0.27221
 N1468 N 0.29566 0.45064 0.28126
 C1469 C 0.29995 -0.07404 0.79781
 N1470 N 0.31065 -0.08351 0.79030
 N1471 N 0.31827 -0.09482 0.79837
 C1472 C 0.31537 -0.09728 0.81423
 N1473 N 0.30473 -0.08773 0.82181
 N1474 N 0.29719 -0.07628 0.81374
 C1475 C 0.29070 -0.06257 0.78838
 N1476 N 0.28224 -0.05081 0.79556
 N1477 N 0.27308 -0.04117 0.78683
 C1478 C 0.27199 -0.04306 0.77065
 N1479 N 0.28051 -0.05476 0.76351
 N1480 N 0.28980 -0.06424 0.77219
 C1481 C 0.79903 0.42681 0.79951
 N1482 N 0.81013 0.41769 0.79217
 N1483 N 0.81821 0.40683 0.80041
 C1484 C 0.81537 0.40450 0.81629
 N1485 N 0.80436 0.41375 0.82373
 N1486 N 0.79636 0.42476 0.81548
 C1487 C 0.78927 0.43764 0.78985
 N1488 N 0.78047 0.44937 0.79668
 N1489 N 0.77111 0.45856 0.78764
 C1490 C 0.77011 0.45613 0.77152
 N1491 N 0.77896 0.44445 0.76477
 N1492 N 0.78843 0.43546 0.77373
 C1493 C 0.80453 -0.07240 0.29140
 N1494 N 0.81440 -0.08314 0.28450
 N1495 N 0.82152 -0.09421 0.29336
 C1496 C 0.81884 -0.09513 0.30943
 N1497 N 0.80908 -0.08427 0.31638
 N1498 N 0.80210 -0.07306 0.30752
 C1499 C 0.79556 -0.06127 0.28135
 N1500 N 0.78873 -0.04811 0.28777
 N1501 N 0.77952 -0.03877 0.27880
 C1502 C 0.77668 -0.04238 0.26316
 N1503 N 0.78359 -0.05548 0.25674
 N1504 N 0.79297 -0.06468 0.26564
 C1505 C 0.30101 0.57271 0.70415
 N1506 N 0.31008 0.58369 0.71169
 N1507 N 0.31790 0.59461 0.70330
 C1508 C 0.31680 0.59513 0.68704
 N1509 N 0.30778 0.58411 0.67943
 N1510 N 0.30005 0.57304 0.68784
 C1511 C 0.29150 0.56157 0.71373
 N1512 N 0.28499 0.54835 0.70709
 N1513 N 0.27566 0.53889 0.71582
 C1514 C 0.27238 0.54242 0.73141
 N1515 N 0.27897 0.55557 0.73801
 N1516 N 0.28844 0.56489 0.72938
 C1517 C 0.29940 1.07196 0.20022
 N1518 N 0.31000 1.08162 0.20755
 N1519 N 0.31854 1.09190 0.19907
 C1520 C 0.31672 1.09305 0.18292
 N1521 N 0.30618 1.08331 0.17549
 N1522 N 0.29770 1.07289 0.18400
 C1523 C 0.28925 1.06169 0.21008
 N1524 N 0.28103 1.04934 0.20368
 N1525 N 0.27155 1.04050 0.21291
 C1526 C 0.26980 1.04389 0.22879
 N1527 N 0.27804 1.05620 0.23511
 N1528 N 0.28764 1.06486 0.22596
 C1529 C 0.80023 0.57235 0.20130
 N1530 N 0.81057 0.58230 0.20862
 N1531 N 0.81908 0.59255 0.20007
 C1532 C 0.81748 0.59337 0.18388
 N1533 N 0.80721 0.58334 0.17648
 N1534 N 0.79877 0.57294 0.18505
 C1535 C 0.79011 0.56211 0.21118
 N1536 N 0.78239 0.54938 0.20493
 N1537 N 0.77299 0.54050 0.21420
 C1538 C 0.77084 0.54423 0.22995
 N1539 N 0.77857 0.55695 0.23610
 N1540 N 0.78808 0.56566 0.22693
 C1541 C 0.79428 1.07489 0.70111
 N1542 N 0.78754 1.08433 0.68977
 N1543 N 0.79622 1.09480 0.68163
 C1544 C 0.81194 1.09634 0.68465
 N1545 N 0.81873 1.08686 0.69594
 N1546 N 0.81006 1.07627 0.70399
 C1547 C 0.78440 1.06394 0.71053
 N1548 N 0.79094 1.05214 0.71952
 N1549 N 0.78182 1.04272 0.72852
 C1550 C 0.76587 1.04491 0.72899
 N1551 N 0.75939 1.05671 0.71999
 N1552 N 0.76846 1.06597 0.71086
 C1553 C 0.70166 0.57226 0.30175
 N1554 N 0.69066 0.58149 0.29440
 N1555 N 0.68226 0.59200 0.30274
 C1556 C 0.68462 0.59382 0.31874
 N1557 N 0.69554 0.58449 0.32621
 N1558 N 0.70389 0.57384 0.31785
 C1559 C 0.71170 0.56182 0.29196
 N1560 N 0.72037 0.54985 0.29855
 N1561 N 0.72981 0.54092 0.28934
 C1562 C 0.73104 0.54385 0.27332
 N1563 N 0.72234 0.55579 0.26683
 N1564 N 0.71279 0.56454 0.27594
 C1565 C 0.69364 1.07217 0.79675
 N1566 N 0.69767 1.07452 0.81237
 N1567 N 0.69001 1.08525 0.82126
 C1568 C 0.67793 1.09391 0.81491
 N1569 N 0.67379 1.09138 0.79935
 N1570 N 0.68158 1.08082 0.79040
 C1571 C 0.70285 1.06125 0.78659
 N1572 N 0.70346 1.06349 0.77044
 N1573 N 0.71280 1.05448 0.76129
 C1574 C 0.72166 1.04268 0.76790
 N1575 N 0.72082 1.04023 0.78402
 N1576 N 0.71164 1.04940 0.79321
 C1577 C 0.19735 0.57237 0.79485
 N1578 N 0.18798 0.58334 0.78757
 N1579 N 0.18051 0.59436 0.79617
 C1580 C 0.18228 0.59497 0.81237
 N1581 N 0.19158 0.58396 0.81970
 N1582 N 0.19894 0.57281 0.81109
 C1583 C 0.20663 0.56122 0.78509
 N1584 N 0.21346 0.54814 0.79173
 N1585 N 0.22281 0.53875 0.78294
 C1586 C 0.22578 0.54223 0.76728
 N1587 N 0.21886 0.55524 0.76066
 N1588 N 0.20936 0.56448 0.76936
 C1589 C 0.19999 1.07273 0.30013
 N1590 N 0.19010 1.08306 0.29266
 N1591 N 0.18149 1.09333 0.30110
 C1592 C 0.18255 1.09378 0.31735
 N1593 N 0.19237 1.08338 0.32491
 N1594 N 0.20091 1.07296 0.31644
 C1595 C 0.21020 1.06242 0.29039
 N1596 N 0.21750 1.04939 0.29665
 N1597 N 0.22695 1.04044 0.28748
 C1598 C 0.22959 1.04438 0.27185
 N1599 N 0.22227 1.05738 0.26570
 N1600 N 0.21271 1.06617 0.27476
 C1601 C 0.70019 0.42764 0.70060
 N1602 N 0.68992 0.41766 0.70801
 N1603 N 0.68139 0.40737 0.69955
 C1604 C 0.68290 0.40653 0.68335
 N1605 N 0.69312 0.41657 0.67585
 N1606 N 0.70159 0.42700 0.68433
 C1607 C 0.71027 0.43803 0.71039
 N1608 N 0.71798 0.45073 0.70400
 N1609 N 0.72737 0.45970 0.71318
 C1610 C 0.72951 0.45612 0.72897
 N1611 N 0.72176 0.44345 0.73527
 N1612 N 0.71227 0.43465 0.72619
 C1613 C 0.69879 -0.07200 0.20261
 N1614 N 0.68986 -0.08310 0.21022
 N1615 N 0.68178 -0.09384 0.20183
 C1616 C 0.68251 -0.09401 0.18554
 N1617 N 0.69138 -0.08286 0.17791
 N1618 N 0.69932 -0.07199 0.18630
 C1619 C 0.70872 -0.06112 0.21195
 N1620 N 0.71491 -0.04781 0.20519
 N1621 N 0.72483 -0.03861 0.21347
 C1622 C 0.72905 -0.04254 0.22872
 N1623 N 0.72278 -0.05580 0.23547
 N1624 N 0.71272 -0.06486 0.22729
 C1625 C 0.19883 0.42866 0.20360
 N1626 N 0.18882 0.41851 0.21117
 N1627 N 0.18067 0.40776 0.20287
 C1628 C 0.18235 0.40666 0.18669
 N1629 N 0.19228 0.41689 0.17907
 N1630 N 0.20034 0.42774 0.18737
 C1631 C 0.20872 0.43951 0.21302
 N1632 N 0.21697 0.45144 0.20588
 N1633 N 0.22670 0.46056 0.21448
 C1634 C 0.22867 0.45793 0.23047
 N1635 N 0.22033 0.44606 0.23757
 N1636 N 0.21050 0.43708 0.22903
 C1637 C 0.19915 -0.07398 0.70527
 N1638 N 0.20075 -0.07434 0.68902
 N1639 N 0.19326 -0.08533 0.68034
 C1640 C 0.18381 -0.09624 0.68761
 N1641 N 0.18208 -0.09572 0.70381
 N1642 N 0.18968 -0.08487 0.71248
 C1643 C 0.20829 -0.06282 0.71513
 N1644 N 0.21071 -0.06603 0.73092
 N1645 N 0.21982 -0.05664 0.73983
 C1646 C 0.22667 -0.04353 0.73337
 N1647 N 0.22405 -0.04013 0.71762
 N1648 N 0.21507 -0.04966 0.70863
 C1649 C 0.29621 0.30061 0.42914
 N1650 N 0.31215 0.29848 0.42826
 N1651 N 0.32078 0.30674 0.41777
 C1652 C 0.31379 0.31753 0.40791
 N1653 N 0.29790 0.31980 0.40894
 N1654 N 0.28925 0.31141 0.41929
 C1655 C 0.28650 0.29064 0.43969
 N1656 N 0.27089 0.28851 0.43647
 N1657 N 0.26224 0.27854 0.44525
 C1658 C 0.26882 0.27049 0.45772
 N1659 N 0.28437 0.27284 0.46114
 N1660 N 0.29309 0.28267 0.45222
 C1661 C 0.30679 0.79493 -0.07201
 N1662 N 0.31782 0.78871 -0.08207
 N1663 N 0.32566 0.79801 -0.09229
 C1664 C 0.32261 0.81383 -0.09299
 N1665 N 0.31158 0.82008 -0.08292
 N1666 N 0.30389 0.81080 -0.07254
 C1667 C 0.29749 0.78451 -0.06148
 N1668 N 0.28982 0.79043 -0.04846
 N1669 N 0.28063 0.78110 -0.03948
 C1670 C 0.27864 0.76554 -0.04331
 N1671 N 0.28637 0.75962 -0.05631
 N1672 N 0.29573 0.76890 -0.06515
 C1673 C 0.80363 0.29857 -0.07007
 N1674 N 0.81956 0.29679 -0.07153
 N1675 N 0.82779 0.30613 -0.08144
 C1676 C 0.82039 0.31768 -0.09007
 N1677 N 0.80452 0.31958 -0.08838
 N1678 N 0.79628 0.31015 -0.07864
 C1679 C 0.79420 0.28755 -0.06031
 N1680 N 0.77853 0.28581 -0.06343
 N1681 N 0.76988 0.27543 -0.05519
 C1682 C 0.77648 0.26649 -0.04337
 N1683 N 0.79214 0.26836 -0.04006
 N1684 N 0.80088 0.27862 -0.04848
 C1685 C 0.79406 0.80695 0.42796
 N1686 N 0.80995 0.80437 0.42774
 N1687 N 0.81920 0.81209 0.41734
 C1688 C 0.81289 0.82280 0.40694
 N1689 N 0.79703 0.82552 0.40731
 N1690 N 0.78777 0.81766 0.41755
 C1691 C 0.78371 0.79764 0.43858
 N1692 N 0.76820 0.79556 0.43481
 N1693 N 0.75902 0.78619 0.44374
 C1694 C 0.76494 0.77875 0.45694
 N1695 N 0.78039 0.78107 0.46086
 N1696 N 0.78963 0.79028 0.45180
 C1697 C 0.69642 0.30062 0.57013
 N1698 N 0.69794 0.31668 0.57056
 N1699 N 0.68925 0.32533 0.58069
 C1700 C 0.67860 0.31823 0.59059
 N1701 N 0.67691 0.30222 0.58996
 N1702 N 0.68573 0.29356 0.57999
 C1703 C 0.70692 0.29094 0.56008
 N1704 N 0.70978 0.27554 0.56400
 N1705 N 0.72018 0.26697 0.55566
 C1706 C 0.72796 0.27341 0.54294
 N1707 N 0.72488 0.28873 0.53883
 N1708 N 0.71462 0.29738 0.54732
 C1709 C 0.70280 0.80319 1.06992
 N1710 N 0.70955 0.81390 1.07998
 N1711 N 0.70064 0.82262 1.08982
 C1712 C 0.68466 0.82081 1.09013
 N1713 N 0.67789 0.81013 1.08004
 N1714 N 0.68679 0.80154 1.07004
 C1715 C 0.71274 0.79286 1.05990
 N1716 N 0.70662 0.78529 1.04692
 N1717 N 0.71548 0.77523 1.03841
 C1718 C 0.73073 0.77221 1.04270
 N1719 N 0.73684 0.77983 1.05566
 N1720 N 0.72805 0.79005 1.06403
 C1721 C 0.20314 0.30362 1.07194
 N1722 N 0.20955 0.31490 1.08157
 N1723 N 0.20046 0.32319 1.09162
 C1724 C 0.18466 0.32037 1.09258
 N1725 N 0.17822 0.30909 1.08294
 N1726 N 0.18729 0.30093 1.07272
 C1727 C 0.21337 0.29390 1.06159
 N1728 N 0.20729 0.28585 1.04888
 N1729 N 0.21651 0.27642 1.04003
 C1730 C 0.23209 0.27454 1.04368
 N1731 N 0.23815 0.28263 1.05637
 N1732 N 0.22899 0.29222 1.06507
 C1733 C 0.20066 0.79852 0.57262
 N1734 N 0.18466 0.79695 0.57338
 N1735 N 0.17612 0.80620 0.58309
 C1736 C 0.18325 0.81748 0.59223
 N1737 N 0.19920 0.81919 0.59128
 N1738 N 0.20775 0.80983 0.58172
 C1739 C 0.21029 0.78773 0.56277
 N1740 N 0.22595 0.78594 0.56595
 N1741 N 0.23475 0.77586 0.55743
 C1742 C 0.22827 0.76729 0.54530
 N1743 N 0.21261 0.76919 0.54200
 N1744 N 0.20375 0.77914 0.55067
 C1745 C 0.30312 0.70110 0.57154
 N1746 N 0.31417 0.70801 0.58106
 N1747 N 0.32258 0.69935 0.59141
 C1748 C 0.32010 0.68347 0.59278
 N1749 N 0.30907 0.67652 0.58323
 N1750 N 0.30079 0.68517 0.57273
 C1751 C 0.29308 0.71090 0.56105
 N1752 N 0.28492 0.70434 0.54865
 N1753 N 0.27505 0.71315 0.53985
 C1754 C 0.27283 0.72878 0.54324
 N1755 N 0.28106 0.73533 0.55558
 N1756 N 0.29109 0.72659 0.56423
 C1757 C 0.30111 0.20143 1.07192
 N1758 N 0.31251 0.20806 1.08123
 N1759 N 0.32138 0.19907 1.09085
 C1760 C 0.31907 0.18315 1.09167
 N1761 N 0.30769 0.17647 1.08234
 N1762 N 0.29893 0.18545 1.07255
 C1763 C 0.29084 0.21156 1.06203
 N1764 N 0.28224 0.20543 1.04972
 N1765 N 0.27267 0.21472 1.04108
 C1766 C 0.27118 0.23042 1.04460
 N1767 N 0.27978 0.23649 1.05692
 N1768 N 0.28948 0.22726 1.06542
 C1769 C 0.80022 0.69986 1.07201
 N1770 N 0.81145 0.70701 1.08115
 N1771 N 0.82064 0.69848 1.09090
 C1772 C 0.81883 0.68251 1.09200
 N1773 N 0.80764 0.67533 1.08281
 N1774 N 0.79855 0.68385 1.07291
 C1775 C 0.78953 0.70952 1.06207
 N1776 N 0.78096 0.70295 1.04997
 N1777 N 0.77106 0.71184 1.04127
 C1778 C 0.76921 0.72756 1.04453
 N1779 N 0.77778 0.73405 1.05665
 N1780 N 0.78779 0.72523 1.06520
 C1781 C 0.80050 0.20530 0.57366
 N1782 N 0.81648 0.20684 0.57488
 N1783 N 0.82467 0.19778 0.58513
 C1784 C 0.81717 0.18678 0.59437
 N1785 N 0.80126 0.18508 0.59287
 N1786 N 0.79308 0.19421 0.58279
 C1787 C 0.79104 0.21584 0.56336
 N1788 N 0.77528 0.21735 0.56614
 N1789 N 0.76648 0.22711 0.55728
 C1790 C 0.77304 0.23564 0.54513
 N1791 N 0.78881 0.23401 0.54217
 N1792 N 0.79768 0.22435 0.55121
 C1793 C 0.69804 0.70423 0.42866
 N1794 N 0.70126 0.68847 0.42727
 N1795 N 0.69286 0.67939 0.41730
 C1796 C 0.68084 0.68571 0.40850
 N1797 N 0.67750 0.70141 0.41008
 N1798 N 0.68599 0.71050 0.41991
 C1799 C 0.70790 0.71457 0.43873
 N1800 N 0.70791 0.73049 0.43618
 N1801 N 0.71728 0.73996 0.44475
 C1802 C 0.72687 0.73389 0.45633
 N1803 N 0.72674 0.71796 0.45903
 N1804 N 0.71750 0.70845 0.45030
 C1805 C 0.70410 0.20076 -0.07501
 N1806 N 0.69604 0.20842 -0.08679
 N1807 N 0.68796 0.20031 -0.09775
 C1808 C 0.68773 0.18420 -0.09749
 N1809 N 0.69576 0.17646 -0.08568
 N1810 N 0.70380 0.18461 -0.07460
 C1811 C 0.71375 0.21002 -0.06373
 N1812 N 0.72019 0.20335 -0.05035
 N1813 N 0.72961 0.21186 -0.04077
 C1814 C 0.73299 0.22726 -0.04432
 N1815 N 0.72639 0.23389 -0.05760
 N1816 N 0.71689 0.22547 -0.06705
 C1817 C 0.20470 0.69843 -0.07236
 N1818 N 0.21110 0.68673 -0.08152
 N1819 N 0.20207 0.67824 -0.09140
 C1820 C 0.18632 0.68125 -0.09263
 N1821 N 0.17987 0.69292 -0.08344
 N1822 N 0.18890 0.70131 -0.07340
 C1823 C 0.21495 0.70828 -0.06221
 N1824 N 0.20887 0.71727 -0.05013
 N1825 N 0.21830 0.72648 -0.04128
 C1826 C 0.23410 0.72718 -0.04434
 N1827 N 0.24013 0.71819 -0.05643
 N1828 N 0.23076 0.70886 -0.06513
 C1829 C 0.19843 0.19903 0.42998
 N1830 N 0.20005 0.18300 0.42910
 N1831 N 0.19096 0.17456 0.41918
 C1832 C 0.17983 0.18183 0.40994
 N1833 N 0.17806 0.19782 0.41105
 N1834 N 0.18725 0.20626 0.42082
 C1835 C 0.20920 0.20860 0.43984
 N1836 N 0.21098 0.22430 0.43665
 N1837 N 0.22118 0.23303 0.44501
 C1838 C 0.22990 0.22644 0.45700
 N1839 N 0.22799 0.21075 0.46035
 N1840 N 0.21790 0.20196 0.45183
 C1841 C 0.29924 0.42630 0.70089
 N1842 N 0.30968 0.41636 0.70818
 N1843 N 0.31793 0.40586 0.69966
 C1844 C 0.31595 0.40476 0.68353
 N1845 N 0.30558 0.41476 0.67616
 N1846 N 0.29740 0.42540 0.68469
 C1847 C 0.28938 0.43686 0.71072
 N1848 N 0.28139 0.44936 0.70423
 N1849 N 0.27207 0.45843 0.71340
 C1850 C 0.27026 0.45516 0.72929
 N1851 N 0.27828 0.44270 0.73570
 N1852 N 0.28772 0.43379 0.72663
 C1853 C 0.30272 0.92764 0.20653
 N1854 N 0.31159 0.91633 0.21391
 N1855 N 0.31933 0.90547 0.20533
 C1856 C 0.31832 0.90539 0.18905
 N1857 N 0.30953 0.91676 0.18163
 N1858 N 0.30192 0.92775 0.19023
 C1859 C 0.29310 0.93860 0.21614
 N1860 N 0.28680 0.95196 0.20955
 N1861 N 0.27709 0.96120 0.21809
 C1862 C 0.27321 0.95728 0.23343
 N1863 N 0.27961 0.94398 0.24002
 N1864 N 0.28945 0.93488 0.23157
 C1865 C 0.80347 0.42750 0.20579
 N1866 N 0.81295 0.41651 0.21289
 N1867 N 0.82035 0.40557 0.20411
 C1868 C 0.81841 0.40508 0.18794
 N1869 N 0.80900 0.41612 0.18079
 N1870 N 0.80170 0.42718 0.18957
 C1871 C 0.79429 0.43857 0.21572
 N1872 N 0.78736 0.45167 0.20923
 N1873 N 0.77809 0.46099 0.21816
 C1874 C 0.77528 0.45742 0.23383
 N1875 N 0.78229 0.44438 0.24031
 N1876 N 0.79171 0.43521 0.23145
 C1877 C 0.79880 0.92825 0.70134
 N1878 N 0.79579 0.92621 0.68542
 N1879 N 0.80368 0.91525 0.67697
 C1880 C 0.81488 0.90604 0.68415
 N1881 N 0.81797 0.90827 0.69998
 N1882 N 0.81005 0.91909 0.70841
 C1883 C 0.78942 0.93921 0.71131
 N1884 N 0.78971 0.93751 0.72751
 N1885 N 0.78069 0.94660 0.73685
 C1886 C 0.77118 0.95793 0.73040
 N1887 N 0.77104 0.95987 0.71417
 N1888 N 0.77996 0.95060 0.70477
 C1889 C 0.69697 0.57242 0.70474
 N1890 N 0.69870 0.57262 0.68851
 N1891 N 0.69126 0.58354 0.67964
 C1892 C 0.68175 0.59454 0.68671
 N1893 N 0.67986 0.59415 0.70290
 N1894 N 0.68741 0.58337 0.71176
 C1895 C 0.70627 0.56150 0.71476
 N1896 N 0.70889 0.56504 0.73044
 N1897 N 0.71835 0.55598 0.73938
 C1898 C 0.72536 0.54289 0.73305
 N1899 N 0.72252 0.53915 0.71744
 N1900 N 0.71320 0.54835 0.70841
 C1901 C 0.69906 0.07354 0.20184
 N1902 N 0.70077 0.07433 0.18562
 N1903 N 0.69261 0.08499 0.17708
 C1904 C 0.68240 0.09513 0.18447
 N1905 N 0.68057 0.09414 0.20063
 N1906 N 0.68879 0.08361 0.20916
 C1907 C 0.70887 0.06284 0.21161
 N1908 N 0.71021 0.06546 0.22762
 N1909 N 0.71970 0.05647 0.23659
 C1910 C 0.72811 0.04440 0.22994
 N1911 N 0.72660 0.04159 0.21392
 N1912 N 0.71720 0.05072 0.20489
 C1913 C 0.20232 0.57401 0.19970
 N1914 N 0.20327 0.57472 0.18341
 N1915 N 0.19484 0.58542 0.17520
 C1916 C 0.18507 0.59568 0.18301
 N1917 N 0.18396 0.59479 0.19925
 N1918 N 0.19250 0.58423 0.20744
 C1919 C 0.21253 0.56328 0.20901
 N1920 N 0.21560 0.56654 0.22466
 N1921 N 0.22556 0.55751 0.23306
 C1922 C 0.23266 0.54473 0.22621
 N1923 N 0.22942 0.54128 0.21060
 N1924 N 0.21960 0.55047 0.20211
 C1925 C 0.19956 0.07222 0.70149
 N1926 N 0.18922 0.08225 0.70875
 N1927 N 0.18074 0.09252 0.70017
 C1928 C 0.18237 0.09329 0.68398
 N1929 N 0.19266 0.08320 0.67662
 N1930 N 0.20108 0.07278 0.68523
 C1931 C 0.20956 0.06184 0.71142
 N1932 N 0.21742 0.04916 0.70515
 N1933 N 0.22672 0.04018 0.71447
 C1934 C 0.22861 0.04374 0.73029
 N1935 N 0.22073 0.05639 0.73646
 N1936 N 0.21133 0.06520 0.72724
 C1937 C 0.30590 0.57325 0.29306
 N1938 N 0.31600 0.58392 0.28642
 N1939 N 0.32366 0.59432 0.29559
 C1940 C 0.32134 0.59460 0.31173
 N1941 N 0.31128 0.58389 0.31842
 N1942 N 0.30375 0.57334 0.30925
 C1943 C 0.29662 0.56267 0.28272
 N1944 N 0.28967 0.54938 0.28870
 N1945 N 0.28056 0.54034 0.27935
 C1946 C 0.27795 0.54439 0.26376
 N1947 N 0.28495 0.55765 0.25781
 N1948 N 0.29421 0.56655 0.26708
 C1949 C 0.29806 0.07254 0.80146
 N1950 N 0.29656 0.07360 0.81770
 N1951 N 0.30504 0.08421 0.82595
 C1952 C 0.31536 0.09399 0.81824
 N1953 N 0.31697 0.09270 0.80208
 N1954 N 0.30845 0.08225 0.79386
 C1955 C 0.28792 0.06208 0.79184
 N1956 N 0.28620 0.06510 0.77593
 N1957 N 0.27667 0.05626 0.76694
 C1958 C 0.26861 0.04390 0.77344
 N1959 N 0.27046 0.04066 0.78935
 N1960 N 0.27989 0.04968 0.79843
 C1961 C 0.80012 0.57305 0.79732
 N1962 N 0.80913 0.58419 0.78991
 N1963 N 0.81719 0.59479 0.79844
 C1964 C 0.81642 0.59482 0.81473
 N1965 N 0.80744 0.58366 0.82222
 N1966 N 0.79947 0.57290 0.81365
 C1967 C 0.79048 0.56218 0.78763
 N1968 N 0.78428 0.54866 0.79396
 N1969 N 0.77496 0.53933 0.78511
 C1970 C 0.77139 0.54331 0.76969
 N1971 N 0.77766 0.55678 0.76339
 N1972 N 0.78712 0.56596 0.77215
 C1973 C 0.79609 0.07298 0.30158
 N1974 N 0.78955 0.08202 0.31334
 N1975 N 0.79824 0.09265 0.32120
 C1976 C 0.81374 0.09481 0.31747
 N1977 N 0.82033 0.08577 0.30571
 N1978 N 0.81166 0.07499 0.29794
 C1979 C 0.78617 0.06202 0.29231
 N1980 N 0.79274 0.05034 0.28323
 N1981 N 0.78366 0.04106 0.27411
 C1982 C 0.76772 0.04323 0.27364
 N1983 N 0.76116 0.05485 0.28279
 N1984 N 0.77021 0.06398 0.29206
 C1985 C 0.69938 0.42747 0.29685
 N1986 N 0.69028 0.41653 0.28929
 N1987 N 0.68223 0.40579 0.29770
 C1988 C 0.68310 0.40546 0.31397
 N1989 N 0.69213 0.41646 0.32160
 N1990 N 0.70010 0.42734 0.31317
 C1991 C 0.70915 0.43834 0.28731
 N1992 N 0.71566 0.45156 0.29390
 N1993 N 0.72522 0.46082 0.28523
 C1994 C 0.72872 0.45707 0.26975
 N1995 N 0.72214 0.44390 0.26319
 N1996 N 0.71245 0.43478 0.27177
 C1997 C 0.70171 0.92706 0.80093
 N1998 N 0.69154 0.91714 0.79333
 N1999 N 0.68297 0.90670 0.80161
 C2000 C 0.68438 0.90566 0.81781
 N2001 N 0.69450 0.91564 0.82548
 N2002 N 0.70298 0.92622 0.81719
 C2003 C 0.71183 0.93766 0.79142
 N2004 N 0.71912 0.95047 0.79804
 N2005 N 0.72851 0.95973 0.78914
 C2006 C 0.73112 0.95631 0.77340
 N2007 N 0.72381 0.94351 0.76686
 N2008 N 0.71430 0.93443 0.77566
 C2009 C 0.20067 0.42663 0.80038
 N2010 N 0.20268 0.42526 0.81653
 N2011 N 0.19432 0.41465 0.82493
 C2012 C 0.18358 0.40516 0.81747
 N2013 N 0.18145 0.40674 0.80139
 N2014 N 0.18988 0.41720 0.79301
 C2015 C 0.21065 0.43717 0.79061
 N2016 N 0.21204 0.43438 0.77463
 N2017 N 0.22151 0.44326 0.76557
 C2018 C 0.22984 0.45542 0.77206
 N2019 N 0.22832 0.45843 0.78805
 N2020 N 0.21896 0.44937 0.79720
 C2021 C 0.19700 0.92701 0.29521
 N2022 N 0.18816 0.91568 0.28789
 N2023 N 0.18058 0.90474 0.29652
 C2024 C 0.18174 0.90458 0.31279
 N2025 N 0.19053 0.91594 0.32015
 N2026 N 0.19798 0.92701 0.31151
 C2027 C 0.20633 0.93816 0.28550
 N2028 N 0.21247 0.95161 0.29201
 N2029 N 0.22186 0.96104 0.28332
 C2030 C 0.22554 0.95726 0.26789
 N2031 N 0.21929 0.94388 0.26140
 N2032 N 0.20977 0.93458 0.26999
 C2033 C 0.42710 0.29992 0.70050
 N2034 N 0.42741 0.29963 0.68417
 N2035 N 0.41687 0.30795 0.67567
 C2036 C 0.40577 0.31697 0.68322
 N2037 N 0.40565 0.31742 0.69951
 N2038 N 0.41604 0.30898 0.70799
 C2039 C 0.43764 0.28975 0.71005
 N2040 N 0.43347 0.28573 0.72526
 N2041 N 0.44238 0.27580 0.73383
 C2042 C 0.45594 0.26969 0.72761
 N2043 N 0.46029 0.27390 0.71246
 N2044 N 0.45123 0.28368 0.70379
 C2045 C 0.42722 0.79890 0.20115
 N2046 N 0.41762 0.80948 0.20867
 N2047 N 0.40644 0.81722 0.20056
 C2048 C 0.40430 0.81459 0.18463
 N2049 N 0.41396 0.80408 0.17701
 N2050 N 0.42526 0.79638 0.18514
 C2051 C 0.43857 0.78958 0.21069
 N2052 N 0.44995 0.78047 0.20367
 N2053 N 0.45950 0.77142 0.21263
 C2054 C 0.45787 0.77105 0.22889
 N2055 N 0.44659 0.78028 0.23583
 N2056 N 0.43720 0.78942 0.22692
 C2057 C 0.92628 0.29661 0.19871
 N2058 N 0.92548 0.29574 0.18242
 N2059 N 0.91495 0.30449 0.17433
 C2060 C 0.90500 0.31449 0.18225
 N2061 N 0.90602 0.31550 0.19848
 N2062 N 0.91639 0.30667 0.20655
 C2063 C 0.93674 0.28617 0.20805
 N2064 N 0.93344 0.28351 0.22376
 N2065 N 0.94238 0.27374 0.23245
 C2066 C 0.95510 0.26636 0.22583
 N2067 N 0.95859 0.26914 0.21013
 N2068 N 0.94948 0.27881 0.20134
 C2069 C 0.92804 0.80449 0.70613
 N2070 N 0.91701 0.81384 0.71330
 N2071 N 0.90630 0.82160 0.70454
 C2072 C 0.90609 0.82011 0.68830
 N2073 N 0.91717 0.81082 0.68109
 N2074 N 0.92801 0.80320 0.68985
 C2075 C 0.93888 0.79491 0.71593
 N2076 N 0.95219 0.78844 0.70947
 N2077 N 0.96132 0.77876 0.71816
 C2078 C 0.95735 0.77507 0.73354
 N2079 N 0.94413 0.78167 0.74002
 N2080 N 0.93513 0.79150 0.73142
 C2081 C 0.57346 0.30229 0.29317
 N2082 N 0.57372 0.30059 0.30942
 N2083 N 0.58495 0.30762 0.31816
 C2084 C 0.59620 0.31668 0.31095
 N2085 N 0.59578 0.31853 0.29475
 N2086 N 0.58468 0.31139 0.28602
 C2087 C 0.56208 0.29353 0.28326
 N2088 N 0.56523 0.29106 0.26747
 N2089 N 0.55570 0.28211 0.25855
 C2090 C 0.54249 0.27551 0.26501
 N2091 N 0.53914 0.27824 0.28075
 N2092 N 0.54881 0.28704 0.28974
 C2093 C 0.57330 0.80111 0.79897
 N2094 N 0.57356 0.79958 0.81523
 N2095 N 0.58386 0.80789 0.82401
 C2096 C 0.59412 0.81810 0.81684
 N2097 N 0.59365 0.81978 0.80063
 N2098 N 0.58350 0.81139 0.79187
 C2099 C 0.56307 0.79115 0.78892
 N2100 N 0.56670 0.78918 0.77318
 N2101 N 0.55803 0.77974 0.76392
 C2102 C 0.54525 0.77201 0.76996
 N2103 N 0.54142 0.77412 0.78570
 N2104 N 0.55026 0.78345 0.79505
 C2105 C 0.07078 0.30188 0.79770
 N2106 N 0.07145 0.30032 0.81393
 N2107 N 0.08211 0.30843 0.82243
 C2108 C 0.09237 0.31847 0.81501
 N2109 N 0.09151 0.32020 0.79882
 N2110 N 0.08097 0.31200 0.79033
 C2111 C 0.06023 0.29190 0.78801
 N2112 N 0.06339 0.28976 0.77218
 N2113 N 0.05464 0.27996 0.76338
 C2114 C 0.04226 0.27203 0.77000
 N2115 N 0.03888 0.27434 0.78580
 N2116 N 0.04780 0.28404 0.79468
 C2117 C 0.07241 0.79797 0.30121
 N2118 N 0.07388 0.79624 0.31738
 N2119 N 0.08470 0.80458 0.32547
 C2120 C 0.09432 0.81497 0.31766
 N2121 N 0.09263 0.81684 0.30156
 N2122 N 0.08194 0.80845 0.29349
 C2123 C 0.06177 0.78784 0.29179
 N2124 N 0.06430 0.78629 0.27578
 N2125 N 0.05543 0.77654 0.26704
 C2126 C 0.04356 0.76809 0.27392
 N2127 N 0.04080 0.76980 0.28992
 N2128 N 0.04984 0.77944 0.29874
 C2129 C 0.57379 0.70235 0.69860
 N2130 N 0.57499 0.70412 0.68241
 N2131 N 0.58555 0.69564 0.67407
 C2132 C 0.59516 0.68503 0.68165
 N2133 N 0.59374 0.68314 0.69777
 N2134 N 0.58333 0.69168 0.70609
 C2135 C 0.56337 0.71248 0.70831
 N2136 N 0.56633 0.71406 0.72423
 N2137 N 0.55754 0.72364 0.73326
 C2138 C 0.54531 0.73191 0.72678
 N2139 N 0.54213 0.73020 0.71086
 N2140 N 0.55110 0.72072 0.70174
 C2141 C 0.57148 0.20010 0.20179
 N2142 N 0.57246 0.20179 0.18558
 N2143 N 0.58352 0.19401 0.17723
 C2144 C 0.59390 0.18419 0.18481
 N2145 N 0.59275 0.18234 0.20097
 N2146 N 0.58182 0.19022 0.20931
 C2147 C 0.56039 0.20970 0.21131
 N2148 N 0.56318 0.21203 0.22718
 N2149 N 0.55399 0.22170 0.23575
 C2150 C 0.54149 0.22921 0.22883
 N2151 N 0.53848 0.22668 0.21301
 N2152 N 0.54782 0.21714 0.20436
 C2153 C 0.07276 0.69908 0.20255
 N2154 N 0.08284 0.68864 0.20963
 N2155 N 0.09345 0.68071 0.20093
 C2156 C 0.09450 0.68303 0.18484
 N2157 N 0.08435 0.69340 0.17768
 N2158 N 0.07361 0.70126 0.18639
 C2159 C 0.06210 0.70863 0.21260
 N2160 N 0.04958 0.71668 0.20627
 N2161 N 0.04046 0.72578 0.21563
 C2162 C 0.04370 0.72729 0.23155
 N2163 N 0.05618 0.71920 0.23780
 N2164 N 0.06513 0.70999 0.22853
 C2165 C 0.07159 0.19912 0.70217
 N2166 N 0.08184 0.18917 0.70973
 N2167 N 0.09222 0.18062 0.70134
 C2168 C 0.09285 0.18182 0.68510
 N2169 N 0.08253 0.19168 0.67750
 N2170 N 0.07202 0.20014 0.68589
 C2171 C 0.06114 0.20939 0.71168
 N2172 N 0.04838 0.21673 0.70501
 N2173 N 0.03938 0.22651 0.71375
 C2174 C 0.04301 0.22944 0.72937
 N2175 N 0.05574 0.22205 0.73598
 N2176 N 0.06458 0.21216 0.72734
 C2177 C 0.42909 0.70496 0.30218
 N2178 N 0.42666 0.68945 0.29843
 N2179 N 0.41559 0.68104 0.30605
 C2180 C 0.40666 0.68780 0.31778
 N2181 N 0.40924 0.70324 0.32168
 N2182 N 0.42019 0.71169 0.31395
 C2183 C 0.44028 0.71461 0.29285
 N2184 N 0.43871 0.73066 0.29243
 N2185 N 0.44788 0.73940 0.28285
 C2186 C 0.45914 0.73243 0.27356
 N2187 N 0.46095 0.71640 0.27424
 N2188 N 0.45163 0.70764 0.28366
 C2189 C 0.42632 0.19593 0.79286
 N2190 N 0.41508 0.18661 0.78608
 N2191 N 0.40426 0.17942 0.79514
 C2192 C 0.40413 0.18144 0.81132
 N2193 N 0.41541 0.19072 0.81816
 N2194 N 0.42636 0.19780 0.80908
 C2195 C 0.43737 0.20480 0.78263
 N2196 N 0.45068 0.21148 0.78880
 N2197 N 0.45999 0.22049 0.77961
 C2198 C 0.45624 0.22327 0.76398
 N2199 N 0.44301 0.21647 0.75781
 N2200 N 0.43382 0.20731 0.76693
 C2201 C 0.92745 0.69793 0.79512
 N2202 N 0.91618 0.68904 0.78780
 N2203 N 0.90545 0.68123 0.79646
 C2204 C 0.90546 0.68218 0.81274
 N2205 N 0.91677 0.69102 0.82010
 N2206 N 0.92763 0.69871 0.81143
 C2207 C 0.93837 0.70752 0.78544
 N2208 N 0.95188 0.71350 0.79188
 N2209 N 0.96114 0.72313 0.78328
 C2210 C 0.95709 0.72724 0.76803
 N2211 N 0.94366 0.72112 0.76158
 N2212 N 0.93454 0.71135 0.77008
 C2213 C 0.92805 0.19730 0.29813
 N2214 N 0.92640 0.20052 0.31405
 N2215 N 0.91599 0.19249 0.32297
 C2216 C 0.90698 0.18086 0.31633
 N2217 N 0.90882 0.17750 0.30049
 N2218 N 0.91908 0.18563 0.29155
 C2219 C 0.93844 0.20693 0.28784
 N2220 N 0.93582 0.20743 0.27177
 N2221 N 0.94453 0.21672 0.26233
 C2222 C 0.95635 0.22573 0.26853
 N2223 N 0.95917 0.22510 0.28460
 N2224 N 0.95028 0.21593 0.29411
 C2225 C 0.30049 0.29734 0.57130
 N2226 N 0.31648 0.29564 0.57208
 N2227 N 0.32506 0.30496 0.58166
 C2228 C 0.31797 0.31643 0.59062
 N2229 N 0.30203 0.31826 0.58964
 N2230 N 0.29344 0.30883 0.58023
 C2231 C 0.29076 0.28648 0.56170
 N2232 N 0.27516 0.28473 0.56520
 N2233 N 0.26624 0.27464 0.55691
 C2234 C 0.27250 0.26601 0.54468
 N2235 N 0.28810 0.26787 0.54104
 N2236 N 0.29710 0.27784 0.54950
 C2237 C 0.29485 0.80582 0.07154
 N2238 N 0.28859 0.81670 0.08175
 N2239 N 0.29782 0.82443 0.09208
 C2240 C 0.31361 0.82141 0.09276
 N2241 N 0.31990 0.81052 0.08255
 N2242 N 0.31069 0.80293 0.07205
 C2243 C 0.28450 0.79664 0.06085
 N2244 N 0.29047 0.78913 0.04775
 N2245 N 0.28120 0.78004 0.03864
 C2246 C 0.26566 0.77800 0.04239
 N2247 N 0.25969 0.78559 0.05546
 N2248 N 0.26891 0.79484 0.06444
 C2249 C 0.79747 0.30231 0.07099
 N2250 N 0.79041 0.31287 0.08103
 N2251 N 0.79906 0.32163 0.09104
 C2252 C 0.81506 0.32000 0.09153
 N2253 N 0.82213 0.30947 0.08146
 N2254 N 0.81350 0.30085 0.07130
 C2255 C 0.78788 0.29193 0.06072
 N2256 N 0.79445 0.28433 0.04797
 N2257 N 0.78593 0.27422 0.03922
 C2258 C 0.77057 0.27118 0.04304
 N2259 N 0.76401 0.27883 0.05578
 N2260 N 0.77247 0.28909 0.06439
 C2261 C 0.80517 0.79564 0.57205
 N2262 N 0.81614 0.78939 0.58217
 N2263 N 0.82400 0.79868 0.59236
 C2264 C 0.82103 0.81452 0.59298
 N2265 N 0.81004 0.82079 0.58288
 N2266 N 0.80232 0.81153 0.57252
 C2267 C 0.79595 0.78523 0.56144
 N2268 N 0.78831 0.79117 0.54839
 N2269 N 0.77932 0.78179 0.53928
 C2270 C 0.77750 0.76617 0.54297
 N2271 N 0.78520 0.76024 0.55600
 N2272 N 0.79435 0.76956 0.56498
 C2273 C 0.29576 0.69877 0.42669
 N2274 N 0.30788 0.70593 0.41880
 N2275 N 0.31679 0.69782 0.40848
 C2276 C 0.31384 0.68226 0.40549
 N2277 N 0.30174 0.67503 0.41341
 N2278 N 0.29289 0.68313 0.42390
 C2279 C 0.28553 0.70822 0.43729
 N2280 N 0.27581 0.70129 0.44828
 N2281 N 0.26642 0.71017 0.45758
 C2282 C 0.26629 0.72625 0.45601
 N2283 N 0.27600 0.73311 0.44502
 N2284 N 0.28550 0.72428 0.43592
 C2285 C 0.30198 0.20209 0.92922
 N2286 N 0.30064 0.18601 0.92897
 N2287 N 0.30939 0.17736 0.91888
 C2288 C 0.31993 0.18446 0.90886
 N2289 N 0.32144 0.20051 0.90931
 N2290 N 0.31255 0.20917 0.91923
 C2291 C 0.29150 0.21176 0.93937
 N2292 N 0.28835 0.22707 0.93534
 N2293 N 0.27814 0.23565 0.94392
 C2294 C 0.27088 0.22933 0.95701
 N2295 N 0.27420 0.21408 0.96120
 N2296 N 0.28425 0.20541 0.95246
 C2297 C 0.80264 0.70040 0.92920
 N2298 N 0.81355 0.70729 0.91946
 N2299 N 0.82226 0.69851 0.90949
 C2300 C 0.82024 0.68253 0.90871
 N2301 N 0.80933 0.67561 0.91846
 N2302 N 0.80075 0.68438 0.92861
 C2303 C 0.79240 0.71026 0.93944
 N2304 N 0.78477 0.70394 0.95232
 N2305 N 0.77491 0.71280 0.96107
 C2306 C 0.77217 0.72824 0.95715
 N2307 N 0.77985 0.73454 0.94429
 N2308 N 0.78987 0.72575 0.93568
 C2309 C 0.79952 0.20152 0.42932
 N2310 N 0.79257 0.19006 0.42032
 N2311 N 0.80108 0.18151 0.41000
 C2312 C 0.81681 0.18424 0.40812
 N2313 N 0.82381 0.19568 0.41714
 N2314 N 0.81532 0.20412 0.42763
 C2315 C 0.78981 0.21161 0.43977
 N2316 N 0.79641 0.22018 0.45184
 N2317 N 0.78754 0.22994 0.46071
 C2318 C 0.77181 0.23161 0.45768
 N2319 N 0.76523 0.22299 0.44564
 N2320 N 0.77404 0.21308 0.43694
 C2321 C 0.70011 0.30138 0.42842
 N2322 N 0.70149 0.31741 0.42731
 N2323 N 0.69237 0.32562 0.41717
 C2324 C 0.68143 0.31812 0.40794
 N2325 N 0.67989 0.30213 0.40926
 N2326 N 0.68912 0.29390 0.41925
 C2327 C 0.71095 0.29206 0.43855
 N2328 N 0.71311 0.27637 0.43557
 N2329 N 0.72340 0.26791 0.44417
 C2330 C 0.73183 0.27475 0.45620
 N2331 N 0.72954 0.29043 0.45933
 N2332 N 0.71938 0.29897 0.45057
 C2333 C 0.69919 0.79769 0.92921
 N2334 N 0.68322 0.79589 0.92835
 N2335 N 0.67459 0.80521 0.91875
 C2336 C 0.68162 0.81677 0.90986
 N2337 N 0.69754 0.81869 0.91093
 N2338 N 0.70617 0.80928 0.92035
 C2339 C 0.70899 0.78687 0.93885
 N2340 N 0.72460 0.78516 0.93534
 N2341 N 0.73361 0.77514 0.94370
 C2342 C 0.72742 0.76657 0.95601
 N2343 N 0.71181 0.76838 0.95964
 N2344 N 0.70273 0.77827 0.95112
 C2345 C 0.19602 0.29538 0.92860
 N2346 N 0.18525 0.28896 0.91842
 N2347 N 0.17687 0.29818 0.90856
 C2348 C 0.17912 0.31414 0.90835
 N2349 N 0.18990 0.32059 0.91853
 N2350 N 0.19813 0.31138 0.92856
 C2351 C 0.20580 0.28508 0.93880
 N2352 N 0.21273 0.29079 0.95233
 N2353 N 0.22211 0.28151 0.96120
 C2354 C 0.22505 0.26628 0.95673
 N2355 N 0.21812 0.26059 0.94319
 N2356 N 0.20857 0.26979 0.93447
 C2357 C 0.20122 0.80216 0.43052
 N2358 N 0.18534 0.79989 0.42932
 N2359 N 0.17677 0.80835 0.41891
 C2360 C 0.18375 0.81951 0.40948
 N2361 N 0.19959 0.82195 0.41088
 N2362 N 0.20818 0.81336 0.42114
 C2363 C 0.21092 0.79190 0.44088
 N2364 N 0.22657 0.78991 0.43769
 N2365 N 0.23522 0.77969 0.44621
 C2366 C 0.22861 0.77127 0.45841
 N2367 N 0.21301 0.77347 0.46179
 N2368 N 0.20429 0.78353 0.45311
 C2369 C 0.70438 0.69761 0.57101
 N2370 N 0.68851 0.70024 0.57175
 N2371 N 0.67943 0.69176 0.58168
 C2372 C 0.68588 0.68023 0.59107
 N2373 N 0.70170 0.67746 0.59013
 N2374 N 0.71079 0.68605 0.58035
 C2375 C 0.71464 0.70761 0.56098
 N2376 N 0.73038 0.70850 0.56416
 N2377 N 0.73971 0.71803 0.55560
 C2378 C 0.73371 0.72691 0.54340
 N2379 N 0.71798 0.72587 0.54007
 N2380 N 0.70859 0.71647 0.54878
 C2381 C 0.70026 0.19954 0.07053
 N2382 N 0.68868 0.20675 0.07920
 N2383 N 0.67947 0.19836 0.08904
 C2384 C 0.68159 0.18246 0.09070
 N2385 N 0.69313 0.17521 0.08197
 N2386 N 0.70224 0.18359 0.07198
 C2387 C 0.71103 0.20910 0.06060
 N2388 N 0.72017 0.20234 0.04901
 N2389 N 0.73027 0.21114 0.04046
 C2390 C 0.73175 0.22695 0.04339
 N2391 N 0.72260 0.23365 0.05498
 N2392 N 0.71238 0.22491 0.06336
 C2393 C 0.19872 0.70355 0.07066
 N2394 N 0.18662 0.70985 0.07932
 N2395 N 0.17809 0.70079 0.08916
 C2396 C 0.18145 0.68511 0.09087
 N2397 N 0.19353 0.67876 0.08218
 N2398 N 0.20196 0.68781 0.07217
 C2399 C 0.20860 0.71389 0.06061
 N2400 N 0.21807 0.70782 0.04891
 N2401 N 0.22728 0.71737 0.04016
 C2402 C 0.22750 0.73327 0.04295
 N2403 N 0.21804 0.73928 0.05466
 N2404 N 0.20870 0.72979 0.06325
 C2405 C 0.19717 0.19962 0.57115
 N2406 N 0.18626 0.20651 0.58089
 N2407 N 0.17737 0.19770 0.59064
 C2408 C 0.17920 0.18168 0.59116
 N2409 N 0.19010 0.17476 0.58140
 N2410 N 0.19886 0.18357 0.57148
 C2411 C 0.20759 0.20946 0.56118
 N2412 N 0.21522 0.20322 0.54828
 N2413 N 0.22524 0.21205 0.53972
 C2414 C 0.22815 0.22737 0.54390
 N2415 N 0.22049 0.23359 0.55679
 N2416 N 0.21031 0.22483 0.56521
   
