data_POSCAR
  _audit_creation_date              2014-09-24
  _audit_creation_method            'ToBaCCo'
  _symmetry_space_group_name_H-M    'P1'
  _symmetry_Int_Tables_number       1
  _symmetry_cell_setting            triclinic
  loop_
  _symmetry_equiv_pos_as_xyz
 x,y,z
_cell_length_a 47.9094
_cell_length_b 47.9506
_cell_length_c 47.9824
_cell_angle_alpha 89.986000
_cell_angle_beta 90.072300
_cell_angle_gamma 89.985100
loop_
  _atom_site_label
  _atom_site_type_symbol
  _atom_site_fract_x
  _atom_site_fract_y
  _atom_site_fract_z
C1 C 0.25034 1.07526 0.00070
 C2 C 0.25311 1.06107 0.02616
 C3 C 0.25346 1.03172 0.02579
 C4 C 0.24986 1.01668 0.00055
 C5 C 0.24624 1.03194 -0.02449
 C6 C 0.24720 1.06120 -0.02475
 C7 C 0.24992 0.98526 0.00018
 C8 C 0.25611 0.97037 -0.02461
 C9 C 0.25553 0.94113 -0.02523
 C10 C 0.24980 0.92656 -0.00066
 C11 C 0.24418 0.94048 0.02432
 C12 C 0.24377 0.96974 0.02456
 H13 H 0.25056 1.09783 0.00068
 H14 H 0.25711 1.02084 0.04516
 H15 H 0.24222 1.02127 -0.04389
 H16 H 0.26203 0.98113 -0.04347
 H17 H 0.24973 0.90398 -0.00101
 H18 H 0.23806 0.98007 0.04372
 C19 C 0.74810 0.57616 0.50231
 C20 C 0.75242 0.56178 0.52734
 C21 C 0.75332 0.53251 0.52694
 C22 C 0.74902 0.51750 0.50182
 C23 C 0.74406 0.53282 0.47706
 C24 C 0.74422 0.56206 0.47708
 C25 C 0.74987 0.48613 0.50128
 C26 C 0.75575 0.47158 0.47624
 C27 C 0.75598 0.44234 0.47546
 C28 C 0.75130 0.42749 0.50010
 C29 C 0.74595 0.44111 0.52532
 C30 C 0.74480 0.47036 0.52574
 H31 H 0.74780 0.59873 0.50246
 H32 H 0.75802 0.52177 0.54617
 H33 H 0.73961 0.52231 0.45766
 H34 H 0.76080 0.48264 0.45730
 H35 H 0.75180 0.40492 0.49961
 H36 H 0.73939 0.48049 0.54509
 C37 C 0.74742 1.00133 1.07687
 C38 C 0.74418 0.97600 1.06258
 C39 C 0.74390 0.97650 1.03329
 C40 C 0.74821 1.00166 1.01832
 C41 C 0.75219 1.02663 1.03363
 C42 C 0.75121 1.02679 1.06291
 C43 C 0.74866 1.00182 0.98692
 C44 C 0.74318 1.02657 0.97163
 C45 C 0.74388 1.02668 0.94237
 C46 C 0.74918 1.00172 0.92827
 C47 C 0.75423 0.97685 0.94263
 C48 C 0.75453 0.97711 0.97184
 H49 H 0.74714 1.00121 1.09941
 H50 H 0.73978 0.95724 1.02239
 H51 H 0.75657 1.04598 1.02298
 H52 H 0.73770 1.04574 0.98210
 H53 H 0.74933 1.00163 0.90570
 H54 H 0.75991 0.95798 0.98245
 C55 C 0.24982 0.49976 0.57471
 C56 C 0.25408 0.47474 0.56031
 C57 C 0.25433 0.47513 0.53108
 C58 C 0.24923 0.50011 0.51610
 C59 C 0.24454 0.52493 0.53141
 C60 C 0.24530 0.52493 0.56064
 C61 C 0.24864 0.50022 0.48477
 C62 C 0.25387 0.52499 0.46949
 C63 C 0.25297 0.52509 0.44025
 C64 C 0.24763 0.50010 0.42617
 C65 C 0.24282 0.47520 0.44055
 C66 C 0.24283 0.47545 0.46976
 H67 H 0.25001 0.49963 0.59727
 H68 H 0.25902 0.45592 0.52030
 H69 H 0.23969 0.54426 0.52089
 H70 H 0.25928 0.54417 0.48001
 H71 H 0.24729 0.50000 0.40361
 H72 H 0.23773 0.45631 0.48049
 C73 C 1.07698 0.24645 -0.00350
 C74 C 1.06351 0.25067 0.02211
 C75 C 1.03417 0.25203 0.02235
 C76 C 1.01827 0.24754 -0.00223
 C77 C 1.03277 0.24262 -0.02747
 C78 C 1.06202 0.24252 -0.02825
 C79 C 0.98681 0.24752 -0.00134
 C80 C 0.97066 0.25216 -0.02576
 C81 C 0.94125 0.25152 -0.02498
 C82 C 0.92815 0.24745 0.00086
 C83 C 0.94339 0.24295 0.02526
 C84 C 0.97256 0.24252 0.02404
 H85 H 1.09956 0.24614 -0.00435
 H86 H 1.02395 0.25694 0.04178
 H87 H 1.02167 0.23812 -0.04655
 H88 H 0.98070 0.25675 -0.04536
 H89 H 0.90559 0.24767 0.00219
 H90 H 0.98376 0.23754 0.04294
 C91 C 0.57456 0.74971 0.50029
 C92 C 0.56017 0.75442 0.52522
 C93 C 0.53090 0.75509 0.52482
 C94 C 0.51587 0.75016 0.49986
 C95 C 0.53114 0.74495 0.47513
 C96 C 0.56042 0.74523 0.47514
 C97 C 0.48449 0.75060 0.49958
 C98 C 0.46963 0.75643 0.47471
 C99 C 0.44037 0.75655 0.47428
 C100 C 0.42580 0.75169 0.49906
 C101 C 0.43976 0.74626 0.52410
 C102 C 0.46904 0.74529 0.52419
 H103 H 0.59716 0.74956 0.50046
 H104 H 0.52013 0.76009 0.54395
 H105 H 0.52054 0.74016 0.45583
 H106 H 0.48052 0.76151 0.45567
 H107 H 0.40321 0.75210 0.49881
 H108 H 0.47948 0.73983 0.54341
 C109 C 0.00101 0.75023 -0.07434
 C110 C 0.02586 0.74641 -0.05952
 C111 C 0.02511 0.74640 -0.03033
 C112 C -0.00014 0.75134 -0.01574
 C113 C -0.02486 0.75550 -0.03147
 C114 C -0.02464 0.75423 -0.06078
 C115 C -0.00060 0.75204 0.01566
 C116 C -0.02566 0.74739 0.03076
 C117 C -0.02602 0.74814 0.06011
 C118 C -0.00071 0.75238 0.07425
 C119 C 0.02430 0.75694 0.06006
 C120 C 0.02418 0.75732 0.03090
 H121 H 0.00182 0.75004 -0.09688
 H122 H 0.04427 0.74190 -0.01936
 H123 H -0.04433 0.76017 -0.02116
 H124 H -0.04485 0.74253 0.02000
 H125 H -0.00028 0.75222 0.09680
 H126 H 0.04350 0.76225 0.02044
 C127 C 0.50107 0.25432 0.42389
 C128 C 0.52642 0.24964 0.43771
 C129 C 0.52651 0.24773 0.46691
 C130 C 0.50166 0.25141 0.48243
 C131 C 0.47654 0.25667 0.46773
 C132 C 0.47602 0.25753 0.43853
 C133 C 0.50183 0.24964 0.51370
 C134 C 0.47718 0.24278 0.52847
 C135 C 0.47694 0.24184 0.55766
 C136 C 0.50172 0.24678 0.57224
 C137 C 0.52657 0.25317 0.55838
 C138 C 0.52650 0.25492 0.52918
 H139 H 0.50081 0.25534 0.40135
 H140 H 0.54595 0.24278 0.47723
 H141 H 0.45728 0.26060 0.47874
 H142 H 0.45813 0.23763 0.51756
 H143 H 0.50163 0.24577 0.59478
 H144 H 0.54556 0.26110 0.51887
 C145 C 1.07308 -0.00306 0.24835
 C146 C 1.05959 0.02251 0.25290
 C147 C 1.03021 0.02284 0.25353
 C148 C 1.01440 -0.00168 0.24827
 C149 C 1.02899 -0.02681 0.24295
 C150 C 1.05820 -0.02760 0.24332
 C151 C 0.98295 -0.00094 0.24784
 C152 C 0.96694 -0.02555 0.25186
 C153 C 0.93755 -0.02502 0.25056
 C154 C 0.92427 0.00080 0.24662
 C155 C 0.93939 0.02546 0.24294
 C156 C 0.96859 0.02441 0.24302
 H157 H 1.09566 -0.00406 0.24853
 H158 H 1.01991 0.04222 0.25857
 H159 H 1.01801 -0.04577 0.23770
 H160 H 0.97709 -0.04514 0.25640
 H161 H 0.90170 0.00190 0.24636
 H162 H 0.97978 0.04346 0.23863
 C163 C 0.57348 0.50091 0.75093
 C164 C 0.55857 0.52548 0.75593
 C165 C 0.52933 0.52475 0.75557
 C166 C 0.51482 0.49976 0.74946
 C167 C 0.53060 0.47535 0.74404
 C168 C 0.55988 0.47574 0.74519
 C169 C 0.48346 0.49914 0.74901
 C170 C 0.46880 0.47399 0.75396
 C171 C 0.43954 0.47328 0.75354
 C172 C 0.42477 0.49807 0.74902
 C173 C 0.43854 0.52341 0.74447
 C174 C 0.46783 0.52373 0.74396
 H175 H 0.59607 0.50141 0.75151
 H176 H 0.51817 0.54363 0.76077
 H177 H 0.52043 0.45604 0.73840
 H178 H 0.47984 0.45495 0.75883
 H179 H 0.40218 0.49760 0.74905
 H180 H 0.47818 0.54316 0.73917
 C181 C 1.00109 1.07363 0.75257
 C182 C 0.97535 1.06023 0.74856
 C183 C 0.97491 1.03085 0.74793
 C184 C 0.99957 1.01502 0.75251
 C185 C 1.02482 1.02954 0.75747
 C186 C 1.02572 1.05869 0.75703
 C187 C 0.99906 0.98361 0.75244
 C188 C 1.02374 0.96796 0.74751
 C189 C 1.02363 0.93862 0.74844
 C190 C 0.99810 0.92497 0.75288
 C191 C 0.97336 0.93973 0.75747
 C192 C 0.97398 0.96893 0.75767
 H193 H 1.00216 1.09618 0.75235
 H194 H 0.95538 1.02057 0.74335
 H195 H 1.04388 1.01852 0.76235
 H196 H 1.04307 0.97837 0.74249
 H197 H 0.99732 0.90241 0.75292
 H198 H 0.95491 0.97986 0.76262
 C199 C 0.50033 0.57281 0.24950
 C200 C 0.47524 0.55904 0.24381
 C201 C 0.47484 0.52978 0.24332
 C202 C 0.49927 0.51420 0.24916
 C203 C 0.52421 0.52887 0.25529
 C204 C 0.52490 0.55809 0.25507
 C205 C 0.49886 0.48288 0.24873
 C206 C 0.52362 0.46770 0.24351
 C207 C 0.52380 0.43848 0.24394
 C208 C 0.49871 0.42423 0.24848
 C209 C 0.47363 0.43854 0.25312
 C210 C 0.47389 0.46783 0.25363
 H211 H 0.50078 0.59539 0.24959
 H212 H 0.45557 0.51944 0.23777
 H213 H 0.54311 0.51787 0.26085
 H214 H 0.54286 0.47837 0.23861
 H215 H 0.49873 0.40165 0.24846
 H216 H 0.45469 0.47862 0.25848
 O217 O 0.24968 0.17605 0.21377
 O218 O 0.28170 0.17088 0.25373
 O219 O 0.17584 0.20893 0.25231
 O220 O 0.16419 0.24547 0.27849
 O221 O 0.21142 0.24851 0.17861
 O222 O 0.24716 0.27969 0.17173
 O223 O 0.24610 0.28796 0.32445
 O224 O 0.21514 0.25025 0.33160
 O225 O 0.31955 0.25201 0.29072
 O226 O 0.32747 0.21847 0.25718
 O227 O 0.28540 0.32177 0.25441
 O228 O 0.24650 0.32999 0.22144
 O229 O 0.24554 0.32089 0.29033
 O230 O 0.21529 0.32874 0.24915
 O231 O 0.31891 0.28817 0.25520
 O232 O 0.32498 0.25054 0.21918
 O233 O 0.28614 0.25248 0.32446
 O234 O 0.24810 0.21852 0.33306
 O235 O 0.25046 0.20994 0.18058
 O236 O 0.28348 0.24947 0.17579
 O237 O 0.17656 0.24821 0.21088
 O238 O 0.16855 0.28047 0.25030
 O239 O 0.21020 0.17605 0.25241
 O240 O 0.24633 0.16976 0.28472
 Zr241 Zr 0.24744 0.19888 0.25152
 O242 O 0.27264 0.22352 0.27770
 Zr243 Zr 0.19765 0.24722 0.24983
 O244 O 0.22079 0.27358 0.27664
 Zr245 Zr 0.24805 0.24783 0.20230
 O246 O 0.27285 0.27462 0.22652
 Zr247 Zr 0.24790 0.25014 0.30211
 O248 O 0.22213 0.22352 0.27776
 Zr249 Zr 0.29713 0.25037 0.25352
 O250 O 0.27455 0.22328 0.22714
 Zr251 Zr 0.24761 0.29883 0.25270
 O252 O 0.22238 0.27442 0.22589
 O253 O 0.22188 0.22163 0.22485
 O254 O 0.27363 0.27643 0.27920
 C255 C 0.25114 0.18430 0.18829
 C256 C 0.18445 0.18349 0.25323
 C257 C 0.18556 0.24907 0.18557
 C258 C 0.24503 0.31337 0.31598
 C259 C 0.31175 0.25315 0.31626
 C260 C 0.31103 0.31373 0.25548
 H261 H 0.28469 0.21131 0.28916
 H262 H 0.28473 0.28616 0.21424
 H263 H 0.21030 0.20947 0.21283
 H264 H 0.20771 0.28471 0.28803
 H265 H 0.20131 0.23628 0.32522
 H266 H 0.17037 0.25520 0.29559
 H267 H 0.34379 0.25550 0.22625
 H268 H 0.27795 0.24322 0.15685
 H269 H 0.26389 0.20579 0.32934
 H270 H 0.23385 0.17759 0.29917
 H271 H 0.26183 0.32616 0.20819
 H272 H 0.23573 0.29505 0.17944
 H273 H 0.27526 0.15197 0.24830
 H274 H 0.32227 0.20393 0.24348
 H275 H 0.17407 0.29352 0.23529
 H276 H 0.20137 0.32470 0.26382
 O277 O 0.74701 0.82017 0.20968
 O278 O 0.71530 0.82679 0.24915
 O279 O 0.82083 0.78838 0.24916
 O280 O 0.83229 0.75210 0.27590
 O281 O 0.78639 0.74806 0.17493
 O282 O 0.74998 0.71650 0.16883
 O283 O 0.74846 0.71118 0.32101
 O284 O 0.78113 0.74772 0.32825
 O285 O 0.67640 0.74715 0.28735
 O286 O 0.66927 0.77969 0.25203
 O287 O 0.71114 0.67587 0.25128
 O288 O 0.75043 0.66721 0.21923
 O289 O 0.74861 0.67676 0.28840
 O290 O 0.78147 0.66895 0.24800
 O291 O 0.67765 0.70950 0.25268
 O292 O 0.67145 0.74598 0.21543
 O293 O 0.71077 0.74670 0.32021
 O294 O 0.74877 0.78030 0.32896
 O295 O 0.74726 0.78709 0.17569
 O296 O 0.71376 0.74770 0.17186
 O297 O 0.81981 0.74834 0.20877
 O298 O 0.82792 0.71683 0.24833
 O299 O 0.78656 0.82133 0.24808
 O300 O 0.75034 0.82819 0.28016
 Zr301 Zr 0.74933 0.79844 0.24752
 O302 O 0.72381 0.77450 0.27371
 Zr303 Zr 0.79884 0.75009 0.24715
 O304 O 0.77564 0.72405 0.27400
 Zr305 Zr 0.74917 0.74924 0.19844
 O306 O 0.72399 0.72287 0.22322
 Zr307 Zr 0.74867 0.74837 0.29834
 O308 O 0.77461 0.77453 0.27430
 Zr309 Zr 0.69927 0.74736 0.24983
 O310 O 0.72239 0.77386 0.22311
 Zr311 Zr 0.74885 0.69867 0.25013
 O312 O 0.77428 0.72278 0.22312
 O313 O 0.77509 0.77545 0.22137
 O314 O 0.72285 0.72182 0.27590
 C315 C 0.74608 0.81256 0.18405
 C316 C 0.81229 0.81388 0.24936
 C317 C 0.81196 0.74731 0.18315
 C318 C 0.74807 0.68544 0.31375
 C319 C 0.68499 0.74633 0.31276
 C320 C 0.68559 0.68394 0.25291
 H321 H 0.71188 0.78700 0.28493
 H322 H 0.71215 0.71114 0.21106
 H323 H 0.78681 0.78744 0.20934
 H324 H 0.78838 0.71299 0.28588
 H325 H 0.79516 0.76161 0.32215
 H326 H 0.82613 0.74246 0.29304
 H327 H 0.65263 0.74137 0.22267
 H328 H 0.71961 0.75301 0.15275
 H329 H 0.73325 0.79328 0.32489
 H330 H 0.76313 0.82089 0.29464
 H331 H 0.73554 0.67117 0.20548
 H332 H 0.76209 0.70170 0.17663
 H333 H 0.72182 0.84554 0.24328
 H334 H 0.67469 0.79364 0.23783
 H335 H 0.82205 0.70321 0.23397
 H336 H 0.79400 0.67210 0.26410
 O337 O 0.74750 0.17847 0.78873
 O338 O 0.72327 0.16690 0.75106
 O339 O 0.82284 0.21210 0.74888
 O340 O 0.83475 0.24880 0.72409
 O341 O 0.78813 0.25133 0.82332
 O342 O 0.75435 0.28011 0.83189
 O343 O 0.74873 0.28773 0.67786
 O344 O 0.78089 0.25187 0.66962
 O345 O 0.67809 0.25298 0.71261
 O346 O 0.67011 0.22044 0.74766
 O347 O 0.71368 0.32335 0.74747
 O348 O 0.74890 0.33025 0.78100
 O349 O 0.74917 0.32210 0.71057
 O350 O 0.78552 0.32752 0.74690
 O351 O 0.67931 0.29051 0.74782
 O352 O 0.67383 0.25392 0.78477
 O353 O 0.71125 0.25150 0.67864
 O354 O 0.75031 0.21730 0.67124
 O355 O 0.74945 0.21154 0.82267
 O356 O 0.71520 0.25096 0.82618
 O357 O 0.82235 0.25080 0.79041
 O358 O 0.82838 0.28390 0.75002
 O359 O 0.78978 0.17810 0.75043
 O360 O 0.74966 0.17257 0.71713
 Zr361 Zr 0.75175 0.20052 0.75121
 O362 O 0.72503 0.22449 0.72584
 Zr363 Zr 0.80062 0.24958 0.75195
 O364 O 0.77689 0.27473 0.72471
 Zr365 Zr 0.75106 0.24946 0.80027
 O366 O 0.72613 0.27631 0.77590
 Zr367 Zr 0.74955 0.25041 0.70057
 O368 O 0.77661 0.22485 0.72449
 Zr369 Zr 0.70088 0.25205 0.74983
 O370 O 0.72434 0.22483 0.77560
 Zr371 Zr 0.75072 0.30023 0.74872
 O372 O 0.77600 0.27649 0.77614
 O373 O 0.77736 0.22350 0.77753
 O374 O 0.72427 0.27710 0.72338
 C375 C 0.74721 0.18614 0.81437
 C376 C 0.81524 0.18642 0.74876
 C377 C 0.81387 0.25190 0.81584
 C378 C 0.74832 0.31348 0.68522
 C379 C 0.68576 0.25284 0.68696
 C380 C 0.68792 0.31592 0.74691
 H381 H 0.71284 0.21200 0.71483
 H382 H 0.71466 0.28838 0.78808
 H383 H 0.78909 0.21145 0.78954
 H384 H 0.78942 0.28597 0.71277
 H385 H 0.79591 0.23909 0.67579
 H386 H 0.82758 0.25517 0.70584
 H387 H 0.65484 0.25847 0.77789
 H388 H 0.72065 0.24513 0.84527
 H389 H 0.73348 0.20570 0.67404
 H390 H 0.76565 0.17693 0.70482
 H391 H 0.76420 0.32565 0.79412
 H392 H 0.74261 0.29606 0.82609
 H393 H 0.70459 0.17515 0.74818
 H394 H 0.67382 0.20756 0.76337
 H395 H 0.82426 0.29597 0.76624
 H396 H 0.77845 0.34662 0.74323
 O397 O 0.25201 0.82390 0.78817
 O398 O 0.28110 0.83174 0.74755
 O399 O 0.17850 0.78969 0.74930
 O400 O 0.16636 0.75346 0.72406
 O401 O 0.21377 0.75138 0.82391
 O402 O 0.24996 0.72013 0.83022
 O403 O 0.24855 0.71229 0.67737
 O404 O 0.21764 0.74988 0.67020
 O405 O 0.32260 0.74835 0.71060
 O406 O 0.33066 0.78100 0.74419
 O407 O 0.28753 0.67861 0.74691
 O408 O 0.24994 0.66932 0.77957
 O409 O 0.24818 0.67929 0.71141
 O410 O 0.21754 0.67182 0.75329
 O411 O 0.32207 0.71114 0.74670
 O412 O 0.32753 0.74853 0.78299
 O413 O 0.28805 0.74749 0.67794
 O414 O 0.25050 0.78184 0.66924
 O415 O 0.25346 0.79011 0.82146
 O416 O 0.28616 0.75052 0.82633
 O417 O 0.18000 0.75052 0.79046
 O418 O 0.17171 0.71877 0.75074
 O419 O 0.21156 0.82372 0.74922
 O420 O 0.25021 0.83062 0.71783
 Zr421 Zr 0.24951 0.80108 0.75053
 O422 O 0.27509 0.77645 0.72455
 Zr423 Zr 0.20061 0.75218 0.75186
 O424 O 0.22338 0.72616 0.72497
 Zr425 Zr 0.25066 0.75217 0.79984
 O426 O 0.27550 0.72542 0.77535
 Zr427 Zr 0.25023 0.75000 0.69997
 O428 O 0.22435 0.77653 0.72406
 Zr429 Zr 0.30012 0.74935 0.74823
 O430 O 0.27719 0.77661 0.77462
 Zr431 Zr 0.25017 0.70128 0.74912
 O432 O 0.22519 0.72537 0.77616
 O433 O 0.22421 0.77816 0.77718
 O434 O 0.27617 0.72359 0.72262
 C435 C 0.25405 0.81571 0.81363
 C436 C 0.18605 0.81534 0.74837
 C437 C 0.18813 0.74994 0.81600
 C438 C 0.24769 0.68684 0.68576
 C439 C 0.31387 0.74719 0.68527
 C440 C 0.31332 0.68580 0.74608
 H441 H 0.28703 0.78879 0.71316
 H442 H 0.28731 0.71373 0.78759
 H443 H 0.21254 0.79024 0.78917
 H444 H 0.21025 0.71508 0.71355
 H445 H 0.20381 0.76394 0.67638
 H446 H 0.17293 0.74577 0.70611
 H447 H 0.34651 0.74420 0.77600
 H448 H 0.28063 0.75657 0.84532
 H449 H 0.26647 0.79437 0.67290
 H450 H 0.23727 0.82363 0.70332
 H451 H 0.26420 0.67401 0.79374
 H452 H 0.23844 0.70484 0.82247
 H453 H 0.29530 0.82717 0.76180
 H454 H 0.32796 0.79394 0.76000
 H455 H 0.17678 0.70585 0.76604
 H456 H 0.20449 0.67457 0.73753
 O457 O 0.25415 0.31834 0.70914
 O458 O 0.21978 0.32471 0.74685
 O459 O 0.32480 0.28451 0.74931
 O460 O 0.33516 0.24784 0.77595
 O461 O 0.29062 0.24516 0.67436
 O462 O 0.25328 0.21512 0.66705
 O463 O 0.25064 0.20804 0.81920
 O464 O 0.28287 0.24446 0.82756
 O465 O 0.17891 0.24571 0.78470
 O466 O 0.17296 0.27861 0.74968
 O467 O 0.21310 0.17411 0.74896
 O468 O 0.25257 0.16508 0.71705
 O469 O 0.25022 0.17387 0.78635
 O470 O 0.28326 0.16589 0.74625
 O471 O 0.18018 0.20831 0.74989
 O472 O 0.17523 0.24512 0.71277
 O473 O 0.21271 0.24352 0.81807
 O474 O 0.25086 0.27708 0.82790
 O475 O 0.25349 0.28552 0.67489
 O476 O 0.21810 0.24744 0.67018
 O477 O 0.32370 0.24422 0.70854
 O478 O 0.33064 0.21286 0.74828
 O479 O 0.29100 0.31798 0.74954
 O480 O 0.25344 0.32543 0.77957
 Zr481 Zr 0.25348 0.29594 0.74669
 O482 O 0.22708 0.27225 0.77221
 Zr483 Zr 0.30217 0.24663 0.74665
 O484 O 0.27803 0.22085 0.77286
 Zr485 Zr 0.25319 0.24736 0.69721
 O486 O 0.22719 0.22112 0.72126
 Zr487 Zr 0.25106 0.24544 0.79697
 O488 O 0.27788 0.27128 0.77360
 Zr489 Zr 0.20247 0.24582 0.74764
 O490 O 0.22643 0.27225 0.72156
 Zr491 Zr 0.25119 0.19620 0.74832
 O492 O 0.27742 0.22010 0.72194
 O493 O 0.27935 0.27268 0.72084
 O494 O 0.22516 0.21959 0.77385
 C495 C 0.25389 0.31098 0.68342
 C496 C 0.31658 0.31007 0.75073
 C497 C 0.31603 0.24342 0.68285
 C498 C 0.24998 0.18237 0.81177
 C499 C 0.18705 0.24396 0.81021
 C500 C 0.18770 0.18262 0.75026
 H501 H 0.21518 0.28486 0.78336
 H502 H 0.21534 0.20974 0.70877
 H503 H 0.29183 0.28439 0.70931
 H504 H 0.29043 0.20948 0.78481
 H505 H 0.29724 0.25810 0.82169
 H506 H 0.32841 0.23854 0.79305
 H507 H 0.15621 0.24082 0.71967
 H508 H 0.22436 0.25308 0.65130
 H509 H 0.23485 0.28961 0.82437
 H510 H 0.26515 0.31762 0.79467
 H511 H 0.23760 0.16916 0.70343
 H512 H 0.26452 0.19969 0.67492
 H513 H 0.22683 0.34339 0.74140
 H514 H 0.17864 0.29246 0.73547
 H515 H 0.32474 0.19934 0.73386
 H516 H 0.29565 0.16864 0.76253
 O517 O 0.74728 0.67872 0.71473
 O518 O 0.78006 0.67278 0.75407
 O519 O 0.67481 0.71267 0.75484
 O520 O 0.66429 0.74914 0.78150
 O521 O 0.70965 0.75224 0.68081
 O522 O 0.74588 0.78248 0.67325
 O523 O 0.74929 0.78988 0.82612
 O524 O 0.71618 0.75358 0.83355
 O525 O 0.81986 0.75191 0.79095
 O526 O 0.82670 0.71934 0.75635
 O527 O 0.78610 0.82343 0.75486
 O528 O 0.74615 0.83225 0.72322
 O529 O 0.74965 0.82296 0.79215
 O530 O 0.71615 0.83156 0.75281
 O531 O 0.81911 0.78935 0.75634
 O532 O 0.82421 0.75231 0.71932
 O533 O 0.78703 0.75311 0.82526
 O534 O 0.74808 0.72024 0.83418
 O535 O 0.74833 0.71272 0.68165
 O536 O 0.78176 0.75183 0.67660
 O537 O 0.67543 0.75210 0.71378
 O538 O 0.66894 0.78444 0.75341
 O539 O 0.70860 0.67919 0.75460
 O540 O 0.74531 0.67176 0.78549
 Zr541 Zr 0.74618 0.70130 0.75266
 O542 O 0.77227 0.72527 0.77852
 Zr543 Zr 0.69725 0.75054 0.75226
 O544 O 0.72133 0.77635 0.77887
 Zr545 Zr 0.74676 0.75049 0.70370
 O546 O 0.77249 0.77667 0.72762
 Zr547 Zr 0.74845 0.75216 0.80355
 O548 O 0.72180 0.72618 0.77954
 Zr549 Zr 0.79684 0.75180 0.75403
 O550 O 0.77326 0.72533 0.72791
 Zr551 Zr 0.74811 0.80109 0.75442
 O552 O 0.72200 0.77735 0.72794
 O553 O 0.72053 0.72464 0.72661
 O554 O 0.77421 0.77798 0.78021
 C555 C 0.74877 0.68705 0.68928
 C556 C 0.68303 0.68712 0.75591
 C557 C 0.68395 0.75321 0.68833
 C558 C 0.75023 0.81533 0.81777
 C559 C 0.81249 0.75289 0.81664
 C560 C 0.81154 0.81503 0.75634
 H561 H 0.78422 0.71268 0.78967
 H562 H 0.78431 0.78813 0.71521
 H563 H 0.70852 0.71274 0.71474
 H564 H 0.70893 0.78776 0.79073
 H565 H 0.70191 0.73987 0.82758
 H566 H 0.67077 0.75904 0.79839
 H567 H 0.84314 0.75706 0.72621
 H568 H 0.77588 0.74570 0.65773
 H569 H 0.76361 0.70724 0.83024
 H570 H 0.73348 0.67971 0.80041
 H571 H 0.76124 0.82850 0.70968
 H572 H 0.73480 0.79798 0.68117
 H573 H 0.77333 0.65404 0.74837
 H574 H 0.82094 0.70515 0.74252
 H575 H 0.67477 0.79766 0.73868
 H576 H 0.70362 0.82847 0.76889
 O577 O 0.25347 0.67783 0.28745
 O578 O 0.22242 0.66829 0.24891
 O579 O 0.32358 0.71322 0.24553
 O580 O 0.33451 0.75050 0.22135
 O581 O 0.28918 0.75329 0.32109
 O582 O 0.25385 0.77913 0.33107
 O583 O 0.24677 0.78744 0.17654
 O584 O 0.28000 0.75216 0.16797
 O585 O 0.17765 0.75126 0.21230
 O586 O 0.17090 0.71807 0.24631
 O587 O 0.21187 0.82181 0.24623
 O588 O 0.24721 0.82964 0.27977
 O589 O 0.24716 0.82172 0.20934
 O590 O 0.28361 0.82797 0.24536
 O591 O 0.17835 0.78814 0.24788
 O592 O 0.17431 0.75089 0.28447
 O593 O 0.21030 0.75044 0.17780
 O594 O 0.24967 0.71726 0.16947
 O595 O 0.25296 0.71100 0.32133
 O596 O 0.21615 0.74916 0.32500
 O597 O 0.32298 0.75208 0.28775
 O598 O 0.32761 0.78530 0.24723
 O599 O 0.29111 0.67864 0.24736
 O600 O 0.25130 0.67042 0.21738
 Zr601 Zr 0.25289 0.70018 0.24985
 O602 O 0.22549 0.72353 0.22474
 Zr603 Zr 0.30070 0.75035 0.24959
 O604 O 0.27598 0.77503 0.22284
 Zr605 Zr 0.25189 0.74900 0.29887
 O606 O 0.22596 0.77523 0.27488
 Zr607 Zr 0.24888 0.75008 0.19911
 O608 O 0.27669 0.72506 0.22261
 Zr609 Zr 0.20097 0.75030 0.24919
 O610 O 0.22531 0.72360 0.27486
 Zr611 Zr 0.24955 0.79977 0.24738
 O612 O 0.27580 0.77659 0.27429
 O613 O 0.27850 0.72388 0.27558
 O614 O 0.22332 0.77600 0.22245
 C615 C 0.25338 0.68548 0.31309
 C616 C 0.31633 0.68743 0.24514
 C617 C 0.31477 0.75405 0.31323
 C618 C 0.24603 0.81315 0.18399
 C619 C 0.18494 0.75143 0.18654
 C620 C 0.18631 0.81372 0.24631
 H621 H 0.21346 0.71071 0.21394
 H622 H 0.21434 0.78698 0.28723
 H623 H 0.29119 0.71238 0.28714
 H624 H 0.28806 0.78660 0.21076
 H625 H 0.29511 0.73932 0.17381
 H626 H 0.32693 0.75651 0.20315
 H627 H 0.15512 0.75494 0.27784
 H628 H 0.22166 0.74227 0.34370
 H629 H 0.23354 0.70488 0.17300
 H630 H 0.26448 0.67683 0.20285
 H631 H 0.26274 0.82540 0.29274
 H632 H 0.24259 0.79528 0.32491
 H633 H 0.20865 0.67269 0.26361
 H634 H 0.17478 0.70499 0.26178
 H635 H 0.32347 0.79727 0.26353
 H636 H 0.27602 0.84689 0.24184
 O637 O 0.75340 0.32653 0.28768
 O638 O 0.78595 0.33254 0.24865
 O639 O 0.68181 0.29165 0.24588
 O640 O 0.67026 0.25472 0.22131
 O641 O 0.71496 0.25376 0.32220
 O642 O 0.75136 0.22258 0.32943
 O643 O 0.75492 0.21481 0.17682
 O644 O 0.72290 0.25187 0.16897
 O645 O 0.82703 0.25200 0.21198
 O646 O 0.83307 0.28559 0.24632
 O647 O 0.79197 0.18211 0.24754
 O648 O 0.75328 0.17243 0.27944
 O649 O 0.75476 0.18199 0.21102
 O650 O 0.72213 0.17385 0.25131
 O651 O 0.82611 0.21508 0.24803
 O652 O 0.83029 0.25321 0.28419
 O653 O 0.79330 0.25020 0.17851
 O654 O 0.75556 0.28421 0.16844
 O655 O 0.75434 0.29270 0.32095
 O656 O 0.78724 0.25363 0.32679
 O657 O 0.68211 0.25293 0.28783
 O658 O 0.67556 0.22034 0.24824
 O659 O 0.71428 0.32629 0.24810
 O660 O 0.75148 0.33273 0.21642
 Zr661 Zr 0.75224 0.30384 0.24984
 O662 O 0.77872 0.27953 0.22442
 Zr663 Zr 0.70390 0.25419 0.24986
 O664 O 0.72774 0.22838 0.22367
 Zr665 Zr 0.75253 0.25480 0.29925
 O666 O 0.77857 0.22857 0.27550
 Zr667 Zr 0.75489 0.25258 0.19938
 O668 O 0.72817 0.27873 0.22283
 Zr669 Zr 0.80348 0.25294 0.24899
 O670 O 0.77930 0.27960 0.27475
 Zr671 Zr 0.75423 0.20407 0.24867
 O672 O 0.72806 0.22772 0.27491
 O673 O 0.72654 0.28045 0.27574
 O674 O 0.78056 0.22678 0.22291
 C675 C 0.75491 0.31830 0.31317
 C676 C 0.68900 0.31745 0.24576
 C677 C 0.68953 0.25246 0.31359
 C678 C 0.75511 0.18939 0.18533
 C679 C 0.81892 0.25018 0.18648
 C680 C 0.81766 0.18964 0.24709
 H681 H 0.79076 0.29196 0.21323
 H682 H 0.79027 0.21711 0.28805
 H683 H 0.71440 0.29243 0.28736
 H684 H 0.71521 0.21701 0.21186
 H685 H 0.70888 0.26593 0.17469
 H686 H 0.67742 0.24718 0.20352
 H687 H 0.84938 0.24865 0.27765
 H688 H 0.78100 0.25935 0.34566
 H689 H 0.77136 0.29688 0.17235
 H690 H 0.73923 0.32478 0.20183
 H691 H 0.76757 0.17699 0.29362
 H692 H 0.73981 0.20739 0.32153
 H693 H 0.77890 0.35136 0.25363
 H694 H 0.82703 0.29999 0.25980
 H695 H 0.68051 0.20757 0.26370
 H696 H 0.70962 0.17648 0.23511
 C697 C 0.25661 0.10874 0.09797
 N698 N 0.25570 0.08043 0.09989
 N699 N 0.25508 0.06471 0.07683
 C700 C 0.25520 0.07675 0.05106
 N701 N 0.25640 0.10500 0.04959
 N702 N 0.25714 0.12057 0.07240
 C703 C 0.25617 0.12728 0.12241
 N704 N 0.25723 0.15518 0.11803
 N705 N 0.25582 0.17295 0.13917
 C706 C 0.25326 0.16365 0.16570
 N707 N 0.25234 0.13565 0.17033
 N708 N 0.25374 0.11772 0.14900
 C709 C 0.75681 0.61071 0.59980
 N710 N 0.75095 0.58302 0.60180
 N711 N 0.75042 0.56700 0.57899
 C712 C 0.75571 0.57814 0.55342
 N713 N 0.76209 0.60566 0.55177
 N714 N 0.76264 0.62156 0.57441
 C715 C 0.75543 0.62964 0.62389
 N716 N 0.75830 0.65742 0.61952
 N717 N 0.75615 0.67538 0.64047
 C718 C 0.75109 0.66637 0.66675
 N719 N 0.74835 0.63850 0.67135
 N720 N 0.75038 0.62042 0.65023
 C721 C 0.74021 0.90373 0.10953
 N722 N 0.74107 0.90210 0.08123
 N723 N 0.74176 0.92533 0.06576
 C724 C 0.74178 0.95099 0.07804
 N725 N 0.74058 0.95219 0.10628
 N726 N 0.73977 0.92921 0.12161
 C727 C 0.74073 0.87908 0.12777
 N728 N 0.73989 0.88315 0.15570
 N729 N 0.74143 0.86180 0.17321
 C730 C 0.74391 0.83535 0.16362
 N731 N 0.74460 0.83101 0.13558
 N732 N 0.74308 0.85257 0.11791
 C733 C 0.25946 0.40179 0.60846
 N734 N 0.25412 0.39999 0.58067
 N735 N 0.25325 0.42300 0.56495
 C736 C 0.25766 0.44858 0.57649
 N737 N 0.26349 0.45006 0.60412
 N738 N 0.26437 0.42721 0.61973
 C739 C 0.25855 0.37739 0.62700
 N740 N 0.26097 0.38146 0.65484
 N741 N 0.25937 0.36018 0.67246
 C742 C 0.25530 0.33385 0.66304
 N743 N 0.25299 0.32955 0.63510
 N744 N 0.25447 0.35101 0.61736
 C745 C 0.73774 0.09813 0.89223
 N746 N 0.73133 0.07255 0.88213
 N747 N 0.73227 0.05023 0.89849
 C748 C 0.73963 0.05242 0.92572
 N749 N 0.74542 0.07819 0.93613
 N750 N 0.74451 0.10066 0.91966
 C751 C 0.73912 0.12181 0.87279
 N752 N 0.74510 0.14814 0.88146
 N753 N 0.74747 0.16888 0.86301
 C754 C 0.74419 0.16392 0.83528
 N755 N 0.73817 0.13764 0.82678
 N756 N 0.73566 0.11705 0.84514
 C757 C 0.25940 0.59670 0.39039
 N758 N 0.26475 0.57102 0.37995
 N759 N 0.26364 0.54863 0.39618
 C760 C 0.25714 0.55083 0.42360
 N761 N 0.25236 0.57668 0.43433
 N762 N 0.25347 0.59925 0.41799
 C763 C 0.25848 0.62054 0.37114
 N764 N 0.25406 0.64710 0.38003
 N765 N 0.25245 0.66805 0.36171
 C766 C 0.25496 0.66305 0.33391
 N767 N 0.25937 0.63653 0.32521
 N768 N 0.26111 0.61574 0.34342
 C769 C 0.26301 0.89255 0.90248
 N770 N 0.26934 0.88201 0.92791
 N771 N 0.26800 0.89788 0.95054
 C772 C 0.26029 0.92506 0.94880
 N773 N 0.25457 0.93593 0.92321
 N774 N 0.25589 0.91994 0.90043
 C775 C 0.26194 0.87352 0.87847
 N776 N 0.25576 0.88250 0.85229
 N777 N 0.25350 0.86429 0.83131
 C778 C 0.25711 0.83653 0.83591
 N779 N 0.26338 0.82775 0.86204
 N780 N 0.26577 0.84586 0.88285
 C781 C 0.76297 0.39455 0.40260
 N782 N 0.75555 0.42187 0.40089
 N783 N 0.75433 0.43762 0.42385
 C784 C 0.76046 0.42656 0.44927
 N785 N 0.76847 0.39945 0.45064
 N786 N 0.76970 0.38382 0.42785
 C787 C 0.76190 0.37572 0.37845
 N788 N 0.76575 0.34804 0.38265
 N789 N 0.76355 0.33008 0.36171
 C790 C 0.75748 0.33902 0.33560
 N791 N 0.75383 0.36681 0.33115
 N792 N 0.75587 0.38487 0.35228
 C793 C 0.11176 0.25365 0.09358
 N794 N 0.12357 0.25256 0.06799
 N795 N 0.10789 0.25207 0.04518
 C796 C 0.07959 0.25274 0.04674
 N797 N 0.06768 0.25422 0.07249
 N798 N 0.08346 0.25462 0.09550
 C799 C 0.13005 0.25305 0.11822
 N800 N 0.11994 0.25245 0.14470
 N801 N 0.13740 0.25119 0.16645
 C802 C 0.16549 0.25042 0.16237
 N803 N 0.17538 0.25109 0.13592
 N804 N 0.15806 0.25233 0.11434
 C805 C 0.60853 0.76042 0.59797
 N806 N 0.61968 0.76549 0.57254
 N807 N 0.60399 0.76440 0.54975
 C808 C 0.57640 0.75822 0.55130
 N809 N 0.56499 0.75368 0.57687
 N810 N 0.58079 0.75474 0.59983
 C811 C 0.62719 0.75952 0.62230
 N812 N 0.61766 0.75479 0.64858
 N813 N 0.63552 0.75297 0.66994
 C814 C 0.66346 0.75560 0.66563
 N815 N 0.67277 0.76040 0.63940
 N816 N 0.65503 0.76234 0.61821
 C817 C 0.09899 0.74126 0.89264
 N818 N 0.10056 0.74876 0.91994
 N819 N 0.07755 0.74948 0.93569
 C820 C 0.05223 0.74275 0.92466
 N821 N 0.05103 0.73469 0.89759
 N822 N 0.07385 0.73396 0.88196
 C823 C 0.12312 0.74269 0.87376
 N824 N 0.11881 0.73882 0.84612
 N825 N 0.13968 0.74114 0.82810
 C826 C 0.16584 0.74736 0.83690
 N827 N 0.17041 0.75106 0.86465
 N828 N 0.14934 0.74890 0.88280
 C829 C 0.59885 0.24596 0.38860
 N830 N 0.60102 0.24966 0.41661
 N831 N 0.57815 0.25015 0.43255
 C832 C 0.55236 0.24698 0.42101
 N833 N 0.55049 0.24288 0.39310
 N834 N 0.57319 0.24237 0.37727
 C835 C 0.62320 0.24698 0.36999
 N836 N 0.61901 0.24514 0.34212
 N837 N 0.64027 0.24688 0.32449
 C838 C 0.66670 0.25050 0.33395
 N839 N 0.67110 0.25222 0.36192
 N840 N 0.64966 0.25056 0.37966
 C841 C 0.90234 0.74273 0.10775
 N842 N 0.90036 0.74321 0.07945
 N843 N 0.92341 0.74433 0.06375
 C844 C 0.94920 0.74518 0.07578
 N845 N 0.95076 0.74434 0.10402
 N846 N 0.92797 0.74309 0.11959
 C847 C 0.87791 0.74287 0.12624
 N848 N 0.88235 0.74234 0.15413
 N849 N 0.86118 0.74361 0.17186
 C850 C 0.83456 0.74551 0.16254
 N851 N 0.82985 0.74588 0.13454
 N852 N 0.85122 0.74464 0.11665
 C853 C 0.40477 0.23388 0.60621
 N854 N 0.40266 0.24147 0.57899
 N855 N 0.42541 0.24288 0.56298
 C856 C 0.45102 0.23677 0.57366
 N857 N 0.45280 0.22854 0.60066
 N858 N 0.43020 0.22711 0.61657
 C859 C 0.38087 0.23509 0.62526
 N860 N 0.38531 0.23144 0.65293
 N861 N 0.36452 0.23404 0.67103
 C862 C 0.33839 0.24036 0.66221
 N863 N 0.33373 0.24379 0.63445
 N864 N 0.35468 0.24134 0.61627
 C865 C 0.89089 0.25629 0.90512
 N866 N 0.87991 0.25575 0.93108
 N867 N 0.89633 0.25470 0.95333
 C868 C 0.92457 0.25425 0.95085
 N869 N 0.93569 0.25524 0.92473
 N870 N 0.91914 0.25618 0.90225
 C871 C 0.87170 0.25604 0.88117
 N872 N 0.88083 0.25469 0.85439
 N873 N 0.86257 0.25349 0.83333
 C874 C 0.83462 0.25353 0.83840
 N875 N 0.82568 0.25499 0.86514
 N876 N 0.84382 0.25619 0.88605
 C877 C 0.39174 0.76367 0.40193
 N878 N 0.38126 0.77036 0.42727
 N879 N 0.39716 0.76909 0.44992
 C880 C 0.42427 0.76110 0.44828
 N881 N 0.43507 0.75503 0.42277
 N882 N 0.41907 0.75627 0.39997
 C883 C 0.37269 0.76248 0.37795
 N884 N 0.38164 0.75608 0.35184
 N885 N 0.36339 0.75367 0.33088
 C886 C 0.33561 0.75732 0.33546
 N887 N 0.32686 0.76381 0.36151
 N888 N 0.34501 0.76637 0.38230
 C889 C 0.10871 0.09321 0.25817
 N890 N 0.08041 0.09563 0.25804
 N891 N 0.06427 0.07288 0.25701
 C892 C 0.07585 0.04692 0.25593
 N893 N 0.10412 0.04489 0.25645
 N894 N 0.12013 0.06742 0.25759
 C895 C 0.12749 0.11747 0.25786
 N896 N 0.15542 0.11296 0.25796
 N897 N 0.17324 0.13411 0.25661
 C898 C 0.16393 0.16075 0.25504
 N899 N 0.13591 0.16547 0.25507
 N900 N 0.11796 0.14416 0.25641
 C901 C 0.60640 0.59814 0.76438
 N902 N 0.57918 0.59998 0.75654
 N903 N 0.56339 0.57706 0.75489
 C904 C 0.57432 0.55157 0.76098
 N905 N 0.60130 0.55006 0.76944
 N906 N 0.61698 0.57282 0.77111
 C907 C 0.62533 0.62220 0.76351
 N908 N 0.65301 0.61786 0.76739
 N909 N 0.67109 0.63871 0.76507
 C910 C 0.66225 0.66483 0.75886
 N911 N 0.63446 0.66941 0.75523
 N912 N 0.61628 0.64838 0.75737
 C913 C 0.90484 0.10979 0.74383
 N914 N 0.90222 0.08154 0.74422
 N915 N 0.92488 0.06523 0.74512
 C916 C 0.95096 0.07661 0.74584
 N917 N 0.95318 0.10484 0.74511
 N918 N 0.93074 0.12101 0.74408
 C919 C 0.88072 0.12879 0.74413
 N920 N 0.88549 0.15665 0.74345
 N921 N 0.86450 0.17469 0.74478
 C922 C 0.83779 0.16568 0.74690
 N923 N 0.83281 0.13773 0.74745
 N924 N 0.85396 0.11956 0.74613
 C925 C 0.40446 0.60984 0.23618
 N926 N 0.40152 0.58237 0.24260
 N927 N 0.42383 0.56571 0.24399
 C928 C 0.44982 0.57598 0.23903
 N929 N 0.45245 0.60327 0.23199
 N930 N 0.43028 0.61983 0.23059
 C931 C 0.38087 0.62933 0.23721
 N932 N 0.38571 0.65703 0.23409
 N933 N 0.36505 0.67539 0.23651
 C934 C 0.33871 0.66677 0.24211
 N935 N 0.33372 0.63900 0.24502
 N936 N 0.35448 0.62058 0.24273
 C937 C 0.09503 0.89035 0.74363
 N938 N 0.09708 0.91864 0.74349
 N939 N 0.07410 0.93448 0.74442
 C940 C 0.04826 0.92261 0.74568
 N941 N 0.04659 0.89434 0.74548
 N942 N 0.06935 0.87862 0.74443
 C943 C 0.11954 0.87185 0.74387
 N944 N 0.11529 0.84392 0.74377
 N945 N 0.13663 0.82631 0.74504
 C946 C 0.16322 0.83581 0.74652
 N947 N 0.16771 0.86384 0.74649
 N948 N 0.14619 0.88160 0.74522
 C949 C 0.59716 0.39097 0.23812
 N950 N 0.59869 0.41878 0.24335
 N951 N 0.57550 0.43421 0.24442
 C952 C 0.54999 0.42237 0.24036
 N953 N 0.54872 0.39468 0.23472
 N954 N 0.57178 0.37933 0.23360
 C955 C 0.62189 0.37285 0.23886
 N956 N 0.61843 0.34501 0.23549
 N957 N 0.64000 0.32774 0.23749
 C958 C 0.66599 0.33753 0.24290
 N959 N 0.66968 0.36548 0.24605
 N960 N 0.64794 0.38286 0.24414
 C961 C 0.88811 0.90429 0.25367
 N962 N 0.87676 0.93011 0.25258
 N963 N 0.89285 0.95262 0.25201
 C964 C 0.92112 0.95055 0.25258
 N965 N 0.93260 0.92455 0.25402
 N966 N 0.91639 0.90183 0.25452
 C967 C 0.86928 0.88002 0.25319
 N968 N 0.87880 0.85328 0.25286
 N969 N 0.86085 0.83194 0.25171
 C970 C 0.83284 0.83667 0.25079
 N971 N 0.82355 0.86336 0.25120
 N972 N 0.84136 0.88454 0.25235
 C973 C 0.39209 0.40004 0.75978
 N974 N 0.41960 0.39851 0.75304
 N975 N 0.43517 0.42162 0.75195
 C976 C 0.42372 0.44701 0.75749
 N977 N 0.39640 0.44823 0.76475
 N978 N 0.38095 0.42528 0.76588
 C979 C 0.37353 0.37568 0.75869
 N980 N 0.34578 0.37964 0.76234
 N981 N 0.32801 0.35854 0.75997
 C982 C 0.33721 0.33251 0.75391
 N983 N 0.36508 0.32829 0.75050
 N984 N 0.38296 0.34958 0.75274
 C985 C 0.11004 0.23619 0.89897
 N986 N 0.12046 0.22856 0.92410
 N987 N 0.10472 0.22964 0.94681
 C988 C 0.07783 0.23840 0.94550
 N989 N 0.06705 0.24543 0.92019
 N990 N 0.08290 0.24437 0.89730
 C991 C 0.12907 0.23733 0.87499
 N992 N 0.12020 0.24396 0.84887
 N993 N 0.13846 0.24595 0.82791
 C994 C 0.16617 0.24167 0.83250
 N995 N 0.17482 0.23501 0.85856
 N996 N 0.15666 0.23285 0.87933
 C997 C 0.60940 0.73956 0.40286
 N998 N 0.62043 0.73472 0.42841
 N999 N 0.60457 0.73569 0.45105
 C1000 C 0.57691 0.74151 0.44923
 N1001 N 0.56563 0.74584 0.42353
 N1002 N 0.58160 0.74489 0.40072
 C1003 C 0.62817 0.74052 0.37866
 N1004 N 0.61867 0.74488 0.35228
 N1005 N 0.63657 0.74665 0.33100
 C1006 C 0.66452 0.74435 0.33547
 N1007 N 0.67381 0.73994 0.36180
 N1008 N 0.65603 0.73806 0.38292
 C1009 C 0.90388 0.75738 0.89102
 N1010 N 0.90189 0.75822 0.91928
 N1011 N 0.92490 0.75774 0.93507
 C1012 C 0.95071 0.75633 0.92320
 N1013 N 0.95232 0.75580 0.89496
 N1014 N 0.92952 0.75635 0.87927
 C1015 C 0.87934 0.75677 0.87265
 N1016 N 0.88348 0.75574 0.84475
 N1017 N 0.86203 0.75447 0.82728
 C1018 C 0.83547 0.75411 0.83692
 N1019 N 0.83111 0.75522 0.86492
 N1020 N 0.85273 0.75648 0.88253
 C1021 C 0.40241 0.26246 0.39119
 N1022 N 0.40107 0.25607 0.41876
 N1023 N 0.42428 0.25538 0.43424
 C1024 C 0.44961 0.26102 0.42268
 N1025 N 0.45063 0.26789 0.39528
 N1026 N 0.42758 0.26860 0.37990
 C1027 C 0.37790 0.26104 0.37276
 N1028 N 0.38173 0.26416 0.34497
 N1029 N 0.36048 0.26169 0.32737
 C1030 C 0.33441 0.25606 0.33676
 N1031 N 0.33032 0.25317 0.36467
 N1032 N 0.35177 0.25549 0.38239
 C1033 C 0.09620 0.76133 0.10968
 N1034 N 0.09842 0.75468 0.08223
 N1035 N 0.07579 0.75432 0.06591
 C1036 C 0.05023 0.76062 0.07652
 N1037 N 0.04838 0.76792 0.10377
 N1038 N 0.07084 0.76827 0.11999
 C1039 C 0.11994 0.75932 0.12892
 N1040 N 0.11532 0.76196 0.15666
 N1041 N 0.13609 0.75921 0.17482
 C1042 C 0.16237 0.75372 0.16598
 N1043 N 0.16717 0.75120 0.13816
 N1044 N 0.14626 0.75380 0.11991
 C1045 C 0.59765 0.26012 0.60894
 N1046 N 0.60049 0.25403 0.58140
 N1047 N 0.57809 0.25283 0.56481
 C1048 C 0.55212 0.25767 0.57523
 N1049 N 0.54961 0.26436 0.60258
 N1050 N 0.57185 0.26558 0.61906
 C1051 C 0.62129 0.25909 0.62844
 N1052 N 0.61632 0.26201 0.65610
 N1053 N 0.63695 0.25994 0.67452
 C1054 C 0.66344 0.25488 0.66605
 N1055 N 0.66860 0.25212 0.63831
 N1056 N 0.64784 0.25407 0.61980
 C1057 C 0.89597 0.23820 0.09837
 N1058 N 0.88557 0.22944 0.07362
 N1059 N 0.90121 0.22987 0.05081
 C1060 C 0.92796 0.23906 0.05170
 N1061 N 0.93876 0.24713 0.07668
 N1062 N 0.92301 0.24672 0.09965
 C1063 C 0.87694 0.24044 0.12222
 N1064 N 0.88583 0.24790 0.14810
 N1065 N 0.86755 0.25095 0.16890
 C1066 C 0.83979 0.24698 0.16435
 N1067 N 0.83111 0.23951 0.13852
 N1068 N 0.84929 0.23628 0.11793
 C1069 C 0.39007 0.73994 0.59577
 N1070 N 0.37932 0.73519 0.57009
 N1071 N 0.39545 0.73631 0.54763
 C1072 C 0.42306 0.74220 0.54980
 N1073 N 0.43406 0.74640 0.57563
 N1074 N 0.41783 0.74530 0.59824
 C1075 C 0.37105 0.74088 0.61976
 N1076 N 0.38034 0.74540 0.64617
 N1077 N 0.36229 0.74728 0.66729
 C1078 C 0.33437 0.74494 0.66263
 N1079 N 0.32526 0.74036 0.63627
 N1080 N 0.34322 0.73836 0.61530
 C1081 C 0.24489 0.10831 0.90314
 N1082 N 0.24465 0.08000 0.90148
 N1083 N 0.24491 0.06452 0.92468
 C1084 C 0.24551 0.07680 0.95032
 N1085 N 0.24545 0.10507 0.95155
 N1086 N 0.24512 0.12043 0.92859
 C1087 C 0.24568 0.12648 0.87851
 N1088 N 0.24614 0.15443 0.88255
 N1089 N 0.24755 0.17183 0.86112
 C1090 C 0.24860 0.16208 0.83466
 N1091 N 0.24805 0.13403 0.83037
 N1092 N 0.24666 0.11647 0.85200
 C1093 C 0.74036 0.61068 0.40442
 N1094 N 0.74507 0.58278 0.40253
 N1095 N 0.74545 0.56696 0.42547
 C1096 C 0.74114 0.57848 0.45103
 N1097 N 0.73595 0.60625 0.45261
 N1098 N 0.73556 0.62198 0.42984
 C1099 C 0.74186 0.62923 0.38011
 N1100 N 0.74008 0.65713 0.38418
 N1101 N 0.74222 0.67471 0.36291
 C1102 C 0.74622 0.66517 0.33663
 N1103 N 0.74788 0.63717 0.33236
 N1104 N 0.74586 0.61947 0.35379
 C1105 C 0.75645 0.09840 0.11060
 N1106 N 0.75537 0.07285 0.12248
 N1107 N 0.75401 0.05005 0.10693
 C1108 C 0.75375 0.05155 0.07868
 N1109 N 0.75518 0.07727 0.06663
 N1110 N 0.75644 0.10031 0.08231
 C1111 C 0.75688 0.12289 0.12899
 N1112 N 0.75621 0.14951 0.11920
 N1113 N 0.75574 0.17103 0.13693
 C1114 C 0.75585 0.16655 0.16495
 N1115 N 0.75663 0.13997 0.17449
 N1116 N 0.75711 0.11864 0.15690
 C1117 C 0.24028 0.59714 0.60979
 N1118 N 0.23524 0.57159 0.62070
 N1119 N 0.23600 0.54898 0.60476
 C1120 C 0.24183 0.55084 0.57717
 N1121 N 0.24636 0.57655 0.56600
 N1122 N 0.24561 0.59933 0.58204
 C1123 C 0.24144 0.62125 0.62865
 N1124 N 0.24591 0.64766 0.61931
 N1125 N 0.24780 0.66886 0.63731
 C1126 C 0.24549 0.66425 0.66519
 N1127 N 0.24100 0.63788 0.67432
 N1128 N 0.23900 0.61685 0.65644
 C1129 C 0.75989 0.90452 0.89395
 N1130 N 0.76600 0.92991 0.88320
 N1131 N 0.76523 0.95257 0.89907
 C1132 C 0.75833 0.95088 0.92643
 N1133 N 0.75284 0.92531 0.93747
 N1134 N 0.75359 0.90250 0.92149
 C1135 C 0.75823 0.88052 0.87503
 N1136 N 0.75288 0.85425 0.88428
 N1137 N 0.75036 0.83318 0.86622
 C1138 C 0.75282 0.83781 0.83836
 N1139 N 0.75821 0.86403 0.82932
 N1140 N 0.76087 0.88493 0.84727
 C1141 C 0.23649 0.40284 0.39196
 N1142 N 0.24297 0.40082 0.41948
 N1143 N 0.24399 0.42364 0.43542
 C1144 C 0.23858 0.44923 0.42437
 N1145 N 0.23151 0.45093 0.39704
 N1146 N 0.23048 0.42826 0.38119
 C1147 C 0.23776 0.37878 0.37309
 N1148 N 0.23477 0.38310 0.34534
 N1149 N 0.23711 0.36213 0.32743
 C1150 C 0.24249 0.33591 0.33651
 N1151 N 0.24532 0.33137 0.36436
 N1152 N 0.24312 0.35251 0.38237
 C1153 C 0.23706 0.89030 0.09550
 N1154 N 0.23159 0.88000 0.06979
 N1155 N 0.23282 0.89635 0.04749
 C1156 C 0.23955 0.92373 0.04986
 N1157 N 0.24439 0.93430 0.07574
 N1158 N 0.24318 0.91786 0.09819
 C1159 C 0.23827 0.87099 0.11923
 N1160 N 0.24335 0.87994 0.14563
 N1161 N 0.24567 0.86165 0.16650
 C1162 C 0.24328 0.83382 0.16158
 N1163 N 0.23813 0.82503 0.13522
 N1164 N 0.23567 0.84324 0.11449
 C1165 C 0.74055 0.39045 0.59640
 N1166 N 0.73579 0.38000 0.57062
 N1167 N 0.73659 0.39643 0.54836
 C1168 C 0.74217 0.42406 0.55083
 N1169 N 0.74637 0.43475 0.57677
 N1170 N 0.74557 0.41823 0.59919
 C1171 C 0.74181 0.37118 0.62016
 N1172 N 0.74605 0.38022 0.64668
 N1173 N 0.74809 0.36197 0.66763
 C1174 C 0.74621 0.33411 0.66268
 N1175 N 0.74195 0.32522 0.63621
 N1176 N 0.73979 0.34338 0.61539
 C1177 C 0.09873 0.10645 0.76167
 N1178 N 0.07376 0.11707 0.76954
 N1179 N 0.05095 0.10138 0.76912
 C1180 C 0.05206 0.07438 0.76080
 N1181 N 0.07723 0.06340 0.75360
 N1182 N 0.10021 0.07919 0.75401
 C1183 C 0.12269 0.12535 0.75949
 N1184 N 0.14872 0.11616 0.75295
 N1185 N 0.16972 0.13425 0.75001
 C1186 C 0.16524 0.16208 0.75319
 N1187 N 0.13925 0.17107 0.75973
 N1188 N 0.11843 0.15309 0.76284
 C1189 C 0.59726 0.60658 0.26246
 N1190 N 0.57192 0.61691 0.26951
 N1191 N 0.54928 0.60100 0.26825
 C1192 C 0.55094 0.57402 0.25991
 N1193 N 0.57647 0.56334 0.25353
 N1194 N 0.59926 0.57936 0.25476
 C1195 C 0.62114 0.62574 0.26113
 N1196 N 0.64732 0.61695 0.25461
 N1197 N 0.66817 0.63529 0.25215
 C1198 C 0.66341 0.66302 0.25582
 N1199 N 0.63729 0.67161 0.26241
 N1200 N 0.61661 0.65337 0.26504
 C1201 C 0.10731 0.90051 0.23651
 N1202 N 0.11691 0.92565 0.22797
 N1203 N 0.10069 0.94806 0.22901
 C1204 C 0.07414 0.94638 0.23864
 N1205 N 0.06412 0.92102 0.24647
 N1206 N 0.08045 0.89844 0.24544
 C1207 C 0.12696 0.87708 0.23815
 N1208 N 0.11872 0.85091 0.24527
 N1209 N 0.13749 0.83045 0.24781
 C1210 C 0.16509 0.83562 0.24367
 N1211 N 0.17315 0.86175 0.23655
 N1212 N 0.15447 0.88203 0.23382
 C1213 C 0.61068 0.40470 0.73917
 N1214 N 0.62107 0.43055 0.73453
 N1215 N 0.60460 0.45279 0.73552
 C1216 C 0.57696 0.45025 0.74115
 N1217 N 0.56632 0.42425 0.74521
 N1218 N 0.58290 0.40185 0.74424
 C1219 C 0.63003 0.38094 0.74030
 N1220 N 0.62104 0.35439 0.74457
 N1221 N 0.63934 0.33346 0.74659
 C1222 C 0.66722 0.33844 0.74464
 N1223 N 0.67605 0.36494 0.74032
 N1224 N 0.65784 0.38574 0.73819
 C1225 C 0.89263 0.09924 0.23793
 N1226 N 0.88145 0.07431 0.23077
 N1227 N 0.89673 0.05123 0.23146
 C1228 C 0.92391 0.05200 0.23934
 N1229 N 0.93543 0.07711 0.24591
 N1230 N 0.92004 0.10036 0.24523
 C1231 C 0.87418 0.12364 0.23950
 N1232 N 0.88377 0.14966 0.24551
 N1233 N 0.86600 0.17104 0.24785
 C1234 C 0.83808 0.16695 0.24456
 N1235 N 0.82872 0.14098 0.23852
 N1236 N 0.84638 0.11981 0.23602
 C1237 C 0.38883 0.59541 0.73920
 N1238 N 0.37781 0.56971 0.73522
 N1239 N 0.39386 0.54714 0.73610
 C1240 C 0.42169 0.54920 0.74099
 N1241 N 0.43292 0.57504 0.74449
 N1242 N 0.41677 0.59777 0.74362
 C1243 C 0.36999 0.61962 0.74013
 N1244 N 0.37955 0.64607 0.74383
 N1245 N 0.36168 0.66741 0.74559
 C1246 C 0.33369 0.66295 0.74391
 N1247 N 0.32431 0.63654 0.74015
 N1248 N 0.34208 0.61535 0.73829
 C1249 C 0.90072 0.89153 0.76438
 N1250 N 0.92602 0.88102 0.77136
 N1251 N 0.94874 0.89680 0.77012
 C1252 C 0.94722 0.92380 0.76183
 N1253 N 0.92175 0.93465 0.75547
 N1254 N 0.89886 0.91877 0.75670
 C1255 C 0.87669 0.87257 0.76328
 N1256 N 0.85049 0.88160 0.75710
 N1257 N 0.82944 0.86344 0.75502
 C1258 C 0.83400 0.83569 0.75876
 N1259 N 0.86014 0.82686 0.76499
 N1260 N 0.88103 0.84492 0.76723
 C1261 C 0.40104 0.38991 0.26043
 N1262 N 0.39896 0.41756 0.25441
 N1263 N 0.42186 0.43343 0.25287
 C1264 C 0.44761 0.42219 0.25721
 N1265 N 0.44939 0.39470 0.26367
 N1266 N 0.42666 0.37894 0.26525
 C1267 C 0.37673 0.37113 0.26024
 N1268 N 0.38101 0.34343 0.26387
 N1269 N 0.35991 0.32554 0.26251
 C1270 C 0.33355 0.33452 0.25750
 N1271 N 0.32902 0.36233 0.25409
 N1272 N 0.35030 0.38035 0.25534
   
