data_POSCAR
  _audit_creation_date              2014-09-24
  _audit_creation_method            'ToBaCCo'
  _symmetry_space_group_name_H-M    'P1'
  _symmetry_Int_Tables_number       1
  _symmetry_cell_setting            triclinic
  loop_
  _symmetry_equiv_pos_as_xyz
 x,y,z
_cell_length_a 62.5607
_cell_length_b 62.6209
_cell_length_c 47.1025
_cell_angle_alpha 90.038000
_cell_angle_beta 89.996700
_cell_angle_gamma 89.674500
loop_
  _atom_site_label
  _atom_site_type_symbol
  _atom_site_fract_x
  _atom_site_fract_y
  _atom_site_fract_z
O1 O 0.02001 0.28983 -0.02771
 O2 O -0.02204 0.28995 0.02733
 O3 O 0.01983 0.29001 0.02756
 O4 O -0.02178 0.28996 -0.02796
 O5 O -0.02158 0.25474 -0.02768
 O6 O 0.01992 0.25480 0.02748
 O7 O -0.02167 0.25476 0.02735
 O8 O 0.01999 0.25461 -0.02754
 Cu9 Cu -0.00102 0.29348 -0.00018
 Cu10 Cu -0.00082 0.25122 -0.00008
 C11 C 0.02727 0.27213 -0.03692
 C12 C -0.02920 0.27231 0.03665
 C13 C 0.02713 0.27237 0.03683
 C14 C -0.02889 0.27230 -0.03719
 O15 O 0.47958 0.78959 0.53013
 O16 O 0.52158 0.78982 0.47506
 O17 O 0.47976 0.79002 0.47486
 O18 O 0.52143 0.78953 0.53032
 O19 O 0.52143 0.75431 0.52977
 O20 O 0.47993 0.75480 0.47457
 O21 O 0.52153 0.75460 0.47475
 O22 O 0.47983 0.75437 0.52960
 Cu23 Cu 0.50058 0.79329 0.50264
 Cu24 Cu 0.50069 0.75101 0.50213
 C25 C 0.47242 0.77188 0.53914
 C26 C 0.52884 0.77219 0.46563
 C27 C 0.47261 0.77244 0.46537
 C28 C 0.52867 0.77179 0.53937
 O29 O 0.98007 0.70990 -0.02635
 O30 O 1.02190 0.71017 0.02891
 O31 O 0.98009 0.71018 0.02890
 O32 O 1.02192 0.70991 -0.02637
 O33 O 1.02159 0.74509 -0.02655
 O34 O 0.98001 0.74540 0.02848
 O35 O 1.02160 0.74538 0.02848
 O36 O 0.98000 0.74508 -0.02655
 Cu37 Cu 1.00102 0.70650 0.00129
 Cu38 Cu 1.00078 0.74874 0.00093
 C39 C 0.97271 0.72749 -0.03578
 C40 C 1.02900 0.72788 0.03802
 C41 C 0.97279 0.72789 0.03800
 C42 C 1.02907 0.72751 -0.03581
 O43 O 0.52036 0.20818 0.52710
 O44 O 0.47911 0.20864 0.47110
 O45 O 0.52095 0.20868 0.47181
 O46 O 0.47855 0.20828 0.52635
 O47 O 0.47854 0.24350 0.52677
 O48 O 0.52060 0.24389 0.47241
 O49 O 0.47902 0.24386 0.47175
 O50 O 0.52013 0.24340 0.52743
 Cu51 Cu 0.49977 0.20490 0.49904
 Cu52 Cu 0.49956 0.24717 0.49964
 C53 C 0.52740 0.22576 0.53671
 C54 C 0.47190 0.22637 0.46201
 C55 C 0.52811 0.22642 0.46291
 C56 C 0.47120 0.22588 0.53575
 O57 O 0.71179 -0.02120 0.02752
 O58 O 0.71270 0.02110 -0.02708
 O59 O 0.71237 -0.02073 -0.02777
 O60 O 0.71202 0.02057 0.02814
 O61 O 0.74727 0.01992 0.02888
 O62 O 0.74761 -0.02096 -0.02709
 O63 O 0.74791 0.02068 -0.02596
 O64 O 0.74704 -0.02157 0.02797
 Cu65 Cu 0.70867 -0.00004 0.00010
 Cu66 Cu 0.75096 -0.00056 0.00097
 C67 C 0.72932 -0.02869 0.03697
 C68 C 0.73052 0.02840 -0.03556
 C69 C 0.73010 -0.02803 -0.03684
 C70 C 0.72964 0.02742 0.03792
 O71 O 0.21167 0.47844 0.52629
 O72 O 0.21283 0.52124 0.47239
 O73 O 0.21233 0.47942 0.47101
 O74 O 0.21208 0.52021 0.52759
 O75 O 0.24733 0.51943 0.52837
 O76 O 0.24757 0.47899 0.47181
 O77 O 0.24808 0.52062 0.47353
 O78 O 0.24691 0.47793 0.52685
 Cu79 Cu 0.20868 0.49987 0.49921
 Cu80 Cu 0.25098 0.49915 0.50018
 C81 C 0.22915 0.47079 0.53566
 C82 C 0.23072 0.52846 0.46407
 C83 C 0.23004 0.47210 0.46189
 C84 C 0.22971 0.52693 0.53749
 O85 O 0.28802 1.02098 0.02684
 O86 O 0.28797 0.97894 -0.02812
 O87 O 0.28786 1.02073 -0.02842
 O88 O 0.28810 0.97917 0.02713
 O89 O 0.25285 0.97944 0.02719
 O90 O 0.25264 1.02074 -0.02813
 O91 O 0.25272 0.97918 -0.02783
 O92 O 0.25281 1.02101 0.02689
 Cu93 Cu 0.29153 0.99994 -0.00066
 Cu94 Cu 0.24925 1.00011 -0.00045
 C95 C 0.27038 1.02835 0.03615
 C96 C 0.27028 0.97176 -0.03722
 C97 C 0.27016 1.02800 -0.03767
 C98 C 0.27046 0.97208 0.03650
 O99 O 0.78845 0.51921 0.52950
 O100 O 0.78848 0.47864 0.47267
 O101 O 0.78903 0.52039 0.47423
 O102 O 0.78772 0.47739 0.52784
 O103 O 0.75247 0.47820 0.52677
 O104 O 0.75378 0.52102 0.47370
 O105 O 0.75323 0.47955 0.47196
 O106 O 0.75321 0.51980 0.52874
 Cu107 Cu 0.79197 0.49886 0.50117
 Cu108 Cu 0.74966 0.49975 0.50026
 C109 C 0.77079 0.52657 0.53869
 C110 C 0.77082 0.47202 0.46276
 C111 C 0.77156 0.52812 0.46490
 C112 C 0.76980 0.47023 0.53614
 C113 C 0.24421 0.21678 0.20047
 C114 C 0.22581 0.22614 0.18897
 C115 C 0.21675 0.24464 0.20060
 C116 C 0.22663 0.25453 0.22418
 C117 C 0.24550 0.24542 0.23589
 C118 C 0.25428 0.22643 0.22408
 C119 C 0.27303 0.21777 0.23595
 C120 C 0.28278 0.22731 0.25925
 C121 C 0.27446 0.24618 0.27119
 C122 C 0.25563 0.25533 0.25943
 C123 C 0.21834 0.27343 0.23608
 C124 C 0.22811 0.28299 0.25934
 C125 C 0.24685 0.27432 0.27123
 C126 C 0.25690 0.28395 0.29488
 C127 C 0.27524 0.27454 0.30645
 C128 C 0.28428 0.25602 0.29486
 H129 H 0.28043 0.20353 0.22732
 H130 H 0.29691 0.21966 0.26783
 H131 H 0.20422 0.28108 0.22749
 H132 H 0.22074 0.29726 0.26795
 H133 H 0.21801 0.21850 0.17110
 H134 H 0.28300 0.28212 0.32440
 C135 C 0.74565 0.71726 0.30003
 C136 C 0.72723 0.72647 0.31170
 C137 C 0.71780 0.74474 0.29997
 C138 C 0.72731 0.75453 0.27606
 C139 C 0.74621 0.74559 0.26419
 C140 C 0.75539 0.72686 0.27615
 C141 C 0.77420 0.71841 0.26416
 C142 C 0.78360 0.72787 0.24059
 C143 C 0.77488 0.74648 0.22846
 C144 C 0.75598 0.75542 0.24033
 C145 C 0.71861 0.77316 0.26396
 C146 C 0.72800 0.78261 0.24036
 C147 C 0.74678 0.77414 0.22835
 C148 C 0.75649 0.78369 0.20440
 C149 C 0.77491 0.77448 0.19274
 C150 C 0.78436 0.75625 0.20452
 H151 H 0.78191 0.70439 0.27293
 H152 H 0.79778 0.72036 0.23192
 H153 H 0.70444 0.78068 0.27264
 H154 H 0.72029 0.79663 0.23160
 H155 H 0.71968 0.71888 0.32978
 H156 H 0.78242 0.78204 0.17460
 C157 C 0.78347 0.24439 0.20201
 C158 C 0.77449 0.22592 0.19050
 C159 C 0.75624 0.21663 0.20221
 C160 C 0.74620 0.22634 0.22589
 C161 C 0.75493 0.24528 0.23761
 C162 C 0.77367 0.25431 0.22572
 C163 C 0.78193 0.27313 0.23759
 C164 C 0.77223 0.28273 0.26096
 C165 C 0.75358 0.27418 0.27298
 C166 C 0.74485 0.25525 0.26125
 C167 C 0.72754 0.21781 0.23790
 C168 C 0.71785 0.22740 0.26127
 C169 C 0.72611 0.24622 0.27315
 C170 C 0.71632 0.25612 0.29688
 C171 C 0.72531 0.27458 0.30841
 C172 C 0.74356 0.28387 0.29669
 H173 H 0.79598 0.28070 0.22890
 H174 H 0.77960 0.29692 0.26955
 H175 H 0.72017 0.20362 0.22931
 H176 H 0.70380 0.21982 0.26996
 H177 H 0.78225 0.21825 0.17255
 H178 H 0.71758 0.28223 0.32639
 C179 C 0.21675 0.75662 0.20479
 C180 C 0.22584 0.77478 0.19258
 C181 C 0.24416 0.78422 0.20391
 C182 C 0.25418 0.77493 0.22788
 C183 C 0.24532 0.75634 0.24037
 C184 C 0.22647 0.74721 0.22890
 C185 C 0.21803 0.72878 0.24160
 C186 C 0.22763 0.71971 0.26540
 C187 C 0.24638 0.72836 0.27700
 C188 C 0.25534 0.74686 0.26437
 C189 C 0.27297 0.78354 0.23943
 C190 C 0.28266 0.77438 0.26308
 C191 C 0.27423 0.75596 0.27577
 C192 C 0.28398 0.74654 0.29983
 C193 C 0.27475 0.72855 0.31226
 C194 C 0.25629 0.71923 0.30116
 H195 H 0.20390 0.72114 0.23326
 H196 H 0.22012 0.70584 0.27463
 H197 H 0.28046 0.79745 0.23024
 H198 H 0.29683 0.78200 0.27138
 H199 H 0.21811 0.78211 0.17438
 H200 H 0.28244 0.72129 0.33054
 C201 C 0.78310 0.24428 0.79719
 C202 C 0.77392 0.22653 0.81028
 C203 C 0.75539 0.21704 0.79968
 C204 C 0.74532 0.22579 0.77539
 C205 C 0.75429 0.24397 0.76199
 C206 C 0.77329 0.25321 0.77284
 C207 C 0.78179 0.27127 0.75932
 C208 C 0.77207 0.27992 0.73535
 C209 C 0.75315 0.27118 0.72435
 C210 C 0.74418 0.25300 0.73774
 C211 C 0.72639 0.21708 0.76440
 C212 C 0.71667 0.22572 0.74042
 C213 C 0.72518 0.24377 0.72688
 C214 C 0.71538 0.25270 0.70252
 C215 C 0.72457 0.27043 0.68942
 C216 C 0.74310 0.27993 0.70004
 H217 H 0.79605 0.27897 0.76717
 H218 H 0.77962 0.29352 0.72549
 H219 H 0.71881 0.20349 0.77429
 H220 H 0.70240 0.21802 0.73258
 H221 H 0.78172 0.21960 0.82870
 H222 H 0.71680 0.27737 0.67098
 C223 C 0.21635 0.75449 0.79868
 C224 C 0.22534 0.77293 0.81027
 C225 C 0.24362 0.78221 0.79864
 C226 C 0.25368 0.77252 0.77496
 C227 C 0.24496 0.75360 0.76318
 C228 C 0.22618 0.74459 0.77498
 C229 C 0.21792 0.72579 0.76304
 C230 C 0.22765 0.71620 0.73969
 C231 C 0.24634 0.72473 0.72776
 C232 C 0.25508 0.74364 0.73957
 C233 C 0.27236 0.78106 0.76303
 C234 C 0.28211 0.77146 0.73969
 C235 C 0.27386 0.75265 0.72777
 C236 C 0.28371 0.74274 0.70409
 C237 C 0.27471 0.72431 0.69248
 C238 C 0.25640 0.71504 0.70407
 H239 H 0.20383 0.71823 0.77167
 H240 H 0.22028 0.70203 0.73105
 H241 H 0.27971 0.79524 0.77165
 H242 H 0.29618 0.77903 0.73106
 H243 H 0.21756 0.78059 0.82822
 H244 H 0.28248 0.71666 0.67453
 C245 C 0.24241 0.21473 0.79556
 C246 C 0.22412 0.22417 0.80727
 C247 C 0.21492 0.24256 0.79557
 C248 C 0.22453 0.25224 0.77165
 C249 C 0.24330 0.24306 0.75974
 C250 C 0.25224 0.22419 0.77164
 C251 C 0.27090 0.21548 0.75959
 C252 C 0.28044 0.22488 0.73606
 C253 C 0.27201 0.24366 0.72405
 C254 C 0.25321 0.25282 0.73593
 C255 C 0.21606 0.27099 0.75959
 C256 C 0.22559 0.28037 0.73605
 C257 C 0.24429 0.27170 0.72403
 C258 C 0.25417 0.28121 0.70019
 C259 C 0.27250 0.27181 0.68854
 C260 C 0.28169 0.25341 0.70022
 H261 H 0.27839 0.20132 0.76827
 H262 H 0.29451 0.21719 0.72735
 H263 H 0.20199 0.27868 0.76829
 H264 H 0.21807 0.29451 0.72733
 H265 H 0.21653 0.21669 0.82540
 H266 H 0.28016 0.27936 0.67051
 C267 C 0.74461 0.71475 0.70541
 C268 C 0.72625 0.72410 0.69378
 C269 C 0.71722 0.74266 0.70525
 C270 C 0.72706 0.75261 0.72881
 C271 C 0.74591 0.74351 0.74062
 C272 C 0.75467 0.72447 0.72898
 C273 C 0.77341 0.71584 0.74093
 C274 C 0.78318 0.72549 0.76412
 C275 C 0.77489 0.74443 0.77590
 C276 C 0.75605 0.75352 0.76409
 C277 C 0.71877 0.77154 0.74060
 C278 C 0.72854 0.78120 0.76379
 C279 C 0.74729 0.77258 0.77572
 C280 C 0.75738 0.78233 0.79924
 C281 C 0.77573 0.77298 0.81087
 C282 C 0.78476 0.75440 0.79943
 H283 H 0.78077 0.70153 0.73242
 H284 H 0.79730 0.71787 0.77277
 H285 H 0.70464 0.77916 0.73196
 H286 H 0.72117 0.79549 0.77230
 H287 H 0.71849 0.71643 0.67591
 H288 H 0.78353 0.78068 0.82870
 C289 C 0.26952 0.07979 0.09469
 C290 C 0.25038 0.07061 0.08518
 C291 C 0.25069 0.05342 0.06630
 C292 C 0.27019 0.04492 0.05632
 C293 C 0.28939 0.05385 0.06638
 C294 C 0.28904 0.07109 0.08529
 C295 C 0.26896 0.09892 0.11337
 C296 C 0.28290 0.11606 0.10857
 C297 C 0.28107 0.13485 0.12447
 C298 C 0.26526 0.13691 0.14553
 C299 C 0.25183 0.11947 0.15099
 C300 C 0.25366 0.10070 0.13512
 C301 C 0.26186 0.15755 0.16050
 C302 C 0.25627 0.15805 0.18943
 C303 C 0.25123 0.17741 0.20274
 C304 C 0.25187 0.19660 0.18744
 C305 C 0.25788 0.19622 0.15877
 C306 C 0.26290 0.17691 0.14544
 H307 H 0.23508 0.07712 0.09168
 H308 H 0.23554 0.04708 0.05916
 H309 H 0.30475 0.04774 0.05939
 H310 H 0.30406 0.07767 0.09252
 H311 H 0.29475 0.11526 0.09184
 H312 H 0.29184 0.14790 0.11999
 H313 H 0.23935 0.12059 0.16686
 H314 H 0.24288 0.08766 0.13959
 H315 H 0.25550 0.14345 0.20167
 H316 H 0.24632 0.17738 0.22480
 H317 H 0.25819 0.21087 0.14655
 H318 H 0.26678 0.17706 0.12304
 C319 C 0.76994 0.57787 0.59961
 C320 C 0.78946 0.56915 0.59022
 C321 C 0.78978 0.55215 0.57094
 C322 C 0.77059 0.54354 0.56061
 C323 C 0.75110 0.55194 0.57052
 C324 C 0.75078 0.56890 0.58977
 C325 C 0.76941 0.59690 0.61846
 C326 C 0.75400 0.59870 0.64006
 C327 C 0.75218 0.61744 0.65601
 C328 C 0.76574 0.63482 0.65076
 C329 C 0.78167 0.63272 0.62988
 C330 C 0.78349 0.61397 0.61392
 C331 C 0.76232 0.65546 0.66569
 C332 C 0.76349 0.67481 0.65062
 C333 C 0.75845 0.69414 0.66388
 C334 C 0.75229 0.69455 0.69249
 C335 C 0.75152 0.67536 0.70782
 C336 C 0.75657 0.65599 0.69457
 H337 H 0.80449 0.57556 0.59768
 H338 H 0.80507 0.54599 0.56379
 H339 H 0.73602 0.54571 0.56296
 H340 H 0.73547 0.57544 0.59625
 H341 H 0.74310 0.58572 0.64433
 H342 H 0.73961 0.61860 0.67175
 H343 H 0.79253 0.64572 0.62557
 H344 H 0.79542 0.61316 0.59729
 H345 H 0.76748 0.67493 0.62826
 H346 H 0.75886 0.70878 0.65165
 H347 H 0.74650 0.67537 0.72983
 H348 H 0.75570 0.64139 0.70680
 C349 C 0.72973 0.91936 0.09687
 C350 C 0.71026 0.92781 0.08689
 C351 C 0.71004 0.94493 0.06779
 C352 C 0.72929 0.95390 0.05824
 C353 C 0.74872 0.94564 0.06858
 C354 C 0.74893 0.92859 0.08763
 C355 C 0.73024 0.90046 0.11592
 C356 C 0.74534 0.89907 0.13795
 C357 C 0.74727 0.88047 0.15410
 C358 C 0.73410 0.86282 0.14867
 C359 C 0.71843 0.86451 0.12738
 C360 C 0.71652 0.88313 0.11118
 C361 C 0.73772 0.84233 0.16389
 C362 C 0.73700 0.82285 0.14903
 C363 C 0.74235 0.80371 0.16255
 C364 C 0.74842 0.80364 0.19120
 C365 C 0.74874 0.82294 0.20631
 C366 C 0.74333 0.84211 0.19282
 H367 H 0.69520 0.92117 0.09384
 H368 H 0.69481 0.95096 0.06027
 H369 H 0.76384 0.95213 0.06162
 H370 H 0.76421 0.92224 0.09452
 H371 H 0.75593 0.91227 0.14239
 H372 H 0.75964 0.87965 0.17014
 H373 H 0.70786 0.85129 0.12293
 H374 H 0.70482 0.88363 0.09425
 H375 H 0.73313 0.82248 0.12663
 H376 H 0.74229 0.78898 0.15048
 H377 H 0.75367 0.82321 0.22835
 H378 H 0.74385 0.85681 0.20492
 C379 C 0.22919 0.41816 0.59452
 C380 C 0.24845 0.42738 0.58551
 C381 C 0.24836 0.44465 0.56682
 C382 C 0.22900 0.45315 0.55661
 C383 C 0.20969 0.44419 0.56594
 C384 C 0.20978 0.42685 0.58468
 C385 C 0.22955 0.39903 0.61318
 C386 C 0.21569 0.38186 0.60811
 C387 C 0.21740 0.36307 0.62399
 C388 C 0.23302 0.36104 0.64531
 C389 C 0.24635 0.37851 0.65105
 C390 C 0.24461 0.39729 0.63521
 C391 C 0.23637 0.34039 0.66026
 C392 C 0.24188 0.33990 0.68923
 C393 C 0.24698 0.32057 0.70251
 C394 C 0.24644 0.30137 0.68717
 C395 C 0.24048 0.30173 0.65848
 C396 C 0.23544 0.32103 0.64516
 H397 H 0.26368 0.42085 0.59230
 H398 H 0.26354 0.45113 0.56001
 H399 H 0.19450 0.45040 0.55852
 H400 H 0.19467 0.42023 0.59147
 H401 H 0.20401 0.38264 0.59117
 H402 H 0.20672 0.35000 0.61929
 H403 H 0.25869 0.37742 0.66711
 H404 H 0.25532 0.41034 0.63991
 H405 H 0.24255 0.35450 0.70151
 H406 H 0.25184 0.32062 0.72458
 H407 H 0.24026 0.28708 0.64622
 H408 H 0.23164 0.32087 0.62274
 C409 C 0.91957 0.27128 0.09553
 C410 C 0.92902 0.25220 0.08594
 C411 C 0.94612 0.25258 0.06693
 C412 C 0.95428 0.27210 0.05690
 C413 C 0.94507 0.29124 0.06700
 C414 C 0.92790 0.29082 0.08604
 C415 C 0.90055 0.27061 0.11439
 C416 C 0.88307 0.28436 0.10970
 C417 C 0.86437 0.28234 0.12571
 C418 C 0.86274 0.26653 0.14678
 C419 C 0.88051 0.25331 0.15216
 C420 C 0.89920 0.25534 0.13617
 C421 C 0.84220 0.26287 0.16184
 C422 C 0.84192 0.25725 0.19075
 C423 C 0.82272 0.25192 0.20413
 C424 C 0.80345 0.25231 0.18890
 C425 C 0.80359 0.25836 0.16025
 C426 C 0.82276 0.26366 0.14686
 H427 H 0.92278 0.23688 0.09250
 H428 H 0.95268 0.23746 0.05976
 H429 H 0.95091 0.30660 0.05995
 H430 H 0.92109 0.30579 0.09330
 H431 H 0.88355 0.29618 0.09295
 H432 H 0.85105 0.29294 0.12130
 H433 H 0.87973 0.24085 0.16803
 H434 H 0.91250 0.24470 0.14055
 H435 H 0.85659 0.25668 0.20293
 H436 H 0.82293 0.24701 0.22617
 H437 H 0.78889 0.25847 0.14809
 H438 H 0.82245 0.26755 0.12447
 C439 C 0.42019 0.77035 0.59868
 C440 C 0.42990 0.75135 0.58921
 C441 C 0.44710 0.75192 0.57034
 C442 C 0.45501 0.77151 0.56044
 C443 C 0.44559 0.79055 0.57031
 C444 C 0.42834 0.78997 0.58921
 C445 C 0.40107 0.76948 0.61734
 C446 C 0.38351 0.78311 0.61252
 C447 C 0.36475 0.78094 0.62836
 C448 C 0.36312 0.76510 0.64939
 C449 C 0.38096 0.75201 0.65490
 C450 C 0.39971 0.75419 0.63908
 C451 C 0.34255 0.76132 0.66428
 C452 C 0.34218 0.75566 0.69319
 C453 C 0.32294 0.75028 0.70643
 C454 C 0.30372 0.75064 0.69109
 C455 C 0.30396 0.75670 0.66244
 C456 C 0.32316 0.76204 0.64917
 H457 H 0.42381 0.73596 0.59572
 H458 H 0.45394 0.73695 0.56313
 H459 H 0.45135 0.80590 0.56313
 H460 H 0.42134 0.80489 0.59636
 H461 H 0.38398 0.79495 0.59579
 H462 H 0.35137 0.79146 0.62385
 H463 H 0.38019 0.73952 0.67074
 H464 H 0.41307 0.74365 0.64358
 H465 H 0.35680 0.75513 0.70546
 H466 H 0.32309 0.74535 0.72847
 H467 H 0.28930 0.75680 0.65019
 H468 H 0.32292 0.76595 0.62679
 C469 C 0.08083 0.72930 0.09820
 C470 C 0.07147 0.74834 0.08827
 C471 C 0.05442 0.74782 0.06917
 C472 C 0.04630 0.72824 0.05948
 C473 C 0.05538 0.70917 0.06977
 C474 C 0.07248 0.70970 0.08892
 C475 C 0.09978 0.73008 0.11719
 C476 C 0.11714 0.71608 0.11297
 C477 C 0.13578 0.71811 0.12911
 C478 C 0.13748 0.73419 0.14982
 C479 C 0.11982 0.74767 0.15474
 C480 C 0.10119 0.74562 0.13864
 C481 C 0.15800 0.73786 0.16493
 C482 C 0.15824 0.74401 0.19367
 C483 C 0.17745 0.74940 0.20699
 C484 C 0.19677 0.74852 0.19191
 C485 C 0.19666 0.74190 0.16347
 C486 C 0.17749 0.73656 0.15012
 H487 H 0.07773 0.76370 0.09462
 H488 H 0.04785 0.76281 0.06162
 H489 H 0.04946 0.69383 0.06278
 H490 H 0.07919 0.69477 0.09643
 H491 H 0.11663 0.70403 0.09648
 H492 H 0.14900 0.70730 0.12506
 H493 H 0.12066 0.76036 0.17032
 H494 H 0.08798 0.75645 0.14268
 H495 H 0.14353 0.74498 0.20573
 H496 H 0.17720 0.75477 0.22886
 H497 H 0.21140 0.74141 0.15141
 H498 H 0.17785 0.73226 0.12786
 C499 C 0.57878 0.22628 0.59758
 C500 C 0.56983 0.24547 0.58753
 C501 C 0.55290 0.24525 0.56824
 C502 C 0.54452 0.22582 0.55843
 C503 C 0.55317 0.20660 0.56886
 C504 C 0.57013 0.20683 0.58822
 C505 C 0.59769 0.22672 0.61666
 C506 C 0.61477 0.21235 0.61262
 C507 C 0.63345 0.21414 0.62872
 C508 C 0.63550 0.23036 0.64918
 C509 C 0.61808 0.24418 0.65399
 C510 C 0.59940 0.24236 0.63796
 C511 C 0.65616 0.23386 0.66401
 C512 C 0.65666 0.24047 0.69257
 C513 C 0.67602 0.24585 0.70550
 C514 C 0.69523 0.24450 0.69022
 C515 C 0.69486 0.23737 0.66200
 C516 C 0.67554 0.23206 0.64903
 H517 H 0.57633 0.26072 0.59392
 H518 H 0.54665 0.26035 0.56059
 H519 H 0.54702 0.19136 0.56179
 H520 H 0.57652 0.19177 0.59581
 H521 H 0.61404 0.20022 0.59627
 H522 H 0.64646 0.20306 0.62477
 H523 H 0.61918 0.25697 0.66938
 H524 H 0.58640 0.25346 0.64189
 H525 H 0.64205 0.24184 0.70476
 H526 H 0.67598 0.25162 0.72719
 H527 H 0.70951 0.23650 0.64978
 H528 H 0.67570 0.22740 0.62689
 C529 C 0.73263 0.08189 0.90966
 C530 C 0.71297 0.07248 0.91641
 C531 C 0.71220 0.05450 0.93403
 C532 C 0.73115 0.04544 0.94503
 C533 C 0.75085 0.05446 0.93713
 C534 C 0.75155 0.07251 0.91982
 C535 C 0.73355 0.10199 0.89315
 C536 C 0.74644 0.11882 0.90265
 C537 C 0.74773 0.13775 0.88718
 C538 C 0.73630 0.14022 0.86173
 C539 C 0.72333 0.12342 0.85220
 C540 C 0.72182 0.10451 0.86793
 C541 C 0.73861 0.16009 0.84498
 C542 C 0.74272 0.15920 0.81566
 C543 C 0.74738 0.17784 0.80057
 C544 C 0.74762 0.19768 0.81447
 C545 C 0.74275 0.19865 0.84351
 C546 C 0.73828 0.18004 0.85863
 H547 H 0.69815 0.07948 0.90886
 H548 H 0.69671 0.04801 0.93945
 H549 H 0.76584 0.04795 0.94488
 H550 H 0.76694 0.07929 0.91455
 H551 H 0.75547 0.11736 0.92218
 H552 H 0.75804 0.15034 0.89485
 H553 H 0.71432 0.12497 0.83267
 H554 H 0.71182 0.09172 0.86014
 H555 H 0.74331 0.14399 0.80472
 H556 H 0.75151 0.17672 0.77829
 H557 H 0.74301 0.21380 0.85463
 H558 H 0.73499 0.18118 0.88116
 C559 C 0.23310 0.58334 0.40929
 C560 C 0.25189 0.57465 0.42090
 C561 C 0.25113 0.55645 0.43794
 C562 C 0.23152 0.54659 0.44394
 C563 C 0.21275 0.55494 0.43169
 C564 C 0.21355 0.57310 0.41438
 C565 C 0.23397 0.60354 0.39298
 C566 C 0.22304 0.60583 0.36709
 C567 C 0.22455 0.62483 0.35154
 C568 C 0.23674 0.64195 0.36188
 C569 C 0.24736 0.63971 0.38798
 C570 C 0.24604 0.62071 0.40330
 C571 C 0.23911 0.66192 0.34532
 C572 C 0.23820 0.68183 0.35907
 C573 C 0.24280 0.70055 0.34427
 C574 C 0.24834 0.69974 0.31544
 C575 C 0.24861 0.67997 0.30138
 C576 C 0.24387 0.66121 0.31616
 H577 H 0.26721 0.58207 0.41698
 H578 H 0.26589 0.55042 0.44696
 H579 H 0.19740 0.54769 0.43588
 H580 H 0.19883 0.57955 0.40576
 H581 H 0.21368 0.59279 0.35864
 H582 H 0.21615 0.62619 0.33152
 H583 H 0.25708 0.65253 0.39630
 H584 H 0.25444 0.61946 0.42335
 H585 H 0.23437 0.68285 0.38146
 H586 H 0.24265 0.71565 0.35550
 H587 H 0.25324 0.67901 0.27926
 H588 H 0.24492 0.64606 0.30514
 C589 C 0.26915 0.91932 0.90358
 C590 C 0.25005 0.92886 0.91304
 C591 C 0.25047 0.94613 0.93177
 C592 C 0.27002 0.95429 0.94156
 C593 C 0.28916 0.94504 0.93169
 C594 C 0.28872 0.92772 0.91291
 C595 C 0.26847 0.90011 0.88506
 C596 C 0.28238 0.88278 0.88994
 C597 C 0.28047 0.86396 0.87419
 C598 C 0.26461 0.86203 0.85320
 C599 C 0.25121 0.87964 0.84766
 C600 C 0.25313 0.89845 0.86338
 C601 C 0.26116 0.84139 0.83835
 C602 C 0.25550 0.84088 0.80944
 C603 C 0.25047 0.82154 0.79623
 C604 C 0.25119 0.80237 0.81160
 C605 C 0.25724 0.80276 0.84025
 C606 C 0.26224 0.82206 0.85349
 H607 H 0.23470 0.92257 0.90662
 H608 H 0.23543 0.95283 0.93900
 H609 H 0.30448 0.95099 0.93877
 H610 H 0.30371 0.92087 0.90575
 H611 H 0.29426 0.88348 0.90663
 H612 H 0.29121 0.85078 0.87872
 H613 H 0.23870 0.87863 0.83184
 H614 H 0.24238 0.91162 0.85885
 H615 H 0.25470 0.85546 0.79714
 H616 H 0.24553 0.82156 0.77419
 H617 H 0.25761 0.78814 0.85253
 H618 H 0.26617 0.82192 0.87588
 C619 C 0.76975 0.42060 0.40205
 C620 C 0.75065 0.43017 0.41145
 C621 C 0.75106 0.44718 0.43061
 C622 C 0.77059 0.45502 0.44089
 C623 C 0.78973 0.44581 0.43100
 C624 C 0.78932 0.42876 0.41179
 C625 C 0.76907 0.40152 0.38330
 C626 C 0.78287 0.38410 0.38812
 C627 C 0.78088 0.36534 0.37226
 C628 C 0.76503 0.36356 0.35124
 C629 C 0.75176 0.38127 0.34573
 C630 C 0.75378 0.40003 0.36155
 C631 C 0.76141 0.34296 0.33638
 C632 C 0.75569 0.34248 0.30750
 C633 C 0.75052 0.32318 0.29430
 C634 C 0.75118 0.30400 0.30965
 C635 C 0.75729 0.30435 0.33828
 C636 C 0.76241 0.32361 0.35151
 H637 H 0.73530 0.42407 0.40473
 H638 H 0.73601 0.45387 0.43783
 H639 H 0.80504 0.45153 0.43845
 H640 H 0.80431 0.42189 0.40468
 H641 H 0.79471 0.38465 0.40486
 H642 H 0.79153 0.35208 0.37676
 H643 H 0.73926 0.38038 0.32988
 H644 H 0.74310 0.41328 0.35705
 H645 H 0.75494 0.35707 0.29521
 H646 H 0.74554 0.32324 0.27227
 H647 H 0.75762 0.28972 0.35054
 H648 H 0.76637 0.32344 0.37389
 C649 C 0.07915 0.27064 0.90297
 C650 C 0.06974 0.25163 0.91254
 C651 C 0.05269 0.25219 0.93163
 C652 C 0.04460 0.27177 0.94166
 C653 C 0.05374 0.29082 0.93174
 C654 C 0.07085 0.29026 0.91261
 C655 C 0.09810 0.26979 0.88397
 C656 C 0.11553 0.28343 0.88849
 C657 C 0.13417 0.28126 0.87232
 C658 C 0.13578 0.26540 0.85127
 C659 C 0.11804 0.25229 0.84606
 C660 C 0.09942 0.25447 0.86219
 C661 C 0.15627 0.26157 0.83607
 C662 C 0.15645 0.25579 0.80719
 C663 C 0.17562 0.25029 0.79370
 C664 C 0.19496 0.25066 0.80876
 C665 C 0.19491 0.25688 0.83736
 C666 C 0.17577 0.26233 0.85088
 H667 H 0.07597 0.23625 0.90591
 H668 H 0.04607 0.23721 0.93888
 H669 H 0.04784 0.30617 0.93901
 H670 H 0.07762 0.30518 0.90538
 H671 H 0.11509 0.29529 0.90522
 H672 H 0.14745 0.29179 0.87660
 H673 H 0.11880 0.23978 0.83021
 H674 H 0.08615 0.24392 0.85792
 H675 H 0.14173 0.25523 0.79514
 H676 H 0.17533 0.24524 0.77171
 H677 H 0.20967 0.25699 0.84940
 H678 H 0.17617 0.26633 0.87324
 C679 C 0.58103 0.77118 0.40597
 C680 C 0.57166 0.75209 0.41533
 C681 C 0.55448 0.75249 0.43423
 C682 C 0.54624 0.77199 0.44431
 C683 C 0.55532 0.79113 0.43458
 C684 C 0.57255 0.79072 0.41562
 C685 C 0.60012 0.77050 0.38723
 C686 C 0.61742 0.78427 0.39202
 C687 C 0.63618 0.78229 0.37608
 C688 C 0.63808 0.76649 0.35500
 C689 C 0.62049 0.75323 0.34953
 C690 C 0.60173 0.75523 0.36543
 C691 C 0.65869 0.76289 0.34000
 C692 C 0.65910 0.75717 0.31111
 C693 C 0.67841 0.75193 0.29779
 C694 C 0.69766 0.75253 0.31302
 C695 C 0.69738 0.75867 0.34165
 C696 C 0.67811 0.76386 0.35500
 H697 H 0.57801 0.73676 0.40868
 H698 H 0.54791 0.73745 0.44134
 H699 H 0.54930 0.80642 0.44189
 H700 H 0.57927 0.80570 0.40856
 H701 H 0.61675 0.79609 0.40879
 H702 H 0.64934 0.79293 0.38056
 H703 H 0.62147 0.74076 0.33365
 H704 H 0.58858 0.74458 0.36094
 H705 H 0.64446 0.75645 0.29890
 H706 H 0.67830 0.74692 0.27577
 H707 H 0.71207 0.75895 0.35382
 H708 H 0.67833 0.76782 0.37737
 C709 C 0.92147 0.72819 0.90533
 C710 C 0.93066 0.74733 0.91477
 C711 C 0.94778 0.74707 0.93377
 C712 C 0.95621 0.72761 0.94393
 C713 C 0.94728 0.70841 0.93394
 C714 C 0.93009 0.70871 0.91492
 C715 C 0.90240 0.72872 0.88655
 C716 C 0.88514 0.71493 0.89142
 C717 C 0.86637 0.71680 0.87548
 C718 C 0.86445 0.73250 0.85429
 C719 C 0.88201 0.74576 0.84872
 C720 C 0.90076 0.74388 0.86466
 C721 C 0.84382 0.73603 0.83932
 C722 C 0.84336 0.74148 0.81035
 C723 C 0.82405 0.74673 0.79706
 C724 C 0.80484 0.74644 0.81243
 C725 C 0.80516 0.74053 0.84113
 C726 C 0.82444 0.73531 0.85444
 H727 H 0.92420 0.76261 0.90812
 H728 H 0.95413 0.76223 0.94084
 H729 H 0.95333 0.69308 0.94108
 H730 H 0.92350 0.69369 0.90777
 H731 H 0.88583 0.70319 0.90827
 H732 H 0.85321 0.70618 0.88004
 H733 H 0.88100 0.75815 0.83275
 H734 H 0.91389 0.75455 0.86013
 H735 H 0.85798 0.74200 0.79807
 H736 H 0.82412 0.75153 0.77497
 H737 H 0.79052 0.74050 0.85340
 H738 H 0.82427 0.73154 0.87687
 C739 C 0.42033 0.22798 0.40146
 C740 C 0.42968 0.24698 0.41120
 C741 C 0.44668 0.24639 0.43038
 C742 C 0.45474 0.22680 0.44035
 C743 C 0.44570 0.20776 0.43019
 C744 C 0.42865 0.20835 0.41097
 C745 C 0.40136 0.22883 0.38252
 C746 C 0.38395 0.21516 0.38705
 C747 C 0.36528 0.21733 0.37097
 C748 C 0.36360 0.23322 0.35000
 C749 C 0.38131 0.24636 0.34477
 C750 C 0.39997 0.24418 0.36082
 C751 C 0.34307 0.23705 0.33494
 C752 C 0.34278 0.24276 0.30605
 C753 C 0.32356 0.24824 0.29270
 C754 C 0.30428 0.24792 0.30791
 C755 C 0.30444 0.24178 0.33652
 C756 C 0.32362 0.23633 0.34990
 H757 H 0.42344 0.26236 0.40464
 H758 H 0.45323 0.26136 0.43781
 H759 H 0.45159 0.19240 0.43740
 H760 H 0.42193 0.19344 0.40362
 H761 H 0.38445 0.20328 0.40374
 H762 H 0.35201 0.20678 0.37527
 H763 H 0.38049 0.25888 0.32897
 H764 H 0.41322 0.25476 0.35655
 H765 H 0.35746 0.24329 0.29390
 H766 H 0.32375 0.25323 0.27068
 H767 H 0.28973 0.24172 0.34867
 H768 H 0.32332 0.23237 0.37227
 C769 C 0.73143 0.91995 0.90333
 C770 C 0.71183 0.92857 0.91257
 C771 C 0.71134 0.94580 0.93149
 C772 C 0.73045 0.95474 0.94161
 C773 C 0.75002 0.94642 0.93185
 C774 C 0.75050 0.92923 0.91296
 C775 C 0.73215 0.90073 0.88484
 C776 C 0.74756 0.89886 0.86325
 C777 C 0.74954 0.87999 0.84761
 C778 C 0.73613 0.86255 0.85316
 C779 C 0.72020 0.86469 0.87404
 C780 C 0.71823 0.88357 0.88971
 C781 C 0.73967 0.84182 0.83847
 C782 C 0.73861 0.82256 0.85376
 C783 C 0.74368 0.80316 0.84068
 C784 C 0.74976 0.80261 0.81204
 C785 C 0.75045 0.82170 0.79652
 C786 C 0.74536 0.84114 0.80958
 H787 H 0.69686 0.92192 0.90527
 H788 H 0.69599 0.95188 0.93855
 H789 H 0.76504 0.95289 0.93926
 H790 H 0.76587 0.92278 0.90660
 H791 H 0.75833 0.91190 0.85874
 H792 H 0.76210 0.87880 0.83187
 H793 H 0.70946 0.85163 0.87857
 H794 H 0.70630 0.88443 0.90633
 H795 H 0.73466 0.82256 0.87614
 H796 H 0.74334 0.78860 0.85306
 H797 H 0.75540 0.82158 0.77448
 H798 H 0.74614 0.85566 0.79718
 C799 C 0.23121 0.42062 0.40121
 C800 C 0.21163 0.42924 0.41057
 C801 C 0.21120 0.44629 0.42978
 C802 C 0.23034 0.45506 0.44007
 C803 C 0.24988 0.44674 0.43021
 C804 C 0.25031 0.42973 0.41103
 C805 C 0.23186 0.40158 0.38238
 C806 C 0.24728 0.39987 0.36078
 C807 C 0.24919 0.38115 0.34479
 C808 C 0.23570 0.36371 0.35001
 C809 C 0.21976 0.36571 0.37090
 C810 C 0.21786 0.38444 0.38690
 C811 C 0.23917 0.34311 0.33497
 C812 C 0.23804 0.32371 0.34993
 C813 C 0.24309 0.30442 0.33655
 C814 C 0.24923 0.30411 0.30793
 C815 C 0.24997 0.32334 0.29272
 C816 C 0.24490 0.34267 0.30608
 H817 H 0.19665 0.42272 0.40313
 H818 H 0.19587 0.45238 0.43690
 H819 H 0.26492 0.45308 0.43775
 H820 H 0.26565 0.42328 0.40459
 H821 H 0.25812 0.41290 0.35652
 H822 H 0.26176 0.38007 0.32905
 H823 H 0.20896 0.35266 0.37518
 H824 H 0.20592 0.38518 0.40352
 H825 H 0.23406 0.32351 0.37230
 H826 H 0.24271 0.28975 0.34871
 H827 H 0.25496 0.32342 0.27070
 H828 H 0.24574 0.35731 0.29392
 C829 C 0.26892 0.07881 0.90293
 C830 C 0.24984 0.06972 0.91281
 C831 C 0.25028 0.05274 0.93198
 C832 C 0.26985 0.04437 0.94189
 C833 C 0.28898 0.05320 0.93148
 C834 C 0.28849 0.07024 0.91227
 C835 C 0.26821 0.09774 0.88393
 C836 C 0.28216 0.11495 0.88827
 C837 C 0.28017 0.13358 0.87211
 C838 C 0.26420 0.13540 0.85124
 C839 C 0.25077 0.11788 0.84620
 C840 C 0.25277 0.09927 0.86234
 C841 C 0.26061 0.15590 0.83603
 C842 C 0.25476 0.15614 0.80719
 C843 C 0.24952 0.17536 0.79370
 C844 C 0.25024 0.19468 0.80873
 C845 C 0.25652 0.19458 0.83730
 C846 C 0.26172 0.17539 0.85081
 H847 H 0.23449 0.07615 0.90636
 H848 H 0.23517 0.04646 0.93938
 H849 H 0.30438 0.04718 0.93841
 H850 H 0.30346 0.07675 0.90477
 H851 H 0.29412 0.11434 0.90487
 H852 H 0.29094 0.14669 0.87626
 H853 H 0.23818 0.11882 0.83049
 H854 H 0.24197 0.08617 0.85821
 H855 H 0.25393 0.14142 0.79516
 H856 H 0.24442 0.17512 0.77173
 H857 H 0.25689 0.20933 0.84932
 H858 H 0.26580 0.17575 0.87315
 C859 C 0.77156 0.58070 0.40598
 C860 C 0.79096 0.57209 0.41594
 C861 C 0.79105 0.55478 0.43473
 C862 C 0.77173 0.54577 0.44398
 C863 C 0.75238 0.55421 0.43367
 C864 C 0.75229 0.57146 0.41493
 C865 C 0.77118 0.59977 0.38722
 C866 C 0.75619 0.60138 0.36510
 C867 C 0.75438 0.62012 0.34920
 C868 C 0.76756 0.63769 0.35499
 C869 C 0.78313 0.63579 0.37638
 C870 C 0.78492 0.61703 0.39233
 C871 C 0.76408 0.65830 0.34000
 C872 C 0.76479 0.67767 0.35511
 C873 C 0.75955 0.69692 0.34178
 C874 C 0.75361 0.69721 0.31307
 C875 C 0.75332 0.67801 0.29773
 C876 C 0.75862 0.65873 0.31103
 H877 H 0.80607 0.57875 0.40921
 H878 H 0.80624 0.54861 0.44224
 H879 H 0.73720 0.54770 0.44040
 H880 H 0.73707 0.57792 0.40805
 H881 H 0.74558 0.58824 0.36038
 H882 H 0.74208 0.62110 0.33307
 H883 H 0.79371 0.64895 0.38111
 H884 H 0.79654 0.61636 0.40934
 H885 H 0.76855 0.67788 0.37754
 H886 H 0.75959 0.71157 0.35403
 H887 H 0.74848 0.67790 0.27565
 H888 H 0.75811 0.64413 0.29874
 C889 C 0.08015 0.72824 0.90509
 C890 C 0.07176 0.70876 0.91467
 C891 C 0.05463 0.70844 0.93377
 C892 C 0.04553 0.72764 0.94385
 C893 C 0.05373 0.74710 0.93371
 C894 C 0.07079 0.74738 0.91464
 C895 C 0.09916 0.72879 0.88620
 C896 C 0.10059 0.74403 0.86439
 C897 C 0.11927 0.74593 0.84838
 C898 C 0.13698 0.73262 0.85377
 C899 C 0.13527 0.71684 0.87486
 C900 C 0.11656 0.71494 0.89089
 C901 C 0.15754 0.73617 0.83873
 C902 C 0.17696 0.73530 0.85373
 C903 C 0.19616 0.74052 0.84037
 C904 C 0.19635 0.74658 0.81172
 C905 C 0.17710 0.74704 0.79647
 C906 C 0.15786 0.74178 0.80981
 H907 H 0.07849 0.69374 0.90743
 H908 H 0.04876 0.69311 0.94089
 H909 H 0.04724 0.76226 0.94086
 H910 H 0.07708 0.76266 0.90801
 H911 H 0.08734 0.75473 0.86000
 H912 H 0.12012 0.75838 0.83249
 H913 H 0.14853 0.70617 0.87928
 H914 H 0.11603 0.70314 0.90766
 H915 H 0.17724 0.73140 0.87612
 H916 H 0.21085 0.74035 0.85255
 H917 H 0.17692 0.75197 0.77443
 H918 H 0.14320 0.74242 0.79762
 C919 C 0.58040 0.22817 0.40346
 C920 C 0.57231 0.20851 0.41290
 C921 C 0.55507 0.20786 0.43181
 C922 C 0.54560 0.22687 0.44172
 C923 C 0.55348 0.24649 0.43188
 C924 C 0.57066 0.24713 0.41301
 C925 C 0.59946 0.22910 0.38467
 C926 C 0.60068 0.24442 0.36295
 C927 C 0.61935 0.24665 0.34698
 C928 C 0.63724 0.23358 0.35231
 C929 C 0.63575 0.21773 0.37334
 C930 C 0.61707 0.21551 0.38934
 C931 C 0.65773 0.23740 0.33722
 C932 C 0.67720 0.23670 0.35214
 C933 C 0.69632 0.24208 0.33870
 C934 C 0.69639 0.24816 0.31005
 C935 C 0.67709 0.24849 0.29490
 C936 C 0.65794 0.24306 0.30832
 H937 H 0.57934 0.19362 0.40569
 H938 H 0.54934 0.19248 0.43893
 H939 H 0.54660 0.26143 0.43913
 H940 H 0.57671 0.26254 0.40652
 H941 H 0.58728 0.25494 0.35857
 H942 H 0.62002 0.25915 0.33113
 H943 H 0.64916 0.20723 0.37772
 H944 H 0.61669 0.20366 0.40605
 H945 H 0.67757 0.23278 0.37452
 H946 H 0.71104 0.24201 0.35081
 H947 H 0.67682 0.25342 0.27286
 H948 H 0.64325 0.24358 0.29618
 C949 C 0.91956 0.27127 0.90222
 C950 C 0.92821 0.29080 0.91128
 C951 C 0.94521 0.29119 0.93057
 C952 C 0.95390 0.27205 0.94122
 C953 C 0.94550 0.25254 0.93174
 C954 C 0.92853 0.25216 0.91251
 C955 C 0.90065 0.27067 0.88315
 C956 C 0.89897 0.25491 0.86203
 C957 C 0.88030 0.25299 0.84598
 C958 C 0.86288 0.26683 0.85062
 C959 C 0.86489 0.28316 0.87093
 C960 C 0.88356 0.28505 0.88703
 C961 C 0.84225 0.26324 0.83576
 C962 C 0.82285 0.26508 0.85068
 C963 C 0.80355 0.25972 0.83769
 C964 C 0.80322 0.25251 0.80951
 C965 C 0.82245 0.25113 0.79428
 C966 C 0.84179 0.25655 0.80724
 H967 H 0.92180 0.30579 0.90349
 H968 H 0.95138 0.30648 0.93739
 H969 H 0.95177 0.23751 0.93957
 H970 H 0.92203 0.23686 0.90635
 H971 H 0.91198 0.24379 0.85823
 H972 H 0.87923 0.24011 0.83071
 H973 H 0.85187 0.29425 0.87474
 H974 H 0.88427 0.29728 0.90326
 H975 H 0.82265 0.26981 0.87279
 H976 H 0.78888 0.26061 0.84987
 H977 H 0.82252 0.24530 0.77262
 H978 H 0.85643 0.25516 0.79509
 C979 C 0.42073 0.77200 0.40525
 C980 C 0.42931 0.79144 0.41475
 C981 C 0.44644 0.79164 0.43386
 C982 C 0.45532 0.77241 0.44389
 C983 C 0.44700 0.75299 0.43395
 C984 C 0.42991 0.75279 0.41490
 C985 C 0.40169 0.77157 0.38638
 C986 C 0.40000 0.75617 0.36479
 C987 C 0.38127 0.75443 0.34882
 C988 C 0.36379 0.76808 0.35402
 C989 C 0.36579 0.78403 0.37487
 C990 C 0.38452 0.78575 0.39088
 C991 C 0.34314 0.76471 0.33910
 C992 C 0.32376 0.76616 0.35413
 C993 C 0.30445 0.76104 0.34097
 C994 C 0.30411 0.75449 0.31250
 C995 C 0.32332 0.75350 0.29719
 C996 C 0.34267 0.75866 0.31033
 H997 H 0.42274 0.80650 0.40746
 H998 H 0.45253 0.80687 0.44104
 H999 H 0.45342 0.73788 0.44130
 H1000 H 0.42347 0.73754 0.40838
 H1001 H 0.41306 0.74521 0.36052
 H1002 H 0.38021 0.74184 0.33313
 H1003 H 0.35271 0.79497 0.37914
 H1004 H 0.38524 0.79769 0.40748
 H1005 H 0.32358 0.77039 0.37642
 H1006 H 0.28979 0.76163 0.35320
 H1007 H 0.32339 0.74818 0.27530
 H1008 H 0.35729 0.75759 0.29811
 C1009 C 0.26954 0.92012 0.09636
 C1010 C 0.25042 0.92968 0.08704
 C1011 C 0.25078 0.94680 0.06809
 C1012 C 0.27028 0.95478 0.05793
 C1013 C 0.28946 0.94553 0.06766
 C1014 C 0.28909 0.92835 0.08665
 C1015 C 0.26891 0.90108 0.11515
 C1016 C 0.28268 0.88363 0.11033
 C1017 C 0.28079 0.86497 0.12638
 C1018 C 0.26510 0.86333 0.14763
 C1019 C 0.25183 0.88106 0.15309
 C1020 C 0.25373 0.89971 0.13707
 C1021 C 0.26166 0.84286 0.16288
 C1022 C 0.25622 0.84269 0.19187
 C1023 C 0.25119 0.82353 0.20548
 C1024 C 0.25171 0.80419 0.19045
 C1025 C 0.25756 0.80423 0.16172
 C1026 C 0.26255 0.82336 0.14807
 H1027 H 0.23509 0.92352 0.09375
 H1028 H 0.23572 0.95351 0.06099
 H1029 H 0.30475 0.95134 0.06029
 H1030 H 0.30409 0.92148 0.09369
 H1031 H 0.29443 0.88411 0.09347
 H1032 H 0.29143 0.85169 0.12190
 H1033 H 0.23944 0.88027 0.16910
 H1034 H 0.24309 0.91298 0.14156
 H1035 H 0.25558 0.85741 0.20392
 H1036 H 0.24642 0.82383 0.22759
 H1037 H 0.25777 0.78947 0.14970
 H1038 H 0.26630 0.82296 0.12564
 C1039 C 0.76711 0.41517 0.59057
 C1040 C 0.78674 0.42525 0.58542
 C1041 C 0.78765 0.44345 0.56822
 C1042 C 0.76892 0.45201 0.55613
 C1043 C 0.74924 0.44229 0.56216
 C1044 C 0.74836 0.42405 0.57909
 C1045 C 0.76610 0.39497 0.60689
 C1046 C 0.75378 0.37794 0.59669
 C1047 C 0.75225 0.35900 0.61210
 C1048 C 0.76292 0.35669 0.63816
 C1049 C 0.77539 0.37366 0.64834
 C1050 C 0.77710 0.39259 0.63272
 C1051 C 0.76029 0.33683 0.65489
 C1052 C 0.75574 0.33776 0.68409
 C1053 C 0.75092 0.31914 0.69913
 C1054 C 0.75089 0.29928 0.68529
 C1055 C 0.75614 0.29825 0.65637
 C1056 C 0.76082 0.31684 0.64131
 H1057 H 0.80143 0.41865 0.59395
 H1058 H 0.80305 0.45059 0.56400
 H1059 H 0.73450 0.44848 0.55326
 H1060 H 0.73299 0.41677 0.58307
 H1061 H 0.74532 0.37927 0.57669
 H1062 H 0.74233 0.34630 0.60390
 H1063 H 0.78384 0.37224 0.66832
 H1064 H 0.78664 0.40553 0.64107
 H1065 H 0.75497 0.35298 0.69498
 H1066 H 0.74651 0.32029 0.72132
 H1067 H 0.75606 0.28308 0.64531
 H1068 H 0.76447 0.31564 0.61889
 C1069 C 0.73044 0.07939 0.09783
 C1070 C 0.74958 0.06977 0.08865
 C1071 C 0.74925 0.05261 0.06974
 C1072 C 0.72976 0.04465 0.05947
 C1073 C 0.71057 0.05393 0.06911
 C1074 C 0.71091 0.07114 0.08808
 C1075 C 0.73104 0.09858 0.11638
 C1076 C 0.71727 0.11597 0.11132
 C1077 C 0.71921 0.13481 0.12702
 C1078 C 0.73498 0.13670 0.14812
 C1079 C 0.74823 0.11902 0.15388
 C1080 C 0.74626 0.10018 0.13822
 C1081 C 0.73853 0.15738 0.16284
 C1082 C 0.74417 0.15797 0.19175
 C1083 C 0.74930 0.17733 0.20483
 C1084 C 0.74867 0.19644 0.18934
 C1085 C 0.74265 0.19598 0.16068
 C1086 C 0.73757 0.17666 0.14756
 H1087 H 0.76490 0.07595 0.09538
 H1088 H 0.76433 0.04588 0.06271
 H1089 H 0.69530 0.04813 0.06166
 H1090 H 0.69589 0.07805 0.09502
 H1091 H 0.70549 0.11532 0.09450
 H1092 H 0.70857 0.14805 0.12232
 H1093 H 0.76067 0.11999 0.16979
 H1094 H 0.75691 0.08696 0.14291
 H1095 H 0.74488 0.14344 0.20415
 H1096 H 0.75421 0.17736 0.22688
 H1097 H 0.74235 0.21056 0.14831
 H1098 H 0.73368 0.17673 0.12516
 C1099 C 0.23058 0.57849 0.59805
 C1100 C 0.24971 0.56890 0.58878
 C1101 C 0.24936 0.55186 0.56966
 C1102 C 0.22987 0.54400 0.55928
 C1103 C 0.21069 0.55325 0.56901
 C1104 C 0.21105 0.57033 0.58819
 C1105 C 0.23120 0.59756 0.61682
 C1106 C 0.21742 0.61500 0.61196
 C1107 C 0.21935 0.63373 0.62790
 C1108 C 0.23511 0.63547 0.64904
 C1109 C 0.24836 0.61776 0.65459
 C1110 C 0.24641 0.59902 0.63869
 C1111 C 0.23864 0.65605 0.66402
 C1112 C 0.24425 0.65646 0.69295
 C1113 C 0.24937 0.67573 0.70628
 C1114 C 0.24877 0.69495 0.69100
 C1115 C 0.24276 0.69467 0.66233
 C1116 C 0.23769 0.67543 0.64898
 H1117 H 0.26503 0.57500 0.59559
 H1118 H 0.26443 0.54515 0.56255
 H1119 H 0.19540 0.54752 0.56149
 H1120 H 0.19603 0.57721 0.59519
 H1121 H 0.20565 0.61446 0.59513
 H1122 H 0.20871 0.64699 0.62336
 H1123 H 0.26079 0.61862 0.67053
 H1124 H 0.25706 0.58577 0.64323
 H1125 H 0.24495 0.64184 0.70519
 H1126 H 0.25426 0.67562 0.72833
 H1127 H 0.24248 0.70933 0.65012
 H1128 H 0.23382 0.67566 0.62658
 C1129 C 0.92079 0.72936 0.09793
 C1130 C 0.92929 0.70975 0.08856
 C1131 C 0.94645 0.70921 0.06952
 C1132 C 0.95545 0.72827 0.05941
 C1133 C 0.94719 0.74785 0.06920
 C1134 C 0.93007 0.74839 0.08820
 C1135 C 0.90175 0.73016 0.11677
 C1136 C 0.90019 0.74560 0.13837
 C1137 C 0.88149 0.74767 0.15437
 C1138 C 0.86392 0.73433 0.14920
 C1139 C 0.86577 0.71837 0.12832
 C1140 C 0.88447 0.71631 0.11228
 C1141 C 0.84335 0.73798 0.16429
 C1142 C 0.82389 0.73691 0.14942
 C1143 C 0.80465 0.74214 0.16284
 C1144 C 0.80447 0.74842 0.19141
 C1145 C 0.82377 0.74913 0.20653
 C1146 C 0.84304 0.74385 0.19314
 H1147 H 0.92262 0.69482 0.09592
 H1148 H 0.95249 0.69386 0.06244
 H1149 H 0.95370 0.76283 0.06179
 H1150 H 0.92370 0.76376 0.09463
 H1151 H 0.91333 0.75631 0.14261
 H1152 H 0.88054 0.76026 0.17009
 H1153 H 0.85261 0.70767 0.12407
 H1154 H 0.88510 0.70436 0.09567
 H1155 H 0.82360 0.73282 0.12709
 H1156 H 0.78993 0.74178 0.15076
 H1157 H 0.82394 0.75424 0.22850
 H1158 H 0.85773 0.74466 0.20523
 C1159 C 0.41868 0.22674 0.59490
 C1160 C 0.42714 0.20723 0.58514
 C1161 C 0.44447 0.20687 0.56634
 C1162 C 0.45366 0.22602 0.55687
 C1163 C 0.44542 0.24550 0.56705
 C1164 C 0.42815 0.24585 0.58581
 C1165 C 0.39951 0.22738 0.61352
 C1166 C 0.39789 0.24251 0.63549
 C1167 C 0.37909 0.24449 0.65129
 C1168 C 0.36146 0.23136 0.64555
 C1169 C 0.36336 0.21568 0.62430
 C1170 C 0.38217 0.21372 0.60846
 C1171 C 0.34080 0.23496 0.66045
 C1172 C 0.32144 0.23422 0.64530
 C1173 C 0.30215 0.23947 0.65857
 C1174 C 0.30180 0.24546 0.68725
 C1175 C 0.32099 0.24580 0.70264
 C1176 C 0.34031 0.24050 0.68941
 H1177 H 0.42033 0.19223 0.59200
 H1178 H 0.45048 0.19159 0.55894
 H1179 H 0.45207 0.26055 0.56015
 H1180 H 0.42181 0.26116 0.59255
 H1181 H 0.41107 0.25308 0.64018
 H1182 H 0.37810 0.25687 0.66731
 H1183 H 0.35016 0.20514 0.61961
 H1184 H 0.38285 0.20200 0.59156
 H1185 H 0.32128 0.23039 0.62289
 H1186 H 0.28751 0.23939 0.64628
 H1187 H 0.32105 0.25068 0.72471
 H1188 H 0.35491 0.24103 0.70172
 C1189 C 0.07937 0.27136 0.09637
 C1190 C 0.07089 0.29089 0.08676
 C1191 C 0.05361 0.29129 0.06789
 C1192 C 0.04449 0.27216 0.05820
 C1193 C 0.05271 0.25266 0.06829
 C1194 C 0.06993 0.25226 0.08712
 C1195 C 0.09858 0.27069 0.11490
 C1196 C 0.10029 0.25552 0.13677
 C1197 C 0.11915 0.25353 0.15244
 C1198 C 0.13674 0.26668 0.14665
 C1199 C 0.13476 0.28240 0.12549
 C1200 C 0.11589 0.28438 0.10979
 C1201 C 0.15746 0.26306 0.16136
 C1202 C 0.17674 0.26375 0.14603
 C1203 C 0.19609 0.25849 0.15911
 C1204 C 0.19658 0.25257 0.18780
 C1205 C 0.17747 0.25227 0.20338
 C1206 C 0.15809 0.25757 0.19031
 H1207 H 0.07766 0.30587 0.09375
 H1208 H 0.04761 0.30658 0.06058
 H1209 H 0.04610 0.23762 0.06122
 H1210 H 0.07628 0.23694 0.09376
 H1211 H 0.08713 0.24493 0.14147
 H1212 H 0.12020 0.24113 0.16840
 H1213 H 0.14794 0.29295 0.12076
 H1214 H 0.11515 0.29612 0.09295
 H1215 H 0.17678 0.26754 0.12360
 H1216 H 0.21067 0.25853 0.14669
 H1217 H 0.17753 0.24744 0.22546
 H1218 H 0.14355 0.25707 0.20275
 C1219 C 0.58071 0.77018 0.59922
 C1220 C 0.57237 0.78981 0.58973
 C1221 C 0.55517 0.79040 0.57075
 C1222 C 0.54600 0.77137 0.56080
 C1223 C 0.55409 0.75177 0.57074
 C1224 C 0.57123 0.75119 0.58970
 C1225 C 0.59981 0.76933 0.61796
 C1226 C 0.60129 0.75406 0.63973
 C1227 C 0.62002 0.75193 0.65566
 C1228 C 0.63771 0.76505 0.65021
 C1229 C 0.63595 0.78085 0.62913
 C1230 C 0.61721 0.78297 0.61319
 C1231 C 0.65829 0.76131 0.66521
 C1232 C 0.67770 0.76198 0.65017
 C1233 C 0.69693 0.75664 0.66352
 C1234 C 0.69717 0.75067 0.69220
 C1235 C 0.67793 0.75040 0.70749
 C1236 C 0.65866 0.75577 0.69416
 H1237 H 0.57918 0.80472 0.59694
 H1238 H 0.54927 0.80576 0.56355
 H1239 H 0.54744 0.73681 0.56347
 H1240 H 0.57748 0.73580 0.59624
 H1241 H 0.58806 0.74350 0.64418
 H1242 H 0.62091 0.73947 0.67155
 H1243 H 0.64921 0.79137 0.62466
 H1244 H 0.61664 0.79479 0.59643
 H1245 H 0.67794 0.76581 0.62776
 H1246 H 0.71160 0.75665 0.65131
 H1247 H 0.67779 0.74554 0.72956
 H1248 H 0.64402 0.75528 0.70638
   
