data_POSCAR
  _audit_creation_date              2014-09-24
  _audit_creation_method            'ToBaCCo'
  _symmetry_space_group_name_H-M    'P1'
  _symmetry_Int_Tables_number       1
  _symmetry_cell_setting            triclinic
  loop_
  _symmetry_equiv_pos_as_xyz
 x,y,z
_cell_length_a 73.6010
_cell_length_b 73.6094
_cell_length_c 73.6102
_cell_angle_alpha 90.005200
_cell_angle_beta 90.000800
_cell_angle_gamma 90.000200
loop_
  _atom_site_label
  _atom_site_type_symbol
  _atom_site_fract_x
  _atom_site_fract_y
  _atom_site_fract_z
N1 N 0.34408 0.34378 0.34434
 N2 N 0.34401 0.84389 -0.15570
 N3 N 0.84408 0.34373 -0.15540
 N4 N 0.84434 0.84381 0.34473
 N5 N 0.65569 0.65552 0.34396
 N6 N 0.65598 0.15553 -0.15594
 N7 N 0.15578 0.65512 -0.15633
 N8 N 0.15606 0.15544 0.34359
 N9 N 0.65597 0.34458 0.65605
 N10 N 0.65560 0.84452 1.15662
 N11 N 0.15593 0.34451 1.15585
 N12 N 0.15548 0.84440 0.65642
 N13 N 0.34427 0.65615 0.65555
 N14 N 0.34418 0.15622 1.15509
 N15 N 0.84427 0.65649 1.15575
 N16 N 0.84382 0.15612 0.65526
 N17 N 0.34443 0.34364 0.65532
 N18 N 0.34415 0.84364 0.15519
 N19 N 0.84433 0.34405 0.15562
 N20 N 0.84408 0.84374 0.65568
 N21 N 0.65591 0.65551 0.65632
 N22 N 0.65594 0.15538 0.15635
 N23 N 0.15591 0.65558 0.15609
 N24 N 0.15563 0.15550 0.65596
 N25 N 0.34383 0.65610 0.34475
 N26 N 0.34427 0.15614 0.84421
 N27 N 0.84391 0.65611 0.84498
 N28 N 0.84438 0.15623 0.34444
 N29 N 0.65576 0.34463 0.34356
 N30 N 0.65577 0.84460 0.84408
 N31 N 0.15571 0.34435 0.84340
 N32 N 0.15615 0.84471 0.34392
 O33 O 0.22706 0.98234 0.25070
 O34 O 0.25198 1.01772 0.22563
 O35 O 0.25192 0.98230 0.22559
 O36 O 0.22717 1.01775 0.25078
 O37 O 0.24848 1.01766 0.27183
 O38 O 0.27323 0.98222 0.24666
 O39 O 0.27330 1.01765 0.24669
 O40 O 0.24837 0.98225 0.27176
 Cu41 Cu 0.23740 1.00003 0.23606
 Cu42 Cu 0.26298 0.99994 0.26134
 C43 C 0.23348 0.97618 0.26549
 C44 C 0.26687 1.02381 0.23190
 C45 C 0.26678 0.97613 0.23185
 C46 C 0.23362 1.02383 0.26559
 O47 O 0.27335 0.48197 0.74706
 O48 O 0.24851 0.51737 0.77222
 O49 O 0.24833 0.48196 0.77201
 O50 O 0.27352 0.51739 0.74728
 O51 O 0.25237 0.51762 0.72606
 O52 O 0.22717 0.48218 0.75079
 O53 O 0.22735 0.51759 0.75100
 O54 O 0.25219 0.48220 0.72585
 Cu55 Cu 0.26305 0.49965 0.76177
 Cu56 Cu 0.23765 0.49992 0.73630
 C57 C 0.26698 0.47596 0.73219
 C58 C 0.23370 0.52359 0.76589
 C59 C 0.23347 0.47595 0.76561
 C60 C 0.26722 0.52364 0.73247
 O61 O 0.77284 0.01764 0.25338
 O62 O 0.74779 -0.01779 0.22847
 O63 O 0.74782 0.01762 0.22843
 O64 O 0.77282 -0.01779 0.25340
 O65 O 0.75166 -0.01775 0.27462
 O66 O 0.72667 0.01766 0.24965
 O67 O 0.72663 -0.01775 0.24969
 O68 O 0.75168 0.01767 0.27460
 Cu69 Cu 0.76244 -0.00008 0.23880
 Cu70 Cu 0.73704 -0.00004 0.26427
 C71 C 0.76651 0.02378 0.26822
 C72 C 0.73295 -0.02389 0.23485
 C73 C 0.73300 0.02376 0.23480
 C74 C 0.76648 -0.02390 0.26825
 O75 O 0.72673 0.51762 0.74926
 O76 O 0.75166 0.48219 0.77424
 O77 O 0.75158 0.51761 0.77437
 O78 O 0.72687 0.48221 0.74907
 O79 O 0.74820 0.48238 0.72803
 O80 O 0.77290 0.51776 0.75332
 O81 O 0.77299 0.48234 0.75319
 O82 O 0.74805 0.51779 0.72821
 Cu83 Cu 0.73708 0.49989 0.76384
 Cu84 Cu 0.76267 0.50009 0.73858
 C85 C 0.73315 0.52383 0.73449
 C86 C 0.76656 0.47613 0.76796
 C87 C 0.76643 0.52381 0.76814
 C88 C 0.73334 0.47618 0.73425
 O89 O 0.25171 0.48220 0.27387
 O90 O 0.22678 0.51763 0.24887
 O91 O 0.22690 0.48222 0.24872
 O92 O 0.25164 0.51763 0.27397
 O93 O 0.27295 0.51775 0.25291
 O94 O 0.24821 0.48236 0.22766
 O95 O 0.24809 0.51777 0.22781
 O96 O 0.27303 0.48232 0.25281
 Cu97 Cu 0.23712 0.49991 0.26347
 Cu98 Cu 0.26271 0.50006 0.23819
 C99 C 0.26660 0.47613 0.26759
 C100 C 0.23319 0.52382 0.23409
 C101 C 0.23335 0.47617 0.23390
 C102 C 0.26649 0.52381 0.26772
 O103 O 0.72653 0.98228 0.75079
 O104 O 0.75146 1.01768 0.72574
 O105 O 0.75147 0.98226 0.72577
 O106 O 0.72653 1.01769 0.75077
 O107 O 0.74776 1.01771 0.77192
 O108 O 0.77270 0.98228 0.74692
 O109 O 0.77269 1.01770 0.74689
 O110 O 0.74775 0.98230 0.77194
 Cu111 Cu 0.73687 0.99998 0.73615
 Cu112 Cu 0.76235 1.00000 0.76153
 C113 C 0.73290 0.97617 0.76562
 C114 C 0.76630 1.02381 0.73206
 C115 C 0.76632 0.97613 0.73210
 C116 C 0.73291 1.02382 0.76560
 O117 O 0.77282 0.48250 0.24689
 O118 O 0.74780 0.51789 0.27188
 O119 O 0.74781 0.48248 0.27184
 O120 O 0.77282 0.51793 0.24694
 O121 O 0.75166 0.51795 0.22572
 O122 O 0.72665 0.48250 0.25062
 O123 O 0.72664 0.51791 0.25066
 O124 O 0.75167 0.48253 0.22568
 Cu125 Cu 0.76244 0.50020 0.26151
 Cu126 Cu 0.73704 0.50022 0.23604
 C127 C 0.76649 0.47639 0.23204
 C128 C 0.73297 0.52401 0.26552
 C129 C 0.73298 0.47636 0.26546
 C130 C 0.76649 0.52407 0.23211
 O131 O 0.24753 -0.01769 0.72802
 O132 O 0.27259 0.01774 0.75291
 O133 O 0.27257 -0.01768 0.75295
 O134 O 0.24757 0.01772 0.72797
 O135 O 0.22642 0.01778 0.74919
 O136 O 0.25141 -0.01763 0.77417
 O137 O 0.25144 0.01779 0.77413
 O138 O 0.22638 -0.01764 0.74925
 Cu139 Cu 0.26219 0.00002 0.73834
 Cu140 Cu 0.23680 0.00008 0.76381
 C141 C 0.23270 -0.02379 0.73441
 C142 C 0.26627 0.02390 0.76775
 C143 C 0.26623 -0.02378 0.76780
 C144 C 0.23275 0.02387 0.73433
 O145 O 0.25203 0.22792 0.98187
 O146 O 0.22687 0.25272 1.01727
 O147 O 0.22696 0.25280 0.98185
 O148 O 0.25198 0.22787 1.01728
 O149 O 0.27307 0.24915 1.01736
 O150 O 0.24806 0.27408 0.98194
 O151 O 0.24796 0.27400 1.01736
 O152 O 0.27313 0.24919 0.98194
 Cu153 Cu 0.23734 0.23820 0.99956
 Cu154 Cu 0.26267 0.26374 0.99966
 C155 C 0.26686 0.23434 0.97579
 C156 C 0.23314 0.26757 1.02344
 C157 C 0.23326 0.26768 0.97576
 C158 C 0.26678 0.23427 1.02344
 O159 O 0.27289 0.74894 0.51804
 O160 O 0.24814 0.77415 0.48262
 O161 O 0.24805 0.77406 0.51804
 O162 O 0.27301 0.74906 0.48263
 O163 O 0.25172 0.72798 0.48250
 O164 O 0.22675 0.75298 0.51792
 O165 O 0.22684 0.75307 0.48250
 O166 O 0.25160 0.72786 0.51791
 Cu167 Cu 0.26265 0.76367 0.50034
 Cu168 Cu 0.23709 0.73836 0.50019
 C169 C 0.26645 0.73411 0.52409
 C170 C 0.23329 0.76788 0.47643
 C171 C 0.23316 0.76777 0.52411
 C172 C 0.26661 0.73428 0.47644
 O173 O 0.27302 0.75072 -0.01805
 O174 O 0.24804 0.72578 0.01738
 O175 O 0.24792 0.72586 -0.01804
 O176 O 0.27310 0.75068 0.01736
 O177 O 0.25200 0.77195 0.01745
 O178 O 0.22682 0.74714 -0.01793
 O179 O 0.22693 0.74705 0.01749
 O180 O 0.25192 0.77200 -0.01796
 Cu181 Cu 0.26263 0.73613 -0.00035
 Cu182 Cu 0.23730 0.76166 -0.00023
 C183 C 0.26672 0.76560 -0.02413
 C184 C 0.23325 0.73218 0.02357
 C185 C 0.23309 0.73229 -0.02411
 C186 C 0.26683 0.76553 0.02352
 O187 O 0.27316 0.25076 0.48213
 O188 O 0.24817 0.22580 0.51754
 O189 O 0.24807 0.22590 0.48211
 O190 O 0.27324 0.25069 0.51754
 O191 O 0.25214 0.27196 0.51764
 O192 O 0.22697 0.24718 0.48223
 O193 O 0.22707 0.24707 0.51765
 O194 O 0.25207 0.27204 0.48223
 Cu195 Cu 0.26277 0.23615 0.49982
 Cu196 Cu 0.23745 0.26169 0.49995
 C197 C 0.26687 0.26564 0.47606
 C198 C 0.23338 0.23220 0.52372
 C199 C 0.23325 0.23233 0.47604
 C200 C 0.26697 0.26554 0.52371
 O201 O 0.74823 0.77453 0.98266
 O202 O 0.77324 0.74959 1.01806
 O203 O 0.77322 0.74957 0.98266
 O204 O 0.74823 0.77453 1.01808
 O205 O 0.72706 0.75332 1.01808
 O206 O 0.75206 0.72836 0.98267
 O207 O 0.75208 0.72838 1.01808
 O208 O 0.72706 0.75333 0.98266
 Cu209 Cu 0.76285 0.76418 1.00036
 Cu210 Cu 0.73744 0.73873 1.00037
 C211 C 0.73340 0.76817 0.97653
 C212 C 0.76691 0.73474 1.02419
 C213 C 0.76689 0.73472 0.97654
 C214 C 0.73340 0.76816 1.02421
 O215 O 0.74809 0.27426 0.48208
 O216 O 0.77303 0.24926 0.51750
 O217 O 0.77315 0.24935 0.48209
 O218 O 0.74796 0.27414 0.51751
 O219 O 0.72684 0.25288 0.51736
 O220 O 0.75203 0.22810 0.48196
 O221 O 0.75192 0.22799 0.51736
 O222 O 0.72697 0.25300 0.48194
 Cu223 Cu 0.76267 0.26388 0.49981
 Cu224 Cu 0.73732 0.23837 0.49964
 C225 C 0.73330 0.26788 0.47588
 C226 C 0.76672 0.23438 0.52355
 C227 C 0.76687 0.23451 0.47591
 C228 C 0.73312 0.26771 0.52356
 O229 O 0.77353 0.25066 -0.01745
 O230 O 0.74860 0.22566 0.01798
 O231 O 0.74858 0.22566 -0.01745
 O232 O 0.77356 0.25066 0.01796
 O233 O 0.75235 0.27183 0.01798
 O234 O 0.72737 0.24683 -0.01743
 O235 O 0.72739 0.24682 0.01799
 O236 O 0.75233 0.27183 -0.01744
 Cu237 Cu 0.76319 0.23604 0.00026
 Cu238 Cu 0.73773 0.26145 0.00028
 C239 C 0.76717 0.26550 -0.02357
 C240 C 0.73376 0.23200 0.02411
 C241 C 0.73374 0.23200 -0.02357
 C242 C 0.76720 0.26549 0.02409
 O243 O 0.77342 0.75060 0.48240
 O244 O 0.74841 0.72563 0.51779
 O245 O 0.74841 0.72564 0.48237
 O246 O 0.77341 0.75059 0.51781
 O247 O 0.75223 0.77179 0.51781
 O248 O 0.72724 0.74685 0.48238
 O249 O 0.72724 0.74683 0.51780
 O250 O 0.75225 0.77180 0.48240
 Cu251 Cu 0.76303 0.73599 0.50009
 Cu252 Cu 0.73762 0.76144 0.50010
 C253 C 0.76709 0.76544 0.47628
 C254 C 0.73358 0.73199 0.52392
 C255 C 0.73358 0.73201 0.47624
 C256 C 0.76707 0.76543 0.52393
 O257 O 0.98246 0.25214 0.22684
 O258 O 1.01788 0.22692 0.25155
 O259 O 0.98246 0.22696 0.25161
 O260 O 1.01788 0.25213 0.22681
 O261 O 1.01791 0.27312 0.24818
 O262 O 0.98252 0.24795 0.27298
 O263 O 1.01793 0.24791 0.27292
 O264 O 0.98249 0.27314 0.24821
 Cu265 Cu 1.00017 0.23743 0.23706
 Cu266 Cu 1.00022 0.26264 0.26272
 C267 C 0.97635 0.26693 0.23333
 C268 C 1.02404 0.23313 0.26643
 C269 C 0.97637 0.23318 0.26651
 C270 C 1.02402 0.26690 0.23328
 O271 O 0.48246 0.24814 0.77320
 O272 O 0.51789 0.27332 0.74844
 O273 O 0.48248 0.27322 0.74832
 O274 O 0.51788 0.24828 0.77335
 O275 O 0.51804 0.22716 0.75210
 O276 O 0.48262 0.25210 0.72706
 O277 O 0.51804 0.25220 0.72718
 O278 O 0.48262 0.22703 0.75194
 Cu279 Cu 0.50016 0.26286 0.76296
 Cu280 Cu 0.50035 0.23751 0.73744
 C281 C 0.47641 0.23331 0.76678
 C282 C 0.52409 0.26704 0.73360
 C283 C 0.47643 0.26690 0.73344
 C284 C 0.52408 0.23349 0.76698
 O285 O 0.01745 0.25180 0.77280
 O286 O -0.01799 0.22683 0.74786
 O287 O 0.01743 0.22686 0.74778
 O288 O -0.01797 0.25183 0.77282
 O289 O -0.01799 0.27302 0.75164
 O290 O 0.01740 0.24806 0.72661
 O291 O -0.01803 0.24802 0.72667
 O292 O 0.01743 0.27300 0.75163
 Cu293 Cu -0.00027 0.23721 0.76243
 Cu294 Cu -0.00030 0.26265 0.73701
 C295 C 0.02357 0.26664 0.76645
 C296 C -0.02414 0.23318 0.73303
 C297 C 0.02354 0.23322 0.73294
 C298 C -0.02410 0.26667 0.76648
 O299 O 0.48223 0.27312 0.25165
 O300 O 0.51767 0.24815 0.22670
 O301 O 0.48224 0.24812 0.22669
 O302 O 0.51765 0.27311 0.25170
 O303 O 0.51763 0.25191 0.27288
 O304 O 0.48223 0.22694 0.24788
 O305 O 0.51765 0.22696 0.24788
 O306 O 0.48221 0.25194 0.27284
 Cu307 Cu 0.49995 0.26275 0.23706
 Cu308 Cu 0.49993 0.23731 0.26249
 C309 C 0.47610 0.26678 0.26648
 C310 C 0.52379 0.23331 0.23305
 C311 C 0.47612 0.23329 0.23303
 C312 C 0.52376 0.26675 0.26654
 O313 O 0.98197 0.75155 0.72700
 O314 O 1.01739 0.72632 0.75172
 O315 O 0.98197 0.72644 0.75184
 O316 O 1.01739 0.75143 0.72688
 O317 O 1.01753 0.77251 0.74818
 O318 O 0.98212 0.74751 0.77315
 O319 O 1.01754 0.74739 0.77302
 O320 O 0.98211 0.77262 0.74831
 Cu321 Cu 0.99966 0.73682 0.73723
 Cu322 Cu 0.99984 0.76212 0.76280
 C323 C 0.97592 0.76637 0.73345
 C324 C 1.02359 0.73257 0.76656
 C325 C 0.97592 0.73273 0.76674
 C326 C 1.02358 0.76622 0.73329
 O327 O 0.51742 0.77297 0.24834
 O328 O 0.48197 0.74799 0.27330
 O329 O 0.51739 0.74804 0.27336
 O330 O 0.48200 0.77298 0.24833
 O331 O 0.48202 0.75178 0.22715
 O332 O 0.51743 0.72683 0.25220
 O333 O 0.48201 0.72679 0.25212
 O334 O 0.51744 0.75176 0.22717
 Cu335 Cu 0.49969 0.76262 0.26296
 Cu336 Cu 0.49973 0.73717 0.23754
 C337 C 0.52356 0.76660 0.23352
 C338 C 0.47586 0.73314 0.26695
 C339 C 0.52353 0.73320 0.26704
 C340 C 0.47589 0.76662 0.23349
 O341 O -0.01744 0.77327 0.25206
 O342 O 0.01795 0.74829 0.22707
 O343 O -0.01747 0.74826 0.22712
 O344 O 0.01798 0.77324 0.25208
 O345 O 0.01798 0.75205 0.27326
 O346 O -0.01745 0.72708 0.24831
 O347 O 0.01797 0.72710 0.24824
 O348 O -0.01744 0.75209 0.27325
 Cu349 Cu 0.00025 0.76288 0.23746
 Cu350 Cu 0.00027 0.73745 0.26289
 C351 C -0.02356 0.76693 0.26690
 C352 C 0.02408 0.73345 0.23340
 C353 C -0.02359 0.73342 0.23348
 C354 C 0.02411 0.76688 0.26691
 O355 O 0.51767 0.75209 0.77299
 O356 O 0.48228 0.72729 0.74779
 O357 O 0.51770 0.72721 0.74791
 O358 O 0.48224 0.75219 0.77285
 O359 O 0.48238 0.77345 0.75173
 O360 O 0.51783 0.74847 0.72681
 O361 O 0.48241 0.74854 0.72668
 O362 O 0.51780 0.77335 0.75188
 Cu363 Cu 0.49996 0.73756 0.76250
 Cu364 Cu 0.50012 0.76308 0.73716
 C365 C 0.52385 0.76693 0.76672
 C366 C 0.47623 0.73370 0.73295
 C367 C 0.52390 0.73359 0.73312
 C368 C 0.47618 0.76706 0.76652
 C369 C 0.39028 0.31977 0.31916
 C370 C 0.37597 0.32637 0.30852
 C371 C 0.36086 0.33438 0.31677
 C372 C 0.35989 0.33590 0.33579
 C373 C 0.37438 0.32934 0.34637
 C374 C 0.38948 0.32132 0.33810
 C375 C 0.40560 0.31113 0.31062
 C376 C 0.41827 0.30375 0.30332
 C377 C 0.43319 0.29480 0.29441
 C378 C 0.44033 0.30193 0.27830
 C379 C 0.45443 0.29293 0.26930
 C380 C 0.46157 0.27663 0.27631
 C381 C 0.45441 0.26967 0.29262
 C382 C 0.44031 0.27870 0.30159
 H383 H 0.37642 0.32518 0.29385
 H384 H 0.34980 0.33917 0.30834
 H385 H 0.37396 0.33046 0.36103
 H386 H 0.40048 0.31625 0.34646
 H387 H 0.43489 0.31437 0.27261
 H388 H 0.45962 0.29865 0.25678
 H389 H 0.45960 0.25716 0.29838
 H390 H 0.43486 0.27305 0.31404
 C391 C 0.39028 0.81999 0.81912
 C392 C 0.37597 0.82659 0.80848
 C393 C 0.36084 0.83457 0.81672
 C394 C 0.35985 0.83605 0.83574
 C395 C 0.37434 0.82950 0.84633
 C396 C 0.38946 0.82151 0.83806
 C397 C 0.40561 0.81137 0.81059
 C398 C 0.41829 0.80401 0.80329
 C399 C 0.43323 0.79507 0.79440
 C400 C 0.44044 0.80224 0.77834
 C401 C 0.45455 0.79325 0.76936
 C402 C 0.46164 0.77691 0.77634
 C403 C 0.45442 0.76991 0.79260
 C404 C 0.44030 0.77894 0.80155
 H405 H 0.37643 0.82542 0.79381
 H406 H 0.34978 0.83935 0.80830
 H407 H 0.37390 0.83059 0.86100
 H408 H 0.40046 0.81645 0.84643
 H409 H 0.43504 0.81471 0.77267
 H410 H 0.45980 0.79900 0.75688
 H411 H 0.45956 0.75737 0.79833
 H412 H 0.43480 0.77325 0.81396
 C413 C -0.10978 0.31970 0.81933
 C414 C -0.11054 0.32125 0.83827
 C415 C -0.12562 0.32929 0.84657
 C416 C -0.14013 0.33585 0.83601
 C417 C -0.13920 0.33433 0.81699
 C418 C -0.12411 0.32630 0.80872
 C419 C -0.09449 0.31104 0.81076
 C420 C -0.08184 0.30366 0.80343
 C421 C -0.06694 0.29470 0.79449
 C422 C -0.05982 0.27859 0.80165
 C423 C -0.04574 0.26956 0.79266
 C424 C -0.03861 0.27652 0.77634
 C425 C -0.04575 0.29282 0.76935
 C426 C -0.05983 0.30183 0.77838
 H427 H -0.09953 0.31618 0.84661
 H428 H -0.12601 0.33040 0.86123
 H429 H -0.15028 0.33912 0.80859
 H430 H -0.12369 0.32511 0.79405
 H431 H -0.06525 0.27294 0.81411
 H432 H -0.04055 0.25704 0.79840
 H433 H -0.04058 0.29855 0.75682
 H434 H -0.06527 0.31427 0.77270
 C435 C -0.10940 0.81990 0.31957
 C436 C -0.11021 0.82143 0.33851
 C437 C -0.12533 0.82943 0.34677
 C438 C -0.13982 0.83598 0.33618
 C439 C -0.13883 0.83448 0.31716
 C440 C -0.12371 0.82649 0.30892
 C441 C -0.09407 0.81127 0.31104
 C442 C -0.08140 0.80390 0.30374
 C443 C -0.06646 0.79495 0.29484
 C444 C -0.05934 0.77885 0.30202
 C445 C -0.04524 0.76982 0.29305
 C446 C -0.03809 0.77678 0.27674
 C447 C -0.04522 0.79308 0.26973
 C448 C -0.05932 0.80208 0.27873
 H449 H -0.09921 0.81637 0.34688
 H450 H -0.12577 0.83053 0.36144
 H451 H -0.14990 0.83925 0.30874
 H452 H -0.12325 0.82531 0.29425
 H453 H -0.06479 0.77320 0.31447
 H454 H -0.04006 0.75731 0.29880
 H455 H -0.04003 0.79880 0.25722
 H456 H -0.06476 0.81452 0.27304
 C457 C 0.60940 0.68065 0.32008
 C458 C 0.62370 0.69131 0.32666
 C459 C 0.63883 0.68308 0.33464
 C460 C 0.63984 0.66406 0.33614
 C461 C 0.62535 0.65346 0.32960
 C462 C 0.61022 0.66171 0.32161
 C463 C 0.59406 0.68917 0.31144
 C464 C 0.58138 0.69645 0.30407
 C465 C 0.56644 0.70533 0.29511
 C466 C 0.55929 0.72144 0.30222
 C467 C 0.54518 0.73041 0.29321
 C468 C 0.53806 0.72339 0.27691
 C469 C 0.54523 0.70708 0.26997
 C470 C 0.55934 0.69813 0.27901
 H471 H 0.62323 0.70598 0.32548
 H472 H 0.64990 0.69152 0.33941
 H473 H 0.62580 0.63880 0.33070
 H474 H 0.59923 0.65333 0.31655
 H475 H 0.56471 0.72715 0.31466
 H476 H 0.53997 0.74293 0.29892
 H477 H 0.54006 0.70131 0.25746
 H478 H 0.56480 0.68568 0.27337
 C479 C 0.60980 0.18079 0.82012
 C480 C 0.61057 0.16185 0.82165
 C481 C 0.62566 0.15355 0.82966
 C482 C 0.64017 0.16411 0.83622
 C483 C 0.63922 0.18313 0.83473
 C484 C 0.62412 0.19141 0.82673
 C485 C 0.59450 0.18935 0.81146
 C486 C 0.58185 0.19667 0.80407
 C487 C 0.56694 0.20557 0.79509
 C488 C 0.55990 0.19843 0.77894
 C489 C 0.54581 0.20739 0.76988
 C490 C 0.53860 0.22366 0.77686
 C491 C 0.54566 0.23064 0.79321
 C492 C 0.55974 0.22165 0.80224
 H493 H 0.59956 0.15351 0.81657
 H494 H 0.62607 0.13889 0.83076
 H495 H 0.65030 0.19154 0.83952
 H496 H 0.62369 0.20608 0.82555
 H497 H 0.56540 0.18601 0.77327
 H498 H 0.54070 0.20166 0.75733
 H499 H 0.54041 0.24313 0.79895
 H500 H 0.56512 0.22731 0.81472
 C501 C 1.10950 0.67919 0.81870
 C502 C 1.12383 0.67274 0.80800
 C503 C 1.13897 0.66471 0.81618
 C504 C 1.13994 0.66302 0.83518
 C505 C 1.12542 0.66941 0.84583
 C506 C 1.11029 0.67746 0.83762
 C507 C 1.09416 0.68787 0.81024
 C508 C 1.08147 0.69528 0.80301
 C509 C 1.06653 0.70430 0.79420
 C510 C 1.05933 0.69728 0.77807
 C511 C 1.04521 0.70635 0.76917
 C512 C 1.03813 0.72262 0.77630
 C513 C 1.04534 0.72948 0.79262
 C514 C 1.05945 0.72037 0.80150
 H515 H 1.12339 0.67407 0.79335
 H516 H 1.15006 0.66005 0.80771
 H517 H 1.12584 0.66816 0.86047
 H518 H 1.09927 0.68241 0.84603
 H519 H 1.06473 0.68486 0.77229
 H520 H 1.03998 0.70071 0.75663
 H521 H 1.04020 0.74196 0.79847
 H522 H 1.06495 0.72594 0.81396
 C523 C 1.10985 0.17965 0.31861
 C524 C 1.11062 0.17789 0.33753
 C525 C 1.12573 0.16980 0.34573
 C526 C 1.14025 0.16339 0.33510
 C527 C 1.13930 0.16512 0.31610
 C528 C 1.12420 0.17320 0.30791
 C529 C 1.09454 0.18837 0.31015
 C530 C 1.08187 0.19580 0.30291
 C531 C 1.06694 0.20484 0.29409
 C532 C 1.05980 0.19786 0.27791
 C533 C 1.04570 0.20694 0.26900
 C534 C 1.03857 0.22318 0.27616
 C535 C 1.04573 0.22999 0.29254
 C536 C 1.05983 0.22087 0.30142
 H537 H 1.09960 0.18284 0.34593
 H538 H 1.12613 0.16852 0.36038
 H539 H 1.15039 0.16045 0.30764
 H540 H 1.12377 0.17455 0.29326
 H541 H 1.06523 0.18547 0.27210
 H542 H 1.04050 0.20134 0.25643
 H543 H 1.04055 0.24245 0.29841
 H544 H 1.06528 0.22641 0.31392
 C545 C 0.60984 0.32038 0.68117
 C546 C 0.62421 0.32684 0.69182
 C547 C 0.63930 0.33491 0.68359
 C548 C 0.64019 0.33662 0.66459
 C549 C 0.62565 0.33019 0.65399
 C550 C 0.61057 0.32211 0.66225
 C551 C 0.59454 0.31169 0.68969
 C552 C 0.58188 0.30427 0.69697
 C553 C 0.56697 0.29526 0.70583
 C554 C 0.55980 0.30232 0.72197
 C555 C 0.54571 0.29325 0.73091
 C556 C 0.53862 0.27697 0.72383
 C557 C 0.54580 0.27008 0.70751
 C558 C 0.55989 0.27917 0.69859
 H559 H 0.62382 0.32551 0.70648
 H560 H 0.65040 0.33959 0.69202
 H561 H 0.62602 0.33145 0.63934
 H562 H 0.59953 0.31714 0.65388
 H563 H 0.56521 0.31475 0.72771
 H564 H 0.54049 0.29891 0.74345
 H565 H 0.54065 0.25758 0.70170
 H566 H 0.56537 0.27358 0.68612
 C567 C 0.60938 0.81931 0.18056
 C568 C 0.61018 0.83825 0.17904
 C569 C 0.62528 0.84653 0.17103
 C570 C 0.63978 0.83595 0.16447
 C571 C 0.63880 0.81693 0.16595
 C572 C 0.62369 0.80867 0.17395
 C573 C 0.59406 0.81076 0.18919
 C574 C 0.58139 0.80345 0.19656
 C575 C 0.56647 0.79454 0.20551
 C576 C 0.55933 0.80173 0.22160
 C577 C 0.54523 0.79276 0.23062
 C578 C 0.53809 0.77644 0.22367
 C579 C 0.54525 0.76942 0.20738
 C580 C 0.55935 0.77842 0.19838
 H581 H 0.59918 0.84661 0.18411
 H582 H 0.62571 0.86119 0.16994
 H583 H 0.64987 0.80851 0.16116
 H584 H 0.62324 0.79401 0.17511
 H585 H 0.56477 0.81419 0.22725
 H586 H 0.54003 0.79852 0.24312
 H587 H 0.54007 0.75689 0.20166
 H588 H 0.56480 0.77272 0.18595
 C589 C 1.10977 0.32028 0.18090
 C590 C 1.11052 0.32202 0.16197
 C591 C 1.12561 0.33011 0.15375
 C592 C 1.14013 0.33655 0.16436
 C593 C 1.13921 0.33484 0.18337
 C594 C 1.12412 0.32676 0.19157
 C595 C 1.09446 0.31158 0.18939
 C596 C 1.08180 0.30415 0.19666
 C597 C 1.06689 0.29513 0.20551
 C598 C 1.05980 0.30213 0.22170
 C599 C 1.04571 0.29306 0.23065
 C600 C 1.03854 0.27683 0.22351
 C601 C 1.04565 0.27001 0.20712
 C602 C 1.05974 0.27911 0.19820
 H603 H 1.09950 0.31704 0.15359
 H604 H 1.12600 0.33137 0.13910
 H605 H 1.15030 0.33953 0.19181
 H606 H 1.12370 0.32543 0.20622
 H607 H 1.06526 0.31451 0.22750
 H608 H 1.04055 0.29867 0.24323
 H609 H 1.04044 0.25756 0.20126
 H610 H 1.06515 0.27356 0.18569
 C611 C 1.10933 0.81908 0.68038
 C612 C 1.11008 0.83803 0.67885
 C613 C 1.12517 0.84635 0.67084
 C614 C 1.13969 0.83580 0.66429
 C615 C 1.13876 0.81678 0.66580
 C616 C 1.12367 0.80848 0.67379
 C617 C 1.09403 0.81050 0.68900
 C618 C 1.08137 0.80316 0.69636
 C619 C 1.06646 0.79422 0.70530
 C620 C 1.05939 0.80133 0.72145
 C621 C 1.04530 0.79233 0.73048
 C622 C 1.03810 0.77607 0.72345
 C623 C 1.04519 0.76914 0.70710
 C624 C 1.05928 0.77816 0.69810
 H625 H 1.09905 0.84636 0.68391
 H626 H 1.12555 0.86101 0.66974
 H627 H 1.14986 0.80839 0.66101
 H628 H 1.12326 0.79382 0.67496
 H629 H 1.06487 0.81374 0.72716
 H630 H 1.04016 0.79803 0.74303
 H631 H 1.03996 0.75665 0.70132
 H632 H 1.06467 0.77252 0.68562
 C633 C 0.39045 0.68127 0.67965
 C634 C 0.37607 0.69192 0.67322
 C635 C 0.36097 0.68369 0.66518
 C636 C 0.36007 0.66469 0.66347
 C637 C 0.37463 0.65409 0.66986
 C638 C 0.38973 0.66235 0.67791
 C639 C 0.40577 0.68979 0.68832
 C640 C 0.41844 0.69706 0.69572
 C641 C 0.43336 0.70592 0.70473
 C642 C 0.44044 0.69867 0.72081
 C643 C 0.45454 0.70759 0.72990
 C644 C 0.46171 0.72393 0.72302
 C645 C 0.45461 0.73101 0.70674
 C646 C 0.44052 0.72206 0.69768
 H647 H 0.37647 0.70658 0.67456
 H648 H 0.34985 0.69212 0.66053
 H649 H 0.37426 0.63944 0.66860
 H650 H 0.40078 0.65398 0.68285
 H651 H 0.43497 0.68620 0.72640
 H652 H 0.45969 0.70178 0.74240
 H653 H 0.45983 0.74354 0.70108
 H654 H 0.43511 0.72780 0.68525
 C655 C 0.39035 0.18028 0.18028
 C656 C 0.37605 0.17366 0.19092
 C657 C 0.36096 0.16563 0.18267
 C658 C 0.35998 0.16412 0.16365
 C659 C 0.37446 0.17071 0.15306
 C660 C 0.38955 0.17875 0.16134
 C661 C 0.40566 0.18893 0.18882
 C662 C 0.41833 0.19631 0.19614
 C663 C 0.43324 0.20526 0.20506
 C664 C 0.44037 0.22136 0.19789
 C665 C 0.45446 0.23039 0.20687
 C666 C 0.46160 0.22343 0.22319
 C667 C 0.45445 0.20714 0.23019
 C668 C 0.44036 0.19813 0.22118
 H669 H 0.37650 0.17484 0.20559
 H670 H 0.34990 0.16083 0.19109
 H671 H 0.37404 0.16960 0.13840
 H672 H 0.40055 0.18383 0.15298
 H673 H 0.43493 0.22702 0.18543
 H674 H 0.45965 0.24290 0.20112
 H675 H 0.45963 0.20141 0.24271
 H676 H 0.43492 0.18570 0.22686
 C677 C -0.10947 0.68043 0.18089
 C678 C -0.11029 0.67890 0.16195
 C679 C -0.12541 0.67089 0.15369
 C680 C -0.13989 0.66433 0.16429
 C681 C -0.13889 0.66583 0.18331
 C682 C -0.12377 0.67383 0.19154
 C683 C -0.09414 0.68907 0.18941
 C684 C -0.08146 0.69645 0.19670
 C685 C -0.06653 0.70540 0.20559
 C686 C -0.05941 0.72150 0.19840
 C687 C -0.04530 0.73053 0.20736
 C688 C -0.03813 0.72357 0.22366
 C689 C -0.04526 0.70727 0.23067
 C690 C -0.05937 0.69827 0.22169
 H691 H -0.09930 0.68397 0.15357
 H692 H -0.12586 0.66979 0.13903
 H693 H -0.14995 0.66104 0.19174
 H694 H -0.12330 0.67500 0.20621
 H695 H -0.06488 0.72715 0.18596
 H696 H -0.04013 0.74304 0.20160
 H697 H -0.04006 0.70155 0.24319
 H698 H -0.06480 0.68583 0.22739
 C699 C -0.10996 0.18013 0.68041
 C700 C -0.11077 0.17857 0.66148
 C701 C -0.12587 0.17055 0.65321
 C702 C -0.14036 0.16400 0.66381
 C703 C -0.13938 0.16552 0.68283
 C704 C -0.12427 0.17354 0.69107
 C705 C -0.09465 0.18879 0.68894
 C706 C -0.08198 0.19617 0.69624
 C707 C -0.06705 0.20513 0.70513
 C708 C -0.05995 0.22124 0.69795
 C709 C -0.04584 0.23028 0.70691
 C710 C -0.03867 0.22332 0.72321
 C711 C -0.04579 0.20701 0.73022
 C712 C -0.05989 0.19800 0.72123
 H713 H -0.09977 0.18364 0.65310
 H714 H -0.12630 0.16943 0.63856
 H715 H -0.15044 0.16074 0.69126
 H716 H -0.12381 0.17473 0.70573
 H717 H -0.06541 0.22689 0.68551
 H718 H -0.04068 0.24279 0.70116
 H719 H -0.04058 0.20129 0.74273
 H720 H -0.06531 0.18556 0.72692
 C721 C 0.31905 0.39012 0.32046
 C722 C 0.30837 0.37578 0.32692
 C723 C 0.31656 0.36063 0.33489
 C724 C 0.33558 0.35964 0.33651
 C725 C 0.34621 0.37416 0.33009
 C726 C 0.33799 0.38931 0.32211
 C727 C 0.31057 0.40549 0.31185
 C728 C 0.30330 0.41819 0.30450
 C729 C 0.29444 0.43316 0.29558
 C730 C 0.27828 0.44024 0.30265
 C731 C 0.26931 0.45437 0.29366
 C732 C 0.27640 0.46159 0.27744
 C733 C 0.29277 0.45450 0.27054
 C734 C 0.30171 0.44037 0.27956
 H735 H 0.29371 0.37625 0.32566
 H736 H 0.30811 0.34954 0.33957
 H737 H 0.36086 0.37372 0.33128
 H738 H 0.34638 0.40033 0.31714
 H739 H 0.27251 0.43473 0.31503
 H740 H 0.25675 0.45951 0.29933
 H741 H 0.29859 0.45974 0.25809
 H742 H 0.31420 0.43496 0.27395
 C743 C 0.31887 -0.10978 0.82050
 C744 C 0.30822 -0.12416 0.82693
 C745 C 0.31646 -0.13932 0.83486
 C746 C 0.33547 -0.14026 0.83648
 C747 C 0.34607 -0.12571 0.83009
 C748 C 0.33781 -0.11056 0.82214
 C749 C 0.31035 -0.09442 0.81194
 C750 C 0.30305 -0.08171 0.80462
 C751 C 0.29416 -0.06674 0.79573
 C752 C 0.27807 -0.05960 0.80290
 C753 C 0.26907 -0.04547 0.79393
 C754 C 0.27607 -0.03832 0.77764
 C755 C 0.29236 -0.04548 0.77064
 C756 C 0.30133 -0.05960 0.77964
 H757 H 0.29356 -0.12373 0.82567
 H758 H 0.30803 -0.15043 0.83952
 H759 H 0.36072 -0.12611 0.83128
 H760 H 0.34618 -0.09950 0.81721
 H761 H 0.27238 -0.06505 0.81533
 H762 H 0.25657 -0.04028 0.79968
 H763 H 0.29811 -0.04028 0.75813
 H764 H 0.31376 -0.06506 0.77395
 C765 C 0.81903 0.39010 0.82078
 C766 C 0.80835 0.37577 0.82726
 C767 C 0.81655 0.36061 0.83522
 C768 C 0.83557 0.35960 0.83679
 C769 C 0.84620 0.37411 0.83035
 C770 C 0.83797 0.38927 0.82238
 C771 C 0.81054 0.40546 0.81218
 C772 C 0.80327 0.41817 0.80484
 C773 C 0.79440 0.43314 0.79593
 C774 C 0.77823 0.44021 0.80300
 C775 C 0.76927 0.45434 0.79402
 C776 C 0.77637 0.46158 0.77781
 C777 C 0.79274 0.45450 0.77091
 C778 C 0.80168 0.44037 0.77992
 H779 H 0.79369 0.37624 0.82603
 H780 H 0.80810 0.34953 0.83991
 H781 H 0.86085 0.37367 0.83151
 H782 H 0.84636 0.40028 0.81740
 H783 H 0.77247 0.43469 0.81536
 H784 H 0.75670 0.45948 0.79969
 H785 H 0.79856 0.45976 0.75847
 H786 H 0.81417 0.43497 0.77431
 C787 C 0.81917 -0.10988 0.32094
 C788 C 0.80853 -0.12427 0.32737
 C789 C 0.81677 -0.13941 0.33531
 C790 C 0.83579 -0.14035 0.33691
 C791 C 0.84638 -0.12579 0.33052
 C792 C 0.83811 -0.11065 0.32257
 C793 C 0.81063 -0.09452 0.31237
 C794 C 0.80333 -0.08182 0.30506
 C795 C 0.79443 -0.06686 0.29616
 C796 C 0.77833 -0.05972 0.30333
 C797 C 0.76933 -0.04560 0.29437
 C798 C 0.77633 -0.03844 0.27808
 C799 C 0.79263 -0.04558 0.27108
 C800 C 0.80160 -0.05971 0.28008
 H801 H 0.79387 -0.12384 0.32612
 H802 H 0.80835 -0.15053 0.33997
 H803 H 0.86103 -0.12619 0.33170
 H804 H 0.84647 -0.09959 0.31762
 H805 H 0.77265 -0.06518 0.31576
 H806 H 0.75682 -0.04041 0.30012
 H807 H 0.79837 -0.04038 0.25858
 H808 H 0.81404 -0.06516 0.27439
 C809 C 0.32037 0.60973 0.68043
 C810 C 0.32196 0.61064 0.66150
 C811 C 0.32995 0.62581 0.65332
 C812 C 0.33643 0.64026 0.66400
 C813 C 0.33488 0.63918 0.68301
 C814 C 0.32690 0.62400 0.69116
 C815 C 0.31174 0.59435 0.68886
 C816 C 0.30437 0.58163 0.69607
 C817 C 0.29539 0.56665 0.70486
 C818 C 0.27929 0.55960 0.69760
 C819 C 0.27022 0.54546 0.70646
 C820 C 0.27714 0.53819 0.72274
 C821 C 0.29344 0.54525 0.72982
 C822 C 0.30248 0.55939 0.72093
 H823 H 0.31694 0.59967 0.65306
 H824 H 0.33108 0.62632 0.63867
 H825 H 0.33961 0.65022 0.69151
 H826 H 0.32569 0.62347 0.70582
 H827 H 0.27367 0.56514 0.68518
 H828 H 0.25771 0.54034 0.70065
 H829 H 0.29913 0.53997 0.74232
 H830 H 0.31492 0.56478 0.72668
 C831 C 0.31923 1.10984 0.17897
 C832 C 0.30852 1.12416 0.17252
 C833 C 0.31669 1.13933 0.16455
 C834 C 0.33570 1.14035 0.16293
 C835 C 0.34636 1.12584 0.16933
 C836 C 0.33816 1.11068 0.17731
 C837 C 0.31076 1.09446 0.18758
 C838 C 0.30352 1.08175 0.19493
 C839 C 0.29467 1.06678 0.20386
 C840 C 0.27852 1.05967 0.19680
 C841 C 0.26957 1.04554 0.20580
 C842 C 0.27667 1.03835 0.22203
 C843 C 0.29302 1.04546 0.22892
 C844 C 0.30195 1.05959 0.21989
 H845 H 0.29386 1.12368 0.17379
 H846 H 0.30822 1.15041 0.15988
 H847 H 0.36101 1.12630 0.16814
 H848 H 0.34657 1.09967 0.18227
 H849 H 0.27275 1.06516 0.18442
 H850 H 0.25701 1.04038 0.20013
 H851 H 0.29885 1.04023 0.24138
 H852 H 0.31443 1.06502 0.22549
 C853 C 0.81916 0.61015 0.17955
 C854 C 0.80850 0.62452 0.17312
 C855 C 0.81673 0.63968 0.16519
 C856 C 0.83574 0.64064 0.16357
 C857 C 0.84634 0.62609 0.16996
 C858 C 0.83809 0.61093 0.17791
 C859 C 0.81064 0.59477 0.18810
 C860 C 0.80334 0.58206 0.19540
 C861 C 0.79444 0.56708 0.20427
 C862 C 0.77834 0.55996 0.19709
 C863 C 0.76934 0.54582 0.20602
 C864 C 0.77633 0.53863 0.22230
 C865 C 0.79263 0.54576 0.22931
 C866 C 0.80161 0.55990 0.22035
 H867 H 0.79384 0.62408 0.17438
 H868 H 0.80829 0.65079 0.16053
 H869 H 0.86100 0.62650 0.16878
 H870 H 0.84647 0.59989 0.18285
 H871 H 0.77266 0.56544 0.18466
 H872 H 0.75683 0.54064 0.20027
 H873 H 0.79838 0.54054 0.24181
 H874 H 0.81405 0.56534 0.22604
 C875 C 0.81877 1.10979 0.67914
 C876 C 0.83770 1.11060 0.67750
 C877 C 0.84593 1.12575 0.66952
 C878 C 0.83531 1.14027 0.66310
 C879 C 0.81630 1.13928 0.66471
 C880 C 0.80809 1.12414 0.67268
 C881 C 0.81028 1.09443 0.68775
 C882 C 0.80301 1.08173 0.69510
 C883 C 0.79415 1.06677 0.70403
 C884 C 0.80137 1.05963 0.72010
 C885 C 0.79243 1.04551 0.72913
 C886 C 0.77611 1.03835 0.72219
 C887 C 0.76906 1.04550 0.70592
 C888 C 0.77803 1.05962 0.69692
 H889 H 0.84610 1.09957 0.68246
 H890 H 0.86059 1.12618 0.66833
 H891 H 0.80785 1.15038 0.66004
 H892 H 0.79343 1.12368 0.67395
 H893 H 0.81382 1.06508 0.72574
 H894 H 0.79822 1.04032 0.74162
 H895 H 0.75654 1.04030 0.70022
 H896 H 0.77230 1.06507 0.68450
 C897 C 0.67979 0.60951 0.31852
 C898 C 0.67322 0.62390 0.30796
 C899 C 0.66518 0.63894 0.31629
 C900 C 0.66360 0.63978 0.33531
 C901 C 0.67013 0.62522 0.34581
 C902 C 0.67818 0.61018 0.33746
 C903 C 0.68846 0.59426 0.30990
 C904 C 0.69587 0.58165 0.30253
 C905 C 0.70486 0.56678 0.29356
 C906 C 0.69776 0.55971 0.27741
 C907 C 0.70680 0.54566 0.26837
 C908 C 0.72309 0.53850 0.27538
 C909 C 0.73002 0.54560 0.29173
 C910 C 0.72095 0.55965 0.30074
 H911 H 0.67446 0.62355 0.29330
 H912 H 0.66042 0.65007 0.30793
 H913 H 0.66897 0.62553 0.36047
 H914 H 0.68323 0.59912 0.34576
 H915 H 0.68533 0.56515 0.27172
 H916 H 0.70110 0.54051 0.25582
 H917 H 0.74252 0.54041 0.29749
 H918 H 0.72658 0.56505 0.31323
 C919 C 0.67998 1.10947 0.81862
 C920 C 0.67836 1.11012 0.83756
 C921 C 0.67035 1.12518 0.84592
 C922 C 0.66387 1.13977 0.83542
 C923 C 0.66547 1.13894 0.81640
 C924 C 0.67348 1.12388 0.80806
 C925 C 0.68861 1.09419 0.81000
 C926 C 0.69597 1.08156 0.80263
 C927 C 0.70492 1.06666 0.79366
 C928 C 0.72103 1.05953 0.80080
 C929 C 0.73006 1.04546 0.79178
 C930 C 0.72307 1.03834 0.77546
 C931 C 0.70676 1.04549 0.76849
 C932 C 0.69777 1.05957 0.77754
 H933 H 0.68336 1.09905 0.84586
 H934 H 0.66917 1.12549 0.86058
 H935 H 0.66075 1.15009 0.80804
 H936 H 0.67472 1.12354 0.79340
 H937 H 0.72670 1.06495 0.81325
 H938 H 0.74257 1.04026 0.79750
 H939 H 0.70102 1.04033 0.75597
 H940 H 0.68532 1.06501 0.77188
 C941 C 0.18104 0.60912 0.81937
 C942 C 0.16210 0.60983 0.82101
 C943 C 0.15381 0.62487 0.82912
 C944 C 0.16436 0.63938 0.83568
 C945 C 0.18338 0.63849 0.83407
 C946 C 0.19166 0.62345 0.82597
 C947 C 0.18960 0.59386 0.81064
 C948 C 0.19692 0.58125 0.80319
 C949 C 0.20583 0.56638 0.79415
 C950 C 0.19866 0.55938 0.77800
 C951 C 0.20761 0.54532 0.76888
 C952 C 0.22390 0.53809 0.77582
 C953 C 0.23091 0.54511 0.79217
 C954 C 0.22192 0.55917 0.80125
 H955 H 0.15376 0.59881 0.81594
 H956 H 0.13915 0.62523 0.83031
 H957 H 0.19178 0.64957 0.83886
 H958 H 0.20632 0.62306 0.82471
 H959 H 0.18622 0.56488 0.77236
 H960 H 0.20186 0.54023 0.75634
 H961 H 0.24341 0.53986 0.79787
 H962 H 0.22761 0.56452 0.81373
 C963 C 0.18120 1.10941 0.31922
 C964 C 0.19185 1.12369 0.32585
 C965 C 0.18361 1.13874 0.33398
 C966 C 0.16460 1.13968 0.33558
 C967 C 0.15400 1.12522 0.32899
 C968 C 0.16226 1.11017 0.32084
 C969 C 0.18972 1.09415 0.31045
 C970 C 0.19700 1.08152 0.30298
 C971 C 0.20587 1.06665 0.29391
 C972 C 0.22203 1.05949 0.30092
 C973 C 0.23097 1.04543 0.29181
 C974 C 0.22386 1.03834 0.27554
 C975 C 0.20751 1.04551 0.26870
 C976 C 0.19859 1.05958 0.27783
 H977 H 0.20651 1.12326 0.32461
 H978 H 0.19205 1.14979 0.33880
 H979 H 0.13934 1.12562 0.33016
 H980 H 0.15389 1.09919 0.31575
 H981 H 0.22779 1.06489 0.31334
 H982 H 0.24353 1.04022 0.29744
 H983 H 0.20168 1.04037 0.25621
 H984 H 0.18610 1.06505 0.27227
 C985 C 0.68106 0.39066 0.68039
 C986 C 0.66213 0.38987 0.67877
 C987 C 0.65389 0.37481 0.67062
 C988 C 0.66450 0.36036 0.66403
 C989 C 0.68352 0.36133 0.66561
 C990 C 0.69173 0.37639 0.67374
 C991 C 0.68956 0.40591 0.68918
 C992 C 0.69682 0.41853 0.69668
 C993 C 0.70566 0.43340 0.70579
 C994 C 0.69836 0.44041 0.72188
 C995 C 0.70726 0.45447 0.73106
 C996 C 0.72360 0.46169 0.72425
 C997 C 0.73073 0.45465 0.70796
 C998 C 0.72181 0.44060 0.69881
 H999 H 0.65374 0.40083 0.68387
 H1000 H 0.63923 0.37439 0.66946
 H1001 H 0.69196 0.35029 0.66079
 H1002 H 0.70640 0.37683 0.67499
 H1003 H 0.68588 0.43492 0.72742
 H1004 H 0.70141 0.45957 0.74356
 H1005 H 0.74328 0.45989 0.70235
 H1006 H 0.72759 0.43524 0.68638
 C1007 C 0.67970 -0.10944 0.18201
 C1008 C 0.67805 -0.11011 0.16307
 C1009 C 0.66999 -0.12515 0.15473
 C1010 C 0.66350 -0.13972 0.16525
 C1011 C 0.66512 -0.13889 0.18427
 C1012 C 0.67317 -0.12383 0.19258
 C1013 C 0.68838 -0.09419 0.19061
 C1014 C 0.69579 -0.08156 0.19795
 C1015 C 0.70480 -0.06669 0.20689
 C1016 C 0.72090 -0.05959 0.19970
 C1017 C 0.72998 -0.04553 0.20868
 C1018 C 0.72306 -0.03839 0.22502
 C1019 C 0.70676 -0.04552 0.23204
 C1020 C 0.69771 -0.05958 0.22303
 H1021 H 0.68306 -0.09904 0.15476
 H1022 H 0.66880 -0.12547 0.14008
 H1023 H 0.66039 -0.15002 0.19263
 H1024 H 0.67443 -0.12349 0.20724
 H1025 H 0.72652 -0.06502 0.18722
 H1026 H 0.74249 -0.04036 0.20291
 H1027 H 0.70107 -0.04034 0.24458
 H1028 H 0.68527 -0.06500 0.22873
 C1029 C 0.18102 0.39059 0.18018
 C1030 C 0.19169 0.37632 0.17355
 C1031 C 0.18347 0.36125 0.16543
 C1032 C 0.16445 0.36029 0.16383
 C1033 C 0.15384 0.37474 0.17042
 C1034 C 0.16208 0.38980 0.17856
 C1035 C 0.18952 0.40586 0.18895
 C1036 C 0.19678 0.41848 0.19643
 C1037 C 0.20563 0.43336 0.20552
 C1038 C 0.22179 0.44054 0.19852
 C1039 C 0.23072 0.45461 0.20764
 C1040 C 0.22360 0.46167 0.22392
 C1041 C 0.20726 0.45447 0.23076
 C1042 C 0.19835 0.44040 0.22160
 H1043 H 0.20635 0.37676 0.17480
 H1044 H 0.19191 0.35021 0.16062
 H1045 H 0.13918 0.37433 0.16925
 H1046 H 0.15369 0.40078 0.18365
 H1047 H 0.22756 0.43517 0.18609
 H1048 H 0.24327 0.45984 0.20202
 H1049 H 0.20142 0.45959 0.24325
 H1050 H 0.18587 0.43492 0.22715
 C1051 C 0.17951 -0.10948 0.68171
 C1052 C 0.17785 -0.11018 0.66278
 C1053 C 0.16982 -0.12525 0.65447
 C1054 C 0.16336 -0.13981 0.66501
 C1055 C 0.16498 -0.13894 0.68403
 C1056 C 0.17300 -0.12386 0.69232
 C1057 C 0.18818 -0.09419 0.69028
 C1058 C 0.19557 -0.08154 0.69760
 C1059 C 0.20457 -0.06665 0.70651
 C1060 C 0.22066 -0.05954 0.69931
 C1061 C 0.22973 -0.04546 0.70827
 C1062 C 0.22281 -0.03831 0.72460
 C1063 C 0.20652 -0.04543 0.73163
 C1064 C 0.19748 -0.05951 0.72264
 H1065 H 0.18285 -0.09912 0.65445
 H1066 H 0.16863 -0.12560 0.63981
 H1067 H 0.16027 -0.15006 0.69242
 H1068 H 0.17427 -0.12348 0.70698
 H1069 H 0.22628 -0.06499 0.68684
 H1070 H 0.24223 -0.04029 0.70249
 H1071 H 0.20083 -0.04024 0.74417
 H1072 H 0.18504 -0.06494 0.72836
 C1073 C 0.31996 0.31848 0.39041
 C1074 C 0.32161 0.33741 0.38972
 C1075 C 0.32966 0.34572 0.37465
 C1076 C 0.33615 0.33518 0.36010
 C1077 C 0.33453 0.31617 0.36097
 C1078 C 0.32648 0.30788 0.37603
 C1079 C 0.31129 0.30990 0.40569
 C1080 C 0.30390 0.30256 0.41833
 C1081 C 0.29493 0.29362 0.43322
 C1082 C 0.27887 0.30084 0.44040
 C1083 C 0.26983 0.29185 0.45448
 C1084 C 0.27673 0.27548 0.46154
 C1085 C 0.29298 0.26843 0.45434
 C1086 C 0.30200 0.27745 0.44027
 H1087 H 0.31659 0.34574 0.40077
 H1088 H 0.33086 0.36038 0.37431
 H1089 H 0.33926 0.30778 0.34985
 H1090 H 0.32522 0.29322 0.37640
 H1091 H 0.27327 0.31334 0.43502
 H1092 H 0.25735 0.29764 0.45971
 H1093 H 0.29866 0.25587 0.45947
 H1094 H 0.31441 0.27173 0.43478
 C1095 C 0.31989 0.81850 -0.10968
 C1096 C 0.32152 0.83744 -0.11035
 C1097 C 0.32959 0.84578 -0.12539
 C1098 C 0.33610 0.83526 -0.13995
 C1099 C 0.33450 0.81624 -0.13911
 C1100 C 0.32645 0.80793 -0.12407
 C1101 C 0.31121 0.80990 -0.09443
 C1102 C 0.30380 0.80254 -0.08181
 C1103 C 0.29481 0.79359 -0.06694
 C1104 C 0.27875 0.80081 -0.05977
 C1105 C 0.26969 0.79181 -0.04571
 C1106 C 0.27659 0.77544 -0.03864
 C1107 C 0.29285 0.76839 -0.04582
 C1108 C 0.30188 0.77742 -0.05989
 H1109 H 0.31649 0.84575 -0.09930
 H1110 H 0.33076 0.86044 -0.12571
 H1111 H 0.33925 0.80787 -0.15024
 H1112 H 0.32520 0.79326 -0.12372
 H1113 H 0.27314 0.81331 -0.06515
 H1114 H 0.25721 0.79760 -0.04049
 H1115 H 0.29852 0.75583 -0.04070
 H1116 H 0.31429 0.77170 -0.06536
 C1117 C 0.82006 0.31841 -0.10929
 C1118 C 0.82171 0.33734 -0.10998
 C1119 C 0.82973 0.34566 -0.12505
 C1120 C 0.83618 0.33513 -0.13963
 C1121 C 0.83455 0.31611 -0.13877
 C1122 C 0.82655 0.30782 -0.12369
 C1123 C 0.81143 0.30982 -0.09400
 C1124 C 0.80407 0.30248 -0.08134
 C1125 C 0.79514 0.29353 -0.06643
 C1126 C 0.77904 0.30068 -0.05929
 C1127 C 0.77003 0.29167 -0.04520
 C1128 C 0.77701 0.27536 -0.03809
 C1129 C 0.79330 0.26837 -0.04525
 C1130 C 0.80229 0.27740 -0.05934
 H1131 H 0.81673 0.34567 -0.09891
 H1132 H 0.83093 0.36032 -0.12539
 H1133 H 0.83926 0.30773 -0.14990
 H1134 H 0.82528 0.29316 -0.12333
 H1135 H 0.77337 0.31314 -0.06470
 H1136 H 0.75752 0.29741 -0.04000
 H1137 H 0.79904 0.25585 -0.04009
 H1138 H 0.81473 0.27173 -0.06480
 C1139 C 0.82025 0.81840 0.39076
 C1140 C 0.82187 0.83734 0.39009
 C1141 C 0.82992 0.84568 0.37505
 C1142 C 0.83643 0.83517 0.36048
 C1143 C 0.83484 0.81615 0.36132
 C1144 C 0.82680 0.80783 0.37637
 C1145 C 0.81157 0.80979 0.40601
 C1146 C 0.80417 0.80243 0.41863
 C1147 C 0.79519 0.79347 0.43350
 C1148 C 0.77908 0.80064 0.44062
 C1149 C 0.77002 0.79164 0.45468
 C1150 C 0.77696 0.77530 0.46179
 C1151 C 0.79326 0.76829 0.45464
 C1152 C 0.80229 0.77733 0.44059
 H1153 H 0.81684 0.84564 0.40115
 H1154 H 0.83109 0.86034 0.37473
 H1155 H 0.83959 0.80779 0.35019
 H1156 H 0.82556 0.79317 0.37672
 H1157 H 0.77345 0.81312 0.43521
 H1158 H 0.75752 0.79739 0.45987
 H1159 H 0.79896 0.75575 0.45980
 H1160 H 0.81473 0.77164 0.43515
 C1161 C 0.67995 0.31976 0.60965
 C1162 C 0.67345 0.30901 0.62392
 C1163 C 0.66544 0.31714 0.63909
 C1164 C 0.66384 0.33615 0.64017
 C1165 C 0.67031 0.34685 0.62572
 C1166 C 0.67832 0.33869 0.61055
 C1167 C 0.68860 0.31135 0.59426
 C1168 C 0.69598 0.30414 0.58154
 C1169 C 0.70496 0.29535 0.56656
 C1170 C 0.69788 0.27925 0.55934
 C1171 C 0.70693 0.27036 0.54520
 C1172 C 0.72320 0.27745 0.53811
 C1173 C 0.73010 0.29376 0.54534
 C1174 C 0.72103 0.30263 0.55948
 H1175 H 0.67470 0.29436 0.62338
 H1176 H 0.66073 0.30864 0.65012
 H1177 H 0.66913 0.36150 0.62623
 H1178 H 0.68332 0.34714 0.59959
 H1179 H 0.68547 0.27349 0.56475
 H1180 H 0.70125 0.25784 0.53995
 H1181 H 0.74260 0.29958 0.54020
 H1182 H 0.72664 0.31507 0.56500
 C1183 C 0.68074 0.82077 1.11027
 C1184 C 0.69139 0.82720 1.12465
 C1185 C 0.68315 0.83512 1.13981
 C1186 C 0.66414 0.83671 1.14077
 C1187 C 0.65354 0.83031 1.12622
 C1188 C 0.66180 0.82238 1.11106
 C1189 C 0.68927 0.81222 1.09489
 C1190 C 0.69657 0.80492 1.08218
 C1191 C 0.70546 0.79604 1.06720
 C1192 C 0.69828 0.77997 1.06003
 C1193 C 0.70725 0.77099 1.04589
 C1194 C 0.72356 0.77798 1.03876
 C1195 C 0.73056 0.79426 1.04594
 C1196 C 0.72157 0.80321 1.06008
 H1197 H 0.70605 0.82596 1.12421
 H1198 H 0.69159 0.83979 1.15092
 H1199 H 0.63888 0.83148 1.12663
 H1200 H 0.65343 0.81743 1.10001
 H1201 H 0.68584 0.77429 1.06546
 H1202 H 0.70150 0.75849 1.04067
 H1203 H 0.74308 0.80000 1.04077
 H1204 H 0.72726 0.81563 1.06556
 C1205 C 0.17996 0.31968 1.10948
 C1206 C 0.17832 0.33861 1.11037
 C1207 C 0.17029 0.34677 1.12554
 C1208 C 0.16382 0.33608 1.13998
 C1209 C 0.16543 0.31707 1.13891
 C1210 C 0.17345 0.30894 1.12375
 C1211 C 0.18862 0.31126 1.09411
 C1212 C 0.19601 0.30405 1.08139
 C1213 C 0.20498 0.29525 1.06642
 C1214 C 0.22105 0.30252 1.05932
 C1215 C 0.23012 0.29364 1.04519
 C1216 C 0.22323 0.27732 1.03798
 C1217 C 0.20696 0.27022 1.04510
 C1218 C 0.19792 0.27913 1.05923
 H1219 H 0.18332 0.34705 1.09941
 H1220 H 0.16910 0.36142 1.12603
 H1221 H 0.16071 0.30857 1.14994
 H1222 H 0.17470 0.29428 1.12322
 H1223 H 0.22665 0.31498 1.06481
 H1224 H 0.24260 0.29947 1.04003
 H1225 H 0.20129 0.25769 1.03987
 H1226 H 0.18551 0.27336 1.06465
 C1227 C 0.18059 0.82059 0.61008
 C1228 C 0.19125 0.82707 0.62443
 C1229 C 0.18302 0.83502 0.63958
 C1230 C 0.16401 0.83659 0.64056
 C1231 C 0.15340 0.83015 0.62603
 C1232 C 0.16165 0.82219 0.61089
 C1233 C 0.18910 0.81199 0.59472
 C1234 C 0.19639 0.80466 0.58202
 C1235 C 0.20527 0.79574 0.56706
 C1236 C 0.22143 0.80283 0.55999
 C1237 C 0.23041 0.79384 0.54587
 C1238 C 0.22334 0.77762 0.53864
 C1239 C 0.20698 0.77070 0.54573
 C1240 C 0.19802 0.77972 0.55985
 H1241 H 0.20591 0.82583 0.62398
 H1242 H 0.19146 0.83971 0.65068
 H1243 H 0.13874 0.83131 0.62646
 H1244 H 0.15327 0.81721 0.59986
 H1245 H 0.22718 0.81521 0.56550
 H1246 H 0.24298 0.79952 0.54074
 H1247 H 0.20117 0.75825 0.54048
 H1248 H 0.18553 0.77410 0.56525
 C1249 C 0.31900 0.68045 0.60956
 C1250 C 0.30838 0.67380 0.62387
 C1251 C 0.31666 0.66569 0.63890
 C1252 C 0.33568 0.66412 0.63981
 C1253 C 0.34624 0.67072 0.62532
 C1254 C 0.33794 0.67885 0.61029
 C1255 C 0.31044 0.68921 0.59432
 C1256 C 0.30313 0.69668 0.58172
 C1257 C 0.29424 0.70576 0.56686
 C1258 C 0.27808 0.69875 0.55971
 C1259 C 0.26912 0.70787 0.54566
 C1260 C 0.27622 0.72416 0.53859
 C1261 C 0.29257 0.73100 0.54577
 C1262 C 0.30150 0.72186 0.55982
 H1263 H 0.29372 0.67503 0.62347
 H1264 H 0.30826 0.66086 0.64997
 H1265 H 0.36090 0.66957 0.62569
 H1266 H 0.34628 0.68395 0.59929
 H1267 H 0.27233 0.68632 0.56509
 H1268 H 0.25657 0.70223 0.54044
 H1269 H 0.29839 0.74350 0.54064
 H1270 H 0.31399 0.72742 0.56528
 C1271 C 0.32000 0.18150 1.10905
 C1272 C 0.32168 0.16256 1.10973
 C1273 C 0.32976 0.15426 1.12479
 C1274 C 0.33624 0.16481 1.13934
 C1275 C 0.33458 0.18382 1.13848
 C1276 C 0.32651 0.19210 1.12342
 C1277 C 0.31130 0.19006 1.09378
 C1278 C 0.30389 0.19739 1.08114
 C1279 C 0.29489 0.20632 1.06626
 C1280 C 0.27883 0.19909 1.05910
 C1281 C 0.26977 0.20808 1.04503
 C1282 C 0.27666 0.22444 1.03795
 C1283 C 0.29292 0.23150 1.04512
 C1284 C 0.30196 0.22249 1.05919
 H1285 H 0.31667 0.15423 1.09868
 H1286 H 0.33098 0.13961 1.12512
 H1287 H 0.33931 0.19222 1.14959
 H1288 H 0.32523 0.20676 1.12306
 H1289 H 0.27323 0.18660 1.06450
 H1290 H 0.25729 0.20228 1.03982
 H1291 H 0.29859 0.24407 1.03998
 H1292 H 0.31437 0.22822 1.06466
 C1293 C 0.82013 0.68186 1.10973
 C1294 C 0.82177 0.66292 1.11040
 C1295 C 0.82984 0.65459 1.12544
 C1296 C 0.83635 0.66511 1.14000
 C1297 C 0.83473 0.68413 1.13916
 C1298 C 0.82668 0.69244 1.12411
 C1299 C 0.81144 0.69046 1.09447
 C1300 C 0.80403 0.69780 1.08185
 C1301 C 0.79503 0.70675 1.06698
 C1302 C 0.77893 0.69957 1.05987
 C1303 C 0.76986 0.70857 1.04581
 C1304 C 0.77680 0.72490 1.03869
 C1305 C 0.79310 0.73191 1.04582
 C1306 C 0.80213 0.72289 1.05988
 H1307 H 0.81674 0.65461 1.09934
 H1308 H 0.83103 0.63993 1.12576
 H1309 H 0.83948 0.69250 1.15028
 H1310 H 0.82542 0.70710 1.12376
 H1311 H 0.77330 0.68710 1.06530
 H1312 H 0.75735 0.70281 1.04064
 H1313 H 0.79880 0.74445 1.04065
 H1314 H 0.81458 0.72858 1.06531
 C1315 C 0.81971 0.18145 0.60921
 C1316 C 0.82135 0.16251 0.60989
 C1317 C 0.82940 0.15419 0.62495
 C1318 C 0.83589 0.16473 0.63951
 C1319 C 0.83428 0.18374 0.63865
 C1320 C 0.82624 0.19204 0.62359
 C1321 C 0.81105 0.19004 0.59393
 C1322 C 0.80368 0.19738 0.58129
 C1323 C 0.79472 0.20634 0.56639
 C1324 C 0.77867 0.19914 0.55920
 C1325 C 0.76964 0.20815 0.54512
 C1326 C 0.77656 0.22452 0.53807
 C1327 C 0.79282 0.23155 0.54528
 C1328 C 0.80182 0.22251 0.55936
 H1329 H 0.81633 0.15419 0.59884
 H1330 H 0.83059 0.13954 0.62529
 H1331 H 0.83901 0.19213 0.64977
 H1332 H 0.82498 0.20670 0.62322
 H1333 H 0.77304 0.18664 0.56456
 H1334 H 0.75716 0.20237 0.53987
 H1335 H 0.79851 0.24411 0.54017
 H1336 H 0.81422 0.22822 0.56486
 C1337 C 0.68087 0.67933 0.39025
 C1338 C 0.69151 0.67291 0.37586
 C1339 C 0.68326 0.66496 0.36072
 C1340 C 0.66424 0.66335 0.35979
 C1341 C 0.65366 0.66974 0.37436
 C1342 C 0.66194 0.67769 0.38950
 C1343 C 0.68941 0.68790 0.40561
 C1344 C 0.69672 0.69522 0.41831
 C1345 C 0.70563 0.70411 0.43327
 C1346 C 0.69846 0.72019 0.44044
 C1347 C 0.70743 0.72918 0.45457
 C1348 C 0.72374 0.72219 0.46170
 C1349 C 0.73074 0.70591 0.45452
 C1350 C 0.72174 0.69695 0.44039
 H1351 H 0.70617 0.67417 0.37628
 H1352 H 0.69168 0.66031 0.34960
 H1353 H 0.63901 0.66855 0.37397
 H1354 H 0.65358 0.68263 0.40056
 H1355 H 0.68601 0.72587 0.43501
 H1356 H 0.70168 0.74167 0.45978
 H1357 H 0.74326 0.70017 0.45969
 H1358 H 0.72743 0.68452 0.43492
 C1359 C 0.68113 0.17927 -0.10958
 C1360 C 0.69178 0.17282 -0.12395
 C1361 C 0.68354 0.16489 -0.13911
 C1362 C 0.66452 0.16332 -0.14008
 C1363 C 0.65393 0.16974 -0.12553
 C1364 C 0.66219 0.17767 -0.11038
 C1365 C 0.68965 0.18784 -0.09422
 C1366 C 0.69694 0.19516 -0.08151
 C1367 C 0.70583 0.20406 -0.06654
 C1368 C 0.69863 0.22012 -0.05937
 C1369 C 0.70758 0.22912 -0.04524
 C1370 C 0.72391 0.22216 -0.03811
 C1371 C 0.73093 0.20589 -0.04529
 C1372 C 0.72195 0.19692 -0.05942
 H1373 H 0.70644 0.17405 -0.12350
 H1374 H 0.69197 0.16021 -0.15022
 H1375 H 0.63927 0.16858 -0.12595
 H1376 H 0.65382 0.18263 -0.09934
 H1377 H 0.68617 0.22578 -0.06480
 H1378 H 0.70181 0.24161 -0.04002
 H1379 H 0.74346 0.20017 -0.04012
 H1380 H 0.72766 0.18451 -0.06490
 C1381 C 0.17981 0.68006 -0.11002
 C1382 C 0.17822 0.66113 -0.11089
 C1383 C 0.17019 0.65293 -0.12603
 C1384 C 0.16366 0.66359 -0.14048
 C1385 C 0.16521 0.68260 -0.13942
 C1386 C 0.17324 0.69078 -0.12428
 C1387 C 0.18848 0.68852 -0.09467
 C1388 C 0.19588 0.69575 -0.08198
 C1389 C 0.20488 0.70458 -0.06703
 C1390 C 0.22096 0.69731 -0.05995
 C1391 C 0.23004 0.70620 -0.04584
 C1392 C 0.22316 0.72253 -0.03864
 C1393 C 0.20688 0.72962 -0.04573
 C1394 C 0.19782 0.72070 -0.05984
 H1395 H 0.18327 0.65271 -0.09993
 H1396 H 0.16905 0.63828 -0.12652
 H1397 H 0.16045 0.69108 -0.15046
 H1398 H 0.17445 0.70544 -0.12377
 H1399 H 0.22655 0.68485 -0.06544
 H1400 H 0.24254 0.70038 -0.04069
 H1401 H 0.20122 0.74215 -0.04050
 H1402 H 0.18540 0.72646 -0.06525
 C1403 C 0.18008 0.18026 0.38997
 C1404 C 0.17846 0.16133 0.38906
 C1405 C 0.17044 0.15317 0.37389
 C1406 C 0.16395 0.16387 0.35946
 C1407 C 0.16553 0.18288 0.36055
 C1408 C 0.17355 0.19101 0.37572
 C1409 C 0.18873 0.18867 0.40535
 C1410 C 0.19611 0.19588 0.41807
 C1411 C 0.20509 0.20468 0.43305
 C1412 C 0.22115 0.19740 0.44015
 C1413 C 0.23022 0.20627 0.45428
 C1414 C 0.22333 0.22259 0.46150
 C1415 C 0.20706 0.22969 0.45439
 C1416 C 0.19802 0.22079 0.44025
 H1417 H 0.18348 0.15288 0.40002
 H1418 H 0.16927 0.13852 0.37338
 H1419 H 0.16080 0.19138 0.34952
 H1420 H 0.17479 0.20566 0.37626
 H1421 H 0.22675 0.18495 0.43465
 H1422 H 0.24270 0.20044 0.45944
 H1423 H 0.20140 0.24222 0.45962
 H1424 H 0.18561 0.22656 0.43483
 C1425 C 0.31934 0.39000 0.67912
 C1426 C 0.30867 0.37564 0.67267
 C1427 C 0.31689 0.36048 0.66472
 C1428 C 0.33590 0.35951 0.66312
 C1429 C 0.34651 0.37404 0.66952
 C1430 C 0.33827 0.38920 0.67748
 C1431 C 0.31084 0.40535 0.68773
 C1432 C 0.30358 0.41805 0.69509
 C1433 C 0.29474 0.43301 0.70406
 C1434 C 0.27867 0.44025 0.69693
 C1435 C 0.26973 0.45437 0.70596
 C1436 C 0.27676 0.46143 0.72228
 C1437 C 0.29303 0.45418 0.72924
 C1438 C 0.30194 0.44006 0.72018
 H1439 H 0.29401 0.37609 0.67392
 H1440 H 0.30844 0.34938 0.66005
 H1441 H 0.36117 0.37362 0.66834
 H1442 H 0.34666 0.40023 0.68244
 H1443 H 0.27296 0.43487 0.68447
 H1444 H 0.25724 0.45964 0.70024
 H1445 H 0.29880 0.45930 0.74177
 H1446 H 0.31436 0.43453 0.72583
 C1447 C 0.31905 0.89005 0.17889
 C1448 C 0.33799 0.88922 0.17732
 C1449 C 0.34623 0.87405 0.16939
 C1450 C 0.33562 0.85952 0.16297
 C1451 C 0.31660 0.86053 0.16451
 C1452 C 0.30838 0.87570 0.17242
 C1453 C 0.31055 0.90542 0.18747
 C1454 C 0.30329 0.91814 0.19480
 C1455 C 0.29446 0.93312 0.20375
 C1456 C 0.30176 0.94028 0.21977
 C1457 C 0.29287 0.95442 0.22882
 C1458 C 0.27652 0.96157 0.22195
 C1459 C 0.26940 0.95440 0.20572
 C1460 C 0.27831 0.94026 0.19670
 H1461 H 0.34638 0.90025 0.18229
 H1462 H 0.36089 0.87360 0.16826
 H1463 H 0.30816 0.84943 0.15983
 H1464 H 0.29372 0.87617 0.17364
 H1465 H 0.31424 0.93483 0.22536
 H1466 H 0.29872 0.95963 0.24128
 H1467 H 0.25684 0.95959 0.20007
 H1468 H 0.27253 0.93479 0.18432
 C1469 C 0.81916 0.39040 0.17934
 C1470 C 0.83810 0.38963 0.17772
 C1471 C 0.84637 0.37447 0.16979
 C1472 C 0.83578 0.35991 0.16341
 C1473 C 0.81676 0.36086 0.16500
 C1474 C 0.80852 0.37601 0.17292
 C1475 C 0.81063 0.40577 0.18790
 C1476 C 0.80333 0.41848 0.19522
 C1477 C 0.79444 0.43344 0.20411
 C1478 C 0.80161 0.44059 0.22020
 C1479 C 0.79264 0.45471 0.22920
 C1480 C 0.77634 0.46186 0.22221
 C1481 C 0.76934 0.45470 0.20591
 C1482 C 0.77834 0.44058 0.19695
 H1483 H 0.84646 0.40069 0.18265
 H1484 H 0.86102 0.37407 0.16861
 H1485 H 0.80834 0.34973 0.16035
 H1486 H 0.79386 0.37644 0.17417
 H1487 H 0.81405 0.43514 0.22588
 H1488 H 0.79838 0.45991 0.24171
 H1489 H 0.75683 0.45989 0.20017
 H1490 H 0.77266 0.43512 0.18451
 C1491 C 0.81891 0.89010 0.67940
 C1492 C 0.80826 0.87573 0.67294
 C1493 C 0.81651 0.86057 0.66502
 C1494 C 0.83553 0.85960 0.66347
 C1495 C 0.84612 0.87415 0.66989
 C1496 C 0.83785 0.88930 0.67782
 C1497 C 0.81038 0.90546 0.68796
 C1498 C 0.80308 0.91818 0.69527
 C1499 C 0.79420 0.93315 0.70417
 C1500 C 0.77807 0.94025 0.69704
 C1501 C 0.76909 0.95439 0.70601
 C1502 C 0.77614 0.96159 0.72226
 C1503 C 0.79247 0.95447 0.72921
 C1504 C 0.80142 0.94034 0.72022
 H1505 H 0.79360 0.87617 0.67416
 H1506 H 0.80808 0.84946 0.66034
 H1507 H 0.86078 0.87373 0.66874
 H1508 H 0.84622 0.90035 0.68278
 H1509 H 0.77235 0.93476 0.68464
 H1510 H 0.75656 0.95955 0.70030
 H1511 H 0.79825 0.95970 0.74169
 H1512 H 0.81388 0.93491 0.72587
 C1513 C 0.68002 0.60945 0.68164
 C1514 C 0.67350 0.62384 0.69223
 C1515 C 0.66545 0.63890 0.68394
 C1516 C 0.66381 0.63975 0.66493
 C1517 C 0.67029 0.62518 0.65439
 C1518 C 0.67835 0.61013 0.66271
 C1519 C 0.68870 0.59418 0.69022
 C1520 C 0.69611 0.58155 0.69756
 C1521 C 0.70509 0.56667 0.70650
 C1522 C 0.69790 0.55946 0.72254
 C1523 C 0.70691 0.54538 0.73156
 C1524 C 0.72329 0.53835 0.72464
 C1525 C 0.73032 0.54558 0.70840
 C1526 C 0.72127 0.55965 0.69940
 H1527 H 0.67477 0.62348 0.70689
 H1528 H 0.66073 0.65002 0.69232
 H1529 H 0.66908 0.62551 0.63974
 H1530 H 0.68335 0.59907 0.65438
 H1531 H 0.68539 0.56481 0.72817
 H1532 H 0.70114 0.54013 0.74403
 H1533 H 0.74290 0.54047 0.70271
 H1534 H 0.72698 0.56516 0.68700
 C1535 C 0.67996 0.10935 0.18181
 C1536 C 0.67837 0.11001 0.16287
 C1537 C 0.67034 0.12506 0.15450
 C1538 C 0.66383 0.13963 0.16500
 C1539 C 0.66539 0.13880 0.18402
 C1540 C 0.67341 0.12374 0.19236
 C1541 C 0.68860 0.09408 0.19043
 C1542 C 0.69598 0.08145 0.19780
 C1543 C 0.70494 0.06657 0.20677
 C1544 C 0.72103 0.05942 0.19959
 C1545 C 0.73007 0.04535 0.20860
 C1546 C 0.72313 0.03827 0.22495
 C1547 C 0.70685 0.04544 0.23196
 C1548 C 0.69784 0.05951 0.22292
 H1549 H 0.68340 0.09894 0.15457
 H1550 H 0.66919 0.12538 0.13984
 H1551 H 0.66064 0.14993 0.19238
 H1552 H 0.67463 0.12340 0.20703
 H1553 H 0.72666 0.06481 0.18710
 H1554 H 0.74256 0.04014 0.20283
 H1555 H 0.70115 0.04031 0.24451
 H1556 H 0.68541 0.06498 0.22862
 C1557 C 0.18010 0.60950 0.18131
 C1558 C 0.17840 0.61020 0.16238
 C1559 C 0.17032 0.62527 0.15409
 C1560 C 0.16386 0.63981 0.16466
 C1561 C 0.16554 0.63894 0.18367
 C1562 C 0.17361 0.62387 0.19193
 C1563 C 0.18879 0.59422 0.18986
 C1564 C 0.19619 0.58157 0.19718
 C1565 C 0.20516 0.56668 0.20610
 C1566 C 0.22133 0.55964 0.19900
 C1567 C 0.23038 0.54556 0.20799
 C1568 C 0.22334 0.53834 0.22424
 C1569 C 0.20697 0.54539 0.23117
 C1570 C 0.19796 0.55947 0.22215
 H1571 H 0.18338 0.59915 0.15403
 H1572 H 0.16908 0.62561 0.13944
 H1573 H 0.16083 0.65005 0.19208
 H1574 H 0.17491 0.62350 0.20659
 H1575 H 0.22704 0.56515 0.18660
 H1576 H 0.24294 0.54045 0.20230
 H1577 H 0.20120 0.54014 0.24364
 H1578 H 0.18547 0.56484 0.22778
 C1579 C 0.17971 0.10946 0.68136
 C1580 C 0.17811 0.11014 0.66242
 C1581 C 0.17007 0.12519 0.65407
 C1582 C 0.16355 0.13975 0.66459
 C1583 C 0.16513 0.13890 0.68361
 C1584 C 0.17316 0.12385 0.69193
 C1585 C 0.18836 0.09420 0.68997
 C1586 C 0.19574 0.08156 0.69733
 C1587 C 0.20471 0.06668 0.70629
 C1588 C 0.22079 0.05952 0.69911
 C1589 C 0.22983 0.04545 0.70812
 C1590 C 0.22289 0.03837 0.72447
 C1591 C 0.20661 0.04555 0.73149
 C1592 C 0.19760 0.05962 0.72245
 H1593 H 0.18315 0.09908 0.65411
 H1594 H 0.16891 0.12552 0.63941
 H1595 H 0.16037 0.15002 0.69197
 H1596 H 0.17439 0.12349 0.70659
 H1597 H 0.22642 0.06491 0.68663
 H1598 H 0.24232 0.04024 0.70236
 H1599 H 0.20091 0.04042 0.74404
 H1600 H 0.18518 0.06509 0.72814
 C1601 C 0.31876 0.60977 0.32089
 C1602 C 0.33769 0.61058 0.32252
 C1603 C 0.34593 0.62572 0.33049
 C1604 C 0.33531 0.64025 0.33691
 C1605 C 0.31630 0.63927 0.33531
 C1606 C 0.30809 0.62412 0.32735
 C1607 C 0.31026 0.59442 0.31227
 C1608 C 0.30300 0.58172 0.30490
 C1609 C 0.29418 0.56676 0.29592
 C1610 C 0.30148 0.55963 0.27988
 C1611 C 0.29259 0.54551 0.27080
 C1612 C 0.27624 0.53834 0.27766
 C1613 C 0.26911 0.54548 0.29390
 C1614 C 0.27803 0.55960 0.30295
 H1615 H 0.34608 0.59955 0.31755
 H1616 H 0.36059 0.62615 0.33168
 H1617 H 0.30785 0.65037 0.33999
 H1618 H 0.29342 0.62367 0.32609
 H1619 H 0.31396 0.56510 0.27431
 H1620 H 0.29844 0.54034 0.25834
 H1621 H 0.25656 0.54028 0.29954
 H1622 H 0.27225 0.56505 0.31535
 C1623 C 0.31906 0.10986 0.82038
 C1624 C 0.33800 0.11061 0.82201
 C1625 C 0.34628 0.12575 0.82997
 C1626 C 0.33571 0.14031 0.83638
 C1627 C 0.31669 0.13939 0.83477
 C1628 C 0.30843 0.12425 0.82682
 C1629 C 0.31052 0.09451 0.81181
 C1630 C 0.30320 0.08181 0.80449
 C1631 C 0.29428 0.06686 0.79561
 C1632 C 0.30143 0.05968 0.77952
 C1633 C 0.29244 0.04556 0.77055
 C1634 C 0.27613 0.03844 0.77756
 C1635 C 0.26915 0.04563 0.79384
 C1636 C 0.27817 0.05975 0.80279
 H1637 H 0.34636 0.09955 0.81706
 H1638 H 0.36094 0.12613 0.83116
 H1639 H 0.30828 0.15051 0.83944
 H1640 H 0.29377 0.12384 0.82557
 H1641 H 0.31387 0.06511 0.77383
 H1642 H 0.29817 0.04034 0.75805
 H1643 H 0.25664 0.04046 0.79960
 H1644 H 0.27250 0.06523 0.81522
 C1645 C 0.81872 0.60975 0.82131
 C1646 C 0.83765 0.61052 0.82293
 C1647 C 0.84593 0.62567 0.83085
 C1648 C 0.83535 0.64024 0.83723
 C1649 C 0.81633 0.63930 0.83565
 C1650 C 0.80808 0.62414 0.82774
 C1651 C 0.81019 0.59440 0.81272
 C1652 C 0.80292 0.58170 0.80536
 C1653 C 0.79410 0.56675 0.79637
 C1654 C 0.80141 0.55963 0.78034
 C1655 C 0.79253 0.54551 0.77124
 C1656 C 0.77617 0.53834 0.77808
 C1657 C 0.76903 0.54547 0.79432
 C1658 C 0.77794 0.55959 0.80339
 H1659 H 0.84602 0.59946 0.81799
 H1660 H 0.86059 0.62608 0.83201
 H1661 H 0.80791 0.65042 0.84030
 H1662 H 0.79342 0.62371 0.82650
 H1663 H 0.81389 0.56509 0.77477
 H1664 H 0.79839 0.54033 0.75878
 H1665 H 0.75647 0.54027 0.79995
 H1666 H 0.77214 0.56503 0.81578
 C1667 C 0.81921 0.10985 0.32077
 C1668 C 0.83815 0.11063 0.32238
 C1669 C 0.84642 0.12579 0.33030
 C1670 C 0.83583 0.14036 0.33667
 C1671 C 0.81681 0.13941 0.33508
 C1672 C 0.80857 0.12424 0.32718
 C1673 C 0.81068 0.09447 0.31223
 C1674 C 0.80338 0.08175 0.30493
 C1675 C 0.79448 0.06677 0.29606
 C1676 C 0.80164 0.05959 0.27999
 C1677 C 0.79266 0.04546 0.27102
 C1678 C 0.77636 0.03833 0.27803
 C1679 C 0.76938 0.04552 0.29431
 C1680 C 0.77838 0.05966 0.30325
 H1681 H 0.84652 0.09956 0.31745
 H1682 H 0.86108 0.12620 0.33147
 H1683 H 0.80839 0.15053 0.33973
 H1684 H 0.79391 0.12380 0.32594
 H1685 H 0.81408 0.06503 0.27429
 H1686 H 0.79840 0.04023 0.25852
 H1687 H 0.75686 0.04035 0.30006
 H1688 H 0.77270 0.06514 0.31567
 C1689 C 0.67985 0.39070 0.31824
 C1690 C 0.67821 0.39001 0.33717
 C1691 C 0.67016 0.37495 0.34549
 C1692 C 0.66368 0.36039 0.33496
 C1693 C 0.66529 0.36125 0.31594
 C1694 C 0.67333 0.37632 0.30764
 C1695 C 0.68852 0.40598 0.30966
 C1696 C 0.69591 0.41861 0.30232
 C1697 C 0.70489 0.43351 0.29339
 C1698 C 0.72098 0.44063 0.30059
 C1699 C 0.73004 0.45471 0.29161
 C1700 C 0.72311 0.46184 0.27528
 C1701 C 0.70682 0.45470 0.26825
 C1702 C 0.69779 0.44062 0.27726
 H1703 H 0.68323 0.40106 0.34550
 H1704 H 0.66898 0.37461 0.36015
 H1705 H 0.66056 0.35013 0.30756
 H1706 H 0.67459 0.37668 0.29298
 H1707 H 0.72661 0.43521 0.31306
 H1708 H 0.74254 0.45990 0.29739
 H1709 H 0.70112 0.45987 0.25572
 H1710 H 0.68536 0.43518 0.27155
 C1711 C 0.67988 0.89061 0.81867
 C1712 C 0.67824 0.88996 0.83761
 C1713 C 0.67018 0.87492 0.84596
 C1714 C 0.66369 0.86034 0.83545
 C1715 C 0.66531 0.86116 0.81643
 C1716 C 0.67336 0.87621 0.80811
 C1717 C 0.68854 0.90587 0.81006
 C1718 C 0.69593 0.91850 0.80269
 C1719 C 0.70489 0.93337 0.79371
 C1720 C 0.72101 0.94050 0.80084
 C1721 C 0.73004 0.95456 0.79182
 C1722 C 0.72306 0.96167 0.77550
 C1723 C 0.70674 0.95453 0.76854
 C1724 C 0.69774 0.94047 0.77759
 H1725 H 0.68325 0.90103 0.84591
 H1726 H 0.66899 0.87461 0.86061
 H1727 H 0.66058 0.85003 0.80807
 H1728 H 0.67462 0.87655 0.79345
 H1729 H 0.72668 0.93508 0.81330
 H1730 H 0.74257 0.95975 0.79754
 H1731 H 0.70100 0.95969 0.75602
 H1732 H 0.68528 0.93503 0.77194
 C1733 C 0.17993 0.39038 0.81813
 C1734 C 0.17337 0.37602 0.80752
 C1735 C 0.16529 0.36097 0.81579
 C1736 C 0.16366 0.36010 0.83481
 C1737 C 0.17017 0.37463 0.84536
 C1738 C 0.17826 0.38968 0.83706
 C1739 C 0.18865 0.40564 0.80957
 C1740 C 0.19610 0.41826 0.80226
 C1741 C 0.20516 0.43313 0.79338
 C1742 C 0.19810 0.44033 0.77727
 C1743 C 0.20720 0.45440 0.76831
 C1744 C 0.22352 0.46144 0.77537
 C1745 C 0.23042 0.45421 0.79168
 C1746 C 0.22129 0.44015 0.80060
 H1747 H 0.17465 0.37640 0.79286
 H1748 H 0.16054 0.34987 0.80740
 H1749 H 0.16897 0.37429 0.86001
 H1750 H 0.18330 0.40072 0.84540
 H1751 H 0.18564 0.43498 0.77154
 H1752 H 0.20153 0.45965 0.75580
 H1753 H 0.24294 0.45931 0.79747
 H1754 H 0.22689 0.43465 0.81305
 C1755 C 0.18036 0.89068 0.31854
 C1756 C 0.17383 0.87629 0.30797
 C1757 C 0.16575 0.86125 0.31628
 C1758 C 0.16410 0.86044 0.33530
 C1759 C 0.17059 0.87501 0.34581
 C1760 C 0.17868 0.89004 0.33747
 C1761 C 0.18905 0.90593 0.30993
 C1762 C 0.19646 0.91854 0.30257
 C1763 C 0.20544 0.93341 0.29360
 C1764 C 0.19824 0.94057 0.27752
 C1765 C 0.20726 0.95462 0.26846
 C1766 C 0.22363 0.96169 0.27537
 C1767 C 0.23066 0.95451 0.29164
 C1768 C 0.22161 0.94046 0.30067
 H1769 H 0.17511 0.87662 0.29331
 H1770 H 0.16102 0.85012 0.30792
 H1771 H 0.16938 0.87471 0.36047
 H1772 H 0.18369 0.90111 0.34578
 H1773 H 0.18574 0.93519 0.27191
 H1774 H 0.20148 0.95983 0.25598
 H1775 H 0.24322 0.95964 0.29732
 H1776 H 0.22732 0.93499 0.31310
 C1777 C 0.39062 0.31972 0.68059
 C1778 C 0.37629 0.32632 0.69120
 C1779 C 0.36119 0.33430 0.68292
 C1780 C 0.36023 0.33579 0.66390
 C1781 C 0.37474 0.32923 0.65334
 C1782 C 0.38984 0.32124 0.66164
 C1783 C 0.40594 0.31111 0.68916
 C1784 C 0.41861 0.30377 0.69649
 C1785 C 0.43353 0.29485 0.70543
 C1786 C 0.44057 0.30195 0.72159
 C1787 C 0.45467 0.29297 0.73062
 C1788 C 0.46190 0.27673 0.72358
 C1789 C 0.45485 0.26980 0.70722
 C1790 C 0.44075 0.27880 0.69822
 H1791 H 0.37673 0.32516 0.70587
 H1792 H 0.35011 0.33909 0.69133
 H1793 H 0.37433 0.33032 0.63868
 H1794 H 0.40086 0.31617 0.65330
 H1795 H 0.43506 0.31435 0.72731
 H1796 H 0.45978 0.29867 0.74318
 H1797 H 0.46010 0.25733 0.70144
 H1798 H 0.43538 0.27317 0.68573
 C1799 C 0.39025 0.81964 0.18055
 C1800 C 0.38951 0.82116 0.16161
 C1801 C 0.37444 0.82918 0.15328
 C1802 C 0.35993 0.83577 0.16381
 C1803 C 0.36084 0.83429 0.18284
 C1804 C 0.37592 0.82628 0.19114
 C1805 C 0.40553 0.81099 0.18915
 C1806 C 0.41817 0.80361 0.19650
 C1807 C 0.43306 0.79464 0.20545
 C1808 C 0.44019 0.77854 0.19829
 C1809 C 0.45426 0.76950 0.20730
 C1810 C 0.46138 0.77647 0.22363
 C1811 C 0.45423 0.79277 0.23061
 C1812 C 0.44016 0.80178 0.22158
 H1813 H 0.40053 0.81606 0.15329
 H1814 H 0.37406 0.83027 0.13862
 H1815 H 0.34976 0.83911 0.19122
 H1816 H 0.37632 0.82512 0.20581
 H1817 H 0.43477 0.77288 0.18583
 H1818 H 0.45945 0.75699 0.20156
 H1819 H 0.45940 0.79850 0.24314
 H1820 H 0.43472 0.81422 0.22725
 C1821 C 0.89056 0.32020 0.18089
 C1822 C 0.88977 0.32170 0.16195
 C1823 C 0.87466 0.32968 0.15365
 C1824 C 0.86016 0.33623 0.16421
 C1825 C 0.86112 0.33477 0.18323
 C1826 C 0.87624 0.32680 0.19151
 C1827 C 0.90587 0.31156 0.18945
 C1828 C 0.91853 0.30417 0.19674
 C1829 C 0.93345 0.29516 0.20560
 C1830 C 0.94062 0.27915 0.19828
 C1831 C 0.95471 0.27005 0.20719
 C1832 C 0.96182 0.27686 0.22358
 C1833 C 0.95465 0.29308 0.23074
 C1834 C 0.94055 0.30215 0.22180
 H1835 H 0.90078 0.31662 0.15360
 H1836 H 0.87424 0.33075 0.13898
 H1837 H 0.85004 0.33956 0.19164
 H1838 H 0.87668 0.32565 0.20618
 H1839 H 0.93520 0.27361 0.18576
 H1840 H 0.95992 0.25761 0.20131
 H1841 H 0.95981 0.29868 0.24332
 H1842 H 0.93508 0.31452 0.22761
 C1843 C 0.89024 0.81980 0.68098
 C1844 C 0.87591 0.82640 0.69159
 C1845 C 0.86082 0.83441 0.68330
 C1846 C 0.85988 0.83590 0.66428
 C1847 C 0.87440 0.82934 0.65373
 C1848 C 0.88948 0.82133 0.66204
 C1849 C 0.90552 0.81112 0.68955
 C1850 C 0.91817 0.80370 0.69685
 C1851 C 0.93306 0.79467 0.70572
 C1852 C 0.94021 0.80168 0.72188
 C1853 C 0.95430 0.79259 0.73082
 C1854 C 0.96140 0.77632 0.72370
 C1855 C 0.95423 0.76948 0.70735
 C1856 C 0.94015 0.77860 0.69844
 H1857 H 0.87633 0.82523 0.70625
 H1858 H 0.84973 0.83920 0.69170
 H1859 H 0.87400 0.83043 0.63907
 H1860 H 0.90050 0.81625 0.65370
 H1861 H 0.93480 0.81409 0.72765
 H1862 H 0.95950 0.79822 0.74337
 H1863 H 0.95939 0.75700 0.70151
 H1864 H 0.93469 0.77304 0.68595
 C1865 C 0.60955 0.31944 0.31957
 C1866 C 0.61034 0.33838 0.32112
 C1867 C 0.62545 0.34666 0.32914
 C1868 C 0.63994 0.33607 0.33569
 C1869 C 0.63897 0.31705 0.33417
 C1870 C 0.62387 0.30880 0.32616
 C1871 C 0.59424 0.31090 0.31092
 C1872 C 0.58157 0.30360 0.30354
 C1873 C 0.56665 0.29469 0.29459
 C1874 C 0.55953 0.30187 0.27849
 C1875 C 0.54543 0.29290 0.26945
 C1876 C 0.53828 0.27659 0.27640
 C1877 C 0.54542 0.26958 0.29270
 C1878 C 0.55951 0.27858 0.30171
 H1879 H 0.59934 0.34675 0.31605
 H1880 H 0.62587 0.36132 0.33025
 H1881 H 0.65004 0.30863 0.33895
 H1882 H 0.62342 0.29414 0.32497
 H1883 H 0.56498 0.31432 0.27284
 H1884 H 0.54026 0.29866 0.25694
 H1885 H 0.54023 0.25705 0.29842
 H1886 H 0.56495 0.27288 0.31415
 C1887 C 0.60956 0.81940 0.82010
 C1888 C 0.61036 0.83834 0.82163
 C1889 C 0.62546 0.84662 0.82965
 C1890 C 0.63995 0.83604 0.83623
 C1891 C 0.63897 0.81702 0.83474
 C1892 C 0.62386 0.80876 0.82672
 C1893 C 0.59426 0.81087 0.81142
 C1894 C 0.58161 0.80358 0.80400
 C1895 C 0.56670 0.79471 0.79498
 C1896 C 0.55963 0.80196 0.77890
 C1897 C 0.54555 0.79304 0.76979
 C1898 C 0.53836 0.77671 0.77666
 C1899 C 0.54545 0.76963 0.79295
 C1900 C 0.55954 0.77858 0.80202
 H1901 H 0.59937 0.84671 0.81654
 H1902 H 0.62589 0.86128 0.83074
 H1903 H 0.65003 0.80860 0.83954
 H1904 H 0.62341 0.79410 0.82555
 H1905 H 0.56510 0.81443 0.77331
 H1906 H 0.54040 0.79885 0.75729
 H1907 H 0.54024 0.75709 0.79860
 H1908 H 0.56494 0.77283 0.81445
 C1909 C 0.10946 0.31925 0.81939
 C1910 C 0.11029 0.33819 0.82094
 C1911 C 0.12541 0.34643 0.82896
 C1912 C 0.13988 0.33582 0.83551
 C1913 C 0.13888 0.31680 0.83399
 C1914 C 0.12376 0.30858 0.82598
 C1915 C 0.09413 0.31074 0.81075
 C1916 C 0.08145 0.30345 0.80338
 C1917 C 0.06651 0.29456 0.79444
 C1918 C 0.05937 0.30175 0.77835
 C1919 C 0.04525 0.29278 0.76933
 C1920 C 0.03811 0.27647 0.77630
 C1921 C 0.04526 0.26945 0.79258
 C1922 C 0.05937 0.27845 0.80157
 H1923 H 0.09931 0.34657 0.81587
 H1924 H 0.12586 0.36109 0.83008
 H1925 H 0.14993 0.30836 0.83877
 H1926 H 0.12328 0.29392 0.82479
 H1927 H 0.06481 0.31420 0.77270
 H1928 H 0.04006 0.29854 0.75683
 H1929 H 0.04008 0.25693 0.79830
 H1930 H 0.06483 0.27275 0.81400
 C1931 C 0.10994 0.81955 0.31991
 C1932 C 0.11076 0.83849 0.32142
 C1933 C 0.12587 0.84675 0.32945
 C1934 C 0.14033 0.83616 0.33605
 C1935 C 0.13933 0.81714 0.33457
 C1936 C 0.12422 0.80890 0.32655
 C1937 C 0.09462 0.81101 0.31126
 C1938 C 0.08195 0.80371 0.30388
 C1939 C 0.06702 0.79481 0.29492
 C1940 C 0.05990 0.80199 0.27883
 C1941 C 0.04580 0.79302 0.26980
 C1942 C 0.03864 0.77671 0.27676
 C1943 C 0.04579 0.76970 0.29305
 C1944 C 0.05989 0.77870 0.30205
 H1945 H 0.09978 0.84686 0.31632
 H1946 H 0.12631 0.86142 0.33053
 H1947 H 0.15037 0.80871 0.33939
 H1948 H 0.12375 0.79423 0.32540
 H1949 H 0.06535 0.81444 0.27318
 H1950 H 0.04061 0.79878 0.25729
 H1951 H 0.04059 0.75718 0.29877
 H1952 H 0.06533 0.77300 0.31449
 C1953 C 0.60973 0.68078 0.68027
 C1954 C 0.61051 0.66184 0.67876
 C1955 C 0.62561 0.65354 0.67076
 C1956 C 0.64011 0.66410 0.66419
 C1957 C 0.63915 0.68312 0.66567
 C1958 C 0.62405 0.69140 0.67366
 C1959 C 0.59441 0.68935 0.68889
 C1960 C 0.58174 0.69668 0.69624
 C1961 C 0.56682 0.70561 0.70517
 C1962 C 0.55960 0.69840 0.72121
 C1963 C 0.54550 0.70739 0.73022
 C1964 C 0.53844 0.72375 0.72329
 C1965 C 0.54567 0.73080 0.70705
 C1966 C 0.55977 0.72178 0.69807
 H1967 H 0.59950 0.65349 0.68384
 H1968 H 0.62601 0.63887 0.66967
 H1969 H 0.65023 0.69152 0.66087
 H1970 H 0.62361 0.70607 0.67482
 H1971 H 0.56498 0.68591 0.72684
 H1972 H 0.54024 0.70160 0.74268
 H1973 H 0.54054 0.74336 0.70136
 H1974 H 0.56528 0.72750 0.68568
 C1975 C 0.60967 0.18061 0.18019
 C1976 C 0.61047 0.16166 0.17866
 C1977 C 0.62559 0.15338 0.17069
 C1978 C 0.64010 0.16395 0.16417
 C1979 C 0.63913 0.18297 0.16566
 C1980 C 0.62400 0.19124 0.17362
 C1981 C 0.59434 0.18915 0.18880
 C1982 C 0.58166 0.19646 0.19614
 C1983 C 0.56672 0.20537 0.20507
 C1984 C 0.55957 0.19819 0.22116
 C1985 C 0.54546 0.20716 0.23017
 C1986 C 0.53832 0.22348 0.22321
 C1987 C 0.54549 0.23049 0.20692
 C1988 C 0.55960 0.22149 0.19794
 H1989 H 0.59945 0.15331 0.18371
 H1990 H 0.62601 0.13872 0.16960
 H1991 H 0.65021 0.19139 0.16090
 H1992 H 0.62355 0.20590 0.17479
 H1993 H 0.56501 0.18574 0.22682
 H1994 H 0.54026 0.20140 0.24267
 H1995 H 0.54031 0.24301 0.20120
 H1996 H 0.56506 0.22718 0.18551
 C1997 C 0.10977 0.68075 0.18024
 C1998 C 0.11057 0.66181 0.17868
 C1999 C 0.12565 0.65354 0.17061
 C2000 C 0.14012 0.66413 0.16402
 C2001 C 0.13915 0.68315 0.16555
 C2002 C 0.12407 0.69139 0.17361
 C2003 C 0.09448 0.68928 0.18893
 C2004 C 0.08183 0.69659 0.19633
 C2005 C 0.06693 0.70550 0.20531
 C2006 C 0.05983 0.69832 0.22142
 C2007 C 0.04574 0.70730 0.23048
 C2008 C 0.03859 0.72361 0.22353
 C2009 C 0.04570 0.73062 0.20722
 C2010 C 0.05978 0.72161 0.19820
 H2011 H 0.09958 0.65344 0.18377
 H2012 H 0.12607 0.63888 0.16949
 H2013 H 0.15020 0.69158 0.16073
 H2014 H 0.12362 0.70606 0.17480
 H2015 H 0.06528 0.68587 0.22706
 H2016 H 0.04058 0.70155 0.24299
 H2017 H 0.04051 0.74314 0.20151
 H2018 H 0.06520 0.72730 0.18575
 C2019 C 0.10936 0.18063 0.67988
 C2020 C 0.11018 0.16170 0.67833
 C2021 C 0.12530 0.15344 0.67032
 C2022 C 0.13979 0.16404 0.66380
 C2023 C 0.13880 0.18306 0.66532
 C2024 C 0.12368 0.19129 0.67331
 C2025 C 0.09404 0.18915 0.68853
 C2026 C 0.08136 0.19644 0.69591
 C2027 C 0.06643 0.20533 0.70487
 C2028 C 0.05932 0.19813 0.72096
 C2029 C 0.04522 0.20709 0.73001
 C2030 C 0.03806 0.22340 0.72306
 C2031 C 0.04518 0.23042 0.70677
 C2032 C 0.05928 0.22144 0.69775
 H2033 H 0.09918 0.15332 0.68338
 H2034 H 0.12574 0.13878 0.66921
 H2035 H 0.14987 0.19149 0.66055
 H2036 H 0.12321 0.20595 0.67451
 H2037 H 0.06479 0.18568 0.72661
 H2038 H 0.04005 0.20133 0.74252
 H2039 H 0.03998 0.24294 0.70106
 H2040 H 0.06470 0.22714 0.68531
 C2041 C 0.39004 0.68011 0.31958
 C2042 C 0.37573 0.67351 0.30893
 C2043 C 0.36063 0.66549 0.31718
 C2044 C 0.35965 0.66398 0.33619
 C2045 C 0.37413 0.67054 0.34679
 C2046 C 0.38924 0.67856 0.33852
 C2047 C 0.40535 0.68877 0.31105
 C2048 C 0.41802 0.69615 0.30375
 C2049 C 0.43295 0.70511 0.29485
 C2050 C 0.44010 0.69797 0.27875
 C2051 C 0.45421 0.70698 0.26976
 C2052 C 0.46133 0.72329 0.27677
 C2053 C 0.45416 0.73025 0.29307
 C2054 C 0.44005 0.72122 0.30203
 H2055 H 0.37619 0.67470 0.29427
 H2056 H 0.34956 0.66071 0.30875
 H2057 H 0.37371 0.66942 0.36145
 H2058 H 0.40023 0.68364 0.34689
 H2059 H 0.43468 0.68553 0.27306
 H2060 H 0.45941 0.70126 0.25725
 H2061 H 0.45932 0.74277 0.29882
 H2062 H 0.43459 0.72687 0.31447
 C2063 C 0.39056 0.18002 0.81909
 C2064 C 0.37625 0.17345 0.80843
 C2065 C 0.36112 0.16547 0.81666
 C2066 C 0.36012 0.16396 0.83568
 C2067 C 0.37461 0.17047 0.84628
 C2068 C 0.38974 0.17847 0.83803
 C2069 C 0.40589 0.18868 0.81058
 C2070 C 0.41856 0.19608 0.80332
 C2071 C 0.43350 0.20509 0.79448
 C2072 C 0.44069 0.19803 0.77836
 C2073 C 0.45480 0.20709 0.76944
 C2074 C 0.46188 0.22338 0.77653
 C2075 C 0.45467 0.23026 0.79285
 C2076 C 0.44057 0.22117 0.80175
 H2077 H 0.37672 0.17465 0.79377
 H2078 H 0.35005 0.16071 0.80822
 H2079 H 0.37417 0.16936 0.86094
 H2080 H 0.40074 0.18352 0.84641
 H2081 H 0.43529 0.18560 0.77261
 H2082 H 0.46003 0.20143 0.75691
 H2083 H 0.45981 0.24276 0.79867
 H2084 H 0.43508 0.22677 0.81420
 C2085 C 0.89012 0.67990 0.81960
 C2086 C 0.87577 0.67329 0.80902
 C2087 C 0.86066 0.66535 0.81733
 C2088 C 0.85973 0.66392 0.83636
 C2089 C 0.87425 0.67048 0.84689
 C2090 C 0.88936 0.67843 0.83855
 C2091 C 0.90543 0.68848 0.81100
 C2092 C 0.91810 0.69582 0.80366
 C2093 C 0.93302 0.70474 0.79472
 C2094 C 0.94004 0.69768 0.77853
 C2095 C 0.95414 0.70666 0.76951
 C2096 C 0.96139 0.72288 0.77658
 C2097 C 0.95436 0.72978 0.79297
 C2098 C 0.94026 0.72076 0.80196
 H2099 H 0.87619 0.67442 0.79435
 H2100 H 0.84956 0.66056 0.80895
 H2101 H 0.87386 0.66943 0.86155
 H2102 H 0.90039 0.68351 0.84687
 H2103 H 0.93451 0.68530 0.77279
 H2104 H 0.95923 0.70099 0.75693
 H2105 H 0.95964 0.74222 0.79878
 H2106 H 0.93491 0.72637 0.81447
 C2107 C 0.89060 0.18005 0.31912
 C2108 C 0.87626 0.17344 0.30852
 C2109 C 0.86115 0.16548 0.31681
 C2110 C 0.86020 0.16404 0.33584
 C2111 C 0.87471 0.17061 0.34638
 C2112 C 0.88982 0.17858 0.33806
 C2113 C 0.90590 0.18867 0.31054
 C2114 C 0.91857 0.19604 0.30322
 C2115 C 0.93349 0.20502 0.29433
 C2116 C 0.94053 0.19802 0.27812
 C2117 C 0.95463 0.20707 0.26915
 C2118 C 0.96185 0.22327 0.27629
 C2119 C 0.95478 0.23009 0.29270
 C2120 C 0.94069 0.22102 0.30164
 H2121 H 0.87670 0.17458 0.29385
 H2122 H 0.85007 0.16069 0.30842
 H2123 H 0.87430 0.16955 0.36105
 H2124 H 0.90083 0.18366 0.34640
 H2125 H 0.93503 0.18566 0.27233
 H2126 H 0.95975 0.20145 0.25655
 H2127 H 0.96003 0.24253 0.29856
 H2128 H 0.93531 0.22657 0.31417
 C2129 C 0.32035 0.31824 0.60927
 C2130 C 0.32688 0.30767 0.62367
 C2131 C 0.33491 0.31599 0.63872
 C2132 C 0.33652 0.33501 0.63956
 C2133 C 0.33003 0.34552 0.62499
 C2134 C 0.32199 0.33718 0.60994
 C2135 C 0.31167 0.30964 0.59402
 C2136 C 0.30425 0.30230 0.58139
 C2137 C 0.29522 0.29339 0.56652
 C2138 C 0.30226 0.27723 0.55940
 C2139 C 0.29318 0.26825 0.54533
 C2140 C 0.27690 0.27533 0.53822
 C2141 C 0.27003 0.29168 0.54536
 C2142 C 0.27914 0.30063 0.55942
 H2143 H 0.32562 0.29301 0.62332
 H2144 H 0.33965 0.30762 0.64985
 H2145 H 0.33122 0.36018 0.62531
 H2146 H 0.31697 0.34549 0.59888
 H2147 H 0.31468 0.27149 0.56482
 H2148 H 0.29883 0.25569 0.54015
 H2149 H 0.25754 0.29749 0.54019
 H2150 H 0.27356 0.31312 0.56485
 C2151 C 0.32014 0.81825 0.10911
 C2152 C 0.32181 0.83718 0.10976
 C2153 C 0.32983 0.84552 0.12483
 C2154 C 0.33626 0.83501 0.13943
 C2155 C 0.33463 0.81600 0.13860
 C2156 C 0.32661 0.80768 0.12353
 C2157 C 0.31148 0.80965 0.09384
 C2158 C 0.30408 0.80231 0.08121
 C2159 C 0.29506 0.79340 0.06633
 C2160 C 0.27899 0.80064 0.05922
 C2161 C 0.26989 0.79168 0.04515
 C2162 C 0.27676 0.77533 0.03802
 C2163 C 0.29303 0.76825 0.04515
 C2164 C 0.30210 0.77724 0.05921
 H2165 H 0.31684 0.84549 0.09868
 H2166 H 0.33104 0.86018 0.12514
 H2167 H 0.33931 0.80763 0.14975
 H2168 H 0.32533 0.79302 0.12320
 H2169 H 0.27340 0.81313 0.06465
 H2170 H 0.25740 0.79749 0.03998
 H2171 H 0.29869 0.75570 0.03997
 H2172 H 0.31453 0.77150 0.06464
 C2173 C 0.82028 0.31855 0.10962
 C2174 C 0.82189 0.33749 0.11026
 C2175 C 0.82993 0.34587 0.12530
 C2176 C 0.83643 0.33538 0.13988
 C2177 C 0.83485 0.31636 0.13907
 C2178 C 0.82682 0.30801 0.12403
 C2179 C 0.81162 0.30991 0.09437
 C2180 C 0.80424 0.30253 0.08175
 C2181 C 0.79526 0.29356 0.06688
 C2182 C 0.77915 0.30070 0.05976
 C2183 C 0.77010 0.29168 0.04570
 C2184 C 0.77706 0.27536 0.03859
 C2185 C 0.79337 0.26838 0.04573
 C2186 C 0.80239 0.27743 0.05979
 H2187 H 0.81687 0.34578 0.09918
 H2188 H 0.83109 0.36053 0.12559
 H2189 H 0.83959 0.30802 0.15021
 H2190 H 0.82559 0.29335 0.12370
 H2191 H 0.77349 0.31317 0.06518
 H2192 H 0.75758 0.29742 0.04052
 H2193 H 0.79909 0.25585 0.04056
 H2194 H 0.81484 0.27176 0.06522
 C2195 C 0.82009 0.81833 0.60960
 C2196 C 0.82659 0.80776 0.62401
 C2197 C 0.83459 0.81609 0.63907
 C2198 C 0.83620 0.83511 0.63991
 C2199 C 0.82974 0.84562 0.62533
 C2200 C 0.82172 0.83727 0.61026
 C2201 C 0.81145 0.80972 0.59432
 C2202 C 0.80408 0.80236 0.58168
 C2203 C 0.79511 0.79342 0.56678
 C2204 C 0.80223 0.77728 0.55969
 C2205 C 0.79322 0.76826 0.54561
 C2206 C 0.77693 0.77527 0.53845
 C2207 C 0.76998 0.79160 0.54556
 C2208 C 0.77903 0.80060 0.55964
 H2209 H 0.82534 0.79310 0.62366
 H2210 H 0.83931 0.80773 0.65022
 H2211 H 0.83092 0.86027 0.62564
 H2212 H 0.81673 0.84557 0.59918
 H2213 H 0.81466 0.77159 0.56514
 H2214 H 0.79892 0.75572 0.54045
 H2215 H 0.75748 0.79736 0.54036
 H2216 H 0.77339 0.81307 0.56506
 C2217 C 0.31971 0.68141 0.39081
 C2218 C 0.32137 0.66248 0.39012
 C2219 C 0.32943 0.65416 0.37506
 C2220 C 0.33591 0.66471 0.36051
 C2221 C 0.33429 0.68372 0.36138
 C2222 C 0.32624 0.69201 0.37644
 C2223 C 0.31104 0.68999 0.40609
 C2224 C 0.30364 0.69733 0.41873
 C2225 C 0.29466 0.70627 0.43361
 C2226 C 0.30184 0.72234 0.44080
 C2227 C 0.29283 0.73136 0.45487
 C2228 C 0.27647 0.72442 0.46193
 C2229 C 0.26945 0.70816 0.45473
 C2230 C 0.27850 0.69916 0.44066
 H2231 H 0.31636 0.65415 0.40117
 H2232 H 0.33062 0.63951 0.37472
 H2233 H 0.33902 0.69211 0.35026
 H2234 H 0.32497 0.70667 0.37681
 H2235 H 0.31433 0.72797 0.43542
 H2236 H 0.29859 0.74385 0.46010
 H2237 H 0.25690 0.70245 0.45986
 H2238 H 0.27281 0.68674 0.43517
 C2239 C 0.32020 0.18157 0.89024
 C2240 C 0.32179 0.16263 0.88957
 C2241 C 0.32983 0.15427 0.87452
 C2242 C 0.33636 0.16478 0.85997
 C2243 C 0.33480 0.18380 0.86081
 C2244 C 0.32676 0.19213 0.87586
 C2245 C 0.31152 0.19018 0.90550
 C2246 C 0.30411 0.19753 0.91812
 C2247 C 0.29509 0.20645 0.93299
 C2248 C 0.27901 0.19921 0.94011
 C2249 C 0.26991 0.20817 0.95417
 C2250 C 0.27678 0.22454 0.96129
 C2251 C 0.29305 0.23161 0.95415
 C2252 C 0.30213 0.22262 0.94009
 H2253 H 0.31674 0.15432 0.90062
 H2254 H 0.33098 0.13961 0.87420
 H2255 H 0.33956 0.19216 0.84969
 H2256 H 0.32554 0.20679 0.87622
 H2257 H 0.27343 0.18671 0.93469
 H2258 H 0.25743 0.20236 0.95934
 H2259 H 0.29870 0.24418 0.95932
 H2260 H 0.31454 0.22836 0.93466
 C2261 C 0.81994 0.68166 0.89100
 C2262 C 0.82155 0.66272 0.89037
 C2263 C 0.82956 0.65433 0.87533
 C2264 C 0.83604 0.66480 0.86073
 C2265 C 0.83447 0.68382 0.86152
 C2266 C 0.82647 0.69219 0.87657
 C2267 C 0.81130 0.69032 0.90625
 C2268 C 0.80393 0.69770 0.91887
 C2269 C 0.79495 0.70668 0.93374
 C2270 C 0.80206 0.72283 0.94081
 C2271 C 0.79304 0.73187 0.95487
 C2272 C 0.77676 0.72487 0.96204
 C2273 C 0.76982 0.70852 0.95494
 C2274 C 0.77886 0.69951 0.94088
 H2275 H 0.81653 0.65445 0.90146
 H2276 H 0.83071 0.63967 0.87504
 H2277 H 0.83920 0.69215 0.85036
 H2278 H 0.82524 0.70685 0.87688
 H2279 H 0.81449 0.72852 0.93535
 H2280 H 0.79875 0.74442 0.96002
 H2281 H 0.75732 0.70277 0.96015
 H2282 H 0.77323 0.68702 0.93549
 C2283 C 0.82032 0.18173 0.39043
 C2284 C 0.82195 0.16279 0.38980
 C2285 C 0.83000 0.15441 0.37477
 C2286 C 0.83649 0.16489 0.36018
 C2287 C 0.83490 0.18392 0.36099
 C2288 C 0.82687 0.19227 0.37602
 C2289 C 0.81163 0.19036 0.40567
 C2290 C 0.80420 0.19772 0.41827
 C2291 C 0.79515 0.20664 0.43313
 C2292 C 0.77906 0.19941 0.44021
 C2293 C 0.76994 0.20837 0.45426
 C2294 C 0.77681 0.22472 0.46141
 C2295 C 0.79310 0.23179 0.45431
 C2296 C 0.80219 0.22280 0.44026
 H2297 H 0.81692 0.15450 0.40088
 H2298 H 0.83117 0.13975 0.37448
 H2299 H 0.83964 0.19226 0.34984
 H2300 H 0.82562 0.20693 0.37634
 H2301 H 0.77348 0.18692 0.43476
 H2302 H 0.75744 0.20257 0.45940
 H2303 H 0.79875 0.24434 0.45950
 H2304 H 0.81463 0.22853 0.43486
 C2305 C 0.68082 0.32076 0.38989
 C2306 C 0.69149 0.32722 0.37555
 C2307 C 0.68328 0.33519 0.36040
 C2308 C 0.66427 0.33680 0.35942
 C2309 C 0.65365 0.33038 0.37394
 C2310 C 0.66188 0.32240 0.38908
 C2311 C 0.68931 0.31215 0.40525
 C2312 C 0.69658 0.30481 0.41795
 C2313 C 0.70545 0.29588 0.43292
 C2314 C 0.69829 0.27975 0.43999
 C2315 C 0.70723 0.27073 0.45411
 C2316 C 0.72349 0.27773 0.46134
 C2317 C 0.73047 0.29406 0.45426
 C2318 C 0.72150 0.30305 0.44013
 H2319 H 0.70615 0.32597 0.37600
 H2320 H 0.69173 0.33987 0.34931
 H2321 H 0.63899 0.33156 0.37351
 H2322 H 0.65349 0.31743 0.40011
 H2323 H 0.68588 0.27406 0.43447
 H2324 H 0.70149 0.25819 0.45925
 H2325 H 0.74295 0.29982 0.45951
 H2326 H 0.72718 0.31551 0.43473
 C2327 C 0.68083 0.82083 0.89046
 C2328 C 0.69150 0.82726 0.87610
 C2329 C 0.68329 0.83519 0.86094
 C2330 C 0.66428 0.83679 0.85995
 C2331 C 0.65366 0.83040 0.87449
 C2332 C 0.66189 0.82246 0.88965
 C2333 C 0.68933 0.81226 0.90584
 C2334 C 0.69661 0.80495 0.91856
 C2335 C 0.70548 0.79606 0.93354
 C2336 C 0.69831 0.77998 0.94070
 C2337 C 0.70727 0.77100 0.95483
 C2338 C 0.72356 0.77799 0.96199
 C2339 C 0.73057 0.79428 0.95482
 C2340 C 0.72158 0.80323 0.94068
 H2341 H 0.70616 0.82600 0.87656
 H2342 H 0.69174 0.83985 0.84983
 H2343 H 0.63900 0.83159 0.87406
 H2344 H 0.65350 0.81752 0.90069
 H2345 H 0.68587 0.77430 0.93524
 H2346 H 0.70152 0.75850 0.96004
 H2347 H 0.74308 0.80002 0.96001
 H2348 H 0.72727 0.81566 0.93522
 C2349 C 0.18072 0.32043 0.88973
 C2350 C 0.19141 0.32687 0.87539
 C2351 C 0.18322 0.33485 0.86023
 C2352 C 0.16421 0.33649 0.85925
 C2353 C 0.15357 0.33009 0.87377
 C2354 C 0.16179 0.32210 0.88892
 C2355 C 0.18921 0.31183 0.90510
 C2356 C 0.19648 0.30450 0.91781
 C2357 C 0.20535 0.29559 0.93278
 C2358 C 0.19822 0.27946 0.93987
 C2359 C 0.20718 0.27047 0.95400
 C2360 C 0.22343 0.27750 0.96122
 C2361 C 0.23039 0.29384 0.95412
 C2362 C 0.22140 0.30280 0.93999
 H2363 H 0.20607 0.32560 0.87585
 H2364 H 0.19168 0.33952 0.84914
 H2365 H 0.13892 0.33130 0.87334
 H2366 H 0.15339 0.31715 0.89995
 H2367 H 0.18582 0.27375 0.93437
 H2368 H 0.20146 0.25793 0.95916
 H2369 H 0.24286 0.29961 0.95936
 H2370 H 0.22706 0.31526 0.93457
 C2371 C 0.18112 0.82092 0.39034
 C2372 C 0.19182 0.82733 0.37599
 C2373 C 0.18364 0.83527 0.36081
 C2374 C 0.16463 0.83690 0.35981
 C2375 C 0.15399 0.83053 0.37433
 C2376 C 0.16219 0.82258 0.38951
 C2377 C 0.18959 0.81232 0.40572
 C2378 C 0.19682 0.80497 0.41845
 C2379 C 0.20563 0.79602 0.43343
 C2380 C 0.19833 0.77998 0.44055
 C2381 C 0.20721 0.77092 0.45469
 C2382 C 0.22354 0.77780 0.46188
 C2383 C 0.23066 0.79405 0.45475
 C2384 C 0.22176 0.80308 0.44061
 H2385 H 0.20648 0.82605 0.37647
 H2386 H 0.19211 0.83991 0.34972
 H2387 H 0.13933 0.83173 0.37388
 H2388 H 0.15378 0.81765 0.40053
 H2389 H 0.18587 0.77438 0.43507
 H2390 H 0.20137 0.75845 0.45987
 H2391 H 0.24320 0.79970 0.45996
 H2392 H 0.22754 0.81547 0.43516
 C2393 C 0.68099 0.67929 0.60995
 C2394 C 0.69166 0.67285 0.62431
 C2395 C 0.68344 0.66491 0.63947
 C2396 C 0.66443 0.66332 0.64045
 C2397 C 0.65381 0.66972 0.62592
 C2398 C 0.66205 0.67767 0.61076
 C2399 C 0.68949 0.68786 0.59458
 C2400 C 0.69678 0.69517 0.58186
 C2401 C 0.70566 0.70407 0.56689
 C2402 C 0.69848 0.72015 0.55974
 C2403 C 0.70744 0.72914 0.54561
 C2404 C 0.72374 0.72215 0.53846
 C2405 C 0.73075 0.70587 0.54562
 C2406 C 0.72176 0.69690 0.55975
 H2407 H 0.70632 0.67409 0.62385
 H2408 H 0.69189 0.66025 0.65057
 H2409 H 0.63916 0.66855 0.62635
 H2410 H 0.65367 0.68262 0.59972
 H2411 H 0.68604 0.72583 0.56519
 H2412 H 0.70169 0.74164 0.54041
 H2413 H 0.74326 0.70013 0.54043
 H2414 H 0.72745 0.68448 0.56521
 C2415 C 0.68114 0.17918 0.11006
 C2416 C 0.66220 0.17755 0.11081
 C2417 C 0.65392 0.16959 0.12595
 C2418 C 0.66450 0.16319 0.14051
 C2419 C 0.68352 0.16479 0.13958
 C2420 C 0.69177 0.17273 0.12444
 C2421 C 0.68968 0.18776 0.09471
 C2422 C 0.69698 0.19509 0.08202
 C2423 C 0.70587 0.20401 0.06706
 C2424 C 0.72199 0.19689 0.05994
 C2425 C 0.73097 0.20587 0.04582
 C2426 C 0.72394 0.22214 0.03865
 C2427 C 0.70762 0.22910 0.04579
 C2428 C 0.69867 0.22009 0.05991
 H2429 H 0.65384 0.18250 0.09976
 H2430 H 0.63927 0.16842 0.12634
 H2431 H 0.69193 0.16012 0.15070
 H2432 H 0.70643 0.17398 0.12402
 H2433 H 0.72770 0.18447 0.06540
 H2434 H 0.74350 0.20016 0.04063
 H2435 H 0.70185 0.24159 0.04059
 H2436 H 0.68621 0.22574 0.06535
 C2437 C 0.18084 0.67945 0.10969
 C2438 C 0.19156 0.67299 0.12401
 C2439 C 0.18339 0.66503 0.13918
 C2440 C 0.16438 0.66342 0.14022
 C2441 C 0.15372 0.66984 0.12573
 C2442 C 0.16191 0.67782 0.11055
 C2443 C 0.18930 0.68805 0.09430
 C2444 C 0.19655 0.69537 0.08158
 C2445 C 0.20540 0.70427 0.06659
 C2446 C 0.19825 0.72040 0.05950
 C2447 C 0.20718 0.72939 0.04535
 C2448 C 0.22343 0.72236 0.03812
 C2449 C 0.23040 0.70603 0.04522
 C2450 C 0.22144 0.69707 0.05937
 H2451 H 0.20622 0.67425 0.12351
 H2452 H 0.19187 0.66035 0.15025
 H2453 H 0.13906 0.66866 0.12620
 H2454 H 0.15349 0.68278 0.09955
 H2455 H 0.18585 0.72611 0.06502
 H2456 H 0.20146 0.74192 0.04020
 H2457 H 0.24288 0.70025 0.03997
 H2458 H 0.22711 0.68461 0.06478
 C2459 C 0.18076 0.17937 0.60966
 C2460 C 0.16183 0.17772 0.61044
 C2461 C 0.15357 0.16974 0.62557
 C2462 C 0.16417 0.16333 0.64012
 C2463 C 0.18318 0.16495 0.63917
 C2464 C 0.19141 0.17292 0.62403
 C2465 C 0.18928 0.18798 0.59432
 C2466 C 0.19657 0.19532 0.58162
 C2467 C 0.20546 0.20424 0.56667
 C2468 C 0.22151 0.19704 0.55947
 C2469 C 0.23050 0.20602 0.54535
 C2470 C 0.22354 0.22236 0.53826
 C2471 C 0.20728 0.22938 0.54547
 C2472 C 0.19832 0.22037 0.55959
 H2473 H 0.15345 0.18268 0.59940
 H2474 H 0.13891 0.16855 0.62598
 H2475 H 0.19162 0.16028 0.65027
 H2476 H 0.20607 0.17419 0.62360
 H2477 H 0.22717 0.18458 0.56488
 H2478 H 0.24299 0.20026 0.54011
 H2479 H 0.20156 0.24192 0.54032
 H2480 H 0.18591 0.22607 0.56508
   
