data_POSCAR
  _audit_creation_date              2014-09-24
  _audit_creation_method            'ToBaCCo'
  _symmetry_space_group_name_H-M    'P1'
  _symmetry_Int_Tables_number       1
  _symmetry_cell_setting            triclinic
  loop_
  _symmetry_equiv_pos_as_xyz
 x,y,z
_cell_length_a 54.5852
_cell_length_b 54.5790
_cell_length_c 54.5978
_cell_angle_alpha 87.409900
_cell_angle_beta 87.514800
_cell_angle_gamma 87.527700
loop_
  _atom_site_label
  _atom_site_type_symbol
  _atom_site_fract_x
  _atom_site_fract_y
  _atom_site_fract_z
C1 C 0.79148 0.64043 1.00557
 C2 C 0.79750 0.62238 0.98529
 C3 C 0.77822 0.60868 0.98012
 C4 C 0.75475 0.61406 0.99589
 C5 C 0.76898 0.65579 0.99685
 C6 C 0.74978 0.64182 0.99181
 C7 C 0.78196 0.62477 1.02762
 C8 C 0.76270 0.61105 1.02257
 H9 H 0.81450 0.62241 0.97417
 H10 H 0.73914 0.60266 0.99184
 H11 H 0.76859 0.67563 0.99406
 H12 H 0.78851 0.62596 1.04603
 C13 C 0.78977 0.36439 0.47654
 C14 C 0.79482 0.38053 0.49781
 C15 C 0.77493 0.39460 0.50535
 C16 C 0.75177 0.39137 0.49097
 C17 C 0.76774 0.34940 0.48556
 C18 C 0.74788 0.36362 0.49308
 C19 C 0.77991 0.38212 0.45639
 C20 C 0.76001 0.39618 0.46396
 H21 H 0.81233 0.38032 0.50659
 H22 H 0.73562 0.40295 0.49714
 H23 H 0.76779 0.32948 0.48584
 H24 H 0.78697 0.38235 0.43746
 C25 C 0.28972 -0.13459 -0.02363
 C26 C 0.29490 -0.11963 -0.00319
 C27 C 0.27413 -0.10468 0.00485
 C28 C 0.25218 -0.10748 -0.00903
 C29 C 0.26870 -0.14888 -0.01530
 C30 C 0.24796 -0.13379 -0.00725
 C31 C 0.28072 -0.11746 -0.04278
 C32 C 0.25996 -0.10249 -0.03468
 H33 H 0.31232 -0.12034 0.00582
 H34 H 0.23613 -0.09573 -0.00274
 H35 H 0.26852 -0.16880 -0.01525
 H36 H 0.28735 -0.11754 -0.06187
 C37 C 0.29098 0.13673 0.50687
 C38 C 0.29674 0.11862 0.48659
 C39 C 0.27725 0.10519 0.48143
 C40 C 0.25387 0.11087 0.49722
 C41 C 0.26867 0.15238 0.49815
 C42 C 0.24926 0.13869 0.49312
 C43 C 0.28128 0.12120 0.52893
 C44 C 0.26183 0.10774 0.52389
 H45 H 0.31372 0.11847 0.47543
 H46 H 0.23809 0.09970 0.49320
 H47 H 0.26859 0.17220 0.49522
 H48 H 0.28792 0.12224 0.54732
 C49 C 0.13755 0.50800 0.29059
 C50 C 0.11928 0.48784 0.29644
 C51 C 0.10587 0.48264 0.27697
 C52 C 0.11172 0.49829 0.25350
 C53 C 0.15320 0.49909 0.26838
 C54 C 0.13952 0.49402 0.24899
 C55 C 0.12221 0.53009 0.28069
 C56 C 0.10877 0.52502 0.26125
 H57 H 0.11904 0.47673 0.31347
 H58 H 0.10056 0.49424 0.23773
 H59 H 0.17300 0.49607 0.26837
 H60 H 0.12340 0.54852 0.28718
 C61 C -0.13432 -0.02496 0.29001
 C62 C -0.11899 -0.00298 0.29506
 C63 C -0.10491 0.00483 0.27521
 C64 C -0.10738 -0.01007 0.25221
 C65 C -0.14936 -0.01645 0.26779
 C66 C -0.13513 -0.00864 0.24797
 C67 C -0.11691 -0.04368 0.28106
 C68 C -0.10214 -0.03548 0.26030
 H69 H -0.11965 0.00594 0.31249
 H70 H -0.09580 -0.00363 0.23613
 H71 H -0.16926 -0.01653 0.26773
 H72 H -0.11668 -0.06272 0.28787
 C73 C 0.36414 0.47545 0.78965
 C74 C 0.38021 0.49679 0.79474
 C75 C 0.39427 0.50447 0.77487
 C76 C 0.39110 0.49014 0.75168
 C77 C 0.34915 0.48449 0.76763
 C78 C 0.36335 0.49214 0.74778
 C79 C 0.38191 0.45541 0.77976
 C80 C 0.39597 0.46311 0.75988
 H81 H 0.37990 0.50557 0.81223
 H82 H 0.40267 0.49642 0.73555
 H83 H 0.32923 0.48471 0.76768
 H84 H 0.38218 0.43645 0.78678
 C85 C 0.63811 1.00705 0.79097
 C86 C 0.62054 0.98620 0.79685
 C87 C 0.60685 0.98104 0.77753
 C88 C 0.61185 0.99739 0.75427
 C89 C 0.65362 0.99876 0.76836
 C90 C 0.63968 0.99369 0.74912
 C91 C 0.62289 1.02781 0.78230
 C92 C 0.60852 1.02252 0.76212
 H93 H 0.62079 0.97488 0.81374
 H94 H 0.60048 0.99327 0.73866
 H95 H 0.67346 0.99602 0.76802
 H96 H 0.62423 1.04628 0.78867
 C97 C -0.02324 0.28974 -0.13731
 C98 C -0.00194 0.29474 -0.12116
 C99 C 0.00555 0.27484 -0.10702
 C100 C -0.00891 0.25172 -0.11020
 C101 C -0.01428 0.26767 -0.15222
 C102 C -0.00682 0.24779 -0.13793
 C103 C -0.04342 0.27994 -0.11959
 C104 C -0.03590 0.26003 -0.10546
 H105 H 0.00689 0.31223 -0.12138
 H106 H -0.00279 0.23556 -0.09857
 H107 H -0.01402 0.26768 -0.17213
 H108 H -0.06232 0.28708 -0.11938
 C109 C 0.50670 0.29025 0.13877
 C110 C 0.48650 0.29615 0.12055
 C111 C 0.48129 0.27674 0.10707
 C112 C 0.49696 0.25327 0.11281
 C113 C 0.49782 0.26792 0.15434
 C114 C 0.49274 0.24859 0.14059
 C115 C 0.52876 0.28049 0.12334
 C116 C 0.52368 0.26111 0.10984
 H117 H 0.47539 0.31317 0.12038
 H118 H 0.49290 0.23755 0.10159
 H119 H 0.49483 0.26779 0.17415
 H120 H 0.54719 0.28703 0.12451
 C121 C 1.00641 0.79167 0.63736
 C122 C 0.98692 0.79757 0.62040
 C123 C 0.98156 0.77737 0.60588
 C124 C 0.99685 0.75522 0.61102
 C125 C 0.99845 0.77021 0.65211
 C126 C 0.99321 0.75004 0.63739
 C127 C 1.02746 0.78305 0.62232
 C128 C 1.02217 0.76289 0.60779
 H129 H 0.97526 0.81424 0.62100
 H130 H 0.99285 0.73964 0.59951
 H131 H 0.99541 0.76984 0.67194
 H132 H 1.04598 0.78929 0.62389
 C133 C 0.47637 0.78912 0.36489
 C134 C 0.49770 0.79419 0.38098
 C135 C 0.50531 0.77430 0.39507
 C136 C 0.49091 0.75112 0.39193
 C137 C 0.48535 0.76709 0.34995
 C138 C 0.49293 0.74722 0.36419
 C139 C 0.45628 0.77924 0.38267
 C140 C 0.46390 0.75935 0.39676
 H141 H 0.50650 0.81169 0.38068
 H142 H 0.49711 0.73497 0.40353
 H143 H 0.48560 0.76715 0.33004
 H144 H 0.43735 0.78631 0.38292
 C145 C 0.38896 -0.00728 0.26403
 H146 H 0.38791 0.01040 0.27230
 C147 C 0.40217 -0.02696 0.27510
 H148 H 0.41145 -0.02444 0.29189
 C149 C 0.37716 -0.03257 0.23271
 H150 H 0.36687 -0.03489 0.21659
 C151 C 0.39015 -0.05271 0.24319
 H152 H 0.38998 -0.07040 0.23496
 N153 N 0.37677 -0.01040 0.24324
 C154 C 0.36404 0.06233 0.20846
 H155 H 0.34447 0.06201 0.20616
 C156 C 0.37688 0.08293 0.20034
 H157 H 0.36720 0.09856 0.19173
 C158 C 0.40059 0.04242 0.22260
 H159 H 0.40978 0.02655 0.23115
 C160 C 0.41414 0.06268 0.21473
 H161 H 0.43370 0.06241 0.21737
 Zn162 Zn 0.35671 0.01617 0.23106
 N163 N 0.37592 0.04279 0.21972
 C164 C 0.33576 0.04906 0.26542
 N165 N 0.33540 0.02578 0.25753
 C166 C 0.32251 0.00824 0.27032
 C167 C 0.30992 0.01368 0.29241
 C168 C 0.32336 0.05528 0.28727
 C169 C 0.35308 0.00179 0.18345
 C170 C 0.34224 -0.00675 0.16300
 C171 C 0.30306 -0.00545 0.18542
 C172 C 0.31467 0.00316 0.20554
 N173 N 0.33933 0.00618 0.20428
 H174 H 0.34660 0.06259 0.25547
 H175 H 0.32300 -0.01026 0.26396
 H176 H 0.30054 -0.00060 0.30302
 H177 H 0.32453 0.07361 0.29384
 H178 H 0.37261 0.00449 0.18295
 H179 H 0.35346 -0.01068 0.14667
 H180 H 0.28354 -0.00836 0.18664
 H181 H 0.30408 0.00700 0.22221
 C182 C 0.40211 0.08318 0.20369
 C183 C 0.40259 -0.04991 0.26467
 C184 C 0.31708 -0.01064 0.16405
 C185 C 0.31072 0.03734 0.30113
 C186 C 0.07702 1.03635 0.78424
 H187 H 0.07569 1.01824 0.79298
 C188 C 0.06396 1.05637 0.79429
 H189 H 0.05240 1.05368 0.81073
 C190 C 0.09465 1.06230 0.75283
 H191 H 0.10716 1.06472 0.73713
 C192 C 0.08192 1.08275 0.76225
 H193 H 0.08448 1.10076 0.75358
 N194 N 0.09205 1.03965 0.76391
 C195 C 0.10607 0.96818 0.73245
 H196 H 0.12589 0.96842 0.73110
 C197 C 0.09414 0.94848 0.72375
 H198 H 0.10479 0.93346 0.71567
 C199 C 0.06798 0.98768 0.74434
 H200 H 0.05792 1.00315 0.75214
 C201 C 0.05526 0.96824 0.73580
 H202 H 0.03539 0.96868 0.73711
 Zn203 Zn 0.11190 1.01265 0.75302
 N204 N 0.09296 0.98715 0.74267
 C205 C 0.12864 0.97753 0.78890
 N206 N 0.13094 1.00094 0.77964
 C207 C 0.14573 1.01667 0.79004
 C208 C 0.15934 1.00883 0.81027
 C209 C 0.14189 0.96899 0.80905
 C210 C 0.12033 1.02932 0.70466
 C211 C 0.13371 1.03633 0.68332
 C212 C 0.17110 1.02860 0.70506
 C213 C 0.15699 1.02171 0.72605
 N214 N 0.13206 1.02246 0.72553
 H215 H 0.11630 0.96550 0.78091
 H216 H 0.14685 1.03533 0.78263
 H217 H 0.17115 1.02140 0.81840
 H218 H 0.13995 0.95031 0.81625
 H219 H 0.10051 1.02937 0.70467
 H220 H 0.12419 1.04194 0.66686
 H221 H 0.19093 1.02811 0.70560
 H222 H 0.16599 1.01567 0.74263
 C223 C 0.06854 0.94847 0.72545
 C224 C 0.06662 1.07980 0.78328
 C225 C 0.15931 1.03601 0.68354
 C226 C 0.15738 0.98475 0.81982
 C227 C 0.57800 0.53763 0.28294
 H228 H 0.57697 0.51943 0.29152
 C229 C 0.56488 0.55740 0.29338
 H230 H 0.55357 0.55443 0.30995
 C231 C 0.59496 0.56409 0.25159
 H232 H 0.60724 0.56680 0.23575
 C233 C 0.58216 0.58431 0.26140
 H234 H 0.58442 0.60244 0.25290
 N235 N 0.59273 0.54131 0.26246
 C236 C 0.60703 0.47027 0.23019
 H237 H 0.62683 0.47073 0.22852
 C238 C 0.59517 0.45044 0.22167
 H239 H 0.60584 0.43554 0.21339
 C240 C 0.56894 0.48928 0.24284
 H241 H 0.55884 0.50458 0.25089
 C242 C 0.55628 0.46969 0.23450
 H243 H 0.53643 0.46987 0.23622
 Zn244 Zn 0.61272 0.51459 0.25116
 N245 N 0.59390 0.48904 0.24073
 C246 C 0.62993 0.47928 0.28660
 N247 N 0.63198 0.50280 0.27758
 C248 C 0.64660 0.51858 0.28811
 C249 C 0.66030 0.51070 0.30827
 C250 C 0.64327 0.47068 0.30667
 C251 C 0.62090 0.53183 0.20289
 C252 C 0.63422 0.53905 0.18158
 C253 C 0.67167 0.53118 0.20319
 C254 C 0.65762 0.52409 0.22414
 N255 N 0.63268 0.52480 0.22367
 H256 H 0.61771 0.46720 0.27850
 H257 H 0.64751 0.53732 0.28089
 H258 H 0.67196 0.52331 0.31653
 H259 H 0.64153 0.45193 0.31370
 H260 H 0.60107 0.53184 0.20294
 H261 H 0.62466 0.54478 0.16518
 H262 H 0.69150 0.53071 0.20368
 H263 H 0.66667 0.51791 0.24064
 C264 C 0.56960 0.45009 0.22389
 C265 C 0.56717 0.58098 0.28260
 C266 C 0.65982 0.53876 0.18175
 C267 C 0.65858 0.48651 0.31759
 C268 C 0.89199 0.49495 0.76267
 H269 H 0.89123 0.51261 0.77096
 C270 C 0.90509 0.47511 0.77360
 H271 H 0.91459 0.47749 0.79029
 C272 C 0.87950 0.46983 0.73152
 H273 H 0.86897 0.46762 0.71554
 C274 C 0.89238 0.44954 0.74185
 H275 H 0.89188 0.43187 0.73365
 N276 N 0.87948 0.49198 0.74205
 C277 C 0.86637 0.56473 0.70741
 H278 H 0.84676 0.56435 0.70538
 C279 C 0.87907 0.58531 0.69895
 H280 H 0.86925 0.60086 0.69038
 C281 C 0.90316 0.54496 0.72112
 H282 H 0.91249 0.52915 0.72962
 C283 C 0.91658 0.56521 0.71290
 H284 H 0.93620 0.56500 0.71523
 Zn285 Zn 0.85935 0.51864 0.73015
 N286 N 0.87845 0.54526 0.71858
 C287 C 0.83878 0.55153 0.76471
 N288 N 0.83833 0.52826 0.75684
 C289 C 0.82543 0.51075 0.76968
 C290 C 0.81286 0.51625 0.79177
 C291 C 0.82640 0.55780 0.78656
 C292 C 0.85515 0.50440 0.68259
 C293 C 0.84408 0.49586 0.66228
 C294 C 0.80514 0.49708 0.68516
 C295 C 0.81698 0.50569 0.70513
 N296 N 0.84164 0.50874 0.70358
 H297 H 0.84962 0.56503 0.75471
 H298 H 0.82584 0.49225 0.76332
 H299 H 0.80343 0.50200 0.80238
 H300 H 0.82760 0.57615 0.79310
 H301 H 0.87468 0.50712 0.68188
 H302 H 0.85512 0.49193 0.64584
 H303 H 0.78563 0.49411 0.68661
 H304 H 0.80657 0.50950 0.72191
 C305 C 0.90437 0.58562 0.70189
 C306 C 0.90509 0.45216 0.76319
 C307 C 0.81892 0.49191 0.66364
 C308 C 0.81371 0.53992 0.80043
 C309 C 0.26388 0.38946 -0.00589
 H310 H 0.27223 0.38852 0.01176
 C311 C 0.27491 0.40252 -0.02570
 H312 H 0.29174 0.41180 -0.02331
 C313 C 0.23245 0.37750 -0.03099
 H314 H 0.21630 0.36721 -0.03320
 C315 C 0.24288 0.39035 -0.05125
 H316 H 0.23459 0.39007 -0.06891
 N317 N 0.24307 0.37725 -0.00886
 C318 C 0.20849 0.36478 0.06394
 H319 H 0.20620 0.34520 0.06373
 C320 C 0.20033 0.37771 0.08443
 H321 H 0.19172 0.36808 0.10009
 C322 C 0.22257 0.40129 0.04382
 H323 H 0.23110 0.41043 0.02791
 C324 C 0.21467 0.41492 0.06396
 H325 H 0.21725 0.43451 0.06357
 Zn326 Zn 0.23097 0.35730 0.01784
 N327 N 0.21972 0.37661 0.04434
 C328 C 0.26541 0.33638 0.05077
 N329 N 0.25745 0.33600 0.02751
 C330 C 0.27016 0.32304 0.01002
 C331 C 0.29223 0.31039 0.01549
 C332 C 0.28724 0.32392 0.05701
 C333 C 0.18328 0.35363 0.00361
 C334 C 0.16284 0.34280 -0.00497
 C335 C 0.18532 0.30364 -0.00371
 C336 C 0.20543 0.31524 0.00495
 N337 N 0.20415 0.33990 0.00799
 H338 H 0.25552 0.34727 0.06426
 H339 H 0.26374 0.32352 -0.00847
 H340 H 0.30276 0.30094 0.00124
 H341 H 0.29386 0.32509 0.07533
 H342 H 0.18277 0.37316 0.00632
 H343 H 0.14651 0.35401 -0.00894
 H344 H 0.18658 0.28413 -0.00668
 H345 H 0.22212 0.30466 0.00878
 C346 C 0.20362 0.40296 0.08450
 C347 C 0.26440 0.40278 -0.04862
 C348 C 0.16394 0.31765 -0.00892
 C349 C 0.30100 0.31120 0.03912
 C350 C 0.78460 0.07680 1.03777
 H351 H 0.79316 0.07574 1.01958
 C352 C 0.79498 0.06361 1.05757
 H353 H 0.81149 0.05221 1.05464
 C354 C 0.75334 0.09389 1.06415
 H355 H 0.73756 0.10624 1.06682
 C356 C 0.76310 0.08102 1.08440
 H357 H 0.75461 0.08331 1.10251
 N358 N 0.76418 0.09163 1.04139
 C359 C 0.73172 0.10608 0.97040
 H360 H 0.73011 0.12588 0.97088
 C361 C 0.72305 0.09429 0.95061
 H362 H 0.71471 0.10503 0.93576
 C363 C 0.74436 0.06789 0.98935
 H364 H 0.75246 0.05774 1.00463
 C365 C 0.73586 0.05532 0.96980
 H366 H 0.73751 0.03546 0.96998
 Zn367 Zn 0.75284 0.11164 1.01465
 N368 N 0.74233 0.09286 0.98913
 C369 C 0.78814 0.12890 0.97927
 N370 N 0.77920 0.13096 1.00279
 C371 C 0.78972 0.14571 1.01846
 C372 C 0.80974 0.15956 1.01043
 C373 C 0.80807 0.14238 0.97054
 C374 C 0.70459 0.11969 1.03185
 C375 C 0.68324 0.13294 1.03899
 C376 C 0.70472 0.17048 1.03110
 C377 C 0.72573 0.15650 1.02408
 N378 N 0.72534 0.13155 1.02483
 H379 H 0.78007 0.11658 0.96728
 H380 H 0.78257 0.14664 1.03720
 H381 H 0.81797 0.17134 1.02295
 H382 H 0.81502 0.14064 0.95178
 H383 H 0.70470 0.09986 1.03188
 H384 H 0.66686 0.12332 1.04470
 H385 H 0.70515 0.19032 1.03058
 H386 H 0.74220 0.16561 1.01790
 C387 C 0.72517 0.06872 0.95025
 C388 C 0.78421 0.06593 1.08112
 C389 C 0.68332 0.15855 1.03865
 C390 C 0.81895 0.15785 0.98623
 C391 C 0.28223 0.57807 0.53818
 H392 H 0.29080 0.57710 0.51999
 C393 C 0.29265 0.56485 0.55794
 H394 H 0.30919 0.55351 0.55497
 C395 C 0.25092 0.59500 0.56462
 H396 H 0.23511 0.60730 0.56733
 C397 C 0.26071 0.58209 0.58482
 H398 H 0.25222 0.58429 0.60294
 N399 N 0.26178 0.59284 0.54185
 C400 C 0.22946 0.60749 0.47083
 H401 H 0.22784 0.62729 0.47133
 C402 C 0.22087 0.59573 0.45098
 H403 H 0.21258 0.60649 0.43611
 C404 C 0.24204 0.56929 0.48977
 H405 H 0.25010 0.55911 0.50506
 C406 C 0.23363 0.55674 0.47016
 H407 H 0.23530 0.53688 0.47030
 Zn408 Zn 0.25049 0.61295 0.51517
 N409 N 0.24000 0.59425 0.48958
 C410 C 0.28595 0.63018 0.47994
 N411 N 0.27693 0.63222 0.50343
 C412 C 0.28752 0.64679 0.51922
 C413 C 0.30774 0.66042 0.51137
 C414 C 0.30609 0.64345 0.47138
 C415 C 0.20223 0.62103 0.53233
 C416 C 0.18090 0.63430 0.53949
 C417 C 0.20248 0.67181 0.53180
 C418 C 0.22346 0.65782 0.52476
 N419 N 0.22301 0.63288 0.52539
 H420 H 0.27783 0.61800 0.46785
 H421 H 0.28030 0.64769 0.53794
 H422 H 0.31605 0.67203 0.52399
 H423 H 0.31312 0.64171 0.45265
 H424 H 0.20230 0.60121 0.53227
 H425 H 0.16449 0.62470 0.54512
 H426 H 0.20295 0.69165 0.53137
 H427 H 0.23997 0.66691 0.51866
 C428 C 0.22301 0.57016 0.45059
 C429 C 0.28187 0.56706 0.58150
 C430 C 0.18103 0.65991 0.53926
 C431 C 0.31707 0.65870 0.48721
 C432 C 0.76491 0.88907 0.49440
 H433 H 0.77312 0.88827 0.51212
 C434 C 0.77607 0.90200 0.47457
 H435 H 0.79286 0.91132 0.47702
 C436 C 0.73368 0.87691 0.46916
 H437 H 0.71756 0.86659 0.46692
 C438 C 0.74424 0.88962 0.44888
 H439 H 0.73608 0.88922 0.43118
 N440 N 0.74413 0.87683 0.49137
 C441 C 0.70894 0.86497 0.56399
 H442 H 0.70661 0.84539 0.56387
 C443 C 0.70062 0.87802 0.58433
 H444 H 0.69186 0.86850 0.59997
 C445 C 0.72328 0.90133 0.54380
 H446 H 0.73197 0.91036 0.52791
 C447 C 0.71522 0.91510 0.56380
 H448 H 0.71786 0.93467 0.56333
 Zn449 Zn 0.73177 0.85711 0.51815
 N450 N 0.72037 0.87665 0.54443
 C451 C 0.76589 0.83639 0.55151
 N452 N 0.75810 0.83579 0.52821
 C453 C 0.77086 0.82257 0.51095
 C454 C 0.79281 0.80985 0.51672
 C455 C 0.78761 0.82387 0.55804
 C456 C 0.68419 0.85351 0.50361
 C457 C 0.66372 0.84268 0.49509
 C458 C 0.68596 0.80341 0.49696
 C459 C 0.70610 0.81501 0.50554
 N460 N 0.70495 0.83972 0.50825
 H461 H 0.75597 0.84747 0.56481
 H462 H 0.76458 0.82287 0.49242
 H463 H 0.80340 0.80020 0.50265
 H464 H 0.79411 0.82522 0.57639
 H465 H 0.68378 0.87309 0.50607
 H466 H 0.64746 0.85394 0.49094
 H467 H 0.68710 0.78384 0.49428
 H468 H 0.72271 0.80438 0.50959
 C469 C 0.70396 0.90327 0.58431
 C470 C 0.76572 0.90211 0.45158
 C471 C 0.66467 0.81747 0.49150
 C472 C 0.80143 0.81088 0.54040
 C473 C -0.00603 0.26452 0.39008
 H474 H 0.01162 0.27287 0.38910
 C475 C -0.02577 0.27546 0.40327
 H476 H -0.02331 0.29222 0.41261
 C477 C -0.03123 0.23318 0.37808
 H478 H -0.03351 0.21711 0.36772
 C479 C -0.05142 0.24352 0.39105
 H480 H -0.06909 0.23524 0.39080
 N481 N -0.00909 0.24380 0.37778
 C482 C 0.06367 0.20936 0.36488
 H483 H 0.06336 0.20725 0.34529
 C484 C 0.08422 0.20105 0.37768
 H485 H 0.09983 0.19251 0.36796
 C486 C 0.04374 0.22311 0.40153
 H487 H 0.02787 0.23155 0.41077
 C488 C 0.06394 0.21504 0.41505
 H489 H 0.06365 0.21743 0.43465
 Zn490 Zn 0.01749 0.23182 0.35768
 N491 N 0.04414 0.22048 0.37683
 C492 C 0.05026 0.26644 0.33676
 N493 N 0.02702 0.25842 0.33642
 C494 C 0.00944 0.27113 0.32352
 C495 C 0.01481 0.29325 0.31087
 C496 C 0.05641 0.28833 0.32430
 C497 C 0.00326 0.18416 0.35399
 C498 C -0.00529 0.16371 0.34316
 C499 C -0.00417 0.18629 0.30402
 C500 C 0.00445 0.20640 0.31563
 N501 N 0.00756 0.20507 0.34027
 H502 H 0.06382 0.25655 0.34760
 H503 H -0.00904 0.26466 0.32402
 H504 H 0.00050 0.30377 0.30146
 H505 H 0.07472 0.29499 0.32544
 H506 H 0.00602 0.18360 0.37351
 H507 H -0.00917 0.14733 0.35436
 H508 H -0.00716 0.18758 0.28451
 H509 H 0.00823 0.22313 0.30505
 C510 C 0.08442 0.20408 0.40296
 C511 C -0.04870 0.26495 0.40358
 C512 C -0.00928 0.16485 0.31802
 C513 C 0.03844 0.30208 0.31163
 C514 C 1.03840 0.78655 0.07622
 H515 H 1.02022 0.79513 0.07507
 C516 C 1.05826 0.79699 0.06319
 H517 H 1.05539 0.81356 0.05182
 C518 C 1.06469 0.75519 0.09339
 H519 H 1.06730 0.73935 0.10571
 C520 C 1.08499 0.76499 0.08067
 H521 H 1.10309 0.75649 0.08305
 N522 N 1.04195 0.76606 0.09101
 C523 C 0.97084 0.73371 0.10512
 H524 H 0.97128 0.73203 0.12492
 C525 C 0.95105 0.72511 0.09325
 H526 H 0.93616 0.71677 0.10392
 C527 C 0.98988 0.74642 0.06703
 H528 H 1.00519 0.75452 0.05694
 C529 C 0.97033 0.73800 0.05437
 H530 H 0.97054 0.73971 0.03452
 Zn531 Zn 1.01513 0.75470 0.11089
 N532 N 0.98962 0.74431 0.09199
 C533 C 0.97978 0.79003 0.12805
 N534 N 1.00328 0.78102 0.13018
 C535 C 1.01896 0.79144 0.14500
 C536 C 1.01097 0.81143 0.15885
 C537 C 0.97109 0.80994 0.14153
 C538 C 1.03223 0.70638 0.11898
 C539 C 1.03926 0.68498 0.13226
 C540 C 1.03122 0.70637 0.16977
 C541 C 1.02433 0.72743 0.15577
 N542 N 1.02519 0.72711 0.13082
 H543 H 0.96778 0.78204 0.11569
 H544 H 1.03768 0.78423 0.14599
 H545 H 1.02349 0.81957 0.17069
 H546 H 0.95234 0.81694 0.13975
 H547 H 1.03235 0.70655 0.09916
 H548 H 1.04497 0.66861 0.12267
 H549 H 1.03060 0.70674 0.18961
 H550 H 1.01813 0.74388 0.16485
 C551 C 0.95074 0.72731 0.06768
 C552 C 1.08180 0.78619 0.06563
 C553 C 1.03878 0.68498 0.15788
 C554 C 0.98679 0.82071 0.15708
 C555 C 0.53775 0.28271 0.57775
 H556 H 0.51955 0.29126 0.57665
 C557 C 0.55755 0.29314 0.56462
 H558 H 0.55462 0.30969 0.55324
 C559 C 0.56413 0.25140 0.59487
 H560 H 0.56680 0.23560 0.60722
 C561 C 0.58438 0.26121 0.58207
 H562 H 0.60250 0.25273 0.58440
 N563 N 0.54137 0.26225 0.59256
 C564 C 0.47033 0.22983 0.60685
 H565 H 0.47074 0.22823 0.62665
 C566 C 0.45058 0.22114 0.59499
 H567 H 0.43568 0.21281 0.60567
 C568 C 0.48942 0.24241 0.56873
 H569 H 0.50474 0.25049 0.55864
 C570 C 0.46991 0.23390 0.55608
 H571 H 0.47015 0.23553 0.53623
 Zn572 Zn 0.51463 0.25089 0.61253
 N573 N 0.48911 0.24041 0.59370
 C574 C 0.47930 0.28626 0.62967
 N575 N 0.50281 0.27727 0.63177
 C576 C 0.51855 0.28779 0.64644
 C577 C 0.51064 0.30791 0.66013
 C578 C 0.47068 0.30629 0.64300
 C579 C 0.53181 0.20263 0.62064
 C580 C 0.53903 0.18128 0.63391
 C581 C 0.53126 0.20275 0.67141
 C582 C 0.52416 0.22376 0.65741
 N583 N 0.52482 0.22337 0.63248
 H584 H 0.46725 0.27817 0.61742
 H585 H 0.53728 0.28060 0.64739
 H586 H 0.52322 0.31617 0.67183
 H587 H 0.45194 0.31330 0.64122
 H588 H 0.53178 0.20275 0.60082
 H589 H 0.54472 0.16491 0.62431
 H590 H 0.53082 0.20318 0.69124
 H591 H 0.51802 0.24023 0.66650
 C592 C 0.45031 0.22323 0.56941
 C593 C 0.58111 0.28238 0.56700
 C594 C 0.53879 0.18136 0.65951
 C595 C 0.48646 0.31721 0.65836
 C596 C 0.49216 0.76447 0.89085
 H597 H 0.50986 0.77272 0.88990
 C598 C 0.47243 0.77559 0.90389
 H599 H 0.47494 0.79239 0.91316
 C600 C 0.46684 0.73321 0.87892
 H601 H 0.46452 0.71709 0.86863
 C602 C 0.44665 0.74373 0.89175
 H603 H 0.42893 0.73555 0.89146
 N604 N 0.48904 0.74370 0.87866
 C605 C 0.56162 0.70873 0.86603
 H606 H 0.56117 0.70634 0.84649
 C607 C 0.58225 0.70061 0.87878
 H608 H 0.59778 0.69192 0.86907
 C609 C 0.54199 0.72311 0.90257
 H610 H 0.52622 0.73178 0.91178
 C611 C 0.56230 0.71525 0.91604
 H612 H 0.56219 0.71800 0.93557
 Zn613 Zn 0.51565 0.73150 0.85870
 N614 N 0.54220 0.72011 0.87794
 C615 C 0.54876 0.76574 0.83775
 N616 N 0.52543 0.75795 0.83737
 C617 C 0.50802 0.77076 0.82434
 C618 C 0.51365 0.79275 0.81159
 C619 C 0.55517 0.78749 0.82518
 C620 C 0.50112 0.68389 0.85503
 C621 C 0.49271 0.66343 0.84412
 C622 C 0.49447 0.68587 0.80492
 C623 C 0.50294 0.70600 0.81660
 N624 N 0.50568 0.70474 0.84130
 H625 H 0.56219 0.75577 0.84868
 H626 H 0.48947 0.76446 0.82480
 H627 H 0.49948 0.80336 0.80207
 H628 H 0.57355 0.79397 0.82634
 H629 H 0.50362 0.68339 0.87460
 H630 H 0.48866 0.64708 0.85531
 H631 H 0.49180 0.68708 0.78535
 H632 H 0.50693 0.72268 0.80603
 C633 C 0.58268 0.70409 0.90396
 C634 C 0.44943 0.76521 0.90416
 C635 C 0.48913 0.66448 0.81890
 C636 C 0.53737 0.80135 0.81238
 C637 C 0.42701 -0.11759 0.32709
 C638 C 0.42423 -0.14436 0.31976
 C639 C 0.45155 -0.14974 0.32430
 C640 C 0.45448 -0.12327 0.33183
 C641 C 0.43401 -0.11046 0.30023
 C642 C 0.46134 -0.11581 0.30475
 C643 C 0.43108 -0.13693 0.29270
 C644 C 0.45858 -0.14265 0.29744
 C645 C 0.46083 -0.17155 0.33812
 C646 C 0.46804 -0.18938 0.34994
 C647 C 0.42362 -0.08868 0.28718
 C648 C 0.41441 -0.07090 0.27676
 H649 H 0.41393 -0.10705 0.33915
 H650 H 0.40907 -0.15634 0.32608
 H651 H 0.46420 -0.11790 0.34808
 H652 H 0.47648 -0.10381 0.29843
 H653 H 0.42135 -0.14230 0.27646
 H654 H 0.47167 -0.15322 0.28542
 C655 C 0.95650 0.39055 0.81654
 C656 C 0.94114 0.37403 0.83458
 C657 C 0.95262 0.35127 0.82224
 C658 C 0.96815 0.36744 0.80441
 C659 C 0.93571 0.39099 0.79844
 C660 C 0.94718 0.36824 0.78607
 C661 C 0.92022 0.37479 0.81629
 C662 C 0.93182 0.35172 0.80414
 C663 C 0.96159 0.32925 0.83595
 C664 C 0.96860 0.31130 0.84772
 C665 C 0.92565 0.41302 0.78552
 C666 C 0.91668 0.43099 0.77520
 H667 H 0.96654 0.40676 0.82150
 H668 H 0.93875 0.37616 0.85468
 H669 H 0.98796 0.36414 0.79967
 H670 H 0.94956 0.36613 0.76597
 H671 H 0.90040 0.37806 0.82105
 H672 H 0.92177 0.33552 0.79919
 C673 C 0.04828 1.15517 0.83385
 C674 C 0.04368 1.17980 0.81924
 C675 C 0.01862 1.18290 0.83292
 C676 C 0.02308 1.15861 0.84770
 C677 C 0.03576 1.14184 0.81390
 C678 C 0.01070 1.14491 0.82758
 C679 C 0.03130 1.16614 0.79914
 C680 C 0.00609 1.16958 0.81298
 C681 C 0.00938 1.20593 0.84340
 C682 C 0.00196 1.22497 0.85193
 C683 C 0.04589 1.11926 0.80316
 C684 C 0.05492 1.10105 0.79417
 H685 H 0.06574 1.14900 0.84233
 H686 H 0.05714 1.19438 0.81592
 H687 H 0.01960 1.15578 0.86779
 H688 H -0.00275 1.13031 0.83089
 H689 H 0.03478 1.16899 0.77905
 H690 H -0.01137 1.17578 0.80450
 C691 C 0.50869 0.64958 0.31754
 C692 C 0.51287 0.65680 0.34414
 C693 C 0.51876 0.68282 0.33434
 C694 C 0.51442 0.67596 0.30793
 C695 C 0.53611 0.64224 0.31450
 C696 C 0.54197 0.66827 0.30473
 C697 C 0.54045 0.64910 0.34091
 C698 C 0.54616 0.67545 0.33129
 C699 C 0.50939 0.70561 0.34520
 C700 C 0.50185 0.72451 0.35394
 C701 C 0.54634 0.61995 0.30328
 C702 C 0.55543 0.60197 0.29391
 H703 H 0.49340 0.63869 0.31177
 H704 H 0.50081 0.65235 0.36048
 H705 H 0.50362 0.68727 0.29449
 H706 H 0.55403 0.67275 0.28839
 H707 H 0.55125 0.63780 0.35435
 H708 H 0.56147 0.68633 0.33705
 C709 C 0.55189 0.36459 0.19907
 C710 C 0.52632 0.35352 0.20357
 C711 C 0.52486 0.35085 0.17579
 C712 C 0.55029 0.36159 0.17116
 C713 C 0.53937 0.39025 0.19610
 C714 C 0.53789 0.38752 0.16832
 C715 C 0.51392 0.37957 0.20078
 C716 C 0.51232 0.37650 0.17279
 C717 C 0.51763 0.32903 0.16370
 C718 C 0.51239 0.31134 0.15292
 C719 C 0.54859 0.41203 0.20674
 C720 C 0.55746 0.42964 0.21487
 H721 H 0.56826 0.35992 0.21000
 H722 H 0.52150 0.33928 0.21792
 H723 H 0.56518 0.35397 0.15887
 H724 H 0.54272 0.40173 0.15394
 H725 H 0.49907 0.38724 0.21308
 H726 H 0.49596 0.38114 0.16184
 C727 C 0.02152 0.89027 0.67439
 C728 C 0.03882 0.87087 0.66197
 C729 C 0.02398 0.85045 0.67499
 C730 C 0.00651 0.86951 0.68725
 C731 C 0.03830 0.88935 0.69631
 C732 C 0.02346 0.86896 0.70940
 C733 C 0.05570 0.87024 0.68402
 C734 C 0.04076 0.84953 0.69690
 C735 C 0.01686 0.82892 0.66235
 C736 C 0.01173 0.81145 0.65114
 C737 C 0.04748 0.91086 0.70749
 C738 C 0.05635 0.92826 0.71602
 H739 H 0.01369 0.90725 0.66526
 H740 H 0.04509 0.87142 0.64234
 H741 H -0.01381 0.86893 0.68844
 H742 H 0.01723 0.86845 0.72903
 H743 H 0.07602 0.87076 0.68280
 H744 H 0.04860 0.83255 0.70602
 C745 C 0.93187 0.67345 0.68608
 C746 C 0.95880 0.67924 0.69063
 C747 C 0.96207 0.68797 0.66359
 C748 C 0.93533 0.68253 0.65892
 C749 C 0.94054 0.64752 0.67880
 C750 C 0.94382 0.65628 0.65177
 C751 C 0.96729 0.65294 0.68349
 C752 C 0.97075 0.66205 0.65630
 C753 C 0.97373 0.71055 0.65471
 C754 C 0.98301 0.72910 0.64688
 C755 C 0.92817 0.62516 0.68711
 C756 C 0.91756 0.60699 0.69385
 H757 H 0.91574 0.67789 0.69841
 H758 H 0.96508 0.68893 0.70651
 H759 H 0.92231 0.69495 0.64873
 H760 H 0.93754 0.64660 0.63588
 H761 H 0.98029 0.64050 0.69368
 H762 H 0.98688 0.65762 0.64397
 C763 C 0.42559 0.16855 0.17167
 C764 C 0.44096 0.18392 0.18803
 C765 C 0.46081 0.18549 0.16726
 C766 C 0.44562 0.17044 0.15079
 C767 C 0.43885 0.14509 0.18182
 C768 C 0.45870 0.14666 0.16105
 C769 C 0.45403 0.16011 0.19832
 C770 C 0.47410 0.16204 0.17741
 C771 C 0.47267 0.20803 0.15862
 C772 C 0.48203 0.22655 0.15084
 C773 C 0.42623 0.12275 0.18970
 C774 C 0.41545 0.10458 0.19607
 H775 H 0.40551 0.17097 0.16937
 H776 H 0.43380 0.19949 0.19903
 H777 H 0.44228 0.17494 0.13116
 H778 H 0.46585 0.13109 0.15004
 H779 H 0.45735 0.15559 0.21795
 H780 H 0.49418 0.15964 0.17969
 C781 C 0.32770 0.43644 -0.11169
 C782 C 0.32825 0.42505 -0.13717
 C783 C 0.32373 0.45080 -0.14906
 C784 C 0.32338 0.46236 -0.12390
 C785 C 0.29980 0.43362 -0.10956
 C786 C 0.29525 0.45938 -0.12142
 C787 C 0.30016 0.42208 -0.13473
 C788 C 0.29583 0.44798 -0.14696
 C789 C 0.33747 0.45993 -0.17097
 C790 C 0.34924 0.46709 -0.18885
 C791 C 0.28682 0.42345 -0.08763
 C792 C 0.27645 0.41441 -0.06973
 H793 H 0.34067 0.43160 -0.09695
 H794 H 0.34196 0.41102 -0.14389
 H795 H 0.33309 0.47903 -0.11971
 H796 H 0.28153 0.47338 -0.11467
 H797 H 0.29047 0.40540 -0.13894
 H798 H 0.28288 0.45283 -0.16171
 C799 C 0.82937 0.93376 0.38782
 C800 C 0.82826 0.92369 0.36186
 C801 C 0.82524 0.95014 0.35122
 C802 C 0.82655 0.96036 0.37688
 C803 C 0.80129 0.93288 0.39069
 C804 C 0.79825 0.95934 0.38008
 C805 C 0.79999 0.92267 0.36503
 C806 C 0.79716 0.94927 0.35406
 C807 C 0.83899 0.95934 0.32934
 C808 C 0.85076 0.96656 0.31148
 C809 C 0.78828 0.92269 0.41260
 C810 C 0.77787 0.91367 0.43048
 H811 H 0.84247 0.92728 0.40195
 H812 H 0.84073 0.90913 0.35412
 H813 H 0.83763 0.97597 0.38149
 H814 H 0.78576 0.97388 0.38784
 H815 H 0.78892 0.90705 0.36040
 H816 H 0.78408 0.95575 0.33991
 C817 C 0.80655 0.04135 1.16848
 C818 C 0.80856 0.01386 1.17678
 C819 C 0.83529 0.01712 1.18332
 C820 C 0.83342 0.04447 1.17534
 C821 C 0.81576 0.03458 1.14257
 C822 C 0.84249 0.03784 1.14910
 C823 C 0.81760 0.00722 1.15051
 C824 C 0.84452 0.01032 1.15741
 C825 C 0.84600 0.00772 1.20621
 C826 C 0.85466 0.00021 1.22518
 C827 C 0.80470 0.04489 1.12018
 C828 C 0.79544 0.05407 1.10215
 H829 H 0.79081 0.05422 1.17280
 H830 H 0.79472 0.00390 1.18843
 H831 H 0.84004 0.05968 1.18580
 H832 H 0.85632 0.04779 1.13746
 H833 H 0.81098 -0.00798 1.14004
 H834 H 0.86027 -0.00255 1.15313
 C835 C 0.30458 0.54235 0.66875
 C836 C 0.30673 0.51484 0.67695
 C837 C 0.33347 0.51818 0.68337
 C838 C 0.33147 0.54555 0.67550
 C839 C 0.31369 0.53570 0.64277
 C840 C 0.34044 0.53904 0.64920
 C841 C 0.31568 0.50832 0.65062
 C842 C 0.34262 0.51150 0.65741
 C843 C 0.34432 0.50873 0.70617
 C844 C 0.35306 0.50113 0.72508
 C845 C 0.30251 0.54602 0.62047
 C846 C 0.29316 0.55521 0.60248
 H847 H 0.28880 0.55514 0.67318
 H848 H 0.29298 0.50479 0.68862
 H849 H 0.33807 0.56076 0.68597
 H850 H 0.35418 0.54910 0.63753
 H851 H 0.30907 0.49313 0.64013
 H852 H 0.35840 0.49871 0.65301
 C853 C 0.20487 0.54553 0.36430
 C854 C 0.20082 0.51848 0.35850
 C855 C 0.17456 0.52598 0.35129
 C856 C 0.17846 0.55286 0.35675
 C857 C 0.19499 0.54027 0.39071
 C858 C 0.16874 0.54772 0.38343
 C859 C 0.19112 0.51336 0.38532
 C860 C 0.16468 0.52072 0.37770
 C861 C 0.16243 0.51885 0.32946
 C862 C 0.15166 0.51366 0.31173
 C863 C 0.20571 0.54937 0.41251
 C864 C 0.21391 0.55813 0.43012
 H865 H 0.22154 0.55581 0.35903
 H866 H 0.21386 0.50638 0.34797
 H867 H 0.17315 0.56904 0.34478
 H868 H 0.15565 0.55982 0.39391
 H869 H 0.19644 0.49722 0.39732
 H870 H 0.14800 0.51045 0.38297
 C871 C 0.70319 0.01467 0.87811
 C872 C 0.67540 0.01050 0.87623
 C873 C 0.67584 0.02479 0.85132
 C874 C 0.70341 0.02882 0.85280
 C875 C 0.69666 0.03890 0.89059
 C876 C 0.69708 0.05315 0.86565
 C877 C 0.66910 0.03486 0.88906
 C878 C 0.66938 0.04900 0.86385
 C879 C 0.66347 0.01776 0.82959
 C880 C 0.65249 0.01264 0.81197
 C881 C 0.70759 0.04794 0.91231
 C882 C 0.71593 0.05668 0.92986
 H883 H 0.71721 0.00065 0.88425
 H884 H 0.66634 -0.00713 0.88032
 H885 H 0.71736 0.02626 0.83763
 H886 H 0.70611 0.07079 0.86153
 H887 H 0.65511 0.03742 0.90420
 H888 H 0.65536 0.06305 0.85777
 C889 C 0.65840 0.93369 0.66141
 C890 C 0.67341 0.93476 0.68472
 C891 C 0.66639 0.96225 0.68589
 C892 C 0.65125 0.96137 0.66288
 C893 C 0.68136 0.94036 0.64566
 C894 C 0.67434 0.96786 0.64679
 C895 C 0.69651 0.94124 0.66865
 C896 C 0.68935 0.96894 0.67016
 C897 C 0.65760 0.97400 0.70839
 C898 C 0.64980 0.98322 0.72695
 C899 C 0.68951 0.92770 0.62346
 C900 C 0.69610 0.91682 0.60545
 H901 H 0.64575 0.91908 0.65757
 H902 H 0.67294 0.92127 0.70056
 H903 H 0.63254 0.96978 0.66077
 H904 H 0.67481 0.98132 0.63093
 H905 H 0.71521 0.93281 0.67078
 H906 H 0.70198 0.98357 0.67403
 C907 C 0.15859 0.43316 0.16200
 C908 C 0.17376 0.43453 0.18517
 C909 C 0.16651 0.46198 0.18619
 C910 C 0.15121 0.46079 0.16334
 C911 C 0.18137 0.43992 0.14602
 C912 C 0.17413 0.46739 0.14702
 C913 C 0.19668 0.44111 0.16887
 C914 C 0.18930 0.46878 0.17024
 C915 C 0.15772 0.47388 0.20861
 C916 C 0.14984 0.48328 0.22705
 C917 C 0.18941 0.42724 0.12382
 C918 C 0.19590 0.41639 0.10576
 H919 H 0.14604 0.41839 0.15837
 H920 H 0.17353 0.42115 0.20110
 H921 H 0.13242 0.46902 0.16132
 H922 H 0.17436 0.48075 0.13108
 H923 H 0.21548 0.43287 0.17089
 H924 H 0.20183 0.48356 0.17390
 C925 C -0.12479 0.31937 0.41984
 C926 C -0.14846 0.30728 0.43010
 C927 C -0.14894 0.32402 0.45201
 C928 C -0.12557 0.33629 0.44188
 C929 C -0.10949 0.30018 0.43472
 C930 C -0.10995 0.31691 0.45663
 C931 C -0.13284 0.28787 0.44484
 C932 C -0.13367 0.30483 0.46693
 C933 C -0.17083 0.33773 0.46117
 C934 C -0.18871 0.34948 0.46829
 C935 C -0.08760 0.28725 0.42446
 C936 C -0.06975 0.27693 0.41532
 H937 H -0.12089 0.32522 0.40038
 H938 H -0.16453 0.30348 0.41931
 H939 H -0.12283 0.35635 0.44076
 H940 H -0.09387 0.32071 0.46741
 H941 H -0.13557 0.26781 0.44595
 H942 H -0.13760 0.29901 0.48639
 C943 C 0.37985 0.82653 0.92523
 C944 C 0.35336 0.81744 0.92554
 C945 C 0.34951 0.82521 0.95217
 C946 C 0.37570 0.83450 0.95199
 C947 C 0.38878 0.80099 0.93498
 C948 C 0.38496 0.80876 0.96161
 C949 C 0.36260 0.79169 0.93515
 C950 C 0.35841 0.79968 0.96195
 C951 C 0.32774 0.83914 0.96130
 C952 C 0.30998 0.85110 0.96844
 C953 C 0.41059 0.78786 0.92480
 C954 C 0.42840 0.77738 0.91577
 H955 H 0.38890 0.83743 0.91003
 H956 H 0.34013 0.82115 0.91081
 H957 H 0.38083 0.85227 0.95902
 H958 H 0.39821 0.80504 0.97633
 H959 H 0.35747 0.77393 0.92811
 H960 H 0.34932 0.78880 0.97715
 C961 C 1.16823 0.81443 0.04704
 C962 C 1.18080 0.80971 0.02163
 C963 C 1.18427 0.83742 0.01769
 C964 C 1.17203 0.84229 0.04297
 C965 C 1.14341 0.81787 0.03482
 C966 C 1.14686 0.84558 0.03089
 C967 C 1.15564 0.81299 0.00953
 C968 C 1.15947 0.84089 0.00544
 C969 C 1.20724 0.84810 0.00846
 C970 C 1.22628 0.85668 0.00106
 C971 C 1.12097 0.80678 0.04494
 C972 C 1.10288 0.79748 0.05395
 H973 H 1.17161 0.80343 0.06425
 H974 H 1.19501 0.79508 0.01773
 H975 H 1.17901 0.85444 0.05663
 H976 H 1.13265 0.86021 0.03479
 H977 H 1.14865 0.80083 -0.00411
 H978 H 1.15613 0.85190 -0.01178
 C979 C 0.66793 0.30872 0.54661
 C980 C 0.67904 0.30616 0.52022
 C981 C 0.68330 0.33384 0.51873
 C982 C 0.67252 0.33655 0.54498
 C983 C 0.64256 0.31414 0.53598
 C984 C 0.64681 0.34183 0.53450
 C985 C 0.65332 0.31142 0.50973
 C986 C 0.65794 0.33929 0.50808
 C987 C 0.70617 0.34463 0.50942
 C988 C 0.72512 0.35335 0.50194
 C989 C 0.62018 0.30300 0.54617
 C990 C 0.60214 0.29367 0.55525
 H991 H 0.67181 0.29601 0.56256
 H992 H 0.69255 0.29161 0.51427
 H993 H 0.68066 0.34699 0.55937
 H994 H 0.63329 0.35637 0.54046
 H995 H 0.64517 0.30097 0.49535
 H996 H 0.65410 0.35200 0.49213
 C997 C 0.38873 0.16699 0.53663
 C998 C 0.36308 0.16853 0.54980
 C999 C 0.35155 0.17400 0.52487
 C1000 C 0.37691 0.17229 0.51155
 C1001 C 0.39078 0.19472 0.53926
 C1002 C 0.37931 0.20025 0.51431
 C1003 C 0.36540 0.19641 0.55255
 C1004 C 0.35355 0.20174 0.52748
 C1005 C 0.32980 0.16173 0.51770
 C1006 C 0.31212 0.15088 0.51251
 C1007 C 0.41246 0.20563 0.54844
 C1008 C 0.42997 0.21397 0.55728
 H1009 H 0.40343 0.15281 0.54046
 H1010 H 0.35618 0.15538 0.56433
 H1011 H 0.38138 0.16223 0.49460
 H1012 H 0.38626 0.21342 0.49981
 H1013 H 0.36090 0.20644 0.56951
 H1014 H 0.33882 0.21588 0.52365
 C1015 C 0.88900 0.67120 0.03513
 C1016 C 0.86338 0.67278 0.04835
 C1017 C 0.85179 0.67817 0.02344
 C1018 C 0.87712 0.67643 0.01007
 C1019 C 0.89106 0.69894 0.03767
 C1020 C 0.87953 0.70440 0.01273
 C1021 C 0.86571 0.70067 0.05101
 C1022 C 0.85380 0.70592 0.02596
 C1023 C 0.83005 0.66582 0.01636
 C1024 C 0.81244 0.65483 0.01120
 C1025 C 0.91279 0.70983 0.04676
 C1026 C 0.93035 0.71814 0.05556
 H1027 H 0.90370 0.65703 0.03897
 H1028 H 0.85651 0.65967 0.06295
 H1029 H 0.88155 0.66631 -0.00685
 H1030 H 0.88645 0.71752 -0.00182
 H1031 H 0.86125 0.71076 0.06794
 H1032 H 0.83906 0.72005 0.02212
 C1033 C 0.67018 0.67929 0.92639
 C1034 C 0.68197 0.69280 0.94697
 C1035 C 0.68592 0.66808 0.96113
 C1036 C 0.67445 0.65446 0.94072
 C1037 C 0.64506 0.68245 0.93995
 C1038 C 0.64901 0.65773 0.95411
 C1039 C 0.65649 0.69609 0.96036
 C1040 C 0.66081 0.67122 0.97472
 C1041 C 0.70873 0.65955 0.97253
 C1042 C 0.72748 0.65189 0.98151
 C1043 C 0.62249 0.69024 0.92771
 C1044 C 0.60418 0.69655 0.91715
 H1045 H 0.67378 0.68268 0.90639
 H1046 H 0.69578 0.70712 0.94417
 H1047 H 0.68210 0.63726 0.93275
 H1048 H 0.63522 0.64340 0.95691
 H1049 H 0.64883 0.71330 0.96831
 H1050 H 0.65724 0.66782 0.99473
 C1051 C 0.17128 0.17744 0.42643
 C1052 C 0.18309 0.19073 0.44716
 C1053 C 0.18629 0.16599 0.46146
 C1054 C 0.17481 0.15258 0.44091
 C1055 C 0.14605 0.18121 0.43961
 C1056 C 0.14925 0.15647 0.45391
 C1057 C 0.15750 0.19465 0.46016
 C1058 C 0.16106 0.16975 0.47466
 C1059 C 0.20875 0.15702 0.47323
 C1060 C 0.22724 0.14905 0.48252
 C1061 C 0.12380 0.18948 0.42705
 C1062 C 0.10571 0.19615 0.41629
 H1063 H 0.17524 0.18068 0.40646
 H1064 H 0.19725 0.20471 0.44452
 H1065 H 0.18218 0.13520 0.43311
 H1066 H 0.13510 0.14248 0.45655
 H1067 H 0.15011 0.21203 0.46794
 H1068 H 0.15712 0.16650 0.49464
 C1069 C 0.55154 0.09342 0.69699
 C1070 C 0.57812 0.08228 0.69467
 C1071 C 0.57849 0.07951 0.72277
 C1072 C 0.55208 0.09028 0.72534
 C1073 C 0.56193 0.11902 0.69838
 C1074 C 0.56231 0.11624 0.72648
 C1075 C 0.58833 0.10822 0.69584
 C1076 C 0.58884 0.10513 0.72413
 C1077 C 0.58844 0.05800 0.73663
 C1078 C 0.59744 0.04097 0.74839
 C1079 C 0.55322 0.14123 0.68477
 C1080 C 0.54647 0.15955 0.67341
 H1081 H 0.53609 0.08886 0.68567
 H1082 H 0.58470 0.06806 0.68175
 H1083 H 0.53728 0.08264 0.73761
 H1084 H 0.55573 0.13045 0.73942
 H1085 H 0.60315 0.11584 0.68358
 H1086 H 0.60429 0.10972 0.73543
 C1087 C 1.05938 0.61874 0.22490
 C1088 C 1.05077 0.59238 0.22190
 C1089 C 1.07769 0.58291 0.22129
 C1090 C 1.08643 0.60893 0.22451
 C1091 C 1.06135 0.62249 0.19684
 C1092 C 1.08826 0.61298 0.19627
 C1093 C 1.05257 0.59649 0.19359
 C1094 C 1.07966 0.58666 0.19324
 C1095 C 1.08763 0.56139 0.23515
 C1096 C 1.09673 0.54438 0.24685
 C1097 C 1.05281 0.64473 0.18319
 C1098 C 1.04623 0.66310 0.17179
 H1099 H 1.05098 0.63218 0.23777
 H1100 H 1.03546 0.58365 0.23258
 H1101 H 1.10046 0.61382 0.23737
 H1102 H 1.10359 0.62169 0.18561
 H1103 H 1.03854 0.59164 0.18071
 H1104 H 1.08808 0.57322 0.18037
 C1105 C 0.97136 0.90004 0.20609
 C1106 C 0.95068 0.91783 0.19640
 C1107 C 0.93625 0.91406 0.22097
 C1108 C 0.95670 0.89661 0.23090
 C1109 C 0.95814 0.87843 0.19631
 C1110 C 0.94369 0.87471 0.22088
 C1111 C 0.93768 0.89589 0.18640
 C1112 C 0.92309 0.89242 0.21116
 C1113 C 0.92322 0.93326 0.23490
 C1114 C 0.91169 0.94831 0.24666
 C1115 C 0.96945 0.85817 0.18254
 C1116 C 0.97784 0.84120 0.17106
 H1117 H 0.99136 0.90292 0.20385
 H1118 H 0.95339 0.93579 0.18650
 H1119 H 0.96438 0.89715 0.24935
 H1120 H 0.94094 0.85677 0.23081
 H1121 H 0.92997 0.89536 0.16796
 H1122 H 0.90310 0.88950 0.21337
 C1123 C 0.44967 0.37367 0.72405
 C1124 C 0.46063 0.39893 0.72760
 C1125 C 0.43598 0.41154 0.72084
 C1126 C 0.42487 0.38657 0.71751
 C1127 C 0.45797 0.37553 0.69681
 C1128 C 0.43331 0.38816 0.69009
 C1129 C 0.46914 0.40047 0.70010
 C1130 C 0.44425 0.41342 0.69360
 C1131 C 0.42279 0.43092 0.73442
 C1132 C 0.41104 0.44606 0.74585
 C1133 C 0.46927 0.35505 0.68336
 C1134 C 0.47761 0.33790 0.67211
 H1135 H 0.45202 0.35711 0.73643
 H1136 H 0.47172 0.40361 0.74318
 H1137 H 0.40652 0.38105 0.72478
 H1138 H 0.42218 0.38351 0.67454
 H1139 H 0.48749 0.40593 0.69280
 H1140 H 0.44188 0.42999 0.68124
 C1141 C 0.43469 0.60491 0.77737
 C1142 C 0.44630 0.58310 0.76302
 C1143 C 0.43460 0.56521 0.78220
 C1144 C 0.42282 0.58667 0.79641
 C1145 C 0.45756 0.60454 0.79285
 C1146 C 0.44582 0.58658 0.81194
 C1147 C 0.46943 0.58312 0.77864
 C1148 C 0.45746 0.56487 0.79768
 C1149 C 0.42108 0.54334 0.77779
 C1150 C 0.40923 0.52549 0.77567
 C1151 C 0.46965 0.62628 0.80033
 C1152 C 0.47891 0.64390 0.80801
 H1153 H 0.42547 0.62162 0.76910
 H1154 H 0.44635 0.58139 0.74283
 H1155 H 0.40352 0.58792 0.80369
 H1156 H 0.44572 0.58822 0.83214
 H1157 H 0.48874 0.58193 0.77140
 H1158 H 0.46669 0.54817 0.80599
 C1159 C -0.03695 0.07941 0.30465
 C1160 C -0.06500 0.07667 0.30767
 C1161 C -0.06474 0.06577 0.28220
 C1162 C -0.03683 0.06820 0.27908
 C1163 C -0.04151 0.10504 0.29248
 C1164 C -0.04119 0.09423 0.26696
 C1165 C -0.06942 0.10255 0.29558
 C1166 C -0.06935 0.09138 0.27000
 C1167 C -0.07833 0.04389 0.27798
 C1168 C -0.09012 0.02599 0.27597
 C1169 C -0.02921 0.12675 0.29974
 C1170 C -0.01976 0.14433 0.30727
 H1171 H -0.02350 0.07470 0.31899
 H1172 H -0.07491 0.06925 0.32439
 H1173 H -0.02359 0.05382 0.27223
 H1174 H -0.03124 0.10173 0.25030
 H1175 H -0.08270 0.11688 0.30244
 H1176 H -0.08282 0.09605 0.25569
 C1177 C 0.04062 0.39452 0.28311
 C1178 C 0.05418 0.40899 0.30183
 C1179 C 0.07304 0.41636 0.28141
 C1180 C 0.05967 0.40233 0.26257
 C1181 C 0.05711 0.37175 0.28932
 C1182 C 0.07597 0.37909 0.26890
 C1183 C 0.07049 0.38588 0.30808
 C1184 C 0.08944 0.39353 0.28763
 C1185 C 0.08316 0.44077 0.27837
 C1186 C 0.09279 0.46026 0.27713
 C1187 C 0.04929 0.34678 0.29532
 C1188 C 0.04385 0.32627 0.30189
 H1189 H 0.02044 0.39462 0.28129
 H1190 H 0.04532 0.42152 0.31534
 H1191 H 0.05532 0.40942 0.24381
 H1192 H 0.08485 0.36653 0.25542
 H1193 H 0.07491 0.37889 0.32685
 H1194 H 0.10962 0.39334 0.28949
 C1195 C 0.54214 0.89248 0.77843
 C1196 C 0.55099 0.90893 0.79847
 C1197 C 0.57358 0.91498 0.78191
 C1198 C 0.56496 0.89899 0.76176
 C1199 C 0.55701 0.87064 0.78985
 C1200 C 0.57962 0.87670 0.77330
 C1201 C 0.56567 0.88673 0.80991
 C1202 C 0.58835 0.89307 0.79332
 C1203 C 0.58399 0.93927 0.77887
 C1204 C 0.59376 0.95868 0.77766
 C1205 C 0.54881 0.84581 0.79589
 C1206 C 0.54308 0.82542 0.80252
 H1207 H 0.52304 0.89192 0.77235
 H1208 H 0.53932 0.92244 0.80879
 H1209 H 0.56477 0.90435 0.74191
 H1210 H 0.59130 0.86318 0.76300
 H1211 H 0.56591 0.88146 0.82978
 H1212 H 0.60745 0.89354 0.79945
 C1213 C 0.72227 0.54975 0.10847
 C1214 C 0.71172 0.55384 0.08260
 C1215 C 0.72322 0.57908 0.08028
 C1216 C 0.73399 0.57514 0.10578
 C1217 C 0.69883 0.56215 0.11963
 C1218 C 0.71036 0.58737 0.11725
 C1219 C 0.68805 0.56608 0.09414
 C1220 C 0.69978 0.59145 0.09147
 C1221 C 0.73698 0.58934 0.05886
 C1222 C 0.74855 0.59870 0.04190
 C1223 C 0.68519 0.55329 0.14174
 C1224 C 0.67378 0.54647 0.16000
 H1225 H 0.73138 0.53251 0.11572
 H1226 H 0.71243 0.54018 0.06810
 H1227 H 0.75304 0.57896 0.11032
 H1228 H 0.70967 0.60106 0.13172
 H1229 H 0.66899 0.56226 0.08962
 H1230 H 0.69066 0.60869 0.08423
 C1231 C 0.18704 1.07648 0.60142
 C1232 C 0.21005 1.09210 0.60142
 C1233 C 0.22243 1.07592 0.58174
 C1234 C 0.19962 1.06043 0.58140
 C1235 C 0.19824 1.05909 0.62126
 C1236 C 0.21059 1.04287 0.60161
 C1237 C 0.22104 1.07459 0.62155
 C1238 C 0.23363 1.05854 0.60157
 C1239 C 0.23610 1.08613 0.56024
 C1240 C 0.24764 1.09545 0.54324
 C1241 C 0.18468 1.05031 0.64346
 C1242 C 0.17330 1.04358 0.66176
 H1243 H 0.16774 1.08379 0.60161
 H1244 H 0.20994 1.11245 0.60111
 H1245 H 0.19097 1.05473 0.56465
 H1246 H 0.21068 1.02252 0.60196
 H1247 H 0.22971 1.08032 0.63828
 H1248 H 0.25294 1.05125 0.60138
 C1249 C 0.18929 0.95958 0.90566
 C1250 C 0.19330 0.93146 0.91010
 C1251 C 0.22048 0.93523 0.91439
 C1252 C 0.21674 0.96315 0.91029
 C1253 C 0.19603 0.95667 0.87830
 C1254 C 0.22322 0.96043 0.88258
 C1255 C 0.19982 0.92876 0.88246
 C1256 C 0.22717 0.93235 0.88701
 C1257 C 0.23438 0.92245 0.93382
 C1258 C 0.24619 0.91112 0.94902
 C1259 C 0.18243 0.96774 0.85777
 C1260 C 0.17112 0.97596 0.84057
 H1261 H 0.17355 0.97092 0.91309
 H1262 H 0.18115 0.91942 0.92164
 H1263 H 0.22384 0.97713 0.92199
 H1264 H 0.23537 0.97246 0.87104
 H1265 H 0.19275 0.91472 0.87079
 H1266 H 0.24290 0.92101 0.87955
 C1267 C 0.72029 0.44155 0.37261
 C1268 C 0.73212 0.45479 0.39335
 C1269 C 0.72105 0.43614 0.41216
 C1270 C 0.70943 0.42275 0.39168
 C1271 C 0.69702 0.45809 0.37605
 C1272 C 0.68597 0.43943 0.39488
 C1273 C 0.70861 0.47154 0.39650
 C1274 C 0.69777 0.45266 0.41567
 C1275 C 0.73460 0.42297 0.43160
 C1276 C 0.74602 0.41123 0.44681
 C1277 C 0.68357 0.46937 0.35552
 C1278 C 0.67232 0.47768 0.33833
 H1279 H 0.72942 0.43711 0.35469
 H1280 H 0.75125 0.46096 0.39296
 H1281 H 0.70989 0.40255 0.38991
 H1282 H 0.66685 0.43324 0.39527
 H1283 H 0.70812 0.49175 0.39822
 H1284 H 0.68867 0.45706 0.43360
 C1285 C 0.77131 0.46662 0.58784
 C1286 C 0.78871 0.46288 0.56495
 C1287 C 0.78218 0.43576 0.56545
 C1288 C 0.76467 0.43922 0.58795
 C1289 C 0.79277 0.45936 0.60435
 C1290 C 0.78625 0.43224 0.60482
 C1291 C 0.81022 0.45585 0.58181
 C1292 C 0.80362 0.42860 0.58203
 C1293 C 0.77782 0.42190 0.54382
 C1294 C 0.77573 0.40981 0.52616
 C1295 C 0.80024 0.47183 0.62586
 C1296 C 0.80795 0.48137 0.64329
 H1297 H 0.75810 0.48240 0.59051
 H1298 H 0.78967 0.47533 0.54832
 H1299 H 0.74588 0.43222 0.59020
 H1300 H 0.78530 0.41977 0.62144
 H1301 H 0.82903 0.46281 0.57950
 H1302 H 0.81688 0.41284 0.57944
 C1303 C 0.30185 -0.06825 0.09783
 C1304 C 0.27586 -0.07539 0.09132
 C1305 C 0.28104 -0.06564 0.06484
 C1306 C 0.30694 -0.05868 0.07110
 C1307 C 0.29141 -0.04261 0.10417
 C1308 C 0.29658 -0.03287 0.07768
 C1309 C 0.26546 -0.04952 0.09800
 C1310 C 0.27055 -0.04000 0.07109
 C1311 C 0.27680 -0.07911 0.04291
 C1312 C 0.27485 -0.09082 0.02496
 C1313 C 0.29873 -0.03041 0.12591
 C1314 C 0.30630 -0.02104 0.14351
 H1315 H 0.31480 -0.07976 0.10902
 H1316 H 0.26729 -0.09302 0.09669
 H1317 H 0.32397 -0.06257 0.05984
 H1318 H 0.30518 -0.01526 0.07230
 H1319 H 0.24849 -0.04560 0.10933
 H1320 H 0.25761 -0.02854 0.05983
 C1321 C 0.26364 0.05798 0.38429
 C1322 C 0.27540 0.04648 0.40779
 C1323 C 0.28128 0.07233 0.41525
 C1324 C 0.26946 0.08396 0.39224
 C1325 C 0.28888 0.05623 0.37074
 C1326 C 0.29471 0.08204 0.37832
 C1327 C 0.30070 0.04459 0.39376
 C1328 C 0.30646 0.07053 0.40161
 C1329 C 0.27842 0.08250 0.43963
 C1330 C 0.27731 0.09214 0.45908
 C1331 C 0.29468 0.04832 0.34580
 C1332 C 0.30111 0.04281 0.32531
 H1333 H 0.24609 0.05272 0.37687
 H1334 H 0.26742 0.03198 0.42022
 H1335 H 0.25658 0.10027 0.39189
 H1336 H 0.30270 0.09661 0.36598
 H1337 H 0.31360 0.02830 0.39412
 H1338 H 0.32406 0.07578 0.40894
 C1339 C 0.77099 0.55009 0.88801
 C1340 C 0.78977 0.54854 0.90866
 C1341 C 0.78308 0.57542 0.91416
 C1342 C 0.76422 0.57717 0.89399
 C1343 C 0.79125 0.55912 0.86980
 C1344 C 0.78455 0.58598 0.87537
 C1345 C 0.81005 0.55740 0.89002
 C1346 C 0.80329 0.58435 0.89586
 C1347 C 0.77990 0.58573 0.93845
 C1348 C 0.77854 0.59549 0.95784
 C1349 C 0.79734 0.55109 0.84495
 C1350 C 0.80395 0.54549 0.82454
 H1351 H 0.75776 0.53591 0.88447
 H1352 H 0.79188 0.53326 0.92263
 H1353 H 0.74532 0.58540 0.89593
 H1354 H 0.78246 0.60130 0.86145
 H1355 H 0.82897 0.54920 0.88814
 H1356 H 0.81657 0.59853 0.89930
 C1357 C 0.09412 0.70056 0.54918
 C1358 C 0.08056 0.69558 0.57434
 C1359 C 0.07915 0.72331 0.57825
 C1360 C 0.09235 0.72853 0.55325
 C1361 C 0.11868 0.69882 0.56201
 C1362 C 0.11726 0.72655 0.56594
 C1363 C 0.10546 0.69363 0.58701
 C1364 C 0.10374 0.72154 0.59105
 C1365 C 0.05765 0.73723 0.58803
 C1366 C 0.04062 0.74906 0.59688
 C1367 C 0.14089 0.68518 0.55346
 C1368 C 0.15922 0.67381 0.54683
 H1369 H 0.09044 0.69177 0.53184
 H1370 H 0.06522 0.68302 0.57789
 H1371 H 0.08669 0.74302 0.53947
 H1372 H 0.13258 0.73913 0.56241
 H1373 H 0.11110 0.67916 0.60081
 H1374 H 0.10746 0.73031 0.60839
 C1375 C 0.61414 0.20038 1.08897
 C1376 C 0.60791 0.22792 1.08329
 C1377 C 0.58148 0.22156 1.07832
 C1378 C 0.58740 0.19420 1.08415
 C1379 C 0.62098 0.19732 1.06166
 C1380 C 0.59456 0.19091 1.05667
 C1381 C 0.61507 0.22468 1.05583
 C1382 C 0.58828 0.21852 1.05100
 C1383 C 0.55999 0.23528 1.08842
 C1384 C 0.54301 0.24687 1.09765
 C1385 C 0.64318 0.18376 1.05295
 C1386 C 0.66151 0.17243 1.04624
 H1387 H 0.62501 0.19281 1.10450
 H1388 H 0.61318 0.24330 1.09434
 H1389 H 0.57578 0.18181 1.09588
 H1390 H 0.58933 0.17553 1.04562
 H1391 H 0.62670 0.23707 1.04412
 H1392 H 0.57738 0.22612 1.03550
 C1393 C 0.87817 0.20398 0.92970
 C1394 C 0.88547 0.23000 0.93589
 C1395 C 0.91256 0.22107 0.93489
 C1396 C 0.90551 0.19523 0.92854
 C1397 C 0.87683 0.19682 0.95725
 C1398 C 0.90391 0.18785 0.95628
 C1399 C 0.88385 0.22265 0.96363
 C1400 C 0.91129 0.21394 0.96245
 C1401 C 0.93184 0.23470 0.92154
 C1402 C 0.94696 0.24612 0.90968
 C1403 C 0.85651 0.18320 0.96875
 C1404 C 0.83949 0.17180 0.97724
 H1405 H 0.86433 0.19977 0.91635
 H1406 H 0.87809 0.24747 0.92735
 H1407 H 0.91463 0.18410 0.91398
 H1408 H 0.91126 0.17036 0.96482
 H1409 H 0.87470 0.23378 0.97819
 H1410 H 0.92516 0.21818 0.97575
 C1411 C 0.40184 0.69702 0.46843
 C1412 C 0.41246 0.69267 0.44210
 C1413 C 0.41206 0.72057 0.43686
 C1414 C 0.40179 0.72518 0.46297
 C1415 C 0.37580 0.69679 0.45885
 C1416 C 0.37542 0.72469 0.45360
 C1417 C 0.38611 0.69223 0.43274
 C1418 C 0.38600 0.72029 0.42734
 C1419 C 0.43156 0.73402 0.42366
 C1420 C 0.44678 0.74538 0.41187
 C1421 C 0.35517 0.68348 0.47013
 C1422 C 0.33790 0.67234 0.47843
 H1423 H 0.40810 0.68730 0.48548
 H1424 H 0.42791 0.67966 0.43723
 H1425 H 0.40849 0.73887 0.47525
 H1426 H 0.35997 0.73771 0.45844
 H1427 H 0.37944 0.67855 0.42042
 H1428 H 0.37968 0.72998 0.41029
 C1429 C 0.59778 0.76567 0.45406
 C1430 C 0.57085 0.77248 0.46234
 C1431 C 0.56576 0.78141 0.43588
 C1432 C 0.59227 0.77451 0.42737
 C1433 C 0.60489 0.79181 0.45928
 C1434 C 0.59972 0.80069 0.43283
 C1435 C 0.57838 0.79871 0.46777
 C1436 C 0.57297 0.80750 0.44115
 C1437 C 0.54399 0.77713 0.42215
 C1438 C 0.52623 0.77508 0.41016
 C1439 C 0.62656 0.79913 0.47162
 C1440 C 0.64413 0.80669 0.48106
 H1441 H 0.60825 0.74855 0.45952
 H1442 H 0.55872 0.76082 0.47431
 H1443 H 0.59773 0.76451 0.41061
 H1444 H 0.61179 0.81237 0.42080
 H1445 H 0.57290 0.80873 0.48451
 H1446 H 0.56257 0.82468 0.43572
 C1447 C 0.09751 0.26603 -0.04730
 C1448 C 0.07050 0.27268 -0.03917
 C1449 C 0.06559 0.28183 -0.06561
 C1450 C 0.09218 0.27510 -0.07396
 C1451 C 0.10447 0.29213 -0.04176
 C1452 C 0.09948 0.30124 -0.06819
 C1453 C 0.07788 0.29886 -0.03342
 C1454 C 0.07265 0.30789 -0.06001
 C1455 C 0.04397 0.27760 -0.07958
 C1456 C 0.02633 0.27559 -0.09174
 C1457 C 0.12600 0.29940 -0.02918
 C1458 C 0.14348 0.30692 -0.01955
 H1459 H 0.10799 0.24890 -0.04191
 H1460 H 0.05832 0.26087 -0.02741
 H1461 H 0.09782 0.26527 -0.09079
 H1462 H 0.11160 0.31306 -0.08001
 H1463 H 0.07222 0.30871 -0.01661
 H1464 H 0.06223 0.32508 -0.06537
 C1465 C 0.39419 0.28976 0.04168
 C1466 C 0.40592 0.30506 0.06096
 C1467 C 0.41510 0.28116 0.07412
 C1468 C 0.40379 0.26571 0.05500
 C1469 C 0.37057 0.28898 0.05803
 C1470 C 0.37969 0.26505 0.07119
 C1471 C 0.38200 0.30434 0.07714
 C1472 C 0.39145 0.28040 0.09041
 C1473 C 0.43948 0.27815 0.08430
 C1474 C 0.45894 0.27692 0.09397
 C1475 C 0.34563 0.29494 0.05013
 C1476 C 0.32516 0.30147 0.04462
 H1477 H 0.39502 0.29365 0.02154
 H1478 H 0.41694 0.32149 0.05686
 H1479 H 0.41307 0.24979 0.04601
 H1480 H 0.36862 0.24866 0.07530
 H1481 H 0.37282 0.32028 0.08621
 H1482 H 0.39056 0.27654 0.11056
 C1483 C 0.87874 0.76728 0.57728
 C1484 C 0.90220 0.76268 0.56073
 C1485 C 0.91558 0.78099 0.57542
 C1486 C 0.89255 0.78548 0.59207
 C1487 C 0.87091 0.78865 0.55965
 C1488 C 0.88440 0.80686 0.57435
 C1489 C 0.89389 0.78416 0.54293
 C1490 C 0.90769 0.80234 0.55780
 C1491 C 0.94014 0.77817 0.58524
 C1492 C 0.95986 0.77721 0.59439
 C1493 C 0.84595 0.79456 0.55176
 C1494 C 0.82551 0.80111 0.54614
 H1495 H 0.86656 0.75293 0.58519
 H1496 H 0.90985 0.74448 0.55523
 H1497 H 0.89224 0.78602 0.61239
 H1498 H 0.87685 0.82509 0.57992
 H1499 H 0.89414 0.78366 0.52261
 H1500 H 0.91984 0.81673 0.54989
   
