data_POSCAR
  _audit_creation_date              2014-09-24
  _audit_creation_method            'ToBaCCo'
  _symmetry_space_group_name_H-M    'P1'
  _symmetry_Int_Tables_number       1
  _symmetry_cell_setting            triclinic
  loop_
  _symmetry_equiv_pos_as_xyz
 x,y,z
_cell_length_a 72.0827
_cell_length_b 72.0442
_cell_length_c 72.0375
_cell_angle_alpha 89.984500
_cell_angle_beta 89.993700
_cell_angle_gamma 90.008200
loop_
  _atom_site_label
  _atom_site_type_symbol
  _atom_site_fract_x
  _atom_site_fract_y
  _atom_site_fract_z
N1 N 0.34164 0.40818 0.90816
 N2 N 0.40588 0.84200 0.40591
 N3 N 0.90796 0.90586 0.84443
 N4 N 0.40582 -0.09438 0.34217
 N5 N 0.84438 0.34437 0.34219
 N6 N -0.15579 0.84213 0.84442
 N7 N 0.90799 0.34462 0.40598
 N8 N 0.40584 0.40737 0.84398
 N9 N 0.84392 0.90560 0.90790
 N10 N 0.34156 0.84173 0.34177
 N11 N 0.84412 0.40824 0.40597
 N12 N 0.90816 0.84173 -0.09122
 N13 N 0.34208 0.34385 0.84399
 N14 N 0.15693 0.59329 0.59350
 N15 N 0.59306 0.65682 0.09301
 N16 N 0.66684 0.16659 0.66673
 N17 N 1.09321 0.09348 0.15714
 N18 N 0.09289 0.15689 1.09300
 N19 N 0.15710 0.65719 0.65708
 N20 N 1.15688 0.15659 0.15714
 N21 N 0.66708 1.08301 0.58286
 N22 N 0.59309 0.59259 0.15717
 N23 N 0.65646 0.65689 0.15708
 N24 N 0.15682 0.09322 1.09292
 N25 N 0.58274 0.16751 0.58242
 N26 N 0.09305 0.59302 0.65690
 N27 N 0.65617 0.59291 0.09314
 N28 N 0.09294 0.65716 0.59379
 N29 N 0.58246 1.08202 0.66766
 N30 N 0.40575 0.34415 0.90779
 N31 N 0.90855 0.40830 0.34176
 N32 N 0.34220 0.90583 0.40574
 O33 O 0.24791 0.54946 0.72574
 O34 O 0.28112 0.54316 0.73149
 O35 O 0.22606 0.50215 0.70090
 O36 O 0.22713 0.47070 0.70565
 O37 O 0.20040 0.52449 0.74844
 O38 O 0.20666 0.52204 0.78151
 O39 O 0.27476 0.45229 0.75209
 O40 O 0.27044 0.45708 0.71963
 O41 O 0.29763 0.49849 0.77512
 O42 O 0.29050 0.53348 0.77163
 O43 O 0.25154 0.47574 0.79831
 O44 O 0.21747 0.47770 0.79211
 O45 O 0.25228 0.45226 0.77439
 O46 O 0.21742 0.45823 0.77129
 O47 O 0.27380 0.49820 0.79860
 O48 O 0.27153 0.53211 0.79311
 O49 O 0.29762 0.47565 0.75325
 O50 O 0.29262 0.48231 0.71910
 O51 O 0.22567 0.54955 0.74837
 O52 O 0.22790 0.54297 0.78174
 O53 O 0.20060 0.50216 0.72597
 O54 O 0.20765 0.46837 0.72948
 O55 O 0.24803 0.52503 0.70123
 O56 O 0.28131 0.51939 0.70775
 Zr57 Zr 0.26004 0.52291 0.72783
 O58 O 0.27773 0.50660 0.74444
 Zr59 Zr 0.22725 0.49018 0.72761
 O60 O 0.24376 0.47236 0.74390
 Zr61 Zr 0.22702 0.52285 0.76041
 O62 O 0.24323 0.50642 0.77831
 Zr63 Zr 0.27193 0.47849 0.73969
 O64 O 0.25550 0.49466 0.72151
 Zr65 Zr 0.27143 0.51113 0.77253
 O66 O 0.25518 0.52914 0.75603
 Zr67 Zr 0.23895 0.47821 0.77208
 O68 O 0.22081 0.49464 0.75580
 O69 O 0.23212 0.51797 0.73262
 O70 O 0.26691 0.48314 0.76765
 C71 C 0.23437 0.55696 0.73463
 C72 C 0.23464 0.51602 0.69360
 C73 C 0.19305 0.51573 0.73475
 C74 C 0.26627 0.44506 0.76599
 C75 C 0.30482 0.48435 0.76701
 C76 C 0.26536 0.48421 0.80570
 H77 H 0.29085 0.50943 0.74156
 H78 H 0.24017 0.50925 0.79137
 H79 H 0.22421 0.52584 0.72470
 H80 H 0.24114 0.45924 0.74086
 H81 H 0.26671 0.46307 0.70782
 H82 H 0.23501 0.46017 0.70955
 H83 H 0.26020 0.53060 0.80070
 H84 H 0.24002 0.54933 0.78060
 H85 H 0.30132 0.47169 0.71996
 H86 H 0.28063 0.52980 0.69877
 H87 H 0.21903 0.48867 0.80021
 H88 H 0.20067 0.50970 0.78063
 H89 H 0.28050 0.55208 0.72103
 H90 H 0.30021 0.53038 0.76244
 H91 H 0.20033 0.47058 0.74089
 H92 H 0.22044 0.44914 0.76146
 O93 O 0.24814 0.04825 0.22440
 O94 O 0.28136 0.04150 0.22973
 O95 O 0.22525 0.00117 0.20013
 O96 O 0.22593 -0.03027 0.20500
 O97 O 0.20066 0.02408 0.24796
 O98 O 0.20740 0.02166 0.28095
 O99 O 0.27400 -0.04920 0.25081
 O100 O 0.26923 -0.04449 0.21838
 O101 O 0.29788 -0.00327 0.27326
 O102 O 0.29120 0.03185 0.26966
 O103 O 0.25181 -0.02516 0.29727
 O104 O 0.21769 -0.02278 0.29155
 O105 O 0.25189 -0.04879 0.27347
 O106 O 0.21706 -0.04235 0.27083
 O107 O 0.27440 -0.00303 0.29712
 O108 O 0.27263 0.03080 0.29152
 O109 O 0.29721 -0.02621 0.25149
 O110 O 0.29178 -0.01959 0.21740
 O111 O 0.22628 0.04876 0.24739
 O112 O 0.22893 0.04229 0.28075
 O113 O 0.20018 0.00166 0.22560
 O114 O 0.20679 -0.03223 0.22914
 O115 O 0.24759 0.02369 0.20002
 O116 O 0.28086 0.01764 0.20608
 Zr117 Zr 0.25994 0.02154 0.22646
 O118 O 0.27765 0.00503 0.24285
 Zr119 Zr 0.22668 -0.01072 0.22687
 O120 O 0.24317 -0.02871 0.24299
 Zr121 Zr 0.22743 0.02210 0.25953
 O122 O 0.24367 0.00551 0.27724
 Zr123 Zr 0.27136 -0.02302 0.23832
 O124 O 0.25489 -0.00668 0.22033
 Zr125 Zr 0.27185 0.00977 0.27101
 O126 O 0.25561 0.02796 0.25470
 Zr127 Zr 0.23888 -0.02267 0.27121
 O128 O 0.22073 -0.00604 0.25514
 O129 O 0.23203 0.01702 0.23169
 O130 O 0.26684 -0.01817 0.26633
 C131 C 0.23486 0.05598 0.23347
 C132 C 0.23395 0.01486 0.19264
 C133 C 0.19296 0.01537 0.23444
 C134 C 0.26563 -0.05624 0.26489
 C135 C 0.30474 -0.01755 0.26511
 C136 C 0.26585 -0.01686 0.30441
 H137 H 0.29076 0.00765 0.23976
 H138 H 0.24085 0.00844 0.29034
 H139 H 0.22411 0.02497 0.22385
 H140 H 0.24031 -0.04181 0.24005
 H141 H 0.26542 -0.03849 0.20661
 H142 H 0.23371 -0.04091 0.20883
 H143 H 0.26131 0.02962 0.29917
 H144 H 0.24111 0.04849 0.27938
 H145 H 0.30033 -0.03034 0.21816
 H146 H 0.28020 0.02804 0.19708
 H147 H 0.21950 -0.01178 0.29955
 H148 H 0.20118 0.00943 0.28019
 H149 H 0.28070 0.05039 0.21925
 H150 H 0.30081 0.02848 0.26045
 H151 H 0.19969 -0.02986 0.24066
 H152 H 0.21983 -0.05154 0.26102
 O153 O 0.50118 0.70009 0.22486
 O154 O 0.46789 0.70637 0.23035
 O155 O 0.52324 0.74748 0.20035
 O156 O 0.52221 0.77889 0.20516
 O157 O 0.54842 0.72499 0.24814
 O158 O 0.54178 0.72737 0.28115
 O159 O 0.47410 0.79724 0.25105
 O160 O 0.47869 0.79244 0.21864
 O161 O 0.45095 0.75106 0.27391
 O162 O 0.45805 0.71601 0.27032
 O163 O 0.49680 0.77364 0.29754
 O164 O 0.53089 0.77172 0.29170
 O165 O 0.49630 0.79719 0.27362
 O166 O 0.53121 0.79119 0.27087
 O167 O 0.47455 0.75117 0.29760
 O168 O 0.47677 0.71732 0.29204
 O169 O 0.45119 0.77394 0.25207
 O170 O 0.45647 0.76724 0.21795
 O171 O 0.52316 0.69994 0.24773
 O172 O 0.52054 0.70643 0.28109
 O173 O 0.54846 0.74736 0.22570
 O174 O 0.54137 0.78117 0.22920
 O175 O 0.50126 0.72461 0.20041
 O176 O 0.46793 0.73018 0.20663
 Zr177 Zr 0.48900 0.72663 0.22691
 O178 O 0.47113 0.74292 0.24336
 Zr179 Zr 0.52180 0.75936 0.22708
 O180 O 0.50512 0.77715 0.24321
 Zr181 Zr 0.52167 0.72661 0.25982
 O182 O 0.50528 0.74301 0.27757
 Zr183 Zr 0.47699 0.77104 0.23871
 O184 O 0.49361 0.75490 0.22069
 Zr185 Zr 0.47713 0.73834 0.27151
 O186 O 0.49355 0.72034 0.25515
 Zr187 Zr 0.50964 0.77123 0.27143
 O188 O 0.52795 0.75482 0.25533
 O189 O 0.51687 0.73156 0.23199
 O190 O 0.48172 0.76633 0.26671
 C191 C 0.51463 0.69258 0.23387
 C192 C 0.51473 0.73364 0.19294
 C193 C 0.55592 0.73378 0.23455
 C194 C 0.48244 0.80443 0.26506
 C195 C 0.44386 0.76523 0.26577
 C196 C 0.48292 0.76515 0.30478
 H197 H 0.45804 0.74011 0.24035
 H198 H 0.50820 0.74015 0.29066
 H199 H 0.52486 0.72372 0.22413
 H200 H 0.50779 0.79027 0.24022
 H201 H 0.48251 0.78645 0.20688
 H202 H 0.51420 0.78936 0.20894
 H203 H 0.48809 0.71871 0.29966
 H204 H 0.50845 0.70005 0.27978
 H205 H 0.44777 0.77787 0.21874
 H206 H 0.46870 0.71978 0.19765
 H207 H 0.52930 0.76069 0.29970
 H208 H 0.54781 0.73969 0.28034
 H209 H 0.46862 0.69746 0.21989
 H210 H 0.44834 0.71925 0.26118
 H211 H 0.54861 0.77890 0.24065
 H212 H 0.52827 0.80032 0.26105
 O213 O 0.04972 0.72460 0.74931
 O214 O 0.04336 0.72994 0.78263
 O215 O 0.00242 0.70023 0.72701
 O216 O -0.02900 0.70505 0.72810
 O217 O 0.02496 0.74806 0.70206
 O218 O 0.02260 0.78106 0.70882
 O219 O -0.04740 0.75086 0.77628
 O220 O -0.04267 0.71843 0.77156
 O221 O -0.00130 0.77349 0.79963
 O222 O 0.03380 0.76977 0.79256
 O223 O -0.02366 0.79735 0.75380
 O224 O -0.02163 0.79160 0.71961
 O225 O -0.04726 0.77350 0.75413
 O226 O -0.04122 0.77091 0.71926
 O227 O -0.00123 0.79728 0.77610
 O228 O 0.03252 0.79169 0.77401
 O229 O -0.02419 0.75168 0.79926
 O230 O -0.01755 0.71759 0.79386
 O231 O 0.04995 0.74755 0.72739
 O232 O 0.04351 0.78088 0.73007
 O233 O 0.00255 0.72567 0.70189
 O234 O -0.03121 0.72915 0.70893
 O235 O 0.02522 0.70018 0.74906
 O236 O 0.01954 0.70624 0.78243
 Zr237 Zr 0.02317 0.72662 0.76144
 O238 O 0.00686 0.74300 0.77935
 Zr239 Zr -0.00947 0.72695 0.72856
 O240 O -0.02726 0.74307 0.74525
 Zr241 Zr 0.02331 0.75965 0.72886
 O242 O 0.00692 0.77736 0.74531
 Zr243 Zr -0.02124 0.73844 0.77339
 O244 O -0.00508 0.72045 0.75675
 Zr245 Zr 0.01151 0.77117 0.77346
 O246 O 0.02950 0.75487 0.75700
 Zr247 Zr -0.02129 0.77129 0.74085
 O248 O -0.00488 0.75522 0.72250
 O249 O 0.01831 0.73181 0.73356
 O250 O -0.01647 0.76645 0.76878
 C251 C 0.05728 0.73366 0.73590
 C252 C 0.01623 0.69277 0.73554
 C253 C 0.01616 0.73453 0.69448
 C254 C -0.05454 0.76491 0.76797
 C255 C -0.01550 0.76534 0.80666
 C256 C -0.01517 0.80453 0.76772
 H257 H 0.00963 0.73994 0.79244
 H258 H 0.00981 0.79045 0.74244
 H259 H 0.02616 0.72398 0.72554
 H260 H -0.04038 0.74011 0.74254
 H261 H -0.03669 0.70667 0.76771
 H262 H -0.03953 0.70887 0.73601
 H263 H 0.03130 0.79924 0.76261
 H264 H 0.04985 0.77953 0.74219
 H265 H -0.02820 0.71835 0.80253
 H266 H 0.02994 0.69727 0.78165
 H267 H -0.01067 0.79966 0.72135
 H268 H 0.01032 0.78027 0.70273
 H269 H 0.05226 0.71948 0.78187
 H270 H 0.03042 0.76076 0.80235
 H271 H -0.02897 0.74068 0.70179
 H272 H -0.05030 0.76101 0.72207
 O273 O 0.00176 0.04882 0.02526
 O274 O -0.03129 0.04257 0.02155
 O275 O 0.02427 0.00156 0.05011
 O276 O 0.02331 -0.02982 0.04544
 O277 O 0.04921 0.02406 0.00223
 O278 O 0.04276 0.02166 -0.03064
 O279 O -0.02476 -0.04856 -0.00054
 O280 O -0.02035 -0.04352 0.03189
 O281 O -0.04778 -0.00278 -0.02411
 O282 O -0.04366 0.02966 -0.02036
 O283 O -0.00168 -0.02521 -0.04707
 O284 O 0.03223 -0.02321 -0.04101
 O285 O -0.00244 -0.04858 -0.02301
 O286 O 0.03255 -0.04242 -0.01987
 O287 O -0.02406 -0.00286 -0.04738
 O288 O -0.02075 0.03208 -0.04093
 O289 O -0.04770 -0.02529 -0.00187
 O290 O -0.04280 -0.01848 0.03215
 O291 O 0.02385 0.04895 0.00250
 O292 O 0.02123 0.04217 -0.03096
 O293 O 0.04939 0.00175 0.02473
 O294 O 0.04235 -0.03221 0.02139
 O295 O 0.00224 0.02435 0.04990
 O296 O -0.03144 0.01765 0.04338
 Zr297 Zr -0.01017 0.02214 0.02347
 O298 O -0.02783 0.00586 0.00681
 Zr299 Zr 0.02278 -0.01040 0.02343
 O300 O 0.00619 -0.02834 0.00736
 Zr301 Zr 0.02248 0.02223 -0.00945
 O302 O 0.00639 0.00555 -0.02722
 Zr303 Zr -0.02199 -0.02226 0.01167
 O304 O -0.00544 -0.00607 0.02977
 Zr305 Zr -0.02179 0.01015 -0.02134
 O306 O -0.00572 0.02838 -0.00485
 Zr307 Zr 0.01087 -0.02260 -0.02085
 O308 O 0.02899 -0.00592 -0.00481
 O309 O 0.01772 0.01736 0.01841
 O310 O -0.01708 -0.01777 -0.01633
 C311 C 0.01520 0.05636 0.01626
 C312 C 0.01572 0.01542 0.05743
 C313 C 0.05677 0.01536 0.01584
 C314 C -0.01634 -0.05581 -0.01447
 C315 C -0.05491 -0.01683 -0.01579
 C316 C -0.01554 -0.01682 -0.05445
 H317 H -0.04097 0.00880 0.00952
 H318 H 0.00939 0.00836 -0.04030
 H319 H 0.02567 0.02531 0.02621
 H320 H 0.00886 -0.04144 0.01046
 H321 H -0.01672 -0.03742 0.04366
 H322 H 0.01504 -0.04016 0.04186
 H323 H -0.01137 0.02886 -0.05042
 H324 H 0.00940 0.04895 -0.02933
 H325 H -0.05134 -0.02924 0.03142
 H326 H -0.03031 0.02711 0.05330
 H327 H 0.03083 -0.01209 -0.04893
 H328 H 0.04875 0.00932 -0.02993
 H329 H -0.03037 0.05087 0.03249
 H330 H -0.03937 0.03985 -0.01223
 H331 H 0.04979 -0.02982 0.01008
 H332 H 0.02934 -0.05173 -0.01030
 O333 O 0.04963 0.52556 0.50151
 O334 O 0.04346 0.52004 0.46819
 O335 O 0.00226 0.55033 0.52331
 O336 O -0.02915 0.54564 0.52211
 O337 O 0.02442 0.50257 0.54876
 O338 O 0.02194 0.46954 0.54225
 O339 O -0.04744 0.49960 0.47404
 O340 O -0.04257 0.53202 0.47858
 O341 O -0.00126 0.47657 0.45121
 O342 O 0.03375 0.48008 0.45848
 O343 O -0.02412 0.45315 0.49708
 O344 O -0.02237 0.45912 0.53118
 O345 O -0.04758 0.47712 0.49635
 O346 O -0.04176 0.48000 0.53130
 O347 O -0.00156 0.45295 0.47492
 O348 O 0.03227 0.45840 0.47726
 O349 O -0.02404 0.49849 0.45125
 O350 O -0.01727 0.53260 0.45648
 O351 O 0.04958 0.50277 0.52360
 O352 O 0.04296 0.46944 0.52110
 O353 O 0.00216 0.52509 0.54863
 O354 O -0.03161 0.52166 0.54139
 O355 O 0.02524 0.55011 0.50144
 O356 O 0.01976 0.54384 0.46807
 Zr357 Zr 0.02314 0.52360 0.48923
 O358 O 0.00688 0.50715 0.47133
 Zr359 Zr -0.00972 0.52365 0.52190
 O360 O -0.02749 0.50752 0.50518
 Zr361 Zr 0.02288 0.49079 0.52204
 O362 O 0.00650 0.47305 0.50562
 Zr363 Zr -0.02123 0.51191 0.47705
 O364 O -0.00511 0.52993 0.49369
 Zr365 Zr 0.01134 0.47901 0.47746
 O366 O 0.02930 0.49535 0.49392
 Zr367 Zr -0.02170 0.47930 0.50983
 O368 O -0.00533 0.49541 0.52818
 O369 O 0.01807 0.51862 0.51711
 O370 O -0.01665 0.48391 0.48190
 C371 C 0.05704 0.51656 0.51503
 C372 C 0.01618 0.55766 0.51484
 C373 C 0.01567 0.51621 0.55618
 C374 C -0.05471 0.48565 0.48239
 C375 C -0.01535 0.48474 0.44401
 C376 C -0.01559 0.44583 0.48327
 H377 H 0.00977 0.51011 0.45823
 H378 H 0.00930 0.45996 0.50861
 H379 H 0.02591 0.52647 0.52512
 H380 H -0.04061 0.51056 0.50777
 H381 H -0.03657 0.54378 0.48240
 H382 H -0.03962 0.54185 0.51410
 H383 H 0.03081 0.45084 0.48862
 H384 H 0.04940 0.47068 0.50902
 H385 H -0.02786 0.53182 0.44772
 H386 H 0.03018 0.55278 0.46886
 H387 H -0.01135 0.45108 0.52969
 H388 H 0.00961 0.47043 0.54823
 H389 H 0.05240 0.53047 0.46894
 H390 H 0.03058 0.48918 0.44870
 H391 H -0.02943 0.51022 0.54867
 H392 H -0.05085 0.48983 0.52826
 O393 O 0.54803 0.02314 0.50022
 O394 O 0.54156 0.01785 0.46715
 O395 O 0.50031 0.04818 0.52216
 O396 O 0.46917 0.04320 0.52183
 O397 O 0.52271 0.00000 0.54798
 O398 O 0.52073 -0.03274 0.54128
 O399 O 0.45076 -0.00278 0.47348
 O400 O 0.45559 0.02963 0.47797
 O401 O 0.49695 -0.02568 0.45038
 O402 O 0.53187 -0.02232 0.45749
 O403 O 0.47423 -0.04919 0.49638
 O404 O 0.47625 -0.04316 0.53055
 O405 O 0.45075 -0.02525 0.49580
 O406 O 0.45670 -0.02243 0.53066
 O407 O 0.49665 -0.04933 0.47408
 O408 O 0.53061 -0.04380 0.47645
 O409 O 0.47409 -0.00384 0.45057
 O410 O 0.48081 0.03026 0.45577
 O411 O 0.54815 0.00034 0.52228
 O412 O 0.54142 -0.03281 0.52015
 O413 O 0.50044 0.02248 0.54795
 O414 O 0.46680 0.01936 0.54063
 O415 O 0.52320 0.04801 0.50023
 O416 O 0.51786 0.04149 0.46710
 Zr417 Zr 0.52137 0.02135 0.48834
 O418 O 0.50506 0.00486 0.47053
 Zr419 Zr 0.48871 0.02132 0.52116
 O420 O 0.47087 0.00518 0.50453
 Zr421 Zr 0.52135 -0.01144 0.52112
 O422 O 0.50490 -0.02923 0.50480
 Zr423 Zr 0.47697 0.00956 0.47636
 O424 O 0.49313 0.02758 0.49293
 Zr425 Zr 0.50958 -0.02328 0.47661
 O426 O 0.52756 -0.00688 0.49297
 Zr427 Zr 0.47670 -0.02304 0.50913
 O428 O 0.49316 -0.00691 0.52737
 O429 O 0.51658 0.01648 0.51635
 O430 O 0.48160 -0.01844 0.48118
 C431 C 0.55571 0.01389 0.51341
 C432 C 0.51389 0.05572 0.51335
 C433 C 0.51369 0.01334 0.55562
 C434 C 0.44354 -0.01674 0.48188
 C435 C 0.48280 -0.01754 0.44326
 C436 C 0.48268 -0.05648 0.48251
 H437 H 0.50788 0.00783 0.45742
 H438 H 0.50773 -0.04232 0.50778
 H439 H 0.52444 0.02438 0.52433
 H440 H 0.45776 0.00822 0.50718
 H441 H 0.46159 0.04143 0.48166
 H442 H 0.45901 0.03975 0.51329
 H443 H 0.52887 -0.05169 0.48754
 H444 H 0.54757 -0.03181 0.50791
 H445 H 0.47019 0.02948 0.44706
 H446 H 0.52826 0.05047 0.46776
 H447 H 0.48704 -0.05144 0.52875
 H448 H 0.50827 -0.03227 0.54704
 H449 H 0.55046 0.02831 0.46776
 H450 H 0.52884 -0.01293 0.44794
 H451 H 0.46885 0.00781 0.54779
 H452 H 0.44763 -0.01256 0.52771
 O453 O 0.54840 0.52475 0.00210
 O454 O 0.54196 0.51908 -0.03114
 O455 O 0.50132 0.54981 0.02414
 O456 O 0.46987 0.54524 0.02321
 O457 O 0.52348 0.50207 0.04965
 O458 O 0.52082 0.46904 0.04333
 O459 O 0.45105 0.49900 -0.02455
 O460 O 0.45602 0.53143 -0.02014
 O461 O 0.49699 0.47576 -0.04758
 O462 O 0.53203 0.47909 -0.04056
 O463 O 0.47434 0.45260 -0.00141
 O464 O 0.47635 0.45873 0.03264
 O465 O 0.45097 0.47663 -0.00213
 O466 O 0.45705 0.47971 0.03279
 O467 O 0.49672 0.45223 -0.02375
 O468 O 0.53059 0.45753 -0.02167
 O469 O 0.47430 0.49778 -0.04747
 O470 O 0.48118 0.53188 -0.04241
 O471 O 0.54844 0.50207 0.02430
 O472 O 0.54166 0.46874 0.02200
 O473 O 0.50130 0.52469 0.04959
 O474 O 0.46746 0.52136 0.04263
 O475 O 0.52410 0.54939 0.00208
 O476 O 0.51835 0.54297 -0.03120
 Zr477 Zr 0.52181 0.52283 -0.00997
 O478 O 0.50536 0.50636 -0.02766
 Zr479 Zr 0.48920 0.52317 0.02295
 O480 O 0.47124 0.50703 0.00645
 Zr481 Zr 0.52168 0.49019 0.02300
 O482 O 0.50510 0.47243 0.00680
 Zr483 Zr 0.47730 0.51126 -0.02175
 O484 O 0.49362 0.52930 -0.00532
 Zr485 Zr 0.50975 0.47824 -0.02142
 O486 O 0.52790 0.49458 -0.00519
 Zr487 Zr 0.47695 0.47881 0.01119
 O488 O 0.49353 0.49493 0.02933
 O489 O 0.51694 0.51801 0.01798
 O490 O 0.48182 0.48326 -0.01680
 C491 C 0.55589 0.51579 0.01560
 C492 C 0.51519 0.55704 0.01551
 C493 C 0.51483 0.51579 0.05708
 C494 C 0.44378 0.48510 -0.01608
 C495 C 0.48289 0.48397 -0.05472
 C496 C 0.48273 0.44519 -0.01526
 H497 H 0.50815 0.50926 -0.04079
 H498 H 0.50787 0.45934 0.00983
 H499 H 0.52487 0.52587 0.02588
 H500 H 0.45815 0.51013 0.00912
 H501 H 0.46208 0.54319 -0.01640
 H502 H 0.45931 0.54143 0.01533
 H503 H 0.52918 0.45002 -0.01027
 H504 H 0.54802 0.46991 0.00988
 H505 H 0.47053 0.53111 -0.05109
 H506 H 0.52882 0.55187 -0.03054
 H507 H 0.48734 0.45066 0.03112
 H508 H 0.50853 0.46999 0.04939
 H509 H 0.55094 0.52948 -0.03052
 H510 H 0.52889 0.48823 -0.05031
 H511 H 0.46966 0.50993 0.04994
 H512 H 0.44794 0.48951 0.02973
 O513 O 0.74970 0.20220 0.52311
 O514 O 0.78275 0.20871 0.51786
 O515 O 0.72771 0.24986 0.54823
 O516 O 0.72810 0.28104 0.54333
 O517 O 0.70199 0.22756 0.50000
 O518 O 0.70872 0.22961 0.46725
 O519 O 0.77642 0.29959 0.49740
 O520 O 0.77191 0.29468 0.52980
 O521 O 0.79953 0.25345 0.47440
 O522 O 0.79245 0.21848 0.47774
 O523 O 0.75359 0.27618 0.45092
 O524 O 0.71944 0.27413 0.45693
 O525 O 0.75415 0.29962 0.47490
 O526 O 0.71931 0.29366 0.47769
 O527 O 0.77586 0.25374 0.45074
 O528 O 0.77355 0.21978 0.45622
 O529 O 0.79932 0.27627 0.49629
 O530 O 0.79412 0.26946 0.53038
 O531 O 0.72767 0.20212 0.50031
 O532 O 0.72983 0.20892 0.46717
 O533 O 0.70199 0.24981 0.52252
 O534 O 0.70931 0.28347 0.51948
 O535 O 0.74963 0.22697 0.54803
 O536 O 0.78276 0.23237 0.54156
 Zr537 Zr 0.76157 0.22888 0.52139
 O538 O 0.77938 0.24524 0.50494
 Zr539 Zr 0.72877 0.26155 0.52140
 O540 O 0.74540 0.27943 0.50529
 Zr541 Zr 0.72884 0.22896 0.48858
 O542 O 0.74517 0.24545 0.47082
 Zr543 Zr 0.77355 0.27334 0.50968
 O544 O 0.75697 0.25713 0.52767
 Zr545 Zr 0.77333 0.24077 0.47678
 O546 O 0.75697 0.22274 0.49314
 Zr547 Zr 0.74082 0.27365 0.47706
 O548 O 0.72259 0.25715 0.49315
 O549 O 0.73358 0.23368 0.51651
 O550 O 0.76876 0.26875 0.48167
 C551 C 0.73652 0.19454 0.51384
 C552 C 0.73649 0.23625 0.55574
 C553 C 0.69434 0.23657 0.51335
 C554 C 0.76804 0.30683 0.48344
 C555 C 0.80664 0.26759 0.48256
 C556 C 0.76745 0.26772 0.44361
 H557 H 0.79248 0.24242 0.50790
 H558 H 0.74220 0.24264 0.45773
 H559 H 0.72559 0.22579 0.52437
 H560 H 0.74274 0.29254 0.50835
 H561 H 0.76822 0.28865 0.54159
 H562 H 0.73661 0.29124 0.53988
 H563 H 0.76243 0.22147 0.44837
 H564 H 0.74206 0.20275 0.46818
 H565 H 0.80281 0.28010 0.52962
 H566 H 0.78209 0.22195 0.55052
 H567 H 0.72124 0.26335 0.44863
 H568 H 0.70295 0.24207 0.46776
 H569 H 0.78213 0.19978 0.52832
 H570 H 0.80203 0.22154 0.48708
 H571 H 0.70218 0.28145 0.50791
 H572 H 0.72224 0.30271 0.48759
 O573 O 0.79939 0.75121 -0.02361
 O574 O 0.79299 0.71796 -0.01793
 O575 O 0.75232 0.77322 -0.04868
 O576 O 0.72087 0.77224 -0.04415
 O577 O 0.77438 0.79869 -0.00087
 O578 O 0.77174 0.79227 0.03216
 O579 O 0.70201 0.72446 0.00200
 O580 O 0.70706 0.72888 -0.03042
 O581 O 0.74792 0.70139 0.02532
 O582 O 0.78299 0.70843 0.02201
 O583 O 0.72523 0.74749 0.04847
 O584 O 0.72729 0.78157 0.04239
 O585 O 0.70190 0.74686 0.02439
 O586 O 0.70800 0.78175 0.02141
 O587 O 0.74763 0.72517 0.04887
 O588 O 0.78150 0.72728 0.04361
 O589 O 0.72526 0.70153 0.00327
 O590 O 0.73221 0.70661 -0.03081
 O591 O 0.79939 0.77338 -0.00091
 O592 O 0.79261 0.77099 0.03241
 O593 O 0.75223 0.79862 -0.02351
 O594 O 0.71841 0.79162 -0.02027
 O595 O 0.77511 0.75117 -0.04826
 O596 O 0.76941 0.71788 -0.04186
 Zr597 Zr 0.77282 0.73909 -0.02170
 O598 O 0.75635 0.72137 -0.00527
 Zr599 Zr 0.74018 0.77197 -0.02205
 O600 O 0.72221 0.75545 -0.00594
 Zr601 Zr 0.77263 0.77201 0.01097
 O602 O 0.75604 0.75577 0.02870
 Zr603 Zr 0.72830 0.72726 -0.01020
 O604 O 0.74463 0.74372 -0.02820
 Zr605 Zr 0.76070 0.72756 0.02287
 O606 O 0.77887 0.74383 0.00656
 Zr607 Zr 0.72789 0.76015 0.02229
 O608 O 0.74448 0.77832 0.00619
 O609 O 0.76791 0.76703 -0.01687
 O610 O 0.73277 0.73217 0.01781
 C611 C 0.80686 0.76472 -0.01464
 C612 C 0.76619 0.76460 -0.05591
 C613 C 0.76573 0.80612 -0.01458
 C614 C 0.69472 0.73292 0.01588
 C615 C 0.73383 0.69426 0.01709
 C616 C 0.73362 0.73363 0.05588
 H617 H 0.75915 0.70824 -0.00817
 H618 H 0.75879 0.75878 0.04179
 H619 H 0.77584 0.77496 -0.02471
 H620 H 0.70913 0.75812 -0.00906
 H621 H 0.71314 0.73262 -0.04217
 H622 H 0.71031 0.76434 -0.04037
 H623 H 0.78011 0.73869 0.05110
 H624 H 0.79898 0.75887 0.03123
 H625 H 0.72155 0.69793 -0.03006
 H626 H 0.77989 0.71856 -0.05075
 H627 H 0.73822 0.77998 0.05053
 H628 H 0.75944 0.79831 0.03122
 H629 H 0.80199 0.71860 -0.02832
 H630 H 0.77983 0.69867 0.01289
 H631 H 0.72057 0.79891 -0.00882
 H632 H 0.69894 0.77876 0.01154
 O633 O 1.04973 0.22594 0.24801
 O634 O 1.04336 0.23165 0.28124
 O635 O 1.00240 0.20140 0.22593
 O636 O 0.97100 0.20629 0.22692
 O637 O 1.02506 0.24891 0.20045
 O638 O 1.02278 0.28196 0.20680
 O639 O 0.95265 0.25267 0.27461
 O640 O 0.95732 0.22021 0.27027
 O641 O 0.99887 0.27547 0.29771
 O642 O 1.03383 0.27185 0.29071
 O643 O 0.97641 0.29887 0.25156
 O644 O 0.97844 0.29274 0.21748
 O645 O 0.95282 0.27504 0.25219
 O646 O 0.95890 0.27199 0.21731
 O647 O 0.99878 0.29900 0.27391
 O648 O 1.03267 0.29333 0.27173
 O649 O 0.97591 0.25373 0.29757
 O650 O 0.98245 0.21956 0.29255
 O651 O 1.05002 0.24863 0.22582
 O652 O 1.04362 0.28203 0.22813
 O653 O 1.00262 0.22656 0.20052
 O654 O 0.96883 0.23019 0.20750
 O655 O 1.02518 0.20156 0.24800
 O656 O 1.01946 0.20804 0.28130
 Zr657 Zr 1.02317 0.22815 0.26007
 O658 O 1.00690 0.24479 0.27776
 Zr659 Zr 0.99056 0.22816 0.22716
 O660 O 0.97278 0.24449 0.24366
 Zr661 Zr 1.02340 0.26080 0.22712
 O662 O 1.00701 0.27874 0.24332
 Zr663 Zr 0.97880 0.24019 0.27186
 O664 O 0.99492 0.22197 0.25543
 Zr665 Zr 1.01158 0.27288 0.27154
 O666 O 1.02956 0.25633 0.25531
 Zr667 Zr 0.97879 0.27265 0.23893
 O668 O 0.99520 0.25635 0.22079
 O669 O 1.01835 0.23303 0.23213
 O670 O 0.98360 0.26814 0.26692
 C671 C 1.05732 0.23482 0.23451
 C672 C 1.01619 0.19402 0.23455
 C673 C 1.01625 0.23530 0.19303
 C674 C 0.94553 0.26662 0.26613
 C675 C 0.98466 0.26743 0.30484
 C676 C 0.98486 0.30618 0.26543
 H677 H 1.00966 0.24187 0.29089
 H678 H 1.00991 0.29180 0.24029
 H679 H 1.02620 0.22509 0.22422
 H680 H 0.95966 0.24152 0.24099
 H681 H 0.96327 0.20839 0.26654
 H682 H 0.96048 0.21020 0.23481
 H683 H 1.03120 0.30099 0.26043
 H684 H 1.04993 0.28081 0.24027
 H685 H 0.97181 0.22045 0.30123
 H686 H 1.02982 0.19900 0.28062
 H687 H 0.98946 0.30075 0.21907
 H688 H 1.01047 0.28117 0.20076
 H689 H 1.05221 0.22114 0.28062
 H690 H 1.03067 0.26261 0.30036
 H691 H 0.97114 0.24160 0.20019
 H692 H 0.94974 0.26222 0.22030
 O693 O 0.74990 1.04760 0.72636
 O694 O 0.78296 1.04103 0.73157
 O695 O 0.72772 0.99987 0.70156
 O696 O 0.72806 0.96871 0.70662
 O697 O 0.70218 1.02247 0.74974
 O698 O 0.70900 1.02058 0.78249
 O699 O 0.77640 0.95027 0.75255
 O700 O 0.77181 0.95501 0.72012
 O701 O 0.79972 0.99646 0.77520
 O702 O 0.79270 1.03148 0.77161
 O703 O 0.75380 0.97403 0.79894
 O704 O 0.71959 0.97616 0.79301
 O705 O 0.75418 0.95043 0.77510
 O706 O 0.71939 0.95646 0.77242
 O707 O 0.77613 0.99642 0.79893
 O708 O 0.77395 1.03029 0.79329
 O709 O 0.79938 0.97352 0.75343
 O710 O 0.79410 0.98016 0.71933
 O711 O 0.72793 1.04785 0.74922
 O712 O 0.73014 1.04124 0.78238
 O713 O 0.70206 1.00010 0.72734
 O714 O 0.70928 0.96646 0.73052
 O715 O 0.74972 1.02269 0.70158
 O716 O 0.78284 1.01725 0.70798
 Zr717 Zr 0.76170 1.02090 0.72820
 O718 O 0.77952 1.00457 0.74468
 Zr719 Zr 0.72881 0.98831 0.72844
 O720 O 0.74542 0.97047 0.74461
 Zr721 Zr 0.72906 1.02108 0.76110
 O722 O 0.74539 1.00465 0.77890
 Zr723 Zr 0.77358 0.97646 0.74011
 O724 O 0.75701 0.99263 0.72208
 Zr725 Zr 0.77355 1.00922 0.77282
 O726 O 0.75719 1.02720 0.75643
 Zr727 Zr 0.74094 0.97643 0.77283
 O728 O 0.72272 0.99288 0.75668
 O729 O 0.73371 1.01619 0.73318
 O730 O 0.76888 0.98122 0.76811
 C731 C 0.73677 1.05534 0.73563
 C732 C 0.73654 1.01341 0.69395
 C733 C 0.69447 1.01341 0.73647
 C734 C 0.76803 0.94313 0.76656
 C735 C 0.80676 0.98225 0.76709
 C736 C 0.76770 0.98249 0.80617
 H737 H 0.79262 1.00733 0.74166
 H738 H 0.74247 1.00754 0.79198
 H739 H 0.72573 1.02406 0.72529
 H740 H 0.74271 0.95736 0.74164
 H741 H 0.76812 0.96099 0.70830
 H742 H 0.73650 0.95848 0.71013
 H743 H 0.76276 1.02877 0.80110
 H744 H 0.74239 1.04736 0.78133
 H745 H 0.80276 0.96949 0.72011
 H746 H 0.78218 1.02764 0.69898
 H747 H 0.72152 0.98692 0.80130
 H748 H 0.70318 1.00814 0.78205
 H749 H 0.78233 1.04992 0.72108
 H750 H 0.80234 1.02826 0.76239
 H751 H 0.70222 0.96853 0.74212
 H752 H 0.72220 0.94741 0.76250
 O753 O 0.74886 0.54939 0.22424
 O754 O 0.78196 0.54321 0.22768
 O755 O 0.72614 0.50181 0.20021
 O756 O 0.72712 0.47050 0.20527
 O757 O 0.70168 0.52492 0.24802
 O758 O 0.70846 0.52284 0.28089
 O759 O 0.77562 0.45232 0.25091
 O760 O 0.77092 0.45701 0.21847
 O761 O 0.79895 0.49836 0.27370
 O762 O 0.79479 0.53077 0.26957
 O763 O 0.75314 0.47622 0.29742
 O764 O 0.71913 0.47817 0.29173
 O765 O 0.75356 0.45256 0.27363
 O766 O 0.71858 0.45870 0.27086
 O767 O 0.77550 0.49859 0.29723
 O768 O 0.77213 0.53343 0.29038
 O769 O 0.79862 0.47558 0.25175
 O770 O 0.79338 0.48203 0.21771
 O771 O 0.72704 0.54979 0.24725
 O772 O 0.72996 0.54339 0.28073
 O773 O 0.70127 0.50233 0.22582
 O774 O 0.70833 0.46841 0.22954
 O775 O 0.74816 0.52462 0.19991
 O776 O 0.78190 0.51803 0.20616
 Zr777 Zr 0.76083 0.52275 0.22623
 O778 O 0.77867 0.50665 0.24289
 Zr779 Zr 0.72788 0.49019 0.22702
 O780 O 0.74464 0.47245 0.24313
 Zr781 Zr 0.72852 0.52320 0.25949
 O782 O 0.74482 0.50675 0.27728
 Zr783 Zr 0.77277 0.47848 0.23844
 O784 O 0.75604 0.49446 0.22032
 Zr785 Zr 0.77294 0.51128 0.27105
 O786 O 0.75668 0.52931 0.25451
 Zr787 Zr 0.74026 0.47853 0.27132
 O788 O 0.72197 0.49500 0.25527
 O789 O 0.73299 0.51801 0.23163
 O790 O 0.76816 0.48330 0.26643
 C791 C 0.73553 0.55703 0.23330
 C792 C 0.73460 0.51558 0.19262
 C793 C 0.69398 0.51605 0.23460
 C794 C 0.76735 0.44523 0.26502
 C795 C 0.80599 0.48420 0.26549
 C796 C 0.76708 0.48470 0.30455
 H797 H 0.79178 0.50957 0.24000
 H798 H 0.74196 0.50972 0.29036
 H799 H 0.72497 0.52587 0.22381
 H800 H 0.74193 0.45932 0.24022
 H801 H 0.76716 0.46298 0.20667
 H802 H 0.73543 0.46020 0.20889
 H803 H 0.76282 0.53034 0.29999
 H804 H 0.74180 0.55012 0.27895
 H805 H 0.80192 0.47127 0.21848
 H806 H 0.78066 0.52738 0.19614
 H807 H 0.72065 0.48938 0.29951
 H808 H 0.70245 0.51050 0.28035
 H809 H 0.78091 0.55138 0.21665
 H810 H 0.79039 0.54090 0.26140
 H811 H 0.70101 0.47094 0.24089
 H812 H 0.72161 0.44933 0.26130
 O813 O 0.54778 0.22623 0.74975
 O814 O 0.54116 0.23156 0.78281
 O815 O 0.50005 0.20149 0.72755
 O816 O 0.46894 0.20665 0.72771
 O817 O 0.52285 0.24963 0.70193
 O818 O 0.52103 0.28238 0.70871
 O819 O 0.45050 0.25264 0.77600
 O820 O 0.45518 0.22020 0.77148
 O821 O 0.49663 0.27526 0.79942
 O822 O 0.53166 0.27158 0.79250
 O823 O 0.47441 0.29897 0.75337
 O824 O 0.47661 0.29298 0.71918
 O825 O 0.45077 0.27518 0.75375
 O826 O 0.45688 0.27242 0.71896
 O827 O 0.49673 0.29895 0.77577
 O828 O 0.53057 0.29325 0.77371
 O829 O 0.47367 0.25352 0.79907
 O830 O 0.48026 0.21940 0.79385
 O831 O 0.54814 0.24907 0.72775
 O832 O 0.54163 0.28224 0.72992
 O833 O 0.50046 0.22726 0.70179
 O834 O 0.46681 0.23052 0.70893
 O835 O 0.52280 0.20151 0.74963
 O836 O 0.51736 0.20801 0.78272
 Zr837 Zr 0.52108 0.22816 0.76152
 O838 O 0.50474 0.24469 0.77928
 Zr839 Zr 0.48860 0.22842 0.72852
 O840 O 0.47076 0.24464 0.74508
 Zr841 Zr 0.52142 0.26100 0.72881
 O842 O 0.50499 0.27885 0.74508
 Zr843 Zr 0.47665 0.24016 0.77327
 O844 O 0.49282 0.22209 0.75676
 Zr845 Zr 0.50946 0.27282 0.77328
 O846 O 0.52745 0.25637 0.75698
 Zr847 Zr 0.47678 0.27283 0.74057
 O848 O 0.49324 0.25664 0.72239
 O849 O 0.51646 0.23310 0.73349
 O850 O 0.48149 0.26814 0.76854
 C851 C 0.55558 0.23546 0.73661
 C852 C 0.51352 0.19386 0.73644
 C853 C 0.51379 0.23636 0.69420
 C854 C 0.44342 0.26666 0.76760
 C855 C 0.48240 0.26717 0.80645
 C856 C 0.48285 0.30620 0.76729
 H857 H 0.50746 0.24168 0.79240
 H858 H 0.50792 0.29193 0.74215
 H859 H 0.52432 0.22517 0.72553
 H860 H 0.45765 0.24168 0.74234
 H861 H 0.46115 0.20837 0.76782
 H862 H 0.45873 0.21015 0.73618
 H863 H 0.52914 0.30101 0.76248
 H864 H 0.54772 0.28117 0.74219
 H865 H 0.46958 0.22021 0.80248
 H866 H 0.52774 0.19900 0.78211
 H867 H 0.48739 0.30124 0.72110
 H868 H 0.50862 0.28197 0.70286
 H869 H 0.55004 0.22107 0.78222
 H870 H 0.52837 0.26241 0.80218
 H871 H 0.46895 0.24210 0.70184
 H872 H 0.44779 0.26254 0.72178
 O873 O 0.25103 0.77411 0.45054
 O874 O 0.21780 0.76842 0.45697
 O875 O 0.27305 0.79914 0.49765
 O876 O 0.27212 0.79458 0.52911
 O877 O 0.29851 0.75136 0.47551
 O878 O 0.29211 0.71833 0.47815
 O879 O 0.22438 0.74843 0.54798
 O880 O 0.22879 0.78084 0.54295
 O881 O 0.20129 0.72514 0.50205
 O882 O 0.20829 0.72847 0.46696
 O883 O 0.24739 0.70197 0.52471
 O884 O 0.28144 0.70806 0.52263
 O885 O 0.24676 0.72604 0.54806
 O886 O 0.28164 0.72903 0.54194
 O887 O 0.22507 0.70160 0.50231
 O888 O 0.22715 0.70689 0.46841
 O889 O 0.20144 0.74717 0.52474
 O890 O 0.20651 0.78126 0.51780
 O891 O 0.27319 0.75141 0.45051
 O892 O 0.27082 0.71808 0.45728
 O893 O 0.29846 0.77398 0.49768
 O894 O 0.29149 0.77070 0.53153
 O895 O 0.25100 0.79874 0.47485
 O896 O 0.21774 0.79233 0.48058
 Zr897 Zr 0.23894 0.77218 0.47714
 O898 O 0.22124 0.75574 0.49362
 Zr899 Zr 0.27184 0.77250 0.50977
 O900 O 0.25533 0.75638 0.52775
 Zr901 Zr 0.27185 0.73951 0.47729
 O902 O 0.25563 0.72177 0.49389
 Zr903 Zr 0.22716 0.76064 0.52169
 O904 O 0.24359 0.77866 0.50534
 Zr905 Zr 0.22743 0.72760 0.48925
 O906 O 0.24368 0.74392 0.47107
 Zr907 Zr 0.26003 0.72816 0.52205
 O908 O 0.27818 0.74427 0.50545
 O909 O 0.26687 0.76734 0.48202
 O910 O 0.23206 0.73264 0.51719
 C911 C 0.26453 0.76514 0.44305
 C912 C 0.26444 0.80638 0.48377
 C913 C 0.30594 0.76507 0.48416
 C914 C 0.23283 0.73454 0.55527
 C915 C 0.19418 0.73335 0.51616
 C916 C 0.23353 0.69457 0.51632
 H917 H 0.20812 0.75864 0.49083
 H918 H 0.25864 0.70868 0.49113
 H919 H 0.27478 0.77520 0.47409
 H920 H 0.25801 0.75949 0.54085
 H921 H 0.23252 0.79260 0.53687
 H922 H 0.26422 0.79079 0.53967
 H923 H 0.23854 0.69938 0.46981
 H924 H 0.25870 0.71926 0.45093
 H925 H 0.19784 0.78050 0.52847
 H926 H 0.21841 0.80122 0.47010
 H927 H 0.27986 0.69995 0.51168
 H928 H 0.29816 0.71927 0.49045
 H929 H 0.21844 0.77881 0.44797
 H930 H 0.19854 0.73760 0.47013
 H931 H 0.29878 0.75926 0.52935
 H932 H 0.27864 0.73888 0.55102
 O933 O 0.27388 0.29960 0.99885
 O934 O 0.26830 0.29309 1.03209
 O935 O 0.29854 0.25245 0.97653
 O936 O 0.29383 0.22101 0.97739
 O937 O 0.25079 0.27493 0.95135
 O938 O 0.21781 0.27245 0.95788
 O939 O 0.24781 0.20222 1.02530
 O940 O 0.28022 0.20710 1.02078
 O941 O 0.22486 0.24821 1.04865
 O942 O 0.22830 0.28327 1.04175
 O943 O 0.20140 0.22581 1.00254
 O944 O 0.20735 0.22796 0.96846
 O945 O 0.22534 0.20233 1.00300
 O946 O 0.22823 0.20856 0.96810
 O947 O 0.20124 0.24811 1.02496
 O948 O 0.20670 0.28202 1.02292
 O949 O 0.24675 0.22539 1.04833
 O950 O 0.28084 0.23217 1.04315
 O951 O 0.25109 0.29983 0.97677
 O952 O 0.21775 0.29323 0.97927
 O953 O 0.27327 0.25262 0.95123
 O954 O 0.26986 0.21877 0.95812
 O955 O 0.29836 0.27516 0.99868
 O956 O 0.29206 0.26935 1.03198
 Zr957 Zr 0.27185 0.27298 1.01086
 O958 O 0.25540 0.25653 1.02858
 Zr959 Zr 0.27186 0.24046 0.97784
 O960 O 0.25573 0.22251 0.99436
 Zr961 Zr 0.23906 0.27312 0.97807
 O962 O 0.22131 0.25655 0.99431
 Zr963 Zr 0.26013 0.22846 1.02256
 O964 O 0.27816 0.24476 1.00608
 Zr965 Zr 0.22728 0.26107 1.02252
 O966 O 0.24363 0.27922 1.00626
 Zr967 Zr 0.22754 0.22837 0.98980
 O968 O 0.24364 0.24496 0.97163
 O969 O 0.26687 0.26822 0.98292
 O970 O 0.23215 0.23311 1.01778
 C971 C 0.26490 0.30719 0.98541
 C972 C 0.30589 0.26625 0.98517
 C973 C 0.26441 0.26622 0.94382
 C974 C 0.23386 0.19504 1.01688
 C975 C 0.23303 0.23402 1.05569
 C976 C 0.19411 0.23418 1.01647
 H977 H 0.25837 0.25926 1.04171
 H978 H 0.20823 0.25939 0.99136
 H979 H 0.27473 0.27613 0.97499
 H980 H 0.25876 0.20941 0.99163
 H981 H 0.29198 0.21313 1.01702
 H982 H 0.29004 0.21045 0.98530
 H983 H 0.19908 0.28064 1.01159
 H984 H 0.21902 0.29954 0.99142
 H985 H 0.28006 0.22148 1.05179
 H986 H 0.30101 0.27977 1.03130
 H987 H 0.19932 0.23896 0.97009
 H988 H 0.21864 0.26016 0.95179
 H989 H 0.27874 0.30203 1.03145
 H990 H 0.23752 0.28007 1.05141
 H991 H 0.25842 0.22104 0.95087
 H992 H 0.23801 0.19940 0.97106
 C993 C 0.31169 0.37956 0.81279
 C994 C 0.30762 0.39790 0.82280
 C995 C 0.29759 0.41007 0.81241
 C996 C 0.29262 0.40277 0.79301
 C997 C 0.28256 0.38433 0.79648
 C998 C 0.29260 0.37210 0.80688
 C999 C 0.32128 0.38520 0.79462
 C1000 C 0.31125 0.39739 0.78421
 C1001 C 0.32255 0.36651 0.82400
 C1002 C 0.33160 0.35593 0.83328
 C1003 C 0.28210 0.41637 0.78212
 C1004 C 0.27427 0.42875 0.77407
 H1005 H 0.31230 0.40110 0.83677
 H1006 H 0.29367 0.42370 0.81748
 H1007 H 0.26881 0.38115 0.79122
 H1008 H 0.28743 0.35843 0.81056
 H1009 H 0.33482 0.38015 0.79035
 H1010 H 0.31619 0.40279 0.77104
 C1011 C 0.31108 -0.12233 0.31089
 C1012 C 0.29270 -0.11673 0.32008
 C1013 C 0.28261 -0.10439 0.30989
 C1014 C 0.29189 -0.09886 0.29153
 C1015 C 0.29555 -0.11722 0.28138
 C1016 C 0.30565 -0.12958 0.29157
 C1017 C 0.32124 -0.10398 0.30725
 C1018 C 0.31116 -0.09167 0.29708
 C1019 C 0.32199 -0.13552 0.32192
 C1020 C 0.33106 -0.14617 0.33111
 C1021 C 0.28133 -0.08512 0.28084
 C1022 C 0.27352 -0.07264 0.27291
 H1023 H 0.28807 -0.12190 0.33346
 H1024 H 0.26933 -0.09901 0.31455
 H1025 H 0.29064 -0.12025 0.26746
 H1026 H 0.30941 -0.14321 0.28637
 H1027 H 0.33509 -0.10086 0.31232
 H1028 H 0.31635 -0.07802 0.29342
 C1029 C 0.81375 0.87771 0.81313
 C1030 C 0.82375 0.89615 0.80948
 C1031 C 0.81364 0.90828 0.79913
 C1032 C 0.79449 0.90085 0.79345
 C1033 C 0.78510 0.89533 0.81176
 C1034 C 0.79523 0.88317 0.82212
 C1035 C 0.80857 0.87029 0.79381
 C1036 C 0.79844 0.88248 0.78345
 C1037 C 0.82468 0.86471 0.82433
 C1038 C 0.83374 0.85417 0.83365
 C1039 C 0.78389 0.91442 0.78261
 C1040 C 0.77602 0.92681 0.77461
 H1041 H 0.83752 0.89944 0.81465
 H1042 H 0.81871 0.92196 0.79544
 H1043 H 0.77172 0.90060 0.81626
 H1044 H 0.79053 0.87803 0.83549
 H1045 H 0.81253 0.85667 0.78873
 H1046 H 0.79369 0.87931 0.76950
 C1047 C 0.43654 0.86995 0.31126
 C1048 C 0.44048 0.85161 0.32133
 C1049 C 0.45063 0.83944 0.31107
 C1050 C 0.45584 0.84675 0.29173
 C1051 C 0.46585 0.86519 0.29530
 C1052 C 0.45569 0.87741 0.30559
 C1053 C 0.42715 0.86431 0.29299
 C1054 C 0.43731 0.85212 0.28271
 C1055 C 0.42555 0.88298 0.32235
 C1056 C 0.41640 0.89356 0.33155
 C1057 C 0.46648 0.83315 0.28097
 C1058 C 0.47440 0.82076 0.27303
 H1059 H 0.43564 0.84840 0.33524
 H1060 H 0.45450 0.82581 0.31618
 H1061 H 0.47967 0.86837 0.29021
 H1062 H 0.46081 0.89108 0.30932
 H1063 H 0.41367 0.86936 0.28856
 H1064 H 0.43253 0.84673 0.26947
 C1065 C -0.06122 0.87013 0.81370
 C1066 C -0.04288 0.86457 0.82300
 C1067 C -0.03265 0.85236 0.81282
 C1068 C -0.04177 0.84688 0.79436
 C1069 C -0.04544 0.86527 0.78428
 C1070 C -0.05568 0.87752 0.79446
 C1071 C -0.07127 0.85175 0.80990
 C1072 C -0.06105 0.83956 0.79973
 C1073 C -0.07227 0.88319 0.82470
 C1074 C -0.08144 0.89379 0.83385
 C1075 C -0.03105 0.83327 0.78370
 C1076 C -0.02314 0.82086 0.77577
 H1077 H -0.03839 0.86969 0.83644
 H1078 H -0.01938 0.84701 0.81755
 H1079 H -0.04045 0.86841 0.77042
 H1080 H -0.05947 0.89116 0.78930
 H1081 H -0.08513 0.84853 0.81484
 H1082 H -0.06615 0.82590 0.79596
 C1083 C -0.06148 -0.12215 -0.06043
 C1084 C -0.04236 -0.12942 -0.05442
 C1085 C -0.03238 -0.11699 -0.04419
 C1086 C -0.04253 -0.09855 -0.04100
 C1087 C -0.06114 -0.10390 -0.03213
 C1088 C -0.07111 -0.11629 -0.04235
 C1089 C -0.05750 -0.10393 -0.07071
 C1090 C -0.04753 -0.09156 -0.06051
 C1091 C -0.07230 -0.13540 -0.07147
 C1092 C -0.08134 -0.14611 -0.08062
 C1093 C -0.03208 -0.08475 -0.03030
 C1094 C -0.02429 -0.07223 -0.02240
 H1095 H -0.03713 -0.14312 -0.05789
 H1096 H -0.01862 -0.12003 -0.03889
 H1097 H -0.06611 -0.09834 -0.01903
 H1098 H -0.08462 -0.12135 -0.03801
 H1099 H -0.06218 -0.10095 -0.08473
 H1100 H -0.04367 -0.07798 -0.06578
 C1101 C -0.06136 0.38028 0.43696
 C1102 C -0.04216 0.37288 0.44257
 C1103 C -0.03202 0.38511 0.45287
 C1104 C -0.04210 0.40349 0.45654
 C1105 C -0.06059 0.39801 0.46558
 C1106 C -0.07072 0.38581 0.45528
 C1107 C -0.05751 0.39867 0.42695
 C1108 C -0.04738 0.41085 0.43724
 C1109 C -0.07232 0.36723 0.42584
 C1110 C -0.08144 0.35666 0.41663
 C1111 C -0.03148 0.41709 0.46731
 C1112 C -0.02359 0.42949 0.47527
 H1113 H -0.03700 0.35924 0.43877
 H1114 H -0.01819 0.38196 0.45792
 H1115 H -0.06537 0.40333 0.47884
 H1116 H -0.08418 0.38069 0.45972
 H1117 H -0.06239 0.40191 0.41306
 H1118 H -0.04359 0.42452 0.43218
 C1119 C 0.43669 -0.12217 0.43657
 C1120 C 0.42743 -0.11661 0.45493
 C1121 C 0.43761 -0.10437 0.46514
 C1122 C 0.45604 -0.09889 0.45597
 C1123 C 0.45063 -0.09158 0.43669
 C1124 C 0.44045 -0.10379 0.42649
 C1125 C 0.45593 -0.12954 0.44207
 C1126 C 0.46612 -0.11727 0.45228
 C1127 C 0.42567 -0.13526 0.42555
 C1128 C 0.41650 -0.14588 0.41643
 C1129 C 0.46672 -0.08525 0.46665
 C1130 C 0.47465 -0.07283 0.47454
 H1131 H 0.41401 -0.12173 0.45947
 H1132 H 0.43292 -0.09902 0.47842
 H1133 H 0.45438 -0.07792 0.43158
 H1134 H 0.43548 -0.10059 0.41263
 H1135 H 0.46108 -0.14317 0.43827
 H1136 H 0.47999 -0.12039 0.45725
 C1137 C 0.43652 0.37976 -0.06128
 C1138 C 0.42726 0.38526 -0.04290
 C1139 C 0.43746 0.39743 -0.03263
 C1140 C 0.45591 0.40290 -0.04176
 C1141 C 0.45054 0.41031 -0.06101
 C1142 C 0.44034 0.39817 -0.07127
 C1143 C 0.45573 0.37232 -0.05579
 C1144 C 0.46594 0.38451 -0.04552
 C1145 C 0.42550 0.36675 -0.07238
 C1146 C 0.41634 0.35620 -0.08158
 C1147 C 0.46662 0.41647 -0.03103
 C1148 C 0.47461 0.42886 -0.02315
 H1149 H 0.41382 0.38015 -0.03840
 H1150 H 0.43277 0.40273 -0.01933
 H1151 H 0.45432 0.42398 -0.06606
 H1152 H 0.43539 0.40144 -0.08513
 H1153 H 0.46086 0.35869 -0.05964
 H1154 H 0.47980 0.38134 -0.04055
 C1155 C 0.81361 0.37253 0.43707
 C1156 C 0.80963 0.35420 0.42701
 C1157 C 0.79957 0.34199 0.43732
 C1158 C 0.79448 0.34925 0.45671
 C1159 C 0.78441 0.36768 0.45322
 C1160 C 0.79448 0.37994 0.44288
 C1161 C 0.82312 0.36688 0.45528
 C1162 C 0.81305 0.35465 0.46561
 C1163 C 0.82451 0.38560 0.42592
 C1164 C 0.83360 0.39619 0.41666
 C1165 C 0.78392 0.33561 0.46751
 C1166 C 0.77606 0.32319 0.47547
 H1167 H 0.81439 0.35103 0.41306
 H1168 H 0.79569 0.32836 0.43221
 H1169 H 0.77062 0.37083 0.45841
 H1170 H 0.78932 0.39361 0.43920
 H1171 H 0.83663 0.37195 0.45962
 H1172 H 0.81793 0.34925 0.47881
 C1173 C 0.81262 0.87069 -0.06089
 C1174 C 0.80717 0.87849 -0.04180
 C1175 C 0.79669 0.86660 -0.03144
 C1176 C 0.79271 0.84811 -0.04121
 C1177 C 0.81187 0.84034 -0.04642
 C1178 C 0.82233 0.85220 -0.05676
 C1179 C 0.79420 0.86530 -0.07014
 C1180 C 0.78373 0.85342 -0.05979
 C1181 C 0.82389 0.88341 -0.07207
 C1182 C 0.83320 0.89377 -0.08136
 C1183 C 0.78171 0.83488 -0.03035
 C1184 C 0.77363 0.82260 -0.02237
 H1185 H 0.81120 0.89214 -0.03686
 H1186 H 0.79172 0.87005 -0.01764
 H1187 H 0.81674 0.82665 -0.04243
 H1188 H 0.83614 0.84866 -0.06162
 H1189 H 0.78983 0.87026 -0.08368
 H1190 H 0.77039 0.84823 -0.06446
 C1191 C 0.81351 0.31370 0.37797
 C1192 C 0.79515 0.32298 0.38347
 C1193 C 0.78490 0.31282 0.39570
 C1194 C 0.79404 0.29438 0.40124
 C1195 C 0.81329 0.29980 0.40858
 C1196 C 0.82352 0.30996 0.39638
 C1197 C 0.80802 0.29444 0.37062
 C1198 C 0.79777 0.28427 0.38288
 C1199 C 0.82458 0.32469 0.36489
 C1200 C 0.83376 0.33381 0.35428
 C1201 C 0.78333 0.28372 0.41486
 C1202 C 0.77542 0.27578 0.42728
 H1203 H 0.79064 0.33640 0.37831
 H1204 H 0.77162 0.31753 0.40101
 H1205 H 0.81836 0.29607 0.42226
 H1206 H 0.83737 0.31493 0.39961
 H1207 H 0.81185 0.28926 0.35700
 H1208 H 0.79280 0.27039 0.37977
 C1209 C 0.81287 0.81114 -0.12051
 C1210 C 0.80879 0.82093 -0.10205
 C1211 C 0.79840 0.81056 -0.09016
 C1212 C 0.79309 0.79140 -0.09787
 C1213 C 0.81161 0.78230 -0.10315
 C1214 C 0.82201 0.79268 -0.11505
 C1215 C 0.79376 0.80577 -0.12830
 C1216 C 0.78335 0.79538 -0.11638
 C1217 C 0.82411 0.82231 -0.13327
 C1218 C 0.83343 0.83153 -0.14368
 C1219 C 0.78216 0.78049 -0.08462
 C1220 C 0.77411 0.77247 -0.07235
 H1221 H 0.81373 0.83474 -0.09856
 H1222 H 0.79443 0.81550 -0.07649
 H1223 H 0.81620 0.76894 -0.09791
 H1224 H 0.83552 0.78822 -0.12000
 H1225 H 0.78885 0.80978 -0.14197
 H1226 H 0.76953 0.79048 -0.11982
 C1227 C 0.31101 0.43864 0.87198
 C1228 C 0.30535 0.45791 0.87916
 C1229 C 0.29519 0.46797 0.86675
 C1230 C 0.29170 0.45775 0.84840
 C1231 C 0.28259 0.43930 0.85393
 C1232 C 0.29274 0.42925 0.86632
 C1233 C 0.32120 0.44234 0.85365
 C1234 C 0.31105 0.45239 0.84128
 C1235 C 0.32198 0.42776 0.88523
 C1236 C 0.33109 0.41870 0.89596
 C1237 C 0.28107 0.46831 0.83461
 C1238 C 0.27324 0.47619 0.82211
 H1239 H 0.30900 0.46318 0.89280
 H1240 H 0.29013 0.48184 0.86973
 H1241 H 0.26938 0.43450 0.84850
 H1242 H 0.28824 0.41583 0.87150
 H1243 H 0.33510 0.43742 0.85059
 H1244 H 0.31626 0.45607 0.82764
 C1245 C 0.31155 -0.06330 0.36996
 C1246 C 0.32098 -0.04504 0.36433
 C1247 C 0.31086 -0.03474 0.35212
 C1248 C 0.29231 -0.04371 0.34673
 C1249 C 0.28227 -0.04727 0.36517
 C1250 C 0.29240 -0.05758 0.37741
 C1251 C 0.30759 -0.07335 0.35162
 C1252 C 0.29747 -0.06306 0.33944
 C1253 C 0.32251 -0.07440 0.38302
 C1254 C 0.33164 -0.08358 0.39363
 C1255 C 0.28171 -0.03292 0.33313
 C1256 C 0.27383 -0.02492 0.32073
 H1257 H 0.33447 -0.04064 0.36938
 H1258 H 0.31567 -0.02151 0.34673
 H1259 H 0.26847 -0.04215 0.36834
 H1260 H 0.28726 -0.06130 0.39108
 H1261 H 0.31240 -0.08727 0.34842
 H1262 H 0.29361 -0.06817 0.32580
 C1263 C -0.06126 -0.06322 -0.11996
 C1264 C -0.04287 -0.07240 -0.11440
 C1265 C -0.03268 -0.06214 -0.10221
 C1266 C -0.04189 -0.04372 -0.09678
 C1267 C -0.06113 -0.04917 -0.08942
 C1268 C -0.07131 -0.05943 -0.10158
 C1269 C -0.05584 -0.04398 -0.12741
 C1270 C -0.04564 -0.03371 -0.11520
 C1271 C -0.07228 -0.07430 -0.13298
 C1272 C -0.08144 -0.08350 -0.14354
 C1273 C -0.03124 -0.03295 -0.08320
 C1274 C -0.02341 -0.02494 -0.07080
 H1275 H -0.03831 -0.08583 -0.11948
 H1276 H -0.01938 -0.06678 -0.09687
 H1277 H -0.06623 -0.04540 -0.07577
 H1278 H -0.08514 -0.06444 -0.09834
 H1279 H -0.05967 -0.03887 -0.14106
 H1280 H -0.04072 -0.01982 -0.11837
 C1281 C -0.06084 0.43895 0.37778
 C1282 C -0.04258 0.42959 0.38350
 C1283 C -0.03246 0.43968 0.39589
 C1284 C -0.04160 0.45813 0.40135
 C1285 C -0.06097 0.45277 0.40843
 C1286 C -0.07108 0.44268 0.39607
 C1287 C -0.05518 0.45821 0.37055
 C1288 C -0.04506 0.46831 0.38297
 C1289 C -0.07178 0.42802 0.36455
 C1290 C -0.08089 0.41890 0.35387
 C1291 C -0.03102 0.46872 0.41514
 C1292 C -0.02322 0.47664 0.42764
 H1293 H -0.03805 0.41617 0.37837
 H1294 H -0.01927 0.43491 0.40136
 H1295 H -0.06621 0.45648 0.42205
 H1296 H -0.08498 0.43775 0.39911
 H1297 H -0.05881 0.46344 0.35689
 H1298 H -0.04000 0.48218 0.37995
 C1299 C 0.43677 -0.06358 0.37772
 C1300 C 0.45511 -0.07289 0.38325
 C1301 C 0.46537 -0.06272 0.39544
 C1302 C 0.45628 -0.04425 0.40092
 C1303 C 0.43701 -0.04958 0.40827
 C1304 C 0.42676 -0.05975 0.39611
 C1305 C 0.44231 -0.04436 0.37030
 C1306 C 0.45258 -0.03418 0.38252
 C1307 C 0.42568 -0.07459 0.36470
 C1308 C 0.41647 -0.08376 0.35417
 C1309 C 0.46700 -0.03359 0.41452
 C1310 C 0.47489 -0.02564 0.42694
 H1311 H 0.45958 -0.08634 0.37814
 H1312 H 0.47865 -0.06744 0.40077
 H1313 H 0.43194 -0.04580 0.42194
 H1314 H 0.41290 -0.06468 0.39935
 H1315 H 0.43851 -0.03921 0.35666
 H1316 H 0.45759 -0.02032 0.37937
 C1317 C 0.43672 0.43802 -0.12029
 C1318 C 0.44239 0.45721 -0.12770
 C1319 C 0.45266 0.46735 -0.11544
 C1320 C 0.45623 0.45728 -0.09703
 C1321 C 0.46526 0.43877 -0.10245
 C1322 C 0.45500 0.42863 -0.11467
 C1323 C 0.42666 0.44191 -0.10194
 C1324 C 0.43691 0.45204 -0.08974
 C1325 C 0.42564 0.42706 -0.13335
 C1326 C 0.41645 0.41793 -0.14395
 C1327 C 0.46697 0.46791 -0.08340
 C1328 C 0.47489 0.47585 -0.07100
 H1329 H 0.43866 0.46237 -0.14136
 H1330 H 0.45774 0.48119 -0.11859
 H1331 H 0.47849 0.43398 -0.09707
 H1332 H 0.45943 0.41516 -0.11976
 H1333 H 0.41276 0.43705 -0.09874
 H1334 H 0.43181 0.45586 -0.07609
 C1335 C 0.43671 0.81117 0.37025
 C1336 C 0.44219 0.79193 0.37767
 C1337 C 0.45245 0.78172 0.36546
 C1338 C 0.45620 0.79178 0.34707
 C1339 C 0.46534 0.81023 0.35256
 C1340 C 0.45509 0.82043 0.36474
 C1341 C 0.42672 0.80737 0.35185
 C1342 C 0.43696 0.79718 0.33969
 C1343 C 0.42565 0.82220 0.38329
 C1344 C 0.41648 0.83138 0.39386
 C1345 C 0.46694 0.78109 0.33349
 C1346 C 0.47489 0.77316 0.32110
 H1347 H 0.43835 0.78679 0.39131
 H1348 H 0.45741 0.76785 0.36862
 H1349 H 0.47863 0.81493 0.34724
 H1350 H 0.45959 0.83387 0.36986
 H1351 H 0.41287 0.81234 0.34859
 H1352 H 0.43190 0.79341 0.32601
 C1353 C -0.06109 0.81117 0.87280
 C1354 C -0.04178 0.80569 0.87998
 C1355 C -0.03167 0.79554 0.86759
 C1356 C -0.04188 0.79190 0.84927
 C1357 C -0.04740 0.81120 0.84209
 C1358 C -0.05749 0.82132 0.85442
 C1359 C -0.07035 0.79281 0.86724
 C1360 C -0.06024 0.78267 0.85488
 C1361 C -0.07204 0.82212 0.88601
 C1362 C -0.08120 0.83121 0.89667
 C1363 C -0.03130 0.78128 0.83550
 C1364 C -0.02346 0.77338 0.82302
 H1365 H -0.03651 0.80944 0.89359
 H1366 H -0.01776 0.79060 0.87057
 H1367 H -0.04378 0.81637 0.82842
 H1368 H -0.06252 0.83518 0.85131
 H1369 H -0.08371 0.78822 0.87246
 H1370 H -0.06495 0.76940 0.84952
 C1371 C 0.37767 0.81099 0.31135
 C1372 C 0.37053 0.80539 0.29205
 C1373 C 0.38294 0.79521 0.28200
 C1374 C 0.40124 0.79165 0.29227
 C1375 C 0.39563 0.78251 0.31068
 C1376 C 0.38325 0.79268 0.32072
 C1377 C 0.39603 0.82115 0.30772
 C1378 C 0.40838 0.81099 0.29769
 C1379 C 0.36443 0.82199 0.32221
 C1380 C 0.35373 0.83114 0.33127
 C1381 C 0.41503 0.78101 0.28173
 C1382 C 0.42751 0.77316 0.27385
 H1383 H 0.35693 0.80910 0.28674
 H1384 H 0.37998 0.79018 0.26811
 H1385 H 0.40100 0.76927 0.31548
 H1386 H 0.37802 0.78816 0.33411
 H1387 H 0.39911 0.83504 0.31268
 H1388 H 0.42204 0.81616 0.29406
 C1389 C -0.12002 0.81115 0.81390
 C1390 C -0.10159 0.80752 0.82391
 C1391 C -0.08943 0.79726 0.81375
 C1392 C -0.09682 0.79163 0.79457
 C1393 C -0.10239 0.80996 0.78524
 C1394 C -0.11457 0.82023 0.79540
 C1395 C -0.12738 0.79183 0.80865
 C1396 C -0.11516 0.78155 0.79847
 C1397 C -0.13306 0.82225 0.82487
 C1398 C -0.14367 0.83148 0.83394
 C1399 C -0.08324 0.78087 0.78392
 C1400 C -0.07085 0.77291 0.77601
 H1401 H -0.09833 0.81265 0.83770
 H1402 H -0.07574 0.79359 0.81882
 H1403 H -0.09712 0.81452 0.77187
 H1404 H -0.11975 0.83360 0.79076
 H1405 H -0.14098 0.78668 0.81258
 H1406 H -0.11828 0.76761 0.79367
 C1407 C 0.87228 0.31369 0.43666
 C1408 C 0.86675 0.29536 0.42732
 C1409 C 0.85452 0.28509 0.43745
 C1410 C 0.84901 0.29418 0.45592
 C1411 C 0.84170 0.31348 0.45058
 C1412 C 0.85390 0.32373 0.44045
 C1413 C 0.87963 0.30812 0.45589
 C1414 C 0.86737 0.29785 0.46604
 C1415 C 0.88535 0.32478 0.42569
 C1416 C 0.89593 0.33398 0.41655
 C1417 C 0.83537 0.28346 0.46655
 C1418 C 0.82295 0.27555 0.47447
 H1419 H 0.87189 0.29089 0.41388
 H1420 H 0.84919 0.27183 0.43270
 H1421 H 0.82804 0.31856 0.45433
 H1422 H 0.85069 0.33761 0.43552
 H1423 H 0.89325 0.31191 0.46108
 H1424 H 0.87048 0.29282 0.47990
 C1425 C 0.87249 0.81080 -0.06044
 C1426 C 0.86698 0.82000 -0.04202
 C1427 C 0.85482 0.80975 -0.03178
 C1428 C 0.84936 0.79131 -0.04096
 C1429 C 0.86774 0.78130 -0.04477
 C1430 C 0.87992 0.79156 -0.05502
 C1431 C 0.85408 0.80702 -0.07043
 C1432 C 0.84194 0.79678 -0.06020
 C1433 C 0.88553 0.82187 -0.07148
 C1434 C 0.89611 0.83107 -0.08063
 C1435 C 0.83584 0.78053 -0.03022
 C1436 C 0.82342 0.77258 -0.02234
 H1437 H 0.87208 0.83343 -0.03748
 H1438 H 0.84951 0.81440 -0.01847
 H1439 H 0.87092 0.76742 -0.03986
 H1440 H 0.89355 0.78644 -0.05889
 H1441 H 0.85081 0.81203 -0.08427
 H1442 H 0.82826 0.79303 -0.06529
 C1443 C -0.12034 -0.06337 -0.06158
 C1444 C -0.11487 -0.04504 -0.07099
 C1445 C -0.10266 -0.03471 -0.06090
 C1446 C -0.09711 -0.04373 -0.04241
 C1447 C -0.08975 -0.06302 -0.04769
 C1448 C -0.10193 -0.07334 -0.05778
 C1449 C -0.12769 -0.05776 -0.04236
 C1450 C -0.11546 -0.04742 -0.03226
 C1451 C -0.13340 -0.07452 -0.07250
 C1452 C -0.14399 -0.08375 -0.08158
 C1453 C -0.08351 -0.03293 -0.03182
 C1454 C -0.07114 -0.02493 -0.02391
 H1455 H -0.12003 -0.04063 -0.08444
 H1456 H -0.09737 -0.02145 -0.06570
 H1457 H -0.07607 -0.06804 -0.04394
 H1458 H -0.09869 -0.08722 -0.06266
 H1459 H -0.14130 -0.06157 -0.03714
 H1460 H -0.11857 -0.04237 -0.01841
 C1461 C -0.12019 0.43931 0.43652
 C1462 C -0.10188 0.42924 0.44054
 C1463 C -0.08971 0.43954 0.45065
 C1464 C -0.09698 0.45892 0.45574
 C1465 C -0.11542 0.45542 0.46576
 C1466 C -0.12765 0.44510 0.45564
 C1467 C -0.11452 0.45752 0.42703
 C1468 C -0.10232 0.46784 0.43714
 C1469 C -0.13324 0.42817 0.42558
 C1470 C -0.14382 0.41892 0.41649
 C1471 C -0.08338 0.46971 0.46635
 C1472 C -0.07100 0.47767 0.47428
 H1473 H -0.09870 0.41529 0.43578
 H1474 H -0.07609 0.43443 0.45455
 H1475 H -0.11861 0.46060 0.47955
 H1476 H -0.14133 0.44142 0.46078
 H1477 H -0.11955 0.46188 0.41350
 H1478 H -0.09690 0.48104 0.43228
 C1479 C 0.37796 -0.06315 0.43625
 C1480 C 0.38360 -0.04493 0.42674
 C1481 C 0.39581 -0.03460 0.43682
 C1482 C 0.40120 -0.04351 0.45541
 C1483 C 0.40847 -0.06289 0.45032
 C1484 C 0.39628 -0.07320 0.44024
 C1485 C 0.37053 -0.05735 0.45538
 C1486 C 0.38277 -0.04701 0.46548
 C1487 C 0.36490 -0.07429 0.42533
 C1488 C 0.35430 -0.08352 0.41625
 C1489 C 0.41481 -0.03271 0.46598
 C1490 C 0.42722 -0.02473 0.47386
 H1491 H 0.37855 -0.04058 0.41322
 H1492 H 0.40121 -0.02140 0.43195
 H1493 H 0.42209 -0.06799 0.45420
 H1494 H 0.39947 -0.08715 0.43548
 H1495 H 0.35687 -0.06104 0.46055
 H1496 H 0.37961 -0.04184 0.47927
 C1497 C 0.37765 0.43905 -0.06143
 C1498 C 0.37036 0.44497 -0.04228
 C1499 C 0.38274 0.45521 -0.03226
 C1500 C 0.40117 0.45851 -0.04239
 C1501 C 0.39579 0.46743 -0.06099
 C1502 C 0.38344 0.45719 -0.07100
 C1503 C 0.39590 0.42883 -0.05749
 C1504 C 0.40823 0.43905 -0.04747
 C1505 C 0.36444 0.42800 -0.07228
 C1506 C 0.35377 0.41882 -0.08134
 C1507 C 0.41492 0.46922 -0.03189
 C1508 C 0.42740 0.47714 -0.02406
 H1509 H 0.35668 0.44142 -0.03706
 H1510 H 0.37968 0.46044 -0.01846
 H1511 H 0.40130 0.48056 -0.06591
 H1512 H 0.37838 0.46156 -0.08451
 H1513 H 0.39893 0.41485 -0.06222
 H1514 H 0.42181 0.43382 -0.04363
 C1515 C 0.37025 0.43835 0.81325
 C1516 C 0.36474 0.45672 0.82253
 C1517 C 0.35256 0.46698 0.81235
 C1518 C 0.34706 0.45786 0.79390
 C1519 C 0.33969 0.43859 0.79928
 C1520 C 0.35185 0.42834 0.80946
 C1521 C 0.37764 0.44385 0.79401
 C1522 C 0.36543 0.45412 0.78382
 C1523 C 0.38327 0.42725 0.82425
 C1524 C 0.39382 0.41803 0.83340
 C1525 C 0.33347 0.46857 0.78321
 C1526 C 0.32109 0.47645 0.77522
 H1527 H 0.36988 0.46121 0.83597
 H1528 H 0.34725 0.48027 0.81706
 H1529 H 0.32602 0.43354 0.79553
 H1530 H 0.34860 0.41449 0.81442
 H1531 H 0.39127 0.44002 0.78885
 H1532 H 0.36857 0.45910 0.76995
 C1533 C 0.37020 -0.06360 0.31128
 C1534 C 0.36474 -0.07286 0.29289
 C1535 C 0.35255 -0.06268 0.28262
 C1536 C 0.34700 -0.04426 0.29178
 C1537 C 0.36534 -0.03415 0.29556
 C1538 C 0.37756 -0.04433 0.30582
 C1539 C 0.35178 -0.05987 0.32127
 C1540 C 0.33961 -0.04970 0.31102
 C1541 C 0.38323 -0.07461 0.32236
 C1542 C 0.39379 -0.08377 0.33155
 C1543 C 0.33340 -0.03360 0.28105
 C1544 C 0.32101 -0.02565 0.27312
 H1545 H 0.36990 -0.08627 0.28837
 H1546 H 0.34727 -0.06737 0.26931
 H1547 H 0.36846 -0.02026 0.29061
 H1548 H 0.39117 -0.03916 0.30969
 H1549 H 0.34852 -0.06487 0.33511
 H1550 H 0.32593 -0.04598 0.31607
 C1551 C 0.12832 0.56200 0.68800
 C1552 C 0.13385 0.54357 0.67887
 C1553 C 0.14578 0.53324 0.68928
 C1554 C 0.15102 0.54236 0.70781
 C1555 C 0.13251 0.54627 0.71756
 C1556 C 0.12056 0.55660 0.70713
 C1557 C 0.14673 0.57187 0.69208
 C1558 C 0.15865 0.56156 0.70249
 C1559 C 0.11551 0.57314 0.67677
 C1560 C 0.10505 0.58236 0.66753
 C1561 C 0.16430 0.53151 0.71877
 C1562 C 0.17658 0.52354 0.72684
 H1563 H 0.12893 0.53908 0.66535
 H1564 H 0.15107 0.51990 0.68469
 H1565 H 0.12908 0.54136 0.73138
 H1566 H 0.10688 0.56056 0.71204
 H1567 H 0.15018 0.58569 0.68713
 H1568 H 0.17230 0.56656 0.70645
 C1569 C 0.12837 0.06231 0.18821
 C1570 C 0.12049 0.04328 0.19377
 C1571 C 0.13240 0.03285 0.20414
 C1572 C 0.15099 0.04248 0.20791
 C1573 C 0.14592 0.06111 0.21692
 C1574 C 0.13403 0.07154 0.20656
 C1575 C 0.14672 0.05804 0.17830
 C1576 C 0.15859 0.04761 0.18865
 C1577 C 0.11561 0.07355 0.17704
 C1578 C 0.10517 0.08282 0.16780
 C1579 C 0.16424 0.03151 0.21878
 C1580 C 0.17651 0.02340 0.22673
 H1581 H 0.10676 0.03844 0.18989
 H1582 H 0.12889 0.01908 0.20916
 H1583 H 0.15129 0.06575 0.23021
 H1584 H 0.12922 0.08512 0.21097
 H1585 H 0.15015 0.06286 0.16443
 H1586 H 0.17219 0.04352 0.18363
 C1587 C 0.62110 0.68774 0.18823
 C1588 C 0.62872 0.70688 0.19375
 C1589 C 0.61668 0.71716 0.20413
 C1590 C 0.59823 0.70726 0.20796
 C1591 C 0.60358 0.68871 0.21698
 C1592 C 0.61560 0.67845 0.20660
 C1593 C 0.60268 0.69175 0.17835
 C1594 C 0.59068 0.70201 0.18871
 C1595 C 0.63399 0.67666 0.17704
 C1596 C 0.64448 0.66748 0.16778
 C1597 C 0.58485 0.71805 0.21884
 C1598 C 0.57248 0.72599 0.22680
 H1599 H 0.64238 0.71191 0.18985
 H1600 H 0.62001 0.73097 0.20914
 H1601 H 0.59830 0.68400 0.23028
 H1602 H 0.62061 0.66494 0.21102
 H1603 H 0.59930 0.68688 0.16450
 H1604 H 0.57701 0.70591 0.18372
 C1605 C 0.12193 0.68788 0.68859
 C1606 C 0.11648 0.70648 0.67973
 C1607 C 0.10457 0.71668 0.69029
 C1608 C 0.09926 0.70728 0.70867
 C1609 C 0.11774 0.70315 0.71838
 C1610 C 0.12967 0.69294 0.70781
 C1611 C 0.10347 0.67801 0.69248
 C1612 C 0.09158 0.68820 0.70303
 C1613 C 0.13471 0.67688 0.67721
 C1614 C 0.14515 0.66776 0.66784
 C1615 C 0.08599 0.71799 0.71976
 C1616 C 0.07372 0.72588 0.72791
 H1617 H 0.12145 0.71117 0.66629
 H1618 H 0.09933 0.73011 0.68590
 H1619 H 0.12115 0.70783 0.73229
 H1620 H 0.14333 0.68886 0.71268
 H1621 H 0.09999 0.66429 0.68731
 H1622 H 0.07790 0.68319 0.70689
 C1623 C 0.62135 0.19641 0.55340
 C1624 C 0.62102 0.19355 0.53227
 C1625 C 0.63493 0.20264 0.52318
 C1626 C 0.64775 0.21368 0.53613
 C1627 C 0.65469 0.19948 0.55043
 C1628 C 0.64084 0.19043 0.55949
 C1629 C 0.62094 0.21755 0.55614
 C1630 C 0.63485 0.22664 0.54705
 C1631 C 0.60671 0.18643 0.56340
 C1632 C 0.59531 0.17778 0.57209
 C1633 C 0.66313 0.22310 0.52671
 C1634 C 0.67682 0.22990 0.51995
 H1635 H 0.61077 0.18517 0.52510
 H1636 H 0.63659 0.20205 0.50822
 H1637 H 0.66925 0.19677 0.55320
 H1638 H 0.64355 0.17997 0.57001
 H1639 H 0.61064 0.22474 0.56445
 H1640 H 0.63645 0.24161 0.54756
 C1641 C 0.62887 0.68743 0.06211
 C1642 C 0.64716 0.69142 0.07222
 C1643 C 0.65939 0.70148 0.06194
 C1644 C 0.65219 0.70657 0.04253
 C1645 C 0.63376 0.71664 0.04595
 C1646 C 0.62148 0.70657 0.05626
 C1647 C 0.63457 0.67791 0.04392
 C1648 C 0.64682 0.68798 0.03362
 C1649 C 0.61577 0.67651 0.07323
 C1650 C 0.60516 0.66739 0.08242
 C1651 C 0.66587 0.71711 0.03175
 C1652 C 0.67833 0.72495 0.02382
 H1653 H 0.65030 0.68667 0.08618
 H1654 H 0.67300 0.70536 0.06708
 H1655 H 0.63063 0.73043 0.04075
 H1656 H 0.60781 0.71174 0.05990
 H1657 H 0.62951 0.66439 0.03957
 H1658 H 0.65225 0.68309 0.02044
 C1659 C 0.12159 0.06214 0.06187
 C1660 C 0.12935 0.04301 0.05649
 C1661 C 0.11739 0.03257 0.04618
 C1662 C 0.09888 0.04231 0.04227
 C1663 C 0.10411 0.06083 0.03312
 C1664 C 0.11605 0.07126 0.04342
 C1665 C 0.10319 0.05807 0.07176
 C1666 C 0.09126 0.04765 0.06147
 C1667 C 0.13440 0.07337 0.07299
 C1668 C 0.14485 0.08261 0.08223
 C1669 C 0.08558 0.03135 0.03146
 C1670 C 0.07327 0.02328 0.02355
 H1671 H 0.14303 0.03810 0.06045
 H1672 H 0.12081 0.01874 0.04129
 H1673 H 0.09881 0.06541 0.01977
 H1674 H 0.12097 0.08477 0.03891
 H1675 H 0.09975 0.06303 0.08558
 H1676 H 0.07762 0.04369 0.06648
 C1677 C 0.12174 0.56248 0.56214
 C1678 C 0.11624 0.54396 0.57113
 C1679 C 0.10431 0.53370 0.56065
 C1680 C 0.09905 0.54297 0.54219
 C1681 C 0.11755 0.54698 0.53247
 C1682 C 0.12949 0.55725 0.54296
 C1683 C 0.10331 0.57236 0.55815
 C1684 C 0.09140 0.56211 0.54767
 C1685 C 0.13453 0.57354 0.57344
 C1686 C 0.14498 0.58270 0.58277
 C1687 C 0.08577 0.53220 0.53117
 C1688 C 0.07349 0.52430 0.52304
 H1689 H 0.12118 0.53937 0.58461
 H1690 H 0.09904 0.52031 0.56514
 H1691 H 0.12096 0.54219 0.51860
 H1692 H 0.14316 0.56127 0.53807
 H1693 H 0.09986 0.58613 0.56321
 H1694 H 0.07775 0.56712 0.54376
 C1695 C 0.62847 0.05411 0.55384
 C1696 C 0.60896 0.06002 0.55994
 C1697 C 0.59513 0.05096 0.55086
 C1698 C 0.60212 0.03682 0.53652
 C1699 C 0.61506 0.02386 0.54741
 C1700 C 0.62893 0.03296 0.55653
 C1701 C 0.62879 0.05703 0.53273
 C1702 C 0.61492 0.04794 0.52361
 C1703 C 0.64309 0.06411 0.56386
 C1704 C 0.65449 0.07275 0.57254
 C1705 C 0.58678 0.02739 0.52706
 C1706 C 0.57314 0.02057 0.52020
 H1707 H 0.60622 0.07044 0.57049
 H1708 H 0.58057 0.05362 0.55364
 H1709 H 0.61349 0.00889 0.54789
 H1710 H 0.63925 0.02578 0.56483
 H1711 H 0.63902 0.06547 0.52557
 H1712 H 0.61326 0.04857 0.50864
 C1713 C 0.62091 0.56199 0.06196
 C1714 C 0.61552 0.54350 0.07110
 C1715 C 0.60354 0.53316 0.06076
 C1716 C 0.59812 0.54232 0.04230
 C1717 C 0.61653 0.54633 0.03241
 C1718 C 0.62853 0.55668 0.04276
 C1719 C 0.60243 0.57180 0.05807
 C1720 C 0.59046 0.56147 0.04774
 C1721 C 0.63375 0.57313 0.07314
 C1722 C 0.64421 0.58233 0.08241
 C1723 C 0.58476 0.53147 0.03144
 C1724 C 0.57241 0.52353 0.02345
 H1725 H 0.62058 0.53899 0.08456
 H1726 H 0.59834 0.51978 0.06536
 H1727 H 0.61985 0.54147 0.01854
 H1728 H 0.64215 0.56070 0.03774
 H1729 H 0.59898 0.58559 0.06308
 H1730 H 0.57677 0.56642 0.04390
 C1731 C 0.06220 0.06230 0.12193
 C1732 C 0.05819 0.07200 0.10341
 C1733 C 0.04788 0.06154 0.09152
 C1734 C 0.04258 0.04239 0.09931
 C1735 C 0.03275 0.04643 0.11774
 C1736 C 0.04307 0.05691 0.12966
 C1737 C 0.07142 0.04384 0.11661
 C1738 C 0.06111 0.03338 0.10471
 C1739 C 0.07334 0.07357 0.13471
 C1740 C 0.08256 0.08283 0.14516
 C1741 C 0.03173 0.03140 0.08607
 C1742 C 0.02369 0.02333 0.07383
 H1743 H 0.06310 0.08580 0.09986
 H1744 H 0.04397 0.06640 0.07780
 H1745 H 0.01893 0.04151 0.12115
 H1746 H 0.03808 0.06097 0.14328
 H1747 H 0.08492 0.03944 0.12164
 H1748 H 0.06576 0.02001 0.09956
 C1749 C 0.06201 0.56218 0.62142
 C1750 C 0.07184 0.55827 0.60294
 C1751 C 0.06148 0.54803 0.59093
 C1752 C 0.04228 0.54268 0.59853
 C1753 C 0.03323 0.56118 0.60398
 C1754 C 0.04360 0.57143 0.61602
 C1755 C 0.05657 0.54299 0.62899
 C1756 C 0.04619 0.53273 0.61694
 C1757 C 0.07319 0.57325 0.63433
 C1758 C 0.08242 0.58242 0.64486
 C1759 C 0.03140 0.53191 0.58513
 C1760 C 0.02343 0.52398 0.57275
 H1761 H 0.08566 0.56321 0.59953
 H1762 H 0.06644 0.54420 0.57722
 H1763 H 0.01990 0.56587 0.59875
 H1764 H 0.03917 0.58491 0.62109
 H1765 H 0.06052 0.53792 0.64262
 H1766 H 0.04124 0.51888 0.62023
 C1767 C 0.55365 0.05316 0.62887
 C1768 C 0.55968 0.05934 0.60941
 C1769 C 0.55066 0.05034 0.59549
 C1770 C 0.53646 0.03601 0.60234
 C1771 C 0.52347 0.04688 0.61527
 C1772 C 0.53252 0.05590 0.62924
 C1773 C 0.55651 0.03204 0.62911
 C1774 C 0.54746 0.02301 0.61514
 C1775 C 0.56359 0.06310 0.64358
 C1776 C 0.57222 0.07174 0.65504
 C1777 C 0.52708 0.02666 0.58689
 C1778 C 0.52032 0.01993 0.57316
 H1779 H 0.57013 0.06987 0.60677
 H1780 H 0.55341 0.05319 0.58094
 H1781 H 0.50851 0.04740 0.61363
 H1782 H 0.52531 0.06417 0.63957
 H1783 H 0.56486 0.02482 0.63936
 H1784 H 0.54806 0.00805 0.61342
 C1785 C 0.56189 0.56169 0.12187
 C1786 C 0.57153 0.55780 0.10329
 C1787 C 0.56103 0.54759 0.09136
 C1788 C 0.54190 0.54226 0.09914
 C1789 C 0.53293 0.56076 0.10471
 C1790 C 0.54344 0.57098 0.11666
 C1791 C 0.55649 0.54250 0.12947
 C1792 C 0.54598 0.53227 0.11750
 C1793 C 0.57319 0.57273 0.13470
 C1794 C 0.58246 0.58192 0.14518
 C1795 C 0.53086 0.53152 0.08584
 C1796 C 0.52276 0.52360 0.07355
 H1797 H 0.58532 0.56273 0.09975
 H1798 H 0.56585 0.54378 0.07760
 H1799 H 0.51956 0.56548 0.09963
 H1800 H 0.53907 0.58445 0.12181
 H1801 H 0.56058 0.53739 0.14304
 H1802 H 0.54104 0.51842 0.12081
 C1803 C 0.18806 0.56223 0.62871
 C1804 C 0.19351 0.54310 0.62102
 C1805 C 0.20393 0.53278 0.63300
 C1806 C 0.20784 0.54262 0.65146
 C1807 C 0.18865 0.54789 0.65912
 C1808 C 0.17826 0.55819 0.64718
 C1809 C 0.20646 0.57148 0.63414
 C1810 C 0.21686 0.56117 0.64610
 C1811 C 0.17685 0.57337 0.61589
 C1812 C 0.16760 0.58261 0.60544
 C1813 C 0.21877 0.53180 0.66478
 C1814 C 0.22679 0.52383 0.67710
 H1815 H 0.18954 0.53811 0.60737
 H1816 H 0.20888 0.51896 0.62962
 H1817 H 0.18372 0.54396 0.67281
 H1818 H 0.16444 0.56308 0.65064
 H1819 H 0.21087 0.58500 0.62914
 H1820 H 0.23019 0.56585 0.65133
 C1821 C 0.18771 0.06188 0.12808
 C1822 C 0.20679 0.05634 0.12033
 C1823 C 0.21706 0.04581 0.13225
 C1824 C 0.20721 0.04186 0.15071
 C1825 C 0.18862 0.03297 0.14535
 C1826 C 0.17836 0.04350 0.13344
 C1827 C 0.19183 0.07157 0.14658
 C1828 C 0.20207 0.06105 0.15847
 C1829 C 0.17664 0.07321 0.11531
 C1830 C 0.16745 0.08253 0.10487
 C1831 C 0.21800 0.03081 0.16396
 C1832 C 0.22600 0.02273 0.17621
 H1833 H 0.21179 0.06035 0.10669
 H1834 H 0.23083 0.04078 0.12884
 H1835 H 0.18387 0.01964 0.15053
 H1836 H 0.16482 0.03919 0.12844
 H1837 H 0.18702 0.08541 0.15011
 H1838 H 0.20604 0.06590 0.17217
 C1839 C 0.69583 0.19579 0.62829
 C1840 C 0.71693 0.19285 0.62866
 C1841 C 0.72609 0.20200 0.61485
 C1842 C 0.71324 0.21318 0.60205
 C1843 C 0.70233 0.22609 0.61502
 C1844 C 0.69316 0.21693 0.62883
 C1845 C 0.68979 0.18997 0.60872
 C1846 C 0.69892 0.19909 0.59496
 C1847 C 0.68577 0.18572 0.64285
 C1848 C 0.67710 0.17698 0.65419
 C1849 C 0.72276 0.22267 0.58677
 C1850 C 0.72967 0.22952 0.57316
 H1851 H 0.72404 0.18436 0.63888
 H1852 H 0.74105 0.20137 0.61323
 H1853 H 0.70187 0.24107 0.61351
 H1854 H 0.68484 0.22408 0.63916
 H1855 H 0.67924 0.17957 0.60590
 H1856 H 0.69619 0.19650 0.58036
 C1857 C 0.68717 0.68777 0.12132
 C1858 C 0.69108 0.67768 0.10299
 C1859 C 0.70133 0.68788 0.09084
 C1860 C 0.70666 0.70718 0.09815
 C1861 C 0.71661 0.70353 0.11661
 C1862 C 0.70635 0.69331 0.12882
 C1863 C 0.67792 0.70611 0.11567
 C1864 C 0.68818 0.71632 0.10349
 C1865 C 0.67610 0.67673 0.13436
 C1866 C 0.66697 0.66754 0.14496
 C1867 C 0.71743 0.71785 0.08457
 C1868 C 0.72546 0.72572 0.07219
 H1869 H 0.68615 0.66381 0.09977
 H1870 H 0.70518 0.68276 0.07721
 H1871 H 0.73045 0.70852 0.11982
 H1872 H 0.71141 0.68954 0.14250
 H1873 H 0.66446 0.71063 0.12069
 H1874 H 0.68350 0.72959 0.09809
 C1875 C 0.56184 0.68774 0.12823
 C1876 C 0.54269 0.69300 0.12045
 C1877 C 0.53219 0.70326 0.13240
 C1878 C 0.54189 0.70724 0.15092
 C1879 C 0.56035 0.71650 0.14569
 C1880 C 0.57084 0.70624 0.13375
 C1881 C 0.55782 0.67784 0.14666
 C1882 C 0.54734 0.68809 0.15857
 C1883 C 0.57313 0.67667 0.11543
 C1884 C 0.58241 0.66748 0.10498
 C1885 C 0.53086 0.71800 0.16420
 C1886 C 0.52273 0.72590 0.17649
 H1887 H 0.53781 0.68900 0.10677
 H1888 H 0.51834 0.70807 0.12897
 H1889 H 0.56484 0.72987 0.15098
 H1890 H 0.58432 0.71083 0.12883
 H1891 H 0.56286 0.66406 0.15011
 H1892 H 0.54341 0.68307 0.17223
 C1893 C 0.06216 0.68833 0.62919
 C1894 C 0.07204 0.69215 0.64766
 C1895 C 0.06180 0.70251 0.65968
 C1896 C 0.04265 0.70803 0.65209
 C1897 C 0.03341 0.68962 0.64666
 C1898 C 0.04367 0.67926 0.63462
 C1899 C 0.05691 0.70757 0.62161
 C1900 C 0.04664 0.71794 0.63367
 C1901 C 0.07322 0.67714 0.61629
 C1902 C 0.08237 0.66786 0.60579
 C1903 C 0.03188 0.71890 0.66550
 C1904 C 0.02394 0.72683 0.67790
 H1905 H 0.08582 0.68708 0.65106
 H1906 H 0.06681 0.70630 0.67338
 H1907 H 0.02004 0.68507 0.65190
 H1908 H 0.03909 0.66583 0.62955
 H1909 H 0.06091 0.71260 0.60798
 H1910 H 0.04183 0.73184 0.63038
 C1911 C 0.56181 0.62789 0.18797
 C1912 C 0.55631 0.62023 0.20711
 C1913 C 0.54579 0.63218 0.21734
 C1914 C 0.54181 0.65059 0.20741
 C1915 C 0.53291 0.64512 0.18884
 C1916 C 0.54342 0.63318 0.17862
 C1917 C 0.57149 0.64642 0.19198
 C1918 C 0.56098 0.65834 0.20219
 C1919 C 0.57313 0.61507 0.17693
 C1920 C 0.58242 0.60459 0.16777
 C1921 C 0.53076 0.66387 0.21815
 C1922 C 0.52262 0.67614 0.22607
 H1923 H 0.56034 0.60662 0.21217
 H1924 H 0.54079 0.62883 0.23115
 H1925 H 0.51957 0.65026 0.18409
 H1926 H 0.53910 0.62811 0.16511
 H1927 H 0.58531 0.64994 0.18713
 H1928 H 0.56582 0.67207 0.20609
 C1929 C 0.06217 0.62822 0.68820
 C1930 C 0.07144 0.63343 0.70667
 C1931 C 0.06119 0.64533 0.71719
 C1932 C 0.04268 0.65086 0.70822
 C1933 C 0.03275 0.63248 0.70413
 C1934 C 0.04301 0.62056 0.69359
 C1935 C 0.05822 0.64680 0.67858
 C1936 C 0.04798 0.65869 0.68909
 C1937 C 0.07324 0.61544 0.67688
 C1938 C 0.08243 0.60500 0.66758
 C1939 C 0.03191 0.66411 0.71929
 C1940 C 0.02400 0.67636 0.72747
 H1941 H 0.08492 0.62832 0.71103
 H1942 H 0.06588 0.65041 0.73058
 H1943 H 0.01892 0.62913 0.70906
 H1944 H 0.03795 0.60698 0.68948
 H1945 H 0.06314 0.65037 0.66478
 H1946 H 0.04413 0.67244 0.68429
 C1947 C 0.06177 0.12152 0.06211
 C1948 C 0.04343 0.11603 0.07145
 C1949 C 0.03303 0.10401 0.06121
 C1950 C 0.04199 0.09866 0.04263
 C1951 C 0.06123 0.09108 0.04784
 C1952 C 0.07162 0.10309 0.05807
 C1953 C 0.05620 0.12916 0.04298
 C1954 C 0.04579 0.11712 0.03273
 C1955 C 0.07297 0.13441 0.07318
 C1956 C 0.08222 0.14490 0.08237
 C1957 C 0.03107 0.08527 0.03188
 C1958 C 0.02305 0.07290 0.02399
 H1959 H 0.03905 0.12104 0.08497
 H1960 H 0.01974 0.09873 0.06595
 H1961 H 0.06621 0.07741 0.04392
 H1962 H 0.08548 0.09970 0.06291
 H1963 H 0.06010 0.14281 0.03794
 H1964 H 0.04076 0.12044 0.01892
 C1965 C 0.06202 0.62212 0.56234
 C1966 C 0.05799 0.60353 0.57192
 C1967 C 0.04778 0.59168 0.56133
 C1968 C 0.04260 0.59955 0.54219
 C1969 C 0.06117 0.60506 0.53332
 C1970 C 0.07138 0.61693 0.54392
 C1971 C 0.04291 0.62982 0.55687
 C1972 C 0.03268 0.61793 0.54626
 C1973 C 0.07306 0.63486 0.57374
 C1974 C 0.08227 0.64525 0.58308
 C1975 C 0.03187 0.58633 0.53105
 C1976 C 0.02397 0.57408 0.52286
 H1977 H 0.06282 0.59994 0.58574
 H1978 H 0.04388 0.57793 0.56610
 H1979 H 0.06592 0.59999 0.51995
 H1980 H 0.08489 0.62202 0.53963
 H1981 H 0.03785 0.64341 0.56097
 H1982 H 0.01889 0.62132 0.54126
 C1983 C 0.55386 0.12876 0.55357
 C1984 C 0.55675 0.12906 0.53244
 C1985 C 0.54770 0.11512 0.52337
 C1986 C 0.53667 0.10229 0.53633
 C1987 C 0.52368 0.11520 0.54722
 C1988 C 0.53273 0.12914 0.55629
 C1989 C 0.55987 0.10928 0.55970
 C1990 C 0.55085 0.09539 0.55066
 C1991 C 0.56382 0.14345 0.56353
 C1992 C 0.57246 0.15489 0.57216
 C1993 C 0.52729 0.08689 0.52692
 C1994 C 0.52053 0.07320 0.52010
 H1995 H 0.56512 0.13931 0.52525
 H1996 H 0.54831 0.11343 0.50841
 H1997 H 0.50872 0.11357 0.54772
 H1998 H 0.52552 0.13945 0.56458
 H1999 H 0.57031 0.10661 0.57024
 H2000 H 0.55357 0.08083 0.55347
 C2001 C 0.56192 0.62165 0.06194
 C2002 C 0.55776 0.60324 0.07180
 C2003 C 0.54735 0.59135 0.06146
 C2004 C 0.54212 0.59901 0.04224
 C2005 C 0.56068 0.60419 0.03317
 C2006 C 0.57110 0.61610 0.04353
 C2007 C 0.54285 0.62947 0.05649
 C2008 C 0.53243 0.61755 0.04612
 C2009 C 0.57315 0.63442 0.07310
 C2010 C 0.58241 0.64486 0.08234
 C2011 C 0.53117 0.58575 0.03136
 C2012 C 0.52311 0.57349 0.02336
 H2013 H 0.56265 0.59978 0.08564
 H2014 H 0.54332 0.57771 0.06645
 H2015 H 0.56529 0.59889 0.01984
 H2016 H 0.58463 0.62098 0.03908
 H2017 H 0.53797 0.64317 0.06044
 H2018 H 0.51863 0.62102 0.04117
 C2019 C 0.69605 0.12167 0.55396
 C2020 C 0.69340 0.12123 0.53281
 C2021 C 0.70252 0.13512 0.52373
 C2022 C 0.71338 0.14806 0.53671
 C2023 C 0.72627 0.13526 0.54783
 C2024 C 0.71715 0.12136 0.55691
 C2025 C 0.68993 0.14119 0.55987
 C2026 C 0.69902 0.15503 0.55082
 C2027 C 0.68603 0.10703 0.56394
 C2028 C 0.67736 0.09561 0.57258
 C2029 C 0.72285 0.16342 0.52729
 C2030 C 0.72972 0.17708 0.52051
 H2031 H 0.68513 0.11090 0.52560
 H2032 H 0.70207 0.13670 0.50874
 H2033 H 0.74122 0.13692 0.54849
 H2034 H 0.72429 0.11113 0.56535
 H2035 H 0.67937 0.14391 0.57027
 H2036 H 0.69623 0.16960 0.55349
 C2037 C 0.68723 0.62872 0.06271
 C2038 C 0.70553 0.63414 0.07217
 C2039 C 0.71591 0.64636 0.06213
 C2040 C 0.70696 0.65197 0.04362
 C2041 C 0.68768 0.65936 0.04887
 C2042 C 0.67732 0.64717 0.05891
 C2043 C 0.69288 0.62140 0.04348
 C2044 C 0.70326 0.63364 0.03343
 C2045 C 0.67603 0.61566 0.07357
 C2046 C 0.66679 0.60504 0.08263
 C2047 C 0.71781 0.66559 0.03309
 C2048 C 0.72580 0.67798 0.02520
 H2049 H 0.70989 0.62893 0.08562
 H2050 H 0.72917 0.65161 0.06697
 H2051 H 0.68270 0.67306 0.04513
 H2052 H 0.66343 0.65044 0.06377
 H2053 H 0.68905 0.60781 0.03823
 H2054 H 0.70835 0.63055 0.01959
 C2055 C 0.18820 0.62186 0.68803
 C2056 C 0.19207 0.60333 0.67829
 C2057 C 0.20235 0.59137 0.68869
 C2058 C 0.20775 0.59909 0.70783
 C2059 C 0.18929 0.60458 0.71692
 C2060 C 0.17901 0.61656 0.70651
 C2061 C 0.20739 0.62947 0.69336
 C2062 C 0.21768 0.61747 0.70378
 C2063 C 0.17709 0.63471 0.67682
 C2064 C 0.16783 0.64519 0.66763
 C2065 C 0.21855 0.58576 0.71876
 C2066 C 0.22652 0.57344 0.72679
 H2067 H 0.18709 0.59985 0.66449
 H2068 H 0.20616 0.57764 0.68380
 H2069 H 0.18465 0.59943 0.73030
 H2070 H 0.16556 0.62166 0.71097
 H2071 H 0.21245 0.64307 0.68929
 H2072 H 0.23154 0.62079 0.70866
 C2073 C 0.18820 0.12120 0.18779
 C2074 C 0.19388 0.12881 0.20690
 C2075 C 0.20435 0.11675 0.21707
 C2076 C 0.20809 0.09831 0.20713
 C2077 C 0.21695 0.10369 0.18851
 C2078 C 0.20648 0.11573 0.17834
 C2079 C 0.17837 0.10276 0.19188
 C2080 C 0.18882 0.09074 0.20203
 C2081 C 0.17692 0.13410 0.17681
 C2082 C 0.16761 0.14460 0.16769
 C2083 C 0.21906 0.08491 0.21781
 C2084 C 0.22708 0.07253 0.22569
 H2085 H 0.19001 0.14245 0.21197
 H2086 H 0.20947 0.12006 0.23085
 H2087 H 0.23020 0.09842 0.18368
 H2088 H 0.21078 0.12076 0.16480
 H2089 H 0.16449 0.09937 0.18711
 H2090 H 0.18387 0.07706 0.20597
 C2091 C 0.69606 1.12806 0.69554
 C2092 C 0.70723 1.11537 0.68258
 C2093 C 0.71641 1.10155 0.69161
 C2094 C 0.71355 1.10174 0.71272
 C2095 C 0.69243 1.10113 0.71540
 C2096 C 0.68325 1.11495 0.70638
 C2097 C 0.71017 1.13514 0.70988
 C2098 C 0.71938 1.12127 0.71894
 C2099 C 0.68595 1.14266 0.68559
 C2100 C 0.67721 1.15403 0.67697
 C2101 C 0.72310 1.08642 0.72211
 C2102 C 0.72999 1.07278 0.72891
 H2103 H 0.70787 1.11709 0.66762
 H2104 H 0.72492 1.09144 0.68437
 H2105 H 0.68531 1.09074 0.72368
 H2106 H 0.66826 1.11640 0.70693
 H2107 H 0.71268 1.14973 0.71267
 H2108 H 0.72979 1.12397 0.72949
 C2109 C 0.68806 0.62170 0.18768
 C2110 C 0.69383 0.62942 0.20670
 C2111 C 0.70446 0.61748 0.21684
 C2112 C 0.70826 0.59903 0.20694
 C2113 C 0.71693 0.60440 0.18823
 C2114 C 0.70631 0.61632 0.17810
 C2115 C 0.67839 0.60320 0.19190
 C2116 C 0.68900 0.59130 0.20202
 C2117 C 0.67663 0.63449 0.17673
 C2118 C 0.66724 0.64494 0.16763
 C2119 C 0.71941 0.58576 0.21760
 C2120 C 0.72758 0.57348 0.22548
 H2121 H 0.68990 0.64306 0.21176
 H2122 H 0.70966 0.62088 0.23057
 H2123 H 0.73019 0.59920 0.18332
 H2124 H 0.71046 0.62133 0.16451
 H2125 H 0.66449 0.59970 0.18725
 H2126 H 0.68417 0.57760 0.20604
 C2127 C 0.55348 0.12068 0.69652
 C2128 C 0.54763 0.11559 0.71639
 C2129 C 0.53854 0.12956 0.72541
 C2130 C 0.53623 0.14718 0.71364
 C2131 C 0.52646 0.14075 0.69584
 C2132 C 0.53553 0.12681 0.68683
 C2133 C 0.56501 0.13846 0.69853
 C2134 C 0.55596 0.15237 0.70751
 C2135 C 0.56347 0.10600 0.68658
 C2136 C 0.57215 0.09459 0.67794
 C2137 C 0.52683 0.16261 0.72298
 C2138 C 0.52009 0.17634 0.72974
 H2139 H 0.55036 0.10222 0.72278
 H2140 H 0.53347 0.12816 0.73953
 H2141 H 0.51354 0.14660 0.69077
 H2142 H 0.53038 0.12072 0.67405
 H2143 H 0.57908 0.14001 0.69335
 H2144 H 0.56229 0.16581 0.71004
 C2145 C 1.06229 0.12893 0.18813
 C2146 C 1.05701 0.12134 0.20736
 C2147 C 1.04670 0.13336 0.21771
 C2148 C 1.04268 0.15177 0.20780
 C2149 C 1.03349 0.14632 0.18937
 C2150 C 1.04381 0.13431 0.17903
 C2151 C 1.07212 0.14742 0.19198
 C2152 C 1.06182 0.15941 0.20231
 C2153 C 1.07341 0.11604 0.17698
 C2154 C 1.08261 0.10552 0.16776
 C2155 C 1.03187 0.16514 0.21867
 C2156 C 1.02394 0.17749 0.22668
 H2157 H 1.06104 0.10771 0.21240
 H2158 H 1.04186 0.13006 0.23160
 H2159 H 1.02012 0.15153 0.18479
 H2160 H 1.03927 0.12923 0.16558
 H2161 H 1.08590 0.15086 0.18693
 H2162 H 1.06678 0.17312 0.20611
 C2163 C 0.18770 0.62908 0.56274
 C2164 C 0.19321 0.62163 0.54352
 C2165 C 0.20342 0.63384 0.53327
 C2166 C 0.20710 0.65228 0.54326
 C2167 C 0.21626 0.64689 0.56173
 C2168 C 0.20605 0.63470 0.57197
 C2169 C 0.17764 0.64744 0.55887
 C2170 C 0.18783 0.65960 0.54863
 C2171 C 0.17667 0.61604 0.57380
 C2172 C 0.16752 0.60543 0.58295
 C2173 C 0.21777 0.66587 0.53250
 C2174 C 0.22564 0.67825 0.52448
 H2175 H 0.18942 0.60796 0.53843
 H2176 H 0.20840 0.63066 0.51941
 H2177 H 0.22953 0.65226 0.56640
 H2178 H 0.21058 0.62964 0.58543
 H2179 H 0.16378 0.65066 0.56383
 H2180 H 0.18272 0.67324 0.54481
 C2181 C 0.18767 0.12912 1.06236
 C2182 C 0.17758 0.14745 1.05847
 C2183 C 0.18783 0.15970 1.04839
 C2184 C 0.20719 0.15249 1.04321
 C2185 C 0.20370 0.13408 1.03309
 C2186 C 0.19343 0.12178 1.04318
 C2187 C 0.20590 0.13477 1.07183
 C2188 C 0.21617 0.14704 1.06175
 C2189 C 0.17659 0.11599 1.07328
 C2190 C 0.16741 0.10536 1.08238
 C2191 C 0.21794 0.16618 1.03266
 C2192 C 0.22588 0.17865 1.02482
 H2193 H 0.16365 0.15059 1.06329
 H2194 H 0.18269 0.17334 1.04457
 H2195 H 0.20884 0.13099 1.01927
 H2196 H 0.18975 0.10812 1.03798
 H2197 H 0.21030 0.12967 1.08531
 H2198 H 0.22937 0.15245 1.06659
 C2199 C 0.18750 0.68825 0.62122
 C2200 C 0.19147 0.67814 0.60291
 C2201 C 0.20150 0.68844 0.59065
 C2202 C 0.20656 0.70786 0.59784
 C2203 C 0.21666 0.70445 0.61627
 C2204 C 0.20663 0.69413 0.62858
 C2205 C 0.17794 0.70642 0.61553
 C2206 C 0.18797 0.71674 0.60325
 C2207 C 0.17664 0.67711 0.63434
 C2208 C 0.16759 0.66787 0.64497
 C2209 C 0.21706 0.71865 0.58414
 C2210 C 0.22488 0.72659 0.57167
 H2211 H 0.18674 0.66418 0.59978
 H2212 H 0.20536 0.68331 0.57703
 H2213 H 0.23044 0.70968 0.61938
 H2214 H 0.21183 0.69050 0.64225
 H2215 H 0.16444 0.71075 0.62061
 H2216 H 0.18306 0.72990 0.59782
 C2217 C 0.18734 0.18754 1.12125
 C2218 C 0.19104 0.17761 1.10279
 C2219 C 0.20111 0.18793 1.09059
 C2220 C 0.20648 0.20719 1.09799
 C2221 C 0.21667 0.20342 1.11630
 C2222 C 0.20659 0.19308 1.12855
 C2223 C 0.17797 0.20590 1.11586
 C2224 C 0.18804 0.21624 1.10363
 C2225 C 0.17644 0.17639 1.13433
 C2226 C 0.16738 0.16718 1.14497
 C2227 C 0.21704 0.21799 1.08436
 C2228 C 0.22494 0.22597 1.07197
 H2229 H 0.18611 0.16375 1.09953
 H2230 H 0.20480 0.18294 1.07688
 H2231 H 0.23053 0.20843 1.11937
 H2232 H 0.21184 0.18921 1.14214
 H2233 H 0.16456 0.21034 1.12109
 H2234 H 0.18326 0.22953 1.09839
 C2235 C 0.68737 0.56178 0.12821
 C2236 C 0.70640 0.55631 0.12029
 C2237 C 0.71687 0.54594 0.13217
 C2238 C 0.70726 0.54208 0.15077
 C2239 C 0.68867 0.53302 0.14569
 C2240 C 0.67820 0.54338 0.13382
 C2241 C 0.69163 0.57165 0.14658
 C2242 C 0.70208 0.56130 0.15843
 C2243 C 0.67610 0.57296 0.11548
 C2244 C 0.66683 0.58222 0.10507
 C2245 C 0.71828 0.53122 0.16398
 C2246 C 0.72646 0.52329 0.17621
 H2247 H 0.71121 0.56024 0.10656
 H2248 H 0.73064 0.54097 0.12864
 H2249 H 0.68407 0.51970 0.15103
 H2250 H 0.66464 0.53895 0.12901
 H2251 H 0.68677 0.58549 0.15006
 H2252 H 0.70617 0.56628 0.17205
 C2253 C 0.69608 1.05382 0.62128
 C2254 C 0.71012 1.03944 0.61416
 C2255 C 0.71924 1.03026 0.62801
 C2256 C 0.71338 1.03640 0.64756
 C2257 C 0.69225 1.03382 0.64809
 C2258 C 0.68316 1.04297 0.63428
 C2259 C 0.70726 1.06665 0.63407
 C2260 C 0.71635 1.05750 0.64788
 C2261 C 0.68606 1.06391 0.60671
 C2262 C 0.67739 1.07264 0.59537
 C2263 C 0.72284 1.02690 0.66287
 C2264 C 0.72971 1.02008 0.67651
 H2265 H 0.71267 1.03672 0.59956
 H2266 H 0.72961 1.01967 0.62530
 H2267 H 0.68504 1.02553 0.65841
 H2268 H 0.66818 1.04251 0.63279
 H2269 H 0.70799 1.08161 0.63244
 H2270 H 0.72486 1.06463 0.65806
 C2271 C 0.55385 0.19651 0.62103
 C2272 C 0.54847 0.21655 0.61608
 C2273 C 0.53940 0.22562 0.63004
 C2274 C 0.53663 0.21372 0.64750
 C2275 C 0.55617 0.20713 0.65286
 C2276 C 0.56520 0.19810 0.63897
 C2277 C 0.53562 0.18715 0.62685
 C2278 C 0.52657 0.19619 0.64077
 C2279 C 0.56381 0.18653 0.60636
 C2280 C 0.57246 0.17784 0.59497
 C2281 C 0.52724 0.22309 0.66293
 C2282 C 0.52046 0.22980 0.67666
 H2283 H 0.55149 0.22302 0.60281
 H2284 H 0.53465 0.23986 0.62873
 H2285 H 0.56239 0.20939 0.66640
 H2286 H 0.57913 0.19262 0.64063
 H2287 H 0.53028 0.17453 0.62056
 H2288 H 0.51348 0.19133 0.64642
 C2289 C 1.06212 0.18825 0.12825
 C2290 C 1.07146 0.20665 0.13354
 C2291 C 1.06124 0.21717 0.14548
 C2292 C 1.04269 0.20825 0.15096
 C2293 C 1.04791 0.18907 0.15872
 C2294 C 1.05812 0.17857 0.14679
 C2295 C 1.04299 0.19374 0.12060
 C2296 C 1.03276 0.20426 0.13256
 C2297 C 1.07315 0.17692 0.11544
 C2298 C 1.08230 0.16760 0.10498
 C2299 C 1.03196 0.21929 0.16425
 C2300 C 1.02404 0.22739 0.17655
 H2301 H 1.08496 0.21099 0.12845
 H2302 H 1.06599 0.23052 0.15061
 H2303 H 1.04403 0.18423 0.17245
 H2304 H 1.06297 0.16474 0.15031
 H2305 H 1.03792 0.18970 0.10699
 H2306 H 1.01896 0.20926 0.12921
 C2307 C 0.62826 0.19532 0.69594
 C2308 C 0.62867 0.21647 0.69333
 C2309 C 0.61482 0.22551 0.70254
 C2310 C 0.60194 0.21248 0.71343
 C2311 C 0.61480 0.20135 0.72625
 C2312 C 0.62866 0.19231 0.71705
 C2313 C 0.60874 0.18939 0.68989
 C2314 C 0.59493 0.19839 0.69906
 C2315 C 0.64287 0.18539 0.68583
 C2316 C 0.65426 0.17680 0.67709
 C2317 C 0.58662 0.22187 0.72297
 C2318 C 0.57300 0.22869 0.72986
 H2319 H 0.63895 0.22371 0.68503
 H2320 H 0.61322 0.24049 0.70212
 H2321 H 0.61319 0.20065 0.74122
 H2322 H 0.63893 0.18387 0.72413
 H2323 H 0.60598 0.17901 0.67931
 H2324 H 0.58036 0.19571 0.69633
 C2325 C 1.12186 0.18789 0.18822
 C2326 C 1.12974 0.20696 0.19364
 C2327 C 1.11783 0.21745 0.20397
 C2328 C 1.09926 0.20782 0.20784
 C2329 C 1.10437 0.18924 0.21696
 C2330 C 1.11625 0.17877 0.20663
 C2331 C 1.10349 0.19210 0.17832
 C2332 C 1.09163 0.20257 0.18862
 C2333 C 1.13460 0.17660 0.17708
 C2334 C 1.14499 0.16729 0.16784
 C2335 C 1.08602 0.21881 0.21868
 C2336 C 1.07376 0.22690 0.22666
 H2337 H 1.14345 0.21179 0.18971
 H2338 H 1.12133 0.23125 0.20890
 H2339 H 1.09902 0.18467 0.23029
 H2340 H 1.12108 0.16521 0.21112
 H2341 H 1.10004 0.18719 0.16449
 H2342 H 1.07801 0.20663 0.18361
 C2343 C 0.12873 0.68765 0.56278
 C2344 C 0.14717 0.69145 0.57270
 C2345 C 0.15934 0.70151 0.56233
 C2346 C 0.15194 0.70678 0.54305
 C2347 C 0.13362 0.71695 0.54677
 C2348 C 0.12139 0.70688 0.55715
 C2349 C 0.13415 0.67822 0.54445
 C2350 C 0.14635 0.68828 0.53408
 C2351 C 0.11568 0.67677 0.57397
 C2352 C 0.10507 0.66769 0.58319
 C2353 C 0.16554 0.71734 0.53221
 C2354 C 0.17791 0.72524 0.52421
 H2355 H 0.15044 0.68658 0.58658
 H2356 H 0.17303 0.70526 0.56732
 H2357 H 0.13051 0.73079 0.54169
 H2358 H 0.10780 0.71211 0.56099
 H2359 H 0.12896 0.66477 0.54007
 H2360 H 0.15160 0.68346 0.52080
 C2361 C 0.12863 0.18772 1.06225
 C2362 C 0.14699 0.19152 1.07233
 C2363 C 0.15915 0.20180 1.06217
 C2364 C 0.15182 0.20726 1.04291
 C2365 C 0.13341 0.21725 1.04665
 C2366 C 0.12119 0.20696 1.05683
 C2367 C 0.13423 0.17856 1.04385
 C2368 C 0.14641 0.18884 1.03368
 C2369 C 0.11559 0.17662 1.07325
 C2370 C 0.10499 0.16745 1.08240
 C2371 C 0.16541 0.21804 1.03227
 C2372 C 0.17779 0.22606 1.02440
 H2373 H 0.15021 0.18650 1.08618
 H2374 H 0.17278 0.20558 1.06730
 H2375 H 0.13024 0.23114 1.04173
 H2376 H 0.10754 0.21205 1.06064
 H2377 H 0.12916 0.16513 1.03927
 H2378 H 0.15178 0.18422 1.02037
 C2379 C 0.62860 0.56187 0.18830
 C2380 C 0.64701 0.55785 0.17840
 C2381 C 0.65906 0.54767 0.18879
 C2382 C 0.65156 0.54249 0.20808
 C2383 C 0.63312 0.53254 0.20435
 C2384 C 0.62104 0.54274 0.19395
 C2385 C 0.63412 0.57126 0.20661
 C2386 C 0.64619 0.56108 0.21701
 C2387 C 0.61566 0.57288 0.17709
 C2388 C 0.60513 0.58201 0.16783
 C2389 C 0.66500 0.53178 0.21898
 C2390 C 0.67740 0.52386 0.22693
 H2391 H 0.65035 0.56267 0.16451
 H2392 H 0.67273 0.54378 0.18378
 H2393 H 0.62984 0.51874 0.20944
 H2394 H 0.60739 0.53766 0.19010
 H2395 H 0.62909 0.58478 0.21097
 H2396 H 0.65149 0.56586 0.23028
 C2397 C 0.62120 1.05322 0.69659
 C2398 C 0.61431 1.03888 0.71081
 C2399 C 0.62829 1.02987 0.71988
 C2400 C 0.64773 1.03612 0.71380
 C2401 C 0.64793 1.05724 0.71662
 C2402 C 0.63399 1.06622 0.70758
 C2403 C 0.63416 1.04238 0.68363
 C2404 C 0.64809 1.03340 0.69267
 C2405 C 0.60649 1.06313 0.68661
 C2406 C 0.59506 1.07175 0.67795
 C2407 C 0.66318 1.02679 0.72318
 C2408 C 0.67692 1.02005 0.72991
 H2409 H 0.59976 1.03607 0.71350
 H2410 H 0.62574 1.01933 0.73035
 H2411 H 0.65812 1.06450 0.72500
 H2412 H 0.63226 1.08118 0.70822
 H2413 H 0.63254 1.04181 0.66865
 H2414 H 0.65841 1.02514 0.68543
 C2415 C 0.87235 0.43881 0.31121
 C2416 C 0.86674 0.42947 0.29290
 C2417 C 0.85430 0.43950 0.28279
 C2418 C 0.84868 0.45787 0.29198
 C2419 C 0.86697 0.46818 0.29550
 C2420 C 0.87944 0.45814 0.30562
 C2421 C 0.85403 0.44237 0.32143
 C2422 C 0.84162 0.45239 0.31133
 C2423 C 0.88565 0.42793 0.32214
 C2424 C 0.89638 0.41885 0.33122
 C2425 C 0.83484 0.46839 0.28139
 C2426 C 0.82233 0.47621 0.27352
 H2427 H 0.87198 0.41610 0.28833
 H2428 H 0.84890 0.43472 0.26956
 H2429 H 0.86988 0.48209 0.29049
 H2430 H 0.89304 0.46346 0.30929
 H2431 H 0.85101 0.43736 0.33533
 H2432 H 0.82797 0.45598 0.31656
 C2433 C 0.87233 0.93658 0.81347
 C2434 C 0.86696 0.92732 0.79506
 C2435 C 0.85475 0.93746 0.78477
 C2436 C 0.84910 0.95584 0.79392
 C2437 C 0.86739 0.96603 0.79776
 C2438 C 0.87963 0.95588 0.80805
 C2439 C 0.85388 0.94023 0.82342
 C2440 C 0.84169 0.95036 0.81315
 C2441 C 0.88538 0.92561 0.82458
 C2442 C 0.89593 0.91646 0.83379
 C2443 C 0.83548 0.96645 0.78316
 C2444 C 0.82307 0.97430 0.77518
 H2445 H 0.87219 0.91393 0.79054
 H2446 H 0.84953 0.93275 0.77144
 H2447 H 0.87047 0.97993 0.79283
 H2448 H 0.89321 0.96111 0.81195
 H2449 H 0.85060 0.93522 0.83725
 H2450 H 0.82799 0.95403 0.81816
 C2451 C 0.37785 0.31295 0.81338
 C2452 C 0.37052 0.29361 0.80812
 C2453 C 0.38275 0.28335 0.79795
 C2454 C 0.40108 0.29346 0.79405
 C2455 C 0.40846 0.29910 0.81323
 C2456 C 0.39628 0.30934 0.82338
 C2457 C 0.38328 0.32203 0.79488
 C2458 C 0.39549 0.31178 0.78471
 C2459 C 0.36479 0.32403 0.82435
 C2460 C 0.35419 0.33323 0.83346
 C2461 C 0.41468 0.28270 0.78342
 C2462 C 0.42709 0.27472 0.77555
 H2463 H 0.35692 0.28845 0.81205
 H2464 H 0.37965 0.26941 0.79315
 H2465 H 0.42215 0.29545 0.81830
 H2466 H 0.39954 0.31448 0.83718
 H2467 H 0.37809 0.33539 0.79023
 H2468 H 0.40075 0.31635 0.77135
 C2469 C 0.88003 0.31329 0.31162
 C2470 C 0.87259 0.30746 0.29250
 C2471 C 0.88481 0.29710 0.28242
 C2472 C 0.90324 0.29361 0.29247
 C2473 C 0.89787 0.28474 0.31109
 C2474 C 0.88567 0.29509 0.32116
 C2475 C 0.89836 0.32333 0.30759
 C2476 C 0.91054 0.31300 0.29752
 C2477 C 0.86699 0.32446 0.32254
 C2478 C 0.85643 0.33370 0.33164
 C2479 C 0.91684 0.28276 0.28192
 C2480 C 0.92922 0.27473 0.27409
 H2481 H 0.85892 0.31114 0.28735
 H2482 H 0.88164 0.29190 0.26864
 H2483 H 0.90326 0.27155 0.31598
 H2484 H 0.88063 0.29078 0.33469
 H2485 H 0.90156 0.33729 0.31232
 H2486 H 0.92416 0.31808 0.29361
 C2487 C 0.37072 0.81109 0.43724
 C2488 C 0.37838 0.79195 0.44272
 C2489 C 0.36643 0.78168 0.45320
 C2490 C 0.34801 0.79157 0.45716
 C2491 C 0.34029 0.79682 0.43797
 C2492 C 0.35222 0.80707 0.42751
 C2493 C 0.36537 0.82039 0.45565
 C2494 C 0.35343 0.81012 0.46612
 C2495 C 0.38352 0.82217 0.42596
 C2496 C 0.39396 0.83137 0.41664
 C2497 C 0.33472 0.78079 0.46817
 C2498 C 0.32242 0.77285 0.47625
 H2499 H 0.39200 0.78692 0.43871
 H2500 H 0.36978 0.76786 0.45819
 H2501 H 0.32659 0.79291 0.43309
 H2502 H 0.34873 0.81195 0.41368
 H2503 H 0.37041 0.83390 0.46001
 H2504 H 0.34825 0.81484 0.47947
 C2505 C 0.37057 0.31292 0.93877
 C2506 C 0.36522 0.29446 0.92957
 C2507 C 0.35329 0.28404 0.93989
 C2508 C 0.34789 0.29309 0.95841
 C2509 C 0.34016 0.31224 0.95307
 C2510 C 0.35207 0.32266 0.94276
 C2511 C 0.37825 0.30754 0.95793
 C2512 C 0.36631 0.29711 0.96827
 C2513 C 0.38337 0.32416 0.92763
 C2514 C 0.39381 0.33344 0.91842
 C2515 C 0.33461 0.28214 0.96927
 C2516 C 0.32234 0.27411 0.97728
 H2517 H 0.37026 0.29003 0.91607
 H2518 H 0.34812 0.27067 0.93525
 H2519 H 0.32646 0.31714 0.95696
 H2520 H 0.34857 0.33647 0.93781
 H2521 H 0.39188 0.31158 0.96293
 H2522 H 0.36968 0.29219 0.98211
 C2523 C 0.81318 0.43886 0.37023
 C2524 C 0.80934 0.42875 0.35190
 C2525 C 0.79912 0.43892 0.33970
 C2526 C 0.79377 0.45823 0.34696
 C2527 C 0.81222 0.46739 0.35235
 C2528 C 0.82244 0.45720 0.36458
 C2529 C 0.79398 0.44441 0.37766
 C2530 C 0.78375 0.45460 0.36540
 C2531 C 0.82424 0.42787 0.38331
 C2532 C 0.83345 0.41876 0.39390
 C2533 C 0.78307 0.46889 0.33333
 C2534 C 0.77512 0.47678 0.32091
 H2535 H 0.81428 0.41487 0.34873
 H2536 H 0.79531 0.43376 0.32607
 H2537 H 0.81691 0.48065 0.34694
 H2538 H 0.83588 0.46174 0.36964
 H2539 H 0.78886 0.44066 0.39133
 H2540 H 0.76990 0.45959 0.36856
 C2541 C 0.81336 0.93638 0.87198
 C2542 C 0.82268 0.95473 0.86646
 C2543 C 0.81257 0.96498 0.85420
 C2544 C 0.79414 0.95586 0.84864
 C2545 C 0.78399 0.95218 0.86699
 C2546 C 0.79411 0.94193 0.87928
 C2547 C 0.80963 0.92634 0.85358
 C2548 C 0.79952 0.93657 0.84134
 C2549 C 0.82430 0.92533 0.88509
 C2550 C 0.83340 0.91617 0.89574
 C2551 C 0.78354 0.96659 0.83497
 C2552 C 0.77567 0.97451 0.82253
 H2553 H 0.83609 0.95923 0.87163
 H2554 H 0.81731 0.97825 0.84887
 H2555 H 0.77012 0.95718 0.87007
 H2556 H 0.78889 0.93813 0.89290
 H2557 H 0.81458 0.91247 0.85039
 H2558 H 0.79580 0.93147 0.82767
 C2559 C 0.31062 0.81094 0.37741
 C2560 C 0.31977 0.79249 0.38289
 C2561 C 0.30951 0.78226 0.39505
 C2562 C 0.29111 0.79147 0.40054
 C2563 C 0.28110 0.79534 0.38215
 C2564 C 0.29136 0.80558 0.36998
 C2565 C 0.30687 0.82091 0.39586
 C2566 C 0.29662 0.81068 0.40799
 C2567 C 0.32170 0.82199 0.36438
 C2568 C 0.33090 0.83114 0.35381
 C2569 C 0.28032 0.78072 0.41405
 C2570 C 0.27237 0.77284 0.42648
 H2571 H 0.33318 0.78793 0.37777
 H2572 H 0.31413 0.76892 0.40033
 H2573 H 0.26721 0.79046 0.37897
 H2574 H 0.28625 0.80950 0.35635
 H2575 H 0.31191 0.83472 0.39915
 H2576 H 0.29289 0.81575 0.42169
 C2577 C 0.31082 0.31280 0.87908
 C2578 C 0.30544 0.29366 0.87134
 C2579 C 0.29503 0.28328 0.88328
 C2580 C 0.29105 0.29308 0.90175
 C2581 C 0.28199 0.31161 0.89642
 C2582 C 0.29238 0.32198 0.88450
 C2583 C 0.32059 0.30875 0.89756
 C2584 C 0.31021 0.29839 0.90946
 C2585 C 0.32203 0.32397 0.86630
 C2586 C 0.33133 0.33321 0.85589
 C2587 C 0.28015 0.28217 0.91503
 C2588 C 0.27217 0.27413 0.92733
 H2589 H 0.30945 0.28871 0.85769
 H2590 H 0.29012 0.26945 0.87987
 H2591 H 0.26863 0.31623 0.90164
 H2592 H 0.28794 0.33548 0.87951
 H2593 H 0.33440 0.31368 0.90105
 H2594 H 0.31514 0.29445 0.92316
 C2595 C 0.43658 0.31342 0.87205
 C2596 C 0.44023 0.32341 0.85360
 C2597 C 0.45040 0.31319 0.84141
 C2598 C 0.45590 0.29397 0.84879
 C2599 C 0.43753 0.28476 0.85441
 C2600 C 0.42737 0.29499 0.86663
 C2601 C 0.45587 0.30803 0.87937
 C2602 C 0.46604 0.29779 0.86712
 C2603 C 0.42556 0.32447 0.88511
 C2604 C 0.41638 0.33361 0.89570
 C2605 C 0.46654 0.28325 0.83516
 C2606 C 0.47442 0.27528 0.82275
 H2607 H 0.43519 0.33724 0.85035
 H2608 H 0.45407 0.31823 0.82770
 H2609 H 0.43287 0.27143 0.84916
 H2610 H 0.41398 0.29044 0.87184
 H2611 H 0.46107 0.31192 0.89297
 H2612 H 0.47994 0.29289 0.87020
 C2613 C 0.93883 0.31382 0.37033
 C2614 C 0.94428 0.29456 0.37773
 C2615 C 0.95449 0.28434 0.36550
 C2616 C 0.95822 0.29439 0.34710
 C2617 C 0.96742 0.31282 0.35257
 C2618 C 0.95721 0.32304 0.36478
 C2619 C 0.92879 0.31004 0.35194
 C2620 C 0.93898 0.29983 0.33976
 C2621 C 0.92780 0.32486 0.38337
 C2622 C 0.91862 0.33403 0.39394
 C2623 C 0.96888 0.28367 0.33349
 C2624 C 0.97674 0.27565 0.32111
 H2625 H 0.94045 0.28943 0.39137
 H2626 H 0.95942 0.27046 0.36864
 H2627 H 0.98071 0.31749 0.34724
 H2628 H 0.96176 0.33646 0.36989
 H2629 H 0.91495 0.31505 0.34871
 H2630 H 0.93389 0.29608 0.32610
 C2631 C 0.43669 0.37180 0.81310
 C2632 C 0.44226 0.37923 0.79389
 C2633 C 0.45253 0.36701 0.78371
 C2634 C 0.45620 0.34860 0.79376
 C2635 C 0.43691 0.34125 0.79907
 C2636 C 0.42667 0.35342 0.80925
 C2637 C 0.45501 0.36624 0.82243
 C2638 C 0.46528 0.35405 0.81225
 C2639 C 0.42562 0.38482 0.82413
 C2640 C 0.41644 0.39536 0.83332
 C2641 C 0.46694 0.33499 0.78312
 C2642 C 0.47488 0.32257 0.77524
 H2643 H 0.43847 0.39287 0.78875
 H2644 H 0.45756 0.37017 0.76986
 H2645 H 0.43183 0.32760 0.79526
 H2646 H 0.41279 0.35019 0.81415
 H2647 H 0.45948 0.37133 0.83589
 H2648 H 0.47854 0.34871 0.81699
 C2649 C 0.93919 0.37237 0.31104
 C2650 C 0.94283 0.35401 0.32120
 C2651 C 0.95293 0.34168 0.31107
 C2652 C 0.95840 0.34886 0.29176
 C2653 C 0.96859 0.36720 0.29536
 C2654 C 0.95848 0.37958 0.30551
 C2655 C 0.92991 0.36677 0.29270
 C2656 C 0.94001 0.35442 0.28256
 C2657 C 0.92825 0.38557 0.32202
 C2658 C 0.91913 0.39622 0.33116
 C2659 C 0.96901 0.33510 0.28115
 C2660 C 0.97689 0.32260 0.27331
 H2661 H 0.93783 0.35091 0.33508
 H2662 H 0.95659 0.32803 0.31626
 H2663 H 0.98249 0.37021 0.29038
 H2664 H 0.96372 0.39321 0.30923
 H2665 H 0.91652 0.37196 0.28814
 H2666 H 0.93529 0.34903 0.26930
 C2667 C 0.31103 0.87088 0.43705
 C2668 C 0.30565 0.87870 0.45616
 C2669 C 0.29524 0.86681 0.46658
 C2670 C 0.29125 0.84830 0.45685
 C2671 C 0.31040 0.84056 0.45158
 C2672 C 0.32080 0.85242 0.44117
 C2673 C 0.29260 0.86544 0.42789
 C2674 C 0.28219 0.85357 0.43830
 C2675 C 0.32224 0.88361 0.42581
 C2676 C 0.33151 0.89398 0.41650
 C2677 C 0.28032 0.83507 0.46779
 C2678 C 0.27230 0.82282 0.47585
 H2679 H 0.30967 0.89237 0.46106
 H2680 H 0.29032 0.87027 0.48040
 H2681 H 0.31532 0.82689 0.45557
 H2682 H 0.33460 0.84890 0.43626
 H2683 H 0.28816 0.87038 0.41436
 H2684 H 0.26884 0.84834 0.43370
 C2685 C 0.31078 0.37266 0.93918
 C2686 C 0.29162 0.38020 0.94474
 C2687 C 0.28138 0.36806 0.95505
 C2688 C 0.29132 0.34961 0.95878
 C2689 C 0.30984 0.35497 0.96783
 C2690 C 0.32007 0.36709 0.95753
 C2691 C 0.30683 0.35427 0.92920
 C2692 C 0.29660 0.34217 0.93950
 C2693 C 0.32184 0.38565 0.92806
 C2694 C 0.33102 0.39619 0.91884
 C2695 C 0.28057 0.33613 0.96961
 C2696 C 0.27266 0.32373 0.97758
 H2697 H 0.28656 0.39386 0.94090
 H2698 H 0.26756 0.37131 0.96006
 H2699 H 0.31456 0.34963 0.98111
 H2700 H 0.33356 0.37212 0.96197
 H2701 H 0.31172 0.35097 0.91533
 H2702 H 0.29275 0.32851 0.93443
 C2703 C 0.81355 0.37988 0.31121
 C2704 C 0.79505 0.38520 0.32032
 C2705 C 0.78480 0.39735 0.31008
 C2706 C 0.79407 0.40301 0.29174
 C2707 C 0.79806 0.38470 0.28163
 C2708 C 0.80831 0.37252 0.29188
 C2709 C 0.82343 0.39839 0.30759
 C2710 C 0.81320 0.41052 0.29736
 C2711 C 0.82461 0.36689 0.32229
 C2712 C 0.83379 0.35636 0.33151
 C2713 C 0.78334 0.41656 0.28101
 C2714 C 0.77539 0.42893 0.27305
 H2715 H 0.79045 0.37997 0.33369
 H2716 H 0.77142 0.40253 0.31467
 H2717 H 0.79326 0.38158 0.26770
 H2718 H 0.81231 0.35895 0.28671
 H2719 H 0.83720 0.40173 0.31271
 H2720 H 0.81818 0.42425 0.29371
   
