data_POSCAR
  _audit_creation_date              2014-09-24
  _audit_creation_method            'ToBaCCo'
  _symmetry_space_group_name_H-M    'P1'
  _symmetry_Int_Tables_number       1
  _symmetry_cell_setting            triclinic
  loop_
  _symmetry_equiv_pos_as_xyz
 x,y,z
_cell_length_a 60.5901
_cell_length_b 60.7756
_cell_length_c 60.8834
_cell_angle_alpha 90.009900
_cell_angle_beta 89.996500
_cell_angle_gamma 90.013300
loop_
  _atom_site_label
  _atom_site_type_symbol
  _atom_site_fract_x
  _atom_site_fract_y
  _atom_site_fract_z
N1 N 0.34362 0.34139 0.34674
 N2 N 0.34542 0.84219 -0.15461
 N3 N 0.84283 0.34253 -0.15430
 N4 N 0.84589 0.84243 0.34352
 N5 N 0.65622 0.65567 0.34335
 N6 N 0.65649 0.15458 -0.15636
 N7 N 0.15595 0.65322 -0.15756
 N8 N 0.15663 0.15466 0.34257
 N9 N 0.65564 0.34442 0.65614
 N10 N 0.65619 0.84726 1.15850
 N11 N 0.15861 0.34808 1.15691
 N12 N 0.15346 0.84448 0.65960
 N13 N 0.34395 0.65979 0.65389
 N14 N 0.34179 0.15593 1.15321
 N15 N 0.84209 0.65514 1.15392
 N16 N 0.84412 0.15859 0.65397
 N17 N 0.34471 0.34234 0.65419
 N18 N 0.34310 0.84203 0.15414
 N19 N 0.84342 0.34289 0.15580
 N20 N 0.84437 0.84318 0.65511
 N21 N 0.65799 0.65548 0.65588
 N22 N 0.65580 0.15397 0.15755
 N23 N 0.15800 0.65271 0.15620
 N24 N 0.15553 0.15365 0.65842
 N25 N 0.34386 0.65979 0.34778
 N26 N 0.34371 0.15675 0.84538
 N27 N 0.84121 0.65574 0.84728
 N28 N 0.84626 0.15925 0.34455
 N29 N 0.65363 0.34387 0.34249
 N30 N 0.65725 0.84614 0.84257
 N31 N 0.15682 0.34695 0.84158
 N32 N 0.15395 0.84428 0.34175
 O33 O 0.24929 1.01988 0.21721
 O34 O 0.21975 0.97813 0.24977
 O35 O 0.22046 1.02094 0.24814
 O36 O 0.24879 0.97663 0.21826
 O37 O 0.27638 0.97796 0.24192
 O38 O 0.24650 1.02025 0.27353
 O39 O 0.24745 0.97719 0.27332
 O40 O 0.27586 1.02057 0.24205
 Cu41 Cu 0.23191 0.99877 0.23084
 Cu42 Cu 0.26421 0.99905 0.26022
 C43 C 0.26741 1.02763 0.22431
 C44 C 0.22874 0.97028 0.26692
 C45 C 0.22864 1.02815 0.26593
 C46 C 0.26745 0.96981 0.22490
 O47 O 0.25153 0.52250 0.71496
 O48 O 0.22193 0.47907 0.74507
 O49 O 0.22167 0.52214 0.74513
 O50 O 0.25167 0.47925 0.71478
 O51 O 0.27788 0.47949 0.73999
 O52 O 0.24750 0.52199 0.77073
 O53 O 0.24776 0.47935 0.77067
 O54 O 0.27775 0.52234 0.74016
 Cu55 Cu 0.23412 0.50074 0.72740
 Cu56 Cu 0.26538 0.50080 0.75791
 C57 C 0.26957 0.52998 0.72253
 C58 C 0.22981 0.47178 0.76297
 C59 C 0.22948 0.52940 0.76307
 C60 C 0.26975 0.47188 0.72233
 O61 O 0.72233 0.02260 0.25396
 O62 O 0.75262 -0.02044 0.28381
 O63 O 0.75262 0.02281 0.28371
 O64 O 0.72237 -0.02045 0.25406
 O65 O 0.74780 -0.02027 0.22806
 O66 O 0.77845 0.02257 0.25812
 O67 O 0.77845 -0.02029 0.25820
 O68 O 0.74777 0.02235 0.22797
 Cu69 Cu 0.73495 0.00114 0.27151
 Cu70 Cu 0.76573 0.00109 0.24053
 C71 C 0.72989 0.02984 0.23590
 C72 C 0.77056 -0.02789 0.27598
 C73 C 0.77056 0.03023 0.27587
 C74 C 0.72994 -0.02777 0.23603
 O75 O 0.74879 0.47683 0.78040
 O76 O 0.72087 0.52129 0.75032
 O77 O 0.72020 0.47847 0.74848
 O78 O 0.74928 0.52007 0.78163
 O79 O 0.77619 0.52085 0.75716
 O80 O 0.74820 0.47764 0.72529
 O81 O 0.74726 0.52073 0.72530
 O82 O 0.77668 0.47825 0.75710
 Cu83 Cu 0.73208 0.49903 0.76767
 Cu84 Cu 0.76477 0.49944 0.73873
 C85 C 0.76755 0.47004 0.77399
 C86 C 0.72930 0.52860 0.73269
 C87 C 0.72942 0.47071 0.73141
 C88 C 0.76751 0.52783 0.77482
 O89 O 0.28003 0.52253 0.26037
 O90 O 0.25208 0.47907 0.22881
 O91 O 0.25102 0.52203 0.22856
 O92 O 0.28032 0.47982 0.26080
 O93 O 0.25235 0.47866 0.28401
 O94 O 0.22460 0.52286 0.25355
 O95 O 0.22399 0.48015 0.25190
 O96 O 0.25309 0.52199 0.28480
 Cu97 Cu 0.26860 0.50092 0.24220
 Cu98 Cu 0.23583 0.50081 0.27107
 C99 C 0.27131 0.52973 0.27791
 C100 C 0.23323 0.47227 0.23489
 C101 C 0.23301 0.52991 0.23581
 C102 C 0.27106 0.47171 0.27766
 O103 O 0.75068 1.02270 0.71644
 O104 O 0.72099 0.97936 0.74657
 O105 O 0.72091 1.02248 0.74672
 O106 O 0.75078 0.97949 0.71633
 O107 O 0.77699 0.97968 0.74154
 O108 O 0.74675 1.02224 0.77232
 O109 O 0.74682 0.97958 0.77217
 O110 O 0.77690 1.02249 0.74164
 Cu111 Cu 0.73324 1.00101 0.72895
 Cu112 Cu 0.76451 1.00100 0.75945
 C113 C 0.76876 1.03011 0.72399
 C114 C 0.72888 0.97202 0.76445
 C115 C 0.72876 1.02973 0.76465
 C116 C 0.76887 0.97211 0.72386
 O117 O 0.77555 0.47829 0.24349
 O118 O 0.74555 0.52061 0.27495
 O119 O 0.74654 0.47751 0.27478
 O120 O 0.77504 0.52086 0.24358
 O121 O 0.74854 0.52016 0.21867
 O122 O 0.71891 0.47840 0.25115
 O123 O 0.71957 0.52123 0.24950
 O124 O 0.74805 0.47691 0.21973
 Cu125 Cu 0.76331 0.49939 0.26174
 Cu126 Cu 0.73111 0.49906 0.23225
 C127 C 0.76671 0.47013 0.22643
 C128 C 0.72770 0.52848 0.26729
 C129 C 0.72788 0.47056 0.26831
 C130 C 0.76666 0.52788 0.22580
 O131 O 0.25330 -0.02264 0.78142
 O132 O 0.22205 0.02023 0.75207
 O133 O 0.22235 -0.02266 0.75131
 O134 O 0.25222 0.02040 0.78167
 O135 O 0.27807 0.02064 0.75609
 O136 O 0.24822 -0.02254 0.72574
 O137 O 0.24726 0.02033 0.72587
 O138 O 0.27852 -0.02239 0.75522
 Cu139 Cu 0.23494 -0.00134 0.76925
 Cu140 Cu 0.26561 -0.00082 0.73815
 C141 C 0.27110 -0.03001 0.77317
 C142 C 0.22943 0.02769 0.73403
 C143 C 0.23026 -0.03005 0.73344
 C144 C 0.27007 0.02807 0.77391
 O145 O 0.25271 0.22715 0.97735
 O146 O 0.22246 0.25635 1.02087
 O147 O 0.22211 0.25753 0.97775
 O148 O 0.25294 0.22650 1.01977
 O149 O 0.27763 0.25320 1.02114
 O150 O 0.24844 0.28266 0.97716
 O151 O 0.24701 0.28318 1.02003
 O152 O 0.27853 0.25281 0.97803
 Cu153 Cu 0.23489 0.23936 0.99885
 Cu154 Cu 0.26548 0.27056 0.99918
 C155 C 0.27083 0.23495 0.97034
 C156 C 0.22960 0.27466 1.02796
 C157 C 0.23033 0.27510 0.96990
 C158 C 0.27038 0.23478 1.02786
 O159 O 0.24175 0.78245 0.47957
 O160 O 0.27427 0.75466 0.52249
 O161 O 0.27430 0.75463 0.47932
 O162 O 0.24167 0.78245 0.52214
 O163 O 0.21843 0.75446 0.52252
 O164 O 0.25104 0.72664 0.47978
 O165 O 0.25100 0.72668 0.52200
 O166 O 0.21853 0.75444 0.47912
 Cu167 Cu 0.26040 0.77130 0.50089
 Cu168 Cu 0.23223 0.73788 0.50086
 C169 C 0.22472 0.77305 0.47185
 C170 C 0.26818 0.73593 0.52955
 C171 C 0.26823 0.73590 0.47225
 C172 C 0.22460 0.77307 0.52980
 O173 O 0.22299 0.74093 -0.02193
 O174 O 0.25291 0.77262 0.02025
 O175 O 0.25190 0.77240 -0.02273
 O176 O 0.22350 0.74115 0.02059
 O177 O 0.25008 0.71628 0.01992
 O178 O 0.27962 0.74884 -0.02177
 O179 O 0.27896 0.74721 0.02093
 O180 O 0.25060 0.71724 -0.02327
 Cu181 Cu 0.23517 0.75930 -0.00090
 Cu182 Cu 0.26748 0.72987 -0.00117
 C183 C 0.23192 0.72387 -0.03005
 C184 C 0.27079 0.76503 0.02812
 C185 C 0.27062 0.76600 -0.02961
 C186 C 0.23197 0.72340 0.02765
 O187 O 0.27937 0.24533 0.47954
 O188 O 0.24933 0.21536 0.52268
 O189 O 0.24935 0.21530 0.47952
 O190 O 0.27943 0.24539 0.52255
 O191 O 0.25380 0.27123 0.52232
 O192 O 0.22334 0.24076 0.47968
 O193 O 0.22331 0.24080 0.52245
 O194 O 0.25374 0.27119 0.47975
 Cu195 Cu 0.26693 0.22774 0.50109
 Cu196 Cu 0.23592 0.25855 0.50106
 C197 C 0.27164 0.26332 0.47223
 C198 C 0.23131 0.22306 0.53006
 C199 C 0.23136 0.22301 0.47209
 C200 C 0.27172 0.26341 0.52980
 O201 O 0.74885 0.78388 0.97953
 O202 O 0.77804 0.75303 1.02259
 O203 O 0.77801 0.75303 0.97957
 O204 O 0.74875 0.78383 1.02267
 O205 O 0.72208 0.75905 1.02242
 O206 O 0.75173 0.72783 0.97976
 O207 O 0.75175 0.72785 1.02235
 O208 O 0.72219 0.75909 0.97967
 Cu209 Cu 0.76605 0.77097 1.00110
 Cu210 Cu 0.73425 0.74097 1.00106
 C211 C 0.73067 0.77664 0.97210
 C212 C 0.76985 0.73523 1.02986
 C213 C 0.76982 0.73525 0.97226
 C214 C 0.73053 0.77660 1.03002
 O215 O 0.74462 0.28048 0.47764
 O216 O 0.77715 0.25259 0.52049
 O217 O 0.77727 0.25273 0.47727
 O218 O 0.74475 0.28057 0.52010
 O219 O 0.72146 0.25262 0.52056
 O220 O 0.75397 0.22478 0.47768
 O221 O 0.75384 0.22465 0.51999
 O222 O 0.72133 0.25252 0.47724
 Cu223 Cu 0.76339 0.26932 0.49887
 Cu224 Cu 0.73516 0.23595 0.49886
 C225 C 0.72750 0.27115 0.47002
 C226 C 0.77099 0.23390 0.52759
 C227 C 0.77115 0.23405 0.47013
 C228 C 0.72766 0.27126 0.52777
 O229 O 0.77981 0.24700 -0.02055
 O230 O 0.74997 0.21674 0.02254
 O231 O 0.75001 0.21673 -0.02058
 O232 O 0.77988 0.24695 0.02252
 O233 O 0.75408 0.27262 0.02235
 O234 O 0.72383 0.24202 -0.02037
 O235 O 0.72378 0.24202 0.02233
 O236 O 0.75402 0.27269 -0.02030
 Cu237 Cu 0.76751 0.22929 0.00099
 Cu238 Cu 0.73631 0.25989 0.00101
 C239 C 0.77194 0.26493 -0.02786
 C240 C 0.73188 0.22430 0.02989
 C241 C 0.73194 0.22431 -0.02796
 C242 C 0.77203 0.26487 0.02986
 O243 O 0.78196 0.74791 0.47754
 O244 O 0.75186 0.71815 0.52075
 O245 O 0.75165 0.71813 0.47764
 O246 O 0.78198 0.74808 0.52061
 O247 O 0.75650 0.77407 0.52040
 O248 O 0.72578 0.74373 0.47788
 O249 O 0.72598 0.74374 0.52059
 O250 O 0.75649 0.77392 0.47775
 Cu251 Cu 0.76943 0.73047 0.49912
 Cu252 Cu 0.73860 0.76145 0.49915
 C253 C 0.77431 0.76591 0.47019
 C254 C 0.73391 0.72594 0.52817
 C255 C 0.73363 0.72589 0.47032
 C256 C 0.77434 0.76611 0.52792
 O257 O 0.98131 0.24962 0.27845
 O258 O 1.02330 0.28192 0.24895
 O259 O 0.97989 0.28098 0.24939
 O260 O 1.02423 0.25094 0.27774
 O261 O 1.02343 0.22546 0.25188
 O262 O 0.98112 0.25715 0.22203
 O263 O 1.02389 0.25697 0.22257
 O264 O 0.98024 0.22591 0.25099
 Cu265 Cu 1.00209 0.26840 0.26627
 Cu266 Cu 1.00225 0.23885 0.23423
 C267 C 0.97334 0.23245 0.26958
 C268 C 1.03103 0.27474 0.23093
 C269 C 0.97298 0.27425 0.23086
 C270 C 1.03135 0.23303 0.26968
 O271 O 0.52131 0.27896 0.75011
 O272 O 0.47917 0.24700 0.77983
 O273 O 0.52213 0.24847 0.77939
 O274 O 0.47797 0.27812 0.75045
 O275 O 0.47933 0.25394 0.72341
 O276 O 0.52152 0.22267 0.75385
 O277 O 0.47831 0.22295 0.75264
 O278 O 0.52199 0.25366 0.72406
 Cu279 Cu 0.50003 0.26568 0.76757
 Cu280 Cu 0.50036 0.23572 0.73590
 C281 C 0.52906 0.27157 0.73218
 C282 C 0.47128 0.22972 0.77110
 C283 C 0.52937 0.23052 0.77156
 C284 C 0.47122 0.27120 0.73194
 O285 O 0.02231 0.25265 0.77761
 O286 O -0.02255 0.22385 0.74894
 O287 O 0.02049 0.22247 0.74750
 O288 O -0.02076 0.25426 0.77881
 O289 O -0.02246 0.27838 0.75175
 O290 O 0.02241 0.24938 0.72322
 O291 O -0.02063 0.24797 0.72188
 O292 O 0.02062 0.27958 0.75332
 Cu293 Cu -0.00014 0.23574 0.76582
 Cu294 Cu -0.00000 0.26641 0.73495
 C295 C 0.02899 0.27113 0.77050
 C296 C -0.02909 0.23084 0.73040
 C297 C 0.02894 0.23086 0.73033
 C298 C -0.02913 0.27141 0.77026
 O299 O 0.47580 0.27656 0.24933
 O300 O 0.52002 0.24699 0.22033
 O301 O 0.47705 0.24552 0.21980
 O302 O 0.51912 0.27755 0.24949
 O303 O 0.51991 0.25226 0.27554
 O304 O 0.47622 0.22144 0.24694
 O305 O 0.51946 0.22118 0.24585
 O306 O 0.47725 0.25234 0.27633
 Cu307 Cu 0.49786 0.26419 0.23211
 Cu308 Cu 0.49827 0.23422 0.26375
 C309 C 0.46912 0.26962 0.26786
 C310 C 0.52731 0.22907 0.22817
 C311 C 0.46920 0.22821 0.22849
 C312 C 0.52694 0.27017 0.26739
 O313 O 0.97713 0.75300 0.72541
 O314 O 1.01924 0.72138 0.75552
 O315 O 0.97599 0.72177 0.75446
 O316 O 1.01975 0.75277 0.72619
 O317 O 1.01905 0.77778 0.75252
 O318 O 0.97688 0.74556 0.78186
 O319 O 1.01987 0.74691 0.78134
 O320 O 0.97574 0.77693 0.75267
 Cu321 Cu 0.99808 0.73466 0.73779
 Cu322 Cu 0.99775 0.76430 0.76976
 C323 C 0.96907 0.77022 0.73405
 C324 C 1.02713 0.72906 0.77329
 C325 C 0.96898 0.72836 0.77298
 C326 C 1.02682 0.77058 0.73453
 O327 O 0.47926 0.75412 0.22231
 O328 O 0.52059 0.72291 0.25410
 O329 O 0.47753 0.72412 0.25260
 O330 O 0.52233 0.75272 0.22359
 O331 O 0.52052 0.77993 0.24755
 O332 O 0.47929 0.74861 0.27933
 O333 O 0.52237 0.75013 0.27805
 O334 O 0.47745 0.77859 0.24905
 Cu335 Cu 0.49994 0.73586 0.23559
 Cu336 Cu 0.49991 0.76693 0.26606
 C337 C 0.47082 0.77135 0.23063
 C338 C 0.52899 0.73154 0.27118
 C339 C 0.47090 0.73135 0.27102
 C340 C 0.52892 0.77132 0.23046
 O341 O -0.02185 0.72032 0.24544
 O342 O 0.02168 0.75152 0.27378
 O343 O -0.02093 0.75166 0.27435
 O344 O 0.02145 0.72014 0.24437
 O345 O 0.02199 0.74563 0.21852
 O346 O -0.02228 0.77555 0.24705
 O347 O 0.02101 0.77649 0.24742
 O348 O -0.02104 0.74408 0.21802
 Cu349 Cu 0.00016 0.73334 0.26208
 Cu350 Cu -0.00020 0.76292 0.23008
 C351 C -0.02891 0.72689 0.22693
 C352 C 0.02870 0.76936 0.26547
 C353 C -0.02902 0.76885 0.26564
 C354 C 0.02933 0.72783 0.22660
 O355 O 0.47990 0.77696 0.75363
 O356 O 0.52353 0.74864 0.72243
 O357 O 0.48026 0.74773 0.72215
 O358 O 0.52259 0.77764 0.75371
 O359 O 0.52397 0.75021 0.77745
 O360 O 0.47962 0.72177 0.74752
 O361 O 0.52261 0.72109 0.74604
 O362 O 0.48063 0.75048 0.77847
 Cu363 Cu 0.50152 0.76537 0.73544
 Cu364 Cu 0.50184 0.73322 0.76486
 C365 C 0.47283 0.76854 0.77138
 C366 C 0.53050 0.73003 0.72890
 C367 C 0.47233 0.72992 0.72975
 C368 C 0.53073 0.76885 0.77081
 C369 C 0.39823 0.31293 0.31331
 C370 C 0.39763 0.31254 0.33636
 C371 C 0.37987 0.32246 0.34732
 C372 C 0.36246 0.33213 0.33538
 C373 C 0.36335 0.33225 0.31223
 C374 C 0.38131 0.32292 0.30113
 C375 C 0.41678 0.30240 0.30168
 C376 C 0.41752 0.30303 0.27863
 C377 C 0.43510 0.29282 0.26764
 C378 C 0.45145 0.28151 0.27956
 C379 C 0.45045 0.28098 0.30265
 C380 C 0.43325 0.29162 0.31383
 C381 C 0.38260 0.32319 0.27809
 C382 C 0.40047 0.31354 0.26703
 C383 C 0.41465 0.30198 0.34796
 C384 C 0.43209 0.29157 0.33688
 H385 H 0.36967 0.33092 0.26852
 H386 H 0.40083 0.31409 0.24924
 H387 H 0.41435 0.30154 0.36575
 H388 H 0.44474 0.28340 0.34644
 H389 H 0.37938 0.32245 0.36511
 H390 H 0.34992 0.33941 0.30290
 H391 H 0.43571 0.29308 0.24985
 H392 H 0.46309 0.27238 0.31188
 C393 C 0.40092 0.81102 0.81596
 C394 C 0.39977 0.83409 0.81637
 C395 C 0.38175 0.84429 0.82666
 C396 C 0.36457 0.83160 0.83581
 C397 C 0.36600 0.80844 0.83506
 C398 C 0.38426 0.79808 0.82544
 C399 C 0.41976 0.80018 0.80509
 C400 C 0.42106 0.77711 0.80498
 C401 C 0.43892 0.76688 0.79450
 C402 C 0.45498 0.77955 0.78359
 C403 C 0.45340 0.80266 0.78374
 C404 C 0.43594 0.81309 0.79474
 C405 C 0.38609 0.77504 0.82493
 C406 C 0.40427 0.76473 0.81502
 C407 C 0.41652 0.84646 0.80625
 C408 C 0.43421 0.83614 0.79547
 H409 H 0.37337 0.76489 0.83227
 H410 H 0.40505 0.74692 0.81498
 H411 H 0.41581 0.86427 0.80642
 H412 H 0.44663 0.84628 0.78764
 H413 H 0.38087 0.86209 0.82729
 H414 H 0.35276 0.79851 0.84177
 H415 H 0.43997 0.74907 0.79419
 H416 H 0.46581 0.81244 0.77542
 C417 C -0.10143 0.31438 0.81383
 C418 C -0.10247 0.31440 0.83686
 C419 C -0.12055 0.32432 0.84730
 C420 C -0.13789 0.33351 0.83487
 C421 C -0.13655 0.33322 0.81175
 C422 C -0.11825 0.32394 0.80116
 C423 C -0.08254 0.30385 0.80274
 C424 C -0.08139 0.30410 0.77971
 C425 C -0.06348 0.29396 0.76924
 C426 C -0.04718 0.28307 0.78161
 C427 C -0.04862 0.28284 0.80469
 C428 C -0.06617 0.29347 0.81537
 C429 C -0.11654 0.32381 0.77815
 C430 C -0.09833 0.31420 0.76761
 C431 C -0.08555 0.30424 0.84896
 C432 C -0.06779 0.29382 0.83839
 H433 H -0.12938 0.33120 0.76821
 H434 H -0.09765 0.31444 0.74983
 H435 H -0.08618 0.30411 0.86675
 H436 H -0.05523 0.28595 0.84833
 H437 H -0.12138 0.32460 0.86508
 H438 H -0.14991 0.33998 0.80203
 H439 H -0.06255 0.29397 0.75145
 H440 H -0.03604 0.27455 0.81427
 C441 C -0.09960 0.81335 0.31044
 C442 C -0.11655 0.82313 0.29813
 C443 C -0.13445 0.83274 0.30911
 C444 C -0.13525 0.83310 0.33225
 C445 C -0.11778 0.82367 0.34431
 C446 C -0.10010 0.81346 0.33350
 C447 C -0.08115 0.80247 0.29897
 C448 C -0.06468 0.79188 0.31128
 C449 C -0.04758 0.78092 0.30026
 C450 C -0.04666 0.78095 0.27716
 C451 C -0.06303 0.79207 0.26507
 C452 C -0.08052 0.80259 0.27590
 C453 C -0.08308 0.80309 0.34525
 C454 C -0.06574 0.79236 0.33433
 C455 C -0.11537 0.82288 0.27508
 C456 C -0.09758 0.81291 0.26416
 H457 H -0.08330 0.80304 0.36305
 H458 H -0.05308 0.78433 0.34401
 H459 H -0.12831 0.83044 0.26540
 H460 H -0.09730 0.81307 0.24636
 H461 H -0.14792 0.83970 0.29968
 H462 H -0.11820 0.82401 0.36210
 H463 H -0.03492 0.77248 0.30962
 H464 H -0.06248 0.79195 0.24727
 C465 C 0.60086 0.68777 0.31469
 C466 C 0.60172 0.66469 0.31492
 C467 C 0.61967 0.65419 0.32501
 C468 C 0.63705 0.66659 0.33419
 C469 C 0.63589 0.68976 0.33369
 C470 C 0.61772 0.70042 0.32423
 C471 C 0.58211 0.69892 0.30398
 C472 C 0.58112 0.72200 0.30404
 C473 C 0.56332 0.73253 0.29375
 C474 C 0.54697 0.72016 0.28290
 C475 C 0.54827 0.69703 0.28286
 C476 C 0.56570 0.68629 0.29363
 C477 C 0.61617 0.72348 0.32389
 C478 C 0.59810 0.73409 0.31410
 C479 C 0.58477 0.65260 0.30478
 C480 C 0.56714 0.66322 0.29418
 H481 H 0.62905 0.73342 0.33126
 H482 H 0.59755 0.75191 0.31420
 H483 H 0.58526 0.63478 0.30480
 H484 H 0.55455 0.65329 0.28635
 H485 H 0.62037 0.63638 0.32544
 H486 H 0.64928 0.69947 0.34042
 H487 H 0.56251 0.75035 0.29363
 H488 H 0.53565 0.68744 0.27461
 C489 C 0.60118 0.18663 0.81491
 C490 C 0.60222 0.16356 0.81482
 C491 C 0.62011 0.15306 0.82501
 C492 C 0.63727 0.16548 0.83457
 C493 C 0.63593 0.18863 0.83441
 C494 C 0.61780 0.19927 0.82487
 C495 C 0.58251 0.19778 0.80409
 C496 C 0.58132 0.22085 0.80451
 C497 C 0.56356 0.23138 0.79421
 C498 C 0.54745 0.21904 0.78299
 C499 C 0.54896 0.19594 0.78250
 C500 C 0.56635 0.18518 0.79332
 C501 C 0.61608 0.22232 0.82486
 C502 C 0.59806 0.23293 0.81499
 C503 C 0.58553 0.15148 0.80425
 C504 C 0.56798 0.16212 0.79354
 H505 H 0.62877 0.23225 0.83255
 H506 H 0.59734 0.25074 0.81536
 H507 H 0.58617 0.13367 0.80402
 H508 H 0.55558 0.15220 0.78538
 H509 H 0.62096 0.13525 0.82518
 H510 H 0.64917 0.19834 0.84144
 H511 H 0.56256 0.24919 0.79441
 H512 H 0.53650 0.18641 0.77397
 C513 C 1.09996 0.68516 0.81491
 C514 C 1.10125 0.66210 0.81438
 C515 C 1.11941 0.65162 0.82410
 C516 C 1.13658 0.66406 0.83364
 C517 C 1.13499 0.68720 0.83387
 C518 C 1.11660 0.69781 0.82480
 C519 C 1.08097 0.69630 0.80462
 C520 C 1.07954 0.71934 0.80548
 C521 C 1.06151 0.72986 0.79564
 C522 C 1.04536 0.71756 0.78445
 C523 C 1.04710 0.69448 0.78354
 C524 C 1.06477 0.68372 0.79389
 C525 C 1.11463 0.72083 0.82525
 C526 C 1.09633 0.73141 0.81589
 C527 C 1.08450 0.65004 0.80387
 C528 C 1.06665 0.66067 0.79366
 H529 H 1.12734 0.73076 0.83290
 H530 H 1.09542 0.74920 0.81659
 H531 H 1.08533 0.63224 0.80331
 H532 H 1.05423 0.65077 0.78553
 H533 H 1.12043 0.63382 0.82398
 H534 H 1.14822 0.69694 0.84087
 H535 H 1.06035 0.74766 0.79615
 H536 H 1.03463 0.68497 0.77500
 C537 C 1.10235 0.18777 0.31304
 C538 C 1.10303 0.16468 0.31280
 C539 C 1.12060 0.15383 0.32318
 C540 C 1.13781 0.16591 0.33310
 C541 C 1.13685 0.18909 0.33302
 C542 C 1.11903 0.20008 0.32329
 C543 C 1.08395 0.19929 0.30212
 C544 C 1.08309 0.22236 0.30273
 C545 C 1.06554 0.23324 0.29240
 C546 C 1.04931 0.22123 0.28099
 C547 C 1.05053 0.19811 0.28028
 C548 C 1.06770 0.18702 0.29111
 C549 C 1.11766 0.22316 0.32343
 C550 C 1.09990 0.23411 0.31346
 C551 C 1.08627 0.15295 0.30196
 C552 C 1.06899 0.16393 0.29116
 H553 H 1.13040 0.23284 0.33134
 H554 H 1.09944 0.25192 0.31398
 H555 H 1.08664 0.13513 0.30161
 H556 H 1.05652 0.15426 0.28282
 H557 H 1.12114 0.13601 0.32328
 H558 H 1.15013 0.19855 0.34031
 H559 H 1.06476 0.25106 0.29279
 H560 H 1.03799 0.18883 0.27160
 C561 C 0.60060 0.31536 0.68838
 C562 C 0.61748 0.32494 0.70095
 C563 C 0.63562 0.33438 0.69024
 C564 C 0.63670 0.33488 0.66710
 C565 C 0.61933 0.32560 0.65478
 C566 C 0.60143 0.31549 0.66533
 C567 C 0.58185 0.30472 0.69958
 C568 C 0.56545 0.29428 0.68703
 C569 C 0.54808 0.28349 0.69780
 C570 C 0.54682 0.28363 0.72088
 C571 C 0.56308 0.29462 0.73320
 C572 C 0.58086 0.30490 0.72263
 C573 C 0.58447 0.30529 0.65333
 C574 C 0.56686 0.29472 0.66400
 C575 C 0.61596 0.32473 0.72397
 C576 C 0.59787 0.31502 0.73463
 H577 H 0.58494 0.30525 0.63554
 H578 H 0.55426 0.28681 0.65414
 H579 H 0.62885 0.33214 0.73384
 H580 H 0.59733 0.31521 0.75242
 H581 H 0.64901 0.34121 0.69987
 H582 H 0.61995 0.32605 0.63700
 H583 H 0.53550 0.27511 0.68829
 H584 H 0.56226 0.29452 0.75099
 C585 C 0.60082 0.81518 0.18711
 C586 C 0.60184 0.83826 0.18717
 C587 C 0.61981 0.84877 0.17712
 C588 C 0.63704 0.83636 0.16769
 C589 C 0.63573 0.81320 0.16792
 C590 C 0.61755 0.80254 0.17735
 C591 C 0.58205 0.80402 0.19777
 C592 C 0.58091 0.78095 0.19744
 C593 C 0.56311 0.77040 0.20769
 C594 C 0.54689 0.78274 0.21875
 C595 C 0.54832 0.80586 0.21905
 C596 C 0.56576 0.81662 0.20833
 C597 C 0.61586 0.77949 0.17741
 C598 C 0.59777 0.76887 0.18715
 C599 C 0.58501 0.85033 0.19753
 C600 C 0.56736 0.83969 0.20806
 H601 H 0.62863 0.76957 0.16986
 H602 H 0.59710 0.75106 0.18685
 H603 H 0.58563 0.86814 0.19772
 H604 H 0.55486 0.84960 0.21607
 H605 H 0.62063 0.86658 0.17690
 H606 H 0.64902 0.80350 0.16098
 H607 H 0.56220 0.75258 0.20762
 H608 H 0.53580 0.81542 0.22746
 C609 C 1.10305 0.31896 0.18826
 C610 C 1.10405 0.31946 0.16522
 C611 C 1.12209 0.32965 0.15497
 C612 C 1.13944 0.33860 0.16757
 C613 C 1.13816 0.33776 0.19069
 C614 C 1.11988 0.32825 0.20110
 C615 C 1.08418 0.30820 0.19915
 C616 C 1.08302 0.30801 0.22219
 C617 C 1.06513 0.29763 0.23247
 C618 C 1.04891 0.28689 0.21988
 C619 C 1.05034 0.28710 0.19680
 C620 C 1.06783 0.29802 0.18632
 C621 C 1.11818 0.32768 0.22411
 C622 C 1.09998 0.31787 0.23448
 C623 C 1.08714 0.30952 0.15294
 C624 C 1.06942 0.29883 0.16331
 H625 H 1.13104 0.33487 0.23419
 H626 H 1.09931 0.31777 0.25226
 H627 H 1.08774 0.30976 0.13515
 H628 H 1.05687 0.29113 0.15323
 H629 H 1.12287 0.33036 0.13720
 H630 H 1.15152 0.34432 0.20054
 H631 H 1.06419 0.29726 0.25025
 H632 H 1.03780 0.27891 0.18708
 C633 C 1.09835 0.81509 0.69142
 C634 C 1.09907 0.81577 0.66838
 C635 C 1.11697 0.82604 0.65799
 C636 C 1.13445 0.83493 0.67044
 C637 C 1.13347 0.83392 0.69357
 C638 C 1.11532 0.82432 0.70413
 C639 C 1.07962 0.80424 0.70245
 C640 C 1.07873 0.80388 0.72551
 C641 C 1.06096 0.79341 0.73591
 C642 C 1.04461 0.78276 0.72341
 C643 C 1.04578 0.78314 0.70033
 C644 C 1.06313 0.79414 0.68974
 C645 C 1.11390 0.82357 0.72716
 C646 C 1.09583 0.81366 0.73767
 C647 C 1.08202 0.80590 0.65622
 C648 C 1.06444 0.79512 0.66672
 H649 H 1.12686 0.83070 0.73714
 H650 H 1.09536 0.81343 0.75545
 H651 H 1.08242 0.80627 0.63843
 H652 H 1.05178 0.78748 0.65673
 H653 H 1.11752 0.82688 0.64022
 H654 H 1.14694 0.84043 0.70330
 H655 H 1.06021 0.79291 0.75370
 H656 H 1.03313 0.77502 0.69069
 C657 C 0.39948 0.68823 0.68588
 C658 C 0.38290 0.67819 0.69848
 C659 C 0.36461 0.66892 0.68787
 C660 C 0.36310 0.66905 0.66476
 C661 C 0.38017 0.67881 0.65237
 C662 C 0.39822 0.68874 0.66286
 C663 C 0.41842 0.69862 0.69701
 C664 C 0.43460 0.70942 0.68448
 C665 C 0.45227 0.71979 0.69523
 C666 C 0.45404 0.71883 0.71826
 C667 C 0.43789 0.70759 0.73053
 C668 C 0.41986 0.69773 0.72001
 C669 C 0.41491 0.69936 0.65084
 C670 C 0.43271 0.70966 0.66147
 C671 C 0.38485 0.67777 0.72147
 C672 C 0.40311 0.68723 0.73205
 H673 H 0.41410 0.69990 0.63307
 H674 H 0.44511 0.71786 0.65160
 H675 H 0.37219 0.67001 0.73137
 H676 H 0.40402 0.68651 0.74981
 H677 H 0.35144 0.66177 0.69756
 H678 H 0.37920 0.67888 0.63460
 H679 H 0.46474 0.72837 0.68575
 H680 H 0.43908 0.70704 0.74829
 C681 C 0.39744 0.18422 0.18508
 C682 C 0.38072 0.17451 0.19775
 C683 C 0.36245 0.16514 0.18717
 C684 C 0.36106 0.16495 0.16405
 C685 C 0.37831 0.17430 0.15161
 C686 C 0.39635 0.18428 0.16204
 C687 C 0.41626 0.19489 0.19615
 C688 C 0.43249 0.20547 0.18351
 C689 C 0.44991 0.21630 0.19417
 C690 C 0.45137 0.21612 0.21725
 C691 C 0.43526 0.20498 0.22965
 C692 C 0.41745 0.19462 0.21919
 C693 C 0.41316 0.19461 0.14993
 C694 C 0.43085 0.20516 0.16049
 C695 C 0.38248 0.17458 0.22076
 C696 C 0.40062 0.18433 0.23130
 H697 H 0.41249 0.19479 0.13215
 H698 H 0.44331 0.21318 0.15055
 H699 H 0.36972 0.16706 0.23071
 H700 H 0.40133 0.18406 0.24908
 H701 H 0.34915 0.15826 0.19689
 H702 H 0.37743 0.17409 0.13384
 H703 H 0.46236 0.22478 0.18457
 H704 H 0.43621 0.20500 0.24743
 C705 C -0.10143 0.68291 0.18477
 C706 C -0.10288 0.68288 0.16176
 C707 C -0.12118 0.67301 0.15166
 C708 C -0.13832 0.66389 0.16441
 C709 C -0.13655 0.66413 0.18750
 C710 C -0.11803 0.67337 0.19775
 C711 C -0.08238 0.69352 0.19550
 C712 C -0.08085 0.69337 0.21852
 C713 C -0.06285 0.70372 0.22866
 C714 C -0.04688 0.71474 0.21597
 C715 C -0.04867 0.71478 0.19291
 C716 C -0.06629 0.70396 0.18257
 C717 C -0.11590 0.67354 0.22072
 C718 C -0.09755 0.68324 0.23093
 C719 C -0.08620 0.69304 0.14934
 C720 C -0.06829 0.70354 0.15957
 H721 H -0.12856 0.66616 0.23091
 H722 H -0.09657 0.68306 0.24870
 H723 H -0.08715 0.69315 0.13157
 H724 H -0.05594 0.71144 0.14940
 H725 H -0.12236 0.67276 0.13390
 H726 H -0.14975 0.65742 0.19745
 H727 H -0.06166 0.70385 0.24643
 H728 H -0.03634 0.72317 0.18309
 C729 C -0.10083 0.18751 0.68630
 C730 C -0.10162 0.18738 0.66326
 C731 C -0.11950 0.17726 0.65268
 C732 C -0.13686 0.16793 0.66497
 C733 C -0.13580 0.16836 0.68810
 C734 C -0.11771 0.17787 0.69884
 C735 C -0.08213 0.19820 0.69753
 C736 C -0.08120 0.19803 0.72058
 C737 C -0.06344 0.20828 0.73119
 C738 C -0.04705 0.21918 0.71893
 C739 C -0.04828 0.21935 0.69584
 C740 C -0.06568 0.20863 0.68503
 C741 C -0.11624 0.17810 0.72186
 C742 C -0.09821 0.18788 0.73255
 C743 C -0.08465 0.19761 0.65129
 C744 C -0.06706 0.20819 0.66199
 H745 H -0.12913 0.17065 0.73171
 H746 H -0.09770 0.18769 0.75034
 H747 H -0.08509 0.19766 0.63350
 H748 H -0.05444 0.21609 0.65215
 H749 H -0.12013 0.17688 0.63489
 H750 H -0.14920 0.16151 0.69770
 H751 H -0.06267 0.20831 0.74898
 H752 H -0.03563 0.22765 0.68636
 C753 C 0.31290 0.39834 0.32012
 C754 C 0.33602 0.39689 0.32033
 C755 C 0.34607 0.37838 0.32974
 C756 C 0.33316 0.36106 0.33827
 C757 C 0.30996 0.36282 0.33782
 C758 C 0.29976 0.38153 0.32902
 C759 C 0.30222 0.41764 0.31001
 C760 C 0.27909 0.41917 0.30997
 C761 C 0.26901 0.43739 0.30004
 C762 C 0.28189 0.45360 0.28962
 C763 C 0.30505 0.45184 0.28981
 C764 C 0.31533 0.43398 0.30021
 C765 C 0.27667 0.38365 0.32869
 C766 C 0.26651 0.40223 0.31946
 C767 C 0.34860 0.41381 0.31082
 C768 C 0.33843 0.43197 0.30079
 H769 H 0.26636 0.37082 0.33558
 H770 H 0.24866 0.40320 0.31948
 H771 H 0.36646 0.41286 0.31085
 H772 H 0.34873 0.44451 0.29337
 H773 H 0.36391 0.37720 0.33015
 H774 H 0.29989 0.34948 0.34406
 H775 H 0.25116 0.43857 0.29971
 H776 H 0.31502 0.46435 0.28187
 C777 C 0.31572 -0.10221 0.81494
 C778 C 0.32560 -0.11847 0.80184
 C779 C 0.33539 -0.13673 0.81195
 C780 C 0.33591 -0.13855 0.83504
 C781 C 0.32637 -0.12175 0.84791
 C782 C 0.31592 -0.10374 0.83794
 C783 C 0.30467 -0.08338 0.80434
 C784 C 0.29395 -0.06758 0.81738
 C785 C 0.28287 -0.05007 0.80715
 C786 C 0.28303 -0.04808 0.78412
 C787 C 0.29423 -0.06382 0.77133
 C788 C 0.30479 -0.08170 0.78134
 C789 C 0.30541 -0.08739 0.85047
 C790 C 0.29447 -0.06970 0.84036
 C791 C 0.32529 -0.11626 0.77887
 C792 C 0.31520 -0.09810 0.76880
 H793 H 0.30541 -0.08841 0.86824
 H794 H 0.28636 -0.05759 0.85062
 H795 H 0.33292 -0.12868 0.76860
 H796 H 0.31534 -0.09701 0.75104
 H797 H 0.34236 -0.14969 0.80189
 H798 H 0.32681 -0.12294 0.86566
 H799 H 0.27433 -0.03791 0.81703
 H800 H 0.29416 -0.06247 0.75357
 C801 C 0.81086 0.39808 0.81752
 C802 C 0.83401 0.39721 0.81794
 C803 C 0.84445 0.37916 0.82783
 C804 C 0.83193 0.36171 0.83664
 C805 C 0.80869 0.36287 0.83596
 C806 C 0.79808 0.38113 0.82667
 C807 C 0.79977 0.41693 0.80699
 C808 C 0.77661 0.41791 0.80679
 C809 C 0.76615 0.43576 0.79655
 C810 C 0.77870 0.45214 0.78601
 C811 C 0.80190 0.45089 0.78630
 C812 C 0.81254 0.43342 0.79700
 C813 C 0.77495 0.38268 0.82614
 C814 C 0.76440 0.40083 0.81650
 C815 C 0.84623 0.41426 0.80819
 C816 C 0.83568 0.43199 0.79776
 H817 H 0.76491 0.36973 0.83321
 H818 H 0.74652 0.40137 0.81641
 H819 H 0.86411 0.41377 0.80837
 H820 H 0.84572 0.44465 0.79020
 H821 H 0.86232 0.37847 0.82841
 H822 H 0.79891 0.34942 0.84242
 H823 H 0.74828 0.43655 0.79617
 H824 H 0.81162 0.46354 0.77829
 C825 C 0.81413 -0.10122 0.31673
 C826 C 0.83725 -0.10261 0.31621
 C827 C 0.84767 -0.12096 0.32557
 C828 C 0.83510 -0.13819 0.33475
 C829 C 0.81189 -0.13656 0.33489
 C830 C 0.80134 -0.11799 0.32620
 C831 C 0.80306 -0.08200 0.30688
 C832 C 0.77995 -0.08048 0.30772
 C833 C 0.76949 -0.06227 0.29820
 C834 C 0.78194 -0.04605 0.28730
 C835 C 0.80509 -0.04784 0.28649
 C836 C 0.81578 -0.06569 0.29653
 C837 C 0.77825 -0.11592 0.32665
 C838 C 0.76774 -0.09740 0.31771
 C839 C 0.84945 -0.08574 0.30611
 C840 C 0.83889 -0.06767 0.29630
 H841 H 0.76822 -0.12872 0.33400
 H842 H 0.74990 -0.09644 0.31839
 H843 H 0.86730 -0.08664 0.30557
 H844 H 0.84889 -0.05516 0.28845
 H845 H 0.86552 -0.12203 0.32550
 H846 H 0.80205 -0.14984 0.34160
 H847 H 0.75164 -0.06107 0.29860
 H848 H 0.81471 -0.03533 0.27816
 C849 C 0.31255 0.60337 0.68109
 C850 C 0.33568 0.60472 0.68119
 C851 C 0.34597 0.62307 0.67166
 C852 C 0.33329 0.64037 0.66277
 C853 C 0.31007 0.63874 0.66302
 C854 C 0.29964 0.62016 0.67186
 C855 C 0.30162 0.58416 0.69113
 C856 C 0.27849 0.58267 0.69071
 C857 C 0.26817 0.56446 0.70041
 C858 C 0.28077 0.54820 0.71107
 C859 C 0.30394 0.54997 0.71146
 C860 C 0.31448 0.56781 0.70124
 C861 C 0.27654 0.61813 0.67183
 C862 C 0.26615 0.59962 0.68095
 C863 C 0.34802 0.58781 0.69104
 C864 C 0.33760 0.56975 0.70104
 H865 H 0.26640 0.63095 0.66468
 H866 H 0.24829 0.59869 0.68059
 H867 H 0.36588 0.58867 0.69126
 H868 H 0.34772 0.55722 0.70869
 H869 H 0.36383 0.62409 0.67140
 H870 H 0.30014 0.65204 0.65649
 H871 H 0.25031 0.56327 0.70032
 H872 H 0.31368 0.53743 0.71960
 C873 C 0.31028 1.09983 0.18083
 C874 C 0.33341 1.10103 0.18069
 C875 C 0.34372 1.11923 0.17094
 C876 C 0.33106 1.13654 0.16205
 C877 C 0.30783 1.13504 0.16245
 C878 C 0.29737 1.11660 0.17155
 C879 C 0.29933 1.08083 0.19126
 C880 C 0.27619 1.07952 0.19117
 C881 C 0.26585 1.06157 0.20135
 C882 C 0.27850 1.04545 0.21216
 C883 C 0.30168 1.04702 0.21215
 C884 C 0.31221 1.06457 0.20147
 C885 C 0.27426 1.11472 0.17180
 C886 C 0.26385 1.09641 0.18130
 C887 C 0.34576 1.08417 0.19061
 C888 C 0.33533 1.06632 0.20097
 H889 H 0.26413 1.12752 0.16462
 H890 H 0.24598 1.09561 0.18119
 H891 H 0.36362 1.08492 0.19064
 H892 H 0.34545 1.05383 0.20870
 H893 H 0.36158 1.12017 0.17055
 H894 H 0.29793 1.14837 0.15593
 H895 H 0.24799 1.06053 0.20156
 H896 H 0.31144 1.03456 0.22041
 C897 C 0.81007 0.59958 0.18208
 C898 C 0.83322 0.60041 0.18161
 C899 C 0.84368 0.61845 0.17171
 C900 C 0.83118 0.63596 0.16300
 C901 C 0.80793 0.63485 0.16378
 C902 C 0.79731 0.61658 0.17301
 C903 C 0.79896 0.58074 0.19260
 C904 C 0.77580 0.57978 0.19280
 C905 C 0.76532 0.56194 0.20303
 C906 C 0.77785 0.54560 0.21363
 C907 C 0.80105 0.54682 0.21336
 C908 C 0.81172 0.56424 0.20259
 C909 C 0.77417 0.61506 0.17356
 C910 C 0.76360 0.59689 0.18314
 C911 C 0.84542 0.58334 0.19133
 C912 C 0.83485 0.56564 0.20180
 H913 H 0.76415 0.62804 0.16654
 H914 H 0.74572 0.59637 0.18325
 H915 H 0.86330 0.58380 0.19112
 H916 H 0.84488 0.55297 0.20936
 H917 H 0.86154 0.61909 0.17106
 H918 H 0.79815 0.64834 0.15742
 H919 H 0.74744 0.56116 0.20346
 H920 H 0.81072 0.53419 0.22144
 C921 C 0.81230 1.10271 0.68174
 C922 C 0.83543 1.10401 0.68206
 C923 C 0.84586 1.12216 0.67232
 C924 C 0.83331 1.13931 0.66296
 C925 C 0.81009 1.13773 0.66295
 C926 C 0.79952 1.11934 0.67204
 C927 C 0.80122 1.08372 0.69203
 C928 C 0.77809 1.08227 0.69141
 C929 C 0.76763 1.06427 0.70134
 C930 C 0.78009 1.04818 0.71241
 C931 C 0.80325 1.04991 0.71300
 C932 C 0.81394 1.06754 0.70257
 C933 C 0.77642 1.11735 0.67180
 C934 C 0.76589 1.09905 0.68119
 C935 C 0.84763 1.08727 0.69236
 C936 C 0.83706 1.06943 0.70258
 H937 H 0.76639 1.13005 0.66430
 H938 H 0.74804 1.09815 0.68066
 H939 H 0.86548 1.08811 0.69276
 H940 H 0.84707 1.05701 0.71057
 H941 H 0.86371 1.12316 0.67227
 H942 H 0.80026 1.15092 0.65607
 H943 H 0.74977 1.06311 0.70107
 H944 H 0.81289 1.03749 0.72144
 C945 C 0.68499 0.60052 0.31125
 C946 C 0.68489 0.60141 0.33428
 C947 C 0.67474 0.61928 0.34480
 C948 C 0.66542 0.63657 0.33244
 C949 C 0.66583 0.63539 0.30931
 C950 C 0.67531 0.61728 0.29865
 C951 C 0.69569 0.58182 0.30008
 C952 C 0.69540 0.58076 0.27704
 C953 C 0.70554 0.56294 0.26650
 C954 C 0.71647 0.54664 0.27879
 C955 C 0.71686 0.54804 0.30186
 C956 C 0.70619 0.56548 0.31263
 C957 C 0.67547 0.61570 0.27563
 C958 C 0.68521 0.59766 0.26501
 C959 C 0.69520 0.58455 0.34631
 C960 C 0.70581 0.56698 0.33566
 H961 H 0.66799 0.62851 0.26574
 H962 H 0.68495 0.59704 0.24723
 H963 H 0.69528 0.58508 0.36410
 H964 H 0.71375 0.55445 0.34554
 H965 H 0.67438 0.61999 0.36258
 H966 H 0.65900 0.64872 0.29965
 H967 H 0.70543 0.56202 0.24871
 H968 H 0.72518 0.53543 0.31135
 C969 C 0.68555 1.10040 0.81019
 C970 C 0.68542 1.10071 0.83324
 C971 C 0.67528 1.11831 0.84420
 C972 C 0.66598 1.13590 0.83227
 C973 C 0.66648 1.13534 0.80912
 C974 C 0.67594 1.11750 0.79801
 C975 C 0.69620 1.08197 0.79856
 C976 C 0.69596 1.08148 0.77549
 C977 C 0.70615 1.06395 0.76451
 C978 C 0.71711 1.04741 0.77644
 C979 C 0.71738 1.04819 0.79954
 C980 C 0.70666 1.06532 0.81072
 C981 C 0.67612 1.11651 0.77495
 C982 C 0.68582 1.09871 0.76388
 C983 C 0.69567 1.08354 0.84485
 C984 C 0.70625 1.06622 0.83378
 H985 H 0.66868 1.12958 0.76538
 H986 H 0.68559 1.09855 0.74609
 H987 H 0.69573 1.08361 0.86265
 H988 H 0.71417 1.05344 0.84335
 H989 H 0.67485 1.11855 0.86199
 H990 H 0.65965 1.14891 0.79978
 H991 H 0.70614 1.06349 0.74671
 H992 H 0.72573 1.03539 0.80874
 C993 C 0.18541 0.59941 0.80880
 C994 C 0.17544 0.61635 0.79667
 C995 C 0.16577 0.63404 0.80784
 C996 C 0.16545 0.63460 0.83099
 C997 C 0.17508 0.61716 0.84287
 C998 C 0.18541 0.59971 0.83186
 C999 C 0.19632 0.58116 0.79712
 C1000 C 0.20711 0.56469 0.80923
 C1001 C 0.21806 0.54774 0.79800
 C1002 C 0.21769 0.54695 0.77490
 C1003 C 0.20641 0.56332 0.76303
 C1004 C 0.19598 0.58068 0.77406
 C1005 C 0.19600 0.58271 0.84342
 C1006 C 0.20681 0.56557 0.83229
 C1007 C 0.17553 0.61535 0.77362
 C1008 C 0.18548 0.59773 0.76250
 H1009 H 0.19615 0.58278 0.86121
 H1010 H 0.21499 0.55292 0.84182
 H1011 H 0.16783 0.62830 0.76409
 H1012 H 0.18517 0.59757 0.74471
 H1013 H 0.15870 0.64751 0.79855
 H1014 H 0.17478 0.61741 0.86066
 H1015 H 0.22664 0.53506 0.80716
 H1016 H 0.20631 0.56285 0.74522
 C1017 C 0.18579 1.09989 0.31017
 C1018 C 0.18517 1.10037 0.33321
 C1019 C 0.17490 1.11813 0.34380
 C1020 C 0.16599 1.13570 0.33154
 C1021 C 0.16695 1.13494 0.30841
 C1022 C 0.17653 1.11694 0.29765
 C1023 C 0.19658 1.08129 0.29892
 C1024 C 0.19677 1.08061 0.27586
 C1025 C 0.20694 1.06287 0.26524
 C1026 C 0.21745 1.04627 0.27749
 C1027 C 0.21740 1.04729 0.30058
 C1028 C 0.20666 1.06466 0.31141
 C1029 C 0.17719 1.11576 0.27462
 C1030 C 0.18700 1.09781 0.26390
 C1031 C 0.19508 1.08324 0.34516
 C1032 C 0.20579 1.06576 0.33445
 H1033 H 0.17004 1.12879 0.26479
 H1034 H 0.18711 1.09749 0.24611
 H1035 H 0.19476 1.08345 0.36296
 H1036 H 0.21341 1.05300 0.34429
 H1037 H 0.17412 1.11852 0.36158
 H1038 H 0.16045 1.14848 0.29883
 H1039 H 0.20718 1.06222 0.24744
 H1040 H 0.22539 1.03444 0.31002
 C1041 C 0.68690 0.39977 0.68545
 C1042 C 0.66377 0.39858 0.68508
 C1043 C 0.65355 0.38069 0.67470
 C1044 C 0.66629 0.36366 0.66538
 C1045 C 0.68950 0.36518 0.66592
 C1046 C 0.69988 0.38331 0.67571
 C1047 C 0.69775 0.41839 0.69663
 C1048 C 0.72090 0.41967 0.69682
 C1049 C 0.73114 0.43726 0.70769
 C1050 C 0.71841 0.45309 0.71885
 C1051 C 0.69523 0.45155 0.71855
 C1052 C 0.68479 0.43434 0.70723
 C1053 C 0.72299 0.38517 0.67623
 C1054 C 0.73332 0.40312 0.68648
 C1055 C 0.65134 0.41512 0.69544
 C1056 C 0.66167 0.43262 0.70645
 H1057 H 0.73318 0.37261 0.66870
 H1058 H 0.75118 0.40390 0.68656
 H1059 H 0.63347 0.41436 0.69530
 H1060 H 0.65149 0.44486 0.71448
 H1061 H 0.63570 0.37971 0.67421
 H1062 H 0.69944 0.35207 0.65903
 H1063 H 0.74900 0.43826 0.70806
 H1064 H 0.68537 0.46377 0.72703
 C1065 C 0.68572 -0.09842 0.19136
 C1066 C 0.67599 -0.11533 0.20374
 C1067 C 0.66630 -0.13318 0.19283
 C1068 C 0.66573 -0.13396 0.16968
 C1069 C 0.67511 -0.11653 0.15756
 C1070 C 0.68546 -0.09892 0.16831
 C1071 C 0.69665 -0.08000 0.20277
 C1072 C 0.70720 -0.06356 0.19041
 C1073 C 0.71818 -0.04645 0.20138
 C1074 C 0.71808 -0.04547 0.22448
 C1075 C 0.70703 -0.06182 0.23660
 C1076 C 0.69657 -0.07934 0.22583
 C1077 C 0.69581 -0.08194 0.15650
 C1078 C 0.70664 -0.06465 0.16736
 C1079 C 0.67634 -0.11414 0.22678
 C1080 C 0.68631 -0.09636 0.23764
 H1081 H 0.69576 -0.08216 0.13870
 H1082 H 0.71463 -0.05202 0.15764
 H1083 H 0.66882 -0.12705 0.23650
 H1084 H 0.68620 -0.09606 0.25544
 H1085 H 0.65941 -0.14661 0.20231
 H1086 H 0.67461 -0.11692 0.13977
 H1087 H 0.72659 -0.03380 0.19202
 H1088 H 0.70714 -0.06121 0.25440
 C1089 C 0.19030 0.40241 0.18766
 C1090 C 0.16715 0.40162 0.18688
 C1091 C 0.15681 0.38408 0.17601
 C1092 C 0.16942 0.36700 0.16660
 C1093 C 0.19265 0.36812 0.16756
 C1094 C 0.20316 0.38590 0.17784
 C1095 C 0.20127 0.42066 0.19931
 C1096 C 0.22442 0.42156 0.19987
 C1097 C 0.23477 0.43886 0.21110
 C1098 C 0.22213 0.45477 0.22224
 C1099 C 0.19893 0.45357 0.22163
 C1100 C 0.18840 0.43666 0.20994
 C1101 C 0.22629 0.38736 0.17877
 C1102 C 0.23674 0.40497 0.18947
 C1103 C 0.15483 0.41818 0.19732
 C1104 C 0.16527 0.43533 0.20878
 H1105 H 0.23639 0.37476 0.17119
 H1106 H 0.25461 0.40547 0.18983
 H1107 H 0.13696 0.41773 0.19687
 H1108 H 0.15516 0.44762 0.21683
 H1109 H 0.13896 0.38341 0.17522
 H1110 H 0.20248 0.35496 0.16062
 H1111 H 0.25264 0.43961 0.21170
 H1112 H 0.18915 0.46587 0.23008
 C1113 C 0.18593 -0.10102 0.68928
 C1114 C 0.16278 -0.10205 0.68954
 C1115 C 0.15214 -0.11970 0.67914
 C1116 C 0.16449 -0.13666 0.66918
 C1117 C 0.18773 -0.13535 0.66922
 C1118 C 0.19851 -0.11744 0.67898
 C1119 C 0.19722 -0.08255 0.70025
 C1120 C 0.22036 -0.08134 0.69965
 C1121 C 0.23102 -0.06377 0.71013
 C1122 C 0.21874 -0.04788 0.72168
 C1123 C 0.19556 -0.04941 0.72230
 C1124 C 0.18468 -0.06659 0.71134
 C1125 C 0.22163 -0.11572 0.67882
 C1126 C 0.23237 -0.09789 0.68884
 C1127 C 0.15077 -0.08555 0.70043
 C1128 C 0.16154 -0.06820 0.71128
 H1129 H 0.23152 -0.12826 0.67086
 H1130 H 0.25023 -0.09717 0.68833
 H1131 H 0.13291 -0.08618 0.70079
 H1132 H 0.15167 -0.05595 0.71969
 H1133 H 0.13428 -0.12049 0.67904
 H1134 H 0.19739 -0.14842 0.66186
 H1135 H 0.24889 -0.06275 0.70981
 H1136 H 0.18607 -0.03712 0.73110
 C1137 C 0.31485 0.30828 0.40124
 C1138 C 0.32429 0.29594 0.38417
 C1139 C 0.33370 0.30693 0.36623
 C1140 C 0.33429 0.33012 0.36554
 C1141 C 0.32519 0.34220 0.38313
 C1142 C 0.31511 0.33137 0.40082
 C1143 C 0.30423 0.29680 0.41977
 C1144 C 0.29394 0.30913 0.43639
 C1145 C 0.28323 0.29809 0.45359
 C1146 C 0.28333 0.27495 0.45449
 C1147 C 0.29413 0.26285 0.43798
 C1148 C 0.30432 0.27369 0.42036
 C1149 C 0.30504 0.34316 0.41797
 C1150 C 0.29449 0.33222 0.43537
 C1151 C 0.32396 0.27285 0.38529
 C1152 C 0.31429 0.26191 0.40317
 H1153 H 0.30509 0.36098 0.41781
 H1154 H 0.28670 0.34192 0.44813
 H1155 H 0.33127 0.26315 0.37224
 H1156 H 0.31440 0.24409 0.40341
 H1157 H 0.34037 0.29746 0.35269
 H1158 H 0.32571 0.36002 0.38282
 H1159 H 0.27500 0.30743 0.46637
 H1160 H 0.29402 0.24501 0.43852
 C1161 C 0.31372 0.81184 -0.10015
 C1162 C 0.33687 0.81248 -0.10099
 C1163 C 0.34723 0.82311 -0.11864
 C1164 C 0.33463 0.83240 -0.13576
 C1165 C 0.31140 0.83146 -0.13464
 C1166 C 0.30087 0.82146 -0.11675
 C1167 C 0.30272 0.80057 -0.08171
 C1168 C 0.27956 0.80019 -0.08074
 C1169 C 0.26917 0.78935 -0.06325
 C1170 C 0.28178 0.77839 -0.04721
 C1171 C 0.30498 0.77881 -0.04847
 C1172 C 0.31555 0.79013 -0.06558
 C1173 C 0.27775 0.82069 -0.11525
 C1174 C 0.26727 0.81037 -0.09746
 C1175 C 0.34916 0.80224 -0.08430
 C1176 C 0.33868 0.79112 -0.06698
 H1177 H 0.26766 0.82813 -0.12793
 H1178 H 0.24940 0.81014 -0.09692
 H1179 H 0.36703 0.80259 -0.08478
 H1180 H 0.34878 0.78321 -0.05459
 H1181 H 0.36509 0.82388 -0.11933
 H1182 H 0.30157 0.83829 -0.14785
 H1183 H 0.25130 0.78887 -0.06246
 H1184 H 0.31473 0.77047 -0.03607
 C1185 C 0.81434 0.30971 -0.09947
 C1186 C 0.81409 0.33280 -0.10027
 C1187 C 0.82401 0.34355 -0.11811
 C1188 C 0.83349 0.33137 -0.13542
 C1189 C 0.83336 0.30819 -0.13438
 C1190 C 0.82411 0.29730 -0.11631
 C1191 C 0.80394 0.29830 -0.08077
 C1192 C 0.80454 0.27522 -0.07980
 C1193 C 0.79457 0.26444 -0.06203
 C1194 C 0.78347 0.27656 -0.04573
 C1195 C 0.78286 0.29967 -0.04699
 C1196 C 0.79335 0.31067 -0.06437
 C1197 C 0.82429 0.27423 -0.11481
 C1198 C 0.81481 0.26338 -0.09678
 C1199 C 0.80372 0.34463 -0.08334
 C1200 C 0.79338 0.33375 -0.06577
 H1201 H 0.83184 0.26448 -0.12768
 H1202 H 0.81532 0.24557 -0.09625
 H1203 H 0.80337 0.36245 -0.08379
 H1204 H 0.78535 0.34348 -0.05318
 H1205 H 0.82416 0.36137 -0.11871
 H1206 H 0.84031 0.29866 -0.14773
 H1207 H 0.79484 0.24662 -0.06122
 H1208 H 0.77440 0.30903 -0.03439
 C1209 C 0.81751 0.81001 0.39864
 C1210 C 0.82679 0.79746 0.38164
 C1211 C 0.83612 0.80822 0.36353
 C1212 C 0.83678 0.83139 0.36258
 C1213 C 0.82789 0.84370 0.38012
 C1214 C 0.81787 0.83310 0.39799
 C1215 C 0.80690 0.79876 0.41733
 C1216 C 0.79674 0.81130 0.43386
 C1217 C 0.78602 0.80048 0.45121
 C1218 C 0.78600 0.77735 0.45232
 C1219 C 0.79669 0.76504 0.43588
 C1220 C 0.80687 0.77567 0.41813
 C1221 C 0.80794 0.84510 0.41507
 C1222 C 0.79741 0.83438 0.43262
 C1223 C 0.82636 0.77438 0.38299
 C1224 C 0.81671 0.76367 0.40101
 H1225 H 0.80808 0.86292 0.41474
 H1226 H 0.78972 0.84425 0.44532
 H1227 H 0.83354 0.76452 0.37000
 H1228 H 0.81673 0.74585 0.40142
 H1229 H 0.84265 0.79859 0.35003
 H1230 H 0.82847 0.86151 0.37961
 H1231 H 0.77788 0.80998 0.46392
 H1232 H 0.79648 0.74722 0.43658
 C1233 C 0.68380 0.31335 0.60014
 C1234 C 0.67469 0.30037 0.61692
 C1235 C 0.66549 0.31069 0.63536
 C1236 C 0.66484 0.33384 0.63687
 C1237 C 0.67366 0.34658 0.61962
 C1238 C 0.68346 0.33642 0.60139
 C1239 C 0.69424 0.30257 0.58109
 C1240 C 0.70421 0.31553 0.56478
 C1241 C 0.71492 0.30517 0.54717
 C1242 C 0.71525 0.28206 0.54560
 C1243 C 0.70464 0.26931 0.56175
 C1244 C 0.69439 0.27949 0.57975
 C1245 C 0.69318 0.34884 0.58450
 C1246 C 0.70352 0.33858 0.56658
 C1247 C 0.67515 0.27734 0.61500
 C1248 C 0.68470 0.26707 0.59666
 H1249 H 0.69305 0.36665 0.58528
 H1250 H 0.71108 0.34876 0.55406
 H1251 H 0.66809 0.26715 0.62781
 H1252 H 0.68476 0.24926 0.59585
 H1253 H 0.65902 0.30074 0.64865
 H1254 H 0.67310 0.36437 0.62059
 H1255 H 0.72300 0.31504 0.53470
 H1256 H 0.70507 0.25151 0.56072
 C1257 C 0.68763 0.81938 1.10255
 C1258 C 0.70055 0.82862 1.11932
 C1259 C 0.69011 0.83776 1.13772
 C1260 C 0.66688 0.83827 1.13919
 C1261 C 0.65420 0.82936 1.12192
 C1262 C 0.66449 0.81957 1.10374
 C1263 C 0.69855 0.80900 1.08355
 C1264 C 0.68567 0.79888 1.06724
 C1265 C 0.69620 0.78832 1.04962
 C1266 C 0.71937 0.78839 1.04802
 C1267 C 0.73201 0.79907 1.06422
 C1268 C 0.72170 0.80911 1.08223
 C1269 C 0.65213 0.80969 1.08687
 C1270 C 0.66255 0.79937 1.06901
 C1271 C 0.72366 0.82836 1.11745
 C1272 C 0.73405 0.81890 1.09913
 H1273 H 0.63427 0.80968 1.08762
 H1274 H 0.65242 0.79171 1.05650
 H1275 H 0.73380 0.83551 1.13025
 H1276 H 0.75192 0.81903 1.09833
 H1277 H 0.70003 0.84426 1.15103
 H1278 H 0.63635 0.82980 1.12285
 H1279 H 0.68643 0.78017 1.03711
 H1280 H 0.74988 0.79892 1.06317
 C1281 C 0.18707 0.31714 1.10096
 C1282 C 0.18730 0.34018 1.10253
 C1283 C 0.17743 0.35033 1.12076
 C1284 C 0.16797 0.33758 1.13767
 C1285 C 0.16814 0.31444 1.13585
 C1286 C 0.17737 0.30417 1.11741
 C1287 C 0.19743 0.30636 1.08186
 C1288 C 0.19688 0.28332 1.08016
 C1289 C 0.20686 0.27314 1.06205
 C1290 C 0.21791 0.28577 1.04609
 C1291 C 0.21843 0.30885 1.04808
 C1292 C 0.20795 0.31927 1.06584
 C1293 C 0.17722 0.28116 1.11517
 C1294 C 0.18667 0.27092 1.09677
 C1295 C 0.19761 0.35258 1.08596
 C1296 C 0.20790 0.34229 1.06800
 H1297 H 0.16971 0.27098 1.12772
 H1298 H 0.18620 0.25313 1.09567
 H1299 H 0.19794 0.37037 1.08700
 H1300 H 0.21587 0.35245 1.05572
 H1301 H 0.17727 0.36812 1.12195
 H1302 H 0.16123 0.30446 1.14889
 H1303 H 0.20665 0.25534 1.06072
 H1304 H 0.22686 0.31864 1.03579
 C1305 C 0.18103 0.81423 0.60287
 C1306 C 0.17197 0.80102 0.61949
 C1307 C 0.16293 0.81107 0.63815
 C1308 C 0.16238 0.83420 0.64005
 C1309 C 0.17110 0.84718 0.62293
 C1310 C 0.18076 0.83728 0.60447
 C1311 C 0.19136 0.80372 0.58361
 C1312 C 0.20131 0.81690 0.56746
 C1313 C 0.21195 0.80678 0.54967
 C1314 C 0.21223 0.78369 0.54776
 C1315 C 0.20163 0.77074 0.56376
 C1316 C 0.19145 0.78066 0.58193
 C1317 C 0.19044 0.84994 0.58773
 C1318 C 0.20067 0.83992 0.56961
 C1319 C 0.17236 0.77802 0.61722
 C1320 C 0.18181 0.76801 0.59869
 H1321 H 0.19036 0.86773 0.58879
 H1322 H 0.20821 0.85027 0.55722
 H1323 H 0.16534 0.76765 0.62991
 H1324 H 0.18183 0.75022 0.59761
 H1325 H 0.15652 0.80094 0.65134
 H1326 H 0.17062 0.86496 0.62419
 H1327 H 0.22003 0.81681 0.53733
 H1328 H 0.20202 0.75295 0.56248
 C1329 C 0.31437 0.69230 0.59950
 C1330 C 0.31523 0.66921 0.59987
 C1331 C 0.32563 0.65862 0.61751
 C1332 C 0.33448 0.67089 0.63507
 C1333 C 0.33340 0.69407 0.63440
 C1334 C 0.32360 0.70485 0.61654
 C1335 C 0.30322 0.70354 0.58113
 C1336 C 0.30254 0.72664 0.58065
 C1337 C 0.29166 0.73723 0.56327
 C1338 C 0.28096 0.72483 0.54691
 C1339 C 0.28179 0.70169 0.54764
 C1340 C 0.29313 0.69095 0.56460
 C1341 C 0.32260 0.72793 0.61549
 C1342 C 0.31238 0.73864 0.59777
 C1343 C 0.30538 0.65720 0.58277
 C1344 C 0.29438 0.66788 0.56550
 H1345 H 0.32974 0.73780 0.62851
 H1346 H 0.31192 0.75646 0.59762
 H1347 H 0.30591 0.63938 0.58288
 H1348 H 0.28674 0.65800 0.55279
 H1349 H 0.32654 0.64081 0.61783
 H1350 H 0.33992 0.70364 0.64793
 H1351 H 0.29086 0.75505 0.56285
 H1352 H 0.27367 0.69210 0.53498
 C1353 C 0.31314 0.18935 1.09885
 C1354 C 0.32264 0.20159 1.11597
 C1355 C 0.33194 0.19049 1.13388
 C1356 C 0.33235 0.16729 1.13452
 C1357 C 0.32313 0.15531 1.11693
 C1358 C 0.31319 0.16625 1.09923
 C1359 C 0.30269 0.20096 1.08031
 C1360 C 0.29239 0.18875 1.06362
 C1361 C 0.28184 0.19991 1.04639
 C1362 C 0.28208 0.22306 1.04557
 C1363 C 0.29291 0.23504 1.06215
 C1364 C 0.30296 0.22407 1.07977
 C1365 C 0.30309 0.15459 1.08202
 C1366 C 0.29273 0.16565 1.06459
 C1367 C 0.32251 0.22468 1.11490
 C1368 C 0.31298 0.23573 1.09702
 H1369 H 0.30298 0.13676 1.08214
 H1370 H 0.28492 0.15604 1.05177
 H1371 H 0.32986 0.23429 1.12798
 H1372 H 0.31324 0.25356 1.09683
 H1373 H 0.33872 0.19986 1.14744
 H1374 H 0.32352 0.13748 1.11722
 H1375 H 0.27360 0.19064 1.03357
 H1376 H 0.29292 0.25287 1.06168
 C1377 C 0.81276 0.68902 1.10022
 C1378 C 0.82287 0.70109 1.11710
 C1379 C 0.83240 0.68984 1.13480
 C1380 C 0.83245 0.66665 1.13542
 C1381 C 0.82263 0.65482 1.11805
 C1382 C 0.81243 0.66593 1.10060
 C1383 C 0.80209 0.70081 1.08191
 C1384 C 0.79120 0.68878 1.06546
 C1385 C 0.78054 0.70013 1.04842
 C1386 C 0.78131 0.72325 1.04752
 C1387 C 0.79267 0.73504 1.06389
 C1388 C 0.80282 0.72390 1.08133
 C1389 C 0.80172 0.65444 1.08363
 C1390 C 0.79114 0.66568 1.06645
 C1391 C 0.82313 0.72418 1.11602
 C1392 C 0.81341 0.73540 1.09835
 H1393 H 0.80131 0.63662 1.08376
 H1394 H 0.78287 0.65620 1.05381
 H1395 H 0.83095 0.73367 1.12893
 H1396 H 0.81401 0.75321 1.09812
 H1397 H 0.83963 0.69910 1.14819
 H1398 H 0.82273 0.63699 1.11832
 H1399 H 0.77188 0.69103 1.03575
 H1400 H 0.79308 0.75287 1.06334
 C1401 C 0.81573 0.19066 0.59870
 C1402 C 0.82479 0.20334 0.61573
 C1403 C 0.83414 0.19269 0.63390
 C1404 C 0.83495 0.16952 0.63489
 C1405 C 0.82625 0.15710 0.61736
 C1406 C 0.81630 0.16758 0.59940
 C1407 C 0.80506 0.20178 0.57997
 C1408 C 0.79511 0.18909 0.56344
 C1409 C 0.78418 0.19973 0.54615
 C1410 C 0.78359 0.22287 0.54513
 C1411 C 0.79418 0.23536 0.56150
 C1412 C 0.80465 0.22488 0.57918
 C1413 C 0.80662 0.15545 0.58228
 C1414 C 0.79607 0.16602 0.56467
 C1415 C 0.82409 0.22641 0.61436
 C1416 C 0.81432 0.23700 0.59632
 H1417 H 0.80693 0.13762 0.58264
 H1418 H 0.78853 0.15605 0.55196
 H1419 H 0.83111 0.23637 0.62736
 H1420 H 0.81407 0.25482 0.59593
 H1421 H 0.84055 0.20238 0.64741
 H1422 H 0.82696 0.13929 0.61794
 H1423 H 0.77613 0.19007 0.53350
 H1424 H 0.79355 0.25318 0.56087
 C1425 C 0.68893 0.68384 0.39844
 C1426 C 0.66578 0.68402 0.39759
 C1427 C 0.65505 0.67422 0.37966
 C1428 C 0.66733 0.66493 0.36231
 C1429 C 0.69059 0.66514 0.36340
 C1430 C 0.70145 0.67427 0.38155
 C1431 C 0.70032 0.69411 0.41724
 C1432 C 0.72347 0.69357 0.41824
 C1433 C 0.73423 0.70344 0.43609
 C1434 C 0.72201 0.71438 0.45244
 C1435 C 0.69882 0.71491 0.45114
 C1436 C 0.68785 0.70452 0.43368
 C1437 C 0.72458 0.67415 0.38309
 C1438 C 0.73541 0.68349 0.40121
 C1439 C 0.65385 0.69421 0.41458
 C1440 C 0.66470 0.70443 0.43223
 H1441 H 0.73441 0.66674 0.37019
 H1442 H 0.75328 0.68304 0.40177
 H1443 H 0.63598 0.69451 0.41409
 H1444 H 0.65489 0.71232 0.44486
 H1445 H 0.63718 0.67402 0.37902
 H1446 H 0.70020 0.65835 0.35001
 H1447 H 0.75210 0.70324 0.43692
 H1448 H 0.68939 0.72326 0.46377
 C1449 C 0.68837 0.18218 -0.10050
 C1450 C 0.66523 0.18217 -0.10159
 C1451 C 0.65479 0.17248 -0.11974
 C1452 C 0.66733 0.16351 -0.13709
 C1453 C 0.69056 0.16386 -0.13572
 C1454 C 0.70115 0.17288 -0.11734
 C1455 C 0.69946 0.19242 -0.08151
 C1456 C 0.72261 0.19212 -0.08028
 C1457 C 0.73308 0.20200 -0.06228
 C1458 C 0.72060 0.21273 -0.04599
 C1459 C 0.69742 0.21302 -0.04751
 C1460 C 0.68673 0.20261 -0.06513
 C1461 C 0.72427 0.17296 -0.11557
 C1462 C 0.73481 0.18228 -0.09727
 C1463 C 0.65303 0.19211 -0.08465
 C1464 C 0.66360 0.20230 -0.06681
 H1465 H 0.73430 0.16576 -0.12843
 H1466 H 0.75268 0.18200 -0.09653
 H1467 H 0.63516 0.19225 -0.08532
 H1468 H 0.65358 0.21001 -0.05424
 H1469 H 0.63692 0.17216 -0.12059
 H1470 H 0.70038 0.15732 -0.14908
 H1471 H 0.75095 0.20198 -0.06129
 H1472 H 0.68778 0.22121 -0.03493
 C1473 C 0.18820 0.68091 -0.10199
 C1474 C 0.16504 0.68037 -0.10267
 C1475 C 0.15450 0.67064 -0.12073
 C1476 C 0.16693 0.66215 -0.13838
 C1477 C 0.19017 0.66298 -0.13742
 C1478 C 0.20088 0.67207 -0.11915
 C1479 C 0.19939 0.69126 -0.08313
 C1480 C 0.22256 0.69157 -0.08234
 C1481 C 0.23312 0.70164 -0.06448
 C1482 C 0.22066 0.71195 -0.04791
 C1483 C 0.19745 0.71156 -0.04896
 C1484 C 0.18671 0.70099 -0.06643
 C1485 C 0.22402 0.67271 -0.11779
 C1486 C 0.23468 0.68215 -0.09962
 C1487 C 0.15292 0.68984 -0.08541
 C1488 C 0.16357 0.70011 -0.06768
 H1489 H 0.23398 0.66586 -0.13090
 H1490 H 0.25256 0.68233 -0.09923
 H1491 H 0.13504 0.68955 -0.08576
 H1492 H 0.15360 0.70747 -0.05485
 H1493 H 0.13664 0.66993 -0.12129
 H1494 H 0.19988 0.65678 -0.15101
 H1495 H 0.25100 0.70212 -0.06384
 H1496 H 0.18782 0.71940 -0.03615
 C1497 C 0.18812 0.18175 0.39888
 C1498 C 0.16499 0.18205 0.39749
 C1499 C 0.15466 0.17257 0.37917
 C1500 C 0.16731 0.16349 0.36196
 C1501 C 0.19053 0.16356 0.36362
 C1502 C 0.20099 0.17236 0.38216
 C1503 C 0.19910 0.19173 0.41807
 C1504 C 0.22222 0.19111 0.41959
 C1505 C 0.23260 0.20076 0.43776
 C1506 C 0.22006 0.21158 0.45395
 C1507 C 0.19690 0.21218 0.45215
 C1508 C 0.18630 0.20200 0.43435
 C1509 C 0.22408 0.17212 0.38423
 C1510 C 0.23451 0.18120 0.40271
 C1511 C 0.15271 0.19207 0.41433
 C1512 C 0.16319 0.20202 0.43236
 H1513 H 0.23418 0.16485 0.37146
 H1514 H 0.25236 0.18068 0.40367
 H1515 H 0.13485 0.19245 0.41343
 H1516 H 0.15311 0.20980 0.44485
 H1517 H 0.13681 0.17248 0.37808
 H1518 H 0.20044 0.15693 0.35036
 H1519 H 0.25045 0.20051 0.43896
 H1520 H 0.18721 0.22045 0.46464
 C1521 C 0.31306 0.39878 0.68091
 C1522 C 0.33619 0.39757 0.68099
 C1523 C 0.34656 0.37922 0.67158
 C1524 C 0.33395 0.36180 0.66280
 C1525 C 0.31073 0.36329 0.66305
 C1526 C 0.30022 0.38186 0.67179
 C1527 C 0.30204 0.41796 0.69088
 C1528 C 0.27891 0.41929 0.69051
 C1529 C 0.26850 0.43745 0.70019
 C1530 C 0.28104 0.45379 0.71080
 C1531 C 0.30421 0.45220 0.71113
 C1532 C 0.31484 0.43442 0.70092
 C1533 C 0.27711 0.38375 0.67177
 C1534 C 0.26664 0.40224 0.68084
 C1535 C 0.34846 0.41458 0.69075
 C1536 C 0.33796 0.43262 0.70069
 H1537 H 0.26703 0.37083 0.66471
 H1538 H 0.24877 0.40305 0.68051
 H1539 H 0.36633 0.41382 0.69096
 H1540 H 0.34802 0.44524 0.70829
 H1541 H 0.36442 0.37826 0.67134
 H1542 H 0.30086 0.34987 0.65665
 H1543 H 0.25064 0.43851 0.70016
 H1544 H 0.31390 0.46482 0.71924
 C1545 C 0.31103 0.89765 0.18203
 C1546 C 0.33418 0.89680 0.18169
 C1547 C 0.34468 0.87871 0.17193
 C1548 C 0.33219 0.86120 0.16319
 C1549 C 0.30895 0.86232 0.16384
 C1550 C 0.29830 0.88062 0.17297
 C1551 C 0.29989 0.91656 0.19239
 C1552 C 0.27672 0.91752 0.19248
 C1553 C 0.26620 0.93543 0.20253
 C1554 C 0.27869 0.95189 0.21302
 C1555 C 0.30190 0.95067 0.21283
 C1556 C 0.31260 0.93314 0.20230
 C1557 C 0.27516 0.88213 0.17341
 C1558 C 0.26456 0.90035 0.18287
 C1559 C 0.34635 0.91394 0.19137
 C1560 C 0.33574 0.93173 0.20163
 H1561 H 0.26517 0.86912 0.16640
 H1562 H 0.24668 0.90087 0.18288
 H1563 H 0.36423 0.91346 0.19124
 H1564 H 0.34574 0.94446 0.20914
 H1565 H 0.36254 0.87803 0.17138
 H1566 H 0.29920 0.84881 0.15744
 H1567 H 0.24833 0.93620 0.20285
 H1568 H 0.31156 0.96339 0.22081
 C1569 C 0.81083 0.39825 0.18364
 C1570 C 0.83399 0.39765 0.18322
 C1571 C 0.84464 0.37964 0.17348
 C1572 C 0.83232 0.36197 0.16482
 C1573 C 0.80907 0.36285 0.16554
 C1574 C 0.79825 0.38107 0.17465
 C1575 C 0.79953 0.41708 0.19398
 C1576 C 0.77636 0.41781 0.19413
 C1577 C 0.76569 0.43565 0.20417
 C1578 C 0.77806 0.45227 0.21458
 C1579 C 0.80127 0.45126 0.21433
 C1580 C 0.81211 0.43381 0.20380
 C1581 C 0.77510 0.38236 0.17516
 C1582 C 0.76434 0.40050 0.18460
 C1583 C 0.84602 0.41493 0.19282
 C1584 C 0.83526 0.43263 0.20307
 H1585 H 0.76522 0.36923 0.16821
 H1586 H 0.74646 0.40085 0.18467
 H1587 H 0.86390 0.41463 0.19263
 H1588 H 0.84515 0.44548 0.21051
 H1589 H 0.86251 0.37916 0.17287
 H1590 H 0.79944 0.34923 0.15919
 H1591 H 0.74781 0.43626 0.20454
 H1592 H 0.81083 0.46410 0.22224
 C1593 C 0.81249 0.89939 0.68206
 C1594 C 0.79974 0.88265 0.67249
 C1595 C 0.81032 0.86417 0.66365
 C1596 C 0.83354 0.86258 0.66378
 C1597 C 0.84607 0.87982 0.67300
 C1598 C 0.83562 0.89808 0.68249
 C1599 C 0.80140 0.91847 0.69214
 C1600 C 0.81410 0.93473 0.70259
 C1601 C 0.80339 0.95241 0.71289
 C1602 C 0.78023 0.95410 0.71226
 C1603 C 0.76779 0.93795 0.70124
 C1604 C 0.77827 0.91989 0.69145
 C1605 C 0.84780 0.91491 0.69268
 C1606 C 0.83721 0.93285 0.70270
 C1607 C 0.77664 0.88464 0.67216
 C1608 C 0.76609 0.90303 0.68134
 H1609 H 0.86566 0.91407 0.69315
 H1610 H 0.84720 0.94533 0.71062
 H1611 H 0.76662 0.87186 0.66475
 H1612 H 0.74824 0.90391 0.68076
 H1613 H 0.80052 0.85088 0.65689
 H1614 H 0.86392 0.87879 0.67305
 H1615 H 0.81300 0.96488 0.72130
 H1616 H 0.74993 0.93908 0.70096
 C1617 C 0.68706 0.60065 0.68829
 C1618 C 0.68710 0.60148 0.66525
 C1619 C 0.67692 0.61927 0.65463
 C1620 C 0.66741 0.63654 0.66689
 C1621 C 0.66773 0.63545 0.69003
 C1622 C 0.67724 0.61741 0.70079
 C1623 C 0.69771 0.58199 0.69957
 C1624 C 0.69724 0.58096 0.72261
 C1625 C 0.70726 0.56315 0.73326
 C1626 C 0.71827 0.54681 0.72107
 C1627 C 0.71888 0.54819 0.69800
 C1628 C 0.70831 0.56563 0.68713
 C1629 C 0.67725 0.61589 0.72381
 C1630 C 0.68694 0.59788 0.73453
 C1631 C 0.69754 0.58462 0.65334
 C1632 C 0.70810 0.56709 0.66409
 H1633 H 0.66966 0.62869 0.73362
 H1634 H 0.68654 0.59729 0.75232
 H1635 H 0.69773 0.58510 0.63555
 H1636 H 0.71613 0.55454 0.65429
 H1637 H 0.67662 0.61990 0.63685
 H1638 H 0.66076 0.64875 0.69962
 H1639 H 0.70698 0.56224 0.75104
 H1640 H 0.72726 0.53556 0.68860
 C1641 C 0.68541 0.09998 0.19077
 C1642 C 0.68521 0.10034 0.16771
 C1643 C 0.67481 0.11784 0.15684
 C1644 C 0.66533 0.13528 0.16885
 C1645 C 0.66584 0.13464 0.19200
 C1646 C 0.67558 0.11690 0.20303
 C1647 C 0.69641 0.08169 0.20230
 C1648 C 0.69629 0.08116 0.22536
 C1649 C 0.70682 0.06377 0.23625
 C1650 C 0.71798 0.04742 0.22423
 C1651 C 0.71812 0.04826 0.20113
 C1652 C 0.70708 0.06524 0.19005
 C1653 C 0.67588 0.11585 0.22608
 C1654 C 0.68592 0.09819 0.23706
 C1655 C 0.69567 0.08335 0.15601
 C1656 C 0.70656 0.06618 0.16699
 H1657 H 0.66828 0.12878 0.23571
 H1658 H 0.68578 0.09799 0.25485
 H1659 H 0.69566 0.08347 0.13821
 H1660 H 0.71464 0.05354 0.15736
 H1661 H 0.67436 0.11814 0.13905
 H1662 H 0.65887 0.14810 0.20139
 H1663 H 0.70690 0.06327 0.25405
 H1664 H 0.72661 0.03559 0.19186
 C1665 C 0.18882 0.59970 0.18988
 C1666 C 0.17884 0.61665 0.20199
 C1667 C 0.16869 0.63406 0.19081
 C1668 C 0.16791 0.63432 0.16767
 C1669 C 0.17755 0.61685 0.15582
 C1670 C 0.18837 0.59970 0.16683
 C1671 C 0.20015 0.58172 0.20157
 C1672 C 0.21086 0.56517 0.18948
 C1673 C 0.22197 0.54833 0.20074
 C1674 C 0.22178 0.54772 0.22384
 C1675 C 0.21072 0.56426 0.23568
 C1676 C 0.20014 0.58149 0.22464
 C1677 C 0.19896 0.58268 0.15529
 C1678 C 0.21016 0.56579 0.16642
 C1679 C 0.17936 0.61596 0.22505
 C1680 C 0.18968 0.59857 0.23618
 H1681 H 0.19878 0.58253 0.13749
 H1682 H 0.21827 0.55309 0.15690
 H1683 H 0.17166 0.62892 0.23456
 H1684 H 0.18964 0.59860 0.25398
 H1685 H 0.16161 0.64755 0.20007
 H1686 H 0.17692 0.61688 0.13803
 H1687 H 0.23038 0.53550 0.19161
 H1688 H 0.21074 0.56392 0.25349
 C1689 C 0.18471 0.09869 0.69046
 C1690 C 0.18426 0.09944 0.66742
 C1691 C 0.17393 0.11721 0.65695
 C1692 C 0.16479 0.13458 0.66933
 C1693 C 0.16548 0.13353 0.69246
 C1694 C 0.17515 0.11550 0.70310
 C1695 C 0.19571 0.08014 0.70158
 C1696 C 0.19585 0.07925 0.72463
 C1697 C 0.20643 0.06164 0.73512
 C1698 C 0.21739 0.04544 0.72273
 C1699 C 0.21725 0.04663 0.69965
 C1700 C 0.20615 0.06383 0.68896
 C1701 C 0.17568 0.11407 0.72612
 C1702 C 0.18572 0.09616 0.73671
 C1703 C 0.19447 0.08257 0.65534
 C1704 C 0.20538 0.06515 0.66592
 H1705 H 0.16829 0.12690 0.73605
 H1706 H 0.18578 0.09568 0.75450
 H1707 H 0.19428 0.08298 0.63755
 H1708 H 0.21328 0.05262 0.65600
 H1709 H 0.17333 0.11782 0.63917
 H1710 H 0.15877 0.14691 0.70214
 H1711 H 0.20672 0.06088 0.75291
 H1712 H 0.22560 0.03409 0.69008
 C1713 C 0.31318 0.60293 0.32072
 C1714 C 0.33629 0.60453 0.32072
 C1715 C 0.34634 0.62301 0.33025
 C1716 C 0.33343 0.64018 0.33905
 C1717 C 0.31023 0.63828 0.33877
 C1718 C 0.30004 0.61958 0.32989
 C1719 C 0.30250 0.58364 0.31055
 C1720 C 0.27938 0.58195 0.31075
 C1721 C 0.26930 0.56374 0.30077
 C1722 C 0.28216 0.54773 0.29004
 C1723 C 0.30532 0.54966 0.28997
 C1724 C 0.31560 0.56748 0.30045
 C1725 C 0.27696 0.61731 0.32978
 C1726 C 0.26681 0.59873 0.32051
 C1727 C 0.34887 0.58777 0.31092
 C1728 C 0.33869 0.56964 0.30081
 H1729 H 0.26665 0.63002 0.33689
 H1730 H 0.24896 0.59765 0.32071
 H1731 H 0.36672 0.58882 0.31079
 H1732 H 0.34899 0.55723 0.29316
 H1733 H 0.36418 0.62425 0.33054
 H1734 H 0.30013 0.65150 0.34523
 H1735 H 0.25145 0.56243 0.30061
 H1736 H 0.31526 0.53730 0.28177
 C1737 C 0.31261 0.10081 0.81692
 C1738 C 0.33574 0.10212 0.81717
 C1739 C 0.34591 0.12025 0.82723
 C1740 C 0.33312 0.13739 0.83629
 C1741 C 0.30991 0.13579 0.83572
 C1742 C 0.29959 0.11741 0.82635
 C1743 C 0.30181 0.08184 0.80629
 C1744 C 0.27868 0.08037 0.80640
 C1745 C 0.26848 0.06235 0.79624
 C1746 C 0.28120 0.04627 0.78545
 C1747 C 0.30436 0.04806 0.78530
 C1748 C 0.31479 0.06570 0.79600
 C1749 C 0.27649 0.11541 0.82603
 C1750 C 0.26621 0.09711 0.81636
 C1751 C 0.34820 0.08542 0.80710
 C1752 C 0.33790 0.06761 0.79654
 H1753 H 0.26627 0.12808 0.83332
 H1754 H 0.24836 0.09619 0.81648
 H1755 H 0.36606 0.08627 0.80714
 H1756 H 0.34811 0.05523 0.78875
 H1757 H 0.36376 0.12126 0.82770
 H1758 H 0.29990 0.14900 0.84234
 H1759 H 0.25062 0.06115 0.79616
 H1760 H 0.31419 0.03564 0.77707
 C1761 C 0.80993 0.59974 0.81919
 C1762 C 0.79694 0.61653 0.82833
 C1763 C 0.80732 0.63492 0.83761
 C1764 C 0.83055 0.63636 0.83833
 C1765 C 0.84328 0.61903 0.82958
 C1766 C 0.83307 0.60087 0.81965
 C1767 C 0.79909 0.58080 0.80855
 C1768 C 0.81207 0.56453 0.79847
 C1769 C 0.80164 0.54705 0.78757
 C1770 C 0.77846 0.54556 0.78721
 C1771 C 0.76570 0.56167 0.79791
 C1772 C 0.77594 0.57956 0.80830
 C1773 C 0.84551 0.58401 0.80986
 C1774 C 0.83518 0.56622 0.79930
 C1775 C 0.77383 0.61471 0.82775
 C1776 C 0.76351 0.59645 0.81805
 H1777 H 0.86337 0.58472 0.81008
 H1778 H 0.84538 0.55373 0.79168
 H1779 H 0.76364 0.62752 0.83483
 H1780 H 0.74564 0.59571 0.81791
 H1781 H 0.79737 0.64827 0.84401
 H1782 H 0.86113 0.61993 0.83020
 H1783 H 0.81149 0.53460 0.77941
 H1784 H 0.74784 0.56069 0.79743
 C1785 C 0.81433 0.10332 0.31698
 C1786 C 0.83746 0.10457 0.31663
 C1787 C 0.84794 0.12279 0.32621
 C1788 C 0.83542 0.14004 0.33544
 C1789 C 0.81219 0.13854 0.33539
 C1790 C 0.80159 0.12009 0.32649
 C1791 C 0.80320 0.08421 0.30696
 C1792 C 0.78008 0.08280 0.30767
 C1793 C 0.76957 0.06466 0.29805
 C1794 C 0.78198 0.04840 0.28718
 C1795 C 0.80515 0.05010 0.28647
 C1796 C 0.81588 0.06786 0.29662
 C1797 C 0.77848 0.11815 0.32678
 C1798 C 0.76792 0.09974 0.31768
 C1799 C 0.84962 0.08768 0.30652
 C1800 C 0.83900 0.06972 0.29654
 H1801 H 0.76849 0.13096 0.33414
 H1802 H 0.75006 0.09887 0.31826
 H1803 H 0.86748 0.08847 0.30610
 H1804 H 0.84898 0.05718 0.28870
 H1805 H 0.86580 0.12373 0.32631
 H1806 H 0.80239 0.15182 0.34216
 H1807 H 0.75171 0.06353 0.29838
 H1808 H 0.81474 0.03754 0.27817
 C1809 C 0.68504 0.39917 0.31324
 C1810 C 0.66190 0.39801 0.31351
 C1811 C 0.65162 0.38008 0.32380
 C1812 C 0.66431 0.36302 0.33311
 C1813 C 0.68753 0.36449 0.33259
 C1814 C 0.69797 0.38265 0.32292
 C1815 C 0.69596 0.41788 0.30228
 C1816 C 0.71910 0.41916 0.30224
 C1817 C 0.72941 0.43686 0.29163
 C1818 C 0.71676 0.45281 0.28057
 C1819 C 0.69357 0.45125 0.28068
 C1820 C 0.68306 0.43393 0.29175
 C1821 C 0.72108 0.38449 0.32252
 C1822 C 0.73147 0.40252 0.31249
 C1823 C 0.64954 0.41463 0.30321
 C1824 C 0.65994 0.43220 0.29239
 H1825 H 0.73122 0.37187 0.33001
 H1826 H 0.74933 0.40330 0.31252
 H1827 H 0.63167 0.41389 0.30328
 H1828 H 0.64980 0.44452 0.28442
 H1829 H 0.63377 0.37915 0.32427
 H1830 H 0.69744 0.35135 0.33946
 H1831 H 0.74728 0.43787 0.29139
 H1832 H 0.68378 0.46357 0.27226
 C1833 C 0.68601 0.90075 0.80948
 C1834 C 0.68594 0.90025 0.83253
 C1835 C 0.67589 0.88252 0.84336
 C1836 C 0.66662 0.86497 0.83131
 C1837 C 0.66703 0.86574 0.80816
 C1838 C 0.67641 0.88372 0.79718
 C1839 C 0.69658 0.91933 0.79798
 C1840 C 0.69627 0.92001 0.77492
 C1841 C 0.70638 0.93769 0.76407
 C1842 C 0.71731 0.95418 0.77611
 C1843 C 0.71764 0.95319 0.79920
 C1844 C 0.70700 0.93592 0.81026
 C1845 C 0.67654 0.88492 0.77413
 C1846 C 0.68616 0.90285 0.76319
 C1847 C 0.69616 0.91737 0.84426
 C1848 C 0.70666 0.93482 0.83331
 H1849 H 0.66911 0.87191 0.76446
 H1850 H 0.68588 0.90315 0.74540
 H1851 H 0.69626 0.91715 0.86205
 H1852 H 0.71455 0.94755 0.84297
 H1853 H 0.67550 0.88216 0.86115
 H1854 H 0.66023 0.85224 0.79872
 H1855 H 0.70632 0.93830 0.74627
 H1856 H 0.72596 0.96595 0.80850
 C1857 C 0.18639 0.40101 0.80830
 C1858 C 0.17648 0.38411 0.79607
 C1859 C 0.16686 0.36630 0.80712
 C1860 C 0.16650 0.36558 0.83027
 C1861 C 0.17611 0.38298 0.84226
 C1862 C 0.18640 0.40055 0.83136
 C1863 C 0.19717 0.41943 0.79673
 C1864 C 0.20786 0.43589 0.80894
 C1865 C 0.21864 0.45303 0.79781
 C1866 C 0.21820 0.45401 0.77471
 C1867 C 0.20703 0.43762 0.76275
 C1868 C 0.19677 0.42008 0.77367
 C1869 C 0.19692 0.41754 0.84302
 C1870 C 0.20760 0.43482 0.83199
 C1871 C 0.17654 0.38527 0.77302
 C1872 C 0.18636 0.40304 0.76201
 H1873 H 0.19709 0.41734 0.86081
 H1874 H 0.21571 0.44747 0.84160
 H1875 H 0.16888 0.37235 0.76341
 H1876 H 0.18601 0.40332 0.74422
 H1877 H 0.15980 0.35290 0.79772
 H1878 H 0.17579 0.38265 0.86005
 H1879 H 0.22715 0.46571 0.80705
 H1880 H 0.20687 0.43822 0.74495
 C1881 C 0.18559 0.89934 0.31230
 C1882 C 0.16245 0.89812 0.31231
 C1883 C 0.15210 0.88029 0.32267
 C1884 C 0.16471 0.86337 0.33235
 C1885 C 0.18793 0.86492 0.33213
 C1886 C 0.19844 0.88298 0.32236
 C1887 C 0.19659 0.91793 0.30121
 C1888 C 0.21973 0.91926 0.30141
 C1889 C 0.23012 0.93684 0.29067
 C1890 C 0.21755 0.95262 0.27927
 C1891 C 0.19437 0.95102 0.27916
 C1892 C 0.18378 0.93381 0.29034
 C1893 C 0.22155 0.88487 0.32219
 C1894 C 0.23201 0.90279 0.31202
 C1895 C 0.15017 0.91457 0.30166
 C1896 C 0.16066 0.93203 0.29074
 H1897 H 0.23164 0.87238 0.32997
 H1898 H 0.24988 0.90361 0.31224
 H1899 H 0.13231 0.91379 0.30152
 H1900 H 0.15058 0.94423 0.28249
 H1901 H 0.13424 0.87930 0.32292
 H1902 H 0.19778 0.85189 0.33930
 H1903 H 0.24799 0.93789 0.29061
 H1904 H 0.18463 0.96320 0.27050
 C1905 C 0.39983 0.31431 0.68713
 C1906 C 0.39907 0.31400 0.66408
 C1907 C 0.38116 0.32382 0.65329
 C1908 C 0.36375 0.33329 0.66538
 C1909 C 0.36479 0.33333 0.68852
 C1910 C 0.38291 0.32411 0.69946
 C1911 C 0.41853 0.30385 0.69858
 C1912 C 0.41941 0.30439 0.72163
 C1913 C 0.43712 0.29424 0.73245
 C1914 C 0.45346 0.28307 0.72039
 C1915 C 0.45232 0.28263 0.69729
 C1916 C 0.43499 0.29323 0.68628
 C1917 C 0.38435 0.32430 0.72250
 C1918 C 0.40237 0.31473 0.73339
 C1919 C 0.41609 0.30361 0.65232
 C1920 C 0.43367 0.29327 0.66324
 H1921 H 0.37142 0.33189 0.73218
 H1922 H 0.40283 0.31521 0.75117
 H1923 H 0.41567 0.30323 0.63453
 H1924 H 0.44631 0.28521 0.65356
 H1925 H 0.38054 0.32385 0.63550
 H1926 H 0.35136 0.34032 0.69798
 H1927 H 0.43783 0.29442 0.75025
 H1928 H 0.46495 0.27414 0.68795
 C1929 C 0.39857 0.81378 0.18642
 C1930 C 0.39758 0.81354 0.16338
 C1931 C 0.37956 0.82344 0.15280
 C1932 C 0.36226 0.83288 0.16510
 C1933 C 0.36354 0.83281 0.18823
 C1934 C 0.38177 0.82355 0.19895
 C1935 C 0.41742 0.80334 0.19766
 C1936 C 0.41854 0.80388 0.22069
 C1937 C 0.43643 0.79387 0.23131
 C1938 C 0.45275 0.78281 0.21910
 C1939 C 0.45132 0.78227 0.19602
 C1940 C 0.43379 0.79277 0.18518
 C1941 C 0.38344 0.82369 0.22196
 C1942 C 0.40160 0.81416 0.23265
 C1943 C 0.41449 0.80318 0.15143
 C1944 C 0.43221 0.79284 0.16215
 H1945 H 0.37061 0.83125 0.23180
 H1946 H 0.40226 0.81463 0.25042
 H1947 H 0.41389 0.80285 0.13365
 H1948 H 0.44477 0.78483 0.15233
 H1949 H 0.37878 0.82355 0.13502
 H1950 H 0.35021 0.83975 0.19785
 H1951 H 0.43734 0.79412 0.24910
 H1952 H 0.46392 0.77386 0.18656
 C1953 C 0.89989 0.31610 0.18757
 C1954 C 0.89873 0.31594 0.16454
 C1955 C 0.88035 0.32532 0.15413
 C1956 C 0.86287 0.33420 0.16660
 C1957 C 0.86432 0.33408 0.18972
 C1958 C 0.88290 0.32531 0.20027
 C1959 C 0.91909 0.30612 0.19863
 C1960 C 0.92035 0.30649 0.22166
 C1961 C 0.93850 0.29671 0.23210
 C1962 C 0.95491 0.28604 0.21968
 C1963 C 0.95340 0.28580 0.19660
 C1964 C 0.93562 0.29605 0.18596
 C1965 C 0.88474 0.32537 0.22328
 C1966 C 0.90322 0.31625 0.23379
 C1967 C 0.91583 0.30614 0.15241
 C1968 C 0.93390 0.29623 0.16294
 H1969 H 0.87177 0.33251 0.23325
 H1970 H 0.90398 0.31660 0.25157
 H1971 H 0.91512 0.30588 0.13463
 H1972 H 0.94659 0.28860 0.15299
 H1973 H 0.87944 0.32549 0.13636
 H1974 H 0.85087 0.34062 0.19946
 H1975 H 0.93948 0.29672 0.24988
 H1976 H 0.96606 0.27768 0.18698
 C1977 C 0.89874 0.81443 0.68867
 C1978 C 0.89845 0.81454 0.66561
 C1979 C 0.88080 0.82463 0.65463
 C1980 C 0.86317 0.83393 0.66654
 C1981 C 0.86375 0.83358 0.68970
 C1982 C 0.88161 0.82409 0.70083
 C1983 C 0.91715 0.80368 0.70031
 C1984 C 0.91757 0.80380 0.72338
 C1985 C 0.93501 0.79337 0.73436
 C1986 C 0.95154 0.78234 0.72242
 C1987 C 0.95085 0.78233 0.69930
 C1988 C 0.93380 0.79321 0.68814
 C1989 C 0.88258 0.82386 0.72389
 C1990 C 0.90033 0.81401 0.73497
 C1991 C 0.91565 0.80429 0.65400
 C1992 C 0.93296 0.79367 0.66508
 H1993 H 0.86949 0.83133 0.73345
 H1994 H 0.90044 0.81417 0.75277
 H1995 H 0.91560 0.80423 0.63621
 H1996 H 0.94576 0.78573 0.65552
 H1997 H 0.88054 0.82497 0.63684
 H1998 H 0.85015 0.84045 0.69900
 H1999 H 0.93539 0.79323 0.75217
 H2000 H 0.96363 0.77395 0.69006
 C2001 C 0.59851 0.31447 0.31068
 C2002 C 0.61523 0.32416 0.29798
 C2003 C 0.63338 0.33375 0.30855
 C2004 C 0.63462 0.33428 0.33167
 C2005 C 0.61740 0.32490 0.34413
 C2006 C 0.59950 0.31465 0.33372
 C2007 C 0.57977 0.30365 0.29963
 C2008 C 0.56354 0.29310 0.31230
 C2009 C 0.54617 0.28217 0.30166
 C2010 C 0.54474 0.28227 0.27859
 C2011 C 0.56084 0.29336 0.26615
 C2012 C 0.57862 0.30378 0.27659
 C2013 C 0.58270 0.30433 0.34586
 C2014 C 0.56511 0.29359 0.33532
 C2015 C 0.61354 0.32389 0.27497
 C2016 C 0.59546 0.31401 0.26445
 H2017 H 0.58330 0.30432 0.36364
 H2018 H 0.55264 0.28561 0.34529
 H2019 H 0.62631 0.33139 0.26500
 H2020 H 0.59479 0.31417 0.24667
 H2021 H 0.64665 0.34064 0.29880
 H2022 H 0.61815 0.32537 0.36191
 H2023 H 0.53371 0.27371 0.31127
 H2024 H 0.55989 0.29324 0.24837
 C2025 C 0.60213 0.81336 0.81427
 C2026 C 0.61906 0.80093 0.82395
 C2027 C 0.63718 0.81181 0.83325
 C2028 C 0.63823 0.83499 0.83340
 C2029 C 0.62081 0.84719 0.82406
 C2030 C 0.60289 0.83645 0.81417
 C2031 C 0.58342 0.80197 0.80375
 C2032 C 0.56696 0.81438 0.79327
 C2033 C 0.54963 0.80344 0.78259
 C2034 C 0.54849 0.78030 0.78280
 C2035 C 0.56483 0.76812 0.79384
 C2036 C 0.58254 0.77887 0.80407
 C2037 C 0.58587 0.84832 0.80391
 C2038 C 0.56828 0.83747 0.79351
 C2039 C 0.61762 0.77785 0.82393
 C2040 C 0.59959 0.76701 0.81428
 H2041 H 0.58628 0.86614 0.80369
 H2042 H 0.55563 0.84723 0.78556
 H2043 H 0.63055 0.76808 0.83141
 H2044 H 0.59914 0.74919 0.81460
 H2045 H 0.65061 0.80230 0.84015
 H2046 H 0.62143 0.86501 0.82425
 H2047 H 0.53700 0.81287 0.77421
 H2048 H 0.56412 0.75029 0.79384
 C2049 C 0.10128 0.31496 0.81320
 C2050 C 0.11805 0.30230 0.82285
 C2051 C 0.13631 0.31293 0.83215
 C2052 C 0.13763 0.33609 0.83240
 C2053 C 0.12037 0.34852 0.82306
 C2054 C 0.10233 0.33803 0.81312
 C2055 C 0.08241 0.30381 0.80270
 C2056 C 0.06607 0.31642 0.79224
 C2057 C 0.04852 0.30568 0.78168
 C2058 C 0.04705 0.28256 0.78205
 C2059 C 0.06333 0.27021 0.79299
 C2060 C 0.08123 0.28074 0.80308
 C2061 C 0.08545 0.35012 0.80287
 C2062 C 0.06771 0.33949 0.79247
 C2063 C 0.11633 0.27925 0.82283
 C2064 C 0.09814 0.26865 0.81324
 H2065 H 0.08610 0.36793 0.80266
 H2066 H 0.05517 0.34941 0.78455
 H2067 H 0.12914 0.26931 0.83029
 H2068 H 0.09744 0.25084 0.81358
 H2069 H 0.14962 0.30321 0.83901
 H2070 H 0.12123 0.36633 0.82329
 H2071 H 0.03595 0.31524 0.77334
 H2072 H 0.06238 0.25240 0.79311
 C2073 C 0.09943 0.81442 0.30934
 C2074 C 0.09999 0.81494 0.33239
 C2075 C 0.11769 0.82535 0.34298
 C2076 C 0.13515 0.83454 0.33071
 C2077 C 0.13432 0.83369 0.30758
 C2078 C 0.11637 0.82394 0.29682
 C2079 C 0.08091 0.80343 0.29811
 C2080 C 0.08018 0.80322 0.27505
 C2081 C 0.06260 0.79261 0.26444
 C2082 C 0.04629 0.78168 0.27676
 C2083 C 0.04730 0.78194 0.29985
 C2084 C 0.06445 0.79306 0.31064
 C2085 C 0.11511 0.82334 0.27378
 C2086 C 0.09723 0.81330 0.26308
 C2087 C 0.08298 0.80479 0.34437
 C2088 C 0.06559 0.79389 0.33367
 H2089 H 0.12806 0.83070 0.26394
 H2090 H 0.09689 0.81319 0.24528
 H2091 H 0.08324 0.80504 0.36216
 H2092 H 0.05295 0.78603 0.34352
 H2093 H 0.11811 0.82607 0.36076
 H2094 H 0.14778 0.84045 0.29799
 H2095 H 0.06197 0.79223 0.24665
 H2096 H 0.03468 0.77361 0.30936
 C2097 C 0.60229 0.68706 0.68447
 C2098 C 0.61903 0.69987 0.67495
 C2099 C 0.63731 0.68939 0.66550
 C2100 C 0.63870 0.66623 0.66501
 C2101 C 0.62143 0.65366 0.67415
 C2102 C 0.60338 0.66399 0.68423
 C2103 C 0.58346 0.69803 0.69524
 C2104 C 0.56721 0.68524 0.70562
 C2105 C 0.54978 0.69579 0.71655
 C2106 C 0.54832 0.71891 0.71667
 C2107 C 0.56446 0.73146 0.70572
 C2108 C 0.58227 0.72111 0.69526
 C2109 C 0.58655 0.65173 0.69437
 C2110 C 0.56885 0.66218 0.70502
 C2111 C 0.61727 0.72292 0.67532
 C2112 C 0.59912 0.73336 0.68517
 H2113 H 0.58721 0.63392 0.69433
 H2114 H 0.55638 0.65212 0.71288
 H2115 H 0.63005 0.73299 0.66796
 H2116 H 0.59842 0.75117 0.68512
 H2117 H 0.65062 0.69922 0.65878
 H2118 H 0.62230 0.63585 0.67372
 H2119 H 0.53733 0.68607 0.72488
 H2120 H 0.56352 0.74928 0.70597
 C2121 C 0.59995 0.18563 0.18570
 C2122 C 0.60122 0.16257 0.18594
 C2123 C 0.61932 0.15219 0.17599
 C2124 C 0.63646 0.16472 0.16653
 C2125 C 0.63490 0.18787 0.16659
 C2126 C 0.61656 0.19838 0.17587
 C2127 C 0.58103 0.19665 0.19623
 C2128 C 0.57961 0.21971 0.19566
 C2129 C 0.56164 0.23012 0.20571
 C2130 C 0.54553 0.21769 0.21683
 C2131 C 0.54726 0.19461 0.21745
 C2132 C 0.56487 0.18396 0.20688
 C2133 C 0.61461 0.22141 0.17573
 C2134 C 0.59636 0.23189 0.18532
 C2135 C 0.58452 0.15039 0.19638
 C2136 C 0.56674 0.16091 0.20681
 H2137 H 0.62728 0.23142 0.16814
 H2138 H 0.59547 0.24969 0.18484
 H2139 H 0.58534 0.13259 0.19672
 H2140 H 0.55435 0.15092 0.21489
 H2141 H 0.62034 0.13439 0.17591
 H2142 H 0.64810 0.19767 0.15965
 H2143 H 0.56048 0.24792 0.20543
 H2144 H 0.53481 0.18500 0.22592
 C2145 C 0.10216 0.68431 0.18446
 C2146 C 0.11853 0.69705 0.17424
 C2147 C 0.13687 0.68655 0.16494
 C2148 C 0.13866 0.66342 0.16525
 C2149 C 0.12177 0.65089 0.17514
 C2150 C 0.10366 0.66127 0.18509
 C2151 C 0.08321 0.69533 0.19497
 C2152 C 0.06727 0.68268 0.20598
 C2153 C 0.04961 0.69334 0.21647
 C2154 C 0.04763 0.71640 0.21543
 C2155 C 0.06355 0.72877 0.20399
 C2156 C 0.08156 0.71836 0.19399
 C2157 C 0.08718 0.64912 0.19591
 C2158 C 0.06938 0.65965 0.20631
 C2159 C 0.11635 0.72005 0.17371
 C2160 C 0.09808 0.73052 0.18329
 H2161 H 0.08818 0.63133 0.19655
 H2162 H 0.05716 0.64968 0.21466
 H2163 H 0.12885 0.73005 0.16582
 H2164 H 0.09701 0.74830 0.18249
 H2165 H 0.14990 0.69637 0.15768
 H2166 H 0.12296 0.63310 0.17535
 H2167 H 0.03732 0.68377 0.22520
 H2168 H 0.06221 0.74655 0.20337
 C2169 C 0.10058 0.18628 0.68726
 C2170 C 0.11744 0.19876 0.67751
 C2171 C 0.13550 0.18792 0.66804
 C2172 C 0.13654 0.16474 0.66774
 C2173 C 0.11919 0.15251 0.67719
 C2174 C 0.10134 0.16320 0.68728
 C2175 C 0.08192 0.19763 0.69791
 C2176 C 0.06548 0.18520 0.70844
 C2177 C 0.04811 0.19612 0.71911
 C2178 C 0.04690 0.21926 0.71877
 C2179 C 0.06328 0.23144 0.70776
 C2180 C 0.08101 0.22072 0.69757
 C2181 C 0.08438 0.15130 0.69762
 C2182 C 0.06684 0.16211 0.70815
 C2183 C 0.11600 0.22183 0.67759
 C2184 C 0.09801 0.23262 0.68732
 H2185 H 0.08480 0.13348 0.69779
 H2186 H 0.05422 0.15232 0.71613
 H2187 H 0.12888 0.23163 0.67005
 H2188 H 0.09752 0.25044 0.68701
 H2189 H 0.14889 0.19749 0.66111
 H2190 H 0.11979 0.13469 0.67691
 H2191 H 0.03546 0.18669 0.72748
 H2192 H 0.06253 0.24926 0.70767
 C2193 C 0.39894 0.68860 0.31537
 C2194 C 0.39790 0.68900 0.33840
 C2195 C 0.37999 0.67898 0.34903
 C2196 C 0.36285 0.66919 0.33677
 C2197 C 0.36414 0.66912 0.31364
 C2198 C 0.38227 0.67854 0.30288
 C2199 C 0.41770 0.69915 0.30409
 C2200 C 0.41888 0.69843 0.28107
 C2201 C 0.43670 0.70854 0.27041
 C2202 C 0.45290 0.71982 0.28258
 C2203 C 0.45141 0.72053 0.30565
 C2204 C 0.43394 0.70996 0.31652
 C2205 C 0.38399 0.67824 0.27988
 C2206 C 0.40207 0.68789 0.26915
 C2207 C 0.41467 0.69963 0.35031
 C2208 C 0.43231 0.71006 0.33955
 H2209 H 0.37127 0.67046 0.27007
 H2210 H 0.40278 0.68729 0.25138
 H2211 H 0.41403 0.70010 0.36809
 H2212 H 0.44477 0.71827 0.34934
 H2213 H 0.37918 0.67898 0.36681
 H2214 H 0.35092 0.66191 0.30406
 H2215 H 0.43766 0.70815 0.25263
 H2216 H 0.46391 0.72913 0.31507
 C2217 C 0.39937 0.18548 0.81396
 C2218 C 0.38268 0.17588 0.80115
 C2219 C 0.36441 0.16639 0.81158
 C2220 C 0.36298 0.16594 0.83469
 C2221 C 0.38019 0.17517 0.84727
 C2222 C 0.39824 0.18529 0.83699
 C2223 C 0.41820 0.19627 0.80304
 C2224 C 0.43441 0.20673 0.81582
 C2225 C 0.45186 0.21765 0.80530
 C2226 C 0.45338 0.21765 0.78223
 C2227 C 0.43728 0.20665 0.76969
 C2228 C 0.41945 0.19622 0.78000
 C2229 C 0.41501 0.19552 0.84924
 C2230 C 0.43271 0.20619 0.83883
 C2231 C 0.38449 0.17619 0.77814
 C2232 C 0.40265 0.18605 0.76775
 H2233 H 0.41430 0.19551 0.86702
 H2234 H 0.44515 0.21411 0.84888
 H2235 H 0.37175 0.16876 0.76809
 H2236 H 0.40341 0.18595 0.74997
 H2237 H 0.35113 0.15960 0.80177
 H2238 H 0.37926 0.17476 0.86505
 H2239 H 0.46430 0.22602 0.81500
 H2240 H 0.43828 0.20682 0.75191
 C2241 C 0.89708 0.68406 0.81584
 C2242 C 0.89588 0.68400 0.83887
 C2243 C 0.87778 0.67397 0.84916
 C2244 C 0.86058 0.66472 0.83659
 C2245 C 0.86209 0.66500 0.81348
 C2246 C 0.88042 0.67441 0.80303
 C2247 C 0.91594 0.69480 0.80491
 C2248 C 0.91724 0.69466 0.78187
 C2249 C 0.93507 0.70510 0.77155
 C2250 C 0.95112 0.71619 0.78408
 C2251 C 0.94956 0.71623 0.80715
 C2252 C 0.93211 0.70532 0.81768
 C2253 C 0.88229 0.67460 0.78003
 C2254 C 0.90047 0.68443 0.76963
 C2255 C 0.91263 0.69426 0.85111
 C2256 C 0.93036 0.70488 0.84069
 H2257 H 0.86957 0.66713 0.76998
 H2258 H 0.90126 0.68425 0.75186
 H2259 H 0.91187 0.69436 0.86889
 H2260 H 0.94277 0.71285 0.85073
 H2261 H 0.87680 0.67369 0.86693
 H2262 H 0.84883 0.65818 0.80367
 H2263 H 0.93609 0.70523 0.75377
 H2264 H 0.96196 0.72466 0.81686
 C2265 C 0.90167 0.18812 0.31278
 C2266 C 0.90063 0.18799 0.33582
 C2267 C 0.88264 0.17787 0.34621
 C2268 C 0.86541 0.16854 0.33374
 C2269 C 0.86674 0.16894 0.31061
 C2270 C 0.88495 0.17845 0.30007
 C2271 C 0.92046 0.19889 0.30175
 C2272 C 0.92162 0.19878 0.27871
 C2273 C 0.93940 0.20923 0.26830
 C2274 C 0.95554 0.22028 0.28075
 C2275 C 0.95411 0.22029 0.30383
 C2276 C 0.93671 0.20938 0.31444
 C2277 C 0.88667 0.17870 0.27706
 C2278 C 0.90477 0.18857 0.26656
 C2279 C 0.91744 0.19826 0.34797
 C2280 C 0.93510 0.20890 0.33747
 H2281 H 0.87390 0.17123 0.26707
 H2282 H 0.90545 0.18843 0.24878
 H2283 H 0.91681 0.19831 0.36576
 H2284 H 0.94758 0.21686 0.34744
 H2285 H 0.88182 0.17751 0.36398
 H2286 H 0.85345 0.16208 0.30087
 H2287 H 0.94032 0.20938 0.25051
 H2288 H 0.96657 0.22869 0.31348
 C2289 C 0.31568 0.30886 0.60005
 C2290 C 0.31591 0.33195 0.60033
 C2291 C 0.32614 0.34290 0.61786
 C2292 C 0.33540 0.33094 0.63544
 C2293 C 0.33489 0.30774 0.63487
 C2294 C 0.32532 0.29663 0.61709
 C2295 C 0.30483 0.29724 0.58173
 C2296 C 0.30493 0.27414 0.58128
 C2297 C 0.29454 0.26317 0.56386
 C2298 C 0.28353 0.27516 0.54740
 C2299 C 0.28342 0.29830 0.54816
 C2300 C 0.29433 0.30946 0.56516
 C2301 C 0.32501 0.27354 0.61611
 C2302 C 0.31513 0.26248 0.59842
 C2303 C 0.30563 0.34362 0.58323
 C2304 C 0.29488 0.33256 0.56603
 H2305 H 0.33247 0.26393 0.62913
 H2306 H 0.31526 0.24465 0.59828
 H2307 H 0.30566 0.36145 0.58328
 H2308 H 0.28693 0.34217 0.55330
 H2309 H 0.32661 0.36073 0.61809
 H2310 H 0.34170 0.29838 0.64841
 H2311 H 0.29445 0.24533 0.56341
 H2312 H 0.27504 0.30755 0.53542
 C2313 C 0.31384 0.80949 0.09956
 C2314 C 0.32365 0.79698 0.11630
 C2315 C 0.33328 0.80778 0.13423
 C2316 C 0.33374 0.83095 0.13523
 C2317 C 0.32428 0.84322 0.11796
 C2318 C 0.31398 0.83258 0.10028
 C2319 C 0.30300 0.79819 0.08104
 C2320 C 0.29241 0.81066 0.06471
 C2321 C 0.28164 0.79977 0.04743
 C2322 C 0.28203 0.77665 0.04617
 C2323 C 0.29303 0.76443 0.06247
 C2324 C 0.30327 0.77510 0.08013
 C2325 C 0.30356 0.84452 0.08345
 C2326 C 0.29282 0.83374 0.06605
 C2327 C 0.32344 0.77391 0.11489
 C2328 C 0.31356 0.76316 0.09702
 H2329 H 0.30350 0.86234 0.08385
 H2330 H 0.28480 0.84356 0.05353
 H2331 H 0.33101 0.76409 0.12768
 H2332 H 0.31381 0.74534 0.09652
 H2333 H 0.34021 0.79818 0.14755
 H2334 H 0.32467 0.86104 0.11853
 H2335 H 0.27327 0.80920 0.03482
 H2336 H 0.29314 0.74661 0.06166
 C2337 C 0.81496 0.30988 0.10106
 C2338 C 0.81454 0.33296 0.10189
 C2339 C 0.82453 0.34378 0.11965
 C2340 C 0.83423 0.33167 0.13689
 C2341 C 0.83435 0.30849 0.13578
 C2342 C 0.82501 0.29753 0.11777
 C2343 C 0.80441 0.29841 0.08247
 C2344 C 0.80515 0.27533 0.08147
 C2345 C 0.79503 0.26449 0.06382
 C2346 C 0.78365 0.27655 0.04766
 C2347 C 0.78291 0.29966 0.04896
 C2348 C 0.79354 0.31071 0.06621
 C2349 C 0.82534 0.27447 0.11625
 C2350 C 0.81572 0.26356 0.09832
 C2351 C 0.80389 0.34473 0.08509
 C2352 C 0.79343 0.33379 0.06764
 H2353 H 0.83312 0.26477 0.12901
 H2354 H 0.81634 0.24575 0.09777
 H2355 H 0.80341 0.36255 0.08557
 H2356 H 0.78518 0.34348 0.05516
 H2357 H 0.82450 0.36159 0.12028
 H2358 H 0.84150 0.29900 0.14906
 H2359 H 0.79541 0.24667 0.06298
 H2360 H 0.77424 0.30898 0.03646
 C2361 C 0.81672 0.81055 0.59974
 C2362 C 0.81684 0.83364 0.60043
 C2363 C 0.82656 0.84432 0.61842
 C2364 C 0.83543 0.83209 0.63601
 C2365 C 0.83500 0.80890 0.63504
 C2366 C 0.82596 0.79807 0.61682
 C2367 C 0.80644 0.79921 0.58093
 C2368 C 0.80663 0.77612 0.58010
 C2369 C 0.79669 0.76541 0.56227
 C2370 C 0.78601 0.77763 0.54577
 C2371 C 0.78583 0.80076 0.54688
 C2372 C 0.79631 0.81167 0.56432
 C2373 C 0.82577 0.77499 0.61544
 C2374 C 0.81642 0.76420 0.59731
 C2375 C 0.80697 0.84555 0.58327
 C2376 C 0.79673 0.83475 0.56560
 H2377 H 0.83292 0.76519 0.62849
 H2378 H 0.81661 0.74638 0.59688
 H2379 H 0.80692 0.86338 0.58363
 H2380 H 0.78907 0.84455 0.55284
 H2381 H 0.82697 0.86214 0.61895
 H2382 H 0.84150 0.79933 0.64858
 H2383 H 0.79662 0.74758 0.56157
 H2384 H 0.77768 0.81019 0.53413
 C2385 C 0.31431 0.69229 0.40221
 C2386 C 0.32346 0.70484 0.38514
 C2387 C 0.33323 0.69406 0.36725
 C2388 C 0.33436 0.67088 0.36660
 C2389 C 0.32558 0.65861 0.38419
 C2390 C 0.31522 0.66920 0.40185
 C2391 C 0.30322 0.70352 0.42062
 C2392 C 0.29320 0.69093 0.43719
 C2393 C 0.28190 0.70167 0.45418
 C2394 C 0.28102 0.72480 0.45490
 C2395 C 0.29165 0.73721 0.43850
 C2396 C 0.30249 0.72662 0.42109
 C2397 C 0.30545 0.65718 0.41900
 C2398 C 0.29449 0.66786 0.43630
 C2399 C 0.32243 0.72792 0.38617
 C2400 C 0.31225 0.73863 0.40392
 H2401 H 0.30601 0.63936 0.41889
 H2402 H 0.28691 0.65797 0.44904
 H2403 H 0.32950 0.73778 0.37313
 H2404 H 0.31176 0.75645 0.40406
 H2405 H 0.33969 0.70364 0.35370
 H2406 H 0.32654 0.64080 0.38389
 H2407 H 0.27383 0.69208 0.46687
 H2408 H 0.29082 0.75502 0.43890
 C2409 C 0.31448 0.18989 0.89966
 C2410 C 0.31442 0.16680 0.89908
 C2411 C 0.32457 0.15594 0.88143
 C2412 C 0.33407 0.16801 0.86405
 C2413 C 0.33375 0.19121 0.86488
 C2414 C 0.32428 0.20221 0.88277
 C2415 C 0.30383 0.20141 0.91816
 C2416 C 0.30424 0.22451 0.91891
 C2417 C 0.29399 0.23539 0.93648
 C2418 C 0.28280 0.22333 0.95276
 C2419 C 0.28242 0.20020 0.95172
 C2420 C 0.29319 0.18912 0.93457
 C2421 C 0.32427 0.22530 0.88405
 C2422 C 0.31456 0.23626 0.90190
 C2423 C 0.30401 0.15505 0.91604
 C2424 C 0.29342 0.16603 0.93340
 H2425 H 0.33185 0.23498 0.87115
 H2426 H 0.31492 0.25408 0.90225
 H2427 H 0.30381 0.13723 0.91577
 H2428 H 0.28536 0.15635 0.94601
 H2429 H 0.32488 0.13812 0.88101
 H2430 H 0.34074 0.20067 0.85150
 H2431 H 0.29408 0.25322 0.93713
 H2432 H 0.27389 0.19088 0.96431
 C2433 C 0.81216 0.68937 0.90132
 C2434 C 0.82204 0.70152 0.88436
 C2435 C 0.83141 0.69035 0.86653
 C2436 C 0.83159 0.66716 0.86585
 C2437 C 0.82198 0.65524 0.88328
 C2438 C 0.81192 0.66627 0.90088
 C2439 C 0.80169 0.70107 0.91980
 C2440 C 0.79102 0.68895 0.93634
 C2441 C 0.78052 0.70022 0.95353
 C2442 C 0.78121 0.72335 0.95449
 C2443 C 0.79236 0.73521 0.93804
 C2444 C 0.80234 0.72416 0.92045
 C2445 C 0.80145 0.65470 0.91793
 C2446 C 0.79103 0.66586 0.93528
 C2447 C 0.82223 0.72461 0.88551
 C2448 C 0.81269 0.73574 0.90334
 H2449 H 0.80111 0.63688 0.91775
 H2450 H 0.78294 0.65632 0.94797
 H2451 H 0.82987 0.73416 0.87254
 H2452 H 0.81323 0.75355 0.90362
 H2453 H 0.83848 0.69968 0.85309
 H2454 H 0.82218 0.63742 0.88297
 H2455 H 0.77202 0.69106 0.96626
 H2456 H 0.79270 0.75304 0.93863
 C2457 C 0.81707 0.19111 0.39955
 C2458 C 0.81780 0.16803 0.39883
 C2459 C 0.82810 0.15763 0.38102
 C2460 C 0.83697 0.17012 0.36361
 C2461 C 0.83605 0.19328 0.36464
 C2462 C 0.82636 0.20386 0.38268
 C2463 C 0.80601 0.20215 0.41810
 C2464 C 0.80545 0.22524 0.41891
 C2465 C 0.79463 0.23564 0.43644
 C2466 C 0.78386 0.22307 0.45263
 C2467 C 0.78456 0.19995 0.45157
 C2468 C 0.79584 0.18938 0.43445
 C2469 C 0.82549 0.22692 0.38407
 C2470 C 0.81535 0.23744 0.40196
 C2471 C 0.80789 0.15583 0.41577
 C2472 C 0.79696 0.16632 0.43320
 H2473 H 0.83267 0.23694 0.37120
 H2474 H 0.81499 0.25526 0.40237
 H2475 H 0.80832 0.13801 0.41539
 H2476 H 0.78927 0.15630 0.44577
 H2477 H 0.82889 0.13983 0.38042
 H2478 H 0.84260 0.20302 0.35124
 H2479 H 0.79394 0.25346 0.43711
 H2480 H 0.77639 0.19023 0.46409
 C2481 C 0.68254 0.31299 0.39819
 C2482 C 0.67329 0.29995 0.38153
 C2483 C 0.66378 0.31021 0.36321
 C2484 C 0.66296 0.33335 0.36172
 C2485 C 0.67187 0.34614 0.37889
 C2486 C 0.68200 0.33605 0.39698
 C2487 C 0.69335 0.30228 0.41707
 C2488 C 0.70346 0.31531 0.43324
 C2489 C 0.71448 0.30502 0.45070
 C2490 C 0.71497 0.28191 0.45226
 C2491 C 0.70425 0.26910 0.43622
 C2492 C 0.69369 0.27921 0.41838
 C2493 C 0.69186 0.34855 0.41374
 C2494 C 0.70255 0.33835 0.43149
 C2495 C 0.67397 0.27692 0.38340
 C2496 C 0.68386 0.26672 0.40160
 H2497 H 0.69158 0.36635 0.41298
 H2498 H 0.71021 0.34858 0.44391
 H2499 H 0.66681 0.26669 0.37069
 H2500 H 0.68407 0.24891 0.40239
 H2501 H 0.65724 0.30022 0.34998
 H2502 H 0.67118 0.36393 0.37793
 H2503 H 0.72264 0.31494 0.46309
 H2504 H 0.70479 0.25130 0.43725
 C2505 C 0.68828 0.81898 0.89905
 C2506 C 0.66516 0.81904 0.89764
 C2507 C 0.65500 0.82863 0.87930
 C2508 C 0.66781 0.83745 0.86207
 C2509 C 0.69102 0.83709 0.86377
 C2510 C 0.70132 0.82816 0.88234
 C2511 C 0.69907 0.80877 0.91821
 C2512 C 0.72219 0.80896 0.91974
 C2513 C 0.73238 0.79904 0.93787
 C2514 C 0.71963 0.78838 0.95400
 C2515 C 0.69647 0.78824 0.95222
 C2516 C 0.68607 0.79868 0.93446
 C2517 C 0.72441 0.82800 0.88442
 C2518 C 0.73467 0.81870 0.90289
 C2519 C 0.65268 0.80922 0.91445
 C2520 C 0.66296 0.79907 0.93247
 H2521 H 0.73464 0.83510 0.87167
 H2522 H 0.75253 0.81890 0.90385
 H2523 H 0.63482 0.80913 0.91354
 H2524 H 0.65275 0.79144 0.94493
 H2525 H 0.63716 0.82896 0.87819
 H2526 H 0.70103 0.84353 0.85049
 H2527 H 0.75024 0.79894 0.93907
 H2528 H 0.68662 0.78011 0.96467
 C2529 C 0.18785 0.31838 0.89739
 C2530 C 0.20090 0.32769 0.88075
 C2531 C 0.19060 0.33715 0.86244
 C2532 C 0.16739 0.33792 0.86094
 C2533 C 0.15458 0.32899 0.87813
 C2534 C 0.16473 0.31885 0.89619
 C2535 C 0.19863 0.30762 0.91627
 C2536 C 0.18562 0.29746 0.93246
 C2537 C 0.19602 0.28667 0.95004
 C2538 C 0.21919 0.28660 0.95170
 C2539 C 0.23194 0.29723 0.93555
 C2540 C 0.22176 0.30749 0.91761
 C2541 C 0.15224 0.30890 0.91292
 C2542 C 0.16251 0.29824 0.93066
 C2543 C 0.22400 0.32712 0.88263
 C2544 C 0.23426 0.31734 0.90084
 H2545 H 0.13438 0.30911 0.91216
 H2546 H 0.15228 0.29055 0.94308
 H2547 H 0.23424 0.33432 0.86993
 H2548 H 0.25212 0.31727 0.90167
 H2549 H 0.20061 0.34365 0.84920
 H2550 H 0.13673 0.32961 0.87717
 H2551 H 0.18617 0.27857 0.96251
 H2552 H 0.24980 0.29699 0.93666
 C2553 C 0.18151 0.81409 0.39851
 C2554 C 0.18114 0.83713 0.39694
 C2555 C 0.17152 0.84701 0.37845
 C2556 C 0.16293 0.83401 0.36128
 C2557 C 0.16361 0.81088 0.36313
 C2558 C 0.17261 0.80085 0.38182
 C2559 C 0.19175 0.80360 0.41783
 C2560 C 0.19193 0.78055 0.41949
 C2561 C 0.20200 0.77065 0.43772
 C2562 C 0.21243 0.78364 0.45381
 C2563 C 0.21209 0.80672 0.45192
 C2564 C 0.20154 0.81682 0.43406
 C2565 C 0.17309 0.77785 0.38406
 C2566 C 0.18246 0.76787 0.40265
 C2567 C 0.19066 0.84982 0.41376
 C2568 C 0.20082 0.83983 0.43193
 H2569 H 0.16620 0.76746 0.37132
 H2570 H 0.18254 0.75007 0.40371
 H2571 H 0.19050 0.86762 0.41273
 H2572 H 0.20823 0.85020 0.44438
 H2573 H 0.17094 0.86478 0.37723
 H2574 H 0.15733 0.80073 0.34991
 H2575 H 0.20246 0.75286 0.43899
 H2576 H 0.22004 0.81678 0.46433
 C2577 C 0.69007 0.68378 0.60050
 C2578 C 0.66692 0.68373 0.60149
 C2579 C 0.65642 0.67385 0.61951
 C2580 C 0.66890 0.66473 0.63681
 C2581 C 0.69214 0.66518 0.63557
 C2582 C 0.70279 0.67438 0.61733
 C2583 C 0.70123 0.69413 0.58162
 C2584 C 0.72438 0.69382 0.58047
 C2585 C 0.73491 0.70373 0.56252
 C2586 C 0.72249 0.71448 0.54621
 C2587 C 0.69931 0.71482 0.54767
 C2588 C 0.68856 0.70438 0.56523
 C2589 C 0.72591 0.67449 0.61565
 C2590 C 0.73652 0.68391 0.59744
 C2591 C 0.65478 0.69376 0.58457
 C2592 C 0.66542 0.70405 0.56683
 H2593 H 0.73590 0.66721 0.62850
 H2594 H 0.75439 0.68363 0.59677
 H2595 H 0.63691 0.69387 0.58516
 H2596 H 0.65545 0.71181 0.55425
 H2597 H 0.63855 0.67347 0.62026
 H2598 H 0.70190 0.65853 0.64891
 H2599 H 0.75279 0.70368 0.56156
 H2600 H 0.68972 0.72303 0.53507
 C2601 C 0.68798 0.18190 0.10204
 C2602 C 0.66482 0.18170 0.10291
 C2603 C 0.65429 0.17191 0.12096
 C2604 C 0.66674 0.16304 0.13841
 C2605 C 0.68998 0.16360 0.13726
 C2606 C 0.70067 0.17270 0.11900
 C2607 C 0.69916 0.19222 0.08316
 C2608 C 0.72232 0.19209 0.08214
 C2609 C 0.73289 0.20204 0.06423
 C2610 C 0.72047 0.21266 0.04783
 C2611 C 0.69728 0.21279 0.04914
 C2612 C 0.68651 0.20230 0.06666
 C2613 C 0.72380 0.17297 0.11744
 C2614 C 0.73445 0.18235 0.09923
 C2615 C 0.65270 0.19154 0.08586
 C2616 C 0.66336 0.20182 0.06812
 H2617 H 0.73376 0.16584 0.13039
 H2618 H 0.75232 0.18221 0.09866
 H2619 H 0.63483 0.19153 0.08637
 H2620 H 0.65340 0.20944 0.05546
 H2621 H 0.63642 0.17143 0.12163
 H2622 H 0.69973 0.15712 0.15071
 H2623 H 0.75077 0.20215 0.06339
 H2624 H 0.68769 0.22090 0.03647
 C2625 C 0.18934 0.68030 0.10006
 C2626 C 0.20230 0.67152 0.11704
 C2627 C 0.19188 0.66251 0.13551
 C2628 C 0.16866 0.66164 0.13684
 C2629 C 0.15594 0.67006 0.11936
 C2630 C 0.16620 0.67976 0.10112
 C2631 C 0.20023 0.69061 0.08101
 C2632 C 0.18728 0.70035 0.06453
 C2633 C 0.19776 0.71095 0.04691
 C2634 C 0.22094 0.71130 0.04550
 C2635 C 0.23366 0.70094 0.06183
 C2636 C 0.22338 0.69088 0.07984
 C2637 C 0.15380 0.68922 0.08405
 C2638 C 0.16416 0.69949 0.06615
 C2639 C 0.22541 0.67213 0.11531
 C2640 C 0.23578 0.68150 0.09694
 H2641 H 0.13593 0.68894 0.08469
 H2642 H 0.15400 0.70686 0.05349
 H2643 H 0.23558 0.66532 0.12828
 H2644 H 0.25365 0.68167 0.09626
 H2645 H 0.20183 0.65638 0.14897
 H2646 H 0.13809 0.66934 0.12019
 H2647 H 0.18795 0.71888 0.03429
 H2648 H 0.25152 0.70144 0.06090
 C2649 C 0.18753 0.18133 0.60268
 C2650 C 0.20026 0.17188 0.61947
 C2651 C 0.18963 0.16289 0.63783
 C2652 C 0.16640 0.16270 0.63923
 C2653 C 0.15389 0.17186 0.62196
 C2654 C 0.16438 0.18153 0.60383
 C2655 C 0.19867 0.19149 0.58368
 C2656 C 0.18599 0.20180 0.56734
 C2657 C 0.19673 0.21211 0.54969
 C2658 C 0.21991 0.21159 0.54811
 C2659 C 0.23233 0.20074 0.56436
 C2660 C 0.22180 0.19096 0.58239
 C2661 C 0.15223 0.19161 0.58693
 C2662 C 0.16286 0.20172 0.56908
 C2663 C 0.22337 0.17175 0.61763
 C2664 C 0.23396 0.18099 0.59932
 H2665 H 0.13437 0.19191 0.58765
 H2666 H 0.15289 0.20953 0.55654
 H2667 H 0.23336 0.16443 0.63046
 H2668 H 0.25182 0.18054 0.59854
 H2669 H 0.19941 0.15619 0.65113
 H2670 H 0.13603 0.17168 0.62285
 H2671 H 0.18714 0.22039 0.53714
 H2672 H 0.25019 0.20055 0.56332
   
