data_POSCAR
  _audit_creation_date              2014-09-24
  _audit_creation_method            'ToBaCCo'
  _symmetry_space_group_name_H-M    'P1'
  _symmetry_Int_Tables_number       1
  _symmetry_cell_setting            triclinic
  loop_
  _symmetry_equiv_pos_as_xyz
 x,y,z
_cell_length_a 56.5859
_cell_length_b 56.4842
_cell_length_c 56.7130
_cell_angle_alpha 89.538100
_cell_angle_beta 88.805300
_cell_angle_gamma 90.215000
loop_
  _atom_site_label
  _atom_site_type_symbol
  _atom_site_fract_x
  _atom_site_fract_y
  _atom_site_fract_z
C1 C 0.38278 1.36226 0.34668
 C2 C 0.38356 1.34235 0.36149
 C3 C 0.36659 1.33927 0.37913
 C4 C 0.34885 1.35627 0.38239
 C5 C 0.34858 1.37630 0.36826
 C6 C 0.36566 1.37932 0.35017
 C7 C 0.39465 1.36775 0.32603
 N8 N 0.38527 1.38783 0.31665
 C9 C 0.36776 1.39525 0.33169
 C10 C 0.32833 1.38853 0.37399
 N11 N 0.31595 1.37629 0.39106
 C12 C 0.32865 1.35651 0.39626
 C13 C 0.37039 1.31745 0.38929
 N14 N 0.38943 1.30740 0.37838
 C15 C 0.39755 1.32249 0.36131
 H16 H 0.40878 1.35737 0.31826
 H17 H 0.35590 1.40985 0.32846
 H18 H 0.32236 1.40426 0.36493
 H19 H 0.32365 1.34293 0.40897
 H20 H 0.35999 1.30939 0.40346
 H21 H 0.41211 1.31894 0.34917
 C22 C 0.38930 0.86945 0.85518
 C23 C 0.38897 0.85027 0.87104
 C24 C 0.36987 0.84705 0.88633
 C25 C 0.35096 0.86295 0.88611
 C26 C 0.35141 0.88206 0.87081
 C27 C 0.37061 0.88520 0.85501
 C28 C 0.40379 0.87490 0.83612
 N29 N 0.39424 0.89336 0.82420
 C30 C 0.37401 0.89986 0.83573
 C31 C 0.32995 0.89328 0.87321
 N32 N 0.31625 0.88121 0.88937
 C33 C 0.32917 0.86255 0.89723
 C34 C 0.37290 0.82578 0.89772
 N35 N 0.39337 0.81593 0.88972
 C36 C 0.40336 0.83084 0.87342
 H37 H 0.41910 0.86493 0.83028
 H38 H 0.36195 0.91338 0.82980
 H39 H 0.32435 0.90823 0.86270
 H40 H 0.32338 0.84947 0.91016
 H41 H 0.36070 0.81775 0.91042
 H42 H 0.41924 0.82721 0.86312
 C43 C 0.87213 1.35310 0.84015
 C44 C 0.87064 1.33555 0.85777
 C45 C 0.85096 1.33442 0.87248
 C46 C 0.83270 1.35063 0.87003
 C47 C 0.83404 1.36815 0.85299
 C48 C 0.85385 1.36910 0.83752
 C49 C 0.88821 1.35712 0.82208
 N50 N 0.88005 1.37480 0.80796
 C51 C 0.85900 1.38223 0.81747
 C52 C 0.81326 1.38088 0.85486
 N53 N 0.79935 1.37098 0.87233
 C54 C 0.81132 1.35236 0.88146
 C55 C 0.85292 1.31477 0.88652
 N56 N 0.87332 1.30361 0.88065
 C57 C 0.88444 1.31624 0.86314
 H58 H 0.90383 1.34661 0.81865
 H59 H 0.84797 1.39607 0.81040
 H60 H 0.80839 1.39565 0.84373
 H61 H 0.80542 1.34119 0.89603
 H62 H 0.84007 1.30867 0.89964
 H63 H 0.90069 1.31112 0.85419
 C64 C 0.87026 0.85498 0.33566
 C65 C 0.86803 0.83551 0.35124
 C66 C 0.85106 0.83585 0.36918
 C67 C 0.83635 0.85555 0.37199
 C68 C 0.83888 0.87481 0.35702
 C69 C 0.85600 0.87455 0.33883
 C70 C 0.88365 0.85907 0.31541
 N71 N 0.87804 0.88079 0.30636
 C72 C 0.86119 0.89030 0.32090
 C73 C 0.82131 0.89062 0.36284
 N74 N 0.80806 0.88131 0.38091
 C75 C 0.81726 0.85989 0.38670
 C76 C 0.85209 0.81458 0.38100
 N77 N 0.86948 0.80131 0.37097
 C78 C 0.87934 0.81394 0.35271
 H79 H 0.89655 0.84699 0.30803
 H80 H 0.85210 0.90686 0.31803
 H81 H 0.81768 0.90710 0.35376
 H82 H 0.81022 0.84802 0.40020
 H83 H 0.84120 0.80926 0.39606
 H84 H 0.89350 0.80778 0.34122
 C85 C 0.63313 0.64594 0.33572
 C86 C 0.63662 0.66455 0.35180
 C87 C 0.65525 0.66345 0.36729
 C88 C 0.67036 0.64382 0.36724
 C89 C 0.66642 0.62535 0.35204
 C90 C 0.64772 0.62638 0.33636
 C91 C 0.61794 0.64246 0.31720
 N92 N 0.62282 0.62110 0.30701
 C93 C 0.64096 0.61126 0.31898
 C94 C 0.68416 0.60911 0.35507
 N95 N 0.69895 0.61736 0.37167
 C96 C 0.69060 0.63857 0.37929
 C97 C 0.65469 0.68365 0.38064
 N98 N 0.63598 0.69697 0.37408
 C99 C 0.62484 0.68549 0.35639
 H100 H 0.60436 0.65464 0.31173
 H101 H 0.64987 0.59493 0.31452
 H102 H 0.68667 0.59296 0.34519
 H103 H 0.69885 0.64958 0.39234
 H104 H 0.66663 0.68802 0.39464
 H105 H 0.60926 0.69185 0.34761
 C106 C 0.63383 0.14990 0.82908
 C107 C 0.63341 0.16780 0.84616
 C108 C 0.65083 0.16869 0.86299
 C109 C 0.66863 0.15137 0.86326
 C110 C 0.66861 0.13361 0.84672
 C111 C 0.65151 0.13319 0.82930
 C112 C 0.62015 0.14521 0.80978
 N113 N 0.62959 0.12641 0.79792
 C114 C 0.64873 0.11897 0.81008
 C115 C 0.68727 0.11898 0.85121
 N116 N 0.69907 0.12736 0.87010
 C117 C 0.68783 0.14745 0.87739
 C118 C 0.64632 0.18821 0.87677
 N119 N 0.62657 0.19907 0.86884
 C120 C 0.61859 0.18670 0.85012
 H121 H 0.60532 0.15572 0.80415
 H122 H 0.65992 0.10413 0.80555
 H123 H 0.69216 0.10371 0.84083
 H124 H 0.69259 0.15806 0.89238
 H125 H 0.65652 0.19393 0.89164
 H126 H 0.60332 0.19131 0.83989
 C127 C 1.13830 0.65378 0.82790
 C128 C 1.13645 0.67122 0.84545
 C129 C 1.15137 0.67041 0.86445
 C130 C 1.16812 0.65243 0.86635
 C131 C 1.17050 0.63575 0.84888
 C132 C 1.15538 0.63631 0.82953
 C133 C 1.12656 0.65006 0.80717
 N134 N 1.13610 0.63088 0.79623
 C135 C 1.15381 0.62247 0.80975
 C136 C 1.18941 0.62168 0.85473
 N137 N 1.19826 0.62923 0.87561
 C138 C 1.18509 0.64807 0.88273
 C139 C 1.14748 0.69030 0.87761
 N140 N 1.13055 0.70338 0.86718
 C141 C 1.12341 0.69178 0.84761
 H142 H 1.11234 0.66074 0.80038
 H143 H 1.16461 0.60722 0.80563
 H144 H 1.19587 0.60682 0.84458
 H145 H 1.18824 0.65878 0.89809
 H146 H 1.15693 0.69539 0.89320
 H147 H 1.11075 0.69850 0.83519
 C148 C 1.12772 0.13727 0.33501
 C149 C 1.12942 0.15687 0.35003
 C150 C 1.14630 0.15723 0.36743
 C151 C 1.16154 0.13773 0.37013
 C152 C 1.15875 0.11805 0.35615
 C153 C 1.14190 0.11785 0.33855
 C154 C 1.11535 0.13308 0.31473
 N155 N 1.12170 0.11148 0.30603
 C156 C 1.13769 0.10200 0.32094
 C157 C 1.17612 0.10223 0.36150
 N158 N 1.19019 0.11178 0.37809
 C159 C 1.18126 0.13358 0.38355
 C160 C 1.14360 0.17836 0.37932
 N161 N 1.12526 0.19050 0.36990
 C162 C 1.11678 0.17758 0.35176
 H163 H 1.10302 0.14520 0.30678
 H164 H 1.14730 0.08569 0.31817
 H165 H 1.17928 0.08575 0.35237
 H166 H 1.18861 0.14577 0.39609
 H167 H 1.15350 0.18394 0.39445
 H168 H 1.10206 0.18261 0.34094
 C169 C 0.62473 1.36007 0.66055
 C170 C 0.62143 1.34224 0.64377
 C171 C 0.63735 1.33995 0.62504
 C172 C 0.65685 1.35529 0.62291
 C173 C 0.66018 1.37252 0.63968
 C174 C 0.64414 1.37485 0.65859
 C175 C 0.61292 1.36587 0.68119
 N176 N 0.62494 1.38362 0.69201
 C177 C 0.64414 1.38905 0.67810
 C178 C 0.68119 1.38369 0.63437
 N179 N 0.69082 1.37372 0.61474
 C180 C 0.67601 1.35634 0.60751
 C181 C 0.63095 1.32014 0.61274
 N182 N 0.61168 1.31017 0.62361
 C183 C 0.60570 1.32364 0.64257
 H184 H 0.59742 1.35682 0.68826
 H185 H 0.65718 1.40256 0.68154
 H186 H 0.68905 1.39790 0.64428
 H187 H 0.67936 1.34477 0.59269
 H188 H 0.64047 1.31275 0.59779
 H189 H 0.59143 1.31979 0.65503
 C190 C 0.63581 0.84885 1.17536
 C191 C 0.63284 0.83146 1.15811
 C192 C 0.64915 0.82954 1.13970
 C193 C 0.66869 0.84486 1.13836
 C194 C 0.67163 0.86188 1.15545
 C195 C 0.65523 0.86369 1.17419
 C196 C 0.62314 0.85450 1.19550
 N197 N 0.63462 0.87220 1.20691
 C198 C 0.65436 0.87779 1.19382
 C199 C 0.69214 0.87398 1.14996
 N200 N 0.70181 0.86467 1.12999
 C201 C 0.68765 0.84674 1.12282
 C202 C 0.64241 0.81064 1.12623
 N203 N 0.62254 0.80087 1.13611
 C204 C 0.61655 0.81352 1.15562
 H205 H 0.60731 0.84547 1.20180
 H206 H 0.66709 0.89143 1.19785
 H207 H 0.69970 0.88826 1.15998
 H208 H 0.69081 0.83601 1.10735
 H209 H 0.65183 0.80390 1.11090
 H210 H 0.60164 0.80975 1.16734
 C211 C 1.12071 1.36470 1.15594
 C212 C 1.12280 1.34490 1.14125
 C213 C 1.13989 1.34454 1.12335
 C214 C 1.15523 1.36403 1.12006
 C215 C 1.15242 1.38377 1.13400
 C216 C 1.13541 1.38400 1.15213
 C217 C 1.10895 1.36833 1.17716
 N218 N 1.11667 1.38908 1.18628
 C219 C 1.13264 1.39884 1.17095
 C220 C 1.17080 1.39894 1.12904
 N221 N 1.18548 1.38883 1.11280
 C222 C 1.17597 1.36738 1.10714
 C223 C 1.13864 1.32258 1.11296
 N224 N 1.12129 1.30972 1.12409
 C225 C 1.11174 1.32316 1.14158
 H226 H 1.09750 1.35577 1.18637
 H227 H 1.14289 1.41467 1.17419
 H228 H 1.17435 1.41508 1.13852
 H229 H 1.18382 1.35470 1.09514
 H230 H 1.14978 1.31629 1.09860
 H231 H 1.09759 1.31761 1.15355
 C232 C 1.10961 0.86485 0.64882
 C233 C 1.10947 0.84605 0.63291
 C234 C 1.12804 0.84324 0.61698
 C235 C 1.14715 0.85909 0.61693
 C236 C 1.14740 0.87763 0.63274
 C237 C 1.12850 0.88047 0.64891
 C238 C 1.09504 0.87025 0.66767
 N239 N 1.10467 0.88864 0.67938
 C240 C 1.12517 0.89502 0.66807
 C241 C 1.16900 0.88877 0.63008
 N242 N 1.18184 0.87734 0.61318
 C243 C 1.16860 0.85915 0.60509
 C244 C 1.12446 0.82217 0.60557
 N245 N 1.10433 0.81206 0.61446
 C246 C 1.09503 0.82656 0.63117
 H247 H 1.07934 0.86056 0.67331
 H248 H 1.13721 0.90862 0.67386
 H249 H 1.17532 0.90342 0.64043
 H250 H 1.17432 0.84655 0.59189
 H251 H 1.13641 0.81402 0.59292
 H252 H 1.07947 0.82270 0.64197
 C253 C 0.37062 0.64069 0.66269
 C254 C 0.36760 0.65896 0.64620
 C255 C 0.34848 0.65856 0.63151
 C256 C 0.33225 0.63987 0.63294
 C257 C 0.33520 0.62166 0.64896
 C258 C 0.35446 0.62222 0.66425
 C259 C 0.38640 0.63775 0.68054
 N260 N 0.38013 0.61813 0.69316
 C261 C 0.36064 0.60846 0.68333
 C262 C 0.31623 0.60648 0.64661
 N263 N 0.30169 0.61530 0.62974
 C264 C 0.31160 0.63582 0.62146
 C265 C 0.34891 0.67922 0.61858
 N266 N 0.36787 0.69222 0.62509
 C267 C 0.37945 0.67993 0.64197
 H268 H 0.40059 0.64976 0.68488
 H269 H 0.35120 0.59304 0.69004
 H270 H 0.31295 0.59072 0.65716
 H271 H 0.30482 0.64696 0.60757
 H272 H 0.33613 0.68453 0.60564
 H273 H 0.39478 0.68619 0.65120
 C274 C 0.37966 0.13130 1.16043
 C275 C 0.37878 0.15132 1.14579
 C276 C 0.36089 0.15376 1.12963
 C277 C 0.34372 0.13568 1.12776
 C278 C 0.34525 0.11562 1.14179
 C279 C 0.36310 0.11351 1.15835
 C280 C 0.39337 0.12566 1.17938
 N281 N 0.38537 0.10492 1.18895
 C282 C 0.36700 0.09722 1.17601
 C283 C 0.32654 0.10118 1.13681
 N284 N 0.31310 0.11180 1.12017
 C285 C 0.32351 0.13310 1.11466
 C286 C 0.36449 0.17541 1.11845
 N287 N 0.38420 0.18573 1.12730
 C288 C 0.39284 0.17113 1.14413
 H289 H 0.40743 0.13642 1.18635
 H290 H 0.35622 0.08180 1.18014
 H291 H 0.32255 0.08460 1.14574
 H292 H 0.31722 0.14574 1.10183
 H293 H 0.35384 0.18286 1.10463
 H294 H 0.40826 0.17471 1.15454
 C295 C 0.86896 0.64534 1.16167
 C296 C 0.87191 0.66320 1.14446
 C297 C 0.85563 0.66545 1.12674
 C298 C 0.83636 0.64989 1.12578
 C299 C 0.83327 0.63248 1.14287
 C300 C 0.84970 0.63018 1.16096
 C301 C 0.88147 0.63945 1.18143
 N302 N 0.87029 0.62115 1.19277
 C303 C 0.85080 0.61542 1.18035
 C304 C 0.81250 0.62081 1.13808
 N305 N 0.80314 0.63060 1.11840
 C306 C 0.81763 0.64840 1.11078
 C307 C 0.86183 0.68509 1.11355
 N308 N 0.88151 0.69489 1.12278
 C309 C 0.88794 0.68151 1.14160
 H310 H 0.89722 0.64829 1.18745
 H311 H 0.83831 0.60152 1.18506
 H312 H 0.80479 0.60625 1.14814
 H313 H 0.81448 0.65977 1.09572
 H314 H 0.85241 0.69205 1.09861
 H315 H 0.90253 0.68545 1.15300
 C316 C 0.86694 0.14287 0.65958
 C317 C 0.86917 0.15912 0.64069
 C318 C 0.85382 0.15767 0.62209
 C319 C 0.83625 0.14031 0.62195
 C320 C 0.83353 0.12479 0.64074
 C321 C 0.84896 0.12615 0.65976
 C322 C 0.87858 0.14041 0.68057
 N323 N 0.86795 0.12287 0.69371
 C324 C 0.84966 0.11428 0.68100
 C325 C 0.81347 0.11159 0.63670
 N326 N 0.80432 0.11875 0.61584
 C327 C 0.81816 0.13634 0.60678
 C328 C 0.85751 0.17707 0.60787
 N329 N 0.87465 0.19057 0.61732
 C330 C 0.88221 0.17966 0.63726
 H331 H 0.89307 0.15143 0.68617
 H332 H 0.83789 0.10000 0.68638
 H333 H 0.80581 0.09818 0.64830
 H334 H 0.81467 0.14629 0.59083
 H335 H 0.84743 0.18180 0.59252
 H336 H 0.89480 0.18708 0.64930
 C337 C 1.35608 0.37134 0.67051
 C338 C 1.33718 0.37193 0.65480
 C339 C 1.33580 0.35527 0.63698
 C340 C 1.35365 0.33805 0.63439
 C341 C 1.37249 0.33821 0.64944
 C342 C 1.37349 0.35449 0.66772
 C343 C 1.36110 0.38358 0.69082
 N344 N 1.38082 0.37406 0.70035
 C345 C 1.38857 0.35641 0.68619
 C346 C 1.38717 0.32000 0.64337
 N347 N 1.37781 0.30809 0.62503
 C348 C 1.35705 0.31895 0.61954
 C349 C 1.31538 0.35992 0.62491
 N350 N 1.30455 0.37905 0.63475
 C351 C 1.31774 0.38638 0.65310
 H352 H 1.35048 0.39740 0.69880
 H353 H 1.40363 0.34521 0.68958
 H354 H 1.40298 0.31516 0.65266
 H355 H 1.34543 0.31374 0.60557
 H356 H 1.30914 0.35040 0.60975
 H357 H 1.31345 0.40111 0.66448
 C358 C 1.34740 0.87010 1.17272
 C359 C 1.33045 0.86939 1.15511
 C360 C 1.33142 0.85201 1.13810
 C361 C 1.34970 0.83524 1.13838
 C362 C 1.36697 0.83656 1.15523
 C363 C 1.36573 0.85407 1.17265
 C364 C 1.34956 0.88388 1.19239
 N365 N 1.36886 0.87674 1.20452
 C366 C 1.37902 0.85863 1.19221
 C367 C 1.38237 0.81816 1.15123
 N368 N 1.37469 0.80526 1.13265
 C369 C 1.35463 0.81575 1.12475
 C370 C 1.31269 0.85580 1.12334
 N371 N 1.30071 0.87525 1.13087
 C372 C 1.31137 0.88351 1.15042
 H373 H 1.33777 0.89813 1.19727
 H374 H 1.39408 0.84838 1.19768
 H375 H 1.39740 0.81393 1.16196
 H376 H 1.34444 0.81003 1.10989
 H377 H 1.30856 0.84564 1.10784
 H378 H 1.30577 0.89882 1.16040
 C379 C 0.84229 0.36331 1.17169
 C380 C 0.82343 0.36197 1.15597
 C381 C 0.82139 0.34248 1.14160
 C382 C 0.83807 0.32436 1.14236
 C383 C 0.85683 0.32575 1.15741
 C384 C 0.85866 0.34519 1.17262
 C385 C 0.84823 0.37950 1.18861
 N386 N 0.86746 0.37145 1.20035
 C387 C 0.87391 0.35044 1.19045
 C388 C 0.87049 0.30591 1.15354
 N389 N 0.86016 0.29239 1.13673
 C390 C 0.84014 0.30367 1.13008
 C391 C 0.80146 0.34527 1.12858
 N392 N 0.79108 0.36602 1.13463
 C393 C 0.80443 0.37646 1.15136
 H394 H 0.83826 0.39527 1.19286
 H395 H 0.88873 0.33964 1.19558
 H396 H 0.88651 0.30156 1.16270
 H397 H 0.82839 0.29801 1.11639
 H398 H 0.79509 0.33310 1.11548
 H399 H 0.80041 0.39310 1.15986
 C400 C 0.84574 0.86361 0.66927
 C401 C 0.82698 0.86117 0.65353
 C402 C 0.82668 0.84225 0.63811
 C403 C 0.84504 0.82563 0.63809
 C404 C 0.86336 0.82805 0.65361
 C405 C 0.86382 0.84718 0.66908
 C406 C 0.85067 0.87958 0.68686
 N407 N 0.87136 0.87324 0.69694
 C408 C 0.87944 0.85344 0.68614
 C409 C 0.87806 0.80896 0.65066
 N410 N 0.86923 0.79505 0.63354
 C411 C 0.84908 0.80512 0.62562
 C412 C 0.80620 0.84378 0.62557
 N413 N 0.79401 0.86319 0.63281
 C414 C 0.80663 0.87399 0.64987
 H415 H 0.84002 0.89466 0.69194
 H416 H 0.89527 0.84392 0.69077
 H417 H 0.89397 0.80536 0.66032
 H418 H 0.83789 0.79771 0.61228
 H419 H 0.80059 0.83163 0.61211
 H420 H 0.80116 0.88968 0.65932
 C421 C 0.64362 0.62133 0.65162
 C422 C 0.66046 0.62270 0.63306
 C423 C 0.65849 0.64006 0.61587
 C424 C 0.63972 0.65609 0.61680
 C425 C 0.62331 0.65495 0.63514
 C426 C 0.62529 0.63748 0.65266
 C427 C 0.64170 0.60734 0.67161
 N428 N 0.62277 0.61476 0.68471
 C429 C 0.61268 0.63319 0.67322
 C430 C 0.60830 0.67388 0.63254
 N431 N 0.61519 0.68630 0.61295
 C432 C 0.63439 0.67552 0.60322
 C433 C 0.67817 0.63882 0.60139
 N434 N 0.69214 0.62109 0.60926
 C435 C 0.68140 0.61099 0.62855
 H436 H 0.65364 0.59334 0.67664
 H437 H 0.59737 0.64292 0.67947
 H438 H 0.59373 0.67852 0.64426
 H439 H 0.64437 0.68193 0.58796
 H440 H 0.68236 0.65042 0.58659
 H441 H 0.68887 0.59703 0.63922
 C442 C 0.64922 1.13459 1.16905
 C443 C 0.66797 1.13712 1.15245
 C444 C 0.66750 1.15532 1.13588
 C445 C 0.64846 1.17116 1.13564
 C446 C 0.63030 1.16863 1.15202
 C447 C 0.63043 1.15006 1.16838
 C448 C 0.64502 1.11960 1.18809
 N449 N 0.62383 1.12538 1.19850
 C450 C 0.61496 1.14406 1.18631
 C451 C 0.61542 1.18751 1.14942
 N452 N 0.62385 1.20158 1.13155
 C453 C 0.64397 1.19140 1.12277
 C454 C 0.68819 1.15430 1.12281
 N455 N 0.70120 1.13584 1.13076
 C456 C 0.68896 1.12519 1.14887
 H457 H 0.65645 1.10537 1.19360
 H458 H 0.59896 1.15361 1.19080
 H459 H 0.59956 1.19061 1.15992
 H460 H 0.65548 1.19891 1.10916
 H461 H 0.69338 1.16613 1.10849
 H462 H 0.69512 1.11022 1.15904
 C463 C 0.13321 0.62170 1.15021
 C464 C 0.15261 0.62453 1.13464
 C465 C 0.15247 0.64226 1.11771
 C466 C 0.13286 0.65722 1.11600
 C467 C 0.11347 0.65396 1.13085
 C468 C 0.11366 0.63607 1.14813
 C469 C 0.12988 0.60825 1.17030
 N470 N 0.10872 0.61402 1.18065
 C471 C 0.09859 0.63085 1.16681
 C472 C 0.09804 0.67219 1.12657
 N473 N 0.10776 0.68684 1.10975
 C474 C 0.12907 0.67751 1.10315
 C475 C 0.17416 0.64204 1.10628
 N476 N 0.18736 0.62443 1.11570
 C477 C 0.17433 0.61371 1.13315
 H478 H 0.14239 0.59554 1.17696
 H479 H 0.08242 0.64025 1.17094
 H480 H 0.08181 0.67536 1.13644
 H481 H 0.14131 0.68489 1.09014
 H482 H 0.17988 0.65382 1.09211
 H483 H 0.18042 0.59945 1.14433
 C484 C 0.12779 1.11855 0.64611
 C485 C 0.14648 1.12177 0.62960
 C486 C 0.14492 1.13913 0.61223
 C487 C 0.12468 1.15343 0.61114
 C488 C 0.10637 1.14987 0.62721
 C489 C 0.10770 1.13214 0.64434
 C490 C 0.12561 1.10606 0.66710
 N491 N 0.10447 1.11158 0.67775
 C492 C 0.09345 1.12737 0.66358
 C493 C 0.09117 1.16854 0.62535
 N494 N 0.09962 1.18371 0.60846
 C495 C 0.11990 1.17421 0.59921
 C496 C 0.16629 1.13975 0.60016
 N497 N 0.18064 1.12299 0.60943
 C498 C 0.16871 1.11201 0.62751
 H499 H 0.13881 1.09439 0.67428
 H500 H 0.07727 1.13668 0.66795
 H501 H 0.07561 1.17125 0.63640
 H502 H 0.13179 1.18300 0.58673
 H503 H 0.17106 1.15159 0.58572
 H504 H 0.17590 1.09836 0.63875
 C505 C 1.36606 0.61490 0.34938
 C506 C 1.35040 0.61413 0.36873
 C507 C 1.34833 0.63338 0.38357
 C508 C 1.36272 0.65347 0.37954
 C509 C 1.37785 0.65431 0.36009
 C510 C 1.37932 0.63497 0.34475
 C511 C 1.36952 0.59969 0.33089
 N512 N 1.38429 0.61014 0.31465
 C513 C 1.39041 0.63180 0.32317
 C514 C 1.38851 0.67623 0.35970
 N515 N 1.38081 0.68879 0.37880
 C516 C 1.36481 0.67487 0.39089
 C517 C 1.32897 0.62901 0.39823
 N518 N 1.31951 0.60766 0.39252
 C519 C 1.33273 0.59840 0.37470
 H520 H 1.36034 0.58303 0.32876
 H521 H 1.40188 0.64461 0.31437
 H522 H 1.40166 0.68202 0.34677
 H523 H 1.35483 0.67995 0.40651
 H524 H 1.32134 0.64118 0.41091
 H525 H 1.32840 0.58243 0.36523
 C526 C 1.37060 1.12331 0.84721
 C527 C 1.35281 1.12398 0.86486
 C528 C 1.35455 1.13985 0.88324
 C529 C 1.37397 1.15530 0.88416
 C530 C 1.39170 1.15419 0.86715
 C531 C 1.38987 1.13837 0.84847
 C532 C 1.37216 1.11225 0.82564
 N533 N 1.39164 1.12065 0.81385
 C534 C 1.40260 1.13651 0.82773
 C535 C 1.40711 1.17251 0.87099
 N536 N 1.39889 1.18534 0.88960
 C537 C 1.37860 1.17474 0.89781
 C538 C 1.33416 1.13784 0.89676
 N539 N 1.32005 1.12117 0.88710
 C540 C 1.33126 1.11272 0.86747
 H541 H 1.35920 1.10037 0.81835
 H542 H 1.41804 1.14686 0.82260
 H543 H 1.42197 1.17730 0.85959
 H544 H 1.36757 1.18089 0.91230
 H545 H 1.32964 1.14828 0.91212
 H546 H 1.32423 1.09942 0.85587
 C547 C 0.85512 0.63570 0.83470
 C548 C 0.83732 0.63692 0.85238
 C549 C 0.83887 0.65376 0.86994
 C550 C 0.85822 0.66929 0.87033
 C551 C 0.87579 0.66784 0.85317
 C552 C 0.87412 0.65120 0.83522
 C553 C 0.85738 0.62313 0.81396
 N554 N 0.87701 0.63105 0.80204
 C555 C 0.88734 0.64810 0.81499
 C556 C 0.89137 0.68611 0.85663
 N557 N 0.88359 0.69878 0.87543
 C558 C 0.86329 0.68865 0.88394
 C559 C 0.81852 0.65235 0.88351
 N560 N 0.80461 0.63497 0.87485
 C561 C 0.81595 0.62539 0.85582
 H562 H 0.84501 0.61021 0.80741
 H563 H 0.90295 0.65810 0.80967
 H564 H 0.90653 0.69065 0.84550
 H565 H 0.85263 0.69530 0.89849
 H566 H 0.81405 0.66333 0.89850
 H567 H 0.80882 0.61163 0.84482
 C568 C 0.86121 1.12436 0.33691
 C569 C 0.84178 1.12409 0.35272
 C570 C 0.84090 1.13970 0.37149
 C571 C 0.85961 1.15588 0.37463
 C572 C 0.87881 1.15570 0.35914
 C573 C 0.87948 1.14018 0.34017
 C574 C 0.86603 1.11278 0.31603
 N575 N 0.88655 1.12164 0.30663
 C576 C 0.89490 1.13833 0.32132
 C577 C 0.89383 1.17355 0.36528
 N578 N 0.88433 1.18495 0.38408
 C579 C 0.86328 1.17445 0.38995
 C580 C 0.81957 1.13588 0.38321
 N581 N 0.80755 1.11849 0.37197
 C582 C 0.82104 1.11130 0.35328
 H583 H 0.85488 1.09984 0.30767
 H584 H 0.91067 1.14889 0.31811
 H585 H 0.91005 1.17860 0.35606
 H586 H 0.85137 1.18020 0.40393
 H587 H 0.81307 1.14542 0.39848
 H588 H 0.81620 1.09765 0.34097
 C589 C 0.64883 0.37557 0.34107
 C590 C 0.66459 0.37498 0.35990
 C591 C 0.66241 0.35737 0.37680
 C592 C 0.64473 0.34025 0.37531
 C593 C 0.62957 0.34020 0.35651
 C594 C 0.63175 0.35807 0.33907
 C595 C 0.64689 0.39050 0.32192
 N596 N 0.62929 0.38248 0.30795
 C597 C 0.62013 0.36246 0.31835
 C598 C 0.61512 0.32049 0.35953
 N599 N 0.62119 0.30917 0.37982
 C600 C 0.63937 0.32112 0.38938
 C601 C 0.68108 0.35934 0.39163
 N602 N 0.69490 0.37763 0.38410
 C603 C 0.68482 0.38760 0.36486
 H604 H 0.65820 0.40560 0.31813
 H605 H 0.60557 0.35210 0.31183
 H606 H 0.60124 0.31488 0.34795
 H607 H 0.64838 0.31596 0.40527
 H608 H 0.68497 0.34755 0.40618
 H609 H 0.69252 0.40182 0.35430
 C610 C 0.63598 0.88180 0.84583
 C611 C 0.65502 0.88326 0.86123
 C612 C 0.65779 0.86615 0.87858
 C613 C 0.64144 0.84745 0.88088
 C614 C 0.62266 0.84616 0.86571
 C615 C 0.61984 0.86345 0.84820
 C616 C 0.62994 0.89467 0.82614
 N617 N 0.61047 0.88462 0.81669
 C618 C 0.60412 0.86557 0.83014
 C619 C 0.61067 0.82549 0.87070
 N620 N 0.62159 0.81415 0.88861
 C621 C 0.64038 0.82751 0.89508
 C622 C 0.67849 0.87123 0.88985
 N623 N 0.68824 0.89107 0.87992
 C624 C 0.67397 0.89855 0.86241
 H625 H 0.63935 0.90987 0.81889
 H626 H 0.58981 0.85349 0.82637
 H627 H 0.59530 0.81898 0.86168
 H628 H 0.65288 0.82260 0.90844
 H629 H 0.68599 0.86114 0.90416
 H630 H 0.67749 0.91359 0.85090
 C631 C 0.14983 0.37839 0.83754
 C632 C 0.16540 0.38006 0.85630
 C633 C 0.16383 0.36405 0.87477
 C634 C 0.14653 0.34630 0.87486
 C635 C 0.13097 0.34463 0.85640
 C636 C 0.13248 0.36109 0.83760
 C637 C 0.14856 0.39074 0.81672
 N638 N 0.13052 0.38185 0.80394
 C639 C 0.12047 0.36373 0.81678
 C640 C 0.11748 0.32452 0.86055
 N641 N 0.12445 0.31427 0.88107
 C642 C 0.14216 0.32757 0.88989
 C643 C 0.18223 0.36874 0.88951
 N644 N 0.19475 0.38737 0.88046
 C645 C 0.18454 0.39446 0.86017
 H646 H 0.15978 0.40556 0.81166
 H647 H 0.10619 0.35249 0.81107
 H648 H 0.10395 0.31761 0.84924
 H649 H 0.15191 0.32333 0.90559
 H650 H 0.18648 0.35904 0.90540
 H651 H 0.19119 0.40839 0.84857
 C652 C 0.15207 0.87100 0.32881
 C653 C 0.16750 0.87251 0.34761
 C654 C 0.16711 0.85533 0.36498
 C655 C 0.15109 0.83650 0.36390
 C656 C 0.13526 0.83513 0.34561
 C657 C 0.13569 0.85279 0.32779
 C658 C 0.15055 0.88421 0.30860
 N659 N 0.13333 0.87499 0.29503
 C660 C 0.12389 0.85586 0.30684
 C661 C 0.12312 0.81395 0.34867
 N662 N 0.13158 0.80266 0.36805
 C663 C 0.14858 0.81642 0.37742
 C664 C 0.18517 0.86033 0.38002
 N665 N 0.19633 0.88030 0.37218
 C666 C 0.18563 0.88788 0.35234
 H667 H 0.16117 0.89970 0.30436
 H668 H 0.11042 0.84418 0.30016
 H669 H 0.10997 0.80677 0.33709
 H670 H 0.15880 0.81185 0.39272
 H671 H 0.19004 0.85002 0.39533
 H672 H 0.19123 0.90292 0.34164
 O673 O 0.97442 0.92370 0.87595
 O674 O 0.97363 0.89659 0.84822
 C675 C 0.96570 0.91559 0.85715
 C676 C 0.94551 0.92798 0.84623
 C677 C 0.93521 0.91937 0.82557
 H678 H 0.94252 0.90387 0.81705
 O679 O 1.02553 1.08777 0.87779
 O680 O 1.02573 1.11648 0.85120
 C681 C 1.03361 1.09682 0.85869
 C682 C 1.05293 1.08449 0.84578
 C683 C 1.06060 1.09168 0.82302
 H684 H 1.05199 1.10633 0.81431
 O685 O 0.88009 0.98540 0.91389
 O686 O 0.85177 0.98680 0.88780
 C687 C 0.86044 0.97794 0.90637
 C688 C 0.84816 0.95823 0.91910
 C689 C 0.82647 0.94919 0.91129
 H690 H 0.81820 0.95708 0.89609
 O691 O 1.12127 1.02655 0.90899
 O692 O 1.14855 1.02681 0.88063
 C693 C 1.14055 1.03455 0.90018
 C694 C 1.15349 1.05339 0.91259
 C695 C 1.17597 1.06080 0.90456
 H696 H 1.18435 1.05185 0.88981
 O697 O 0.91381 0.89083 0.97381
 O698 O 0.88616 0.86318 0.97419
 C699 C 0.90529 0.87184 0.96565
 C700 C 0.91734 0.85994 0.94567
 C701 C 0.90881 0.83819 0.93773
 H702 H 0.89416 0.82964 0.94705
 O703 O 1.09007 1.11949 0.97225
 O704 O 1.11773 1.14711 0.97133
 C705 C 1.09842 1.13875 0.96379
 C706 C 1.08579 1.15104 0.94456
 C707 C 1.09370 1.17315 0.93572
 H708 H 1.10890 1.18168 0.94332
 O709 O 0.91347 1.03101 0.88084
 O710 O 0.88556 1.03259 0.85431
 C711 C 0.90535 1.03959 0.86190
 C712 C 0.91898 1.05827 0.84905
 C713 C 0.91240 1.06610 0.82653
 H714 H 0.89799 1.05723 0.81796
 O715 O 1.08747 0.98159 0.87735
 O716 O 1.11477 0.98172 0.84900
 C717 C 1.09527 0.97405 0.85766
 C718 C 1.08166 0.95607 0.84476
 C719 C 1.08916 0.94896 0.82221
 H720 H 1.10448 0.95735 0.81393
 O721 O 1.02095 0.89088 0.90674
 O722 O 1.02005 0.86368 0.87909
 C723 C 1.02859 0.87166 0.89801
 C724 C 1.04787 0.85859 0.90967
 C725 C 1.05456 0.83615 0.90151
 H726 H 1.04544 0.82845 0.88680
 O727 O 0.98125 1.11844 0.91427
 O728 O 0.98118 1.14747 0.88802
 C729 C 0.97364 1.13834 0.90737
 C730 C 0.95567 1.15095 0.92180
 C731 C 0.94972 1.17428 0.91597
 H732 H 0.95847 1.18304 0.90112
 O733 O 0.88448 1.08953 0.98070
 O734 O 0.85818 1.11823 0.98204
 C735 C 0.86561 1.09895 0.97332
 C736 C 0.85269 1.08793 0.95377
 C737 C 0.83102 1.09728 0.94654
 H738 H 0.82295 1.11139 0.95663
 O739 O 1.11991 0.91732 0.96859
 O740 O 1.14671 0.88909 0.96689
 C741 C 1.13915 0.90909 0.96017
 C742 C 1.15237 0.92278 0.94194
 C743 C 1.17598 0.91749 0.93604
 H744 H 1.18500 0.90398 0.94602
 O745 O 0.97919 1.08934 0.87928
 O746 O 0.97940 1.11817 0.85282
 C747 C 0.97088 1.09884 0.86081
 C748 C 0.95087 1.08747 0.84875
 C749 C 0.94352 1.09572 0.82665
 H750 H 0.95255 1.11077 0.81866
 O751 O 1.02085 0.92373 0.87482
 O752 O 1.02021 0.89672 0.84698
 C753 C 1.02884 0.91556 0.85546
 C754 C 1.04899 0.92770 0.84335
 C755 C 1.05693 0.92063 0.82083
 H756 H 1.04781 0.90654 0.81185
 O757 O 1.12077 0.98046 0.90808
 O758 O 1.14823 0.98078 0.87988
 C759 C 1.13994 0.97255 0.89923
 C760 C 1.15252 0.95354 0.91167
 C761 C 1.17586 0.94766 0.90539
 H762 H 1.18449 0.95694 0.89080
 O763 O 0.88222 1.03158 0.91495
 O764 O 0.85407 1.03330 0.88871
 C765 C 0.86318 1.04059 0.90764
 C766 C 0.85178 1.05992 0.92121
 C767 C 0.83051 1.07003 0.91377
 H768 H 0.82261 1.06368 0.89780
 O769 O 0.91955 1.11908 0.98028
 O770 O 0.89350 1.14802 0.98144
 C771 C 0.91231 1.13892 0.97279
 C772 C 0.92571 1.15132 0.95359
 C773 C 0.91999 1.17466 0.94733
 H774 H 0.90617 1.18390 0.95701
 O775 O 1.08525 0.88707 0.96702
 O776 O 1.11178 0.85863 0.96495
 C777 C 1.09275 0.86801 0.95786
 C778 C 1.07928 0.85679 0.93866
 C779 C 1.08553 0.83423 0.93032
 H780 H 1.09984 0.82471 0.93847
 O781 O 1.08846 1.02738 0.87787
 O782 O 1.11564 1.02750 0.84940
 C783 C 1.09653 1.03543 0.85835
 C784 C 1.08372 1.05437 0.84602
 C785 C 1.09091 1.06142 0.82331
 H786 H 1.10521 1.05209 0.81450
 O787 O 0.91222 0.98516 0.88085
 O788 O 0.88408 0.98652 0.85454
 C789 C 0.90326 0.97776 0.86193
 C790 C 0.91493 0.95837 0.84878
 C791 C 0.90506 0.94970 0.82807
 H792 H 0.88953 0.95815 0.82105
 O793 O 1.02719 1.11894 0.91101
 O794 O 1.02697 1.14769 0.88447
 C795 C 1.03532 1.13850 0.90301
 C796 C 1.05496 1.15062 0.91495
 C797 C 1.06308 1.17264 0.90649
 H798 H 1.05427 1.18110 0.89191
 O799 O 0.97486 0.89134 0.90849
 O800 O 0.97393 0.86408 0.88090
 C801 C 0.96636 0.87228 0.90045
 C802 C 0.94706 0.85998 0.91374
 C803 C 0.93811 0.83820 0.90596
 H804 H 0.94567 0.82999 0.89036
 O805 O 1.12289 1.08767 0.97138
 O806 O 1.15072 1.11511 0.97076
 C807 C 1.14219 1.09599 0.96287
 C808 C 1.15437 1.08350 0.94324
 C809 C 1.17682 1.09085 0.93485
 H810 H 1.18555 1.10565 0.94307
 O811 O 0.88103 0.92270 0.97582
 O812 O 0.85338 0.89507 0.97627
 C813 C 0.86163 0.91456 0.96831
 C814 C 0.84890 0.92739 0.94958
 C815 C 0.82716 0.91883 0.94174
 H816 H 0.81902 0.90370 0.95056
 Cu817 Cu 0.99781 0.91021 0.89417
 Cu818 Cu 0.99690 0.87759 0.86097
 Cu819 Cu 1.00331 1.10061 0.89809
 Cu820 Cu 1.00323 1.13533 0.86648
 Cu821 Cu 0.89974 1.00820 0.90031
 Cu822 Cu 0.86598 1.01001 0.86874
 Cu823 Cu 1.10181 1.00393 0.89601
 Cu824 Cu 1.13456 1.00420 0.86186
 C825 C 0.93528 0.94758 0.85756
 H826 H 0.94279 0.95404 0.87371
 C827 C 0.91486 0.93008 0.81643
 C828 C 1.06460 1.06577 0.85702
 H829 H 1.05916 1.06038 0.87469
 C830 C 1.07969 1.08012 0.81166
 C831 C 0.85910 0.94726 0.93835
 H832 H 0.87603 0.95373 0.94417
 C833 C 0.81590 0.92934 0.92245
 C834 C 1.14298 1.06466 0.93208
 H835 H 1.12553 1.05916 0.93819
 C836 C 1.18781 1.07954 0.91551
 C837 C 0.93662 0.87064 0.93373
 H838 H 0.94310 0.88762 0.93963
 C839 C 0.91889 0.82729 0.91785
 C840 C 1.06629 1.14002 0.93411
 H841 H 1.06026 1.12287 0.94051
 C842 C 1.08247 1.18398 0.91655
 C843 C 0.93850 1.06877 0.85975
 H844 H 0.94373 1.06277 0.87706
 C845 C 0.92452 1.08495 0.81503
 C846 C 1.06142 0.94555 0.85508
 H847 H 1.05569 0.95082 0.87260
 C848 C 1.07704 0.93120 0.81013
 C849 C 1.06024 0.86873 0.92835
 H850 H 1.05536 0.88617 0.93454
 C851 C 1.07324 0.82373 0.91175
 C852 C 0.94378 1.13963 0.94083
 H853 H 0.94812 1.12150 0.94528
 C854 C 0.93196 1.18622 0.92859
 C855 C 0.86271 1.06901 0.94125
 H856 H 0.87944 1.06177 0.94673
 C857 C 0.81980 1.08867 0.92640
 C858 C 1.14098 0.94105 0.92995
 H859 H 1.12277 0.94520 0.93447
 C860 C 1.18803 0.92992 0.91775
 O861 O 1.02670 0.91379 1.10939
 O862 O 1.02659 0.88511 1.13600
 C863 C 1.03490 0.90460 1.12798
 C864 C 1.05422 0.91664 1.14049
 C865 C 1.06127 0.90819 1.16253
 H866 H 1.05288 0.89242 1.16977
 O867 O 0.98452 1.08487 1.11620
 O868 O 0.98516 1.11137 1.14455
 C869 C 0.97711 1.09224 1.13612
 C870 C 0.95864 1.07854 1.14925
 C871 C 0.95273 1.08379 1.17286
 H872 H 0.96230 1.09752 1.18190
 O873 O 0.88692 1.02456 1.08793
 O874 O 0.86029 1.02435 1.11689
 C875 C 0.86816 1.03278 1.09741
 C876 C 0.85556 1.05246 1.08570
 C877 C 0.83325 1.05976 1.09401
 H878 H 0.82521 1.05088 1.10918
 O879 O 1.12160 0.97604 1.07814
 O880 O 1.14943 0.97436 1.10471
 C881 C 1.14043 0.96685 1.08579
 C882 C 1.15144 0.94673 1.07294
 C883 C 1.17213 0.93614 1.08124
 H884 H 1.18024 0.94303 1.09690
 O885 O 1.08556 0.88339 1.01283
 O886 O 1.11198 0.85483 1.01072
 C887 C 1.09304 0.86330 1.01950
 C888 C 1.08009 0.85005 1.03827
 C889 C 1.08730 0.82725 1.04473
 H890 H 1.10121 0.81872 1.03458
 O891 O 0.91859 1.11984 1.02621
 O892 O 0.89217 1.14842 1.02744
 C893 C 0.91114 1.13927 1.03472
 C894 C 0.92429 1.15090 1.05377
 C895 C 0.91650 1.17251 1.06328
 H896 H 0.90161 1.18143 1.05553
 O897 O 0.91870 0.97631 1.11734
 O898 O 0.89218 0.97594 1.14639
 C899 C 0.91083 0.96769 1.13677
 C900 C 0.92339 0.94761 1.14789
 C901 C 0.91573 0.93808 1.16979
 H902 H 0.90045 0.94557 1.17872
 O903 O 1.09167 1.02229 1.11264
 O904 O 1.11937 1.02109 1.13939
 C905 C 1.10036 1.02986 1.13167
 C906 C 1.08835 1.04949 1.14428
 C907 C 1.09646 1.05794 1.16604
 H908 H 1.11161 1.04981 1.17412
 O909 O 0.97858 0.88372 1.07877
 O910 O 0.97842 0.85495 1.10529
 C911 C 0.97001 0.86443 1.08688
 C912 C 0.94969 0.85331 1.07510
 C913 C 0.94029 0.83161 1.08333
 H914 H 0.94818 0.82280 1.09824
 O915 O 1.02945 1.11892 1.08255
 O916 O 1.02997 1.14597 1.11036
 C917 C 1.03758 1.13814 1.09067
 C918 C 1.05644 1.15103 1.07719
 C919 C 1.06359 1.17398 1.08356
 H920 H 1.05455 1.18282 1.09800
 O921 O 0.88189 0.92092 1.02185
 O922 O 0.85408 0.89345 1.02218
 C923 C 0.86276 0.91234 1.03042
 C924 C 0.85104 0.92417 1.05064
 C925 C 0.82863 0.91686 1.05905
 H926 H 0.81919 0.90316 1.04984
 O927 O 1.12225 1.08620 1.01740
 O928 O 1.14994 1.11378 1.01685
 C929 C 1.14156 1.09436 1.02500
 C930 C 1.15408 1.08149 1.04395
 C931 C 1.17599 1.08971 1.05165
 H932 H 1.18432 1.10459 1.04259
 O933 O 1.03041 1.08501 1.11364
 O934 O 1.03097 1.11193 1.14158
 C935 C 1.03875 1.09286 1.13266
 C936 C 1.05799 1.08009 1.14443
 C937 C 1.06592 1.08792 1.16620
 H938 H 1.05689 1.10245 1.17484
 O939 O 0.98064 0.91419 1.11248
 O940 O 0.98066 0.88547 1.13906
 C941 C 0.97292 0.90523 1.13179
 C942 C 0.95416 0.91746 1.14551
 C943 C 0.94670 0.90860 1.16760
 H944 H 0.95602 0.89380 1.17525
 O945 O 1.12306 1.02251 1.07890
 O946 O 1.15103 1.02126 1.10534
 C947 C 1.14249 1.03023 1.08671
 C948 C 1.15466 1.05033 1.07426
 C949 C 1.17640 1.05927 1.08207
 H950 H 1.18455 1.05120 1.09724
 O951 O 0.88587 0.97859 1.08628
 O952 O 0.85917 0.97829 1.11518
 C953 C 0.86661 0.97084 1.09530
 C954 C 0.85308 0.95269 1.08261
 C955 C 0.83079 0.94509 1.09097
 H956 H 0.82334 0.95274 1.10690
 O957 O 1.09073 1.11945 1.01837
 O958 O 1.11824 1.14721 1.01752
 C959 C 1.09907 1.13873 1.02612
 C960 C 1.08652 1.15116 1.04558
 C961 C 1.09353 1.17396 1.05229
 H962 H 1.10818 1.18251 1.04300
 O963 O 0.91423 0.88852 1.01977
 O964 O 0.88645 0.86103 1.02001
 C965 C 0.90591 0.86895 1.02752
 C966 C 0.91856 0.85555 1.04594
 C967 C 0.90971 0.83367 1.05412
 H968 H 0.89442 0.82601 1.04587
 O969 O 1.08964 0.97621 1.11134
 O970 O 1.11714 0.97468 1.13828
 C971 C 1.09765 0.96731 1.13019
 C972 C 1.08443 0.94765 1.14215
 C973 C 1.09070 0.93937 1.16467
 H974 H 1.10444 0.94850 1.17402
 O975 O 0.92129 1.02242 1.11729
 O976 O 0.89488 1.02211 1.14646
 C977 C 0.91407 1.02989 1.13718
 C978 C 0.92793 1.04799 1.14956
 C979 C 0.92225 1.05352 1.17299
 H980 H 0.90775 1.04432 1.18191
 O981 O 0.98326 1.11807 1.08453
 O982 O 0.98380 1.14470 1.11275
 C983 C 0.97523 1.13686 1.09382
 C984 C 0.95543 1.14948 1.08283
 C985 C 0.94706 1.17073 1.09247
 H986 H 0.95531 1.17777 1.10799
 O987 O 1.02467 0.88160 1.07710
 O988 O 1.02456 0.85280 1.10359
 C989 C 1.03230 0.86174 1.08433
 C990 C 1.05075 0.84932 1.07037
 C991 C 1.05863 0.82669 1.07706
 H992 H 1.05093 0.81811 1.09255
 O993 O 1.11838 0.91538 1.01448
 O994 O 1.14488 0.88689 1.01283
 C995 C 1.13715 0.90594 1.02198
 C996 C 1.14978 0.91693 1.04185
 C997 C 1.17067 0.90683 1.05029
 H998 H 1.17816 0.89158 1.04147
 O999 O 0.88580 1.08761 1.02681
 O1000 O 0.85924 1.11606 1.02822
 C1001 C 0.86704 1.09634 1.03573
 C1002 C 0.85478 1.08353 1.05543
 C1003 C 0.83235 1.09055 1.06392
 H1004 H 0.82335 1.10505 1.05536
 Cu1005 Cu 1.00270 0.90116 1.09172
 Cu1006 Cu 1.00261 0.86669 1.12364
 Cu1007 Cu 1.00687 1.09910 1.09635
 Cu1008 Cu 1.00756 1.13122 1.13010
 Cu1009 Cu 0.90048 0.90856 0.99783
 Cu1010 Cu 0.86725 0.87540 0.99817
 Cu1011 Cu 1.09964 0.90366 0.99085
 Cu1012 Cu 1.13149 0.86951 0.98860
 Cu1013 Cu 0.90465 1.10111 1.00345
 Cu1014 Cu 0.87312 1.13552 1.00485
 Cu1015 Cu 1.10372 1.10048 0.99490
 Cu1016 Cu 1.13692 1.13357 0.99411
 Cu1017 Cu 0.90585 1.00045 1.09932
 Cu1018 Cu 0.87399 1.00021 1.13418
 Cu1019 Cu 1.10379 0.99945 1.09262
 Cu1020 Cu 1.13711 0.99765 1.12451
 C1021 C 1.06585 0.93639 1.13046
 H1022 H 1.06079 0.94264 1.11318
 C1023 C 1.07911 0.91959 1.17514
 C1024 C 0.94631 1.06039 1.13787
 H1025 H 0.95055 1.05637 1.11963
 C1026 C 0.93463 1.07116 1.18491
 C1027 C 0.86606 1.06433 1.06633
 H1028 H 0.88340 1.05892 1.06004
 C1029 C 0.82132 1.07860 1.08313
 C1030 C 1.14046 0.93703 1.05317
 H1031 H 1.12425 0.94479 1.04691
 C1032 C 1.18194 0.91620 1.07005
 C1033 C 1.06155 0.86078 1.05089
 H1034 H 1.05605 0.87848 1.04604
 C1035 C 1.07699 0.81549 1.06433
 C1036 C 0.94400 1.13974 1.06345
 H1037 H 0.95005 1.12304 1.05631
 C1038 C 0.92767 1.18253 1.08281
 C1039 C 0.94265 0.93716 1.13597
 H1040 H 0.94830 0.94397 1.11884
 C1041 C 0.92731 0.91849 1.17984
 C1042 C 1.06908 1.06074 1.13371
 H1043 H 1.06299 1.05477 1.11677
 C1044 C 1.08533 1.07737 1.17703
 C1045 C 0.93873 0.86509 1.05634
 H1046 H 0.94552 0.88207 1.05025
 C1047 C 0.92022 0.82165 1.07300
 C1048 C 1.06786 1.13996 1.05801
 H1049 H 1.06261 1.12224 1.05310
 C1050 C 1.08203 1.18571 1.07105
 C1051 C 0.86293 0.94227 1.06236
 H1052 H 0.88031 0.94781 1.05607
 C1053 C 0.81831 0.92728 1.07922
 C1054 C 1.14372 1.06161 1.05515
 H1055 H 1.12673 1.05528 1.04933
 C1056 C 1.18726 1.07903 1.07086
 O1057 O 0.98132 0.40740 0.38396
 O1058 O 0.98251 0.37933 0.35716
 C1059 C 0.97399 0.39865 0.36483
 C1060 C 0.95493 0.41071 0.35171
 C1061 C 0.94701 0.40149 0.33030
 H1062 H 0.95611 0.38647 0.32272
 O1063 O 1.02682 0.58167 0.37634
 O1064 O 1.02797 0.60885 0.34819
 C1065 C 1.03559 0.58970 0.35708
 C1066 C 1.05502 0.57665 0.34520
 C1067 C 1.06301 0.58306 0.32239
 H1068 H 1.05492 0.59788 0.31346
 O1069 O 0.88822 0.47413 0.41114
 O1070 O 0.86072 0.47331 0.38415
 C1071 C 0.86868 0.46629 0.40379
 C1072 C 0.85517 0.44871 0.41809
 C1073 C 0.83165 0.44362 0.41278
 H1074 H 0.82346 0.45273 0.39821
 O1075 O 1.12075 0.52105 0.41174
 O1076 O 1.14893 0.52082 0.38429
 C1077 C 1.14014 0.52915 0.40331
 C1078 C 1.15203 0.54872 0.41582
 C1079 C 1.17483 0.55672 0.40906
 H1080 H 1.18435 0.54831 0.39465
 O1081 O 0.91618 0.38004 0.47649
 O1082 O 0.88795 0.35300 0.47701
 C1083 C 0.90760 0.36078 0.46895
 C1084 C 0.92042 0.34742 0.45045
 C1085 C 0.91150 0.32576 0.44270
 H1086 H 0.89563 0.31842 0.45096
 O1087 O 1.08554 0.61624 0.47180
 O1088 O 1.11290 0.64416 0.47143
 C1089 C 1.09395 0.63553 0.46339
 C1090 C 1.08168 0.64763 0.44377
 C1091 C 1.08829 0.67060 0.43614
 H1092 H 1.10210 0.68004 0.44513
 O1093 O 0.92124 0.51785 0.37516
 O1094 O 0.89423 0.51668 0.34773
 C1095 C 0.91328 0.52517 0.35563
 C1096 C 0.92591 0.54448 0.34271
 C1097 C 0.91890 0.55204 0.32022
 H1098 H 0.90482 0.54275 0.31148
 O1099 O 1.08879 0.47385 0.38184
 O1100 O 1.11632 0.47328 0.35373
 C1101 C 1.09694 0.46550 0.36265
 C1102 C 1.08360 0.44651 0.35082
 C1103 C 1.08778 0.44143 0.32687
 H1104 H 1.10062 0.45183 0.31680
 O1105 O 1.02771 0.37655 0.41703
 O1106 O 1.02904 0.34859 0.39015
 C1107 C 1.03682 0.35766 0.40891
 C1108 C 1.05721 0.34674 0.42097
 C1109 C 1.06723 0.32546 0.41278
 H1110 H 1.05964 0.31678 0.39775
 O1111 O 0.97970 0.61417 0.40731
 O1112 O 0.98071 0.64159 0.37941
 C1113 C 0.97212 0.63346 0.39872
 C1114 C 0.95301 0.64639 0.41131
 C1115 C 0.94580 0.66879 0.40344
 H1116 H 0.95434 0.67665 0.38799
 O1117 O 0.88759 0.58229 0.47023
 O1118 O 0.85970 0.60945 0.46974
 C1119 C 0.86867 0.59045 0.46175
 C1120 C 0.85726 0.57827 0.44195
 C1121 C 0.83623 0.58720 0.43289
 H1122 H 0.82783 0.60228 0.44119
 O1123 O 1.12227 0.41591 0.47745
 O1124 O 1.15033 0.38896 0.47872
 C1125 C 1.14203 0.40798 0.47016
 C1126 C 1.15491 0.42076 0.45101
 C1127 C 1.17856 0.41550 0.44523
 H1128 H 1.18791 0.40272 0.45584
 O1129 O 0.98089 0.58145 0.37540
 O1130 O 0.98195 0.60870 0.34733
 C1131 C 0.97372 0.58941 0.35581
 C1132 C 0.95536 0.57620 0.34306
 C1133 C 0.94817 0.58356 0.32064
 H1134 H 0.95636 0.59900 0.31244
 O1135 O 1.02710 0.40947 0.38527
 O1136 O 1.02824 0.38180 0.35803
 C1137 C 1.03545 0.40148 0.36603
 C1138 C 1.05360 0.41525 0.35271
 C1139 C 1.05821 0.41027 0.32895
 H1140 H 1.04870 0.39600 0.32066
 O1141 O 1.12170 0.47514 0.41293
 O1142 O 1.14963 0.47463 0.38523
 C1143 C 1.14124 0.46727 0.40489
 C1144 C 1.15424 0.44943 0.41866
 C1145 C 1.17770 0.44365 0.41273
 H1146 H 1.18615 0.45211 0.39755
 O1147 O 0.88895 0.51998 0.40802
 O1148 O 0.86173 0.51922 0.38076
 C1149 C 0.86997 0.52800 0.39948
 C1150 C 0.85775 0.54799 0.41132
 C1151 C 0.83659 0.55729 0.40248
 H1152 H 0.82877 0.54960 0.38703
 O1153 O 0.91828 0.61627 0.47074
 O1154 O 0.89049 0.64353 0.47034
 C1155 C 0.90997 0.63541 0.46241
 C1156 C 0.92279 0.64765 0.44270
 C1157 C 0.91582 0.67015 0.43464
 H1158 H 0.90158 0.67933 0.44371
 O1159 O 1.09088 0.38210 0.47693
 O1160 O 1.11888 0.35510 0.47798
 C1161 C 1.09979 0.36281 0.46947
 C1162 C 1.08807 0.34942 0.45045
 C1163 C 1.09755 0.32790 0.44227
 H1164 H 1.11288 0.32058 0.45074
 O1165 O 1.08920 0.51982 0.37935
 O1166 O 1.11711 0.51933 0.35162
 C1167 C 1.09767 0.52731 0.35974
 C1168 C 1.08504 0.54581 0.34647
 C1169 C 1.09238 0.55198 0.32346
 H1170 H 1.10648 0.54205 0.31501
 O1171 O 0.92087 0.47148 0.37870
 O1172 O 0.89362 0.47009 0.35152
 C1173 C 0.91249 0.46210 0.36038
 C1174 C 0.92463 0.44140 0.34967
 C1175 C 0.91638 0.43131 0.32879
 H1176 H 0.90090 0.43874 0.32070
 O1177 O 1.02562 0.61398 0.40835
 O1178 O 1.02667 0.64139 0.38042
 C1179 C 1.03389 0.63327 0.39994
 C1180 C 1.05224 0.64628 0.41285
 C1181 C 1.05901 0.66911 0.40556
 H1182 H 1.05060 0.67715 0.39051
 O1183 O 0.98111 0.37553 0.41721
 O1184 O 0.98219 0.34743 0.39048
 C1185 C 0.97326 0.35617 0.40921
 C1186 C 0.95279 0.34459 0.42142
 C1187 C 0.94357 0.32279 0.41381
 H1188 H 0.95207 0.31352 0.39932
 O1189 O 1.11746 0.58346 0.47289
 O1190 O 1.14492 0.61126 0.47270
 C1191 C 1.13690 0.59186 0.46493
 C1192 C 1.15013 0.57927 0.44614
 C1193 C 1.17270 0.58705 0.43910
 H1194 H 1.18079 0.60177 0.44811
 O1195 O 0.88483 0.41347 0.47615
 O1196 O 0.85638 0.38665 0.47695
 C1197 C 0.86534 0.40573 0.46860
 C1198 C 0.85334 0.41902 0.44967
 C1199 C 0.82972 0.41416 0.44411
 H1200 H 0.81985 0.40095 0.45420
 Cu1201 Cu 1.00410 0.39483 0.40372
 Cu1202 Cu 1.00570 0.36137 0.37137
 Cu1203 Cu 1.00309 0.59505 0.39462
 Cu1204 Cu 1.00442 0.62791 0.36103
 Cu1205 Cu 0.90765 0.49600 0.39585
 Cu1206 Cu 0.87491 0.49463 0.36322
 Cu1207 Cu 1.10236 0.49749 0.39924
 Cu1208 Cu 1.13580 0.49690 0.36591
 C1209 C 0.94387 0.43091 0.36101
 H1210 H 0.94990 0.43815 0.37746
 C1211 C 0.92750 0.41137 0.31874
 C1212 C 1.06613 0.55798 0.35706
 H1213 H 1.06044 0.55329 0.37485
 C1214 C 1.08165 0.57071 0.31126
 C1215 C 0.86581 0.43654 0.43672
 H1216 H 0.88409 0.44027 0.44070
 C1217 C 0.81868 0.42660 0.42579
 C1218 C 1.13999 0.56003 0.43453
 H1219 H 1.12237 0.55422 0.43975
 C1220 C 1.18516 0.57601 0.42065
 C1221 C 0.94115 0.35657 0.43992
 H1222 H 0.94785 0.37349 0.44571
 C1223 C 0.92277 0.31337 0.42437
 C1224 C 1.06348 0.63578 0.43210
 H1225 H 1.05843 0.61804 0.43763
 C1226 C 1.07678 0.68158 0.41715
 C1227 C 0.94432 0.55651 0.35377
 H1228 H 0.94960 0.55099 0.37121
 C1229 C 0.93005 0.57154 0.30896
 C1230 C 1.06622 0.43351 0.36351
 H1231 H 1.06281 0.43732 0.38196
 C1232 C 1.07487 0.42351 0.31572
 C1233 C 1.06776 0.35848 0.43985
 H1234 H 1.06046 0.37509 0.44595
 C1235 C 1.08741 0.31576 0.42332
 C1236 C 0.94155 0.63610 0.43104
 H1237 H 0.94686 0.61868 0.43698
 C1238 C 0.92737 0.68097 0.41506
 C1239 C 0.86785 0.55857 0.43116
 H1240 H 0.88428 0.55180 0.43792
 C1241 C 0.82589 0.57706 0.41310
 C1242 C 1.14308 0.43798 0.43785
 H1243 H 1.12482 0.44208 0.44220
 C1244 C 1.19022 0.42696 0.42610
 O1245 O 1.02258 0.41424 0.61725
 O1246 O 1.02209 0.38608 0.64440
 C1247 C 1.03027 0.40556 0.63632
 C1248 C 1.04901 0.41820 0.64911
 C1249 C 1.05612 0.41026 0.67134
 H1250 H 1.04800 0.39447 0.67886
 O1251 O 0.97639 0.58476 0.61579
 O1252 O 0.97532 0.61301 0.64240
 C1253 C 0.96786 0.59332 0.63474
 C1254 C 0.94863 0.58032 0.64737
 C1255 C 0.94087 0.58681 0.67012
 H1256 H 0.94971 0.60106 0.67911
 O1257 O 0.88485 0.52177 0.58118
 O1258 O 0.85611 0.52215 0.60806
 C1259 C 0.86514 0.52966 0.58867
 C1260 C 0.85257 0.54772 0.57474
 C1261 C 0.82910 0.55345 0.58051
 H1262 H 0.82033 0.54464 0.59533
 O1263 O 1.11745 0.47681 0.58727
 O1264 O 1.14454 0.47762 0.61463
 C1265 C 1.13659 0.46900 0.59573
 C1266 C 1.14928 0.44931 0.58371
 C1267 C 1.17015 0.43974 0.59304
 H1268 H 1.17731 0.44705 0.60899
 O1269 O 1.08749 0.38413 0.52272
 O1270 O 1.11488 0.35644 0.52368
 C1271 C 1.09519 0.36478 0.53093
 C1272 C 1.08094 0.35166 0.54880
 C1273 C 1.08540 0.32770 0.55305
 H1274 H 1.10012 0.31945 0.54388
 O1275 O 0.91744 0.61504 0.51699
 O1276 O 0.88938 0.64202 0.51655
 C1277 C 0.90838 0.63395 0.52500
 C1278 C 0.91971 0.64643 0.54468
 C1279 C 0.91103 0.66840 0.55224
 H1280 H 0.89610 0.67618 0.54346
 O1281 O 0.91567 0.47639 0.61547
 O1282 O 0.88711 0.47685 0.64253
 C1283 C 0.90662 0.46866 0.63471
 C1284 C 0.91849 0.44940 0.64772
 C1285 C 0.90963 0.44174 0.66973
 H1286 H 0.89513 0.45130 0.67791
 O1287 O 1.08421 0.52357 0.61841
 O1288 O 1.11118 0.52443 0.64590
 C1289 C 1.09217 0.53228 0.63731
 C1290 C 1.07952 0.55225 0.64882
 C1291 C 1.08680 0.56120 0.67062
 H1292 H 1.10109 0.55263 0.67975
 O1293 O 0.97688 0.38261 0.58466
 O1294 O 0.97642 0.35442 0.61183
 C1295 C 0.96885 0.36305 0.59268
 C1296 C 0.95049 0.35020 0.57971
 C1297 C 0.94456 0.32689 0.58609
 H1298 H 0.95349 0.31842 0.60059
 O1299 O 1.02177 0.61684 0.58150
 O1300 O 1.02083 0.64569 0.60749
 C1301 C 1.02905 0.63680 0.58851
 C1302 C 1.04747 0.64947 0.57448
 C1303 C 1.05292 0.67323 0.57905
 H1304 H 1.04280 0.68262 0.59239
 O1305 O 0.88359 0.41308 0.52212
 O1306 O 0.85571 0.38567 0.52298
 C1307 C 0.86425 0.40487 0.53061
 C1308 C 0.85191 0.41749 0.54993
 C1309 C 0.83010 0.40917 0.55901
 H1310 H 0.82202 0.39361 0.55151
 O1311 O 1.11616 0.58407 0.51906
 O1312 O 1.14358 0.61191 0.51878
 C1313 C 1.13508 0.59266 0.52720
 C1314 C 1.14697 0.58060 0.54710
 C1315 C 1.16869 0.58915 0.55513
 H1316 H 1.17741 0.60352 0.54562
 O1317 O 1.02243 0.58583 0.61536
 O1318 O 1.02161 0.61436 0.64167
 C1319 C 1.03013 0.59499 0.63411
 C1320 C 1.04936 0.58309 0.64702
 C1321 C 1.05701 0.59190 0.66867
 H1322 H 1.04871 0.60755 0.67594
 O1323 O 0.97644 0.41400 0.61755
 O1324 O 0.97566 0.38604 0.64491
 C1325 C 0.96780 0.40539 0.63663
 C1326 C 0.94807 0.41801 0.64870
 C1327 C 0.93847 0.41007 0.67050
 H1328 H 0.94571 0.39445 0.67881
 O1329 O 1.11539 0.52300 0.58447
 O1330 O 1.14261 0.52413 0.61170
 C1331 C 1.13431 0.53171 0.59234
 C1332 C 1.14645 0.55119 0.57910
 C1333 C 1.16778 0.56055 0.58721
 H1334 H 1.17521 0.55343 0.60319
 O1335 O 0.88370 0.47574 0.58344
 O1336 O 0.85515 0.47631 0.61051
 C1337 C 0.86411 0.46790 0.59170
 C1338 C 0.85188 0.44839 0.57970
 C1339 C 0.82999 0.44002 0.58839
 H1340 H 0.82146 0.44879 0.60318
 O1341 O 1.08378 0.61644 0.51785
 O1342 O 1.11109 0.64443 0.51734
 C1343 C 1.09165 0.63602 0.52533
 C1344 C 1.07817 0.64899 0.54365
 C1345 C 1.08375 0.67259 0.54874
 H1346 H 1.09818 0.68124 0.53920
 O1347 O 0.91600 0.38103 0.52218
 O1348 O 0.88837 0.35336 0.52284
 C1349 C 0.90765 0.36173 0.53046
 C1350 C 0.92050 0.34932 0.54937
 C1351 C 0.91479 0.32589 0.55597
 H1352 H 0.90117 0.31645 0.54670
 O1353 O 1.08344 0.47725 0.61865
 O1354 O 1.11029 0.47791 0.64626
 C1355 C 1.09130 0.46948 0.63801
 C1356 C 1.07852 0.44984 0.65036
 C1357 C 1.08496 0.44208 0.67296
 H1358 H 1.09853 0.45165 0.68214
 O1359 O 0.91490 0.52249 0.61519
 O1360 O 0.88627 0.52285 0.64217
 C1361 C 0.90589 0.53066 0.63414
 C1362 C 0.91824 0.54961 0.64682
 C1363 C 0.91060 0.55631 0.66945
 H1364 H 0.89555 0.54739 0.67769
 O1365 O 0.97598 0.61592 0.58209
 O1366 O 0.97488 0.64444 0.60842
 C1367 C 0.96745 0.63533 0.58953
 C1368 C 0.94848 0.64716 0.57622
 C1369 C 0.93979 0.66935 0.58328
 H1370 H 0.94773 0.67829 0.59797
 O1371 O 1.02270 0.38255 0.58435
 O1372 O 1.02218 0.35403 0.61118
 C1373 C 1.03025 0.36282 0.59190
 C1374 C 1.04881 0.35031 0.57813
 C1375 C 1.05282 0.32597 0.58144
 H1376 H 1.04137 0.31611 0.59350
 O1377 O 1.12059 0.41572 0.52367
 O1378 O 1.14812 0.38824 0.52484
 C1379 C 1.13929 0.40738 0.53257
 C1380 C 1.15053 0.41949 0.55263
 C1381 C 1.17144 0.41046 0.56204
 H1382 H 1.18004 0.39560 0.55355
 O1383 O 0.88496 0.58263 0.51628
 O1384 O 0.85675 0.60946 0.51572
 C1385 C 0.86519 0.59034 0.52392
 C1386 C 0.85232 0.57719 0.54295
 C1387 C 0.82870 0.58261 0.54893
 H1388 H 0.81945 0.59593 0.53889
 Cu1389 Cu 0.99974 0.40124 0.59833
 Cu1390 Cu 0.99912 0.36736 0.63089
 Cu1391 Cu 0.99923 0.59794 0.59613
 Cu1392 Cu 0.99811 0.63223 0.62769
 Cu1393 Cu 0.90291 0.39968 0.49913
 Cu1394 Cu 0.86926 0.36694 0.49995
 Cu1395 Cu 1.10263 0.40227 0.49996
 Cu1396 Cu 1.13588 0.36950 0.50146
 Cu1397 Cu 0.90490 0.59640 0.49364
 Cu1398 Cu 0.87128 0.62883 0.49308
 Cu1399 Cu 1.09798 0.59729 0.49542
 Cu1400 Cu 1.13093 0.63066 0.49507
 Cu1401 Cu 0.90269 0.49910 0.59612
 Cu1402 Cu 0.86829 0.49967 0.62854
 Cu1403 Cu 1.09743 0.50001 0.59956
 Cu1404 Cu 1.12988 0.50111 0.63231
 C1405 C 1.06025 0.43800 0.63883
 H1406 H 1.05516 0.44384 0.62142
 C1407 C 1.07384 0.42220 0.68371
 C1408 C 0.93736 0.56153 0.63604
 H1409 H 0.94305 0.55656 0.61841
 C1410 C 0.92190 0.57471 0.68139
 C1411 C 0.86398 0.55951 0.55580
 H1412 H 0.88222 0.55533 0.55144
 C1413 C 0.81688 0.57063 0.56760
 C1414 C 1.13972 0.43905 0.56345
 H1415 H 1.12344 0.44591 0.55642
 C1416 C 1.18128 0.42013 0.58240
 C1417 C 1.06263 0.36287 0.56137
 H1418 H 1.05945 0.38156 0.55843
 C1419 C 1.07105 0.31436 0.56875
 C1420 C 0.93851 0.63599 0.55671
 H1421 H 0.94500 0.61884 0.55121
 C1422 C 0.92100 0.68012 0.57142
 C1423 C 0.93791 0.43770 0.63755
 H1424 H 0.94471 0.44356 0.62048
 C1425 C 0.91915 0.42187 0.68120
 C1426 C 1.06063 0.56319 0.63736
 H1427 H 1.05504 0.55653 0.62050
 C1428 C 1.07559 0.58102 0.68079
 C1429 C 0.93856 0.36121 0.56121
 H1430 H 0.94297 0.37931 0.55640
 C1431 C 0.92695 0.31447 0.57422
 C1432 C 1.05995 0.63762 0.55652
 H1433 H 1.05587 0.61926 0.55292
 C1434 C 1.07105 0.68500 0.56623
 C1435 C 0.86259 0.43719 0.56029
 H1436 H 0.87962 0.44342 0.55367
 C1437 C 0.81905 0.42029 0.57832
 C1438 C 1.13616 0.56134 0.55901
 H1439 H 1.11937 0.55467 0.55301
 C1440 C 1.17916 0.57949 0.57534
 O1441 O 0.47672 0.90784 0.39177
 O1442 O 0.47754 0.88000 0.36474
 C1443 C 0.46936 0.89940 0.37253
 C1444 C 0.45100 0.91215 0.35915
 C1445 C 0.44434 0.90418 0.33681
 H1446 H 0.45252 0.88844 0.32964
 O1447 O 0.52513 1.08022 0.38413
 O1448 O 0.52603 1.10665 0.35529
 C1449 C 0.53407 1.08795 0.36482
 C1450 C 0.55432 1.07523 0.35375
 C1451 C 0.56442 1.08297 0.33213
 H1452 H 0.55730 1.09846 0.32350
 O1453 O 0.38244 0.97317 0.41856
 O1454 O 0.35591 0.97157 0.39067
 C1455 C 0.36370 0.96437 0.41033
 C1456 C 0.35125 0.94517 0.42354
 C1457 C 0.32993 0.93585 0.41535
 H1458 H 0.32234 0.94302 0.39945
 O1459 O 0.61923 1.01878 0.42047
 O1460 O 0.64757 1.01736 0.39326
 C1461 C 0.63877 1.02644 0.41190
 C1462 C 0.65080 1.04654 0.42353
 C1463 C 0.67383 1.05377 0.41669
 H1464 H 0.68346 1.04403 0.40324
 O1465 O 0.41162 0.87871 0.48508
 O1466 O 0.38381 0.85124 0.48640
 C1467 C 0.40327 0.85915 0.47796
 C1468 C 0.41616 0.84579 0.45937
 C1469 C 0.40829 0.82337 0.45234
 H1470 H 0.39257 0.81587 0.46069
 O1471 O 0.58402 1.11803 0.47538
 O1472 O 0.61171 1.14561 0.47457
 C1473 C 0.59272 1.13699 0.46661
 C1474 C 0.58062 1.14856 0.44666
 C1475 C 0.58850 1.17035 0.43707
 H1476 H 0.60347 1.17934 0.44461
 O1477 O 0.41542 1.01823 0.38446
 O1478 O 0.38905 1.01705 0.35640
 C1479 C 0.40798 1.02546 0.36471
 C1480 C 0.42132 1.04420 0.35172
 C1481 C 0.41413 1.05221 0.32944
 H1482 H 0.39885 1.04434 0.32133
 O1483 O 0.58626 0.97171 0.39069
 O1484 O 0.61415 0.97038 0.36299
 C1485 C 0.59455 0.96296 0.37170
 C1486 C 0.58147 0.94366 0.35994
 C1487 C 0.58815 0.93632 0.33711
 H1488 H 0.60217 0.94571 0.32766
 O1489 O 0.52188 0.87559 0.42513
 O1490 O 0.52249 0.84778 0.39806
 C1491 C 0.53015 0.85630 0.41711
 C1492 C 0.54930 0.84397 0.42967
 C1493 C 0.55742 0.82190 0.42190
 H1494 H 0.54918 0.81369 0.40694
 O1495 O 0.47717 1.11274 0.41407
 O1496 O 0.47758 1.13927 0.38533
 C1497 C 0.46895 1.13142 0.40478
 C1498 C 0.44884 1.14375 0.41654
 C1499 C 0.44043 1.16539 0.40760
 H1500 H 0.44890 1.17339 0.39219
 O1501 O 0.37937 1.08158 0.47687
 O1502 O 0.35200 1.10921 0.47510
 C1503 C 0.36055 1.08968 0.46811
 C1504 C 0.34881 1.07683 0.44902
 C1505 C 0.32728 1.08503 0.44058
 H1506 H 0.31858 1.09966 0.44937
 O1507 O 0.61414 0.91018 0.48554
 O1508 O 0.64178 0.88285 0.48741
 C1509 C 0.63376 0.90180 0.47840
 C1510 C 0.64704 0.91394 0.45904
 C1511 C 0.66908 0.90539 0.45132
 H1512 H 0.67690 0.89046 0.46033
 O1513 O 0.47898 1.07943 0.38295
 O1514 O 0.47987 1.10587 0.35411
 C1515 C 0.47166 1.08688 0.36322
 C1516 C 0.45278 1.07393 0.35107
 C1517 C 0.44551 1.08153 0.32881
 H1518 H 0.45483 1.09594 0.31993
 O1519 O 0.52288 0.90846 0.39307
 O1520 O 0.52360 0.88076 0.36589
 C1521 C 0.53148 0.90010 0.37406
 C1522 C 0.55094 0.91284 0.36136
 C1523 C 0.55834 0.90543 0.33887
 H1524 H 0.54991 0.89016 0.33120
 O1525 O 0.61820 0.97238 0.42283
 O1526 O 0.64629 0.97088 0.39535
 C1527 C 0.63735 0.96359 0.41483
 C1528 C 0.64889 0.94420 0.42798
 C1529 C 0.67090 0.93528 0.42041
 H1530 H 0.67983 0.94302 0.40510
 O1531 O 0.38132 1.01924 0.41566
 O1532 O 0.35470 1.01796 0.38786
 C1533 C 0.36231 1.02684 0.40678
 C1534 C 0.34951 1.04653 0.41854
 C1535 C 0.32801 1.05538 0.40992
 H1536 H 0.32028 1.04754 0.39450
 O1537 O 0.41210 1.11365 0.47586
 O1538 O 0.38476 1.14129 0.47399
 C1539 C 0.40423 1.13253 0.46668
 C1540 C 0.41744 1.14416 0.44691
 C1541 C 0.40954 1.16579 0.43784
 H1542 H 0.39456 1.17446 0.44621
 O1543 O 0.58303 0.87642 0.48618
 O1544 O 0.61040 0.84885 0.48794
 C1545 C 0.59162 0.85690 0.47902
 C1546 C 0.57970 0.84405 0.45974
 C1547 C 0.58774 0.82187 0.45156
 H1548 H 0.60257 0.81337 0.45988
 O1549 O 0.58706 1.01780 0.38868
 O1550 O 0.61526 1.01648 0.36129
 C1551 C 0.59595 1.02505 0.36917
 C1552 C 0.58418 1.04415 0.35584
 C1553 C 0.59350 1.05165 0.33392
 H1554 H 0.60829 1.04219 0.32616
 O1555 O 0.41581 0.97226 0.38684
 O1556 O 0.38957 0.97090 0.35865
 C1557 C 0.40849 0.96340 0.36781
 C1558 C 0.42174 0.94373 0.35662
 C1559 C 0.41591 0.93598 0.33400
 H1560 H 0.40279 0.94564 0.32424
 O1561 O 0.52334 1.11431 0.41422
 O1562 O 0.52370 1.14082 0.38544
 C1563 C 0.53134 1.13338 0.40501
 C1564 C 0.55030 1.14664 0.41670
 C1565 C 0.55835 1.16831 0.40735
 H1566 H 0.54974 1.17597 0.39222
 O1567 O 0.47565 0.87559 0.42477
 O1568 O 0.47629 0.84765 0.39784
 C1569 C 0.46772 0.85622 0.41681
 C1570 C 0.44785 0.84413 0.42953
 C1571 C 0.44005 0.82146 0.42299
 H1572 H 0.44956 0.81209 0.40922
 O1573 O 0.61563 1.08502 0.47744
 O1574 O 0.64358 1.11232 0.47709
 C1575 C 0.63543 1.09278 0.46972
 C1576 C 0.64894 1.07903 0.45182
 C1577 C 0.67190 1.08590 0.44485
 H1578 H 0.67983 1.10132 0.45276
 O1579 O 0.38112 0.91261 0.48337
 O1580 O 0.35320 0.88525 0.48446
 C1581 C 0.36207 0.90412 0.47557
 C1582 C 0.35046 0.91589 0.45553
 C1583 C 0.32903 0.90707 0.44727
 H1584 H 0.32035 0.89246 0.45646
 Cu1585 Cu 0.49912 0.89459 0.41144
 Cu1586 Cu 0.50006 0.86128 0.37892
 Cu1587 Cu 0.50109 1.09403 0.40173
 Cu1588 Cu 0.50181 1.12579 0.36714
 Cu1589 Cu 0.40134 0.99596 0.40419
 Cu1590 Cu 0.36962 0.99420 0.37059
 Cu1591 Cu 0.59997 0.99530 0.40848
 Cu1592 Cu 0.63366 0.99360 0.37550
 C1593 C 0.43959 0.93195 0.36889
 H1594 H 0.44420 0.93784 0.38634
 C1595 C 0.42691 0.91604 0.32392
 C1596 C 0.56439 1.05580 0.36545
 H1597 H 0.55716 1.05008 0.38240
 C1598 C 0.58407 1.07125 0.32200
 C1599 C 0.36133 0.93513 0.44373
 H1600 H 0.37804 0.94187 0.44989
 C1601 C 0.31874 0.91677 0.42710
 C1602 C 0.63867 1.05922 0.44124
 H1603 H 0.62087 1.05398 0.44642
 C1604 C 0.68464 1.07332 0.42749
 C1605 C 0.43598 0.85590 0.44795
 H1606 H 0.44182 0.87339 0.45301
 C1607 C 0.42023 0.81080 0.43436
 C1608 C 0.56137 1.13703 0.43643
 H1609 H 0.55536 1.12010 0.44344
 C1610 C 0.57743 1.18028 0.41729
 C1611 C 0.44078 1.05508 0.36228
 H1612 H 0.44615 1.04938 0.37964
 C1613 C 0.42608 1.07103 0.31798
 C1614 C 0.56256 0.93204 0.37175
 H1615 H 0.55726 0.93756 0.38932
 C1616 C 0.57664 0.91721 0.32633
 C1617 C 0.56035 0.85473 0.44873
 H1618 H 0.55422 0.87189 0.45459
 C1619 C 0.57644 0.81053 0.43273
 C1620 C 0.43726 1.13334 0.43629
 H1621 H 0.44331 1.11649 0.44307
 C1622 C 0.42071 1.17646 0.41814
 C1623 C 0.35966 1.05742 0.43815
 H1624 H 0.37644 1.05121 0.44459
 C1625 C 0.31688 1.07486 0.42084
 C1626 C 0.63721 0.93352 0.44743
 H1627 H 0.62005 0.94002 0.45312
 C1628 C 0.68109 0.91584 0.43196
 O1629 O 0.51677 0.91691 0.62623
 O1630 O 0.51577 0.89037 0.65496
 C1631 C 0.52431 0.90920 0.64577
 C1632 C 0.54362 0.92214 0.65734
 C1633 C 0.55261 0.91451 0.67908
 H1634 H 0.54504 0.89912 0.68792
 O1635 O 0.47112 1.08866 0.61578
 O1636 O 0.47053 1.11645 0.64290
 C1637 C 0.46303 1.09682 0.63510
 C1638 C 0.44446 1.08339 0.64829
 C1639 C 0.43914 1.08826 0.67207
 H1640 H 0.44930 1.10154 0.68113
 O1641 O 0.37594 1.02436 0.58666
 O1642 O 0.34792 1.02522 0.61427
 C1643 C 0.35648 1.03251 0.59465
 C1644 C 0.34387 1.05077 0.58102
 C1645 C 0.32052 1.05696 0.58695
 H1646 H 0.31171 1.04826 0.60179
 O1647 O 0.61078 0.97768 0.58963
 O1648 O 0.63778 0.97930 0.61706
 C1649 C 0.62982 0.97009 0.59844
 C1650 C 0.64256 0.95000 0.58723
 C1651 C 0.66462 0.94272 0.59557
 H1652 H 0.67244 0.95208 0.61007
 O1653 O 0.57987 0.87950 0.53213
 O1654 O 0.60719 0.85186 0.53415
 C1655 C 0.58770 0.86064 0.54135
 C1656 C 0.57420 0.84920 0.56098
 C1657 C 0.58040 0.82663 0.56922
 H1658 H 0.59510 0.81743 0.56095
 O1659 O 0.40975 1.11626 0.52178
 O1660 O 0.38222 1.14371 0.51984
 C1661 C 0.40111 1.13584 0.52861
 C1662 C 0.41273 1.14925 0.54744
 C1663 C 0.40386 1.17128 0.55453
 H1664 H 0.38944 1.17910 0.54498
 O1665 O 0.40817 0.97981 0.62082
 O1666 O 0.38015 0.98069 0.64843
 C1667 C 0.39965 0.97263 0.64054
 C1668 C 0.41239 0.95454 0.65428
 C1669 C 0.40532 0.94915 0.67758
 H1670 H 0.39100 0.95896 0.68580
 O1671 O 0.57761 1.02547 0.61926
 O1672 O 0.60443 1.02685 0.64689
 C1673 C 0.58542 1.03446 0.63806
 C1674 C 0.57267 1.05445 0.64932
 C1675 C 0.57924 1.06268 0.67159
 H1676 H 0.59263 1.05319 0.68115
 O1677 O 0.47130 0.88457 0.59452
 O1678 O 0.46988 0.85782 0.62309
 C1679 C 0.46280 0.86558 0.60336
 C1680 C 0.44451 0.85249 0.59053
 C1681 C 0.43829 0.82934 0.59729
 H1682 H 0.44690 0.82107 0.61210
 O1683 O 0.51667 1.12144 0.58193
 O1684 O 0.51584 1.14990 0.60832
 C1685 C 0.52428 1.14113 0.58937
 C1686 C 0.54361 1.15344 0.57612
 C1687 C 0.55022 1.17669 0.58173
 H1688 H 0.54028 1.18616 0.59516
 O1689 O 0.37846 0.91338 0.52920
 O1690 O 0.35047 0.88609 0.53038
 C1691 C 0.35876 0.90567 0.53735
 C1692 C 0.34565 0.91956 0.55534
 C1693 C 0.32204 0.91409 0.56148
 H1694 H 0.31304 0.90005 0.55232
 O1695 O 0.61358 1.08673 0.52326
 O1696 O 0.64142 1.11416 0.52315
 C1697 C 0.63249 1.09511 0.53157
 C1698 C 0.64380 1.08269 0.55147
 C1699 C 0.66545 1.09070 0.56031
 H1700 H 0.67431 1.10588 0.55230
 O1701 O 0.51701 1.08979 0.61517
 O1702 O 0.51651 1.11801 0.64182
 C1703 C 0.52477 1.09862 0.63403
 C1704 C 0.54358 1.08620 0.64700
 C1705 C 0.55094 1.09461 0.66889
 H1706 H 0.54308 1.11058 0.67590
 O1707 O 0.47083 0.91801 0.62535
 O1708 O 0.46956 0.89162 0.65424
 C1709 C 0.46213 0.91064 0.64488
 C1710 C 0.44292 0.92422 0.65650
 C1711 C 0.43550 0.91891 0.67973
 H1712 H 0.44407 0.90482 0.68936
 O1713 O 0.61054 1.02415 0.58685
 O1714 O 0.63735 1.02548 0.61448
 C1715 C 0.62945 1.03276 0.59494
 C1716 C 0.64218 1.05196 0.58209
 C1717 C 0.66376 1.06018 0.59054
 H1718 H 0.67161 1.05150 0.60557
 O1719 O 0.37702 0.97827 0.58799
 O1720 O 0.34883 0.97915 0.61542
 C1721 C 0.35758 0.97051 0.59655
 C1722 C 0.34518 0.95118 0.58443
 C1723 C 0.32171 0.94536 0.59054
 H1724 H 0.31269 0.95506 0.60442
 O1725 O 0.58146 1.11918 0.52121
 O1726 O 0.60902 1.14690 0.52063
 C1727 C 0.58935 1.13883 0.52849
 C1728 C 0.57560 1.15218 0.54648
 C1729 C 0.58208 1.17535 0.55247
 H1730 H 0.59727 1.18355 0.54375
 O1731 O 0.41155 0.88178 0.53100
 O1732 O 0.38382 0.85423 0.53230
 C1733 C 0.40298 0.86286 0.53988
 C1734 C 0.41534 0.85105 0.55943
 C1735 C 0.40938 0.82784 0.56636
 H1736 H 0.39607 0.81821 0.55685
 O1737 O 0.57784 0.97931 0.62210
 O1738 O 0.60489 0.98092 0.64948
 C1739 C 0.58587 0.97231 0.64170
 C1740 C 0.57351 0.95336 0.65523
 C1741 C 0.58206 0.94579 0.67702
 H1742 H 0.59684 0.95503 0.68463
 O1743 O 0.40886 1.02571 0.61764
 O1744 O 0.38107 1.02652 0.64551
 C1745 C 0.40051 1.03418 0.63670
 C1746 C 0.41368 1.05296 0.64880
 C1747 C 0.40835 1.05827 0.67238
 H1748 H 0.39414 1.04882 0.68148
 O1749 O 0.47050 1.12078 0.58307
 O1750 O 0.46941 1.14887 0.60983
 C1751 C 0.46170 1.13986 0.59102
 C1752 C 0.44203 1.15120 0.57833
 C1753 C 0.43250 1.17298 0.58568
 H1754 H 0.43968 1.18166 0.60091
 O1755 O 0.51710 0.88387 0.59491
 O1756 O 0.51576 0.85708 0.62343
 C1757 C 0.52437 0.86464 0.60389
 C1758 C 0.54325 0.85118 0.59159
 C1759 C 0.54953 0.82847 0.59945
 H1760 H 0.53984 0.82037 0.61409
 O1761 O 0.61287 0.91138 0.53137
 O1762 O 0.64047 0.88403 0.53347
 C1763 C 0.63181 0.90364 0.54026
 C1764 C 0.64353 0.91746 0.55894
 C1765 C 0.66567 0.91059 0.56746
 H1766 H 0.67467 0.89559 0.55966
 O1767 O 0.37693 1.08400 0.52272
 O1768 O 0.34931 1.11135 0.52081
 C1769 C 0.35727 1.09243 0.52987
 C1770 C 0.34404 1.08016 0.54923
 C1771 C 0.32053 1.08609 0.55524
 H1772 H 0.31150 1.09946 0.54506
 Cu1773 Cu 0.49416 0.90357 0.60745
 Cu1774 Cu 0.49255 0.87155 0.64186
 Cu1775 Cu 0.49388 1.10244 0.59626
 Cu1776 Cu 0.49302 1.13620 0.62836
 Cu1777 Cu 0.39850 0.89932 0.50711
 Cu1778 Cu 0.36501 0.86646 0.50856
 Cu1779 Cu 0.59469 0.89701 0.50859
 Cu1780 Cu 0.62771 0.86413 0.51097
 Cu1781 Cu 0.39728 1.09608 0.49962
 Cu1782 Cu 0.36436 1.12921 0.49722
 Cu1783 Cu 0.59590 1.09953 0.49934
 Cu1784 Cu 0.62925 1.13250 0.49883
 Cu1785 Cu 0.39526 1.00194 0.60047
 Cu1786 Cu 0.36166 1.00299 0.63368
 Cu1787 Cu 0.59150 1.00146 0.60168
 Cu1788 Cu 0.62386 1.00331 0.63467
 C1789 C 0.55413 0.94166 0.64570
 H1790 H 0.54767 0.94735 0.62873
 C1791 C 0.57201 0.92622 0.68897
 C1792 C 0.43183 1.06548 0.63692
 H1793 H 0.43583 1.06158 0.61859
 C1794 C 0.42123 1.07556 0.68436
 C1795 C 0.35536 1.06233 0.56209
 H1796 H 0.37349 1.05776 0.55767
 C1797 C 0.30848 1.07433 0.57398
 C1798 C 0.63226 0.93733 0.56881
 H1799 H 0.61511 0.94263 0.56252
 C1800 C 0.67643 0.92313 0.58576
 C1801 C 0.55550 0.86127 0.57218
 H1802 H 0.55086 0.87886 0.56614
 C1803 C 0.56804 0.81602 0.58832
 C1804 C 0.43199 1.13954 0.55919
 H1805 H 0.43881 1.12250 0.55376
 C1806 C 0.41337 1.18326 0.57379
 C1807 C 0.43137 0.94218 0.64399
 H1808 H 0.43677 0.94615 0.62594
 C1809 C 0.41677 0.93138 0.69048
 C1810 C 0.55455 1.06611 0.63735
 H1811 H 0.54935 1.05986 0.62021
 C1812 C 0.56861 1.08290 0.68155
 C1813 C 0.43308 0.86315 0.57147
 H1814 H 0.43767 0.88112 0.56631
 C1815 C 0.42093 0.81679 0.58517
 C1816 C 0.55623 1.14148 0.55827
 H1817 H 0.55138 1.12347 0.55400
 C1818 C 0.56940 1.18786 0.56994
 C1819 C 0.35693 0.93829 0.56673
 H1820 H 0.37515 0.94254 0.56215
 C1821 C 0.30984 0.92703 0.57898
 C1822 C 0.63238 1.06317 0.56242
 H1823 H 0.61552 1.05708 0.55605
 C1824 C 0.67539 1.07956 0.57999
 O1825 O 0.48049 0.41329 0.88613
 O1826 O 0.48088 0.38562 0.85890
 C1827 C 0.47268 0.40487 0.86711
 C1828 C 0.45380 0.41776 0.85472
 C1829 C 0.44762 0.41200 0.83152
 H1830 H 0.45697 0.39805 0.82228
 O1831 O 0.51980 0.58883 0.88081
 O1832 O 0.51852 0.61694 0.85366
 C1833 C 0.52715 0.59773 0.86134
 C1834 C 0.54642 0.58586 0.84800
 C1835 C 0.55400 0.59420 0.82569
 H1836 H 0.54469 0.60872 0.81753
 O1837 O 0.38506 0.47385 0.91959
 O1838 O 0.35775 0.47208 0.89245
 C1839 C 0.36629 0.46474 0.91168
 C1840 C 0.35449 0.44521 0.92484
 C1841 C 0.33247 0.43656 0.91776
 H1842 H 0.32412 0.44432 0.90254
 O1843 O 0.61423 0.52896 0.91025
 O1844 O 0.64199 0.52939 0.88236
 C1845 C 0.63365 0.53701 0.90185
 C1846 C 0.64665 0.55535 0.91495
 C1847 C 0.66952 0.56220 0.90767
 H1848 H 0.67753 0.55412 0.89222
 O1849 O 0.42051 0.38104 0.98338
 O1850 O 0.39337 0.35288 0.98374
 C1851 C 0.41272 0.36152 0.97574
 C1852 C 0.42581 0.34895 0.95690
 C1853 C 0.41882 0.32615 0.95055
 H1854 H 0.40509 0.31727 0.96088
 O1855 O 0.58357 0.61925 0.97479
 O1856 O 0.61075 0.64733 0.97393
 C1857 C 0.59166 0.63859 0.96627
 C1858 C 0.57888 0.65082 0.94711
 C1859 C 0.58675 0.67293 0.93843
 H1860 H 0.60229 0.68104 0.94580
 O1861 O 0.41528 0.52152 0.88626
 O1862 O 0.38792 0.51972 0.85918
 C1863 C 0.40659 0.52900 0.86713
 C1864 C 0.41782 0.54915 0.85433
 C1865 C 0.40895 0.55681 0.83270
 H1866 H 0.39470 0.54702 0.82478
 O1867 O 0.58294 0.48227 0.87864
 O1868 O 0.61018 0.48287 0.85025
 C1869 C 0.59125 0.47430 0.85931
 C1870 C 0.57905 0.45434 0.84787
 C1871 C 0.58466 0.44771 0.82455
 H1872 H 0.59733 0.45811 0.81428
 O1873 O 0.52803 0.38331 0.91737
 O1874 O 0.52882 0.35527 0.89056
 C1875 C 0.53696 0.36445 0.90914
 C1876 C 0.55741 0.35365 0.92109
 C1877 C 0.56750 0.33246 0.91292
 H1878 H 0.56001 0.32374 0.89786
 O1879 O 0.47371 0.61882 0.91583
 O1880 O 0.47262 0.64723 0.88898
 C1881 C 0.46505 0.63808 0.90824
 C1882 C 0.44561 0.64959 0.92164
 C1883 C 0.43777 0.67225 0.91518
 H1884 H 0.44635 0.68157 0.90057
 O1885 O 0.37815 0.58261 0.97935
 O1886 O 0.34966 0.60911 0.97900
 C1887 C 0.35892 0.59029 0.97104
 C1888 C 0.34774 0.57740 0.95149
 C1889 C 0.32689 0.58576 0.94115
 H1890 H 0.31877 0.60179 0.94772
 O1891 O 0.61985 0.42396 0.97655
 O1892 O 0.64908 0.39827 0.97665
 C1893 C 0.63951 0.41673 0.96822
 C1894 C 0.65074 0.42935 0.94784
 C1895 C 0.67320 0.42269 0.93919
 H1896 H 0.68305 0.40928 0.94851
 O1897 O 0.47399 0.58692 0.88339
 O1898 O 0.47246 0.61503 0.85625
 C1899 C 0.46525 0.59527 0.86465
 C1900 C 0.44621 0.58188 0.85302
 C1901 C 0.43693 0.58946 0.83139
 H1902 H 0.44390 0.60526 0.82278
 O1903 O 0.52606 0.41526 0.88469
 O1904 O 0.52660 0.38746 0.85758
 C1905 C 0.53381 0.40727 0.86517
 C1906 C 0.55130 0.42123 0.85116
 C1907 C 0.55734 0.41462 0.82809
 H1908 H 0.54940 0.39889 0.82081
 O1909 O 0.61477 0.48322 0.91072
 O1910 O 0.64225 0.48357 0.88255
 C1911 C 0.63423 0.47570 0.90220
 C1912 C 0.64770 0.45763 0.91522
 C1913 C 0.66991 0.45042 0.90664
 H1914 H 0.67688 0.45798 0.89031
 O1915 O 0.38270 0.51986 0.91899
 O1916 O 0.35543 0.51791 0.89184
 C1917 C 0.36314 0.52667 0.91074
 C1918 C 0.34970 0.54575 0.92253
 C1919 C 0.32844 0.55368 0.91309
 H1920 H 0.32093 0.54415 0.89854
 O1921 O 0.41033 0.61520 0.97896
 O1922 O 0.38201 0.64193 0.97903
 C1923 C 0.40170 0.63430 0.97105
 C1924 C 0.41454 0.64761 0.95219
 C1925 C 0.40705 0.67030 0.94555
 H1926 H 0.39234 0.67841 0.95491
 O1927 O 0.59014 0.38882 0.97739
 O1928 O 0.61934 0.36308 0.97754
 C1929 C 0.59969 0.36999 0.96961
 C1930 C 0.58808 0.35641 0.95072
 C1931 C 0.59772 0.33501 0.94254
 H1932 H 0.61311 0.32778 0.95099
 O1933 O 0.58222 0.52855 0.87821
 O1934 O 0.60977 0.52927 0.85013
 C1935 C 0.59046 0.53694 0.85887
 C1936 C 0.57761 0.55617 0.84686
 C1937 C 0.58525 0.56491 0.82472
 H1938 H 0.60070 0.55728 0.81619
 O1939 O 0.41780 0.47531 0.88702
 O1940 O 0.39052 0.47383 0.85984
 C1941 C 0.41005 0.46686 0.86799
 C1942 C 0.42357 0.44848 0.85528
 C1943 C 0.41766 0.44256 0.83223
 H1944 H 0.40332 0.45177 0.82378
 O1945 O 0.51996 0.61931 0.91462
 O1946 O 0.51900 0.64761 0.88766
 C1947 C 0.52767 0.63885 0.90633
 C1948 C 0.54738 0.65110 0.91815
 C1949 C 0.55532 0.67333 0.91003
 H1950 H 0.54606 0.68210 0.89592
 O1951 O 0.48186 0.38121 0.91895
 O1952 O 0.48224 0.35317 0.89212
 C1953 C 0.47419 0.36159 0.91137
 C1954 C 0.45540 0.34890 0.92499
 C1955 C 0.44753 0.32630 0.91827
 H1956 H 0.45537 0.31796 0.90288
 O1957 O 0.61670 0.58774 0.97529
 O1958 O 0.64411 0.61558 0.97465
 C1959 C 0.63590 0.59628 0.96681
 C1960 C 0.64814 0.58399 0.94702
 C1961 C 0.67113 0.59058 0.93949
 H1962 H 0.68059 0.60406 0.94900
 O1963 O 0.38658 0.41183 0.98299
 O1964 O 0.35947 0.38365 0.98324
 C1965 C 0.36759 0.40310 0.97515
 C1966 C 0.35504 0.41533 0.95605
 C1967 C 0.33283 0.40719 0.94905
 H1968 H 0.32436 0.39270 0.95862
 Cu1969 Cu 0.50400 0.40093 0.90459
 Cu1970 Cu 0.50468 0.36742 0.87218
 Cu1971 Cu 0.49697 0.60067 0.90136
 Cu1972 Cu 0.49551 0.63462 0.86900
 Cu1973 Cu 0.40300 0.49779 0.90571
 Cu1974 Cu 0.37017 0.49566 0.87307
 Cu1975 Cu 0.59564 0.50573 0.89713
 Cu1976 Cu 0.62878 0.50634 0.86343
 C1977 C 0.44179 0.43621 0.86632
 H1978 H 0.44623 0.44065 0.88424
 C1979 C 0.42968 0.42459 0.82006
 C1980 C 0.55812 0.56666 0.85822
 H1981 H 0.55245 0.56028 0.87550
 C1982 C 0.57350 0.58389 0.81387
 C1983 C 0.36560 0.43456 0.94407
 H1984 H 0.38281 0.44083 0.94933
 C1985 C 0.32143 0.41759 0.92984
 C1986 C 0.63622 0.56618 0.93476
 H1987 H 0.61845 0.56114 0.94028
 C1988 C 0.68206 0.57958 0.91991
 C1989 C 0.44437 0.36005 0.94434
 H1990 H 0.44976 0.37774 0.94922
 C1991 C 0.42913 0.31478 0.93100
 C1992 C 0.55913 0.64010 0.93688
 H1993 H 0.55322 0.62287 0.94317
 C1994 C 0.57508 0.68436 0.91991
 C1995 C 0.43657 0.56163 0.86423
 H1996 H 0.44329 0.55588 0.88107
 C1997 C 0.41817 0.57701 0.82118
 C1998 C 0.56210 0.44117 0.86085
 H1999 H 0.55773 0.44609 0.87884
 C2000 C 0.57367 0.42791 0.81440
 C2001 C 0.56778 0.36537 0.94006
 H2002 H 0.56038 0.38194 0.94617
 C2003 C 0.58766 0.32290 0.92356
 C2004 C 0.43400 0.63749 0.94031
 H2005 H 0.43971 0.61986 0.94517
 C2006 C 0.41855 0.68275 0.92708
 C2007 C 0.35897 0.55740 0.94199
 H2008 H 0.37545 0.55133 0.94927
 C2009 C 0.31713 0.57403 0.92175
 C2010 C 0.63829 0.44710 0.93589
 H2011 H 0.62091 0.45227 0.94230
 C2012 C 0.68290 0.43308 0.91849
 O2013 O 0.52409 0.41490 1.12013
 O2014 O 0.52535 0.38685 1.14733
 C2015 C 0.53244 0.40668 1.13917
 C2016 C 0.55097 0.41993 1.15171
 C2017 C 0.55945 0.41130 1.17318
 H2018 H 0.55087 0.39603 1.18123
 O2019 O 0.47314 0.58736 1.11604
 O2020 O 0.47216 0.61551 1.14278
 C2021 C 0.46487 0.59569 1.13519
 C2022 C 0.44630 0.58250 1.14860
 C2023 C 0.43893 0.59036 1.17088
 H2024 H 0.44789 0.60528 1.17864
 O2025 O 0.38091 0.52076 1.08936
 O2026 O 0.35324 0.51997 1.11732
 C2027 C 0.36132 0.52809 1.09777
 C2028 C 0.34806 0.54643 1.08475
 C2029 C 0.32505 0.55273 1.09195
 H2030 H 0.31692 0.54404 1.10717
 O2031 O 0.61372 0.48335 1.08828
 O2032 O 0.64126 0.48442 1.11521
 C2033 C 0.63340 0.47633 1.09601
 C2034 C 0.64710 0.45831 1.08280
 C2035 C 0.66917 0.45097 1.09091
 H2036 H 0.67633 0.45882 1.10661
 O2037 O 0.58861 0.39005 1.02327
 O2038 O 0.61764 0.36410 1.02338
 C2039 C 0.59776 0.37126 1.03135
 C2040 C 0.58520 0.35763 1.05023
 C2041 C 0.59340 0.33527 1.05708
 H2042 H 0.60936 0.32848 1.04881
 O2043 O 0.40907 0.61619 1.02463
 O2044 O 0.38042 0.64256 1.02475
 C2045 C 0.40004 0.63523 1.03242
 C2046 C 0.41219 0.64863 1.05098
 C2047 C 0.40329 0.67045 1.05871
 H2048 H 0.38849 0.67813 1.04967
 O2049 O 0.41469 0.47602 1.12162
 O2050 O 0.38737 0.47508 1.14990
 C2051 C 0.40673 0.46756 1.14104
 C2052 C 0.41996 0.44839 1.15295
 C2053 C 0.41280 0.43979 1.17535
 H2054 H 0.39743 0.44733 1.18410
 O2055 O 0.58007 0.52799 1.12153
 O2056 O 0.60734 0.52917 1.14868
 C2057 C 0.58812 0.53678 1.14030
 C2058 C 0.57533 0.55667 1.15176
 C2059 C 0.58271 0.56613 1.17332
 H2060 H 0.59778 0.55844 1.18194
 O2061 O 0.47886 0.38007 1.08981
 O2062 O 0.48010 0.35222 1.11721
 C2063 C 0.47142 0.36044 1.09845
 C2064 C 0.45196 0.34770 1.08677
 C2065 C 0.44279 0.32602 1.09565
 H2066 H 0.45050 0.31784 1.11101
 O2067 O 0.51844 0.62090 1.08246
 O2068 O 0.51752 0.64923 1.10897
 C2069 C 0.52603 0.64055 1.09000
 C2070 C 0.54547 0.65297 1.07695
 C2071 C 0.55305 0.67552 1.08394
 H2072 H 0.54373 0.68444 1.09815
 O2073 O 0.38654 0.41282 1.02893
 O2074 O 0.35932 0.38475 1.02888
 C2075 C 0.36718 0.40417 1.03679
 C2076 C 0.35380 0.41644 1.05563
 C2077 C 0.33117 0.40851 1.06226
 H2078 H 0.32316 0.39425 1.05255
 O2079 O 0.61556 0.58840 1.02180
 O2080 O 0.64275 0.61646 1.02124
 C2081 C 0.63424 0.59741 1.03005
 C2082 C 0.64554 0.58605 1.05067
 C2083 C 0.66665 0.59521 1.05978
 H2084 H 0.67517 0.61033 1.05131
 O2085 O 0.51884 0.59034 1.11718
 O2086 O 0.51783 0.61871 1.14366
 C2087 C 0.52623 0.59930 1.13618
 C2088 C 0.54504 0.58728 1.14950
 C2089 C 0.55221 0.59609 1.17131
 H2090 H 0.54289 0.61098 1.17893
 O2091 O 0.47820 0.41508 1.11905
 O2092 O 0.47934 0.38748 1.14674
 C2093 C 0.47072 0.40662 1.13857
 C2094 C 0.45148 0.41887 1.15165
 C2095 C 0.44460 0.41113 1.17427
 H2096 H 0.45459 0.39719 1.18260
 O2097 O 0.61224 0.52907 1.08832
 O2098 O 0.63962 0.53017 1.11540
 C2099 C 0.63128 0.53773 1.09612
 C2100 C 0.64372 0.55702 1.08296
 C2101 C 0.66488 0.56623 1.09151
 H2102 H 0.67250 0.55841 1.10710
 O2103 O 0.38212 0.47484 1.09042
 O2104 O 0.35442 0.47374 1.11835
 C2105 C 0.36311 0.46603 1.09904
 C2106 C 0.35157 0.44636 1.08643
 C2107 C 0.32894 0.43790 1.09316
 H2108 H 0.31950 0.44589 1.10785
 O2109 O 0.58270 0.62006 1.02064
 O2110 O 0.60975 0.64828 1.01987
 C2111 C 0.59044 0.63971 1.02810
 C2112 C 0.57708 0.65242 1.04686
 C2113 C 0.58452 0.67485 1.05428
 H2114 H 0.60002 0.68294 1.04603
 O2115 O 0.41816 0.37978 1.02927
 O2116 O 0.39086 0.35179 1.02935
 C2117 C 0.40977 0.36036 1.03736
 C2118 C 0.42177 0.34797 1.05672
 C2119 C 0.41289 0.32643 1.06562
 H2120 H 0.39787 0.31824 1.05735
 O2121 O 0.58226 0.48123 1.12205
 O2122 O 0.60962 0.48227 1.14911
 C2123 C 0.59106 0.47304 1.14088
 C2124 C 0.57991 0.45208 1.15269
 C2125 C 0.58891 0.44252 1.17375
 H2126 H 0.60412 0.45075 1.18158
 O2127 O 0.41313 0.52232 1.12091
 O2128 O 0.38584 0.52178 1.14922
 C2129 C 0.40467 0.53053 1.14006
 C2130 C 0.41671 0.55084 1.15121
 C2131 C 0.40922 0.55935 1.17339
 H2132 H 0.39457 0.55081 1.18270
 O2133 O 0.47190 0.62060 1.08457
 O2134 O 0.47107 0.64892 1.11111
 C2135 C 0.46304 0.63967 1.09259
 C2136 C 0.44277 0.65075 1.08060
 C2137 C 0.43299 0.67212 1.08880
 H2138 H 0.44048 0.68045 1.10406
 O2139 O 0.52487 0.38461 1.08568
 O2140 O 0.52621 0.35648 1.11280
 C2141 C 0.53374 0.36557 1.09341
 C2142 C 0.55350 0.35445 1.08003
 C2143 C 0.56137 0.33166 1.08594
 H2144 H 0.55166 0.32161 1.09928
 O2145 O 0.61967 0.42376 1.02300
 O2146 O 0.64886 0.39801 1.02309
 C2147 C 0.63911 0.41653 1.03125
 C2148 C 0.65004 0.42924 1.05111
 C2149 C 0.67203 0.42203 1.05969
 H2150 H 0.68163 0.40785 1.05107
 O2151 O 0.37841 0.58185 1.02553
 O2152 O 0.34962 0.60804 1.02533
 C2153 C 0.35873 0.58926 1.03361
 C2154 C 0.34670 0.57617 1.05322
 C2155 C 0.32361 0.58207 1.06053
 H2156 H 0.31411 0.59558 1.05100
 Cu2157 Cu 0.50142 0.40128 1.10087
 Cu2158 Cu 0.50291 0.36802 1.13373
 Cu2159 Cu 0.49579 0.60213 1.09727
 Cu2160 Cu 0.49455 0.63598 1.12921
 Cu2161 Cu 0.40571 0.39921 1.00612
 Cu2162 Cu 0.37301 0.36545 1.00627
 Cu2163 Cu 0.60175 0.40931 0.99999
 Cu2164 Cu 0.63673 0.37839 1.00023
 Cu2165 Cu 0.39674 0.59621 1.00217
 Cu2166 Cu 0.36249 0.62801 1.00205
 Cu2167 Cu 0.59706 0.60095 0.99817
 Cu2168 Cu 0.62964 0.63464 0.99733
 Cu2169 Cu 0.40048 0.49855 1.10285
 Cu2170 Cu 0.36752 0.49759 1.13661
 Cu2171 Cu 0.59410 0.50530 1.10258
 Cu2172 Cu 0.62710 0.50661 1.13492
 C2173 C 0.56102 0.44053 1.14184
 H2174 H 0.55448 0.44724 1.12527
 C2175 C 0.57880 0.42196 1.18422
 C2176 C 0.43532 0.56256 1.13900
 H2177 H 0.44091 0.55651 1.12170
 C2178 C 0.42028 0.57918 1.18334
 C2179 C 0.35865 0.55815 1.06529
 H2180 H 0.37652 0.55363 1.05985
 C2181 C 0.31259 0.57041 1.07986
 C2182 C 0.63778 0.44754 1.06271
 H2183 H 0.62061 0.45290 1.05653
 C2184 C 0.68168 0.43281 1.07958
 C2185 C 0.56524 0.36709 1.06180
 H2186 H 0.55923 0.38464 1.05704
 C2187 C 0.58147 0.32186 1.07467
 C2188 C 0.43219 0.63916 1.06172
 H2189 H 0.43915 0.62234 1.05579
 C2190 C 0.41323 0.68230 1.07791
 C2191 C 0.43931 0.43775 1.14127
 H2192 H 0.44456 0.44379 1.12375
 C2193 C 0.42505 0.42109 1.18619
 C2194 C 0.55644 0.56738 1.14010
 H2195 H 0.55100 0.56062 1.12323
 C2196 C 0.57117 0.58586 1.18338
 C2197 C 0.44139 0.35830 1.06720
 H2198 H 0.44805 0.37509 1.06047
 C2199 C 0.42305 0.31535 1.08519
 C2200 C 0.55743 0.64171 1.05820
 H2201 H 0.55186 0.62422 1.05287
 C2202 C 0.57261 0.68661 1.07275
 C2203 C 0.36377 0.43549 1.06759
 H2204 H 0.38137 0.44152 1.06253
 C2205 C 0.31863 0.41886 1.08108
 C2206 C 0.63428 0.56688 1.06239
 H2207 H 0.61780 0.55998 1.05583
 C2208 C 0.67635 0.58547 1.08033
 C2209 C 1.11733 1.07725 1.28106
 C2210 C 1.11539 1.10185 1.28495
 C2211 C 1.10808 1.11639 1.26619
 C2212 C 1.10368 1.10677 1.24397
 C2213 C 1.10536 1.08207 1.24049
 C2214 C 1.11205 1.06747 1.25923
 C2215 C 1.10015 1.07243 1.21840
 C2216 C 1.09357 1.08728 1.19966
 C2217 C 1.09322 1.11195 1.20311
 C2218 C 1.09795 1.12156 1.22506
 H2219 H 1.10705 1.13539 1.26833
 H2220 H 1.11339 1.04849 1.25696
 H2221 H 1.10052 1.05341 1.21603
 H2222 H 1.09704 1.14058 1.22725
 H2223 H 1.12235 1.06532 1.29508
 H2224 H 1.08890 1.12390 1.18882
 C2225 C 1.14554 0.61146 0.75831
 C2226 C 1.12877 0.62104 0.77415
 C2227 C 1.10474 0.62056 0.76829
 C2228 C 1.09755 0.61051 0.74699
 C2229 C 1.11459 0.60116 0.73108
 C2230 C 1.13855 0.60176 0.73692
 C2231 C 1.10741 0.59143 0.70961
 C2232 C 1.08331 0.59068 0.70385
 C2233 C 1.06654 0.59966 0.72011
 C2234 C 1.07357 0.60956 0.74136
 H2235 H 1.09165 0.62761 0.78053
 H2236 H 1.15189 0.59468 0.72497
 H2237 H 1.12063 0.58485 0.69724
 H2238 H 1.06023 0.61644 0.75343
 H2239 H 1.16414 0.61178 0.76237
 H2240 H 1.04785 0.59892 0.71648
 C2241 C 0.63768 1.10429 0.76233
 C2242 C 0.62206 1.11725 0.77703
 C2243 C 0.59865 1.12061 0.76956
 C2244 C 0.59105 1.11102 0.74819
 C2245 C 0.60719 1.09872 0.73351
 C2246 C 0.63043 1.09548 0.74074
 C2247 C 0.59988 1.08981 0.71182
 C2248 C 0.57627 1.09217 0.70480
 C2249 C 0.56015 1.10376 0.72004
 C2250 C 0.56753 1.11333 0.74133
 H2251 H 0.58602 1.12989 0.78067
 H2252 H 0.64305 1.08605 0.72970
 H2253 H 0.61277 1.08137 0.70032
 H2254 H 0.55476 1.12238 0.75251
 H2255 H 0.65595 1.10169 0.76687
 H2256 H 0.54171 1.10536 0.71564
 C2257 C 0.61412 0.58688 1.28328
 C2258 C 0.61272 0.61148 1.28744
 C2259 C 0.60179 0.62585 1.27037
 C2260 C 0.59386 0.61606 1.24916
 C2261 C 0.59565 0.59144 1.24536
 C2262 C 0.60544 0.57700 1.26271
 C2263 C 0.58794 0.58164 1.22413
 C2264 C 0.57906 0.59620 1.20613
 C2265 C 0.57776 0.62080 1.21004
 C2266 C 0.58480 0.63055 1.23137
 H2267 H 0.60075 0.64481 1.27278
 H2268 H 0.60681 0.55805 1.26020
 H2269 H 0.58884 0.56266 1.22172
 H2270 H 0.58356 0.64953 1.23377
 H2271 H 0.62155 0.57498 1.29616
 H2272 H 0.57161 0.63269 1.19644
 C2273 C 0.88471 0.91553 1.28173
 C2274 C 0.88664 0.89090 1.28580
 C2275 C 0.89696 0.87693 1.26783
 C2276 C 0.90433 0.88714 1.24622
 C2277 C 0.90237 0.91181 1.24260
 C2278 C 0.89271 0.92584 1.26055
 C2279 C 0.90994 0.92203 1.22104
 C2280 C 0.91898 0.90780 1.20271
 C2281 C 0.92022 0.88314 1.20640
 C2282 C 0.91324 0.87297 1.22797
 H2283 H 0.89826 0.85794 1.27002
 H2284 H 0.89113 0.94482 1.25816
 H2285 H 0.90899 0.94105 1.21868
 H2286 H 0.91456 0.85396 1.23026
 H2287 H 0.87756 0.92714 1.29513
 H2288 H 0.92642 0.87154 1.19251
 C2289 C 0.91482 0.37892 0.78258
 C2290 C 0.89045 0.38242 0.78717
 C2291 C 0.87695 0.39326 0.76949
 C2292 C 0.88730 0.39979 0.74769
 C2293 C 0.91177 0.39655 0.74358
 C2294 C 0.92538 0.38621 0.76121
 C2295 C 0.92218 0.40365 0.72190
 C2296 C 0.90828 0.41342 0.70398
 C2297 C 0.88374 0.41559 0.70808
 C2298 C 0.87344 0.40916 0.72976
 H2299 H 0.85810 0.39559 0.77206
 H2300 H 0.94418 0.38357 0.75842
 H2301 H 0.94110 0.40187 0.71919
 H2302 H 0.85455 0.41136 0.73242
 H2303 H 0.92605 0.37117 0.79574
 H2304 H 0.87232 0.42221 0.69448
 C2305 C 0.42646 0.90271 0.79562
 C2306 C 0.40221 0.90179 0.80139
 C2307 C 0.38576 0.90781 0.78414
 C2308 C 0.39337 0.91411 0.76125
 C2309 C 0.41780 0.91482 0.75556
 C2310 C 0.43422 0.90933 0.77295
 C2311 C 0.42538 0.92068 0.73252
 C2312 C 0.40883 0.92561 0.71498
 C2313 C 0.38457 0.92486 0.72091
 C2314 C 0.37692 0.91925 0.74384
 H2315 H 0.36701 0.90673 0.78827
 H2316 H 0.45302 0.90980 0.76892
 H2317 H 0.44413 0.92147 0.72826
 H2318 H 0.35813 0.91865 0.74787
 H2319 H 0.43940 0.89822 0.80871
 H2320 H 0.37145 0.92823 0.70769
 C2321 C 0.38606 0.42130 1.28965
 C2322 C 0.39086 0.39737 1.29496
 C2323 C 0.40098 0.38318 1.27711
 C2324 C 0.40602 0.39247 1.25463
 C2325 C 0.40197 0.41665 1.24981
 C2326 C 0.39196 0.43093 1.26746
 C2327 C 0.40800 0.42605 1.22743
 C2328 C 0.41741 0.41134 1.20963
 C2329 C 0.42008 0.38701 1.21449
 C2330 C 0.41480 0.37777 1.23681
 H2331 H 0.40397 0.36451 1.28019
 H2332 H 0.38858 0.44950 1.26409
 H2333 H 0.40577 0.44482 1.22411
 H2334 H 0.41749 0.35905 1.24008
 H2335 H 0.37852 0.43289 1.30288
 H2336 H 0.42631 0.37496 1.20101
 C2337 C 0.85782 1.10378 0.73097
 C2338 C 0.87430 1.11534 0.71575
 C2339 C 0.89754 1.11870 0.72374
 C2340 C 0.90421 1.11031 0.74603
 C2341 C 0.88728 1.09942 0.76122
 C2342 C 0.86412 1.09633 0.75353
 C2343 C 0.89380 1.09161 0.78376
 C2344 C 0.91740 1.09350 0.79110
 C2345 C 0.93423 1.10365 0.77530
 C2346 C 0.92765 1.11229 0.75324
 H2347 H 0.91084 1.12684 0.71228
 H2348 H 0.85088 1.08794 0.76491
 H2349 H 0.88032 1.08426 0.79553
 H2350 H 0.94101 1.12020 0.74167
 H2351 H 0.83968 1.10121 0.72592
 H2352 H 0.95269 1.10476 0.77977
 C2353 C 0.86050 0.60155 0.23092
 C2354 C 0.87747 0.61027 0.21455
 C2355 C 0.90156 0.60856 0.21992
 C2356 C 0.90861 0.59860 0.24142
 C2357 C 0.89138 0.59028 0.25791
 C2358 C 0.86737 0.59171 0.25241
 C2359 C 0.89842 0.58099 0.27973
 C2360 C 0.92253 0.57993 0.28532
 C2361 C 0.93948 0.58777 0.26849
 C2362 C 0.93261 0.59703 0.24679
 H2363 H 0.91482 0.61490 0.20731
 H2364 H 0.85390 0.58543 0.26482
 H2365 H 0.88512 0.57524 0.29258
 H2366 H 0.94607 0.60315 0.23428
 H2367 H 0.84185 0.60284 0.22731
 H2368 H 0.95816 0.58678 0.27213
 C2369 C 0.39270 1.07013 0.21441
 C2370 C 0.39263 1.09479 0.21097
 C2371 C 0.39877 1.10961 0.22962
 C2372 C 0.40490 1.10002 0.25148
 C2373 C 0.40519 1.07518 0.25480
 C2374 C 0.39908 1.06038 0.23612
 C2375 C 0.41167 1.06566 0.27669
 C2376 C 0.41791 1.08072 0.29520
 C2377 C 0.41701 1.10538 0.29175
 C2378 C 0.41064 1.11494 0.27009
 H2379 H 0.39825 1.12865 0.22729
 H2380 H 0.39916 1.04131 0.23831
 H2381 H 0.41238 1.04663 0.27916
 H2382 H 0.41028 1.13401 0.26789
 H2383 H 0.38799 1.05844 0.20022
 H2384 H 0.42127 1.11734 0.30588
 C2385 C 0.41543 0.61222 0.71729
 C2386 C 0.39082 0.61070 0.71476
 C2387 C 0.37665 0.60308 0.73397
 C2388 C 0.38687 0.59727 0.75557
 C2389 C 0.41168 0.59866 0.75794
 C2390 C 0.42581 0.60608 0.73864
 C2391 C 0.42188 0.59253 0.77953
 C2392 C 0.40757 0.58506 0.79877
 C2393 C 0.38288 0.58435 0.79628
 C2394 C 0.37265 0.59030 0.77489
 H2395 H 0.35763 0.60230 0.73227
 H2396 H 0.44483 0.60728 0.74010
 H2397 H 0.44093 0.59304 0.78118
 H2398 H 0.35360 0.58939 0.77346
 H2399 H 0.42662 0.61809 0.70265
 H2400 H 0.37142 0.57912 0.81095
 C2401 C 1.07153 0.89968 0.70589
 C2402 C 1.09596 0.89760 0.70153
 C2403 C 1.11172 0.90302 0.71951
 C2404 C 1.10320 0.90996 0.74177
 C2405 C 1.07858 0.91199 0.74603
 C2406 C 1.06290 0.90699 0.72790
 C2407 C 1.07007 0.91882 0.76838
 C2408 C 1.08587 0.92350 0.78659
 C2409 C 1.11030 0.92115 0.78216
 C2410 C 1.11889 0.91454 0.75995
 H2411 H 1.13057 0.90104 0.71639
 H2412 H 1.04397 0.90845 0.73082
 H2413 H 1.05122 0.92077 0.77150
 H2414 H 1.13779 0.91288 0.75705
 H2415 H 1.05914 0.89562 0.69219
 H2416 H 1.12284 0.92422 0.79598
 C2417 C 1.13169 0.40433 0.22356
 C2418 C 1.11258 0.39697 0.20995
 C2419 C 1.08966 0.39714 0.21977
 C2420 C 1.08583 0.40467 0.24304
 C2421 C 1.10524 0.41161 0.25677
 C2422 C 1.12809 0.41146 0.24682
 C2423 C 1.10156 0.41823 0.28031
 C2424 C 1.07866 0.41822 0.29034
 C2425 C 1.05940 0.41212 0.27625
 C2426 C 1.06296 0.40526 0.25288
 H2427 H 1.07492 0.39160 0.20920
 H2428 H 1.14316 0.41673 0.25705
 H2429 H 1.11658 0.42271 0.29098
 H2430 H 1.04785 0.40030 0.24255
 H2431 H 1.14952 0.40406 0.21628
 H2432 H 1.04150 0.41251 0.28336
 C2433 C 0.64447 0.89366 0.24220
 C2434 C 0.62786 0.88212 0.22797
 C2435 C 0.60414 0.88089 0.23608
 C2436 C 0.59725 0.89075 0.25778
 C2437 C 0.61429 0.90135 0.27218
 C2438 C 0.63782 0.90283 0.26416
 C2439 C 0.60756 0.91014 0.29441
 C2440 C 0.58379 0.90908 0.30225
 C2441 C 0.56684 0.89952 0.28711
 C2442 C 0.57354 0.89019 0.26528
 H2443 H 0.59076 0.87295 0.22528
 H2444 H 0.65114 0.91101 0.27491
 H2445 H 0.62098 0.91725 0.30575
 H2446 H 0.56013 0.88254 0.25426
 H2447 H 0.66293 0.89476 0.23700
 H2448 H 0.54828 0.89915 0.29212
 C2449 C 0.63655 0.40554 0.72648
 C2450 C 0.61926 0.39366 0.71332
 C2451 C 0.59602 0.39229 0.72274
 C2452 C 0.59028 0.40229 0.74468
 C2453 C 0.60802 0.41329 0.75795
 C2454 C 0.63104 0.41496 0.74860
 C2455 C 0.60251 0.42215 0.78047
 C2456 C 0.57932 0.42050 0.78978
 C2457 C 0.56159 0.41059 0.77579
 C2458 C 0.56705 0.40138 0.75361
 H2459 H 0.58212 0.38405 0.71282
 H2460 H 0.64488 0.42340 0.75848
 H2461 H 0.61644 0.42962 0.79096
 H2462 H 0.55310 0.39341 0.74350
 H2463 H 0.65471 0.40676 0.72031
 H2464 H 0.54341 0.40974 0.78209
 C2465 C 1.28774 1.07810 1.11298
 C2466 C 1.29256 1.10266 1.11142
 C2467 C 1.27538 1.11744 1.10129
 C2468 C 1.25370 1.10806 1.09390
 C2469 C 1.24935 1.08346 1.09559
 C2470 C 1.26659 1.06865 1.10494
 C2471 C 1.22778 1.07403 1.08803
 C2472 C 1.21009 1.08895 1.07926
 C2473 C 1.21446 1.11354 1.07826
 C2474 C 1.23608 1.12294 1.08524
 H2475 H 1.27822 1.13638 1.10020
 H2476 H 1.26365 1.04971 1.10627
 H2477 H 1.22494 1.05506 1.08876
 H2478 H 1.23890 1.14190 1.08411
 H2479 H 1.30057 1.06586 1.11985
 H2480 H 1.20107 1.12567 1.07225
 C2481 C 1.27572 0.58134 0.62589
 C2482 C 1.28091 0.60558 0.62228
 C2483 C 1.26424 0.61961 0.61041
 C2484 C 1.24331 0.60976 0.60205
 C2485 C 1.23883 0.58534 0.60501
 C2486 C 1.25509 0.57130 0.61708
 C2487 C 1.21814 0.57542 0.59595
 C2488 C 1.20143 0.58978 0.58456
 C2489 C 1.20592 0.61424 0.58243
 C2490 C 1.22673 0.62407 0.59083
 H2491 H 1.26701 0.63846 0.60818
 H2492 H 1.25188 0.55252 0.61965
 H2493 H 1.21522 0.55651 0.59762
 H2494 H 1.22974 0.64293 0.58873
 H2495 H 1.28799 0.56977 0.63466
 H2496 H 1.19321 0.62599 0.57451
 C2497 C 0.78072 1.10925 0.58116
 C2498 C 0.78261 1.11091 0.60576
 C2499 C 0.76272 1.10629 0.62024
 C2500 C 0.74104 1.10044 0.61027
 C2501 C 0.73927 1.09878 0.58548
 C2502 C 0.75927 1.10310 0.57109
 C2503 C 0.71760 1.09269 0.57554
 C2504 C 0.69773 1.08808 0.59010
 C2505 C 0.69958 1.09025 0.61468
 C2506 C 0.72104 1.09636 0.62469
 H2507 H 0.76399 1.10795 0.63920
 H2508 H 0.75828 1.10189 0.55208
 H2509 H 0.71634 1.09088 0.55659
 H2510 H 0.72201 1.09774 0.64369
 H2511 H 0.79593 1.11270 0.56973
 H2512 H 0.68438 1.08706 0.62621
 C2513 C 0.77949 0.62337 1.08306
 C2514 C 0.78135 0.62372 1.10773
 C2515 C 0.76165 0.61740 1.12188
 C2516 C 0.74036 0.61064 1.11157
 C2517 C 0.73877 0.60980 1.08673
 C2518 C 0.75844 0.61632 1.07263
 C2519 C 0.71767 0.60217 1.07647
 C2520 C 0.69813 0.59541 1.09077
 C2521 C 0.69976 0.59721 1.11543
 C2522 C 0.72067 0.60462 1.12572
 H2523 H 0.76287 0.61800 1.14091
 H2524 H 0.75757 0.61586 1.05358
 H2525 H 0.71671 0.60083 1.05746
 H2526 H 0.72148 0.60546 1.14477
 H2527 H 0.79452 0.62814 1.07187
 H2528 H 0.68482 0.59271 1.12687
 C2529 C 1.27827 0.86863 0.90558
 C2530 C 1.29332 0.88627 0.89572
 C2531 C 1.28411 0.90923 0.89247
 C2532 C 1.26064 0.91441 0.89896
 C2533 C 1.24571 0.89634 0.90808
 C2534 C 1.25470 0.87354 0.91133
 C2535 C 1.22204 0.90135 0.91388
 C2536 C 1.21317 0.92450 0.91152
 C2537 C 1.22856 0.94251 0.90314
 C2538 C 1.25192 0.93746 0.89665
 H2539 H 1.29533 0.92339 0.88568
 H2540 H 1.24351 0.85945 0.91838
 H2541 H 1.21054 0.88710 0.91996
 H2542 H 1.26323 0.95166 0.89004
 H2543 H 1.28426 0.85065 0.90801
 H2544 H 1.22267 0.96066 0.90175
 C2545 C 1.27930 0.36464 0.41091
 C2546 C 1.29396 0.38198 0.39994
 C2547 C 1.28510 0.40522 0.39775
 C2548 C 1.26215 0.41079 0.40564
 C2549 C 1.24745 0.39295 0.41559
 C2550 C 1.25628 0.37002 0.41837
 C2551 C 1.22408 0.39827 0.42238
 C2552 C 1.21528 0.42142 0.41982
 C2553 C 1.23049 0.43922 0.41075
 C2554 C 1.25359 0.43393 0.40356
 H2555 H 1.29609 0.41922 0.39031
 H2556 H 1.24529 0.35612 0.42610
 H2557 H 1.21266 0.38423 0.42910
 H2558 H 1.26474 0.44794 0.39630
 H2559 H 1.28500 0.34650 0.41281
 H2560 H 1.22457 0.45736 0.40920
 C2561 C 0.78391 0.91604 0.39183
 C2562 C 0.78667 0.89135 0.39060
 C2563 C 0.76796 0.87656 0.39822
 C2564 C 0.74670 0.88622 0.40671
 C2565 C 0.74405 0.91106 0.40783
 C2566 C 0.76282 0.92582 0.40046
 C2567 C 0.72265 0.92069 0.41615
 C2568 C 0.70382 0.90579 0.42330
 C2569 C 0.70669 0.88111 0.42201
 C2570 C 0.72793 0.87141 0.41385
 H2571 H 0.76971 0.85752 0.39696
 H2572 H 0.76113 0.94490 0.40123
 H2573 H 0.72072 0.93974 0.41725
 H2574 H 0.72962 0.85234 0.41297
 H2575 H 0.79815 0.92776 0.38622
 H2576 H 0.69233 0.86925 0.42703
 C2577 C 0.76201 0.36233 0.89191
 C2578 C 0.77752 0.37831 0.88006
 C2579 C 0.77040 0.40206 0.87740
 C2580 C 0.74896 0.40985 0.88753
 C2581 C 0.73380 0.39354 0.89938
 C2582 C 0.74034 0.36979 0.90116
 C2583 C 0.71237 0.40120 0.90944
 C2584 C 0.70602 0.42519 0.90845
 C2585 C 0.72150 0.44141 0.89706
 C2586 C 0.74263 0.43379 0.88651
 H2587 H 0.78207 0.41481 0.86876
 H2588 H 0.72884 0.35700 0.91003
 H2589 H 0.70054 0.38836 0.91776
 H2590 H 0.75413 0.44665 0.87777
 H2591 H 0.76628 0.34376 0.89363
 H2592 H 0.71732 0.46009 0.89636
 C2593 C 0.73895 0.85602 1.10819
 C2594 C 0.72346 0.87245 1.11864
 C2595 C 0.72955 0.89658 1.11831
 C2596 C 0.75099 0.90423 1.10799
 C2597 C 0.76673 0.88753 1.09801
 C2598 C 0.76047 0.86348 1.09806
 C2599 C 0.78854 0.89514 1.08839
 C2600 C 0.79480 0.91928 1.08844
 C2601 C 0.77868 0.93575 1.09791
 C2602 C 0.75704 0.92830 1.10767
 H2603 H 0.71752 0.90938 1.12602
 H2604 H 0.77229 0.85043 1.09044
 H2605 H 0.80085 0.88218 1.08142
 H2606 H 0.74508 0.94135 1.11506
 H2607 H 0.73463 0.83734 1.10838
 H2608 H 0.78279 0.95449 1.09776
 C2609 C 0.71696 0.37961 0.57971
 C2610 C 0.71337 0.37998 0.60429
 C2611 C 0.73190 0.38722 0.61868
 C2612 C 0.75355 0.39460 0.60874
 C2613 C 0.75687 0.39478 0.58397
 C2614 C 0.73853 0.38704 0.56961
 C2615 C 0.77836 0.40296 0.57405
 C2616 C 0.79655 0.41091 0.58862
 C2617 C 0.79314 0.41005 0.61325
 C2618 C 0.77183 0.40204 0.62321
 H2619 H 0.72943 0.38710 0.63768
 H2620 H 0.74077 0.38698 0.55059
 H2621 H 0.78071 0.40364 0.55504
 H2622 H 0.76962 0.40179 0.64224
 H2623 H 0.70285 0.37416 0.56833
 H2624 H 0.80705 0.41551 0.62488
 C2625 C 0.22161 0.86429 0.60033
 C2626 C 0.20587 0.88264 0.60611
 C2627 C 0.21390 0.90619 0.60506
 C2628 C 0.23736 0.91138 0.59830
 C2629 C 0.25312 0.89277 0.59279
 C2630 C 0.24506 0.86929 0.59384
 C2631 C 0.27670 0.89794 0.58644
 C2632 C 0.28476 0.92152 0.58527
 C2633 C 0.26875 0.93988 0.59040
 C2634 C 0.24533 0.93487 0.59695
 H2635 H 0.20179 0.92045 0.60923
 H2636 H 0.25689 0.85480 0.58970
 H2637 H 0.28884 0.88356 0.58281
 H2638 H 0.23345 0.94937 0.60091
 H2639 H 0.21588 0.84600 0.60127
 H2640 H 0.27430 0.95823 0.58920
 C2641 C 0.21195 0.42222 1.10770
 C2642 C 0.20719 0.39771 1.10614
 C2643 C 0.22575 0.38254 1.09925
 C2644 C 0.24871 0.39145 1.09541
 C2645 C 0.25314 0.41602 1.09716
 C2646 C 0.23455 0.43126 1.10299
 C2647 C 0.27608 0.42493 1.09307
 C2648 C 0.29477 0.40952 1.08754
 C2649 C 0.29026 0.38500 1.08670
 C2650 C 0.26745 0.37609 1.09037
 H2651 H 0.22283 0.36362 1.09836
 H2652 H 0.23754 0.45016 1.10426
 H2653 H 0.27924 0.44385 1.09365
 H2654 H 0.26451 0.35716 1.08932
 H2655 H 0.19809 0.43461 1.11223
 H2656 H 0.30441 0.37264 1.08301
 C2657 C 0.72360 1.09297 0.87616
 C2658 C 0.71864 1.11718 0.87977
 C2659 C 0.73455 1.13061 0.89315
 C2660 C 0.75526 1.12032 0.90180
 C2661 C 0.75972 1.09605 0.89812
 C2662 C 0.74366 1.08250 0.88551
 C2663 C 0.78035 1.08572 0.90676
 C2664 C 0.79732 1.09951 0.91824
 C2665 C 0.79283 1.12382 0.92145
 C2666 C 0.77190 1.13403 0.91361
 H2667 H 0.73158 1.14932 0.89584
 H2668 H 0.74676 1.06382 0.88256
 H2669 H 0.78312 1.06691 0.90445
 H2670 H 0.76898 1.15276 0.91635
 H2671 H 0.71164 1.08172 0.86668
 H2672 H 0.80566 1.13519 0.92963
 C2673 C 0.72233 0.58146 0.37976
 C2674 C 0.72062 0.60627 0.37856
 C2675 C 0.74052 0.62012 0.38352
 C2676 C 0.76185 0.60940 0.38969
 C2677 C 0.76335 0.58443 0.39116
 C2678 C 0.74347 0.57063 0.38610
 C2679 C 0.78458 0.57378 0.39799
 C2680 C 0.80420 0.58783 0.40356
 C2681 C 0.80263 0.61260 0.40138
 C2682 C 0.78167 0.62328 0.39453
 H2683 H 0.73950 0.63923 0.38222
 H2684 H 0.74425 0.55148 0.38712
 H2685 H 0.78560 0.55468 0.39973
 H2686 H 0.78090 0.64241 0.39328
 H2687 H 0.70716 0.57047 0.37606
 H2688 H 0.81766 0.62375 0.40524
 C2689 C 0.21423 1.07707 0.38448
 C2690 C 0.21069 1.10179 0.38586
 C2691 C 0.22927 1.11595 0.39411
 C2692 C 0.25109 1.10583 0.39977
 C2693 C 0.25424 1.08106 0.39839
 C2694 C 0.23559 1.06684 0.39094
 C2695 C 0.27594 1.07092 0.40459
 C2696 C 0.29466 1.08533 0.41190
 C2697 C 0.29157 1.11007 0.41215
 C2698 C 0.26998 1.12018 0.40640
 H2699 H 0.22737 1.13500 0.39489
 H2700 H 0.23758 1.04781 0.38987
 H2701 H 0.27801 1.05185 0.40432
 H2702 H 0.26808 1.13925 0.40716
 H2703 H 0.20027 1.06538 0.37890
 H2704 H 0.30587 1.12170 0.41708
 C2705 C 0.22017 0.62405 0.91148
 C2706 C 0.21737 0.62025 0.88710
 C2707 C 0.23505 0.60755 0.87479
 C2708 C 0.25525 0.59955 0.88633
 C2709 C 0.25753 0.60315 0.91079
 C2710 C 0.23980 0.61529 0.92321
 C2711 C 0.27758 0.59471 0.92239
 C2712 C 0.29583 0.58332 0.90968
 C2713 C 0.29365 0.58073 0.88510
 C2714 C 0.27346 0.58840 0.87365
 H2715 H 0.23382 0.60488 0.85598
 H2716 H 0.24120 0.61824 0.94199
 H2717 H 0.27878 0.59684 0.94129
 H2718 H 0.27226 0.58589 0.85479
 H2719 H 0.20683 0.63318 0.92183
 H2720 H 0.30765 0.57291 0.87452
 C2721 C 1.10683 1.27000 1.13612
 C2722 C 1.11396 1.28605 1.11826
 C2723 C 1.11323 1.27892 1.09460
 C2724 C 1.10526 1.25614 1.08882
 C2725 C 1.09831 1.24006 1.10693
 C2726 C 1.09923 1.24717 1.13053
 C2727 C 1.09058 1.21718 1.10112
 C2728 C 1.08951 1.21016 1.07739
 C2729 C 1.09608 1.22656 1.05958
 C2730 C 1.10397 1.24923 1.06523
 H2731 H 1.11837 1.29129 1.08071
 H2732 H 1.09398 1.23511 1.14466
 H2733 H 1.08581 1.20474 1.11509
 H2734 H 1.10900 1.26139 1.05111
 H2735 H 1.10738 1.27508 1.15446
 H2736 H 1.09499 1.22190 1.04115
 C2737 C 1.08783 0.77362 0.62742
 C2738 C 1.09607 0.78869 0.60920
 C2739 C 1.09700 0.78042 0.58594
 C2740 C 1.08995 0.75722 0.58091
 C2741 C 1.08226 0.74198 0.59944
 C2742 C 1.08111 0.75039 0.62261
 C2743 C 1.07608 0.71851 0.59455
 C2744 C 1.07703 0.71008 0.57128
 C2745 C 1.08408 0.72564 0.55292
 C2746 C 1.09064 0.74893 0.55770
 H2747 H 1.10317 0.79210 0.57184
 H2748 H 1.07520 0.73897 0.63701
 H2749 H 1.07102 0.70673 0.60897
 H2750 H 1.09625 0.76045 0.54326
 H2751 H 1.08723 0.77965 0.64549
 H2752 H 1.08446 0.71985 0.53477
 C2753 C 0.59229 1.27239 0.63503
 C2754 C 0.60120 1.28784 0.61741
 C2755 C 0.60083 1.28072 0.59372
 C2756 C 0.59223 1.25827 0.58774
 C2757 C 0.58388 1.24264 0.60566
 C2758 C 0.58376 1.24997 0.62922
 C2759 C 0.57617 1.21983 0.59976
 C2760 C 0.57657 1.21239 0.57612
 C2761 C 0.58438 1.22835 0.55842
 C2762 C 0.59218 1.25103 0.56417
 H2763 H 0.60739 1.29261 0.57998
 H2764 H 0.57740 1.23824 0.64319
 H2765 H 0.57047 1.20768 0.61365
 H2766 H 0.59834 1.26285 0.55019
 H2767 H 0.59262 1.27734 0.65341
 H2768 H 0.58444 1.22331 0.54004
 C2769 C 0.60111 0.76348 1.14448
 C2770 C 0.61096 0.77975 1.12814
 C2771 C 0.61015 0.77471 1.10393
 C2772 C 0.60004 0.75352 1.09615
 C2773 C 0.59072 0.73702 1.11277
 C2774 C 0.59116 0.74226 1.13688
 C2775 C 0.58147 0.71540 1.10505
 C2776 C 0.58123 0.71005 1.08085
 C2777 C 0.59000 0.72692 1.06447
 C2778 C 0.59938 0.74840 1.07204
 H2779 H 0.61744 0.78730 1.09120
 H2780 H 0.58407 0.72984 1.14988
 H2781 H 0.57508 0.70251 1.11794
 H2782 H 0.60626 0.76094 1.05904
 H2783 H 0.60173 0.76688 1.16321
 H2784 H 0.58964 0.72350 1.04572
 C2785 C 0.86349 1.26413 0.89670
 C2786 C 0.88057 1.28122 0.89014
 C2787 C 0.90460 1.27627 0.89317
 C2788 C 0.91150 1.25448 0.90277
 C2789 C 0.89412 1.23743 0.90926
 C2790 C 0.87020 1.24242 0.90617
 C2791 C 0.90094 1.21548 0.91838
 C2792 C 0.92493 1.21020 0.92098
 C2793 C 0.94211 1.22733 0.91484
 C2794 C 0.93544 1.24934 0.90585
 H2795 H 0.91781 1.28946 0.88831
 H2796 H 0.85668 1.22950 0.91094
 H2797 H 0.88761 1.20222 0.92272
 H2798 H 0.94900 1.26222 0.90108
 H2799 H 0.84488 1.26744 0.89418
 H2800 H 0.96072 1.22361 0.91688
 C2801 C 0.85909 0.76192 0.38729
 C2802 C 0.87630 0.77808 0.37887
 C2803 C 0.90024 0.77161 0.37918
 C2804 C 0.90695 0.74944 0.38821
 C2805 C 0.88948 0.73331 0.39660
 C2806 C 0.86559 0.73969 0.39593
 C2807 C 0.89618 0.71110 0.40553
 C2808 C 0.92018 0.70478 0.40637
 C2809 C 0.93739 0.72117 0.39828
 C2810 C 0.93084 0.74321 0.38921
 H2811 H 0.91363 0.78409 0.37301
 H2812 H 0.85194 0.72758 0.40225
 H2813 H 0.88269 0.69861 0.41145
 H2814 H 0.94450 0.75540 0.38306
 H2815 H 0.84054 0.76651 0.38706
 H2816 H 0.95601 0.71699 0.39907
 C2817 C 0.42344 1.28069 0.38296
 C2818 C 0.39891 1.28443 0.38356
 C2819 C 0.38369 1.26554 0.38948
 C2820 C 0.39283 1.24324 0.39515
 C2821 C 0.41757 1.23975 0.39517
 C2822 C 0.43272 1.25856 0.38885
 C2823 C 0.42669 1.21768 0.40195
 C2824 C 0.41134 1.19908 0.40874
 C2825 C 0.38678 1.20257 0.40773
 C2826 C 0.37761 1.22444 0.40108
 H2827 H 0.36474 1.26823 0.38957
 H2828 H 0.45172 1.25623 0.38868
 H2829 H 0.44565 1.21525 0.40273
 H2830 H 0.35861 1.22673 0.40088
 H2831 H 0.43543 1.29509 0.37848
 H2832 H 0.37458 1.18837 0.41234
 C2833 C 0.42621 0.78820 0.89654
 C2834 C 0.40185 0.79279 0.89597
 C2835 C 0.38575 0.77445 0.90139
 C2836 C 0.39381 0.75185 0.90745
 C2837 C 0.41835 0.74743 0.90822
 C2838 C 0.43442 0.76572 0.90271
 C2839 C 0.42637 0.72483 0.91454
 C2840 C 0.41015 0.70656 0.92004
 C2841 C 0.38580 0.71116 0.91894
 C2842 C 0.37770 0.73360 0.91274
 H2843 H 0.36693 0.77767 0.90054
 H2844 H 0.45329 0.76265 0.90319
 H2845 H 0.44519 0.72156 0.91554
 H2846 H 0.35883 0.73668 0.91209
 H2847 H 0.43890 0.80212 0.89254
 H2848 H 0.37296 0.69730 0.92268
 C2849 C 1.14088 0.74288 0.88169
 C2850 C 1.12362 0.72667 0.87453
 C2851 C 1.09969 0.73312 0.87561
 C2852 C 1.09305 0.75539 0.88442
 C2853 C 1.11061 0.77154 0.89162
 C2854 C 1.13447 0.76518 0.88998
 C2855 C 1.10406 0.79373 0.90048
 C2856 C 1.08011 0.80003 0.90263
 C2857 C 1.06277 0.78373 0.89562
 C2858 C 1.06918 0.76169 0.88650
 H2859 H 1.08634 0.72056 0.87028
 H2860 H 1.14817 0.77733 0.89537
 H2861 H 1.11766 0.80619 0.90544
 H2862 H 1.05545 0.74950 0.88126
 H2863 H 1.15942 0.73824 0.88078
 H2864 H 1.04417 0.78792 0.89740
 C2865 C 1.09039 0.21542 0.37856
 C2866 C 1.11501 0.21213 0.37884
 C2867 C 1.12929 0.23011 0.38814
 C2868 C 1.11910 0.25115 0.39679
 C2869 C 1.09431 0.25409 0.39657
 C2870 C 1.08014 0.23608 0.38744
 C2871 C 1.08407 0.27498 0.40542
 C2872 C 1.09826 0.29336 0.41419
 C2873 C 1.12298 0.29026 0.41397
 C2874 C 1.13324 0.26937 0.40554
 H2875 H 1.14829 0.22786 0.38829
 H2876 H 1.06110 0.23799 0.38713
 H2877 H 1.06501 0.27676 0.40567
 H2878 H 1.15230 0.26758 0.40567
 H2879 H 1.07897 0.20176 0.37181
 H2880 H 1.13453 0.30415 0.42003
 C2881 C 0.64597 0.73528 0.39222
 C2882 C 0.62887 0.71888 0.38501
 C2883 C 0.60486 0.72369 0.38956
 C2884 C 0.59804 0.74451 0.40129
 C2885 C 0.61537 0.76105 0.40821
 C2886 C 0.63931 0.75622 0.40355
 C2887 C 0.60844 0.78221 0.41937
 C2888 C 0.58434 0.78709 0.42359
 C2889 C 0.56741 0.77007 0.41729
 C2890 C 0.57415 0.74908 0.40623
 H2891 H 0.59158 0.71097 0.38442
 H2892 H 0.65288 0.76862 0.40870
 H2893 H 0.62168 0.79519 0.42398
 H2894 H 0.56063 0.73652 0.40131
 H2895 H 0.66456 0.73194 0.38886
 H2896 H 0.54877 0.77317 0.42068
 C2897 C 0.59122 0.22275 0.87894
 C2898 C 0.61592 0.22011 0.87851
 C2899 C 0.63006 0.23834 0.88747
 C2900 C 0.61970 0.25903 0.89651
 C2901 C 0.59484 0.26142 0.89699
 C2902 C 0.58077 0.24313 0.88822
 C2903 C 0.58447 0.28209 0.90609
 C2904 C 0.59862 0.30070 0.91440
 C2905 C 0.62337 0.29812 0.91360
 C2906 C 0.63377 0.27747 0.90489
 H2907 H 0.64912 0.23660 0.88695
 H2908 H 0.56168 0.24464 0.88844
 H2909 H 0.56539 0.28357 0.90682
 H2910 H 0.65287 0.27604 0.90449
 H2911 H 0.57998 0.20886 0.87234
 H2912 H 0.63480 0.31226 0.91936
 C2913 C 0.91706 0.71952 1.11494
 C2914 C 0.89238 0.71672 1.11496
 C2915 C 0.87829 0.73551 1.10714
 C2916 C 0.88864 0.75677 1.09919
 C2917 C 0.91350 0.75931 1.09873
 C2918 C 0.92756 0.74059 1.10673
 C2919 C 0.92381 0.78049 1.09021
 C2920 C 0.90954 0.79925 1.08239
 C2921 C 0.88480 0.79657 1.08354
 C2922 C 0.87447 0.77552 1.09170
 H2923 H 0.85922 0.73364 1.10752
 H2924 H 0.94665 0.74221 1.10660
 H2925 H 0.94289 0.78217 1.08934
 H2926 H 0.85538 0.77395 1.09221
 H2927 H 0.92819 0.70521 1.12087
 H2928 H 0.87332 0.81088 1.07829
 C2929 C 0.86272 0.22962 0.60252
 C2930 C 0.88067 0.21403 0.60935
 C2931 C 0.90434 0.22139 0.60765
 C2932 C 0.91005 0.24403 0.59878
 C2933 C 0.89181 0.25962 0.59205
 C2934 C 0.86821 0.25227 0.59408
 C2935 C 0.89743 0.28238 0.58357
 C2936 C 0.92108 0.28983 0.58159
 C2937 C 0.93911 0.27399 0.58780
 C2938 C 0.93365 0.25135 0.59640
 H2939 H 0.91820 0.20930 0.61275
 H2940 H 0.85401 0.26397 0.58906
 H2941 H 0.88335 0.29448 0.57910
 H2942 H 0.94788 0.23959 0.60124
 H2943 H 0.84435 0.22428 0.60393
 H2944 H 0.95752 0.27916 0.58608
 C2945 C 0.35600 0.73140 0.60998
 C2946 C 0.37385 0.71557 0.61658
 C2947 C 0.39757 0.72291 0.61509
 C2948 C 0.40342 0.74583 0.60726
 C2949 C 0.38532 0.76168 0.60090
 C2950 C 0.36168 0.75427 0.60224
 C2951 C 0.39114 0.78474 0.59350
 C2952 C 0.41485 0.79220 0.59233
 C2953 C 0.43273 0.77618 0.59839
 C2954 C 0.42707 0.75320 0.60581
 H2955 H 0.41146 0.71073 0.61986
 H2956 H 0.34758 0.76621 0.59748
 H2957 H 0.37718 0.79702 0.58913
 H2958 H 0.44118 0.74123 0.61048
 H2959 H 0.33758 0.72624 0.61126
 H2960 H 0.45116 0.78140 0.59727
 C2961 C 0.41952 0.21059 1.11940
 C2962 C 0.39477 0.20798 1.12008
 C2963 C 0.38065 0.22751 1.11433
 C2964 C 0.39111 0.24940 1.10816
 C2965 C 0.41603 0.25176 1.10737
 C2966 C 0.43005 0.23220 1.11301
 C2967 C 0.42649 0.27352 1.10065
 C2968 C 0.41234 0.29296 1.09458
 C2969 C 0.38757 0.29052 1.09613
 C2970 C 0.37708 0.26900 1.10279
 H2971 H 0.36157 0.22575 1.11508
 H2972 H 0.44915 0.23360 1.11247
 H2973 H 0.44558 0.27510 1.09943
 H2974 H 0.35797 0.26764 1.10353
 H2975 H 0.43076 0.19575 1.12358
 H2976 H 0.37623 0.30532 1.09198
 C2977 C 1.07219 1.10621 0.70584
 C2978 C 1.09652 1.10509 0.69984
 C2979 C 1.11246 1.09874 0.71754
 C2980 C 1.10444 1.09494 0.74086
 C2981 C 1.08002 1.09618 0.74650
 C2982 C 1.06404 1.10153 0.72879
 C2983 C 1.07198 1.09202 0.76976
 C2984 C 1.08810 1.08691 0.78756
 C2985 C 1.11245 1.08665 0.78187
 C2986 C 1.12051 1.09039 0.75874
 H2987 H 1.13127 1.09821 0.71366
 H2988 H 1.04525 1.10242 0.73272
 H2989 H 1.05318 1.09215 0.77385
 H2990 H 1.13933 1.08975 0.75485
 H2991 H 1.05924 1.11031 0.69267
 H2992 H 1.12533 1.08329 0.79534
 C2993 C 1.07598 0.60832 0.20834
 C2994 C 1.10016 0.60612 0.20211
 C2995 C 1.11550 0.59643 0.21894
 C2996 C 1.10713 0.58996 0.24152
 C2997 C 1.08288 0.59217 0.24737
 C2998 C 1.06742 0.60115 0.23057
 C2999 C 1.07455 0.58562 0.27000
 C3000 C 1.09030 0.57751 0.28716
 C3001 C 1.11451 0.57592 0.28117
 C3002 C 1.12279 0.58181 0.25854
 H3003 H 1.13425 0.59506 0.21515
 H3004 H 1.04873 0.60292 0.23471
 H3005 H 1.05581 0.58674 0.27414
 H3006 H 1.14151 0.58032 0.25446
 H3007 H 1.06342 0.61510 0.19589
 H3008 H 1.12723 0.57038 0.29407
 C3009 C 0.58884 1.11740 0.22244
 C3010 C 0.61343 1.11529 0.21819
 C3011 C 0.62702 1.10347 0.23518
 C3012 C 0.61649 1.09522 0.25638
 C3013 C 0.59187 1.09757 0.26024
 C3014 C 0.57819 1.10837 0.24301
 C3015 C 0.58133 1.08941 0.28142
 C3016 C 0.59517 1.07961 0.29932
 C3017 C 0.61980 1.07785 0.29542
 C3018 C 0.63028 1.08527 0.27409
 H3019 H 0.64597 1.10194 0.23269
 H3020 H 0.55926 1.11021 0.24560
 H3021 H 0.56234 1.09067 0.28386
 H3022 H 0.64924 1.08362 0.27164
 H3023 H 0.57754 1.12559 0.20960
 H3024 H 0.63114 1.07102 0.30899
 C3025 C 0.61649 0.58104 0.71217
 C3026 C 0.61513 0.60542 0.70730
 C3027 C 0.60594 0.62062 0.72469
 C3028 C 0.59808 0.61164 0.74661
 C3029 C 0.59913 0.58705 0.75122
 C3030 C 0.60841 0.57190 0.73389
 C3031 C 0.59090 0.57805 0.77305
 C3032 C 0.58196 0.59335 0.79058
 C3033 C 0.58139 0.61783 0.78581
 C3034 C 0.58923 0.62686 0.76403
 H3035 H 0.60519 0.63949 0.72123
 H3036 H 0.60941 0.55300 0.73712
 H3037 H 0.59124 0.55912 0.77627
 H3038 H 0.58850 0.64578 0.76086
 H3039 H 0.62338 0.56903 0.69897
 H3040 H 0.57516 0.63014 0.79907
 C3041 C 0.90746 0.88584 0.71702
 C3042 C 0.88266 0.88462 0.71635
 C3043 C 0.86920 0.89334 0.73543
 C3044 C 0.88040 0.90257 0.75526
 C3045 C 0.90537 0.90355 0.75582
 C3046 C 0.91872 0.89536 0.73649
 C3047 C 0.91657 0.91252 0.77576
 C3048 C 0.90315 0.92040 0.79530
 C3049 C 0.87832 0.91913 0.79456
 C3050 C 0.86707 0.91041 0.77473
 H3051 H 0.85009 0.89217 0.73516
 H3052 H 0.93786 0.89601 0.73655
 H3053 H 0.93570 0.91357 0.77599
 H3054 H 0.84793 0.90962 0.77471
 H3055 H 0.91813 0.87934 0.70240
 H3056 H 0.86753 0.92464 0.80950
 C3057 C 0.87475 0.40644 0.22360
 C3058 C 0.87766 0.38201 0.21937
 C3059 C 0.89086 0.36863 0.23559
 C3060 C 0.90018 0.37916 0.25575
 C3061 C 0.89741 0.40367 0.25944
 C3062 C 0.88483 0.41717 0.24314
 C3063 C 0.90692 0.41422 0.27954
 C3064 C 0.91830 0.40041 0.29674
 C3065 C 0.92036 0.37584 0.29299
 C3066 C 0.91175 0.36544 0.27261
 H3067 H 0.89289 0.34973 0.23336
 H3068 H 0.88249 0.43602 0.24567
 H3069 H 0.90536 0.43318 0.28167
 H3070 H 0.91372 0.34652 0.27028
 H3071 H 0.86525 0.41757 0.21146
 H3072 H 0.92824 0.36439 0.30600
 C3073 C 0.35988 0.89761 0.24072
 C3074 C 0.37590 0.88532 0.22585
 C3075 C 0.39918 0.88181 0.23372
 C3076 C 0.40619 0.89040 0.25570
 C3077 C 0.38964 0.90198 0.27051
 C3078 C 0.36659 0.90551 0.26284
 C3079 C 0.39638 0.90991 0.29277
 C3080 C 0.41982 0.90734 0.30026
 C3081 C 0.43632 0.89635 0.28500
 C3082 C 0.42952 0.88774 0.26310
 H3083 H 0.41215 0.87310 0.22255
 H3084 H 0.35367 0.91442 0.27397
 H3085 H 0.38317 0.91784 0.30428
 H3086 H 0.44258 0.87919 0.25186
 H3087 H 0.34173 0.90034 0.23587
 H3088 H 0.45463 0.89456 0.28983
 C3089 C 0.39753 0.36132 0.73804
 C3090 C 0.39061 0.37963 0.72279
 C3091 C 0.39379 0.40324 0.72948
 C3092 C 0.40394 0.40853 0.75121
 C3093 C 0.41050 0.38996 0.76663
 C3094 C 0.40725 0.36641 0.75984
 C3095 C 0.41979 0.39523 0.78875
 C3096 C 0.42261 0.41886 0.79569
 C3097 C 0.41688 0.43716 0.77983
 C3098 C 0.40756 0.43205 0.75785
 H3099 H 0.38870 0.41738 0.71762
 H3100 H 0.41216 0.35195 0.77139
 H3101 H 0.42397 0.38098 0.80086
 H3102 H 0.40293 0.44651 0.74617
 H3103 H 0.39507 0.34299 0.73317
 H3104 H 0.41930 0.45553 0.78459
 C3105 C 1.14398 0.89619 1.25918
 C3106 C 1.12735 0.88342 1.27324
 C3107 C 1.10441 0.88017 1.26457
 C3108 C 1.09805 0.89028 1.24287
 C3109 C 1.11511 0.90253 1.22886
 C3110 C 1.13806 0.90521 1.23712
 C3111 C 1.10897 0.91201 1.20686
 C3112 C 1.08563 0.91032 1.19892
 C3113 C 1.06855 0.89904 1.21367
 C3114 C 1.07477 0.88878 1.23515
 H3115 H 1.09114 0.87093 1.27521
 H3116 H 1.15140 0.91455 1.22665
 H3117 H 1.12253 0.92037 1.19587
 H3118 H 1.06128 0.87993 1.24585
 H3119 H 1.16198 0.89858 1.26476
 H3120 H 1.05021 0.89811 1.20873
 C3121 C 1.14037 0.40206 0.76725
 C3122 C 1.12406 0.38974 0.78207
 C3123 C 1.10092 0.38618 0.77395
 C3124 C 1.09414 0.39531 0.75197
 C3125 C 1.11089 0.40713 0.73726
 C3126 C 1.13397 0.41029 0.74503
 C3127 C 1.10430 0.41573 0.71505
 C3128 C 1.08084 0.41349 0.70753
 C3129 C 1.06413 0.40243 0.72283
 C3130 C 1.07077 0.39315 0.74461
 H3131 H 1.08781 0.37733 0.78510
 H3132 H 1.14707 0.41931 0.73399
 H3133 H 1.11760 0.42386 0.70358
 H3134 H 1.05754 0.38452 0.75581
 H3135 H 1.15849 0.40471 0.77236
 H3136 H 1.04576 0.40100 0.71809
 C3137 C 0.57502 0.89046 0.79272
 C3138 C 0.59968 0.89152 0.79498
 C3139 C 0.61380 0.89869 0.77558
 C3140 C 0.60348 0.90471 0.75411
 C3141 C 0.57862 0.90399 0.75203
 C3142 C 0.56454 0.89683 0.77148
 C3143 C 0.56832 0.91057 0.73062
 C3144 C 0.58261 0.91780 0.71126
 C3145 C 0.60734 0.91771 0.71343
 C3146 C 0.61766 0.91136 0.73465
 H3147 H 0.63286 0.89910 0.77709
 H3148 H 0.54547 0.89610 0.77025
 H3149 H 0.54924 0.91062 0.72921
 H3150 H 0.63675 0.91171 0.73586
 H3151 H 0.56388 0.88496 0.80754
 H3152 H 0.61880 0.92261 0.69865
 C3153 C 0.62627 0.41704 1.28254
 C3154 C 0.62220 0.39274 1.28723
 C3155 C 0.61074 0.37928 1.26997
 C3156 C 0.60379 0.38971 1.24864
 C3157 C 0.60713 0.41421 1.24467
 C3158 C 0.61844 0.42769 1.26176
 C3159 C 0.59909 0.42479 1.22373
 C3160 C 0.58844 0.41098 1.20620
 C3161 C 0.58663 0.38630 1.21000
 C3162 C 0.59377 0.37590 1.23106
 H3163 H 0.60806 0.36045 1.27260
 H3164 H 0.62132 0.44650 1.25904
 H3165 H 0.60080 0.44376 1.22137
 H3166 H 0.59161 0.35696 1.23351
 H3167 H 0.63463 0.42821 1.29535
 H3168 H 0.57968 0.37478 1.19665
 C3169 C 0.90469 1.13439 1.26885
 C3170 C 0.89670 1.11611 1.28398
 C3171 C 0.89896 1.09251 1.27690
 C3172 C 0.90913 1.08717 1.25483
 C3173 C 0.91662 1.10570 1.23944
 C3174 C 0.91441 1.12925 1.24668
 C3175 C 0.92577 1.10040 1.21694
 C3176 C 0.92762 1.07677 1.20959
 C3177 C 0.92105 1.05848 1.22544
 C3178 C 0.91178 1.06362 1.24779
 H3179 H 0.89305 1.07841 1.28872
 H3180 H 0.92010 1.14368 1.23517
 H3181 H 0.93059 1.11467 1.20486
 H3182 H 0.90643 1.04919 1.25945
 H3183 H 0.90298 1.15270 1.27409
 H3184 H 0.92277 1.04011 1.22040
 C3185 C 0.89242 0.64185 0.76255
 C3186 C 0.88476 0.62437 0.77877
 C3187 C 0.88577 0.60046 0.77238
 C3188 C 0.89492 0.59402 0.75013
 C3189 C 0.90257 0.61177 0.73392
 C3190 C 0.90108 0.63563 0.74025
 C3191 C 0.91160 0.60539 0.71165
 C3192 C 0.91332 0.58145 0.70534
 C3193 C 0.90603 0.56394 0.72177
 C3194 C 0.89682 0.57016 0.74389
 H3195 H 0.88010 0.58696 0.78497
 H3196 H 0.90682 0.64947 0.72806
 H3197 H 0.91687 0.61909 0.69910
 H3198 H 0.89126 0.55630 0.75614
 H3199 H 0.89159 0.66039 0.76717
 H3200 H 0.90751 0.54534 0.71752
 C3201 C 0.40497 1.13483 0.77465
 C3202 C 0.39795 1.11608 0.78968
 C3203 C 0.39720 1.09297 0.78090
 C3204 C 0.40363 1.08856 0.75732
 C3205 C 0.41035 1.10759 0.74222
 C3206 C 0.41096 1.13066 0.75107
 C3207 C 0.41624 1.10328 0.71851
 C3208 C 0.41583 1.08011 0.70967
 C3209 C 0.40971 1.06127 0.72505
 C3210 C 0.40351 1.06546 0.74859
 H3211 H 0.39198 1.07848 0.79255
 H3212 H 0.41608 1.14545 0.73978
 H3213 H 0.42068 1.11802 0.70687
 H3214 H 0.39867 1.05064 0.75996
 H3215 H 0.40542 1.15280 0.78111
 H3216 H 0.40977 1.04317 0.71891
 C3217 C 0.38877 0.57653 1.28875
 C3218 C 0.39024 0.60110 1.29299
 C3219 C 0.39719 0.61618 1.27415
 C3220 C 0.40197 0.60707 1.25164
 C3221 C 0.40082 0.58242 1.24784
 C3222 C 0.39428 0.56731 1.26655
 C3223 C 0.40632 0.57331 1.22543
 C3224 C 0.41262 0.58863 1.20665
 C3225 C 0.41266 0.61322 1.21050
 C3226 C 0.40764 0.62233 1.23279
 H3227 H 0.39782 0.63516 1.27652
 H3228 H 0.39332 0.54834 1.26399
 H3229 H 0.40627 0.55432 1.22280
 H3230 H 0.40819 0.64133 1.23528
 H3231 H 0.38404 0.56419 1.30276
 H3232 H 0.41675 0.62553 1.19624
 C3233 C 1.11494 1.28906 0.91574
 C3234 C 1.11616 1.29219 0.89112
 C3235 C 1.11050 1.27310 0.87654
 C3236 C 1.10411 1.25104 0.88641
 C3237 C 1.10299 1.24807 0.91121
 C3238 C 1.10831 1.26726 0.92570
 C3239 C 1.09648 1.22600 0.92106
 C3240 C 1.09096 1.20689 0.90641
 C3241 C 1.09255 1.21000 0.88178
 C3242 C 1.09902 1.23184 0.87188
 H3243 H 1.11175 1.27524 0.85755
 H3244 H 1.10750 1.26537 0.94473
 H3245 H 1.09516 1.22386 0.94005
 H3246 H 1.09997 1.23372 0.85285
 H3247 H 1.11911 1.30358 0.92730
 H3248 H 1.08872 1.19546 0.87012
 C3249 C 1.14286 0.76383 0.38422
 C3250 C 1.12519 0.77944 0.37669
 C3251 C 1.10139 0.77256 0.37892
 C3252 C 1.09528 0.75049 0.38902
 C3253 C 1.11322 0.73489 0.39647
 C3254 C 1.13696 0.74171 0.39385
 C3255 C 1.10715 0.71269 0.40627
 C3256 C 1.08333 0.70581 0.40874
 C3257 C 1.06565 0.72174 0.40180
 C3258 C 1.07155 0.74380 0.39198
 H3259 H 1.08771 0.78466 0.37341
 H3260 H 1.15096 0.73002 0.39941
 H3261 H 1.12097 0.70054 0.41134
 H3262 H 1.05754 0.75557 0.38662
 H3263 H 1.16132 0.76880 0.38253
 H3264 H 1.04714 0.71706 0.40385
 C3265 C 0.60838 1.28553 0.41440
 C3266 C 0.61113 1.28783 0.38979
 C3267 C 0.60596 1.26842 0.37546
 C3268 C 0.59899 1.24667 0.38569
 C3269 C 0.59671 1.24447 0.41053
 C3270 C 0.60114 1.26412 0.42468
 C3271 C 0.59014 1.22266 0.42081
 C3272 C 0.58567 1.20298 0.40660
 C3273 C 0.58809 1.20533 0.38194
 C3274 C 0.59469 1.22695 0.37159
 H3275 H 0.60832 1.27002 0.35650
 H3276 H 0.59937 1.26283 0.44371
 H3277 H 0.58808 1.22110 0.43981
 H3278 H 0.59646 1.22821 0.35256
 H3279 H 0.61215 1.30036 0.42572
 H3280 H 0.58492 1.19033 0.37064
 C3281 C 0.61668 0.78635 0.92223
 C3282 C 0.61498 0.79129 0.89802
 C3283 C 0.60636 0.77374 0.88300
 C3284 C 0.59919 0.75163 0.89203
 C3285 C 0.60040 0.74696 0.91649
 C3286 C 0.60931 0.76441 0.93143
 C3287 C 0.59258 0.72501 0.92555
 C3288 C 0.58379 0.70753 0.91042
 C3289 C 0.58325 0.71230 0.88605
 C3290 C 0.59074 0.73416 0.87697
 H3291 H 0.60539 0.77727 0.86424
 H3292 H 0.61046 0.76113 0.95022
 H3293 H 0.59295 0.72172 0.94439
 H3294 H 0.58994 0.73738 0.85814
 H3295 H 0.62322 0.79968 0.93407
 H3296 H 0.57717 0.69904 0.87388
 C3297 C 0.85308 1.25575 1.11628
 C3298 C 0.86852 1.27168 1.12737
 C3299 C 0.89281 1.26612 1.12778
 C3300 C 0.90148 1.24573 1.11657
 C3301 C 0.88567 1.22996 1.10578
 C3302 C 0.86150 1.23503 1.10594
 C3303 C 0.89425 1.20943 1.09487
 C3304 C 0.91864 1.20468 1.09387
 C3305 C 0.93428 1.22091 1.10412
 C3306 C 0.92577 1.24106 1.11558
 H3307 H 0.90521 1.27820 1.13564
 H3308 H 0.84910 1.22309 1.09782
 H3309 H 0.88182 1.19705 1.08746
 H3310 H 0.93824 1.25310 1.12345
 H3311 H 0.83424 1.25885 1.11609
 H3312 H 0.95319 1.21813 1.10322
 C3313 C 0.88807 0.75689 0.64237
 C3314 C 0.87921 0.77303 0.62583
 C3315 C 0.88054 0.76761 0.60173
 C3316 C 0.89088 0.74634 0.59419
 C3317 C 0.89944 0.73004 0.61100
 C3318 C 0.89791 0.73548 0.63505
 C3319 C 0.90934 0.70857 0.60351
 C3320 C 0.91123 0.70325 0.57934
 C3321 C 0.90315 0.71991 0.56278
 C3322 C 0.89293 0.74115 0.57013
 H3323 H 0.87397 0.78017 0.58892
 H3324 H 0.90442 0.72322 0.64819
 H3325 H 0.91516 0.69586 0.61655
 H3326 H 0.88670 0.75354 0.55699
 H3327 H 0.88706 0.76078 0.66102
 H3328 H 0.90479 0.71658 0.54405
 C3329 C 0.41197 1.28379 0.61675
 C3330 C 0.38751 1.28826 0.61502
 C3331 C 0.37333 1.27130 0.60384
 C3332 C 0.38313 1.24981 0.59602
 C3333 C 0.40761 1.24568 0.59814
 C3334 C 0.42190 1.26296 0.60815
 C3335 C 0.41742 1.22419 0.59057
 C3336 C 0.40299 1.20624 0.58154
 C3337 C 0.37853 1.21043 0.57988
 C3338 C 0.36877 1.23206 0.58677
 H3339 H 0.35446 1.27401 0.60255
 H3340 H 0.44074 1.26019 0.60976
 H3341 H 0.43631 1.22152 0.59171
 H3342 H 0.34990 1.23472 0.58526
 H3343 H 0.42373 1.29664 0.62437
 H3344 H 0.36675 1.19685 0.57356
 C3345 C 0.40905 0.78022 1.12756
 C3346 C 0.38493 0.78506 1.12395
 C3347 C 0.37151 0.76837 1.11149
 C3348 C 0.38174 0.74727 1.10335
 C3349 C 0.40603 0.74307 1.10654
 C3350 C 0.41954 0.75971 1.11859
 C3351 C 0.41635 0.72218 1.09785
 C3352 C 0.40249 0.70480 1.08688
 C3353 C 0.37806 0.70898 1.08470
 C3354 C 0.36793 0.73010 1.09245
 H3355 H 0.35279 0.77109 1.10907
 H3356 H 0.43820 0.75677 1.12129
 H3357 H 0.43520 0.71967 1.09958
 H3358 H 0.34914 0.73281 1.09027
 H3359 H 0.42018 0.79266 1.13660
 H3360 H 0.36652 0.69583 1.07726
 C3361 C 0.91844 0.72371 0.88287
 C3362 C 0.89379 0.72062 0.88312
 C3363 C 0.87914 0.73944 0.88993
 C3364 C 0.88894 0.76121 0.89625
 C3365 C 0.91378 0.76417 0.89612
 C3366 C 0.92838 0.74527 0.88947
 C3367 C 0.92356 0.78593 0.90273
 C3368 C 0.90878 0.80474 0.90948
 C3369 C 0.88411 0.80170 0.90904
 C3370 C 0.87428 0.78013 0.90255
 H3371 H 0.86011 0.73729 0.88972
 H3372 H 0.94744 0.74719 0.88926
 H3373 H 0.94259 0.78807 0.90315
 H3374 H 0.85522 0.77822 0.90252
 H3375 H 0.92997 0.70933 0.87768
 H3376 H 0.87238 0.81608 0.91377
 C3377 C 0.91888 0.20742 0.39716
 C3378 C 0.89436 0.20595 0.39396
 C3379 C 0.88033 0.22600 0.39793
 C3380 C 0.89082 0.24757 0.40419
 C3381 C 0.91558 0.24896 0.40708
 C3382 C 0.92939 0.22867 0.40384
 C3383 C 0.92610 0.27061 0.41305
 C3384 C 0.91216 0.29088 0.41628
 C3385 C 0.88761 0.28933 0.41308
 C3386 C 0.87703 0.26790 0.40712
 H3387 H 0.86147 0.22503 0.39506
 H3388 H 0.94836 0.22934 0.40603
 H3389 H 0.94500 0.27159 0.41568
 H3390 H 0.85808 0.26724 0.40481
 H3391 H 0.92993 0.19210 0.39410
 H3392 H 0.87653 0.30479 0.41525
 C3393 C 0.39938 0.72625 0.36805
 C3394 C 0.38829 0.71107 0.38489
 C3395 C 0.38565 0.71928 0.40827
 C3396 C 0.39432 0.74164 0.41470
 C3397 C 0.40505 0.75661 0.39751
 C3398 C 0.40736 0.74877 0.37423
 C3399 C 0.41339 0.77912 0.40389
 C3400 C 0.41172 0.78675 0.42747
 C3401 C 0.40154 0.77130 0.44450
 C3402 C 0.39274 0.74915 0.43816
 H3403 H 0.37784 0.70799 0.42185
 H3404 H 0.41550 0.76001 0.36076
 H3405 H 0.42088 0.79073 0.39038
 H3406 H 0.38487 0.73779 0.45169
 H3407 H 0.40136 0.72116 0.34979
 H3408 H 0.40051 0.77620 0.46290
 C3409 C 0.43205 0.21223 0.89239
 C3410 C 0.40805 0.20648 0.89679
 C3411 C 0.39341 0.22352 0.90760
 C3412 C 0.40222 0.24600 0.91296
 C3413 C 0.42635 0.25137 0.90879
 C3414 C 0.44117 0.23426 0.89870
 C3415 C 0.43518 0.27380 0.91461
 C3416 C 0.41997 0.29121 0.92389
 C3417 C 0.39575 0.28584 0.92693
 C3418 C 0.38706 0.26340 0.92189
 H3419 H 0.37477 0.21999 0.91055
 H3420 H 0.45973 0.23802 0.89535
 H3421 H 0.45387 0.27754 0.91217
 H3422 H 0.36839 0.25974 0.92473
 H3423 H 0.44404 0.19950 0.88456
 H3424 H 0.38336 0.29903 0.93319
 C3425 C 1.07433 0.71313 1.10534
 C3426 C 1.09861 0.70799 1.10224
 C3427 C 1.11339 0.72551 1.09181
 C3428 C 1.10437 0.74758 1.08519
 C3429 C 1.08002 0.75230 1.08816
 C3430 C 1.06514 0.73490 1.09813
 C3431 C 1.07104 0.77440 1.08124
 C3432 C 1.08624 0.79205 1.07187
 C3433 C 1.11058 0.78723 1.06967
 C3434 C 1.11950 0.76518 1.07602
 H3435 H 1.13220 0.72262 1.08979
 H3436 H 1.04639 0.73817 1.10053
 H3437 H 1.05223 0.77771 1.08296
 H3438 H 1.13830 0.76198 1.07396
 H3439 H 1.06216 0.70015 1.11278
 H3440 H 1.12290 0.80061 1.06324
 C3441 C 1.07828 0.21827 0.62169
 C3442 C 1.09117 0.20594 0.60410
 C3443 C 1.09590 0.21739 0.58237
 C3444 C 1.08830 0.24067 0.57847
 C3445 C 1.07677 0.25320 0.59680
 C3446 C 1.07159 0.24174 0.61822
 C3447 C 1.07092 0.27709 0.59357
 C3448 C 1.07558 0.28851 0.57183
 C3449 C 1.08545 0.27519 0.55314
 C3450 C 1.09216 0.25171 0.55656
 H3451 H 1.10505 0.20807 0.56830
 H3452 H 1.06256 0.25100 0.63242
 H3453 H 1.06342 0.28681 0.60828
 H3454 H 1.10039 0.24220 0.54207
 H3455 H 1.07455 0.21044 0.63882
 H3456 H 1.08825 0.28290 0.53578
 C3457 C 0.60437 0.71312 0.58052
 C3458 C 0.60522 0.70815 0.60479
 C3459 C 0.59729 0.72520 0.62098
 C3460 C 0.58927 0.74727 0.61305
 C3461 C 0.58870 0.75217 0.58859
 C3462 C 0.59602 0.73488 0.57246
 C3463 C 0.58125 0.77442 0.58065
 C3464 C 0.57476 0.79211 0.59683
 C3465 C 0.57523 0.78697 0.62112
 C3466 C 0.58232 0.76472 0.62916
 H3467 H 0.59821 0.72160 0.63974
 H3468 H 0.59565 0.73832 0.55365
 H3469 H 0.58060 0.77800 0.56187
 H3470 H 0.58275 0.76130 0.64797
 H3471 H 0.61024 0.70011 0.56779
 H3472 H 0.57062 0.80034 0.63397
 C3473 C 0.60056 0.23619 1.14060
 C3474 C 0.61452 0.22280 1.12472
 C3475 C 0.61877 0.23189 1.10179
 C3476 C 0.60910 0.25364 1.09487
 C3477 C 0.59601 0.26718 1.11132
 C3478 C 0.59182 0.25829 1.13411
 C3479 C 0.58728 0.28941 1.10477
 C3480 C 0.59042 0.29799 1.08153
 C3481 C 0.60254 0.28372 1.06500
 C3482 C 0.61212 0.26200 1.07170
 H3483 H 0.62880 0.22168 1.08900
 H3484 H 0.58170 0.26840 1.14694
 H3485 H 0.57840 0.30007 1.11800
 H3486 H 0.62170 0.25163 1.05867
 H3487 H 0.59722 0.23022 1.15853
 H3488 H 0.60463 0.28920 1.04675
 C3489 C 1.29200 1.11380 0.92033
 C3490 C 1.29699 1.11415 0.89594
 C3491 C 1.27913 1.10773 0.88032
 C3492 C 1.25660 1.10112 0.88892
 C3493 C 1.25184 1.10065 0.91349
 C3494 C 1.26967 1.10702 0.92904
 C3495 C 1.22937 1.09375 0.92210
 C3496 C 1.21147 1.08740 0.90646
 C3497 C 1.21637 1.08830 0.88203
 C3498 C 1.23871 1.09501 0.87336
 H3499 H 1.28268 1.10826 0.86148
 H3500 H 1.26637 1.10677 0.94793
 H3501 H 1.22596 1.09294 0.94097
 H3502 H 1.24198 1.09544 0.85446
 H3503 H 1.30552 1.11847 0.93270
 H3504 H 1.20283 1.08396 0.86955
 C3505 C 1.29353 0.57387 0.40276
 C3506 C 1.29684 0.59841 0.39995
 C3507 C 1.27724 0.61348 0.40178
 C3508 C 1.25449 0.60412 0.40572
 C3509 C 1.25127 0.57937 0.40837
 C3510 C 1.27097 0.56443 0.40711
 C3511 C 1.22844 0.57005 0.41228
 C3512 C 1.20888 0.58523 0.41381
 C3513 C 1.21228 0.60974 0.41074
 C3514 C 1.23485 0.61911 0.40672
 H3515 H 1.27961 0.63237 0.39911
 H3516 H 1.26890 0.54544 0.40912
 H3517 H 1.22596 0.55115 0.41485
 H3518 H 1.23696 0.63808 0.40457
 H3519 H 1.30846 0.56201 0.40126
 H3520 H 1.19739 0.62172 0.41174
 C3521 C 0.76901 1.10147 0.36092
 C3522 C 0.78441 1.10935 0.37840
 C3523 C 0.77700 1.10789 0.40219
 C3524 C 0.75459 1.09867 0.40844
 C3525 C 0.73921 1.09096 0.39070
 C3526 C 0.74663 1.09244 0.36699
 C3527 C 0.71660 1.08215 0.39694
 C3528 C 0.70910 1.08104 0.42075
 C3529 C 0.72480 1.08834 0.43822
 C3530 C 0.74727 1.09706 0.43215
 H3531 H 0.78880 1.11361 0.41584
 H3532 H 0.73510 1.08668 0.35312
 H3533 H 0.70466 1.07679 0.38326
 H3534 H 0.75886 1.10270 0.44601
 H3535 H 0.77416 1.10261 0.34247
 H3536 H 0.71966 1.08732 0.45670
 C3537 C 0.76612 0.64604 0.89274
 C3538 C 0.78149 0.62856 0.88393
 C3539 C 0.77414 0.60478 0.88445
 C3540 C 0.75178 0.59850 0.89380
 C3541 C 0.73636 0.61626 0.90240
 C3542 C 0.74372 0.63998 0.90176
 C3543 C 0.71380 0.61002 0.91130
 C3544 C 0.70642 0.58621 0.91182
 C3545 C 0.72218 0.56868 0.90373
 C3546 C 0.74457 0.57477 0.89474
 H3547 H 0.78600 0.59118 0.87796
 H3548 H 0.73217 0.65384 0.90825
 H3549 H 0.70181 0.62376 0.91726
 H3550 H 0.75622 0.56089 0.88846
 H3551 H 0.77136 0.66449 0.89233
 H3552 H 0.71718 0.55016 0.90435
 C3553 C 1.27868 0.91089 1.11923
 C3554 C 1.28087 0.88611 1.11962
 C3555 C 1.26333 0.87219 1.10923
 C3556 C 1.24357 0.88290 1.09904
 C3557 C 1.24157 0.90784 1.09881
 C3558 C 1.25931 0.92167 1.10879
 C3559 C 1.22175 0.91857 1.08887
 C3560 C 1.20350 0.90475 1.07952
 C3561 C 1.20571 0.87993 1.07985
 C3562 C 1.22560 0.86913 1.08938
 H3563 H 1.26480 0.85307 1.10965
 H3564 H 1.25810 0.94081 1.10874
 H3565 H 1.22056 0.93772 1.08845
 H3566 H 1.22674 0.84998 1.08951
 H3567 H 1.29213 0.92196 1.12684
 H3568 H 1.19181 0.86877 1.07318
 C3569 C 1.28040 0.41480 0.62794
 C3570 C 1.28313 0.39008 0.62680
 C3571 C 1.26472 0.37635 0.61771
 C3572 C 1.24392 0.38711 0.60980
 C3573 C 1.24152 0.41200 0.61065
 C3574 C 1.25987 0.42566 0.61984
 C3575 C 1.22095 0.42279 0.60209
 C3576 C 1.20266 0.40897 0.59274
 C3577 C 1.20509 0.38415 0.59270
 C3578 C 1.22550 0.37337 0.60101
 H3579 H 1.26649 0.35727 0.61705
 H3580 H 1.25840 0.44476 0.62067
 H3581 H 1.21944 0.44191 0.60220
 H3582 H 1.22689 0.35425 0.60049
 H3583 H 1.29439 0.42578 0.63469
 H3584 H 1.19112 0.37296 0.58623
 C3585 C 0.75465 0.85353 0.61742
 C3586 C 0.77136 0.87053 0.62417
 C3587 C 0.76577 0.89469 0.62205
 C3588 C 0.74389 0.90175 0.61304
 C3589 C 0.72723 0.88447 0.60639
 C3590 C 0.73277 0.86041 0.60873
 C3591 C 0.70532 0.89149 0.59751
 C3592 C 0.69980 0.91565 0.59493
 C3593 C 0.71666 0.93267 0.60140
 C3594 C 0.73842 0.92580 0.61043
 H3595 H 0.77862 0.90794 0.62695
 H3596 H 0.72021 0.84690 0.60377
 H3597 H 0.69245 0.87813 0.59293
 H3598 H 0.75102 0.93932 0.61527
 H3599 H 0.75842 0.83483 0.61914
 H3600 H 0.71312 0.95138 0.59927
 C3601 C 0.75201 0.35899 1.11754
 C3602 C 0.76954 0.37489 1.12485
 C3603 C 0.76605 0.39933 1.12171
 C3604 C 0.74550 0.40773 1.11101
 C3605 C 0.72817 0.39149 1.10351
 C3606 C 0.73154 0.36719 1.10699
 C3607 C 0.70767 0.39978 1.09279
 C3608 C 0.70407 0.42416 1.08958
 C3609 C 0.72139 0.44021 1.09703
 C3610 C 0.74197 0.43206 1.10758
 H3611 H 0.77953 0.41172 1.12710
 H3612 H 0.71837 0.35451 1.10150
 H3613 H 0.69423 0.38730 1.08745
 H3614 H 0.75506 0.44479 1.11316
 H3615 H 0.75409 0.34012 1.12010
 H3616 H 0.71898 0.45908 1.09465
 C3617 C 0.74034 1.14650 1.11366
 C3618 C 0.72416 1.12911 1.12166
 C3619 C 0.73052 1.10514 1.12026
 C3620 C 0.75267 1.09859 1.11078
 C3621 C 0.76886 1.11623 1.10292
 C3622 C 0.76252 1.14014 1.10450
 C3623 C 0.79113 1.10969 1.09371
 C3624 C 0.79745 1.08567 1.09209
 C3625 C 0.78097 1.06830 1.09959
 C3626 C 0.75887 1.07468 1.10891
 H3627 H 0.71806 1.09161 1.12611
 H3628 H 0.77468 1.15393 1.09860
 H3629 H 0.80367 1.12330 1.08823
 H3630 H 0.74663 1.06090 1.11464
 H3631 H 0.73590 1.16508 1.11476
 H3632 H 0.78512 1.04967 1.09815
 C3633 C 0.73049 0.63369 0.59187
 C3634 C 0.71528 0.61552 0.59998
 C3635 C 0.72298 0.59195 0.59910
 C3636 C 0.74569 0.58658 0.59032
 C3637 C 0.76103 0.60503 0.58262
 C3638 C 0.75321 0.62852 0.58337
 C3639 C 0.78405 0.59974 0.57465
 C3640 C 0.79197 0.57618 0.57421
 C3641 C 0.77626 0.55793 0.58121
 C3642 C 0.75339 0.56308 0.58927
 H3643 H 0.71122 0.57785 0.60510
 H3644 H 0.76470 0.64290 0.57755
 H3645 H 0.79599 0.61400 0.56951
 H3646 H 0.74181 0.54869 0.59485
 H3647 H 0.72496 0.65200 0.59260
 H3648 H 0.78173 0.53960 0.58059
 C3649 C 0.21963 1.13632 0.59374
 C3650 C 0.20452 1.11798 0.60167
 C3651 C 0.21298 1.09462 0.60185
 C3652 C 0.23621 1.08962 0.59430
 C3653 C 0.25141 1.10822 0.58673
 C3654 C 0.24290 1.13152 0.58647
 C3655 C 0.27488 1.10323 0.57975
 C3656 C 0.28334 1.07980 0.58014
 C3657 C 0.26773 1.06144 0.58712
 C3658 C 0.24449 1.06630 0.59422
 H3659 H 0.20135 1.08032 0.60761
 H3660 H 0.25425 1.14603 0.58071
 H3661 H 0.28666 1.11761 0.57457
 H3662 H 0.23302 1.05178 0.59971
 H3663 H 0.21355 1.15446 0.59358
 H3664 H 0.27350 1.04319 0.58707
 C3665 C 0.22708 0.63601 1.10075
 C3666 C 0.21114 0.61836 1.10859
 C3667 C 0.21864 0.59467 1.10928
 C3668 C 0.24171 0.58865 1.10209
 C3669 C 0.25763 0.60656 1.09437
 C3670 C 0.25016 0.63019 1.09381
 C3671 C 0.28074 0.60055 1.08728
 C3672 C 0.28814 0.57679 1.08752
 C3673 C 0.27204 0.55912 1.09509
 C3674 C 0.24909 0.56500 1.10238
 H3675 H 0.20638 0.58090 1.11501
 H3676 H 0.26213 0.64416 1.08796
 H3677 H 0.29301 0.61442 1.08183
 H3678 H 0.23706 0.55102 1.10810
 H3679 H 0.22177 0.65439 1.10031
 H3680 H 0.27710 0.54066 1.09509
 C3681 C 0.71316 0.92652 0.88565
 C3682 C 0.71032 0.90179 0.88627
 C3683 C 0.72934 0.88759 0.89316
 C3684 C 0.75084 0.89791 0.89954
 C3685 C 0.75342 0.92282 0.89933
 C3686 C 0.73446 0.93696 0.89225
 C3687 C 0.77479 0.93311 0.90641
 C3688 C 0.79364 0.91877 0.91366
 C3689 C 0.79098 0.89399 0.91307
 C3690 C 0.76980 0.88368 0.90620
 H3691 H 0.72745 0.86849 0.89330
 H3692 H 0.73608 0.95608 0.89192
 H3693 H 0.77653 0.95222 0.90683
 H3694 H 0.76823 0.86455 0.90620
 H3695 H 0.69869 0.93778 0.88048
 H3696 H 0.80536 0.88247 0.91796
 C3697 C 0.73272 0.36465 0.40042
 C3698 C 0.71783 0.38306 0.39309
 C3699 C 0.72564 0.40659 0.39457
 C3700 C 0.74810 0.41169 0.40332
 C3701 C 0.76304 0.39299 0.41036
 C3702 C 0.75514 0.36955 0.40891
 C3703 C 0.78578 0.39798 0.41835
 C3704 C 0.79390 0.42145 0.41942
 C3705 C 0.77865 0.43996 0.41303
 C3706 C 0.75599 0.43513 0.40501
 H3707 H 0.71415 0.42083 0.38909
 H3708 H 0.76635 0.35501 0.41417
 H3709 H 0.79743 0.38354 0.42297
 H3710 H 0.74474 0.44970 0.39992
 H3711 H 0.72715 0.34636 0.39914
 H3712 H 0.78436 0.45824 0.41407
 C3713 C 0.22013 0.91538 0.38186
 C3714 C 0.21700 0.89070 0.38212
 C3715 C 0.23455 0.87619 0.39158
 C3716 C 0.25518 0.88616 0.40046
 C3717 C 0.25819 0.91102 0.40022
 C3718 C 0.24051 0.92549 0.39099
 C3719 C 0.27889 0.92096 0.40908
 C3720 C 0.29675 0.90634 0.41792
 C3721 C 0.29361 0.88163 0.41785
 C3722 C 0.27296 0.87163 0.40930
 H3723 H 0.23239 0.85712 0.39146
 H3724 H 0.24252 0.94458 0.39067
 H3725 H 0.28101 0.94004 0.40925
 H3726 H 0.27100 0.85254 0.40943
 H3727 H 0.20668 0.92682 0.37474
 H3728 H 0.30729 0.86996 0.42413
 C3729 C 0.22086 0.42114 0.88873
 C3730 C 0.21627 0.39671 0.88963
 C3731 C 0.23324 0.38136 0.89887
 C3732 C 0.25478 0.39024 0.90680
 C3733 C 0.25923 0.41488 0.90598
 C3734 C 0.24209 0.43021 0.89704
 C3735 C 0.28082 0.42374 0.91384
 C3736 C 0.29830 0.40827 0.92208
 C3737 C 0.29369 0.38377 0.92260
 C3738 C 0.27208 0.37486 0.91520
 H3739 H 0.22992 0.36245 0.89924
 H3740 H 0.24521 0.44914 0.89624
 H3741 H 0.28396 0.44268 0.91361
 H3742 H 0.26902 0.35591 0.91575
 H3743 H 0.20789 0.43320 0.88171
 H3744 H 0.30697 0.37137 0.92838
   
