data_POSCAR
  _audit_creation_date              2014-09-24
  _audit_creation_method            'ToBaCCo'
  _symmetry_space_group_name_H-M    'P1'
  _symmetry_Int_Tables_number       1
  _symmetry_cell_setting            triclinic
  loop_
  _symmetry_equiv_pos_as_xyz
 x,y,z
_cell_length_a 52.4555
_cell_length_b 52.4083
_cell_length_c 52.3818
_cell_angle_alpha 90.024900
_cell_angle_beta 89.970300
_cell_angle_gamma 89.972200
loop_
  _atom_site_label
  _atom_site_type_symbol
  _atom_site_fract_x
  _atom_site_fract_y
  _atom_site_fract_z
O1 O 0.87545 0.15982 0.80834
 O2 O 0.90382 0.12646 0.80148
 O3 O 0.80914 0.12363 0.83975
 O4 O 0.79961 0.09893 0.87317
 O5 O 0.84017 0.19114 0.87556
 O6 O 0.87556 0.19838 0.90316
 O7 O 0.87645 0.05800 0.90915
 O8 O 0.84684 0.05162 0.87710
 O9 O 0.94135 0.08955 0.87591
 O10 O 0.94956 0.12567 0.84714
 O11 O 0.91046 0.12364 0.94087
 O12 O 0.87439 0.15180 0.94937
 O13 O 0.87649 0.08867 0.93999
 O14 O 0.84675 0.12541 0.94815
 O15 O 0.94118 0.12394 0.91024
 O16 O 0.94856 0.15352 0.87344
 O17 O 0.91079 0.05881 0.87641
 O18 O 0.87732 0.05468 0.84292
 O19 O 0.87603 0.19049 0.83924
 O20 O 0.90397 0.19796 0.87510
 O21 O 0.80946 0.16049 0.87551
 O22 O 0.80378 0.12410 0.90518
 O23 O 0.83973 0.12457 0.80892
 O24 O 0.87525 0.09373 0.80406
 Zr25 Zr 0.87439 0.12554 0.82917
 O26 O 0.89854 0.10198 0.85099
 Zr27 Zr 0.82966 0.12576 0.87420
 O28 O 0.85165 0.10156 0.89752
 Zr29 Zr 0.87455 0.17042 0.87407
 O30 O 0.89827 0.14853 0.89800
 Zr31 Zr 0.87627 0.07920 0.87518
 O32 O 0.85176 0.10093 0.85154
 Zr33 Zr 0.92093 0.12416 0.87562
 O34 O 0.89907 0.14804 0.85154
 Zr35 Zr 0.87600 0.12376 0.92033
 O36 O 0.85203 0.14824 0.89883
 O37 O 0.85079 0.14933 0.85047
 O38 O 0.90000 0.10013 0.89927
 C39 C 0.87634 0.18320 0.81577
 C40 C 0.81639 0.12348 0.81629
 C41 C 0.81678 0.18388 0.87618
 C42 C 0.87661 0.06527 0.93259
 C43 C 0.93418 0.06609 0.87637
 C44 C 0.93385 0.12370 0.93362
 H45 H 0.90905 0.09135 0.83946
 H46 H 0.90869 0.16009 0.90863
 H47 H 0.83986 0.16022 0.83959
 H48 H 0.84024 0.09068 0.90785
 H49 H 0.83510 0.05528 0.86276
 H50 H 0.80647 0.08276 0.88002
 H51 H 0.94556 0.16538 0.88784
 H52 H 0.91727 0.19206 0.86305
 H53 H 0.88098 0.03715 0.84902
 H54 H 0.87001 0.09943 0.78677
 H55 H 0.88695 0.16520 0.94508
 H56 H 0.86427 0.19216 0.91696
 H57 H 0.91763 0.13718 0.80859
 H58 H 0.94563 0.11243 0.83427
 H59 H 0.80862 0.13789 0.91716
 H60 H 0.83511 0.11087 0.94517
 O61 O 0.84003 0.69138 0.37495
 O62 O 0.87333 0.69823 0.40340
 O63 O 0.87628 0.65978 0.30866
 O64 O 0.90094 0.62633 0.29918
 O65 O 0.80878 0.62415 0.33979
 O66 O 0.80146 0.59667 0.37530
 O67 O 0.94173 0.59049 0.37621
 O68 O 0.94812 0.62241 0.34644
 O69 O 0.91014 0.62406 0.44110
 O70 O 0.87398 0.65278 0.44922
 O71 O 0.87613 0.55898 0.41036
 O72 O 0.84801 0.55039 0.37430
 O73 O 0.91107 0.55971 0.37631
 O74 O 0.87435 0.55154 0.34657
 O75 O 0.87584 0.58969 0.44103
 O76 O 0.84624 0.62643 0.44836
 O77 O 0.94089 0.62337 0.41047
 O78 O 0.94506 0.65669 0.37684
 O79 O 0.80937 0.66056 0.37563
 O80 O 0.80186 0.62476 0.40368
 O81 O 0.83945 0.62408 0.30905
 O82 O 0.87575 0.59438 0.30343
 O83 O 0.87531 0.69066 0.33923
 O84 O 0.90604 0.69560 0.37478
 Zr85 Zr 0.87427 0.67051 0.37397
 O86 O 0.89778 0.64874 0.39817
 Zr87 Zr 0.87410 0.62540 0.32928
 O88 O 0.89823 0.60210 0.35135
 Zr89 Zr 0.82941 0.62570 0.37422
 O90 O 0.85125 0.60182 0.39804
 Zr91 Zr 0.92056 0.62447 0.37592
 O92 O 0.89888 0.64808 0.35135
 Zr93 Zr 0.87558 0.62422 0.42067
 O94 O 0.85174 0.64826 0.39872
 Zr95 Zr 0.87602 0.57941 0.37579
 O96 O 0.85160 0.60087 0.35174
 O97 O 0.85053 0.64920 0.35038
 O98 O 0.89961 0.60049 0.39976
 C99 C 0.81667 0.68400 0.37588
 C100 C 0.87644 0.68323 0.31588
 C101 C 0.81608 0.62346 0.31637
 C102 C 0.93446 0.56707 0.37642
 C103 C 0.93354 0.62356 0.43385
 C104 C 0.87608 0.56630 0.43376
 H105 H 0.90839 0.66029 0.40866
 H106 H 0.83970 0.59122 0.40850
 H107 H 0.83966 0.66006 0.33940
 H108 H 0.90911 0.59172 0.33994
 H109 H 0.94448 0.63672 0.33465
 H110 H 0.91706 0.61940 0.30605
 H111 H 0.83439 0.61207 0.44536
 H112 H 0.80776 0.63681 0.41698
 H113 H 0.96258 0.65058 0.38050
 H114 H 0.90034 0.71287 0.36951
 H115 H 0.83461 0.55475 0.38685
 H116 H 0.80770 0.58283 0.36405
 H117 H 0.86249 0.69124 0.41718
 H118 H 0.88719 0.66564 0.44525
 H119 H 0.86198 0.58243 0.30832
 H120 H 0.88891 0.55444 0.33491
 O121 O 0.37475 0.15939 0.30876
 O122 O 0.40324 0.12595 0.30210
 O123 O 0.30853 0.12324 0.34040
 O124 O 0.29912 0.09858 0.37390
 O125 O 0.33957 0.19088 0.37594
 O126 O 0.37497 0.19833 0.40340
 O127 O 0.37586 0.05799 0.41022
 O128 O 0.34624 0.05147 0.37817
 O129 O 0.44076 0.08944 0.37652
 O130 O 0.44892 0.12539 0.34766
 O131 O 0.41001 0.12375 0.44145
 O132 O 0.37387 0.15205 0.44981
 O133 O 0.37595 0.08882 0.44085
 O134 O 0.34634 0.12558 0.44889
 O135 O 0.44065 0.12396 0.41073
 O136 O 0.44793 0.15340 0.37381
 O137 O 0.41020 0.05867 0.37734
 O138 O 0.37671 0.05429 0.34398
 O139 O 0.37534 0.19018 0.33953
 O140 O 0.40337 0.19778 0.37532
 O141 O 0.30888 0.16020 0.37600
 O142 O 0.30318 0.12406 0.40580
 O143 O 0.33911 0.12403 0.30954
 O144 O 0.37464 0.09326 0.30477
 Zr145 Zr 0.37378 0.12516 0.32976
 O146 O 0.39790 0.10170 0.35171
 Zr147 Zr 0.32909 0.12551 0.37483
 O148 O 0.35110 0.10149 0.39832
 Zr149 Zr 0.37395 0.17023 0.37446
 O150 O 0.39771 0.14848 0.39848
 Zr151 Zr 0.37568 0.07901 0.37609
 O152 O 0.35120 0.10061 0.35229
 Zr153 Zr 0.42033 0.12402 0.37617
 O154 O 0.39846 0.14779 0.35199
 Zr155 Zr 0.37549 0.12379 0.42097
 O156 O 0.35148 0.14812 0.39934
 O157 O 0.35018 0.14901 0.35098
 O158 O 0.39946 0.10008 0.40001
 C159 C 0.37561 0.18281 0.31609
 C160 C 0.31577 0.12297 0.31694
 C161 C 0.31619 0.18359 0.37659
 C162 C 0.37603 0.06532 0.43366
 C163 C 0.43354 0.06603 0.37714
 C164 C 0.43339 0.12380 0.43413
 H165 H 0.40839 0.09101 0.34022
 H166 H 0.40814 0.16009 0.40904
 H167 H 0.33923 0.15984 0.34006
 H168 H 0.33970 0.09066 0.40873
 H169 H 0.33449 0.05506 0.36381
 H170 H 0.30592 0.08256 0.38115
 H171 H 0.44496 0.16531 0.38816
 H172 H 0.41663 0.19186 0.36324
 H173 H 0.38034 0.03679 0.35019
 H174 H 0.36943 0.09890 0.28745
 H175 H 0.38659 0.16531 0.44555
 H176 H 0.36378 0.19213 0.41729
 H177 H 0.41694 0.13691 0.30906
 H178 H 0.44489 0.11220 0.33477
 H179 H 0.30812 0.13782 0.41778
 H180 H 0.33459 0.11113 0.44590
 O181 O 0.12484 0.34004 0.30842
 O182 O 0.09641 0.37349 0.30173
 O183 O 0.19113 0.37613 0.33989
 O184 O 0.20072 0.40073 0.37334
 O185 O 0.15995 0.30861 0.37560
 O186 O 0.12451 0.30135 0.40312
 O187 O 0.12406 0.44173 0.40961
 O188 O 0.15370 0.44807 0.37751
 O189 O 0.05906 0.41039 0.37613
 O190 O 0.05075 0.37435 0.34739
 O191 O 0.08983 0.37613 0.44108
 O192 O 0.12583 0.34781 0.44947
 O193 O 0.12392 0.41097 0.44033
 O194 O 0.15352 0.37413 0.44833
 O195 O 0.05912 0.37598 0.41046
 O196 O 0.05167 0.34645 0.37362
 O197 O 0.08972 0.44107 0.37681
 O198 O 0.12319 0.44521 0.34336
 O199 O 0.12417 0.30933 0.33925
 O200 O 0.09612 0.30191 0.37508
 O201 O 0.19071 0.33921 0.37554
 O202 O 0.19652 0.37546 0.40528
 O203 O 0.16055 0.37532 0.30907
 O204 O 0.12506 0.40613 0.30427
 Zr205 Zr 0.12589 0.37432 0.32934
 O206 O 0.10185 0.39791 0.35127
 Zr207 Zr 0.17061 0.37395 0.37434
 O208 O 0.14870 0.39814 0.39779
 Zr209 Zr 0.12563 0.32937 0.37413
 O210 O 0.10196 0.35127 0.39814
 Zr211 Zr 0.12417 0.42061 0.37554
 O212 O 0.14857 0.39885 0.35177
 Zr213 Zr 0.07938 0.37573 0.37583
 O214 O 0.10116 0.35183 0.35167
 Zr215 Zr 0.12429 0.37594 0.42052
 O216 O 0.14819 0.35146 0.39892
 O217 O 0.14944 0.35046 0.35056
 O218 O 0.10036 0.39967 0.39956
 C219 C 0.12392 0.31664 0.31579
 C220 C 0.18388 0.37637 0.31644
 C221 C 0.18334 0.31585 0.37620
 C222 C 0.12388 0.43440 0.43302
 C223 C 0.06636 0.43379 0.37667
 C224 C 0.06645 0.37615 0.43383
 H225 H 0.09138 0.40859 0.33977
 H226 H 0.09151 0.33972 0.40875
 H227 H 0.16036 0.33957 0.33965
 H228 H 0.16015 0.40896 0.40815
 H229 H 0.16541 0.44441 0.36313
 H230 H 0.19394 0.41686 0.38037
 H231 H 0.05465 0.33456 0.38798
 H232 H 0.08287 0.30786 0.36302
 H233 H 0.11962 0.46275 0.34953
 H234 H 0.13026 0.40043 0.28696
 H235 H 0.11316 0.33451 0.44519
 H236 H 0.13576 0.30754 0.41697
 H237 H 0.08268 0.36261 0.30875
 H238 H 0.05481 0.38748 0.33446
 H239 H 0.19162 0.36169 0.41725
 H240 H 0.16522 0.38863 0.44538
 O241 O 0.62483 0.83987 0.30825
 O242 O 0.59639 0.87321 0.30148
 O243 O 0.69108 0.87615 0.33963
 O244 O 0.70051 0.90094 0.37305
 O245 O 0.66013 0.80863 0.37544
 O246 O 0.62478 0.80124 0.40298
 O247 O 0.62368 0.94164 0.40927
 O248 O 0.65329 0.94805 0.37718
 O249 O 0.55882 0.90994 0.37600
 O250 O 0.55063 0.87389 0.34726
 O251 O 0.58973 0.87595 0.44092
 O252 O 0.62590 0.84777 0.44930
 O253 O 0.62368 0.91094 0.44006
 O254 O 0.65344 0.87425 0.44815
 O255 O 0.55903 0.87558 0.41031
 O256 O 0.55177 0.84593 0.37345
 O257 O 0.58934 0.94075 0.37656
 O258 O 0.62277 0.94501 0.34306
 O259 O 0.62432 0.80918 0.33910
 O260 O 0.59634 0.80168 0.37499
 O261 O 0.69079 0.83934 0.37535
 O262 O 0.69646 0.87565 0.40504
 O263 O 0.66049 0.87516 0.30883
 O264 O 0.62491 0.90597 0.30408
 Zr265 Zr 0.62582 0.87415 0.32913
 O266 O 0.60166 0.89763 0.35105
 Zr267 Zr 0.67054 0.87401 0.37411
 O268 O 0.64853 0.89812 0.39754
 Zr269 Zr 0.62573 0.82925 0.37397
 O270 O 0.60198 0.85106 0.39799
 Zr271 Zr 0.62389 0.92045 0.37526
 O272 O 0.64841 0.89880 0.35151
 Zr273 Zr 0.57929 0.87539 0.37566
 O274 O 0.60118 0.85158 0.35149
 Zr275 Zr 0.62421 0.87587 0.42033
 O276 O 0.64821 0.85147 0.39874
 O277 O 0.64945 0.85040 0.35038
 O278 O 0.60018 0.89945 0.39933
 C279 C 0.62400 0.81647 0.31565
 C280 C 0.68384 0.87627 0.31618
 C281 C 0.68350 0.81595 0.37602
 C282 C 0.62352 0.93436 0.43270
 C283 C 0.56601 0.93337 0.37652
 C284 C 0.56634 0.87585 0.43369
 H285 H 0.59113 0.90826 0.33955
 H286 H 0.59158 0.83948 0.40862
 H287 H 0.66041 0.83953 0.33948
 H288 H 0.65992 0.90902 0.40788
 H289 H 0.66501 0.94444 0.36280
 H290 H 0.69366 0.91703 0.38012
 H291 H 0.55471 0.83414 0.38789
 H292 H 0.58306 0.80753 0.36291
 H293 H 0.61912 0.96254 0.34921
 H294 H 0.63017 0.90030 0.28678
 H295 H 0.61325 0.83444 0.44508
 H296 H 0.63596 0.80752 0.41684
 H297 H 0.58262 0.86241 0.30856
 H298 H 0.55462 0.88703 0.33432
 H299 H 0.69160 0.86190 0.41704
 H300 H 0.66510 0.88878 0.44514
 O301 O 0.62515 0.65953 0.19118
 O302 O 0.59670 0.62621 0.19796
 O303 O 0.69139 0.62323 0.15967
 O304 O 0.70085 0.59848 0.12623
 O305 O 0.66042 0.69080 0.12398
 O306 O 0.62504 0.69819 0.09645
 O307 O 0.62397 0.55780 0.09012
 O308 O 0.65361 0.55134 0.12214
 O309 O 0.55912 0.58949 0.12356
 O310 O 0.55098 0.62559 0.15233
 O311 O 0.59002 0.62356 0.05858
 O312 O 0.62613 0.65163 0.05011
 O313 O 0.62396 0.58849 0.05937
 O314 O 0.65373 0.62519 0.05127
 O315 O 0.55932 0.62389 0.08924
 O316 O 0.55201 0.65347 0.12608
 O317 O 0.58966 0.55866 0.12295
 O318 O 0.62317 0.55441 0.15636
 O319 O 0.62459 0.69024 0.16034
 O320 O 0.59663 0.69778 0.12449
 O321 O 0.69109 0.66008 0.12395
 O322 O 0.69673 0.62374 0.09425
 O323 O 0.66080 0.62419 0.19051
 O324 O 0.62525 0.59344 0.19534
 Zr325 Zr 0.62614 0.62526 0.17028
 O326 O 0.60198 0.60178 0.14841
 Zr327 Zr 0.67085 0.62541 0.12523
 O328 O 0.64883 0.60129 0.10185
 Zr329 Zr 0.62602 0.67019 0.12546
 O330 O 0.60227 0.64837 0.10149
 Zr331 Zr 0.62421 0.57896 0.12415
 O332 O 0.64873 0.60062 0.14785
 Zr333 Zr 0.57959 0.62404 0.12385
 O334 O 0.60148 0.64785 0.14797
 Zr335 Zr 0.62449 0.62356 0.07911
 O336 O 0.64849 0.64796 0.10065
 O337 O 0.64976 0.64901 0.14901
 O338 O 0.60048 0.59998 0.10012
 C339 C 0.62428 0.68293 0.18380
 C340 C 0.68414 0.62307 0.18313
 C341 C 0.68380 0.68348 0.12333
 C342 C 0.62380 0.56504 0.06666
 C343 C 0.56632 0.56605 0.12306
 C344 C 0.56663 0.62366 0.06586
 H345 H 0.59147 0.59116 0.15993
 H346 H 0.59186 0.65997 0.09089
 H347 H 0.66071 0.65987 0.15990
 H348 H 0.66022 0.59039 0.09148
 H349 H 0.66536 0.55496 0.13648
 H350 H 0.69400 0.58238 0.11922
 H351 H 0.55501 0.66532 0.11170
 H352 H 0.58334 0.69192 0.13656
 H353 H 0.61950 0.53688 0.15022
 H354 H 0.63049 0.59912 0.21264
 H355 H 0.61359 0.66505 0.05444
 H356 H 0.63628 0.69194 0.08260
 H357 H 0.58295 0.63705 0.19092
 H358 H 0.55494 0.61240 0.16523
 H359 H 0.69188 0.63752 0.08227
 H360 H 0.66535 0.61061 0.05420
 O361 O 0.37473 0.84074 0.69156
 O362 O 0.40322 0.87413 0.69822
 O363 O 0.30849 0.87697 0.66012
 O364 O 0.29905 0.90170 0.62667
 O365 O 0.33949 0.80936 0.62442
 O366 O 0.37487 0.80192 0.59688
 O367 O 0.37581 0.94229 0.59025
 O368 O 0.34621 0.94880 0.62234
 O369 O 0.44073 0.91071 0.62380
 O370 O 0.44893 0.87469 0.65249
 O371 O 0.40985 0.87647 0.55882
 O372 O 0.37369 0.84827 0.55052
 O373 O 0.37583 0.91148 0.55955
 O374 O 0.34615 0.87478 0.55157
 O375 O 0.44055 0.87625 0.58944
 O376 O 0.44785 0.84671 0.62633
 O377 O 0.41018 0.94152 0.62311
 O378 O 0.37669 0.94587 0.65651
 O379 O 0.37530 0.80999 0.66075
 O380 O 0.40330 0.80241 0.62490
 O381 O 0.30880 0.84006 0.62444
 O382 O 0.30309 0.87629 0.59471
 O383 O 0.33908 0.87612 0.69092
 O384 O 0.37464 0.90688 0.69563
 Zr385 Zr 0.37374 0.87500 0.67061
 O386 O 0.39787 0.89845 0.64864
 Zr387 Zr 0.32902 0.87474 0.62563
 O388 O 0.35102 0.89879 0.60214
 Zr389 Zr 0.37388 0.82998 0.62585
 O390 O 0.39761 0.85175 0.60180
 Zr391 Zr 0.37564 0.92121 0.62435
 O392 O 0.35116 0.89960 0.64816
 Zr393 Zr 0.42028 0.87615 0.62408
 O394 O 0.39841 0.85239 0.64829
 Zr395 Zr 0.37537 0.87648 0.57940
 O396 O 0.35138 0.85214 0.60104
 O397 O 0.35013 0.85120 0.64941
 O398 O 0.39938 0.90015 0.60033
 C399 C 0.37559 0.81732 0.68421
 C400 C 0.31573 0.87720 0.68357
 C401 C 0.31611 0.81666 0.62382
 C402 C 0.37594 0.93493 0.56683
 C403 C 0.43353 0.93414 0.62327
 C404 C 0.43324 0.87641 0.56605
 H405 H 0.40838 0.90910 0.66013
 H406 H 0.40803 0.84013 0.59120
 H407 H 0.33918 0.84036 0.66033
 H408 H 0.33961 0.90965 0.59178
 H409 H 0.33447 0.94521 0.63671
 H410 H 0.30585 0.91774 0.61948
 H411 H 0.44489 0.83486 0.61193
 H412 H 0.41657 0.80831 0.63695
 H413 H 0.38032 0.96338 0.65033
 H414 H 0.36943 0.90123 0.71294
 H415 H 0.38638 0.83497 0.55475
 H416 H 0.36365 0.80814 0.58302
 H417 H 0.41693 0.86318 0.69122
 H418 H 0.44486 0.88778 0.66548
 H419 H 0.30799 0.86252 0.58272
 H420 H 0.33444 0.88926 0.55459
 O421 O 0.87533 0.34012 0.69157
 O422 O 0.90373 0.37348 0.69832
 O423 O 0.80900 0.37636 0.66025
 O424 O 0.79940 0.40099 0.62683
 O425 O 0.84002 0.30878 0.62442
 O426 O 0.87539 0.30148 0.59680
 O427 O 0.87610 0.44186 0.59065
 O428 O 0.84657 0.44827 0.62279
 O429 O 0.94113 0.41029 0.62386
 O430 O 0.94937 0.37418 0.65260
 O431 O 0.91019 0.37620 0.55895
 O432 O 0.87416 0.34802 0.55052
 O433 O 0.87616 0.41114 0.55985
 O434 O 0.84647 0.37438 0.55180
 O435 O 0.94093 0.37592 0.58953
 O436 O 0.94838 0.34633 0.62630
 O437 O 0.91053 0.44106 0.62333
 O438 O 0.87711 0.44524 0.65688
 O439 O 0.87590 0.30942 0.66070
 O440 O 0.90382 0.30191 0.62479
 O441 O 0.80930 0.33945 0.62452
 O442 O 0.80356 0.37580 0.59485
 O443 O 0.83962 0.37541 0.69102
 O444 O 0.87513 0.40620 0.69581
 Zr445 Zr 0.87425 0.37439 0.67071
 O446 O 0.89834 0.39792 0.64882
 Zr447 Zr 0.82948 0.37416 0.62577
 O448 O 0.85142 0.39832 0.60237
 Zr449 Zr 0.87438 0.32946 0.62585
 O450 O 0.89807 0.35132 0.60185
 Zr451 Zr 0.87603 0.42070 0.62464
 O452 O 0.85158 0.39899 0.64837
 Zr453 Zr 0.92073 0.37570 0.62418
 O454 O 0.89891 0.35184 0.64832
 Zr455 Zr 0.87575 0.37608 0.57955
 O456 O 0.85183 0.35164 0.60112
 O457 O 0.85064 0.35059 0.64948
 O458 O 0.89975 0.39972 0.60054
 C459 C 0.87622 0.31673 0.68416
 C460 C 0.81628 0.37652 0.68369
 C461 C 0.81663 0.31606 0.62384
 C462 C 0.87623 0.43455 0.56722
 C463 C 0.93389 0.43371 0.62337
 C464 C 0.93358 0.37615 0.56616
 H465 H 0.90885 0.40856 0.66032
 H466 H 0.90848 0.33975 0.59121
 H467 H 0.83972 0.33972 0.66038
 H468 H 0.83997 0.40919 0.59206
 H469 H 0.83486 0.44462 0.63716
 H470 H 0.80624 0.41715 0.61996
 H471 H 0.94537 0.33447 0.61192
 H472 H 0.91713 0.30782 0.63681
 H473 H 0.88074 0.46277 0.65075
 H474 H 0.86992 0.40051 0.71311
 H475 H 0.88674 0.33463 0.55481
 H476 H 0.86411 0.30769 0.58299
 H477 H 0.91750 0.36267 0.69123
 H478 H 0.94543 0.38740 0.66549
 H479 H 0.80838 0.36199 0.58287
 H480 H 0.83482 0.38893 0.55477
 O481 O 0.80868 0.87481 0.15946
 O482 O 0.80202 0.90320 0.12599
 O483 O 0.84018 0.80838 0.12339
 O484 O 0.87358 0.79880 0.09873
 O485 O 0.87575 0.83960 0.19094
 O486 O 0.90321 0.87502 0.19828
 O487 O 0.90982 0.87550 0.05780
 O488 O 0.87780 0.84584 0.05142
 O489 O 0.87637 0.94057 0.08920
 O490 O 0.84768 0.94893 0.12525
 O491 O 0.94124 0.90972 0.12342
 O492 O 0.94962 0.87374 0.15174
 O493 O 0.94047 0.87560 0.08856
 O494 O 0.94842 0.84593 0.12547
 O495 O 0.91067 0.94049 0.12361
 O496 O 0.87386 0.94795 0.15320
 O497 O 0.87706 0.90987 0.05849
 O498 O 0.84369 0.87640 0.05429
 O499 O 0.83942 0.87550 0.19022
 O500 O 0.87525 0.90350 0.19768
 O501 O 0.87579 0.80880 0.16029
 O502 O 0.90548 0.80297 0.12404
 O503 O 0.80940 0.83901 0.12419
 O504 O 0.80465 0.87452 0.09332
 Zr505 Zr 0.82963 0.87370 0.12519
 O506 O 0.85155 0.89776 0.10164
 Zr507 Zr 0.87458 0.82892 0.12556
 O508 O 0.89801 0.85082 0.10139
 Zr509 Zr 0.87430 0.87396 0.17021
 O510 O 0.89832 0.89761 0.14832
 Zr511 Zr 0.87580 0.87540 0.07893
 O512 O 0.85204 0.85099 0.10064
 Zr513 Zr 0.87607 0.92024 0.12386
 O514 O 0.85190 0.89846 0.14772
 Zr515 Zr 0.92069 0.87525 0.12362
 O516 O 0.89909 0.85136 0.14809
 O517 O 0.85080 0.85013 0.14907
 O518 O 0.89977 0.89921 0.09989
 C519 C 0.81600 0.87577 0.18288
 C520 C 0.81677 0.81564 0.12316
 C521 C 0.87640 0.81618 0.18368
 C522 C 0.93324 0.87566 0.06508
 C523 C 0.87691 0.93326 0.06579
 C524 C 0.93401 0.93314 0.12339
 H525 H 0.84008 0.90825 0.09096
 H526 H 0.90891 0.90807 0.15989
 H527 H 0.83990 0.83922 0.15996
 H528 H 0.90837 0.83936 0.09055
 H529 H 0.86344 0.83413 0.05506
 H530 H 0.88066 0.80557 0.08261
 H531 H 0.88823 0.94501 0.16505
 H532 H 0.86322 0.91678 0.19174
 H533 H 0.84986 0.87996 0.03675
 H534 H 0.78737 0.86930 0.09899
 H535 H 0.94529 0.88636 0.16510
 H536 H 0.91707 0.86380 0.19206
 H537 H 0.80902 0.91698 0.13685
 H538 H 0.83475 0.94486 0.11214
 H539 H 0.91743 0.80788 0.13782
 H540 H 0.94557 0.83429 0.11087
 O541 O 0.37501 0.33982 0.19159
 O542 O 0.40348 0.37321 0.19834
 O543 O 0.30886 0.37607 0.15995
 O544 O 0.29940 0.40065 0.12645
 O545 O 0.34001 0.30842 0.12435
 O546 O 0.37549 0.30106 0.09687
 O547 O 0.37620 0.44146 0.09040
 O548 O 0.34653 0.44790 0.12247
 O549 O 0.44110 0.40993 0.12401
 O550 O 0.44922 0.37389 0.15286
 O551 O 0.41046 0.37579 0.05904
 O552 O 0.37449 0.34754 0.05050
 O553 O 0.37635 0.41068 0.05967
 O554 O 0.34675 0.37386 0.05161
 O555 O 0.44106 0.37551 0.08976
 O556 O 0.44836 0.34600 0.12658
 O557 O 0.41052 0.44071 0.12324
 O558 O 0.37697 0.44498 0.15665
 O559 O 0.37570 0.30908 0.16077
 O560 O 0.40383 0.30158 0.12498
 O561 O 0.30929 0.33910 0.12432
 O562 O 0.30365 0.37534 0.09452
 O563 O 0.33937 0.37520 0.19083
 O564 O 0.37487 0.40592 0.19574
 Zr565 Zr 0.37407 0.37409 0.17066
 O566 O 0.39821 0.39762 0.14880
 Zr567 Zr 0.32947 0.37380 0.12554
 O568 O 0.35148 0.39792 0.10216
 Zr569 Zr 0.37437 0.32910 0.12588
 O570 O 0.39813 0.35093 0.10193
 Zr571 Zr 0.37600 0.42035 0.12447
 O572 O 0.35150 0.39867 0.14817
 Zr573 Zr 0.42070 0.37535 0.12431
 O574 O 0.39881 0.35151 0.14841
 Zr575 Zr 0.37592 0.37566 0.07948
 O576 O 0.35192 0.35124 0.10101
 O577 O 0.35054 0.35027 0.14938
 O578 O 0.39983 0.39933 0.10052
 C579 C 0.37591 0.31640 0.18423
 C580 C 0.31605 0.37630 0.18341
 C581 C 0.31662 0.31570 0.12371
 C582 C 0.37640 0.43412 0.06697
 C583 C 0.43387 0.43335 0.12341
 C584 C 0.43382 0.37575 0.06637
 H585 H 0.40867 0.40828 0.16032
 H586 H 0.40860 0.33935 0.09135
 H587 H 0.33957 0.33942 0.16026
 H588 H 0.34008 0.40877 0.09177
 H589 H 0.33477 0.44426 0.13681
 H590 H 0.30624 0.41677 0.11947
 H591 H 0.44538 0.33409 0.11223
 H592 H 0.41706 0.30748 0.13709
 H593 H 0.38061 0.46249 0.15049
 H594 H 0.36964 0.40023 0.21304
 H595 H 0.38707 0.33418 0.05485
 H596 H 0.36429 0.30728 0.08300
 H597 H 0.41721 0.36228 0.19136
 H598 H 0.44520 0.38712 0.16572
 H599 H 0.30854 0.36151 0.08260
 H600 H 0.33505 0.38838 0.05453
 O601 O 0.37481 0.66021 0.80857
 O602 O 0.40332 0.62684 0.80179
 O603 O 0.30864 0.62391 0.84013
 O604 O 0.29919 0.59924 0.87359
 O605 O 0.33962 0.69152 0.87581
 O606 O 0.37504 0.69886 0.90334
 O607 O 0.37605 0.55846 0.90967
 O608 O 0.34643 0.55203 0.87761
 O609 O 0.44094 0.59006 0.87606
 O610 O 0.44903 0.62618 0.84734
 O611 O 0.41009 0.62417 0.94114
 O612 O 0.37403 0.65236 0.94965
 O613 O 0.37607 0.58922 0.94042
 O614 O 0.34637 0.62599 0.94849
 O615 O 0.44076 0.62444 0.91045
 O616 O 0.44806 0.65403 0.87366
 O617 O 0.41040 0.55926 0.87678
 O618 O 0.37687 0.55502 0.84340
 O619 O 0.37541 0.69092 0.83942
 O620 O 0.40343 0.69842 0.87524
 O621 O 0.30895 0.66083 0.87580
 O622 O 0.30335 0.62453 0.90556
 O623 O 0.33919 0.62481 0.80926
 O624 O 0.37476 0.59410 0.80437
 Zr625 Zr 0.37388 0.62591 0.82947
 O626 O 0.39804 0.60240 0.85132
 Zr627 Zr 0.32920 0.62613 0.87455
 O628 O 0.35124 0.60200 0.89792
 Zr629 Zr 0.37402 0.67086 0.87430
 O630 O 0.39780 0.64902 0.89824
 Zr631 Zr 0.37584 0.57961 0.87561
 O632 O 0.35132 0.60130 0.85193
 Zr633 Zr 0.42046 0.62464 0.87586
 O634 O 0.39855 0.64848 0.85177
 Zr635 Zr 0.37559 0.62426 0.92065
 O636 O 0.35158 0.64867 0.89913
 O637 O 0.35027 0.64970 0.85076
 O638 O 0.39959 0.60062 0.89962
 C639 C 0.37567 0.68361 0.81596
 C640 C 0.31586 0.62371 0.81667
 C641 C 0.31624 0.68423 0.87643
 C642 C 0.37620 0.56578 0.93310
 C643 C 0.43375 0.56663 0.87659
 C644 C 0.43347 0.62422 0.93384
 H645 H 0.40854 0.59176 0.83979
 H646 H 0.40823 0.66060 0.90884
 H647 H 0.33930 0.66055 0.83988
 H648 H 0.33984 0.59113 0.90829
 H649 H 0.33467 0.55567 0.86328
 H650 H 0.30605 0.58313 0.88059
 H651 H 0.44505 0.66589 0.88804
 H652 H 0.41671 0.69251 0.86317
 H653 H 0.38053 0.53750 0.84953
 H654 H 0.36954 0.59979 0.78708
 H655 H 0.38658 0.66575 0.94531
 H656 H 0.36379 0.69264 0.91718
 H657 H 0.41703 0.63776 0.80879
 H658 H 0.44503 0.61301 0.83442
 H659 H 0.30819 0.63835 0.91750
 H660 H 0.33471 0.61145 0.94555
 O661 O 0.12465 0.66024 0.69163
 O662 O 0.09624 0.62684 0.69833
 O663 O 0.19099 0.62408 0.66017
 O664 O 0.20058 0.59946 0.62669
 O665 O 0.15988 0.69165 0.62448
 O666 O 0.12449 0.69896 0.59693
 O667 O 0.12392 0.55858 0.59042
 O668 O 0.15349 0.55217 0.62253
 O669 O 0.05888 0.59004 0.62387
 O670 O 0.05059 0.62609 0.65263
 O671 O 0.08977 0.62417 0.55894
 O672 O 0.12577 0.65251 0.55058
 O673 O 0.12388 0.58935 0.55970
 O674 O 0.15348 0.62616 0.55172
 O675 O 0.05903 0.62442 0.58956
 O676 O 0.05159 0.65401 0.62641
 O677 O 0.08951 0.55930 0.62320
 O678 O 0.12295 0.55509 0.65667
 O679 O 0.12404 0.69096 0.66081
 O680 O 0.09605 0.69844 0.62497
 O681 O 0.19063 0.66101 0.62453
 O682 O 0.19643 0.62474 0.59476
 O683 O 0.16038 0.62491 0.69098
 O684 O 0.12486 0.59413 0.69574
 Zr685 Zr 0.12573 0.62597 0.67070
 O686 O 0.10168 0.60243 0.64876
 Zr687 Zr 0.17049 0.62628 0.62571
 O688 O 0.14858 0.60214 0.60226
 Zr689 Zr 0.12554 0.67094 0.62592
 O690 O 0.10188 0.64908 0.60190
 Zr691 Zr 0.12399 0.57970 0.62450
 O692 O 0.14841 0.60140 0.64826
 Zr693 Zr 0.07925 0.62465 0.62420
 O694 O 0.10104 0.64850 0.64838
 Zr695 Zr 0.12422 0.62437 0.57951
 O696 O 0.14812 0.64881 0.60112
 O697 O 0.14931 0.64980 0.64949
 O698 O 0.10024 0.60068 0.60047
 C699 C 0.12375 0.68365 0.68426
 C700 C 0.18372 0.62384 0.68361
 C701 C 0.18327 0.68439 0.62389
 C702 C 0.12380 0.56592 0.56700
 C703 C 0.06615 0.56663 0.62331
 C704 C 0.06637 0.62417 0.56618
 H705 H 0.09118 0.59177 0.66025
 H706 H 0.09144 0.66064 0.59128
 H707 H 0.16023 0.66067 0.66040
 H708 H 0.16003 0.59129 0.59190
 H709 H 0.16520 0.55581 0.63690
 H710 H 0.19378 0.58333 0.61970
 H711 H 0.05454 0.66585 0.61201
 H712 H 0.08277 0.69251 0.63701
 H713 H 0.11935 0.53757 0.65050
 H714 H 0.13005 0.59981 0.71305
 H715 H 0.11307 0.66580 0.55484
 H716 H 0.13574 0.69274 0.58308
 H717 H 0.08249 0.63769 0.69129
 H718 H 0.05461 0.61294 0.66555
 H719 H 0.19157 0.63854 0.58282
 H720 H 0.16519 0.61166 0.55469
 O721 O 0.12494 0.15947 0.19147
 O722 O 0.09645 0.12609 0.19811
 O723 O 0.19125 0.12321 0.16009
 O724 O 0.20081 0.09852 0.12663
 O725 O 0.16031 0.19082 0.12437
 O726 O 0.12496 0.19821 0.09678
 O727 O 0.12407 0.05787 0.09018
 O728 O 0.15366 0.05138 0.12227
 O729 O 0.05912 0.08940 0.12367
 O730 O 0.05087 0.12547 0.15240
 O731 O 0.09012 0.12361 0.05874
 O732 O 0.12627 0.15184 0.05047
 O733 O 0.12410 0.08864 0.05952
 O734 O 0.15380 0.12533 0.05152
 O735 O 0.05935 0.12382 0.08933
 O736 O 0.05192 0.15338 0.12618
 O737 O 0.08969 0.05861 0.12300
 O738 O 0.12314 0.05432 0.15643
 O739 O 0.12442 0.19019 0.16066
 O740 O 0.09651 0.19776 0.12480
 O741 O 0.19101 0.16013 0.12443
 O742 O 0.19678 0.12388 0.09468
 O743 O 0.16059 0.12409 0.19086
 O744 O 0.12505 0.09335 0.19555
 Zr745 Zr 0.12598 0.12520 0.17053
 O746 O 0.10192 0.10171 0.14855
 Zr747 Zr 0.17080 0.12544 0.12559
 O748 O 0.14886 0.10136 0.10209
 Zr749 Zr 0.12593 0.17018 0.12577
 O750 O 0.10224 0.14838 0.10172
 Zr751 Zr 0.12421 0.07896 0.12428
 O752 O 0.14863 0.10060 0.14810
 Zr753 Zr 0.07954 0.12398 0.12398
 O754 O 0.10135 0.14779 0.14819
 Zr755 Zr 0.12455 0.12365 0.07934
 O756 O 0.14849 0.14802 0.10099
 O757 O 0.14963 0.14899 0.14935
 O758 O 0.10051 0.09999 0.10025
 C759 C 0.12408 0.18287 0.18411
 C760 C 0.18395 0.12299 0.18353
 C761 C 0.18370 0.18352 0.12379
 C762 C 0.12395 0.06517 0.06673
 C763 C 0.06635 0.06598 0.12314
 C764 C 0.06671 0.12364 0.06596
 H765 H 0.09139 0.09106 0.16003
 H766 H 0.09184 0.15998 0.09111
 H767 H 0.16056 0.15985 0.16028
 H768 H 0.16029 0.09050 0.09173
 H769 H 0.16537 0.05498 0.13665
 H770 H 0.19401 0.08245 0.11948
 H771 H 0.05493 0.16524 0.11181
 H772 H 0.08319 0.19183 0.13680
 H773 H 0.11952 0.03680 0.15025
 H774 H 0.13021 0.09902 0.21288
 H775 H 0.11355 0.16513 0.05468
 H776 H 0.13624 0.19199 0.08296
 H777 H 0.08275 0.13702 0.19109
 H778 H 0.05487 0.11233 0.16534
 H779 H 0.19190 0.13764 0.08270
 H780 H 0.16550 0.11083 0.05454
 O781 O 0.69180 0.37555 0.84046
 O782 O 0.69850 0.40390 0.87392
 O783 O 0.66045 0.30909 0.87647
 O784 O 0.62706 0.29954 0.90120
 O785 O 0.62481 0.34025 0.80897
 O786 O 0.59724 0.37568 0.80170
 O787 O 0.59078 0.37620 0.94212
 O788 O 0.62284 0.34662 0.94850
 O789 O 0.62408 0.44133 0.91078
 O790 O 0.65276 0.44967 0.87469
 O791 O 0.55924 0.41043 0.87652
 O792 O 0.55097 0.37439 0.84814
 O793 O 0.56010 0.37628 0.91134
 O794 O 0.55210 0.34669 0.87449
 O795 O 0.58976 0.44122 0.87634
 O796 O 0.62659 0.44867 0.84676
 O797 O 0.62347 0.41063 0.94147
 O798 O 0.65691 0.37718 0.94561
 O799 O 0.66104 0.37622 0.80972
 O800 O 0.62520 0.40412 0.80222
 O801 O 0.62485 0.30948 0.83961
 O802 O 0.59516 0.30366 0.87587
 O803 O 0.69120 0.33972 0.87567
 O804 O 0.69588 0.37525 0.90660
 Zr805 Zr 0.67091 0.37442 0.87473
 O806 O 0.64897 0.39851 0.89828
 Zr807 Zr 0.62603 0.32963 0.87435
 O808 O 0.60259 0.35156 0.89852
 Zr809 Zr 0.62620 0.37464 0.82973
 O810 O 0.60218 0.39833 0.85162
 Zr811 Zr 0.62478 0.37615 0.92099
 O812 O 0.64854 0.35171 0.89927
 Zr813 Zr 0.62440 0.42098 0.87610
 O814 O 0.64858 0.39915 0.85222
 Zr815 Zr 0.57985 0.37596 0.87630
 O816 O 0.60145 0.35203 0.85184
 O817 O 0.64975 0.35084 0.85084
 O818 O 0.60074 0.39994 0.90005
 C819 C 0.68445 0.37651 0.81706
 C820 C 0.68386 0.31635 0.87668
 C821 C 0.62422 0.31683 0.81622
 C822 C 0.56741 0.37632 0.93478
 C823 C 0.62357 0.43402 0.93419
 C824 C 0.56642 0.43386 0.87654
 H825 H 0.66044 0.40901 0.90896
 H826 H 0.59157 0.40878 0.84005
 H827 H 0.66066 0.33992 0.83994
 H828 H 0.59225 0.34010 0.90935
 H829 H 0.63721 0.33490 0.94485
 H830 H 0.61997 0.30633 0.91731
 H831 H 0.61221 0.44573 0.83492
 H832 H 0.63713 0.41747 0.80821
 H833 H 0.65075 0.38075 0.96316
 H834 H 0.71316 0.37001 0.90093
 H835 H 0.55521 0.38710 0.83485
 H836 H 0.58343 0.36438 0.80790
 H837 H 0.69144 0.41772 0.86316
 H838 H 0.66567 0.44564 0.88784
 H839 H 0.58320 0.30855 0.86209
 H840 H 0.55510 0.33495 0.88897
 O841 O 0.12454 0.84067 0.80876
 O842 O 0.09611 0.87409 0.80208
 O843 O 0.19077 0.87681 0.84036
 O844 O 0.20016 0.90149 0.87388
 O845 O 0.15971 0.80919 0.87590
 O846 O 0.12426 0.80183 0.90343
 O847 O 0.12339 0.94215 0.91017
 O848 O 0.15300 0.94865 0.87813
 O849 O 0.05846 0.91072 0.87652
 O850 O 0.05035 0.87470 0.84766
 O851 O 0.08919 0.87640 0.94145
 O852 O 0.12532 0.84810 0.94977
 O853 O 0.12329 0.91133 0.94083
 O854 O 0.15285 0.87460 0.94887
 O855 O 0.05855 0.87620 0.91076
 O856 O 0.05129 0.84676 0.87384
 O857 O 0.08903 0.94149 0.87728
 O858 O 0.12258 0.94577 0.84392
 O859 O 0.12392 0.80991 0.83954
 O860 O 0.09592 0.80231 0.87532
 O861 O 0.19040 0.83985 0.87596
 O862 O 0.19605 0.87605 0.90578
 O863 O 0.16023 0.87601 0.80951
 O864 O 0.12469 0.90680 0.80477
 Zr865 Zr 0.12553 0.87492 0.82975
 O866 O 0.10137 0.89839 0.85169
 Zr867 Zr 0.17018 0.87457 0.87480
 O868 O 0.14813 0.89863 0.89827
 Zr869 Zr 0.12532 0.82987 0.87446
 O870 O 0.10152 0.85166 0.89846
 Zr871 Zr 0.12356 0.92110 0.87605
 O872 O 0.14809 0.89947 0.85227
 Zr873 Zr 0.07890 0.87612 0.87618
 O874 O 0.10082 0.85232 0.85201
 Zr875 Zr 0.12372 0.87635 0.92095
 O876 O 0.14777 0.85200 0.89933
 O877 O 0.14910 0.85107 0.85096
 O878 O 0.09977 0.90007 0.90000
 C879 C 0.12366 0.81726 0.81610
 C880 C 0.18356 0.87707 0.81690
 C881 C 0.18310 0.81646 0.87653
 C882 C 0.12323 0.93478 0.93358
 C883 C 0.06568 0.93415 0.87710
 C884 C 0.06581 0.87635 0.93416
 H885 H 0.09088 0.90907 0.84020
 H886 H 0.09107 0.84006 0.90903
 H887 H 0.16006 0.84022 0.84004
 H888 H 0.15953 0.90946 0.90868
 H889 H 0.16477 0.94504 0.86378
 H890 H 0.19334 0.91754 0.88107
 H891 H 0.05427 0.83484 0.88817
 H892 H 0.08262 0.80826 0.86331
 H893 H 0.11894 0.96329 0.85011
 H894 H 0.12992 0.90115 0.78746
 H895 H 0.11260 0.83485 0.94551
 H896 H 0.13551 0.80802 0.91728
 H897 H 0.08236 0.86321 0.80907
 H898 H 0.05436 0.88791 0.83480
 H899 H 0.19113 0.86228 0.91773
 H900 H 0.16465 0.88899 0.94582
 O901 O 0.69161 0.12475 0.65974
 O902 O 0.69822 0.09633 0.62627
 O903 O 0.66026 0.19122 0.62375
 O904 O 0.62685 0.20087 0.59915
 O905 O 0.62467 0.16015 0.69135
 O906 O 0.59709 0.12477 0.69869
 O907 O 0.59046 0.12422 0.55825
 O908 O 0.62254 0.15380 0.55182
 O909 O 0.62380 0.05908 0.58955
 O910 O 0.65248 0.05070 0.62560
 O911 O 0.55899 0.09011 0.62389
 O912 O 0.55072 0.12611 0.65227
 O913 O 0.55981 0.12422 0.58908
 O914 O 0.55194 0.15390 0.62599
 O915 O 0.58949 0.05927 0.62400
 O916 O 0.62628 0.05172 0.65354
 O917 O 0.62316 0.08977 0.55885
 O918 O 0.65660 0.12318 0.55463
 O919 O 0.66088 0.12414 0.69055
 O920 O 0.62501 0.09625 0.69809
 O921 O 0.62470 0.19092 0.66071
 O922 O 0.59496 0.19677 0.62451
 O923 O 0.69098 0.16054 0.62451
 O924 O 0.69563 0.12501 0.59360
 Zr925 Zr 0.67067 0.12589 0.62551
 O926 O 0.64870 0.10186 0.60198
 Zr927 Zr 0.62582 0.17076 0.62596
 O928 O 0.60234 0.14889 0.60183
 Zr929 Zr 0.62601 0.12576 0.67060
 O930 O 0.60195 0.10213 0.64874
 Zr931 Zr 0.62450 0.12426 0.57931
 O932 O 0.64830 0.14864 0.60101
 Zr933 Zr 0.62414 0.07944 0.62422
 O934 O 0.64835 0.10120 0.64806
 Zr935 Zr 0.57961 0.12453 0.62409
 O936 O 0.60126 0.14840 0.64853
 O937 O 0.64955 0.14952 0.64943
 O938 O 0.60047 0.10051 0.60031
 C939 C 0.68429 0.12381 0.68317
 C940 C 0.68366 0.18392 0.62350
 C941 C 0.62409 0.18357 0.68410
 C942 C 0.56709 0.12413 0.56563
 C943 C 0.62327 0.06638 0.56613
 C944 C 0.56616 0.06667 0.62382
 H945 H 0.66015 0.09133 0.59128
 H946 H 0.59134 0.09170 0.66032
 H947 H 0.66048 0.16041 0.66031
 H948 H 0.59201 0.16037 0.59101
 H949 H 0.63692 0.16549 0.55544
 H950 H 0.61978 0.19410 0.58303
 H951 H 0.61193 0.05471 0.66541
 H952 H 0.63696 0.08291 0.69209
 H953 H 0.65042 0.11962 0.53710
 H954 H 0.71293 0.13019 0.59926
 H955 H 0.55502 0.11346 0.66560
 H956 H 0.58328 0.13607 0.69251
 H957 H 0.69118 0.08257 0.63712
 H958 H 0.66539 0.05471 0.61243
 H959 H 0.58303 0.19193 0.63833
 H960 H 0.55485 0.16556 0.61143
 C961 C 0.37702 0.76049 0.74027
 N962 N 0.37698 0.75424 0.71512
 N963 N 0.37666 0.77236 0.69729
 C964 C 0.37636 0.79741 0.70394
 N965 N 0.37644 0.80366 0.72910
 N966 N 0.37677 0.78553 0.74694
 C967 C 0.37703 0.74048 0.75993
 N968 N 0.37701 0.74672 0.78508
 N969 N 0.37671 0.72859 0.80290
 C970 C 0.37642 0.70355 0.79624
 N971 N 0.37648 0.69730 0.77108
 N972 N 0.37679 0.71544 0.75325
 C973 C 0.37711 0.23959 0.25997
 N974 N 0.37685 0.21454 0.25333
 N975 N 0.37649 0.19643 0.27118
 C976 C 0.37639 0.20271 0.29633
 N977 N 0.37670 0.22776 0.30296
 N978 N 0.37705 0.24586 0.28512
 C979 C 0.37716 0.25958 0.24030
 N980 N 0.37691 0.28463 0.24696
 N981 N 0.37664 0.30275 0.22912
 C982 C 0.37662 0.29649 0.20396
 N983 N 0.37693 0.27144 0.19732
 N984 N 0.37719 0.25332 0.21515
 C985 C 0.62265 0.75968 0.25956
 N986 N 0.62269 0.75341 0.28470
 N987 N 0.62298 0.77152 0.30255
 C988 C 0.62325 0.79656 0.29593
 N989 N 0.62316 0.80283 0.27078
 N990 N 0.62286 0.78472 0.25292
 C991 C 0.62270 0.73971 0.23989
 N992 N 0.62277 0.74598 0.21475
 N993 N 0.62314 0.72788 0.19690
 C994 C 0.62347 0.70283 0.20353
 N995 N 0.62336 0.69656 0.22867
 N996 N 0.62298 0.71467 0.24653
 C997 C 0.12248 0.25975 0.25978
 N998 N 0.12247 0.25353 0.28493
 N999 N 0.12279 0.27167 0.30275
 C1000 C 0.12313 0.29671 0.29608
 N1001 N 0.12309 0.30294 0.27092
 N1002 N 0.12277 0.28479 0.25310
 C1003 C 0.12251 0.23974 0.24014
 N1004 N 0.12260 0.24597 0.21499
 N1005 N 0.12296 0.22783 0.19717
 C1006 C 0.12326 0.20280 0.20383
 N1007 N 0.12312 0.19656 0.22899
 N1008 N 0.12275 0.21471 0.24681
 C1009 C 0.12223 0.74048 0.74033
 N1010 N 0.12249 0.71544 0.74698
 N1011 N 0.12284 0.69731 0.72914
 C1012 C 0.12293 0.70356 0.70399
 N1013 N 0.12262 0.72860 0.69735
 N1014 N 0.12228 0.74673 0.71519
 C1015 C 0.12222 0.76047 0.75999
 N1016 N 0.12249 0.78551 0.75335
 N1017 N 0.12282 0.80363 0.77120
 C1018 C 0.12288 0.79736 0.79635
 N1019 N 0.12256 0.77232 0.80298
 N1020 N 0.12224 0.75420 0.78513
 C1021 C 0.87786 0.24000 0.75979
 N1022 N 0.87761 0.21496 0.75311
 N1023 N 0.87726 0.19684 0.77094
 C1024 C 0.87716 0.20311 0.79609
 N1025 N 0.87747 0.22815 0.80276
 N1026 N 0.87781 0.24626 0.78493
 C1027 C 0.87784 0.25996 0.74016
 N1028 N 0.87757 0.28500 0.74683
 N1029 N 0.87718 0.30311 0.72900
 C1030 C 0.87707 0.29684 0.70385
 N1031 N 0.87740 0.27180 0.69719
 N1032 N 0.87778 0.25369 0.71502
 C1033 C 0.76019 0.37825 0.74039
 N1034 N 0.75361 0.37849 0.71533
 N1035 N 0.77147 0.37810 0.69723
 C1036 C 0.79656 0.37747 0.70356
 N1037 N 0.80313 0.37729 0.72863
 N1038 N 0.78528 0.37768 0.74671
 C1039 C 0.74052 0.37823 0.76034
 N1040 N 0.74712 0.37767 0.78539
 N1041 N 0.72927 0.37726 0.80349
 C1042 C 0.70417 0.37741 0.79718
 N1043 N 0.69758 0.37803 0.77212
 N1044 N 0.71543 0.37844 0.75403
 C1045 C 0.25963 0.62194 0.76011
 N1046 N 0.28471 0.62224 0.75372
 N1047 N 0.30260 0.62265 0.77176
 C1048 C 0.29608 0.62274 0.79685
 N1049 N 0.27100 0.62237 0.80325
 N1050 N 0.25310 0.62198 0.78520
 C1051 C 0.23991 0.62197 0.74022
 N1052 N 0.21482 0.62228 0.74659
 N1053 N 0.19694 0.62273 0.72855
 C1054 C 0.20348 0.62286 0.70346
 N1055 N 0.22857 0.62248 0.69708
 N1056 N 0.24645 0.62204 0.71513
 C1057 C 0.25966 0.12112 0.26025
 N1058 N 0.28475 0.12139 0.25392
 N1059 N 0.30260 0.12181 0.27200
 C1060 C 0.29602 0.12197 0.29708
 N1061 N 0.27092 0.12164 0.30341
 N1062 N 0.25307 0.12123 0.28532
 C1063 C 0.23999 0.12113 0.24029
 N1064 N 0.21489 0.12147 0.24659
 N1065 N 0.19706 0.12191 0.22850
 C1066 C 0.20366 0.12200 0.20342
 N1067 N 0.22877 0.12159 0.19712
 N1068 N 0.24660 0.12117 0.21522
 C1069 C 0.76019 0.12194 0.75969
 N1070 N 0.78527 0.12248 0.75332
 N1071 N 0.80315 0.12281 0.77136
 C1072 C 0.79662 0.12260 0.79645
 N1073 N 0.77154 0.12201 0.80283
 N1074 N 0.75365 0.12168 0.78478
 C1075 C 0.74048 0.12201 0.73978
 N1076 N 0.71539 0.12184 0.74615
 N1077 N 0.69751 0.12228 0.72810
 C1078 C 0.70405 0.12290 0.70302
 N1079 N 0.72915 0.12301 0.69665
 N1080 N 0.74703 0.12258 0.71471
 C1081 C 0.74007 0.87770 0.25951
 N1082 N 0.71499 0.87717 0.25316
 N1083 N 0.69710 0.87688 0.27123
 C1084 C 0.70362 0.87713 0.29631
 N1085 N 0.72871 0.87772 0.30266
 N1086 N 0.74660 0.87801 0.28459
 C1087 C 0.75980 0.87759 0.23957
 N1088 N 0.78489 0.87778 0.24591
 N1089 N 0.80277 0.87733 0.22784
 C1090 C 0.79624 0.87667 0.20276
 N1091 N 0.77114 0.87653 0.19643
 N1092 N 0.75325 0.87699 0.21450
 C1093 C 0.76003 0.74012 0.37749
 N1094 N 0.75372 0.71500 0.37756
 N1095 N 0.77178 0.69713 0.37718
 C1096 C 0.79681 0.70372 0.37670
 N1097 N 0.80312 0.72885 0.37668
 N1098 N 0.78505 0.74672 0.37707
 C1099 C 0.74012 0.75981 0.37753
 N1100 N 0.74644 0.78492 0.37725
 N1101 N 0.72838 0.80279 0.37692
 C1102 C 0.70335 0.79621 0.37686
 N1103 N 0.69703 0.77110 0.37719
 N1104 N 0.71509 0.75322 0.37752
 C1105 C 0.76010 0.25984 0.62202
 N1106 N 0.75374 0.28495 0.62212
 N1107 N 0.77176 0.30284 0.62257
 C1108 C 0.79681 0.29629 0.62293
 N1109 N 0.80317 0.27118 0.62278
 N1110 N 0.78515 0.25328 0.62233
 C1111 C 0.74022 0.24012 0.62194
 N1112 N 0.74657 0.21501 0.62230
 N1113 N 0.72854 0.19712 0.62263
 C1114 C 0.70349 0.20367 0.62260
 N1115 N 0.69714 0.22879 0.62218
 N1116 N 0.71518 0.24668 0.62185
 C1117 C 0.74037 0.73967 0.12157
 N1118 N 0.71533 0.74624 0.12190
 N1119 N 0.69729 0.72835 0.12232
 C1120 C 0.70364 0.70323 0.12242
 N1121 N 0.72869 0.69667 0.12204
 N1122 N 0.74672 0.71455 0.12162
 C1123 C 0.76025 0.75939 0.12153
 N1124 N 0.78530 0.75284 0.12144
 N1125 N 0.80333 0.77075 0.12180
 C1126 C 0.79696 0.79586 0.12225
 N1127 N 0.77190 0.80240 0.12229
 N1128 N 0.75388 0.78450 0.12193
 C1129 C 0.26011 0.25947 0.12215
 N1130 N 0.25374 0.28458 0.12227
 N1131 N 0.27176 0.30248 0.12262
 C1132 C 0.29681 0.29593 0.12285
 N1133 N 0.30318 0.27082 0.12268
 N1134 N 0.28515 0.25291 0.12234
 C1135 C 0.24023 0.23974 0.12218
 N1136 N 0.24659 0.21463 0.12237
 N1137 N 0.22857 0.19674 0.12274
 C1138 C 0.20352 0.20329 0.12295
 N1139 N 0.19716 0.22840 0.12271
 N1140 N 0.21519 0.24630 0.12233
 C1141 C 0.25961 0.74046 0.87804
 N1142 N 0.25328 0.71535 0.87787
 N1143 N 0.27133 0.69745 0.87751
 C1144 C 0.29637 0.70400 0.87730
 N1145 N 0.30270 0.72912 0.87752
 N1146 N 0.28465 0.74702 0.87789
 C1147 C 0.23970 0.76020 0.87805
 N1148 N 0.24603 0.78531 0.87794
 N1149 N 0.22799 0.80321 0.87759
 C1150 C 0.20295 0.79667 0.87736
 N1151 N 0.19661 0.77155 0.87752
 N1152 N 0.21466 0.75365 0.87787
 C1153 C 0.25966 0.23982 0.37805
 N1154 N 0.25330 0.21472 0.37795
 N1155 N 0.27133 0.19681 0.37764
 C1156 C 0.29637 0.20335 0.37741
 N1157 N 0.30273 0.22846 0.37757
 N1158 N 0.28470 0.24637 0.37789
 C1159 C 0.23980 0.25955 0.37798
 N1160 N 0.24618 0.28465 0.37777
 N1161 N 0.22818 0.30257 0.37734
 C1162 C 0.20313 0.29605 0.37710
 N1163 N 0.19674 0.27095 0.37736
 N1164 N 0.21476 0.25303 0.37780
 C1165 C 0.51001 0.62350 1.00968
 N1166 N 0.53505 0.62344 1.00308
 N1167 N 0.55311 0.62346 1.02096
 C1168 C 0.54679 0.62356 1.04609
 N1169 N 0.52175 0.62359 1.05269
 N1170 N 0.50369 0.62356 1.03481
 C1171 C 0.49010 0.62359 0.98999
 N1172 N 0.46507 0.62366 0.99661
 N1173 N 0.44700 0.62384 0.97873
 C1174 C 0.45332 0.62399 0.95359
 N1175 N 0.47836 0.62391 0.94699
 N1176 N 0.49642 0.62372 0.96486
 C1177 C 0.49022 0.12354 0.49009
 N1178 N 0.49644 0.12362 0.46494
 N1179 N 0.47831 0.12369 0.44714
 C1180 C 0.45330 0.12368 0.45383
 N1181 N 0.44707 0.12357 0.47899
 N1182 N 0.46521 0.12351 0.49680
 C1183 C 0.51022 0.12359 0.50970
 N1184 N 0.50401 0.12364 0.53486
 N1185 N 0.52215 0.12379 0.55265
 C1186 C 0.54716 0.12391 0.54594
 N1187 N 0.55337 0.12384 0.52078
 N1188 N 0.53523 0.12368 0.50298
 C1189 C 0.50974 0.87645 0.49000
 N1190 N 0.50341 0.87628 0.46488
 N1191 N 0.52145 0.87609 0.44696
 C1192 C 0.54649 0.87607 0.45350
 N1193 N 0.55284 0.87626 0.47863
 N1194 N 0.53479 0.87644 0.49655
 C1195 C 0.48984 0.87654 0.50975
 N1196 N 0.49618 0.87653 0.53487
 N1197 N 0.47814 0.87651 0.55278
 C1198 C 0.45309 0.87650 0.54624
 N1199 N 0.44675 0.87653 0.52111
 N1200 N 0.46479 0.87655 0.50320
 C1201 C 1.00993 0.37663 0.49011
 N1202 N 1.00356 0.37658 0.46500
 N1203 N 1.02159 0.37645 0.44708
 C1204 C 1.04663 0.37637 0.45362
 N1205 N 1.05300 0.37645 0.47874
 N1206 N 1.03497 0.37658 0.49666
 C1207 C 0.99006 0.37663 0.50985
 N1208 N 0.99644 0.37650 0.53496
 N1209 N 0.97842 0.37637 0.55288
 C1210 C 0.95337 0.37635 0.54636
 N1211 N 0.94700 0.37650 0.52124
 N1212 N 0.96502 0.37663 0.50331
 C1213 C -0.01097 0.87637 1.00995
 N1214 N -0.03599 0.87621 1.00331
 N1215 N -0.05410 0.87600 1.02116
 C1216 C -0.04787 0.87592 1.04634
 N1217 N -0.02282 0.87610 1.05294
 N1218 N -0.00472 0.87632 1.03509
 C1219 C 0.00901 0.87648 0.99028
 N1220 N 0.03403 0.87656 0.99692
 N1221 N 0.05215 0.87654 0.97907
 C1222 C 0.04590 0.87645 0.95391
 N1223 N 0.02087 0.87640 0.94729
 N1224 N 0.00277 0.87642 0.96513
 C1225 C -0.00963 0.12325 -0.01010
 N1226 N -0.00326 0.12336 -0.03522
 N1227 N -0.02128 0.12349 -0.05313
 C1228 C -0.04633 0.12350 -0.04659
 N1229 N -0.05270 0.12337 -0.02146
 N1230 N -0.03468 0.12325 -0.00355
 C1231 C 0.01024 0.12325 0.00964
 N1232 N 0.00385 0.12332 0.03475
 N1233 N 0.02186 0.12343 0.05267
 C1234 C 0.04692 0.12348 0.04615
 N1235 N 0.05330 0.12339 0.02102
 N1236 N 0.03529 0.12328 0.00310
 C1237 C 0.12308 1.01024 1.01072
 N1238 N 0.12319 1.00352 1.03575
 N1239 N 0.12345 1.02131 1.05395
 C1240 C 0.12364 1.04649 1.04778
 N1241 N 0.12350 1.05316 1.02271
 N1242 N 0.12324 1.03538 1.00453
 C1243 C 0.12294 0.99065 0.99064
 N1244 N 0.12299 0.99738 0.96561
 N1245 N 0.12303 0.97961 0.94740
 C1246 C 0.12303 0.95445 0.95357
 N1247 N 0.12295 0.94773 0.97861
 N1248 N 0.12291 0.96550 0.99681
 C1249 C 0.12333 0.49036 0.48999
 N1250 N 0.12336 0.46522 0.49619
 N1251 N 0.12351 0.44742 0.47802
 C1252 C 0.12364 0.45410 0.45298
 N1253 N 0.12358 0.47925 0.44677
 N1254 N 0.12343 0.49705 0.46494
 C1255 C 0.12332 0.50997 0.51003
 N1256 N 0.12339 0.53511 0.50383
 N1257 N 0.12351 0.55290 0.52200
 C1258 C 0.12359 0.54622 0.54705
 N1259 N 0.12349 0.52107 0.55326
 N1260 N 0.12336 0.50327 0.53508
 C1261 C 0.37692 0.49013 1.01004
 N1262 N 0.37691 0.46498 1.00381
 N1263 N 0.37678 0.44718 1.02196
 C1264 C 0.37665 0.45384 1.04702
 N1265 N 0.37669 0.47900 1.05326
 N1266 N 0.37682 0.49681 1.03510
 C1267 C 0.37688 0.50976 0.99001
 N1268 N 0.37678 0.53490 0.99625
 N1269 N 0.37659 0.55271 0.97810
 C1270 C 0.37650 0.54605 0.95304
 N1271 N 0.37663 0.52090 0.94680
 N1272 N 0.37682 0.50309 0.96495
 C1273 C 0.87665 0.51028 0.49054
 N1274 N 0.87668 0.50363 0.46549
 N1275 N 0.87652 0.52147 0.44737
 C1276 C 0.87631 0.54660 0.45366
 N1277 N 0.87631 0.55324 0.47872
 N1278 N 0.87647 0.53541 0.49683
 C1279 C 0.87669 0.49064 0.51050
 N1280 N 0.87658 0.49727 0.53556
 N1281 N 0.87647 0.47942 0.55366
 C1282 C 0.87645 0.45429 0.54735
 N1283 N 0.87659 0.44767 0.52228
 N1284 N 0.87670 0.46552 0.50419
 C1285 C 0.87756 1.00907 -0.01080
 N1286 N 0.87755 1.00250 -0.03588
 N1287 N 0.87727 1.02038 -0.05394
 C1288 C 0.87698 1.04550 -0.04758
 N1289 N 0.87702 1.05206 -0.02250
 N1290 N 0.87730 1.03418 -0.00444
 C1291 C 0.87765 0.98939 0.00911
 N1292 N 0.87735 0.99598 0.03418
 N1293 N 0.87719 0.97811 0.05226
 C1294 C 0.87734 0.95299 0.04592
 N1295 N 0.87769 0.94640 0.02085
 N1296 N 0.87784 0.96427 0.00277
 C1297 C 0.62257 -0.00946 0.48942
 N1298 N 0.62283 -0.03457 0.49574
 N1299 N 0.62310 -0.05244 0.47765
 C1300 C 0.62315 -0.04587 0.45258
 N1301 N 0.62285 -0.02075 0.44626
 N1302 N 0.62258 -0.00287 0.46435
 C1303 C 0.62248 0.01024 0.50937
 N1304 N 0.62231 0.03536 0.50307
 N1305 N 0.62247 0.05322 0.52117
 C1306 C 0.62282 0.04663 0.54624
 N1307 N 0.62295 0.02151 0.55254
 N1308 N 0.62278 0.00364 0.53444
 C1309 C 0.48989 1.00960 0.37795
 N1310 N 0.46482 1.00317 0.37807
 N1311 N 0.44688 1.02116 0.37790
 C1312 C 0.45335 1.04624 0.37759
 N1313 N 0.47841 1.05268 0.37752
 N1314 N 0.49636 1.03468 0.37770
 C1315 C 0.50965 0.98977 0.37784
 N1316 N 0.53471 0.99621 0.37772
 N1317 N 0.55265 0.97823 0.37736
 C1318 C 0.54620 0.95314 0.37709
 N1319 N 0.52113 0.94670 0.37725
 N1320 N 0.50318 0.96469 0.37762
 C1321 C -0.00970 -0.01037 0.12255
 N1322 N -0.03477 -0.00395 0.12287
 N1323 N -0.05269 -0.02196 0.12312
 C1324 C -0.04619 -0.04705 0.12309
 N1325 N -0.02111 -0.05346 0.12275
 N1326 N -0.00320 -0.03545 0.12249
 C1327 C 0.01005 0.00949 0.12246
 N1328 N 0.03512 0.00308 0.12223
 N1329 N 0.05304 0.02109 0.12236
 C1330 C 0.04655 0.04617 0.12273
 N1331 N 0.02147 0.05258 0.12291
 N1332 N 0.00355 0.03457 0.12278
 C1333 C 0.50996 0.50964 0.12222
 N1334 N 0.50349 0.53473 0.12238
 N1335 N 0.52143 0.55272 0.12258
 C1336 C 0.54650 0.54627 0.12262
 N1337 N 0.55297 0.52118 0.12240
 N1338 N 0.53503 0.50319 0.12221
 C1339 C 0.49019 0.48980 0.12228
 N1340 N 0.49668 0.46472 0.12257
 N1341 N 0.47875 0.44672 0.12288
 C1342 C 0.45367 0.45315 0.12291
 N1343 N 0.44719 0.47824 0.12257
 N1344 N 0.46512 0.49623 0.12227
 C1345 C -0.00984 0.49022 0.62230
 N1346 N -0.03492 0.49663 0.62235
 N1347 N -0.05283 0.47861 0.62262
 C1348 C -0.04633 0.45353 0.62286
 N1349 N -0.02124 0.44713 0.62277
 N1350 N -0.00333 0.46515 0.62250
 C1351 C 0.00990 0.51009 0.62229
 N1352 N 0.03498 0.50370 0.62227
 N1353 N 0.05288 0.52172 0.62251
 C1354 C 0.04637 0.54680 0.62281
 N1355 N 0.02128 0.55319 0.62279
 N1356 N 0.00338 0.53517 0.62254
 C1357 C 0.49018 0.51017 0.87728
 N1358 N 0.46512 0.50374 0.87751
 N1359 N 0.44716 0.52173 0.87735
 C1360 C 0.45359 0.54682 0.87697
 N1361 N 0.47867 0.55326 0.87679
 N1362 N 0.49663 0.53526 0.87694
 C1363 C 0.50999 0.49032 0.87724
 N1364 N 0.53505 0.49676 0.87695
 N1365 N 0.55301 0.47877 0.87676
 C1366 C 0.54658 0.45367 0.87682
 N1367 N 0.52150 0.44724 0.87712
 N1368 N 0.50354 0.46523 0.87733
 C1369 C 0.62287 0.50985 1.01093
 N1370 N 0.62295 0.50326 1.03599
 N1371 N 0.62323 0.52114 1.05409
 C1372 C 0.62345 0.54629 1.04780
 N1373 N 0.62332 0.55283 1.02270
 N1374 N 0.62305 0.53496 1.00461
 C1375 C 0.62279 0.49015 0.99097
 N1376 N 0.62304 0.49676 0.96591
 N1377 N 0.62321 0.47890 0.94780
 C1378 C 0.62313 0.45377 0.95410
 N1379 N 0.62283 0.44717 0.97916
 N1380 N 0.62267 0.46503 0.99727
 C1381 C 0.37658 1.01042 0.48971
 N1382 N 0.37649 1.00369 0.46467
 N1383 N 0.37634 1.02146 0.44647
 C1384 C 0.37628 1.04666 0.45263
 N1385 N 0.37641 1.05334 0.47770
 N1386 N 0.37656 1.03558 0.49589
 C1387 C 0.37657 0.99083 0.50979
 N1388 N 0.37651 0.99756 0.53483
 N1389 N 0.37635 0.97979 0.55303
 C1390 C 0.37622 0.95462 0.54684
 N1391 N 0.37631 0.94791 0.52180
 N1392 N 0.37648 0.96567 0.50361
 C1393 C -0.00997 0.62311 0.49015
 N1394 N -0.00359 0.62283 0.46504
 N1395 N -0.02161 0.62290 0.44712
 C1396 C -0.04666 0.62325 0.45365
 N1397 N -0.05304 0.62348 0.47878
 N1398 N -0.03502 0.62341 0.49670
 C1399 C 0.00989 0.62326 0.50989
 N1400 N 0.00351 0.62361 0.53500
 N1401 N 0.02152 0.62390 0.55292
 C1402 C 0.04657 0.62385 0.54638
 N1403 N 0.05296 0.62348 0.52126
 N1404 N 0.03494 0.62319 0.50334
 C1405 C 0.49064 0.37645 1.01040
 N1406 N 0.46563 0.37644 1.00371
 N1407 N 0.44750 0.37623 1.02152
 C1408 C 0.45373 0.37599 1.04668
 N1409 N 0.47873 0.37602 1.05335
 N1410 N 0.49686 0.37624 1.03554
 C1411 C 0.51061 0.37656 0.99078
 N1412 N 0.53562 0.37648 0.99746
 N1413 N 0.55375 0.37644 0.97964
 C1414 C 0.54751 0.37648 0.95449
 N1415 N 0.52250 0.37659 0.94782
 N1416 N 0.50438 0.37663 0.96564
 C1417 C 0.48994 -0.00949 0.62274
 N1418 N 0.46487 -0.00302 0.62249
 N1419 N 0.44692 -0.02099 0.62258
 C1420 C 0.45336 -0.04609 0.62291
 N1421 N 0.47842 -0.05255 0.62310
 N1422 N 0.49638 -0.03458 0.62302
 C1423 C 0.50973 0.01032 0.62289
 N1424 N 0.53479 0.00385 0.62320
 N1425 N 0.55275 0.02181 0.62349
 C1426 C 0.54632 0.04691 0.62350
 N1427 N 0.52125 0.05339 0.62317
 N1428 N 0.50329 0.03542 0.62287
 C1429 C -0.00941 0.51042 0.37738
 N1430 N -0.03449 0.50409 0.37715
 N1431 N -0.05236 0.52216 0.37688
 C1432 C -0.04579 0.54722 0.37681
 N1433 N -0.02070 0.55355 0.37707
 N1434 N -0.00283 0.53548 0.37735
 C1435 C 0.01027 0.49049 0.37746
 N1436 N 0.03536 0.49680 0.37762
 N1437 N 0.05321 0.47872 0.37745
 C1438 C 0.04663 0.45367 0.37711
 N1439 N 0.02153 0.44735 0.37699
 N1440 N 0.00368 0.46544 0.37717
 C1441 C -0.01046 1.01056 0.87764
 N1442 N -0.03553 1.00416 0.87763
 N1443 N -0.05346 1.02216 0.87727
 C1444 C -0.04702 1.04728 0.87688
 N1445 N -0.02191 1.05365 0.87693
 N1446 N -0.00398 1.03564 0.87730
 C1447 C 0.00932 0.99068 0.87778
 N1448 N 0.03440 0.99708 0.87785
 N1449 N 0.05233 0.97907 0.87772
 C1450 C 0.04586 0.95398 0.87751
 N1451 N 0.02078 0.94758 0.87748
 N1452 N 0.00284 0.96560 0.87762
 C1453 C 0.75998 0.62156 0.25969
 N1454 N 0.78507 0.62159 0.25336
 N1455 N 0.80293 0.62205 0.27143
 C1456 C 0.79635 0.62250 0.29650
 N1457 N 0.77125 0.62241 0.30284
 N1458 N 0.75339 0.62195 0.28476
 C1459 C 0.74029 0.62147 0.23976
 N1460 N 0.71521 0.62191 0.24612
 N1461 N 0.69734 0.62225 0.22806
 C1462 C 0.70389 0.62215 0.20297
 N1463 N 0.72899 0.62165 0.19661
 N1464 N 0.74686 0.62131 0.21468
 C1465 C 0.25953 0.87895 0.74028
 N1466 N 0.25298 0.87892 0.71520
 N1467 N 0.27086 0.87853 0.69711
 C1468 C 0.29596 0.87816 0.70345
 N1469 N 0.30250 0.87825 0.72853
 N1470 N 0.28462 0.87865 0.74661
 C1471 C 0.23980 0.87892 0.76023
 N1472 N 0.24634 0.87883 0.78531
 N1473 N 0.22845 0.87841 0.80338
 C1474 C 0.20335 0.87805 0.79703
 N1475 N 0.19683 0.87820 0.77195
 N1476 N 0.21472 0.87863 0.75388
 C1477 C 0.24008 0.37819 0.25984
 N1478 N 0.21500 0.37789 0.25347
 N1479 N 0.19711 0.37746 0.27152
 C1480 C 0.20364 0.37733 0.29661
 N1481 N 0.22872 0.37770 0.30298
 N1482 N 0.24661 0.37812 0.28492
 C1483 C 0.25979 0.37818 0.23995
 N1484 N 0.28486 0.37787 0.24634
 N1485 N 0.30277 0.37743 0.22830
 C1486 C 0.29626 0.37730 0.20321
 N1487 N 0.27119 0.37769 0.19682
 N1488 N 0.25328 0.37812 0.21486
 C1489 C 0.87816 0.73975 0.25962
 N1490 N 0.87830 0.71468 0.25306
 N1491 N 0.87791 0.69664 0.27098
 C1492 C 0.87738 0.70302 0.29609
 N1493 N 0.87731 0.72810 0.30263
 N1494 N 0.87770 0.74613 0.28473
 C1495 C 0.87814 0.75963 0.23990
 N1496 N 0.87777 0.78469 0.24648
 N1497 N 0.87736 0.80274 0.22857
 C1498 C 0.87729 0.79637 0.20345
 N1499 N 0.87772 0.77130 0.19689
 N1500 N 0.87813 0.75326 0.21479
 C1501 C 0.62265 0.26017 0.76001
 N1502 N 0.62280 0.25385 0.78514
 N1503 N 0.62317 0.27192 0.80302
 C1504 C 0.62339 0.29698 0.79645
 N1505 N 0.62318 0.30331 0.77131
 N1506 N 0.62282 0.28523 0.75343
 C1507 C 0.62263 0.24024 0.74031
 N1508 N 0.62276 0.24656 0.71518
 N1509 N 0.62309 0.22848 0.69730
 C1510 C 0.62330 0.20342 0.70388
 N1511 N 0.62311 0.19710 0.72901
 N1512 N 0.62278 0.21518 0.74690
 C1513 C 0.76026 0.24022 0.87803
 N1514 N 0.75389 0.21512 0.87795
 N1515 N 0.77190 0.19719 0.87749
 C1516 C 0.79696 0.20369 0.87711
 N1517 N 0.80333 0.22880 0.87725
 N1518 N 0.78532 0.24673 0.87770
 C1519 C 0.74039 0.26000 0.87812
 N1520 N 0.74677 0.28510 0.87776
 N1521 N 0.72875 0.30303 0.87746
 C1522 C 0.70369 0.29654 0.87753
 N1523 N 0.69732 0.27143 0.87795
 N1524 N 0.71533 0.25350 0.87825
 C1525 C 0.25959 0.76042 0.62228
 N1526 N 0.25322 0.78553 0.62243
 N1527 N 0.27124 0.80344 0.62278
 C1528 C 0.29629 0.79690 0.62299
 N1529 N 0.30266 0.77178 0.62278
 N1530 N 0.28464 0.75388 0.62243
 C1531 C 0.23974 0.74068 0.62229
 N1532 N 0.24613 0.71558 0.62245
 N1533 N 0.22812 0.69767 0.62282
 C1534 C 0.20307 0.70419 0.62304
 N1535 N 0.19668 0.72929 0.62283
 N1536 N 0.21468 0.74721 0.62246
   
