data_POSCAR
  _audit_creation_date              2014-09-24
  _audit_creation_method            'ToBaCCo'
  _symmetry_space_group_name_H-M    'P1'
  _symmetry_Int_Tables_number       1
  _symmetry_cell_setting            triclinic
  loop_
  _symmetry_equiv_pos_as_xyz
 x,y,z
_cell_length_a 59.7996
_cell_length_b 59.8433
_cell_length_c 59.8776
_cell_angle_alpha 90.014800
_cell_angle_beta 89.984400
_cell_angle_gamma 90.015200
loop_
  _atom_site_label
  _atom_site_type_symbol
  _atom_site_fract_x
  _atom_site_fract_y
  _atom_site_fract_z
C1 C 0.26621 0.95007 -0.01765
 C2 C 0.26623 0.93929 0.00323
 C3 C 0.26705 0.95084 0.02344
 C4 C 0.26791 0.97444 0.02324
 C5 C 0.26763 0.98613 0.00258
 C6 C 0.26774 0.97395 -0.01793
 C7 C 0.27156 0.98603 -0.03770
 C8 C 0.27240 1.00920 -0.03782
 C9 C 0.26940 1.02178 -0.01821
 C10 C 0.26838 1.01006 0.00248
 C11 C 0.27072 0.98656 0.04305
 C12 C 0.27166 1.00969 0.04295
 C13 C 0.26922 1.02205 0.02309
 C14 C 0.26966 1.04589 0.02298
 C15 C 0.27062 1.05682 0.00223
 C16 C 0.26966 1.04561 -0.01839
 H17 H 0.27543 0.97796 -0.05330
 H18 H 0.27686 1.01683 -0.05350
 H19 H 0.27319 0.97832 0.05891
 H20 H 0.27556 1.01740 0.05872
 H21 H 0.26477 0.92126 0.00406
 H22 H 0.27038 1.07490 0.00214
 C23 C 0.74670 0.45044 0.48282
 C24 C 0.74689 0.43918 0.50327
 C25 C 0.74704 0.45049 0.52369
 C26 C 0.74685 0.47418 0.52382
 C27 C 0.74678 0.48603 0.50322
 C28 C 0.74676 0.47413 0.48265
 C29 C 0.74645 0.48629 0.46258
 C30 C 0.74704 0.50949 0.46256
 C31 C 0.74676 0.52170 0.48260
 C32 C 0.74675 0.50985 0.50320
 C33 C 0.74711 0.48638 0.54386
 C34 C 0.74645 0.50958 0.54384
 C35 C 0.74672 0.52174 0.52377
 C36 C 0.74658 0.54543 0.52360
 C37 C 0.74671 0.55670 0.50316
 C38 C 0.74687 0.54539 0.48274
 H39 H 0.74570 0.47815 0.44652
 H40 H 0.74775 0.51759 0.44649
 H41 H 0.74787 0.47829 0.55993
 H42 H 0.74569 0.51771 0.55990
 H43 H 0.74695 0.42105 0.50329
 H44 H 0.74671 0.57483 0.50316
 C45 C 0.76893 0.97713 1.05058
 C46 C 0.76943 0.99739 1.06215
 C47 C 0.76883 1.01828 1.05134
 C48 C 0.76890 1.01854 1.02744
 C49 C 0.76788 0.99798 1.01540
 C50 C 0.76841 0.97729 1.02700
 C51 C 0.76965 0.95734 1.01468
 C52 C 0.76882 0.95746 0.99152
 C53 C 0.76678 0.97753 0.97959
 C54 C 0.76712 0.99806 0.99158
 C55 C 0.77171 1.03837 1.01504
 C56 C 0.77076 1.03845 0.99186
 C57 C 0.76755 1.01864 0.97978
 C58 C 0.76623 1.01864 0.95615
 C59 C 0.76532 0.99826 0.94477
 C60 C 0.76565 0.97777 0.95595
 H61 H 0.77195 0.94134 1.02267
 H62 H 0.77047 0.94154 0.98320
 H63 H 0.77582 1.05410 1.02273
 H64 H 0.77347 1.05425 0.98358
 H65 H 0.76910 0.99661 1.08023
 H66 H 0.76401 0.99833 0.92670
 C67 C 0.25854 0.51835 0.55026
 C68 C 0.25822 0.49794 0.56164
 C69 C 0.25821 0.47741 0.55045
 C70 C 0.25866 0.47717 0.52677
 C71 C 0.25837 0.49771 0.51481
 C72 C 0.25878 0.51836 0.52657
 C73 C 0.26063 0.53829 0.51431
 C74 C 0.26063 0.53817 0.49110
 C75 C 0.25884 0.51812 0.47903
 C76 C 0.25847 0.49758 0.49100
 C77 C 0.26059 0.45712 0.51471
 C78 C 0.26077 0.45701 0.49150
 C79 C 0.25899 0.47693 0.47924
 C80 C 0.25893 0.47693 0.45555
 C81 C 0.25870 0.49734 0.44417
 C82 C 0.25861 0.51787 0.45535
 H83 H 0.26272 0.55427 0.52240
 H84 H 0.26273 0.55407 0.48285
 H85 H 0.26267 0.44123 0.52296
 H86 H 0.26294 0.44103 0.48342
 H87 H 0.25761 0.49805 0.57974
 H88 H 0.25823 0.49722 0.42606
 C89 C 0.95090 0.26504 -0.01716
 C90 C 0.94026 0.26491 0.00380
 C91 C 0.95197 0.26560 0.02393
 C92 C 0.97557 0.26653 0.02356
 C93 C 0.98713 0.26631 0.00283
 C94 C 0.97481 0.26653 -0.01760
 C95 C 0.98679 0.27043 -0.03743
 C96 C 1.00999 0.27120 -0.03769
 C97 C 1.02268 0.26809 -0.01818
 C98 C 1.01108 0.26703 0.00258
 C99 C 0.98781 0.26937 0.04329
 C100 C 1.01095 0.27029 0.04305
 C101 C 1.02319 0.26781 0.02312
 C102 C 1.04704 0.26816 0.02286
 C103 C 1.05787 0.26915 0.00206
 C104 C 1.04653 0.26830 -0.01849
 H105 H 0.97866 0.27439 -0.05296
 H106 H 1.01755 0.27570 -0.05340
 H107 H 0.97967 0.27187 0.05920
 H108 H 1.01876 0.27423 0.05876
 H109 H 0.92222 0.26345 0.00478
 H110 H 1.07597 0.26886 0.00187
 C111 C 0.45046 0.75956 0.48245
 C112 C 0.43917 0.75945 0.50291
 C113 C 0.45047 0.75946 0.52335
 C114 C 0.47418 0.75966 0.52345
 C115 C 0.48605 0.75923 0.50286
 C116 C 0.47417 0.75967 0.48230
 C117 C 0.48635 0.76138 0.46230
 C118 C 0.50959 0.76125 0.46228
 C119 C 0.52177 0.75943 0.48226
 C120 C 0.50989 0.75915 0.50285
 C121 C 0.48636 0.76147 0.54343
 C122 C 0.50960 0.76145 0.54341
 C123 C 0.52177 0.75957 0.52342
 C124 C 0.54547 0.75929 0.52328
 C125 C 0.55678 0.75905 0.50283
 C126 C 0.54549 0.75908 0.48237
 H127 H 0.47817 0.76347 0.44637
 H128 H 0.51778 0.76326 0.44634
 H129 H 0.47818 0.76359 0.55936
 H130 H 0.51778 0.76356 0.55933
 H131 H 0.42103 0.75896 0.50291
 H132 H 0.57491 0.75848 0.50286
 C133 C 0.01878 0.76564 0.04967
 C134 C -0.00142 0.76439 0.06123
 C135 C -0.02235 0.76437 0.05049
 C136 C -0.02267 0.76648 0.02666
 C137 C -0.00215 0.76666 0.01446
 C138 C 0.01855 0.76683 0.02611
 C139 C 0.03837 0.76985 0.01400
 C140 C 0.03825 0.77098 -0.00910
 C141 C 0.01835 0.76869 -0.02143
 C142 C -0.00228 0.76784 -0.00944
 C143 C -0.04247 0.77060 0.01471
 C144 C -0.04261 0.77202 -0.00843
 C145 C -0.02300 0.76926 -0.02111
 C146 C -0.02317 0.77016 -0.04491
 C147 C -0.00252 0.77088 -0.05612
 C148 C 0.01823 0.76927 -0.04524
 H149 H 0.05426 0.77226 0.02223
 H150 H 0.05402 0.77497 -0.01682
 H151 H -0.05807 0.77429 0.02288
 H152 H -0.05831 0.77669 -0.01592
 H153 H -0.00051 0.76266 0.07923
 H154 H -0.00265 0.77095 -0.07420
 C155 C 0.51905 0.26051 0.55027
 C156 C 0.49858 0.26026 0.56158
 C157 C 0.47809 0.26020 0.55032
 C158 C 0.47794 0.26055 0.52665
 C159 C 0.49853 0.26023 0.51476
 C160 C 0.51915 0.26066 0.52659
 C161 C 0.53915 0.26239 0.51438
 C162 C 0.53911 0.26229 0.49116
 C163 C 0.51906 0.26051 0.47905
 C164 C 0.49848 0.26022 0.49095
 C165 C 0.45790 0.26240 0.51454
 C166 C 0.45786 0.26248 0.49133
 C167 C 0.47785 0.26067 0.47913
 C168 C 0.47793 0.26047 0.45545
 C169 C 0.49838 0.26022 0.44413
 C170 C 0.51889 0.26019 0.45537
 H171 H 0.55512 0.26444 0.52252
 H172 H 0.55505 0.26430 0.48294
 H173 H 0.44197 0.26448 0.52275
 H174 H 0.44190 0.26459 0.48319
 H175 H 0.49860 0.25969 0.57968
 H176 H 0.49833 0.25964 0.42602
 C177 C 0.95135 -0.02288 0.23640
 C178 C 0.94016 -0.00237 0.23657
 C179 C 0.95155 0.01800 0.23551
 C180 C 0.97522 0.01800 0.23436
 C181 C 0.98703 -0.00258 0.23478
 C182 C 0.97502 -0.02311 0.23516
 C183 C 0.98695 -0.04319 0.23301
 C184 C 1.01013 -0.04330 0.23195
 C185 C 1.02249 -0.02336 0.23315
 C186 C 1.01088 -0.00267 0.23397
 C187 C 0.98735 0.03783 0.23134
 C188 C 1.01057 0.03776 0.23055
 C189 C 1.02295 0.01790 0.23318
 C190 C 1.04688 0.01762 0.23330
 C191 C 1.05768 -0.00325 0.23217
 C192 C 1.04609 -0.02350 0.23230
 H193 H 0.97860 -0.05910 0.23140
 H194 H 1.01812 -0.05930 0.22957
 H195 H 0.97908 0.05366 0.22873
 H196 H 1.01832 0.05352 0.22664
 H197 H 0.92206 -0.00226 0.23786
 H198 H 1.07579 -0.00408 0.23233
 C199 C 0.44959 0.47761 0.74161
 C200 C 0.43844 0.49816 0.74147
 C201 C 0.44989 0.51854 0.74114
 C202 C 0.47361 0.51849 0.74102
 C203 C 0.48533 0.49781 0.74152
 C204 C 0.47330 0.47731 0.74125
 C205 C 0.48532 0.45722 0.73945
 C206 C 0.50856 0.45704 0.73934
 C207 C 0.52089 0.47695 0.74108
 C208 C 0.50917 0.49763 0.74152
 C209 C 0.48594 0.53839 0.73922
 C210 C 0.50918 0.53822 0.73934
 C211 C 0.52120 0.51813 0.74120
 C212 C 0.54491 0.51784 0.74155
 C213 C 0.55605 0.49729 0.74147
 C214 C 0.54461 0.47690 0.74120
 H215 H 0.47701 0.44133 0.73740
 H216 H 0.51663 0.44104 0.73727
 H217 H 0.47789 0.55439 0.73710
 H218 H 0.51750 0.55410 0.73727
 H219 H 0.42031 0.49830 0.74202
 H220 H 0.57419 0.49714 0.74202
 C221 C 1.01749 0.95010 0.73548
 C222 C 0.99653 0.93941 0.73575
 C223 C 0.97635 0.95104 0.73500
 C224 C 0.97664 0.97462 0.73388
 C225 C 0.99737 0.98622 0.73388
 C226 C 1.01786 0.97396 0.73370
 C227 C 1.03766 0.98591 0.72955
 C228 C 1.03789 1.00907 0.72851
 C229 C 1.01833 1.02175 0.73158
 C230 C 0.99757 1.01014 0.73288
 C231 C 0.95684 0.98679 0.73111
 C232 C 0.95703 1.00991 0.72994
 C233 C 0.97699 1.02221 0.73210
 C234 C 0.97722 1.04604 0.73142
 C235 C 0.99804 1.05686 0.73018
 C236 C 1.01862 1.04557 0.73111
 H237 H 1.05321 0.97775 0.72559
 H238 H 1.05357 1.01662 0.72384
 H239 H 0.94090 0.97860 0.72885
 H240 H 0.94125 1.01765 0.72609
 H241 H 0.99563 0.92139 0.73738
 H242 H 0.99823 1.07495 0.73023
 C243 C 0.51925 0.44977 0.24008
 C244 C 0.49883 0.43838 0.24037
 C245 C 0.47831 0.44958 0.24038
 C246 C 0.47810 0.47327 0.23992
 C247 C 0.49866 0.48522 0.24020
 C248 C 0.51930 0.47345 0.23983
 C249 C 0.53928 0.48569 0.23805
 C250 C 0.53920 0.50891 0.23806
 C251 C 0.51913 0.52099 0.23977
 C252 C 0.49857 0.50903 0.24009
 C253 C 0.45804 0.48533 0.23800
 C254 C 0.45796 0.50854 0.23779
 C255 C 0.47792 0.52080 0.23955
 C256 C 0.47797 0.54448 0.23962
 C257 C 0.49838 0.55587 0.23986
 C258 C 0.51890 0.54467 0.24000
 H259 H 0.55527 0.47757 0.23603
 H260 H 0.55512 0.51717 0.23604
 H261 H 0.44212 0.47706 0.23597
 H262 H 0.44198 0.51665 0.23563
 H263 H 0.49893 0.42026 0.24099
 H264 H 0.49828 0.57399 0.24036
 O265 O 0.24884 0.18938 0.22104
 O266 O 0.27560 0.18520 0.25241
 O267 O 0.19026 0.21595 0.25234
 O268 O 0.18322 0.24312 0.27646
 O269 O 0.21799 0.24809 0.19426
 O270 O 0.24723 0.27324 0.18893
 O271 O 0.24887 0.27775 0.31080
 O272 O 0.22254 0.24827 0.31636
 O273 O 0.30584 0.24945 0.28352
 O274 O 0.31016 0.21998 0.25391
 O275 O 0.27949 0.30476 0.25471
 O276 O 0.24976 0.31055 0.22720
 O277 O 0.25049 0.30467 0.28398
 O278 O 0.22061 0.30851 0.25399
 O279 O 0.30624 0.27764 0.25293
 O280 O 0.31198 0.24960 0.22730
 O281 O 0.27917 0.24773 0.31060
 O282 O 0.24811 0.22191 0.31720
 O283 O 0.24934 0.21668 0.19458
 O284 O 0.27538 0.24859 0.19015
 O285 O 0.19072 0.24740 0.22088
 O286 O 0.18672 0.27454 0.25176
 O287 O 0.21753 0.18923 0.25180
 O288 O 0.24659 0.18287 0.27719
 Zr289 Zr 0.24773 0.20716 0.25149
 O290 O 0.26832 0.22625 0.27272
 Zr291 Zr 0.20824 0.24632 0.25158
 O292 O 0.22738 0.26697 0.27298
 Zr293 Zr 0.24788 0.24688 0.21254
 O294 O 0.26831 0.26744 0.23221
 Zr295 Zr 0.24880 0.24749 0.29270
 O296 O 0.22793 0.22664 0.27314
 Zr297 Zr 0.28807 0.24771 0.25331
 O298 O 0.26932 0.22681 0.23182
 Zr299 Zr 0.24888 0.28704 0.25372
 O300 O 0.22803 0.26807 0.23231
 O301 O 0.22717 0.22599 0.23084
 O302 O 0.26961 0.26833 0.27435
 C303 C 0.24979 0.19610 0.20067
 C304 C 0.19694 0.19546 0.25232
 C305 C 0.19741 0.24842 0.20045
 C306 C 0.25005 0.29825 0.30443
 C307 C 0.29961 0.24897 0.30405
 C308 C 0.29998 0.29817 0.25379
 H309 H 0.27785 0.21620 0.28173
 H310 H 0.27756 0.27687 0.22225
 H311 H 0.21773 0.21652 0.22112
 H312 H 0.21740 0.27625 0.28234
 H313 H 0.21101 0.23768 0.31101
 H314 H 0.18594 0.25489 0.28774
 H315 H 0.30766 0.23818 0.21614
 H316 H 0.27038 0.24371 0.17511
 H317 H 0.25969 0.21077 0.31333
 H318 H 0.23672 0.18886 0.28903
 H319 H 0.25302 0.32552 0.23353
 H320 H 0.23783 0.28524 0.19535
 H321 H 0.27063 0.17007 0.24779
 H322 H 0.32533 0.22563 0.25750
 H323 H 0.17136 0.26942 0.24814
 H324 H 0.22525 0.32330 0.25983
 O325 O 0.74927 0.80527 0.22110
 O326 O 0.72170 0.80994 0.25163
 O327 O 0.80666 0.77839 0.25281
 O328 O 0.81346 0.75097 0.27665
 O329 O 0.77925 0.74683 0.19405
 O330 O 0.74941 0.72130 0.18911
 O331 O 0.74748 0.71752 0.31050
 O332 O 0.77378 0.74670 0.31635
 O333 O 0.69044 0.74685 0.28345
 O334 O 0.68682 0.77563 0.25298
 O335 O 0.71665 0.69044 0.25478
 O336 O 0.74616 0.68447 0.22709
 O337 O 0.74586 0.69018 0.28409
 O338 O 0.77541 0.68612 0.25386
 O339 O 0.69009 0.71774 0.25300
 O340 O 0.68457 0.74542 0.22716
 O341 O 0.71746 0.74808 0.31019
 O342 O 0.74861 0.77311 0.31706
 O343 O 0.74851 0.77840 0.19419
 O344 O 0.72181 0.74700 0.18967
 O345 O 0.80594 0.74710 0.22124
 O346 O 0.80962 0.71971 0.25195
 O347 O 0.77963 0.80534 0.25182
 O348 O 0.75019 0.81192 0.27714
 Zr349 Zr 0.74930 0.78764 0.25140
 O350 O 0.72841 0.76890 0.27249
 Zr351 Zr 0.78841 0.74816 0.25177
 O352 O 0.76899 0.72776 0.27301
 Zr353 Zr 0.74910 0.74806 0.21229
 O354 O 0.72829 0.72774 0.23205
 Zr355 Zr 0.74775 0.74761 0.29247
 O356 O 0.76891 0.76819 0.27314
 Zr357 Zr 0.70849 0.74756 0.25313
 O358 O 0.72763 0.76822 0.23160
 Zr359 Zr 0.74736 0.70787 0.25371
 O360 O 0.76854 0.72664 0.23232
 O361 O 0.76983 0.76861 0.23093
 O362 O 0.72672 0.72684 0.27427
 C363 C 0.74882 0.79891 0.20063
 C364 C 0.80016 0.79894 0.25253
 C365 C 0.79972 0.74650 0.20067
 C366 C 0.74648 0.69694 0.30446
 C367 C 0.69694 0.74760 0.30391
 C368 C 0.69622 0.69716 0.25388
 H369 H 0.71901 0.77916 0.28141
 H370 H 0.71897 0.71838 0.22209
 H371 H 0.77953 0.77798 0.22138
 H372 H 0.77887 0.71843 0.28241
 H373 H 0.78557 0.75700 0.31096
 H374 H 0.81051 0.73928 0.28797
 H375 H 0.68925 0.75631 0.21563
 H376 H 0.72722 0.75137 0.17462
 H377 H 0.73755 0.78465 0.31290
 H378 H 0.76048 0.80623 0.28877
 H379 H 0.74279 0.66951 0.23336
 H380 H 0.75947 0.70970 0.19525
 H381 H 0.72699 0.82502 0.24719
 H382 H 0.67156 0.77032 0.25673
 H383 H 0.82502 0.72464 0.24825
 H384 H 0.77061 0.67133 0.25955
 O385 O 0.74932 0.19021 0.78484
 O386 O 0.72171 0.18567 0.75439
 O387 O 0.80636 0.21762 0.75285
 O388 O 0.81374 0.24523 0.73014
 O389 O 0.77876 0.24898 0.81205
 O390 O 0.74915 0.27353 0.81777
 O391 O 0.74762 0.27836 0.69579
 O392 O 0.77344 0.24897 0.68969
 O393 O 0.69047 0.24974 0.72313
 O394 O 0.68642 0.22053 0.75283
 O395 O 0.71691 0.30517 0.75084
 O396 O 0.74591 0.31139 0.77912
 O397 O 0.74632 0.30562 0.72230
 O398 O 0.77561 0.30950 0.75289
 O399 O 0.68993 0.27832 0.75317
 O400 O 0.68484 0.25040 0.77959
 O401 O 0.71710 0.24849 0.69598
 O402 O 0.74833 0.22251 0.68937
 O403 O 0.74829 0.21700 0.81182
 O404 O 0.72120 0.24852 0.81614
 O405 O 0.80591 0.24848 0.78532
 O406 O 0.80931 0.27630 0.75453
 O407 O 0.77975 0.19023 0.75352
 O408 O 0.74994 0.18402 0.72860
 Zr409 Zr 0.74929 0.20801 0.75461
 O410 O 0.72822 0.22695 0.73376
 Zr411 Zr 0.78829 0.24769 0.75465
 O412 O 0.76895 0.26796 0.73326
 Zr413 Zr 0.74881 0.24742 0.79388
 O414 O 0.72824 0.26811 0.77430
 Zr415 Zr 0.74755 0.24823 0.71373
 O416 O 0.76883 0.22777 0.73308
 Zr417 Zr 0.70841 0.24836 0.75327
 O418 O 0.72748 0.22733 0.77447
 Zr419 Zr 0.74748 0.28784 0.75265
 O420 O 0.76838 0.26903 0.77416
 O421 O 0.76973 0.22697 0.77527
 O422 O 0.72676 0.26899 0.73214
 C423 C 0.74868 0.19651 0.80533
 C424 C 0.80019 0.19700 0.75247
 C425 C 0.79932 0.24934 0.80578
 C426 C 0.74684 0.29892 0.70191
 C427 C 0.69667 0.24944 0.70259
 C428 C 0.69637 0.29878 0.75158
 H429 H 0.71872 0.21682 0.72481
 H430 H 0.71895 0.27753 0.78422
 H431 H 0.77950 0.21755 0.78471
 H432 H 0.77888 0.27728 0.72389
 H433 H 0.78541 0.23900 0.69528
 H434 H 0.81041 0.25641 0.71843
 H435 H 0.68887 0.23856 0.79040
 H436 H 0.72620 0.24344 0.83111
 H437 H 0.73624 0.21176 0.69279
 H438 H 0.75996 0.18995 0.71685
 H439 H 0.74256 0.32629 0.77271
 H440 H 0.75781 0.28596 0.81114
 H441 H 0.72705 0.17056 0.75865
 H442 H 0.67116 0.22618 0.74965
 H443 H 0.82465 0.27159 0.75872
 H444 H 0.77096 0.32429 0.74706
 O445 O 0.24719 0.80623 0.78440
 O446 O 0.27424 0.81051 0.75336
 O447 O 0.18931 0.77917 0.75205
 O448 O 0.18199 0.75170 0.72886
 O449 O 0.21633 0.74802 0.81125
 O450 O 0.24575 0.72195 0.81611
 O451 O 0.24825 0.71783 0.69468
 O452 O 0.22158 0.74716 0.68906
 O453 O 0.30510 0.74732 0.72182
 O454 O 0.30897 0.77582 0.75239
 O455 O 0.27827 0.69109 0.74999
 O456 O 0.24912 0.68532 0.77840
 O457 O 0.24926 0.69090 0.72152
 O458 O 0.21974 0.68691 0.75167
 O459 O 0.30539 0.71785 0.75167
 O460 O 0.31083 0.74544 0.77823
 O461 O 0.27808 0.74856 0.69506
 O462 O 0.24702 0.77353 0.68809
 O463 O 0.24780 0.77893 0.81087
 O464 O 0.27365 0.74721 0.81568
 O465 O 0.18966 0.74853 0.78406
 O466 O 0.18590 0.72064 0.75358
 O467 O 0.21601 0.80645 0.75321
 O468 O 0.24556 0.81273 0.72817
 Zr469 Zr 0.24641 0.78849 0.75393
 O470 O 0.26717 0.76940 0.73283
 Zr471 Zr 0.20723 0.74902 0.75355
 O472 O 0.22640 0.72848 0.73228
 Zr473 Zr 0.24646 0.74871 0.79294
 O474 O 0.26719 0.72825 0.77326
 Zr475 Zr 0.24778 0.74812 0.71275
 O476 O 0.22683 0.76891 0.73216
 Zr477 Zr 0.28709 0.74792 0.75214
 O478 O 0.26801 0.76875 0.77360
 Zr479 Zr 0.24782 0.70863 0.75172
 O480 O 0.22679 0.72742 0.77308
 O481 O 0.22585 0.76952 0.77440
 O482 O 0.26860 0.72733 0.73109
 C483 C 0.24809 0.79951 0.80478
 C484 C 0.19554 0.79977 0.75207
 C485 C 0.19585 0.74801 0.80463
 C486 C 0.24915 0.69731 0.70106
 C487 C 0.29860 0.74807 0.70136
 C488 C 0.29884 0.69739 0.75041
 H489 H 0.27663 0.77959 0.72388
 H490 H 0.27648 0.71879 0.78314
 H491 H 0.21631 0.77910 0.78392
 H492 H 0.21648 0.71914 0.72291
 H493 H 0.20996 0.75768 0.69439
 H494 H 0.18495 0.74010 0.71746
 H495 H 0.30629 0.75645 0.78970
 H496 H 0.26827 0.75162 0.83073
 H497 H 0.25801 0.78513 0.69235
 H498 H 0.23549 0.80689 0.71641
 H499 H 0.25255 0.67036 0.77215
 H500 H 0.23535 0.71058 0.81011
 H501 H 0.26917 0.82566 0.75784
 H502 H 0.32422 0.77036 0.74883
 H503 H 0.17057 0.72560 0.75750
 H504 H 0.22454 0.67206 0.74612
 O505 O 0.24743 0.30457 0.72160
 O506 O 0.21984 0.30847 0.75224
 O507 O 0.30531 0.27840 0.75358
 O508 O 0.31249 0.25079 0.77704
 O509 O 0.27876 0.24675 0.69429
 O510 O 0.24940 0.22087 0.68893
 O511 O 0.24708 0.21588 0.81022
 O512 O 0.27286 0.24558 0.81642
 O513 O 0.18953 0.24517 0.78323
 O514 O 0.18567 0.27360 0.75271
 O515 O 0.21688 0.18879 0.75419
 O516 O 0.24641 0.18362 0.72655
 O517 O 0.24663 0.18869 0.78362
 O518 O 0.27583 0.18564 0.75305
 O519 O 0.18993 0.21575 0.75306
 O520 O 0.18403 0.24321 0.72698
 O521 O 0.21647 0.24581 0.81007
 O522 O 0.24702 0.27131 0.81749
 O523 O 0.24728 0.27788 0.69449
 O524 O 0.22133 0.24593 0.68959
 O525 O 0.30533 0.24784 0.72159
 O526 O 0.30936 0.21985 0.75178
 O527 O 0.27788 0.30494 0.75244
 O528 O 0.24833 0.31078 0.77771
 Zr529 Zr 0.24786 0.28669 0.75179
 O530 O 0.22727 0.26737 0.77266
 Zr531 Zr 0.28761 0.24790 0.75200
 O532 O 0.26850 0.22691 0.77293
 Zr533 Zr 0.24849 0.24740 0.71235
 O534 O 0.22797 0.22656 0.73188
 Zr535 Zr 0.24685 0.24617 0.79251
 O536 O 0.26768 0.26736 0.77346
 Zr537 Zr 0.20778 0.24587 0.75305
 O538 O 0.22661 0.26703 0.73175
 Zr539 Zr 0.24731 0.20678 0.75340
 O540 O 0.26823 0.22616 0.73228
 O541 O 0.26877 0.26821 0.73123
 O542 O 0.22625 0.22520 0.77407
 C543 C 0.24705 0.29835 0.70107
 C544 C 0.29850 0.29885 0.75335
 C545 C 0.29921 0.24711 0.70101
 C546 C 0.24696 0.19531 0.80404
 C547 C 0.19596 0.24555 0.80372
 C548 C 0.19634 0.19525 0.75356
 H549 H 0.21767 0.27740 0.78164
 H550 H 0.21882 0.21713 0.72183
 H551 H 0.27829 0.27789 0.72180
 H552 H 0.27856 0.21769 0.78226
 H553 H 0.28441 0.25623 0.81118
 H554 H 0.30974 0.23887 0.78816
 H555 H 0.18852 0.25420 0.71547
 H556 H 0.22669 0.25060 0.67461
 H557 H 0.23597 0.28283 0.81325
 H558 H 0.25852 0.30506 0.78941
 H559 H 0.24342 0.16852 0.73270
 H560 H 0.25953 0.20933 0.69507
 H561 H 0.22484 0.32367 0.74790
 H562 H 0.17044 0.26805 0.75623
 H563 H 0.32468 0.22514 0.74824
 H564 H 0.27141 0.17067 0.75858
 O565 O 0.74860 0.69050 0.72215
 O566 O 0.77527 0.68633 0.75353
 O567 O 0.68982 0.71646 0.75447
 O568 O 0.68277 0.74371 0.77845
 O569 O 0.71650 0.74950 0.69591
 O570 O 0.74610 0.77422 0.69015
 O571 O 0.74861 0.77877 0.81191
 O572 O 0.72239 0.74909 0.81771
 O573 O 0.80538 0.75065 0.78414
 O574 O 0.80954 0.72130 0.75430
 O575 O 0.77834 0.80595 0.75530
 O576 O 0.74822 0.81155 0.72833
 O577 O 0.74982 0.80564 0.78502
 O578 O 0.71942 0.80924 0.75544
 O579 O 0.80526 0.77901 0.75344
 O580 O 0.81105 0.75104 0.72790
 O581 O 0.77896 0.74911 0.81148
 O582 O 0.74834 0.72299 0.81844
 O583 O 0.74692 0.71771 0.69564
 O584 O 0.77388 0.74901 0.69104
 O585 O 0.68955 0.74776 0.72279
 O586 O 0.68572 0.77505 0.75365
 O587 O 0.71722 0.68990 0.75292
 O588 O 0.74638 0.68381 0.77836
 Zr589 Zr 0.74728 0.70813 0.75267
 O590 O 0.76793 0.72737 0.77369
 Zr591 Zr 0.70747 0.74700 0.75328
 O592 O 0.72672 0.76784 0.77439
 Zr593 Zr 0.74662 0.74784 0.71373
 O594 O 0.76718 0.76850 0.73314
 Zr595 Zr 0.74847 0.74850 0.79386
 O596 O 0.72758 0.72745 0.77456
 Zr597 Zr 0.78732 0.74893 0.75405
 O598 O 0.76848 0.72792 0.73274
 Zr599 Zr 0.74786 0.78800 0.75483
 O600 O 0.72685 0.76889 0.73371
 O601 O 0.72630 0.72683 0.73232
 O602 O 0.76894 0.76946 0.77524
 C603 C 0.74815 0.69717 0.70174
 C604 C 0.69660 0.69602 0.75396
 C605 C 0.69599 0.74931 0.70232
 C606 C 0.74968 0.79925 0.80548
 C607 C 0.79933 0.75032 0.80473
 C608 C 0.79886 0.79951 0.75418
 H609 H 0.77763 0.71739 0.78261
 H610 H 0.77625 0.77795 0.72304
 H611 H 0.71672 0.71736 0.72273
 H612 H 0.71679 0.77707 0.78385
 H613 H 0.71100 0.73823 0.81258
 H614 H 0.68557 0.75550 0.78969
 H615 H 0.80666 0.73971 0.71668
 H616 H 0.76861 0.74422 0.67607
 H617 H 0.75975 0.71179 0.81428
 H618 H 0.73652 0.68975 0.79024
 H619 H 0.75136 0.82655 0.73465
 H620 H 0.73672 0.78623 0.69657
 H621 H 0.77039 0.67117 0.74889
 H622 H 0.82471 0.72698 0.75788
 H623 H 0.67038 0.76980 0.75017
 H624 H 0.72398 0.82403 0.76134
 O625 O 0.24844 0.68949 0.28295
 O626 O 0.22227 0.68404 0.25199
 O627 O 0.30624 0.71641 0.25115
 O628 O 0.31412 0.74390 0.22883
 O629 O 0.27840 0.74835 0.31037
 O630 O 0.24906 0.77256 0.31612
 O631 O 0.24881 0.77775 0.19390
 O632 O 0.27387 0.74774 0.18790
 O633 O 0.19076 0.74945 0.22103
 O634 O 0.18414 0.72286 0.24905
 O635 O 0.21813 0.80518 0.24835
 O636 O 0.24651 0.81086 0.27717
 O637 O 0.24808 0.80504 0.22040
 O638 O 0.27676 0.80833 0.25162
 O639 O 0.19089 0.77869 0.25099
 O640 O 0.18486 0.74961 0.27728
 O641 O 0.21751 0.74840 0.19399
 O642 O 0.24826 0.72191 0.18745
 O643 O 0.24760 0.71628 0.30992
 O644 O 0.22076 0.74824 0.31393
 O645 O 0.30575 0.74707 0.28386
 O646 O 0.30976 0.77494 0.25304
 O647 O 0.27941 0.68928 0.25215
 O648 O 0.24971 0.68401 0.22602
 Zr649 Zr 0.24908 0.70728 0.25270
 O650 O 0.22823 0.72650 0.23187
 Zr651 Zr 0.28842 0.74657 0.25306
 O652 O 0.26948 0.76702 0.23151
 Zr653 Zr 0.24858 0.74670 0.29197
 O654 O 0.22847 0.76781 0.27231
 Zr655 Zr 0.24790 0.74758 0.21187
 O656 O 0.26891 0.72690 0.23133
 Zr657 Zr 0.20862 0.74829 0.25113
 O658 O 0.22721 0.72680 0.27233
 Zr659 Zr 0.24822 0.78723 0.25077
 O660 O 0.26861 0.76810 0.27245
 O661 O 0.26951 0.72603 0.27356
 O662 O 0.22729 0.76873 0.23009
 C663 C 0.24770 0.69579 0.30344
 C664 C 0.29989 0.69587 0.25100
 C665 C 0.29900 0.74835 0.30424
 C666 C 0.24869 0.79834 0.20001
 C667 C 0.19704 0.74936 0.20052
 C668 C 0.19755 0.79904 0.24910
 H669 H 0.21860 0.71648 0.22294
 H670 H 0.21922 0.77735 0.28217
 H671 H 0.27908 0.71652 0.28312
 H672 H 0.27965 0.77616 0.22222
 H673 H 0.28569 0.73768 0.19364
 H674 H 0.31081 0.75484 0.21690
 H675 H 0.18914 0.73794 0.28819
 H676 H 0.22540 0.74277 0.32888
 H677 H 0.23613 0.71124 0.19097
 H678 H 0.26075 0.68952 0.21500
 H679 H 0.24372 0.82584 0.27067
 H680 H 0.25709 0.78529 0.30929
 H681 H 0.22807 0.66903 0.25604
 H682 H 0.18968 0.71032 0.25828
 H683 H 0.32496 0.77010 0.25758
 H684 H 0.27256 0.82319 0.24565
 O685 O 0.74963 0.30498 0.28471
 O686 O 0.77668 0.30936 0.25375
 O687 O 0.69166 0.27859 0.25073
 O688 O 0.68420 0.25097 0.22809
 O689 O 0.71749 0.24653 0.31073
 O690 O 0.74717 0.22069 0.31593
 O691 O 0.75114 0.21698 0.19467
 O692 O 0.72440 0.24639 0.18880
 O693 O 0.80754 0.24649 0.22258
 O694 O 0.81107 0.27457 0.25360
 O695 O 0.77994 0.19000 0.25006
 O696 O 0.75066 0.18426 0.27828
 O697 O 0.75092 0.19002 0.22150
 O698 O 0.72135 0.18616 0.25153
 O699 O 0.80721 0.21660 0.25204
 O700 O 0.81257 0.24377 0.27897
 O701 O 0.78083 0.24777 0.19553
 O702 O 0.74996 0.27269 0.18816
 O703 O 0.74822 0.27767 0.31113
 O704 O 0.77474 0.24643 0.31609
 O705 O 0.69116 0.24821 0.28325
 O706 O 0.68778 0.22001 0.25279
 O707 O 0.71847 0.30567 0.25326
 O708 O 0.74820 0.31192 0.22851
 Zr709 Zr 0.74872 0.28749 0.25411
 O710 O 0.76958 0.26838 0.23317
 Zr711 Zr 0.70923 0.24830 0.25301
 O712 O 0.72856 0.22769 0.23197
 Zr713 Zr 0.74789 0.24760 0.29295
 O714 O 0.76882 0.22714 0.27350
 Zr715 Zr 0.75032 0.24724 0.21279
 O716 O 0.72929 0.26812 0.23199
 Zr717 Zr 0.78911 0.24674 0.25268
 O718 O 0.76989 0.26757 0.27402
 Zr719 Zr 0.74958 0.20769 0.25169
 O720 O 0.72834 0.22652 0.27278
 O721 O 0.72768 0.26860 0.27417
 O722 O 0.77076 0.22631 0.23136
 C723 C 0.74927 0.29823 0.30509
 C724 C 0.69803 0.29913 0.25125
 C725 C 0.69711 0.24711 0.30387
 C726 C 0.75145 0.19645 0.20106
 C727 C 0.80128 0.24739 0.20206
 C728 C 0.80054 0.19620 0.25057
 H729 H 0.77918 0.27857 0.22438
 H730 H 0.77794 0.21759 0.28346
 H731 H 0.71802 0.27821 0.28353
 H732 H 0.71871 0.21844 0.22245
 H733 H 0.71276 0.25695 0.19400
 H734 H 0.68735 0.23946 0.21665
 H735 H 0.80793 0.25460 0.29057
 H736 H 0.76904 0.25064 0.33108
 H737 H 0.76072 0.28437 0.19272
 H738 H 0.73826 0.30618 0.21660
 H739 H 0.75402 0.16931 0.27199
 H740 H 0.73675 0.20937 0.30986
 H741 H 0.77170 0.32450 0.25836
 H742 H 0.82634 0.26913 0.25013
 H743 H 0.67246 0.22498 0.25672
 H744 H 0.72606 0.17128 0.24597
 C745 C 0.26384 0.08765 0.07807
 N746 N 0.27265 0.09509 0.05862
 N747 N 0.27477 0.08146 0.04122
 C748 C 0.26826 0.05969 0.04235
 N749 N 0.25915 0.05242 0.06189
 N750 N 0.25710 0.06603 0.07943
 C751 C 0.26136 0.10316 0.09694
 N752 N 0.25487 0.09597 0.11747
 N753 N 0.25279 0.11040 0.13436
 C754 C 0.25701 0.13250 0.13123
 N755 N 0.26343 0.13960 0.11070
 N756 N 0.26562 0.12521 0.09391
 C757 C 0.25476 0.14873 0.14951
 N758 N 0.25663 0.17089 0.14514
 N759 N 0.25489 0.18587 0.16147
 C760 C 0.25134 0.17928 0.18285
 N761 N 0.24947 0.15708 0.18730
 N762 N 0.25110 0.14206 0.17090
 C763 C 0.74616 0.58755 0.57965
 N764 N 0.75978 0.56940 0.57917
 N765 N 0.75978 0.55573 0.56158
 C766 C 0.74590 0.55949 0.54401
 N767 N 0.73241 0.57773 0.54453
 N768 N 0.73253 0.59147 0.56199
 C769 C 0.74654 0.60328 0.59844
 N770 N 0.73668 0.62357 0.59633
 N771 N 0.73718 0.63821 0.61305
 C772 C 0.74738 0.63303 0.63260
 N773 N 0.75715 0.61266 0.63483
 N774 N 0.75683 0.59806 0.61799
 C775 C 0.74792 0.64948 0.65075
 N776 N 0.75365 0.64354 0.67188
 N777 N 0.75375 0.65868 0.68824
 C778 C 0.74831 0.68031 0.68396
 N779 N 0.74272 0.68620 0.66282
 N780 N 0.74243 0.67107 0.64655
 C781 C 0.76461 0.92038 0.09155
 N782 N 0.77876 0.93736 0.09660
 N783 N 0.78052 0.95500 0.08320
 C784 C 0.76819 0.95641 0.06422
 N785 N 0.75383 0.93949 0.05930
 N786 N 0.75220 0.92171 0.07262
 C787 C 0.76213 0.90155 0.10703
 N788 N 0.75124 0.88257 0.10095
 N789 N 0.74880 0.86578 0.11541
 C790 C 0.75696 0.86754 0.13651
 N791 N 0.76780 0.88653 0.14253
 N792 N 0.77042 0.90317 0.12805
 C793 C 0.75408 0.84954 0.15288
 N794 N 0.75776 0.85375 0.17482
 N795 N 0.75565 0.83762 0.18993
 C796 C 0.74994 0.81659 0.18369
 N797 N 0.74624 0.81229 0.16171
 N798 N 0.74815 0.82854 0.14657
 C799 C 0.25543 0.42111 0.59231
 N800 N 0.26839 0.43895 0.59754
 N801 N 0.26956 0.45649 0.58394
 C802 C 0.25782 0.45695 0.56454
 N803 N 0.24460 0.43917 0.55943
 N804 N 0.24356 0.42149 0.57297
 C805 C 0.25387 0.40219 0.60786
 N806 N 0.24434 0.38251 0.60169
 N807 N 0.24298 0.36557 0.61613
 C808 C 0.25091 0.36782 0.63728
 N809 N 0.26035 0.38751 0.64339
 N810 N 0.26188 0.40433 0.62894
 C811 C 0.24930 0.34955 0.65358
 N812 N 0.25310 0.35378 0.67550
 N813 N 0.25207 0.33745 0.69052
 C814 C 0.24736 0.31619 0.68421
 N815 N 0.24357 0.31187 0.66225
 N816 N 0.24442 0.32830 0.64719
 C817 C 0.76237 0.07511 0.91477
 N818 N 0.77498 0.05720 0.90895
 N819 N 0.77659 0.03963 0.92245
 C820 C 0.76567 0.03922 0.94232
 N821 N 0.75289 0.05711 0.94808
 N822 N 0.75139 0.07481 0.93463
 C823 C 0.76006 0.09388 0.89919
 N824 N 0.75046 0.11346 0.90553
 N825 N 0.74826 0.13021 0.89098
 C826 C 0.75540 0.12783 0.86956
 N827 N 0.76493 0.10825 0.86330
 N828 N 0.76729 0.09163 0.87784
 C829 C 0.75290 0.14585 0.85315
 N830 N 0.75622 0.14147 0.83118
 N831 N 0.75449 0.15762 0.81604
 C832 C 0.74951 0.17883 0.82228
 N833 N 0.74616 0.18329 0.84428
 N834 N 0.74772 0.16704 0.85946
 C835 C 0.25607 0.57399 0.41326
 N836 N 0.26917 0.55620 0.40825
 N837 N 0.27029 0.53873 0.42195
 C838 C 0.25835 0.53831 0.44124
 N839 N 0.24502 0.55606 0.44614
 N840 N 0.24402 0.57366 0.43249
 C841 C 0.25451 0.59277 0.39754
 N842 N 0.24474 0.61241 0.40345
 N843 N 0.24335 0.62920 0.38885
 C844 C 0.25150 0.62684 0.36779
 N845 N 0.26118 0.60719 0.36194
 N846 N 0.26273 0.59052 0.37655
 C847 C 0.24989 0.64495 0.35132
 N848 N 0.25397 0.64060 0.32947
 N849 N 0.25295 0.65680 0.31431
 C850 C 0.24796 0.67806 0.32041
 N851 N 0.24388 0.68250 0.34230
 N852 N 0.24472 0.66619 0.35748
 C853 C 0.25939 0.90816 0.92748
 N854 N 0.25480 0.93029 0.92549
 N855 N 0.25705 0.94394 0.94300
 C856 C 0.26423 0.93616 0.96312
 N857 N 0.26852 0.91389 0.96487
 N858 N 0.26620 0.90024 0.94752
 C859 C 0.25703 0.89265 0.90860
 N860 N 0.25984 0.87042 0.91202
 N861 N 0.25801 0.85602 0.89520
 C862 C 0.25339 0.86327 0.87425
 N863 N 0.25057 0.88553 0.87074
 N864 N 0.25232 0.89999 0.88764
 C865 C 0.25167 0.84701 0.85594
 N866 N 0.24907 0.85364 0.83440
 N867 N 0.24790 0.83858 0.81800
 C868 C 0.24923 0.81637 0.82259
 N869 N 0.25175 0.80982 0.84413
 N870 N 0.25299 0.82484 0.86047
 C871 C 0.74649 0.40815 0.42690
 N872 N 0.73288 0.40421 0.44458
 N873 N 0.73266 0.41802 0.46198
 C874 C 0.74604 0.43635 0.46244
 N875 N 0.75990 0.44015 0.44484
 N876 N 0.75999 0.42641 0.42730
 C877 C 0.74700 0.39234 0.40819
 N878 N 0.75725 0.39756 0.38862
 N879 N 0.75770 0.38289 0.37185
 C880 C 0.74810 0.36244 0.37417
 N881 N 0.73794 0.35726 0.39375
 N882 N 0.73732 0.37196 0.41040
 C883 C 0.74876 0.34594 0.35606
 N884 N 0.74343 0.32432 0.36030
 N885 N 0.74381 0.30916 0.34404
 C886 C 0.74934 0.31508 0.32288
 N887 N 0.75461 0.33674 0.31858
 N888 N 0.75443 0.35190 0.33491
 C889 C 0.08895 0.26209 0.07782
 N890 N 0.06730 0.25543 0.07922
 N891 N 0.05366 0.25753 0.06171
 C892 C 0.06093 0.26662 0.04217
 N893 N 0.08274 0.27302 0.04098
 N894 N 0.09641 0.27085 0.05835
 C895 C 0.10446 0.25963 0.09669
 N896 N 0.12653 0.26387 0.09367
 N897 N 0.14091 0.26173 0.11048
 C898 C 0.13377 0.25538 0.13103
 N899 N 0.11165 0.25117 0.13414
 N900 N 0.09724 0.25320 0.11723
 C901 C 0.14999 0.25320 0.14932
 N902 N 0.14331 0.24956 0.17071
 N903 N 0.15834 0.24798 0.18712
 C904 C 0.18055 0.24990 0.18266
 N905 N 0.18714 0.25345 0.16127
 N906 N 0.17216 0.25512 0.14495
 C907 C 0.58700 0.75811 0.57983
 N908 N 0.56808 0.74556 0.57932
 N909 N 0.55464 0.74608 0.56155
 C910 C 0.55945 0.75940 0.54379
 N911 N 0.57845 0.77181 0.54436
 N912 N 0.59195 0.77118 0.56200
 C913 C 0.60246 0.75712 0.59886
 N914 N 0.62314 0.76623 0.59705
 N915 N 0.63756 0.76508 0.61393
 C916 C 0.63179 0.75493 0.63335
 N917 N 0.61102 0.74592 0.63528
 N918 N 0.59662 0.74692 0.61829
 C919 C 0.64814 0.75344 0.65158
 N920 N 0.64199 0.74718 0.67252
 N921 N 0.65714 0.74596 0.68885
 C922 C 0.67896 0.75078 0.68472
 N923 N 0.68504 0.75694 0.66378
 N924 N 0.66992 0.75834 0.64756
 C925 C 0.07324 0.76172 0.91308
 N926 N 0.07450 0.75533 0.93479
 N927 N 0.05698 0.75794 0.94837
 C928 C 0.03760 0.76731 0.94098
 N929 N 0.03658 0.77348 0.91912
 N930 N 0.05394 0.77079 0.90552
 C931 C 0.09205 0.75865 0.89760
 N932 N 0.08894 0.76222 0.87545
 N933 N 0.10570 0.75965 0.86108
 C934 C 0.12630 0.75351 0.86829
 N935 N 0.12951 0.74993 0.89048
 N936 N 0.11265 0.75239 0.90489
 C937 C 0.14460 0.75115 0.85208
 N938 N 0.16613 0.74824 0.85872
 N939 N 0.18257 0.74696 0.84368
 C940 C 0.17799 0.74842 0.82149
 N941 N 0.15646 0.75116 0.81493
 N942 N 0.14010 0.75254 0.82992
 C943 C 0.57499 0.25709 0.41328
 N944 N 0.57458 0.24515 0.43256
 N945 N 0.55700 0.24636 0.44623
 C946 C 0.53936 0.25982 0.44131
 N947 N 0.53987 0.27167 0.42198
 N948 N 0.55731 0.27034 0.40825
 C949 C 0.59372 0.25524 0.39752
 N950 N 0.59156 0.26344 0.37651
 N951 N 0.60820 0.26161 0.36188
 C952 C 0.62772 0.25166 0.36773
 N953 N 0.62998 0.24354 0.38879
 N954 N 0.61322 0.24521 0.40342
 C955 C 0.64587 0.24982 0.35131
 N956 N 0.66698 0.24426 0.35758
 N957 N 0.68338 0.24323 0.34251
 C958 C 0.67918 0.24752 0.32062
 N959 N 0.65804 0.25290 0.31439
 N960 N 0.64173 0.25411 0.32946
 C961 C 0.92276 0.75586 0.09219
 N962 N 0.92071 0.75222 0.06991
 N963 N 0.93822 0.75499 0.05634
 C964 C 0.95842 0.76179 0.06436
 N965 N 0.96023 0.76511 0.08677
 N966 N 0.94288 0.76226 0.10034
 C967 C 0.90384 0.75304 0.10762
 N968 N 0.90738 0.75469 0.12993
 N969 N 0.89052 0.75268 0.14428
 C970 C 0.86940 0.74902 0.13690
 N971 N 0.86577 0.74732 0.11454
 N972 N 0.88272 0.74925 0.10014
 C973 C 0.85101 0.74748 0.15312
 N974 N 0.82932 0.74612 0.14649
 N975 N 0.81287 0.74554 0.16156
 C976 C 0.81756 0.74624 0.18377
 N977 N 0.83924 0.74746 0.19031
 N978 N 0.85562 0.74809 0.17529
 C979 C 0.42175 0.25716 0.59210
 N980 N 0.42226 0.24520 0.57283
 N981 N 0.43994 0.24636 0.55928
 C982 C 0.45758 0.25979 0.56433
 N983 N 0.45699 0.27164 0.58366
 N984 N 0.43945 0.27035 0.59726
 C985 C 0.40288 0.25540 0.60770
 N986 N 0.40492 0.26359 0.62872
 N987 N 0.38816 0.26182 0.64323
 C988 C 0.36864 0.25197 0.63722
 N989 N 0.36648 0.24387 0.61613
 N990 N 0.38337 0.24547 0.60164
 C991 C 0.35042 0.25012 0.65355
 N992 N 0.32928 0.24469 0.64721
 N993 N 0.31286 0.24359 0.66227
 C994 C 0.31708 0.24768 0.68420
 N995 N 0.33823 0.25293 0.69048
 N996 N 0.35456 0.25421 0.67544
 C997 C 0.90862 0.25901 0.92814
 N998 N 0.90082 0.26557 0.94833
 N999 N 0.91458 0.26760 0.96563
 C1000 C 0.93684 0.26328 0.96369
 N1001 N 0.94448 0.25633 0.94342
 N1002 N 0.93073 0.25436 0.92597
 C1003 C 0.89301 0.25701 0.90928
 N1004 N 0.90025 0.25249 0.88824
 N1005 N 0.88572 0.25105 0.87136
 C1006 C 0.86347 0.25401 0.87499
 N1007 N 0.85632 0.25845 0.89602
 N1008 N 0.87080 0.25996 0.91281
 C1009 C 0.84712 0.25258 0.85672
 N1010 N 0.82496 0.25400 0.86135
 N1011 N 0.80986 0.25292 0.84508
 C1012 C 0.81631 0.25046 0.82349
 N1013 N 0.83850 0.24904 0.81878
 N1014 N 0.85366 0.25005 0.83512
 C1015 C 0.40850 0.75801 0.42623
 N1016 N 0.40368 0.77117 0.44403
 N1017 N 0.41736 0.77197 0.46153
 C1018 C 0.43642 0.75966 0.46198
 N1019 N 0.44113 0.74628 0.44424
 N1020 N 0.42751 0.74559 0.42660
 C1021 C 0.39282 0.75675 0.40741
 N1022 N 0.39858 0.74664 0.38793
 N1023 N 0.38401 0.74541 0.37110
 C1024 C 0.36312 0.75408 0.37327
 N1025 N 0.35741 0.76413 0.39276
 N1026 N 0.37201 0.76552 0.40947
 C1027 C 0.34669 0.75244 0.35513
 N1028 N 0.32485 0.75700 0.35923
 N1029 N 0.30973 0.75556 0.34299
 C1030 C 0.31589 0.74971 0.32198
 N1031 N 0.33777 0.74522 0.31781
 N1032 N 0.35290 0.74647 0.33414
 C1033 C 0.08874 0.07246 0.24074
 N1034 N 0.06674 0.07414 0.24606
 N1035 N 0.05313 0.05664 0.24355
 C1036 C 0.06078 0.03686 0.23534
 N1037 N 0.08293 0.03540 0.23029
 N1038 N 0.09656 0.05274 0.23288
 C1039 C 0.10418 0.09134 0.24353
 N1040 N 0.12643 0.08809 0.24061
 N1041 N 0.14074 0.10495 0.24284
 C1042 C 0.13338 0.12576 0.24797
 N1043 N 0.11109 0.12910 0.25090
 N1044 N 0.09673 0.11215 0.24877
 C1045 C 0.14955 0.14413 0.24992
 N1046 N 0.14282 0.16570 0.25230
 N1047 N 0.15784 0.18217 0.25330
 C1048 C 0.18008 0.17761 0.25206
 N1049 N 0.18670 0.15605 0.24984
 N1050 N 0.17174 0.13965 0.24875
 C1051 C 0.58713 0.57386 0.74463
 N1052 N 0.59219 0.55613 0.73146
 N1053 N 0.57845 0.53870 0.73016
 C1054 C 0.55907 0.53824 0.74197
 N1055 N 0.55412 0.55592 0.75537
 N1056 N 0.56780 0.57349 0.75655
 C1057 C 0.60286 0.59262 0.74639
 N1058 N 0.59691 0.61216 0.75630
 N1059 N 0.61150 0.62896 0.75785
 C1060 C 0.63260 0.62670 0.74974
 N1061 N 0.63851 0.60714 0.73991
 N1062 N 0.62390 0.59047 0.73819
 C1063 C 0.64902 0.64486 0.75148
 N1064 N 0.67090 0.64069 0.74722
 N1065 N 0.68599 0.65699 0.74835
 C1066 C 0.67977 0.67814 0.75362
 N1067 N 0.65786 0.68239 0.75788
 N1068 N 0.64275 0.66600 0.75693
 C1069 C 0.92234 0.08809 0.73756
 N1070 N 0.94175 0.09538 0.72848
 N1071 N 0.95908 0.08165 0.72626
 C1072 C 0.95790 0.05993 0.73292
 N1073 N 0.93841 0.05282 0.74228
 N1074 N 0.92094 0.06652 0.74444
 C1075 C 0.90356 0.10369 0.74017
 N1076 N 0.88304 0.09663 0.74691
 N1077 N 0.86623 0.11114 0.74912
 C1078 C 0.86943 0.13321 0.74480
 N1079 N 0.88995 0.14019 0.73814
 N1080 N 0.90666 0.12572 0.73582
 C1081 C 0.85122 0.14951 0.74718
 N1082 N 0.85566 0.17165 0.74523
 N1083 N 0.83938 0.18668 0.74708
 C1084 C 0.81798 0.18016 0.75083
 N1085 N 0.81347 0.15798 0.75278
 N1086 N 0.82982 0.14291 0.75104
 C1087 C 0.42151 0.58610 0.24081
 N1088 N 0.43929 0.59089 0.22760
 N1089 N 0.45688 0.57730 0.22690
 C1090 C 0.45742 0.55837 0.23938
 N1091 N 0.43969 0.55370 0.25280
 N1092 N 0.42197 0.56722 0.25338
 C1093 C 0.40266 0.60173 0.24201
 N1094 N 0.38320 0.59603 0.25226
 N1095 N 0.36638 0.61061 0.25353
 C1096 C 0.36854 0.63144 0.24476
 N1097 N 0.38799 0.63708 0.23455
 N1098 N 0.40469 0.62248 0.23313
 C1099 C 0.35047 0.64792 0.24650
 N1100 N 0.35468 0.66973 0.24199
 N1101 N 0.33853 0.68493 0.24356
 C1102 C 0.31750 0.67888 0.24951
 N1103 N 0.31320 0.65703 0.25395
 N1104 N 0.32945 0.64181 0.25257
 C1105 C 0.07244 0.90820 0.74200
 N1106 N 0.05228 0.90023 0.73548
 N1107 N 0.03488 0.91387 0.73330
 C1108 C 0.03671 0.93616 0.73741
 N1109 N 0.05694 0.94398 0.74433
 N1110 N 0.07449 0.93035 0.74646
 C1111 C 0.09141 0.89274 0.74413
 N1112 N 0.11241 0.90013 0.74868
 N1113 N 0.12939 0.88573 0.75022
 C1114 C 0.12592 0.86347 0.74733
 N1115 N 0.10492 0.85617 0.74287
 N1116 N 0.08802 0.87051 0.74126
 C1117 C 0.14430 0.84725 0.74883
 N1118 N 0.13980 0.82509 0.74730
 N1119 N 0.15618 0.81009 0.74839
 C1120 C 0.17773 0.81665 0.75099
 N1121 N 0.18231 0.83885 0.75253
 N1122 N 0.16587 0.85390 0.75150
 C1123 C 0.57588 0.40835 0.24126
 N1124 N 0.57529 0.42717 0.25392
 N1125 N 0.55750 0.44061 0.25338
 C1126 C 0.53982 0.43589 0.23991
 N1127 N 0.54046 0.41699 0.22738
 N1128 N 0.55813 0.40351 0.22803
 C1129 C 0.59486 0.39286 0.24235
 N1130 N 0.59309 0.37225 0.23309
 N1131 N 0.60991 0.35777 0.23439
 C1132 C 0.62923 0.36340 0.24486
 N1133 N 0.63112 0.38409 0.25401
 N1134 N 0.61418 0.39855 0.25286
 C1135 C 0.64739 0.34701 0.24653
 N1136 N 0.66824 0.35307 0.25320
 N1137 N 0.68453 0.33790 0.25460
 C1138 C 0.68045 0.31614 0.24958
 N1139 N 0.65959 0.31014 0.24300
 N1140 N 0.64340 0.32529 0.24142
 C1141 C 0.90950 0.92093 0.24088
 N1142 N 0.90401 0.93857 0.22778
 N1143 N 0.91761 0.95608 0.22607
 C1144 C 0.93727 0.95669 0.23739
 N1145 N 0.94265 0.93911 0.25073
 N1146 N 0.92910 0.92146 0.25232
 C1147 C 0.89391 0.90211 0.24306
 N1148 N 0.90016 0.88258 0.25283
 N1149 N 0.88566 0.86573 0.25473
 C1150 C 0.86436 0.86794 0.24713
 N1151 N 0.85818 0.88747 0.23745
 N1152 N 0.87268 0.90419 0.23537
 C1153 C 0.84798 0.84980 0.24927
 N1154 N 0.82603 0.85409 0.24559
 N1155 N 0.81091 0.83786 0.24700
 C1156 C 0.81714 0.81665 0.25198
 N1157 N 0.83913 0.81227 0.25567
 N1158 N 0.85429 0.82861 0.25444
 C1159 C 0.40748 0.42149 0.74473
 N1160 N 0.40236 0.43922 0.73159
 N1161 N 0.41605 0.45669 0.73030
 C1162 C 0.43544 0.45719 0.74209
 N1163 N 0.44044 0.43953 0.75547
 N1164 N 0.42681 0.42191 0.75663
 C1165 C 0.39183 0.40266 0.74643
 N1166 N 0.39790 0.38308 0.75620
 N1167 N 0.38338 0.36620 0.75768
 C1168 C 0.36226 0.36842 0.74962
 N1169 N 0.35624 0.38801 0.73995
 N1170 N 0.37077 0.40476 0.73830
 C1171 C 0.34592 0.35017 0.75127
 N1172 N 0.32401 0.35431 0.74715
 N1173 N 0.30899 0.33795 0.74816
 C1174 C 0.31529 0.31676 0.75318
 N1175 N 0.33724 0.31255 0.75731
 N1176 N 0.35228 0.32900 0.75647
 C1177 C 0.08730 0.26115 0.92584
 N1178 N 0.06541 0.25525 0.92472
 N1179 N 0.05207 0.25781 0.94243
 C1180 C 0.05993 0.26663 0.96188
 N1181 N 0.08193 0.27241 0.96271
 N1182 N 0.09527 0.26977 0.94516
 C1183 C 0.10265 0.25789 0.90696
 N1184 N 0.12489 0.26101 0.91007
 N1185 N 0.13922 0.25815 0.89334
 C1186 C 0.13190 0.25216 0.87277
 N1187 N 0.10961 0.24905 0.86954
 N1188 N 0.09522 0.25179 0.88638
 C1189 C 0.14815 0.24947 0.85456
 N1190 N 0.14158 0.24661 0.83302
 N1191 N 0.15673 0.24507 0.81670
 C1192 C 0.17895 0.24622 0.82141
 N1193 N 0.18541 0.24888 0.84296
 N1194 N 0.17033 0.25051 0.85919
 C1195 C 0.58735 0.75668 0.42604
 N1196 N 0.59243 0.76976 0.44382
 N1197 N 0.57881 0.77083 0.46135
 C1198 C 0.55952 0.75887 0.46186
 N1199 N 0.55455 0.74555 0.44414
 N1200 N 0.56812 0.74460 0.42647
 C1201 C 0.60300 0.75517 0.40717
 N1202 N 0.59706 0.74526 0.38763
 N1203 N 0.61161 0.74389 0.37077
 C1204 C 0.63264 0.75222 0.37296
 N1205 N 0.63851 0.76206 0.39251
 N1206 N 0.62396 0.76359 0.40925
 C1207 C 0.64908 0.75057 0.35479
 N1208 N 0.67094 0.75490 0.35900
 N1209 N 0.68608 0.75371 0.34277
 C1210 C 0.67995 0.74833 0.32163
 N1211 N 0.65805 0.74402 0.31733
 N1212 N 0.64288 0.74502 0.33367
 C1213 C 0.92130 0.76545 0.91378
 N1214 N 0.91999 0.75853 0.93534
 N1215 N 0.93765 0.76033 0.94886
 C1216 C 0.95725 0.76932 0.94154
 N1217 N 0.95827 0.77612 0.91987
 N1218 N 0.94076 0.77427 0.90634
 C1219 C 0.90246 0.76296 0.89823
 N1220 N 0.90553 0.76743 0.87624
 N1221 N 0.88885 0.76506 0.86175
 C1222 C 0.86838 0.75821 0.86868
 N1223 N 0.86520 0.75378 0.89072
 N1224 N 0.88198 0.75605 0.90525
 C1225 C 0.85024 0.75571 0.85233
 N1226 N 0.82888 0.75154 0.85884
 N1227 N 0.81258 0.74970 0.84373
 C1228 C 0.81712 0.75184 0.82158
 N1229 N 0.83849 0.75590 0.81514
 N1230 N 0.85471 0.75784 0.83021
 C1231 C 0.42152 0.25895 0.41369
 N1232 N 0.42193 0.24655 0.43268
 N1233 N 0.43961 0.24723 0.44625
 C1234 C 0.45739 0.26058 0.44149
 N1235 N 0.45691 0.27288 0.42244
 N1236 N 0.43935 0.27208 0.40883
 C1237 C 0.40265 0.25767 0.39805
 N1238 N 0.40467 0.26651 0.37728
 N1239 N 0.38795 0.26507 0.36270
 C1240 C 0.36848 0.25491 0.36837
 N1241 N 0.36634 0.24618 0.38921
 N1242 N 0.38318 0.24746 0.40377
 C1243 C 0.35036 0.25319 0.35191
 N1244 N 0.32935 0.24703 0.35801
 N1245 N 0.31307 0.24571 0.34284
 C1246 C 0.31729 0.25029 0.32101
 N1247 N 0.33830 0.25634 0.31496
 N1248 N 0.35449 0.25784 0.33012
 C1249 C 0.07557 0.76309 0.09084
 N1250 N 0.05783 0.77615 0.09616
 N1251 N 0.04018 0.77734 0.08270
 C1252 C 0.03952 0.76553 0.06335
 N1253 N 0.05724 0.75230 0.05808
 N1254 N 0.07502 0.75122 0.07150
 C1255 C 0.09442 0.76122 0.10644
 N1256 N 0.11382 0.75100 0.10045
 N1257 N 0.13059 0.74911 0.11502
 C1258 C 0.12845 0.75719 0.13613
 N1259 N 0.10907 0.76735 0.14205
 N1260 N 0.09242 0.76940 0.12747
 C1261 C 0.14648 0.75481 0.15260
 N1262 N 0.14225 0.75880 0.17450
 N1263 N 0.15837 0.75683 0.18968
 C1264 C 0.17940 0.75095 0.18354
 N1265 N 0.18371 0.74701 0.16161
 N1266 N 0.16750 0.74880 0.14641
 C1267 C 0.57525 0.25911 0.59232
 N1268 N 0.55739 0.27222 0.59709
 N1269 N 0.53992 0.27300 0.58336
 C1270 C 0.53956 0.26072 0.56429
 N1271 N 0.55739 0.24741 0.55962
 N1272 N 0.57499 0.24674 0.57330
 C1273 C 0.59400 0.25782 0.60812
 N1274 N 0.61356 0.24772 0.60248
 N1275 N 0.63029 0.24644 0.61717
 C1276 C 0.62796 0.25504 0.63805
 N1277 N 0.60840 0.26508 0.64363
 N1278 N 0.59179 0.26652 0.62893
 C1279 C 0.64600 0.25336 0.65461
 N1280 N 0.64174 0.25786 0.67641
 N1281 N 0.65789 0.25643 0.69162
 C1282 C 0.67898 0.25062 0.68561
 N1283 N 0.68331 0.24620 0.66378
 N1284 N 0.66708 0.24744 0.64855
 C1285 C 0.91118 0.26199 0.08092
 N1286 N 0.90570 0.27533 0.06346
 N1287 N 0.91903 0.27686 0.04575
 C1288 C 0.93843 0.26512 0.04474
 N1289 N 0.94387 0.25162 0.06218
 N1290 N 0.93057 0.25020 0.08002
 C1291 C 0.89566 0.25972 0.09978
 N1292 N 0.90177 0.24933 0.11902
 N1293 N 0.88722 0.24712 0.13579
 C1294 C 0.86602 0.25504 0.13377
 N1295 N 0.85998 0.26537 0.11454
 N1296 N 0.87453 0.26774 0.09791
 C1297 C 0.84951 0.25241 0.15174
 N1298 N 0.82759 0.25621 0.14741
 N1299 N 0.81234 0.25428 0.16345
 C1300 C 0.81841 0.24863 0.18453
 N1301 N 0.84038 0.24481 0.18896
 N1302 N 0.85567 0.24657 0.17280
 C1303 C 0.40856 0.75726 0.57963
 N1304 N 0.40359 0.77042 0.56188
 N1305 N 0.41725 0.77144 0.54437
 C1306 C 0.43645 0.75935 0.54386
 N1307 N 0.44132 0.74598 0.56156
 N1308 N 0.42771 0.74507 0.57920
 C1309 C 0.39285 0.75576 0.59843
 N1310 N 0.39868 0.74575 0.61795
 N1311 N 0.38407 0.74436 0.63475
 C1312 C 0.36308 0.75277 0.63251
 N1313 N 0.35730 0.76270 0.61299
 N1314 N 0.37193 0.76425 0.59631
 C1315 C 0.34658 0.75109 0.65061
 N1316 N 0.32474 0.75546 0.64635
 N1317 N 0.30955 0.75425 0.66254
 C1318 C 0.31562 0.74880 0.68367
 N1319 N 0.33749 0.74445 0.68802
 N1320 N 0.35271 0.74547 0.67173
 C1321 C 0.26250 0.08671 0.92620
 N1322 N 0.27115 0.09455 0.94556
 N1323 N 0.27378 0.08110 0.96302
 C1324 C 0.26796 0.05914 0.96207
 N1325 N 0.25911 0.05142 0.94258
 N1326 N 0.25655 0.06485 0.92496
 C1327 C 0.25928 0.10214 0.90737
 N1328 N 0.25315 0.09478 0.88679
 N1329 N 0.25046 0.10921 0.86998
 C1330 C 0.25368 0.13146 0.87325
 N1331 N 0.25971 0.13872 0.89384
 N1332 N 0.26251 0.12435 0.91054
 C1333 C 0.25104 0.14771 0.85505
 N1334 N 0.25218 0.16989 0.85961
 N1335 N 0.25052 0.18493 0.84335
 C1336 C 0.24775 0.17840 0.82183
 N1337 N 0.24652 0.15619 0.81719
 N1338 N 0.24808 0.14110 0.83353
 C1339 C 0.74755 0.58750 0.42670
 N1340 N 0.73391 0.56935 0.42711
 N1341 N 0.73384 0.55567 0.44470
 C1342 C 0.74765 0.55943 0.46233
 N1343 N 0.76116 0.57767 0.46186
 N1344 N 0.76111 0.59142 0.44441
 C1345 C 0.74726 0.60323 0.40791
 N1346 N 0.75715 0.62352 0.41008
 N1347 N 0.75677 0.63815 0.39336
 C1348 C 0.74667 0.63297 0.37375
 N1349 N 0.73687 0.61261 0.37147
 N1350 N 0.73707 0.59802 0.38832
 C1351 C 0.74630 0.64939 0.35556
 N1352 N 0.74065 0.64342 0.33442
 N1353 N 0.74073 0.65851 0.31802
 C1354 C 0.74626 0.68012 0.32228
 N1355 N 0.75176 0.68606 0.34344
 N1356 N 0.75188 0.67096 0.35975
 C1357 C 0.76334 0.07341 0.09303
 N1358 N 0.77095 0.05356 0.10078
 N1359 N 0.77288 0.03609 0.08721
 C1360 C 0.76739 0.03757 0.06520
 N1361 N 0.75940 0.05747 0.05764
 N1362 N 0.75754 0.07508 0.07119
 C1363 C 0.76124 0.09242 0.10838
 N1364 N 0.75581 0.11318 0.10097
 N1365 N 0.75410 0.13022 0.11526
 C1366 C 0.75767 0.12702 0.13744
 N1367 N 0.76304 0.10626 0.14477
 N1368 N 0.76484 0.08932 0.13052
 C1369 C 0.75576 0.14539 0.15358
 N1370 N 0.75714 0.14092 0.17573
 N1371 N 0.75563 0.15726 0.19070
 C1372 C 0.75278 0.17875 0.18412
 N1373 N 0.75141 0.18333 0.16193
 N1374 N 0.75283 0.16690 0.14690
 C1375 C 0.25767 0.57499 0.59174
 N1376 N 0.24515 0.57456 0.57282
 N1377 N 0.24559 0.55678 0.55937
 C1378 C 0.25881 0.53893 0.56417
 N1379 N 0.27120 0.53943 0.58316
 N1380 N 0.27065 0.55708 0.59666
 C1381 C 0.25671 0.59400 0.60725
 N1382 N 0.26568 0.59205 0.62796
 N1383 N 0.26454 0.60889 0.64243
 C1384 C 0.25455 0.62841 0.63670
 N1385 N 0.24569 0.63048 0.61591
 N1386 N 0.24667 0.61353 0.60146
 C1387 C 0.25307 0.64661 0.65311
 N1388 N 0.24710 0.66765 0.64700
 N1389 N 0.24592 0.68395 0.66218
 C1390 C 0.25046 0.67970 0.68401
 N1391 N 0.25634 0.65866 0.69005
 N1392 N 0.25771 0.64246 0.67489
 C1393 C 0.76224 0.92141 0.91433
 N1394 N 0.75031 0.92202 0.93363
 N1395 N 0.75153 0.93974 0.94709
 C1396 C 0.76497 0.95733 0.94192
 N1397 N 0.77675 0.95666 0.92255
 N1398 N 0.77541 0.93907 0.90904
 C1399 C 0.76048 0.90247 0.89888
 N1400 N 0.76887 0.90430 0.87791
 N1401 N 0.76705 0.88749 0.86350
 C1402 C 0.75694 0.86812 0.86953
 N1403 N 0.74866 0.86616 0.89057
 N1404 N 0.75032 0.88309 0.90498
 C1405 C 0.75480 0.84996 0.85321
 N1406 N 0.74879 0.82898 0.85949
 N1407 N 0.74715 0.81267 0.84437
 C1408 C 0.75127 0.81687 0.82245
 N1409 N 0.75717 0.83786 0.81624
 N1410 N 0.75899 0.85406 0.83134
 C1411 C 0.25823 0.42032 0.41404
 N1412 N 0.27130 0.43820 0.40923
 N1413 N 0.27181 0.45584 0.42275
 C1414 C 0.25927 0.45635 0.44165
 N1415 N 0.24597 0.43853 0.44635
 N1416 N 0.24558 0.42076 0.43288
 C1417 C 0.25731 0.40135 0.39849
 N1418 N 0.24713 0.38186 0.40417
 N1419 N 0.24617 0.36494 0.38967
 C1420 C 0.25520 0.36702 0.36895
 N1421 N 0.26534 0.38650 0.36334
 N1422 N 0.26646 0.40330 0.37785
 C1423 C 0.25377 0.34886 0.35249
 N1424 N 0.25863 0.35302 0.33076
 N1425 N 0.25732 0.33686 0.31556
 C1426 C 0.25127 0.31584 0.32151
 N1427 N 0.24649 0.31157 0.34329
 N1428 N 0.24762 0.32784 0.35851
 C1429 C 0.26344 0.90913 0.07972
 N1430 N 0.25177 0.92860 0.07924
 N1431 N 0.25326 0.94224 0.06167
 C1432 C 0.26674 0.93708 0.04411
 N1433 N 0.27840 0.91763 0.04474
 N1434 N 0.27679 0.90394 0.06216
 C1435 C 0.26102 0.89322 0.09824
 N1436 N 0.26878 0.87204 0.09593
 N1437 N 0.26629 0.85721 0.11230
 C1438 C 0.25610 0.86302 0.13169
 N1439 N 0.24844 0.88426 0.13411
 N1440 N 0.25075 0.89908 0.11762
 C1441 C 0.25350 0.84638 0.14953
 N1442 N 0.24782 0.85252 0.17062
 N1443 N 0.24612 0.83724 0.18676
 C1444 C 0.24985 0.81528 0.18231
 N1445 N 0.25533 0.80919 0.16118
 N1446 N 0.25721 0.82445 0.14513
 C1447 C 0.74795 0.40844 0.57976
 N1448 N 0.73422 0.42652 0.57935
 N1449 N 0.73406 0.44017 0.56174
 C1450 C 0.74789 0.43647 0.54410
 N1451 N 0.76148 0.41831 0.54457
 N1452 N 0.76152 0.40458 0.56204
 C1453 C 0.74774 0.39273 0.59856
 N1454 N 0.75770 0.37249 0.59640
 N1455 N 0.75738 0.35787 0.61313
 C1456 C 0.74725 0.36301 0.63274
 N1457 N 0.73739 0.38333 0.63502
 N1458 N 0.73754 0.39792 0.61817
 C1459 C 0.74690 0.34658 0.65091
 N1460 N 0.74124 0.35252 0.67207
 N1461 N 0.74126 0.33740 0.68843
 C1462 C 0.74676 0.31579 0.68414
 N1463 N 0.75228 0.30989 0.66297
 N1464 N 0.75245 0.32501 0.64670
 C1465 C 0.07432 0.08640 0.73790
 N1466 N 0.07543 0.06460 0.74406
 N1467 N 0.05772 0.05124 0.74158
 C1468 C 0.03827 0.05898 0.73263
 N1469 N 0.03744 0.08088 0.72660
 N1470 N 0.05500 0.09425 0.72913
 C1471 C 0.09319 0.10179 0.74110
 N1472 N 0.09008 0.12397 0.73770
 N1473 N 0.10680 0.13834 0.74054
 C1474 C 0.12734 0.13111 0.74679
 N1475 N 0.13057 0.10887 0.75018
 N1476 N 0.11374 0.09445 0.74746
 C1477 C 0.14552 0.14739 0.74950
 N1478 N 0.16707 0.14087 0.75265
 N1479 N 0.18337 0.15604 0.75423
 C1480 C 0.17865 0.17822 0.75283
 N1481 N 0.15710 0.18464 0.74988
 N1482 N 0.14088 0.16953 0.74821
 C1483 C 0.57486 0.58696 0.24327
 N1484 N 0.55723 0.59188 0.22991
 N1485 N 0.53985 0.57809 0.22851
 C1486 C 0.53935 0.55878 0.24041
 N1487 N 0.55693 0.55394 0.25397
 N1488 N 0.57445 0.56769 0.25524
 C1489 C 0.59349 0.60281 0.24521
 N1490 N 0.61296 0.59703 0.25538
 N1491 N 0.62962 0.61176 0.25713
 C1492 C 0.62729 0.63282 0.24897
 N1493 N 0.60781 0.63854 0.23889
 N1494 N 0.59127 0.62381 0.23697
 C1495 C 0.64532 0.64935 0.25091
 N1496 N 0.64106 0.67119 0.24658
 N1497 N 0.65727 0.68636 0.24785
 C1498 C 0.67841 0.68028 0.25334
 N1499 N 0.68274 0.65841 0.25769
 N1500 N 0.66644 0.64322 0.25659
 C1501 C 0.08746 0.91991 0.23446
 N1502 N 0.06892 0.92099 0.24750
 N1503 N 0.05542 0.93869 0.24653
 C1504 C 0.05978 0.95580 0.23224
 N1505 N 0.07837 0.95464 0.21925
 N1506 N 0.09193 0.93705 0.22034
 C1507 C 0.10315 0.90115 0.23625
 N1508 N 0.12379 0.90277 0.22699
 N1509 N 0.13849 0.88621 0.22910
 C1510 C 0.13304 0.86733 0.24039
 N1511 N 0.11231 0.86559 0.24952
 N1512 N 0.09765 0.88226 0.24757
 C1513 C 0.14959 0.84943 0.24290
 N1514 N 0.14354 0.82874 0.25003
 N1515 N 0.15878 0.81259 0.25206
 C1516 C 0.18061 0.81666 0.24725
 N1517 N 0.18661 0.83737 0.24024
 N1518 N 0.17138 0.85342 0.23803
 C1519 C 0.58623 0.42037 0.74218
 N1520 N 0.59102 0.43818 0.72903
 N1521 N 0.57744 0.45578 0.72841
 C1522 C 0.55850 0.45631 0.74090
 N1523 N 0.55380 0.43854 0.75425
 N1524 N 0.56733 0.42082 0.75476
 C1525 C 0.60188 0.40148 0.74327
 N1526 N 0.59628 0.38207 0.75364
 N1527 N 0.61088 0.36524 0.75479
 C1528 C 0.63164 0.36733 0.74577
 N1529 N 0.63717 0.38674 0.73544
 N1530 N 0.62255 0.40344 0.73414
 C1531 C 0.64818 0.34926 0.74739
 N1532 N 0.66992 0.35341 0.74242
 N1533 N 0.68517 0.33730 0.74389
 C1534 C 0.67927 0.31635 0.75022
 N1535 N 0.65749 0.31210 0.75511
 N1536 N 0.64221 0.32831 0.75382
 C1537 C 0.91001 0.07449 0.23779
 N1538 N 0.92955 0.07426 0.24936
 N1539 N 0.94305 0.05654 0.24839
 C1540 C 0.93766 0.03856 0.23559
 N1541 N 0.91809 0.03889 0.22410
 N1542 N 0.90455 0.05648 0.22517
 C1543 C 0.89441 0.09334 0.23947
 N1544 N 0.87335 0.09126 0.23134
 N1545 N 0.85878 0.10795 0.23319
 C1546 C 0.86476 0.12744 0.24312
 N1547 N 0.88589 0.12964 0.25115
 N1548 N 0.90045 0.11283 0.24943
 C1549 C 0.84832 0.14551 0.24530
 N1550 N 0.85456 0.16646 0.25144
 N1551 N 0.83940 0.18272 0.25315
 C1552 C 0.81746 0.17852 0.24898
 N1553 N 0.81128 0.15755 0.24295
 N1554 N 0.82642 0.14139 0.24107
 C1555 C 0.40834 0.57515 0.74182
 N1556 N 0.42724 0.57474 0.75440
 N1557 N 0.44073 0.55699 0.75399
 C1558 C 0.43600 0.53914 0.74076
 N1559 N 0.41704 0.53962 0.72829
 N1560 N 0.40350 0.55724 0.72881
 C1561 C 0.39277 0.59411 0.74277
 N1562 N 0.37207 0.59215 0.73370
 N1563 N 0.35754 0.60895 0.73485
 C1564 C 0.36319 0.62844 0.74496
 N1565 N 0.38396 0.63052 0.75392
 N1566 N 0.39847 0.61361 0.75293
 C1567 C 0.34675 0.64662 0.74643
 N1568 N 0.35285 0.66760 0.75262
 N1569 N 0.33767 0.68391 0.75382
 C1570 C 0.31585 0.67973 0.74906
 N1571 N 0.30981 0.65874 0.74296
 N1572 N 0.32497 0.64254 0.74158
 C1573 C 0.91962 0.90988 0.73909
 N1574 N 0.92040 0.92934 0.75074
 N1575 N 0.93813 0.94279 0.74914
 C1576 C 0.95557 0.93741 0.73558
 N1577 N 0.95466 0.91796 0.72395
 N1578 N 0.93707 0.90447 0.72567
 C1579 C 0.90091 0.89418 0.74158
 N1580 N 0.90293 0.87304 0.73369
 N1581 N 0.88643 0.85836 0.73623
 C1582 C 0.86716 0.86428 0.74662
 N1583 N 0.86500 0.88550 0.75443
 N1584 N 0.88165 0.90018 0.75205
 C1585 C 0.84926 0.84771 0.74932
 N1586 N 0.82819 0.85381 0.75526
 N1587 N 0.81203 0.83851 0.75700
 C1588 C 0.81647 0.81658 0.75306
 N1589 N 0.83757 0.81055 0.74733
 N1590 N 0.85362 0.82582 0.74542
 C1591 C 0.42208 0.40763 0.24360
 N1592 N 0.42255 0.42696 0.25549
 N1593 N 0.44019 0.44056 0.25427
 C1594 C 0.45784 0.43551 0.24086
 N1595 N 0.45729 0.41613 0.22907
 N1596 N 0.43978 0.40248 0.23041
 C1597 C 0.40326 0.39198 0.24541
 N1598 N 0.40533 0.37096 0.23718
 N1599 N 0.38862 0.35640 0.23898
 C1600 C 0.36912 0.36232 0.24891
 N1601 N 0.36693 0.38340 0.25707
 N1602 N 0.38377 0.39796 0.25543
 C1603 C 0.35096 0.34591 0.25078
 N1604 N 0.32984 0.35212 0.25639
 N1605 N 0.31348 0.33698 0.25747
 C1606 C 0.31776 0.31509 0.25317
 N1607 N 0.33890 0.30894 0.24773
 N1608 N 0.35516 0.32405 0.24648
   
