data_POSCAR
  _audit_creation_date              2014-09-24
  _audit_creation_method            'ToBaCCo'
  _symmetry_space_group_name_H-M    'P1'
  _symmetry_Int_Tables_number       1
  _symmetry_cell_setting            triclinic
  loop_
  _symmetry_equiv_pos_as_xyz
 x,y,z
_cell_length_a 34.8851
_cell_length_b 38.5201
_cell_length_c 43.7143
_cell_angle_alpha 90.019800
_cell_angle_beta 89.891200
_cell_angle_gamma 89.995300
loop_
  _atom_site_label
  _atom_site_type_symbol
  _atom_site_fract_x
  _atom_site_fract_y
  _atom_site_fract_z
Zr1 Zr 0.24411 0.25002 0.30670
 O2 O 0.27194 0.26986 0.34602
 O3 O 0.20440 0.21632 0.32795
 O4 O 0.20922 0.28357 0.33382
 O5 O 0.31252 0.18799 0.28837
 O6 O 0.18405 0.32126 0.29892
 O7 O 0.28210 0.21427 0.32832
 O8 O 0.16724 0.19820 0.28816
 O9 O 0.19514 0.25862 0.27996
 O10 O 0.24087 0.20854 0.27584
 O11 O 0.25286 0.29835 0.28505
 O12 O 0.29594 0.25081 0.28148
 Zr13 Zr 0.25126 0.26572 0.19969
 Zr14 Zr 0.20525 0.30530 0.25664
 Zr15 Zr 0.29043 0.21085 0.24920
 Zr16 Zr 0.19336 0.21803 0.24835
 O17 O 0.35115 0.20901 0.24898
 O18 O 0.13468 0.23241 0.24733
 O19 O 0.24279 0.21687 0.22065
 O20 O 0.19974 0.26506 0.22488
 O21 O 0.25505 0.30760 0.23017
 O22 O 0.29984 0.25755 0.22669
 C23 C 0.17584 0.19932 0.31676
 C24 C 0.30732 0.19323 0.31699
 C25 C 0.18918 0.31049 0.32635
 O26 O 0.14477 0.30660 0.25336
 O27 O 0.19065 0.33375 0.21751
 O28 O 0.21995 0.30573 0.17788
 C29 C 0.19849 0.32995 0.18898
 O30 O 0.32831 0.31004 0.30064
 Zr31 Zr 0.30227 0.29792 0.25803
 O32 O 0.29097 0.29880 0.17837
 O33 O 0.21601 0.35875 0.26405
 O34 O 0.29842 0.35247 0.26382
 O35 O 0.36140 0.28515 0.25710
 O36 O 0.32524 0.32088 0.21835
 C37 C 0.31744 0.31817 0.18968
 O38 O 0.21969 0.24667 0.16193
 O39 O 0.27898 0.15713 0.24497
 O40 O 0.28467 0.23206 0.17186
 O41 O 0.30988 0.19403 0.20645
 O42 O 0.19496 0.16312 0.24488
 O43 O 0.17088 0.20217 0.20539
 C44 C 0.30579 0.20585 0.17922
 H45 H 0.23914 0.18574 0.28621
 H46 H 0.17734 0.26865 0.21137
 H47 H 0.32394 0.25658 0.21474
 H48 H 0.25530 0.31729 0.30023
 H49 H 0.11928 0.21105 0.25027
 H50 H 0.13697 0.33114 0.25615
 H51 H 0.19095 0.37088 0.26348
 H52 H 0.32416 0.36234 0.25972
 H53 H 0.16866 0.15439 0.24874
 H54 H 0.30411 0.14515 0.24528
 H55 H 0.35879 0.18451 0.24555
 H56 H 0.37588 0.30699 0.25390
 H57 H 0.14788 0.18757 0.20869
 H58 H 0.23115 0.25697 0.14323
 H59 H 0.26033 0.25828 0.36409
 H60 H 0.34781 0.32840 0.29757
 Zr61 Zr 0.75853 0.75470 0.29856
 O62 O 0.72948 0.73220 0.33624
 O63 O 0.80079 0.78442 0.32068
 O64 O 0.79320 0.71793 0.32231
 O65 O 0.69299 0.82159 0.28939
 O66 O 0.81489 0.68265 0.28415
 O67 O 0.72820 0.79173 0.32473
 O68 O 0.83574 0.80649 0.28106
 O69 O 0.80566 0.74686 0.26967
 O70 O 0.76174 0.79874 0.27053
 O71 O 0.74610 0.70891 0.27429
 O72 O 0.70497 0.75868 0.27601
 Zr73 Zr 0.74495 0.74878 0.19175
 Zr74 Zr 0.79190 0.70273 0.24384
 Zr75 Zr 0.71025 0.80133 0.24637
 Zr76 Zr 0.80741 0.79013 0.24093
 O77 O 0.64979 0.80494 0.24866
 O78 O 0.86530 0.77379 0.23730
 O79 O 0.75638 0.79541 0.21574
 O80 O 0.79773 0.74547 0.21477
 O81 O 0.74053 0.70466 0.21945
 O82 O 0.69796 0.75691 0.22087
 C83 C 0.82853 0.80265 0.30977
 C84 C 0.70333 0.81495 0.31717
 C85 C 0.81189 0.69115 0.31244
 O86 O 0.85200 0.69914 0.23802
 O87 O 0.80332 0.67743 0.20237
 O88 O 0.77434 0.71039 0.16579
 C89 C 0.79504 0.68441 0.17441
 O90 O 0.67092 0.69993 0.29244
 Zr91 Zr 0.69518 0.71406 0.24956
 O92 O 0.70308 0.71826 0.16977
 O93 O 0.77860 0.64932 0.24815
 O94 O 0.69575 0.65907 0.25215
 O95 O 0.63672 0.72913 0.25118
 O96 O 0.66937 0.69486 0.20952
 C97 C 0.67633 0.69890 0.18083
 O98 O 0.77510 0.76995 0.15401
 O99 O 0.72344 0.85492 0.24549
 O100 O 0.71320 0.78642 0.16753
 O101 O 0.69047 0.82287 0.20463
 O102 O 0.80856 0.84518 0.24054
 O103 O 0.82815 0.80845 0.19813
 C104 C 0.69438 0.81343 0.17642
 H105 H 0.76550 0.82051 0.28219
 H106 H 0.81927 0.74235 0.20025
 H107 H 0.67356 0.75974 0.20961
 H108 H 0.74359 0.68884 0.28829
 H109 H 0.88171 0.79434 0.24109
 H110 H 0.85864 0.67415 0.23908
 H111 H 0.80292 0.63627 0.24572
 H112 H 0.66918 0.65085 0.24873
 H113 H 0.83552 0.85251 0.24362
 H114 H 0.69879 0.86743 0.24774
 H115 H 0.64334 0.82998 0.24787
 H116 H 0.62107 0.70808 0.24747
 H117 H 0.85258 0.82105 0.20124
 H118 H 0.76238 0.76156 0.13510
 H119 H 0.74244 0.74043 0.35509
 H120 H 0.64980 0.68318 0.28914
 Zr121 Zr 0.75329 0.23535 -0.29200
 O122 O 0.72009 0.25888 -0.32682
 O123 O 0.79225 0.20527 -0.31765
 O124 O 0.78619 0.26943 -0.31910
 O125 O 0.68658 0.17165 -0.27621
 O126 O 0.81460 0.30577 -0.28462
 O127 O 0.71768 0.19931 -0.31514
 O128 O 0.83268 0.18435 -0.28113
 O129 O 0.80443 0.24192 -0.26760
 O130 O 0.75893 0.19136 -0.26447
 O131 O 0.74683 0.28202 -0.26725
 O132 O 0.70324 0.23408 -0.26473
 Zr133 Zr 0.75524 0.24170 -0.18530
 Zr134 Zr 0.79704 0.28698 -0.24137
 Zr135 Zr 0.71102 0.19121 -0.23588
 Zr136 Zr 0.80861 0.19872 -0.23901
 O137 O 0.65045 0.18956 -0.23284
 O138 O 0.86758 0.21213 -0.23854
 O139 O 0.76113 0.19471 -0.20957
 O140 O 0.80474 0.24387 -0.21273
 O141 O 0.74938 0.28637 -0.21228
 O142 O 0.70420 0.23603 -0.20975
 C143 C 0.82226 0.18847 -0.30907
 C144 C 0.69263 0.17762 -0.30477
 C145 C 0.80746 0.29560 -0.31215
 O146 O 0.85764 0.28811 -0.24145
 O147 O 0.81503 0.31132 -0.20039
 O148 O 0.78788 0.27916 -0.16220
 C149 C 0.80892 0.30427 -0.17192
 O150 O 0.66972 0.29436 -0.27792
 Zr151 Zr 0.69963 0.27922 -0.23775
 O152 O 0.71905 0.27315 -0.15904
 O153 O 0.78601 0.34086 -0.24461
 O154 O 0.70303 0.33408 -0.24074
 O155 O 0.64050 0.26732 -0.23343
 O156 O 0.68167 0.29942 -0.19504
 C157 C 0.69262 0.29438 -0.16722
 O158 O 0.79024 0.21869 -0.15135
 O159 O 0.72196 0.13720 -0.23579
 O160 O 0.72420 0.20632 -0.15785
 O161 O 0.69520 0.17125 -0.19300
 O162 O 0.80815 0.14369 -0.24074
 O163 O 0.83224 0.17873 -0.19784
 C164 C 0.70226 0.18081 -0.16538
 H165 H 0.76033 0.16962 -0.27652
 H166 H 0.82813 0.24616 -0.20011
 H167 H 0.68131 0.23436 -0.19642
 H168 H 0.74325 0.30199 -0.28121
 H169 H 0.88241 0.19083 -0.24323
 H170 H 0.86513 0.31286 -0.24299
 H171 H 0.81125 0.35268 -0.24466
 H172 H 0.67787 0.34354 -0.23429
 H173 H 0.83454 0.13601 -0.24577
 H174 H 0.69665 0.12553 -0.23550
 H175 H 0.64301 0.16480 -0.23119
 H176 H 0.62705 0.28913 -0.22798
 H177 H 0.85493 0.16426 -0.20264
 H178 H 0.78098 0.22710 -0.13119
 H179 H 0.72978 0.25011 -0.34674
 H180 H 0.65062 0.31244 -0.27269
 Zr181 Zr 0.25903 0.74688 -0.31610
 O182 O 0.28729 0.71906 -0.35126
 O183 O 0.22334 0.77939 -0.34177
 O184 O 0.22012 0.71465 -0.33986
 O185 O 0.33966 0.79342 -0.30500
 O186 O 0.18994 0.68372 -0.30216
 O187 O 0.29581 0.78078 -0.34140
 O188 O 0.18960 0.80813 -0.30506
 O189 O 0.20912 0.74646 -0.28916
 O190 O 0.26086 0.79245 -0.29020
 O191 O 0.26121 0.70111 -0.28954
 O192 O 0.31066 0.74408 -0.29123
 Zr193 Zr 0.26450 0.74554 -0.20914
 Zr194 Zr 0.21298 0.70244 -0.26071
 Zr195 Zr 0.31031 0.78859 -0.26369
 Zr196 Zr 0.21222 0.79129 -0.26267
 O197 O 0.37075 0.78858 -0.25848
 O198 O 0.15221 0.78269 -0.26114
 O199 O 0.26190 0.79136 -0.23537
 O200 O 0.21296 0.74758 -0.23409
 O201 O 0.26280 0.69923 -0.23426
 O202 O 0.31375 0.74498 -0.23624
 C203 C 0.19787 0.80155 -0.33329
 C204 C 0.32769 0.79479 -0.33268
 C205 C 0.19624 0.69135 -0.33046
 O206 O 0.15272 0.70727 -0.25754
 O207 O 0.19513 0.68212 -0.21750
 O208 O 0.22997 0.71272 -0.18274
 C209 C 0.20469 0.68973 -0.18962
 O210 O 0.33354 0.67804 -0.30353
 Zr211 Zr 0.31074 0.70034 -0.26289
 O212 O 0.30185 0.71333 -0.18408
 O213 O 0.21717 0.64768 -0.26227
 O214 O 0.30051 0.64610 -0.26124
 O215 O 0.37091 0.70802 -0.26471
 O216 O 0.33287 0.68258 -0.22128
 C217 C 0.32671 0.69087 -0.19325
 O218 O 0.23480 0.77222 -0.17391
 O219 O 0.30627 0.84286 -0.27065
 O220 O 0.29966 0.78064 -0.18502
 O221 O 0.32837 0.81197 -0.22290
 O222 O 0.21958 0.84590 -0.26467
 O223 O 0.19182 0.81507 -0.22188
 C224 C 0.32207 0.80485 -0.19461
 H225 H 0.26144 0.81362 -0.30302
 H226 H 0.19048 0.74831 -0.22025
 H227 H 0.33781 0.74596 -0.22430
 H228 H 0.26118 0.68017 -0.30266
 H229 H 0.13951 0.80476 -0.26685
 H230 H 0.14225 0.68336 -0.25787
 H231 H 0.19073 0.63852 -0.26034
 H232 H 0.32505 0.63459 -0.25603
 H233 H 0.19436 0.85623 -0.26974
 H234 H 0.33227 0.85096 -0.27626
 H235 H 0.37991 0.81270 -0.26154
 H236 H 0.38333 0.68582 -0.25897
 H237 H 0.16965 0.83014 -0.22671
 H238 H 0.24537 0.76427 -0.15403
 H239 H 0.27759 0.72839 -0.37093
 H240 H 0.35163 0.65921 -0.29812
 Zr241 Zr 1.25311 1.26052 0.80124
 O242 O 1.22336 1.24050 0.83966
 O243 O 1.29495 1.29164 0.82219
 O244 O 1.28781 1.22681 0.82768
 O245 O 1.19079 1.32795 0.78623
 O246 O 1.31377 1.19074 0.79183
 O247 O 1.22157 1.29904 0.82458
 O248 O 1.33170 1.30988 0.78203
 O249 O 1.30093 1.25061 0.77359
 O250 O 1.25798 1.30223 0.77079
 O251 O 1.24137 1.21286 0.77977
 O252 O 1.20033 1.26283 0.77765
 Zr253 Zr 1.24196 1.24659 0.69454
 Zr254 Zr 1.28784 1.20470 0.75047
 Zr255 Zr 1.20743 1.30293 0.74572
 Zr256 Zr 1.30408 1.29128 0.74231
 O257 O 1.14693 1.30668 0.74683
 O258 O 1.36179 1.27408 0.74040
 O259 O 1.25381 1.29468 0.71600
 O260 O 1.29425 1.24493 0.71870
 O261 O 1.23711 1.20471 0.72495
 O262 O 1.19468 1.25695 0.72267
 C263 C 1.32357 1.30829 0.81077
 C264 C 1.19918 1.32301 0.81452
 C265 C 1.31003 1.20175 0.81940
 O266 O 1.34773 1.19976 0.74375
 O267 O 1.29916 1.17576 0.71131
 O268 O 1.27278 1.20629 0.67194
 C269 C 1.29294 1.18097 0.68281
 O270 O 1.16572 1.20553 0.79697
 Zr271 Zr 1.19111 1.21623 0.75375
 O272 O 1.20044 1.21447 0.67397
 O273 O 1.27466 1.15213 0.75986
 O274 O 1.19191 1.16157 0.75952
 O275 O 1.13258 1.23115 0.75355
 O276 O 1.16607 1.19392 0.71455
 C277 C 1.17351 1.19588 0.68575
 O278 O 1.27213 1.26454 0.65557
 O279 O 1.22057 1.35645 0.74201
 O280 O 1.20988 1.28289 0.66800
 O281 O 1.19086 1.32296 0.70339
 O282 O 1.30514 1.34619 0.73882
 O283 O 1.32667 1.30647 0.69915
 C284 C 1.19351 1.31172 0.67582
 H285 H 1.26171 1.32483 0.78114
 H286 H 1.31613 1.24067 0.70475
 H287 H 1.17052 1.25926 0.71099
 H288 H 1.23899 1.19399 0.79503
 H289 H 1.37843 1.29461 0.74355
 H290 H 1.35437 1.17505 0.74720
 H291 H 1.29909 1.13905 0.75876
 H292 H 1.16545 1.15297 0.75626
 H293 H 1.33183 1.35384 0.74263
 H294 H 1.19597 1.36930 0.74295
 H295 H 1.14055 1.33157 0.74428
 H296 H 1.11707 1.20978 0.75107
 H297 H 1.35067 1.31973 0.70225
 H298 H 1.25935 1.25445 0.63735
 H299 H 1.23556 1.25038 0.85821
 H300 H 1.14509 1.18813 0.79443
 Zr301 Zr 0.74332 0.75359 0.80822
 O302 O 0.77149 0.77847 0.84516
 O303 O 0.70201 0.72342 0.83139
 O304 O 0.70837 0.78898 0.83161
 O305 O 0.80912 0.68766 0.80019
 O306 O 0.68441 0.82418 0.79429
 O307 O 0.77618 0.71975 0.83533
 O308 O 0.66572 0.70183 0.79242
 O309 O 0.69567 0.76021 0.77971
 O310 O 0.73999 0.70870 0.78159
 O311 O 0.75433 0.79913 0.78309
 O312 O 0.79665 0.74986 0.78563
 Zr313 Zr 0.75665 0.75630 0.70175
 Zr314 Zr 0.70797 0.80403 0.75301
 Zr315 Zr 0.79125 0.70623 0.75734
 Zr316 Zr 0.69424 0.71623 0.75189
 O317 O 0.85181 0.70320 0.75830
 O318 O 0.63621 0.73184 0.74748
 O319 O 0.74526 0.71053 0.72674
 O320 O 0.70359 0.76014 0.72480
 O321 O 0.75960 0.80157 0.72834
 O322 O 0.80355 0.74981 0.73082
 C323 C 0.67352 0.70576 0.82097
 C324 C 0.80066 0.69630 0.82783
 C325 C 0.68830 0.81496 0.82257
 O326 O 0.64775 0.80668 0.74795
 O327 O 0.69466 0.82601 0.70996
 O328 O 0.72904 0.79446 0.67511
 C329 C 0.70547 0.81888 0.68238
 O330 O 0.82914 0.80955 0.80079
 Zr331 Zr 0.80533 0.79391 0.75823
 O332 O 0.79841 0.78580 0.67871
 O333 O 0.72031 0.85771 0.75543
 O334 O 0.80361 0.84893 0.75927
 O335 O 0.86421 0.78033 0.76001
 O336 O 0.83088 0.81199 0.71762
 C337 C 0.82443 0.80630 0.68909
 O338 O 0.72594 0.73411 0.66485
 O339 O 0.77921 0.65239 0.75903
 O340 O 0.78909 0.71769 0.67834
 O341 O 0.80844 0.68180 0.71683
 O342 O 0.69358 0.66120 0.75332
 O343 O 0.67387 0.69607 0.70966
 C344 C 0.80569 0.68995 0.68842
 H345 H 0.73669 0.68734 0.79390
 H346 H 0.68215 0.76234 0.71014
 H347 H 0.82794 0.74661 0.71954
 H348 H 0.75645 0.81956 0.79674
 H349 H 0.61997 0.71134 0.75192
 H350 H 0.64081 0.83161 0.74860
 H351 H 0.69552 0.87001 0.75326
 H352 H 0.83003 0.85745 0.75565
 H353 H 0.66671 0.65383 0.75685
 H354 H 0.80410 0.64024 0.76124
 H355 H 0.85851 0.67821 0.75823
 H356 H 0.87924 0.80172 0.75610
 H357 H 0.64984 0.68298 0.71321
 H358 H 0.73890 0.74149 0.64570
 H359 H 0.75943 0.77033 0.86447
 H360 H 0.84940 0.82708 0.79718
 Zr361 Zr 1.26352 0.74205 0.20828
 O362 O 1.23572 0.77126 0.17372
 O363 O 1.30014 0.70990 0.18255
 O364 O 1.30154 0.77430 0.18384
 O365 O 1.18922 0.68353 0.21722
 O366 O 1.33531 0.80157 0.22138
 O367 O 1.22521 0.71281 0.18198
 O368 O 1.33482 0.68205 0.21930
 O369 O 1.31346 0.74031 0.23454
 O370 O 1.26117 0.69587 0.23344
 O371 O 1.26208 0.78737 0.23494
 O372 O 1.21184 0.74437 0.23348
 Zr373 Zr 1.25952 0.74220 0.31508
 Zr374 Zr 1.31085 0.78402 0.26246
 Zr375 Zr 1.21177 0.69912 0.26025
 Zr376 Zr 1.30949 0.69551 0.26116
 O377 O 1.15146 0.70470 0.26130
 O378 O 1.36978 0.70103 0.26519
 O379 O 1.26020 0.69613 0.28868
 O380 O 1.31040 0.73914 0.28942
 O381 O 1.26174 0.78830 0.28985
 O382 O 1.20969 0.74302 0.28842
 C383 C 1.32730 0.68964 0.19133
 C384 C 1.19814 0.69187 0.18944
 C385 C 1.32756 0.79543 0.19316
 O386 O 1.37110 0.77777 0.26428
 O387 O 1.33197 0.80218 0.30400
 O388 O 1.29644 0.77492 0.34073
 C389 C 1.32332 0.79569 0.33193
 O390 O 1.18849 0.80846 0.22171
 Zr391 Zr 1.21287 0.78799 0.26242
 O392 O 1.22572 0.77605 0.34134
 O393 O 1.30778 0.83887 0.26170
 O394 O 1.22359 0.84218 0.26257
 O395 O 1.15236 0.78280 0.26372
 O396 O 1.19416 0.80746 0.30504
 C397 C 1.20227 0.79995 0.33300
 O398 O 1.28858 0.71419 0.34967
 O399 O 1.21477 0.64432 0.25782
 O400 O 1.22250 0.70874 0.33927
 O401 O 1.19290 0.67700 0.30194
 O402 O 1.30076 0.64133 0.25598
 O403 O 1.32676 0.66998 0.30197
 C404 C 1.19965 0.68454 0.33021
 H405 H 1.26063 0.67503 0.22019
 H406 H 1.33312 0.73765 0.30289
 H407 H 1.18596 0.74298 0.30087
 H408 H 1.26250 0.80847 0.22201
 H409 H 1.38154 0.67840 0.25986
 H410 H 1.38253 0.80133 0.26384
 H411 H 1.33451 0.84753 0.26250
 H412 H 1.19928 0.85395 0.26809
 H413 H 1.32597 0.63086 0.25100
 H414 H 1.18802 0.63577 0.25677
 H415 H 1.14067 0.68092 0.26139
 H416 H 1.14155 0.80581 0.26909
 H417 H 1.34671 0.65252 0.29714
 H418 H 1.27907 0.72295 0.36964
 H419 H 1.24542 0.76307 0.15360
 H420 H 1.17173 0.82838 0.22687
 Zr421 Zr 0.75502 1.24605 0.18573
 O422 O 0.78772 1.22138 0.15110
 O423 O 0.71931 1.27800 0.15981
 O424 O 0.72082 1.21350 0.15799
 O425 O 0.82011 1.31168 0.20158
 O426 O 0.68879 1.18028 0.19287
 O427 O 0.79173 1.28070 0.16319
 O428 O 0.67933 1.30137 0.19570
 O429 O 0.70345 1.24066 0.20976
 O430 O 0.75000 1.29007 0.21363
 O431 O 0.76011 1.19910 0.20962
 O432 O 0.80502 1.24747 0.21277
 Zr433 Zr 0.75296 1.23774 0.29234
 Zr434 Zr 0.70994 1.19544 0.23574
 Zr435 Zr 0.79751 1.29002 0.24241
 Zr436 Zr 0.69996 1.28352 0.23861
 O437 O 0.85801 1.29074 0.24545
 O438 O 0.64115 1.26987 0.23648
 O439 O 0.74719 1.28545 0.26858
 O440 O 0.70343 1.23808 0.26486
 O441 O 0.75799 1.19387 0.26440
 O442 O 0.80378 1.24433 0.26745
 C443 C 0.69108 1.29732 0.16788
 C444 C 0.81453 1.30439 0.17308
 C445 C 0.69633 1.18988 0.16534
 O446 O 0.64927 1.19462 0.23699
 O447 O 0.68979 1.17134 0.27566
 O448 O 0.71926 1.19959 0.31493
 C449 C 0.69581 1.17667 0.30429
 O450 O 0.83551 1.18680 0.19719
 Zr451 Zr 0.80769 1.20161 0.23849
 O452 O 0.79153 1.20639 0.31725
 O453 O 0.72009 1.14158 0.23087
 O454 O 0.80369 1.14674 0.23620
 O455 O 0.86717 1.21264 0.24099
 O456 O 0.82855 1.18209 0.27990
 C457 C 0.81933 1.18697 0.30801
 O458 O 0.71857 1.25931 0.32753
 O459 O 0.78733 1.34416 0.24344
 O460 O 0.78357 1.27278 0.32008
 O461 O 0.81097 1.31049 0.28616
 O462 O 0.70234 1.33851 0.23989
 O463 O 0.67341 1.30264 0.27906
 C464 C 0.80357 1.29992 0.31360
 H465 H 0.74915 1.31211 0.20201
 H466 H 0.67997 1.23607 0.27751
 H467 H 0.82679 1.24612 0.28056
 H468 H 0.76274 1.17921 0.19542
 H469 H 0.62673 1.29103 0.23072
 H470 H 0.64118 1.17018 0.23405
 H471 H 0.69463 1.13020 0.23043
 H472 H 0.82926 1.13717 0.24132
 H473 H 0.67692 1.34732 0.23343
 H474 H 0.81277 1.35559 0.24393
 H475 H 0.86555 1.31542 0.24758
 H476 H 0.88079 1.19037 0.24432
 H477 H 0.65068 1.31668 0.27350
 H478 H 0.72826 1.25018 0.34728
 H479 H 0.77881 1.23056 0.13112
 H480 H 0.85347 1.16747 0.20134
 N481 N 0.54571 1.03680 0.03544
 N482 N 0.57213 1.06001 0.04287
 N483 N 0.51972 0.96447 0.05686
 N484 N 0.52894 0.94539 0.08070
 N485 N 0.54716 0.96365 0.03614
 N486 N 0.57590 0.94391 0.04590
 N487 N 0.51770 1.03708 0.05559
 N488 N 0.52428 1.06017 0.07710
 C489 C 0.55797 1.07465 0.06878
 C490 C 0.56364 0.93219 0.07361
 N491 N 0.41095 0.96073 0.03528
 N492 N 0.38724 0.93471 0.04101
 N493 N 0.43488 1.03557 0.05538
 N494 N 0.42808 1.06139 0.07452
 N495 N 0.40766 1.03361 0.03481
 N496 N 0.38168 1.05800 0.03922
 N497 N 0.43773 0.96244 0.05626
 N498 N 0.43332 0.93764 0.07664
 Mn499 Mn 0.47745 1.00003 0.05620
 C500 C 0.40195 0.92044 0.06682
 C501 C 0.39488 1.07524 0.06400
 N502 N 0.54711 0.96381 -0.03192
 N503 N 0.57593 0.94462 -0.04248
 N504 N 0.51793 1.03711 -0.05095
 N505 N 0.52588 1.05855 -0.07348
 N506 N 0.54589 1.03676 -0.03084
 N507 N 0.57360 1.05820 -0.03935
 N508 N 0.51927 0.96459 -0.05221
 N509 N 0.52814 0.94602 -0.07641
 Mn510 Mn 0.54699 1.00004 0.00223
 C511 C 0.56310 0.93323 -0.07012
 C512 C 0.56027 1.07199 -0.06581
 N513 N 0.40779 1.03394 -0.03034
 N514 N 0.38191 1.05837 -0.03531
 N515 N 0.43773 0.96272 -0.05174
 N516 N 0.43219 0.93926 -0.07313
 N517 N 0.41087 0.96088 -0.03078
 N518 N 0.38600 0.93610 -0.03750
 N519 N 0.43538 1.03568 -0.05068
 N520 N 0.42903 1.06112 -0.07018
 Mn521 Mn 0.40887 0.99708 0.00227
 Mn522 Mn 0.47752 1.00017 -0.05146
 Cl523 Cl 0.47792 0.99919 0.00233
 C524 C 0.39576 1.07522 -0.06020
 C525 C 0.40015 0.92264 -0.06388
 N526 N 0.93962 0.46542 0.55654
 N527 N 0.91908 0.45916 0.58127
 N528 N 1.01258 0.42719 0.53478
 N529 N 1.03463 0.39985 0.53954
 N530 N 1.01895 0.45123 0.55546
 N531 N 1.04570 0.44087 0.57480
 N532 N 0.93378 0.44108 0.53586
 N533 N 0.90961 0.41752 0.54666
 C534 C 0.89996 0.42965 0.57474
 C535 C 1.05531 0.40879 0.56448
 N536 N 1.01832 0.45072 0.44834
 N537 N 1.04470 0.43999 0.42878
 N538 N 0.93349 0.44071 0.46819
 N539 N 0.90921 0.41722 0.45731
 N540 N 0.93907 0.46527 0.44768
 N541 N 0.91824 0.45936 0.42311
 N542 N 1.01215 0.42694 0.46929
 N543 N 1.03384 0.39940 0.46451
 Mn544 Mn 0.97271 0.43386 0.50204
 C545 C 1.05417 0.40798 0.43929
 C546 C 0.89920 0.42975 0.42942
 N547 N 1.03456 0.52524 0.55569
 N548 N 1.05709 0.53129 0.57932
 N549 N 0.96039 0.56277 0.53470
 N550 N 0.93986 0.59079 0.54073
 N551 N 0.95539 0.53914 0.55600
 N552 N 0.93128 0.55052 0.57708
 N553 N 1.03948 0.54923 0.53464
 N554 N 1.06543 0.57208 0.54363
 Mn555 Mn 0.98717 0.49523 0.55606
 C556 C 1.07674 0.56015 0.57129
 C557 C 0.92151 0.58263 0.56708
 N558 N 0.95516 0.53889 0.44766
 N559 N 0.93178 0.55058 0.42627
 N560 N 1.03928 0.54888 0.46819
 N561 N 1.06577 0.57112 0.45884
 N562 N 1.03421 0.52445 0.44757
 N563 N 1.05710 0.52947 0.42394
 N564 N 0.96019 0.56257 0.46889
 N565 N 0.94040 0.59090 0.46256
 Mn566 Mn 0.98673 0.49480 0.44769
 Mn567 Mn 0.99990 0.55602 0.50161
 Cl568 Cl 0.98648 0.49498 0.50186
 C569 C 0.92242 0.58289 0.43608
 C570 C 1.07716 0.55823 0.43145
 N571 N 1.04671 0.54151 0.05282
 N572 N 1.06767 0.54706 0.07720
 N573 N 0.97148 0.57365 0.02740
 N574 N 0.94725 0.59967 0.03157
 N575 N 0.96685 0.54997 0.04872
 N576 N 0.93928 0.55915 0.06779
 N577 N 1.05141 0.56648 0.03259
 N578 N 1.07545 0.59019 0.04360
 C579 C 1.08590 0.57705 0.07132
 C580 C 0.92707 0.59004 0.05673
 N581 N 0.97623 0.54458 -0.05835
 N582 N 0.95176 0.55036 -0.08049
 N583 N 1.05688 0.56408 -0.03556
 N584 N 1.07838 0.58920 -0.04751
 N585 N 1.05577 0.53750 -0.05455
 N586 N 1.07663 0.54381 -0.07904
 N587 N 0.97668 0.57046 -0.03882
 N588 N 0.95210 0.59484 -0.04741
 Mn589 Mn 1.01430 0.56916 -0.00356
 C590 C 0.93671 0.58155 -0.07347
 C591 C 1.09118 0.57570 -0.07442
 N592 N 0.95799 0.47574 0.05101
 N593 N 0.93504 0.46953 0.07433
 N594 N 1.03658 0.44269 0.03435
 N595 N 1.06108 0.41773 0.04089
 N596 N 1.03801 0.46750 0.05486
 N597 N 1.06347 0.45993 0.07619
 N598 N 0.95674 0.45005 0.03122
 N599 N 0.93304 0.42561 0.04103
 Mn600 Mn 1.00238 0.50876 0.05195
 C601 C 0.91909 0.43858 0.06764
 C602 C 1.07782 0.42890 0.06697
 N603 N 1.04687 0.46359 -0.05181
 N604 N 1.07360 0.45403 -0.07132
 N605 N 0.96189 0.44755 -0.03523
 N606 N 0.93656 0.42419 -0.04441
 N607 N 0.96707 0.47115 -0.05649
 N608 N 0.94535 0.46467 -0.08043
 N609 N 1.04180 0.43980 -0.03076
 N610 N 1.06512 0.41325 -0.03537
 Mn611 Mn 1.01155 0.50419 -0.05525
 Mn612 Mn 0.99909 0.44475 -0.00010
 Cl613 Cl 1.00691 0.50684 -0.00171
 C614 C 1.08509 0.42286 -0.06060
 C615 C 0.92600 0.43570 -0.07248
 N616 N 0.57166 1.03486 0.53325
 N617 N 0.60066 1.05546 0.54039
 N618 N 0.53719 0.96446 0.55360
 N619 N 0.54409 0.94448 0.57729
 N620 N 0.56508 0.96212 0.53333
 N621 N 0.59204 0.94066 0.54357
 N622 N 0.54458 1.03687 0.55419
 N623 N 0.55459 1.05863 0.57606
 C624 C 0.58933 1.07042 0.56700
 C625 C 0.57793 0.92933 0.57085
 N626 N 0.42875 0.97300 0.53232
 N627 N 0.40293 0.94814 0.53525
 N628 N 0.46149 1.04345 0.55457
 N629 N 0.45376 1.06602 0.57654
 N630 N 0.43591 1.04585 0.53277
 N631 N 0.41092 1.07059 0.53865
 N632 N 0.45522 0.97041 0.55341
 N633 N 0.44823 0.94359 0.57135
 Mn634 Mn 0.49964 1.00389 0.55416
 C635 C 0.41551 0.92996 0.55970
 C636 C 0.42273 1.08337 0.56573
 N637 N 0.56491 0.96288 0.46513
 N638 N 0.59142 0.94100 0.45472
 N639 N 0.54460 1.03828 0.44590
 N640 N 0.55516 1.05976 0.42394
 N641 N 0.57169 1.03572 0.46670
 N642 N 0.60117 1.05574 0.45942
 N643 N 0.53713 0.96589 0.44492
 N644 N 0.54376 0.94609 0.42098
 Mn645 Mn 0.56879 0.99870 0.49960
 C646 C 0.57726 0.93023 0.42729
 C647 C 0.59017 1.07092 0.43288
 N648 N 0.43566 1.04658 0.46847
 N649 N 0.41066 1.07149 0.46341
 N650 N 0.45494 0.97199 0.44607
 N651 N 0.44730 0.94584 0.42750
 N652 N 0.42863 0.97428 0.46740
 N653 N 0.40223 0.95016 0.46397
 N654 N 0.46146 1.04517 0.44666
 N655 N 0.45417 1.06905 0.42572
 Mn656 Mn 0.43209 1.00990 0.50024
 Mn657 Mn 0.49951 1.00542 0.44563
 Cl658 Cl 0.50033 1.00441 0.49989
 C659 C 0.42275 1.08564 0.43692
 C660 C 0.41428 0.93257 0.43906
 N661 N 1.06577 1.03414 0.53277
 N662 N 1.09260 1.05731 0.53896
 N663 N 1.03567 0.96289 0.55379
 N664 N 1.04257 0.94191 0.57679
 N665 N 1.06307 0.96100 0.53317
 N666 N 1.08962 0.93850 0.54205
 N667 N 1.03820 1.03552 0.55324
 N668 N 1.04571 1.05937 0.57405
 C669 C 1.07947 1.07304 0.56467
 C670 C 1.07588 0.92647 0.56918
 N671 N 0.92761 0.96368 0.53184
 N672 N 0.90179 0.93944 0.53768
 N673 N 0.95534 1.03717 0.55254
 N674 N 0.94851 1.06142 0.57310
 N675 N 0.92814 1.03662 0.53187
 N676 N 0.90210 1.06061 0.53769
 N677 N 0.95399 0.96423 0.55318
 N678 N 0.94710 0.94031 0.57399
 Mn679 Mn 0.99578 1.00013 0.55339
 C680 C 0.91470 0.92486 0.56393
 C681 C 0.91549 1.07608 0.56332
 N682 N 1.06362 0.96147 0.46588
 N683 N 1.08926 0.93767 0.45791
 N684 N 1.03922 1.03633 0.44627
 N685 N 1.04711 1.06059 0.42589
 N686 N 1.06643 1.03457 0.46695
 N687 N 1.09339 1.05783 0.46130
 N688 N 1.03668 0.96364 0.44500
 N689 N 1.04283 0.94144 0.42275
 Mn690 Mn 1.06526 0.99754 0.49968
 C691 C 1.07536 0.92513 0.43104
 C692 C 1.08074 1.07405 0.43573
 N693 N 0.92874 1.03704 0.46670
 N694 N 0.90241 1.06069 0.46082
 N695 N 0.95497 0.96493 0.44460
 N696 N 0.94867 0.94103 0.42362
 N697 N 0.92823 0.96408 0.46573
 N698 N 0.90280 0.93961 0.45959
 N699 N 0.95615 1.03788 0.44612
 N700 N 0.94908 1.06198 0.42549
 Mn701 Mn 0.92776 1.00019 0.49903
 Mn702 Mn 0.99677 1.00089 0.44527
 Cl703 Cl 0.99651 0.99964 0.49934
 C704 C 0.91577 1.07628 0.43523
 C705 C 0.91623 0.92526 0.43334
 N706 N 0.56906 0.53389 0.03134
 N707 N 0.59626 0.55699 0.03670
 N708 N 0.53490 0.46423 0.05261
 N709 N 0.53863 0.44118 0.07450
 N710 N 0.56230 0.46099 0.03216
 N711 N 0.58595 0.43559 0.04014
 N712 N 0.54146 0.53666 0.05166
 N713 N 0.54920 0.56142 0.07151
 C714 C 0.58327 0.57407 0.06178
 C715 C 0.57021 0.42324 0.06649
 N716 N 0.42737 0.46958 0.03076
 N717 N 0.40009 0.44683 0.03697
 N718 N 0.45901 0.54191 0.05097
 N719 N 0.45348 0.56659 0.07134
 N720 N 0.43178 0.54231 0.03033
 N721 N 0.40707 0.56746 0.03592
 N722 N 0.45371 0.46931 0.05212
 N723 N 0.44536 0.44632 0.07334
 Mn724 Mn 0.49731 0.50321 0.05207
 C725 C 0.41213 0.43229 0.06348
 C726 C 0.42132 0.58258 0.06139
 N727 N 0.56291 0.46101 -0.03507
 N728 N 0.58632 0.43515 -0.04230
 N729 N 0.54236 0.53673 -0.05487
 N730 N 0.54971 0.56239 -0.07392
 N731 N 0.56962 0.53393 -0.03433
 N732 N 0.59621 0.55787 -0.03879
 N733 N 0.53610 0.46424 -0.05593
 N734 N 0.54001 0.44070 -0.07741
 Mn735 Mn 0.56661 0.49716 -0.00149
 C736 C 0.57110 0.42253 -0.06867
 C737 C 0.58324 0.57546 -0.06355
 N738 N 0.43244 0.54225 -0.03449
 N739 N 0.40803 0.56764 -0.03982
 N740 N 0.45476 0.46911 -0.05638
 N741 N 0.44747 0.44520 -0.07712
 N742 N 0.42802 0.46946 -0.03525
 N743 N 0.40156 0.44583 -0.04113
 N744 N 0.45981 0.54182 -0.05508
 N745 N 0.45461 0.56675 -0.07525
 Mn746 Mn 0.42945 0.50572 -0.00218
 Mn747 Mn 0.49832 0.50316 -0.05584
 Cl748 Cl 0.49803 0.50222 -0.00186
 C749 C 0.42253 0.58288 -0.06514
 C750 C 0.41440 0.43074 -0.06725
 C751 C 0.33368 1.15273 0.11199
 C752 C 0.37150 1.14398 0.12000
 N753 N 0.38776 1.15849 0.14501
 C754 C 0.36759 1.18062 0.16298
 C755 C 0.32920 1.18833 0.15595
 N756 N 0.31314 1.17456 0.13027
 N757 N 0.31743 1.13747 0.08717
 C758 C 0.33699 1.11344 0.07043
 C759 C 0.37428 1.10373 0.07923
 N760 N 0.39070 1.11965 0.10364
 H761 H 0.38092 1.19106 0.18335
 H762 H 0.32313 1.10128 0.05107
 C763 C 0.85502 0.65274 0.61986
 C764 C 0.86198 0.61863 0.62983
 N765 N 0.84891 0.60827 0.65752
 C766 C 0.82972 0.63055 0.67605
 C767 C 0.82331 0.66509 0.66669
 N768 N 0.83585 0.67530 0.63848
 N769 N 0.86876 0.66295 0.59216
 C770 C 0.88943 0.64077 0.57424
 C771 C 0.89698 0.60682 0.58454
 N772 N 0.88272 0.59665 0.61208
 H773 H 0.81998 0.62139 0.69815
 H774 H 0.90037 0.64974 0.55246
 C775 C 0.62648 0.87526 0.13984
 C776 C 0.63656 0.87297 0.10876
 N777 N 0.66564 0.85149 0.10034
 C778 C 0.68490 0.83219 0.12150
 C779 C 0.67496 0.83461 0.15271
 N780 N 0.64592 0.85633 0.16096
 N781 N 0.59689 0.89586 0.14841
 C782 C 0.57671 0.91422 0.12739
 C783 C 0.58660 0.91234 0.09616
 N784 N 0.61662 0.89174 0.08755
 H785 H 0.70780 0.81522 0.11402
 H786 H 0.55319 0.93035 0.13511
 C787 C 1.13224 0.34234 0.61143
 C788 C 1.13071 0.37811 0.61779
 N789 N 1.15261 0.39142 0.64046
 C790 C 1.17518 0.37056 0.65773
 C791 C 1.17559 0.33443 0.65260
 N792 N 1.15439 0.32114 0.62913
 N793 N 1.10993 0.32927 0.58872
 C794 C 1.08585 0.35019 0.57249
 C795 C 1.08331 0.38577 0.57966
 N796 N 1.10620 0.39880 0.60204
 H797 H 1.19162 0.38195 0.67617
 H798 H 1.06810 0.33897 0.55478
 C799 C 0.62555 1.12991 -0.12891
 C800 C 0.63823 1.12659 -0.09861
 N801 N 0.67192 1.14168 -0.09026
 C802 C 0.69346 1.15974 -0.11095
 C803 C 0.68104 1.16215 -0.14147
 N804 N 0.64728 1.14718 -0.14946
 N805 N 0.59168 1.11587 -0.13745
 C806 C 0.56985 1.09817 -0.11713
 C807 C 0.58271 1.09373 -0.08691
 N808 N 0.61674 1.10818 -0.07823
 H809 H 0.72012 1.17157 -0.10381
 H810 H 0.54308 1.08699 -0.12480
 C811 C 1.14346 0.61397 0.36694
 C812 C 1.13987 0.62603 0.39713
 N813 N 1.15652 0.65657 0.40511
 C814 C 1.17642 0.67570 0.38425
 C815 C 1.17939 0.66405 0.35379
 N816 N 1.16279 0.63328 0.34601
 N817 N 1.12718 0.58333 0.35893
 C818 C 1.10699 0.56434 0.37962
 C819 C 1.10233 0.57672 0.40970
 N820 N 1.11914 0.60734 0.41776
 H821 H 1.18920 0.70002 0.39128
 H822 H 1.09393 0.54022 0.37239
 C823 C 0.34584 0.85105 -0.12250
 C824 C 0.37937 0.86865 -0.13116
 N825 N 0.39394 0.86439 -0.15963
 C826 C 0.37625 0.84354 -0.18019
 C827 C 0.34241 0.82603 -0.17190
 N828 N 0.32811 0.82996 -0.14303
 N829 N 0.33101 0.85631 -0.09406
 C830 C 0.34806 0.87865 -0.07406
 C831 C 0.38142 0.89644 -0.08300
 N832 N 0.39624 0.89069 -0.11129
 H833 H 0.38850 0.84079 -0.20283
 H834 H 0.33551 0.88277 -0.05170
 C835 C 0.84584 0.37283 0.35824
 C836 C 0.84954 0.35820 0.38753
 N837 N 0.83762 0.32506 0.39225
 C838 C 0.82237 0.30589 0.36906
 C839 C 0.81933 0.32024 0.33950
 N840 N 0.83118 0.35355 0.33497
 N841 N 0.85733 0.40599 0.35344
 C842 C 0.87291 0.42509 0.37640
 C843 C 0.87784 0.41035 0.40563
 N844 N 0.86574 0.37711 0.41052
 H845 H 0.81327 0.27952 0.37358
 H846 H 0.88224 0.45133 0.37160
 C847 C 1.15227 0.36678 0.11979
 C848 C 1.13818 0.39847 0.13113
 N849 N 1.14623 0.40805 0.16024
 C850 C 1.16705 0.38708 0.17882
 C851 C 1.18036 0.35483 0.16791
 N852 N 1.17301 0.34566 0.13839
 N853 N 1.14331 0.35688 0.09087
 C854 C 1.12041 0.37695 0.07297
 C855 C 1.10555 0.40828 0.08456
 N856 N 1.11520 0.41841 0.11333
 H857 H 1.17247 0.39521 0.20212
 H858 H 1.11329 0.36818 0.05015
 C859 C 0.63556 0.87307 0.64022
 C860 C 0.65190 0.87539 0.61088
 N861 N 0.68606 0.85947 0.60545
 C862 C 0.70437 0.84133 0.62794
 C863 C 0.68803 0.83933 0.65741
 N864 N 0.65398 0.85543 0.66263
 N865 N 0.60119 0.88800 0.64584
 C866 C 0.58228 0.90539 0.62356
 C867 C 0.59852 0.90851 0.59413
 N868 N 0.63322 0.89334 0.58842
 H869 H 0.73138 0.82872 0.62290
 H870 H 0.55492 0.91708 0.62907
 C871 C 1.14444 0.62964 -0.14787
 C872 C 1.15185 0.63936 -0.11743
 N873 N 1.17701 0.66539 -0.11187
 C874 C 1.19505 0.68219 -0.13518
 C875 C 1.18737 0.67302 -0.16603
 N876 N 1.16194 0.64677 -0.17133
 N877 N 1.12021 0.60291 -0.15347
 C878 C 1.10313 0.58542 -0.13014
 C879 C 1.11001 0.59524 -0.09955
 N880 N 1.13425 0.62225 -0.09394
 H881 H 1.21491 0.70278 -0.12945
 H882 H 1.08396 0.56419 -0.13551
 C883 C 0.66049 1.13274 0.37538
 C884 C 0.62685 1.11700 0.36453
 N885 N 0.61685 1.12064 0.33481
 C886 C 0.63889 1.13933 0.31525
 C887 C 0.67257 1.15559 0.32581
 N888 N 0.68252 1.15199 0.35587
 N889 N 0.67061 1.12817 0.40516
 C890 C 0.64866 1.10856 0.42443
 C891 C 0.61477 1.09310 0.41354
 N892 N 0.60485 1.09788 0.38377
 H893 H 0.62978 1.14179 0.29170
 H894 H 0.65747 1.10518 0.44797
 C895 C 0.84893 0.65296 0.10622
 C896 C 0.85604 0.61838 0.11469
 N897 N 0.84005 0.60550 0.14057
 C898 C 0.81808 0.62583 0.15892
 C899 C 0.81200 0.66091 0.15135
 N900 N 0.82722 0.67359 0.12480
 N901 N 0.86583 0.66581 0.08055
 C902 C 0.88997 0.64587 0.06333
 C903 C 0.89807 0.61161 0.07244
 N904 N 0.88044 0.59873 0.09780
 H905 H 0.80656 0.61501 0.17986
 H906 H 0.90351 0.65696 0.04330
 C907 C 0.34722 1.14672 0.61614
 C908 C 0.36323 1.11651 0.62891
 N909 N 0.35264 1.10630 0.65728
 C910 C 0.32758 1.12540 0.67395
 C911 C 0.31288 1.15674 0.66207
 N912 N 0.32277 1.16647 0.63313
 N913 N 0.35715 1.15609 0.58724
 C914 C 0.38228 1.13661 0.57064
 C915 C 0.39899 1.10698 0.58383
 N916 N 0.38884 1.09758 0.61263
 H917 H 0.32037 1.11678 0.69682
 H918 H 0.38915 1.14409 0.54740
 C919 C 0.86245 0.37714 -0.13644
 C920 C 0.86523 0.36624 -0.10585
 N921 N 0.84869 0.33589 -0.09725
 C922 C 0.82978 0.31579 -0.11787
 C923 C 0.82774 0.32622 -0.14873
 N924 N 0.84410 0.35684 -0.15715
 N925 N 0.87867 0.40759 -0.14505
 C926 C 0.89802 0.42747 -0.12457
 C927 C 0.90187 0.41620 -0.09409
 N928 N 0.88511 0.38581 -0.08543
 H929 H 0.81711 0.29162 -0.11031
 H930 H 0.91105 0.45144 -0.13224
 C931 C 0.35172 0.85294 0.39584
 C932 C 0.39014 0.85966 0.38793
 N933 N 0.40662 0.84218 0.36451
 C934 C 0.38609 0.81912 0.34785
 C935 C 0.34705 0.81372 0.35449
 N936 N 0.33082 0.83032 0.37877
 N937 N 0.33532 0.87096 0.41912
 C938 C 0.35533 0.89584 0.43437
 C939 C 0.39316 0.90359 0.42544
 N940 N 0.40975 0.88493 0.40266
 H941 H 0.39966 0.80628 0.32863
 H942 H 0.34140 0.91020 0.45254
 C943 C 1.14409 1.14721 0.38401
 C944 C 1.10847 1.13479 0.37385
 N945 N 1.09488 1.14488 0.34623
 C946 C 1.11550 1.16647 0.32799
 C947 C 1.15161 1.17856 0.33766
 N948 N 1.16489 1.16881 0.36573
 N949 N 1.15781 1.13645 0.41150
 C950 C 1.13774 1.11356 0.42909
 C951 C 1.10235 1.10067 0.41867
 N952 N 1.08857 1.11191 0.39131
 H953 H 1.10396 1.17371 0.30593
 H954 H 1.14955 1.10513 0.45073
 C955 C 0.64372 0.65276 -0.11227
 C956 C 0.60709 0.64189 -0.12145
 N957 N 0.59178 0.65437 -0.14770
 C958 C 0.61181 0.67663 -0.16571
 C959 C 0.64907 0.68675 -0.15725
 N960 N 0.66397 0.67487 -0.13039
 N961 N 0.65923 0.63943 -0.08630
 C962 C 0.64002 0.61531 -0.06940
 C963 C 0.60381 0.60372 -0.07911
 N964 N 0.58817 0.61768 -0.10479
 H965 H 0.59917 0.68553 -0.18690
 H966 H 0.65325 0.60473 -0.04906
 C967 C 0.85279 1.14464 0.61935
 C968 C 0.88995 1.13385 0.62724
 N969 N 0.90497 1.14302 0.65460
 C970 C 0.88421 1.16190 0.67487
 C971 C 0.84646 1.17182 0.66763
 N972 N 0.83179 1.16336 0.63973
 N973 N 0.83770 1.13464 0.59210
 C974 C 0.85782 1.11375 0.57272
 C975 C 0.89449 1.10207 0.58119
 N976 N 0.90972 1.11283 0.60813
 H977 H 0.89685 1.16842 0.69673
 H978 H 0.84488 1.10555 0.55143
 C979 C 0.35969 0.65024 0.11852
 C980 C 0.39575 0.63724 0.12704
 N981 N 0.40951 0.64337 0.15544
 C982 C 0.38844 0.66131 0.17614
 C983 C 0.35177 0.67345 0.16814
 N984 N 0.33844 0.66812 0.13926
 N985 N 0.34568 0.64303 0.09024
 C986 C 0.36576 0.62269 0.07041
 C987 C 0.40121 0.60876 0.07948
 N988 N 0.41547 0.61685 0.10743
 H989 H 0.40000 0.66548 0.19881
 H990 H 0.35362 0.61656 0.04830
 C991 C 1.13306 0.86288 0.63319
 C992 C 1.14249 0.86061 0.60200
 N993 N 1.16962 0.83750 0.59289
 C994 C 1.18795 0.81686 0.61354
 C995 C 1.17922 0.81979 0.64508
 N996 N 1.15169 0.84283 0.65377
 N997 N 1.10551 0.88522 0.64253
 C998 C 1.08686 0.90556 0.62214
 C999 C 1.09647 0.90396 0.59087
 N1000 N 1.12425 0.88143 0.58144
 H1001 H 1.20958 0.79894 0.60535
 H1002 H 1.06501 0.92318 0.63042
 C1003 C 0.61971 0.35261 0.12867
 C1004 C 0.63771 0.35923 0.10046
 N1005 N 0.67198 0.34410 0.09424
 C1006 C 0.68924 0.32305 0.11507
 C1007 C 0.67176 0.31732 0.14374
 N1008 N 0.63723 0.33221 0.14966
 N1009 N 0.58542 0.36738 0.13501
 C1010 C 0.56849 0.38900 0.11467
 C1011 C 0.58693 0.39682 0.08680
 N1012 N 0.62113 0.38145 0.08020
 H1013 H 0.71684 0.31176 0.10964
 H1014 H 0.54125 0.40065 0.12064
 C1015 C 0.85831 0.85110 0.37921
 C1016 C 0.89299 0.86591 0.36949
 N1017 N 0.90711 0.85811 0.34139
 C1018 C 0.88777 0.83660 0.32223
 C1019 C 0.85250 0.82227 0.33150
 N1020 N 0.83883 0.82966 0.36003
 N1021 N 0.84385 0.85968 0.40710
 C1022 C 0.86229 0.88277 0.42554
 C1023 C 0.89664 0.89815 0.41554
 N1024 N 0.91123 0.88901 0.38779
 H1025 H 0.89945 0.83135 0.29974
 H1026 H 0.84991 0.88949 0.44748
 C1027 C 0.35418 0.35775 -0.12072
 C1028 C 0.38923 0.37168 -0.13060
 N1029 N 0.40312 0.36329 -0.15863
 C1030 C 0.38323 0.34195 -0.17756
 C1031 C 0.34768 0.32842 -0.16808
 N1032 N 0.33420 0.33646 -0.13965
 N1033 N 0.33999 0.36689 -0.09288
 C1034 C 0.35910 0.38970 -0.07463
 C1035 C 0.39387 0.40412 -0.08478
 N1036 N 0.40814 0.39445 -0.11248
 H1037 H 0.39480 0.33611 -0.19998
 H1038 H 0.34698 0.39690 -0.05272
 C1039 C 1.15428 0.35771 -0.11487
 C1040 C 1.14383 0.39114 -0.12455
 N1041 N 1.15315 0.40206 -0.15304
 C1042 C 1.17196 0.38081 -0.17267
 C1043 C 1.18189 0.34704 -0.16343
 N1044 N 1.17324 0.33636 -0.13450
 N1045 N 1.14360 0.34669 -0.08655
 C1046 C 1.12240 0.36742 -0.06775
 C1047 C 1.11136 0.40058 -0.07784
 N1048 N 1.12279 0.41161 -0.10590
 H1049 H 1.17869 0.39010 -0.19543
 H1050 H 1.11358 0.35786 -0.04554
 C1051 C 0.63353 0.87105 0.35854
 C1052 C 0.64938 0.87308 0.38803
 N1053 N 0.68268 0.85600 0.39389
 C1054 C 0.70071 0.83708 0.37171
 C1055 C 0.68502 0.83536 0.34203
 N1056 N 0.65171 0.85258 0.33636
 N1057 N 0.60004 0.88738 0.35253
 C1058 C 0.58159 0.90583 0.37452
 C1059 C 0.59736 0.90859 0.40410
 N1060 N 0.63115 0.89201 0.41018
 H1061 H 0.72716 0.82377 0.37713
 H1062 H 0.55494 0.91859 0.36871
 C1063 C 0.86172 0.63104 -0.13493
 C1064 C 0.86716 0.64505 -0.10557
 N1065 N 0.84870 0.67486 -0.09778
 C1066 C 0.82557 0.69146 -0.11821
 C1067 C 0.82133 0.67790 -0.14792
 N1068 N 0.83943 0.64788 -0.15530
 N1069 N 0.87956 0.60128 -0.14302
 C1070 C 0.90306 0.58485 -0.12318
 C1071 C 0.90963 0.59906 -0.09399
 N1072 N 0.89132 0.62891 -0.08569
 H1073 H 0.81174 0.71550 -0.11166
 H1074 H 0.91705 0.56117 -0.13051
 C1075 C 0.35175 1.15230 0.38567
 C1076 C 0.38397 1.13619 0.37242
 N1077 N 0.39074 1.13967 0.34215
 C1078 C 0.36658 1.15815 0.32430
 C1079 C 0.33372 1.17394 0.33714
 N1080 N 0.32730 1.17094 0.36779
 N1081 N 0.34490 1.14805 0.41601
 C1082 C 0.36837 1.12796 0.43346
 C1083 C 0.40006 1.11122 0.41993
 N1084 N 0.40721 1.11610 0.38974
 H1085 H 0.37311 1.16031 0.30017
 H1086 H 0.36182 1.12442 0.45747
 C1087 C 1.14445 0.62697 0.14378
 C1088 C 1.14067 0.64380 0.11536
 N1089 N 1.15523 0.67625 0.11192
 C1090 C 1.17343 0.69247 0.13547
 C1091 C 1.17683 0.67574 0.16403
 N1092 N 1.16210 0.64332 0.16738
 N1093 N 1.13089 0.59434 0.14725
 C1094 C 1.11331 0.57776 0.12381
 C1095 C 1.10844 0.59463 0.09543
 N1096 N 1.12243 0.62744 0.09183
 H1097 H 1.18502 0.71823 0.13198
 H1098 H 1.10263 0.55174 0.12760
 C1099 C 0.65802 1.13369 0.62422
 C1100 C 0.62311 1.11969 0.63444
 N1101 N 0.61154 1.12521 0.66362
 C1102 C 0.63336 1.14394 0.68327
 C1103 C 0.66850 1.15808 0.67338
 N1104 N 0.67992 1.15276 0.64384
 N1105 N 0.66970 1.12727 0.59504
 C1106 C 0.64815 1.10738 0.57579
 C1107 C 0.61320 1.09336 0.58612
 N1108 N 0.60164 1.10010 0.61525
 H1109 H 0.62321 1.14779 0.70644
 H1110 H 0.65825 1.10244 0.55277
 C1111 C 0.86215 0.37858 0.13455
 C1112 C 0.86878 0.36512 0.10512
 N1113 N 0.85807 0.33210 0.09861
 C1114 C 0.84094 0.31191 0.12016
 C1115 C 0.83463 0.32516 0.14979
 N1116 N 0.84548 0.35830 0.15622
 N1117 N 0.87231 0.41176 0.14093
 C1118 C 0.88926 0.43201 0.11936
 C1119 C 0.89683 0.41839 0.09007
 N1120 N 0.88623 0.38517 0.08365
 H1121 H 0.83249 0.28572 0.11425
 H1122 H 0.89752 0.45824 0.12529
 C1123 C 0.35629 0.84783 0.60321
 C1124 C 0.39206 0.85964 0.61370
 N1125 N 0.40688 0.84680 0.63982
 C1126 C 0.38704 0.82365 0.65682
 C1127 C 0.34995 0.81279 0.64762
 N1128 N 0.33600 0.82446 0.62028
 N1129 N 0.34139 0.86192 0.57729
 C1130 C 0.36027 0.88763 0.56194
 C1131 C 0.39548 0.90008 0.57322
 N1132 N 0.41058 0.88528 0.59861
 H1133 H 0.40002 0.81462 0.67785
 H1134 H 0.34749 0.89881 0.54167
 C1135 C 0.33734 1.15168 -0.11143
 C1136 C 0.37393 1.13988 -0.12001
 N1137 N 0.38983 1.15093 -0.14656
 C1138 C 0.37044 1.17261 -0.16543
 C1139 C 0.33329 1.18367 -0.15757
 N1140 N 0.31769 1.17329 -0.13044
 N1141 N 0.32126 1.13960 -0.08515
 C1142 C 0.33982 1.11587 -0.06740
 C1143 C 0.37596 1.10335 -0.07654
 N1144 N 0.39217 1.11609 -0.10250
 H1145 H 0.38346 1.18033 -0.18688
 H1146 H 0.32612 1.10625 -0.04685
 C1147 C 0.85939 0.65398 0.38190
 C1148 C 0.86754 0.62018 0.37162
 N1149 N 0.85665 0.61028 0.34328
 C1150 C 0.83833 0.63266 0.32444
 C1151 C 0.83042 0.66686 0.33416
 N1152 N 0.84087 0.67668 0.36300
 N1153 N 0.87103 0.66364 0.41033
 C1154 C 0.89066 0.64119 0.42868
 C1155 C 0.89915 0.60749 0.41813
 N1156 N 0.88708 0.59792 0.38984
 H1157 H 0.83010 0.62368 0.30193
 H1158 H 0.89993 0.64970 0.45107
 C1159 C 0.61855 1.14038 0.12879
 C1160 C 0.63314 1.13386 0.09940
 N1161 N 0.66763 1.14764 0.09130
 C1162 C 0.68833 1.16714 0.11145
 C1163 C 0.67424 1.17236 0.14128
 N1164 N 0.63952 1.15896 0.14894
 N1165 N 0.58412 1.12726 0.13713
 C1166 C 0.56365 1.10728 0.11759
 C1167 C 0.57859 1.09937 0.08850
 N1168 N 0.61304 1.11312 0.07991
 H1169 H 0.71595 1.17739 0.10465
 H1170 H 0.53641 1.09688 0.12515
 C1171 C 1.14063 0.61961 0.63452
 C1172 C 1.13669 0.63075 0.60413
 N1173 N 1.15241 0.66152 0.59549
 C1174 C 1.17182 0.68167 0.61588
 C1175 C 1.17526 0.67080 0.64649
 N1176 N 1.15951 0.63988 0.65492
 N1177 N 1.12541 0.58875 0.64321
 C1178 C 1.10597 0.56859 0.62299
 C1179 C 1.10108 0.57994 0.59266
 N1180 N 1.11677 0.61084 0.58394
 H1181 H 1.18407 0.70603 0.60834
 H1182 H 1.09375 0.54431 0.63074
 C1183 C 0.62298 0.87769 -0.13884
 C1184 C 0.63323 0.87377 -0.10790
 N1185 N 0.66121 0.85088 -0.10037
 C1186 C 0.67925 0.83173 -0.12224
 C1187 C 0.66909 0.83563 -0.15330
 N1188 N 0.64119 0.85879 -0.16074
 N1189 N 0.59449 0.89991 -0.14645
 C1190 C 0.57553 0.91818 -0.12462
 C1191 C 0.58552 0.91441 -0.09356
 N1192 N 0.61446 0.89232 -0.08591
 H1193 H 0.70146 0.81373 -0.11539
 H1194 H 0.55276 0.93557 -0.13153
 C1195 C 1.12899 0.34071 0.39145
 C1196 C 1.12855 0.37666 0.38568
 N1197 N 1.15073 0.38996 0.36317
 C1198 C 1.17255 0.36892 0.34545
 C1199 C 1.17176 0.33273 0.34996
 N1200 N 1.15036 0.31935 0.37328
 N1201 N 1.10639 0.32773 0.41406
 C1202 C 1.08299 0.34892 0.43069
 C1203 C 1.08150 0.38464 0.42398
 N1204 N 1.10469 0.39758 0.40178
 H1205 H 1.18933 0.38026 0.32714
 H1206 H 1.06490 0.33782 0.44829
 C1207 C 0.35069 0.84380 0.12221
 C1208 C 0.38555 0.85944 0.13028
 N1209 N 0.40195 0.85208 0.15758
 C1210 C 0.38463 0.83026 0.17765
 C1211 C 0.34914 0.81523 0.17016
 N1212 N 0.33320 0.82203 0.14233
 N1213 N 0.33397 0.85213 0.09510
 C1214 C 0.35029 0.87586 0.07597
 C1215 C 0.38469 0.89214 0.08452
 N1216 N 0.40156 0.88313 0.11136
 H1217 H 0.39807 0.82534 0.19953
 H1218 H 0.33612 0.88253 0.05477
 C1219 C 0.84911 0.36977 0.64498
 C1220 C 0.85276 0.35614 0.61532
 N1221 N 0.84160 0.32293 0.60983
 C1222 C 0.82699 0.30276 0.63265
 C1223 C 0.82386 0.31621 0.66252
 N1224 N 0.83504 0.34954 0.66781
 N1225 N 0.85982 0.40300 0.65055
 C1226 C 0.87459 0.42315 0.62792
 C1227 C 0.87936 0.40943 0.59831
 N1228 N 0.86808 0.37612 0.59269
 H1229 H 0.81823 0.27643 0.62756
 H1230 H 0.88340 0.44940 0.63325
 C1231 C 1.14182 1.14528 0.61781
 C1232 C 1.10709 1.13121 0.62833
 N1233 N 1.09411 1.13946 0.65665
 C1234 C 1.11448 1.16085 0.67521
 C1235 C 1.14960 1.17474 0.66505
 N1236 N 1.16227 1.16675 0.63635
 N1237 N 1.15506 1.13631 0.58964
 C1238 C 1.13531 1.11365 0.57164
 C1239 C 1.10074 1.09926 0.58232
 N1240 N 1.08744 1.10867 0.61041
 H1241 H 1.10346 1.16667 0.69780
 H1242 H 1.14669 1.10668 0.54943
 C1243 C 0.64547 0.64780 0.11316
 C1244 C 0.60950 0.63571 0.12293
 N1245 N 0.59526 0.64604 0.15031
 C1246 C 0.61565 0.66748 0.16876
 C1247 C 0.65210 0.67912 0.15951
 N1248 N 0.66600 0.66925 0.13164
 N1249 N 0.65992 0.63659 0.08600
 C1250 C 0.64023 0.61352 0.06838
 C1251 C 0.60454 0.60095 0.07848
 N1252 N 0.59002 0.61270 0.10545
 H1253 H 0.60375 0.67486 0.19071
 H1254 H 0.65258 0.60466 0.04703
 C1255 C 1.13095 0.85742 0.36939
 C1256 C 1.14578 0.86194 0.39898
 N1257 N 1.17847 0.84498 0.40696
 C1258 C 1.19703 0.82402 0.38659
 C1259 C 1.18257 0.82034 0.35671
 N1260 N 1.14976 0.83716 0.34905
 N1261 N 1.09820 0.87368 0.36119
 C1262 C 1.07961 0.89469 0.38111
 C1263 C 1.09468 0.90026 0.41057
 N1264 N 1.12753 0.88356 0.41895
 H1265 H 1.22320 0.81109 0.39340
 H1266 H 1.05362 0.90746 0.37366
 C1267 C 0.62114 0.35015 -0.12896
 C1268 C 0.63893 0.35759 -0.10089
 N1269 N 0.67329 0.34277 -0.09435
 C1270 C 0.69079 0.32124 -0.11478
 C1271 C 0.67348 0.31480 -0.14331
 N1272 N 0.63891 0.32935 -0.14950
 N1273 N 0.58682 0.36456 -0.13568
 C1274 C 0.56965 0.38669 -0.11586
 C1275 C 0.58791 0.39541 -0.08820
 N1276 N 0.62212 0.38035 -0.08117
 H1277 H 0.71844 0.31018 -0.10920
 H1278 H 0.54241 0.39806 -0.12213
 C1279 C 0.85133 1.14335 0.37930
 C1280 C 0.88783 1.13156 0.37044
 N1281 N 0.90167 1.13941 0.34237
 C1282 C 0.88041 1.15803 0.32237
 C1283 C 0.84339 1.16921 0.33068
 N1284 N 0.82984 1.16199 0.35924
 N1285 N 0.83743 1.13463 0.40732
 C1286 C 0.85813 1.11415 0.42658
 C1287 C 0.89421 1.10167 0.41725
 N1288 N 0.90822 1.11107 0.38950
 H1289 H 0.89225 1.16367 0.30001
 H1290 H 0.84615 1.10699 0.44855
 C1291 C 0.36037 0.65101 -0.12111
 C1292 C 0.39573 0.63710 -0.13054
 N1293 N 0.40847 0.64251 -0.15937
 C1294 C 0.38706 0.66064 -0.17960
 C1295 C 0.35111 0.67380 -0.17065
 N1296 N 0.33879 0.66917 -0.14137
 N1297 N 0.34737 0.64450 -0.09238
 C1298 C 0.36775 0.62402 -0.07296
 C1299 C 0.40246 0.60924 -0.08290
 N1300 N 0.41576 0.61662 -0.11131
 H1301 H 0.39788 0.66433 -0.20259
 H1302 H 0.35637 0.61844 -0.05043
 C1303 C 0.85483 0.85285 0.61881
 C1304 C 0.88981 0.86725 0.62828
 N1305 N 0.90366 0.85996 0.65648
 C1306 C 0.88378 0.83934 0.67602
 C1307 C 0.84827 0.82540 0.66702
 N1308 N 0.83481 0.83222 0.63837
 N1309 N 0.84071 0.86105 0.59076
 C1310 C 0.85978 0.88338 0.57195
 C1311 C 0.89442 0.89831 0.58176
 N1312 N 0.90863 0.88953 0.60963
 H1313 H 0.89533 0.83438 0.69857
 H1314 H 0.84768 0.88991 0.54991
 C1315 C 0.34879 0.36454 0.11971
 C1316 C 0.38337 0.37936 0.12956
 N1317 N 0.39609 0.37344 0.15834
 C1318 C 0.37559 0.35351 0.17799
 C1319 C 0.34074 0.33875 0.16841
 N1320 N 0.32827 0.34445 0.13930
 N1321 N 0.33587 0.37129 0.09099
 C1322 C 0.35589 0.39249 0.07182
 C1323 C 0.39032 0.40750 0.08190
 N1324 N 0.40321 0.40031 0.11050
 H1325 H 0.38644 0.34934 0.20088
 H1326 H 0.34486 0.39783 0.04918
   
