data_POSCAR
  _audit_creation_date              2014-09-24
  _audit_creation_method            'ToBaCCo'
  _symmetry_space_group_name_H-M    'P1'
  _symmetry_Int_Tables_number       1
  _symmetry_cell_setting            triclinic
  loop_
  _symmetry_equiv_pos_as_xyz
 x,y,z
_cell_length_a 84.1265
_cell_length_b 82.1427
_cell_length_c 86.3100
_cell_angle_alpha 90.066800
_cell_angle_beta 90.101700
_cell_angle_gamma 89.801000
loop_
  _atom_site_label
  _atom_site_type_symbol
  _atom_site_fract_x
  _atom_site_fract_y
  _atom_site_fract_z
N1 N 0.36062 0.31438 0.32697
 N2 N 0.35917 0.32547 0.31609
 C3 C 0.37127 0.32383 0.30598
 C4 C 0.38078 0.31099 0.31082
 C5 C 0.37364 0.30531 0.32416
 H6 H 0.37304 0.33142 0.29592
 H7 H 0.37769 0.29532 0.33132
 Cu8 Cu 0.34169 0.34107 0.31632
 Cu9 Cu 0.34566 0.31256 0.34401
 Cu10 Cu 0.31482 0.34058 0.34528
 N11 N 0.32462 0.35704 0.31753
 N12 N 0.31420 0.35685 0.32886
 C13 C 0.30394 0.36933 0.32698
 C14 C 0.30818 0.37779 0.31375
 C15 C 0.32134 0.36964 0.30807
 H16 H 0.29421 0.37204 0.33473
 H17 H 0.32808 0.37279 0.29785
 N18 N 0.31752 0.32316 0.36081
 N19 N 0.32937 0.31260 0.36034
 C20 C 0.32819 0.30243 0.37249
 C21 C 0.31495 0.30676 0.38106
 C22 C 0.30844 0.31992 0.37329
 H23 H 0.33636 0.29258 0.37488
 H24 H 0.29793 0.32668 0.37660
 H25 H 0.32632 0.32275 0.33270
 H26 H 0.33908 0.33691 0.34417
 N27 N 0.36029 0.81604 -0.17468
 N28 N 0.35920 0.82721 -0.18554
 C29 C 0.37105 0.82503 -0.19581
 C30 C 0.38013 0.81179 -0.19113
 C31 C 0.37291 0.80640 -0.17766
 H32 H 0.37291 0.83257 -0.20588
 H33 H 0.37659 0.79621 -0.17056
 Cu34 Cu 0.34246 0.84360 -0.18520
 Cu35 Cu 0.34527 0.81486 -0.15751
 Cu36 Cu 0.31498 0.84359 -0.15708
 N37 N 0.32525 0.85952 -0.18491
 N38 N 0.31454 0.85937 -0.17385
 C39 C 0.30412 0.87158 -0.17616
 C40 C 0.30854 0.87994 -0.18941
 C41 C 0.32200 0.87190 -0.19467
 H42 H 0.29419 0.87419 -0.16863
 H43 H 0.32894 0.87495 -0.20479
 N44 N 0.31734 0.82671 -0.14109
 N45 N 0.32886 0.81576 -0.14117
 C46 C 0.32730 0.80611 -0.12864
 C47 C 0.31415 0.81128 -0.12030
 C48 C 0.30817 0.82433 -0.12854
 H49 H 0.33516 0.79613 -0.12577
 H50 H 0.29789 0.83159 -0.12552
 H51 H 0.32658 0.82532 -0.16933
 H52 H 0.33926 0.83915 -0.15745
 N53 N 0.85990 0.31391 -0.17036
 N54 N 0.85822 0.32545 -0.18078
 C55 C 0.87021 0.32429 -0.19110
 C56 C 0.87987 0.31132 -0.18689
 C57 C 0.87293 0.30505 -0.17366
 H58 H 0.87188 0.33229 -0.20090
 H59 H 0.87704 0.29487 -0.16682
 Cu60 Cu 0.84056 0.34084 -0.17953
 Cu61 Cu 0.84530 0.31116 -0.15309
 Cu62 Cu 0.81399 0.33847 -0.15051
 N63 N 0.82278 0.35607 -0.17799
 N64 N 0.81258 0.35512 -0.16651
 C65 C 0.80171 0.36708 -0.16793
 C66 C 0.80523 0.37607 -0.18107
 C67 C 0.81869 0.36869 -0.18716
 H68 H 0.79203 0.36902 -0.15993
 H69 H 0.82507 0.37238 -0.19744
 N70 N 0.81740 0.32076 -0.13544
 N71 N 0.82932 0.31033 -0.13645
 C72 C 0.82850 0.29981 -0.12451
 C73 C 0.81543 0.30380 -0.11556
 C74 C 0.80868 0.31713 -0.12284
 H75 H 0.83685 0.29002 -0.12247
 H76 H 0.79820 0.32371 -0.11913
 H77 H 0.82578 0.32138 -0.16388
 H78 H 0.83834 0.33522 -0.15186
 N79 N 0.86255 0.80981 0.32891
 N80 N 0.86105 0.82080 0.31794
 C81 C 0.87288 0.81864 0.30756
 C82 C 0.88216 0.80556 0.31235
 C83 C 0.87521 0.80034 0.32594
 H84 H 0.87465 0.82598 0.29732
 H85 H 0.87909 0.79046 0.33329
 Cu86 Cu 0.84367 0.83670 0.31857
 Cu87 Cu 0.84829 0.80830 0.34645
 Cu88 Cu 0.81825 0.83684 0.34878
 N89 N 0.82686 0.85312 0.32049
 N90 N 0.81716 0.85298 0.33241
 C91 C 0.80683 0.86540 0.33122
 C92 C 0.81008 0.87393 0.31776
 C93 C 0.82291 0.86575 0.31121
 H94 H 0.79762 0.86791 0.33959
 H95 H 0.82892 0.86883 0.30055
 N96 N 0.82122 0.81955 0.36425
 N97 N 0.83273 0.80866 0.36337
 C98 C 0.83169 0.79849 0.37555
 C99 C 0.81889 0.80322 0.38453
 C100 C 0.81252 0.81659 0.37702
 H101 H 0.83966 0.78840 0.37769
 H102 H 0.80229 0.82362 0.38065
 H103 H 0.82882 0.81871 0.33573
 H104 H 0.84240 0.83273 0.34653
 N105 N 0.63945 0.68667 0.33212
 N106 N 0.64200 0.67760 0.31982
 C107 C 0.62970 0.67932 0.30995
 C108 C 0.61888 0.69007 0.31643
 C109 C 0.62547 0.69448 0.33052
 H110 H 0.62871 0.67329 0.29884
 H111 H 0.62066 0.70293 0.33890
 Cu112 Cu 0.66112 0.66446 0.31788
 Cu113 Cu 0.65482 0.68855 0.34888
 Cu114 Cu 0.68913 0.66534 0.34563
 N115 N 0.67702 0.64732 0.31974
 N116 N 0.68796 0.64774 0.33061
 C117 C 0.69760 0.63475 0.32908
 C118 C 0.69236 0.62561 0.31659
 C119 C 0.67925 0.63396 0.31095
 H120 H 0.70764 0.63222 0.33654
 H121 H 0.67195 0.63060 0.30114
 N122 N 0.68512 0.68022 0.36307
 N123 N 0.67195 0.68885 0.36448
 C124 C 0.67278 0.69775 0.37757
 C125 C 0.68716 0.69450 0.38476
 C126 C 0.69464 0.68330 0.37527
 H127 H 0.66363 0.70603 0.38151
 H128 H 0.70620 0.67783 0.37712
 H129 H 0.67443 0.68322 0.33593
 H130 H 0.66480 0.66563 0.34578
 N131 N 0.64510 0.19386 -0.17081
 N132 N 0.64256 0.18124 -0.17982
 C133 C 0.62874 0.18335 -0.18740
 C134 C 0.62229 0.19812 -0.18295
 C135 C 0.63302 0.20453 -0.17240
 H136 H 0.62384 0.17493 -0.19577
 H137 H 0.63226 0.21609 -0.16645
 Cu138 Cu 0.65811 0.16391 -0.18161
 Cu139 Cu 0.66433 0.19547 -0.15834
 Cu140 Cu 0.68376 0.15840 -0.15241
 N141 N 0.67325 0.14615 -0.18183
 N142 N 0.68348 0.14387 -0.17051
 C143 C 0.69231 0.13053 -0.17371
 C144 C 0.68729 0.12421 -0.18784
 C145 C 0.67519 0.13452 -0.19260
 H146 H 0.70155 0.12571 -0.16627
 H147 H 0.66828 0.13377 -0.20313
 N148 N 0.68626 0.17745 -0.13848
 N149 N 0.67917 0.19155 -0.14116
 C150 C 0.68268 0.20199 -0.12969
 C151 C 0.69243 0.19417 -0.11915
 C152 C 0.69460 0.17866 -0.12515
 H153 H 0.67811 0.21428 -0.12897
 H154 H 0.70143 0.16889 -0.11999
 H155 H 0.67953 0.17703 -0.16701
 H156 H 0.66235 0.17114 -0.15465
 N157 N 0.14128 0.68510 -0.16919
 N158 N 0.14044 0.67194 -0.17782
 C159 C 0.12812 0.67330 -0.18765
 C160 C 0.12076 0.68816 -0.18509
 C161 C 0.12944 0.69533 -0.17327
 H162 H 0.12487 0.66414 -0.19606
 H163 H 0.12727 0.70710 -0.16804
 Cu164 Cu 0.15554 0.65419 -0.17593
 Cu165 Cu 0.15760 0.68774 -0.15327
 Cu166 Cu 0.18802 0.65942 -0.15391
 N167 N 0.17422 0.64057 -0.17839
 N168 N 0.18694 0.64273 -0.16979
 C169 C 0.19804 0.63171 -0.17377
 C170 C 0.19196 0.62212 -0.18554
 C171 C 0.17681 0.62810 -0.18820
 H172 H 0.20966 0.63079 -0.16847
 H173 H 0.16829 0.62365 -0.19658
 N174 N 0.18699 0.67710 -0.13868
 N175 N 0.17538 0.68793 -0.13826
 C176 C 0.17784 0.69800 -0.12614
 C177 C 0.19166 0.69322 -0.11863
 C178 C 0.19711 0.67995 -0.12694
 H179 H 0.17006 0.70792 -0.12285
 H180 H 0.20752 0.67266 -0.12448
 H181 H 0.17348 0.67507 -0.16677
 H182 H 0.16379 0.66373 -0.15048
 N183 N 0.13980 0.18556 0.33118
 N184 N 0.14107 0.17531 0.31954
 C185 C 0.12852 0.17749 0.30995
 C186 C 0.11895 0.18970 0.31604
 C187 C 0.12654 0.19450 0.32949
 H188 H 0.12648 0.17075 0.29937
 H189 H 0.12287 0.20396 0.33741
 Cu190 Cu 0.15917 0.16035 0.31830
 Cu191 Cu 0.15536 0.18716 0.34769
 Cu192 Cu 0.18721 0.16069 0.34632
 N193 N 0.17685 0.14482 0.31835
 N194 N 0.18775 0.14535 0.32927
 C195 C 0.19850 0.13351 0.32686
 C196 C 0.19419 0.12497 0.31373
 C197 C 0.18035 0.13246 0.30859
 H198 H 0.20854 0.13116 0.33435
 H199 H 0.17333 0.12904 0.29860
 N200 N 0.18460 0.17705 0.36273
 N201 N 0.17232 0.18705 0.36335
 C202 C 0.17369 0.19654 0.37600
 C203 C 0.18751 0.19229 0.38371
 C204 C 0.19413 0.17992 0.37497
 H205 H 0.16524 0.20582 0.37934
 H206 H 0.20504 0.17343 0.37746
 H207 H 0.17440 0.17858 0.33498
 H208 H 0.16277 0.16319 0.34618
 N209 N 0.64016 0.31237 0.67221
 N210 N 0.64122 0.32426 0.68236
 C211 C 0.62945 0.32282 0.69278
 C212 C 0.62048 0.30931 0.68896
 C213 C 0.62764 0.30294 0.67585
 H214 H 0.62754 0.33102 0.70240
 H215 H 0.62387 0.29238 0.66934
 Cu216 Cu 0.65779 0.34054 0.68087
 Cu217 Cu 0.65492 0.31036 0.65490
 Cu218 Cu 0.68444 0.33973 0.65203
 N219 N 0.67437 0.35679 0.67939
 N220 N 0.68474 0.35656 0.66801
 C221 C 0.69484 0.36915 0.66976
 C222 C 0.69053 0.37764 0.68299
 C223 C 0.67753 0.36944 0.68877
 H224 H 0.70457 0.37183 0.66203
 H225 H 0.67091 0.37252 0.69911
 N226 N 0.68211 0.32168 0.63709
 N227 N 0.67094 0.31049 0.63823
 C228 C 0.67251 0.29987 0.62643
 C229 C 0.68530 0.30458 0.61744
 C230 C 0.69109 0.31844 0.62454
 H231 H 0.66491 0.28949 0.62455
 H232 H 0.70112 0.32561 0.62079
 H233 H 0.67390 0.32203 0.66542
 H234 H 0.66041 0.33486 0.65330
 N235 N 0.64152 0.80913 1.16887
 N236 N 0.64124 0.81979 1.18025
 C237 C 0.62870 0.81653 1.18948
 C238 C 0.62075 0.80315 1.18349
 C239 C 0.62928 0.79881 1.17043
 H240 H 0.62545 0.82345 1.19966
 H241 H 0.62679 0.78894 1.16253
 Cu242 Cu 0.65717 0.83702 1.18155
 Cu243 Cu 0.65731 0.80938 1.15252
 Cu244 Cu 0.68448 0.84070 1.15314
 N245 N 0.67244 0.85492 1.18126
 N246 N 0.68282 0.85624 1.16997
 C247 C 0.69185 0.86945 1.17235
 C248 C 0.68696 0.87693 1.18589
 C249 C 0.67461 0.86735 1.19129
 H250 H 0.70143 0.87315 1.16485
 H251 H 0.66776 0.86933 1.20172
 N252 N 0.68439 0.82379 1.13705
 N253 N 0.67416 0.81167 1.13691
 C254 C 0.67722 0.80207 1.12460
 C255 C 0.68993 0.80851 1.11658
 C256 C 0.69419 0.82228 1.12481
 H257 H 0.67063 0.79124 1.12157
 H258 H 0.70376 0.83055 1.12215
 H259 H 0.67490 0.82121 1.16489
 H260 H 0.66074 0.83427 1.15364
 N261 N 0.13913 0.31312 1.16948
 N262 N 0.13977 0.32333 1.18116
 C263 C 0.12718 0.32072 1.19048
 C264 C 0.11824 0.30820 1.18422
 C265 C 0.12621 0.30369 1.17089
 H266 H 0.12465 0.32740 1.20100
 H267 H 0.12297 0.29419 1.16284
 Cu268 Cu 0.15694 0.33908 1.18280
 Cu269 Cu 0.15512 0.31251 1.15341
 Cu270 Cu 0.18530 0.34100 1.15494
 N271 N 0.17357 0.35543 1.18313
 N272 N 0.18451 0.35636 1.17231
 C273 C 0.19414 0.36905 1.17550
 C274 C 0.18892 0.37641 1.18904
 C275 C 0.17584 0.36743 1.19351
 H276 H 0.20414 0.37271 1.16848
 H277 H 0.16835 0.36958 1.20345
 N278 N 0.18377 0.32424 1.13840
 N279 N 0.17218 0.31347 1.13808
 C280 C 0.17416 0.30355 1.12587
 C281 C 0.18766 0.30815 1.11797
 C282 C 0.19346 0.32141 1.12619
 H283 H 0.16624 0.29372 1.12291
 H284 H 0.20401 0.32834 1.12352
 H285 H 0.17392 0.32253 1.16613
 H286 H 0.16130 0.33719 1.15496
 N287 N 0.13726 0.81763 0.67079
 N288 N 0.13647 0.83113 0.67892
 C289 C 0.12455 0.83009 0.68918
 C290 C 0.11734 0.81510 0.68740
 C291 C 0.12571 0.80748 0.67560
 H292 H 0.12147 0.83959 0.69731
 H293 H 0.12352 0.79550 0.67086
 Cu294 Cu 0.15097 0.84891 0.67562
 Cu295 Cu 0.15321 0.81468 0.65458
 Cu296 Cu 0.18282 0.84405 0.65280
 N297 N 0.16900 0.86327 0.67706
 N298 N 0.18153 0.86154 0.66814
 C299 C 0.19211 0.87327 0.67168
 C300 C 0.18585 0.88270 0.68354
 C301 C 0.17116 0.87597 0.68662
 H302 H 0.20354 0.87477 0.66614
 H303 H 0.16258 0.87996 0.69513
 N304 N 0.18173 0.82535 0.63842
 N305 N 0.17048 0.81419 0.63909
 C306 C 0.17255 0.80355 0.62737
 C307 C 0.18570 0.80826 0.61889
 C308 C 0.19122 0.82209 0.62625
 H309 H 0.16480 0.79338 0.62499
 H310 H 0.20121 0.82946 0.62273
 H311 H 0.16963 0.82852 0.66654
 H312 H 0.15885 0.83879 0.65027
 N313 N 0.35749 0.69038 0.67243
 N314 N 0.35735 0.67795 0.68200
 C315 C 0.37004 0.67904 0.69154
 C316 C 0.37856 0.69285 0.68764
 C317 C 0.37018 0.69974 0.67548
 H318 H 0.37299 0.67038 0.70054
 H319 H 0.37300 0.71077 0.66928
 Cu320 Cu 0.34065 0.66159 0.68064
 Cu321 Cu 0.34124 0.69388 0.65677
 Cu322 Cu 0.31409 0.66286 0.65136
 N323 N 0.32372 0.64553 0.67880
 N324 N 0.31363 0.64601 0.66716
 C325 C 0.30338 0.63356 0.66839
 C326 C 0.30722 0.62473 0.68152
 C327 C 0.32021 0.63267 0.68785
 H328 H 0.29382 0.63121 0.66033
 H329 H 0.32660 0.62927 0.69824
 N330 N 0.31635 0.68116 0.63684
 N331 N 0.32657 0.69310 0.63903
 C332 C 0.32525 0.70379 0.62727
 C333 C 0.31356 0.69836 0.61725
 C334 C 0.30817 0.68401 0.62369
 H335 H 0.33231 0.71468 0.62612
 H336 H 0.29895 0.67624 0.61909
 H337 H 0.32298 0.67974 0.66621
 H338 H 0.33785 0.66921 0.65357
 N339 N 0.36134 0.18835 1.17029
 N340 N 0.36032 0.17731 1.18126
 C341 C 0.37250 0.17939 1.19126
 C342 C 0.38156 0.19242 1.18626
 C343 C 0.37408 0.19778 1.17291
 H344 H 0.37466 0.17201 1.20142
 H345 H 0.37762 0.20776 1.16557
 Cu346 Cu 0.34309 0.16142 1.18118
 Cu347 Cu 0.34625 0.18979 1.15329
 Cu348 Cu 0.31607 0.16131 1.15225
 N349 N 0.32623 0.14516 1.18015
 N350 N 0.31577 0.14524 1.16881
 C351 C 0.30558 0.13282 1.17075
 C352 C 0.30984 0.12443 1.18403
 C353 C 0.32301 0.13260 1.18970
 H354 H 0.29585 0.13010 1.16299
 H355 H 0.32975 0.12954 1.19997
 N356 N 0.31838 0.17855 1.13655
 N357 N 0.32992 0.18938 1.13696
 C358 C 0.32841 0.19943 1.12473
 C359 C 0.31528 0.19472 1.11620
 C360 C 0.30921 0.18146 1.12403
 H361 H 0.33631 0.20942 1.12223
 H362 H 0.29887 0.17444 1.12077
 H363 H 0.32722 0.17940 1.16474
 H364 H 0.34023 0.16536 1.15331
 N365 N 0.85801 0.68732 1.16974
 N366 N 0.85943 0.67659 1.18095
 C367 C 0.87257 0.67999 1.18926
 C368 C 0.87974 0.69357 1.18291
 C369 C 0.87015 0.69791 1.17053
 H370 H 0.87671 0.67312 1.19916
 H371 H 0.87181 0.70797 1.16265
 Cu372 Cu 0.84399 0.65917 1.18332
 Cu373 Cu 0.84039 0.68700 1.15506
 Cu374 Cu 0.81508 0.65389 1.15702
 N375 N 0.82820 0.64207 1.18572
 N376 N 0.81707 0.64007 1.17519
 C377 C 0.80781 0.62749 1.17923
 C378 C 0.81342 0.62116 1.19301
 C379 C 0.82641 0.63070 1.19685
 H380 H 0.79772 0.62322 1.17262
 H381 H 0.83397 0.62946 1.20691
 N382 N 0.81489 0.66942 1.13972
 N383 N 0.82430 0.68222 1.13906
 C384 C 0.82106 0.69059 1.12600
 C385 C 0.80902 0.68267 1.11811
 C386 C 0.80541 0.66930 1.12715
 H387 H 0.82702 0.70160 1.12244
 H388 H 0.79645 0.66023 1.12485
 H389 H 0.82409 0.67382 1.16813
 H390 H 0.83844 0.66211 1.15588
 N391 N 0.86070 0.18633 0.67219
 N392 N 0.86124 0.17537 0.68325
 C393 C 0.87360 0.17857 0.69267
 C394 C 0.88129 0.19231 0.68728
 C395 C 0.87278 0.19690 0.67420
 H396 H 0.87674 0.17141 0.70269
 H397 H 0.87525 0.20713 0.66672
 Cu398 Cu 0.84588 0.15781 0.68468
 Cu399 Cu 0.84430 0.18588 0.65608
 Cu400 Cu 0.81589 0.15555 0.65903
 N401 N 0.82948 0.14125 0.68625
 N402 N 0.81772 0.14052 0.67627
 C403 C 0.80818 0.12800 0.67997
 C404 C 0.81427 0.12047 0.69302
 C405 C 0.82782 0.12920 0.69670
 H406 H 0.79767 0.12450 0.67358
 H407 H 0.83587 0.12696 0.70623
 N408 N 0.81590 0.17176 0.64232
 N409 N 0.82671 0.18328 0.64100
 C410 C 0.82344 0.19214 0.62821
 C411 C 0.80994 0.18585 0.62121
 C412 C 0.80552 0.17297 0.63051
 H413 H 0.83032 0.20241 0.62423
 H414 H 0.79555 0.16494 0.62874
 H415 H 0.82761 0.17471 0.66977
 H416 H 0.83995 0.16117 0.65714
 N417 N 0.31436 0.35742 0.66945
 N418 N 0.32407 0.35790 0.68139
 C419 C 0.32002 0.37056 0.69051
 C420 C 0.30713 0.37841 0.68390
 C421 C 0.30383 0.36972 0.67054
 H422 H 0.32613 0.37403 0.70103
 H423 H 0.29461 0.37220 0.66214
 Cu424 Cu 0.34140 0.34236 0.68352
 Cu425 Cu 0.31632 0.34121 0.65315
 Cu426 Cu 0.34729 0.31356 0.65637
 N427 N 0.35860 0.32661 0.68525
 N428 N 0.36096 0.31561 0.67441
 C429 C 0.37378 0.30661 0.67810
 C430 C 0.37976 0.31219 0.69203
 C431 C 0.36985 0.32491 0.69628
 H432 H 0.37844 0.29672 0.67118
 H433 H 0.37090 0.33250 0.70647
 N434 N 0.33212 0.31343 0.63900
 N435 N 0.32026 0.32392 0.63785
 C436 C 0.31187 0.32057 0.62496
 C437 C 0.31876 0.30737 0.61765
 C438 C 0.33159 0.30313 0.62686
 H439 H 0.30144 0.32718 0.62115
 H440 H 0.33983 0.29322 0.62495
 H441 H 0.32736 0.32354 0.66653
 H442 H 0.34059 0.33772 0.65563
 N443 N 0.31609 0.85855 0.17107
 N444 N 0.32681 0.85868 0.18216
 C445 C 0.32377 0.87124 0.19177
 C446 C 0.31047 0.87941 0.18638
 C447 C 0.30590 0.87099 0.17321
 H448 H 0.33078 0.87437 0.20186
 H449 H 0.29601 0.87373 0.16565
 Cu450 Cu 0.34382 0.84261 0.18262
 Cu451 Cu 0.31623 0.84249 0.15450
 Cu452 Cu 0.34609 0.81331 0.15540
 N453 N 0.36039 0.82606 0.18313
 N454 N 0.36121 0.81464 0.17247
 C455 C 0.37382 0.80500 0.17543
 C456 C 0.38132 0.81069 0.18862
 C457 C 0.37246 0.82407 0.19322
 H458 H 0.37738 0.79469 0.16842
 H459 H 0.37467 0.83185 0.20309
 N460 N 0.32965 0.81409 0.13909
 N461 N 0.31833 0.82525 0.13878
 C462 C 0.30912 0.82276 0.12625
 C463 C 0.31485 0.80939 0.11829
 C464 C 0.32790 0.80417 0.12675
 H465 H 0.29899 0.83016 0.12303
 H466 H 0.33562 0.79402 0.12405
 H467 H 0.32754 0.82437 0.16702
 H468 H 0.34040 0.83778 0.15493
 N469 N 0.81334 0.35985 0.17080
 N470 N 0.82394 0.36108 0.18194
 C471 C 0.82005 0.37374 0.19113
 C472 C 0.80634 0.38086 0.18539
 C473 C 0.80240 0.37171 0.17247
 H474 H 0.82671 0.37761 0.20119
 H475 H 0.79234 0.37349 0.16484
 Cu476 Cu 0.84190 0.34617 0.18326
 Cu477 Cu 0.81452 0.34305 0.15493
 Cu478 Cu 0.84587 0.31574 0.15740
 N479 N 0.85917 0.33045 0.18468
 N480 N 0.86059 0.31856 0.17457
 C481 C 0.87335 0.30943 0.17825
 C482 C 0.88035 0.31595 0.19134
 C483 C 0.87104 0.32930 0.19514
 H484 H 0.87730 0.29884 0.17186
 H485 H 0.87270 0.33750 0.20480
 N486 N 0.82976 0.31488 0.14085
 N487 N 0.81775 0.32521 0.13996
 C488 C 0.80880 0.32140 0.12753
 C489 C 0.81551 0.30809 0.12022
 C490 C 0.82880 0.30427 0.12898
 H491 H 0.79818 0.32785 0.12396
 H492 H 0.83713 0.29446 0.12691
 H493 H 0.82666 0.32630 0.16846
 H494 H 0.83888 0.33978 0.15581
 N495 N 0.81266 0.85714 0.67331
 N496 N 0.82367 0.85924 0.68394
 C497 C 0.82004 0.87253 0.69238
 C498 C 0.80606 0.87912 0.68668
 C499 C 0.80168 0.86902 0.67458
 H500 H 0.82699 0.87711 0.70198
 H501 H 0.79124 0.87004 0.66732
 Cu502 Cu 0.84155 0.84430 0.68557
 Cu503 Cu 0.81300 0.83883 0.65902
 Cu504 Cu 0.84686 0.81456 0.65937
 N505 N 0.85923 0.82912 0.68724
 N506 N 0.86131 0.81761 0.67683
 C507 C 0.87434 0.80890 0.68051
 C508 C 0.88083 0.81531 0.69392
 C509 C 0.87093 0.82815 0.69788
 H510 H 0.87879 0.79864 0.67394
 H511 H 0.87210 0.83613 0.70777
 N512 N 0.83059 0.81338 0.64294
 N513 N 0.81759 0.82242 0.64300
 C514 C 0.80879 0.81876 0.63045
 C515 C 0.81657 0.80680 0.62210
 C516 C 0.83037 0.80367 0.63035
 H517 H 0.79758 0.82445 0.62749
 H518 H 0.83955 0.79496 0.62745
 H519 H 0.82764 0.82293 0.67140
 H520 H 0.83743 0.83802 0.65840
 N521 N 0.68648 0.64206 0.67309
 N522 N 0.67542 0.64196 0.68383
 C523 C 0.67818 0.62938 0.69352
 C524 C 0.69171 0.62124 0.68859
 C525 C 0.69664 0.62965 0.67559
 H526 H 0.67088 0.62628 0.70338
 H527 H 0.70673 0.62687 0.66831
 Cu528 Cu 0.65846 0.65824 0.68398
 Cu529 Cu 0.68680 0.65790 0.65636
 Cu530 Cu 0.65623 0.68615 0.65559
 N531 N 0.64116 0.67413 0.68312
 N532 N 0.64046 0.68494 0.67192
 C533 C 0.62759 0.69444 0.67392
 C534 C 0.61972 0.68937 0.68710
 C535 C 0.62866 0.67643 0.69266
 H536 H 0.62428 0.70433 0.66632
 H537 H 0.62623 0.66929 0.70289
 N538 N 0.67324 0.68555 0.64003
 N539 N 0.68501 0.67490 0.64035
 C540 C 0.69464 0.67766 0.62818
 C541 C 0.68860 0.69062 0.61979
 C542 C 0.67504 0.69533 0.62766
 H543 H 0.70521 0.67069 0.62547
 H544 H 0.66706 0.70515 0.62463
 H545 H 0.67487 0.67605 0.66808
 H546 H 0.66258 0.66174 0.65625
 N547 N 0.68837 0.13874 0.17315
 N548 N 0.67753 0.13800 0.18409
 C549 C 0.68080 0.12537 0.19344
 C550 C 0.69442 0.11775 0.18819
 C551 C 0.69896 0.12656 0.17526
 H552 H 0.67375 0.12176 0.20331
 H553 H 0.70906 0.12424 0.16787
 Cu554 Cu 0.66002 0.15340 0.18485
 Cu555 Cu 0.68762 0.15530 0.15700
 Cu556 Cu 0.65626 0.18301 0.15843
 N557 N 0.64256 0.16883 0.18571
 N558 N 0.64112 0.18058 0.17546
 C559 C 0.62802 0.18943 0.17886
 C560 C 0.62086 0.18274 0.19182
 C561 C 0.63047 0.16970 0.19580
 H562 H 0.62390 0.19985 0.17232
 H563 H 0.62880 0.16144 0.20539
 N564 N 0.67284 0.18337 0.14217
 N565 N 0.68479 0.17291 0.14172
 C566 C 0.69391 0.17621 0.12931
 C567 C 0.68740 0.18933 0.12151
 C568 C 0.67404 0.19356 0.12999
 H569 H 0.70445 0.16948 0.12605
 H570 H 0.66578 0.20330 0.12748
 H571 H 0.67540 0.17274 0.16967
 H572 H 0.66319 0.15895 0.15736
 N573 N 0.19171 0.64751 0.17102
 N574 N 0.17975 0.64600 0.18066
 C575 C 0.18187 0.63228 0.18904
 C576 C 0.19592 0.62490 0.18431
 C577 C 0.20182 0.63499 0.17288
 H578 H 0.17384 0.62798 0.19789
 H579 H 0.21267 0.63347 0.16635
 Cu580 Cu 0.16282 0.66236 0.18136
 Cu581 Cu 0.19384 0.66569 0.15696
 Cu582 Cu 0.15989 0.68862 0.15127
 N583 N 0.14456 0.67691 0.17889
 N584 N 0.14341 0.68663 0.16684
 C585 C 0.12985 0.69523 0.16778
 C586 C 0.12197 0.69078 0.18115
 C587 C 0.13166 0.67910 0.18796
 H588 H 0.12627 0.70441 0.15952
 H589 H 0.12948 0.67275 0.19872
 N590 N 0.17807 0.68909 0.13701
 N591 N 0.19113 0.68055 0.13939
 C592 C 0.20143 0.68342 0.12780
 C593 C 0.19453 0.69444 0.11769
 C594 C 0.17976 0.69782 0.12393
 H595 H 0.21304 0.67786 0.12682
 H596 H 0.17091 0.70600 0.11919
 H597 H 0.17759 0.68257 0.16616
 H598 H 0.16956 0.66550 0.15415
 N599 N 0.18111 0.14364 0.67014
 N600 N 0.16848 0.14268 0.67903
 C601 C 0.17024 0.13011 0.68888
 C602 C 0.18478 0.12276 0.68603
 C603 C 0.19136 0.13170 0.67406
 H604 H 0.16157 0.12668 0.69749
 H605 H 0.20276 0.12963 0.66862
 Cu606 Cu 0.15082 0.15784 0.67713
 Cu607 Cu 0.18324 0.16035 0.65421
 Cu608 Cu 0.15631 0.19212 0.65659
 N609 N 0.13634 0.17625 0.67879
 N610 N 0.13849 0.18962 0.67073
 C611 C 0.12684 0.20031 0.67414
 C612 C 0.11686 0.19327 0.68494
 C613 C 0.12327 0.17797 0.68764
 H614 H 0.12568 0.21232 0.66915
 H615 H 0.11886 0.16877 0.69546
 N616 N 0.17290 0.19094 0.64057
 N617 N 0.18314 0.17877 0.63955
 C618 C 0.19248 0.18114 0.62710
 C619 C 0.18786 0.19546 0.61991
 C620 C 0.17538 0.20131 0.62877
 H621 H 0.20180 0.17294 0.62334
 H622 H 0.16838 0.21213 0.62666
 H623 H 0.17156 0.17600 0.66845
 H624 H 0.15960 0.16738 0.65198
 N625 N 0.31328 0.64340 0.32918
 N626 N 0.32410 0.64279 0.31820
 C627 C 0.32090 0.63012 0.30878
 C628 C 0.30739 0.62238 0.31415
 C629 C 0.30288 0.63117 0.32711
 H630 H 0.32789 0.62666 0.29880
 H631 H 0.29283 0.62886 0.33457
 Cu632 Cu 0.34136 0.65859 0.31745
 Cu633 Cu 0.31345 0.65979 0.34552
 Cu634 Cu 0.34400 0.68783 0.34451
 N635 N 0.35847 0.67462 0.31707
 N636 N 0.35925 0.68600 0.32775
 C637 C 0.37189 0.69551 0.32504
 C638 C 0.37956 0.68987 0.31192
 C639 C 0.37072 0.67654 0.30716
 H640 H 0.37524 0.70574 0.33219
 H641 H 0.37307 0.66888 0.29722
 N642 N 0.32753 0.68789 0.36061
 N643 N 0.31576 0.67733 0.36100
 C644 C 0.30656 0.68063 0.37341
 C645 C 0.31292 0.69383 0.38120
 C646 C 0.32619 0.69811 0.37273
 H647 H 0.29609 0.67385 0.37668
 H648 H 0.33427 0.70796 0.37517
 H649 H 0.32512 0.67719 0.33281
 H650 H 0.33761 0.66344 0.34508
 N651 N 0.31270 0.14500 0.82450
 N652 N 0.32203 0.14746 0.81255
 C653 C 0.32029 0.13530 0.80232
 C654 C 0.30914 0.12457 0.80801
 C655 C 0.30448 0.13112 0.82212
 H656 H 0.32675 0.13440 0.79153
 H657 H 0.29606 0.12597 0.83019
 Cu658 Cu 0.33584 0.16606 0.81122
 Cu659 Cu 0.31304 0.15968 0.84245
 Cu660 Cu 0.34271 0.18922 0.84226
 N661 N 0.35365 0.18075 0.81187
 N662 N 0.35658 0.18973 0.82414
 C663 C 0.36976 0.19860 0.82152
 C664 C 0.37522 0.19498 0.80677
 C665 C 0.36473 0.18356 0.80103
 H666 H 0.37493 0.20710 0.82966
 H667 H 0.36525 0.17749 0.78992
 N668 N 0.32738 0.18672 0.85935
 N669 N 0.31591 0.17576 0.85937
 C670 C 0.30716 0.17771 0.87232
 C671 C 0.31346 0.19045 0.88084
 C672 C 0.32625 0.19584 0.87225
 H673 H 0.29688 0.17051 0.87532
 H674 H 0.33398 0.20592 0.87499
 H675 H 0.32210 0.18028 0.83207
 H676 H 0.33670 0.16490 0.83929
 N677 N 0.81599 0.63940 0.82739
 N678 N 0.82702 0.63952 0.81664
 C679 C 0.82458 0.62710 0.80679
 C680 C 0.81126 0.61867 0.81159
 C681 C 0.80607 0.62683 0.82470
 H682 H 0.83199 0.62436 0.79694
 H683 H 0.79586 0.62384 0.83173
 Cu684 Cu 0.84379 0.65564 0.81666
 Cu685 Cu 0.81555 0.65550 0.84407
 Cu686 Cu 0.84564 0.68452 0.84401
 N687 N 0.86056 0.67175 0.81668
 N688 N 0.86128 0.68307 0.82739
 C689 C 0.87410 0.69248 0.82478
 C690 C 0.88182 0.68663 0.81175
 C691 C 0.87288 0.67346 0.80691
 H692 H 0.87757 0.70278 0.83180
 H693 H 0.87516 0.66570 0.79706
 N694 N 0.82871 0.68386 0.85978
 N695 N 0.81731 0.67285 0.85985
 C696 C 0.80787 0.67552 0.87219
 C697 C 0.81359 0.68882 0.88026
 C698 C 0.82681 0.69381 0.87206
 H699 H 0.79765 0.66825 0.87523
 H700 H 0.83460 0.70380 0.87490
 H701 H 0.82704 0.67378 0.83205
 H702 H 0.83965 0.66013 0.84423
 N703 N 0.81447 0.13991 0.32784
 N704 N 0.82393 0.14128 0.31582
 C705 C 0.82156 0.12871 0.30614
 C706 C 0.80985 0.11888 0.31230
 C707 C 0.80558 0.12638 0.32610
 H708 H 0.82792 0.12695 0.29540
 H709 H 0.79679 0.12221 0.33431
 Cu710 Cu 0.83848 0.15929 0.31372
 Cu711 Cu 0.81495 0.15575 0.34485
 Cu712 Cu 0.84461 0.18513 0.34302
 N713 N 0.85671 0.17354 0.31396
 N714 N 0.85900 0.18392 0.32532
 C715 C 0.87234 0.19243 0.32247
 C716 C 0.87876 0.18698 0.30864
 C717 C 0.86851 0.17494 0.30358
 H718 H 0.87710 0.20180 0.32995
 H719 H 0.86949 0.16772 0.29315
 N720 N 0.82887 0.18417 0.35990
 N721 N 0.81766 0.17298 0.36073
 C722 C 0.80895 0.17567 0.37359
 C723 C 0.81493 0.18921 0.38114
 C724 C 0.82756 0.19426 0.37212
 H725 H 0.79893 0.16839 0.37718
 H726 H 0.83526 0.20450 0.37428
 H727 H 0.82432 0.17528 0.33311
 H728 H 0.83878 0.16061 0.34180
 N729 N 0.68168 0.35970 0.33438
 N730 N 0.67470 0.35690 0.32102
 C731 C 0.67893 0.36853 0.31088
 C732 C 0.68912 0.37920 0.31833
 C733 C 0.69056 0.37323 0.33326
 H734 H 0.67477 0.36933 0.29904
 H735 H 0.69735 0.37835 0.34271
 Cu736 Cu 0.66012 0.33881 0.31859
 Cu737 Cu 0.67816 0.34598 0.35235
 Cu738 Cu 0.66034 0.30875 0.34485
 N739 N 0.64328 0.32275 0.31932
 N740 N 0.64340 0.31076 0.32940
 C741 C 0.63060 0.30128 0.32692
 C742 C 0.62192 0.30784 0.31475
 C743 C 0.63038 0.32144 0.31021
 H744 H 0.62775 0.29051 0.33356
 H745 H 0.62753 0.32973 0.30089
 N746 N 0.67305 0.31297 0.36367
 N747 N 0.67932 0.32735 0.36662
 C748 C 0.68753 0.32657 0.37995
 C749 C 0.68640 0.31094 0.38580
 C750 C 0.67704 0.30264 0.37520
 H751 H 0.69417 0.33662 0.38476
 H752 H 0.67363 0.28996 0.37569
 H753 H 0.67734 0.32619 0.33806
 H754 H 0.65785 0.33286 0.34619
 N755 N 0.68174 0.85801 0.83090
 N756 N 0.67104 0.85719 0.81981
 C757 C 0.67282 0.87023 0.81042
 C758 C 0.68522 0.87964 0.81610
 C759 C 0.69056 0.87143 0.82905
 H760 H 0.66561 0.87279 0.80032
 H761 H 0.70029 0.87482 0.83655
 Cu762 Cu 0.65590 0.83909 0.81918
 Cu763 Cu 0.68389 0.84188 0.84711
 Cu764 Cu 0.65689 0.81048 0.84727
 N765 N 0.64019 0.82153 0.82006
 N766 N 0.64088 0.81051 0.83108
 C767 C 0.62894 0.79988 0.82928
 C768 C 0.62015 0.80435 0.81642
 C769 C 0.62761 0.81820 0.81083
 H770 H 0.62680 0.78973 0.83691
 H771 H 0.62408 0.82531 0.80085
 N772 N 0.67395 0.81246 0.86273
 N773 N 0.68429 0.82447 0.86262
 C774 C 0.69436 0.82264 0.87463
 C775 C 0.69012 0.80880 0.88271
 C776 C 0.67713 0.80266 0.87485
 H777 H 0.70395 0.83088 0.87736
 H778 H 0.67048 0.79188 0.87783
 H779 H 0.67402 0.82270 0.83492
 H780 H 0.66013 0.83533 0.84688
 N781 N 0.18290 0.36298 0.82837
 N782 N 0.17344 0.36150 0.81634
 C783 C 0.17723 0.37299 0.80583
 C784 C 0.18969 0.38215 0.81169
 C785 C 0.19295 0.37540 0.82603
 H786 H 0.17123 0.37479 0.79487
 H787 H 0.20181 0.37927 0.83432
 Cu788 Cu 0.15671 0.34512 0.81624
 Cu789 Cu 0.18110 0.34940 0.84661
 Cu790 Cu 0.15653 0.31572 0.84367
 N791 N 0.14107 0.32771 0.81610
 N792 N 0.14116 0.31614 0.82662
 C793 C 0.12900 0.30589 0.82382
 C794 C 0.12086 0.31136 0.81084
 C795 C 0.12887 0.32521 0.80627
 H796 H 0.12614 0.29547 0.83091
 H797 H 0.12585 0.33299 0.79660
 N798 N 0.17277 0.31816 0.86014
 N799 N 0.18184 0.33118 0.86123
 C800 C 0.19173 0.32952 0.87336
 C801 C 0.18877 0.31476 0.88042
 C802 C 0.17659 0.30789 0.87179
 H803 H 0.20047 0.33845 0.87675
 H804 H 0.17102 0.29624 0.87383
 H805 H 0.17404 0.32964 0.83327
 H806 H 0.15782 0.34019 0.84418
 N807 N 0.18540 0.85858 0.32364
 N808 N 0.17516 0.85687 0.31224
 C809 C 0.17771 0.86854 0.30161
 C810 C 0.19023 0.87811 0.30657
 C811 C 0.19484 0.87142 0.32061
 H812 H 0.17073 0.87011 0.29120
 H813 H 0.20421 0.87573 0.32815
 Cu814 Cu 0.15888 0.84014 0.31227
 Cu815 Cu 0.18530 0.84428 0.34169
 Cu816 Cu 0.15499 0.81601 0.34350
 N817 N 0.14144 0.82479 0.31422
 N818 N 0.13990 0.81552 0.32651
 C819 C 0.12685 0.80625 0.32493
 C820 C 0.11978 0.80990 0.31087
 C821 C 0.12936 0.82172 0.30437
 H822 H 0.12288 0.79749 0.33340
 H823 H 0.12757 0.82767 0.29333
 N824 N 0.17132 0.81811 0.35964
 N825 N 0.18307 0.82868 0.35898
 C826 C 0.19232 0.82679 0.37166
 C827 C 0.18598 0.81452 0.38072
 C828 C 0.17270 0.80931 0.37270
 H829 H 0.20284 0.83384 0.37418
 H830 H 0.16472 0.79967 0.37601
 H831 H 0.17444 0.82481 0.33123
 H832 H 0.16119 0.84039 0.34042
 C833 C 0.24906 1.00229 0.25725
 C834 C 0.26135 1.00229 0.24699
 C835 C 0.26801 1.01757 0.24051
 C836 C 0.26898 0.98696 0.24170
 C837 C 0.24307 0.98702 0.26436
 C838 C 0.24116 1.01758 0.26228
 C839 C 0.25857 1.02863 0.23215
 C840 C 0.26520 1.04298 0.22630
 C841 C 0.28139 1.04651 0.22870
 C842 C 0.29085 1.03514 0.23672
 C843 C 0.28423 1.02085 0.24253
 C844 C 0.26884 0.98315 0.22588
 C845 C 0.27571 0.96872 0.22057
 C846 C 0.28309 0.95789 0.23095
 C847 C 0.28342 0.96185 0.24683
 C848 C 0.27647 0.97632 0.25214
 C849 C 0.24320 0.98543 0.28053
 C850 C 0.23783 0.97116 0.28754
 C851 C 0.23215 0.95815 0.27851
 C852 C 0.23168 0.95993 0.26229
 C853 C 0.23708 0.97424 0.25528
 C854 C 0.24978 1.03012 0.26940
 C855 C 0.24209 1.04440 0.27407
 C856 C 0.22563 1.04640 0.27181
 C857 C 0.21700 1.03365 0.26493
 C858 C 0.22470 1.01938 0.26025
 H859 H 0.24609 1.02616 0.23018
 H860 H 0.25764 1.05139 0.22002
 H861 H 0.30345 1.03711 0.23833
 H862 H 0.29177 1.01234 0.24873
 H863 H 0.26321 0.99129 0.21765
 H864 H 0.27531 0.96609 0.20828
 H865 H 0.27686 0.97917 0.26439
 H866 H 0.24759 0.99524 0.28775
 H867 H 0.23790 0.97051 0.30006
 H868 H 0.22724 0.95020 0.25502
 H869 H 0.23662 0.97533 0.24278
 H870 H 0.26243 1.02882 0.27138
 H871 H 0.24907 1.05391 0.27947
 H872 H 0.20425 1.03446 0.26346
 H873 H 0.21781 1.00971 0.25500
 H874 H 0.28875 0.95370 0.25520
 C875 C 0.24072 0.50233 0.74843
 C876 C 0.25383 0.50215 0.73919
 C877 C 0.26137 0.51735 0.73351
 C878 C 0.26154 0.48668 0.73447
 C879 C 0.23316 0.48705 0.75387
 C880 C 0.23364 0.51775 0.75422
 C881 C 0.25263 0.52901 0.72518
 C882 C 0.25995 0.54329 0.72006
 C883 C 0.27612 0.54617 0.72317
 C884 C 0.28488 0.53427 0.73124
 C885 C 0.27758 0.52001 0.73632
 C886 C 0.26313 0.48302 0.71870
 C887 C 0.27024 0.46845 0.71404
 C888 C 0.27613 0.45738 0.72507
 C889 C 0.27465 0.46117 0.74091
 C890 C 0.26749 0.47575 0.74556
 C891 C 0.23162 0.48429 0.76981
 C892 C 0.22476 0.46997 0.77524
 C893 C 0.21907 0.45815 0.76485
 C894 C 0.22045 0.46101 0.74882
 C895 C 0.22740 0.47538 0.74339
 C896 C 0.24287 0.52917 0.76228
 C897 C 0.23593 0.54342 0.76801
 C898 C 0.21958 0.54644 0.76600
 C899 C 0.21034 0.53480 0.75813
 C900 C 0.21732 0.52063 0.75230
 H901 H 0.24017 0.52705 0.72265
 H902 H 0.25291 0.55214 0.71376
 H903 H 0.29746 0.53579 0.73342
 H904 H 0.28457 0.51106 0.74256
 H905 H 0.25869 0.49137 0.70999
 H906 H 0.27123 0.46591 0.70176
 H907 H 0.26651 0.47849 0.75780
 H908 H 0.23595 0.49317 0.77808
 H909 H 0.22383 0.46818 0.78764
 H910 H 0.21648 0.45208 0.74047
 H911 H 0.22835 0.47736 0.73102
 H912 H 0.25540 0.52699 0.76428
 H913 H 0.24338 0.55203 0.77412
 H914 H 0.19764 0.53633 0.75679
 H915 H 0.20995 0.51181 0.74636
 H916 H 0.27875 0.45280 0.74973
 C917 C 0.73886 -0.00503 0.25293
 C918 C 0.75080 -0.00529 0.26363
 C919 C 0.75906 -0.02064 0.26807
 C920 C 0.75627 0.00988 0.27137
 C921 C 0.73249 0.01057 0.24672
 C922 C 0.73159 -0.02022 0.24679
 C923 C 0.76067 -0.02469 0.28376
 C924 C 0.76871 -0.03885 0.28816
 C925 C 0.77554 -0.04918 0.27698
 C926 C 0.77402 -0.04504 0.26122
 C927 C 0.76589 -0.03087 0.25682
 C928 C 0.74553 0.02001 0.27930
 C929 C 0.75078 0.03431 0.28645
 C930 C 0.76692 0.03870 0.28589
 C931 C 0.77764 0.02844 0.27802
 C932 C 0.77239 0.01412 0.27097
 C933 C 0.74260 0.02196 0.23971
 C934 C 0.73642 0.03639 0.23351
 C935 C 0.72003 0.03970 0.23424
 C936 C 0.70994 0.02815 0.24110
 C937 C 0.71611 0.01372 0.24721
 C938 C 0.73001 -0.02238 0.23075
 C939 C 0.72276 -0.03630 0.22478
 C940 C 0.71674 -0.04835 0.23472
 C941 C 0.71829 -0.04615 0.25083
 C942 C 0.72558 -0.03218 0.25680
 H943 H 0.75560 -0.01692 0.29263
 H944 H 0.76970 -0.04162 0.30039
 H945 H 0.77887 -0.05281 0.25226
 H946 H 0.76499 -0.02784 0.24464
 H947 H 0.73306 0.01686 0.27988
 H948 H 0.74212 0.04204 0.29213
 H949 H 0.78089 0.00642 0.26500
 H950 H 0.75524 0.01959 0.23892
 H951 H 0.74447 0.04501 0.22824
 H952 H 0.69722 0.03007 0.24149
 H953 H 0.70809 0.00497 0.25233
 H954 H 0.73447 -0.01328 0.22280
 H955 H 0.72173 -0.03756 0.21233
 H956 H 0.71410 -0.05526 0.25887
 H957 H 0.72644 -0.03066 0.26924
 H958 H 0.79015 0.03144 0.27740
 C959 C 0.73741 0.49733 0.75075
 C960 C 0.74892 0.49702 0.76186
 C961 C 0.75669 0.48159 0.76686
 C962 C 0.75449 0.51213 0.76957
 C963 C 0.73066 0.51286 0.74477
 C964 C 0.73082 0.48212 0.74409
 C965 C 0.75692 0.47744 0.78261
 C966 C 0.76440 0.46316 0.78756
 C967 C 0.77205 0.45282 0.77690
 C968 C 0.77180 0.45703 0.76108
 C969 C 0.76426 0.47132 0.75613
 C970 C 0.74382 0.52260 0.77717
 C971 C 0.74930 0.53680 0.78434
 C972 C 0.76557 0.54069 0.78411
 C973 C 0.77619 0.53003 0.77663
 C974 C 0.77072 0.51586 0.76952
 C975 C 0.74045 0.52481 0.73821
 C976 C 0.73386 0.53924 0.73243
 C977 C 0.71736 0.54202 0.73310
 C978 C 0.70759 0.52988 0.73947
 C979 C 0.71418 0.51545 0.74519
 C980 C 0.73089 0.47976 0.72799
 C981 C 0.72458 0.46558 0.72156
 C982 C 0.71785 0.45358 0.73109
 C983 C 0.71781 0.45599 0.74724
 C984 C 0.72415 0.47017 0.75366
 H985 H 0.75124 0.48526 0.79107
 H986 H 0.76436 0.46031 0.79981
 H987 H 0.77723 0.44923 0.75247
 H988 H 0.76439 0.47442 0.74394
 H989 H 0.73125 0.51983 0.77749
 H990 H 0.74073 0.54482 0.78976
 H991 H 0.77914 0.50788 0.76378
 H992 H 0.75317 0.52290 0.73748
 H993 H 0.74169 0.54829 0.72749
 H994 H 0.69481 0.53133 0.73978
 H995 H 0.70640 0.50628 0.75000
 H996 H 0.73593 0.48889 0.72042
 H997 H 0.72475 0.46410 0.70909
 H998 H 0.71305 0.44689 0.75498
 H999 H 0.72383 0.47185 0.76610
 H1000 H 0.78881 0.53261 0.77633
 C1001 C 0.24716 0.50010 0.24044
 C1002 C 0.25901 0.49995 0.25123
 C1003 C 0.26624 0.48453 0.25686
 C1004 C 0.26569 0.51520 0.25781
 C1005 C 0.23963 0.51548 0.23507
 C1006 C 0.24133 0.48489 0.23306
 C1007 C 0.26558 0.48080 0.27269
 C1008 C 0.27225 0.46637 0.27829
 C1009 C 0.27994 0.45543 0.26822
 C1010 C 0.28066 0.45927 0.25232
 C1011 C 0.27396 0.47373 0.24673
 C1012 C 0.25615 0.52652 0.26573
 C1013 C 0.26280 0.54087 0.27163
 C1014 C 0.27908 0.54414 0.26969
 C1015 C 0.28862 0.53254 0.26208
 C1016 C 0.28199 0.51824 0.25623
 C1017 C 0.24859 0.52781 0.22807
 C1018 C 0.24124 0.54218 0.22309
 C1019 C 0.22476 0.54449 0.22497
 C1020 C 0.21579 0.53195 0.23173
 C1021 C 0.22316 0.51758 0.23666
 C1022 C 0.24223 0.48322 0.21692
 C1023 C 0.23708 0.46898 0.20966
 C1024 C 0.23085 0.45606 0.21843
 C1025 C 0.22966 0.45791 0.23461
 C1026 C 0.23484 0.47219 0.24186
 H1027 H 0.25974 0.48902 0.28070
 H1028 H 0.27151 0.46385 0.29058
 H1029 H 0.28616 0.45104 0.24412
 H1030 H 0.27474 0.47649 0.23448
 H1031 H 0.24358 0.52427 0.26730
 H1032 H 0.25516 0.54949 0.27756
 H1033 H 0.28959 0.50957 0.25033
 H1034 H 0.26127 0.52628 0.22643
 H1035 H 0.24846 0.55154 0.21782
 H1036 H 0.20303 0.53303 0.23293
 H1037 H 0.21599 0.50808 0.24178
 H1038 H 0.24708 0.49295 0.20992
 H1039 H 0.23773 0.46827 0.19717
 H1040 H 0.22483 0.44824 0.24168
 H1041 H 0.23382 0.47333 0.25432
 H1042 H 0.30129 0.53434 0.26080
 C1043 C 0.73932 1.00079 0.75683
 C1044 C 0.75059 1.00056 0.74554
 C1045 C 0.75658 1.01584 0.73841
 C1046 C 0.75779 0.98505 0.74004
 C1047 C 0.73111 0.98570 0.76197
 C1048 C 0.73491 1.01617 0.76482
 C1049 C 0.74602 1.02734 0.73206
 C1050 C 0.75180 1.04142 0.72498
 C1051 C 0.76826 1.04426 0.72406
 C1052 C 0.77876 1.03275 0.73047
 C1053 C 0.77298 1.01864 0.73749
 C1054 C 0.75834 0.98155 0.72414
 C1055 C 0.76556 0.96725 0.71885
 C1056 C 0.77264 0.95631 0.72932
 C1057 C 0.77201 0.95982 0.74528
 C1058 C 0.76469 0.97407 0.75057
 C1059 C 0.72974 0.98228 0.77781
 C1060 C 0.72197 0.96825 0.78279
 C1061 C 0.71529 0.95729 0.77205
 C1062 C 0.71660 0.96082 0.75615
 C1063 C 0.72430 0.97494 0.75118
 C1064 C 0.74651 1.02562 0.77231
 C1065 C 0.74222 1.03987 0.78016
 C1066 C 0.72624 1.04491 0.78062
 C1067 C 0.71470 1.03545 0.77301
 C1068 C 0.71897 1.02113 0.76535
 H1069 H 0.73331 1.02536 0.73251
 H1070 H 0.74334 1.05014 0.72041
 H1071 H 0.79149 1.03453 0.72987
 H1072 H 0.78131 1.00992 0.74228
 H1073 H 0.75316 0.98991 0.71584
 H1074 H 0.76586 0.96490 0.70650
 H1075 H 0.76454 0.97663 0.76288
 H1076 H 0.73483 0.99040 0.78636
 H1077 H 0.72122 0.96599 0.79512
 H1078 H 0.71199 0.95261 0.74745
 H1079 H 0.72499 0.97746 0.73889
 H1080 H 0.75888 1.02191 0.77212
 H1081 H 0.75143 1.04707 0.78560
 H1082 H 0.70231 1.03908 0.77312
 H1083 H 0.70986 1.01397 0.75968
 H1084 H 0.77705 0.95154 0.75371
 C1085 C 0.73797 0.50090 0.25579
 C1086 C 0.75010 0.50110 0.24535
 C1087 C 0.75597 0.51651 0.23846
 C1088 C 0.75800 0.48590 0.24001
 C1089 C 0.73098 0.48541 0.26140
 C1090 C 0.73102 0.51618 0.26211
 C1091 C 0.74558 0.52714 0.23070
 C1092 C 0.75134 0.54135 0.22385
 C1093 C 0.76765 0.54508 0.22446
 C1094 C 0.77797 0.53445 0.23235
 C1095 C 0.77221 0.52024 0.23917
 C1096 C 0.75880 0.48247 0.22411
 C1097 C 0.76627 0.46832 0.21885
 C1098 C 0.77332 0.45741 0.22937
 C1099 C 0.77258 0.46092 0.24532
 C1100 C 0.76503 0.47507 0.25058
 C1101 C 0.72993 0.48248 0.27736
 C1102 C 0.72341 0.46800 0.28285
 C1103 C 0.71760 0.45618 0.27249
 C1104 C 0.71858 0.45922 0.25646
 C1105 C 0.72507 0.47376 0.25099
 C1106 C 0.74060 0.52783 0.26946
 C1107 C 0.73389 0.54217 0.27528
 C1108 C 0.71748 0.54515 0.27385
 C1109 C 0.70788 0.53326 0.26678
 C1110 C 0.71460 0.51891 0.26103
 H1111 H 0.73303 0.52438 0.22986
 H1112 H 0.74296 0.54942 0.21820
 H1113 H 0.79058 0.53697 0.23301
 H1114 H 0.78042 0.51213 0.24503
 H1115 H 0.75352 0.49073 0.21577
 H1116 H 0.76668 0.46601 0.20650
 H1117 H 0.76469 0.47760 0.26289
 H1118 H 0.73431 0.49138 0.28559
 H1119 H 0.72280 0.46611 0.29525
 H1120 H 0.71457 0.45034 0.24808
 H1121 H 0.72551 0.47591 0.23863
 H1122 H 0.75327 0.52580 0.27071
 H1123 H 0.74158 0.55101 0.28078
 H1124 H 0.69514 0.53487 0.26589
 H1125 H 0.70698 0.50994 0.25561
 H1126 H 0.77762 0.45267 0.25378
 C1127 C 0.24978 0.00207 0.73634
 C1128 C 0.25943 0.00153 0.74902
 C1129 C 0.26663 -0.01396 0.75456
 C1130 C 0.26331 0.01640 0.75803
 C1131 C 0.24397 0.01772 0.72977
 C1132 C 0.24419 -0.01304 0.72864
 C1133 C 0.26488 -0.01854 0.77010
 C1134 C 0.27175 -0.03293 0.77555
 C1135 C 0.28070 -0.04300 0.76564
 C1136 C 0.28244 -0.03836 0.75003
 C1137 C 0.27556 -0.02393 0.74459
 C1138 C 0.25128 0.02611 0.76457
 C1139 C 0.25516 0.04006 0.77308
 C1140 C 0.27116 0.04449 0.77522
 C1141 C 0.28312 0.03459 0.76879
 C1142 C 0.27924 0.02063 0.76040
 C1143 C 0.25460 0.02998 0.72529
 C1144 C 0.24894 0.04450 0.71881
 C1145 C 0.23252 0.04697 0.71658
 C1146 C 0.22195 0.03466 0.72113
 C1147 C 0.22762 0.02016 0.72756
 C1148 C 0.24675 -0.01536 0.71273
 C1149 C 0.24131 -0.02944 0.70535
 C1150 C 0.23305 -0.04140 0.71374
 C1151 C 0.23036 -0.03891 0.72965
 C1152 C 0.23588 -0.02488 0.73703
 H1153 H 0.25809 -0.01100 0.77800
 H1154 H 0.27017 -0.03608 0.78763
 H1155 H 0.28891 -0.04589 0.74191
 H1156 H 0.27722 -0.02052 0.73258
 H1157 H 0.23890 0.02289 0.76303
 H1158 H 0.24564 0.04754 0.77764
 H1159 H 0.28869 0.01323 0.75556
 H1160 H 0.26729 0.02828 0.72676
 H1161 H 0.25743 0.05381 0.71574
 H1162 H 0.20926 0.03614 0.71954
 H1163 H 0.21922 0.01085 0.73091
 H1164 H 0.25299 -0.00625 0.70605
 H1165 H 0.24322 -0.03072 0.69301
 H1166 H 0.22396 -0.04783 0.73642
 H1167 H 0.23353 -0.02317 0.74926
 H1168 H 0.29555 0.03765 0.77025
 C1169 C 0.25270 0.24263 0.99797
 C1170 C 0.24193 0.25507 0.99804
 C1171 C 0.23675 0.26308 1.01264
 C1172 C 0.23439 0.26103 0.98354
 C1173 C 0.25813 0.23478 0.98339
 C1174 C 0.25941 0.23580 1.01252
 C1175 C 0.22969 0.25413 1.02462
 C1176 C 0.22515 0.26183 1.03837
 C1177 C 0.22747 0.27867 1.04044
 C1178 C 0.23420 0.28765 1.02823
 C1179 C 0.23876 0.27992 1.01448
 C1180 C 0.21786 0.25989 0.98179
 C1181 C 0.21049 0.26500 0.96810
 C1182 C 0.21954 0.27151 0.95591
 C1183 C 0.23609 0.27299 0.95786
 C1184 C 0.24346 0.26775 0.97153
 C1185 C 0.27440 0.23449 0.97992
 C1186 C 0.27988 0.22694 0.96644
 C1187 C 0.26922 0.21933 0.95617
 C1188 C 0.25288 0.21957 0.95974
 C1189 C 0.24741 0.22713 0.97328
 C1190 C 0.26788 0.24550 1.02306
 C1191 C 0.27378 0.23876 1.03681
 C1192 C 0.27130 0.22222 1.04026
 C1193 C 0.26315 0.21250 1.02945
 C1194 C 0.25732 0.21922 1.01573
 H1195 H 0.22775 0.24117 1.02332
 H1196 H 0.21986 0.25455 1.04744
 H1197 H 0.23571 0.30069 1.02910
 H1198 H 0.24398 0.28707 1.00528
 H1199 H 0.21066 0.25485 0.99100
 H1200 H 0.19770 0.26409 0.96722
 H1201 H 0.25622 0.26890 0.97274
 H1202 H 0.28287 0.24021 0.98765
 H1203 H 0.29252 0.22700 0.96411
 H1204 H 0.24422 0.21420 0.95203
 H1205 H 0.23483 0.22700 0.97587
 H1206 H 0.26984 0.25827 1.02066
 H1207 H 0.28012 0.24654 1.04484
 H1208 H 0.26144 0.19962 1.03144
 H1209 H 0.25100 0.21149 1.00764
 H1210 H 0.24335 0.27807 0.94873
 C1211 C 0.25530 0.74962 0.49823
 C1212 C 0.24557 0.76293 0.49853
 C1213 C 0.23936 0.76972 0.51333
 C1214 C 0.24042 0.77125 0.48406
 C1215 C 0.26019 0.74177 0.48346
 C1216 C 0.26149 0.74204 0.51269
 C1217 C 0.23125 0.75986 0.52396
 C1218 C 0.22574 0.76636 0.53794
 C1219 C 0.22816 0.78287 0.54156
 C1220 C 0.23586 0.79281 0.53064
 C1221 C 0.24137 0.78630 0.51668
 C1222 C 0.22418 0.77377 0.48126
 C1223 C 0.21908 0.78124 0.46761
 C1224 C 0.23011 0.78657 0.45650
 C1225 C 0.24643 0.78432 0.45947
 C1226 C 0.25153 0.77681 0.47317
 C1227 C 0.27639 0.73957 0.48029
 C1228 C 0.28123 0.73203 0.46659
 C1229 C 0.26998 0.72629 0.45584
 C1230 C 0.25371 0.72840 0.45910
 C1231 C 0.24887 0.73602 0.47282
 C1232 C 0.26961 0.75127 0.52386
 C1233 C 0.27510 0.74397 0.53749
 C1234 C 0.27268 0.72727 0.54018
 C1235 C 0.26499 0.71798 0.52870
 C1236 C 0.25947 0.72530 0.51512
 H1237 H 0.22924 0.74711 0.52145
 H1238 H 0.21972 0.75840 0.54600
 H1239 H 0.23747 0.80569 0.53272
 H1240 H 0.24734 0.79419 0.50851
 H1241 H 0.21541 0.76969 0.48957
 H1242 H 0.20643 0.78284 0.46574
 H1243 H 0.26414 0.77521 0.47521
 H1244 H 0.28530 0.74381 0.48841
 H1245 H 0.29384 0.73055 0.46446
 H1246 H 0.24470 0.72441 0.45100
 H1247 H 0.23629 0.73743 0.47516
 H1248 H 0.27165 0.76414 0.52205
 H1249 H 0.28111 0.75144 0.54601
 H1250 H 0.26340 0.70500 0.53003
 H1251 H 0.25347 0.71790 0.50653
 H1252 H 0.25530 0.78796 0.45112
 C1253 C 0.23821 0.75802 -0.00106
 C1254 C 0.25029 0.76900 -0.00130
 C1255 C 0.25653 0.77579 -0.01604
 C1256 C 0.25763 0.77512 0.01322
 C1257 C 0.23139 0.75199 0.01369
 C1258 C 0.23112 0.75142 -0.01550
 C1259 C 0.27279 0.77449 -0.01940
 C1260 C 0.27881 0.78061 -0.03330
 C1261 C 0.26874 0.78839 -0.04401
 C1262 C 0.25244 0.78979 -0.04052
 C1263 C 0.24643 0.78365 -0.02663
 C1264 C 0.26460 0.76444 0.02397
 C1265 C 0.27098 0.77043 0.03781
 C1266 C 0.27048 0.78718 0.04114
 C1267 C 0.26389 0.79786 0.03012
 C1268 C 0.25757 0.79188 0.01628
 C1269 C 0.22418 0.76269 0.02425
 C1270 C 0.21772 0.75678 0.03805
 C1271 C 0.21836 0.74005 0.04149
 C1272 C 0.22560 0.72940 0.03086
 C1273 C 0.23191 0.73530 0.01702
 C1274 C 0.21469 0.75280 -0.01798
 C1275 C 0.20784 0.74684 -0.03159
 C1276 C 0.21730 0.73931 -0.04297
 C1277 C 0.23372 0.73763 -0.04025
 C1278 C 0.24056 0.74359 -0.02663
 H1279 H 0.28079 0.76855 -0.01133
 H1280 H 0.29141 0.77938 -0.03560
 H1281 H 0.24423 0.79539 -0.04859
 H1282 H 0.23387 0.78495 -0.02416
 H1283 H 0.26501 0.75148 0.02167
 H1284 H 0.27608 0.76192 0.04603
 H1285 H 0.25241 0.80031 0.00803
 H1286 H 0.22356 0.77561 0.02180
 H1287 H 0.21247 0.76534 0.04612
 H1288 H 0.22623 0.71646 0.03317
 H1289 H 0.23737 0.72687 0.00895
 H1290 H 0.20718 0.75861 -0.00940
 H1291 H 0.19510 0.74791 -0.03300
 H1292 H 0.24133 0.73178 -0.04871
 H1293 H 0.25322 0.74212 -0.02477
 H1294 H 0.26372 0.81088 0.03207
 C1295 C 0.24956 0.24122 0.50089
 C1296 C 0.25922 0.25449 0.50023
 C1297 C 0.26387 0.26201 0.48525
 C1298 C 0.26565 0.26221 0.51444
 C1299 C 0.24380 0.23442 0.51583
 C1300 C 0.24394 0.23299 0.48661
 C1301 C 0.28001 0.26379 0.48166
 C1302 C 0.28463 0.27080 0.46766
 C1303 C 0.27321 0.27644 0.45701
 C1304 C 0.25700 0.27476 0.46068
 C1305 C 0.25238 0.26767 0.47470
 C1306 C 0.27436 0.25314 0.52533
 C1307 C 0.28004 0.26056 0.53881
 C1308 C 0.27715 0.27717 0.54162
 C1309 C 0.26885 0.28631 0.53043
 C1310 C 0.26320 0.27889 0.51697
 C1311 C 0.23580 0.24423 0.52665
 C1312 C 0.23021 0.23756 0.54051
 C1313 C 0.23243 0.22094 0.54382
 C1314 C 0.24017 0.21109 0.53278
 C1315 C 0.24576 0.21777 0.51895
 C1316 C 0.22759 0.23143 0.48393
 C1317 C 0.22207 0.22430 0.47029
 C1318 C 0.23279 0.21841 0.45912
 C1319 C 0.24922 0.21966 0.46200
 C1320 C 0.25473 0.22684 0.47567
 H1321 H 0.28905 0.25957 0.48967
 H1322 H 0.29720 0.27193 0.46521
 H1323 H 0.24785 0.27864 0.45265
 H1324 H 0.23985 0.26656 0.47732
 H1325 H 0.27667 0.24032 0.52341
 H1326 H 0.28653 0.25324 0.54714
 H1327 H 0.25672 0.28614 0.50857
 H1328 H 0.23378 0.25702 0.52432
 H1329 H 0.22416 0.24546 0.54866
 H1330 H 0.24164 0.19815 0.53459
 H1331 H 0.25164 0.20993 0.51064
 H1332 H 0.21910 0.23605 0.49228
 H1333 H 0.20936 0.22342 0.46845
 H1334 H 0.25783 0.21552 0.45357
 H1335 H 0.26742 0.22782 0.47762
 H1336 H 0.26687 0.29923 0.53193
 C1337 C 0.75227 0.73484 0.99935
 C1338 C 0.73954 0.74514 0.99959
 C1339 C 0.73242 0.75093 1.01434
 C1340 C 0.73219 0.75127 0.98509
 C1341 C 0.75810 0.72744 0.98468
 C1342 C 0.76098 0.73049 1.01375
 C1343 C 0.72706 0.73986 1.02553
 C1344 C 0.72025 0.74547 1.03931
 C1345 C 0.71857 0.76228 1.04208
 C1346 C 0.72393 0.77330 1.03080
 C1347 C 0.73066 0.76768 1.01702
 C1348 C 0.71582 0.74941 0.98263
 C1349 C 0.70874 0.75520 0.96906
 C1350 C 0.71793 0.76305 0.95771
 C1351 C 0.73430 0.76514 0.96036
 C1352 C 0.74136 0.75932 0.97393
 C1353 C 0.77416 0.72886 0.98063
 C1354 C 0.77976 0.72216 0.96679
 C1355 C 0.76946 0.71372 0.95679
 C1356 C 0.75336 0.71219 0.96096
 C1357 C 0.74778 0.71888 0.97483
 C1358 C 0.76712 0.74258 1.02357
 C1359 C 0.77505 0.73830 1.03723
 C1360 C 0.77713 0.72181 1.04121
 C1361 C 0.77116 0.70978 1.03119
 C1362 C 0.76327 0.71407 1.01756
 H1363 H 0.72816 0.72688 1.02360
 H1364 H 0.71656 0.73664 1.04785
 H1365 H 0.72277 0.78630 1.03257
 H1366 H 0.73467 0.77640 1.00849
 H1367 H 0.70853 0.74338 0.99121
 H1368 H 0.69604 0.75380 0.96766
 H1369 H 0.75397 0.76113 0.97576
 H1370 H 0.78234 0.73534 0.98810
 H1371 H 0.79221 0.72355 0.96394
 H1372 H 0.74497 0.70613 0.95342
 H1373 H 0.73536 0.71746 0.97783
 H1374 H 0.76565 0.75534 1.02073
 H1375 H 0.77919 0.74792 1.04477
 H1376 H 0.77261 0.69699 1.03389
 H1377 H 0.75871 0.70457 1.01008
 H1378 H 0.74168 0.77121 0.95190
 C1379 C 0.75669 0.23896 0.50068
 C1380 C 0.74468 0.25017 0.50058
 C1381 C 0.73933 0.25839 0.51503
 C1382 C 0.73636 0.25508 0.48607
 C1383 C 0.76277 0.23148 0.48618
 C1384 C 0.76450 0.23367 0.51532
 C1385 C 0.72327 0.25770 0.51927
 C1386 C 0.71800 0.26527 0.53281
 C1387 C 0.72863 0.27393 0.54231
 C1388 C 0.74473 0.27476 0.53793
 C1389 C 0.74999 0.26716 0.52435
 C1390 C 0.72947 0.24357 0.47607
 C1391 C 0.72168 0.24857 0.46252
 C1392 C 0.72030 0.26525 0.45886
 C1393 C 0.72703 0.27668 0.46909
 C1394 C 0.73490 0.27166 0.48250
 C1395 C 0.76899 0.24109 0.47422
 C1396 C 0.77465 0.23382 0.46063
 C1397 C 0.77418 0.21682 0.45874
 C1398 C 0.76820 0.20723 0.47089
 C1399 C 0.76262 0.21450 0.48449
 C1400 C 0.78106 0.23491 0.51686
 C1401 C 0.78860 0.23020 0.53059
 C1402 C 0.77972 0.22410 0.54309
 C1403 C 0.76316 0.22246 0.54135
 C1404 C 0.75563 0.22720 0.52761
 H1405 H 0.71483 0.25115 0.51214
 H1406 H 0.70553 0.26445 0.53579
 H1407 H 0.75335 0.28102 0.54506
 H1408 H 0.76239 0.26808 0.52113
 H1409 H 0.73013 0.23071 0.47875
 H1410 H 0.71700 0.23930 0.45490
 H1411 H 0.73998 0.28077 0.49011
 H1412 H 0.76945 0.25420 0.47542
 H1413 H 0.77924 0.24153 0.45152
 H1414 H 0.76802 0.19409 0.47005
 H1415 H 0.75804 0.20688 0.49368
 H1416 H 0.78816 0.23967 0.50745
 H1417 H 0.80141 0.23107 0.53125
 H1418 H 0.75600 0.21761 0.55067
 H1419 H 0.74288 0.22583 0.52655
 H1420 H 0.72617 0.28961 0.46677
 C1421 C 0.74789 0.23903 0.00331
 C1422 C 0.75775 0.25217 0.00332
 C1423 C 0.76378 0.25950 -0.01126
 C1424 C 0.76282 0.26016 0.01794
 C1425 C 0.74236 0.23146 0.01799
 C1426 C 0.74191 0.23171 -0.01134
 C1427 C 0.77228 0.25021 -0.02213
 C1428 C 0.77766 0.25732 -0.03588
 C1429 C 0.77460 0.27384 -0.03902
 C1430 C 0.76644 0.28318 -0.02788
 C1431 C 0.76115 0.27609 -0.01415
 C1432 C 0.77905 0.26162 0.02132
 C1433 C 0.78402 0.26908 0.03503
 C1434 C 0.77287 0.27546 0.04553
 C1435 C 0.75657 0.27407 0.04205
 C1436 C 0.75161 0.26657 0.02833
 C1437 C 0.72602 0.23023 0.02088
 C1438 C 0.72053 0.22347 0.03472
 C1439 C 0.73128 0.21763 0.04592
 C1440 C 0.74770 0.21873 0.04290
 C1441 C 0.75318 0.22553 0.02904
 C1442 C 0.73393 0.24118 -0.02243
 C1443 C 0.72897 0.23424 -0.03640
 C1444 C 0.73159 0.21760 -0.03950
 C1445 C 0.73902 0.20803 -0.02803
 C1446 C 0.74412 0.21504 -0.01413
 H1447 H 0.77470 0.23745 -0.01998
 H1448 H 0.78404 0.24984 -0.04413
 H1449 H 0.76430 0.29604 -0.02962
 H1450 H 0.75482 0.28353 -0.00581
 H1451 H 0.78788 0.25683 0.01339
 H1452 H 0.79665 0.26997 0.03735
 H1453 H 0.73902 0.26571 0.02583
 H1454 H 0.71751 0.23475 0.01248
 H1455 H 0.70784 0.22269 0.03661
 H1456 H 0.75637 0.21462 0.05132
 H1457 H 0.76585 0.22627 0.02699
 H1458 H 0.73160 0.25396 -0.02029
 H1459 H 0.72314 0.24198 -0.04484
 H1460 H 0.74076 0.19510 -0.02960
 H1461 H 0.74994 0.20746 -0.00555
 H1462 H 0.74762 0.27852 0.05000
 C1463 C 0.75021 0.74071 0.50303
 C1464 C 0.76003 0.75385 0.50337
 C1465 C 0.76621 0.76125 0.48892
 C1466 C 0.76501 0.76158 0.51815
 C1467 C 0.74480 0.73260 0.51743
 C1468 C 0.74400 0.73402 0.48824
 C1469 C 0.77455 0.75186 0.47802
 C1470 C 0.78002 0.75891 0.46432
 C1471 C 0.77731 0.77551 0.46129
 C1472 C 0.76934 0.78498 0.47246
 C1473 C 0.76388 0.77790 0.48614
 C1474 C 0.78123 0.76354 0.52138
 C1475 C 0.78613 0.77072 0.53525
 C1476 C 0.77490 0.77631 0.54609
 C1477 C 0.75862 0.77445 0.54274
 C1478 C 0.75373 0.76725 0.52886
 C1479 C 0.72849 0.73094 0.52020
 C1480 C 0.72313 0.72380 0.53387
 C1481 C 0.73397 0.71797 0.54497
 C1482 C 0.75037 0.71936 0.54204
 C1483 C 0.75572 0.72656 0.52834
 C1484 C 0.73519 0.74381 0.47802
 C1485 C 0.72935 0.73733 0.46417
 C1486 C 0.73226 0.72097 0.46027
 C1487 C 0.74087 0.71114 0.47068
 C1488 C 0.74661 0.71760 0.48456
 H1489 H 0.77677 0.73905 0.48011
 H1490 H 0.78623 0.75133 0.45602
 H1491 H 0.76748 0.79789 0.47078
 H1492 H 0.75767 0.78540 0.49453
 H1493 H 0.79010 0.75934 0.51321
 H1494 H 0.79874 0.77202 0.53744
 H1495 H 0.74115 0.76604 0.52649
 H1496 H 0.71988 0.73546 0.51189
 H1497 H 0.71044 0.72283 0.53575
 H1498 H 0.75907 0.71528 0.55043
 H1499 H 0.76838 0.72758 0.52631
 H1500 H 0.73282 0.75644 0.48081
 H1501 H 0.72268 0.74517 0.45642
 H1502 H 0.74294 0.69838 0.46825
 H1503 H 0.75320 0.70981 0.49242
 H1504 H 0.74962 0.77828 0.55092
 C1505 C 0.99973 0.25500 0.24469
 C1506 C 0.99985 0.24316 0.25572
 C1507 C 1.01482 0.23512 0.26091
 C1508 C 0.98492 0.23795 0.26341
 C1509 C 0.98463 0.26068 0.23750
 C1510 C 1.01461 0.26282 0.23922
 C1511 C 1.02568 0.22863 0.25018
 C1512 C 1.03967 0.22104 0.25526
 C1513 C 1.04296 0.21959 0.27120
 C1514 C 1.03191 0.22595 0.28186
 C1515 C 1.01801 0.23357 0.27678
 C1516 C 0.98061 0.22149 0.26349
 C1517 C 0.96665 0.21653 0.27083
 C1518 C 0.95693 0.22791 0.27851
 C1519 C 0.96135 0.24441 0.27849
 C1520 C 0.97523 0.24937 0.27102
 C1521 C 0.98105 0.27736 0.23692
 C1522 C 0.96707 0.28279 0.22983
 C1523 C 0.95650 0.27167 0.22297
 C1524 C 0.96012 0.25495 0.22360
 C1525 C 0.97409 0.24953 0.23072
 C1526 C 1.02549 0.26956 0.24977
 C1527 C 1.03931 0.27713 0.24448
 C1528 C 1.04242 0.27826 0.22850
 C1529 C 1.03141 0.27161 0.21800
 C1530 C 1.01762 0.26406 0.22330
 H1531 H 1.02334 0.22946 0.23787
 H1532 H 1.04795 0.21662 0.24665
 H1533 H 1.03399 0.22503 0.29421
 H1534 H 1.00979 0.23841 0.28528
 H1535 H 0.98799 0.21250 0.25775
 H1536 H 0.96354 0.20375 0.27064
 H1537 H 0.97847 0.26211 0.27122
 H1538 H 0.98908 0.28616 0.24200
 H1539 H 0.96463 0.29574 0.22953
 H1540 H 0.95213 0.24599 0.21876
 H1541 H 0.97674 0.23662 0.23085
 H1542 H 1.02327 0.26896 0.26211
 H1543 H 1.04762 0.28181 0.25294
 H1544 H 1.03340 0.27232 0.20563
 H1545 H 1.00932 0.25906 0.21496
 H1546 H 0.95399 0.25354 0.28402
 C1547 C 0.50059 0.25272 0.74334
 C1548 C 0.50023 0.24317 0.75612
 C1549 C 0.51481 0.23639 0.76324
 C1550 C 0.48500 0.23895 0.76354
 C1551 C 0.48572 0.25857 0.73615
 C1552 C 0.51558 0.25736 0.73558
 C1553 C 0.51643 0.21949 0.76472
 C1554 C 0.53023 0.21277 0.77101
 C1555 C 0.54269 0.22286 0.77602
 C1556 C 0.54085 0.23985 0.77494
 C1557 C 0.52702 0.24657 0.76857
 C1558 C 0.47562 0.22631 0.75767
 C1559 C 0.46141 0.22219 0.76499
 C1560 C 0.45639 0.23060 0.77835
 C1561 C 0.46573 0.24353 0.78395
 C1562 C 0.47997 0.24757 0.77665
 C1563 C 0.47834 0.27284 0.74138
 C1564 C 0.46452 0.27849 0.73414
 C1565 C 0.45782 0.26991 0.72161
 C1566 C 0.46509 0.25527 0.71681
 C1567 C 0.47899 0.24976 0.72393
 C1568 C 0.51933 0.27387 0.73396
 C1569 C 0.53333 0.27854 0.72660
 C1570 C 0.54379 0.26680 0.72052
 C1571 C 0.53997 0.25022 0.72208
 C1572 C 0.52596 0.24554 0.72955
 H1573 H 0.50707 0.21145 0.76080
 H1574 H 0.53102 0.19967 0.77205
 H1575 H 0.55022 0.24792 0.77878
 H1576 H 0.52587 0.25968 0.76773
 H1577 H 0.47941 0.21955 0.74753
 H1578 H 0.45448 0.21222 0.76034
 H1579 H 0.48707 0.25749 0.78117
 H1580 H 0.48339 0.27966 0.75093
 H1581 H 0.45921 0.28973 0.73823
 H1582 H 0.46007 0.24789 0.70766
 H1583 H 0.48448 0.23855 0.71999
 H1584 H 0.51149 0.28318 0.73854
 H1585 H 0.53591 0.29141 0.72557
 H1586 H 0.54790 0.24084 0.71780
 H1587 H 0.52322 0.23272 0.73064
 H1588 H 0.46200 0.25067 0.79384
 C1589 C -0.00076 0.26280 0.73174
 C1590 C -0.00060 0.27360 0.74375
 C1591 C -0.01552 0.28028 0.75046
 C1592 C 0.01450 0.27919 0.75099
 C1593 C 0.01416 0.25648 0.72473
 C1594 C -0.01585 0.25634 0.72518
 C1595 C -0.02683 0.28833 0.74121
 C1596 C -0.04091 0.29431 0.74777
 C1597 C -0.04385 0.29246 0.76373
 C1598 C -0.03236 0.28459 0.77293
 C1599 C -0.01832 0.27868 0.76639
 C1600 C 0.01780 0.29588 0.75168
 C1601 C 0.03195 0.30143 0.75829
 C1602 C 0.04313 0.29037 0.76442
 C1603 C 0.03958 0.27365 0.76412
 C1604 C 0.02539 0.26811 0.75747
 C1605 C 0.01666 0.23963 0.72378
 C1606 C 0.03062 0.23341 0.71732
 C1607 C 0.04239 0.24390 0.71159
 C1608 C 0.03980 0.26083 0.71245
 C1609 C 0.02577 0.26704 0.71886
 C1610 C -0.02678 0.24805 0.73454
 C1611 C -0.04065 0.24156 0.72810
 C1612 C -0.04392 0.24326 0.71218
 C1613 C -0.03286 0.25149 0.70284
 C1614 C -0.01895 0.25788 0.70927
 H1615 H -0.02481 0.28988 0.72892
 H1616 H -0.04956 0.30004 0.74025
 H1617 H -0.03419 0.28305 0.78525
 H1618 H -0.00970 0.27261 0.77373
 H1619 H 0.00945 0.30464 0.74697
 H1620 H 0.03400 0.31442 0.75877
 H1621 H 0.02290 0.25518 0.75735
 H1622 H 0.00785 0.23126 0.72822
 H1623 H 0.03215 0.22033 0.71677
 H1624 H 0.04866 0.26936 0.70848
 H1625 H 0.02401 0.28010 0.71935
 H1626 H -0.02449 0.24647 0.74679
 H1627 H -0.04886 0.23521 0.73560
 H1628 H -0.03471 0.25268 0.69048
 H1629 H -0.01054 0.26403 0.70182
 H1630 H 0.04787 0.26485 0.76886
 C1631 C 0.50155 0.23689 0.25140
 C1632 C 0.50165 0.24709 0.26389
 C1633 C 0.48667 0.25346 0.27079
 C1634 C 0.51674 0.25252 0.27127
 C1635 C 0.51644 0.23238 0.24314
 C1636 C 0.48653 0.22985 0.24522
 C1637 C 0.47531 0.26158 0.26167
 C1638 C 0.46140 0.26771 0.26837
 C1639 C 0.45858 0.26589 0.28433
 C1640 C 0.47019 0.25808 0.29348
 C1641 C 0.48407 0.25196 0.28677
 C1642 C 0.51944 0.26917 0.27368
 C1643 C 0.53343 0.27446 0.28080
 C1644 C 0.54494 0.26320 0.28586
 C1645 C 0.54215 0.24649 0.28354
 C1646 C 0.52814 0.24120 0.27640
 C1647 C 0.52020 0.21593 0.24073
 C1648 C 0.53401 0.21152 0.23280
 C1649 C 0.54424 0.22347 0.22683
 C1650 C 0.54041 0.23998 0.22919
 C1651 C 0.52660 0.24438 0.23722
 C1652 C 0.47605 0.22131 0.25489
 C1653 C 0.46199 0.21474 0.24893
 C1654 C 0.45819 0.21642 0.23311
 C1655 C 0.46880 0.22488 0.22347
 C1656 C 0.48285 0.23142 0.22944
 H1657 H 0.47726 0.26324 0.24937
 H1658 H 0.45278 0.27379 0.26103
 H1659 H 0.46875 0.25692 0.30588
 H1660 H 0.49281 0.24599 0.29405
 H1661 H 0.51074 0.27809 0.26994
 H1662 H 0.53516 0.28740 0.28247
 H1663 H 0.52617 0.22828 0.27490
 H1664 H 0.51245 0.20648 0.24507
 H1665 H 0.53661 0.19871 0.23119
 H1666 H 0.54815 0.24953 0.22508
 H1667 H 0.52379 0.25716 0.23874
 H1668 H 0.47875 0.21977 0.26707
 H1669 H 0.45403 0.20860 0.25680
 H1670 H 0.46630 0.22635 0.21124
 H1671 H 0.49078 0.23789 0.22174
 H1672 H 0.55087 0.23747 0.28699
 C1673 C 1.00129 0.75720 0.74817
 C1674 C 1.00143 0.74847 0.76158
 C1675 C 1.01652 0.74354 0.76922
 C1676 C 0.98655 0.74275 0.76898
 C1677 C 0.98624 0.76265 0.74069
 C1678 C 1.01621 0.76175 0.74013
 C1679 C 1.01958 0.72698 0.77183
 C1680 C 1.03381 0.72202 0.77869
 C1681 C 1.04520 0.73353 0.78334
 C1682 C 1.04201 0.75017 0.78091
 C1683 C 1.02776 0.75512 0.77395
 C1684 C 0.97563 0.73325 0.76070
 C1685 C 0.96172 0.72785 0.76779
 C1686 C 0.95847 0.73176 0.78334
 C1687 C 0.96961 0.74103 0.79170
 C1688 C 0.98354 0.74642 0.78458
 C1689 C 0.97489 0.77182 0.74885
 C1690 C 0.96091 0.77698 0.74152
 C1691 C 0.95803 0.77313 0.72587
 C1692 C 0.96963 0.76427 0.71767
 C1693 C 0.98356 0.75910 0.72500
 C1694 C 1.01921 0.77818 0.73699
 C1695 C 1.03302 0.78274 0.72924
 C1696 C 1.04405 0.77096 0.72426
 C1697 C 1.04098 0.75445 0.72734
 C1698 C 1.02713 0.74988 0.73515
 H1699 H 1.01100 0.71787 0.76834
 H1700 H 1.03587 0.70913 0.78044
 H1701 H 1.05061 0.75935 0.78409
 H1702 H 1.02553 0.76798 0.77216
 H1703 H 0.97792 0.72997 0.74875
 H1704 H 0.95348 0.72061 0.76105
 H1705 H 0.99197 0.75353 0.79123
 H1706 H 0.97689 0.77506 0.76086
 H1707 H 0.95230 0.78392 0.74812
 H1708 H 0.96817 0.76154 0.70549
 H1709 H 0.99228 0.75228 0.71842
 H1710 H 1.01087 0.78750 0.74063
 H1711 H 1.03498 0.79555 0.72700
 H1712 H 1.04933 0.74506 0.72396
 H1713 H 1.02491 0.73711 0.73730
 H1714 H 0.96781 0.74386 0.80381
 C1715 C 0.50064 0.74661 0.23830
 C1716 C 0.50035 0.73412 0.24870
 C1717 C 0.51519 0.72692 0.25510
 C1718 C 0.48513 0.72727 0.25449
 C1719 C 0.48588 0.75266 0.23073
 C1720 C 0.51568 0.75482 0.23381
 C1721 C 0.52722 0.72101 0.24531
 C1722 C 0.54121 0.71447 0.25154
 C1723 C 0.54335 0.71352 0.26770
 C1724 C 0.53114 0.71925 0.27742
 C1725 C 0.51720 0.72578 0.27119
 C1726 C 0.48233 0.71046 0.25354
 C1727 C 0.46821 0.70384 0.25923
 C1728 C 0.45662 0.71390 0.26610
 C1729 C 0.45957 0.73071 0.26720
 C1730 C 0.47367 0.73732 0.26148
 C1731 C 0.48212 0.76929 0.23133
 C1732 C 0.46832 0.77518 0.22426
 C1733 C 0.45808 0.76458 0.21626
 C1734 C 0.46197 0.74792 0.21555
 C1735 C 0.47579 0.74204 0.22264
 C1736 C 0.52583 0.76169 0.24497
 C1737 C 0.53983 0.76955 0.24046
 C1738 C 0.54385 0.77081 0.22467
 C1739 C 0.53356 0.76400 0.21358
 C1740 C 0.51961 0.75620 0.21809
 H1741 H 0.52582 0.72157 0.23285
 H1742 H 0.55041 0.71052 0.24364
 H1743 H 0.53235 0.71866 0.28990
 H1744 H 0.50803 0.73018 0.27895
 H1745 H 0.49112 0.70247 0.24838
 H1746 H 0.46660 0.69080 0.25855
 H1747 H 0.47573 0.75028 0.26262
 H1748 H 0.48982 0.77771 0.23740
 H1749 H 0.46570 0.78807 0.22496
 H1750 H 0.45425 0.73933 0.20976
 H1751 H 0.47861 0.72919 0.22186
 H1752 H 0.52291 0.76097 0.25716
 H1753 H 0.54758 0.77435 0.24936
 H1754 H 0.53624 0.76479 0.20134
 H1755 H 0.51189 0.75109 0.20929
 H1756 H 0.45095 0.73879 0.27250
 C1757 C 0.00193 0.74602 0.23812
 C1758 C 0.00160 0.75944 0.24745
 C1759 C -0.01359 0.76645 0.25327
 C1760 C 0.01639 0.76736 0.25301
 C1761 C 0.01708 0.73804 0.23343
 C1762 C -0.01292 0.73842 0.23224
 C1763 C -0.01693 0.78305 0.25113
 C1764 C -0.03100 0.78987 0.25687
 C1765 C -0.04199 0.78021 0.26497
 C1766 C -0.03847 0.76362 0.26725
 C1767 C -0.02441 0.75684 0.26153
 C1768 C 0.02802 0.77292 0.24265
 C1769 C 0.04200 0.78003 0.24823
 C1770 C 0.04452 0.78183 0.26428
 C1771 C 0.03271 0.77644 0.27455
 C1772 C 0.01878 0.76937 0.26897
 C1773 C 0.02821 0.73264 0.24446
 C1774 C 0.04229 0.72498 0.23976
 C1775 C 0.04541 0.72234 0.22392
 C1776 C 0.03410 0.72762 0.21297
 C1777 C 0.02010 0.73530 0.21768
 C1778 C -0.01554 0.72178 0.23471
 C1779 C -0.02956 0.71447 0.22961
 C1780 C -0.04127 0.72367 0.22187
 C1781 C -0.03837 0.74024 0.21897
 C1782 C -0.02432 0.74755 0.22409
 H1783 H -0.00859 0.79074 0.24503
 H1784 H -0.03299 0.80277 0.25526
 H1785 H -0.04659 0.75585 0.27351
 H1786 H -0.02189 0.74409 0.26365
 H1787 H 0.02633 0.77162 0.23027
 H1788 H 0.05092 0.78376 0.23997
 H1789 H 0.00994 0.76520 0.27716
 H1790 H 0.02600 0.73438 0.25671
 H1791 H 0.05078 0.72142 0.24856
 H1792 H 0.03604 0.72576 0.20070
 H1793 H 0.01162 0.73924 0.20898
 H1794 H -0.00678 0.71446 0.24076
 H1795 H -0.03108 0.70157 0.23158
 H1796 H -0.04707 0.74762 0.21291
 H1797 H -0.02237 0.76034 0.22177
 H1798 H 0.03422 0.77770 0.28695
 C1799 C 0.49962 0.73531 0.75126
 C1800 C 0.49962 0.74791 0.76154
 C1801 C 0.48468 0.75431 0.76835
 C1802 C 0.51452 0.75600 0.76659
 C1803 C 0.51458 0.72860 0.74473
 C1804 C 0.48465 0.72785 0.74558
 C1805 C 0.47276 0.76123 0.75904
 C1806 C 0.45877 0.76718 0.76576
 C1807 C 0.45645 0.76625 0.78187
 C1808 C 0.46857 0.75953 0.79115
 C1809 C 0.48255 0.75369 0.78444
 C1810 C 0.51629 0.77280 0.76433
 C1811 C 0.53019 0.78070 0.76895
 C1812 C 0.54263 0.77194 0.77603
 C1813 C 0.54069 0.75513 0.77852
 C1814 C 0.52677 0.74723 0.77386
 C1815 C 0.51818 0.71208 0.74683
 C1816 C 0.53224 0.70549 0.74092
 C1817 C 0.54296 0.71531 0.73266
 C1818 C 0.53911 0.73180 0.73024
 C1819 C 0.52505 0.73839 0.73622
 C1820 C 0.47371 0.72063 0.75572
 C1821 C 0.45949 0.71411 0.75003
 C1822 C 0.45603 0.71461 0.73406
 C1823 C 0.46718 0.72163 0.72398
 C1824 C 0.48135 0.72807 0.72966
 H1825 H 0.47431 0.76202 0.74661
 H1826 H 0.44971 0.77240 0.75833
 H1827 H 0.46741 0.75904 0.80362
 H1828 H 0.49172 0.74855 0.79181
 H1829 H 0.50687 0.77981 0.75890
 H1830 H 0.53100 0.79372 0.76725
 H1831 H 0.52553 0.73431 0.77596
 H1832 H 0.51011 0.70429 0.75316
 H1833 H 0.53453 0.69265 0.74260
 H1834 H 0.54704 0.73964 0.72382
 H1835 H 0.52231 0.75111 0.73421
 H1836 H 0.47612 0.72020 0.76804
 H1837 H 0.45109 0.70905 0.75818
 H1838 H 0.46495 0.72214 0.71163
 H1839 H 0.48967 0.73352 0.72164
 H1840 H 0.54999 0.74804 0.78403
 C1841 C 0.41626 0.28501 0.30412
 C1842 C 0.42279 0.29190 0.29072
 N1843 N 0.41551 0.30490 0.28404
 C1844 C 0.40198 0.31134 0.29017
 C1845 C 0.39540 0.30448 0.30365
 N1846 N 0.40279 0.29143 0.31025
 N1847 N 0.42345 0.27196 0.31076
 C1848 C 0.43698 0.26552 0.30469
 C1849 C 0.44374 0.27247 0.29131
 N1850 N 0.43631 0.28549 0.28463
 H1851 H 0.39649 0.32170 0.28457
 H1852 H 0.44218 0.25493 0.31015
 C1853 C 0.41442 0.78550 0.80205
 C1854 C 0.42068 0.79213 0.78841
 N1855 N 0.41336 0.80507 0.78172
 C1856 C 0.40007 0.81176 0.78805
 C1857 C 0.39371 0.80520 0.80181
 N1858 N 0.40115 0.79215 0.80840
 N1859 N 0.42175 0.77256 0.80875
 C1860 C 0.43517 0.76602 0.80251
 C1861 C 0.44164 0.77275 0.78890
 N1862 N 0.43407 0.78562 0.78216
 H1863 H 0.39465 0.82208 0.78233
 H1864 H 0.44057 0.75557 0.80805
 C1865 C -0.08657 0.30856 0.78515
 C1866 C -0.07801 0.29521 0.79094
 N1867 N -0.08333 0.28730 0.80367
 C1868 C -0.09685 0.29214 0.81096
 C1869 C -0.10548 0.30561 0.80531
 N1870 N -0.10007 0.31348 0.79245
 N1871 N -0.08115 0.31645 0.77240
 C1872 C -0.06757 0.31158 0.76516
 C1873 C -0.05891 0.29817 0.77094
 N1874 N -0.06445 0.29039 0.78377
 H1875 H -0.10070 0.28551 0.82107
 H1876 H -0.06346 0.31835 0.75521
 C1877 C -0.08392 0.79996 0.28515
 C1878 C -0.07660 0.78597 0.29117
 N1879 N -0.08287 0.77857 0.30376
 C1880 C -0.09612 0.78455 0.31070
 C1881 C -0.10352 0.79867 0.30482
 N1882 N -0.09720 0.80601 0.29208
 N1883 N -0.07759 0.80726 0.27248
 C1884 C -0.06421 0.80126 0.26564
 C1885 C -0.05672 0.78728 0.27176
 N1886 N -0.06329 0.78000 0.28438
 H1887 H -0.10075 0.77824 0.32068
 H1888 H -0.05969 0.80725 0.25542
 C1889 C 0.58597 0.69584 0.28820
 C1890 C 0.57615 0.70695 0.29599
 N1891 N 0.58029 0.71226 0.31032
 C1892 C 0.59389 0.70698 0.31723
 C1893 C 0.60386 0.69588 0.30944
 N1894 N 0.59958 0.69057 0.29507
 N1895 N 0.58174 0.69051 0.27389
 C1896 C 0.56816 0.69587 0.26695
 C1897 C 0.55830 0.70717 0.27467
 N1898 N 0.56262 0.71231 0.28909
 H1899 H 0.59681 0.71149 0.32865
 H1900 H 0.56505 0.69110 0.25568
 C1901 C 0.58532 0.20301 0.79422
 C1902 C 0.57956 0.21808 0.79943
 N1903 N 0.58778 0.22641 0.81041
 C1904 C 0.60155 0.22035 0.81639
 C1905 C 0.60739 0.20526 0.81113
 N1906 N 0.59904 0.19699 0.80015
 N1907 N 0.57717 0.19466 0.78324
 C1908 C 0.56344 0.20069 0.77722
 C1909 C 0.55753 0.21581 0.78241
 N1910 N 0.56586 0.22415 0.79340
 H1911 H 0.60782 0.22727 0.82513
 H1912 H 0.55741 0.19384 0.76827
 C1913 C 1.08772 0.71612 0.80412
 C1914 C 1.07964 0.70695 0.79290
 N1915 N 1.08525 0.69207 0.78882
 C1916 C 1.09854 0.68582 0.79554
 C1917 C 1.10659 0.69483 0.80699
 N1918 N 1.10095 0.70985 0.81095
 N1919 N 1.08203 0.73101 0.80817
 C1920 C 1.06858 0.73713 0.80154
 C1921 C 1.06032 0.72787 0.79040
 N1922 N 1.06618 0.71297 0.78640
 H1923 H 1.10261 0.67390 0.79200
 H1924 H 1.06422 0.74890 0.80527
 C1925 C 1.08546 0.19850 0.28899
 C1926 C 1.07658 0.20980 0.29758
 N1927 N 1.08149 0.21417 0.31193
 C1928 C 1.09496 0.20781 0.31814
 C1929 C 1.10405 0.19651 0.30959
 N1930 N 1.09899 0.19209 0.29516
 N1931 N 1.08036 0.19415 0.27463
 C1932 C 1.06683 0.20064 0.26846
 C1933 C 1.05792 0.21208 0.27706
 N1934 N 1.06314 0.21625 0.29146
 H1935 H 1.09841 0.21157 0.32965
 H1936 H 1.06302 0.19664 0.25712
 C1937 C 0.58598 0.28321 0.69884
 C1938 C 0.57904 0.29194 0.71105
 N1939 N 0.58574 0.30602 0.71596
 C1940 C 0.59912 0.31183 0.70916
 C1941 C 0.60612 0.30320 0.69682
 N1942 N 0.59931 0.28904 0.69197
 N1943 N 0.57920 0.26913 0.69396
 C1944 C 0.56575 0.26338 0.70076
 C1945 C 0.55869 0.27216 0.71299
 N1946 N 0.56560 0.28628 0.71776
 H1947 H 0.60407 0.32314 0.71334
 H1948 H 0.56048 0.25229 0.69640
 C1949 C 0.58622 0.79333 0.20877
 C1950 C 0.57889 0.78083 0.20034
 N1951 N 0.58526 0.77582 0.18674
 C1952 C 0.59870 0.78274 0.18112
 C1953 C 0.60616 0.79535 0.18945
 N1954 N 0.59966 0.80034 0.20314
 N1955 N 0.57970 0.79829 0.22237
 C1956 C 0.56620 0.79129 0.22794
 C1957 C 0.55879 0.77872 0.21947
 N1958 N 0.56543 0.77391 0.20583
 H1959 H 0.60335 0.77843 0.17020
 H1960 H 0.56120 0.79577 0.23866
 C1961 C 1.08442 0.29965 0.21060
 C1962 C 1.07631 0.28745 0.20246
 N1963 N 1.08189 0.28232 0.18856
 C1964 C 1.09527 0.28882 0.18240
 C1965 C 1.10353 0.30104 0.19051
 N1966 N 1.09782 0.30618 0.20447
 N1967 N 1.07874 0.30476 0.22450
 C1968 C 1.06534 0.29816 0.23066
 C1969 C 1.05718 0.28584 0.22253
 N1970 N 1.06297 0.28090 0.20856
 H1971 H 1.09932 0.28442 0.17128
 H1972 H 1.06101 0.30275 0.24161
 C1973 C 1.08521 0.78749 0.70074
 C1974 C 1.07747 0.79722 0.71177
 N1975 N 1.08293 0.81238 0.71482
 C1976 C 1.09578 0.81836 0.70727
 C1977 C 1.10355 0.80876 0.69605
 N1978 N 1.09804 0.79347 0.69310
 N1979 N 1.07960 0.77233 0.69771
 C1980 C 1.06658 0.76648 0.70519
 C1981 C 1.05870 0.77628 0.71620
 N1982 N 1.06447 0.79144 0.71914
 H1983 H 1.09971 0.83054 0.70999
 H1984 H 1.06225 0.75449 0.70224
 C1985 C 0.41282 0.69722 0.71469
 C1986 C 0.42123 0.71004 0.70785
 N1987 N 0.41563 0.71701 0.69470
 C1988 C 0.40195 0.71177 0.68802
 C1989 C 0.39343 0.69886 0.69475
 N1990 N 0.39915 0.69187 0.70798
 N1991 N 0.41851 0.69032 0.72788
 C1992 C 0.43224 0.69565 0.73455
 C1993 C 0.44077 0.70849 0.72765
 N1994 N 0.43493 0.71528 0.71442
 H1995 H 0.39793 0.71758 0.67749
 H1996 H 0.43656 0.68969 0.74489
 C1997 C 0.41571 0.19768 0.21328
 C1998 C 0.42341 0.21121 0.20689
 N1999 N 0.41735 0.21841 0.19405
 C2000 C 0.40391 0.21269 0.18723
 C2001 C 0.39612 0.19906 0.19352
 N2002 N 0.40227 0.19191 0.20647
 N2003 N 0.42190 0.19046 0.22609
 C2004 C 0.43543 0.19618 0.23284
 C2005 C 0.44321 0.20980 0.22647
 N2006 N 0.43690 0.21689 0.21358
 H2007 H 0.39948 0.21877 0.17699
 H2008 H 0.44016 0.18991 0.24285
 C2009 C -0.08425 0.70214 0.20636
 C2010 C -0.07777 0.71559 0.19867
 N2011 N -0.08528 0.72172 0.18602
 C2012 C -0.09898 0.71497 0.18067
 C2013 C -0.10550 0.70143 0.18832
 N2014 N -0.09790 0.69538 0.20103
 N2015 N -0.07679 0.69604 0.21904
 C2016 C -0.06304 0.70269 0.22433
 C2017 C -0.05633 0.71609 0.21656
 N2018 N -0.06403 0.72225 0.20393
 H2019 H -0.10462 0.72014 0.17054
 H2020 H -0.05761 0.69767 0.23464
 C2021 C -0.08537 0.22140 0.69319
 C2022 C -0.07797 0.21502 0.70644
 N2023 N -0.08399 0.20152 0.71324
 C2024 C -0.09706 0.19403 0.70738
 C2025 C -0.10453 0.20029 0.69402
 N2026 N -0.09845 0.21392 0.68728
 N2027 N -0.07930 0.23493 0.68643
 C2028 C -0.06609 0.24230 0.69224
 C2029 C -0.05851 0.23584 0.70547
 N2030 N -0.06481 0.22236 0.71225
 H2031 H -0.10146 0.18329 0.71314
 H2032 H -0.06174 0.25319 0.68667
 C2033 C 0.30023 0.41235 0.28712
 C2034 C 0.28731 0.42007 0.29428
 N2035 N 0.28130 0.41384 0.30759
 C2036 C 0.28767 0.40023 0.31411
 C2037 C 0.30071 0.39247 0.30702
 N2038 N 0.30664 0.39879 0.29363
 N2039 N 0.30628 0.41864 0.27386
 C2040 C 0.29998 0.43231 0.26739
 C2041 C 0.28698 0.44017 0.27452
 N2042 N 0.28104 0.43375 0.28788
 H2043 H 0.28262 0.39562 0.32474
 H2044 H 0.30537 0.43713 0.25701
 C2045 C 0.30124 -0.08602 0.78441
 C2046 C 0.28778 -0.07882 0.79110
 N2047 N 0.28129 -0.08548 0.80397
 C2048 C 0.28769 -0.09902 0.81055
 C2049 C 0.30133 -0.10629 0.80399
 N2050 N 0.30770 -0.09953 0.79098
 N2051 N 0.30775 -0.07925 0.77158
 C2052 C 0.30142 -0.06557 0.76512
 C2053 C 0.28788 -0.05824 0.77182
 N2054 N 0.28148 -0.06518 0.78471
 H2055 H 0.28214 -0.10389 0.82082
 H2056 H 0.30717 -0.06036 0.75511
 C2057 C 0.79514 0.41032 0.79384
 C2058 C 0.78197 0.41699 0.80150
 N2059 N 0.77661 0.40992 0.81468
 C2060 C 0.78385 0.39649 0.82061
 C2061 C 0.79722 0.38976 0.81307
 N2062 N 0.80247 0.39694 0.79978
 N2063 N 0.80051 0.41744 0.78067
 C2064 C 0.79329 0.43096 0.77481
 C2065 C 0.78006 0.43776 0.78249
 N2066 N 0.77481 0.43051 0.79572
 H2067 H 0.77919 0.39128 0.83115
 H2068 H 0.79812 0.43649 0.76449
 C2069 C 0.79922 -0.09188 0.29275
 C2070 C 0.78672 -0.08485 0.30115
 N2071 N 0.78213 -0.09156 0.31473
 C2072 C 0.78948 -0.10503 0.32039
 C2073 C 0.80217 -0.11221 0.31211
 N2074 N 0.80669 -0.10535 0.29840
 N2075 N 0.80375 -0.08502 0.27914
 C2076 C 0.79633 -0.07144 0.27358
 C2077 C 0.78380 -0.06429 0.28207
 N2078 N 0.77940 -0.07131 0.29568
 H2079 H 0.78539 -0.10988 0.33129
 H2080 H 0.80045 -0.06614 0.26287
 C2081 C 0.29798 0.58921 0.70650
 C2082 C 0.28495 0.58232 0.69878
 N2083 N 0.27936 0.58938 0.68565
 C2084 C 0.28622 0.60303 0.67985
 C2085 C 0.29934 0.60999 0.68752
 N2086 N 0.30487 0.60284 0.70073
 N2087 N 0.30354 0.58215 0.71965
 C2088 C 0.29675 0.56841 0.72537
 C2089 C 0.28377 0.56130 0.71755
 N2090 N 0.27817 0.56862 0.70446
 H2091 H 0.28144 0.60829 0.66936
 H2092 H 0.30133 0.56328 0.73601
 C2093 C 0.30167 1.08966 0.21035
 C2094 C 0.28859 1.08227 0.20315
 N2095 N 0.28256 1.08881 0.18995
 C2096 C 0.28905 1.10239 0.18358
 C2097 C 0.30225 1.10981 0.19070
 N2098 N 0.30819 1.10320 0.20399
 N2099 N 0.30770 1.08313 0.22354
 C2100 C 0.30136 1.06943 0.22980
 C2101 C 0.28837 1.06177 0.22249
 N2102 N 0.28225 1.06857 0.20936
 H2103 H 0.28394 1.10721 0.17303
 H2104 H 0.30634 1.06473 0.24045
 C2105 C 0.78681 0.58675 0.20247
 C2106 C 0.79388 0.58034 0.21586
 N2107 N 0.80714 0.58744 0.22173
 C2108 C 0.81370 0.60068 0.21478
 C2109 C 0.80670 0.60707 0.20127
 N2110 N 0.79338 0.59988 0.19550
 N2111 N 0.77360 0.57966 0.19653
 C2112 C 0.76707 0.56640 0.20340
 C2113 C 0.77408 0.55985 0.21687
 N2114 N 0.78742 0.56704 0.22270
 H2115 H 0.82430 0.60602 0.21971
 H2116 H 0.75674 0.56087 0.19814
 C2117 C 0.78714 1.08645 0.70263
 C2118 C 0.79502 1.07900 0.71508
 N2119 N 0.80896 1.08527 0.72025
 C2120 C 0.81543 1.09866 0.71351
 C2121 C 0.80762 1.10611 0.70092
 N2122 N 0.79360 1.09976 0.69584
 N2123 N 0.77323 1.08016 0.69742
 C2124 C 0.76680 1.06674 0.70410
 C2125 C 0.77465 1.05915 0.71661
 N2126 N 0.78866 1.06554 0.72171
 H2127 H 0.82657 1.10330 0.71789
 H2128 H 0.75586 1.06188 0.69943
 C2129 C 0.69803 0.58897 0.29194
 C2130 C 0.71171 0.58195 0.29843
 N2131 N 0.71885 0.58923 0.31070
 C2132 C 0.71292 0.60325 0.31682
 C2133 C 0.69919 0.61037 0.31035
 N2134 N 0.69210 0.60298 0.29801
 N2135 N 0.69093 0.58170 0.27963
 C2136 C 0.69684 0.56765 0.27355
 C2137 C 0.71054 0.56046 0.28008
 N2138 N 0.71764 0.56795 0.29236
 H2139 H 0.71894 0.60872 0.32659
 H2140 H 0.69102 0.56237 0.26357
 C2141 C 0.71102 1.08805 0.80329
 C2142 C 0.70370 1.08260 0.78965
 N2143 N 0.69137 1.09110 0.78358
 C2144 C 0.68590 1.10481 0.79055
 C2145 C 0.69297 1.11031 0.80445
 N2146 N 0.70546 1.10170 0.81044
 N2147 N 0.72345 1.07949 0.80924
 C2148 C 0.72885 1.06571 0.80216
 C2149 C 0.72137 1.06013 0.78853
 N2150 N 0.70894 1.06882 0.78269
 H2151 H 0.67599 1.11110 0.78527
 H2152 H 0.73859 1.05901 0.80732
 C2153 C 0.19888 0.58820 0.78690
 C2154 C 0.21336 0.58182 0.79220
 N2155 N 0.22079 0.58884 0.80444
 C2156 C 0.21433 0.60195 0.81172
 C2157 C 0.19966 0.60827 0.80659
 N2158 N 0.19233 0.60121 0.79422
 N2159 N 0.19154 0.58122 0.77456
 C2160 C 0.19794 0.56799 0.76740
 C2161 C 0.21233 0.56126 0.77291
 N2162 N 0.21969 0.56855 0.78515
 H2163 H 0.22052 0.60718 0.82150
 H2164 H 0.19187 0.56296 0.75745
 C2165 C 0.20290 1.08906 0.28880
 C2166 C 0.21720 1.08339 0.29524
 N2167 N 0.22385 1.09145 0.30730
 C2168 C 0.21680 1.10491 0.31334
 C2169 C 0.20234 1.11062 0.30707
 N2170 N 0.19578 1.10252 0.29485
 N2171 N 0.19634 1.08094 0.27668
 C2172 C 0.20336 1.06731 0.27081
 C2173 C 0.21761 1.06142 0.27741
 N2174 N 0.22417 1.06981 0.28943
 H2175 H 0.22250 1.11098 0.32296
 H2176 H 0.19791 1.06132 0.26099
 C2177 C 0.69808 0.41140 0.71044
 C2178 C 0.71082 0.41952 0.70347
 N2179 N 0.71683 0.41383 0.68990
 C2180 C 0.71065 0.40036 0.68296
 C2181 C 0.69782 0.39222 0.68992
 N2182 N 0.69189 0.39803 0.70352
 N2183 N 0.69201 0.41705 0.72396
 C2184 C 0.69815 0.43048 0.73092
 C2185 C 0.71099 0.43870 0.72404
 N2186 N 0.71694 0.43297 0.71037
 H2187 H 0.71568 0.39615 0.67215
 H2188 H 0.69279 0.43482 0.74153
 C2189 C 0.69572 -0.09033 0.21451
 C2190 C 0.70715 -0.08119 0.20659
 N2191 N 0.71163 -0.08569 0.19213
 C2192 C 0.70526 -0.09900 0.18521
 C2193 C 0.69382 -0.10833 0.19309
 N2194 N 0.68929 -0.10368 0.20761
 N2195 N 0.69127 -0.08569 0.22898
 C2196 C 0.69778 -0.07236 0.23590
 C2197 C 0.70932 -0.06317 0.22797
 N2198 N 0.71360 -0.06792 0.21344
 H2199 H 0.70911 -0.10212 0.17365
 H2200 H 0.69372 -0.06889 0.24731
 C2201 C 0.21371 0.41299 0.19689
 C2202 C 0.20739 0.41852 0.21098
 N2203 N 0.19542 0.41015 0.21776
 C2204 C 0.18938 0.39653 0.21106
 C2205 C 0.19555 0.39096 0.19683
 N2206 N 0.20767 0.39937 0.19013
 N2207 N 0.22572 0.42139 0.19016
 C2208 C 0.23158 0.43516 0.19680
 C2209 C 0.22511 0.44091 0.21085
 N2210 N 0.21321 0.43225 0.21760
 H2211 H 0.17986 0.39021 0.21686
 H2212 H 0.24132 0.44138 0.19121
 C2213 C 0.21350 -0.08322 0.69210
 C2214 C 0.20638 -0.07619 0.70519
 N2215 N 0.19290 -0.08270 0.71104
 C2216 C 0.18611 -0.09594 0.70436
 C2217 C 0.19312 -0.10306 0.69117
 N2218 N 0.20675 -0.09650 0.68540
 N2219 N 0.22701 -0.07661 0.68629
 C2220 C 0.23366 -0.06322 0.69294
 C2221 C 0.22648 -0.05606 0.70604
 N2222 N 0.21302 -0.06289 0.71182
 H2223 H 0.17539 -0.10080 0.70940
 H2224 H 0.24455 -0.05841 0.68815
 C2225 C 0.28925 0.29744 0.41491
 C2226 C 0.29815 0.28541 0.42254
 N2227 N 0.31224 0.28047 0.41651
 C2228 C 0.31788 0.28702 0.40316
 C2229 C 0.30907 0.29918 0.39547
 N2230 N 0.29490 0.30408 0.40161
 N2231 N 0.27515 0.30235 0.42100
 C2232 C 0.26954 0.29577 0.43438
 C2233 C 0.27848 0.28371 0.44214
 N2234 N 0.29263 0.27892 0.43592
 H2235 H 0.32919 0.28282 0.39876
 H2236 H 0.25842 0.30020 0.43904
 C2237 C 0.28807 0.80641 -0.08602
 C2238 C 0.29499 0.79306 -0.07845
 N2239 N 0.30806 0.78582 -0.08463
 C2240 C 0.31455 0.79134 -0.09806
 C2241 C 0.30764 0.80475 -0.10570
 N2242 N 0.29453 0.81192 -0.09940
 N2243 N 0.27506 0.81371 -0.07983
 C2244 C 0.26855 0.80821 -0.06642
 C2245 C 0.27536 0.79473 -0.05877
 N2246 N 0.28852 0.78757 -0.06503
 H2247 H 0.32496 0.78530 -0.10267
 H2248 H 0.25837 0.81456 -0.06170
 C2249 C 0.79087 0.29507 -0.08090
 C2250 C 0.79889 0.28180 -0.07427
 N2251 N 0.81213 0.27582 -0.08125
 C2252 C 0.81775 0.28255 -0.09456
 C2253 C 0.80976 0.29592 -0.10122
 N2254 N 0.79646 0.30179 -0.09416
 N2255 N 0.77762 0.30104 -0.07398
 C2256 C 0.77206 0.29445 -0.06062
 C2257 C 0.78016 0.28124 -0.05374
 N2258 N 0.79337 0.27519 -0.06091
 H2259 H 0.82835 0.27751 -0.09978
 H2260 H 0.76130 0.29937 -0.05560
 C2261 C 0.79422 0.79598 0.41938
 C2262 C 0.80186 0.78256 0.42616
 N2263 N 0.81490 0.77605 0.41926
 C2264 C 0.82067 0.78237 0.40585
 C2265 C 0.81305 0.79586 0.39901
 N2266 N 0.79996 0.80230 0.40601
 N2267 N 0.78116 0.80245 0.42625
 C2268 C 0.77542 0.79619 0.43969
 C2269 C 0.78312 0.78279 0.44665
 N2270 N 0.79615 0.77629 0.43956
 H2271 H 0.83110 0.77690 0.40069
 H2272 H 0.76481 0.80148 0.44466
 C2273 C 0.71083 0.29613 0.58325
 C2274 C 0.70358 0.28230 0.57692
 N2275 N 0.69056 0.27593 0.58387
 C2276 C 0.68441 0.28279 0.59690
 C2277 C 0.69161 0.29670 0.60332
 N2278 N 0.70469 0.30302 0.59626
 N2279 N 0.72381 0.30251 0.57623
 C2280 C 0.72992 0.29566 0.56316
 C2281 C 0.72271 0.28172 0.55674
 N2282 N 0.70963 0.27548 0.56387
 H2283 H 0.67401 0.27739 0.60210
 H2284 H 0.74007 0.30130 0.55772
 C2285 C 0.69848 0.78093 1.08353
 C2286 C 0.71023 0.78955 1.07551
 N2287 N 0.71523 0.80413 1.08103
 C2288 C 0.70900 0.81052 1.09424
 C2289 C 0.69715 0.80196 1.10230
 N2290 N 0.69219 0.78732 1.09667
 N2291 N 0.69351 0.76633 1.07800
 C2292 C 0.69978 0.75993 1.06481
 C2293 C 0.71157 0.76855 1.05668
 N2294 N 0.71643 0.78322 1.06231
 H2295 H 0.71323 0.82219 1.09826
 H2296 H 0.69533 0.74841 1.06059
 C2297 C 0.21161 0.30085 1.08227
 C2298 C 0.20519 0.28613 1.07697
 N2299 N 0.19356 0.27877 1.08517
 C2300 C 0.18790 0.28551 1.09842
 C2301 C 0.19411 0.30041 1.10379
 N2302 N 0.20596 0.30768 1.09556
 N2303 N 0.22333 0.30808 1.07398
 C2304 C 0.22880 0.30133 1.06056
 C2305 C 0.22221 0.28662 1.05509
 N2306 N 0.21060 0.27942 1.06362
 H2307 H 0.17866 0.27918 1.10462
 H2308 H 0.23833 0.30731 1.05444
 C2309 C 0.21089 0.80191 0.58412
 C2310 C 0.20377 0.78832 0.57719
 N2311 N 0.19106 0.78126 0.58409
 C2312 C 0.18507 0.78723 0.59759
 C2313 C 0.19208 0.80098 0.60452
 N2314 N 0.20490 0.80792 0.59756
 N2315 N 0.22363 0.80893 0.57727
 C2316 C 0.22952 0.80308 0.56369
 C2317 C 0.22228 0.78957 0.55650
 N2318 N 0.20961 0.78248 0.56361
 H2319 H 0.17489 0.78134 0.60272
 H2320 H 0.23988 0.80882 0.55875
 C2321 C 0.28951 0.70590 0.58189
 C2322 C 0.29668 0.71987 0.57579
 N2323 N 0.30922 0.72663 0.58330
 C2324 C 0.31493 0.72005 0.59666
 C2325 C 0.30779 0.70600 0.60281
 N2326 N 0.29521 0.69930 0.59520
 N2327 N 0.27690 0.69921 0.57447
 C2328 C 0.27118 0.70578 0.56111
 C2329 C 0.27846 0.71970 0.55478
 N2330 N 0.29102 0.72642 0.56244
 H2331 H 0.32496 0.72572 0.60231
 H2332 H 0.26091 0.70028 0.55572
 C2333 C 0.28940 0.20210 1.08202
 C2334 C 0.29692 0.21532 1.07489
 N2335 N 0.31026 0.22165 1.08134
 C2336 C 0.31645 0.21534 1.09462
 C2337 C 0.30896 0.20205 1.10182
 N2338 N 0.29557 0.19578 1.09527
 N2339 N 0.27605 0.19579 1.07560
 C2340 C 0.26991 0.20201 1.06228
 C2341 C 0.27749 0.21519 1.05493
 N2342 N 0.29081 0.22157 1.06158
 H2343 H 0.32712 0.22067 1.09940
 H2344 H 0.25910 0.19682 1.05766
 C2345 C 0.79915 0.70710 1.08321
 C2346 C 0.78756 0.69745 1.07604
 N2347 N 0.78321 0.68316 1.08260
 C2348 C 0.78992 0.67806 1.09609
 C2349 C 0.80155 0.68770 1.10339
 N2350 N 0.80588 0.70202 1.09668
 N2351 N 0.80348 0.72139 1.07659
 C2352 C 0.79669 0.72652 1.06312
 C2353 C 0.78496 0.71690 1.05590
 N2354 N 0.78080 0.70254 1.06262
 H2355 H 0.78617 0.66659 1.10097
 H2356 H 0.80064 0.73782 1.05804
 C2357 C 0.80192 0.20888 0.58491
 C2358 C 0.78766 0.20185 0.57985
 N2359 N 0.78090 0.18984 0.58831
 C2360 C 0.78777 0.18449 0.60164
 C2361 C 0.80211 0.19148 0.60681
 N2362 N 0.80881 0.20358 0.59825
 N2363 N 0.80864 0.22092 0.57641
 C2364 C 0.80180 0.22615 0.56300
 C2365 C 0.78756 0.21899 0.55775
 N2366 N 0.78084 0.20705 0.56648
 H2367 H 0.78199 0.17491 0.60805
 H2368 H 0.80735 0.23597 0.55669
 C2369 C 0.71383 0.70178 0.41832
 C2370 C 0.70572 0.71407 0.42640
 N2371 N 0.69169 0.71978 0.42080
 C2372 C 0.68537 0.71374 0.40747
 C2373 C 0.69348 0.70142 0.39931
 N2374 N 0.70757 0.69578 0.40500
 N2375 N 0.72783 0.69603 0.42394
 C2376 C 0.73407 0.70194 0.43735
 C2377 C 0.72594 0.71423 0.44557
 N2378 N 0.71195 0.72004 0.43975
 H2379 H 0.67418 0.71859 0.40333
 H2380 H 0.74536 0.69724 0.44138
 C2381 C 0.71518 0.19813 -0.08233
 C2382 C 0.70913 0.21278 -0.07639
 N2383 N 0.69790 0.22108 -0.08443
 C2384 C 0.69241 0.21544 -0.09822
 C2385 C 0.69837 0.20070 -0.10427
 N2386 N 0.70964 0.19237 -0.09609
 N2387 N 0.72662 0.19002 -0.07431
 C2388 C 0.73222 0.19585 -0.06057
 C2389 C 0.72602 0.21050 -0.05444
 N2390 N 0.71463 0.21854 -0.06269
 H2391 H 0.68338 0.22237 -0.10423
 H2392 H 0.74158 0.18919 -0.05477
 C2393 C 0.19751 0.71986 -0.08428
 C2394 C 0.21148 0.71340 -0.07784
 N2395 N 0.21879 0.70063 -0.08481
 C2396 C 0.21275 0.69396 -0.09796
 C2397 C 0.19869 0.70033 -0.10448
 N2398 N 0.19143 0.71321 -0.09742
 N2399 N 0.19025 0.73267 -0.07727
 C2400 C 0.19628 0.73926 -0.06404
 C2401 C 0.21024 0.73270 -0.05743
 N2402 N 0.21749 0.71995 -0.06466
 H2403 H 0.21892 0.68377 -0.10315
 H2404 H 0.19032 0.74964 -0.05894
 C2405 C 0.21442 0.19937 0.41711
 C2406 C 0.20621 0.21142 0.42540
 N2407 N 0.19211 0.21711 0.41996
 C2408 C 0.18580 0.21127 0.40656
 C2409 C 0.19396 0.19912 0.39821
 N2410 N 0.20812 0.19349 0.40375
 N2411 N 0.22851 0.19369 0.42259
 C2412 C 0.23481 0.19954 0.43600
 C2413 C 0.22660 0.21165 0.44439
 N2414 N 0.21243 0.21721 0.43879
 H2415 H 0.17453 0.21605 0.40259
 H2416 H 0.24593 0.19454 0.44016
 C2417 C 0.29727 0.41357 0.70911
 C2418 C 0.28521 0.42131 0.70063
 N2419 N 0.28032 0.41485 0.68696
 C2420 C 0.28701 0.40098 0.68134
 C2421 C 0.29922 0.39322 0.68974
 N2422 N 0.30402 0.39977 0.70347
 N2423 N 0.30218 0.42009 0.72275
 C2424 C 0.29555 0.43404 0.72832
 C2425 C 0.28345 0.44191 0.71981
 N2426 N 0.27865 0.43526 0.70612
 H2427 H 0.28289 0.39621 0.67037
 H2428 H 0.29997 0.43907 0.73907
 C2429 C 0.30303 0.91438 0.21272
 C2430 C 0.29002 0.92199 0.20557
 N2431 N 0.28378 0.91554 0.19244
 C2432 C 0.29000 0.90179 0.18607
 C2433 C 0.30315 0.89415 0.19311
 N2434 N 0.30932 0.90068 0.20634
 N2435 N 0.30926 0.92091 0.22584
 C2436 C 0.30306 0.93474 0.23214
 C2437 C 0.29003 0.94249 0.22495
 N2438 N 0.28390 0.93581 0.21178
 H2439 H 0.28473 0.89702 0.17559
 H2440 H 0.30853 0.93976 0.24243
 C2441 C 0.79603 0.41518 0.21153
 C2442 C 0.78308 0.42230 0.20382
 N2443 N 0.77784 0.41574 0.19033
 C2444 C 0.78498 0.40236 0.18414
 C2445 C 0.79805 0.39522 0.19178
 N2446 N 0.80323 0.40188 0.20534
 N2447 N 0.80128 0.42178 0.22502
 C2448 C 0.79416 0.43519 0.23117
 C2449 C 0.78118 0.44245 0.22345
 N2450 N 0.77604 0.43573 0.20990
 H2451 H 0.78053 0.39750 0.17334
 H2452 H 0.79887 0.44030 0.24177
 C2453 C 0.79577 0.91418 0.71185
 C2454 C 0.78261 0.92090 0.70416
 N2455 N 0.77726 0.91389 0.69089
 C2456 C 0.78449 0.90041 0.68497
 C2457 C 0.79774 0.89366 0.69263
 N2458 N 0.80303 0.90080 0.70591
 N2459 N 0.80112 0.92116 0.72510
 C2460 C 0.79387 0.93457 0.73109
 C2461 C 0.78063 0.94142 0.72344
 N2462 N 0.77541 0.93436 0.71006
 H2463 H 0.77997 0.89515 0.67436
 H2464 H 0.79866 0.93998 0.74151
 C2465 C 0.69775 0.58540 0.71421
 C2466 C 0.71191 0.57876 0.70839
 N2467 N 0.71933 0.58614 0.69637
 C2468 C 0.71320 0.59984 0.68983
 C2469 C 0.69893 0.60653 0.69555
 N2470 N 0.69160 0.59909 0.70769
 N2471 N 0.69034 0.57801 0.72623
 C2472 C 0.69636 0.56416 0.73262
 C2473 C 0.71049 0.55729 0.72671
 N2474 N 0.71795 0.56495 0.71476
 H2475 H 0.71945 0.60538 0.68027
 H2476 H 0.69025 0.55875 0.74233
 C2477 C 0.70116 0.08297 0.21465
 C2478 C 0.71475 0.07559 0.20836
 N2479 N 0.72168 0.08221 0.19565
 C2480 C 0.71556 0.09584 0.18888
 C2481 C 0.70182 0.10315 0.19508
 N2482 N 0.69504 0.09648 0.20789
 N2483 N 0.69419 0.07642 0.22733
 C2484 C 0.70004 0.06264 0.23394
 C2485 C 0.71353 0.05497 0.22755
 N2486 N 0.72063 0.06180 0.21494
 H2487 H 0.72134 0.10079 0.17875
 H2488 H 0.69428 0.05789 0.24416
 C2489 C 0.20313 0.58785 0.20815
 C2490 C 0.21707 0.58163 0.20146
 N2491 N 0.22378 0.58950 0.18935
 C2492 C 0.21722 0.60336 0.18360
 C2493 C 0.20323 0.60973 0.19024
 N2494 N 0.19651 0.60173 0.20241
 N2495 N 0.19651 0.57996 0.22034
 C2496 C 0.20314 0.56607 0.22607
 C2497 C 0.21709 0.55969 0.21930
 N2498 N 0.22369 0.56780 0.20717
 H2499 H 0.22293 0.60924 0.17392
 H2500 H 0.19769 0.56028 0.23596
 C2501 C 0.21341 0.08996 0.69642
 C2502 C 0.20477 0.08100 0.70733
 N2503 N 0.18992 0.08592 0.71132
 C2504 C 0.18326 0.09940 0.70484
 C2505 C 0.19179 0.10835 0.69373
 N2506 N 0.20673 0.10336 0.68985
 N2507 N 0.22823 0.08495 0.69240
 C2508 C 0.23483 0.07137 0.69879
 C2509 C 0.22616 0.06224 0.70970
 N2510 N 0.21128 0.06739 0.71363
 H2511 H 0.17137 0.10289 0.70824
 H2512 H 0.24652 0.06756 0.69505
 C2513 C 0.29941 0.58732 0.28807
 C2514 C 0.28612 0.58016 0.29506
 N2515 N 0.27990 0.58694 0.30805
 C2516 C 0.28638 0.60056 0.31441
 C2517 C 0.29978 0.60775 0.30749
 N2518 N 0.30591 0.60089 0.29442
 N2519 N 0.30563 0.58056 0.27507
 C2520 C 0.29928 0.56683 0.26882
 C2521 C 0.28609 0.55940 0.27592
 N2522 N 0.27977 0.56643 0.28885
 H2523 H 0.28114 0.60558 0.32480
 H2524 H 0.30442 0.56194 0.25832
 C2525 C 0.28530 0.08778 0.79827
 C2526 C 0.29416 0.08121 0.78599
 N2527 N 0.30759 0.08871 0.78125
 C2528 C 0.31262 0.10258 0.78819
 C2529 C 0.30387 0.10932 0.80054
 N2530 N 0.29037 0.10166 0.80534
 N2531 N 0.27178 0.08016 0.80284
 C2532 C 0.26674 0.06630 0.79567
 C2533 C 0.27570 0.05967 0.78338
 N2534 N 0.28921 0.06740 0.77896
 H2535 H 0.32345 0.10814 0.78411
 H2536 H 0.25606 0.06040 0.79973
 C2537 C 0.78422 0.58381 0.80415
 C2538 C 0.79147 0.57640 0.79134
 N2539 N 0.80482 0.58295 0.78524
 C2540 C 0.81134 0.59659 0.79139
 C2541 C 0.80422 0.60406 0.80435
 N2542 N 0.79074 0.59744 0.81039
 N2543 N 0.77086 0.57713 0.81023
 C2544 C 0.76441 0.56340 0.80403
 C2545 C 0.77171 0.55590 0.79116
 N2546 N 0.78512 0.56269 0.78522
 H2547 H 0.82205 0.60135 0.78625
 H2548 H 0.75392 0.55828 0.80932
 C2549 C 0.78453 0.08234 0.30596
 C2550 C 0.79158 0.07546 0.29276
 N2551 N 0.80431 0.08278 0.28622
 C2552 C 0.81037 0.09670 0.29225
 C2553 C 0.80344 0.10370 0.30554
 N2554 N 0.79062 0.09627 0.31209
 N2555 N 0.77173 0.07495 0.31240
 C2556 C 0.76566 0.06101 0.30623
 C2557 C 0.77277 0.05404 0.29300
 N2558 N 0.78562 0.06155 0.28668
 H2559 H 0.82056 0.10211 0.28671
 H2560 H 0.75562 0.05532 0.31181
 C2561 C 0.69808 0.41273 0.29097
 C2562 C 0.70922 0.42186 0.29934
 N2563 N 0.71373 0.41690 0.31368
 C2564 C 0.70754 0.40321 0.32008
 C2565 C 0.69631 0.39401 0.31175
 N2566 N 0.69190 0.39905 0.29733
 N2567 N 0.69348 0.41780 0.27669
 C2568 C 0.69955 0.43160 0.27035
 C2569 C 0.71082 0.44082 0.27867
 N2570 N 0.71528 0.43562 0.29304
 H2571 H 0.71142 0.39959 0.33152
 H2572 H 0.69530 0.43542 0.25910
 C2573 C 0.69400 0.91409 0.78941
 C2574 C 0.70482 0.92313 0.79826
 N2575 N 0.70875 0.91811 0.81270
 C2576 C 0.70245 0.90434 0.81872
 C2577 C 0.69171 0.89501 0.80988
 N2578 N 0.68766 0.90023 0.79539
 N2579 N 0.69008 0.91933 0.77497
 C2580 C 0.69658 0.93312 0.76896
 C2581 C 0.70762 0.94215 0.77779
 N2582 N 0.71131 0.93680 0.79229
 H2583 H 0.70583 0.90083 0.83033
 H2584 H 0.69292 0.93702 0.75755
 C2585 C 0.19890 0.41518 0.78367
 C2586 C 0.21077 0.42380 0.79158
 N2587 N 0.21575 0.41858 0.80567
 C2588 C 0.20934 0.40514 0.81230
 C2589 C 0.19729 0.39649 0.80453
 N2590 N 0.19240 0.40177 0.79031
 N2591 N 0.19392 0.42053 0.76958
 C2592 C 0.20026 0.43413 0.76306
 C2593 C 0.21212 0.44289 0.77103
 N2594 N 0.21701 0.43738 0.78514
 H2595 H 0.21359 0.40142 0.82358
 H2596 H 0.19576 0.43823 0.75198
 C2597 C 0.21468 0.91500 0.29948
 C2598 C 0.20881 0.92034 0.28513
 N2599 N 0.19719 0.91176 0.27794
 C2600 C 0.19109 0.89810 0.28447
 C2601 C 0.19684 0.89271 0.29893
 N2602 N 0.20858 0.90135 0.30604
 N2603 N 0.22632 0.92358 0.30663
 C2604 C 0.23228 0.93737 0.30018
 C2605 C 0.22627 0.94296 0.28586
 N2606 N 0.21472 0.93411 0.27867
 H2607 H 0.18183 0.89161 0.27840
 H2608 H 0.24172 0.94374 0.30612
 C2609 C 0.41666 0.28878 0.69936
 C2610 C 0.42056 0.29342 0.71452
 N2611 N 0.41112 0.30422 0.72213
 C2612 C 0.39792 0.31058 0.71524
 C2613 C 0.39394 0.30585 0.70006
 N2614 N 0.40348 0.29503 0.69253
 N2615 N 0.42619 0.27823 0.69163
 C2616 C 0.43945 0.27196 0.69839
 C2617 C 0.44336 0.27634 0.71375
 N2618 N 0.43375 0.28711 0.72135
 H2619 H 0.39060 0.31910 0.72162
 H2620 H 0.44692 0.26395 0.69164
 C2621 C 0.41612 0.78387 0.19590
 C2622 C 0.42293 0.79109 0.20904
 N2623 N 0.41606 0.80449 0.21536
 C2624 C 0.40265 0.81106 0.20912
 C2625 C 0.39578 0.80391 0.19588
 N2626 N 0.40276 0.79044 0.18962
 N2627 N 0.42303 0.77048 0.18958
 C2628 C 0.43644 0.76391 0.19584
 C2629 C 0.44334 0.77109 0.20907
 N2630 N 0.43633 0.78459 0.21527
 H2631 H 0.39750 0.82175 0.21445
 H2632 H 0.44177 0.75342 0.19032
 C2633 C 0.91477 0.28953 0.20107
 C2634 C 0.92163 0.29786 0.21358
 N2635 N 0.91488 0.31189 0.21872
 C2636 C 0.90157 0.31801 0.21188
 C2637 C 0.89468 0.30973 0.19928
 N2638 N 0.90152 0.29565 0.19421
 N2639 N 0.92153 0.27553 0.19591
 C2640 C 0.93485 0.26941 0.20273
 C2641 C 0.94180 0.27769 0.21533
 N2642 N 0.93495 0.29181 0.22036
 H2643 H 0.89653 0.32924 0.21623
 H2644 H 0.94008 0.25840 0.19809
 C2645 C 0.91591 0.78989 0.70380
 C2646 C 0.92231 0.79820 0.71655
 N2647 N 0.91505 0.81192 0.72178
 C2648 C 0.90166 0.81773 0.71483
 C2649 C 0.89523 0.80945 0.70198
 N2650 N 0.90259 0.79569 0.69682
 N2651 N 0.92310 0.77613 0.69862
 C2652 C 0.93652 0.77036 0.70550
 C2653 C 0.94320 0.77878 0.71818
 N2654 N 0.93574 0.79249 0.72342
 H2655 H 0.89621 0.82872 0.71925
 H2656 H 0.94173 0.75919 0.70120
 C2657 C 0.58756 0.28085 0.30624
 C2658 C 0.57913 0.29006 0.29527
 N2659 N 0.58470 0.30483 0.29094
 C2660 C 0.59837 0.31084 0.29704
 C2661 C 0.60694 0.30167 0.30803
 N2662 N 0.60123 0.28685 0.31240
 N2663 N 0.58194 0.26604 0.31050
 C2664 C 0.56833 0.25998 0.30421
 C2665 C 0.55987 0.26916 0.29311
 N2666 N 0.56555 0.28406 0.28904
 H2667 H 0.60239 0.32269 0.29334
 H2668 H 0.56408 0.24826 0.30806
 C2669 C 0.58455 0.79524 0.79221
 C2670 C 0.57885 0.78102 0.79922
 N2671 N 0.58670 0.77462 0.81152
 C2672 C 0.60000 0.78180 0.81719
 C2673 C 0.60580 0.79615 0.81029
 N2674 N 0.59787 0.80249 0.79787
 N2675 N 0.57664 0.80156 0.77987
 C2676 C 0.56321 0.79439 0.77432
 C2677 C 0.55734 0.78019 0.78144
 N2678 N 0.56548 0.77387 0.79371
 H2679 H 0.60589 0.77628 0.82701
 H2680 H 0.55738 0.79964 0.76432
 C2681 C 0.08614 0.30732 0.78451
 C2682 C 0.07888 0.29309 0.78994
 N2683 N 0.08556 0.28487 0.80197
 C2684 C 0.09911 0.29030 0.80888
 C2685 C 0.10636 0.30466 0.80354
 N2686 N 0.09963 0.31274 0.79140
 N2687 N 0.07952 0.31557 0.77251
 C2688 C 0.06584 0.31035 0.76577
 C2689 C 0.05830 0.29620 0.77129
 N2690 N 0.06519 0.28784 0.78321
 H2691 H 0.10409 0.28348 0.81844
 H2692 H 0.06105 0.31713 0.75608
 C2693 C 0.08690 0.80153 0.28324
 C2694 C 0.07787 0.79011 0.29142
 N2695 N 0.08263 0.78529 0.30572
 C2696 C 0.09607 0.79138 0.31225
 C2697 C 0.10518 0.80289 0.30413
 N2698 N 0.10030 0.80767 0.28976
 N2699 N 0.08206 0.80635 0.26894
 C2700 C 0.06858 0.80023 0.26243
 C2701 C 0.05946 0.78875 0.27062
 N2702 N 0.06443 0.78406 0.28498
 H2703 H 0.09948 0.78727 0.32368
 H2704 H 0.06494 0.80458 0.25115
 C2705 C 0.58547 0.69584 0.71361
 C2706 C 0.57757 0.70894 0.70654
 N2707 N 0.58350 0.71543 0.69333
 C2708 C 0.59700 0.70942 0.68683
 C2709 C 0.60501 0.69626 0.69385
 N2710 N 0.59898 0.68981 0.70714
 N2711 N 0.57953 0.68939 0.72684
 C2712 C 0.56596 0.69537 0.73328
 C2713 C 0.55788 0.70844 0.72616
 N2714 N 0.56404 0.71492 0.71296
 H2715 H 0.60134 0.71490 0.67629
 H2716 H 0.56172 0.69009 0.74397
 C2717 C 0.58602 0.20816 0.20326
 C2718 C 0.57923 0.19865 0.21497
 N2719 N 0.58599 0.18422 0.21885
 C2720 C 0.59929 0.17882 0.21156
 C2721 C 0.60622 0.18826 0.19976
 N2722 N 0.59932 0.20275 0.19587
 N2723 N 0.57916 0.22260 0.19943
 C2724 C 0.56581 0.22796 0.20679
 C2725 C 0.55894 0.21842 0.21857
 N2726 N 0.56591 0.20394 0.22226
 H2727 H 0.60428 0.16723 0.21496
 H2728 H 0.56050 0.23936 0.20323
 C2729 C 0.08816 0.70067 0.20740
 C2730 C 0.07908 0.71116 0.19811
 N2731 N 0.08393 0.71458 0.18352
 C2732 C 0.09754 0.70807 0.17777
 C2733 C 0.10684 0.69761 0.18704
 N2734 N 0.10183 0.69411 0.20169
 N2735 N 0.08317 0.69729 0.22200
 C2736 C 0.06956 0.70398 0.22775
 C2737 C 0.06044 0.71464 0.21846
 N2738 N 0.06554 0.71782 0.20381
 H2739 H 0.10096 0.71106 0.16606
 H2740 H 0.06584 0.70076 0.23932
 C2741 C 0.08462 0.22306 0.69313
 C2742 C 0.07541 0.21469 0.70401
 N2743 N 0.07990 0.19957 0.70863
 C2744 C 0.09320 0.19238 0.70280
 C2745 C 0.10246 0.20069 0.69180
 N2746 N 0.09789 0.21590 0.68728
 N2747 N 0.08003 0.23812 0.68844
 C2748 C 0.06663 0.24524 0.69416
 C2749 C 0.05731 0.23690 0.70513
 N2750 N 0.06205 0.22176 0.70971
 H2751 H 0.09639 0.18031 0.70671
 H2752 H 0.06320 0.25710 0.68986
 C2753 C 0.41434 0.69471 0.28571
 C2754 C 0.42128 0.70898 0.29150
 N2755 N 0.41453 0.71676 0.30368
 C2756 C 0.40113 0.71093 0.31041
 C2757 C 0.39407 0.69658 0.30471
 N2758 N 0.40090 0.68884 0.29241
 N2759 N 0.42117 0.68696 0.27350
 C2760 C 0.43469 0.69278 0.26689
 C2761 C 0.44179 0.70706 0.27274
 N2762 N 0.43473 0.71479 0.28491
 H2763 H 0.39612 0.71752 0.32009
 H2764 H 0.43966 0.68642 0.25704
 C2765 C 0.41410 0.21515 0.80055
 C2766 C 0.41639 0.21278 0.78462
 N2767 N 0.40514 0.20499 0.77617
 C2768 C 0.39171 0.19932 0.78296
 C2769 C 0.38940 0.20151 0.79898
 N2770 N 0.40067 0.20951 0.80737
 N2771 N 0.42551 0.22273 0.80900
 C2772 C 0.43912 0.22805 0.80223
 C2773 C 0.44149 0.22569 0.78621
 N2774 N 0.42996 0.21805 0.77787
 H2775 H 0.38296 0.19321 0.77588
 H2776 H 0.44812 0.23364 0.80941
 C2777 C 0.91646 0.71331 0.80399
 C2778 C 0.92365 0.70538 0.79142
 N2779 N 0.91711 0.69157 0.78568
 C2780 C 0.90366 0.68529 0.79194
 C2781 C 0.89637 0.69317 0.80457
 N2782 N 0.90301 0.70706 0.81027
 N2783 N 0.92299 0.72720 0.80963
 C2784 C 0.93643 0.73350 0.80330
 C2785 C 0.94378 0.72551 0.79072
 N2786 N 0.93704 0.71163 0.78511
 H2787 H 0.89886 0.67420 0.78712
 H2788 H 0.94109 0.74476 0.80789
 C2789 C 0.91482 0.21144 0.30034
 C2790 C 0.92064 0.20385 0.28694
 N2791 N 0.91275 0.19099 0.28082
 C2792 C 0.89925 0.18532 0.28751
 C2793 C 0.89336 0.19282 0.30101
 N2794 N 0.90136 0.20575 0.30709
 N2795 N 0.92274 0.22433 0.30641
 C2796 C 0.93623 0.23001 0.29965
 C2797 C 0.94214 0.22241 0.28619
 N2798 N 0.93413 0.20943 0.28024
 H2799 H 0.89330 0.17503 0.28231
 H2800 H 0.94239 0.24013 0.30494
 C2801 C 0.29410 0.29881 0.58304
 C2802 C 0.30204 0.28552 0.57637
 N2803 N 0.31535 0.27953 0.58325
 C2804 C 0.32110 0.28627 0.59653
 C2805 C 0.31315 0.29961 0.60325
 N2806 N 0.29981 0.30552 0.59627
 N2807 N 0.28076 0.30477 0.57624
 C2808 C 0.27502 0.29810 0.56296
 C2809 C 0.28301 0.28483 0.55609
 N2810 N 0.29632 0.27883 0.56312
 H2811 H 0.33174 0.28122 0.60170
 H2812 H 0.26419 0.30298 0.55804
 C2813 C 0.28932 0.80484 0.08352
 C2814 C 0.29577 0.79097 0.07640
 N2815 N 0.30829 0.78322 0.08310
 C2816 C 0.31470 0.78876 0.09660
 C2817 C 0.30829 0.80271 0.10375
 N2818 N 0.29569 0.81036 0.09697
 N2819 N 0.27681 0.81261 0.07687
 C2820 C 0.27049 0.80722 0.06331
 C2821 C 0.27699 0.79339 0.05598
 N2822 N 0.28946 0.78555 0.06286
 H2823 H 0.32468 0.78231 0.10162
 H2824 H 0.26035 0.81357 0.05848
 C2825 C 0.78969 0.29787 0.08670
 C2826 C 0.79827 0.28528 0.07956
 N2827 N 0.81225 0.28024 0.08582
 C2828 C 0.81808 0.28724 0.09892
 C2829 C 0.80957 0.29996 0.10610
 N2830 N 0.79553 0.30493 0.09974
 N2831 N 0.77571 0.30289 0.08043
 C2832 C 0.76988 0.29588 0.06733
 C2833 C 0.77846 0.28324 0.06006
 N2834 N 0.79252 0.27834 0.06644
 H2835 H 0.82927 0.28294 0.10356
 H2836 H 0.75885 0.30041 0.06250
 C2837 C 0.79117 0.79738 0.58810
 C2838 C 0.80026 0.78563 0.58030
 N2839 N 0.81450 0.78092 0.58625
 C2840 C 0.82008 0.78745 0.59968
 C2841 C 0.81102 0.79929 0.60753
 N2842 N 0.79674 0.80393 0.60148
 N2843 N 0.77696 0.80210 0.58214
 C2844 C 0.77135 0.79556 0.56873
 C2845 C 0.78040 0.78370 0.56084
 N2846 N 0.79471 0.77913 0.56689
 H2847 H 0.83146 0.78342 0.60409
 H2848 H 0.76011 0.79985 0.56419
 C2849 C 0.28671 0.70403 0.41451
 C2850 C 0.29560 0.71602 0.42215
 N2851 N 0.30987 0.72057 0.41636
 C2852 C 0.31571 0.71368 0.40322
 C2853 C 0.30689 0.70159 0.39549
 N2854 N 0.29255 0.69706 0.40140
 N2855 N 0.27242 0.69952 0.42038
 C2856 C 0.26660 0.70648 0.43353
 C2857 C 0.27551 0.71853 0.44126
 N2858 N 0.28985 0.72290 0.43528
 H2859 H 0.32716 0.71758 0.39901
 H2860 H 0.25532 0.70237 0.43802
 C2861 C 0.28733 0.19808 0.91483
 C2862 C 0.29564 0.21038 0.92265
 N2863 N 0.30966 0.21575 0.91691
 C2864 C 0.31574 0.20946 0.90360
 C2865 C 0.30740 0.19722 0.89558
 N2866 N 0.29338 0.19178 0.90151
 N2867 N 0.27334 0.19270 0.92067
 C2868 C 0.26719 0.19915 0.93392
 C2869 C 0.27538 0.21168 0.94173
 N2870 N 0.28951 0.21684 0.93582
 H2871 H 0.32696 0.21404 0.89941
 H2872 H 0.25616 0.19432 0.93834
 C2873 C 0.78782 0.69459 0.91472
 C2874 C 0.79473 0.70820 0.92183
 N2875 N 0.80755 0.71535 0.91524
 C2876 C 0.81385 0.70947 0.90185
 C2877 C 0.80703 0.69575 0.89470
 N2878 N 0.79411 0.68868 0.90137
 N2879 N 0.77505 0.68740 0.92138
 C2880 C 0.76881 0.69323 0.93482
 C2881 C 0.77565 0.70695 0.94201
 N2882 N 0.78853 0.71401 0.93525
 H2883 H 0.82407 0.71549 0.89693
 H2884 H 0.75884 0.68696 0.93994
 C2885 C 0.79135 0.19567 0.41704
 C2886 C 0.79778 0.21021 0.42279
 N2887 N 0.80966 0.21763 0.41492
 C2888 C 0.81543 0.21118 0.40153
 C2889 C 0.80901 0.19660 0.39567
 N2890 N 0.79706 0.18923 0.40364
 N2891 N 0.77947 0.18825 0.42492
 C2892 C 0.77375 0.19467 0.43835
 C2893 C 0.78017 0.20927 0.44421
 N2894 N 0.79203 0.21668 0.43614
 H2895 H 0.82487 0.21747 0.39557
 H2896 H 0.76409 0.18857 0.44416
 C2897 C 0.69774 0.28293 0.41795
 C2898 C 0.70861 0.29245 0.42625
 N2899 N 0.71202 0.30769 0.42131
 C2900 C 0.70505 0.31391 0.40840
 C2901 C 0.69412 0.30444 0.39994
 N2902 N 0.69076 0.28909 0.40497
 N2903 N 0.69424 0.26775 0.42310
 C2904 C 0.70120 0.26162 0.43613
 C2905 C 0.71229 0.27109 0.44445
 N2906 N 0.71558 0.28634 0.43918
 H2907 H 0.70815 0.32608 0.40483
 H2908 H 0.69780 0.24963 0.44001
 C2909 C 0.69731 0.78219 0.91671
 C2910 C 0.71088 0.78925 0.92331
 N2911 N 0.71749 0.80250 0.91656
 C2912 C 0.71113 0.80906 0.90349
 C2913 C 0.69749 0.80204 0.89682
 N2914 N 0.69095 0.78871 0.90365
 N2915 N 0.69072 0.76893 0.92347
 C2916 C 0.69703 0.76246 0.93661
 C2917 C 0.71060 0.76957 0.94337
 N2918 N 0.71720 0.78280 0.93640
 H2919 H 0.71672 0.81961 0.89843
 H2920 H 0.69162 0.75172 0.94154
 C2921 C 0.19756 0.28874 0.91470
 C2922 C 0.21143 0.29598 0.92051
 N2923 N 0.21777 0.30893 0.91306
 C2924 C 0.21082 0.31509 0.90010
 C2925 C 0.19682 0.30799 0.89425
 N2926 N 0.19059 0.29486 0.90171
 N2927 N 0.19119 0.27585 0.92227
 C2928 C 0.19798 0.26995 0.93545
 C2929 C 0.21184 0.27728 0.94142
 N2930 N 0.21824 0.29008 0.93362
 H2931 H 0.21627 0.32541 0.89448
 H2932 H 0.19268 0.25954 0.94108
 C2933 C 0.21269 0.80666 0.41437
 C2934 C 0.20364 0.79567 0.42306
 N2935 N 0.18905 0.79121 0.41797
 C2936 C 0.18307 0.79716 0.40449
 C2937 C 0.19210 0.80813 0.39561
 N2938 N 0.20673 0.81267 0.40087
 N2939 N 0.22730 0.81107 0.41958
 C2940 C 0.23331 0.80492 0.43303
 C2941 C 0.22427 0.79378 0.44175
 N2942 N 0.20959 0.78956 0.43645
 H2943 H 0.17136 0.79335 0.40086
 H2944 H 0.24487 0.80891 0.43692
 C2945 C 0.71574 0.69831 0.58672
 C2946 C 0.70746 0.71039 0.57853
 N2947 N 0.69330 0.71589 0.58392
 C2948 C 0.68698 0.70983 0.59718
 C2949 C 0.69518 0.69764 0.60544
 N2950 N 0.70941 0.69218 0.59994
 N2951 N 0.72991 0.69284 0.58126
 C2952 C 0.73621 0.69894 0.56796
 C2953 C 0.72791 0.71106 0.55967
 N2954 N 0.71368 0.71640 0.56525
 H2955 H 0.67563 0.71446 0.60107
 H2956 H 0.74739 0.69411 0.56380
 C2957 C 0.71352 0.19758 0.08780
 C2958 C 0.70515 0.20986 0.07998
 N2959 N 0.69118 0.21538 0.08588
 C2960 C 0.68519 0.20915 0.09926
 C2961 C 0.69352 0.19674 0.10711
 N2962 N 0.70752 0.19130 0.10109
 N2963 N 0.72749 0.19205 0.08193
 C2964 C 0.73353 0.19828 0.06860
 C2965 C 0.72522 0.21065 0.06065
 N2966 N 0.71113 0.21606 0.06661
 H2967 H 0.67400 0.21379 0.10360
 H2968 H 0.74455 0.19336 0.06415
 C2969 C 0.19967 0.72072 0.08314
 C2970 C 0.21334 0.71403 0.07632
 N2971 N 0.22070 0.70117 0.08314
 C2972 C 0.21502 0.69467 0.09650
 C2973 C 0.20124 0.70124 0.10332
 N2974 N 0.19390 0.71414 0.09640
 N2975 N 0.19239 0.73366 0.07638
 C2976 C 0.19816 0.74026 0.06309
 C2977 C 0.21183 0.73354 0.05614
 N2978 N 0.21902 0.72050 0.06300
 H2979 H 0.22113 0.68438 0.10158
 H2980 H 0.19194 0.75041 0.05788
 C2981 C 0.21371 0.20128 0.58549
 C2982 C 0.20727 0.21543 0.57889
 N2983 N 0.19473 0.22290 0.58579
 C2984 C 0.18828 0.21683 0.59900
 C2985 C 0.19462 0.20256 0.60565
 N2986 N 0.20725 0.19517 0.59867
 N2987 N 0.22631 0.19389 0.57862
 C2988 C 0.23269 0.19991 0.56534
 C2989 C 0.22612 0.21400 0.55849
 N2990 N 0.21358 0.22143 0.56562
 H2991 H 0.17828 0.22309 0.60414
 H2992 H 0.24290 0.19384 0.56039
   
