data_POSCAR
  _audit_creation_date              2014-09-24
  _audit_creation_method            'ToBaCCo'
  _symmetry_space_group_name_H-M    'P1'
  _symmetry_Int_Tables_number       1
  _symmetry_cell_setting            triclinic
  loop_
  _symmetry_equiv_pos_as_xyz
 x,y,z
_cell_length_a 66.7295
_cell_length_b 66.6469
_cell_length_c 66.4079
_cell_angle_alpha 90.055700
_cell_angle_beta 90.004000
_cell_angle_gamma 90.050200
loop_
  _atom_site_label
  _atom_site_type_symbol
  _atom_site_fract_x
  _atom_site_fract_y
  _atom_site_fract_z
O1 O 0.35319 0.32680 -0.01991
 O2 O 0.32459 0.35378 0.01891
 O3 O 0.35266 0.32656 0.01907
 O4 O 0.32507 0.35407 -0.02015
 O5 O 0.30211 0.33029 -0.02074
 O6 O 0.32963 0.30280 0.01864
 O7 O 0.30157 0.33002 0.01849
 O8 O 0.33014 0.30306 -0.02055
 Cu9 Cu 0.34116 0.34269 -0.00049
 Cu10 Cu 0.31355 0.31417 -0.00109
 C11 C 0.34668 0.31023 -0.02676
 C12 C 0.30815 0.34659 0.02530
 C13 C 0.34595 0.30990 0.02548
 C14 C 0.30877 0.34700 -0.02712
 O15 O 0.67458 0.64678 0.01835
 O16 O 0.64709 0.67503 -0.02030
 O17 O 0.67462 0.64726 -0.02061
 O18 O 0.64709 0.67467 0.01878
 O19 O 0.67061 0.69793 0.01914
 O20 O 0.69805 0.67058 -0.02042
 O21 O 0.67058 0.69833 -0.02009
 O22 O 0.69807 0.67008 0.01877
 Cu23 Cu 0.65848 0.65862 -0.00096
 Cu24 Cu 0.68668 0.68658 -0.00061
 C25 C 0.69111 0.65347 0.02504
 C26 C 0.65407 0.69155 -0.02677
 C27 C 0.69116 0.65411 -0.02720
 C28 C 0.65407 0.69105 0.02563
 O29 O 0.67730 0.35097 0.98039
 O30 O 0.64964 0.32340 1.01947
 O31 O 0.67748 0.35095 1.01941
 O32 O 0.64948 0.32346 0.98043
 O33 O 0.67274 0.29998 0.98015
 O34 O 0.70061 0.32739 1.01944
 O35 O 0.67283 0.29984 1.01937
 O36 O 0.70057 0.32749 0.98023
 Cu37 Cu 0.66115 0.33954 0.99995
 Cu38 Cu 0.68902 0.31131 0.99979
 C39 C 0.69374 0.34404 0.97371
 C40 C 0.65641 0.30683 1.02602
 C41 C 0.69393 0.34400 1.02606
 C42 C 0.65625 0.30697 0.97367
 O43 O 0.35213 0.67500 1.01946
 O44 O 0.32455 0.64783 0.97997
 O45 O 0.35226 0.67550 0.98042
 O46 O 0.32438 0.64737 1.01900
 O47 O 0.30115 0.67084 1.01937
 O48 O 0.32891 0.69890 0.98054
 O49 O 0.30121 0.67124 0.98015
 O50 O 0.32883 0.69845 1.01973
 Cu51 Cu 0.34066 0.65908 0.99969
 Cu52 Cu 0.31268 0.68720 0.99996
 C53 C 0.34529 0.69144 1.02628
 C54 C 0.30810 0.65480 0.97338
 C55 C 0.34543 0.69207 0.97395
 C56 C 0.30791 0.65419 1.02577
 O57 O -0.01952 0.35446 0.32636
 O58 O 0.01866 0.32628 0.35445
 O59 O 0.01922 0.35447 0.32712
 O60 O -0.02015 0.32631 0.35365
 O61 O -0.01978 0.30331 0.32980
 O62 O 0.01977 0.33145 0.30324
 O63 O 0.01927 0.30330 0.33053
 O64 O -0.01924 0.33139 0.30251
 Cu65 Cu -0.00048 0.34267 0.34279
 Cu66 Cu 0.00006 0.31504 0.31413
 C67 C -0.02582 0.34784 0.30956
 C68 C 0.02540 0.30990 0.34740
 C69 C 0.02609 0.34791 0.31054
 C70 C -0.02668 0.30991 0.34639
 O71 O 0.01914 0.67547 0.64697
 O72 O -0.01984 0.64795 0.67479
 O73 O -0.01971 0.67565 0.64700
 O74 O 0.01903 0.64770 0.67463
 O75 O 0.01933 0.67108 0.69816
 O76 O -0.01965 0.69895 0.67056
 O77 O -0.01969 0.67133 0.69832
 O78 O 0.01938 0.69883 0.67051
 Cu79 Cu -0.00037 0.65935 0.65850
 Cu80 Cu -0.00014 0.68739 0.68674
 C81 C 0.02586 0.69192 0.65390
 C82 C -0.02636 0.65486 0.69138
 C83 C -0.02628 0.69217 0.65393
 C84 C 0.02576 0.65453 0.69117
 O85 O 0.98045 0.67657 0.35072
 O86 O 1.01994 0.64931 0.32342
 O87 O 1.01930 0.67714 0.35103
 O88 O 0.98116 0.64860 0.32313
 O89 O 0.98074 0.67189 0.29956
 O90 O 1.01932 0.70028 0.32736
 O91 O 1.01975 0.67249 0.29973
 O92 O 0.98028 0.69984 0.32713
 Cu93 Cu 1.00021 0.66060 0.33945
 Cu94 Cu 0.99999 0.68846 0.31108
 C95 C 0.97372 0.69296 0.34370
 C96 C 1.02652 0.65615 0.30684
 C97 C 1.02586 0.69365 0.34406
 C98 C 0.97453 0.65524 0.30650
 O99 O 0.98011 0.32589 0.64632
 O100 O 1.02012 0.35275 0.67335
 O101 O 1.01889 0.32491 0.64566
 O102 O 0.98132 0.35380 0.67390
 O103 O 0.98078 0.33045 0.69742
 O104 O 1.01899 0.30182 0.66938
 O105 O 1.01980 0.32959 0.69706
 O106 O 0.97995 0.30254 0.66984
 Cu107 Cu 1.00014 0.34166 0.65745
 Cu108 Cu 0.99986 0.31377 0.68579
 C109 C 0.97330 0.30952 0.65335
 C110 C 1.02670 0.34588 0.68992
 C111 C 1.02535 0.30835 0.65256
 C112 C 0.97468 0.34715 0.69053
 O113 O 0.35155 0.02001 0.32342
 O114 O 0.32403 -0.01903 0.35115
 O115 O 0.35178 -0.01890 0.32348
 O116 O 0.32386 0.01986 0.35118
 O117 O 0.30054 0.01978 0.32764
 O118 O 0.32847 -0.01916 0.29993
 O119 O 0.30073 -0.01928 0.32759
 O120 O 0.32821 0.01993 0.29990
 Cu121 Cu 0.34014 0.00051 0.33966
 Cu122 Cu 0.31215 0.00030 0.31139
 C123 C 0.34466 0.02659 0.30686
 C124 C 0.30761 -0.02576 0.34419
 C125 C 0.34498 -0.02562 0.30692
 C126 C 0.30736 0.02637 0.34425
 O127 O 0.67596 -0.01923 0.64729
 O128 O 0.64795 0.01975 0.67461
 O129 O 0.67570 0.01969 0.64696
 O130 O 0.64811 -0.01914 0.67490
 O131 O 0.67136 -0.01888 0.69851
 O132 O 0.69895 0.02012 0.67057
 O133 O 0.67121 0.02018 0.69820
 O134 O 0.69919 -0.01896 0.67092
 Cu135 Cu 0.65961 0.00022 0.65857
 Cu136 Cu 0.68751 0.00064 0.68692
 C137 C 0.69242 -0.02569 0.65435
 C138 C 0.65472 0.02657 0.69114
 C139 C 0.69209 0.02650 0.65391
 C140 C 0.65491 -0.02558 0.69155
 O141 O 0.32381 1.01958 0.64743
 O142 O 0.35252 0.98124 0.67476
 O143 O 0.32455 0.98067 0.64727
 O144 O 0.35173 1.02007 0.67491
 O145 O 0.32864 1.01956 0.69867
 O146 O 0.30141 0.98009 0.67099
 O147 O 0.32935 0.98050 0.69845
 O148 O 0.30071 1.01915 0.67118
 Cu149 Cu 0.34046 1.00043 0.65871
 Cu150 Cu 0.31270 0.99977 0.68720
 C151 C 0.30731 1.02588 0.65455
 C152 C 0.34595 0.97440 0.69135
 C153 C 0.30826 0.97372 0.65432
 C154 C 0.34493 1.02647 0.69160
 O155 O 0.64554 0.98098 0.32744
 O156 O 0.67359 1.02057 0.35389
 O157 O 0.64541 1.01978 0.32661
 O158 O 0.67359 0.98172 0.35490
 O159 O 0.69658 0.98104 0.33104
 O160 O 0.66844 1.01942 0.30278
 O161 O 0.69656 1.02012 0.33006
 O162 O 0.66858 0.98036 0.30363
 Cu163 Cu 0.65724 1.00081 0.34310
 Cu164 Cu 0.68486 1.00018 0.31449
 C165 C 0.65215 0.97402 0.31091
 C166 C 0.68998 1.02709 0.34662
 C167 C 0.65198 1.02601 0.30979
 C168 C 0.68996 0.97495 0.34792
 O169 O 0.82619 0.85294 0.51978
 O170 O 0.85330 0.82577 0.47995
 O171 O 0.82591 0.85374 0.48081
 O172 O 0.85372 0.82516 0.51900
 O173 O 0.83012 0.80195 0.51896
 O174 O 0.80242 0.83043 0.48035
 O175 O 0.82978 0.80249 0.47972
 O176 O 0.80262 0.82971 0.51954
 Cu177 Cu 0.84214 0.84171 0.49990
 Cu178 Cu 0.81388 0.81380 0.49961
 C179 C 0.80968 0.84607 0.52637
 C180 C 0.84626 0.80941 0.47311
 C181 C 0.80934 0.84709 0.47415
 C182 C 0.84675 0.80864 0.52549
 O183 O 0.14501 0.17273 0.48026
 O184 O 0.17276 0.14546 0.51946
 O185 O 0.14464 0.17270 0.51915
 O186 O 0.17307 0.14547 0.48036
 O187 O 0.19607 0.16926 0.48048
 O188 O 0.16775 0.19640 0.51962
 O189 O 0.19580 0.16921 0.51972
 O190 O 0.16803 0.19651 0.48042
 Cu191 Cu 0.15660 0.15669 0.49979
 Cu192 Cu 0.18424 0.18522 0.50008
 C193 C 0.15164 0.18939 0.47377
 C194 C 0.18908 0.15261 0.52625
 C195 C 0.15122 0.18929 0.52590
 C196 C 0.18947 0.15265 0.47381
 O197 O 0.17505 0.85270 0.47977
 O198 O 0.14746 0.82493 0.51879
 O199 O 0.17525 0.85250 0.51882
 O200 O 0.14719 0.82520 0.47976
 O201 O 0.17047 0.80172 0.47931
 O202 O 0.19847 0.82897 0.51862
 O203 O 0.17069 0.80140 0.51854
 O204 O 0.19829 0.82919 0.47942
 Cu205 Cu 0.15892 0.84119 0.49932
 Cu206 Cu 0.18681 0.81295 0.49895
 C207 C 0.19145 0.84577 0.47299
 C208 C 0.15427 0.80835 0.52526
 C209 C 0.19171 0.84549 0.52534
 C210 C 0.15396 0.80875 0.47290
 O211 O 0.85135 0.17675 0.51835
 O212 O 0.82379 0.14891 0.47929
 O213 O 0.85148 0.17664 0.47932
 O214 O 0.82381 0.14895 0.51832
 O215 O 0.80038 0.17227 0.51833
 O216 O 0.82806 0.19998 0.47914
 O217 O 0.80042 0.17230 0.47911
 O218 O 0.82792 0.20008 0.51837
 Cu219 Cu 0.83995 0.16048 0.49881
 Cu220 Cu 0.81185 0.18850 0.49873
 C221 C 0.84442 0.19323 0.52498
 C222 C 0.80732 0.15576 0.47260
 C223 C 0.84460 0.19311 0.47263
 C224 C 0.80731 0.15579 0.52493
 O225 O 0.48093 0.85391 0.82556
 O226 O 0.51957 0.82556 0.85282
 O227 O 0.51973 0.85345 0.82531
 O228 O 0.48071 0.82590 0.85306
 O229 O 0.48026 0.80271 0.82935
 O230 O 0.51935 0.83027 0.80158
 O231 O 0.51929 0.80239 0.82908
 O232 O 0.48033 0.83067 0.80189
 Cu233 Cu 0.50026 0.84201 0.84157
 Cu234 Cu 0.49976 0.81418 0.81310
 C235 C 0.47412 0.84725 0.80899
 C236 C 0.52601 0.80910 0.84568
 C237 C 0.52615 0.84665 0.80863
 C238 C 0.47389 0.80952 0.84604
 O239 O 0.51943 0.17483 0.14640
 O240 O 0.47973 0.14782 0.17368
 O241 O 0.48056 0.17571 0.14614
 O242 O 0.51852 0.14682 0.17388
 O243 O 0.51917 0.17007 0.19754
 O244 O 0.48086 0.19886 0.16989
 O245 O 0.48016 0.17098 0.19742
 O246 O 0.51989 0.19803 0.17011
 Cu247 Cu 0.49953 0.15899 0.15764
 Cu248 Cu 0.50006 0.18682 0.18612
 C249 C 0.52638 0.19111 0.15351
 C250 C 0.47325 0.15469 0.19030
 C251 C 0.47424 0.19225 0.15320
 C252 C 0.52525 0.15341 0.19052
 O253 O 0.51926 0.14766 0.82412
 O254 O 0.48103 0.17544 0.85260
 O255 O 0.48040 0.14784 0.82464
 O256 O 0.51982 0.17520 0.85202
 O257 O 0.51967 0.19873 0.82868
 O258 O 0.48017 0.17132 0.80125
 O259 O 0.48065 0.19888 0.82916
 O260 O 0.51921 0.17118 0.80078
 Cu261 Cu 0.50013 0.15918 0.84067
 Cu262 Cu 0.49990 0.18738 0.81262
 C263 C 0.52575 0.15461 0.80755
 C264 C 0.47439 0.19199 0.84586
 C265 C 0.47362 0.15481 0.80820
 C266 C 0.52641 0.19171 0.84513
 O267 O 0.48091 0.82399 0.14765
 O268 O 0.51937 0.85228 0.17541
 O269 O 0.51978 0.82431 0.14778
 O270 O 0.48058 0.85192 0.17514
 O271 O 0.48063 0.82878 0.19886
 O272 O 0.51987 0.80108 0.17140
 O273 O 0.51965 0.82901 0.19901
 O274 O 0.48084 0.80084 0.17136
 Cu275 Cu 0.50018 0.84043 0.15912
 Cu276 Cu 0.50027 0.81259 0.18753
 C277 C 0.47431 0.80756 0.15470
 C278 C 0.52596 0.84560 0.19205
 C279 C 0.52643 0.80789 0.15480
 C280 C 0.47398 0.84517 0.19175
 O281 O 0.82563 0.48072 0.85289
 O282 O 0.85261 0.52038 0.82550
 O283 O 0.82474 0.51963 0.85307
 O284 O 0.85362 0.48155 0.82543
 O285 O 0.83042 0.48080 0.80178
 O286 O 0.80166 0.51930 0.82929
 O287 O 0.82951 0.51985 0.80174
 O288 O 0.80246 0.48020 0.82921
 Cu289 Cu 0.84145 0.50062 0.84161
 Cu290 Cu 0.81368 0.49998 0.81313
 C291 C 0.80937 0.47375 0.84581
 C292 C 0.84578 0.52679 0.80885
 C293 C 0.80824 0.52595 0.84598
 C294 C 0.84706 0.47475 0.80882
 O295 O 0.14766 0.52034 0.17445
 O296 O 0.17458 0.48050 0.14728
 O297 O 0.14686 0.48150 0.17504
 O298 O 0.17531 0.51939 0.14670
 O299 O 0.19859 0.51952 0.17028
 O300 O 0.17028 0.48120 0.19848
 O301 O 0.19796 0.48043 0.17076
 O302 O 0.17095 0.52027 0.19802
 Cu303 Cu 0.15877 0.50043 0.15851
 Cu304 Cu 0.18680 0.50034 0.18674
 C305 C 0.15460 0.52703 0.19096
 C306 C 0.19096 0.47375 0.15427
 C307 C 0.15360 0.47496 0.19167
 C308 C 0.19184 0.52591 0.15358
 O309 O 0.82716 0.51897 0.14379
 O310 O 0.85515 0.48070 0.17197
 O311 O 0.82722 0.48010 0.14445
 O312 O 0.85514 0.51950 0.17131
 O313 O 0.83200 0.51998 0.19503
 O314 O 0.80407 0.48041 0.16816
 O315 O 0.83197 0.48092 0.19565
 O316 O 0.80407 0.51951 0.16755
 Cu317 Cu 0.84347 0.49979 0.15549
 Cu318 Cu 0.81569 0.50025 0.18397
 C319 C 0.81077 0.52571 0.15076
 C320 C 0.84845 0.47436 0.18870
 C321 C 0.81082 0.47358 0.15163
 C322 C 0.84847 0.52636 0.18785
 O323 O 0.14849 0.48036 0.82341
 O324 O 0.17581 0.51965 0.85106
 O325 O 0.14811 0.51926 0.82335
 O326 O 0.17613 0.48076 0.85125
 O327 O 0.19947 0.48076 0.82773
 O328 O 0.17146 0.51949 0.79985
 O329 O 0.19916 0.51984 0.82755
 O330 O 0.17185 0.48042 0.79992
 Cu331 Cu 0.15980 0.49999 0.83962
 Cu332 Cu 0.18783 0.50013 0.81140
 C333 C 0.15540 0.47375 0.80686
 C334 C 0.19222 0.52640 0.84411
 C335 C 0.15491 0.52591 0.80678
 C336 C 0.19265 0.47425 0.84436
 C337 C 0.27343 0.37991 0.06858
 C338 C 0.26788 0.36025 0.06321
 C339 C 0.27925 0.34933 0.04931
 C340 C 0.29647 0.35779 0.04056
 C341 C 0.30219 0.37731 0.04616
 C342 C 0.29077 0.38825 0.05995
 C343 C 0.26093 0.39192 0.08267
 C344 C 0.26991 0.40505 0.09659
 C345 C 0.25817 0.41723 0.10900
 C346 C 0.23714 0.41650 0.10788
 C347 C 0.22815 0.40300 0.09433
 C348 C 0.23990 0.39089 0.08184
 C349 C 0.22470 0.43032 0.12025
 C350 C 0.20745 0.43926 0.11206
 C351 C 0.19627 0.45302 0.12327
 C352 C 0.20215 0.45828 0.14289
 C353 C 0.21919 0.44912 0.15123
 C354 C 0.23030 0.43525 0.14006
 H355 H 0.25478 0.35327 0.06979
 H356 H 0.27451 0.33429 0.04538
 H357 H 0.31531 0.38430 0.03962
 H358 H 0.29530 0.40346 0.06347
 H359 H 0.28606 0.40600 0.09784
 H360 H 0.26560 0.42759 0.11910
 H361 H 0.21200 0.40185 0.09328
 H362 H 0.23249 0.38110 0.07117
 H363 H 0.20287 0.43606 0.09675
 H364 H 0.18327 0.45987 0.11636
 H365 H 0.22404 0.45277 0.16637
 H366 H 0.24331 0.42840 0.14695
 C367 C 0.72578 0.61779 0.06618
 C368 C 0.73066 0.63804 0.06299
 C369 C 0.71924 0.64977 0.04984
 C370 C 0.70257 0.64152 0.03985
 C371 C 0.69739 0.62142 0.04354
 C372 C 0.70893 0.60965 0.05648
 C373 C 0.73858 0.60495 0.07902
 C374 C 0.74447 0.58589 0.07222
 C375 C 0.75671 0.57374 0.08410
 C376 C 0.76314 0.58031 0.10313
 C377 C 0.75715 0.59932 0.11003
 C378 C 0.74510 0.61161 0.09801
 C379 C 0.77594 0.56721 0.11570
 C380 C 0.77144 0.56404 0.13611
 C381 C 0.78289 0.55073 0.14762
 C382 C 0.79921 0.54055 0.13898
 C383 C 0.80401 0.54416 0.11870
 C384 C 0.79242 0.55726 0.10716
 H385 H 0.74366 0.64463 0.07021
 H386 H 0.72359 0.66523 0.04732
 H387 H 0.68465 0.61462 0.03608
 H388 H 0.70474 0.59413 0.05887
 H389 H 0.73979 0.58049 0.05756
 H390 H 0.76096 0.55908 0.07852
 H391 H 0.76200 0.60474 0.12462
 H392 H 0.74068 0.62621 0.10361
 H393 H 0.75872 0.57144 0.14301
 H394 H 0.77885 0.54829 0.16322
 H395 H 0.81648 0.53655 0.11160
 H396 H 0.79632 0.55961 0.09150
 C397 C 0.72779 0.37834 0.93069
 C398 C 0.73363 0.35872 0.93579
 C399 C 0.72246 0.34747 0.94957
 C400 C 0.70514 0.35555 0.95848
 C401 C 0.69911 0.37502 0.95311
 C402 C 0.71033 0.38630 0.93944
 C403 C 0.74013 0.39073 0.91679
 C404 C 0.73098 0.40385 0.90302
 C405 C 0.74257 0.41633 0.89077
 C406 C 0.76360 0.41594 0.89192
 C407 C 0.77276 0.40247 0.90534
 C408 C 0.76117 0.39005 0.91766
 C409 C 0.77587 0.43001 0.87968
 C410 C 0.79299 0.43917 0.88796
 C411 C 0.80405 0.45308 0.87683
 C412 C 0.79821 0.45826 0.85718
 C413 C 0.78127 0.44891 0.84877
 C414 C 0.77027 0.43491 0.85987
 H415 H 0.74683 0.35203 0.92910
 H416 H 0.72744 0.33247 0.95331
 H417 H 0.68591 0.38173 0.95978
 H418 H 0.70558 0.40147 0.93612
 H419 H 0.71482 0.40454 0.90175
 H420 H 0.73501 0.42666 0.88076
 H421 H 0.78893 0.40158 0.90641
 H422 H 0.76871 0.38028 0.92824
 H423 H 0.79755 0.43601 0.90328
 H424 H 0.81697 0.46008 0.88378
 H425 H 0.77645 0.45249 0.83362
 H426 H 0.75736 0.42789 0.85292
 C427 C 0.27412 0.62095 0.92986
 C428 C 0.29151 0.61286 0.93863
 C429 C 0.30271 0.62399 0.95246
 C430 C 0.29673 0.64345 0.95797
 C431 C 0.27950 0.65167 0.94904
 C432 C 0.26836 0.64057 0.93510
 C433 C 0.26179 0.60871 0.91581
 C434 C 0.24075 0.60953 0.91656
 C435 C 0.22914 0.59724 0.90411
 C436 C 0.23827 0.58374 0.89067
 C437 C 0.25931 0.58320 0.88964
 C438 C 0.27092 0.59557 0.90201
 C439 C 0.22596 0.56977 0.87831
 C440 C 0.23164 0.56483 0.85852
 C441 C 0.22056 0.55094 0.84731
 C442 C 0.20348 0.54176 0.85559
 C443 C 0.19758 0.54698 0.87522
 C444 C 0.20871 0.56076 0.88647
 H445 H 0.29620 0.59769 0.93521
 H446 H 0.31585 0.61718 0.95914
 H447 H 0.27457 0.66667 0.95289
 H448 H 0.25523 0.64737 0.92840
 H449 H 0.23321 0.61932 0.92714
 H450 H 0.21297 0.59824 0.90509
 H451 H 0.26685 0.57285 0.87962
 H452 H 0.28708 0.59476 0.90083
 H453 H 0.24465 0.57173 0.85167
 H454 H 0.22544 0.54733 0.83218
 H455 H 0.18455 0.54010 0.88208
 H456 H 0.20409 0.56395 0.90176
 C457 C 0.06648 0.27463 0.38249
 C458 C 0.06348 0.27031 0.36201
 C459 C 0.05033 0.28191 0.35049
 C460 C 0.04013 0.29821 0.35918
 C461 C 0.04359 0.30283 0.37954
 C462 C 0.05653 0.29109 0.39110
 C463 C 0.07939 0.26165 0.39508
 C464 C 0.07261 0.25505 0.41396
 C465 C 0.08461 0.24269 0.42588
 C466 C 0.10372 0.23686 0.41926
 C467 C 0.11058 0.24353 0.40042
 C468 C 0.09845 0.25570 0.38835
 C469 C 0.11644 0.22401 0.43218
 C470 C 0.13660 0.22898 0.43570
 C471 C 0.14818 0.21755 0.44898
 C472 C 0.13988 0.20080 0.45878
 C473 C 0.11988 0.19552 0.45475
 C474 C 0.10826 0.20707 0.44169
 H475 H 0.07090 0.25761 0.35507
 H476 H 0.04800 0.27801 0.33482
 H477 H 0.03595 0.31528 0.38669
 H478 H 0.05875 0.29485 0.40681
 H479 H 0.05791 0.25927 0.41940
 H480 H 0.07905 0.23790 0.44043
 H481 H 0.12524 0.23916 0.39496
 H482 H 0.10403 0.26068 0.37388
 H483 H 0.14321 0.24204 0.42865
 H484 H 0.16356 0.22197 0.45175
 H485 H 0.11304 0.18271 0.46207
 H486 H 0.09280 0.20282 0.43906
 C487 C 0.06889 0.72587 0.61959
 C488 C 0.05989 0.70859 0.61143
 C489 C 0.04621 0.69739 0.62271
 C490 C 0.04109 0.70327 0.64237
 C491 C 0.05024 0.72039 0.65065
 C492 C 0.06403 0.73153 0.63941
 C493 C 0.08279 0.73822 0.60723
 C494 C 0.08226 0.75929 0.60832
 C495 C 0.09463 0.77093 0.59601
 C496 C 0.10777 0.76181 0.58222
 C497 C 0.10856 0.74074 0.58139
 C498 C 0.09627 0.72910 0.59378
 C499 C 0.12009 0.77419 0.56829
 C500 C 0.13969 0.76838 0.56315
 C501 C 0.15090 0.77959 0.54936
 C502 C 0.14279 0.79691 0.54049
 C503 C 0.12334 0.80292 0.54590
 C504 C 0.11210 0.79166 0.55958
 H505 H 0.06302 0.70398 0.59612
 H506 H 0.03934 0.68434 0.61585
 H507 H 0.04670 0.72524 0.66580
 H508 H 0.07092 0.74457 0.64626
 H509 H 0.07192 0.76682 0.61835
 H510 H 0.09384 0.78711 0.59725
 H511 H 0.11835 0.73322 0.57080
 H512 H 0.09727 0.71292 0.59275
 H513 H 0.14641 0.75519 0.56982
 H514 H 0.16588 0.77463 0.54559
 H515 H 0.11661 0.81613 0.53926
 H516 H 0.09695 0.79639 0.56293
 C517 C 0.93065 0.72700 0.37786
 C518 C 0.93941 0.70960 0.38596
 C519 C 0.95307 0.69835 0.37472
 C520 C 0.95840 0.70429 0.35514
 C521 C 0.94945 0.72151 0.34690
 C522 C 0.93569 0.73271 0.35812
 C523 C 0.91683 0.73943 0.39023
 C524 C 0.91766 0.76049 0.38935
 C525 C 0.90541 0.77219 0.40174
 C526 C 0.89209 0.76312 0.41539
 C527 C 0.89099 0.74206 0.41600
 C528 C 0.90317 0.73036 0.40354
 C529 C 0.87992 0.77553 0.42942
 C530 C 0.86022 0.76992 0.43445
 C531 C 0.84919 0.78106 0.44842
 C532 C 0.85755 0.79813 0.45760
 C533 C 0.87707 0.80399 0.45227
 C534 C 0.88814 0.79279 0.43840
 H535 H 0.93612 0.70495 0.40122
 H536 H 0.95977 0.68522 0.38154
 H537 H 0.95316 0.72642 0.33182
 H538 H 0.92898 0.74584 0.35131
 H539 H 0.92815 0.76797 0.37943
 H540 H 0.90644 0.78837 0.40068
 H541 H 0.88106 0.73457 0.42647
 H542 H 0.90194 0.71419 0.40440
 H543 H 0.85332 0.75690 0.42758
 H544 H 0.83413 0.77622 0.45212
 H545 H 0.88399 0.81701 0.45914
 H546 H 0.90337 0.79737 0.43513
 C547 C 0.92969 0.27582 0.61947
 C548 C 0.93861 0.29311 0.61128
 C549 C 0.95244 0.30426 0.62245
 C550 C 0.95779 0.29833 0.64202
 C551 C 0.94866 0.28123 0.65035
 C552 C 0.93473 0.27014 0.63922
 C553 C 0.91572 0.26345 0.60717
 C554 C 0.91634 0.24239 0.60817
 C555 C 0.90397 0.23072 0.59585
 C556 C 0.89075 0.23982 0.58214
 C557 C 0.88985 0.26088 0.58142
 C558 C 0.90214 0.27255 0.59382
 C559 C 0.87847 0.22742 0.56817
 C560 C 0.85882 0.23313 0.56309
 C561 C 0.84767 0.22192 0.54925
 C562 C 0.85586 0.20468 0.54026
 C563 C 0.87535 0.19877 0.54560
 C564 C 0.88654 0.21004 0.55933
 H565 H 0.93533 0.29774 0.59602
 H566 H 0.95927 0.31730 0.61555
 H567 H 0.95238 0.27633 0.66544
 H568 H 0.92790 0.25709 0.64610
 H569 H 0.92676 0.23487 0.61812
 H570 H 0.90484 0.21454 0.59701
 H571 H 0.88000 0.26839 0.57090
 H572 H 0.90108 0.28873 0.59286
 H573 H 0.85204 0.24626 0.56985
 H574 H 0.83264 0.22680 0.54554
 H575 H 0.88215 0.18562 0.53887
 H576 H 0.90173 0.20538 0.56264
 C577 C 0.37866 0.06974 0.27274
 C578 C 0.38679 0.06083 0.29010
 C579 C 0.37562 0.04712 0.30136
 C580 C 0.35609 0.04186 0.29545
 C581 C 0.34784 0.05092 0.27824
 C582 C 0.35898 0.06475 0.26705
 C583 C 0.39093 0.08368 0.26033
 C584 C 0.38989 0.08308 0.23920
 C585 C 0.40216 0.09545 0.22751
 C586 C 0.41587 0.10865 0.23666
 C587 C 0.41663 0.10952 0.25780
 C588 C 0.40428 0.09724 0.26949
 C589 C 0.42981 0.12090 0.22425
 C590 C 0.43502 0.14052 0.23008
 C591 C 0.44891 0.15161 0.21892
 C592 C 0.45782 0.14338 0.20160
 C593 C 0.45231 0.12394 0.19554
 C594 C 0.43853 0.11281 0.20676
 H595 H 0.40201 0.06407 0.29474
 H596 H 0.38245 0.04033 0.31447
 H597 H 0.33278 0.04727 0.27337
 H598 H 0.35215 0.07156 0.25395
 H599 H 0.37993 0.07268 0.23163
 H600 H 0.40097 0.09460 0.21127
 H601 H 0.42715 0.11935 0.26536
 H602 H 0.40526 0.09830 0.28573
 H603 H 0.42835 0.14732 0.24328
 H604 H 0.45276 0.16660 0.22392
 H605 H 0.45898 0.11712 0.18234
 H606 H 0.43512 0.09764 0.20201
 C607 C 0.62019 0.06960 0.72487
 C608 C 0.63989 0.06485 0.73068
 C609 C 0.65120 0.05107 0.71960
 C610 C 0.64311 0.04182 0.70240
 C611 C 0.62357 0.04685 0.69636
 C612 C 0.61223 0.06053 0.70750
 C613 C 0.60774 0.08345 0.73720
 C614 C 0.59434 0.09687 0.72797
 C615 C 0.58187 0.10910 0.73959
 C616 C 0.58256 0.10828 0.76074
 C617 C 0.59629 0.09521 0.76996
 C618 C 0.60868 0.08291 0.75834
 C619 C 0.56856 0.12052 0.77310
 C620 C 0.55981 0.11243 0.79056
 C621 C 0.54616 0.12362 0.80188
 C622 C 0.54082 0.14312 0.79594
 C623 C 0.54968 0.15131 0.77859
 C624 C 0.56343 0.14016 0.76733
 H625 H 0.64660 0.07181 0.74379
 H626 H 0.66626 0.04761 0.72457
 H627 H 0.61687 0.03991 0.68324
 H628 H 0.59701 0.06358 0.70278
 H629 H 0.59343 0.09788 0.71172
 H630 H 0.57134 0.11885 0.73199
 H631 H 0.59741 0.09441 0.78620
 H632 H 0.61866 0.07261 0.76595
 H633 H 0.56315 0.09725 0.79526
 H634 H 0.53953 0.11683 0.81510
 H635 H 0.54595 0.16634 0.77368
 H636 H 0.57012 0.14694 0.75413
 C637 C 0.38181 0.93305 0.72552
 C638 C 0.38990 0.94306 0.70879
 C639 C 0.37809 0.95610 0.69741
 C640 C 0.35799 0.95959 0.70268
 C641 C 0.34981 0.94935 0.71925
 C642 C 0.36158 0.93610 0.73049
 C643 C 0.39468 0.92003 0.73811
 C644 C 0.38806 0.90097 0.74426
 C645 C 0.40037 0.88876 0.75610
 C646 C 0.41935 0.89554 0.76225
 C647 C 0.42588 0.91464 0.75620
 C648 C 0.41371 0.92672 0.74417
 C649 C 0.43247 0.88277 0.77484
 C650 C 0.44241 0.89096 0.79158
 C651 C 0.45555 0.87926 0.80295
 C652 C 0.45920 0.85916 0.79768
 C653 C 0.44902 0.85087 0.78110
 C654 C 0.43567 0.86254 0.76987
 H655 H 0.40540 0.94080 0.70453
 H656 H 0.38484 0.96377 0.68474
 H657 H 0.33436 0.95170 0.72364
 H658 H 0.35504 0.92865 0.74340
 H659 H 0.37348 0.89546 0.73969
 H660 H 0.39498 0.87412 0.76066
 H661 H 0.44052 0.92014 0.76059
 H662 H 0.41908 0.94142 0.73978
 H663 H 0.44004 0.90647 0.79583
 H664 H 0.46317 0.88609 0.81562
 H665 H 0.45149 0.83542 0.77670
 H666 H 0.42827 0.85592 0.75695
 C667 C 0.61684 0.93178 0.27710
 C668 C 0.63705 0.93502 0.27216
 C669 C 0.64866 0.94851 0.28333
 C670 C 0.64033 0.95881 0.29981
 C671 C 0.62028 0.95508 0.30508
 C672 C 0.60862 0.94180 0.29377
 C673 C 0.60411 0.91861 0.26445
 C674 C 0.58508 0.92514 0.25828
 C675 C 0.57311 0.91300 0.24605
 C676 C 0.57984 0.89399 0.23992
 C677 C 0.59880 0.88735 0.24624
 C678 C 0.61091 0.89963 0.25827
 C679 C 0.56697 0.88120 0.22704
 C680 C 0.56383 0.86091 0.23179
 C681 C 0.55072 0.84921 0.22027
 C682 C 0.54071 0.85753 0.20362
 C683 C 0.54433 0.87769 0.19857
 C684 C 0.55723 0.88942 0.21023
 H685 H 0.64369 0.92757 0.25929
 H686 H 0.66408 0.95104 0.27893
 H687 H 0.61342 0.96280 0.31768
 H688 H 0.59313 0.93940 0.29800
 H689 H 0.57957 0.93978 0.26268
 H690 H 0.55848 0.91839 0.24154
 H691 H 0.60435 0.87279 0.24163
 H692 H 0.62550 0.89424 0.26292
 H693 H 0.57109 0.85427 0.24476
 H694 H 0.54826 0.83372 0.22451
 H695 H 0.53684 0.88454 0.18585
 H696 H 0.55956 0.90498 0.20614
 C697 C 0.38254 0.27621 0.93165
 C698 C 0.39060 0.29295 0.94163
 C699 C 0.37878 0.30430 0.95473
 C700 C 0.35870 0.29899 0.95831
 C701 C 0.35055 0.28241 0.94807
 C702 C 0.36232 0.27120 0.93476
 C703 C 0.39542 0.26362 0.91860
 C704 C 0.38878 0.25733 0.89953
 C705 C 0.40106 0.24543 0.88733
 C706 C 0.42005 0.23935 0.89414
 C707 C 0.42660 0.24556 0.91325
 C708 C 0.41446 0.25766 0.92531
 C709 C 0.43311 0.22664 0.88140
 C710 C 0.44299 0.21002 0.88973
 C711 C 0.45602 0.19849 0.87803
 C712 C 0.45962 0.20349 0.85780
 C713 C 0.44952 0.21997 0.84938
 C714 C 0.43628 0.23136 0.86104
 H715 H 0.40609 0.29723 0.93933
 H716 H 0.38551 0.31697 0.96240
 H717 H 0.33512 0.27798 0.95049
 H718 H 0.35580 0.25828 0.92733
 H719 H 0.37419 0.26181 0.89400
 H720 H 0.39564 0.24075 0.87269
 H721 H 0.44125 0.24123 0.91877
 H722 H 0.41985 0.26215 0.94003
 H723 H 0.44065 0.20595 0.90535
 H724 H 0.46359 0.18590 0.88497
 H725 H 0.45196 0.22417 0.83382
 H726 H 0.42892 0.24419 0.85431
 C727 C 0.62020 0.72593 0.93019
 C728 C 0.61202 0.70859 0.93900
 C729 C 0.62314 0.69727 0.95270
 C730 C 0.64268 0.70309 0.95803
 C731 C 0.65099 0.72028 0.94907
 C732 C 0.63989 0.73155 0.93526
 C733 C 0.60798 0.73840 0.91628
 C734 C 0.60903 0.75945 0.91707
 C735 C 0.59676 0.77120 0.90478
 C736 C 0.58306 0.76218 0.89146
 C737 C 0.58230 0.74112 0.89037
 C738 C 0.59465 0.72938 0.90259
 C739 C 0.56910 0.77465 0.87932
 C740 C 0.56393 0.76908 0.85955
 C741 C 0.55010 0.78037 0.84853
 C742 C 0.54122 0.79753 0.85698
 C743 C 0.54664 0.80329 0.87660
 C744 C 0.56036 0.79195 0.88766
 H745 H 0.59679 0.70402 0.93571
 H746 H 0.61627 0.68416 0.95941
 H747 H 0.66605 0.72509 0.95277
 H748 H 0.64676 0.74464 0.92852
 H749 H 0.61897 0.76690 0.92758
 H750 H 0.59793 0.78737 0.90579
 H751 H 0.57179 0.73368 0.88044
 H752 H 0.59368 0.71321 0.90138
 H753 H 0.57061 0.75602 0.85257
 H754 H 0.54632 0.77560 0.83340
 H755 H 0.53999 0.81637 0.88360
 H756 H 0.56372 0.79648 0.90295
 C757 C 0.37957 0.72512 0.06966
 C758 C 0.38755 0.70776 0.06068
 C759 C 0.37627 0.69664 0.04690
 C760 C 0.35678 0.70267 0.04167
 C761 C 0.34867 0.71984 0.05085
 C762 C 0.35992 0.73091 0.06473
 C763 C 0.39198 0.73744 0.08358
 C764 C 0.39112 0.75850 0.08291
 C765 C 0.40353 0.77012 0.09524
 C766 C 0.41719 0.76096 0.10846
 C767 C 0.41778 0.73990 0.10941
 C768 C 0.40530 0.72828 0.09716
 C769 C 0.43123 0.77330 0.12069
 C770 C 0.43633 0.76764 0.14043
 C771 C 0.45017 0.77885 0.15157
 C772 C 0.45914 0.79603 0.14325
 C773 C 0.45382 0.80187 0.12364
 C774 C 0.44009 0.79061 0.11248
 H775 H 0.40274 0.70305 0.06387
 H776 H 0.38300 0.68353 0.04003
 H777 H 0.33365 0.72481 0.04723
 H778 H 0.35320 0.74401 0.07161
 H779 H 0.38120 0.76606 0.07249
 H780 H 0.40248 0.78630 0.09433
 H781 H 0.42826 0.73234 0.11927
 H782 H 0.40615 0.71210 0.09826
 H783 H 0.42956 0.75457 0.14732
 H784 H 0.45387 0.77402 0.16668
 H785 H 0.46054 0.81497 0.11675
 H786 H 0.43678 0.79521 0.09721
 C787 C 0.62197 0.27280 0.06894
 C788 C 0.61412 0.29035 0.06027
 C789 C 0.62544 0.30158 0.04664
 C790 C 0.64486 0.29545 0.04124
 C791 C 0.65283 0.27805 0.05007
 C792 C 0.64154 0.26687 0.06381
 C793 C 0.60952 0.26045 0.08277
 C794 C 0.61013 0.23938 0.08182
 C795 C 0.59768 0.22777 0.09409
 C796 C 0.58424 0.23694 0.10755
 C797 C 0.58391 0.25800 0.10878
 C798 C 0.59643 0.26961 0.09658
 C799 C 0.57014 0.22466 0.11974
 C800 C 0.56525 0.23023 0.13957
 C801 C 0.55123 0.21921 0.15064
 C802 C 0.54189 0.20228 0.14217
 C803 C 0.54707 0.19647 0.12251
 C804 C 0.56097 0.20756 0.11141
 H805 H 0.59899 0.29518 0.06362
 H806 H 0.61881 0.31485 0.04003
 H807 H 0.66779 0.27299 0.04630
 H808 H 0.64815 0.25360 0.07044
 H809 H 0.61988 0.23183 0.07121
 H810 H 0.59852 0.21159 0.09296
 H811 H 0.57360 0.26557 0.11881
 H812 H 0.59578 0.28578 0.09791
 H813 H 0.57226 0.24313 0.14656
 H814 H 0.54766 0.22401 0.16580
 H815 H 0.54006 0.18356 0.11551
 H816 H 0.56414 0.20301 0.09608
 C817 C 0.27236 0.06841 0.62070
 C818 C 0.28985 0.05997 0.61249
 C819 C 0.30134 0.04644 0.62362
 C820 C 0.29556 0.04091 0.64319
 C821 C 0.27821 0.04949 0.65152
 C822 C 0.26676 0.06313 0.64041
 C823 C 0.25977 0.08220 0.60848
 C824 C 0.23875 0.08109 0.60936
 C825 C 0.22692 0.09331 0.59709
 C826 C 0.23582 0.10687 0.58356
 C827 C 0.25684 0.10825 0.58297
 C828 C 0.26866 0.09611 0.59532
 C829 C 0.22330 0.11900 0.56962
 C830 C 0.22867 0.13882 0.56475
 C831 C 0.21743 0.14983 0.55086
 C832 C 0.20050 0.14131 0.54161
 C833 C 0.19489 0.12166 0.54677
 C834 C 0.20619 0.11061 0.56055
 H835 H 0.29442 0.06343 0.59724
 H836 H 0.31457 0.04002 0.61671
 H837 H 0.27341 0.04562 0.66660
 H838 H 0.25354 0.06958 0.64729
 H839 H 0.23140 0.07041 0.61918
 H840 H 0.21077 0.09206 0.59813
 H841 H 0.26420 0.11837 0.57259
 H842 H 0.28480 0.09756 0.59447
 H843 H 0.24157 0.14585 0.57170
 H844 H 0.22207 0.16499 0.54730
 H845 H 0.18197 0.11462 0.53984
 H846 H 0.20180 0.09529 0.56370
 C847 C 0.72409 0.06992 0.37915
 C848 C 0.70597 0.06249 0.38695
 C849 C 0.69452 0.04869 0.37605
 C850 C 0.70098 0.04176 0.35709
 C851 C 0.71898 0.04948 0.34915
 C852 C 0.73033 0.06342 0.36001
 C853 C 0.73670 0.08388 0.39123
 C854 C 0.75771 0.08220 0.39106
 C855 C 0.76953 0.09462 0.40317
 C856 C 0.76065 0.10895 0.41590
 C857 C 0.73966 0.11088 0.41581
 C858 C 0.72785 0.09857 0.40357
 C859 C 0.77314 0.12133 0.42972
 C860 C 0.76807 0.14139 0.43390
 C861 C 0.77929 0.15266 0.44764
 C862 C 0.79593 0.14418 0.45739
 C863 C 0.80126 0.12428 0.45293
 C864 C 0.78995 0.11296 0.43934
 H865 H 0.70086 0.06692 0.40177
 H866 H 0.68080 0.04315 0.38277
 H867 H 0.72444 0.04469 0.33455
 H868 H 0.74402 0.06911 0.35338
 H869 H 0.76504 0.07092 0.38192
 H870 H 0.78565 0.09292 0.40262
 H871 H 0.73228 0.12159 0.42557
 H872 H 0.71175 0.10049 0.40386
 H873 H 0.75543 0.14842 0.42652
 H874 H 0.77488 0.16801 0.45066
 H875 H 0.81393 0.11727 0.46029
 H876 H 0.79410 0.09747 0.43677
 C877 C 0.72690 0.93128 0.62053
 C878 C 0.73244 0.93642 0.64031
 C879 C 0.72113 0.95021 0.65139
 C880 C 0.70396 0.95908 0.64299
 C881 C 0.69821 0.95368 0.62336
 C882 C 0.70958 0.94000 0.61224
 C883 C 0.73939 0.91736 0.60833
 C884 C 0.73042 0.90363 0.59499
 C885 C 0.74218 0.89133 0.58272
 C886 C 0.76321 0.89235 0.58356
 C887 C 0.77218 0.90573 0.59725
 C888 C 0.76042 0.91812 0.60944
 C889 C 0.77569 0.88004 0.56972
 C890 C 0.79307 0.88814 0.56092
 C891 C 0.80432 0.87695 0.54719
 C892 C 0.79840 0.85743 0.54181
 C893 C 0.78121 0.84919 0.55081
 C894 C 0.77002 0.86034 0.56466
 H895 H 0.74551 0.92976 0.64725
 H896 H 0.72589 0.95398 0.66652
 H897 H 0.68513 0.96032 0.61641
 H898 H 0.70505 0.93665 0.59695
 H899 H 0.71427 0.90245 0.59396
 H900 H 0.73476 0.88136 0.57221
 H901 H 0.78833 0.90671 0.59849
 H902 H 0.76783 0.92865 0.61939
 H903 H 0.79771 0.90336 0.56422
 H904 H 0.81743 0.88378 0.54044
 H905 H 0.77631 0.83414 0.54708
 H906 H 0.75691 0.85352 0.57140
 C907 C 0.27365 0.93120 0.37849
 C908 C 0.29101 0.94007 0.38658
 C909 C 0.30221 0.95375 0.37530
 C910 C 0.29627 0.95899 0.35571
 C911 C 0.27907 0.94995 0.34749
 C912 C 0.26792 0.93617 0.35874
 C913 C 0.26131 0.91731 0.39086
 C914 C 0.24027 0.91801 0.38996
 C915 C 0.22864 0.90565 0.40230
 C916 C 0.23776 0.89235 0.41592
 C917 C 0.25880 0.89138 0.41656
 C918 C 0.27043 0.90367 0.40415
 C919 C 0.22542 0.88002 0.42987
 C920 C 0.23110 0.86031 0.43478
 C921 C 0.21995 0.84909 0.44860
 C922 C 0.20281 0.85729 0.45774
 C923 C 0.19693 0.87685 0.45256
 C924 C 0.20813 0.88810 0.43884
 H925 H 0.29568 0.93684 0.40185
 H926 H 0.31533 0.96052 0.38211
 H927 H 0.27416 0.95359 0.33239
 H928 H 0.25482 0.92938 0.35194
 H929 H 0.23275 0.92848 0.38006
 H930 H 0.21248 0.90658 0.40123
 H931 H 0.26632 0.88147 0.42701
 H932 H 0.28659 0.90255 0.40502
 H933 H 0.24415 0.85352 0.42791
 H934 H 0.22481 0.83401 0.45218
 H935 H 0.18386 0.88365 0.45940
 H936 H 0.20351 0.90334 0.43566
 C937 C 0.07025 0.37960 0.72386
 C938 C 0.06508 0.35996 0.72960
 C939 C 0.05117 0.34888 0.71843
 C940 C 0.04219 0.35715 0.70119
 C941 C 0.04767 0.37661 0.69519
 C942 C 0.06148 0.38772 0.70643
 C943 C 0.08418 0.39184 0.73632
 C944 C 0.09786 0.40509 0.72723
 C945 C 0.11014 0.41742 0.73898
 C946 C 0.10913 0.41673 0.76012
 C947 C 0.09581 0.40313 0.76921
 C948 C 0.08345 0.39088 0.75746
 C949 C 0.12141 0.43063 0.77259
 C950 C 0.11331 0.43946 0.79002
 C951 C 0.12449 0.45315 0.80133
 C952 C 0.14400 0.45845 0.79543
 C953 C 0.15224 0.44945 0.77817
 C954 C 0.14109 0.43565 0.76691
 H955 H 0.07180 0.35312 0.74275
 H956 H 0.04735 0.33388 0.72338
 H957 H 0.04095 0.38346 0.68204
 H958 H 0.06485 0.40291 0.70174
 H959 H 0.09902 0.40602 0.71100
 H960 H 0.12007 0.42786 0.73147
 H961 H 0.09485 0.40200 0.78544
 H962 H 0.07295 0.38101 0.76498
 H963 H 0.09810 0.43620 0.79466
 H964 H 0.11766 0.45990 0.81449
 H965 H 0.16728 0.45314 0.77329
 H966 H 0.14791 0.42889 0.75376
 C967 C 0.06990 0.62218 0.27300
 C968 C 0.06480 0.64181 0.26716
 C969 C 0.05091 0.65295 0.27828
 C970 C 0.04190 0.64477 0.29555
 C971 C 0.04729 0.62531 0.30161
 C972 C 0.06106 0.61413 0.29043
 C973 C 0.08385 0.60988 0.26064
 C974 C 0.09745 0.59666 0.26985
 C975 C 0.10971 0.58423 0.25822
 C976 C 0.10876 0.58479 0.23708
 C977 C 0.09552 0.59838 0.22786
 C978 C 0.08318 0.61073 0.23950
 C979 C 0.12096 0.57073 0.22473
 C980 C 0.11281 0.56180 0.20737
 C981 C 0.12388 0.54793 0.19621
 C982 C 0.14334 0.54253 0.20221
 C983 C 0.15163 0.55165 0.21940
 C984 C 0.14058 0.56563 0.23050
 H985 H 0.07156 0.64858 0.25400
 H986 H 0.04717 0.66795 0.27328
 H987 H 0.04054 0.61852 0.31478
 H988 H 0.06437 0.59896 0.29518
 H989 H 0.09856 0.59583 0.28610
 H990 H 0.11957 0.57381 0.26582
 H991 H 0.09461 0.59940 0.21162
 H992 H 0.07274 0.62057 0.23190
 H993 H 0.09763 0.56512 0.20268
 H994 H 0.11702 0.54110 0.18311
 H995 H 0.16663 0.54790 0.22435
 H996 H 0.14743 0.57246 0.24360
 C997 C 0.93315 0.38317 0.27448
 C998 C 0.93646 0.36292 0.26966
 C999 C 0.94960 0.35131 0.28120
 C1000 C 0.95945 0.35969 0.29793
 C1001 C 0.95567 0.37980 0.30305
 C1002 C 0.94275 0.39144 0.29137
 C1003 C 0.92028 0.39587 0.26157
 C1004 C 0.92698 0.41489 0.25545
 C1005 C 0.91507 0.42689 0.24310
 C1006 C 0.89611 0.42022 0.23680
 C1007 C 0.88931 0.40126 0.24302
 C1008 C 0.90138 0.38910 0.25517
 C1009 C 0.88351 0.43317 0.22386
 C1010 C 0.86325 0.43646 0.22855
 C1011 C 0.85174 0.44966 0.21698
 C1012 C 0.86021 0.45959 0.20036
 C1013 C 0.88033 0.45584 0.19539
 C1014 C 0.89189 0.44286 0.20709
 H1015 H 0.92931 0.35624 0.25663
 H1016 H 0.95218 0.33585 0.27691
 H1017 H 0.96305 0.38669 0.31583
 H1018 H 0.94029 0.40697 0.29550
 H1019 H 0.94157 0.42036 0.26004
 H1020 H 0.92057 0.44152 0.23865
 H1021 H 0.87478 0.39576 0.23827
 H1022 H 0.89586 0.37453 0.25978
 H1023 H 0.85650 0.42925 0.24148
 H1024 H 0.83626 0.45222 0.22116
 H1025 H 0.88730 0.46327 0.18269
 H1026 H 0.90743 0.44041 0.20307
 C1027 C 0.93066 0.62089 0.72574
 C1028 C 0.93953 0.61269 0.70837
 C1029 C 0.95318 0.62386 0.69703
 C1030 C 0.95842 0.64344 0.70285
 C1031 C 0.94939 0.65176 0.72006
 C1032 C 0.93562 0.64063 0.73134
 C1033 C 0.91679 0.60864 0.73824
 C1034 C 0.91743 0.60981 0.75937
 C1035 C 0.90508 0.59760 0.77115
 C1036 C 0.89188 0.58383 0.76210
 C1037 C 0.89098 0.58293 0.74096
 C1038 C 0.90324 0.59522 0.72918
 C1039 C 0.87961 0.56999 0.77461
 C1040 C 0.86000 0.56478 0.76885
 C1041 C 0.84890 0.55098 0.78010
 C1042 C 0.85710 0.54216 0.79746
 C1043 C 0.87653 0.54767 0.80347
 C1044 C 0.88768 0.56136 0.79215
 H1045 H 0.93632 0.59743 0.70380
 H1046 H 0.95995 0.61697 0.68391
 H1047 H 0.95302 0.66686 0.72487
 H1048 H 0.92884 0.64752 0.74443
 H1049 H 0.92782 0.61981 0.76685
 H1050 H 0.90596 0.59888 0.78738
 H1051 H 0.88115 0.57236 0.73348
 H1052 H 0.90215 0.59414 0.71295
 H1053 H 0.85322 0.57139 0.75561
 H1054 H 0.83392 0.54713 0.77514
 H1055 H 0.88333 0.54106 0.81670
 H1056 H 0.90283 0.56477 0.79686
 C1057 C 0.72479 0.62049 0.93039
 C1058 C 0.73130 0.63959 0.93660
 C1059 C 0.72011 0.65080 0.95039
 C1060 C 0.70198 0.64328 0.95824
 C1061 C 0.69522 0.62438 0.95156
 C1062 C 0.70652 0.61311 0.93792
 C1063 C 0.73728 0.60801 0.91667
 C1064 C 0.72834 0.59549 0.90217
 C1065 C 0.74005 0.58294 0.89008
 C1066 C 0.76103 0.58271 0.89208
 C1067 C 0.77000 0.59560 0.90623
 C1068 C 0.75828 0.60802 0.91843
 C1069 C 0.77346 0.56864 0.87994
 C1070 C 0.79024 0.55920 0.88855
 C1071 C 0.80166 0.54560 0.87741
 C1072 C 0.79649 0.54094 0.85744
 C1073 C 0.77980 0.55041 0.84875
 C1074 C 0.76845 0.56417 0.85985
 H1075 H 0.74509 0.64590 0.93082
 H1076 H 0.72579 0.66534 0.95497
 H1077 H 0.68139 0.61799 0.95721
 H1078 H 0.70118 0.59835 0.93372
 H1079 H 0.71223 0.59530 0.90019
 H1080 H 0.73261 0.57308 0.87949
 H1081 H 0.78613 0.59606 0.90797
 H1082 H 0.76569 0.61727 0.92958
 H1083 H 0.79432 0.56197 0.90408
 H1084 H 0.81435 0.53845 0.88460
 H1085 H 0.77550 0.54721 0.83335
 H1086 H 0.75582 0.57138 0.85264
 C1087 C 0.27527 0.38051 0.93032
 C1088 C 0.26895 0.36127 0.93624
 C1089 C 0.28008 0.35011 0.95010
 C1090 C 0.29796 0.35784 0.95832
 C1091 C 0.30451 0.37692 0.95199
 C1092 C 0.29327 0.38812 0.93827
 C1093 C 0.26288 0.39286 0.91641
 C1094 C 0.27195 0.40550 0.90211
 C1095 C 0.26032 0.41787 0.88979
 C1096 C 0.23930 0.41783 0.89136
 C1097 C 0.23022 0.40483 0.90532
 C1098 C 0.24185 0.39257 0.91773
 C1099 C 0.22695 0.43171 0.87895
 C1100 C 0.20992 0.44101 0.88722
 C1101 C 0.19862 0.45453 0.87586
 C1102 C 0.20417 0.45923 0.85600
 C1103 C 0.22108 0.44984 0.84764
 C1104 C 0.23230 0.43618 0.85896
 H1105 H 0.25536 0.35479 0.93014
 H1106 H 0.27456 0.33544 0.95441
 H1107 H 0.31815 0.38348 0.95794
 H1108 H 0.29845 0.40299 0.93429
 H1109 H 0.28809 0.40590 0.90047
 H1110 H 0.26784 0.42783 0.87937
 H1111 H 0.21407 0.40417 0.90672
 H1112 H 0.23435 0.38321 0.92871
 H1113 H 0.20554 0.43823 0.90266
 H1114 H 0.18575 0.46161 0.88279
 H1115 H 0.22568 0.45306 0.83234
 H1116 H 0.24514 0.42906 0.85201
 C1117 C 0.27433 0.62013 0.06785
 C1118 C 0.29249 0.61277 0.06007
 C1119 C 0.30374 0.62415 0.04649
 C1120 C 0.29704 0.64315 0.04014
 C1121 C 0.27898 0.65062 0.04817
 C1122 C 0.26784 0.63929 0.06190
 C1123 C 0.26197 0.60761 0.08165
 C1124 C 0.24095 0.60761 0.08015
 C1125 C 0.22936 0.59522 0.09249
 C1126 C 0.23848 0.58237 0.10654
 C1127 C 0.25948 0.58259 0.10827
 C1128 C 0.27108 0.59510 0.09603
 C1129 C 0.22619 0.56839 0.11891
 C1130 C 0.23144 0.56408 0.13896
 C1131 C 0.22024 0.55040 0.15029
 C1132 C 0.20343 0.54084 0.14187
 C1133 C 0.19800 0.54535 0.12194
 C1134 C 0.20929 0.55888 0.11058
 H1135 H 0.29780 0.59796 0.06407
 H1136 H 0.31751 0.61779 0.04068
 H1137 H 0.27334 0.66523 0.04384
 H1138 H 0.25411 0.64558 0.06787
 H1139 H 0.23343 0.61687 0.06910
 H1140 H 0.21322 0.59568 0.09096
 H1141 H 0.26704 0.57275 0.11877
 H1142 H 0.28720 0.59492 0.09781
 H1143 H 0.24417 0.57136 0.14596
 H1144 H 0.22473 0.54733 0.16565
 H1145 H 0.18521 0.53813 0.11497
 H1146 H 0.20500 0.56154 0.09509
 C1147 C 0.72785 0.37772 0.06820
 C1148 C 0.70966 0.38515 0.06060
 C1149 C 0.69828 0.37387 0.04704
 C1150 C 0.70488 0.35488 0.04051
 C1151 C 0.72296 0.34731 0.04839
 C1152 C 0.73424 0.35855 0.06210
 C1153 C 0.74039 0.39021 0.08188
 C1154 C 0.76139 0.39017 0.08015
 C1155 C 0.77313 0.40267 0.09226
 C1156 C 0.76418 0.41566 0.10632
 C1157 C 0.74320 0.41543 0.10832
 C1158 C 0.73147 0.40281 0.09632
 C1159 C 0.77659 0.42988 0.11831
 C1160 C 0.77156 0.43456 0.13835
 C1161 C 0.78276 0.44860 0.14925
 C1162 C 0.79936 0.45816 0.14043
 C1163 C 0.80461 0.45323 0.12055
 C1164 C 0.79332 0.43934 0.10960
 H1165 H 0.70442 0.39997 0.06471
 H1166 H 0.68449 0.38030 0.04136
 H1167 H 0.72852 0.33270 0.04391
 H1168 H 0.74799 0.35221 0.06793
 H1169 H 0.76878 0.38084 0.06906
 H1170 H 0.78926 0.40222 0.09053
 H1171 H 0.73577 0.42537 0.11883
 H1172 H 0.71536 0.40302 0.09829
 H1173 H 0.75897 0.42733 0.14564
 H1174 H 0.77841 0.45199 0.16459
 H1175 H 0.81723 0.46043 0.11327
 H1176 H 0.79744 0.43640 0.09410
 C1177 C 0.93158 0.72586 0.62018
 C1178 C 0.93915 0.70763 0.61273
 C1179 C 0.95274 0.69634 0.62402
 C1180 C 0.95931 0.70307 0.64302
 C1181 C 0.95148 0.72119 0.65059
 C1182 C 0.93775 0.73238 0.63935
 C1183 C 0.91782 0.73828 0.60771
 C1184 C 0.91943 0.75932 0.60770
 C1185 C 0.90718 0.77096 0.59529
 C1186 C 0.89311 0.76187 0.58241
 C1187 C 0.89124 0.74086 0.58267
 C1188 C 0.90339 0.72922 0.59521
 C1189 C 0.88090 0.77421 0.56833
 C1190 C 0.86092 0.76904 0.56394
 C1191 C 0.84976 0.78028 0.55014
 C1192 C 0.85827 0.79702 0.54054
 C1193 C 0.87813 0.80236 0.54513
 C1194 C 0.88932 0.79104 0.55878
 H1195 H 0.93500 0.70230 0.59791
 H1196 H 0.95838 0.68252 0.61758
 H1197 H 0.95599 0.72686 0.66520
 H1198 H 0.93194 0.74616 0.64571
 H1199 H 0.93051 0.76682 0.61694
 H1200 H 0.90881 0.78712 0.59572
 H1201 H 0.88072 0.73332 0.57283
 H1202 H 0.90152 0.71308 0.59505
 H1203 H 0.85385 0.75637 0.57124
 H1204 H 0.83445 0.77585 0.54700
 H1205 H 0.88518 0.81509 0.53789
 H1206 H 0.90476 0.79526 0.56149
 C1207 C 0.93046 0.27593 0.37897
 C1208 C 0.93797 0.29405 0.38676
 C1209 C 0.95179 0.30544 0.37585
 C1210 C 0.95867 0.29892 0.35689
 C1211 C 0.95091 0.28090 0.34897
 C1212 C 0.93694 0.26961 0.35984
 C1213 C 0.91645 0.26340 0.39106
 C1214 C 0.91801 0.24236 0.39091
 C1215 C 0.90557 0.23063 0.40305
 C1216 C 0.89134 0.23962 0.41580
 C1217 C 0.88951 0.26064 0.41567
 C1218 C 0.90185 0.27237 0.40340
 C1219 C 0.87897 0.22721 0.42969
 C1220 C 0.85897 0.23238 0.43393
 C1221 C 0.84772 0.22121 0.44771
 C1222 C 0.85615 0.20451 0.45743
 C1223 C 0.87600 0.19910 0.45292
 C1224 C 0.88729 0.21037 0.43929
 H1225 H 0.93358 0.29923 0.40157
 H1226 H 0.95738 0.31918 0.38255
 H1227 H 0.95566 0.27539 0.33438
 H1228 H 0.93120 0.25591 0.35322
 H1229 H 0.92922 0.23493 0.38177
 H1230 H 0.90718 0.21447 0.40253
 H1231 H 0.87887 0.26811 0.42543
 H1232 H 0.90001 0.28850 0.40367
 H1233 H 0.85198 0.24506 0.42657
 H1234 H 0.83242 0.22568 0.45078
 H1235 H 0.88298 0.18640 0.46025
 H1236 H 0.90274 0.20614 0.43668
 C1237 C 0.06571 0.27359 0.61788
 C1238 C 0.06048 0.26755 0.63743
 C1239 C 0.04729 0.27909 0.64900
 C1240 C 0.03928 0.29711 0.64137
 C1241 C 0.04510 0.30337 0.62196
 C1242 C 0.05802 0.29165 0.61032
 C1243 C 0.07863 0.26079 0.60510
 C1244 C 0.07280 0.25623 0.58530
 C1245 C 0.08478 0.24402 0.57318
 C1246 C 0.10295 0.23635 0.58053
 C1247 C 0.10889 0.24103 0.60028
 C1248 C 0.09672 0.25300 0.61254
 C1249 C 0.11565 0.22362 0.56746
 C1250 C 0.13617 0.22772 0.56522
 C1251 C 0.14785 0.21643 0.55188
 C1252 C 0.13925 0.20063 0.54080
 C1253 C 0.11884 0.19620 0.54351
 C1254 C 0.10713 0.20768 0.55659
 H1255 H 0.06617 0.25361 0.64353
 H1256 H 0.04328 0.27375 0.66387
 H1257 H 0.03938 0.31714 0.61550
 H1258 H 0.06201 0.29670 0.59535
 H1259 H 0.05884 0.26195 0.57928
 H1260 H 0.07996 0.24075 0.55795
 H1261 H 0.12281 0.23521 0.60628
 H1262 H 0.10154 0.25638 0.62774
 H1263 H 0.14304 0.24002 0.57337
 H1264 H 0.16355 0.22015 0.55013
 H1265 H 0.11178 0.18415 0.53516
 H1266 H 0.09136 0.20415 0.55819
 C1267 C 0.06802 0.72746 0.37779
 C1268 C 0.06037 0.70928 0.38527
 C1269 C 0.04673 0.69799 0.37402
 C1270 C 0.04019 0.70466 0.35500
 C1271 C 0.04803 0.72277 0.34743
 C1272 C 0.06181 0.73397 0.35865
 C1273 C 0.08196 0.73978 0.39019
 C1274 C 0.08050 0.76082 0.39031
 C1275 C 0.09293 0.77235 0.40271
 C1276 C 0.10704 0.76313 0.41541
 C1277 C 0.10875 0.74210 0.41501
 C1278 C 0.09643 0.73059 0.40250
 C1279 C 0.11943 0.77530 0.42950
 C1280 C 0.13939 0.76996 0.43371
 C1281 C 0.15068 0.78091 0.44766
 C1282 C 0.14233 0.79755 0.45759
 C1283 C 0.12252 0.80312 0.45311
 C1284 C 0.11119 0.79208 0.43931
 H1285 H 0.06454 0.70396 0.40009
 H1286 H 0.04106 0.68418 0.38047
 H1287 H 0.04352 0.72840 0.33281
 H1288 H 0.06766 0.74773 0.35228
 H1289 H 0.06940 0.76841 0.38120
 H1290 H 0.09141 0.78852 0.40240
 H1291 H 0.11929 0.73447 0.42473
 H1292 H 0.09819 0.71444 0.40255
 H1293 H 0.14633 0.75733 0.42619
 H1294 H 0.16595 0.77632 0.45069
 H1295 H 0.11561 0.81579 0.46060
 H1296 H 0.09577 0.79643 0.43672
 C1297 C 0.62059 0.93168 0.72591
 C1298 C 0.61261 0.94041 0.70839
 C1299 C 0.62389 0.95399 0.69707
 C1300 C 0.64339 0.95929 0.70306
 C1301 C 0.65149 0.95042 0.72043
 C1302 C 0.64024 0.93672 0.73169
 C1303 C 0.60822 0.91784 0.73834
 C1304 C 0.60912 0.91859 0.75948
 C1305 C 0.59678 0.90628 0.77118
 C1306 C 0.58316 0.89299 0.76204
 C1307 C 0.58252 0.89199 0.74090
 C1308 C 0.59493 0.90421 0.72920
 C1309 C 0.56922 0.88071 0.77445
 C1310 C 0.56413 0.86105 0.76868
 C1311 C 0.55032 0.84989 0.77989
 C1312 C 0.54139 0.85810 0.79720
 C1313 C 0.54674 0.87760 0.80318
 C1314 C 0.56044 0.88880 0.79191
 H1315 H 0.59742 0.93715 0.70366
 H1316 H 0.61716 0.96064 0.68382
 H1317 H 0.66651 0.95410 0.72538
 H1318 H 0.64696 0.93004 0.74492
 H1319 H 0.61901 0.92905 0.76704
 H1320 H 0.59788 0.90724 0.78742
 H1321 H 0.57207 0.88209 0.73334
 H1322 H 0.59405 0.90303 0.71296
 H1323 H 0.57085 0.85424 0.75551
 H1324 H 0.54660 0.83485 0.77495
 H1325 H 0.54005 0.88441 0.81638
 H1326 H 0.56375 0.90400 0.79662
 C1327 C 0.37936 0.93122 0.27315
 C1328 C 0.38734 0.94028 0.29052
 C1329 C 0.37606 0.95402 0.30163
 C1330 C 0.35655 0.95916 0.29558
 C1331 C 0.34846 0.94998 0.27834
 C1332 C 0.35971 0.93612 0.26728
 C1333 C 0.39172 0.91718 0.26094
 C1334 C 0.39084 0.91757 0.23979
 C1335 C 0.40318 0.90508 0.22829
 C1336 C 0.41679 0.89196 0.23765
 C1337 C 0.41740 0.89130 0.25880
 C1338 C 0.40499 0.90371 0.27030
 C1339 C 0.43076 0.87954 0.22543
 C1340 C 0.43585 0.85997 0.23143
 C1341 C 0.44970 0.84869 0.22039
 C1342 C 0.45869 0.85670 0.20302
 C1343 C 0.45334 0.87612 0.19682
 C1344 C 0.43960 0.88743 0.20791
 H1345 H 0.40253 0.93712 0.29529
 H1346 H 0.38278 0.96090 0.31478
 H1347 H 0.33343 0.95354 0.27334
 H1348 H 0.35299 0.92920 0.25416
 H1349 H 0.38096 0.92789 0.23207
 H1350 H 0.40210 0.90577 0.21204
 H1351 H 0.42784 0.88154 0.26651
 H1352 H 0.40585 0.90281 0.28655
 H1353 H 0.42910 0.85332 0.24466
 H1354 H 0.45342 0.83373 0.22551
 H1355 H 0.46007 0.88278 0.18357
 H1356 H 0.43630 0.90256 0.20303
 C1357 C 0.61657 0.06706 0.27472
 C1358 C 0.60837 0.05747 0.29165
 C1359 C 0.62004 0.04453 0.30329
 C1360 C 0.64010 0.04069 0.29810
 C1361 C 0.64838 0.05049 0.28130
 C1362 C 0.63675 0.06366 0.26980
 C1363 C 0.60385 0.08008 0.26194
 C1364 C 0.61069 0.09898 0.25555
 C1365 C 0.59849 0.11123 0.24363
 C1366 C 0.57939 0.10466 0.23763
 C1367 C 0.57265 0.08570 0.24390
 C1368 C 0.58471 0.07358 0.25602
 C1369 C 0.56636 0.11750 0.22499
 C1370 C 0.55624 0.10931 0.20836
 C1371 C 0.54326 0.12112 0.19690
 C1372 C 0.53993 0.14132 0.20198
 C1373 C 0.55027 0.14959 0.21848
 C1374 C 0.56347 0.13782 0.22979
 H1375 H 0.59290 0.06000 0.29587
 H1376 H 0.61321 0.03720 0.31612
 H1377 H 0.66380 0.04787 0.27696
 H1378 H 0.64338 0.07079 0.25675
 H1379 H 0.62536 0.10435 0.26000
 H1380 H 0.60406 0.12575 0.23891
 H1381 H 0.55792 0.08035 0.23963
 H1382 H 0.57916 0.05901 0.26060
 H1383 H 0.55837 0.09373 0.20423
 H1384 H 0.53552 0.11430 0.18430
 H1385 H 0.54804 0.16512 0.22273
 H1386 H 0.57100 0.14445 0.24262
 C1387 C 0.37892 0.06967 0.72579
 C1388 C 0.35938 0.06437 0.73170
 C1389 C 0.34823 0.05054 0.72048
 C1390 C 0.35632 0.04179 0.70302
 C1391 C 0.37569 0.04737 0.69690
 C1392 C 0.38688 0.06108 0.70818
 C1393 C 0.39123 0.08359 0.73822
 C1394 C 0.40429 0.09741 0.72907
 C1395 C 0.41670 0.10968 0.74075
 C1396 C 0.41627 0.10853 0.76188
 C1397 C 0.40284 0.09507 0.77104
 C1398 C 0.39052 0.08271 0.75936
 C1399 C 0.43025 0.12081 0.77427
 C1400 C 0.43930 0.11263 0.79153
 C1401 C 0.45308 0.12381 0.80273
 C1402 C 0.45825 0.14340 0.79688
 C1403 C 0.44903 0.15170 0.77979
 C1404 C 0.43514 0.14056 0.76864
 H1405 H 0.35267 0.07094 0.74501
 H1406 H 0.33330 0.04665 0.72554
 H1407 H 0.38241 0.04082 0.68358
 H1408 H 0.40198 0.06455 0.70335
 H1409 H 0.40502 0.09868 0.71283
 H1410 H 0.42699 0.11972 0.73318
 H1411 H 0.40191 0.09400 0.78728
 H1412 H 0.38079 0.07212 0.76692
 H1413 H 0.43615 0.09737 0.79612
 H1414 H 0.45999 0.11693 0.81576
 H1415 H 0.45260 0.16680 0.77495
 H1416 H 0.42821 0.14743 0.75562
 C1417 C 0.62007 0.72504 0.06900
 C1418 C 0.63980 0.73065 0.06408
 C1419 C 0.65093 0.71948 0.05021
 C1420 C 0.64265 0.70238 0.04101
 C1421 C 0.62308 0.69654 0.04621
 C1422 C 0.61191 0.70776 0.05999
 C1423 C 0.60782 0.73745 0.08298
 C1424 C 0.59442 0.72839 0.09656
 C1425 C 0.58215 0.74009 0.10893
 C1426 C 0.58304 0.76116 0.10810
 C1427 C 0.59676 0.77021 0.09486
 C1428 C 0.60896 0.75851 0.08241
 C1429 C 0.56924 0.77360 0.12050
 C1430 C 0.56059 0.79108 0.11246
 C1431 C 0.54701 0.80239 0.12374
 C1432 C 0.54163 0.79644 0.14330
 C1433 C 0.55046 0.77913 0.15148
 C1434 C 0.56414 0.76786 0.14022
 H1435 H 0.64666 0.74368 0.07099
 H1436 H 0.66601 0.72431 0.04661
 H1437 H 0.61622 0.68350 0.03932
 H1438 H 0.59667 0.70318 0.06317
 H1439 H 0.59335 0.71221 0.09758
 H1440 H 0.57162 0.73261 0.11880
 H1441 H 0.59804 0.78638 0.09403
 H1442 H 0.61894 0.76600 0.07200
 H1443 H 0.56391 0.79577 0.09721
 H1444 H 0.54040 0.81559 0.11695
 H1445 H 0.54671 0.77420 0.16655
 H1446 H 0.57076 0.75467 0.14699
 C1447 C 0.38029 0.27579 0.06843
 C1448 C 0.36066 0.26998 0.06336
 C1449 C 0.34940 0.28118 0.04962
 C1450 C 0.35746 0.29853 0.04074
 C1451 C 0.37692 0.30458 0.04611
 C1452 C 0.38822 0.29331 0.05973
 C1453 C 0.39271 0.26334 0.08221
 C1454 C 0.40603 0.27237 0.09590
 C1455 C 0.41847 0.26064 0.10807
 C1456 C 0.41781 0.23958 0.10693
 C1457 C 0.40416 0.23055 0.09357
 C1458 C 0.39181 0.24228 0.08132
 C1459 C 0.43174 0.22711 0.11914
 C1460 C 0.44045 0.20975 0.11087
 C1461 C 0.45400 0.19831 0.12205
 C1462 C 0.45929 0.20402 0.14172
 C1463 C 0.45049 0.22127 0.15008
 C1464 C 0.43683 0.23266 0.13893
 H1465 H 0.35396 0.25675 0.07002
 H1466 H 0.33440 0.27618 0.04590
 H1467 H 0.38362 0.31781 0.03945
 H1468 H 0.40339 0.29806 0.06302
 H1469 H 0.40692 0.28854 0.09718
 H1470 H 0.42893 0.26811 0.11803
 H1471 H 0.40304 0.21438 0.09251
 H1472 H 0.38189 0.23481 0.07081
 H1473 H 0.43716 0.20522 0.09557
 H1474 H 0.46060 0.18517 0.11512
 H1475 H 0.45418 0.22601 0.16523
 H1476 H 0.43018 0.24576 0.14587
 C1477 C 0.62169 0.27325 0.93050
 C1478 C 0.61377 0.29061 0.93953
 C1479 C 0.62513 0.30172 0.95326
 C1480 C 0.64464 0.29568 0.95840
 C1481 C 0.65267 0.27847 0.94921
 C1482 C 0.64135 0.26741 0.93538
 C1483 C 0.60924 0.26101 0.91653
 C1484 C 0.61009 0.23994 0.91705
 C1485 C 0.59766 0.22841 0.90465
 C1486 C 0.58398 0.23766 0.89150
 C1487 C 0.58340 0.25874 0.89070
 C1488 C 0.59591 0.27026 0.90302
 C1489 C 0.56991 0.22542 0.87919
 C1490 C 0.56472 0.23129 0.85953
 C1491 C 0.55078 0.22023 0.84836
 C1492 C 0.54180 0.20299 0.85655
 C1493 C 0.54725 0.19692 0.87606
 C1494 C 0.56108 0.20803 0.88726
 H1495 H 0.59858 0.29536 0.93639
 H1496 H 0.61845 0.31484 0.96015
 H1497 H 0.66770 0.27348 0.95277
 H1498 H 0.64802 0.25431 0.92846
 H1499 H 0.62001 0.23230 0.92741
 H1500 H 0.59870 0.21222 0.90544
 H1501 H 0.57292 0.26637 0.88091
 H1502 H 0.59507 0.28645 0.90202
 H1503 H 0.57146 0.24442 0.85274
 H1504 H 0.54698 0.22524 0.83333
 H1505 H 0.54053 0.18377 0.88285
 H1506 H 0.56446 0.20326 0.90246
 C1507 C 0.37986 0.72663 0.93140
 C1508 C 0.38780 0.70908 0.94001
 C1509 C 0.37649 0.69770 0.95353
 C1510 C 0.35700 0.70365 0.95888
 C1511 C 0.34895 0.72106 0.95013
 C1512 C 0.36023 0.73239 0.93650
 C1513 C 0.39224 0.73912 0.91761
 C1514 C 0.39143 0.76018 0.91858
 C1515 C 0.40372 0.77191 0.90626
 C1516 C 0.41719 0.76289 0.89273
 C1517 C 0.41776 0.74183 0.89153
 C1518 C 0.40541 0.73010 0.90378
 C1519 C 0.43103 0.77533 0.88038
 C1520 C 0.43583 0.76978 0.86052
 C1521 C 0.44955 0.78100 0.84927
 C1522 C 0.45870 0.79811 0.85758
 C1523 C 0.45363 0.80389 0.87729
 C1524 C 0.44001 0.79261 0.88857
 H1525 H 0.40297 0.70438 0.93669
 H1526 H 0.38318 0.68443 0.96009
 H1527 H 0.33394 0.72599 0.95385
 H1528 H 0.35354 0.74564 0.92991
 H1529 H 0.38163 0.76763 0.92920
 H1530 H 0.40269 0.78809 0.90737
 H1531 H 0.42810 0.73437 0.88145
 H1532 H 0.40621 0.71393 0.90244
 H1533 H 0.42895 0.75675 0.85363
 H1534 H 0.45305 0.77621 0.83409
 H1535 H 0.46048 0.81694 0.88417
 H1536 H 0.43691 0.79715 0.90391
 C1537 C 0.72487 0.93366 0.38322
 C1538 C 0.72937 0.93672 0.36279
 C1539 C 0.71792 0.94998 0.35121
 C1540 C 0.70159 0.96021 0.35978
 C1541 C 0.69682 0.95671 0.38010
 C1542 C 0.70840 0.94367 0.39171
 C1543 C 0.73763 0.92055 0.39586
 C1544 C 0.74401 0.92712 0.41491
 C1545 C 0.75614 0.91495 0.42689
 C1546 C 0.76198 0.89584 0.42016
 C1547 C 0.75553 0.88918 0.40115
 C1548 C 0.74358 0.90150 0.38903
 C1549 C 0.77470 0.88296 0.43308
 C1550 C 0.76979 0.86271 0.43623
 C1551 C 0.78117 0.85093 0.44939
 C1552 C 0.79783 0.85913 0.45943
 C1553 C 0.80302 0.87925 0.45582
 C1554 C 0.79151 0.89106 0.44288
 H1555 H 0.74207 0.92927 0.35593
 H1556 H 0.72194 0.95233 0.33559
 H1557 H 0.68435 0.96436 0.38716
 H1558 H 0.70450 0.94140 0.40737
 H1559 H 0.73978 0.94181 0.42045
 H1560 H 0.76077 0.92036 0.44155
 H1561 H 0.75992 0.87455 0.39559
 H1562 H 0.73877 0.89606 0.37444
 H1563 H 0.75682 0.85615 0.42895
 H1564 H 0.77682 0.83546 0.45183
 H1565 H 0.81575 0.88602 0.46332
 H1566 H 0.79573 0.90659 0.44054
 C1567 C 0.27448 0.93043 0.62002
 C1568 C 0.29166 0.93954 0.61184
 C1569 C 0.30282 0.95328 0.62311
 C1570 C 0.29701 0.95836 0.64281
 C1571 C 0.28001 0.94906 0.65112
 C1572 C 0.26891 0.93522 0.63988
 C1573 C 0.26212 0.91653 0.60764
 C1574 C 0.24109 0.91702 0.60880
 C1575 C 0.22942 0.90469 0.59644
 C1576 C 0.23849 0.89163 0.58252
 C1577 C 0.25953 0.89086 0.58163
 C1578 C 0.27120 0.90312 0.59407
 C1579 C 0.22607 0.87940 0.56852
 C1580 C 0.23182 0.85979 0.56322
 C1581 C 0.22056 0.84868 0.54938
 C1582 C 0.20324 0.85687 0.54061
 C1583 C 0.19730 0.87633 0.54617
 C1584 C 0.20861 0.88747 0.55991
 H1585 H 0.29621 0.93646 0.59650
 H1586 H 0.31579 0.96025 0.61623
 H1587 H 0.27520 0.95256 0.66630
 H1588 H 0.25595 0.92824 0.64676
 H1589 H 0.23359 0.92731 0.61892
 H1590 H 0.21327 0.90547 0.59772
 H1591 H 0.26701 0.88113 0.57095
 H1592 H 0.28735 0.90215 0.59298
 H1593 H 0.24502 0.85301 0.56980
 H1594 H 0.22548 0.83368 0.54549
 H1595 H 0.18409 0.88313 0.53962
 H1596 H 0.20392 0.90263 0.56338
 C1597 C 0.27292 0.06890 0.37875
 C1598 C 0.26724 0.06390 0.35897
 C1599 C 0.27854 0.05029 0.34766
 C1600 C 0.29584 0.04146 0.35582
 C1601 C 0.30174 0.04675 0.37544
 C1602 C 0.29038 0.06025 0.38678
 C1603 C 0.26041 0.08259 0.39121
 C1604 C 0.26936 0.09625 0.40463
 C1605 C 0.25759 0.10831 0.41714
 C1606 C 0.23656 0.10708 0.41648
 C1607 C 0.22761 0.09376 0.40272
 C1608 C 0.23938 0.08163 0.39028
 C1609 C 0.22406 0.11914 0.43055
 C1610 C 0.20681 0.11078 0.43936
 C1611 C 0.19543 0.12178 0.45314
 C1612 C 0.20108 0.14137 0.45855
 C1613 C 0.21820 0.14984 0.44960
 C1614 C 0.22952 0.13887 0.43572
 H1615 H 0.25405 0.07052 0.35221
 H1616 H 0.27366 0.04661 0.33255
 H1617 H 0.31494 0.04014 0.38221
 H1618 H 0.29503 0.06350 0.40206
 H1619 H 0.28550 0.09758 0.40553
 H1620 H 0.26499 0.11824 0.42769
 H1621 H 0.21146 0.09264 0.40161
 H1622 H 0.23198 0.07114 0.38029
 H1623 H 0.20235 0.09552 0.43600
 H1624 H 0.18239 0.11477 0.45983
 H1625 H 0.22288 0.16495 0.45337
 H1626 H 0.24254 0.14588 0.42898
 C1627 C 0.72576 0.06974 0.61953
 C1628 C 0.70854 0.06064 0.61142
 C1629 C 0.69746 0.04687 0.62270
 C1630 C 0.70339 0.04175 0.64234
 C1631 C 0.72047 0.05099 0.65057
 C1632 C 0.73150 0.06487 0.63931
 C1633 C 0.73796 0.08379 0.60717
 C1634 C 0.75900 0.08341 0.60816
 C1635 C 0.77050 0.09589 0.59582
 C1636 C 0.76125 0.10899 0.58209
 C1637 C 0.74020 0.10965 0.58136
 C1638 C 0.72870 0.09724 0.59378
 C1639 C 0.77348 0.12140 0.56809
 C1640 C 0.76755 0.14099 0.56297
 C1641 C 0.77864 0.15226 0.54913
 C1642 C 0.79596 0.14424 0.54019
 C1643 C 0.80207 0.12480 0.54556
 C1644 C 0.79094 0.11350 0.55929
 H1645 H 0.70387 0.06377 0.59613
 H1646 H 0.68443 0.03994 0.61587
 H1647 H 0.72537 0.04745 0.66570
 H1648 H 0.74450 0.07183 0.64614
 H1649 H 0.76664 0.07310 0.61814
 H1650 H 0.78667 0.09521 0.59698
 H1651 H 0.73258 0.11940 0.57083
 H1652 H 0.71253 0.09813 0.59283
 H1653 H 0.75436 0.14765 0.56969
 H1654 H 0.77359 0.16724 0.54539
 H1655 H 0.81528 0.11813 0.53887
 H1656 H 0.79576 0.09835 0.56262
 C1657 C 0.93360 0.61940 0.27162
 C1658 C 0.94344 0.61125 0.28841
 C1659 C 0.95633 0.62305 0.30001
 C1660 C 0.95984 0.64322 0.29493
 C1661 C 0.94976 0.65147 0.27829
 C1662 C 0.93666 0.63969 0.26682
 C1663 C 0.92072 0.60653 0.25882
 C1664 C 0.90170 0.61309 0.25258
 C1665 C 0.88958 0.60073 0.24063
 C1666 C 0.89642 0.58176 0.23446
 C1667 C 0.91550 0.57531 0.24058
 C1668 C 0.92748 0.58752 0.25272
 C1669 C 0.88371 0.56854 0.22184
 C1670 C 0.89194 0.55857 0.20514
 C1671 C 0.88032 0.54529 0.19380
 C1672 C 0.86027 0.54150 0.19907
 C1673 C 0.85193 0.55173 0.21558
 C1674 C 0.86352 0.56523 0.22679
 H1675 H 0.94117 0.59569 0.29254
 H1676 H 0.96387 0.61625 0.31272
 H1677 H 0.95214 0.66697 0.27402
 H1678 H 0.92933 0.64629 0.25387
 H1679 H 0.89613 0.62765 0.25716
 H1680 H 0.87496 0.60607 0.23602
 H1681 H 0.92105 0.56068 0.23619
 H1682 H 0.94215 0.58220 0.25719
 H1683 H 0.90743 0.56102 0.20091
 H1684 H 0.88719 0.53764 0.18118
 H1685 H 0.83652 0.54916 0.21998
 H1686 H 0.85686 0.57264 0.23967
 C1687 C 0.93364 0.38294 0.72526
 C1688 C 0.93671 0.36266 0.73010
 C1689 C 0.94990 0.35092 0.71871
 C1690 C 0.96005 0.35919 0.70212
 C1691 C 0.95656 0.37935 0.69703
 C1692 C 0.94359 0.39112 0.70854
 C1693 C 0.92056 0.39574 0.73791
 C1694 C 0.92712 0.41483 0.74400
 C1695 C 0.91496 0.42697 0.75600
 C1696 C 0.89588 0.42035 0.76200
 C1697 C 0.88924 0.40130 0.75583
 C1698 C 0.90154 0.38903 0.74401
 C1699 C 0.88301 0.43344 0.77456
 C1700 C 0.86278 0.43648 0.76958
 C1701 C 0.85099 0.44973 0.78082
 C1702 C 0.85914 0.45999 0.79742
 C1703 C 0.87925 0.45653 0.80268
 C1704 C 0.89108 0.44349 0.79130
 H1705 H 0.92930 0.35604 0.74299
 H1706 H 0.95225 0.33543 0.72299
 H1707 H 0.96416 0.38617 0.68435
 H1708 H 0.94132 0.40667 0.70438
 H1709 H 0.94179 0.42028 0.73964
 H1710 H 0.92036 0.44166 0.76041
 H1711 H 0.87463 0.39584 0.76034
 H1712 H 0.89611 0.37441 0.73942
 H1713 H 0.85625 0.42900 0.75666
 H1714 H 0.83553 0.45206 0.77643
 H1715 H 0.88598 0.46421 0.81537
 H1716 H 0.90658 0.44125 0.79557
 C1717 C 0.06879 0.62008 0.72497
 C1718 C 0.06386 0.63974 0.73086
 C1719 C 0.05006 0.65102 0.71979
 C1720 C 0.04095 0.64294 0.70251
 C1721 C 0.04612 0.62342 0.69642
 C1722 C 0.05982 0.61211 0.70755
 C1723 C 0.08276 0.60769 0.73720
 C1724 C 0.09628 0.59444 0.72787
 C1725 C 0.10865 0.58203 0.73939
 C1726 C 0.10790 0.58263 0.76055
 C1727 C 0.09472 0.59621 0.76988
 C1728 C 0.08227 0.60855 0.75835
 C1729 C 0.12033 0.56870 0.77280
 C1730 C 0.11244 0.55982 0.79029
 C1731 C 0.12379 0.54620 0.80146
 C1732 C 0.14327 0.54101 0.79536
 C1733 C 0.15127 0.55001 0.77800
 C1734 C 0.13995 0.56374 0.76687
 H1735 H 0.07072 0.64646 0.74402
 H1736 H 0.04648 0.66606 0.72481
 H1737 H 0.03930 0.61670 0.68324
 H1738 H 0.06300 0.59691 0.70275
 H1739 H 0.09725 0.59359 0.71162
 H1740 H 0.11847 0.57161 0.73170
 H1741 H 0.09396 0.59728 0.78613
 H1742 H 0.07191 0.61841 0.76605
 H1743 H 0.09728 0.56303 0.79511
 H1744 H 0.11714 0.53946 0.81470
 H1745 H 0.16628 0.54641 0.77296
 H1746 H 0.14660 0.57053 0.75366
 C1747 C 0.06796 0.38358 0.27669
 C1748 C 0.06472 0.36337 0.27162
 C1749 C 0.05135 0.35164 0.28279
 C1750 C 0.04117 0.35984 0.29940
 C1751 C 0.04490 0.37990 0.30480
 C1752 C 0.05806 0.39167 0.29349
 C1753 C 0.08102 0.39644 0.26408
 C1754 C 0.07445 0.41555 0.25813
 C1755 C 0.08649 0.42765 0.24597
 C1756 C 0.10545 0.42099 0.23968
 C1757 C 0.11213 0.40195 0.24577
 C1758 C 0.09995 0.38971 0.25773
 C1759 C 0.11814 0.43399 0.22684
 C1760 C 0.13845 0.43707 0.23147
 C1761 C 0.15008 0.45022 0.21992
 C1762 C 0.14167 0.46032 0.20338
 C1763 C 0.12148 0.45681 0.19848
 C1764 C 0.10981 0.44388 0.21016
 H1765 H 0.07209 0.35682 0.25865
 H1766 H 0.04882 0.33622 0.27828
 H1767 H 0.03728 0.38667 0.31750
 H1768 H 0.06045 0.40715 0.29782
 H1769 H 0.05985 0.42101 0.26266
 H1770 H 0.08107 0.44234 0.24163
 H1771 H 0.12665 0.39645 0.24103
 H1772 H 0.10537 0.37506 0.26220
 H1773 H 0.14518 0.42971 0.24433
 H1774 H 0.16561 0.45259 0.22404
 H1775 H 0.11455 0.46436 0.18584
 H1776 H 0.09424 0.44160 0.20616
   
