data_POSCAR
  _audit_creation_date              2014-09-24
  _audit_creation_method            'ToBaCCo'
  _symmetry_space_group_name_H-M    'P1'
  _symmetry_Int_Tables_number       1
  _symmetry_cell_setting            triclinic
  loop_
  _symmetry_equiv_pos_as_xyz
 x,y,z
_cell_length_a 98.1244
_cell_length_b 99.0517
_cell_length_c 97.3903
_cell_angle_alpha 89.878100
_cell_angle_beta 90.011900
_cell_angle_gamma 90.094400
loop_
  _atom_site_label
  _atom_site_type_symbol
  _atom_site_fract_x
  _atom_site_fract_y
  _atom_site_fract_z
C1 C 0.35485 0.33632 0.34446
 C2 C 0.34468 0.33655 0.35457
 C3 C 0.33497 0.34663 0.35449
 C4 C 0.33530 0.35665 0.34429
 C5 C 0.34532 0.35642 0.33433
 C6 C 0.35516 0.34617 0.33441
 C7 C 0.36534 0.32752 0.34180
 N8 N 0.37203 0.33172 0.33031
 C9 C 0.36581 0.34316 0.32575
 C10 C 0.34291 0.36709 0.32560
 N11 N 0.33162 0.37379 0.32996
 C12 C 0.32692 0.36741 0.34142
 C13 C 0.32620 0.34410 0.36521
 N14 N 0.33029 0.33267 0.37179
 C15 C 0.34161 0.32801 0.36529
 H16 H 0.36789 0.31871 0.34786
 H17 H 0.36853 0.34875 0.31659
 H18 H 0.34901 0.36975 0.31674
 H19 H 0.31785 0.37011 0.34709
 H20 H 0.31749 0.35021 0.36797
 H21 H 0.34707 0.31887 0.36788
 C22 C 0.35402 0.83364 -0.15743
 C23 C 0.34409 0.83411 -0.14709
 C24 C 0.33467 0.84445 -0.14694
 C25 C 0.33502 0.85445 -0.15716
 C26 C 0.34477 0.85396 -0.16732
 C27 C 0.35437 0.84347 -0.16745
 C28 C 0.36431 0.82466 -0.16026
 N29 N 0.37105 0.82872 -0.17184
 C30 C 0.36486 0.84031 -0.17623
 C31 C 0.34238 0.86464 -0.17603
 N32 N 0.33131 0.87172 -0.17151
 C33 C 0.32685 0.86540 -0.15984
 C34 C 0.32611 0.84218 -0.13598
 N35 N 0.33007 0.83066 -0.12947
 C36 C 0.34109 0.82569 -0.13625
 H37 H 0.36642 0.81577 -0.15419
 H38 H 0.36758 0.84624 -0.18513
 H39 H 0.34830 0.86672 -0.18515
 H40 H 0.31823 0.86826 -0.15362
 H41 H 0.31765 0.84852 -0.13301
 H42 H 0.34638 0.81642 -0.13376
 C43 C 0.85423 0.33493 -0.15778
 C44 C 0.84427 0.33532 -0.14746
 C45 C 0.83487 0.34568 -0.14724
 C46 C 0.83525 0.35576 -0.15737
 C47 C 0.84503 0.35535 -0.16752
 C48 C 0.85461 0.34484 -0.16772
 C49 C 0.86449 0.32594 -0.16068
 N50 N 0.87123 0.33007 -0.17223
 C51 C 0.86509 0.34172 -0.17652
 C52 C 0.84265 0.36607 -0.17617
 N53 N 0.83156 0.37311 -0.17163
 C54 C 0.82708 0.36671 -0.16002
 C55 C 0.82625 0.34330 -0.13636
 N56 N 0.83016 0.33171 -0.12995
 C57 C 0.84121 0.32680 -0.13673
 H58 H 0.86653 0.31696 -0.15474
 H59 H 0.86786 0.34772 -0.18536
 H60 H 0.84857 0.36819 -0.18527
 H61 H 0.81844 0.36953 -0.15380
 H62 H 0.81777 0.34961 -0.13336
 H63 H 0.84646 0.31749 -0.13432
 C64 C 0.85537 0.83721 0.34336
 C65 C 0.84541 0.83760 0.35368
 C66 C 0.83590 0.84787 0.35381
 C67 C 0.83619 0.85786 0.34359
 C68 C 0.84597 0.85746 0.33345
 C69 C 0.85565 0.84704 0.33334
 C70 C 0.86569 0.82828 0.34053
 N71 N 0.87238 0.83236 0.32893
 C72 C 0.86614 0.84392 0.32454
 C73 C 0.84349 0.86807 0.32469
 N74 N 0.83233 0.87505 0.32916
 C75 C 0.82791 0.86872 0.34084
 C76 C 0.82730 0.84547 0.36471
 N77 N 0.83133 0.83396 0.37120
 C78 C 0.84244 0.82912 0.36446
 H79 H 0.86780 0.81936 0.34655
 H80 H 0.86885 0.84985 0.31564
 H81 H 0.84940 0.87017 0.31558
 H82 H 0.81922 0.87149 0.34701
 H83 H 0.81875 0.85170 0.36766
 H84 H 0.84778 0.81988 0.36692
 C85 C 0.64630 0.66648 0.34405
 C86 C 0.65676 0.66681 0.35386
 C87 C 0.66638 0.65665 0.35423
 C88 C 0.66571 0.64602 0.34476
 C89 C 0.65538 0.64567 0.33512
 C90 C 0.64559 0.65597 0.33477
 C91 C 0.63579 0.67517 0.34108
 N92 N 0.62867 0.67022 0.33020
 C93 C 0.63464 0.65844 0.32631
 C94 C 0.65756 0.63452 0.32701
 N95 N 0.66901 0.62811 0.33143
 C96 C 0.67402 0.63511 0.34233
 C97 C 0.67534 0.65966 0.36466
 N98 N 0.67141 0.67143 0.37066
 C99 C 0.66004 0.67585 0.36404
 H100 H 0.63374 0.68459 0.34628
 H101 H 0.63129 0.65205 0.31796
 H102 H 0.65125 0.63141 0.31847
 H103 H 0.68329 0.63278 0.34784
 H104 H 0.68397 0.65358 0.36772
 H105 H 0.65462 0.68510 0.36627
 C106 C 0.64511 0.16595 -0.15542
 C107 C 0.65501 0.16583 -0.14504
 C108 C 0.66446 0.15553 -0.14448
 C109 C 0.66417 0.14522 -0.15433
 C110 C 0.65446 0.14536 -0.16455
 C111 C 0.64483 0.15582 -0.16509
 C112 C 0.63486 0.17484 -0.15866
 N113 N 0.62822 0.17045 -0.17016
 C114 C 0.63443 0.15872 -0.17407
 C115 C 0.65697 0.13448 -0.17291
 N116 N 0.66808 0.12762 -0.16811
 C117 C 0.67243 0.13428 -0.15663
 C118 C 0.67303 0.15819 -0.13364
 N119 N 0.66906 0.16991 -0.12758
 C120 C 0.65801 0.17463 -0.13454
 H121 H 0.63277 0.18398 -0.15301
 H122 H 0.63173 0.15252 -0.18277
 H123 H 0.65106 0.13207 -0.18193
 H124 H 0.68115 0.13174 -0.15037
 H125 H 0.68152 0.15198 -0.13043
 H126 H 0.65272 0.18396 -0.13242
 C127 C 0.14564 0.66575 -0.15559
 C128 C 0.15565 0.66565 -0.14530
 C129 C 0.16517 0.65540 -0.14489
 C130 C 0.16485 0.64514 -0.15480
 C131 C 0.15504 0.64528 -0.16492
 C132 C 0.14533 0.65567 -0.16531
 C133 C 0.13528 0.67458 -0.15865
 N134 N 0.12854 0.67019 -0.17009
 C135 C 0.13479 0.65854 -0.17415
 C136 C 0.15750 0.63444 -0.17335
 N137 N 0.16868 0.62760 -0.16869
 C138 C 0.17313 0.63423 -0.15722
 C139 C 0.17379 0.65806 -0.13409
 N140 N 0.16977 0.66970 -0.12791
 C141 C 0.15865 0.67438 -0.13477
 H142 H 0.13318 0.68366 -0.15291
 H143 H 0.13205 0.65236 -0.18284
 H144 H 0.15147 0.63200 -0.18228
 H145 H 0.18194 0.63173 -0.15110
 H146 H 0.18234 0.65188 -0.13097
 H147 H 0.15329 0.68366 -0.13253
 C148 C 0.14577 0.16656 0.34404
 C149 C 0.15562 0.16638 0.35448
 C150 C 0.16514 0.15614 0.35496
 C151 C 0.16497 0.14595 0.34497
 C152 C 0.15531 0.14615 0.33471
 C153 C 0.14561 0.15655 0.33425
 C154 C 0.13547 0.17542 0.34089
 N155 N 0.12890 0.17112 0.32931
 C156 C 0.13521 0.15949 0.32526
 C157 C 0.15791 0.13537 0.32624
 N158 N 0.16903 0.12851 0.33102
 C159 C 0.17330 0.13507 0.34259
 C160 C 0.17361 0.15872 0.36590
 N161 N 0.16950 0.17033 0.37209
 C162 C 0.15847 0.17505 0.36511
 H163 H 0.13328 0.18445 0.34667
 H164 H 0.13260 0.15338 0.31647
 H165 H 0.15205 0.13303 0.31717
 H166 H 0.18198 0.13249 0.34887
 H167 H 0.18212 0.15253 0.36909
 H168 H 0.15309 0.18432 0.36732
 C169 C 0.64560 0.33512 0.65332
 C170 C 0.65630 0.33437 0.64379
 C171 C 0.66659 0.34390 0.64399
 C172 C 0.66633 0.35434 0.65369
 C173 C 0.65576 0.35512 0.66302
 C174 C 0.64533 0.34542 0.66285
 C175 C 0.63461 0.32688 0.65594
 N176 N 0.62763 0.33191 0.66687
 C177 C 0.63414 0.34331 0.67109
 C178 C 0.65833 0.36600 0.67139
 N179 N 0.67025 0.37188 0.66739
 C180 C 0.67517 0.36476 0.65654
 C181 C 0.67569 0.34053 0.63383
 N182 N 0.67116 0.32920 0.62738
 C183 C 0.65928 0.32538 0.63348
 H184 H 0.63221 0.31762 0.65058
 H185 H 0.63109 0.34961 0.67961
 H186 H 0.65193 0.36937 0.67974
 H187 H 0.68469 0.36673 0.65129
 H188 H 0.68505 0.34586 0.63150
 H189 H 0.65310 0.31680 0.63057
 C190 C 0.64558 0.83462 1.15611
 C191 C 0.65596 0.83438 1.14621
 C192 C 0.66573 0.84443 1.14601
 C193 C 0.66528 0.85486 1.15572
 C194 C 0.65505 0.85508 1.16546
 C195 C 0.64512 0.84486 1.16564
 C196 C 0.63497 0.82598 1.15894
 N197 N 0.62794 0.83063 1.17008
 C198 C 0.63425 0.84227 1.17416
 C199 C 0.65741 0.86605 1.17378
 N200 N 0.66888 0.87248 1.16938
 C201 C 0.67372 0.86565 1.15830
 C202 C 0.67462 0.84150 1.13551
 N203 N 0.67052 0.82988 1.12932
 C204 C 0.65909 0.82547 1.13587
 H205 H 0.63294 0.81681 1.15332
 H206 H 0.63131 0.84862 1.18266
 H207 H 0.65119 0.86905 1.18242
 H208 H 0.68296 0.86805 1.15274
 H209 H 0.68337 0.84752 1.13257
 H210 H 0.65356 0.81630 1.13354
 C211 C 0.14598 0.33562 1.15337
 C212 C 0.15651 0.33503 1.14365
 C213 C 0.16701 0.34433 1.14406
 C214 C 0.16709 0.35440 1.15416
 C215 C 0.15667 0.35500 1.16368
 C216 C 0.14606 0.34550 1.16328
 C217 C 0.13485 0.32751 1.15583
 N218 N 0.12806 0.33214 1.16713
 C219 C 0.13498 0.34327 1.17163
 C220 C 0.15951 0.36556 1.17237
 N221 N 0.17143 0.37143 1.16840
 C222 C 0.17611 0.36461 1.15724
 C223 C 0.17593 0.34109 1.13369
 N224 N 0.17111 0.33005 1.12694
 C225 C 0.15920 0.32631 1.13302
 H226 H 0.13228 0.31874 1.14979
 H227 H 0.13257 0.34931 1.18051
 H228 H 0.15323 0.36876 1.18090
 H229 H 0.18555 0.36668 1.15189
 H230 H 0.18540 0.34626 1.13147
 H231 H 0.15284 0.31792 1.12994
 C232 C 0.14465 0.83507 0.65607
 C233 C 0.15486 0.83485 0.64601
 C234 C 0.16455 0.84498 0.64559
 C235 C 0.16420 0.85544 0.65527
 C236 C 0.15418 0.85564 0.66518
 C237 C 0.14428 0.84540 0.66557
 C238 C 0.13410 0.82641 0.65910
 N239 N 0.12727 0.83122 0.67022
 C240 C 0.13348 0.84286 0.67422
 C241 C 0.15672 0.86658 0.67348
 N242 N 0.16815 0.87312 0.66895
 C243 C 0.17266 0.86623 0.65769
 C244 C 0.17330 0.84205 0.63498
 N245 N 0.16921 0.83036 0.62893
 C246 C 0.15791 0.82591 0.63567
 H247 H 0.13181 0.81712 0.65375
 H248 H 0.13038 0.84913 0.68274
 H249 H 0.15058 0.86929 0.68225
 H250 H 0.18169 0.86844 0.65175
 H251 H 0.18197 0.84811 0.63189
 H252 H 0.15242 0.81668 0.63347
 C253 C 0.35623 0.66239 0.65532
 C254 C 0.34572 0.66274 0.64557
 C255 C 0.33513 0.65357 0.64635
 C256 C 0.33494 0.64385 0.65685
 C257 C 0.34531 0.64349 0.66644
 C258 C 0.35602 0.65286 0.66570
 C259 C 0.36744 0.67048 0.65746
 N260 N 0.37403 0.66617 0.66896
 C261 C 0.36708 0.65535 0.67401
 C262 C 0.34237 0.63319 0.67547
 N263 N 0.33045 0.62726 0.67161
 C264 C 0.32585 0.63380 0.66022
 C265 C 0.32619 0.65658 0.63591
 N266 N 0.33107 0.66738 0.62877
 C267 C 0.34306 0.67117 0.63466
 H268 H 0.37044 0.67895 0.65111
 H269 H 0.36953 0.64994 0.68335
 H270 H 0.34861 0.63017 0.68410
 H271 H 0.31645 0.63161 0.65486
 H272 H 0.31663 0.65148 0.63395
 H273 H 0.34946 0.67944 0.63129
 C274 C 0.35528 0.16351 1.15481
 C275 C 0.34514 0.16341 1.14466
 C276 C 0.33478 0.15397 1.14520
 C277 C 0.33444 0.14443 1.15587
 C278 C 0.34441 0.14453 1.16584
 C279 C 0.35489 0.15417 1.16534
 C280 C 0.36623 0.17186 1.15718
 N281 N 0.37252 0.16788 1.16896
 C282 C 0.36562 0.15701 1.17398
 C283 C 0.34139 0.13436 1.17497
 N284 N 0.32976 0.12791 1.17085
 C285 C 0.32552 0.13420 1.15910
 C286 C 0.32611 0.15664 1.13442
 N287 N 0.33095 0.16749 1.12732
 C288 C 0.34264 0.17164 1.13355
 H289 H 0.36931 0.18026 1.15076
 H290 H 0.36789 0.15178 1.18347
 H291 H 0.34739 0.13208 1.18397
 H292 H 0.31662 0.13170 1.15309
 H293 H 0.31674 0.15130 1.13223
 H294 H 0.34892 0.18005 1.13033
 C295 C 0.85536 0.66315 1.15675
 C296 C 0.84553 0.66283 1.14630
 C297 C 0.83614 0.65244 1.14582
 C298 C 0.83639 0.64225 1.15583
 C299 C 0.84605 0.64258 1.16616
 C300 C 0.85563 0.65309 1.16659
 C301 C 0.86560 0.67213 1.15986
 N302 N 0.87218 0.66776 1.17134
 C303 C 0.86608 0.65610 1.17551
 C304 C 0.84346 0.63183 1.17475
 N305 N 0.83244 0.62495 1.16991
 C306 C 0.82813 0.63128 1.15828
 C307 C 0.82764 0.65494 1.13487
 N308 N 0.83161 0.66664 1.12868
 C309 C 0.84259 0.67150 1.13566
 H310 H 0.86789 0.68130 1.15426
 H311 H 0.86907 0.65010 1.18430
 H312 H 0.84893 0.62955 1.18411
 H313 H 0.81954 0.62824 1.15204
 H314 H 0.81919 0.64865 1.13169
 H315 H 0.84785 0.68086 1.13345
 C316 C 0.85488 0.16128 0.65445
 C317 C 0.84477 0.16123 0.64426
 C318 C 0.83427 0.15191 0.64486
 C319 C 0.83387 0.14238 0.65552
 C320 C 0.84386 0.14241 0.66551
 C321 C 0.85442 0.15197 0.66497
 C322 C 0.86585 0.16958 0.65687
 N323 N 0.87221 0.16562 0.66871
 C324 C 0.86514 0.15473 0.67361
 C325 C 0.84071 0.13233 0.67471
 N326 N 0.82906 0.12608 0.67053
 C327 C 0.82483 0.13224 0.65877
 C328 C 0.82551 0.15473 0.63420
 N329 N 0.83051 0.16547 0.62711
 C330 C 0.84231 0.16948 0.63315
 H331 H 0.86872 0.17794 0.65035
 H332 H 0.86718 0.14927 0.68299
 H333 H 0.84640 0.12993 0.68391
 H334 H 0.81591 0.12950 0.65286
 H335 H 0.81610 0.14948 0.63188
 H336 H 0.84838 0.17807 0.62997
 C337 C 0.33431 0.35660 0.65684
 C338 C 0.33422 0.34676 0.64651
 C339 C 0.34409 0.33684 0.64637
 C340 C 0.35419 0.33660 0.65654
 C341 C 0.35429 0.34628 0.66672
 C342 C 0.34427 0.35637 0.66687
 C343 C 0.32575 0.36719 0.65978
 N344 N 0.33027 0.37347 0.67134
 C345 C 0.34163 0.36687 0.67571
 C346 C 0.36495 0.34330 0.67539
 N347 N 0.37138 0.33205 0.67070
 C348 C 0.36482 0.32794 0.65912
 C349 C 0.34125 0.32844 0.63551
 N350 N 0.32989 0.33302 0.62898
 C351 C 0.32556 0.34427 0.63568
 H352 H 0.31668 0.36985 0.65406
 H353 H 0.34764 0.36948 0.68463
 H354 H 0.36756 0.34877 0.68463
 H355 H 0.36755 0.31930 0.65293
 H356 H 0.34687 0.31943 0.63286
 H357 H 0.31677 0.35027 0.63294
 C358 C 0.33336 0.85585 0.15784
 C359 C 0.33322 0.84593 0.14758
 C360 C 0.34305 0.83597 0.14750
 C361 C 0.35317 0.83577 0.15766
 C362 C 0.35332 0.84553 0.16777
 C363 C 0.34334 0.85566 0.16785
 C364 C 0.32487 0.86653 0.16067
 N365 N 0.32945 0.87290 0.17216
 C366 C 0.34079 0.86627 0.17658
 C367 C 0.36401 0.84261 0.17642
 N368 N 0.37042 0.83131 0.17180
 C369 C 0.36380 0.82712 0.16028
 C370 C 0.34019 0.82753 0.13668
 N371 N 0.32886 0.83213 0.13011
 C372 C 0.32456 0.84343 0.13676
 H373 H 0.31583 0.86919 0.15493
 H374 H 0.34683 0.86895 0.18546
 H375 H 0.36667 0.84815 0.18560
 H376 H 0.36651 0.81844 0.15414
 H377 H 0.34579 0.81850 0.13406
 H378 H 0.31582 0.84947 0.13396
 C379 C 0.83442 0.35652 0.15653
 C380 C 0.83437 0.34676 0.14612
 C381 C 0.84429 0.33689 0.14589
 C382 C 0.85442 0.33663 0.15605
 C383 C 0.85447 0.34624 0.16631
 C384 C 0.84440 0.35627 0.16655
 C385 C 0.82581 0.36704 0.15956
 N386 N 0.83031 0.37326 0.17116
 C387 C 0.84172 0.36669 0.17546
 C388 C 0.86516 0.34326 0.17494
 N389 N 0.87165 0.33207 0.17016
 C390 C 0.86510 0.32801 0.15856
 C391 C 0.84148 0.32856 0.13497
 N392 N 0.83009 0.33313 0.12849
 C393 C 0.82572 0.34431 0.13529
 H394 H 0.81673 0.36970 0.15387
 H395 H 0.84773 0.36927 0.18440
 H396 H 0.86775 0.34867 0.18421
 H397 H 0.86787 0.31943 0.15230
 H398 H 0.84715 0.31960 0.13223
 H399 H 0.81689 0.35029 0.13261
 C400 C 0.83349 0.85606 0.65788
 C401 C 0.83383 0.84645 0.64733
 C402 C 0.84345 0.83629 0.64758
 C403 C 0.85291 0.83562 0.65836
 C404 C 0.85255 0.84506 0.66877
 C405 C 0.84275 0.85535 0.66854
 C406 C 0.82503 0.86681 0.66048
 N407 N 0.82888 0.87267 0.67250
 C408 C 0.83975 0.86567 0.67747
 C409 C 0.86272 0.84179 0.67792
 N410 N 0.86933 0.83061 0.67329
 C411 C 0.86332 0.82679 0.66131
 C412 C 0.84100 0.82811 0.63645
 N413 N 0.83009 0.83303 0.62942
 C414 C 0.82570 0.84431 0.63603
 H415 H 0.81671 0.87010 0.65400
 H416 H 0.84492 0.86767 0.68706
 H417 H 0.86495 0.84709 0.68735
 H418 H 0.86637 0.81833 0.65502
 H419 H 0.84648 0.81896 0.63400
 H420 H 0.81716 0.85051 0.63296
 C421 C 0.66582 0.64474 0.65431
 C422 C 0.66622 0.65519 0.64457
 C423 C 0.65702 0.66570 0.64535
 C424 C 0.64722 0.66587 0.65584
 C425 C 0.64680 0.65557 0.66540
 C426 C 0.65620 0.64494 0.66466
 C427 C 0.67387 0.63357 0.65641
 N428 N 0.66945 0.62699 0.66786
 C429 C 0.65859 0.63391 0.67292
 C430 C 0.63641 0.65845 0.67441
 N431 N 0.63047 0.67028 0.67056
 C432 C 0.63710 0.67488 0.65920
 C433 C 0.66006 0.67456 0.63490
 N434 N 0.67092 0.66972 0.62776
 C435 C 0.67472 0.65783 0.63365
 H436 H 0.68238 0.63057 0.65006
 H437 H 0.65308 0.63145 0.68222
 H438 H 0.63332 0.65223 0.68301
 H439 H 0.63492 0.68420 0.65384
 H440 H 0.65494 0.68404 0.63293
 H441 H 0.68302 0.65149 0.63026
 C442 C 0.66436 0.14510 0.15488
 C443 C 0.66503 0.15576 0.14540
 C444 C 0.65543 0.16594 0.14578
 C445 C 0.64499 0.16559 0.15562
 C446 C 0.64429 0.15505 0.16491
 C447 C 0.65406 0.14474 0.16455
 C448 C 0.67267 0.13419 0.15734
 N449 N 0.66770 0.12719 0.16829
 C450 C 0.65625 0.13359 0.17270
 C451 C 0.63339 0.15753 0.17342
 N452 N 0.62744 0.16934 0.16955
 C453 C 0.63453 0.17431 0.15863
 C454 C 0.65872 0.17503 0.13562
 N455 N 0.67008 0.17062 0.12900
 C456 C 0.67399 0.15881 0.13498
 H457 H 0.68195 0.13187 0.15184
 H458 H 0.64998 0.13049 0.18128
 H459 H 0.63007 0.15113 0.18179
 H460 H 0.63249 0.18377 0.15345
 H461 H 0.65333 0.18430 0.13342
 H462 H 0.68262 0.15274 0.13192
 C463 C 0.16361 0.64367 0.15437
 C464 C 0.16395 0.65413 0.14465
 C465 C 0.15471 0.66460 0.14546
 C466 C 0.14494 0.66473 0.15596
 C467 C 0.14458 0.65441 0.16553
 C468 C 0.15402 0.64382 0.16475
 C469 C 0.17175 0.63257 0.15647
 N470 N 0.16741 0.62597 0.16794
 C471 C 0.15651 0.63282 0.17302
 C472 C 0.13422 0.65727 0.17458
 N473 N 0.12825 0.66910 0.17076
 C474 C 0.13483 0.67371 0.15937
 C475 C 0.15774 0.67352 0.13505
 N476 N 0.16862 0.66873 0.12790
 C477 C 0.17245 0.65684 0.13374
 H478 H 0.18027 0.62963 0.15010
 H479 H 0.15107 0.63034 0.18235
 H480 H 0.13119 0.65106 0.18321
 H481 H 0.13262 0.68305 0.15404
 H482 H 0.15260 0.68299 0.13312
 H483 H 0.18079 0.65054 0.13036
 C484 C 0.16545 0.14454 0.65604
 C485 C 0.16575 0.15497 0.64628
 C486 C 0.15549 0.16450 0.64603
 C487 C 0.14480 0.16377 0.65557
 C488 C 0.14449 0.15348 0.66516
 C489 C 0.15488 0.14378 0.66538
 C490 C 0.17424 0.13410 0.65890
 N491 N 0.16928 0.12698 0.66978
 C492 C 0.15741 0.13288 0.67378
 C493 C 0.13330 0.15560 0.67338
 N494 N 0.12682 0.16699 0.66908
 C495 C 0.13383 0.17200 0.65813
 C496 C 0.15848 0.17346 0.63566
 N497 N 0.17035 0.16964 0.62956
 C498 C 0.17484 0.15832 0.63608
 H499 H 0.18373 0.13211 0.65364
 H500 H 0.15100 0.12950 0.68215
 H501 H 0.13021 0.14932 0.68194
 H502 H 0.13146 0.18124 0.65270
 H503 H 0.15232 0.18204 0.63270
 H504 H 0.18418 0.15299 0.63378
 C505 C 0.33370 0.64566 0.34355
 C506 C 0.33395 0.65528 0.35410
 C507 C 0.34448 0.66452 0.35481
 C508 C 0.35487 0.66435 0.34493
 C509 C 0.35461 0.65492 0.33450
 C510 C 0.34396 0.64547 0.33384
 C511 C 0.32466 0.63556 0.34024
 N512 N 0.32919 0.62914 0.32878
 C513 C 0.34101 0.63521 0.32481
 C514 C 0.36557 0.65755 0.32609
 N515 N 0.37250 0.66838 0.33113
 C516 C 0.36600 0.67253 0.34272
 C517 C 0.34192 0.67281 0.36581
 N518 N 0.33004 0.66887 0.37184
 C519 C 0.32513 0.65811 0.36469
 H520 H 0.31536 0.63323 0.34572
 H521 H 0.34719 0.63230 0.31610
 H522 H 0.36796 0.65224 0.31670
 H523 H 0.36902 0.68095 0.34909
 H524 H 0.34831 0.68108 0.36916
 H525 H 0.31564 0.65291 0.36675
 C526 C 0.33641 0.14323 0.84310
 C527 C 0.33619 0.15319 0.85331
 C528 C 0.34599 0.16321 0.85341
 C529 C 0.35615 0.16344 0.84329
 C530 C 0.35637 0.15364 0.83322
 C531 C 0.34642 0.14345 0.83312
 C532 C 0.32793 0.13254 0.84023
 N533 N 0.33254 0.12618 0.82877
 C534 C 0.34390 0.13283 0.82439
 C535 C 0.36705 0.15664 0.82457
 N536 N 0.37338 0.16802 0.82916
 C537 C 0.36673 0.17219 0.84066
 C538 C 0.34301 0.17171 0.86414
 N539 N 0.33163 0.16709 0.87063
 C540 C 0.32744 0.15571 0.86404
 H541 H 0.31885 0.12986 0.84592
 H542 H 0.34995 0.13019 0.81552
 H543 H 0.36973 0.15110 0.81540
 H544 H 0.36936 0.18093 0.84675
 H545 H 0.34854 0.18081 0.86673
 H546 H 0.31867 0.14965 0.86679
 C547 C 0.83444 0.64365 0.84414
 C548 C 0.83410 0.65386 0.85410
 C549 C 0.84437 0.66340 0.85458
 C550 C 0.85510 0.66291 0.84509
 C551 C 0.85546 0.65284 0.83531
 C552 C 0.84506 0.64312 0.83485
 C553 C 0.82564 0.63328 0.84100
 N554 N 0.83064 0.62643 0.83000
 C555 C 0.84255 0.63243 0.82621
 C556 C 0.86668 0.65519 0.82718
 N557 N 0.87314 0.66651 0.83172
 C558 C 0.86608 0.67125 0.84273
 C559 C 0.84132 0.67213 0.86510
 N560 N 0.82941 0.66815 0.87105
 C561 C 0.82494 0.65696 0.86430
 H562 H 0.81611 0.63116 0.84615
 H563 H 0.84901 0.62927 0.81781
 H564 H 0.86980 0.64911 0.81852
 H565 H 0.86841 0.68038 0.84833
 H566 H 0.84747 0.68065 0.86825
 H567 H 0.81559 0.65155 0.86646
 C568 C 0.83676 0.14415 0.34273
 C569 C 0.83675 0.15399 0.35307
 C570 C 0.84669 0.16387 0.35321
 C571 C 0.85679 0.16407 0.34303
 C572 C 0.85680 0.15439 0.33284
 C573 C 0.84671 0.14435 0.33269
 C574 C 0.82810 0.13362 0.33978
 N575 N 0.83255 0.12733 0.32821
 C576 C 0.84397 0.13388 0.32384
 C577 C 0.86745 0.15735 0.32415
 N578 N 0.87396 0.16859 0.32882
 C579 C 0.86746 0.17271 0.34042
 C580 C 0.84390 0.17229 0.36406
 N581 N 0.83251 0.16775 0.37058
 C582 C 0.82811 0.15651 0.36388
 H583 H 0.81902 0.13100 0.34550
 H584 H 0.84994 0.13125 0.31490
 H585 H 0.86999 0.15189 0.31489
 H586 H 0.87025 0.18135 0.34659
 H587 H 0.84959 0.18128 0.36671
 H588 H 0.81928 0.15054 0.36662
 C589 C 0.66391 0.35523 0.34598
 C590 C 0.66465 0.34452 0.35540
 C591 C 0.65504 0.33432 0.35504
 C592 C 0.64453 0.33469 0.34529
 C593 C 0.64376 0.34527 0.33606
 C594 C 0.65353 0.35562 0.33640
 C595 C 0.67222 0.36616 0.34351
 N596 N 0.66717 0.37321 0.33263
 C597 C 0.65568 0.36680 0.32828
 C598 C 0.63281 0.34280 0.32760
 N599 N 0.62689 0.33094 0.33144
 C600 C 0.63405 0.32594 0.34228
 C601 C 0.65842 0.32517 0.36511
 N602 N 0.66984 0.32957 0.37166
 C603 C 0.67370 0.34143 0.36572
 H604 H 0.68155 0.36848 0.34895
 H605 H 0.64934 0.36992 0.31976
 H606 H 0.62943 0.34922 0.31927
 H607 H 0.63206 0.31645 0.34742
 H608 H 0.65305 0.31586 0.36729
 H609 H 0.68236 0.34751 0.36874
 C610 C 0.66256 0.85567 0.84793
 C611 C 0.66323 0.84499 0.85737
 C612 C 0.65362 0.83479 0.85697
 C613 C 0.64317 0.83514 0.84715
 C614 C 0.64247 0.84570 0.83789
 C615 C 0.65225 0.85604 0.83827
 C616 C 0.67092 0.86657 0.84545
 N617 N 0.66597 0.87358 0.83451
 C618 C 0.65448 0.86718 0.83012
 C619 C 0.63161 0.84319 0.82934
 N620 N 0.62568 0.83133 0.83314
 C621 C 0.63274 0.82637 0.84406
 C622 C 0.65696 0.82565 0.86707
 N623 N 0.66835 0.83006 0.87367
 C624 C 0.67224 0.84191 0.86774
 H625 H 0.68023 0.86887 0.85093
 H626 H 0.64821 0.87027 0.82154
 H627 H 0.62831 0.84959 0.82096
 H628 H 0.63073 0.81687 0.84919
 H629 H 0.65159 0.81634 0.86924
 H630 H 0.68089 0.84799 0.87078
 C631 C 0.16334 0.35416 0.84401
 C632 C 0.16403 0.34346 0.85344
 C633 C 0.15446 0.33323 0.85301
 C634 C 0.14403 0.33356 0.84317
 C635 C 0.14330 0.34414 0.83393
 C636 C 0.15305 0.35451 0.83434
 C637 C 0.17163 0.36513 0.84164
 N638 N 0.16664 0.37218 0.83073
 C639 C 0.15522 0.36572 0.82626
 C640 C 0.13241 0.34165 0.82540
 N641 N 0.12648 0.32979 0.82922
 C642 C 0.13357 0.32481 0.84011
 C643 C 0.15778 0.32411 0.86314
 N644 N 0.16913 0.32857 0.86979
 C645 C 0.17300 0.34042 0.86385
 H646 H 0.18089 0.36748 0.84718
 H647 H 0.14893 0.36884 0.81770
 H648 H 0.12906 0.34807 0.81706
 H649 H 0.13155 0.31532 0.84525
 H650 H 0.15241 0.31480 0.86531
 H651 H 0.18161 0.34654 0.86695
 C652 C 0.16439 0.85609 0.34619
 C653 C 0.16497 0.84546 0.35572
 C654 C 0.15531 0.83531 0.35536
 C655 C 0.14490 0.83565 0.34550
 C656 C 0.14428 0.84615 0.33616
 C657 C 0.15410 0.85644 0.33651
 C658 C 0.17277 0.86697 0.34370
 N659 N 0.16785 0.87394 0.33271
 C660 C 0.15637 0.86754 0.32831
 C661 C 0.13339 0.84366 0.32763
 N662 N 0.12737 0.83187 0.33153
 C663 C 0.13439 0.82693 0.34248
 C664 C 0.15853 0.82625 0.36556
 N665 N 0.16989 0.83065 0.37221
 C666 C 0.17389 0.84242 0.36618
 H667 H 0.18205 0.86930 0.34922
 H668 H 0.15011 0.87062 0.31972
 H669 H 0.13013 0.85002 0.31921
 H670 H 0.13230 0.81750 0.34769
 H671 H 0.15307 0.81699 0.36778
 H672 H 0.18255 0.84848 0.36924
 O673 O 0.26665 0.98761 0.25100
 O674 O 0.24789 1.01421 0.26933
 O675 O 0.24768 0.98797 0.26965
 O676 O 0.26686 1.01399 0.25069
 O677 O 0.25106 1.01410 0.23459
 O678 O 0.23217 0.98768 0.25325
 O679 O 0.23209 1.01402 0.25321
 O680 O 0.25116 0.98782 0.23459
 Cu681 Cu 0.25886 1.00094 0.26178
 Cu682 Cu 0.24005 1.00089 0.24229
 C683 C 0.26212 0.98315 0.23966
 C684 C 0.23677 1.01866 0.26442
 C685 C 0.23667 0.98332 0.26466
 C686 C 0.26219 1.01859 0.23945
 O687 O 0.26613 0.48677 0.75121
 O688 O 0.24708 0.51310 0.76962
 O689 O 0.24688 0.48687 0.76960
 O690 O 0.26624 0.51318 0.75124
 O691 O 0.25076 0.51327 0.73481
 O692 O 0.23153 0.48682 0.75306
 O693 O 0.23156 0.51318 0.75324
 O694 O 0.25077 0.48704 0.73467
 Cu695 Cu 0.25815 0.49996 0.76205
 Cu696 Cu 0.23959 0.50008 0.74231
 C697 C 0.26171 0.48239 0.73979
 C698 C 0.23606 0.51767 0.76458
 C699 C 0.23590 0.48232 0.76446
 C700 C 0.26177 0.51779 0.73992
 O701 O 0.75253 -0.01251 0.26537
 O702 O 0.73300 0.01358 0.24697
 O703 O 0.73321 -0.01279 0.24712
 O704 O 0.75233 0.01373 0.26528
 O705 O 0.76756 0.01405 0.24863
 O706 O 0.74860 -0.01269 0.23060
 O707 O 0.74825 0.01353 0.23034
 O708 O 0.76797 -0.01231 0.24891
 Cu709 Cu 0.74121 0.00050 0.25783
 Cu710 Cu 0.75965 0.00065 0.23798
 C711 C 0.76360 -0.01687 0.26030
 C712 C 0.73728 0.01802 0.23550
 C713 C 0.73765 -0.01732 0.23577
 C714 C 0.76319 0.01847 0.26005
 O715 O 0.75251 0.48639 0.76515
 O716 O 0.73296 0.51232 0.74650
 O717 O 0.73359 0.48602 0.74651
 O718 O 0.75193 0.51266 0.76528
 O719 O 0.76767 0.51312 0.74911
 O720 O 0.74920 0.48662 0.73022
 O721 O 0.74880 0.51291 0.73044
 O722 O 0.76819 0.48680 0.74893
 Cu723 Cu 0.74117 0.49932 0.75748
 Cu724 Cu 0.76004 0.49989 0.73805
 C725 C 0.76367 0.48211 0.76020
 C726 C 0.73757 0.51710 0.73531
 C727 C 0.73826 0.48174 0.73516
 C728 C 0.76294 0.51746 0.76041
 O729 O 0.24911 0.48702 0.23111
 O730 O 0.26737 0.51394 0.24958
 O731 O 0.26804 0.48754 0.24981
 O732 O 0.24839 0.51329 0.23103
 O733 O 0.23256 0.51267 0.24709
 O734 O 0.25253 0.48744 0.26620
 O735 O 0.25161 0.51366 0.26573
 O736 O 0.23363 0.48638 0.24752
 Cu737 Cu 0.25981 0.50048 0.23877
 Cu738 Cu 0.24100 0.50001 0.25826
 C739 C 0.23829 0.48204 0.23619
 C740 C 0.26257 0.51848 0.26077
 C741 C 0.26364 0.48308 0.26123
 C742 C 0.23709 0.51737 0.23583
 O743 O 0.74931 1.01284 0.73543
 O744 O 0.73063 0.98653 0.75444
 O745 O 0.73058 1.01283 0.75427
 O746 O 0.74939 0.98646 0.73562
 O747 O 0.76525 0.98657 0.75168
 O748 O 0.74654 1.01305 0.77022
 O749 O 0.74641 0.98679 0.77057
 O750 O 0.76530 1.01284 0.75135
 Cu751 Cu 0.73839 0.99965 0.74332
 Cu752 Cu 0.75747 0.99982 0.76256
 C753 C 0.76049 1.01737 0.74014
 C754 C 0.73530 0.98217 0.76577
 C755 C 0.73537 1.01750 0.76542
 C756 C 0.76051 0.98197 0.74048
 O757 O 0.76657 0.48640 0.25154
 O758 O 0.74807 0.51326 0.26979
 O759 O 0.74753 0.48703 0.27009
 O760 O 0.76721 0.51272 0.25118
 O761 O 0.75143 0.51312 0.23506
 O762 O 0.73209 0.48696 0.25362
 O763 O 0.73239 0.51332 0.25355
 O764 O 0.75117 0.48686 0.23504
 Cu765 Cu 0.75892 0.49985 0.26228
 Cu766 Cu 0.74020 0.50007 0.24269
 C767 C 0.76205 0.48205 0.24015
 C768 C 0.73704 0.51786 0.26481
 C769 C 0.73648 0.48253 0.26504
 C770 C 0.76266 0.51737 0.23992
 O771 O 0.26829 0.01237 0.74945
 O772 O 0.24909 -0.01400 0.73112
 O773 O 0.24902 0.01226 0.73113
 O774 O 0.26841 -0.01398 0.74946
 O775 O 0.25288 -0.01425 0.76583
 O776 O 0.23377 0.01236 0.74777
 O777 O 0.23357 -0.01399 0.74750
 O778 O 0.25305 0.01200 0.76610
 Cu779 Cu 0.26026 -0.00084 0.73865
 Cu780 Cu 0.24177 -0.00099 0.75844
 C781 C 0.26395 0.01671 0.76091
 C782 C 0.23803 -0.01850 0.73616
 C783 C 0.23812 0.01687 0.73636
 C784 C 0.26393 -0.01867 0.76075
 O785 O 0.26740 0.24652 1.01201
 O786 O 0.24917 0.26491 0.98474
 O787 O 0.24897 0.26536 1.01151
 O788 O 0.26771 0.24618 0.98529
 O789 O 0.25132 0.23091 0.98497
 O790 O 0.23315 0.24953 1.01205
 O791 O 0.23278 0.24965 0.98527
 O792 O 0.25159 0.23067 1.01171
 Cu793 Cu 0.25992 0.25731 0.99838
 Cu794 Cu 0.24059 0.23863 0.99851
 C795 C 0.26266 0.23540 1.01647
 C796 C 0.23783 0.26045 0.98037
 C797 C 0.23793 0.26066 1.01638
 C798 C 0.26267 0.23532 0.98055
 O799 O 0.24879 0.76618 0.48748
 O800 O 0.26713 0.74734 0.51433
 O801 O 0.26718 0.74738 0.48755
 O802 O 0.24867 0.76611 0.51429
 O803 O 0.23250 0.75061 0.51419
 O804 O 0.25108 0.73181 0.48754
 O805 O 0.25103 0.73177 0.51425
 O806 O 0.23262 0.75068 0.48747
 Cu807 Cu 0.25955 0.75831 0.50092
 Cu808 Cu 0.24019 0.73966 0.50086
 C809 C 0.23759 0.76164 0.48284
 C810 C 0.26223 0.73634 0.51889
 C811 C 0.26229 0.73640 0.48295
 C812 C 0.23743 0.76155 0.51884
 O813 O 0.26705 0.75336 -0.01268
 O814 O 0.24856 0.73436 0.01398
 O815 O 0.24874 0.73435 -0.01285
 O816 O 0.26685 0.75341 0.01398
 O817 O 0.25051 0.76868 0.01391
 O818 O 0.23240 0.74961 -0.01292
 O819 O 0.23222 0.74963 0.01374
 O820 O 0.25071 0.76864 -0.01295
 Cu821 Cu 0.25942 0.74232 0.00063
 Cu822 Cu 0.23985 0.76070 0.00043
 C823 C 0.26203 0.76423 -0.01742
 C824 C 0.23724 0.73874 0.01844
 C825 C 0.23748 0.73873 -0.01750
 C826 C 0.26176 0.76429 0.01857
 O827 O 0.26680 0.25368 0.48719
 O828 O 0.24852 0.23457 0.51392
 O829 O 0.24845 0.23471 0.48714
 O830 O 0.26686 0.25364 0.51385
 O831 O 0.25067 0.26907 0.51383
 O832 O 0.23203 0.24989 0.48747
 O833 O 0.23243 0.25010 0.51422
 O834 O 0.25040 0.26889 0.48701
 Cu835 Cu 0.25927 0.24260 0.50052
 Cu836 Cu 0.23976 0.26103 0.50063
 C837 C 0.26170 0.26452 0.48247
 C838 C 0.23740 0.23912 0.51873
 C839 C 0.23708 0.23906 0.48273
 C840 C 0.26192 0.26460 0.51841
 O841 O 0.74902 0.76549 0.98761
 O842 O 0.76793 0.74637 1.01387
 O843 O 0.76735 0.74668 0.98714
 O844 O 0.74955 0.76529 1.01443
 O845 O 0.73319 0.74999 1.01443
 O846 O 0.75132 0.73104 0.98758
 O847 O 0.75156 0.73109 1.01436
 O848 O 0.73289 0.74995 0.98775
 Cu849 Cu 0.76008 0.75752 1.00076
 Cu850 Cu 0.74062 0.73896 1.00105
 C851 C 0.73776 0.76094 0.98311
 C852 C 0.76295 0.73550 1.01867
 C853 C 0.76239 0.73568 0.98268
 C854 C 0.73830 0.76085 1.01908
 O855 O 0.73454 0.24915 0.51279
 O856 O 0.75286 0.23101 0.48550
 O857 O 0.75321 0.23049 0.51220
 O858 O 0.73421 0.24962 0.48601
 O859 O 0.75054 0.26496 0.48557
 O860 O 0.76872 0.24664 0.51291
 O861 O 0.76920 0.24631 0.48612
 O862 O 0.75011 0.26523 0.51232
 Cu863 Cu 0.74209 0.23850 0.49912
 Cu864 Cu 0.76125 0.25736 0.49923
 C865 C 0.73915 0.26033 0.51717
 C866 C 0.76422 0.23550 0.48121
 C867 C 0.76412 0.23538 0.51716
 C868 C 0.73921 0.26048 0.48118
 O869 O 0.76716 0.25378 -0.01355
 O870 O 0.74909 0.23500 0.01356
 O871 O 0.74883 0.23478 -0.01328
 O872 O 0.76734 0.25407 0.01310
 O873 O 0.75098 0.26931 0.01315
 O874 O 0.73250 0.25006 -0.01325
 O875 O 0.73273 0.25025 0.01342
 O876 O 0.75084 0.26906 -0.01369
 Cu877 Cu 0.75972 0.24285 -0.00004
 Cu878 Cu 0.74014 0.26122 -0.00010
 C879 C 0.76209 0.26462 -0.01828
 C880 C 0.73784 0.23942 0.01816
 C881 C 0.73751 0.23914 -0.01781
 C882 C 0.76231 0.26497 0.01768
 O883 O 0.73388 0.75049 0.48639
 O884 O 0.75204 0.76942 0.51329
 O885 O 0.75207 0.76961 0.48645
 O886 O 0.73379 0.75031 0.51307
 O887 O 0.75019 0.73510 0.51312
 O888 O 0.76848 0.75442 0.48653
 O889 O 0.76843 0.75421 0.51317
 O890 O 0.75030 0.73530 0.48626
 Cu891 Cu 0.74132 0.76150 0.49981
 Cu892 Cu 0.76097 0.74321 0.49977
 C893 C 0.73902 0.73968 0.48167
 C894 C 0.76334 0.76505 0.51784
 C895 C 0.76339 0.76530 0.48191
 C896 C 0.73887 0.73942 0.51767
 O897 O 1.01422 0.26859 0.24717
 O898 O 0.98791 0.24946 0.26592
 O899 O 1.01451 0.24975 0.26584
 O900 O 0.98773 0.26838 0.24736
 O901 O 0.98749 0.25269 0.23132
 O902 O 1.01475 0.23438 0.24949
 O903 O 0.98824 0.23377 0.24988
 O904 O 1.01408 0.25321 0.23083
 Cu905 Cu 1.00109 0.26059 0.25821
 Cu906 Cu 1.00115 0.24197 0.23875
 C907 C 1.01863 0.26419 0.23577
 C908 C 0.98358 0.23834 0.26111
 C909 C 1.01928 0.23893 0.26080
 C910 C 0.98297 0.26368 0.23622
 O911 O 0.48741 0.24900 0.76633
 O912 O 0.51389 0.26788 0.74753
 O913 O 0.48737 0.26794 0.74779
 O914 O 0.51401 0.24911 0.76622
 O915 O 0.51419 0.23380 0.74981
 O916 O 0.48685 0.25218 0.73183
 O917 O 0.51340 0.25261 0.73108
 O918 O 0.48768 0.23325 0.75036
 Cu919 Cu 0.50068 0.26003 0.75860
 Cu920 Cu 0.50052 0.24141 0.73914
 C921 C 0.48304 0.23786 0.76158
 C922 C 0.51813 0.26350 0.73604
 C923 C 0.48247 0.26324 0.73671
 C924 C 0.51876 0.23830 0.76113
 O925 O -0.01453 0.26533 0.74970
 O926 O 0.01197 0.24628 0.73132
 O927 O -0.01453 0.24623 0.73141
 O928 O 0.01209 0.26536 0.74967
 O929 O 0.01188 0.25022 0.76631
 O930 O -0.01431 0.23083 0.74780
 O931 O 0.01225 0.23116 0.74798
 O932 O -0.01464 0.24993 0.76609
 Cu933 Cu -0.00125 0.25735 0.73889
 Cu934 Cu -0.00120 0.23901 0.75870
 C935 C -0.01920 0.26085 0.76099
 C936 C 0.01668 0.23548 0.73653
 C937 C -0.01896 0.23523 0.73647
 C938 C 0.01654 0.26107 0.76113
 O939 O 0.48633 0.26708 0.25144
 O940 O 0.51262 0.24812 0.23270
 O941 O 0.48608 0.24824 0.23285
 O942 O 0.51286 0.26688 0.25134
 O943 O 0.51242 0.25160 0.26785
 O944 O 0.48645 0.23240 0.24880
 O945 O 0.51298 0.23284 0.24921
 O946 O 0.48586 0.25123 0.26739
 Cu947 Cu 0.49947 0.25914 0.24045
 Cu948 Cu 0.49942 0.24046 0.25994
 C949 C 0.48151 0.26234 0.26256
 C950 C 0.51740 0.23730 0.23780
 C951 C 0.48173 0.23708 0.23762
 C952 C 0.51719 0.26246 0.26280
 O953 O 1.01299 0.73327 0.75185
 O954 O 0.98560 0.75180 0.73415
 O955 O 1.01216 0.75232 0.73341
 O956 O 0.98642 0.73279 0.75249
 O957 O 0.98656 0.74812 0.76889
 O958 O 1.01253 0.76752 0.74993
 O959 O 0.98593 0.76725 0.75043
 O960 O 1.01306 0.74853 0.76831
 Cu961 Cu 0.99929 0.74101 0.74133
 Cu962 Cu 0.99952 0.75940 0.76102
 C963 C 1.01772 0.73773 0.76312
 C964 C 0.98106 0.76268 0.73927
 C965 C 1.01683 0.76322 0.73844
 C966 C 0.98205 0.73712 0.76394
 O967 O 0.51306 0.76757 0.24907
 O968 O 0.48647 0.74870 0.26771
 O969 O 0.51303 0.74873 0.26773
 O970 O 0.48652 0.76763 0.24914
 O971 O 0.48612 0.75189 0.23315
 O972 O 0.51331 0.73346 0.25128
 O973 O 0.48680 0.73296 0.25172
 O974 O 0.51272 0.75227 0.23266
 Cu975 Cu 0.49977 0.75971 0.26004
 Cu976 Cu 0.49972 0.74110 0.24056
 C977 C 0.51744 0.76315 0.23765
 C978 C 0.48213 0.73756 0.26293
 C979 C 0.51780 0.73792 0.26264
 C980 C 0.48170 0.76294 0.23802
 O981 O -0.01322 0.76707 0.25155
 O982 O 0.01343 0.74792 0.23355
 O983 O -0.01306 0.74781 0.23341
 O984 O 0.01338 0.76709 0.25175
 O985 O 0.01312 0.75202 0.26845
 O986 O -0.01316 0.73265 0.25004
 O987 O 0.01349 0.73284 0.25025
 O988 O -0.01337 0.75187 0.26813
 Cu989 Cu 0.00014 0.75900 0.24091
 Cu990 Cu 0.00002 0.74081 0.26087
 C991 C -0.01791 0.76272 0.26289
 C992 C 0.01808 0.73714 0.23884
 C993 C -0.01767 0.73695 0.23861
 C994 C 0.01778 0.76284 0.26324
 O995 O 0.48781 0.73083 0.74880
 O996 O 0.51307 0.75064 0.76816
 O997 O 0.48657 0.74974 0.76733
 O998 O 0.51434 0.73187 0.74960
 O999 O 0.51395 0.74713 0.73308
 O1000 O 0.48675 0.76540 0.75120
 O1001 O 0.51332 0.76594 0.75167
 O1002 O 0.48741 0.74654 0.73272
 Cu1003 Cu 0.50045 0.73921 0.76010
 Cu1004 Cu 0.50036 0.75781 0.74054
 C1005 C 0.48320 0.73534 0.73750
 C1006 C 0.51762 0.76162 0.76318
 C1007 C 0.48193 0.76066 0.76232
 C1008 C 0.51889 0.73643 0.73828
 C1009 C 0.40556 0.31187 0.31099
 C1010 C 0.40311 0.32564 0.30860
 C1011 C 0.39223 0.33217 0.31502
 C1012 C 0.38344 0.32505 0.32388
 C1013 C 0.38595 0.31125 0.32625
 C1014 C 0.39691 0.30476 0.31993
 C1015 C 0.41699 0.30490 0.30407
 C1016 C 0.42550 0.29611 0.31144
 C1017 C 0.43619 0.28941 0.30486
 C1018 C 0.43851 0.29125 0.29073
 C1019 C 0.42996 0.30007 0.28338
 C1020 C 0.41937 0.30687 0.28999
 C1021 C 0.44970 0.28390 0.28365
 C1022 C 0.45718 0.29014 0.27306
 C1023 C 0.46750 0.28314 0.26623
 C1024 C 0.47068 0.26979 0.26990
 C1025 C 0.46333 0.26359 0.28058
 C1026 C 0.45292 0.27054 0.28732
 H1027 H 0.40973 0.33139 0.30188
 H1028 H 0.39082 0.34283 0.31312
 H1029 H 0.37931 0.30534 0.33278
 H1030 H 0.39846 0.29409 0.32181
 H1031 H 0.42399 0.29454 0.32234
 H1032 H 0.44271 0.28289 0.31090
 H1033 H 0.43128 0.30155 0.27244
 H1034 H 0.41284 0.31346 0.28403
 H1035 H 0.45515 0.30049 0.27013
 H1036 H 0.47305 0.28823 0.25811
 H1037 H 0.46549 0.25328 0.28359
 H1038 H 0.44724 0.26534 0.29526
 C1039 C 0.40426 0.80896 0.80932
 C1040 C 0.39865 0.82062 0.80345
 C1041 C 0.38768 0.82719 0.80967
 C1042 C 0.38192 0.82231 0.82204
 C1043 C 0.38774 0.81056 0.82788
 C1044 C 0.39870 0.80402 0.82160
 C1045 C 0.41584 0.80192 0.80263
 C1046 C 0.41621 0.78775 0.80204
 C1047 C 0.42704 0.78112 0.79566
 C1048 C 0.43778 0.78851 0.78972
 C1049 C 0.43744 0.80269 0.79034
 C1050 C 0.42659 0.80931 0.79672
 C1051 C 0.44922 0.78146 0.78280
 C1052 C 0.45467 0.78652 0.77047
 C1053 C 0.46532 0.77980 0.76386
 C1054 C 0.47078 0.76787 0.76944
 C1055 C 0.46538 0.76285 0.78180
 C1056 C 0.45472 0.76957 0.78841
 H1057 H 0.40261 0.82458 0.79387
 H1058 H 0.38379 0.83603 0.80451
 H1059 H 0.38406 0.80626 0.83736
 H1060 H 0.40294 0.79514 0.82650
 H1061 H 0.40797 0.78178 0.80631
 H1062 H 0.42690 0.77020 0.79515
 H1063 H 0.44565 0.80866 0.78606
 H1064 H 0.42671 0.82023 0.79719
 H1065 H 0.45054 0.79555 0.76579
 H1066 H 0.46922 0.78392 0.75433
 H1067 H 0.46938 0.75371 0.78640
 H1068 H 0.45087 0.76552 0.79799
 C1069 C -0.09578 0.31020 0.80864
 C1070 C -0.10113 0.30540 0.82108
 C1071 C -0.11200 0.31198 0.82745
 C1072 C -0.11795 0.32364 0.82157
 C1073 C -0.11239 0.32842 0.80906
 C1074 C -0.10150 0.32180 0.80274
 C1075 C -0.08434 0.30307 0.80181
 C1076 C -0.07369 0.31037 0.79561
 C1077 C -0.06297 0.30364 0.78913
 C1078 C -0.06266 0.28946 0.78870
 C1079 C -0.07331 0.28217 0.79491
 C1080 C -0.08402 0.28890 0.80140
 C1081 C -0.05133 0.28228 0.78173
 C1082 C -0.04580 0.27045 0.78745
 C1083 C -0.03531 0.26356 0.78077
 C1084 C -0.03010 0.26833 0.76822
 C1085 C -0.03556 0.28021 0.76255
 C1086 C -0.04605 0.28711 0.76923
 H1087 H -0.09678 0.29659 0.82601
 H1088 H -0.11549 0.30781 0.83706
 H1089 H -0.11640 0.33717 0.80385
 H1090 H -0.09771 0.32566 0.79305
 H1091 H -0.07355 0.32130 0.79593
 H1092 H -0.05481 0.30954 0.78462
 H1093 H -0.07349 0.27124 0.79456
 H1094 H -0.09219 0.28299 0.80588
 H1095 H -0.04951 0.26658 0.79716
 H1096 H -0.03130 0.25446 0.78544
 H1097 H -0.03180 0.28414 0.75288
 H1098 H -0.05020 0.29610 0.76448
 C1099 C -0.09459 0.81248 0.30991
 C1100 C -0.09985 0.80779 0.32243
 C1101 C -0.11072 0.81438 0.32877
 C1102 C -0.11677 0.82594 0.32277
 C1103 C -0.11129 0.83061 0.31019
 C1104 C -0.10039 0.82398 0.30390
 C1105 C -0.08316 0.80531 0.30311
 C1106 C -0.07254 0.81257 0.29680
 C1107 C -0.06180 0.80579 0.29039
 C1108 C -0.06145 0.79161 0.29015
 C1109 C -0.07208 0.78436 0.29645
 C1110 C -0.08280 0.79113 0.30286
 C1111 C -0.05009 0.78437 0.28329
 C1112 C -0.04453 0.77264 0.28918
 C1113 C -0.03403 0.76568 0.28261
 C1114 C -0.02883 0.77029 0.26999
 C1115 C -0.03430 0.78209 0.26416
 C1116 C -0.04481 0.78905 0.27073
 H1117 H -0.09544 0.79906 0.32744
 H1118 H -0.11415 0.81030 0.33844
 H1119 H -0.11538 0.83928 0.30490
 H1120 H -0.09666 0.82775 0.29415
 H1121 H -0.07244 0.82350 0.29699
 H1122 H -0.05367 0.81166 0.28580
 H1123 H -0.07222 0.77343 0.29623
 H1124 H -0.09094 0.78526 0.30743
 H1125 H -0.04824 0.76890 0.29894
 H1126 H -0.03001 0.75666 0.28741
 H1127 H -0.03055 0.78589 0.25443
 H1128 H -0.04898 0.79796 0.26585
 C1129 C 0.59465 0.68935 0.31093
 C1130 C 0.60264 0.68005 0.30366
 C1131 C 0.61375 0.67375 0.30997
 C1132 C 0.61706 0.67654 0.32374
 C1133 C 0.60891 0.68575 0.33103
 C1134 C 0.59788 0.69212 0.32469
 C1135 C 0.58308 0.69629 0.30412
 C1136 C 0.58112 0.71022 0.30589
 C1137 C 0.57038 0.71683 0.29929
 C1138 C 0.56128 0.70964 0.29086
 C1139 C 0.56320 0.69567 0.28920
 C1140 C 0.57401 0.68908 0.29572
 C1141 C 0.54994 0.71672 0.28372
 C1142 C 0.54614 0.71306 0.27030
 C1143 C 0.53562 0.71985 0.26352
 C1144 C 0.52872 0.73052 0.26995
 C1145 C 0.53245 0.73416 0.28337
 C1146 C 0.54290 0.72731 0.29019
 H1147 H 0.60048 0.67786 0.29299
 H1148 H 0.61988 0.66691 0.30394
 H1149 H 0.61097 0.68797 0.34170
 H1150 H 0.59176 0.69911 0.33059
 H1151 H 0.58807 0.71606 0.31215
 H1152 H 0.56936 0.72763 0.30059
 H1153 H 0.55625 0.68977 0.28298
 H1154 H 0.57519 0.67830 0.29433
 H1155 H 0.55147 0.70511 0.26492
 H1156 H 0.53304 0.71685 0.25315
 H1157 H 0.52727 0.74228 0.28864
 H1158 H 0.54539 0.73023 0.30060
 C1159 C 0.59543 0.18987 0.80985
 C1160 C 0.60051 0.19482 0.82232
 C1161 C 0.61131 0.18838 0.82898
 C1162 C 0.61746 0.17672 0.82336
 C1163 C 0.61216 0.17179 0.81082
 C1164 C 0.60134 0.17826 0.80421
 C1165 C 0.58405 0.19685 0.80272
 C1166 C 0.57356 0.18943 0.79643
 C1167 C 0.56286 0.19603 0.78974
 C1168 C 0.56242 0.21020 0.78919
 C1169 C 0.57293 0.21762 0.79546
 C1170 C 0.58362 0.21102 0.80215
 C1171 C 0.55106 0.21725 0.78210
 C1172 C 0.54535 0.22901 0.78773
 C1173 C 0.53482 0.23578 0.78097
 C1174 C 0.52974 0.23095 0.76841
 C1175 C 0.53537 0.21914 0.76281
 C1176 C 0.54591 0.21237 0.76958
 H1177 H 0.59600 0.20363 0.82706
 H1178 H 0.61458 0.19264 0.83862
 H1179 H 0.61636 0.16304 0.80580
 H1180 H 0.59776 0.17430 0.79450
 H1181 H 0.57351 0.17850 0.79687
 H1182 H 0.55481 0.19004 0.78518
 H1183 H 0.57301 0.22854 0.79501
 H1184 H 0.59167 0.21702 0.80670
 H1185 H 0.54896 0.23292 0.79746
 H1186 H 0.53068 0.24482 0.78559
 H1187 H 0.53171 0.21518 0.75313
 H1188 H 0.55020 0.20343 0.76489
 C1189 C 1.09534 0.68945 0.81045
 C1190 C 1.10055 0.69439 0.82287
 C1191 C 1.11148 0.68800 0.82936
 C1192 C 1.11764 0.67641 0.82361
 C1193 C 1.11221 0.67148 0.81112
 C1194 C 1.10126 0.67791 0.80468
 C1195 C 1.08383 0.69639 0.80350
 C1196 C 1.07329 0.68893 0.79733
 C1197 C 1.06245 0.69550 0.79083
 C1198 C 1.06191 0.70967 0.79036
 C1199 C 1.07247 0.71712 0.79650
 C1200 C 1.08330 0.71056 0.80300
 C1201 C 1.05040 0.71669 0.78348
 C1202 C 1.04473 0.72839 0.78928
 C1203 C 1.03407 0.73515 0.78271
 C1204 C 1.02882 0.73037 0.77020
 C1205 C 1.03441 0.71861 0.76445
 C1206 C 1.04508 0.71184 0.77103
 H1207 H 1.09604 0.70314 0.82771
 H1208 H 1.11486 0.69225 0.83896
 H1209 H 1.11640 0.66278 0.80601
 H1210 H 1.09757 0.67395 0.79501
 H1211 H 1.07331 0.67800 0.79771
 H1212 H 1.05437 0.68948 0.78636
 H1213 H 1.07248 0.72805 0.79610
 H1214 H 1.09138 0.71659 0.80746
 H1215 H 1.04846 0.73226 0.79896
 H1216 H 1.02996 0.74415 0.78744
 H1217 H 1.03063 0.71468 0.75481
 H1218 H 1.04934 0.70295 0.76623
 C1219 C 1.09600 0.19054 0.30949
 C1220 C 1.10109 0.19544 0.32198
 C1221 C 1.11193 0.18900 0.32858
 C1222 C 1.11811 0.17739 0.32289
 C1223 C 1.11280 0.17251 0.31033
 C1224 C 1.10194 0.17898 0.30377
 C1225 C 1.08460 0.19753 0.30242
 C1226 C 1.07411 0.19011 0.29612
 C1227 C 1.06339 0.19672 0.28946
 C1228 C 1.06292 0.21089 0.28896
 C1229 C 1.07342 0.21831 0.29525
 C1230 C 1.08413 0.21171 0.30191
 C1231 C 1.05158 0.21794 0.28184
 C1232 C 1.04585 0.22970 0.28747
 C1233 C 1.03532 0.23646 0.28068
 C1234 C 1.03027 0.23162 0.26811
 C1235 C 1.03593 0.21982 0.26253
 C1236 C 1.04646 0.21305 0.26932
 H1237 H 1.09657 0.20422 0.32677
 H1238 H 1.11521 0.19324 0.33822
 H1239 H 1.11700 0.16379 0.30526
 H1240 H 1.09835 0.17506 0.29405
 H1241 H 1.07408 0.17919 0.29651
 H1242 H 1.05535 0.19073 0.28489
 H1243 H 1.07349 0.22923 0.29483
 H1244 H 1.09217 0.21770 0.30647
 H1245 H 1.04943 0.23361 0.29720
 H1246 H 1.03115 0.24549 0.28529
 H1247 H 1.03230 0.21584 0.25284
 H1248 H 1.05077 0.20412 0.26464
 C1249 C 0.59333 0.31310 0.68607
 C1250 C 0.59634 0.31057 0.67222
 C1251 C 0.60742 0.31689 0.66587
 C1252 C 0.61584 0.32580 0.67327
 C1253 C 0.61271 0.32841 0.68711
 C1254 C 0.60155 0.32218 0.69341
 C1255 C 0.58183 0.30608 0.69294
 C1256 C 0.57298 0.31316 0.70166
 C1257 C 0.56235 0.30646 0.70838
 C1258 C 0.56040 0.29249 0.70661
 C1259 C 0.56925 0.28545 0.69782
 C1260 C 0.57980 0.29218 0.69102
 C1261 C 0.54933 0.28526 0.71405
 C1262 C 0.54215 0.27466 0.70773
 C1263 C 0.53201 0.26762 0.71485
 C1264 C 0.52872 0.27110 0.72843
 C1265 C 0.53575 0.28180 0.73471
 C1266 C 0.54597 0.28876 0.72763
 H1267 H 0.59004 0.30376 0.66627
 H1268 H 0.60934 0.31482 0.65515
 H1269 H 0.61904 0.33501 0.69322
 H1270 H 0.59957 0.32418 0.70415
 H1271 H 0.57422 0.32392 0.70318
 H1272 H 0.55558 0.31224 0.71487
 H1273 H 0.56821 0.27466 0.69641
 H1274 H 0.58660 0.28644 0.68451
 H1275 H 0.54430 0.27184 0.69721
 H1276 H 0.52671 0.25949 0.70969
 H1277 H 0.53350 0.28467 0.74519
 H1278 H 0.55143 0.29672 0.73290
 C1279 C 0.59421 0.81172 0.18905
 C1280 C 0.59947 0.80678 0.17666
 C1281 C 0.61056 0.81308 0.17031
 C1282 C 0.61682 0.82458 0.17618
 C1283 C 0.61129 0.82956 0.18859
 C1284 C 0.60019 0.82322 0.19489
 C1285 C 0.58264 0.80478 0.19593
 C1286 C 0.57215 0.81224 0.20215
 C1287 C 0.56134 0.80567 0.20872
 C1288 C 0.56077 0.79149 0.20922
 C1289 C 0.57125 0.78405 0.20298
 C1290 C 0.58205 0.79061 0.19642
 C1291 C 0.54938 0.78447 0.21632
 C1292 C 0.54362 0.77271 0.21070
 C1293 C 0.53317 0.76587 0.21756
 C1294 C 0.52822 0.77065 0.23019
 C1295 C 0.53386 0.78250 0.23573
 C1296 C 0.54432 0.78933 0.22887
 H1297 H 0.59491 0.79807 0.17176
 H1298 H 0.61397 0.80884 0.16072
 H1299 H 0.61555 0.83821 0.19377
 H1300 H 0.59646 0.82718 0.20454
 H1301 H 0.57222 0.82317 0.20179
 H1302 H 0.55332 0.81169 0.21326
 H1303 H 0.57124 0.77312 0.20340
 H1304 H 0.59009 0.78459 0.19193
 H1305 H 0.54716 0.76882 0.20095
 H1306 H 0.52901 0.75681 0.21298
 H1307 H 0.53031 0.78643 0.24546
 H1308 H 0.54865 0.79828 0.23354
 C1309 C 1.09398 0.31393 0.18620
 C1310 C 1.09957 0.32590 0.19141
 C1311 C 1.11071 0.33205 0.18501
 C1312 C 1.11673 0.32639 0.17315
 C1313 C 1.11079 0.31446 0.16784
 C1314 C 1.09963 0.30836 0.17427
 C1315 C 1.08249 0.30712 0.19334
 C1316 C 1.07176 0.30128 0.18583
 C1317 C 1.06113 0.29460 0.19258
 C1318 C 1.06100 0.29360 0.20698
 C1319 C 1.07168 0.29952 0.21448
 C1320 C 1.08230 0.30621 0.20774
 C1321 C 1.04988 0.28624 0.21417
 C1322 C 1.04446 0.29122 0.22652
 C1323 C 1.03425 0.28412 0.23347
 C1324 C 1.02923 0.27187 0.22823
 C1325 C 1.03455 0.26695 0.21582
 C1326 C 1.04476 0.27406 0.20887
 H1327 H 1.09527 0.33058 0.20047
 H1328 H 1.11447 0.34123 0.18959
 H1329 H 1.11470 0.30953 0.15880
 H1330 H 1.09562 0.29905 0.17006
 H1331 H 1.07153 0.30200 0.17474
 H1332 H 1.05294 0.29032 0.18653
 H1333 H 1.07199 0.29873 0.22556
 H1334 H 1.09053 0.31040 0.21379
 H1335 H 1.04805 0.30067 0.23076
 H1336 H 1.03033 0.28822 0.24298
 H1337 H 1.03093 0.25753 0.21152
 H1338 H 1.04885 0.26987 0.19947
 C1339 C 1.09319 0.81220 0.68961
 C1340 C 1.09621 0.80961 0.67577
 C1341 C 1.10726 0.81594 0.66940
 C1342 C 1.11565 0.82493 0.67674
 C1343 C 1.11255 0.82755 0.69058
 C1344 C 1.10142 0.82130 0.69693
 C1345 C 1.08161 0.80528 0.69644
 C1346 C 1.07272 0.81246 0.70504
 C1347 C 1.06189 0.80589 0.71158
 C1348 C 1.05978 0.79195 0.70976
 C1349 C 1.06870 0.78480 0.70113
 C1350 C 1.07945 0.79140 0.69451
 C1351 C 1.04847 0.78485 0.71697
 C1352 C 1.04129 0.77434 0.71049
 C1353 C 1.03096 0.76739 0.71742
 C1354 C 1.02748 0.77085 0.73095
 C1355 C 1.03449 0.78149 0.73737
 C1356 C 1.04490 0.78837 0.73048
 H1357 H 1.08991 0.80279 0.66984
 H1358 H 1.10914 0.81386 0.65867
 H1359 H 1.11886 0.83422 0.69664
 H1360 H 1.09942 0.82334 0.70766
 H1361 H 1.07405 0.82321 0.70657
 H1362 H 1.05509 0.81176 0.71796
 H1363 H 1.06755 0.77402 0.69970
 H1364 H 1.08626 0.78558 0.68809
 H1365 H 1.04360 0.77153 0.70001
 H1366 H 1.02569 0.75929 0.71216
 H1367 H 1.03211 0.78435 0.74782
 H1368 H 1.05034 0.79627 0.73586
 C1369 C 0.40848 0.68495 0.68788
 C1370 C 0.40539 0.67135 0.69056
 C1371 C 0.39425 0.66514 0.68421
 C1372 C 0.38585 0.67243 0.67513
 C1373 C 0.38904 0.68604 0.67242
 C1374 C 0.40025 0.69219 0.67867
 C1375 C 0.42004 0.69168 0.69488
 C1376 C 0.42892 0.70016 0.68753
 C1377 C 0.43954 0.70686 0.69423
 C1378 C 0.44145 0.70534 0.70847
 C1379 C 0.43261 0.69675 0.71578
 C1380 C 0.42207 0.68995 0.70905
 C1381 C 0.45242 0.71290 0.71571
 C1382 C 0.45956 0.70698 0.72670
 C1383 C 0.46958 0.71424 0.73374
 C1384 C 0.47278 0.72755 0.72989
 C1385 C 0.46577 0.73342 0.71881
 C1386 C 0.45568 0.72621 0.71184
 H1387 H 0.41167 0.66549 0.69749
 H1388 H 0.39229 0.65460 0.68637
 H1389 H 0.38272 0.69208 0.66571
 H1390 H 0.40229 0.70275 0.67656
 H1391 H 0.42769 0.70152 0.67656
 H1392 H 0.44631 0.71318 0.68823
 H1393 H 0.43362 0.69552 0.72678
 H1394 H 0.41526 0.68361 0.71499
 H1395 H 0.45748 0.69668 0.72981
 H1396 H 0.47486 0.70940 0.74218
 H1397 H 0.46794 0.74369 0.71564
 H1398 H 0.45023 0.73118 0.70360
 C1399 C 0.40640 0.18725 0.18828
 C1400 C 0.40342 0.17365 0.19106
 C1401 C 0.39244 0.16725 0.18461
 C1402 C 0.38411 0.17436 0.17532
 C1403 C 0.38718 0.18798 0.17252
 C1404 C 0.39822 0.19432 0.17888
 C1405 C 0.41785 0.19413 0.19532
 C1406 C 0.42674 0.20259 0.18796
 C1407 C 0.43736 0.20930 0.19466
 C1408 C 0.43926 0.20780 0.20890
 C1409 C 0.43037 0.19927 0.21623
 C1410 C 0.41983 0.19247 0.20950
 C1411 C 0.45034 0.21522 0.21611
 C1412 C 0.45748 0.20917 0.22703
 C1413 C 0.46767 0.21625 0.23399
 C1414 C 0.47105 0.22952 0.23014
 C1415 C 0.46403 0.23553 0.21914
 C1416 C 0.45376 0.22849 0.21225
 H1417 H 0.40967 0.16791 0.19813
 H1418 H 0.39058 0.15671 0.18684
 H1419 H 0.38089 0.19387 0.16564
 H1420 H 0.40018 0.20487 0.17669
 H1421 H 0.42555 0.20391 0.17698
 H1422 H 0.44417 0.21558 0.18865
 H1423 H 0.43137 0.19806 0.22723
 H1424 H 0.41301 0.18615 0.21545
 H1425 H 0.45528 0.19889 0.23012
 H1426 H 0.47296 0.21130 0.24236
 H1427 H 0.46634 0.24577 0.21598
 H1428 H 0.44832 0.23355 0.20405
 C1429 C -0.09431 0.68754 0.19087
 C1430 C -0.10259 0.67853 0.19827
 C1431 C -0.11357 0.67207 0.19190
 C1432 C -0.11644 0.67438 0.17793
 C1433 C -0.10803 0.68332 0.17053
 C1434 C -0.09714 0.68986 0.17694
 C1435 C -0.08282 0.69458 0.19769
 C1436 C -0.08068 0.70845 0.19552
 C1437 C -0.06995 0.71514 0.20204
 C1438 C -0.06103 0.70811 0.21080
 C1439 C -0.06315 0.69420 0.21289
 C1440 C -0.07396 0.68753 0.20645
 C1441 C -0.04967 0.71528 0.21782
 C1442 C -0.04601 0.71192 0.23137
 C1443 C -0.03551 0.71883 0.23804
 C1444 C -0.02849 0.72934 0.23138
 C1445 C -0.03207 0.73266 0.21782
 C1446 C -0.04250 0.72568 0.21110
 H1447 H -0.10073 0.67669 0.20908
 H1448 H -0.11991 0.66545 0.19801
 H1449 H -0.10973 0.68517 0.15972
 H1450 H -0.09080 0.69662 0.17095
 H1451 H -0.08748 0.71416 0.18896
 H1452 H -0.06880 0.72590 0.20040
 H1453 H -0.05634 0.68842 0.21937
 H1454 H -0.07528 0.67680 0.20816
 H1455 H -0.05145 0.70413 0.23693
 H1456 H -0.03304 0.71609 0.24852
 H1457 H -0.02679 0.74065 0.21237
 H1458 H -0.04487 0.72836 0.20059
 C1459 C -0.09427 0.18472 0.68779
 C1460 C -0.10000 0.19011 0.67579
 C1461 C -0.11100 0.18374 0.66937
 C1462 C -0.11668 0.17171 0.67477
 C1463 C -0.11062 0.16626 0.68674
 C1464 C -0.09964 0.17268 0.69313
 C1465 C -0.08287 0.19175 0.69484
 C1466 C -0.08264 0.19273 0.70923
 C1467 C -0.07208 0.19956 0.71588
 C1468 C -0.06149 0.20557 0.70830
 C1469 C -0.06168 0.20452 0.69391
 C1470 C -0.07225 0.19769 0.68725
 C1471 C -0.05040 0.21304 0.71538
 C1472 C -0.04540 0.22524 0.70996
 C1473 C -0.03514 0.23240 0.71676
 C1474 C -0.02966 0.22753 0.72914
 C1475 C -0.03459 0.21528 0.73452
 C1476 C -0.04484 0.20812 0.72771
 H1477 H -0.09618 0.19948 0.67151
 H1478 H -0.11505 0.18857 0.66033
 H1479 H -0.11416 0.15698 0.69134
 H1480 H -0.09526 0.16813 0.70224
 H1481 H -0.09079 0.18845 0.71535
 H1482 H -0.07235 0.20038 0.72697
 H1483 H -0.05356 0.20887 0.68779
 H1484 H -0.07204 0.19694 0.67616
 H1485 H -0.04959 0.22939 0.70057
 H1486 H -0.03160 0.24182 0.71235
 H1487 H -0.03054 0.21122 0.74401
 H1488 H -0.04834 0.19866 0.73206
 C1489 C 0.31289 0.40769 0.31042
 C1490 C 0.31058 0.40503 0.32439
 C1491 C 0.31684 0.39405 0.33082
 C1492 C 0.32546 0.38538 0.32340
 C1493 C 0.32780 0.38813 0.30941
 C1494 C 0.32164 0.39919 0.30302
 C1495 C 0.30600 0.41915 0.30352
 C1496 C 0.31324 0.42771 0.29460
 C1497 C 0.30666 0.43841 0.28798
 C1498 C 0.29267 0.44072 0.29004
 C1499 C 0.28545 0.43211 0.29898
 C1500 C 0.29206 0.42150 0.30568
 C1501 C 0.28555 0.45191 0.28279
 C1502 C 0.27511 0.45918 0.28934
 C1503 C 0.26808 0.46935 0.28237
 C1504 C 0.27141 0.47261 0.26873
 C1505 C 0.28201 0.46555 0.26224
 C1506 C 0.28896 0.45528 0.26917
 H1507 H 0.30402 0.41154 0.33037
 H1508 H 0.31498 0.39244 0.34165
 H1509 H 0.33417 0.38160 0.30328
 H1510 H 0.32346 0.40092 0.29219
 H1511 H 0.32403 0.42621 0.29288
 H1512 H 0.31259 0.44497 0.28137
 H1513 H 0.27462 0.43340 0.30059
 H1514 H 0.28619 0.41493 0.31235
 H1515 H 0.27240 0.45705 0.29990
 H1516 H 0.26003 0.47468 0.28768
 H1517 H 0.28475 0.46778 0.25171
 H1518 H 0.29679 0.44977 0.26373
 C1519 C 0.31325 -0.09452 0.80917
 C1520 C 0.30758 -0.10003 0.82115
 C1521 C 0.31359 -0.11112 0.82762
 C1522 C 0.32555 -0.11714 0.82231
 C1523 C 0.33126 -0.11135 0.81032
 C1524 C 0.32519 -0.10026 0.80387
 C1525 C 0.30660 -0.08297 0.80211
 C1526 C 0.30560 -0.08265 0.78772
 C1527 C 0.29901 -0.07198 0.78108
 C1528 C 0.29326 -0.06137 0.78869
 C1529 C 0.29439 -0.06162 0.80308
 C1530 C 0.30098 -0.07230 0.80971
 C1531 C 0.28591 -0.05023 0.78166
 C1532 C 0.27374 -0.04510 0.78716
 C1533 C 0.26665 -0.03481 0.78042
 C1534 C 0.27158 -0.02940 0.76802
 C1535 C 0.28381 -0.03446 0.76256
 C1536 C 0.29089 -0.04476 0.76931
 H1537 H 0.29827 -0.09592 0.82539
 H1538 H 0.30858 -0.11491 0.83669
 H1539 H 0.34046 -0.11521 0.80573
 H1540 H 0.32994 -0.09610 0.79476
 H1541 H 0.30965 -0.09082 0.78158
 H1542 H 0.29812 -0.07219 0.77000
 H1543 H 0.29026 -0.05349 0.80922
 H1544 H 0.30178 -0.07215 0.82080
 H1545 H 0.26953 -0.04922 0.79656
 H1546 H 0.25725 -0.03116 0.78488
 H1547 H 0.28791 -0.03048 0.75305
 H1548 H 0.30033 -0.04838 0.76491
 C1549 C 0.81341 0.40683 0.80908
 C1550 C 0.80766 0.40120 0.82096
 C1551 C 0.81371 0.39013 0.82743
 C1552 C 0.82578 0.38426 0.82222
 C1553 C 0.83158 0.39018 0.81034
 C1554 C 0.82547 0.40125 0.80389
 C1555 C 0.80670 0.41833 0.80199
 C1556 C 0.80586 0.41868 0.78758
 C1557 C 0.79921 0.42929 0.78091
 C1558 C 0.79326 0.43981 0.78848
 C1559 C 0.79422 0.43953 0.80288
 C1560 C 0.80087 0.42891 0.80956
 C1561 C 0.78586 0.45088 0.78139
 C1562 C 0.77355 0.45585 0.78675
 C1563 C 0.76641 0.46605 0.77993
 C1564 C 0.77140 0.47152 0.76758
 C1565 C 0.78377 0.46663 0.76228
 C1566 C 0.79091 0.45642 0.76911
 H1567 H 0.79825 0.40519 0.82512
 H1568 H 0.80862 0.38622 0.83641
 H1569 H 0.84088 0.38646 0.80584
 H1570 H 0.83028 0.40551 0.79486
 H1571 H 0.81007 0.41057 0.78147
 H1572 H 0.79846 0.42910 0.76982
 H1573 H 0.78993 0.44759 0.80899
 H1574 H 0.80153 0.42903 0.82066
 H1575 H 0.76930 0.45167 0.79610
 H1576 H 0.75690 0.46956 0.78428
 H1577 H 0.78792 0.47066 0.75282
 H1578 H 0.80045 0.45293 0.76481
 C1579 C 0.81389 -0.09156 0.30956
 C1580 C 0.80829 -0.09700 0.32161
 C1581 C 0.81444 -0.10797 0.32818
 C1582 C 0.82645 -0.11391 0.32290
 C1583 C 0.83209 -0.10817 0.31085
 C1584 C 0.82588 -0.09721 0.30431
 C1585 C 0.80709 -0.08017 0.30238
 C1586 C 0.80606 -0.08003 0.28799
 C1587 C 0.79934 -0.06951 0.28123
 C1588 C 0.79349 -0.05888 0.28872
 C1589 C 0.79464 -0.05894 0.30311
 C1590 C 0.80136 -0.06947 0.30986
 C1591 C 0.78600 -0.04790 0.28156
 C1592 C 0.77378 -0.04284 0.28702
 C1593 C 0.76656 -0.03272 0.28016
 C1594 C 0.77140 -0.02742 0.26768
 C1595 C 0.78367 -0.03241 0.26226
 C1596 C 0.79089 -0.04254 0.26913
 H1597 H 0.79895 -0.09296 0.32583
 H1598 H 0.80949 -0.11172 0.33730
 H1599 H 0.84132 -0.11197 0.30628
 H1600 H 0.83057 -0.09309 0.29515
 H1601 H 0.81019 -0.08823 0.28195
 H1602 H 0.79844 -0.06986 0.27016
 H1603 H 0.79043 -0.05079 0.30915
 H1604 H 0.80217 -0.06918 0.32095
 H1605 H 0.76965 -0.04689 0.29648
 H1606 H 0.75713 -0.02913 0.28460
 H1607 H 0.78770 -0.02851 0.25269
 H1608 H 0.80036 -0.04610 0.26475
 C1609 C 0.31075 0.59415 0.69169
 C1610 C 0.32004 0.60231 0.69886
 C1611 C 0.32647 0.61316 0.69231
 C1612 C 0.32384 0.61604 0.67840
 C1613 C 0.31460 0.60776 0.67123
 C1614 C 0.30810 0.59699 0.67782
 C1615 C 0.30376 0.58278 0.69869
 C1616 C 0.28973 0.58067 0.69682
 C1617 C 0.28310 0.57001 0.70345
 C1618 C 0.29037 0.56112 0.71202
 C1619 C 0.30444 0.56322 0.71384
 C1620 C 0.31104 0.57397 0.70729
 C1621 C 0.28327 0.54977 0.71907
 C1622 C 0.28687 0.54602 0.73253
 C1623 C 0.28002 0.53551 0.73923
 C1624 C 0.26934 0.52860 0.73267
 C1625 C 0.26579 0.53228 0.71920
 C1626 C 0.27271 0.54270 0.71246
 H1627 H 0.32214 0.60046 0.70961
 H1628 H 0.33332 0.61942 0.69824
 H1629 H 0.31250 0.60946 0.66047
 H1630 H 0.30112 0.59073 0.67200
 H1631 H 0.28383 0.58743 0.69040
 H1632 H 0.27221 0.56887 0.70203
 H1633 H 0.31039 0.55645 0.72017
 H1634 H 0.32191 0.57527 0.70877
 H1635 H 0.29480 0.55137 0.73801
 H1636 H 0.28294 0.53297 0.74964
 H1637 H 0.25767 0.52708 0.71383
 H1638 H 0.26984 0.54514 0.70202
 C1639 C 0.31060 1.09500 0.19073
 C1640 C 0.32274 1.10046 0.19591
 C1641 C 0.32911 1.11132 0.18934
 C1642 C 0.32352 1.11716 0.17733
 C1643 C 0.31126 1.11153 0.17222
 C1644 C 0.30495 1.10065 0.17881
 C1645 C 0.30381 1.08351 0.19778
 C1646 C 0.29799 1.07292 0.19017
 C1647 C 0.29149 1.06217 0.19681
 C1648 C 0.29066 1.06176 0.21121
 C1649 C 0.29653 1.07232 0.21882
 C1650 C 0.30303 1.08307 0.21218
 C1651 C 0.28355 1.05046 0.21828
 C1652 C 0.28884 1.04493 0.23047
 C1653 C 0.28199 1.03450 0.23727
 C1654 C 0.26967 1.02937 0.23204
 C1655 C 0.26445 1.03481 0.21979
 C1656 C 0.27131 1.04524 0.21299
 H1657 H 0.32746 1.09620 0.20499
 H1658 H 0.33846 1.11494 0.19385
 H1659 H 0.30630 1.11542 0.16316
 H1660 H 0.29548 1.09677 0.17466
 H1661 H 0.29861 1.07287 0.17907
 H1662 H 0.28726 1.05409 0.19067
 H1663 H 0.29586 1.07242 0.22992
 H1664 H 0.30723 1.09117 0.21832
 H1665 H 0.29835 1.04861 0.23470
 H1666 H 0.28631 1.03050 0.24666
 H1667 H 0.25497 1.03112 0.21551
 H1668 H 0.26687 1.04940 0.20372
 C1669 C 0.81334 0.59129 0.18962
 C1670 C 0.80604 0.59932 0.18029
 C1671 C 0.81230 0.61028 0.17379
 C1672 C 0.82607 0.61341 0.17638
 C1673 C 0.83340 0.60521 0.18559
 C1674 C 0.82708 0.59432 0.19219
 C1675 C 0.80652 0.57994 0.19683
 C1676 C 0.80828 0.57810 0.21102
 C1677 C 0.80142 0.56773 0.21791
 C1678 C 0.79273 0.55890 0.21075
 C1679 C 0.79118 0.56063 0.19649
 C1680 C 0.79795 0.57107 0.18963
 C1681 C 0.78512 0.54810 0.21814
 C1682 C 0.77169 0.54481 0.21432
 C1683 C 0.76446 0.53478 0.22132
 C1684 C 0.77043 0.52786 0.23240
 C1685 C 0.78383 0.53113 0.23626
 C1686 C 0.79111 0.54110 0.22917
 H1687 H 0.79538 0.59732 0.17827
 H1688 H 0.80623 0.61646 0.16699
 H1689 H 0.84405 0.60712 0.18767
 H1690 H 0.83299 0.58818 0.19921
 H1691 H 0.81470 0.58490 0.21684
 H1692 H 0.80268 0.56684 0.22892
 H1693 H 0.78480 0.55385 0.19060
 H1694 H 0.79656 0.57216 0.17865
 H1695 H 0.76666 0.55016 0.20605
 H1696 H 0.75412 0.53256 0.21816
 H1697 H 0.78874 0.52593 0.24470
 H1698 H 0.80149 0.54321 0.23226
 C1699 C 0.80926 1.09312 0.69076
 C1700 C 0.82313 1.09575 0.69307
 C1701 C 0.82963 1.10648 0.68641
 C1702 C 0.82237 1.11494 0.67737
 C1703 C 0.80844 1.11229 0.67514
 C1704 C 0.80199 1.10147 0.68170
 C1705 C 0.80237 1.08174 0.69783
 C1706 C 0.79364 1.07308 0.69056
 C1707 C 0.78707 1.06240 0.69725
 C1708 C 0.78898 1.06023 0.71140
 C1709 C 0.79774 1.06893 0.71865
 C1710 C 0.80440 1.07952 0.71193
 C1711 C 0.78178 1.04903 0.71859
 C1712 C 0.78820 1.04183 0.72924
 C1713 C 0.78131 1.03153 0.73620
 C1714 C 0.76788 1.02809 0.73260
 C1715 C 0.76151 1.03515 0.72185
 C1716 C 0.76835 1.04554 0.71497
 H1717 H 0.82901 1.08936 0.69989
 H1718 H 0.84039 1.10801 0.68822
 H1719 H 0.80243 1.11867 0.66847
 H1720 H 0.79124 1.09977 0.67988
 H1721 H 0.79204 1.07447 0.67964
 H1722 H 0.78062 1.05576 0.69128
 H1723 H 0.79925 1.06772 0.72959
 H1724 H 0.81095 1.08616 0.71781
 H1725 H 0.79861 1.04407 0.73213
 H1726 H 0.78653 1.02621 0.74438
 H1727 H 0.75113 1.03280 0.71889
 H1728 H 0.76300 1.05101 0.70699
 C1729 C 0.68789 0.59382 0.31291
 C1730 C 0.69044 0.59702 0.32671
 C1731 C 0.68411 0.60811 0.33283
 C1732 C 0.67516 0.61634 0.32525
 C1733 C 0.67255 0.61303 0.31145
 C1734 C 0.67879 0.60187 0.30538
 C1735 C 0.69488 0.58228 0.30630
 C1736 C 0.68765 0.57336 0.29779
 C1737 C 0.69433 0.56265 0.29133
 C1738 C 0.70841 0.56070 0.29314
 C1739 C 0.71561 0.56963 0.30172
 C1740 C 0.70891 0.58025 0.30827
 C1741 C 0.71561 0.54954 0.28597
 C1742 C 0.72629 0.54253 0.29245
 C1743 C 0.73324 0.53225 0.28559
 C1744 C 0.72960 0.52865 0.27213
 C1745 C 0.71884 0.53554 0.26569
 C1746 C 0.71196 0.54589 0.27251
 H1747 H 0.69727 0.59086 0.33281
 H1748 H 0.68618 0.61015 0.34353
 H1749 H 0.66592 0.61922 0.30520
 H1750 H 0.67677 0.59973 0.29467
 H1751 H 0.67680 0.57459 0.29624
 H1752 H 0.68841 0.55583 0.28502
 H1753 H 0.72650 0.56859 0.30315
 H1754 H 0.71476 0.58709 0.31462
 H1755 H 0.72922 0.54491 0.30289
 H1756 H 0.74143 0.52707 0.29087
 H1757 H 0.71584 0.53305 0.25530
 H1758 H 0.70395 0.55121 0.26712
 C1759 C 0.68680 1.09376 0.81357
 C1760 C 0.69183 1.09911 0.82588
 C1761 C 0.68556 1.11020 0.83205
 C1762 C 0.67401 1.11640 0.82605
 C1763 C 0.66891 1.11075 0.81374
 C1764 C 0.67521 1.09963 0.80763
 C1765 C 0.69375 1.08225 0.80682
 C1766 C 0.68619 1.07176 0.80078
 C1767 C 0.69278 1.06103 0.79429
 C1768 C 0.70709 1.06055 0.79367
 C1769 C 0.71464 1.07103 0.79975
 C1770 C 0.70805 1.08174 0.80625
 C1771 C 0.71413 1.04927 0.78661
 C1772 C 0.72612 1.04371 0.79213
 C1773 C 0.73295 1.03333 0.78530
 C1774 C 0.72794 1.02826 0.77281
 C1775 C 0.71588 1.03372 0.76736
 C1776 C 0.70905 1.04411 0.77418
 H1777 H 0.70062 1.09464 0.83084
 H1778 H 0.68997 1.11374 0.84152
 H1779 H 0.66014 1.11485 0.80854
 H1780 H 0.67116 1.09581 0.79805
 H1781 H 0.67516 1.07178 0.80123
 H1782 H 0.68668 1.05301 0.78989
 H1783 H 0.72567 1.07108 0.79924
 H1784 H 0.71416 1.08978 0.81060
 H1785 H 0.73018 1.04732 0.80178
 H1786 H 0.74218 1.02930 0.78982
 H1787 H 0.71177 1.03007 0.75774
 H1788 H 0.69994 1.04829 0.76958
 C1789 C 0.18731 0.59384 0.81274
 C1790 C 0.17593 0.59997 0.80668
 C1791 C 0.16966 0.61106 0.81287
 C1792 C 0.17459 0.61642 0.82539
 C1793 C 0.18592 0.60995 0.83150
 C1794 C 0.19216 0.59889 0.82525
 C1795 C 0.19425 0.58235 0.80591
 C1796 C 0.20855 0.58166 0.80565
 C1797 C 0.21513 0.57096 0.79911
 C1798 C 0.20758 0.56069 0.79270
 C1799 C 0.19327 0.56137 0.79298
 C1800 C 0.18668 0.57209 0.79951
 C1801 C 0.21463 0.54939 0.78566
 C1802 C 0.20980 0.54445 0.77303
 C1803 C 0.21668 0.53407 0.76625
 C1804 C 0.22853 0.52839 0.77193
 C1805 C 0.23326 0.53323 0.78463
 C1806 C 0.22639 0.54359 0.79141
 H1807 H 0.17203 0.59639 0.79694
 H1808 H 0.16109 0.61541 0.80753
 H1809 H 0.19014 0.61324 0.84115
 H1810 H 0.20078 0.59421 0.83031
 H1811 H 0.21467 0.58953 0.81028
 H1812 H 0.22617 0.57086 0.79886
 H1813 H 0.18716 0.55351 0.78830
 H1814 H 0.17565 0.57225 0.79970
 H1815 H 0.20087 0.54881 0.76825
 H1816 H 0.21278 0.53059 0.75646
 H1817 H 0.24232 0.52903 0.78933
 H1818 H 0.23024 0.54703 0.80122
 C1819 C 0.18790 1.09484 0.31249
 C1820 C 0.19289 1.10011 0.32486
 C1821 C 0.18657 1.11114 0.33109
 C1822 C 0.17503 1.11736 0.32511
 C1823 C 0.16998 1.11179 0.31273
 C1824 C 0.17633 1.10073 0.30656
 C1825 C 0.19490 1.08336 0.30570
 C1826 C 0.18736 1.07291 0.29955
 C1827 C 0.19399 1.06221 0.29304
 C1828 C 0.20830 1.06172 0.29252
 C1829 C 0.21582 1.07216 0.29869
 C1830 C 0.20920 1.08285 0.30520
 C1831 C 0.21539 1.05043 0.28548
 C1832 C 0.22732 1.04485 0.29109
 C1833 C 0.23419 1.03447 0.28431
 C1834 C 0.22928 1.02943 0.27177
 C1835 C 0.21726 1.03490 0.26623
 C1836 C 0.21040 1.04529 0.27301
 H1837 H 0.20167 1.09562 0.32982
 H1838 H 0.19094 1.11463 0.34060
 H1839 H 0.16122 1.11590 0.30753
 H1840 H 0.17231 1.09696 0.29694
 H1841 H 0.17633 1.07293 0.29993
 H1842 H 0.18791 1.05421 0.28857
 H1843 H 0.22685 1.07221 0.29825
 H1844 H 0.21528 1.09087 0.30963
 H1845 H 0.23131 1.04845 0.30078
 H1846 H 0.24339 1.03044 0.28888
 H1847 H 0.21323 1.03126 0.25657
 H1848 H 0.20132 1.04949 0.26835
 C1849 C 0.68969 0.40566 0.68638
 C1850 C 0.68027 0.39777 0.69372
 C1851 C 0.67389 0.38674 0.68751
 C1852 C 0.67671 0.38339 0.67376
 C1853 C 0.68606 0.39140 0.66640
 C1854 C 0.69251 0.40237 0.67265
 C1855 C 0.69666 0.41719 0.69309
 C1856 C 0.71073 0.41917 0.69139
 C1857 C 0.71737 0.42982 0.69800
 C1858 C 0.71006 0.43881 0.70639
 C1859 C 0.69593 0.43690 0.70793
 C1860 C 0.68932 0.42618 0.70140
 C1861 C 0.71717 0.44998 0.71366
 C1862 C 0.71332 0.45361 0.72706
 C1863 C 0.72009 0.46399 0.73398
 C1864 C 0.73093 0.47093 0.72770
 C1865 C 0.73478 0.46734 0.71430
 C1866 C 0.72795 0.45701 0.70734
 H1867 H 0.67805 0.39997 0.70437
 H1868 H 0.66696 0.38070 0.69359
 H1869 H 0.68831 0.38930 0.65575
 H1870 H 0.69960 0.40840 0.66671
 H1871 H 0.71667 0.41228 0.68518
 H1872 H 0.72829 0.43084 0.69677
 H1873 H 0.68994 0.44377 0.71409
 H1874 H 0.67842 0.42500 0.70273
 H1875 H 0.70523 0.44826 0.73233
 H1876 H 0.71693 0.46646 0.74432
 H1877 H 0.74304 0.47254 0.70915
 H1878 H 0.73103 0.45463 0.69696
 C1879 C 0.68801 -0.09344 0.18815
 C1880 C 0.69041 -0.09646 0.17429
 C1881 C 0.68401 -0.10749 0.16809
 C1882 C 0.67513 -0.11584 0.17566
 C1883 C 0.67267 -0.11271 0.18953
 C1884 C 0.67899 -0.10161 0.19568
 C1885 C 0.69506 -0.08194 0.19481
 C1886 C 0.68792 -0.07312 0.20348
 C1887 C 0.69464 -0.06240 0.20991
 C1888 C 0.70869 -0.06033 0.20790
 C1889 C 0.71581 -0.06917 0.19919
 C1890 C 0.70906 -0.07981 0.19268
 C1891 C 0.71593 -0.04910 0.21495
 C1892 C 0.72647 -0.04200 0.20829
 C1893 C 0.73349 -0.03168 0.21504
 C1894 C 0.73008 -0.02812 0.22856
 C1895 C 0.71945 -0.03508 0.23518
 C1896 C 0.71250 -0.04548 0.22847
 H1897 H 0.69718 -0.09021 0.16819
 H1898 H 0.68596 -0.10940 0.15735
 H1899 H 0.66610 -0.11899 0.19577
 H1900 H 0.67709 -0.09960 0.20644
 H1901 H 0.67709 -0.07443 0.20517
 H1902 H 0.68879 -0.05565 0.21634
 H1903 H 0.72667 -0.06804 0.19761
 H1904 H 0.71485 -0.08658 0.18620
 H1905 H 0.72922 -0.04435 0.19780
 H1906 H 0.74157 -0.02644 0.20963
 H1907 H 0.71662 -0.03262 0.24563
 H1908 H 0.70460 -0.05086 0.23400
 C1909 C 0.19091 0.40493 0.18787
 C1910 C 0.19366 0.40187 0.17408
 C1911 C 0.18725 0.39095 0.16768
 C1912 C 0.17801 0.38276 0.17497
 C1913 C 0.17531 0.38583 0.18881
 C1914 C 0.18165 0.39681 0.19516
 C1915 C 0.19772 0.41649 0.19468
 C1916 C 0.19027 0.42528 0.20312
 C1917 C 0.19671 0.43610 0.20964
 C1918 C 0.21078 0.43832 0.20797
 C1919 C 0.21821 0.42950 0.19950
 C1920 C 0.21174 0.41875 0.19289
 C1921 C 0.21770 0.44968 0.21513
 C1922 C 0.22824 0.45693 0.20866
 C1923 C 0.23490 0.46744 0.21548
 C1924 C 0.23111 0.47103 0.22890
 C1925 C 0.22049 0.46389 0.23533
 C1926 C 0.21390 0.45331 0.22855
 H1927 H 0.20064 0.40807 0.16817
 H1928 H 0.18941 0.38907 0.15697
 H1929 H 0.16848 0.37964 0.19485
 H1930 H 0.17949 0.39882 0.20587
 H1931 H 0.17941 0.42388 0.20452
 H1932 H 0.19063 0.44283 0.21588
 H1933 H 0.22909 0.43076 0.19818
 H1934 H 0.21776 0.41202 0.18659
 H1935 H 0.23127 0.45456 0.19825
 H1936 H 0.24298 0.47280 0.21021
 H1937 H 0.21738 0.46635 0.24569
 H1938 H 0.20598 0.44781 0.23393
 C1939 C 0.18751 -0.09347 0.68757
 C1940 C 0.17596 -0.09937 0.69359
 C1941 C 0.16943 -0.11032 0.68737
 C1942 C 0.17426 -0.11578 0.67487
 C1943 C 0.18575 -0.10952 0.66878
 C1944 C 0.19224 -0.09860 0.67505
 C1945 C 0.19475 -0.08217 0.69445
 C1946 C 0.20907 -0.08180 0.69472
 C1947 C 0.21593 -0.07129 0.70132
 C1948 C 0.20864 -0.06089 0.70780
 C1949 C 0.19432 -0.06124 0.70751
 C1950 C 0.18745 -0.07177 0.70091
 C1951 C 0.21599 -0.04980 0.71493
 C1952 C 0.21126 -0.04483 0.72757
 C1953 C 0.21836 -0.03461 0.73442
 C1954 C 0.23034 -0.02913 0.72878
 C1955 C 0.23500 -0.03402 0.71609
 C1956 C 0.22791 -0.04423 0.70924
 H1957 H 0.17214 -0.09573 0.70333
 H1958 H 0.16077 -0.11453 0.69269
 H1959 H 0.18987 -0.11287 0.65910
 H1960 H 0.20097 -0.09408 0.67001
 H1961 H 0.21498 -0.08978 0.69004
 H1962 H 0.22696 -0.07144 0.70157
 H1963 H 0.18842 -0.05328 0.71223
 H1964 H 0.17642 -0.07169 0.70071
 H1965 H 0.20221 -0.04903 0.73231
 H1966 H 0.21451 -0.03109 0.74420
 H1967 H 0.24417 -0.02997 0.71143
 H1968 H 0.23170 -0.04769 0.69943
 C1969 C 0.31036 0.31354 0.40567
 C1970 C 0.32422 0.31116 0.40307
 C1971 C 0.33078 0.31755 0.39209
 C1972 C 0.32360 0.32637 0.38337
 C1973 C 0.30972 0.32877 0.38606
 C1974 C 0.30320 0.32247 0.39712
 C1975 C 0.30336 0.30655 0.41716
 C1976 C 0.29451 0.31364 0.42588
 C1977 C 0.28788 0.30701 0.43667
 C1978 C 0.28986 0.29312 0.43890
 C1979 C 0.29868 0.28604 0.43010
 C1980 C 0.30540 0.29270 0.41940
 C1981 C 0.28270 0.28599 0.45027
 C1982 C 0.28926 0.27564 0.45765
 C1983 C 0.28245 0.26871 0.46811
 C1984 C 0.26896 0.27204 0.47154
 C1985 C 0.26245 0.28249 0.46432
 C1986 C 0.26922 0.28935 0.45377
 H1987 H 0.33003 0.30446 0.40963
 H1988 H 0.34152 0.31563 0.39054
 H1989 H 0.30377 0.33530 0.37948
 H1990 H 0.29246 0.32435 0.39880
 H1991 H 0.29289 0.32437 0.42447
 H1992 H 0.28135 0.31282 0.44337
 H1993 H 0.30023 0.27529 0.43133
 H1994 H 0.31200 0.28695 0.41270
 H1995 H 0.29971 0.27296 0.45542
 H1996 H 0.28778 0.26078 0.47356
 H1997 H 0.25203 0.28524 0.46667
 H1998 H 0.26379 0.29711 0.44817
 C1999 C 0.31056 0.81217 -0.09499
 C2000 C 0.32431 0.80950 -0.09790
 C2001 C 0.33073 0.81567 -0.10908
 C2002 C 0.32352 0.82457 -0.11770
 C2003 C 0.30976 0.82728 -0.11470
 C2004 C 0.30338 0.82119 -0.10344
 C2005 C 0.30367 0.80540 -0.08329
 C2006 C 0.29509 0.81270 -0.07448
 C2007 C 0.28853 0.80626 -0.06353
 C2008 C 0.29031 0.79235 -0.06123
 C2009 C 0.29888 0.78507 -0.07009
 C2010 C 0.30553 0.79153 -0.08096
 C2011 C 0.28317 0.78541 -0.04972
 C2012 C 0.28963 0.77502 -0.04235
 C2013 C 0.28279 0.76820 -0.03182
 C2014 C 0.26937 0.77170 -0.02833
 C2015 C 0.26296 0.78223 -0.03553
 C2016 C 0.26976 0.78898 -0.04614
 H2017 H 0.33013 0.80274 -0.09142
 H2018 H 0.34138 0.81353 -0.11087
 H2019 H 0.30380 0.83388 -0.12119
 H2020 H 0.29272 0.82329 -0.10153
 H2021 H 0.29361 0.82344 -0.07596
 H2022 H 0.28218 0.81223 -0.05678
 H2023 H 0.30028 0.77431 -0.06880
 H2024 H 0.31192 0.78562 -0.08772
 H2025 H 0.30003 0.77218 -0.04465
 H2026 H 0.28805 0.76020 -0.02639
 H2027 H 0.25259 0.78512 -0.03313
 H2028 H 0.26440 0.79679 -0.05173
 C2029 C 0.81045 0.31289 -0.09577
 C2030 C 0.82420 0.31023 -0.09864
 C2031 C 0.83069 0.31650 -0.10972
 C2032 C 0.82354 0.32551 -0.11828
 C2033 C 0.80977 0.32820 -0.11532
 C2034 C 0.80332 0.32201 -0.10416
 C2035 C 0.80350 0.30603 -0.08417
 C2036 C 0.79492 0.31326 -0.07531
 C2037 C 0.78834 0.30675 -0.06442
 C2038 C 0.79010 0.29281 -0.06222
 C2039 C 0.79866 0.28559 -0.07116
 C2040 C 0.80533 0.29213 -0.08196
 C2041 C 0.78300 0.28581 -0.05074
 C2042 C 0.78949 0.27537 -0.04344
 C2043 C 0.78272 0.26854 -0.03289
 C2044 C 0.76933 0.27206 -0.02929
 C2045 C 0.76288 0.28260 -0.03643
 C2046 C 0.76961 0.28936 -0.04707
 H2047 H 0.82999 0.30339 -0.09221
 H2048 H 0.84135 0.31437 -0.11149
 H2049 H 0.80386 0.33488 -0.12177
 H2050 H 0.79266 0.32411 -0.10228
 H2051 H 0.79346 0.32402 -0.07669
 H2052 H 0.78200 0.31266 -0.05761
 H2053 H 0.80004 0.27481 -0.06995
 H2054 H 0.81172 0.28627 -0.08877
 H2055 H 0.79988 0.27254 -0.04582
 H2056 H 0.78801 0.26053 -0.02751
 H2057 H 0.75253 0.28550 -0.03394
 H2058 H 0.76422 0.29721 -0.05259
 C2059 C 0.81176 0.81490 0.40532
 C2060 C 0.82557 0.81244 0.40251
 C2061 C 0.83202 0.81882 0.39147
 C2062 C 0.82477 0.82773 0.38289
 C2063 C 0.81096 0.83025 0.38580
 C2064 C 0.80455 0.82395 0.39692
 C2065 C 0.80485 0.80786 0.41683
 C2066 C 0.79614 0.81492 0.42571
 C2067 C 0.78958 0.80823 0.43650
 C2068 C 0.79150 0.79430 0.43858
 C2069 C 0.80021 0.78726 0.42964
 C2070 C 0.80685 0.79398 0.41893
 C2071 C 0.78438 0.78709 0.44993
 C2072 C 0.79093 0.77664 0.45716
 C2073 C 0.78413 0.76961 0.46756
 C2074 C 0.77067 0.77295 0.47108
 C2075 C 0.76417 0.78351 0.46402
 C2076 C 0.77093 0.79047 0.45352
 H2077 H 0.83142 0.80566 0.40895
 H2078 H 0.84271 0.81683 0.38975
 H2079 H 0.80498 0.83685 0.37933
 H2080 H 0.79385 0.82590 0.39876
 H2081 H 0.79455 0.82566 0.42441
 H2082 H 0.78313 0.81400 0.44332
 H2083 H 0.80172 0.77649 0.43076
 H2084 H 0.81336 0.78825 0.41211
 H2085 H 0.80136 0.77394 0.45485
 H2086 H 0.78945 0.76159 0.47289
 H2087 H 0.75377 0.78627 0.46644
 H2088 H 0.76551 0.79832 0.44804
 C2089 C 0.69087 0.30910 0.59407
 C2090 C 0.68165 0.30212 0.60253
 C2091 C 0.67523 0.30867 0.61345
 C2092 C 0.67781 0.32241 0.61611
 C2093 C 0.68700 0.32938 0.60755
 C2094 C 0.69350 0.32279 0.59671
 C2095 C 0.69779 0.30211 0.58259
 C2096 C 0.71181 0.30393 0.58035
 C2097 C 0.71838 0.29723 0.56962
 C2098 C 0.71105 0.28865 0.56080
 C2099 C 0.69699 0.28691 0.56301
 C2100 C 0.69045 0.29352 0.57382
 C2101 C 0.71808 0.28147 0.54941
 C2102 C 0.71439 0.26819 0.54592
 C2103 C 0.72111 0.26138 0.53535
 C2104 C 0.73176 0.26766 0.52810
 C2105 C 0.73543 0.28095 0.53154
 C2106 C 0.72863 0.28779 0.54203
 H2107 H 0.67958 0.29151 0.60083
 H2108 H 0.66843 0.30289 0.61992
 H2109 H 0.68906 0.34000 0.60909
 H2110 H 0.70043 0.32846 0.59024
 H2111 H 0.71775 0.31035 0.58708
 H2112 H 0.72926 0.29861 0.56839
 H2113 H 0.69098 0.28058 0.55628
 H2114 H 0.67959 0.29208 0.57521
 H2115 H 0.70646 0.26293 0.55153
 H2116 H 0.71810 0.25112 0.53301
 H2117 H 0.74354 0.28610 0.52608
 H2118 H 0.73157 0.29810 0.54426
 C2119 C 0.69032 0.81007 1.09589
 C2120 C 0.67647 0.80771 1.09860
 C2121 C 0.66997 0.81427 1.10946
 C2122 C 0.67720 0.82327 1.11795
 C2123 C 0.69108 0.82562 1.11518
 C2124 C 0.69754 0.81914 1.10424
 C2125 C 0.69725 0.80300 1.08445
 C2126 C 0.70600 0.81006 1.07555
 C2127 C 0.71253 0.80337 1.06478
 C2128 C 0.71054 0.78944 1.06274
 C2129 C 0.70180 0.78240 1.07171
 C2130 C 0.69519 0.78912 1.08240
 C2131 C 0.71760 0.78226 1.05138
 C2132 C 0.71100 0.77184 1.04418
 C2133 C 0.71771 0.76491 1.03369
 C2134 C 0.73114 0.76832 1.03006
 C2135 C 0.73770 0.77883 1.03713
 C2136 C 0.73103 0.78569 1.04771
 H2137 H 0.67062 0.80091 1.09220
 H2138 H 0.65923 0.81239 1.11107
 H2139 H 0.69706 0.83227 1.12159
 H2140 H 0.70828 0.82101 1.10247
 H2141 H 0.70763 0.82080 1.07681
 H2142 H 0.71899 0.80915 1.05794
 H2143 H 0.70024 0.77164 1.07062
 H2144 H 0.68864 0.78341 1.08923
 H2145 H 0.70057 0.76910 1.04655
 H2146 H 0.71234 0.75692 1.02837
 H2147 H 0.74808 0.78165 1.03464
 H2148 H 0.73651 0.79351 1.05317
 C2149 C 0.19037 0.31020 1.09322
 C2150 C 0.19327 0.32379 1.09610
 C2151 C 0.18691 0.33031 1.10708
 C2152 C 0.17759 0.32336 1.11551
 C2153 C 0.17474 0.30973 1.11259
 C2154 C 0.18101 0.30325 1.10155
 C2155 C 0.19717 0.30324 1.08163
 C2156 C 0.18968 0.29487 1.07278
 C2157 C 0.19612 0.28819 1.06195
 C2158 C 0.21022 0.28963 1.05981
 C2159 C 0.21769 0.29804 1.06869
 C2160 C 0.21123 0.30481 1.07944
 C2161 C 0.21715 0.28230 1.04847
 C2162 C 0.22787 0.28839 1.04112
 C2163 C 0.23457 0.28139 1.03068
 C2164 C 0.23065 0.26817 1.02726
 C2165 C 0.21983 0.26213 1.03446
 C2166 C 0.21320 0.26909 1.04498
 H2167 H 0.20032 0.32943 1.08973
 H2168 H 0.18919 0.34085 1.10882
 H2169 H 0.16783 0.30396 1.11897
 H2170 H 0.17874 0.29271 1.09968
 H2171 H 0.17879 0.29363 1.07413
 H2172 H 0.19001 0.28200 1.05517
 H2173 H 0.22860 0.29920 1.06751
 H2174 H 0.21728 0.31106 1.08623
 H2175 H 0.23102 0.29864 1.04336
 H2176 H 0.24281 0.28636 1.02525
 H2177 H 0.21662 0.25192 1.03213
 H2178 H 0.20514 0.26401 1.05056
 C2179 C 0.18878 0.81056 0.59535
 C2180 C 0.19602 0.81971 0.60358
 C2181 C 0.18963 0.82618 0.61457
 C2182 C 0.17580 0.82373 0.61752
 C2183 C 0.16855 0.81463 0.60916
 C2184 C 0.17498 0.80808 0.59825
 C2185 C 0.19564 0.80353 0.58384
 C2186 C 0.19371 0.78962 0.58184
 C2187 C 0.20037 0.78294 0.57115
 C2188 C 0.20901 0.79004 0.56214
 C2189 C 0.21081 0.80400 0.56409
 C2190 C 0.20425 0.81065 0.57486
 C2191 C 0.21621 0.78288 0.55085
 C2192 C 0.22961 0.78647 0.54723
 C2193 C 0.23644 0.77965 0.53674
 C2194 C 0.23007 0.76899 0.52971
 C2195 C 0.21668 0.76541 0.53329
 C2196 C 0.20980 0.77231 0.54369
 H2197 H 0.20672 0.82167 0.60168
 H2198 H 0.19563 0.83291 0.62088
 H2199 H 0.15785 0.81266 0.61093
 H2200 H 0.16912 0.80120 0.59195
 H2201 H 0.18727 0.78386 0.58873
 H2202 H 0.19894 0.77215 0.57012
 H2203 H 0.21719 0.80983 0.55721
 H2204 H 0.20577 0.82142 0.57607
 H2205 H 0.23494 0.79441 0.55266
 H2206 H 0.24679 0.78259 0.53429
 H2207 H 0.21146 0.75730 0.52800
 H2208 H 0.19941 0.76943 0.54604
 C2209 C 0.31130 0.68682 0.59501
 C2210 C 0.30838 0.67330 0.59822
 C2211 C 0.31494 0.66689 0.60918
 C2212 C 0.32450 0.67391 0.61727
 C2213 C 0.32740 0.68746 0.61399
 C2214 C 0.32092 0.69381 0.60297
 C2215 C 0.30423 0.69369 0.58350
 C2216 C 0.31153 0.70190 0.57430
 C2217 C 0.30483 0.70856 0.56360
 C2218 C 0.29065 0.70726 0.56192
 C2219 C 0.28337 0.69898 0.57112
 C2220 C 0.29010 0.69223 0.58175
 C2221 C 0.28346 0.71463 0.55074
 C2222 C 0.27245 0.70865 0.54377
 C2223 C 0.26555 0.71569 0.53344
 C2224 C 0.26958 0.72883 0.52975
 C2225 C 0.28065 0.73477 0.53663
 C2226 C 0.28747 0.72778 0.54703
 H2227 H 0.30113 0.66762 0.59214
 H2228 H 0.31261 0.65640 0.61120
 H2229 H 0.33449 0.69328 0.62010
 H2230 H 0.32323 0.70431 0.60083
 H2231 H 0.32247 0.70305 0.57531
 H2232 H 0.31079 0.71464 0.55656
 H2233 H 0.27242 0.69793 0.57028
 H2234 H 0.28420 0.68610 0.58880
 H2235 H 0.26922 0.69847 0.54620
 H2236 H 0.25711 0.71080 0.52827
 H2237 H 0.28395 0.74491 0.53409
 H2238 H 0.29575 0.73279 0.55233
 C2239 C 0.31156 0.18637 1.09301
 C2240 C 0.30887 0.17280 1.09620
 C2241 C 0.31532 0.16657 1.10733
 C2242 C 0.32453 0.17381 1.11561
 C2243 C 0.32720 0.18741 1.11235
 C2244 C 0.32084 0.19359 1.10116
 C2245 C 0.30457 0.19308 1.08136
 C2246 C 0.31186 0.20145 1.07231
 C2247 C 0.30521 0.20804 1.06153
 C2248 C 0.29108 0.20650 1.05962
 C2249 C 0.28382 0.19804 1.06865
 C2250 C 0.29050 0.19136 1.07937
 C2251 C 0.28392 0.21382 1.04838
 C2252 C 0.27310 0.20771 1.04123
 C2253 C 0.26621 0.21470 1.03087
 C2254 C 0.27004 0.22793 1.02734
 C2255 C 0.28094 0.23401 1.03438
 C2256 C 0.28775 0.22706 1.04481
 H2257 H 0.30187 0.16696 1.08998
 H2258 H 0.31317 0.15604 1.10935
 H2259 H 0.33400 0.19341 1.11860
 H2260 H 0.32296 0.20413 1.09905
 H2261 H 0.32275 0.20281 1.07351
 H2262 H 0.31117 0.21426 1.05461
 H2263 H 0.27290 0.19680 1.06764
 H2264 H 0.28460 0.18511 1.08631
 H2265 H 0.27002 0.19745 1.04355
 H2266 H 0.25791 0.20971 1.02558
 H2267 H 0.28408 0.24423 1.03196
 H2268 H 0.29588 0.23217 1.05025
 C2269 C 0.81217 0.68600 1.09469
 C2270 C 0.80497 0.67674 1.10288
 C2271 C 0.81134 0.67036 1.11397
 C2272 C 0.82510 0.67301 1.11706
 C2273 C 0.83232 0.68216 1.10870
 C2274 C 0.82592 0.68861 1.09769
 C2275 C 0.80529 0.69306 1.08318
 C2276 C 0.80714 0.70699 1.08122
 C2277 C 0.80043 0.71372 1.07057
 C2278 C 0.79179 0.70666 1.06156
 C2279 C 0.79006 0.69267 1.06347
 C2280 C 0.79669 0.68596 1.07419
 C2281 C 0.78450 0.71388 1.05035
 C2282 C 0.77106 0.71031 1.04684
 C2283 C 0.76413 0.71723 1.03646
 C2284 C 0.77042 0.72795 1.02942
 C2285 C 0.78386 0.73150 1.03288
 C2286 C 0.79083 0.72451 1.04318
 H2287 H 0.79431 0.67467 1.10090
 H2288 H 0.80537 0.66357 1.12027
 H2289 H 0.84298 0.68427 1.11058
 H2290 H 0.83175 0.69557 1.09141
 H2291 H 0.81357 0.71274 1.08812
 H2292 H 0.80181 0.72453 1.06957
 H2293 H 0.78368 0.68687 1.05658
 H2294 H 0.79522 0.67518 1.07536
 H2295 H 0.76579 0.70233 1.05229
 H2296 H 0.75375 0.71431 1.03410
 H2297 H 0.78902 0.73965 1.02758
 H2298 H 0.80124 0.72737 1.04545
 C2299 C 0.81130 0.18544 0.59361
 C2300 C 0.80356 0.18078 0.60477
 C2301 C 0.80984 0.17398 0.61565
 C2302 C 0.82400 0.17200 0.61567
 C2303 C 0.83176 0.17671 0.60453
 C2304 C 0.82543 0.18325 0.59350
 C2305 C 0.80466 0.19276 0.58221
 C2306 C 0.80649 0.18855 0.56858
 C2307 C 0.80000 0.19537 0.55784
 C2308 C 0.79184 0.20669 0.56055
 C2309 C 0.79015 0.21099 0.57417
 C2310 C 0.79640 0.20399 0.58492
 C2311 C 0.78501 0.21397 0.54923
 C2312 C 0.78659 0.22799 0.54783
 C2313 C 0.77999 0.23491 0.53723
 C2314 C 0.77146 0.22798 0.52805
 C2315 C 0.76986 0.21395 0.52949
 C2316 C 0.77670 0.20698 0.53991
 H2317 H 0.79264 0.18233 0.60502
 H2318 H 0.80369 0.17053 0.62419
 H2319 H 0.84268 0.17523 0.60434
 H2320 H 0.83159 0.18682 0.58501
 H2321 H 0.81279 0.17987 0.56629
 H2322 H 0.80146 0.19193 0.54739
 H2323 H 0.78384 0.21966 0.57647
 H2324 H 0.79491 0.20743 0.59537
 H2325 H 0.79301 0.23355 0.55489
 H2326 H 0.78136 0.24574 0.53638
 H2327 H 0.76338 0.20835 0.52252
 H2328 H 0.77530 0.19617 0.54086
 C2329 C 0.69123 0.69112 0.40419
 C2330 C 0.69841 0.68201 0.39588
 C2331 C 0.69195 0.67560 0.38488
 C2332 C 0.67811 0.67805 0.38202
 C2333 C 0.67093 0.68711 0.39045
 C2334 C 0.67743 0.69360 0.40137
 C2335 C 0.69814 0.69807 0.41574
 C2336 C 0.69617 0.71194 0.41789
 C2337 C 0.70274 0.71854 0.42870
 C2338 C 0.71134 0.71139 0.43769
 C2339 C 0.71324 0.69747 0.43555
 C2340 C 0.70675 0.69090 0.42466
 C2341 C 0.71835 0.71844 0.44918
 C2342 C 0.73174 0.71496 0.45292
 C2343 C 0.73839 0.72174 0.46358
 C2344 C 0.73184 0.73222 0.47067
 C2345 C 0.71844 0.73566 0.46700
 C2346 C 0.71175 0.72882 0.45643
 H2347 H 0.70911 0.68005 0.39772
 H2348 H 0.69788 0.66889 0.37851
 H2349 H 0.66022 0.68907 0.38876
 H2350 H 0.67161 0.70044 0.40774
 H2351 H 0.68973 0.71775 0.41105
 H2352 H 0.70125 0.72930 0.42987
 H2353 H 0.71959 0.69160 0.44240
 H2354 H 0.70831 0.68016 0.42333
 H2355 H 0.73720 0.70717 0.44743
 H2356 H 0.74874 0.71890 0.46611
 H2357 H 0.71308 0.74363 0.47234
 H2358 H 0.70136 0.73159 0.45400
 C2359 C 0.68863 0.18949 -0.09384
 C2360 C 0.67488 0.19208 -0.09683
 C2361 C 0.66844 0.18557 -0.10778
 C2362 C 0.67563 0.17641 -0.11608
 C2363 C 0.68940 0.17381 -0.11301
 C2364 C 0.69580 0.18024 -0.10200
 C2365 C 0.69553 0.19656 -0.08237
 C2366 C 0.70411 0.18948 -0.07335
 C2367 C 0.71073 0.19619 -0.06263
 C2368 C 0.70901 0.21016 -0.06078
 C2369 C 0.70041 0.21722 -0.06984
 C2370 C 0.69371 0.21049 -0.08048
 C2371 C 0.71622 0.21738 -0.04953
 C2372 C 0.70982 0.22797 -0.04244
 C2373 C 0.71672 0.23499 -0.03212
 C2374 C 0.73013 0.23151 -0.02855
 C2375 C 0.73649 0.22081 -0.03549
 C2376 C 0.72963 0.21386 -0.04589
 H2377 H 0.66906 0.19904 -0.09059
 H2378 H 0.65778 0.18765 -0.10964
 H2379 H 0.69535 0.16702 -0.11928
 H2380 H 0.70646 0.17820 -0.10003
 H2381 H 0.70556 0.17870 -0.07448
 H2382 H 0.71708 0.19039 -0.05571
 H2383 H 0.69905 0.22802 -0.06888
 H2384 H 0.68731 0.21623 -0.08741
 H2385 H 0.69943 0.23080 -0.04479
 H2386 H 0.71150 0.24313 -0.02690
 H2387 H 0.74685 0.21793 -0.03303
 H2388 H 0.73495 0.20589 -0.05127
 C2389 C 0.18932 0.68921 -0.09410
 C2390 C 0.19652 0.68004 -0.10232
 C2391 C 0.19013 0.67363 -0.11336
 C2392 C 0.17634 0.67616 -0.11637
 C2393 C 0.16911 0.68523 -0.10800
 C2394 C 0.17554 0.69172 -0.09704
 C2395 C 0.19620 0.69629 -0.08262
 C2396 C 0.19428 0.71020 -0.08067
 C2397 C 0.20090 0.71693 -0.06998
 C2398 C 0.20952 0.70989 -0.06092
 C2399 C 0.21135 0.69594 -0.06285
 C2400 C 0.20481 0.68923 -0.07362
 C2401 C 0.21661 0.71710 -0.04959
 C2402 C 0.23001 0.71364 -0.04586
 C2403 C 0.23673 0.72055 -0.03535
 C2404 C 0.23026 0.73117 -0.02839
 C2405 C 0.21686 0.73461 -0.03206
 C2406 C 0.21009 0.72762 -0.04249
 H2407 H 0.20720 0.67805 -0.10039
 H2408 H 0.19611 0.66690 -0.11967
 H2409 H 0.15843 0.68725 -0.10981
 H2410 H 0.16970 0.69861 -0.09075
 H2411 H 0.18784 0.71592 -0.08759
 H2412 H 0.19945 0.72772 -0.06898
 H2413 H 0.21772 0.69015 -0.05593
 H2414 H 0.20634 0.67846 -0.07479
 H2415 H 0.23542 0.70574 -0.05125
 H2416 H 0.24709 0.71772 -0.03282
 H2417 H 0.21155 0.74267 -0.02682
 H2418 H 0.19970 0.73039 -0.04490
 C2419 C 0.18865 0.18970 0.40621
 C2420 C 0.17490 0.19220 0.40314
 C2421 C 0.16860 0.18575 0.39208
 C2422 C 0.17593 0.17673 0.38374
 C2423 C 0.18969 0.17422 0.38688
 C2424 C 0.19596 0.18058 0.39802
 C2425 C 0.19542 0.19673 0.41779
 C2426 C 0.20401 0.18964 0.42680
 C2427 C 0.21053 0.19632 0.43759
 C2428 C 0.20869 0.21027 0.43955
 C2429 C 0.20006 0.21733 0.43052
 C2430 C 0.19346 0.21062 0.41980
 C2431 C 0.21587 0.21746 0.45084
 C2432 C 0.20942 0.22798 0.45801
 C2433 C 0.21628 0.23496 0.46838
 C2434 C 0.22972 0.23151 0.47192
 C2435 C 0.23612 0.22090 0.46488
 C2436 C 0.22930 0.21399 0.45443
 H2437 H 0.16898 0.19904 0.40941
 H2438 H 0.15793 0.18775 0.39017
 H2439 H 0.19575 0.16754 0.38059
 H2440 H 0.20663 0.17861 0.40004
 H2441 H 0.20556 0.17889 0.42558
 H2442 H 0.21690 0.19052 0.44449
 H2443 H 0.19861 0.22811 0.43156
 H2444 H 0.18704 0.21637 0.41289
 H2445 H 0.19901 0.23077 0.45568
 H2446 H 0.21104 0.24303 0.47368
 H2447 H 0.24650 0.21805 0.46731
 H2448 H 0.23466 0.20610 0.44899
 C2449 C 0.31100 0.40690 0.69104
 C2450 C 0.31980 0.39840 0.69843
 C2451 C 0.32613 0.38749 0.69199
 C2452 C 0.32390 0.38488 0.67796
 C2453 C 0.31522 0.39354 0.67056
 C2454 C 0.30880 0.40437 0.67704
 C2455 C 0.30400 0.41826 0.69797
 C2456 C 0.29006 0.42057 0.69571
 C2457 C 0.28338 0.43112 0.70240
 C2458 C 0.29050 0.43969 0.71140
 C2459 C 0.30449 0.43741 0.71356
 C2460 C 0.31115 0.42677 0.70696
 C2461 C 0.28333 0.45086 0.71859
 C2462 C 0.28667 0.45420 0.73222
 C2463 C 0.27977 0.46454 0.73904
 C2464 C 0.26929 0.47170 0.73245
 C2465 C 0.26598 0.46842 0.71882
 C2466 C 0.27296 0.45817 0.71195
 H2467 H 0.32154 0.40003 0.70929
 H2468 H 0.33254 0.38095 0.69811
 H2469 H 0.31345 0.39205 0.65971
 H2470 H 0.30221 0.41089 0.67106
 H2471 H 0.28427 0.41404 0.68897
 H2472 H 0.27255 0.43240 0.70069
 H2473 H 0.31035 0.44394 0.72023
 H2474 H 0.32194 0.42530 0.70875
 H2475 H 0.29444 0.44865 0.73773
 H2476 H 0.28250 0.46678 0.74957
 H2477 H 0.25802 0.47382 0.71342
 H2478 H 0.27029 0.45605 0.70139
 C2479 C 0.31054 0.90675 0.19148
 C2480 C 0.31929 0.89828 0.19895
 C2481 C 0.32550 0.88722 0.19263
 C2482 C 0.32320 0.88444 0.17865
 C2483 C 0.31455 0.89307 0.17117
 C2484 C 0.30824 0.90404 0.17752
 C2485 C 0.30367 0.91826 0.19827
 C2486 C 0.28974 0.92067 0.19606
 C2487 C 0.28318 0.93136 0.20264
 C2488 C 0.29043 0.93999 0.21150
 C2489 C 0.30442 0.93762 0.21360
 C2490 C 0.31094 0.92684 0.20711
 C2491 C 0.28339 0.95129 0.21861
 C2492 C 0.28686 0.95476 0.23217
 C2493 C 0.28008 0.96521 0.23893
 C2494 C 0.26959 0.97237 0.23235
 C2495 C 0.26615 0.96897 0.21878
 C2496 C 0.27302 0.95860 0.21197
 H2497 H 0.32110 0.90004 0.20977
 H2498 H 0.33189 0.88072 0.19882
 H2499 H 0.31272 0.89145 0.16035
 H2500 H 0.30168 0.91053 0.17148
 H2501 H 0.28386 0.91410 0.18944
 H2502 H 0.27236 0.93271 0.20098
 H2503 H 0.31037 0.94419 0.22014
 H2504 H 0.32173 0.92530 0.20886
 H2505 H 0.29463 0.94921 0.23768
 H2506 H 0.28290 0.96753 0.24942
 H2507 H 0.25818 0.97436 0.21339
 H2508 H 0.27025 0.95638 0.20145
 C2509 C 0.81095 0.40649 0.19112
 C2510 C 0.81979 0.39798 0.19844
 C2511 C 0.82614 0.38712 0.19192
 C2512 C 0.82391 0.38460 0.17787
 C2513 C 0.81517 0.39327 0.17054
 C2514 C 0.80873 0.40404 0.17710
 C2515 C 0.80395 0.41780 0.19812
 C2516 C 0.79001 0.42011 0.19591
 C2517 C 0.78333 0.43063 0.20266
 C2518 C 0.79047 0.43916 0.21168
 C2519 C 0.80447 0.43688 0.21379
 C2520 C 0.81111 0.42628 0.20714
 C2521 C 0.78333 0.45032 0.21892
 C2522 C 0.78671 0.45363 0.23254
 C2523 C 0.77990 0.46401 0.23939
 C2524 C 0.76946 0.47124 0.23282
 C2525 C 0.76607 0.46797 0.21921
 C2526 C 0.77297 0.45768 0.21232
 H2527 H 0.82155 0.39954 0.20930
 H2528 H 0.83259 0.38058 0.19798
 H2529 H 0.81339 0.39184 0.15969
 H2530 H 0.80210 0.41057 0.17118
 H2531 H 0.78420 0.41360 0.18916
 H2532 H 0.77250 0.43191 0.20099
 H2533 H 0.81035 0.44340 0.22047
 H2534 H 0.82191 0.42481 0.20889
 H2535 H 0.79447 0.44803 0.23803
 H2536 H 0.78269 0.46623 0.24990
 H2537 H 0.75814 0.47343 0.21383
 H2538 H 0.77026 0.45558 0.20176
 C2539 C 0.80954 0.90619 0.69196
 C2540 C 0.80240 0.89826 0.68242
 C2541 C 0.80872 0.88730 0.67605
 C2542 C 0.82238 0.88407 0.67899
 C2543 C 0.82953 0.89211 0.68847
 C2544 C 0.82316 0.90300 0.69492
 C2545 C 0.80272 0.91764 0.69890
 C2546 C 0.80424 0.91957 0.71310
 C2547 C 0.79756 0.93017 0.71971
 C2548 C 0.78928 0.93916 0.71225
 C2549 C 0.78790 0.93729 0.69800
 C2550 C 0.79450 0.92662 0.69142
 C2551 C 0.78201 0.95033 0.71933
 C2552 C 0.76875 0.95402 0.71531
 C2553 C 0.76184 0.96438 0.72208
 C2554 C 0.76796 0.97122 0.73310
 C2555 C 0.78122 0.96757 0.73711
 C2556 C 0.78818 0.95729 0.73027
 H2557 H 0.79183 0.90038 0.68008
 H2558 H 0.80279 0.88124 0.66902
 H2559 H 0.84011 0.89011 0.69083
 H2560 H 0.82895 0.90906 0.70211
 H2561 H 0.81037 0.91269 0.71915
 H2562 H 0.79866 0.93115 0.73073
 H2563 H 0.78182 0.94416 0.69190
 H2564 H 0.79330 0.92547 0.68043
 H2565 H 0.76360 0.94874 0.70709
 H2566 H 0.75161 0.96690 0.71880
 H2567 H 0.78625 0.97271 0.74551
 H2568 H 0.79845 0.95487 0.73349
 C2569 C 0.68788 0.59248 0.68657
 C2570 C 0.69533 0.60064 0.67746
 C2571 C 0.68928 0.61187 0.67128
 C2572 C 0.67559 0.61516 0.67397
 C2573 C 0.66810 0.60683 0.68295
 C2574 C 0.67420 0.59566 0.68923
 C2575 C 0.69448 0.58085 0.69347
 C2576 C 0.69269 0.57869 0.70761
 C2577 C 0.69937 0.56807 0.71425
 C2578 C 0.70791 0.55930 0.70687
 C2579 C 0.70948 0.56134 0.69265
 C2580 C 0.70290 0.57204 0.68605
 C2581 C 0.71538 0.54826 0.71400
 C2582 C 0.72876 0.54494 0.71012
 C2583 C 0.73589 0.53474 0.71694
 C2584 C 0.72986 0.52769 0.72790
 C2585 C 0.71648 0.53096 0.73180
 C2586 C 0.70931 0.54109 0.72489
 H2587 H 0.70595 0.59852 0.67537
 H2588 H 0.69548 0.61813 0.66464
 H2589 H 0.65749 0.60886 0.68509
 H2590 H 0.66818 0.58943 0.69608
 H2591 H 0.68639 0.58544 0.71361
 H2592 H 0.69810 0.56694 0.72523
 H2593 H 0.71576 0.55463 0.68660
 H2594 H 0.70430 0.57337 0.67510
 H2595 H 0.73386 0.55040 0.70195
 H2596 H 0.74622 0.53252 0.71375
 H2597 H 0.71153 0.52565 0.74015
 H2598 H 0.69895 0.54323 0.72801
 C2599 C 0.68676 0.09304 0.18702
 C2600 C 0.68918 0.09614 0.17316
 C2601 C 0.68278 0.10718 0.16697
 C2602 C 0.67389 0.11545 0.17453
 C2603 C 0.67139 0.11223 0.18839
 C2604 C 0.67771 0.10112 0.19454
 C2605 C 0.69389 0.08160 0.19372
 C2606 C 0.68681 0.07273 0.20245
 C2607 C 0.69362 0.06212 0.20898
 C2608 C 0.70769 0.06021 0.20701
 C2609 C 0.71473 0.06909 0.19822
 C2610 C 0.70790 0.07963 0.19161
 C2611 C 0.71504 0.04914 0.21421
 C2612 C 0.72564 0.04214 0.20763
 C2613 C 0.73282 0.03201 0.21453
 C2614 C 0.72949 0.02856 0.22812
 C2615 C 0.71877 0.03541 0.23464
 C2616 C 0.71166 0.04561 0.22779
 H2617 H 0.69597 0.08996 0.16708
 H2618 H 0.68475 0.10917 0.15623
 H2619 H 0.66481 0.11845 0.19463
 H2620 H 0.67580 0.09906 0.20529
 H2621 H 0.67597 0.07393 0.20413
 H2622 H 0.68783 0.05534 0.21548
 H2623 H 0.72561 0.06809 0.19666
 H2624 H 0.71364 0.08643 0.18508
 H2625 H 0.72835 0.04441 0.19711
 H2626 H 0.74096 0.02685 0.20919
 H2627 H 0.71600 0.03303 0.24514
 H2628 H 0.70370 0.05093 0.23324
 C2629 C 0.18627 0.59171 0.18669
 C2630 C 0.17256 0.59475 0.18937
 C2631 C 0.16632 0.60584 0.18308
 C2632 C 0.17370 0.61422 0.17406
 C2633 C 0.18742 0.61108 0.17134
 C2634 C 0.19360 0.59993 0.17753
 C2635 C 0.19303 0.58020 0.19362
 C2636 C 0.20154 0.57146 0.18622
 C2637 C 0.20829 0.56089 0.19286
 C2638 C 0.20678 0.55889 0.20709
 C2639 C 0.19814 0.56758 0.21445
 C2640 C 0.19130 0.57808 0.20778
 C2641 C 0.21442 0.54799 0.21426
 C2642 C 0.20845 0.54081 0.22520
 C2643 C 0.21579 0.53084 0.23218
 C2644 C 0.22922 0.52775 0.22831
 C2645 C 0.23513 0.53479 0.21728
 C2646 C 0.22784 0.54483 0.21038
 H2647 H 0.16663 0.58848 0.19627
 H2648 H 0.15569 0.60776 0.18525
 H2649 H 0.19353 0.61739 0.16468
 H2650 H 0.20424 0.59792 0.17543
 H2651 H 0.20290 0.57276 0.17526
 H2652 H 0.21464 0.55423 0.18682
 H2653 H 0.19692 0.56649 0.22544
 H2654 H 0.18493 0.58477 0.21376
 H2655 H 0.19807 0.54282 0.22832
 H2656 H 0.21092 0.52553 0.24058
 H2657 H 0.24549 0.53270 0.21410
 H2658 H 0.23284 0.55031 0.20217
 C2659 C 0.18865 0.09314 0.68877
 C2660 C 0.17931 0.10103 0.69614
 C2661 C 0.17294 0.11208 0.68992
 C2662 C 0.17569 0.11544 0.67615
 C2663 C 0.18493 0.10740 0.66875
 C2664 C 0.19137 0.09642 0.67500
 C2665 C 0.19568 0.08165 0.69547
 C2666 C 0.20973 0.07971 0.69359
 C2667 C 0.21644 0.06903 0.70009
 C2668 C 0.20922 0.05997 0.70854
 C2669 C 0.19513 0.06187 0.71033
 C2670 C 0.18845 0.07262 0.70391
 C2671 C 0.21641 0.04869 0.71557
 C2672 C 0.21284 0.04486 0.72901
 C2673 C 0.21977 0.03443 0.73570
 C2674 C 0.23051 0.02765 0.72914
 C2675 C 0.23404 0.03140 0.71568
 C2676 C 0.22705 0.04176 0.70896
 H2677 H 0.17716 0.09884 0.70682
 H2678 H 0.16608 0.11813 0.69603
 H2679 H 0.18711 0.10949 0.65807
 H2680 H 0.19838 0.09039 0.66902
 H2681 H 0.21560 0.08663 0.68731
 H2682 H 0.22733 0.06803 0.69870
 H2683 H 0.18922 0.05496 0.71657
 H2684 H 0.17758 0.07378 0.70539
 H2685 H 0.20485 0.05011 0.73449
 H2686 H 0.21685 0.03183 0.74610
 H2687 H 0.24221 0.02631 0.71031
 H2688 H 0.22991 0.04427 0.69852
 C2689 C 0.30976 0.59584 0.30889
 C2690 C 0.30711 0.59865 0.32275
 C2691 C 0.31351 0.60949 0.32928
 C2692 C 0.32263 0.61788 0.32205
 C2693 C 0.32522 0.61506 0.30813
 C2694 C 0.31890 0.60413 0.30165
 C2695 C 0.30296 0.58433 0.30197
 C2696 C 0.31041 0.57562 0.29345
 C2697 C 0.30400 0.56477 0.28695
 C2698 C 0.28996 0.56245 0.28871
 C2699 C 0.28252 0.57121 0.29723
 C2700 C 0.28897 0.58199 0.30383
 C2701 C 0.28308 0.55101 0.28163
 C2702 C 0.27258 0.54375 0.28816
 C2703 C 0.26595 0.53317 0.28141
 C2704 C 0.26973 0.52953 0.26801
 C2705 C 0.28032 0.53667 0.26152
 C2706 C 0.28687 0.54732 0.26823
 H2707 H 0.30024 0.59230 0.32862
 H2708 H 0.31144 0.61115 0.34004
 H2709 H 0.33197 0.62139 0.30215
 H2710 H 0.32099 0.60230 0.29090
 H2711 H 0.32126 0.57710 0.29199
 H2712 H 0.31010 0.55809 0.28067
 H2713 H 0.27166 0.56989 0.29862
 H2714 H 0.28295 0.58865 0.31020
 H2715 H 0.26956 0.54614 0.29857
 H2716 H 0.25789 0.52781 0.28672
 H2717 H 0.28341 0.53417 0.25116
 H2718 H 0.29475 0.55282 0.26280
 C2719 C 0.31343 0.09247 0.80931
 C2720 C 0.31122 0.09507 0.82329
 C2721 C 0.31761 0.10599 0.82970
 C2722 C 0.32626 0.11466 0.82223
 C2723 C 0.32851 0.11196 0.80823
 C2724 C 0.32221 0.10096 0.80186
 C2725 C 0.30642 0.08105 0.80245
 C2726 C 0.31355 0.07252 0.79348
 C2727 C 0.30688 0.06183 0.78695
 C2728 C 0.29290 0.05950 0.78915
 C2729 C 0.28579 0.06808 0.79813
 C2730 C 0.29249 0.07869 0.80475
 C2731 C 0.28571 0.04829 0.78201
 C2732 C 0.27536 0.04096 0.78870
 C2733 C 0.26834 0.03068 0.78187
 C2734 C 0.27159 0.02740 0.76823
 C2735 C 0.28205 0.03457 0.76159
 C2736 C 0.28899 0.04494 0.76838
 H2737 H 0.30465 0.08856 0.82931
 H2738 H 0.31583 0.10755 0.84053
 H2739 H 0.33490 0.11849 0.80207
 H2740 H 0.32396 0.09927 0.79102
 H2741 H 0.32433 0.07402 0.79165
 H2742 H 0.31272 0.05529 0.78029
 H2743 H 0.27497 0.06677 0.79986
 H2744 H 0.28671 0.08523 0.81147
 H2745 H 0.27273 0.04309 0.79927
 H2746 H 0.26040 0.02526 0.78731
 H2747 H 0.28474 0.03234 0.75105
 H2748 H 0.29674 0.05050 0.76283
 C2749 C 0.81135 0.59305 0.81015
 C2750 C 0.80846 0.59603 0.82393
 C2751 C 0.81487 0.60687 0.83046
 C2752 C 0.82424 0.61505 0.82333
 C2753 C 0.82714 0.61200 0.80953
 C2754 C 0.82080 0.60110 0.80304
 C2755 C 0.80440 0.58167 0.80315
 C2756 C 0.81177 0.57283 0.79470
 C2757 C 0.80518 0.56221 0.78798
 C2758 C 0.79105 0.56026 0.78946
 C2759 C 0.78371 0.56913 0.79795
 C2760 C 0.79032 0.57968 0.80475
 C2761 C 0.78398 0.54912 0.78210
 C2762 C 0.77320 0.54203 0.78836
 C2763 C 0.76639 0.53175 0.78133
 C2764 C 0.77026 0.52824 0.76792
 C2765 C 0.78110 0.53522 0.76169
 C2766 C 0.78785 0.54557 0.76868
 H2767 H 0.80134 0.58987 0.82970
 H2768 H 0.81256 0.60872 0.84115
 H2769 H 0.83409 0.61818 0.80362
 H2770 H 0.82308 0.59913 0.79235
 H2771 H 0.82267 0.57403 0.79343
 H2772 H 0.81120 0.55543 0.78173
 H2773 H 0.77279 0.56808 0.79913
 H2774 H 0.78436 0.58646 0.81105
 H2775 H 0.77011 0.54434 0.79876
 H2776 H 0.75813 0.52650 0.78644
 H2777 H 0.78428 0.53280 0.75134
 H2778 H 0.79595 0.55095 0.76346
 C2779 C 0.81295 0.09405 0.30845
 C2780 C 0.81081 0.09655 0.32247
 C2781 C 0.81734 0.10734 0.32896
 C2782 C 0.82608 0.11597 0.32156
 C2783 C 0.82824 0.11339 0.30752
 C2784 C 0.82180 0.10252 0.30107
 C2785 C 0.80584 0.08275 0.30152
 C2786 C 0.81289 0.07422 0.29248
 C2787 C 0.80614 0.06361 0.28590
 C2788 C 0.79215 0.06137 0.28811
 C2789 C 0.78511 0.06996 0.29715
 C2790 C 0.79190 0.08048 0.30382
 C2791 C 0.78489 0.05020 0.28098
 C2792 C 0.77454 0.04289 0.28770
 C2793 C 0.76752 0.03259 0.28091
 C2794 C 0.77076 0.02926 0.26728
 C2795 C 0.78120 0.03644 0.26060
 C2796 C 0.78814 0.04682 0.26734
 H2797 H 0.80418 0.09006 0.32844
 H2798 H 0.81561 0.10881 0.33982
 H2799 H 0.83470 0.11990 0.30141
 H2800 H 0.82351 0.10092 0.29021
 H2801 H 0.82368 0.07566 0.29065
 H2802 H 0.81193 0.05707 0.27920
 H2803 H 0.77429 0.06871 0.29889
 H2804 H 0.78617 0.08702 0.31059
 H2805 H 0.77194 0.04504 0.29827
 H2806 H 0.75959 0.02718 0.28637
 H2807 H 0.78387 0.03416 0.25006
 H2808 H 0.79588 0.05237 0.26177
 C2809 C 0.68616 0.40745 0.31389
 C2810 C 0.68870 0.40429 0.32772
 C2811 C 0.68231 0.39322 0.33392
 C2812 C 0.67333 0.38497 0.32639
 C2813 C 0.67072 0.38826 0.31257
 C2814 C 0.67702 0.39939 0.30642
 C2815 C 0.69326 0.41892 0.30718
 C2816 C 0.68614 0.42781 0.29853
 C2817 C 0.69293 0.43843 0.29197
 C2818 C 0.70702 0.44033 0.29382
 C2819 C 0.71411 0.43144 0.30253
 C2820 C 0.70730 0.42089 0.30918
 C2821 C 0.71435 0.45141 0.28655
 C2822 C 0.72505 0.45839 0.29302
 C2823 C 0.73220 0.46852 0.28605
 C2824 C 0.72873 0.47198 0.27250
 C2825 C 0.71792 0.46515 0.26609
 C2826 C 0.71085 0.45494 0.27301
 H2827 H 0.69556 0.41045 0.33377
 H2828 H 0.68438 0.39119 0.34463
 H2829 H 0.66407 0.38206 0.30636
 H2830 H 0.67502 0.40150 0.29569
 H2831 H 0.67528 0.42661 0.29695
 H2832 H 0.68710 0.44523 0.28554
 H2833 H 0.72500 0.43243 0.30399
 H2834 H 0.71308 0.41407 0.31563
 H2835 H 0.72786 0.45611 0.30352
 H2836 H 0.74042 0.47367 0.29132
 H2837 H 0.71505 0.46753 0.25562
 H2838 H 0.70281 0.44963 0.26764
 C2839 C 0.68522 0.90761 0.81564
 C2840 C 0.68774 0.90447 0.82948
 C2841 C 0.68127 0.89348 0.83572
 C2842 C 0.67222 0.88527 0.82823
 C2843 C 0.66965 0.88852 0.81439
 C2844 C 0.67602 0.89959 0.80820
 C2845 C 0.69236 0.91902 0.80889
 C2846 C 0.68523 0.92794 0.80027
 C2847 C 0.69205 0.93847 0.79360
 C2848 C 0.70618 0.94024 0.79529
 C2849 C 0.71327 0.93135 0.80401
 C2850 C 0.70642 0.92090 0.81077
 C2851 C 0.71353 0.95116 0.78782
 C2852 C 0.72437 0.95814 0.79406
 C2853 C 0.73145 0.96820 0.78692
 C2854 C 0.72777 0.97160 0.77340
 C2855 C 0.71686 0.96472 0.76719
 C2856 C 0.70987 0.95459 0.77429
 H2857 H 0.69466 0.91061 0.83550
 H2858 H 0.68333 0.89147 0.84644
 H2859 H 0.66295 0.88235 0.80820
 H2860 H 0.67403 0.90167 0.79747
 H2861 H 0.67435 0.92682 0.79878
 H2862 H 0.68623 0.94528 0.78718
 H2863 H 0.72418 0.93227 0.80537
 H2864 H 0.71219 0.91406 0.81722
 H2865 H 0.72733 0.95592 0.80454
 H2866 H 0.73975 0.97338 0.79201
 H2867 H 0.71384 0.96704 0.75676
 H2868 H 0.70174 0.94927 0.76908
 C2869 C 0.18564 0.40658 0.81231
 C2870 C 0.18806 0.40337 0.82615
 C2871 C 0.18167 0.39225 0.83224
 C2872 C 0.17279 0.38400 0.82460
 C2873 C 0.17029 0.38733 0.81077
 C2874 C 0.17660 0.39852 0.80472
 C2875 C 0.19275 0.41811 0.80572
 C2876 C 0.18566 0.42703 0.79708
 C2877 C 0.19246 0.43772 0.79065
 C2878 C 0.20653 0.43967 0.79263
 C2879 C 0.21359 0.43074 0.80133
 C2880 C 0.20676 0.42012 0.80785
 C2881 C 0.21386 0.45083 0.78551
 C2882 C 0.22448 0.45782 0.79211
 C2883 C 0.23161 0.46805 0.78529
 C2884 C 0.22821 0.47162 0.77175
 C2885 C 0.21749 0.46477 0.76520
 C2886 C 0.21044 0.45446 0.77197
 H2887 H 0.19485 0.40953 0.83229
 H2888 H 0.18365 0.39019 0.84296
 H2889 H 0.16372 0.38113 0.80448
 H2890 H 0.17468 0.40067 0.79399
 H2891 H 0.17482 0.42580 0.79540
 H2892 H 0.18665 0.44455 0.78422
 H2893 H 0.22446 0.43177 0.80290
 H2894 H 0.21252 0.41328 0.81430
 H2895 H 0.22723 0.45546 0.80261
 H2896 H 0.23976 0.47321 0.79066
 H2897 H 0.21468 0.46723 0.75473
 H2898 H 0.20247 0.44915 0.76649
 C2899 C 0.18694 0.90808 0.31388
 C2900 C 0.18945 0.90497 0.32772
 C2901 C 0.18305 0.89392 0.33394
 C2902 C 0.17409 0.88565 0.32643
 C2903 C 0.17154 0.88887 0.31258
 C2904 C 0.17784 0.89998 0.30641
 C2905 C 0.19399 0.91957 0.30715
 C2906 C 0.18682 0.92841 0.29849
 C2907 C 0.19355 0.93904 0.29188
 C2908 C 0.20764 0.94099 0.29369
 C2909 C 0.21478 0.93216 0.30243
 C2910 C 0.20802 0.92161 0.30912
 C2911 C 0.21490 0.95206 0.28635
 C2912 C 0.22559 0.95913 0.29274
 C2913 C 0.23263 0.96929 0.28572
 C2914 C 0.22908 0.97270 0.27217
 C2915 C 0.21830 0.96576 0.26582
 C2916 C 0.21133 0.95552 0.27280
 H2917 H 0.19629 0.91116 0.33376
 H2918 H 0.18509 0.89193 0.34467
 H2919 H 0.16491 0.88264 0.30637
 H2920 H 0.17587 0.90205 0.29566
 H2921 H 0.17596 0.92716 0.29692
 H2922 H 0.18769 0.94579 0.28543
 H2923 H 0.22567 0.93321 0.30387
 H2924 H 0.21384 0.91483 0.31560
 H2925 H 0.22846 0.95690 0.30324
 H2926 H 0.24083 0.97452 0.29093
 H2927 H 0.21537 0.96809 0.25536
 H2928 H 0.20331 0.95014 0.26748
 C2929 C 0.40533 0.31244 0.68962
 C2930 C 0.40265 0.32612 0.69223
 C2931 C 0.39161 0.33257 0.68596
 C2932 C 0.38291 0.32545 0.67704
 C2933 C 0.38563 0.31173 0.67449
 C2934 C 0.39674 0.30533 0.68066
 C2935 C 0.41697 0.30555 0.69634
 C2936 C 0.42553 0.29701 0.68876
 C2937 C 0.43638 0.29036 0.69513
 C2938 C 0.43884 0.29201 0.70926
 C2939 C 0.43025 0.30059 0.71682
 C2940 C 0.41948 0.30734 0.71041
 C2941 C 0.45021 0.28471 0.71613
 C2942 C 0.45774 0.29090 0.72668
 C2943 C 0.46822 0.28393 0.73334
 C2944 C 0.47151 0.27067 0.72951
 C2945 C 0.46412 0.26452 0.71886
 C2946 C 0.45356 0.27144 0.71229
 H2947 H 0.40922 0.33187 0.69898
 H2948 H 0.39002 0.34317 0.68801
 H2949 H 0.37906 0.30582 0.66792
 H2950 H 0.39847 0.29473 0.67862
 H2951 H 0.42392 0.29559 0.67786
 H2952 H 0.44293 0.28403 0.68895
 H2953 H 0.43168 0.30191 0.72775
 H2954 H 0.41292 0.31373 0.71652
 H2955 H 0.45562 0.30118 0.72974
 H2956 H 0.47379 0.28898 0.74144
 H2957 H 0.46636 0.25428 0.71573
 H2958 H 0.44784 0.26628 0.70436
 C2959 C 0.40447 0.81187 0.19073
 C2960 C 0.40175 0.82555 0.19329
 C2961 C 0.39068 0.83194 0.18701
 C2962 C 0.38198 0.82477 0.17814
 C2963 C 0.38474 0.81105 0.17564
 C2964 C 0.39588 0.80470 0.18180
 C2965 C 0.41614 0.80504 0.19746
 C2966 C 0.42472 0.79649 0.18991
 C2967 C 0.43560 0.78990 0.19630
 C2968 C 0.43807 0.79160 0.21042
 C2969 C 0.42946 0.80019 0.21795
 C2970 C 0.41866 0.80688 0.21152
 C2971 C 0.44946 0.78435 0.21731
 C2972 C 0.45696 0.79056 0.22787
 C2973 C 0.46743 0.78363 0.23456
 C2974 C 0.47076 0.77036 0.23076
 C2975 C 0.46341 0.76419 0.22009
 C2976 C 0.45285 0.77108 0.21349
 H2977 H 0.40832 0.83135 0.20000
 H2978 H 0.38907 0.84255 0.18902
 H2979 H 0.37818 0.80509 0.16910
 H2980 H 0.39764 0.79409 0.17981
 H2981 H 0.42310 0.79503 0.17901
 H2982 H 0.44217 0.78357 0.19013
 H2983 H 0.43089 0.80155 0.22888
 H2984 H 0.41209 0.81327 0.21762
 H2985 H 0.45480 0.80084 0.23091
 H2986 H 0.47297 0.78869 0.24268
 H2987 H 0.46568 0.75394 0.21699
 H2988 H 0.44716 0.76589 0.20556
 C2989 C 0.90569 0.31253 0.18899
 C2990 C 0.90294 0.32618 0.19167
 C2991 C 0.89188 0.33261 0.18542
 C2992 C 0.88322 0.32550 0.17645
 C2993 C 0.88603 0.31182 0.17380
 C2994 C 0.89716 0.30544 0.17995
 C2995 C 0.91733 0.30566 0.19571
 C2996 C 0.92597 0.29720 0.18813
 C2997 C 0.93685 0.29059 0.19451
 C2998 C 0.93924 0.29220 0.20866
 C2999 C 0.93056 0.30069 0.21622
 C3000 C 0.91977 0.30739 0.20980
 C3001 C 0.95066 0.28497 0.21554
 C3002 C 0.95808 0.29118 0.22614
 C3003 C 0.96858 0.28428 0.23283
 C3004 C 0.97200 0.27105 0.22897
 C3005 C 0.96472 0.26489 0.21826
 C3006 C 0.95413 0.27174 0.21166
 H3007 H 0.90946 0.33193 0.19847
 H3008 H 0.89022 0.34319 0.18754
 H3009 H 0.87950 0.30592 0.16718
 H3010 H 0.89895 0.29485 0.17785
 H3011 H 0.92441 0.29583 0.17721
 H3012 H 0.94346 0.28434 0.18833
 H3013 H 0.93194 0.30197 0.22717
 H3014 H 0.91315 0.31371 0.21592
 H3015 H 0.95587 0.30144 0.22922
 H3016 H 0.97408 0.28935 0.24097
 H3017 H 0.96705 0.25467 0.21512
 H3018 H 0.94849 0.26656 0.20369
 C3019 C 0.90302 0.81104 0.69273
 C3020 C 0.89474 0.80400 0.68342
 C3021 C 0.88367 0.81037 0.67713
 C3022 C 0.88069 0.82399 0.67990
 C3023 C 0.88905 0.83102 0.68922
 C3024 C 0.90004 0.82460 0.69561
 C3025 C 0.91471 0.80424 0.69944
 C3026 C 0.91706 0.80580 0.71358
 C3027 C 0.92795 0.79920 0.71994
 C3028 C 0.93683 0.79100 0.71229
 C3029 C 0.93454 0.78959 0.69810
 C3030 C 0.92357 0.79608 0.69177
 C3031 C 0.94833 0.78384 0.71909
 C3032 C 0.95203 0.77075 0.71496
 C3033 C 0.96274 0.76395 0.72141
 C3034 C 0.96993 0.77003 0.73224
 C3035 C 0.96627 0.78311 0.73638
 C3036 C 0.95563 0.78996 0.72984
 H3037 H 0.89670 0.79348 0.68117
 H3038 H 0.87736 0.80453 0.67023
 H3039 H 0.88725 0.84156 0.69146
 H3040 H 0.90636 0.83031 0.70263
 H3041 H 0.91028 0.81190 0.71976
 H3042 H 0.92925 0.80033 0.73092
 H3043 H 0.94131 0.78357 0.69184
 H3044 H 0.92211 0.79487 0.68082
 H3045 H 0.94649 0.76563 0.70688
 H3046 H 0.96525 0.75385 0.71804
 H3047 H 0.97168 0.78810 0.74464
 H3048 H 0.95322 0.80011 0.73314
 C3049 C 0.59307 0.31163 0.31199
 C3050 C 0.59625 0.30881 0.32576
 C3051 C 0.60723 0.31524 0.33216
 C3052 C 0.61534 0.32456 0.32492
 C3053 C 0.61207 0.32741 0.31115
 C3054 C 0.60103 0.32105 0.30478
 C3055 C 0.58159 0.30461 0.30511
 C3056 C 0.57254 0.31178 0.29664
 C3057 C 0.56184 0.30511 0.29001
 C3058 C 0.56003 0.29110 0.29161
 C3059 C 0.56910 0.28396 0.30012
 C3060 C 0.57973 0.29065 0.30683
 C3061 C 0.54883 0.28394 0.28433
 C3062 C 0.54181 0.27324 0.29070
 C3063 C 0.53151 0.26630 0.28373
 C3064 C 0.52793 0.26996 0.27026
 C3065 C 0.53483 0.28074 0.26393
 C3066 C 0.54519 0.28762 0.27087
 H3067 H 0.59016 0.30172 0.33161
 H3068 H 0.60925 0.31297 0.34284
 H3069 H 0.61819 0.33434 0.30516
 H3070 H 0.59891 0.32328 0.29410
 H3071 H 0.57364 0.32258 0.29529
 H3072 H 0.55490 0.31096 0.28374
 H3073 H 0.56817 0.27314 0.30139
 H3074 H 0.58668 0.28484 0.31314
 H3075 H 0.54419 0.27029 0.30114
 H3076 H 0.52633 0.25809 0.28893
 H3077 H 0.53236 0.28376 0.25353
 H3078 H 0.55053 0.29566 0.26557
 C3079 C 0.59218 0.81182 0.81331
 C3080 C 0.59522 0.80904 0.82712
 C3081 C 0.60607 0.81554 0.83366
 C3082 C 0.61422 0.82490 0.82650
 C3083 C 0.61110 0.82772 0.81268
 C3084 C 0.60018 0.82129 0.80619
 C3085 C 0.58086 0.80470 0.80629
 C3086 C 0.57185 0.81177 0.79769
 C3087 C 0.56131 0.80499 0.79093
 C3088 C 0.55960 0.79097 0.79253
 C3089 C 0.56864 0.78393 0.80116
 C3090 C 0.57911 0.79072 0.80800
 C3091 C 0.54857 0.78368 0.78512
 C3092 C 0.54161 0.77291 0.79143
 C3093 C 0.53152 0.76580 0.78433
 C3094 C 0.52807 0.76937 0.77080
 C3095 C 0.53488 0.78025 0.76454
 C3096 C 0.54505 0.78730 0.77160
 H3097 H 0.58910 0.80193 0.83291
 H3098 H 0.60799 0.81330 0.84435
 H3099 H 0.61725 0.83468 0.80676
 H3100 H 0.59817 0.82349 0.79548
 H3101 H 0.57287 0.82258 0.79632
 H3102 H 0.55440 0.81077 0.78455
 H3103 H 0.56779 0.77310 0.80243
 H3104 H 0.58603 0.78499 0.81441
 H3105 H 0.54388 0.77001 0.80190
 H3106 H 0.52639 0.75753 0.78947
 H3107 H 0.53251 0.78320 0.75410
 H3108 H 0.55034 0.79540 0.76636
 C3109 C 0.09270 0.31048 0.80968
 C3110 C 0.10070 0.31989 0.80248
 C3111 C 0.11172 0.32625 0.80888
 C3112 C 0.11494 0.32341 0.82267
 C3113 C 0.10679 0.31411 0.82990
 C3114 C 0.09583 0.30768 0.82346
 C3115 C 0.08124 0.30345 0.80277
 C3116 C 0.07935 0.28950 0.80456
 C3117 C 0.06870 0.28280 0.79790
 C3118 C 0.05961 0.28992 0.78938
 C3119 C 0.06148 0.30391 0.78768
 C3120 C 0.07220 0.31059 0.79426
 C3121 C 0.04834 0.28275 0.78224
 C3122 C 0.04460 0.28632 0.76877
 C3123 C 0.03417 0.27940 0.76197
 C3124 C 0.02731 0.26867 0.76845
 C3125 C 0.03097 0.26514 0.78193
 C3126 C 0.04132 0.27213 0.78876
 H3127 H 0.09861 0.32210 0.79179
 H3128 H 0.11787 0.33316 0.80290
 H3129 H 0.10877 0.31186 0.84058
 H3130 H 0.08971 0.30062 0.82931
 H3131 H 0.08629 0.28371 0.81089
 H3132 H 0.06773 0.27199 0.79924
 H3133 H 0.05454 0.30975 0.78139
 H3134 H 0.07332 0.32138 0.79285
 H3135 H 0.04991 0.29431 0.76336
 H3136 H 0.03163 0.28232 0.75156
 H3137 H 0.02582 0.25699 0.78724
 H3138 H 0.04377 0.26926 0.79921
 C3139 C 0.09362 0.81254 0.31196
 C3140 C 0.10170 0.82186 0.30473
 C3141 C 0.11270 0.82823 0.31113
 C3142 C 0.11583 0.82550 0.32497
 C3143 C 0.10760 0.81629 0.33223
 C3144 C 0.09666 0.80985 0.32579
 C3145 C 0.08220 0.80547 0.30504
 C3146 C 0.08030 0.79153 0.30691
 C3147 C 0.06969 0.78480 0.30023
 C3148 C 0.06067 0.79187 0.29160
 C3149 C 0.06254 0.80584 0.28981
 C3150 C 0.07323 0.81256 0.29642
 C3151 C 0.04944 0.78465 0.28442
 C3152 C 0.04579 0.78814 0.27091
 C3153 C 0.03541 0.78117 0.26409
 C3154 C 0.02851 0.77049 0.27058
 C3155 C 0.03208 0.76704 0.28411
 C3156 C 0.04239 0.77407 0.29097
 H3157 H 0.09969 0.82399 0.29400
 H3158 H 0.11891 0.83507 0.30514
 H3159 H 0.10952 0.81413 0.34295
 H3160 H 0.09048 0.80285 0.33166
 H3161 H 0.08719 0.78579 0.31333
 H3162 H 0.06871 0.77400 0.30163
 H3163 H 0.05566 0.81164 0.28343
 H3164 H 0.07437 0.82334 0.29493
 H3165 H 0.05114 0.79609 0.26549
 H3166 H 0.03294 0.78403 0.25364
 H3167 H 0.02689 0.75892 0.28944
 H3168 H 0.04476 0.77127 0.30145
 C3169 C 0.59699 0.68956 0.69053
 C3170 C 0.59988 0.69227 0.67668
 C3171 C 0.61079 0.68592 0.67013
 C3172 C 0.61915 0.67679 0.67732
 C3173 C 0.61625 0.67413 0.69121
 C3174 C 0.60526 0.68040 0.69772
 C3175 C 0.58542 0.69632 0.69747
 C3176 C 0.57658 0.68895 0.70601
 C3177 C 0.56565 0.69531 0.71252
 C3178 C 0.56337 0.70922 0.71071
 C3179 C 0.57227 0.71658 0.70219
 C3180 C 0.58314 0.71019 0.69560
 C3181 C 0.55180 0.71605 0.71771
 C3182 C 0.54451 0.72638 0.71106
 C3183 C 0.53381 0.73297 0.71773
 C3184 C 0.53008 0.72930 0.73116
 C3185 C 0.53725 0.71888 0.73776
 C3186 C 0.54802 0.71237 0.73114
 H3187 H 0.59355 0.69915 0.67084
 H3188 H 0.61252 0.68804 0.65938
 H3189 H 0.62256 0.66736 0.69716
 H3190 H 0.60337 0.67827 0.70847
 H3191 H 0.57800 0.67820 0.70749
 H3192 H 0.55886 0.68929 0.71881
 H3193 H 0.57099 0.72735 0.70077
 H3194 H 0.58991 0.71615 0.68923
 H3195 H 0.54698 0.72931 0.70064
 H3196 H 0.52843 0.74090 0.71232
 H3197 H 0.53467 0.71588 0.74814
 H3198 H 0.55354 0.70460 0.73664
 C3199 C 0.59365 0.18856 0.18903
 C3200 C 0.59679 0.19135 0.17525
 C3201 C 0.60775 0.18496 0.16883
 C3202 C 0.61591 0.17570 0.17608
 C3203 C 0.61269 0.17288 0.18988
 C3204 C 0.60167 0.17921 0.19626
 C3205 C 0.58218 0.19553 0.19591
 C3206 C 0.57314 0.18833 0.20440
 C3207 C 0.56242 0.19495 0.21099
 C3208 C 0.56056 0.20894 0.20934
 C3209 C 0.56962 0.21611 0.20083
 C3210 C 0.58027 0.20948 0.19415
 C3211 C 0.54930 0.21605 0.21655
 C3212 C 0.54226 0.22666 0.21010
 C3213 C 0.53189 0.23354 0.21698
 C3214 C 0.52824 0.22989 0.23044
 C3215 C 0.53517 0.21919 0.23685
 C3216 C 0.54561 0.21238 0.23000
 H3217 H 0.59066 0.19838 0.16938
 H3218 H 0.60974 0.18719 0.15814
 H3219 H 0.61885 0.16600 0.19587
 H3220 H 0.59958 0.17700 0.20695
 H3221 H 0.57428 0.17754 0.20579
 H3222 H 0.55550 0.18907 0.21727
 H3223 H 0.56865 0.22693 0.19952
 H3224 H 0.58720 0.21531 0.18783
 H3225 H 0.54467 0.22960 0.19966
 H3226 H 0.52668 0.24168 0.21173
 H3227 H 0.53265 0.21618 0.24724
 H3228 H 0.55096 0.20440 0.23536
 C3229 C 0.09502 0.68858 0.19095
 C3230 C 0.09778 0.69120 0.17706
 C3231 C 0.10859 0.68476 0.17043
 C3232 C 0.11698 0.67562 0.17758
 C3233 C 0.11417 0.67302 0.19151
 C3234 C 0.10328 0.67938 0.19810
 C3235 C 0.08362 0.69552 0.19799
 C3236 C 0.07477 0.68833 0.20668
 C3237 C 0.06397 0.69488 0.21322
 C3238 C 0.06184 0.70880 0.21129
 C3239 C 0.07078 0.71599 0.20266
 C3240 C 0.08150 0.70941 0.19604
 C3241 C 0.05040 0.71583 0.21828
 C3242 C 0.04322 0.72619 0.21154
 C3243 C 0.03270 0.73305 0.21820
 C3244 C 0.02901 0.72963 0.23171
 C3245 C 0.03603 0.71915 0.23839
 C3246 C 0.04663 0.71237 0.23177
 H3247 H 0.09145 0.69810 0.17125
 H3248 H 0.11024 0.68683 0.15966
 H3249 H 0.12051 0.66623 0.19742
 H3250 H 0.10148 0.67731 0.20887
 H3251 H 0.07607 0.67758 0.20823
 H3252 H 0.05716 0.68900 0.21962
 H3253 H 0.06963 0.72676 0.20116
 H3254 H 0.08829 0.71524 0.18956
 H3255 H 0.04566 0.72895 0.20107
 H3256 H 0.02742 0.74101 0.21273
 H3257 H 0.03348 0.71634 0.24883
 H3258 H 0.05207 0.70458 0.23733
 C3259 C 0.09253 0.18584 0.68805
 C3260 C 0.09556 0.18830 0.67418
 C3261 C 0.10664 0.18196 0.66791
 C3262 C 0.11503 0.17310 0.67540
 C3263 C 0.11187 0.17055 0.68927
 C3264 C 0.10072 0.17681 0.69549
 C3265 C 0.08104 0.19290 0.69482
 C3266 C 0.07214 0.18587 0.70358
 C3267 C 0.06146 0.19260 0.71014
 C3268 C 0.05952 0.20654 0.70817
 C3269 C 0.06845 0.21354 0.69937
 C3270 C 0.07905 0.20679 0.69273
 C3271 C 0.04835 0.21379 0.71536
 C3272 C 0.04123 0.22428 0.70878
 C3273 C 0.03095 0.23131 0.71564
 C3274 C 0.02746 0.22793 0.72921
 C3275 C 0.03445 0.21735 0.73576
 C3276 C 0.04481 0.21040 0.72893
 H3277 H 0.08929 0.19507 0.66815
 H3278 H 0.10857 0.18397 0.65716
 H3279 H 0.11819 0.16399 0.69544
 H3280 H 0.09872 0.17487 0.70625
 H3281 H 0.07335 0.17512 0.70524
 H3282 H 0.05464 0.18684 0.71664
 H3283 H 0.06743 0.22432 0.69781
 H3284 H 0.08589 0.21249 0.68619
 H3285 H 0.04352 0.22701 0.69825
 H3286 H 0.02569 0.23935 0.71028
 H3287 H 0.03205 0.21456 0.74624
 H3288 H 0.05021 0.20253 0.73439
 C3289 C 0.40674 0.68749 0.31213
 C3290 C 0.39851 0.69462 0.32138
 C3291 C 0.38736 0.68836 0.32765
 C3292 C 0.38423 0.67476 0.32490
 C3293 C 0.39263 0.66758 0.31577
 C3294 C 0.40371 0.67390 0.30940
 C3295 C 0.41829 0.69431 0.30515
 C3296 C 0.42035 0.69266 0.29099
 C3297 C 0.43092 0.69947 0.28430
 C3298 C 0.43976 0.70801 0.29165
 C3299 C 0.43780 0.70948 0.30587
 C3300 C 0.42714 0.70276 0.31253
 C3301 C 0.45084 0.71548 0.28446
 C3302 C 0.45421 0.72875 0.28832
 C3303 C 0.46446 0.73587 0.28143
 C3304 C 0.47150 0.72992 0.27044
 C3305 C 0.46818 0.71665 0.26660
 C3306 C 0.45801 0.70950 0.27356
 H3307 H 0.40050 0.70517 0.32352
 H3308 H 0.38103 0.69432 0.33440
 H3309 H 0.39072 0.65705 0.31357
 H3310 H 0.41001 0.66811 0.30243
 H3311 H 0.41355 0.68635 0.28502
 H3312 H 0.43197 0.69828 0.27330
 H3313 H 0.44456 0.71576 0.31190
 H3314 H 0.42589 0.70408 0.32350
 H3315 H 0.44875 0.73377 0.29651
 H3316 H 0.46673 0.74610 0.28459
 H3317 H 0.47349 0.71175 0.25823
 H3318 H 0.45586 0.69922 0.27047
 C3319 C 0.40716 0.18782 0.81002
 C3320 C 0.39855 0.19491 0.81896
 C3321 C 0.38750 0.18844 0.82521
 C3322 C 0.38487 0.17468 0.82277
 C3323 C 0.39361 0.16758 0.81390
 C3324 C 0.40458 0.17409 0.80755
 C3325 C 0.41868 0.19479 0.80317
 C3326 C 0.42108 0.19293 0.78909
 C3327 C 0.43173 0.19977 0.78253
 C3328 C 0.44031 0.20852 0.78994
 C3329 C 0.43797 0.21023 0.80408
 C3330 C 0.42723 0.20349 0.81060
 C3331 C 0.45152 0.21594 0.78291
 C3332 C 0.45476 0.22928 0.78663
 C3333 C 0.46512 0.23633 0.77984
 C3334 C 0.47239 0.23026 0.76908
 C3335 C 0.46922 0.21691 0.76539
 C3336 C 0.45895 0.20981 0.77226
 H3337 H 0.40020 0.20555 0.82089
 H3338 H 0.38090 0.19434 0.83174
 H3339 H 0.39209 0.15694 0.81195
 H3340 H 0.41117 0.16835 0.80082
 H3341 H 0.41453 0.18642 0.78308
 H3342 H 0.43305 0.19839 0.77159
 H3343 H 0.44451 0.21668 0.81016
 H3344 H 0.42570 0.20497 0.82151
 H3345 H 0.44911 0.23439 0.79462
 H3346 H 0.46727 0.24663 0.78286
 H3347 H 0.47471 0.21192 0.75721
 H3348 H 0.45692 0.19948 0.76929
 C3349 C 0.90740 0.68597 0.81313
 C3350 C 0.90427 0.68823 0.82700
 C3351 C 0.89321 0.68168 0.83315
 C3352 C 0.88492 0.67282 0.82553
 C3353 C 0.88819 0.67050 0.81166
 C3354 C 0.89932 0.67695 0.80556
 C3355 C 0.91887 0.69322 0.80647
 C3356 C 0.92788 0.68638 0.79773
 C3357 C 0.93846 0.69331 0.79116
 C3358 C 0.94019 0.70728 0.79309
 C3359 C 0.93120 0.71409 0.80193
 C3360 C 0.92070 0.70713 0.80859
 C3361 C 0.95115 0.71477 0.78574
 C3362 C 0.95812 0.72546 0.79214
 C3363 C 0.96817 0.73270 0.78509
 C3364 C 0.97156 0.72935 0.77150
 C3365 C 0.96471 0.71857 0.76514
 C3366 C 0.95459 0.71141 0.77215
 H3367 H 0.91045 0.69499 0.83312
 H3368 H 0.89120 0.68354 0.84389
 H3369 H 0.88196 0.66395 0.80537
 H3370 H 0.90141 0.67516 0.79479
 H3371 H 0.92680 0.67562 0.79606
 H3372 H 0.94534 0.68769 0.78464
 H3373 H 0.93206 0.72488 0.80347
 H3374 H 0.91378 0.71269 0.81513
 H3375 H 0.95590 0.72817 0.80267
 H3376 H 0.97332 0.74089 0.79030
 H3377 H 0.96703 0.71580 0.75465
 H3378 H 0.94928 0.70340 0.76681
 C3379 C 0.90781 0.18820 0.30962
 C3380 C 0.90508 0.17452 0.30705
 C3381 C 0.89408 0.16807 0.31342
 C3382 C 0.88548 0.17518 0.32242
 C3383 C 0.88827 0.18890 0.32495
 C3384 C 0.89933 0.19531 0.31868
 C3385 C 0.91935 0.19512 0.30274
 C3386 C 0.92802 0.20370 0.31019
 C3387 C 0.93874 0.21043 0.30365
 C3388 C 0.94095 0.20883 0.28947
 C3389 C 0.93228 0.20019 0.28205
 C3390 C 0.92164 0.19336 0.28863
 C3391 C 0.95213 0.21628 0.28241
 C3392 C 0.95948 0.21024 0.27167
 C3393 C 0.96971 0.21738 0.26479
 C3394 C 0.97293 0.23069 0.26858
 C3395 C 0.96573 0.23668 0.27943
 C3396 C 0.95541 0.22959 0.28623
 H3397 H 0.91156 0.16878 0.30023
 H3398 H 0.89244 0.15746 0.31139
 H3399 H 0.88177 0.19481 0.33158
 H3400 H 0.90110 0.20592 0.32069
 H3401 H 0.92658 0.20510 0.32112
 H3402 H 0.94537 0.21680 0.30973
 H3403 H 0.93352 0.19890 0.27109
 H3404 H 0.91500 0.18694 0.28261
 H3405 H 0.95740 0.19994 0.26862
 H3406 H 0.97515 0.21244 0.25654
 H3407 H 0.96791 0.24695 0.28254
 H3408 H 0.94981 0.23465 0.29429
 C3409 C 0.31050 0.31396 0.59482
 C3410 C 0.30316 0.32275 0.60334
 C3411 C 0.30950 0.32903 0.61448
 C3412 C 0.32338 0.32677 0.61729
 C3413 C 0.33076 0.31812 0.60858
 C3414 C 0.32437 0.31174 0.59753
 C3415 C 0.30366 0.30695 0.58328
 C3416 C 0.30581 0.29311 0.58110
 C3417 C 0.29917 0.28641 0.57041
 C3418 C 0.29032 0.29342 0.56156
 C3419 C 0.28829 0.30732 0.56369
 C3420 C 0.29483 0.31399 0.57448
 C3421 C 0.28314 0.28623 0.55026
 C3422 C 0.26965 0.28959 0.54679
 C3423 C 0.26282 0.28268 0.53634
 C3424 C 0.26928 0.27216 0.52921
 C3425 C 0.28277 0.26882 0.53263
 C3426 C 0.28964 0.27582 0.54298
 H3427 H 0.29241 0.32450 0.60157
 H3428 H 0.30341 0.33542 0.62104
 H3429 H 0.34150 0.31633 0.61021
 H3430 H 0.33031 0.30516 0.59099
 H3431 H 0.31242 0.28740 0.58786
 H3432 H 0.30078 0.27566 0.56925
 H3433 H 0.28174 0.31309 0.55693
 H3434 H 0.29313 0.32470 0.57584
 H3435 H 0.26424 0.29739 0.55232
 H3436 H 0.25240 0.28543 0.53400
 H3437 H 0.28806 0.26083 0.52725
 H3438 H 0.30010 0.27313 0.54521
 C3439 C 0.30953 0.81318 0.09584
 C3440 C 0.32338 0.81091 0.09861
 C3441 C 0.32974 0.81724 0.10970
 C3442 C 0.32237 0.82590 0.11840
 C3443 C 0.30850 0.82820 0.11554
 C3444 C 0.30218 0.82197 0.10436
 C3445 C 0.30272 0.80624 0.08423
 C3446 C 0.29394 0.81334 0.07542
 C3447 C 0.28747 0.80675 0.06454
 C3448 C 0.28955 0.79287 0.06229
 C3449 C 0.29833 0.78580 0.07116
 C3450 C 0.30489 0.79242 0.08196
 C3451 C 0.28252 0.78577 0.05084
 C3452 C 0.28915 0.77546 0.04354
 C3453 C 0.28243 0.76853 0.03304
 C3454 C 0.26896 0.77183 0.02950
 C3455 C 0.26238 0.78226 0.03664
 C3456 C 0.26905 0.78911 0.04723
 H3457 H 0.32933 0.80433 0.09208
 H3458 H 0.34047 0.81541 0.11138
 H3459 H 0.30241 0.83461 0.12209
 H3460 H 0.29144 0.82377 0.10255
 H3461 H 0.29222 0.82405 0.07685
 H3462 H 0.28097 0.81257 0.05777
 H3463 H 0.29996 0.77506 0.06993
 H3464 H 0.31145 0.78667 0.08872
 H3465 H 0.29959 0.77279 0.04586
 H3466 H 0.28782 0.76061 0.02766
 H3467 H 0.25197 0.78499 0.03420
 H3468 H 0.26356 0.79684 0.05277
 C3469 C 0.81074 0.31426 0.09421
 C3470 C 0.82463 0.31211 0.09686
 C3471 C 0.83100 0.31843 0.10795
 C3472 C 0.82360 0.32695 0.11676
 C3473 C 0.80969 0.32915 0.11401
 C3474 C 0.80336 0.32293 0.10283
 C3475 C 0.80391 0.30730 0.08264
 C3476 C 0.79500 0.31434 0.07392
 C3477 C 0.78847 0.30771 0.06310
 C3478 C 0.79060 0.29385 0.06085
 C3479 C 0.79953 0.28683 0.06962
 C3480 C 0.80615 0.29349 0.08034
 C3481 C 0.78345 0.28669 0.04951
 C3482 C 0.79002 0.27638 0.04215
 C3483 C 0.78318 0.26938 0.03178
 C3484 C 0.76964 0.27260 0.02844
 C3485 C 0.76312 0.28303 0.03564
 C3486 C 0.76992 0.28995 0.04609
 H3487 H 0.83060 0.30562 0.09025
 H3488 H 0.84176 0.31669 0.10955
 H3489 H 0.80358 0.33545 0.12064
 H3490 H 0.79259 0.32463 0.10111
 H3491 H 0.79322 0.32503 0.07538
 H3492 H 0.78185 0.31349 0.05641
 H3493 H 0.80121 0.27610 0.06837
 H3494 H 0.81282 0.28778 0.08704
 H3495 H 0.80051 0.27377 0.04432
 H3496 H 0.78852 0.26146 0.02635
 H3497 H 0.75266 0.28569 0.03335
 H3498 H 0.76446 0.29767 0.05169
 C3499 C 0.81140 0.81430 0.59468
 C3500 C 0.80396 0.82322 0.60298
 C3501 C 0.81009 0.82942 0.61428
 C3502 C 0.82386 0.82695 0.61749
 C3503 C 0.83133 0.81818 0.60900
 C3504 C 0.82516 0.81189 0.59777
 C3505 C 0.80472 0.80733 0.58301
 C3506 C 0.80678 0.79346 0.58091
 C3507 C 0.80020 0.78677 0.57016
 C3508 C 0.79150 0.79382 0.56119
 C3509 C 0.78958 0.80775 0.56324
 C3510 C 0.79607 0.81441 0.57406
 C3511 C 0.78437 0.78664 0.54986
 C3512 C 0.77092 0.79005 0.54627
 C3513 C 0.76414 0.78314 0.53578
 C3514 C 0.77061 0.77259 0.52872
 C3515 C 0.78406 0.76921 0.53226
 C3516 C 0.79088 0.77619 0.54266
 H3517 H 0.79329 0.82512 0.60093
 H3518 H 0.80392 0.83590 0.62066
 H3519 H 0.84199 0.81622 0.61097
 H3520 H 0.83117 0.80520 0.59142
 H3521 H 0.81325 0.78772 0.58778
 H3522 H 0.80173 0.77601 0.56906
 H3523 H 0.78315 0.81354 0.55638
 H3524 H 0.79444 0.82514 0.57536
 H3525 H 0.76551 0.79789 0.55174
 H3526 H 0.75375 0.78594 0.53335
 H3527 H 0.78937 0.76120 0.52694
 H3528 H 0.80131 0.77346 0.54497
 C3529 C 0.31069 0.68777 0.40607
 C3530 C 0.32015 0.69491 0.39803
 C3531 C 0.32648 0.68873 0.38684
 C3532 C 0.32359 0.67521 0.38349
 C3533 C 0.31420 0.66805 0.39165
 C3534 C 0.30778 0.67428 0.40277
 C3535 C 0.30377 0.69445 0.41775
 C3536 C 0.28967 0.69294 0.41968
 C3537 C 0.28308 0.69954 0.43045
 C3538 C 0.29046 0.70772 0.43962
 C3539 C 0.30461 0.70907 0.43777
 C3540 C 0.31118 0.70256 0.42692
 C3541 C 0.28339 0.71496 0.45094
 C3542 C 0.28742 0.72808 0.45468
 C3543 C 0.28067 0.73497 0.46517
 C3544 C 0.26965 0.72896 0.47208
 C3545 C 0.26562 0.71584 0.46838
 C3546 C 0.27245 0.70890 0.45797
 H3547 H 0.32244 0.70539 0.40023
 H3548 H 0.33344 0.69467 0.38069
 H3549 H 0.31188 0.65758 0.38957
 H3550 H 0.30065 0.66849 0.40891
 H3551 H 0.28369 0.68689 0.41265
 H3552 H 0.27214 0.69846 0.43142
 H3553 H 0.31065 0.71507 0.44478
 H3554 H 0.32210 0.70375 0.42577
 H3555 H 0.29564 0.73315 0.44934
 H3556 H 0.28396 0.74510 0.46772
 H3557 H 0.25722 0.71090 0.47358
 H3558 H 0.26922 0.69873 0.45552
 C3559 C 0.31182 0.18623 0.90445
 C3560 C 0.30460 0.17735 0.89590
 C3561 C 0.31108 0.17104 0.88487
 C3562 C 0.32498 0.17339 0.88219
 C3563 C 0.33223 0.18216 0.89091
 C3564 C 0.32570 0.18855 0.90186
 C3565 C 0.30484 0.19322 0.91590
 C3566 C 0.30695 0.20708 0.91809
 C3567 C 0.30019 0.21375 0.92871
 C3568 C 0.29127 0.20670 0.93748
 C3569 C 0.28926 0.19280 0.93532
 C3570 C 0.29593 0.18615 0.92461
 C3571 C 0.28401 0.21386 0.94872
 C3572 C 0.27048 0.21048 0.95209
 C3573 C 0.26361 0.21734 0.96251
 C3574 C 0.27005 0.22782 0.96974
 C3575 C 0.28357 0.23118 0.96643
 C3576 C 0.29049 0.22424 0.95609
 H3577 H 0.29384 0.17551 0.89757
 H3578 H 0.30509 0.16456 0.87829
 H3579 H 0.34298 0.18402 0.88937
 H3580 H 0.33156 0.19521 0.90842
 H3581 H 0.31361 0.21281 0.91139
 H3582 H 0.30178 0.22451 0.92989
 H3583 H 0.28266 0.18700 0.94202
 H3584 H 0.29426 0.17543 0.92324
 H3585 H 0.26510 0.20269 0.94648
 H3586 H 0.25316 0.21457 0.96477
 H3587 H 0.28885 0.23914 0.97189
 H3588 H 0.30097 0.22694 0.95396
 C3589 C 0.80969 0.68738 0.90487
 C3590 C 0.80699 0.67379 0.90182
 C3591 C 0.81347 0.66748 0.89079
 C3592 C 0.82272 0.67465 0.88247
 C3593 C 0.82533 0.68830 0.88551
 C3594 C 0.81894 0.69456 0.89662
 C3595 C 0.80287 0.69408 0.91659
 C3596 C 0.81034 0.70233 0.92558
 C3597 C 0.80389 0.70879 0.93654
 C3598 C 0.78980 0.70725 0.93869
 C3599 C 0.78235 0.69893 0.92970
 C3600 C 0.78883 0.69238 0.91881
 C3601 C 0.78287 0.71443 0.95013
 C3602 C 0.77216 0.70827 0.95742
 C3603 C 0.76552 0.71514 0.96800
 C3604 C 0.76951 0.72829 0.97161
 C3605 C 0.78029 0.73442 0.96441
 C3606 C 0.78684 0.72760 0.95376
 H3607 H 0.80002 0.66798 0.90813
 H3608 H 0.81136 0.65692 0.88895
 H3609 H 0.83216 0.69424 0.87922
 H3610 H 0.82105 0.70511 0.89862
 H3611 H 0.82121 0.70366 0.92422
 H3612 H 0.80999 0.71490 0.94341
 H3613 H 0.77145 0.69769 0.93089
 H3614 H 0.78281 0.68620 0.91194
 H3615 H 0.76898 0.69806 0.95505
 H3616 H 0.75730 0.71012 0.97341
 H3617 H 0.78354 0.74458 0.96688
 H3618 H 0.79488 0.73275 0.94822
 C3619 C 0.81320 0.18680 0.40475
 C3620 C 0.80581 0.17808 0.39618
 C3621 C 0.81212 0.17181 0.38503
 C3622 C 0.82603 0.17402 0.38226
 C3623 C 0.83344 0.18263 0.39100
 C3624 C 0.82708 0.18900 0.40206
 C3625 C 0.80639 0.19375 0.41633
 C3626 C 0.80861 0.20757 0.41863
 C3627 C 0.80193 0.21421 0.42932
 C3628 C 0.79297 0.20716 0.43805
 C3629 C 0.79090 0.19327 0.43582
 C3630 C 0.79748 0.18666 0.42504
 C3631 C 0.78569 0.21428 0.44930
 C3632 C 0.77215 0.21090 0.45258
 C3633 C 0.76524 0.21770 0.46303
 C3634 C 0.77166 0.22813 0.47036
 C3635 C 0.78519 0.23152 0.46711
 C3636 C 0.79214 0.22463 0.45675
 H3637 H 0.79504 0.17634 0.39792
 H3638 H 0.80600 0.16545 0.37844
 H3639 H 0.84420 0.18440 0.38938
 H3640 H 0.83306 0.19554 0.40863
 H3641 H 0.81528 0.21331 0.41195
 H3642 H 0.80358 0.22495 0.43057
 H3643 H 0.78428 0.18747 0.44249
 H3644 H 0.79573 0.17596 0.42359
 H3645 H 0.76677 0.20316 0.44691
 H3646 H 0.75479 0.21491 0.46522
 H3647 H 0.79044 0.23945 0.47264
 H3648 H 0.80263 0.22735 0.45466
 C3649 C 0.69008 0.30950 0.40476
 C3650 C 0.67625 0.30698 0.40206
 C3651 C 0.66961 0.31360 0.39129
 C3652 C 0.67668 0.32282 0.38287
 C3653 C 0.69055 0.32530 0.38560
 C3654 C 0.69715 0.31876 0.39645
 C3655 C 0.69713 0.30244 0.41616
 C3656 C 0.70583 0.30955 0.42503
 C3657 C 0.71249 0.30288 0.43576
 C3658 C 0.71068 0.28892 0.43779
 C3659 C 0.70198 0.28183 0.42886
 C3660 C 0.69523 0.28853 0.41821
 C3661 C 0.71792 0.28177 0.44908
 C3662 C 0.71151 0.27124 0.45635
 C3663 C 0.71841 0.26435 0.46678
 C3664 C 0.73183 0.26790 0.47027
 C3665 C 0.73821 0.27851 0.46313
 C3666 C 0.73135 0.28532 0.45262
 H3667 H 0.67051 0.30003 0.40843
 H3668 H 0.65889 0.31161 0.38970
 H3669 H 0.69640 0.33213 0.37923
 H3670 H 0.70786 0.32075 0.39819
 H3671 H 0.70732 0.32032 0.42379
 H3672 H 0.71891 0.30870 0.44258
 H3673 H 0.70055 0.27104 0.42995
 H3674 H 0.68872 0.28277 0.41140
 H3675 H 0.70110 0.26839 0.45407
 H3676 H 0.71318 0.25628 0.47215
 H3677 H 0.74858 0.28143 0.46552
 H3678 H 0.73668 0.29323 0.44710
 C3679 C 0.68848 0.81005 0.90687
 C3680 C 0.69556 0.81932 0.89859
 C3681 C 0.68900 0.82584 0.88771
 C3682 C 0.67515 0.82332 0.88492
 C3683 C 0.66807 0.81409 0.89330
 C3684 C 0.67468 0.80749 0.90411
 C3685 C 0.69550 0.80301 0.91830
 C3686 C 0.69368 0.78908 0.92030
 C3687 C 0.70043 0.78240 0.93096
 C3688 C 0.70906 0.78951 0.93993
 C3689 C 0.71078 0.80349 0.93796
 C3690 C 0.70412 0.81015 0.92723
 C3691 C 0.71633 0.78236 0.95121
 C3692 C 0.72973 0.78599 0.95479
 C3693 C 0.73662 0.77915 0.96525
 C3694 C 0.73032 0.76844 0.97230
 C3695 C 0.71692 0.76483 0.96878
 C3696 C 0.70998 0.77174 0.95840
 H3697 H 0.70627 0.82135 0.90039
 H3698 H 0.69487 0.83267 0.88136
 H3699 H 0.65736 0.81206 0.89166
 H3700 H 0.66893 0.80052 0.91045
 H3701 H 0.68724 0.78331 0.91345
 H3702 H 0.69907 0.77160 0.93200
 H3703 H 0.71715 0.80933 0.94482
 H3704 H 0.70556 0.82093 0.92602
 H3705 H 0.73501 0.79396 0.94933
 H3706 H 0.74697 0.78211 0.96767
 H3707 H 0.71175 0.75668 0.97409
 H3708 H 0.69959 0.76884 0.95609
 C3709 C 0.18911 0.30877 0.90322
 C3710 C 0.17532 0.30618 0.90039
 C3711 C 0.16876 0.31270 0.88951
 C3712 C 0.17588 0.32189 0.88110
 C3713 C 0.18971 0.32443 0.88394
 C3714 C 0.19622 0.31799 0.89490
 C3715 C 0.19606 0.30183 0.91475
 C3716 C 0.20469 0.30904 0.92363
 C3717 C 0.21128 0.30249 0.93447
 C3718 C 0.20949 0.28855 0.93661
 C3719 C 0.20086 0.28135 0.92770
 C3720 C 0.19418 0.28794 0.91693
 C3721 C 0.21667 0.28151 0.94802
 C3722 C 0.21023 0.27104 0.95535
 C3723 C 0.21708 0.26425 0.96587
 C3724 C 0.23049 0.26782 0.96940
 C3725 C 0.23689 0.27838 0.96220
 C3726 C 0.23008 0.28510 0.95160
 H3727 H 0.16954 0.29926 0.90675
 H3728 H 0.15806 0.31066 0.88782
 H3729 H 0.19561 0.33123 0.87758
 H3730 H 0.20692 0.32003 0.89674
 H3731 H 0.20617 0.31980 0.92229
 H3732 H 0.21765 0.30838 0.94128
 H3733 H 0.19945 0.27057 0.92888
 H3734 H 0.18774 0.28210 0.91013
 H3735 H 0.19983 0.26817 0.95304
 H3736 H 0.21183 0.25621 0.97129
 H3737 H 0.24725 0.28132 0.96461
 H3738 H 0.23544 0.29296 0.94604
 C3739 C 0.18958 0.81074 0.40574
 C3740 C 0.17579 0.80825 0.40286
 C3741 C 0.16932 0.81483 0.39195
 C3742 C 0.17654 0.82397 0.38358
 C3743 C 0.19037 0.82643 0.38650
 C3744 C 0.19679 0.81993 0.39749
 C3745 C 0.19644 0.80368 0.41726
 C3746 C 0.20501 0.81079 0.42626
 C3747 C 0.21149 0.80413 0.43710
 C3748 C 0.20965 0.79017 0.43912
 C3749 C 0.20107 0.78308 0.43006
 C3750 C 0.19450 0.78978 0.41929
 C3751 C 0.21672 0.78301 0.45052
 C3752 C 0.21022 0.77246 0.45766
 C3753 C 0.21697 0.76554 0.46817
 C3754 C 0.23034 0.76910 0.47187
 C3755 C 0.23679 0.77975 0.46486
 C3756 C 0.23009 0.78658 0.45427
 H3757 H 0.16994 0.80134 0.40917
 H3758 H 0.15862 0.81286 0.39023
 H3759 H 0.19634 0.83320 0.38018
 H3760 H 0.20749 0.82191 0.39938
 H3761 H 0.20655 0.82156 0.42502
 H3762 H 0.21782 0.80995 0.44402
 H3763 H 0.19961 0.77230 0.43113
 H3764 H 0.18809 0.78402 0.41239
 H3765 H 0.19984 0.76959 0.45522
 H3766 H 0.21169 0.75744 0.47344
 H3767 H 0.24712 0.78267 0.46741
 H3768 H 0.23549 0.79450 0.44885
 C3769 C 0.69043 0.68942 0.59398
 C3770 C 0.69754 0.67996 0.60197
 C3771 C 0.69116 0.67348 0.61300
 C3772 C 0.67746 0.67624 0.61623
 C3773 C 0.67032 0.68560 0.60808
 C3774 C 0.67675 0.69215 0.59712
 C3775 C 0.69732 0.69656 0.58251
 C3776 C 0.69559 0.71052 0.58072
 C3777 C 0.70224 0.71732 0.57005
 C3778 C 0.71069 0.71028 0.56086
 C3779 C 0.71232 0.69628 0.56262
 C3780 C 0.70575 0.68950 0.57336
 C3781 C 0.71782 0.71755 0.54957
 C3782 C 0.73117 0.71399 0.54578
 C3783 C 0.73795 0.72099 0.53533
 C3784 C 0.73158 0.73177 0.52849
 C3785 C 0.71822 0.73529 0.53221
 C3786 C 0.71140 0.72824 0.54259
 H3787 H 0.70816 0.67779 0.59989
 H3788 H 0.69707 0.66652 0.61914
 H3789 H 0.65971 0.68781 0.61007
 H3790 H 0.67096 0.69927 0.59100
 H3791 H 0.68931 0.71625 0.58774
 H3792 H 0.70095 0.72814 0.56917
 H3793 H 0.71856 0.69050 0.55560
 H3794 H 0.70712 0.67870 0.57440
 H3795 H 0.73650 0.70596 0.55108
 H3796 H 0.74827 0.71807 0.53275
 H3797 H 0.71299 0.74349 0.52707
 H3798 H 0.70105 0.73109 0.54506
 C3799 C 0.68997 0.19053 0.09556
 C3800 C 0.69712 0.18135 0.10386
 C3801 C 0.69064 0.17486 0.11481
 C3802 C 0.67680 0.17731 0.11766
 C3803 C 0.66964 0.18644 0.10925
 C3804 C 0.67617 0.19302 0.09838
 C3805 C 0.69689 0.19756 0.08405
 C3806 C 0.69496 0.21145 0.08195
 C3807 C 0.70155 0.21812 0.07117
 C3808 C 0.71014 0.21101 0.06216
 C3809 C 0.71200 0.19708 0.06425
 C3810 C 0.70550 0.19044 0.07511
 C3811 C 0.71717 0.21813 0.05070
 C3812 C 0.73055 0.21464 0.04696
 C3813 C 0.73720 0.22145 0.03630
 C3814 C 0.73068 0.23198 0.02921
 C3815 C 0.71729 0.23545 0.03290
 C3816 C 0.71060 0.22857 0.04347
 H3817 H 0.70782 0.17938 0.10202
 H3818 H 0.69656 0.16809 0.12117
 H3819 H 0.65894 0.18841 0.11093
 H3820 H 0.67037 0.19991 0.09202
 H3821 H 0.68853 0.21722 0.08880
 H3822 H 0.70009 0.22889 0.07003
 H3823 H 0.71834 0.19125 0.05738
 H3824 H 0.70702 0.17969 0.07640
 H3825 H 0.73599 0.20681 0.05243
 H3826 H 0.74754 0.21859 0.03375
 H3827 H 0.71195 0.24346 0.02757
 H3828 H 0.70022 0.23136 0.04591
 C3829 C 0.18820 0.68865 0.09429
 C3830 C 0.19531 0.67917 0.10227
 C3831 C 0.18890 0.67262 0.11323
 C3832 C 0.17519 0.67533 0.11643
 C3833 C 0.16806 0.68473 0.10831
 C3834 C 0.17450 0.69135 0.09741
 C3835 C 0.19512 0.69584 0.08287
 C3836 C 0.19341 0.70981 0.08113
 C3837 C 0.20013 0.71665 0.07055
 C3838 C 0.20864 0.70965 0.06138
 C3839 C 0.21024 0.69563 0.06308
 C3840 C 0.20359 0.68882 0.07373
 C3841 C 0.21589 0.71696 0.05020
 C3842 C 0.22927 0.71337 0.04652
 C3843 C 0.23615 0.72036 0.03613
 C3844 C 0.22986 0.73116 0.02925
 C3845 C 0.21649 0.73474 0.03288
 C3846 C 0.20957 0.72769 0.04320
 H3847 H 0.20593 0.67703 0.10020
 H3848 H 0.19480 0.66565 0.11936
 H3849 H 0.15744 0.68691 0.11028
 H3850 H 0.16873 0.69849 0.09131
 H3851 H 0.18709 0.71551 0.08815
 H3852 H 0.19886 0.72747 0.06971
 H3853 H 0.21651 0.68988 0.05606
 H3854 H 0.20495 0.67801 0.07473
 H3855 H 0.23453 0.70531 0.05184
 H3856 H 0.24647 0.71740 0.03362
 H3857 H 0.21132 0.74295 0.02771
 H3858 H 0.19920 0.73057 0.04560
 C3859 C 0.18998 0.18967 0.59604
 C3860 C 0.19269 0.17603 0.59884
 C3861 C 0.18623 0.16946 0.60976
 C3862 C 0.17699 0.17642 0.61823
 C3863 C 0.17436 0.19011 0.61542
 C3864 C 0.18072 0.19664 0.60442
 C3865 C 0.19681 0.19665 0.58444
 C3866 C 0.18935 0.20504 0.57557
 C3867 C 0.19581 0.21170 0.56470
 C3868 C 0.20990 0.21022 0.56253
 C3869 C 0.21734 0.20179 0.57143
 C3870 C 0.21085 0.19503 0.58222
 C3871 C 0.21683 0.21754 0.55114
 C3872 C 0.22753 0.21146 0.54381
 C3873 C 0.23420 0.21845 0.53327
 C3874 C 0.23023 0.23163 0.52974
 C3875 C 0.21946 0.23767 0.53696
 C3876 C 0.21288 0.23073 0.54757
 H3877 H 0.19966 0.17039 0.59243
 H3878 H 0.18835 0.15887 0.61142
 H3879 H 0.16752 0.19589 0.62182
 H3880 H 0.17859 0.20721 0.60260
 H3881 H 0.17848 0.20631 0.57695
 H3882 H 0.18971 0.21790 0.55791
 H3883 H 0.22824 0.20060 0.57023
 H3884 H 0.21687 0.18875 0.58902
 H3885 H 0.23069 0.20124 0.54611
 H3886 H 0.24241 0.21349 0.52785
 H3887 H 0.21623 0.24785 0.53455
 H3888 H 0.20485 0.23582 0.55314
   
