data_POSCAR
  _audit_creation_date              2014-09-24
  _audit_creation_method            'ToBaCCo'
  _symmetry_space_group_name_H-M    'P1'
  _symmetry_Int_Tables_number       1
  _symmetry_cell_setting            triclinic
  loop_
  _symmetry_equiv_pos_as_xyz
 x,y,z
_cell_length_a 76.9843
_cell_length_b 76.7687
_cell_length_c 76.7325
_cell_angle_alpha 90.060800
_cell_angle_beta 90.059800
_cell_angle_gamma 90.016700
loop_
  _atom_site_label
  _atom_site_type_symbol
  _atom_site_fract_x
  _atom_site_fract_y
  _atom_site_fract_z
C1 C 0.29888 0.43854 0.92556
 C2 C 0.29877 0.42593 0.93877
 C3 C 0.31138 0.42624 0.95167
 C4 C 0.32425 0.43918 0.95152
 C5 C 0.32435 0.45165 0.93846
 C6 C 0.31159 0.45132 0.92541
 C7 C 0.28894 0.44073 0.91079
 N8 N 0.29534 0.45449 0.90184
 C9 C 0.30917 0.46108 0.91055
 C10 C 0.33891 0.46181 0.94090
 N11 N 0.34747 0.45576 0.95509
 C12 C 0.33874 0.44194 0.96169
 C13 C 0.30880 0.41184 0.96204
 N14 N 0.29496 0.40295 0.95571
 C15 C 0.28872 0.41134 0.94151
 H16 H 0.27818 0.43265 0.90660
 H17 H 0.31714 0.47183 0.90614
 H18 H 0.34324 0.47241 0.93268
 H19 H 0.34292 0.43418 0.97270
 H20 H 0.31669 0.40781 0.97300
 H21 H 0.27805 0.40685 0.93348
 C22 C 0.43729 0.82658 0.45038
 C23 C 0.42472 0.81335 0.45049
 C24 C 0.42478 0.80070 0.43760
 C25 C 0.43739 0.80111 0.42444
 C26 C 0.44982 0.81418 0.42433
 C27 C 0.44977 0.82699 0.43737
 C28 C 0.43974 0.84111 0.46064
 N29 N 0.45337 0.85016 0.45414
 C30 C 0.45962 0.84176 0.43993
 C31 C 0.45972 0.81192 0.40956
 N32 N 0.45357 0.79785 0.40087
 C33 C 0.43994 0.79113 0.40975
 C34 C 0.41052 0.79020 0.44034
 N35 N 0.40198 0.79623 0.45453
 C36 C 0.41044 0.81035 0.46086
 H37 H 0.43193 0.84505 0.47171
 H38 H 0.47020 0.84629 0.43183
 H39 H 0.47030 0.82013 0.40521
 H40 H 0.43221 0.78009 0.40558
 H41 H 0.40637 0.77936 0.43232
 H42 H 0.40620 0.81814 0.47183
 C43 C 0.93538 0.92237 0.80186
 C44 C 0.92251 0.93528 0.80200
 C45 C 0.92253 0.94793 0.81489
 C46 C 0.93543 0.94782 0.82780
 C47 C 0.94816 0.93505 0.82768
 C48 C 0.94814 0.92225 0.81462
 C49 C 0.93799 0.90795 0.79149
 N50 N 0.95198 0.89925 0.79770
 C51 C 0.95831 0.90776 0.81182
 C52 C 0.95837 0.93758 0.84222
 N53 N 0.95209 0.95154 0.85099
 C54 C 0.93809 0.95791 0.84241
 C55 C 0.90806 0.95816 0.81236
 N56 N 0.89941 0.95198 0.79828
 C57 C 0.90802 0.93802 0.79183
 H58 H 0.93007 0.90386 0.78055
 H59 H 0.96919 0.90348 0.81969
 H60 H 0.96925 0.92964 0.84633
 H61 H 0.93021 0.96879 0.84670
 H62 H 0.90388 0.96899 0.82038
 H63 H 0.90380 0.93021 0.78085
 C64 C 0.43872 -0.07539 0.29924
 C65 C 0.42612 -0.06220 0.29908
 C66 C 0.42620 -0.04947 0.31190
 C67 C 0.43887 -0.04977 0.32503
 C68 C 0.45133 -0.06280 0.32519
 C69 C 0.45126 -0.07568 0.31222
 C70 C 0.44109 -0.09002 0.28912
 N71 N 0.45474 -0.09902 0.29569
 C72 C 0.46106 -0.09049 0.30979
 C73 C 0.46121 -0.06051 0.33999
 N74 N 0.45501 -0.04645 0.34865
 C75 C 0.44137 -0.03977 0.33972
 C76 C 0.41185 -0.03910 0.30921
 N77 N 0.40322 -0.04526 0.29511
 C78 C 0.41172 -0.05936 0.28880
 H79 H 0.43321 -0.09408 0.27814
 H80 H 0.47165 -0.09497 0.31794
 H81 H 0.47177 -0.06872 0.34441
 H82 H 0.43358 -0.02880 0.34390
 H83 H 0.40767 -0.02827 0.31722
 H84 H 0.40741 -0.06727 0.27794
 C85 C 0.79878 0.31165 0.32390
 C86 C 0.79906 0.32475 0.31118
 C87 C 0.81183 0.32470 0.29845
 C88 C 0.82446 0.31154 0.29830
 C89 C 0.82418 0.29860 0.31088
 C90 C 0.81126 0.29865 0.32375
 C91 C 0.78864 0.30912 0.33846
 N92 N 0.79472 0.29493 0.34699
 C93 C 0.80852 0.28843 0.33822
 C94 C 0.83858 0.28829 0.30826
 N95 N 0.84744 0.29469 0.29444
 C96 C 0.83903 0.30888 0.28824
 C97 C 0.80958 0.33949 0.28856
 N98 N 0.79581 0.34836 0.29500
 C99 C 0.78927 0.33957 0.30881
 H100 H 0.77803 0.31726 0.34284
 H101 H 0.81630 0.27743 0.34238
 H102 H 0.84263 0.27731 0.31613
 H103 H 0.84349 0.31696 0.27759
 H104 H 0.81763 0.34374 0.27780
 H105 H 0.77851 0.34391 0.31680
 C106 C -0.18649 0.82719 0.80019
 C107 C -0.17361 0.81428 0.80035
 C108 C -0.17396 0.80132 0.81290
 C109 C -0.18719 0.80111 0.82544
 C110 C -0.19993 0.81387 0.82529
 C111 C -0.19957 0.82699 0.81259
 C112 C -0.18883 0.84188 0.79016
 N113 N -0.20298 0.85043 0.79622
 C114 C -0.20966 0.84156 0.80991
 C115 C -0.21044 0.81105 0.83952
 N116 N -0.20435 0.79692 0.84814
 C117 C -0.19016 0.79072 0.83975
 C118 C -0.15939 0.79118 0.81052
 N119 N -0.15037 0.79771 0.79686
 C120 C -0.15884 0.81181 0.79053
 H121 H -0.18063 0.84625 0.77956
 H122 H -0.22074 0.84564 0.81760
 H123 H -0.22136 0.81896 0.84360
 H124 H -0.18231 0.77983 0.84404
 H125 H -0.15541 0.78016 0.81837
 H126 H -0.15435 0.81988 0.77989
 C127 C 0.95088 0.32538 0.43863
 C128 C 0.95129 0.31225 0.42592
 C129 C 0.93891 0.29914 0.42607
 C130 C 0.92599 0.29899 0.43893
 C131 C 0.92559 0.31196 0.45150
 C132 C 0.93810 0.32524 0.45135
 C133 C 0.96055 0.34029 0.44100
 N134 N 0.95392 0.34904 0.45482
 C135 C 0.94021 0.34007 0.46126
 C136 C 0.91103 0.30919 0.46155
 N137 N 0.90276 0.29490 0.45535
 C138 C 0.91168 0.28855 0.44154
 C139 C 0.94175 0.28889 0.41160
 N140 N 0.95551 0.29551 0.40284
 C141 C 0.96145 0.30977 0.41137
 H142 H 0.97129 0.34469 0.43301
 H143 H 0.93211 0.34426 0.47201
 H144 H 0.90649 0.31725 0.47220
 H145 H 0.90773 0.27751 0.43367
 H146 H 0.93408 0.27782 0.40745
 H147 H 0.97200 0.31800 0.40699
 C148 C 0.45007 0.43758 0.82479
 C149 C 0.44969 0.42441 0.81212
 C150 C 0.43658 0.42415 0.79973
 C151 C 0.42369 0.43705 0.79986
 C152 C 0.42406 0.45006 0.81239
 C153 C 0.43733 0.45034 0.82492
 C154 C 0.46055 0.44038 0.83908
 N155 N 0.45443 0.45450 0.84771
 C156 C 0.44026 0.46070 0.83929
 C157 C 0.40943 0.46012 0.81006
 N158 N 0.40035 0.45349 0.79646
 C159 C 0.40885 0.43940 0.79012
 C160 C 0.43884 0.40936 0.78981
 N161 N 0.45296 0.40080 0.79593
 C162 C 0.45970 0.40978 0.80955
 H163 H 0.47142 0.43244 0.84321
 H164 H 0.43236 0.47155 0.84361
 H165 H 0.40543 0.47112 0.81793
 H166 H 0.40430 0.43124 0.77954
 H167 H 0.43059 0.40489 0.77928
 H168 H 0.47075 0.40569 0.81727
 C169 C 0.80069 0.92456 0.93747
 C170 C 0.80081 0.93721 0.92431
 C171 C 0.81379 0.94972 0.92395
 C172 C 0.82680 0.94973 0.93675
 C173 C 0.82668 0.93722 0.94977
 C174 C 0.81355 0.92456 0.95013
 C175 C 0.79032 0.91024 0.94040
 N176 N 0.79661 0.90171 0.95450
 C177 C 0.81079 0.91023 0.96057
 C178 C 0.84133 0.93976 0.95979
 N179 N 0.85016 0.95349 0.95313
 C180 C 0.84151 0.95969 0.93906
 C181 C 0.81121 0.95964 0.90922
 N182 N 0.79704 0.95341 0.90080
 C183 C 0.79057 0.93972 0.90980
 H184 H 0.77936 0.90605 0.93258
 H185 H 0.81878 0.90603 0.97141
 H186 H 0.84546 0.93198 0.97080
 H187 H 0.84583 0.97035 0.93090
 H188 H 0.81927 0.97028 0.90471
 H189 H 0.77953 0.93192 0.90583
 C190 C 0.29917 0.82413 0.31096
 C191 C 0.29906 0.81126 0.32391
 C192 C 0.31201 0.79873 0.32431
 C193 C 0.32524 0.79893 0.31176
 C194 C 0.32535 0.81165 0.29895
 C195 C 0.31224 0.82432 0.29855
 C196 C 0.28893 0.83856 0.30813
 N197 N 0.29550 0.84735 0.29434
 C198 C 0.30974 0.83888 0.28836
 C199 C 0.34022 0.80933 0.28926
 N200 N 0.34897 0.79555 0.29590
 C201 C 0.34004 0.78908 0.30964
 C202 C 0.30929 0.78868 0.33891
 N203 N 0.29505 0.79483 0.34722
 C204 C 0.28868 0.80862 0.33828
 H205 H 0.27788 0.84266 0.31585
 H206 H 0.31795 0.84328 0.27779
 H207 H 0.34460 0.81732 0.27851
 H208 H 0.34425 0.77834 0.31775
 H209 H 0.31736 0.77806 0.34346
 H210 H 0.27767 0.81645 0.34225
 C211 C 0.80046 0.42486 0.43743
 C212 C 0.80069 0.43738 0.42414
 C213 C 0.81371 0.44985 0.42374
 C214 C 0.82665 0.44993 0.43661
 C215 C 0.82642 0.43754 0.44974
 C216 C 0.81324 0.42494 0.45015
 C217 C 0.79007 0.41057 0.44041
 N218 N 0.79627 0.40213 0.45460
 C219 C 0.81042 0.41069 0.46067
 C220 C 0.84105 0.44008 0.45978
 N221 N 0.84999 0.45368 0.45301
 C222 C 0.84142 0.45982 0.43887
 C223 C 0.81129 0.45962 0.40889
 N224 N 0.79716 0.45334 0.40043
 C225 C 0.79057 0.43977 0.40953
 H226 H 0.77917 0.40630 0.43256
 H227 H 0.81835 0.40653 0.47156
 H228 H 0.84513 0.43236 0.47085
 H229 H 0.84584 0.47035 0.43059
 H230 H 0.81943 0.47017 0.40433
 H231 H 0.77953 0.43196 0.40556
 C232 C 0.93795 0.82464 -0.05001
 C233 C 0.92534 0.81146 -0.04990
 C234 C 0.92538 0.79878 -0.06277
 C235 C 0.93804 0.79913 -0.07590
 C236 C 0.95051 0.81216 -0.07600
 C237 C 0.95047 0.82498 -0.06297
 C238 C 0.94036 0.83922 -0.03982
 N239 N 0.95400 0.84825 -0.04632
 C240 C 0.96029 0.83977 -0.06045
 C241 C 0.96042 0.80990 -0.09077
 N242 N 0.95421 0.79585 -0.09947
 C243 C 0.94054 0.78915 -0.09061
 C244 C 0.91103 0.78840 -0.06010
 N245 N 0.90246 0.79451 -0.04596
 C246 C 0.91099 0.80858 -0.03961
 H247 H 0.93251 0.84323 -0.02882
 H248 H 0.97087 0.84431 -0.06855
 H249 H 0.97100 0.81811 -0.09511
 H250 H 0.93275 0.77817 -0.09481
 H251 H 0.90682 0.77759 -0.06813
 H252 H 0.90673 0.81645 -0.02870
 C253 C 0.30024 0.32571 0.81245
 C254 C 0.29988 0.31260 0.82516
 C255 C 0.31261 0.29984 0.82533
 C256 C 0.32586 0.30004 0.81281
 C257 C 0.32621 0.31300 0.80025
 C258 C 0.31333 0.32591 0.80007
 C259 C 0.29019 0.34031 0.80980
 N260 N 0.29690 0.34920 0.79614
 C261 C 0.31103 0.34062 0.79008
 C262 C 0.34102 0.31056 0.79049
 N263 N 0.34950 0.29648 0.79685
 C264 C 0.34046 0.28994 0.81048
 C265 C 0.30965 0.28951 0.83969
 N266 N 0.29548 0.29573 0.84808
 C267 C 0.28939 0.30982 0.83942
 H268 H 0.27914 0.34441 0.81749
 H269 H 0.31925 0.34502 0.77952
 H270 H 0.34554 0.31865 0.77987
 H271 H 0.34445 0.27895 0.81837
 H272 H 0.31751 0.27865 0.84404
 H273 H 0.27849 0.31775 0.84351
 C274 C 0.17556 0.56172 0.54817
 C275 C 0.18816 0.57491 0.54862
 C276 C 0.20085 0.57482 0.56145
 C277 C 0.20107 0.56154 0.57398
 C278 C 0.18861 0.54851 0.57355
 C279 C 0.17578 0.54860 0.56056
 C280 C 0.16104 0.55920 0.53797
 N281 N 0.15261 0.54491 0.54391
 C282 C 0.16140 0.53832 0.55770
 C283 C 0.19125 0.53811 0.58792
 N284 N 0.20498 0.54455 0.59691
 C285 C 0.21109 0.55885 0.58861
 C286 C 0.21061 0.58970 0.55939
 N287 N 0.20413 0.59867 0.54566
 C288 C 0.19043 0.58985 0.53896
 H289 H 0.15662 0.56743 0.52741
 H290 H 0.15730 0.52725 0.56540
 H291 H 0.18345 0.52706 0.59188
 H292 H 0.22164 0.56698 0.59321
 H293 H 0.22130 0.59396 0.56754
 H294 H 0.18244 0.59423 0.52821
 C295 C 0.57606 0.68716 0.04935
 C296 C 0.56322 0.67419 0.04950
 C297 C 0.55032 0.67450 0.06208
 C298 C 0.55010 0.68777 0.07465
 C299 C 0.56278 0.70057 0.07450
 C300 C 0.57584 0.70027 0.06178
 C301 C 0.59072 0.68953 0.03935
 N302 N 0.59924 0.70372 0.04545
 C303 C 0.59037 0.71040 0.05914
 C304 C 0.56001 0.71106 0.08880
 N305 N 0.54598 0.70488 0.09746
 C306 C 0.53981 0.69067 0.08903
 C307 C 0.54028 0.65983 0.05973
 N308 N 0.54680 0.65079 0.04606
 C309 C 0.56081 0.65934 0.03970
 H310 H 0.59512 0.68132 0.02876
 H311 H 0.59444 0.72149 0.06686
 H312 H 0.56789 0.72200 0.09293
 H313 H 0.52901 0.68274 0.09336
 H314 H 0.52934 0.65579 0.06761
 H315 H 0.56888 0.65485 0.02905
 C316 C 0.68868 0.20207 0.67579
 C317 C 0.67612 0.20221 0.68901
 C318 C 0.67651 0.18966 0.70198
 C319 C 0.68947 0.17683 0.70189
 C320 C 0.70189 0.17670 0.68883
 C321 C 0.70149 0.18939 0.67570
 C322 C 0.69077 0.21189 0.66093
 N323 N 0.70450 0.20545 0.65199
 C324 C 0.71116 0.19170 0.66080
 C325 C 0.71203 0.16213 0.69130
 N326 N 0.70603 0.15358 0.70549
 C327 C 0.69225 0.16235 0.71208
 C328 C 0.66210 0.19220 0.71230
 N329 N 0.65314 0.20595 0.70588
 C330 C 0.66148 0.21217 0.69166
 H331 H 0.68264 0.22258 0.65667
 H332 H 0.72189 0.18371 0.65641
 H333 H 0.72258 0.15774 0.68307
 H334 H 0.68451 0.15816 0.72308
 H335 H 0.65811 0.18431 0.72328
 H336 H 0.65692 0.22276 0.68355
 C337 C 1.07698 0.06331 0.19939
 C338 C 1.06400 0.07613 0.19939
 C339 C 1.05099 0.07574 0.18690
 C340 C 1.05080 0.06252 0.17427
 C341 C 1.06363 0.04986 0.17427
 C342 C 1.07680 0.05026 0.18690
 C343 C 1.09170 0.06102 0.20934
 N344 N 1.10031 0.04693 0.20316
 C345 C 1.09142 0.04024 0.18946
 C346 C 1.06079 0.03935 0.15998
 N347 N 1.04658 0.04538 0.15148
 C348 C 1.04036 0.05953 0.15999
 C349 C 1.04078 0.09025 0.18943
 N350 N 1.04732 0.09928 0.20311
 C351 C 1.06149 0.09087 0.20932
 H352 H 1.09607 0.06919 0.21999
 H353 H 1.09552 0.02918 0.18171
 H354 H 1.06873 0.02848 0.15579
 H355 H 1.02939 0.06733 0.15582
 H356 H 1.02972 0.09420 0.18166
 H357 H 1.06959 0.09539 0.21994
 C358 C 0.06273 0.17464 1.05048
 C359 C 0.07598 0.18717 1.05064
 C360 C 0.07640 0.19975 1.06361
 C361 C 0.06356 0.19994 1.07656
 C362 C 0.05046 0.18755 1.07640
 C363 C 0.05004 0.17482 1.06328
 C364 C 0.05971 0.16027 1.04014
 N365 N 0.04555 0.15190 1.04639
 C366 C 0.03952 0.16057 1.06052
 C367 C 0.04045 0.19023 1.09102
 N368 N 0.04720 0.20392 1.09989
 C369 C 0.06131 0.20997 1.09128
 C370 C 0.09119 0.20952 1.06111
 N371 N 0.09961 0.20315 1.04699
 C372 C 0.09054 0.18950 1.04048
 H373 H 0.06751 0.15593 1.02923
 H374 H 0.02864 0.15650 1.06847
 H375 H 0.02939 0.18254 1.09514
 H376 H 0.06956 0.22056 1.09564
 H377 H 0.09573 0.22017 1.06919
 H378 H 0.09448 0.18161 1.02946
 C379 C 0.17585 0.70209 0.68897
 C380 C 0.18846 0.70194 0.67579
 C381 C 0.20123 0.68923 0.67573
 C382 C 0.20154 0.67651 0.68882
 C383 C 0.18908 0.67665 0.70184
 C384 C 0.17615 0.68952 0.70191
 C385 C 0.16125 0.71211 0.69160
 N386 N 0.15284 0.70589 0.70579
 C387 C 0.16174 0.69209 0.71220
 C388 C 0.19180 0.66215 0.71203
 N389 N 0.20558 0.65336 0.70548
 C390 C 0.21165 0.66192 0.69131
 C391 C 0.21097 0.69156 0.66087
 N392 N 0.20439 0.70535 0.65207
 C393 C 0.19064 0.71181 0.66097
 H394 H 0.15675 0.72274 0.68351
 H395 H 0.15769 0.68420 0.72316
 H396 H 0.18402 0.65797 0.72300
 H397 H 0.22223 0.65752 0.68313
 H398 H 0.22170 0.68356 0.65650
 H399 H 0.18256 0.72254 0.65671
 C400 C 1.18620 0.17268 0.19850
 C401 C 1.17323 0.18551 0.19849
 C402 C 1.17321 0.19832 0.18578
 C403 C 1.18615 0.19846 0.17293
 C404 C 1.19897 0.18578 0.17294
 C405 C 1.19899 0.17281 0.18580
 C406 C 1.18888 0.15815 0.20866
 N407 N 1.20295 0.14961 0.20240
 C408 C 1.20924 0.15835 0.18845
 C409 C 1.20919 0.18854 0.15848
 N410 N 1.20284 0.20256 0.14987
 C411 C 1.18877 0.20874 0.15847
 C412 C 1.15866 0.20842 0.18839
 N413 N 1.15001 0.20201 0.20234
 C414 C 1.15870 0.18802 0.20863
 H415 H 1.18097 0.15385 0.21950
 H416 H 1.22017 0.15425 0.18058
 H417 H 1.22012 0.18071 0.15430
 H418 H 1.18082 0.21959 0.15428
 H419 H 1.15444 0.21932 0.18052
 H420 H 1.15451 0.18005 0.21948
 C421 C 0.67630 1.04925 0.56058
 C422 C 0.68919 1.04912 0.57349
 C423 C 0.70173 1.06207 0.57383
 C424 C 0.70153 1.07530 0.56124
 C425 C 0.68878 1.07542 0.54846
 C426 C 0.67609 1.06231 0.54813
 C427 C 0.66185 1.03903 0.55783
 N428 N 0.65302 1.04561 0.54406
 C429 C 0.66150 1.05982 0.53802
 C430 C 0.69109 1.09030 0.53872
 N431 N 0.70491 1.09905 0.54530
 C432 C 0.71140 1.09012 0.55906
 C433 C 0.71180 1.05936 0.58842
 N434 N 0.70563 1.04512 0.59679
 C435 C 0.69183 1.03875 0.58788
 H436 H 0.65774 1.02800 0.56559
 H437 H 0.65707 1.06803 0.52744
 H438 H 0.68307 1.09468 0.52797
 H439 H 0.72216 1.09432 0.56714
 H440 H 0.72243 1.06743 0.59294
 H441 H 0.68398 1.02776 0.59190
 C442 C 0.56144 0.54873 0.17499
 C443 C 0.57409 0.54857 0.18815
 C444 C 0.57382 0.56113 0.20114
 C445 C 0.56090 0.57399 0.20112
 C446 C 0.54839 0.57415 0.18811
 C447 C 0.54867 0.56145 0.17497
 C448 C 0.55920 0.53886 0.16016
 N449 N 0.54541 0.54531 0.15130
 C450 C 0.53886 0.55910 0.16013
 C451 C 0.53826 0.58871 0.19069
 N452 N 0.54434 0.59723 0.20490
 C453 C 0.55817 0.58846 0.21139
 C454 C 0.58825 0.55851 0.21143
 N455 N 0.59711 0.54470 0.20498
 C456 C 0.58867 0.53851 0.19077
 H457 H 0.56725 0.52812 0.15587
 H458 H 0.52810 0.56709 0.15581
 H459 H 0.52763 0.59309 0.18255
 H460 H 0.56596 0.59261 0.22239
 H461 H 0.59232 0.56636 0.22244
 H462 H 0.59313 0.52787 0.18265
 C463 C 0.67598 0.68902 0.20089
 C464 C 0.68892 0.67617 0.20082
 C465 C 0.70129 0.67594 0.18772
 C466 C 0.70085 0.68855 0.17452
 C467 C 0.68806 0.70125 0.17458
 C468 C 0.67555 0.70149 0.18785
 C469 C 0.66166 0.69168 0.21130
 N470 N 0.65271 0.70544 0.20487
 C471 C 0.66098 0.71154 0.19055
 C472 C 0.69016 0.71103 0.15969
 N473 N 0.70387 0.70454 0.15076
 C474 C 0.71052 0.69081 0.15960
 C475 C 0.71146 0.66141 0.19027
 N476 N 0.70553 0.65297 0.20456
 C477 C 0.69177 0.66177 0.21113
 H478 H 0.65772 0.68390 0.22238
 H479 H 0.65642 0.72212 0.18242
 H480 H 0.68206 0.72175 0.15543
 H481 H 0.72126 0.68282 0.15524
 H482 H 0.72200 0.65698 0.18204
 H483 H 0.68409 0.65768 0.22221
 C484 C 0.17491 0.06214 1.04990
 C485 C 0.18755 0.07529 1.05036
 C486 C 0.20000 0.07539 1.06342
 C487 C 0.19995 0.06232 1.07618
 C488 C 0.18746 0.04933 1.07573
 C489 C 0.17487 0.04924 1.06252
 C490 C 0.16060 0.05946 1.03945
 N491 N 0.15204 0.04528 1.04546
 C492 C 0.16054 0.03892 1.05954
 C493 C 0.18988 0.03909 1.09026
 N494 N 0.20350 0.04559 1.09935
 C495 C 0.20977 0.05977 1.09097
 C496 C 0.20988 0.09018 1.06125
 N497 N 0.20370 0.09890 1.04723
 C498 C 0.19006 0.09003 1.04046
 H499 H 0.15641 0.06752 1.02867
 H500 H 0.15628 0.02796 1.06732
 H501 H 0.18205 0.02805 1.09419
 H502 H 0.22034 0.06787 1.09557
 H503 H 0.22046 0.09453 1.06949
 H504 H 0.18230 0.09424 1.02947
 C505 C 0.57473 0.20202 0.56096
 C506 C 0.56155 0.20247 0.57356
 C507 C 0.54843 0.19011 0.57326
 C508 C 0.54833 0.17715 0.56038
 C509 C 0.56135 0.17671 0.54792
 C510 C 0.57462 0.18921 0.54822
 C511 C 0.58969 0.21161 0.55879
 N512 N 0.59851 0.20490 0.54508
 C513 C 0.58953 0.19122 0.53851
 C514 C 0.55868 0.16206 0.53790
 N515 N 0.54441 0.15376 0.54400
 C516 C 0.53797 0.16277 0.55773
 C517 C 0.53820 0.19291 0.58770
 N518 N 0.54481 0.20664 0.59659
 C519 C 0.55907 0.21260 0.58818
 H520 H 0.59410 0.22232 0.56686
 H521 H 0.59378 0.18306 0.52781
 H522 H 0.56683 0.15743 0.52737
 H523 H 0.52695 0.15880 0.56555
 H524 H 0.52715 0.18519 0.59177
 H525 H 0.56734 0.22309 0.59269
 C526 C 0.07279 0.56021 0.70267
 C527 C 0.05986 0.57308 0.70252
 C528 C 0.04717 0.57292 0.68969
 C529 C 0.04727 0.55991 0.67686
 C530 C 0.06005 0.54719 0.67700
 C531 C 0.07288 0.54735 0.68999
 C532 C 0.08740 0.55789 0.71278
 N533 N 0.09619 0.54396 0.70651
 C534 C 0.08754 0.53741 0.69259
 C535 C 0.05768 0.53706 0.66237
 N536 N 0.04381 0.54334 0.65351
 C537 C 0.03734 0.55729 0.66215
 C538 C 0.03712 0.58758 0.69201
 N539 N 0.04342 0.59646 0.70590
 C540 C 0.05731 0.58782 0.71243
 H541 H 0.09163 0.56603 0.72351
 H542 H 0.09191 0.52661 0.68464
 H543 H 0.06576 0.52630 0.65815
 H544 H 0.02661 0.56526 0.65773
 H545 H 0.02640 0.59178 0.68388
 H546 H 0.06527 0.59226 0.72320
 C547 C 0.67377 0.55025 0.06146
 C548 C 0.68688 0.54989 0.07416
 C549 C 0.69966 0.56261 0.07427
 C550 C 0.69949 0.57583 0.06168
 C551 C 0.68654 0.57619 0.04913
 C552 C 0.67360 0.56332 0.04902
 C553 C 0.65916 0.54023 0.05887
 N554 N 0.65028 0.54693 0.04519
 C555 C 0.65889 0.56103 0.03905
 C556 C 0.68901 0.59098 0.03930
 N557 N 0.70310 0.59946 0.04562
 C558 C 0.70962 0.59042 0.05929
 C559 C 0.70998 0.55967 0.08864
 N560 N 0.70373 0.54552 0.09710
 C561 C 0.68963 0.53943 0.08847
 H562 H 0.65503 0.52920 0.06661
 H563 H 0.65451 0.56924 0.02846
 H564 H 0.68092 0.59550 0.02867
 H565 H 0.72061 0.59443 0.06715
 H566 H 0.72087 0.56751 0.09294
 H567 H 0.68169 0.52855 0.09261
 C568 C 0.06197 0.70179 0.57380
 C569 C 0.07507 0.70139 0.56112
 C570 C 0.07500 0.68853 0.54843
 C571 C 0.06181 0.67592 0.54826
 C572 C 0.04887 0.67632 0.56079
 C573 C 0.04894 0.68932 0.57363
 C574 C 0.05944 0.71202 0.58834
 N575 N 0.04524 0.70602 0.59683
 C576 C 0.03871 0.69217 0.58806
 C577 C 0.03853 0.66190 0.55818
 N578 N 0.04492 0.65293 0.54440
 C579 C 0.05914 0.66128 0.53823
 C580 C 0.08979 0.69067 0.53858
 N581 N 0.09868 0.70447 0.54501
 C582 C 0.08991 0.71114 0.55878
 H583 H 0.06760 0.72264 0.59273
 H584 H 0.02770 0.68443 0.59220
 H585 H 0.02754 0.65792 0.56602
 H586 H 0.06721 0.65672 0.52762
 H587 H 0.09402 0.68253 0.52786
 H588 H 0.09426 0.72194 0.56676
 C589 C 0.56071 1.04829 0.67620
 C590 C 0.57358 1.04838 0.68915
 C591 C 0.57352 1.06118 0.70190
 C592 C 0.56059 1.07404 0.70186
 C593 C 0.54787 1.07396 0.68906
 C594 C 0.54792 1.06100 0.67616
 C595 C 0.55825 1.03816 0.66157
 N596 N 0.54431 1.04446 0.65282
 C597 C 0.53789 1.05841 0.66150
 C598 C 0.53777 1.08857 0.69153
 N599 N 0.54409 1.09734 0.70548
 C600 C 0.55803 1.08870 0.71191
 C601 C 0.58811 1.05875 0.71201
 N602 N 0.59687 1.04483 0.70568
 C603 C 0.58821 1.03837 0.69172
 H604 H 0.56629 1.02738 0.65733
 H605 H 0.52710 1.06638 0.65720
 H606 H 0.52700 1.09278 0.68347
 H607 H 0.56601 1.09303 0.72271
 H608 H 0.59234 1.06680 0.72281
 H609 H 0.59253 1.02757 0.68374
 C610 C 0.45124 0.32428 0.93867
 C611 C 0.45111 0.31155 0.92554
 C612 C 0.43845 0.29871 0.92552
 C613 C 0.42577 0.29844 0.93863
 C614 C 0.42589 0.31102 0.95160
 C615 C 0.43870 0.32401 0.95162
 C616 C 0.46124 0.33893 0.94127
 N617 N 0.45504 0.34740 0.95545
 C618 C 0.44127 0.33851 0.96190
 C619 C 0.41146 0.30828 0.96183
 N620 N 0.40275 0.29438 0.95535
 C621 C 0.41127 0.28826 0.94119
 C622 C 0.44081 0.28884 0.91072
 N623 N 0.45456 0.29541 0.90191
 C624 C 0.46096 0.30928 0.91074
 H625 H 0.47185 0.34340 0.93316
 H626 H 0.43341 0.34258 0.97287
 H627 H 0.40730 0.31611 0.97280
 H628 H 0.40692 0.27757 0.93306
 H629 H 0.43286 0.27802 0.90641
 H630 H 0.47166 0.31736 0.90645
 C631 C 0.94986 0.43791 0.32557
 C632 C 0.95005 0.42532 0.31231
 C633 C 0.93726 0.42539 0.29958
 C634 C 0.92414 0.43805 0.29996
 C635 C 0.92395 0.45049 0.31305
 C636 C 0.93689 0.45042 0.32593
 C637 C 0.95999 0.44032 0.34018
 N638 N 0.95344 0.45397 0.34923
 C639 C 0.93933 0.46026 0.34076
 C640 C 0.90922 0.46041 0.31077
 N641 N 0.90062 0.45425 0.29664
 C642 C 0.90952 0.44060 0.28992
 C643 C 0.94004 0.41109 0.28909
 N644 N 0.95415 0.40251 0.29519
 C645 C 0.96039 0.41099 0.30936
 H646 H 0.97099 0.43247 0.34417
 H647 H 0.93121 0.47085 0.34529
 H648 H 0.90483 0.47099 0.31900
 H649 H 0.90540 0.43285 0.27886
 H650 H 0.93210 0.40692 0.27820
 H651 H 0.97127 0.40673 0.31721
 C652 C 0.30013 0.93877 0.42568
 C653 C 0.30012 0.92599 0.43872
 C654 C 0.31316 0.92577 0.45117
 C655 C 0.32638 0.93833 0.45074
 C656 C 0.32641 0.95097 0.43785
 C657 C 0.31320 0.95120 0.42524
 C658 C 0.28975 0.94143 0.41130
 N659 N 0.29623 0.95514 0.40231
 C660 C 0.31055 0.96123 0.41060
 C661 C 0.34127 0.96075 0.44001
 N662 N 0.35008 0.95431 0.45386
 C663 C 0.34122 0.94061 0.46053
 C664 C 0.31050 0.91132 0.46146
 N665 N 0.29620 0.90293 0.45550
 C666 C 0.28974 0.91167 0.44162
 H667 H 0.27865 0.93367 0.40739
 H668 H 0.31870 0.97178 0.40604
 H669 H 0.34556 0.97144 0.43187
 H670 H 0.34546 0.93267 0.47139
 H671 H 0.31863 0.90692 0.47210
 H672 H 0.27867 0.90760 0.43391
 O673 O 0.24849 0.54651 0.72749
 O674 O 0.27810 0.54093 0.72975
 O675 O 0.22747 0.50082 0.70354
 O676 O 0.22681 0.47215 0.70870
 O677 O 0.20317 0.52245 0.74923
 O678 O 0.20963 0.52128 0.77957
 O679 O 0.27235 0.45469 0.75083
 O680 O 0.26890 0.45951 0.72120
 O681 O 0.29492 0.49877 0.77250
 O682 O 0.28897 0.53017 0.77137
 O683 O 0.25088 0.47770 0.79556
 O684 O 0.21987 0.47846 0.78964
 O685 O 0.25156 0.45463 0.77186
 O686 O 0.21927 0.46093 0.77011
 O687 O 0.27164 0.49871 0.79571
 O688 O 0.26977 0.53077 0.78917
 O689 O 0.29480 0.47757 0.75183
 O690 O 0.28918 0.48336 0.72029
 O691 O 0.22792 0.54669 0.74880
 O692 O 0.22930 0.54018 0.77972
 O693 O 0.20302 0.50149 0.72830
 O694 O 0.21012 0.47002 0.73099
 O695 O 0.24798 0.52214 0.70361
 O696 O 0.27929 0.51828 0.71047
 Zr697 Zr 0.25886 0.52122 0.72879
 O698 O 0.27557 0.50610 0.74438
 Zr699 Zr 0.22818 0.49073 0.72901
 O700 O 0.24386 0.47406 0.74408
 Zr701 Zr 0.22848 0.52141 0.75956
 O702 O 0.24369 0.50589 0.77628
 Zr703 Zr 0.27023 0.47966 0.74002
 O704 O 0.25460 0.49471 0.72304
 Zr705 Zr 0.27009 0.51012 0.77085
 O706 O 0.25486 0.52701 0.75535
 Zr707 Zr 0.23972 0.47938 0.77060
 O708 O 0.22260 0.49492 0.75553
 O709 O 0.23255 0.51704 0.73321
 O710 O 0.26606 0.48368 0.76654
 C711 C 0.23656 0.55408 0.73647
 C712 C 0.23604 0.51312 0.69609
 C713 C 0.19562 0.51364 0.73714
 C714 C 0.26401 0.44737 0.76335
 C715 C 0.30211 0.48612 0.76423
 C716 C 0.26325 0.48619 0.80295
 H717 H 0.28778 0.50886 0.74152
 H718 H 0.24081 0.50867 0.78852
 H719 H 0.22511 0.52446 0.72576
 H720 H 0.24128 0.46179 0.74111
 H721 H 0.26518 0.46503 0.71015
 H722 H 0.23576 0.46327 0.71119
 H723 H 0.25994 0.52876 0.79722
 H724 H 0.24069 0.54610 0.77879
 H725 H 0.29742 0.47344 0.72082
 H726 H 0.27819 0.52750 0.70147
 H727 H 0.22030 0.48951 0.79626
 H728 H 0.20423 0.50958 0.77937
 H729 H 0.27794 0.54575 0.74172
 H730 H 0.29602 0.52915 0.76065
 H731 H 0.20328 0.47207 0.74171
 H732 H 0.22157 0.45267 0.76047
 O733 O 0.25193 -0.02310 0.29686
 O734 O 0.22223 -0.02083 0.29139
 O735 O 0.27262 -0.04708 0.25109
 O736 O 0.27313 -0.04197 0.22240
 O737 O 0.29707 -0.00137 0.27257
 O738 O 0.29062 0.02897 0.27134
 O739 O 0.22760 0.00009 0.20500
 O740 O 0.23101 -0.02955 0.20992
 O741 O 0.20523 0.02182 0.24916
 O742 O 0.21131 0.02071 0.28056
 O743 O 0.24912 0.04478 0.22784
 O744 O 0.28020 0.03895 0.22863
 O745 O 0.24846 0.02108 0.20487
 O746 O 0.28072 0.01942 0.21109
 O747 O 0.22846 0.04498 0.24894
 O748 O 0.23056 0.03852 0.28107
 O749 O 0.20526 0.00118 0.22793
 O750 O 0.21079 -0.03035 0.23381
 O751 O 0.27248 -0.00177 0.29690
 O752 O 0.27106 0.02911 0.29037
 O753 O 0.29708 -0.02234 0.25165
 O754 O 0.28984 -0.01970 0.22017
 O755 O 0.25225 -0.04700 0.27251
 O756 O 0.22091 -0.04017 0.26878
 Zr757 Zr 0.24136 -0.02183 0.27160
 O758 O 0.22459 -0.00629 0.25648
 Zr759 Zr 0.27188 -0.02165 0.24096
 O760 O 0.25614 -0.00662 0.22432
 Zr761 Zr 0.27177 0.00895 0.27160
 O762 O 0.25648 0.02563 0.25611
 Zr763 Zr 0.22979 -0.01067 0.23002
 O764 O 0.24548 -0.02762 0.24506
 Zr765 Zr 0.23010 0.02018 0.26044
 O766 O 0.24541 0.00472 0.27731
 Zr767 Zr 0.26035 0.01989 0.22960
 O768 O 0.27752 0.00486 0.24509
 O769 O 0.26765 -0.01741 0.26729
 O770 O 0.23402 0.01583 0.23399
 C771 C 0.26393 -0.01411 0.30435
 C772 C 0.26414 -0.05452 0.26345
 C773 C 0.30455 -0.01350 0.26377
 C774 C 0.23597 0.01257 0.19764
 C775 C 0.19799 0.01360 0.23648
 C776 C 0.23676 0.05216 0.23632
 H777 H 0.21238 -0.00914 0.25929
 H778 H 0.25938 0.03787 0.25886
 H779 H 0.27512 -0.02484 0.27469
 H780 H 0.25867 -0.00961 0.21204
 H781 H 0.23472 -0.04058 0.21547
 H782 H 0.26413 -0.03950 0.21355
 H783 H 0.24032 0.04663 0.27895
 H784 H 0.25968 0.02820 0.29631
 H785 H 0.20252 -0.02983 0.22390
 H786 H 0.22206 -0.04913 0.27802
 H787 H 0.27972 0.04568 0.23961
 H788 H 0.29596 0.02874 0.25961
 H789 H 0.22247 -0.00887 0.29622
 H790 H 0.20427 0.00998 0.27960
 H791 H 0.29674 -0.00899 0.22220
 H792 H 0.27844 0.00972 0.20290
 O793 O 0.54658 0.72770 0.24896
 O794 O 0.54103 0.73003 0.27871
 O795 O 0.50098 0.70378 0.22796
 O796 O 0.47240 0.70898 0.22725
 O797 O 0.52259 0.74937 0.20352
 O798 O 0.52137 0.77971 0.20991
 O799 O 0.45498 0.75113 0.27284
 O800 O 0.45985 0.72151 0.26950
 O801 O 0.49899 0.77285 0.29548
 O802 O 0.53027 0.77168 0.28956
 O803 O 0.47794 0.79579 0.25128
 O804 O 0.47869 0.78986 0.22019
 O805 O 0.45493 0.77210 0.25192
 O806 O 0.46125 0.77032 0.21955
 O807 O 0.49892 0.79598 0.27209
 O808 O 0.53091 0.78938 0.27020
 O809 O 0.47781 0.75225 0.29539
 O810 O 0.48361 0.72069 0.28988
 O811 O 0.54673 0.74899 0.22832
 O812 O 0.54023 0.77991 0.22967
 O813 O 0.50170 0.72845 0.20339
 O814 O 0.47029 0.73122 0.21047
 O815 O 0.52227 0.70385 0.24851
 O816 O 0.51845 0.71076 0.27992
 Zr817 Zr 0.52137 0.72905 0.25940
 O818 O 0.50628 0.74467 0.27613
 Zr819 Zr 0.49093 0.72925 0.22861
 O820 O 0.47432 0.74434 0.24432
 Zr821 Zr 0.52152 0.75976 0.22887
 O822 O 0.50606 0.77651 0.24409
 Zr823 Zr 0.47992 0.74034 0.27079
 O824 O 0.49492 0.72332 0.25513
 Zr825 Zr 0.51029 0.77112 0.27059
 O826 O 0.52713 0.75558 0.25534
 Zr827 Zr 0.47963 0.77083 0.24010
 O828 O 0.49511 0.75574 0.22296
 O829 O 0.51717 0.73343 0.23301
 O830 O 0.48392 0.76684 0.26654
 C831 C 0.55410 0.73666 0.23697
 C832 C 0.51326 0.69633 0.23655
 C833 C 0.51385 0.73724 0.19597
 C834 C 0.44767 0.76361 0.26440
 C835 C 0.48635 0.76466 0.30271
 C836 C 0.48641 0.80320 0.26368
 H837 H 0.50904 0.74184 0.28839
 H838 H 0.50883 0.78873 0.24118
 H839 H 0.52457 0.72596 0.22556
 H840 H 0.46209 0.74137 0.24172
 H841 H 0.46537 0.71046 0.26579
 H842 H 0.46358 0.71145 0.23627
 H843 H 0.52887 0.79746 0.26038
 H844 H 0.54616 0.77897 0.24108
 H845 H 0.47373 0.72126 0.29814
 H846 H 0.52764 0.70177 0.27883
 H847 H 0.48973 0.79644 0.22058
 H848 H 0.50971 0.77948 0.20447
 H849 H 0.54586 0.74198 0.27849
 H850 H 0.52931 0.76094 0.29660
 H851 H 0.47237 0.74189 0.20354
 H852 H 0.45304 0.76068 0.22184
 O853 O 0.00093 0.70380 0.72708
 O854 O -0.02869 0.70942 0.72924
 O855 O 0.02200 0.74957 0.70339
 O856 O 0.02262 0.77822 0.70867
 O857 O 0.04625 0.72780 0.74901
 O858 O 0.03979 0.72892 0.77935
 O859 O -0.02291 0.79559 0.75084
 O860 O -0.01941 0.79086 0.72115
 O861 O -0.04548 0.75151 0.77221
 O862 O -0.03958 0.72008 0.77089
 O863 O -0.00144 0.77243 0.79544
 O864 O 0.02961 0.77164 0.78957
 O865 O -0.00211 0.79555 0.77192
 O866 O 0.03016 0.78929 0.77017
 O867 O -0.02223 0.75146 0.79545
 O868 O -0.02037 0.71940 0.78874
 O869 O -0.04534 0.77275 0.75163
 O870 O -0.03974 0.76704 0.72008
 O871 O 0.02147 0.70357 0.74846
 O872 O 0.02013 0.71001 0.77937
 O873 O 0.04642 0.74883 0.72820
 O874 O 0.03933 0.78029 0.73102
 O875 O 0.00151 0.72824 0.70329
 O876 O -0.02983 0.73213 0.71006
 Zr877 Zr -0.00942 0.72911 0.72845
 O878 O -0.02613 0.74421 0.74407
 Zr879 Zr 0.02127 0.75960 0.72890
 O880 O 0.00559 0.77623 0.74401
 Zr881 Zr 0.02095 0.72883 0.75930
 O882 O 0.00573 0.74430 0.77606
 Zr883 Zr -0.02078 0.77065 0.73986
 O884 O -0.00515 0.75564 0.72284
 Zr885 Zr -0.02067 0.74011 0.77054
 O886 O -0.00544 0.72326 0.75499
 Zr887 Zr 0.00974 0.77082 0.77051
 O888 O 0.02684 0.75533 0.75540
 O889 O 0.01688 0.73327 0.73296
 O890 O -0.01661 0.76655 0.76637
 C891 C 0.01284 0.69621 0.73608
 C892 C 0.01347 0.73727 0.69586
 C893 C 0.05380 0.73664 0.73697
 C894 C -0.01458 0.80283 0.76345
 C895 C -0.05265 0.76421 0.76400
 C896 C -0.01383 0.76396 0.80276
 H897 H -0.03835 0.74147 0.74117
 H898 H 0.00861 0.74149 0.78829
 H899 H 0.02433 0.72586 0.72550
 H900 H 0.00818 0.78851 0.74111
 H901 H -0.01571 0.78537 0.71008
 H902 H 0.01371 0.78713 0.71121
 H903 H -0.01057 0.72140 0.79686
 H904 H 0.00872 0.70413 0.77843
 H905 H -0.04795 0.77698 0.72063
 H906 H -0.02871 0.72294 0.70103
 H907 H 0.02912 0.76061 0.79619
 H908 H 0.04522 0.74061 0.77919
 H909 H -0.02857 0.70460 0.74120
 H910 H -0.04665 0.72117 0.76018
 H911 H 0.04616 0.77822 0.74176
 H912 H 0.02787 0.79757 0.76057
 O913 O 0.04608 0.02233 0.00126
 O914 O 0.04040 0.02005 -0.02846
 O915 O 0.00058 0.04615 0.02244
 O916 O -0.02804 0.04093 0.02312
 O917 O 0.02233 0.00062 0.04675
 O918 O 0.02106 -0.02973 0.04036
 O919 O -0.04555 -0.00124 -0.02251
 O920 O -0.04073 0.02840 -0.01909
 O921 O -0.00164 -0.02286 -0.04517
 O922 O 0.02970 -0.02157 -0.03931
 O923 O -0.02247 -0.04588 -0.00100
 O924 O -0.02164 -0.03997 0.03011
 O925 O -0.04551 -0.02227 -0.00164
 O926 O -0.03913 -0.02045 0.03075
 O927 O -0.00155 -0.04598 -0.02184
 O928 O 0.03042 -0.03933 -0.02000
 O929 O -0.02283 -0.00228 -0.04504
 O930 O -0.01704 0.02930 -0.03950
 O931 O 0.04633 0.00102 0.02189
 O932 O 0.03985 -0.02992 0.02056
 O933 O 0.00140 0.02149 0.04695
 O934 O -0.03005 0.01864 0.03993
 O935 O 0.02178 0.04613 0.00184
 O936 O 0.01778 0.03929 -0.02958
 Zr937 Zr 0.02083 0.02096 -0.00911
 O938 O 0.00571 0.00533 -0.02583
 Zr939 Zr -0.00949 0.02068 0.02175
 O940 O -0.02614 0.00557 0.00604
 Zr941 Zr 0.02113 -0.00978 0.02140
 O942 O 0.00563 -0.02654 0.00618
 Zr943 Zr -0.02064 0.00962 -0.02043
 O944 O -0.00561 0.02665 -0.00478
 Zr945 Zr 0.00978 -0.02111 -0.02031
 O946 O 0.02665 -0.00556 -0.00508
 Zr947 Zr -0.02079 -0.02092 0.01021
 O948 O -0.00527 -0.00582 0.02735
 O949 O 0.01674 0.01654 0.01729
 O950 O -0.01658 -0.01687 -0.01623
 C951 C 0.05365 0.01338 0.01324
 C952 C 0.01284 0.05361 0.01386
 C953 C 0.01361 0.01275 0.05432
 C954 C -0.05280 -0.01379 -0.01414
 C955 C -0.01433 -0.01469 -0.05236
 C956 C -0.01402 -0.05324 -0.01342
 H957 H 0.00842 0.00818 -0.03810
 H958 H 0.00843 -0.03876 0.00907
 H959 H 0.02416 0.02400 0.02473
 H960 H -0.03837 0.00851 0.00865
 H961 H -0.03522 0.03945 -0.01536
 H962 H -0.03693 0.03839 0.01417
 H963 H 0.02843 -0.04741 -0.01016
 H964 H 0.04575 -0.02895 0.00914
 H965 H -0.02695 0.02872 -0.04775
 H966 H 0.02698 0.04829 -0.02850
 H967 H -0.01058 -0.04651 0.02971
 H968 H 0.00942 -0.02951 0.04583
 H969 H 0.04523 0.00811 -0.02829
 H970 H 0.02863 -0.01088 -0.04641
 H971 H -0.02793 0.00796 0.04682
 H972 H -0.04738 -0.01085 0.02845
 O973 O 0.00104 0.54633 0.52238
 O974 O -0.02862 0.54082 0.52012
 O975 O 0.02190 0.50057 0.54624
 O976 O 0.02258 0.47192 0.54099
 O977 O 0.04622 0.52219 0.50053
 O978 O 0.03973 0.52098 0.47020
 O979 O -0.02306 0.45449 0.49896
 O980 O -0.01962 0.45939 0.52858
 O981 O -0.04559 0.49864 0.47735
 O982 O -0.03959 0.53001 0.47851
 O983 O -0.00168 0.47744 0.45423
 O984 O 0.02936 0.47818 0.46006
 O985 O -0.00227 0.45439 0.47792
 O986 O 0.03000 0.46070 0.47959
 O987 O -0.02237 0.49850 0.45412
 O988 O -0.02037 0.53058 0.46071
 O989 O -0.04549 0.47741 0.49794
 O990 O -0.03987 0.48325 0.52949
 O991 O 0.02154 0.54644 0.50102
 O992 O 0.02008 0.53991 0.47009
 O993 O 0.04635 0.50128 0.52146
 O994 O 0.03920 0.46978 0.51869
 O995 O 0.00146 0.52194 0.54623
 O996 O -0.02986 0.51819 0.53938
 Zr997 Zr -0.00944 0.52106 0.52104
 O998 O -0.02619 0.50594 0.50546
 Zr999 Zr 0.02118 0.49051 0.52074
 O1000 O 0.00544 0.47386 0.50567
 Zr1001 Zr 0.02090 0.52116 0.49023
 O1002 O 0.00564 0.50565 0.47351
 Zr1003 Zr -0.02092 0.47950 0.50977
 O1004 O -0.00522 0.49454 0.52675
 Zr1005 Zr -0.02074 0.50994 0.47898
 O1006 O -0.00546 0.52681 0.49449
 Zr1007 Zr 0.00957 0.47915 0.47916
 O1008 O 0.02673 0.49467 0.49422
 O1009 O 0.01686 0.51683 0.51659
 O1010 O -0.01677 0.48349 0.48325
 C1011 C 0.01298 0.55386 0.51339
 C1012 C 0.01336 0.51288 0.55373
 C1013 C 0.05376 0.51342 0.51263
 C1014 C -0.01471 0.44713 0.48646
 C1015 C -0.05280 0.48598 0.48556
 C1016 C -0.01404 0.48594 0.44687
 H1017 H -0.03840 0.50872 0.50833
 H1018 H 0.00851 0.50841 0.46127
 H1019 H 0.02432 0.52423 0.52405
 H1020 H 0.00801 0.46159 0.50864
 H1021 H -0.01588 0.46492 0.53963
 H1022 H 0.01354 0.46311 0.53856
 H1023 H -0.01060 0.52852 0.45261
 H1024 H 0.00872 0.54586 0.47106
 H1025 H -0.04812 0.47334 0.52895
 H1026 H -0.02873 0.52742 0.54838
 H1027 H 0.02893 0.48922 0.45345
 H1028 H 0.04510 0.50926 0.47038
 H1029 H -0.02842 0.54565 0.50817
 H1030 H -0.04658 0.52905 0.48927
 H1031 H 0.04608 0.47186 0.50800
 H1032 H 0.02774 0.45248 0.48925
 O1033 O 0.50114 0.04679 0.52274
 O1034 O 0.47153 0.04114 0.52050
 O1035 O 0.52215 0.00123 0.54689
 O1036 O 0.52288 -0.02745 0.54182
 O1037 O 0.54649 0.02268 0.50115
 O1038 O 0.54011 0.02132 0.47083
 O1039 O 0.47736 -0.04520 0.49962
 O1040 O 0.48074 -0.04023 0.52925
 O1041 O 0.45484 -0.00123 0.47779
 O1042 O 0.46072 0.03011 0.47880
 O1043 O 0.49897 -0.02239 0.45492
 O1044 O 0.52996 -0.02157 0.46092
 O1045 O 0.49823 -0.04533 0.47866
 O1046 O 0.53050 -0.03900 0.48050
 O1047 O 0.47817 -0.00143 0.45464
 O1048 O 0.48005 0.03072 0.46113
 O1049 O 0.45489 -0.02234 0.49851
 O1050 O 0.46045 -0.01639 0.53006
 O1051 O 0.52172 0.04686 0.50144
 O1052 O 0.52041 0.04017 0.47055
 O1053 O 0.54665 0.00185 0.52217
 O1054 O 0.53956 -0.02969 0.51955
 O1055 O 0.50166 0.02255 0.54673
 O1056 O 0.47034 0.01858 0.53984
 Zr1057 Zr 0.49079 0.02147 0.52153
 O1058 O 0.47413 0.00624 0.50594
 Zr1059 Zr 0.52150 -0.00898 0.52145
 O1060 O 0.50584 -0.02575 0.50642
 Zr1061 Zr 0.52121 0.02152 0.49079
 O1062 O 0.50606 0.00589 0.47410
 Zr1063 Zr 0.47945 -0.02017 0.51038
 O1064 O 0.49506 -0.00502 0.52736
 Zr1065 Zr 0.47965 0.01013 0.47947
 O1066 O 0.49483 0.02712 0.49496
 Zr1067 Zr 0.51005 -0.02057 0.47990
 O1068 O 0.52712 -0.00493 0.49493
 O1069 O 0.51711 0.01730 0.51716
 O1070 O 0.48369 -0.01628 0.48386
 C1071 C 0.51307 0.05432 0.51373
 C1072 C 0.51359 0.01358 0.55429
 C1073 C 0.55403 0.01398 0.51330
 C1074 C 0.48575 -0.05256 0.48714
 C1075 C 0.44761 -0.01385 0.48606
 C1076 C 0.48661 -0.01396 0.44747
 H1077 H 0.46190 0.00901 0.50877
 H1078 H 0.50897 0.00861 0.46186
 H1079 H 0.52453 0.02478 0.52459
 H1080 H 0.50842 -0.03800 0.50944
 H1081 H 0.48444 -0.03466 0.54030
 H1082 H 0.51387 -0.03630 0.53940
 H1083 H 0.48981 0.02861 0.45302
 H1084 H 0.50903 0.04610 0.47146
 H1085 H 0.45222 -0.02632 0.52954
 H1086 H 0.47143 0.02784 0.54881
 H1087 H 0.52953 -0.01056 0.45425
 H1088 H 0.54553 0.00963 0.47108
 H1089 H 0.47170 0.04589 0.50852
 H1090 H 0.45373 0.02923 0.48957
 H1091 H 0.54646 -0.02765 0.50887
 H1092 H 0.52818 -0.04721 0.49016
 O1093 O 0.45311 0.49882 -0.02311
 O1094 O 0.45874 0.52852 -0.02084
 O1095 O 0.49856 0.47769 -0.04708
 O1096 O 0.52716 0.47700 -0.04196
 O1097 O 0.47707 0.45335 -0.00140
 O1098 O 0.47837 0.45983 0.02895
 O1099 O 0.54481 0.52262 0.00013
 O1100 O 0.53987 0.51917 -0.02949
 O1101 O 0.50099 0.54532 0.02187
 O1102 O 0.46964 0.53942 0.02075
 O1103 O 0.52193 0.50113 0.04490
 O1104 O 0.52112 0.47006 0.03900
 O1105 O 0.54488 0.50177 0.02118
 O1106 O 0.53851 0.46940 0.01942
 O1107 O 0.50103 0.52198 0.04508
 O1108 O 0.46905 0.52017 0.03855
 O1109 O 0.52205 0.54516 0.00118
 O1110 O 0.51614 0.53956 -0.03035
 O1111 O 0.45296 0.47820 -0.00180
 O1112 O 0.45954 0.47958 0.02912
 O1113 O 0.49791 0.45318 -0.02235
 O1114 O 0.52932 0.46025 -0.01967
 O1115 O 0.47733 0.49827 -0.04700
 O1116 O 0.48126 0.52968 -0.04016
 Zr1117 Zr 0.47835 0.50920 -0.02182
 O1118 O 0.49352 0.52593 -0.00625
 Zr1119 Zr 0.50871 0.47839 -0.02163
 O1120 O 0.52540 0.49409 -0.00658
 Zr1121 Zr 0.47820 0.47873 0.00894
 O1122 O 0.49376 0.49397 0.02565
 Zr1123 Zr 0.51985 0.52054 -0.01064
 O1124 O 0.50476 0.50488 -0.02760
 Zr1125 Zr 0.48958 0.52045 0.02023
 O1126 O 0.47266 0.50520 0.00474
 Zr1127 Zr 0.52017 0.48994 0.01994
 O1128 O 0.50459 0.47280 0.00489
 O1129 O 0.48249 0.48282 -0.01741
 O1130 O 0.51593 0.51637 0.01589
 C1131 C 0.44557 0.48685 -0.01413
 C1132 C 0.48627 0.48628 -0.05452
 C1133 C 0.48579 0.44578 -0.01352
 C1134 C 0.55212 0.51424 0.01264
 C1135 C 0.51360 0.55251 0.01360
 C1136 C 0.51351 0.51353 0.05231
 H1137 H 0.49079 0.53819 -0.00911
 H1138 H 0.49102 0.49108 0.03789
 H1139 H 0.47505 0.47536 -0.02485
 H1140 H 0.53762 0.49148 -0.00957
 H1141 H 0.53432 0.51546 -0.04054
 H1142 H 0.53605 0.48595 -0.03947
 H1143 H 0.47103 0.51030 0.04658
 H1144 H 0.45366 0.49101 0.02819
 H1145 H 0.52606 0.54780 -0.02984
 H1146 H 0.47203 0.52858 -0.04913
 H1147 H 0.51009 0.47045 0.04558
 H1148 H 0.49001 0.45436 0.02870
 H1149 H 0.45397 0.52836 -0.00886
 H1150 H 0.47065 0.54650 0.01004
 H1151 H 0.52728 0.45337 -0.00895
 H1152 H 0.54673 0.47170 0.00980
 O1153 O 0.75131 0.27248 0.45356
 O1154 O 0.72167 0.27024 0.45911
 O1155 O 0.77229 0.29639 0.49930
 O1156 O 0.77288 0.29125 0.52799
 O1157 O 0.79659 0.25075 0.47769
 O1158 O 0.79015 0.22041 0.47890
 O1159 O 0.72739 0.24922 0.54542
 O1160 O 0.73079 0.27880 0.54056
 O1161 O 0.70480 0.22758 0.50121
 O1162 O 0.71083 0.22864 0.46984
 O1163 O 0.74882 0.20446 0.52243
 O1164 O 0.77979 0.21029 0.52174
 O1165 O 0.74821 0.22820 0.54552
 O1166 O 0.78049 0.22988 0.53918
 O1167 O 0.72808 0.20432 0.50138
 O1168 O 0.73001 0.21083 0.46931
 O1169 O 0.70491 0.24821 0.52244
 O1170 O 0.71054 0.27971 0.51667
 O1171 O 0.77188 0.25117 0.45342
 O1172 O 0.77048 0.22026 0.45994
 O1173 O 0.79671 0.27166 0.49867
 O1174 O 0.78960 0.26896 0.53016
 O1175 O 0.75182 0.29634 0.47793
 O1176 O 0.72049 0.28954 0.48175
 Zr1177 Zr 0.74090 0.27119 0.47884
 O1178 O 0.72419 0.25562 0.49396
 Zr1179 Zr 0.77155 0.27095 0.50941
 O1180 O 0.75585 0.25590 0.52606
 Zr1181 Zr 0.77129 0.24041 0.47872
 O1182 O 0.75606 0.22371 0.49422
 Zr1183 Zr 0.72949 0.25998 0.52041
 O1184 O 0.74514 0.27694 0.50538
 Zr1185 Zr 0.72966 0.22915 0.48995
 O1186 O 0.74491 0.24464 0.47307
 Zr1187 Zr 0.76001 0.22939 0.52075
 O1188 O 0.77714 0.24443 0.50523
 O1189 O 0.76720 0.26675 0.48308
 O1190 O 0.73366 0.23346 0.51641
 C1191 C 0.76327 0.26351 0.44602
 C1192 C 0.76377 0.30383 0.48695
 C1193 C 0.80412 0.26286 0.48650
 C1194 C 0.73577 0.23675 0.55278
 C1195 C 0.69758 0.23586 0.51384
 C1196 C 0.73646 0.19708 0.51392
 H1197 H 0.71198 0.25849 0.49116
 H1198 H 0.75895 0.21148 0.49145
 H1199 H 0.77465 0.27419 0.47567
 H1200 H 0.75844 0.25888 0.53833
 H1201 H 0.73453 0.28984 0.53505
 H1202 H 0.76395 0.28875 0.53688
 H1203 H 0.73983 0.20278 0.47134
 H1204 H 0.75910 0.22120 0.45400
 H1205 H 0.70230 0.27920 0.52658
 H1206 H 0.72160 0.29852 0.47252
 H1207 H 0.77947 0.20377 0.51062
 H1208 H 0.79557 0.22065 0.49061
 H1209 H 0.72189 0.25830 0.45424
 H1210 H 0.70381 0.23939 0.47079
 H1211 H 0.79648 0.25826 0.52809
 H1212 H 0.77820 0.23951 0.54744
 O1213 O 0.77288 0.79669 -0.00158
 O1214 O 0.77050 0.79102 0.02813
 O1215 O 0.79635 0.75091 -0.02277
 O1216 O 0.79095 0.72230 -0.02369
 O1217 O 0.75104 0.77305 -0.04715
 O1218 O 0.72077 0.77199 -0.04081
 O1219 O 0.74882 0.70493 0.02188
 O1220 O 0.77839 0.70958 0.01855
 O1221 O 0.72758 0.74911 0.04469
 O1222 O 0.72886 0.78046 0.03886
 O1223 O 0.70448 0.72826 0.00032
 O1224 O 0.71032 0.72911 -0.03071
 O1225 O 0.72792 0.70508 0.00091
 O1226 O 0.72980 0.71160 -0.03148
 O1227 O 0.70446 0.74915 0.02129
 O1228 O 0.71118 0.78124 0.01949
 O1229 O 0.74799 0.72775 0.04453
 O1230 O 0.77948 0.73334 0.03899
 O1231 O 0.75162 0.79711 -0.02224
 O1232 O 0.72071 0.79079 -0.02091
 O1233 O 0.77175 0.75197 -0.04736
 O1234 O 0.76871 0.72041 -0.04044
 O1235 O 0.79644 0.77216 -0.00211
 O1236 O 0.78955 0.76823 0.02928
 Zr1237 Zr 0.77132 0.77138 0.00875
 O1238 O 0.75565 0.75628 0.02538
 Zr1239 Zr 0.77088 0.74102 -0.02221
 O1240 O 0.75574 0.72438 -0.00659
 Zr1241 Zr 0.74068 0.77190 -0.02182
 O1242 O 0.72388 0.75641 -0.00670
 Zr1243 Zr 0.75980 0.72985 0.01991
 O1244 O 0.77685 0.74484 0.00434
 Zr1245 Zr 0.72929 0.76049 0.01982
 O1246 O 0.74490 0.77735 0.00469
 Zr1247 Zr 0.72936 0.72988 -0.01081
 O1248 O 0.74449 0.74542 -0.02786
 O1249 O 0.76690 0.76733 -0.01767
 O1250 O 0.73340 0.73404 0.01566
 C1251 C 0.76401 0.80435 -0.01356
 C1252 C 0.80386 0.76314 -0.01412
 C1253 C 0.76308 0.76426 -0.05472
 C1254 C 0.73632 0.69772 0.01341
 C1255 C 0.73571 0.73638 0.05189
 C1256 C 0.69718 0.73669 0.01280
 H1257 H 0.75850 0.75898 0.03766
 H1258 H 0.71170 0.75926 -0.00961
 H1259 H 0.77440 0.77473 -0.02507
 H1260 H 0.75862 0.71211 -0.00923
 H1261 H 0.78945 0.71503 0.01485
 H1262 H 0.78847 0.71345 -0.01468
 H1263 H 0.70308 0.77923 0.00968
 H1264 H 0.72172 0.79667 -0.00947
 H1265 H 0.77886 0.72340 0.04722
 H1266 H 0.79858 0.77739 0.02824
 H1267 H 0.70393 0.74028 -0.03037
 H1268 H 0.72091 0.76032 -0.04632
 H1269 H 0.75864 0.79597 0.02790
 H1270 H 0.73961 0.77947 0.04586
 H1271 H 0.75813 0.72267 -0.04743
 H1272 H 0.73925 0.70320 -0.02914
 O1273 O 0.99907 0.27288 0.29630
 O1274 O 1.02871 0.27064 0.29077
 O1275 O 0.97810 0.29662 0.25054
 O1276 O 0.97754 0.29140 0.22184
 O1277 O 0.95378 0.25105 0.27218
 O1278 O 0.96021 0.22072 0.27104
 O1279 O 1.02303 0.24926 0.20450
 O1280 O 1.01962 0.27891 0.20932
 O1281 O 1.04552 0.22772 0.24867
 O1282 O 1.03955 0.22901 0.28010
 O1283 O 1.00157 0.20464 0.22751
 O1284 O 0.97052 0.21048 0.22826
 O1285 O 1.00221 0.22822 0.20444
 O1286 O 0.96993 0.22996 0.21069
 O1287 O 1.02229 0.20456 0.24859
 O1288 O 1.02032 0.21120 0.28068
 O1289 O 1.04543 0.24827 0.22740
 O1290 O 1.03990 0.27984 0.23319
 O1291 O 0.97849 0.25157 0.29646
 O1292 O 0.97987 0.22063 0.28999
 O1293 O 0.95367 0.27189 0.25117
 O1294 O 0.96080 0.26909 0.21970
 O1295 O 0.99857 0.29665 0.27192
 O1296 O 1.02991 0.28985 0.26808
 Zr1297 Zr 1.00948 0.27150 0.27102
 O1298 O 1.02620 0.25588 0.25594
 Zr1299 Zr 0.97884 0.27115 0.24045
 O1300 O 0.99454 0.25604 0.22383
 Zr1301 Zr 0.97908 0.24072 0.27119
 O1302 O 0.99430 0.22396 0.25571
 Zr1303 Zr 1.02090 0.26014 0.22948
 O1304 O 1.00526 0.27716 0.24448
 Zr1305 Zr 1.02069 0.22943 0.26000
 O1306 O 1.00545 0.24498 0.27684
 Zr1307 Zr 0.99036 0.22956 0.22918
 O1308 O 0.97324 0.24465 0.24467
 O1309 O 0.98318 0.26704 0.26679
 O1310 O 1.01670 0.23365 0.23353
 C1311 C 0.98711 0.26393 0.30385
 C1312 C 0.98662 0.30411 0.26288
 C1313 C 0.94626 0.26312 0.26335
 C1314 C 1.01468 0.23672 0.19718
 C1315 C 1.05271 0.23589 0.23597
 C1316 C 1.01395 0.19730 0.23602
 H1317 H 1.03842 0.25875 0.25872
 H1318 H 0.99141 0.21174 0.25850
 H1319 H 0.97573 0.27450 0.27419
 H1320 H 0.99197 0.25897 0.21155
 H1321 H 1.01591 0.28996 0.21483
 H1322 H 0.98648 0.28886 0.21296
 H1323 H 1.01053 0.20310 0.27863
 H1324 H 0.99125 0.22160 0.29594
 H1325 H 1.04815 0.27927 0.22328
 H1326 H 1.02879 0.29886 0.27729
 H1327 H 0.97097 0.20387 0.23930
 H1328 H 0.95484 0.22087 0.25931
 H1329 H 1.02853 0.25869 0.29561
 H1330 H 1.04664 0.23970 0.27905
 H1331 H 0.95394 0.25839 0.22175
 H1332 H 0.97223 0.23957 0.20243
 O1333 O 0.74891 1.04668 0.72740
 O1334 O 0.77852 1.04104 0.72973
 O1335 O 0.72789 1.00106 0.70334
 O1336 O 0.72720 0.97236 0.70848
 O1337 O 0.70349 1.02267 0.74897
 O1338 O 0.70986 1.02143 0.77933
 O1339 O 0.77257 0.95480 0.75074
 O1340 O 0.76919 0.95966 0.72108
 O1341 O 0.79513 0.99882 0.77249
 O1342 O 0.78923 1.03028 0.77127
 O1343 O 0.75111 0.97780 0.79539
 O1344 O 0.72002 0.97870 0.78941
 O1345 O 0.75173 0.95477 0.77172
 O1346 O 0.71949 0.96109 0.76993
 O1347 O 0.77187 0.99881 0.79559
 O1348 O 0.77003 1.03086 0.78909
 O1349 O 0.79502 0.97761 0.75183
 O1350 O 0.78954 0.98345 0.72026
 O1351 O 0.72829 1.04687 0.74866
 O1352 O 0.72954 1.04033 0.77956
 O1353 O 0.70337 1.00173 0.72802
 O1354 O 0.71039 0.97026 0.73071
 O1355 O 0.74842 1.02234 0.70349
 O1356 O 0.77970 1.01842 0.71040
 Zr1357 Zr 0.75924 1.02138 0.72869
 O1358 O 0.77589 1.00621 0.74430
 Zr1359 Zr 0.72851 0.99092 0.72880
 O1360 O 0.74412 0.97422 0.74392
 Zr1361 Zr 0.72877 1.02157 0.75938
 O1362 O 0.74393 1.00604 0.77614
 Zr1363 Zr 0.77051 0.97978 0.73992
 O1364 O 0.75495 0.99487 0.72291
 Zr1365 Zr 0.77035 1.01024 0.77075
 O1366 O 0.75517 1.02715 0.75523
 Zr1367 Zr 0.73993 0.97954 0.77043
 O1368 O 0.72287 0.99509 0.75532
 O1369 O 0.73291 1.01723 0.73304
 O1370 O 0.76628 0.98381 0.76642
 C1371 C 0.73696 1.05426 0.73636
 C1372 C 0.73649 1.01336 0.69593
 C1373 C 0.69597 1.01390 0.73683
 C1374 C 0.76420 0.94750 0.76325
 C1375 C 0.80230 0.98612 0.76428
 C1376 C 0.76350 0.98626 0.80279
 H1377 H 0.78812 1.00894 0.74147
 H1378 H 0.74103 1.00881 0.78837
 H1379 H 0.72550 1.02467 0.72558
 H1380 H 0.74153 0.96196 0.74094
 H1381 H 0.76552 0.96520 0.71002
 H1382 H 0.73608 0.96343 0.71103
 H1383 H 0.76018 1.02887 0.79712
 H1384 H 0.74095 1.04621 0.77869
 H1385 H 0.79775 0.97351 0.72081
 H1386 H 0.77865 1.02766 0.70143
 H1387 H 0.72057 0.98967 0.79615
 H1388 H 0.70447 1.00972 0.77911
 H1389 H 0.77832 1.04586 0.74169
 H1390 H 0.79640 1.02917 0.76064
 H1391 H 0.70356 0.97229 0.74145
 H1392 H 0.72174 0.95289 0.76024
 O1393 O 0.70354 0.52257 0.24852
 O1394 O 0.70918 0.52031 0.27824
 O1395 O 0.74907 0.54651 0.22749
 O1396 O 0.77765 0.54134 0.22671
 O1397 O 0.72740 0.50088 0.20303
 O1398 O 0.72869 0.47053 0.20940
 O1399 O 0.79521 0.49928 0.27233
 O1400 O 0.79033 0.52890 0.26894
 O1401 O 0.75133 0.47759 0.29498
 O1402 O 0.72001 0.47870 0.28906
 O1403 O 0.77225 0.45456 0.25072
 O1404 O 0.77144 0.46043 0.21967
 O1405 O 0.79523 0.47825 0.25142
 O1406 O 0.78883 0.48003 0.21901
 O1407 O 0.75136 0.45439 0.27158
 O1408 O 0.71937 0.46093 0.26974
 O1409 O 0.77245 0.49825 0.29487
 O1410 O 0.76661 0.52977 0.28933
 O1411 O 0.70334 0.50125 0.22787
 O1412 O 0.70988 0.47034 0.22918
 O1413 O 0.74828 0.52181 0.20290
 O1414 O 0.77972 0.51905 0.20994
 O1415 O 0.72783 0.54645 0.24804
 O1416 O 0.73174 0.53959 0.27945
 Zr1417 Zr 0.72879 0.52127 0.25892
 O1418 O 0.74393 0.50570 0.27563
 Zr1419 Zr 0.75913 0.52105 0.22810
 O1420 O 0.77581 0.50601 0.24379
 Zr1421 Zr 0.72857 0.49052 0.22837
 O1422 O 0.74410 0.47381 0.24359
 Zr1423 Zr 0.77027 0.51007 0.27026
 O1424 O 0.75521 0.52703 0.25462
 Zr1425 Zr 0.73995 0.47923 0.27009
 O1426 O 0.72304 0.49473 0.25486
 Zr1427 Zr 0.77052 0.47950 0.23958
 O1428 O 0.75496 0.49455 0.22245
 O1429 O 0.73290 0.51686 0.23252
 O1430 O 0.76630 0.48355 0.26602
 C1431 C 0.69599 0.51359 0.23653
 C1432 C 0.73680 0.55396 0.23608
 C1433 C 0.73612 0.51301 0.19549
 C1434 C 0.80250 0.48678 0.26392
 C1435 C 0.76397 0.48584 0.30219
 C1436 C 0.76383 0.44716 0.26313
 H1437 H 0.74121 0.50855 0.28790
 H1438 H 0.74134 0.46158 0.24067
 H1439 H 0.72548 0.52430 0.22509
 H1440 H 0.78803 0.50899 0.24119
 H1441 H 0.78480 0.53994 0.26524
 H1442 H 0.78650 0.53888 0.23571
 H1443 H 0.72137 0.45287 0.25988
 H1444 H 0.70400 0.47128 0.24061
 H1445 H 0.77653 0.52925 0.29757
 H1446 H 0.72254 0.54858 0.27837
 H1447 H 0.76037 0.45390 0.22000
 H1448 H 0.74033 0.47079 0.20393
 H1449 H 0.70438 0.50834 0.27804
 H1450 H 0.72101 0.48943 0.29614
 H1451 H 0.77762 0.50837 0.20301
 H1452 H 0.79710 0.48962 0.22136
 O1453 O 0.50128 0.20332 0.72729
 O1454 O 0.47166 0.20878 0.72953
 O1455 O 0.52208 0.24921 0.70360
 O1456 O 0.52276 0.27782 0.70893
 O1457 O 0.54652 0.22746 0.74921
 O1458 O 0.54008 0.22853 0.77955
 O1459 O 0.47716 0.29503 0.75097
 O1460 O 0.48056 0.29023 0.72134
 O1461 O 0.45472 0.25084 0.77249
 O1462 O 0.46074 0.21947 0.77122
 O1463 O 0.49871 0.27198 0.79566
 O1464 O 0.52966 0.27137 0.78985
 O1465 O 0.49797 0.29510 0.77205
 O1466 O 0.53030 0.28884 0.77030
 O1467 O 0.47801 0.25091 0.79572
 O1468 O 0.47999 0.21886 0.78902
 O1469 O 0.45477 0.27209 0.75192
 O1470 O 0.46033 0.26634 0.72036
 O1471 O 0.52185 0.20315 0.74864
 O1472 O 0.52044 0.20958 0.77959
 O1473 O 0.54658 0.24847 0.72838
 O1474 O 0.53938 0.27994 0.73125
 O1475 O 0.50169 0.22779 0.70352
 O1476 O 0.47035 0.23149 0.71037
 Zr1477 Zr 0.49081 0.22857 0.72870
 O1478 O 0.47407 0.24361 0.74434
 Zr1479 Zr 0.52140 0.25917 0.72912
 O1480 O 0.50567 0.27575 0.74423
 Zr1481 Zr 0.52122 0.22840 0.75951
 O1482 O 0.50597 0.24385 0.77628
 Zr1483 Zr 0.47932 0.27007 0.74010
 O1484 O 0.49499 0.25512 0.72308
 Zr1485 Zr 0.47957 0.23956 0.77081
 O1486 O 0.49484 0.22275 0.75524
 Zr1487 Zr 0.50986 0.27038 0.77072
 O1488 O 0.52701 0.25492 0.75563
 O1489 O 0.51711 0.23283 0.73318
 O1490 O 0.48352 0.26602 0.76661
 C1491 C 0.51325 0.19577 0.73625
 C1492 C 0.51357 0.23690 0.69607
 C1493 C 0.55402 0.23632 0.73716
 C1494 C 0.48551 0.30235 0.76352
 C1495 C 0.44749 0.26351 0.76429
 C1496 C 0.48638 0.26345 0.80301
 H1497 H 0.46186 0.24082 0.74146
 H1498 H 0.50887 0.24105 0.78851
 H1499 H 0.52457 0.22546 0.72570
 H1500 H 0.50822 0.28803 0.74130
 H1501 H 0.48427 0.28474 0.71028
 H1502 H 0.51369 0.28659 0.71136
 H1503 H 0.48980 0.22089 0.79711
 H1504 H 0.50908 0.20362 0.77860
 H1505 H 0.45207 0.27624 0.72092
 H1506 H 0.47149 0.22231 0.70133
 H1507 H 0.52938 0.26024 0.79632
 H1508 H 0.54546 0.24025 0.77940
 H1509 H 0.47182 0.20396 0.74149
 H1510 H 0.45370 0.22046 0.76048
 H1511 H 0.54630 0.27783 0.74192
 H1512 H 0.52793 0.29716 0.76076
 O1513 O 0.29644 0.75132 0.47769
 O1514 O 0.29082 0.72158 0.48002
 O1515 O 0.25102 0.77236 0.45364
 O1516 O 0.22242 0.77313 0.45873
 O1517 O 0.27254 0.79678 0.49940
 O1518 O 0.27123 0.79038 0.52974
 O1519 O 0.20472 0.72760 0.50079
 O1520 O 0.20965 0.73095 0.47119
 O1521 O 0.24861 0.70488 0.52258
 O1522 O 0.27988 0.71077 0.52160
 O1523 O 0.22763 0.74917 0.54559
 O1524 O 0.22848 0.78023 0.53968
 O1525 O 0.20467 0.74852 0.52180
 O1526 O 0.21109 0.78086 0.52008
 O1527 O 0.24851 0.72830 0.54582
 O1528 O 0.28051 0.73010 0.53935
 O1529 O 0.22751 0.70500 0.50187
 O1530 O 0.23337 0.71057 0.47035
 O1531 O 0.29660 0.77196 0.49902
 O1532 O 0.29004 0.77059 0.52994
 O1533 O 0.25173 0.79694 0.47837
 O1534 O 0.22029 0.78992 0.48101
 O1535 O 0.27221 0.75175 0.45378
 O1536 O 0.26830 0.72037 0.46064
 Zr1537 Zr 0.27121 0.74090 0.47897
 O1538 O 0.25602 0.72423 0.49451
 Zr1539 Zr 0.24088 0.77175 0.47908
 O1540 O 0.22417 0.75609 0.49410
 Zr1541 Zr 0.27138 0.77144 0.50973
 O1542 O 0.25580 0.75626 0.52640
 Zr1543 Zr 0.22968 0.72962 0.49007
 O1544 O 0.24479 0.74523 0.47313
 Zr1545 Zr 0.25996 0.72976 0.52099
 O1546 O 0.27690 0.74496 0.50554
 Zr1547 Zr 0.22940 0.76030 0.52063
 O1548 O 0.24499 0.77739 0.50562
 O1549 O 0.26709 0.76730 0.48337
 O1550 O 0.23362 0.73385 0.51661
 C1551 C 0.30397 0.76332 0.48667
 C1552 C 0.26328 0.76372 0.44623
 C1553 C 0.26386 0.80433 0.48724
 C1554 C 0.19740 0.73605 0.51326
 C1555 C 0.23601 0.69766 0.51427
 C1556 C 0.23604 0.73677 0.55302
 H1557 H 0.25875 0.71196 0.49165
 H1558 H 0.25854 0.75917 0.53865
 H1559 H 0.27452 0.77473 0.47593
 H1560 H 0.21196 0.75871 0.49109
 H1561 H 0.21519 0.73467 0.46016
 H1562 H 0.21353 0.76417 0.46119
 H1563 H 0.27851 0.73996 0.54740
 H1564 H 0.29594 0.75917 0.52899
 H1565 H 0.22346 0.70233 0.47084
 H1566 H 0.27754 0.72143 0.45169
 H1567 H 0.23949 0.77982 0.54631
 H1568 H 0.25959 0.79585 0.52948
 H1569 H 0.29566 0.72186 0.49198
 H1570 H 0.27899 0.70378 0.51080
 H1571 H 0.22236 0.79684 0.49171
 H1572 H 0.20290 0.77858 0.51040
 O1573 O 0.29642 0.25097 0.97781
 O1574 O 0.29081 0.22125 0.98007
 O1575 O 0.25087 0.27203 0.95394
 O1576 O 0.22227 0.27264 0.95911
 O1577 O 0.27252 0.29645 0.99957
 O1578 O 0.27135 0.29005 1.02992
 O1579 O 0.20485 0.22711 1.00131
 O1580 O 0.20963 0.23050 0.97166
 O1581 O 0.24888 0.20450 1.02287
 O1582 O 0.28019 0.21049 1.02169
 O1583 O 0.22784 0.24865 1.04593
 O1584 O 0.22872 0.27980 1.04008
 O1585 O 0.20486 0.24806 1.02230
 O1586 O 0.21120 0.28040 1.02057
 O1587 O 0.24877 0.22782 1.04605
 O1588 O 0.28077 0.22978 1.03953
 O1589 O 0.22766 0.20459 1.00228
 O1590 O 0.23338 0.21014 0.97072
 O1591 O 0.29665 0.27163 0.99912
 O1592 O 0.29020 0.27031 1.03005
 O1593 O 0.25158 0.29656 0.97867
 O1594 O 0.22019 0.28947 0.98141
 O1595 O 0.27211 0.25146 0.95397
 O1596 O 0.26820 0.22006 0.96079
 Zr1597 Zr 0.27119 0.24056 0.97914
 O1598 O 0.25611 0.22385 0.99475
 Zr1599 Zr 0.24081 0.27134 0.97941
 O1600 O 0.22420 0.25566 0.99450
 Zr1601 Zr 0.27145 0.27110 1.00992
 O1602 O 0.25599 0.25588 1.02666
 Zr1603 Zr 0.22975 0.22920 0.99044
 O1604 O 0.24475 0.24483 0.97343
 Zr1605 Zr 0.26018 0.22940 1.02122
 O1606 O 0.27701 0.24463 1.00569
 Zr1607 Zr 0.22956 0.25987 1.02101
 O1608 O 0.24504 0.27700 1.00592
 O1609 O 0.26705 0.26695 0.98357
 O1610 O 0.23381 0.23344 1.01695
 C1611 C 0.30398 0.26296 0.98677
 C1612 C 0.26315 0.26345 0.94648
 C1613 C 0.26374 0.30399 0.98747
 C1614 C 0.19759 0.23554 1.01382
 C1615 C 0.23622 0.19727 1.01465
 C1616 C 0.23626 0.23620 1.05328
 H1617 H 0.25886 0.21159 0.99189
 H1618 H 0.25877 0.25878 1.03890
 H1619 H 0.27445 0.27440 0.97612
 H1620 H 0.21197 0.25825 0.99155
 H1621 H 0.21511 0.23420 0.96060
 H1622 H 0.21338 0.26371 0.96165
 H1623 H 0.27872 0.23959 1.04764
 H1624 H 0.29606 0.25887 1.02913
 H1625 H 0.22348 0.20189 0.97127
 H1626 H 0.27739 0.22115 0.95180
 H1627 H 0.23971 0.27930 1.04675
 H1628 H 0.25967 0.29545 1.02974
 H1629 H 0.29568 0.22147 0.99201
 H1630 H 0.27915 0.20339 1.01098
 H1631 H 0.22226 0.29637 0.99212
 H1632 H 0.20297 0.27812 1.01092
 C1633 C 0.28002 0.39611 0.77916
 C1634 C 0.26605 0.40428 0.78748
 C1635 C 0.26069 0.42085 0.78220
 C1636 C 0.29093 0.36534 0.79008
 C1637 C 0.28319 0.42109 0.76012
 C1638 C 0.28852 0.40451 0.76543
 C1639 C 0.28589 0.37930 0.78500
 C1640 C 0.26925 0.42951 0.76850
 H1641 H 0.25941 0.39790 0.79815
 H1642 H 0.24995 0.42693 0.78898
 H1643 H 0.29012 0.42736 0.74957
 H1644 H 0.29938 0.39832 0.75893
 C1645 C 0.27895 -0.10653 0.27787
 C1646 C 0.26540 -0.09815 0.28664
 C1647 C 0.26033 -0.08137 0.28173
 C1648 C 0.28982 -0.13740 0.28860
 C1649 C 0.28223 -0.08140 0.25906
 C1650 C 0.28727 -0.09818 0.26400
 C1651 C 0.28476 -0.12342 0.28356
 C1652 C 0.26880 -0.07271 0.26797
 H1653 H 0.25890 -0.10448 0.29743
 H1654 H 0.24996 -0.07510 0.28890
 H1655 H 0.28906 -0.07515 0.24843
 H1656 H 0.29782 -0.10454 0.25715
 C1657 C 0.78030 0.89634 0.77931
 C1658 C 0.76628 0.90450 0.78755
 C1659 C 0.76088 0.92103 0.78218
 C1660 C 0.79132 0.86566 0.79042
 C1661 C 0.78344 0.92124 0.76016
 C1662 C 0.78881 0.90470 0.76556
 C1663 C 0.78622 0.87959 0.78526
 C1664 C 0.76945 0.92965 0.76846
 H1665 H 0.75963 0.89815 0.79824
 H1666 H 0.75011 0.92711 0.78890
 H1667 H 0.79038 0.92749 0.74961
 H1668 H 0.79971 0.89852 0.75913
 C1669 C 0.47083 0.85468 0.27924
 C1670 C 0.48469 0.84643 0.28765
 C1671 C 0.48990 0.82977 0.28247
 C1672 C 0.46022 0.88562 0.29002
 C1673 C 0.46746 0.82961 0.26028
 C1674 C 0.46227 0.84627 0.26550
 C1675 C 0.46512 0.87157 0.28499
 C1676 C 0.48130 0.82112 0.26876
 H1677 H 0.49137 0.85280 0.29834
 H1678 H 0.50057 0.82363 0.28932
 H1679 H 0.46051 0.82335 0.24972
 H1680 H 0.45149 0.85253 0.25893
 C1681 C -0.03092 0.85375 0.78005
 C1682 C -0.03942 0.84546 0.76622
 C1683 C -0.03396 0.82902 0.76061
 C1684 C -0.04218 0.88417 0.79165
 C1685 C -0.01132 0.82918 0.78260
 C1686 C -0.01681 0.84562 0.78817
 C1687 C -0.03697 0.87037 0.78626
 C1688 C -0.01989 0.82062 0.76881
 H1689 H -0.05039 0.85163 0.75988
 H1690 H -0.04090 0.82281 0.75001
 H1691 H -0.00048 0.82311 0.78925
 H1692 H -0.01017 0.85191 0.79893
 C1693 C -0.02957 -0.10468 -0.02922
 C1694 C -0.01569 -0.09639 -0.03754
 C1695 C -0.01048 -0.07976 -0.03227
 C1696 C -0.04018 -0.13556 -0.04021
 C1697 C -0.03298 -0.07969 -0.01018
 C1698 C -0.03816 -0.09633 -0.01549
 C1699 C -0.03528 -0.12155 -0.03509
 C1700 C -0.01912 -0.07115 -0.01857
 H1701 H -0.00899 -0.10272 -0.04822
 H1702 H 0.00020 -0.07359 -0.03905
 H1703 H -0.03995 -0.07346 0.00037
 H1704 H -0.04896 -0.10262 -0.00899
 C1705 C -0.03031 0.39559 0.47097
 C1706 C -0.01642 0.40382 0.46260
 C1707 C -0.01122 0.42050 0.46775
 C1708 C -0.04073 0.36450 0.46038
 C1709 C -0.03377 0.42076 0.48977
 C1710 C -0.03894 0.40407 0.48459
 C1711 C -0.03594 0.37862 0.46531
 C1712 C -0.01987 0.42921 0.48137
 H1713 H -0.00967 0.39738 0.45201
 H1714 H -0.00050 0.42660 0.46095
 H1715 H -0.04077 0.42708 0.50026
 H1716 H -0.04975 0.39784 0.49113
 C1717 C 0.46980 -0.10383 0.47116
 C1718 C 0.48387 -0.09571 0.46300
 C1719 C 0.48922 -0.07914 0.46835
 C1720 C 0.45895 -0.13458 0.46000
 C1721 C 0.46648 -0.07882 0.49019
 C1722 C 0.46116 -0.09539 0.48480
 C1723 C 0.46395 -0.12063 0.46520
 C1724 C 0.48053 -0.07044 0.48196
 H1725 H 0.49062 -0.10211 0.45240
 H1726 H 0.50005 -0.07309 0.46169
 H1727 H 0.45945 -0.07251 0.50065
 H1728 H 0.45022 -0.10155 0.49117
 C1729 C 0.47118 0.39369 -0.02803
 C1730 C 0.48501 0.40197 -0.03646
 C1731 C 0.48998 0.41877 -0.03153
 C1732 C 0.46059 0.36272 -0.03881
 C1733 C 0.46744 0.41901 -0.00949
 C1734 C 0.46249 0.40219 -0.01446
 C1735 C 0.46552 0.37675 -0.03375
 C1736 C 0.48116 0.42758 -0.01808
 H1737 H 0.49180 0.39552 -0.04702
 H1738 H 0.50058 0.42495 -0.03844
 H1739 H 0.46034 0.42537 0.00089
 H1740 H 0.45174 0.39591 -0.00788
 C1741 C 0.77885 0.35565 0.47215
 C1742 C 0.76510 0.34734 0.46358
 C1743 C 0.75992 0.33065 0.46864
 C1744 C 0.79004 0.38621 0.46095
 C1745 C 0.78208 0.33062 0.49112
 C1746 C 0.78723 0.34732 0.48602
 C1747 C 0.78482 0.37238 0.46622
 C1748 C 0.76847 0.32199 0.48236
 H1749 H 0.75856 0.35366 0.45279
 H1750 H 0.74942 0.32443 0.46159
 H1751 H 0.78897 0.32436 0.50171
 H1752 H 0.79792 0.35362 0.49271
 C1753 C 0.77943 0.85607 -0.02839
 C1754 C 0.76537 0.84801 -0.03669
 C1755 C 0.76010 0.83134 -0.03162
 C1756 C 0.79071 0.88663 -0.03954
 C1757 C 0.78278 0.83086 -0.00969
 C1758 C 0.78803 0.84753 -0.01479
 C1759 C 0.78546 0.87279 -0.03430
 C1760 C 0.76885 0.82248 -0.01817
 H1761 H 0.75866 0.85449 -0.04727
 H1762 H 0.74935 0.82531 -0.03845
 H1763 H 0.78984 0.82444 0.00069
 H1764 H 0.79896 0.85364 -0.00831
 C1765 C 0.77790 0.27816 0.39400
 C1766 C 0.76436 0.28687 0.40246
 C1767 C 0.75935 0.28190 0.41924
 C1768 C 0.78868 0.28891 0.36312
 C1769 C 0.78131 0.25927 0.41908
 C1770 C 0.78628 0.26427 0.40230
 C1771 C 0.78364 0.28388 0.37711
 C1772 C 0.76788 0.26813 0.42783
 H1773 H 0.75781 0.29767 0.39617
 H1774 H 0.74898 0.28903 0.42556
 H1775 H 0.78818 0.24864 0.42528
 H1776 H 0.79682 0.25747 0.39588
 C1777 C 0.77823 0.77966 -0.10636
 C1778 C 0.76458 0.78824 -0.09793
 C1779 C 0.75936 0.78299 -0.08130
 C1780 C 0.78959 0.79099 -0.13683
 C1781 C 0.78130 0.76034 -0.08158
 C1782 C 0.78648 0.76562 -0.09821
 C1783 C 0.78426 0.78572 -0.12303
 C1784 C 0.76779 0.76908 -0.07283
 H1785 H 0.75813 0.79916 -0.10411
 H1786 H 0.74894 0.79004 -0.07497
 H1787 H 0.78809 0.74961 -0.07547
 H1788 H 0.79710 0.75892 -0.10460
 C1789 C 0.27876 0.47068 0.85450
 C1790 C 0.26510 0.46206 0.84608
 C1791 C 0.25991 0.46721 0.82940
 C1792 C 0.28942 0.46021 0.88555
 C1793 C 0.28198 0.48975 0.82955
 C1794 C 0.28713 0.48457 0.84623
 C1795 C 0.28445 0.46504 0.87145
 C1796 C 0.26834 0.48108 0.82088
 H1797 H 0.25856 0.45126 0.85236
 H1798 H 0.24940 0.46022 0.82313
 H1799 H 0.28879 0.50044 0.82340
 H1800 H 0.29775 0.49130 0.85261
 C1801 C 0.27915 -0.02862 0.35626
 C1802 C 0.28727 -0.01461 0.34794
 C1803 C 0.28209 -0.00965 0.33120
 C1804 C 0.29035 -0.03924 0.38707
 C1805 C 0.26044 -0.03259 0.33113
 C1806 C 0.26565 -0.03752 0.34788
 C1807 C 0.28512 -0.03428 0.37311
 C1808 C 0.26871 -0.01869 0.32251
 H1809 H 0.29776 -0.00766 0.35430
 H1810 H 0.28876 0.00109 0.32499
 H1811 H 0.25012 -0.03986 0.32485
 H1812 H 0.25931 -0.04842 0.35419
 C1813 C -0.03075 -0.03134 -0.10329
 C1814 C -0.03926 -0.01756 -0.09497
 C1815 C -0.03380 -0.01198 -0.07850
 C1816 C -0.04201 -0.04265 -0.13384
 C1817 C -0.01113 -0.03390 -0.07869
 C1818 C -0.01664 -0.03945 -0.09515
 C1819 C -0.03677 -0.03744 -0.11997
 C1820 C -0.01970 -0.02014 -0.07012
 H1821 H -0.05024 -0.01122 -0.10113
 H1822 H -0.04073 -0.00139 -0.07229
 H1823 H -0.00028 -0.04052 -0.07262
 H1824 H -0.00999 -0.05017 -0.10147
 C1825 C -0.02989 0.47020 0.39546
 C1826 C -0.01618 0.46162 0.40381
 C1827 C -0.01086 0.46685 0.42044
 C1828 C -0.04083 0.45950 0.36457
 C1829 C -0.03290 0.48941 0.42037
 C1830 C -0.03818 0.48415 0.40374
 C1831 C -0.03574 0.46444 0.37860
 C1832 C -0.01922 0.48078 0.42897
 H1833 H -0.00970 0.45077 0.39753
 H1834 H -0.00033 0.45988 0.42666
 H1835 H -0.03965 0.50014 0.42653
 H1836 H -0.04884 0.49085 0.39742
 C1837 C 0.47138 -0.02981 0.39592
 C1838 C 0.46290 -0.01593 0.40412
 C1839 C 0.46796 -0.01063 0.42080
 C1840 C 0.46088 -0.04057 0.36491
 C1841 C 0.49015 -0.03305 0.42110
 C1842 C 0.48505 -0.03831 0.40441
 C1843 C 0.46577 -0.03560 0.37899
 C1844 C 0.48161 -0.01918 0.42954
 H1845 H 0.45227 -0.00929 0.39767
 H1846 H 0.46108 0.00005 0.42689
 H1847 H 0.50067 -0.03995 0.42743
 H1848 H 0.49167 -0.04911 0.39820
 C1849 C 0.47149 0.47138 -0.10646
 C1850 C 0.46297 0.48513 -0.09810
 C1851 C 0.46801 0.49024 -0.08135
 C1852 C 0.46037 0.46033 -0.13715
 C1853 C 0.49036 0.46800 -0.08138
 C1854 C 0.48528 0.46292 -0.09813
 C1855 C 0.46560 0.46548 -0.12326
 C1856 C 0.48167 0.48162 -0.07271
 H1857 H 0.45224 0.49174 -0.10442
 H1858 H 0.46101 0.50075 -0.07509
 H1859 H 0.50090 0.46105 -0.07513
 H1860 H 0.49194 0.45222 -0.10447
 C1861 C 0.47041 0.78095 0.35387
 C1862 C 0.48439 0.78918 0.34565
 C1863 C 0.48971 0.78377 0.32909
 C1864 C 0.45957 0.79190 0.38469
 C1865 C 0.46712 0.76176 0.32897
 C1866 C 0.46183 0.76720 0.34553
 C1867 C 0.46461 0.78685 0.37070
 C1868 C 0.48110 0.77003 0.32051
 H1869 H 0.49109 0.79987 0.35198
 H1870 H 0.50048 0.79047 0.32298
 H1871 H 0.46016 0.75118 0.32276
 H1872 H 0.45096 0.76077 0.35176
 C1873 C -0.02944 0.77960 0.85423
 C1874 C -0.01570 0.78813 0.84591
 C1875 C -0.01046 0.78292 0.82926
 C1876 C -0.04018 0.79030 0.88517
 C1877 C -0.03266 0.76050 0.82925
 C1878 C -0.03786 0.76575 0.84590
 C1879 C -0.03519 0.78535 0.87112
 C1880 C -0.01893 0.76908 0.82068
 H1881 H -0.00912 0.79890 0.85223
 H1882 H 0.00011 0.78984 0.82306
 H1883 H -0.03951 0.74984 0.82305
 H1884 H -0.04855 0.75909 0.85221
 C1885 C 0.39627 0.77912 0.27987
 C1886 C 0.40470 0.76553 0.28859
 C1887 C 0.42134 0.76034 0.28346
 C1888 C 0.36526 0.78969 0.29024
 C1889 C 0.42113 0.78229 0.26077
 C1890 C 0.40450 0.78744 0.26593
 C1891 C 0.37935 0.78478 0.28546
 C1892 C 0.42980 0.76871 0.26952
 H1893 H 0.39846 0.75902 0.29943
 H1894 H 0.42762 0.74988 0.29053
 H1895 H 0.42724 0.78906 0.25002
 H1896 H 0.39810 0.79801 0.25912
 C1897 C -0.10361 0.78046 0.78013
 C1898 C -0.09549 0.76641 0.78839
 C1899 C -0.07900 0.76097 0.78304
 C1900 C -0.13428 0.79156 0.79097
 C1901 C -0.07876 0.78358 0.76101
 C1902 C -0.09524 0.78899 0.76639
 C1903 C -0.12035 0.78640 0.78597
 C1904 C -0.07040 0.76954 0.76931
 H1905 H -0.10185 0.75975 0.79907
 H1906 H -0.07296 0.75015 0.78976
 H1907 H -0.07253 0.79052 0.75044
 H1908 H -0.10140 0.79991 0.75993
 C1909 C 0.85597 0.27759 0.47192
 C1910 C 0.84754 0.26404 0.46312
 C1911 C 0.83081 0.25897 0.46808
 C1912 C 0.88671 0.28865 0.46127
 C1913 C 0.83100 0.28088 0.49085
 C1914 C 0.84773 0.28591 0.48587
 C1915 C 0.87279 0.28345 0.46623
 C1916 C 0.82226 0.26745 0.48191
 H1917 H 0.85380 0.25755 0.45227
 H1918 H 0.82448 0.24862 0.46088
 H1919 H 0.82484 0.28771 0.50154
 H1920 H 0.85412 0.29645 0.49275
 C1921 C 0.85577 0.77745 -0.02890
 C1922 C 0.84735 0.76370 -0.03739
 C1923 C 0.83061 0.75877 -0.03234
 C1924 C 0.88646 0.78832 -0.03987
 C1925 C 0.83078 0.78120 -0.01008
 C1926 C 0.84751 0.78609 -0.01515
 C1927 C 0.87257 0.78320 -0.03476
 C1928 C 0.82204 0.76758 -0.01873
 H1929 H 0.85361 0.75696 -0.04808
 H1930 H 0.82429 0.74826 -0.03931
 H1931 H 0.82460 0.78829 0.00043
 H1932 H 0.85390 0.79680 -0.00852
 C1933 C -0.10389 -0.02980 -0.03024
 C1934 C -0.09556 -0.01604 -0.03875
 C1935 C -0.07904 -0.01066 -0.03338
 C1936 C -0.13459 -0.04079 -0.04121
 C1937 C -0.07919 -0.03275 -0.01083
 C1938 C -0.09571 -0.03810 -0.01623
 C1939 C -0.12065 -0.03570 -0.03613
 C1940 C -0.07060 -0.01901 -0.01940
 H1941 H -0.10176 -0.00956 -0.04964
 H1942 H -0.07282 -0.00009 -0.04032
 H1943 H -0.07310 -0.03951 -0.00006
 H1944 H -0.10203 -0.04880 -0.00957
 C1945 C -0.10392 0.47010 0.46948
 C1946 C -0.09572 0.48410 0.46122
 C1947 C -0.07917 0.48940 0.46656
 C1948 C -0.13471 0.45931 0.45862
 C1949 C -0.07903 0.46675 0.48856
 C1950 C -0.09557 0.46148 0.48318
 C1951 C -0.12073 0.46432 0.46363
 C1952 C -0.07058 0.48075 0.48026
 H1953 H -0.10205 0.49083 0.45056
 H1954 H -0.07306 0.50019 0.45985
 H1955 H -0.07281 0.45976 0.49911
 H1956 H -0.10180 0.45060 0.48964
 C1957 C 0.39642 -0.02963 0.47003
 C1958 C 0.40466 -0.01566 0.46176
 C1959 C 0.42123 -0.01041 0.46706
 C1960 C 0.36548 -0.04019 0.45934
 C1961 C 0.42136 -0.03307 0.48904
 C1962 C 0.40479 -0.03829 0.48370
 C1963 C 0.37954 -0.03530 0.46427
 C1964 C 0.42982 -0.01909 0.48075
 H1965 H 0.39832 -0.00889 0.45112
 H1966 H 0.42735 0.00037 0.46035
 H1967 H 0.42758 -0.04008 0.49958
 H1968 H 0.39854 -0.04916 0.49017
 C1969 C 0.39362 0.47225 -0.02867
 C1970 C 0.40207 0.48577 -0.03746
 C1971 C 0.41884 0.49076 -0.03253
 C1972 C 0.36274 0.46148 -0.03931
 C1973 C 0.41866 0.46886 -0.00979
 C1974 C 0.40189 0.46390 -0.01476
 C1975 C 0.37673 0.46652 -0.03434
 C1976 C 0.42741 0.48226 -0.01872
 H1977 H 0.39580 0.49230 -0.04828
 H1978 H 0.42517 0.50110 -0.03971
 H1979 H 0.42484 0.46201 0.00087
 H1980 H 0.39548 0.45338 -0.00789
 C1981 C 0.35329 0.47025 0.78008
 C1982 C 0.34511 0.48421 0.78844
 C1983 C 0.32853 0.48951 0.78319
 C1984 C 0.38415 0.45947 0.79069
 C1985 C 0.32833 0.46691 0.76109
 C1986 C 0.34489 0.46165 0.76637
 C1987 C 0.37014 0.46448 0.78580
 C1988 C 0.31990 0.48088 0.76948
 H1989 H 0.35148 0.49093 0.79910
 H1990 H 0.32244 0.50027 0.78998
 H1991 H 0.32208 0.45994 0.75053
 H1992 H 0.35110 0.45079 0.75984
 C1993 C 0.35646 -0.02811 0.27830
 C1994 C 0.34808 -0.01448 0.28701
 C1995 C 0.33133 -0.00946 0.28207
 C1996 C 0.38720 -0.03908 0.28907
 C1997 C 0.33140 -0.03155 0.25947
 C1998 C 0.34814 -0.03654 0.26444
 C1999 C 0.37328 -0.03393 0.28403
 C2000 C 0.32271 -0.01805 0.26833
 H2001 H 0.35439 -0.00790 0.29780
 H2002 H 0.32505 0.00096 0.28920
 H2003 H 0.32518 -0.03847 0.24886
 H2004 H 0.35450 -0.04714 0.25764
 C2005 C 0.14350 0.52792 0.72294
 C2006 C 0.15181 0.51413 0.71441
 C2007 C 0.16864 0.50928 0.71923
 C2008 C 0.11243 0.53823 0.71245
 C2009 C 0.16884 0.53187 0.74132
 C2010 C 0.15200 0.53670 0.73647
 C2011 C 0.12651 0.53344 0.71738
 C2012 C 0.17743 0.51818 0.73266
 H2013 H 0.14536 0.50727 0.70389
 H2014 H 0.17483 0.49870 0.71226
 H2015 H 0.17519 0.53904 0.75169
 H2016 H 0.14570 0.54743 0.74313
 C2017 C 0.14704 0.02991 0.22028
 C2018 C 0.15525 0.03819 0.23430
 C2019 C 0.17173 0.03277 0.23973
 C2020 C 0.11640 0.04092 0.20924
 C2021 C 0.17179 0.01063 0.21717
 C2022 C 0.15531 0.01608 0.21178
 C2023 C 0.13031 0.03584 0.21436
 C2024 C 0.18024 0.01896 0.23118
 H2025 H 0.14898 0.04894 0.24095
 H2026 H 0.17785 0.03951 0.25051
 H2027 H 0.17794 -0.00000 0.21025
 H2028 H 0.14909 0.00961 0.20088
 C2029 C 0.60592 0.72205 0.22211
 C2030 C 0.59749 0.71320 0.23560
 C2031 C 0.58077 0.71815 0.24070
 C2032 C 0.63667 0.71139 0.21108
 C2033 C 0.58097 0.74104 0.21895
 C2034 C 0.59768 0.73605 0.21389
 C2035 C 0.62274 0.71636 0.21625
 C2036 C 0.57223 0.73204 0.23231
 H2037 H 0.60374 0.70231 0.24203
 H2038 H 0.57445 0.71092 0.25101
 H2039 H 0.57481 0.75177 0.21219
 H2040 H 0.60408 0.74297 0.20340
 C2041 C 0.10581 0.72224 0.72259
 C2042 C 0.09754 0.73612 0.71420
 C2043 C 0.08075 0.74103 0.71909
 C2044 C 0.13671 0.71174 0.71186
 C2045 C 0.08054 0.71830 0.74101
 C2046 C 0.09733 0.71342 0.73608
 C2047 C 0.12271 0.71663 0.71690
 C2048 C 0.07197 0.73208 0.73246
 H2049 H 0.10397 0.74300 0.70371
 H2050 H 0.07458 0.75167 0.71222
 H2051 H 0.07419 0.71111 0.75133
 H2052 H 0.10361 0.70262 0.74263
 C2053 C 0.64610 0.22054 0.52916
 C2054 C 0.65455 0.23412 0.53788
 C2055 C 0.67124 0.23920 0.53283
 C2056 C 0.61490 0.21042 0.53941
 C2057 C 0.67105 0.21712 0.51021
 C2058 C 0.65436 0.21207 0.51530
 C2059 C 0.62908 0.21508 0.53465
 C2060 C 0.67972 0.23073 0.51895
 H2061 H 0.64828 0.24073 0.54866
 H2062 H 0.67751 0.24969 0.53987
 H2063 H 0.67718 0.21028 0.49951
 H2064 H 0.64794 0.20150 0.50849
 C2065 C 0.64599 0.72077 0.02850
 C2066 C 0.65427 0.71237 0.01461
 C2067 C 0.67082 0.71770 0.00933
 C2068 C 0.61532 0.70976 0.03940
 C2069 C 0.67079 0.73998 0.03175
 C2070 C 0.65424 0.73462 0.03700
 C2071 C 0.62924 0.71486 0.03433
 C2072 C 0.67933 0.73151 0.01790
 H2073 H 0.64801 0.70160 0.00797
 H2074 H 0.67700 0.71085 -0.00134
 H2075 H 0.67695 0.75062 0.03867
 H2076 H 0.64796 0.74118 0.04780
 C2077 C 0.10544 0.02822 0.02803
 C2078 C 0.09696 0.03698 0.01450
 C2079 C 0.08026 0.03194 0.00942
 C2080 C 0.13607 0.03917 0.03916
 C2081 C 0.08058 0.00913 0.03125
 C2082 C 0.09728 0.01421 0.03630
 C2083 C 0.12221 0.03406 0.03393
 C2084 C 0.07178 0.01804 0.01785
 H2085 H 0.10316 0.04789 0.00805
 H2086 H 0.07390 0.03911 -0.00092
 H2087 H 0.07447 -0.00160 0.03804
 H2088 H 0.10371 0.00737 0.04683
 C2089 C 0.10571 0.52809 0.52706
 C2090 C 0.09744 0.51430 0.53559
 C2091 C 0.08067 0.50928 0.53068
 C2092 C 0.13652 0.53889 0.53782
 C2093 C 0.08049 0.53172 0.50846
 C2094 C 0.09725 0.53670 0.51341
 C2095 C 0.12257 0.53385 0.53277
 C2096 C 0.07192 0.51804 0.51715
 H2097 H 0.10385 0.50758 0.54621
 H2098 H 0.07449 0.49872 0.53767
 H2099 H 0.07416 0.53876 0.49802
 H2100 H 0.10352 0.54743 0.50675
 C2101 C 0.60600 0.02880 0.52754
 C2102 C 0.59773 0.01510 0.53624
 C2103 C 0.58095 0.01005 0.53140
 C2104 C 0.63689 0.03961 0.53808
 C2105 C 0.58076 0.03224 0.50895
 C2106 C 0.59753 0.03727 0.51382
 C2107 C 0.62289 0.03457 0.53313
 C2108 C 0.57219 0.01866 0.51779
 H2109 H 0.60415 0.00849 0.54692
 H2110 H 0.57477 -0.00044 0.53851
 H2111 H 0.57443 0.03918 0.49843
 H2112 H 0.60380 0.04792 0.50703
 C2113 C 0.60336 0.53015 0.02834
 C2114 C 0.59520 0.51617 0.03667
 C2115 C 0.57863 0.51084 0.03144
 C2116 C 0.63414 0.54099 0.03918
 C2117 C 0.57837 0.53341 0.00936
 C2118 C 0.59494 0.53871 0.01463
 C2119 C 0.62017 0.53598 0.03413
 C2120 C 0.56997 0.51945 0.01776
 H2121 H 0.60159 0.50948 0.04733
 H2122 H 0.57257 0.50008 0.03823
 H2123 H 0.57209 0.54038 -0.00116
 H2124 H 0.60112 0.54958 0.00812
 C2125 C 0.02914 0.02793 0.10598
 C2126 C 0.01520 0.03630 0.09781
 C2127 C 0.00987 0.03111 0.08117
 C2128 C 0.04059 0.03932 0.13644
 C2129 C 0.03226 0.00891 0.08093
 C2130 C 0.03756 0.01414 0.09757
 C2131 C 0.03526 0.03398 0.12265
 C2132 C 0.01846 0.01746 0.07244
 H2133 H 0.00862 0.04703 0.10418
 H2134 H -0.00077 0.03801 0.07505
 H2135 H 0.03919 -0.00162 0.07462
 H2136 H 0.04840 0.00760 0.10376
 C2137 C 0.02771 0.52696 0.60605
 C2138 C 0.03624 0.51326 0.59759
 C2139 C 0.03139 0.50845 0.58069
 C2140 C 0.03808 0.53740 0.63722
 C2141 C 0.00926 0.53092 0.58074
 C2142 C 0.01414 0.53569 0.59763
 C2143 C 0.03326 0.53248 0.62309
 C2144 C 0.01792 0.51732 0.57199
 H2145 H 0.04680 0.50645 0.60397
 H2146 H 0.03836 0.49796 0.57437
 H2147 H -0.00114 0.53805 0.57446
 H2148 H 0.00748 0.54634 0.60404
 C2149 C 0.52815 0.02814 0.60643
 C2150 C 0.51460 0.03685 0.59796
 C2151 C 0.50963 0.03191 0.58114
 C2152 C 0.53875 0.03880 0.63746
 C2153 C 0.53163 0.00933 0.58127
 C2154 C 0.53657 0.01430 0.59810
 C2155 C 0.53381 0.03381 0.62340
 C2156 C 0.51819 0.01817 0.57251
 H2157 H 0.50802 0.04761 0.60428
 H2158 H 0.49925 0.03903 0.57481
 H2159 H 0.53853 -0.00128 0.57505
 H2160 H 0.54711 0.00749 0.60452
 C2161 C 0.52911 0.52893 0.10390
 C2162 C 0.53763 0.51522 0.09546
 C2163 C 0.53246 0.51006 0.07876
 C2164 C 0.53964 0.53947 0.13498
 C2165 C 0.51009 0.53229 0.07892
 C2166 C 0.51530 0.53741 0.09562
 C2167 C 0.53477 0.53457 0.12087
 C2168 C 0.51865 0.51859 0.07025
 H2169 H 0.54837 0.50859 0.10174
 H2170 H 0.53937 0.49951 0.07248
 H2171 H 0.49945 0.53918 0.07278
 H2172 H 0.50864 0.54807 0.10202
 C2173 C 0.22150 0.52756 0.64397
 C2174 C 0.21295 0.51385 0.65236
 C2175 C 0.21788 0.50890 0.66918
 C2176 C 0.21087 0.53839 0.61305
 C2177 C 0.24015 0.53124 0.66918
 C2178 C 0.23519 0.53615 0.65237
 C2179 C 0.21582 0.53329 0.62706
 C2180 C 0.23145 0.51764 0.67787
 H2181 H 0.20230 0.50715 0.64599
 H2182 H 0.21088 0.49841 0.67546
 H2183 H 0.25063 0.53827 0.67545
 H2184 H 0.24187 0.54682 0.64601
 C2185 C 0.22007 0.02839 0.14632
 C2186 C 0.21139 0.01479 0.15477
 C2187 C 0.21668 0.00947 0.17137
 C2188 C 0.20934 0.03942 0.11551
 C2189 C 0.23946 0.03128 0.17105
 C2190 C 0.23415 0.03656 0.15446
 C2191 C 0.21428 0.03427 0.12949
 C2192 C 0.23074 0.01771 0.17976
 H2193 H 0.20044 0.00841 0.14859
 H2194 H 0.20963 -0.00097 0.17769
 H2195 H 0.25030 0.03795 0.17711
 H2196 H 0.24093 0.04713 0.14805
 C2197 C 0.72040 0.22158 0.60443
 C2198 C 0.71175 0.23517 0.59594
 C2199 C 0.71684 0.24023 0.57921
 C2200 C 0.71011 0.21122 0.63562
 C2201 C 0.73935 0.21815 0.57946
 C2202 C 0.73423 0.21312 0.59618
 C2203 C 0.71485 0.21604 0.62145
 C2204 C 0.73067 0.23174 0.57073
 H2205 H 0.70099 0.24177 0.60220
 H2206 H 0.70983 0.25070 0.57289
 H2207 H 0.75002 0.21130 0.57333
 H2208 H 0.74098 0.20255 0.60263
 C2209 C 0.71996 0.72077 0.10330
 C2210 C 0.71172 0.73477 0.09506
 C2211 C 0.71692 0.73996 0.07841
 C2212 C 0.70953 0.71032 0.13441
 C2213 C 0.73871 0.71716 0.07819
 C2214 C 0.73348 0.71201 0.09485
 C2215 C 0.71433 0.71517 0.12027
 C2216 C 0.73046 0.73118 0.06973
 H2217 H 0.70121 0.74161 0.10148
 H2218 H 0.71025 0.75077 0.07229
 H2219 H 0.74914 0.71008 0.07191
 H2220 H 0.73992 0.70112 0.10109
 C2221 C 0.52878 0.72236 0.14410
 C2222 C 0.53733 0.73608 0.15252
 C2223 C 0.53224 0.74119 0.16924
 C2224 C 0.53983 0.71120 0.11344
 C2225 C 0.50981 0.71901 0.16907
 C2226 C 0.51493 0.71394 0.15234
 C2227 C 0.53468 0.71644 0.12732
 C2228 C 0.51852 0.73260 0.17780
 H2229 H 0.54811 0.74266 0.14627
 H2230 H 0.53926 0.75168 0.17556
 H2231 H 0.49922 0.71209 0.17524
 H2232 H 0.50826 0.70327 0.14595
 C2233 C 0.02832 0.72290 0.64380
 C2234 C 0.03674 0.73668 0.65226
 C2235 C 0.03168 0.74161 0.66906
 C2236 C 0.03921 0.71214 0.61294
 C2237 C 0.00957 0.71912 0.66888
 C2238 C 0.01465 0.71422 0.65209
 C2239 C 0.03414 0.71720 0.62692
 C2240 C 0.01814 0.73278 0.67765
 H2241 H 0.04737 0.74345 0.64598
 H2242 H 0.03859 0.75216 0.67540
 H2243 H -0.00088 0.71201 0.67508
 H2244 H 0.00808 0.70350 0.64568
 C2245 C 0.52763 0.64425 0.22181
 C2246 C 0.53633 0.65265 0.23545
 C2247 C 0.53144 0.66945 0.24050
 C2248 C 0.53832 0.61336 0.21095
 C2249 C 0.50891 0.66942 0.21839
 C2250 C 0.51384 0.65261 0.21338
 C2251 C 0.53331 0.62735 0.21602
 C2252 C 0.51776 0.67812 0.23192
 H2253 H 0.54706 0.64632 0.24203
 H2254 H 0.53856 0.67573 0.25093
 H2255 H 0.49836 0.67567 0.21148
 H2256 H 0.50705 0.64624 0.20277
 C2257 C 0.02708 0.64395 0.72183
 C2258 C 0.03539 0.65224 0.73578
 C2259 C 0.03057 0.66912 0.74061
 C2260 C 0.03753 0.61277 0.71159
 C2261 C 0.00891 0.66940 0.71766
 C2262 C 0.01376 0.65252 0.71286
 C2263 C 0.03263 0.62691 0.71636
 C2264 C 0.01735 0.67798 0.73152
 H2265 H 0.04575 0.64574 0.74278
 H2266 H 0.03737 0.67530 0.75133
 H2267 H -0.00130 0.67581 0.71036
 H2268 H 0.00727 0.64623 0.70201
 C2269 C 0.02780 0.10542 0.02900
 C2270 C 0.01406 0.09706 0.03750
 C2271 C 0.00890 0.08037 0.03234
 C2272 C 0.03913 0.13597 0.04019
 C2273 C 0.03107 0.08045 0.00991
 C2274 C 0.03619 0.09714 0.01511
 C2275 C 0.03380 0.12214 0.03498
 C2276 C 0.01747 0.07178 0.01858
 H2277 H 0.00752 0.10334 0.04831
 H2278 H -0.00158 0.07409 0.03933
 H2279 H 0.03797 0.07426 -0.00070
 H2280 H 0.04687 0.10347 0.00846
 C2281 C 0.02782 0.60588 0.52791
 C2282 C 0.01437 0.59744 0.53679
 C2283 C 0.00930 0.58064 0.53187
 C2284 C 0.03877 0.63679 0.53849
 C2285 C 0.03098 0.58079 0.50897
 C2286 C 0.03602 0.59758 0.51392
 C2287 C 0.03364 0.62279 0.53356
 C2288 C 0.01765 0.57204 0.51799
 H2289 H 0.00797 0.60373 0.54767
 H2290 H -0.00098 0.57432 0.53912
 H2291 H 0.03771 0.57459 0.49825
 H2292 H 0.04647 0.60398 0.50699
 C2293 C 0.52754 0.10655 0.52781
 C2294 C 0.51416 0.09808 0.53677
 C2295 C 0.50921 0.08121 0.53200
 C2296 C 0.53832 0.13757 0.53818
 C2297 C 0.53088 0.08133 0.50909
 C2298 C 0.53579 0.09819 0.51390
 C2299 C 0.53326 0.12352 0.53333
 C2300 C 0.51762 0.07256 0.51819
 H2301 H 0.50772 0.10442 0.54760
 H2302 H 0.49898 0.07488 0.53930
 H2303 H 0.53765 0.07509 0.49841
 H2304 H 0.54620 0.10461 0.50691
 C2305 C 0.52979 0.60372 0.02953
 C2306 C 0.51585 0.59557 0.03790
 C2307 C 0.51044 0.57899 0.03262
 C2308 C 0.54076 0.63459 0.04022
 C2309 C 0.53287 0.57872 0.01047
 C2310 C 0.53824 0.59529 0.01578
 C2311 C 0.53567 0.62057 0.03529
 C2312 C 0.51893 0.57033 0.01887
 H2313 H 0.50924 0.60196 0.04860
 H2314 H 0.49971 0.57292 0.03942
 H2315 H 0.53974 0.57245 -0.00013
 H2316 H 0.54907 0.60147 0.00923
 C2317 C 0.72100 0.14555 0.52944
 C2318 C 0.73466 0.15396 0.53805
 C2319 C 0.73984 0.17064 0.53290
 C2320 C 0.71043 0.11449 0.53990
 C2321 C 0.71773 0.17051 0.51038
 C2322 C 0.71259 0.15383 0.51556
 C2323 C 0.71534 0.12859 0.53507
 C2324 C 0.73138 0.17916 0.51904
 H2325 H 0.74124 0.14768 0.54884
 H2326 H 0.75036 0.17690 0.53989
 H2327 H 0.71090 0.17666 0.49969
 H2328 H 0.70197 0.14745 0.50883
 C2329 C 0.72023 0.64643 0.02907
 C2330 C 0.71197 0.65474 0.01512
 C2331 C 0.71733 0.67133 0.00987
 C2332 C 0.70919 0.61562 0.03975
 C2333 C 0.73937 0.67130 0.03247
 C2334 C 0.73397 0.65471 0.03768
 C2335 C 0.71432 0.62961 0.03481
 C2336 C 0.73106 0.67985 0.01854
 H2337 H 0.70129 0.64847 0.00839
 H2338 H 0.71061 0.67752 -0.00086
 H2339 H 0.74993 0.67746 0.03947
 H2340 H 0.74043 0.64841 0.04853
 C2341 C 0.22216 0.60620 0.72202
 C2342 C 0.21375 0.59791 0.73587
 C2343 C 0.21864 0.58108 0.74080
 C2344 C 0.21155 0.63718 0.71142
 C2345 C 0.24056 0.58087 0.71815
 C2346 C 0.23565 0.59770 0.71325
 C2347 C 0.21652 0.62315 0.71637
 C2348 C 0.23201 0.57228 0.73190
 H2349 H 0.20326 0.60436 0.74272
 H2350 H 0.21175 0.57488 0.75143
 H2351 H 0.25089 0.57452 0.71099
 H2352 H 0.24221 0.60399 0.70247
 C2353 C 0.22054 0.10317 0.21993
 C2354 C 0.21230 0.09503 0.23398
 C2355 C 0.21774 0.07856 0.23949
 C2356 C 0.20922 0.13365 0.20860
 C2357 C 0.23983 0.07838 0.21700
 C2358 C 0.23436 0.09486 0.21151
 C2359 C 0.21449 0.11982 0.21385
 C2360 C 0.23151 0.06998 0.23100
 H2361 H 0.20156 0.10133 0.24055
 H2362 H 0.21100 0.07248 0.25028
 H2363 H 0.25043 0.07217 0.21013
 H2364 H 0.24080 0.10103 0.20059
 C2365 C 0.72265 1.10641 0.72197
 C2366 C 0.71424 1.09812 0.73583
 C2367 C 0.71910 1.08128 0.74074
 C2368 C 0.71202 1.13740 0.71141
 C2369 C 0.74100 1.08106 0.71805
 C2370 C 0.73611 1.09790 0.71317
 C2371 C 0.71700 1.12336 0.71634
 C2372 C 0.73245 1.07247 0.73181
 H2373 H 0.70377 1.10458 0.74269
 H2374 H 0.71222 1.07509 0.75136
 H2375 H 0.75131 1.07469 0.71087
 H2376 H 0.74266 1.10418 0.70239
 C2377 C 0.72237 0.60601 0.22143
 C2378 C 0.71373 0.59763 0.23508
 C2379 C 0.71864 0.58084 0.24010
 C2380 C 0.71161 0.63687 0.21061
 C2381 C 0.74108 0.58085 0.21795
 C2382 C 0.73613 0.59765 0.21297
 C2383 C 0.71666 0.62290 0.21566
 C2384 C 0.73228 0.57217 0.23148
 H2385 H 0.70302 0.60397 0.24169
 H2386 H 0.71156 0.57457 0.25054
 H2387 H 0.75161 0.57459 0.21101
 H2388 H 0.74288 0.60401 0.20235
 C2389 C 0.52783 0.14371 0.72162
 C2390 C 0.53619 0.15200 0.73554
 C2391 C 0.53125 0.16881 0.74051
 C2392 C 0.53847 0.11269 0.71104
 C2393 C 0.50937 0.16900 0.71777
 C2394 C 0.51434 0.15219 0.71283
 C2395 C 0.53350 0.12675 0.71597
 C2396 C 0.51787 0.17759 0.73160
 H2397 H 0.54668 0.14557 0.74241
 H2398 H 0.53810 0.17500 0.75119
 H2399 H 0.49904 0.17534 0.71059
 H2400 H 0.50781 0.14591 0.70200
 C2401 C 1.03000 0.14607 0.22006
 C2402 C 1.03825 0.15433 0.23406
 C2403 C 1.03289 0.17088 0.23942
 C2404 C 1.04115 0.11537 0.20912
 C2405 C 1.01083 0.17092 0.21685
 C2406 C 1.01623 0.15436 0.21152
 C2407 C 1.03596 0.12930 0.21418
 C2408 C 1.01916 0.17943 0.23082
 H2409 H 1.04896 0.14804 0.24074
 H2410 H 1.03963 0.17704 0.25018
 H2411 H 1.00025 0.17711 0.20990
 H2412 H 1.00977 0.14810 0.20064
 C2413 C 0.22036 0.64619 0.52977
 C2414 C 0.23423 0.65444 0.53821
 C2415 C 0.23943 0.67112 0.53310
 C2416 C 0.20990 0.61504 0.54005
 C2417 C 0.21691 0.67133 0.51099
 C2418 C 0.21174 0.65465 0.51614
 C2419 C 0.21475 0.62919 0.53531
 C2420 C 0.23080 0.67980 0.51944
 H2421 H 0.24097 0.64802 0.54882
 H2422 H 0.25014 0.67724 0.53992
 H2423 H 0.20993 0.67761 0.50047
 H2424 H 0.20096 0.64840 0.50955
 C2425 C 0.22039 0.14603 1.03066
 C2426 C 0.21179 0.15439 1.01696
 C2427 C 0.21704 0.17098 1.01162
 C2428 C 0.20965 0.11513 1.04139
 C2429 C 0.23963 0.17086 1.03365
 C2430 C 0.23435 0.15427 1.03896
 C2431 C 0.21464 0.12916 1.03645
 C2432 C 0.23100 0.17945 1.01995
 H2433 H 0.20093 0.14814 1.01047
 H2434 H 0.21006 0.17720 1.00106
 H2435 H 0.25039 0.17699 1.04039
 H2436 H 0.24107 0.14792 1.04962
 C2437 C 0.22052 0.72158 0.60463
 C2438 C 0.21197 0.73525 0.59616
 C2439 C 0.21711 0.74033 0.57944
 C2440 C 0.21008 0.71116 0.63574
 C2441 C 0.23949 0.71812 0.57967
 C2442 C 0.23432 0.71307 0.59638
 C2443 C 0.21489 0.71601 0.62161
 C2444 C 0.23091 0.73178 0.57096
 H2445 H 0.20123 0.74189 0.60241
 H2446 H 0.21018 0.75085 0.57314
 H2447 H 0.25013 0.71122 0.57355
 H2448 H 0.24100 0.70245 0.60280
 C2449 C 0.22000 0.21993 1.10431
 C2450 C 0.23399 0.21167 1.09614
 C2451 C 0.23947 0.21714 1.07966
 C2452 C 0.20871 0.20852 1.13477
 C2453 C 0.21704 0.23930 1.07955
 C2454 C 0.21159 0.23380 1.09603
 C2455 C 0.21394 0.21382 1.12095
 C2456 C 0.23099 0.23096 1.07111
 H2457 H 0.24056 0.20089 1.10242
 H2458 H 0.25021 0.21038 1.07356
 H2459 H 0.21018 0.24994 1.07335
 H2460 H 0.20071 0.24025 1.10222
 C2461 C 0.72102 0.52795 0.14367
 C2462 C 0.73496 0.53629 0.15189
 C2463 C 0.74013 0.53118 0.16859
 C2464 C 0.70991 0.53918 0.11306
 C2465 C 0.71757 0.50914 0.16880
 C2466 C 0.71243 0.51428 0.15209
 C2467 C 0.71509 0.53390 0.12691
 C2468 C 0.73138 0.51766 0.17733
 H2469 H 0.74167 0.54691 0.14550
 H2470 H 0.75079 0.53804 0.17474
 H2471 H 0.71052 0.49871 0.17512
 H2472 H 0.70158 0.50777 0.14586
 C2473 C 0.72211 1.02800 0.64382
 C2474 C 0.71347 1.01431 0.65215
 C2475 C 0.71836 1.00928 0.66897
 C2476 C 0.71155 1.03895 0.61292
 C2477 C 0.74074 1.03150 0.66906
 C2478 C 0.73583 1.03649 0.65226
 C2479 C 0.71647 1.03381 0.62691
 C2480 C 0.73196 1.01793 0.67771
 H2481 H 0.70280 1.00768 0.64575
 H2482 H 0.71129 0.99881 0.67522
 H2483 H 0.75125 1.03847 0.67537
 H2484 H 0.74257 1.04714 0.64594
 C2485 C 0.52814 0.22300 0.64382
 C2486 C 0.53650 0.23679 0.65230
 C2487 C 0.53155 0.24156 0.66917
 C2488 C 0.53886 0.21259 0.61279
 C2489 C 0.50965 0.21885 0.66903
 C2490 C 0.51463 0.21413 0.65216
 C2491 C 0.53386 0.21749 0.62684
 C2492 C 0.51816 0.23254 0.67781
 H2493 H 0.54701 0.24372 0.64597
 H2494 H 0.53840 0.25213 0.67552
 H2495 H 0.49931 0.21161 0.67526
 H2496 H 0.50811 0.20339 0.64572
 C2497 C 1.03070 0.22073 0.14594
 C2498 C 1.03924 0.23447 0.15435
 C2499 C 1.03390 0.23984 0.17092
 C2500 C 1.04159 0.20970 0.11517
 C2501 C 1.01135 0.21779 0.17067
 C2502 C 1.01672 0.21246 0.15410
 C2503 C 1.03656 0.21483 0.12914
 C2504 C 1.01993 0.23150 0.17933
 H2505 H 1.05012 0.24093 0.14817
 H2506 H 1.04085 0.25039 0.17720
 H2507 H 1.00059 0.21105 0.17674
 H2508 H 1.01005 0.20177 0.14772
 C2509 C 0.60607 0.22212 0.72274
 C2510 C 0.59774 0.23597 0.71436
 C2511 C 0.58094 0.24082 0.71927
 C2512 C 0.63699 0.21174 0.71197
 C2513 C 0.58082 0.21808 0.74117
 C2514 C 0.59763 0.21326 0.73622
 C2515 C 0.62298 0.21658 0.71703
 C2516 C 0.57220 0.23182 0.73263
 H2517 H 0.60414 0.24289 0.70387
 H2518 H 0.57472 0.25144 0.71240
 H2519 H 0.57451 0.21085 0.75148
 H2520 H 0.60395 0.20248 0.74276
 C2521 C 1.10353 0.21937 0.21970
 C2522 C 1.09526 0.23316 0.21117
 C2523 C 1.07883 0.23870 0.21659
 C2524 C 1.13402 0.20814 0.20853
 C2525 C 1.07895 0.21671 0.23925
 C2526 C 1.09538 0.21121 0.23379
 C2527 C 1.12018 0.21332 0.21372
 C2528 C 1.07043 0.23048 0.23066
 H2529 H 1.10143 0.23954 0.20021
 H2530 H 1.07266 0.24930 0.20964
 H2531 H 1.07287 0.21005 0.25008
 H2532 H 1.10166 0.20048 0.24046
 C2533 C 0.14596 0.72058 0.52863
 C2534 C 0.15420 0.73452 0.53701
 C2535 C 0.17084 0.73968 0.53190
 C2536 C 0.11496 0.71017 0.53917
 C2537 C 0.17105 0.71701 0.50988
 C2538 C 0.15439 0.71188 0.51503
 C2539 C 0.12904 0.71497 0.53427
 C2540 C 0.17951 0.73094 0.51830
 H2541 H 0.14780 0.74132 0.54759
 H2542 H 0.17695 0.75043 0.53870
 H2543 H 0.17733 0.70995 0.49941
 H2544 H 0.14815 0.70104 0.50848
 C2545 C 0.14645 0.21969 1.02980
 C2546 C 0.15478 0.21105 1.01610
 C2547 C 0.17132 0.21632 1.01073
 C2548 C 0.11573 0.20898 1.04085
 C2549 C 0.17119 0.23903 1.03271
 C2550 C 0.15465 0.23373 1.03804
 C2551 C 0.12967 0.21392 1.03571
 C2552 C 0.17977 0.23034 1.01903
 H2553 H 0.14856 0.20013 1.00966
 H2554 H 0.17754 0.20929 1.00021
 H2555 H 0.17729 0.24984 1.03943
 H2556 H 0.14834 0.24049 1.04870
 C2557 C 0.64406 0.52813 0.22190
 C2558 C 0.65253 0.53693 0.23543
 C2559 C 0.66929 0.53200 0.24044
 C2560 C 0.61322 0.53876 0.21107
 C2561 C 0.66906 0.50924 0.21852
 C2562 C 0.65231 0.51420 0.21355
 C2563 C 0.62719 0.53380 0.21614
 C2564 C 0.67783 0.51818 0.23194
 H2565 H 0.64628 0.54777 0.24196
 H2566 H 0.67563 0.53920 0.25079
 H2567 H 0.67522 0.49856 0.21167
 H2568 H 0.64588 0.50733 0.20302
 C2569 C 0.64400 1.02845 0.72232
 C2570 C 0.65245 1.03715 0.73594
 C2571 C 0.66923 1.03223 0.74090
 C2572 C 0.61305 1.03897 0.71166
 C2573 C 0.66907 1.00969 0.71875
 C2574 C 0.65230 1.01464 0.71383
 C2575 C 0.62708 1.03407 0.71665
 C2576 C 0.67781 1.01852 0.73226
 H2577 H 0.64616 1.04790 0.74258
 H2578 H 0.67555 1.03934 0.75132
 H2579 H 0.67526 0.99910 0.71179
 H2580 H 0.64589 1.00784 0.70324
 C2581 C 0.85371 0.47106 0.27984
 C2582 C 0.84553 0.46272 0.26584
 C2583 C 0.82897 0.46796 0.26051
 C2584 C 0.88448 0.46024 0.29069
 C2585 C 0.82876 0.49004 0.28312
 C2586 C 0.84533 0.48477 0.28842
 C2587 C 0.87051 0.46526 0.28567
 C2588 C 0.82034 0.48164 0.26914
 H2589 H 0.85189 0.45206 0.25914
 H2590 H 0.82288 0.46117 0.24974
 H2591 H 0.82251 0.50058 0.29010
 H2592 H 0.85153 0.49129 0.29930
 C2593 C 0.85305 0.96962 0.78085
 C2594 C 0.84477 0.96116 0.76698
 C2595 C 0.82836 0.96666 0.76143
 C2596 C 0.88346 0.95826 0.79212
 C2597 C 0.82853 0.98924 0.78355
 C2598 C 0.84493 0.98370 0.78907
 C2599 C 0.86966 0.96354 0.78691
 C2600 C 0.82000 0.98073 0.76971
 H2601 H 0.85092 0.95021 0.76055
 H2602 H 0.82219 0.95977 0.75077
 H2603 H 0.82247 1.00006 0.79026
 H2604 H 0.85122 0.99030 0.79986
 C2605 C 0.39641 0.27948 0.78031
 C2606 C 0.40462 0.26551 0.78864
 C2607 C 0.42115 0.26017 0.78332
 C2608 C 0.36565 0.29040 0.79104
 C2609 C 0.42127 0.28271 0.76122
 C2610 C 0.40474 0.28802 0.76656
 C2611 C 0.37962 0.28531 0.78610
 C2612 C 0.42972 0.26875 0.76958
 H2613 H 0.39830 0.25884 0.79933
 H2614 H 0.42727 0.24942 0.79008
 H2615 H 0.42746 0.28966 0.75063
 H2616 H 0.39852 0.29888 0.76006
 C2617 C 0.89434 0.27771 0.27787
 C2618 C 0.90263 0.28611 0.26401
 C2619 C 0.91938 0.28114 0.25905
 C2620 C 0.86353 0.28857 0.28851
 C2621 C 0.91952 0.25912 0.28167
 C2622 C 0.90277 0.26413 0.28661
 C2623 C 0.87749 0.28348 0.28355
 C2624 C 0.92810 0.26768 0.26793
 H2625 H 0.89624 0.29667 0.25719
 H2626 H 0.92556 0.28803 0.24843
 H2627 H 0.92583 0.24874 0.28882
 H2628 H 0.89649 0.25757 0.29739
 C2629 C 0.35562 0.77846 0.47178
 C2630 C 0.34743 0.78666 0.48583
 C2631 C 0.33078 0.78148 0.49094
 C2632 C 0.38609 0.78983 0.46072
 C2633 C 0.33058 0.75965 0.46810
 C2634 C 0.34722 0.76486 0.46302
 C2635 C 0.37230 0.78451 0.46589
 C2636 C 0.32207 0.76802 0.48202
 H2637 H 0.35379 0.79724 0.49267
 H2638 H 0.32465 0.78824 0.50169
 H2639 H 0.32428 0.74927 0.46091
 H2640 H 0.35343 0.75846 0.45208
 C2641 C 0.35586 0.27754 0.97212
 C2642 C 0.34738 0.26399 0.96336
 C2643 C 0.33064 0.25900 0.96833
 C2644 C 0.38667 0.28832 0.96137
 C2645 C 0.33090 0.28097 0.99105
 C2646 C 0.34765 0.28593 0.98604
 C2647 C 0.37271 0.28328 0.96639
 C2648 C 0.32212 0.26754 0.98214
 H2649 H 0.35361 0.25744 0.95252
 H2650 H 0.32429 0.24864 0.96117
 H2651 H 0.32476 0.28785 1.00172
 H2652 H 0.35408 0.29647 0.99288
 C2653 C 0.78010 0.46989 0.35340
 C2654 C 0.76615 0.46154 0.34521
 C2655 C 0.76076 0.46683 0.32863
 C2656 C 0.79108 0.45918 0.38424
 C2657 C 0.78324 0.48895 0.32844
 C2658 C 0.78859 0.48363 0.34501
 C2659 C 0.78598 0.46412 0.37024
 C2660 C 0.76928 0.48057 0.32001
 H2661 H 0.75952 0.45085 0.35158
 H2662 H 0.75001 0.46005 0.32253
 H2663 H 0.79013 0.49954 0.32220
 H2664 H 0.79944 0.49016 0.35122
 C2665 C 0.77958 0.97029 0.85402
 C2666 C 0.78775 0.98435 0.84584
 C2667 C 0.78236 0.98971 0.82929
 C2668 C 0.79082 0.95939 0.88471
 C2669 C 0.76045 0.96702 0.82910
 C2670 C 0.76587 0.96169 0.84566
 C2671 C 0.78558 0.96442 0.87079
 C2672 C 0.76870 0.98105 0.82066
 H2673 H 0.79840 0.99108 0.85218
 H2674 H 0.78905 1.00052 0.82320
 H2675 H 0.74994 0.96002 0.82284
 H2676 H 0.75949 0.95076 0.85186
 C2677 C 0.27794 0.77824 0.39419
 C2678 C 0.26422 0.78682 0.40251
 C2679 C 0.25920 0.78189 0.41931
 C2680 C 0.28887 0.78890 0.36333
 C2681 C 0.28146 0.75956 0.41939
 C2682 C 0.28645 0.76452 0.40261
 C2683 C 0.28373 0.78393 0.37730
 C2684 C 0.26787 0.76829 0.42803
 H2685 H 0.25757 0.79749 0.39613
 H2686 H 0.24871 0.78891 0.42554
 H2687 H 0.28845 0.74906 0.42569
 H2688 H 0.29712 0.75782 0.39630
 C2689 C 0.27794 0.27845 0.89463
 C2690 C 0.28641 0.26463 0.90293
 C2691 C 0.28135 0.25949 0.91963
 C2692 C 0.28913 0.28956 0.86403
 C2693 C 0.25908 0.28181 0.91969
 C2694 C 0.26418 0.28693 0.90298
 C2695 C 0.28387 0.28438 0.87788
 C2696 C 0.26773 0.26813 0.92831
 H2697 H 0.29712 0.25801 0.89659
 H2698 H 0.28832 0.24893 0.92585
 H2699 H 0.24857 0.28878 0.92596
 H2700 H 0.25756 0.29767 0.89668
 C2701 C 0.47095 0.27899 0.85458
 C2702 C 0.48466 0.28753 0.84622
 C2703 C 0.48982 0.28236 0.82953
 C2704 C 0.46040 0.28958 0.88562
 C2705 C 0.46763 0.25995 0.82956
 C2706 C 0.46250 0.26515 0.84625
 C2707 C 0.46530 0.28468 0.87153
 C2708 C 0.48132 0.26855 0.82096
 H2709 H 0.49127 0.29829 0.85254
 H2710 H 0.50037 0.28930 0.82331
 H2711 H 0.46075 0.24931 0.82336
 H2712 H 0.45183 0.25848 0.85259
 C2713 C 0.97244 0.27870 0.35585
 C2714 C 0.96411 0.26476 0.34758
 C2715 C 0.96910 0.25972 0.33080
 C2716 C 0.96161 0.28949 0.38672
 C2717 C 0.99097 0.28244 0.33060
 C2718 C 0.98596 0.28745 0.34738
 C2719 C 0.96668 0.28446 0.37274
 C2720 C 0.98249 0.26860 0.32203
 H2721 H 0.95360 0.25793 0.35401
 H2722 H 0.96227 0.24903 0.32463
 H2723 H 1.00131 0.28959 0.32427
 H2724 H 0.99246 0.29829 0.35365
 C2725 C 0.46964 0.35371 0.77921
 C2726 C 0.48356 0.34553 0.78759
 C2727 C 0.48887 0.32891 0.78238
 C2728 C 0.45887 0.38460 0.78997
 C2729 C 0.46638 0.32865 0.76024
 C2730 C 0.46110 0.34527 0.76549
 C2731 C 0.46385 0.37057 0.78497
 C2732 C 0.48029 0.32023 0.76867
 H2733 H 0.49023 0.35193 0.79827
 H2734 H 0.49959 0.32283 0.78919
 H2735 H 0.45944 0.32236 0.74968
 H2736 H 0.45027 0.35147 0.75894
 C2737 C 0.97152 0.35596 0.27767
 C2738 C 0.96313 0.34758 0.26382
 C2739 C 0.96828 0.33087 0.25872
 C2740 C 0.96035 0.38656 0.28884
 C2741 C 0.99046 0.33098 0.28118
 C2742 C 0.98528 0.34769 0.28624
 C2743 C 0.96555 0.37271 0.28359
 C2744 C 0.98190 0.32228 0.26747
 H2745 H 0.95243 0.35385 0.25713
 H2746 H 0.96138 0.32457 0.24814
 H2747 H 1.00097 0.32479 0.28822
 H2748 H 0.99183 0.35404 0.29701
 C2749 C 0.27894 0.85621 0.47262
 C2750 C 0.26512 0.84798 0.46409
 C2751 C 0.25996 0.83125 0.46907
 C2752 C 0.29003 0.88691 0.46168
 C2753 C 0.28230 0.83103 0.49137
 C2754 C 0.28743 0.84776 0.48635
 C2755 C 0.28486 0.87301 0.46682
 C2756 C 0.26860 0.82249 0.48267
 H2757 H 0.25849 0.85439 0.45341
 H2758 H 0.24938 0.82509 0.46208
 H2759 H 0.28926 0.82470 0.50186
 H2760 H 0.29818 0.85400 0.49300
 C2761 C 0.27837 0.35599 0.97283
 C2762 C 0.28708 0.34755 0.98642
 C2763 C 0.28211 0.33076 0.99144
 C2764 C 0.28904 0.38685 0.96190
 C2765 C 0.25951 0.33093 0.96942
 C2766 C 0.26450 0.34771 0.96444
 C2767 C 0.28408 0.37287 0.96703
 C2768 C 0.26836 0.32218 0.98289
 H2769 H 0.29787 0.35383 0.99297
 H2770 H 0.28924 0.32443 1.00183
 H2771 H 0.24888 0.32474 0.96254
 H2772 H 0.25770 0.35411 0.95387
 C2773 C 0.77946 0.39565 0.27854
 C2774 C 0.76565 0.40392 0.28702
 C2775 C 0.76042 0.42058 0.28189
 C2776 C 0.79003 0.36464 0.28913
 C2777 C 0.78278 0.42074 0.25966
 C2778 C 0.78797 0.40407 0.26482
 C2779 C 0.78515 0.37872 0.28420
 C2780 C 0.76898 0.42924 0.26818
 H2781 H 0.75900 0.39754 0.29769
 H2782 H 0.74979 0.42673 0.28878
 H2783 H 0.78969 0.42700 0.24910
 H2784 H 0.79871 0.39780 0.25820
   
