data_POSCAR
  _audit_creation_date              2014-09-24
  _audit_creation_method            'ToBaCCo'
  _symmetry_space_group_name_H-M    'P1'
  _symmetry_Int_Tables_number       1
  _symmetry_cell_setting            triclinic
  loop_
  _symmetry_equiv_pos_as_xyz
 x,y,z
_cell_length_a 49.9955
_cell_length_b 55.1236
_cell_length_c 52.4114
_cell_angle_alpha 90.313800
_cell_angle_beta 89.773000
_cell_angle_gamma 90.801700
loop_
  _atom_site_label
  _atom_site_type_symbol
  _atom_site_fract_x
  _atom_site_fract_y
  _atom_site_fract_z
O1 O 0.37115 0.32424 -0.01436
 O2 O 0.34114 0.35399 0.04107
 O3 O 0.38004 0.32430 0.03498
 O4 O 0.32938 0.35037 -0.00740
 O5 O 0.30164 0.32040 0.00256
 O6 O 0.35310 0.29307 0.04249
 O7 O 0.31465 0.32224 0.04815
 O8 O 0.34473 0.29233 -0.00870
 Cu9 Cu 0.35814 0.34129 0.01285
 Cu10 Cu 0.32661 0.30330 0.02073
 C11 C 0.36288 0.30345 -0.02135
 C12 C 0.32294 0.34348 0.05402
 C13 C 0.37497 0.30445 0.04641
 C14 C 0.30641 0.34022 -0.00894
 O15 O 0.62438 0.67653 -0.03832
 O16 O 0.66766 0.64874 0.00959
 O17 O 0.62359 0.67279 0.01145
 O18 O 0.66848 0.65239 -0.03966
 O19 O 0.69322 0.68545 -0.03456
 O20 O 0.64536 0.70787 0.01323
 O21 O 0.68890 0.68384 0.01485
 O22 O 0.64841 0.71035 -0.03638
 Cu23 Cu 0.64362 0.65925 -0.01468
 Cu24 Cu 0.67130 0.70041 -0.01069
 C25 C 0.62910 0.69806 -0.04577
 C26 C 0.68518 0.66175 0.02087
 C27 C 0.62687 0.69377 0.02118
 C28 C 0.68913 0.66498 -0.04525
 O29 O 0.65162 0.29954 1.02313
 O30 O 0.66487 0.34813 0.97649
 O31 O 0.64877 0.30299 0.97359
 O32 O 0.66408 0.34470 1.02613
 O33 O 0.70680 0.33558 1.02321
 O34 O 0.69130 0.29288 0.97047
 O35 O 0.70716 0.33734 0.97431
 O36 O 0.69389 0.28868 1.02056
 Cu37 Cu 0.65308 0.32479 0.99996
 Cu38 Cu 0.70402 0.31230 0.99720
 C39 C 0.67059 0.28593 1.02989
 C40 C 0.68838 0.35110 0.96750
 C41 C 0.66725 0.29113 0.96288
 C42 C 0.68802 0.34762 1.03354
 O43 O 0.34290 0.70842 1.02020
 O44 O 0.32596 0.66293 0.97115
 O45 O 0.34147 0.70793 0.97049
 O46 O 0.32786 0.66326 1.02051
 O47 O 0.28526 0.67311 1.02069
 O48 O 0.29996 0.72083 0.97321
 O49 O 0.28397 0.67477 0.97179
 O50 O 0.30025 0.71801 1.02360
 Cu51 Cu 0.33878 0.68465 0.99536
 Cu52 Cu 0.28812 0.69812 0.99722
 C53 C 0.32434 0.72030 1.03086
 C54 C 0.30204 0.66086 0.96330
 C55 C 0.32326 0.72218 0.96346
 C56 C 0.30418 0.66010 1.02888
 O57 O -0.04474 0.35545 0.30174
 O58 O 0.00554 0.32825 0.34346
 O59 O 0.00485 0.36393 0.31293
 O60 O -0.04499 0.31871 0.33385
 O61 O -0.03298 0.29432 0.30253
 O62 O 0.01771 0.33944 0.28186
 O63 O 0.01705 0.30290 0.31262
 O64 O -0.03182 0.33136 0.27041
 Cu65 Cu -0.02150 0.34384 0.32618
 Cu66 Cu -0.00665 0.31442 0.28865
 C67 C -0.04591 0.34878 0.27854
 C68 C 0.02022 0.31138 0.33497
 C69 C 0.02009 0.35931 0.29414
 C70 C -0.04715 0.29849 0.32223
 O71 O 0.04952 0.66361 0.65034
 O72 O -0.00308 0.63734 0.69151
 O73 O -0.00150 0.67170 0.65532
 O74 O 0.04756 0.63097 0.68440
 O75 O 0.05934 0.66072 0.71069
 O76 O 0.00225 0.69619 0.68851
 O77 O 0.00912 0.66276 0.72208
 O78 O 0.05393 0.69453 0.67705
 Cu79 Cu 0.02165 0.64822 0.66732
 Cu80 Cu 0.03193 0.68159 0.70239
 C81 C 0.06063 0.68360 0.65665
 C82 C -0.00486 0.64474 0.71447
 C83 C -0.00878 0.69050 0.66750
 C84 C 0.06263 0.63949 0.70180
 O85 O 1.02822 0.64169 0.31031
 O86 O 0.97880 0.66250 0.35737
 O87 O 0.97722 0.64069 0.31314
 O88 O 1.03196 0.66364 0.35339
 O89 O 1.03034 0.69916 0.33442
 O90 O 0.97366 0.67688 0.29562
 O91 O 0.97834 0.69867 0.33949
 O92 O 1.02552 0.67669 0.29028
 Cu93 Cu 1.00412 0.64872 0.33587
 Cu94 Cu 1.00189 0.69147 0.31311
 C95 C 1.03488 0.65539 0.29190
 C96 C 0.96989 0.68395 0.35634
 C97 C 0.96615 0.65486 0.29751
 C98 C 1.04112 0.68506 0.35036
 O99 O 0.96738 0.33528 0.64486
 O100 O 1.01700 0.35857 0.69103
 O101 O 1.01952 0.33646 0.64770
 O102 O 0.96524 0.35800 0.68877
 O103 O 0.96549 0.32345 0.70977
 O104 O 1.01680 0.30035 0.66549
 O105 O 1.01805 0.32242 0.70896
 O106 O 0.96527 0.30041 0.66527
 Cu107 Cu 0.99215 0.35058 0.66609
 Cu108 Cu 0.99099 0.30815 0.68954
 C109 C 0.95802 0.31382 0.64699
 C110 C 1.02664 0.34416 0.70732
 C111 C 1.02743 0.31471 0.64936
 C112 C 0.95663 0.34475 0.70682
 O113 O 0.33859 0.03681 0.31460
 O114 O 0.30114 -0.01267 0.34760
 O115 O 0.34483 -0.00960 0.32089
 O116 O 0.29670 0.03425 0.34505
 O117 O 0.27106 0.02787 0.31146
 O118 O 0.32095 -0.01521 0.28599
 O119 O 0.27715 -0.01843 0.31279
 O120 O 0.31266 0.03113 0.28110
 Cu121 Cu 0.32281 0.01290 0.33543
 Cu122 Cu 0.29309 0.00589 0.29435
 C123 C 0.33186 0.04226 0.29195
 C124 C 0.28261 -0.02394 0.33560
 C125 C 0.34128 -0.02000 0.29953
 C126 C 0.27530 0.03812 0.33292
 O127 O 0.66392 0.01957 0.68069
 O128 O 0.70976 -0.02717 0.65870
 O129 O 0.66826 -0.02666 0.68981
 O130 O 0.70760 0.01969 0.65369
 O131 O 0.73303 0.02530 0.68757
 O132 O 0.69374 -0.01926 0.72328
 O133 O 0.73465 -0.02181 0.69306
 O134 O 0.68875 0.02663 0.71472
 Cu135 Cu 0.68489 -0.00435 0.66736
 Cu136 Cu 0.71513 0.00346 0.70793
 C137 C 0.66828 0.03114 0.70124
 C138 C 0.72988 -0.03259 0.67199
 C139 C 0.67435 -0.03061 0.71302
 C140 C 0.72729 0.03023 0.66466
 O141 O 0.33163 0.99494 0.67375
 O142 O 0.28793 1.04198 0.64992
 O143 O 0.32629 1.04087 0.68441
 O144 O 0.29050 0.99522 0.64392
 O145 O 0.26294 0.98813 0.67611
 O146 O 0.29690 1.03370 0.71499
 O147 O 0.25870 1.03429 0.68054
 O148 O 0.30420 0.98770 0.70602
 Cu149 Cu 0.31194 1.01917 0.65993
 Cu150 Cu 0.27801 1.01045 0.69766
 C151 C 0.32554 0.98312 0.69364
 C152 C 0.26539 1.04556 0.66028
 C153 C 0.31763 1.04471 0.70697
 C154 C 0.27040 0.98395 0.65342
 O155 O 0.68439 0.99876 0.35563
 O156 O 0.66527 0.94680 0.31577
 O157 O 0.69599 0.95254 0.35632
 O158 O 0.65689 0.99308 0.31413
 O159 O 0.69319 0.99890 0.29067
 O160 O 0.73129 0.95908 0.33180
 O161 O 0.70062 0.95302 0.29125
 O162 O 0.72073 1.00499 0.33254
 Cu163 Cu 0.67217 0.97202 0.33796
 Cu164 Cu 0.71511 0.97945 0.30932
 C165 C 0.70562 1.01091 0.35112
 C166 C 0.67885 0.94163 0.29605
 C167 C 0.72068 0.94945 0.35134
 C168 C 0.66858 1.00255 0.29489
 C169 C 0.86884 0.74342 0.53504
 C170 C 0.86521 0.74041 0.50926
 C171 C 0.85875 0.76296 0.49963
 N172 N 0.85903 0.77968 0.51856
 C173 C 0.86543 0.76786 0.54019
 C174 C 0.85538 0.76850 0.47355
 C175 C 0.84370 0.79035 0.46524
 C176 C 0.84391 0.79863 0.44030
 C177 C 0.82945 0.81968 0.44006
 C178 C 0.82058 0.82371 0.46484
 N179 N 0.82901 0.80551 0.47996
 C180 C 0.80386 0.84307 0.47252
 C181 C 0.79774 0.84802 0.49833
 C182 C 0.77717 0.86258 0.50692
 C183 C 0.77972 0.86422 0.53300
 C184 C 0.80241 0.85143 0.53932
 N185 N 0.81317 0.84140 0.51811
 C186 C 0.81451 0.85055 0.56367
 C187 C 0.83677 0.83563 0.56794
 C188 C 0.85588 0.83951 0.58664
 C189 C 0.87203 0.81951 0.58644
 C190 C 0.86201 0.80382 0.56789
 N191 N 0.84088 0.81406 0.55630
 C192 C 0.87031 0.77964 0.56381
 H193 H 0.87373 0.72919 0.54829
 H194 H 0.86721 0.72349 0.49896
 H195 H 0.82767 0.80537 0.54379
 H196 H 0.85319 0.79027 0.42384
 H197 H 0.82548 0.83047 0.42335
 H198 H 0.76184 0.87107 0.49570
 H199 H 0.76653 0.87407 0.54561
 H200 H 0.88878 0.81659 0.59901
 H201 H 0.82313 0.80241 0.49872
 H202 H 0.85768 0.85497 0.59938
 C203 C 0.17918 0.11042 0.50575
 C204 C 0.17930 0.10967 0.47952
 C205 C 0.17474 0.13312 0.47131
 N206 N 0.17204 0.14815 0.49162
 C207 C 0.17461 0.13430 0.51269
 C208 C 0.17441 0.14055 0.44548
 C209 C 0.16632 0.16388 0.43777
 C210 C 0.17135 0.17392 0.41395
 C211 C 0.15865 0.19590 0.41342
 C212 C 0.14629 0.19868 0.43691
 N213 N 0.15095 0.17907 0.45160
 C214 C 0.13007 0.21838 0.44390
 C215 C 0.12218 0.22290 0.46929
 C216 C 0.10274 0.23925 0.47663
 C217 C 0.10332 0.24030 0.50273
 C218 C 0.12312 0.22459 0.51038
 N219 N 0.13460 0.21395 0.48993
 C220 C 0.13199 0.22190 0.53567
 C221 C 0.14818 0.20253 0.54335
 C222 C 0.16097 0.20107 0.56668
 C223 C 0.17288 0.17875 0.56735
 C224 C 0.16712 0.16727 0.54434
 N225 N 0.15202 0.18186 0.52985
 C226 C 0.17414 0.14324 0.53806
 H227 H 0.18222 0.09515 0.51825
 H228 H 0.18239 0.09369 0.46785
 H229 H 0.14225 0.17678 0.51315
 H230 H 0.18286 0.16616 0.39847
 H231 H 0.15842 0.20833 0.39751
 H232 H 0.08978 0.24960 0.46443
 H233 H 0.09084 0.25157 0.51469
 H234 H 0.18431 0.17168 0.58308
 H235 H 0.14173 0.17504 0.46891
 H236 H 0.16138 0.21454 0.58178
 C237 C 0.20612 0.89028 0.50410
 C238 C 0.20643 0.88886 0.47796
 C239 C 0.20539 0.86440 0.47168
 N240 N 0.20459 0.85084 0.49309
 C241 C 0.20490 0.86664 0.51293
 C242 C 0.20611 0.85490 0.44657
 C243 C 0.19934 0.83046 0.44078
 C244 C 0.20449 0.81891 0.41771
 C245 C 0.19212 0.79644 0.41876
 C246 C 0.17992 0.79488 0.44248
 N247 N 0.18442 0.81565 0.45576
 C248 C 0.16366 0.77531 0.45080
 C249 C 0.15646 0.77207 0.47663
 C250 C 0.13729 0.75567 0.48540
 C251 C 0.13827 0.75653 0.51150
 C252 C 0.15781 0.77359 0.51776
 N253 N 0.16896 0.78302 0.49645
 C254 C 0.16644 0.77888 0.54276
 C255 C 0.18196 0.79965 0.54891
 C256 C 0.19408 0.80399 0.57225
 C257 C 0.20511 0.82700 0.57111
 C258 C 0.19949 0.83595 0.54705
 N259 N 0.18539 0.81918 0.53368
 C260 C 0.20493 0.85989 0.53889
 H261 H 0.20650 0.90684 0.51528
 H262 H 0.20703 0.90415 0.46509
 H263 H 0.17569 0.82221 0.51651
 H264 H 0.21560 0.82608 0.40160
 H265 H 0.19186 0.78293 0.40369
 H266 H 0.12412 0.74411 0.47420
 H267 H 0.12605 0.74579 0.52440
 H268 H 0.21563 0.83628 0.58639
 H269 H 0.17500 0.82062 0.47267
 H270 H 0.19442 0.79207 0.58858
 C271 C 0.79225 0.10284 0.48916
 C272 C 0.79688 0.10499 0.51486
 C273 C 0.80413 0.12902 0.51933
 N274 N 0.80460 0.14145 0.49718
 C275 C 0.79741 0.12547 0.47876
 C276 C 0.80800 0.13977 0.54361
 C277 C 0.81861 0.16354 0.54648
 C278 C 0.81617 0.17784 0.56818
 C279 C 0.83056 0.19889 0.56369
 C280 C 0.84158 0.19674 0.53946
 N281 N 0.83413 0.17516 0.52911
 C282 C 0.85957 0.21361 0.52816
 C283 C 0.86667 0.21253 0.50207
 C284 C 0.88870 0.22410 0.49131
 C285 C 0.88752 0.21960 0.46555
 C286 C 0.86448 0.20586 0.46136
 N287 N 0.85185 0.20145 0.48377
 C288 C 0.85423 0.19906 0.43716
 C289 C 0.83254 0.18253 0.43454
 C290 C 0.81636 0.18028 0.41320
 C291 C 0.79887 0.16124 0.41779
 C292 C 0.80508 0.15230 0.44169
 N293 N 0.82561 0.16538 0.45174
 C294 C 0.79309 0.13165 0.45305
 H295 H 0.78580 0.08653 0.47923
 H296 H 0.79477 0.09054 0.52864
 H297 H 0.83626 0.16123 0.46813
 H298 H 0.80521 0.17353 0.58545
 H299 H 0.83290 0.21390 0.57692
 H300 H 0.90409 0.23453 0.50106
 H301 H 0.90195 0.22592 0.45157
 H302 H 0.78361 0.15458 0.40485
 H303 H 0.84169 0.16757 0.51239
 H304 H 0.81710 0.19120 0.39611
 C305 C 0.50994 0.90356 0.77991
 C306 C 0.48282 0.90587 0.77697
 C307 C 0.47119 0.88460 0.78594
 N308 N 0.49022 0.86920 0.79375
 C309 C 0.51398 0.88070 0.78998
 C310 C 0.44360 0.87894 0.78495
 C311 C 0.43146 0.86063 0.80001
 C312 C 0.40545 0.85194 0.79711
 C313 C 0.40088 0.83559 0.81645
 C314 C 0.42429 0.83458 0.83044
 N315 N 0.44275 0.85001 0.82042
 C316 C 0.42799 0.82023 0.85235
 C317 C 0.45374 0.81411 0.86112
 C318 C 0.45912 0.80230 0.88381
 C319 C 0.48581 0.79691 0.88335
 C320 C 0.49595 0.80613 0.86072
 N321 N 0.47636 0.81657 0.84714
 C322 C 0.52233 0.80295 0.85189
 C323 C 0.53394 0.81736 0.83248
 C324 C 0.55852 0.81321 0.82103
 C325 C 0.56339 0.83233 0.80476
 C326 C 0.54152 0.84744 0.80658
 N327 N 0.52376 0.83826 0.82358
 C328 C 0.53914 0.86999 0.79412
 H329 H 0.52486 0.91715 0.77494
 H330 H 0.47275 0.92144 0.76925
 H331 H 0.50719 0.84725 0.83082
 H332 H 0.39116 0.85694 0.78267
 H333 H 0.38250 0.82545 0.81970
 H334 H 0.44521 0.79760 0.89892
 H335 H 0.49656 0.78726 0.89793
 H336 H 0.58105 0.83489 0.79302
 H337 H 0.46104 0.85477 0.82858
 H338 H 0.57179 0.79822 0.82438
 C339 C 0.49385 0.10131 0.21716
 C340 C 0.52050 0.09564 0.21600
 C341 C 0.53408 0.11666 0.20900
 N342 N 0.51669 0.13503 0.20613
 C343 C 0.49204 0.12567 0.21103
 C344 C 0.56210 0.11890 0.20588
 C345 C 0.57433 0.13910 0.19375
 C346 C 0.60130 0.14524 0.19512
 C347 C 0.60569 0.16389 0.17815
 C348 C 0.58130 0.16853 0.16683
 N349 N 0.56229 0.15345 0.17657
 C350 C 0.57725 0.18501 0.14667
 C351 C 0.55140 0.19245 0.13964
 C352 C 0.54508 0.20449 0.11733
 C353 C 0.51877 0.21088 0.11940
 C354 C 0.50984 0.20219 0.14272
 N355 N 0.52977 0.19097 0.15507
 C356 C 0.48439 0.20641 0.15328
 C357 C 0.47407 0.19271 0.17384
 C358 C 0.45130 0.19823 0.18772
 C359 C 0.44685 0.17920 0.20422
 C360 C 0.46708 0.16266 0.19994
 N361 N 0.48362 0.17109 0.18149
 C362 C 0.46815 0.13917 0.21060
 H363 H 0.47771 0.08876 0.22167
 H364 H 0.52884 0.07796 0.21950
 H365 H 0.49834 0.16111 0.17232
 H366 H 0.61635 0.13679 0.20675
 H367 H 0.62474 0.17268 0.17425
 H368 H 0.55813 0.20852 0.10133
 H369 H 0.50750 0.22085 0.10543
 H370 H 0.43024 0.17743 0.21742
 H371 H 0.54305 0.15084 0.16947
 H372 H 0.43883 0.21400 0.18573
 C373 C 0.47814 0.10678 0.78585
 C374 C 0.50530 0.10514 0.78274
 C375 C 0.51628 0.12678 0.79161
 N376 N 0.49676 0.14172 0.79971
 C377 C 0.47338 0.12956 0.79613
 C378 C 0.54373 0.13306 0.79029
 C379 C 0.55537 0.15269 0.80400
 C380 C 0.58143 0.16103 0.80074
 C381 C 0.58546 0.17931 0.81826
 C382 C 0.56155 0.18213 0.83145
 N383 N 0.54349 0.16546 0.82294
 C384 C 0.55735 0.19921 0.85136
 C385 C 0.53170 0.20532 0.86089
 C386 C 0.52703 0.22177 0.88052
 C387 C 0.49986 0.22407 0.88254
 C388 C 0.48869 0.20917 0.86397
 N389 N 0.50816 0.19784 0.85067
 C390 C 0.46111 0.20799 0.85823
 C391 C 0.44989 0.19209 0.83982
 C392 C 0.42432 0.19404 0.82998
 C393 C 0.42065 0.17485 0.81345
 C394 C 0.44403 0.16159 0.81374
 N395 N 0.46173 0.17219 0.82992
 C396 C 0.44780 0.13942 0.80052
 H397 H 0.46361 0.09283 0.78089
 H398 H 0.51582 0.08977 0.77486
 H399 H 0.47957 0.16476 0.83602
 H400 H 0.59621 0.15452 0.78731
 H401 H 0.60404 0.18927 0.82081
 H402 H 0.54153 0.23173 0.89184
 H403 H 0.48956 0.23590 0.89575
 H404 H 0.40272 0.17104 0.80255
 H405 H 0.52502 0.16154 0.83115
 H406 H 0.40976 0.20784 0.83430
 C407 C 0.49865 0.89484 0.21366
 C408 C 0.52528 0.88984 0.21063
 C409 C 0.52659 0.86639 0.20106
 N410 N 0.50165 0.85703 0.19788
 C411 C 0.48456 0.87441 0.20553
 C412 C 0.55044 0.85331 0.19728
 C413 C 0.55083 0.83039 0.18507
 C414 C 0.57191 0.81435 0.18603
 C415 C 0.56498 0.79485 0.17085
 C416 C 0.53985 0.79952 0.16107
 N417 N 0.53142 0.82126 0.16973
 C418 C 0.52617 0.78446 0.14343
 C419 C 0.49888 0.78692 0.13717
 C420 C 0.48600 0.77391 0.11805
 C421 C 0.45963 0.78000 0.11922
 C422 C 0.45715 0.79695 0.13876
 N423 N 0.48121 0.80091 0.14990
 C424 C 0.43264 0.80684 0.14732
 C425 C 0.43108 0.82443 0.16707
 C426 C 0.40800 0.83022 0.18041
 C427 C 0.41493 0.84792 0.19782
 C428 C 0.44191 0.85308 0.19420
 N429 N 0.45153 0.83881 0.17527
 C430 C 0.45652 0.87137 0.20747
 H431 H 0.49055 0.91155 0.22115
 H432 H 0.54175 0.90199 0.21529
 H433 H 0.47029 0.84040 0.16681
 H434 H 0.59039 0.81645 0.19654
 H435 H 0.57713 0.77907 0.16732
 H436 H 0.49457 0.76100 0.10482
 H437 H 0.44415 0.77219 0.10728
 H438 H 0.40142 0.85616 0.21139
 H439 H 0.51485 0.83053 0.16323
 H440 H 0.38814 0.82254 0.17812
 C441 C 0.77016 0.52771 0.88788
 C442 C 0.76499 0.50319 0.88861
 C443 C 0.77571 0.49350 0.86645
 N444 N 0.78693 0.51119 0.85208
 C445 C 0.78353 0.53215 0.86510
 C446 C 0.77389 0.46891 0.85902
 C447 C 0.79011 0.45903 0.83954
 C448 C 0.78584 0.43668 0.82790
 C449 C 0.80737 0.43283 0.81200
 C450 C 0.82422 0.45292 0.81443
 N451 N 0.81347 0.46885 0.83114
 C452 C 0.84989 0.45523 0.80315
 C453 C 0.86363 0.47776 0.80127
 C454 C 0.89040 0.48085 0.79482
 C455 C 0.89530 0.50544 0.79402
 C456 C 0.87136 0.51648 0.80002
 N457 N 0.85203 0.49957 0.80428
 C458 C 0.86715 0.54171 0.80075
 C459 C 0.84324 0.55169 0.81017
 C460 C 0.83471 0.57504 0.80539
 C461 C 0.81292 0.57887 0.82093
 C462 C 0.80903 0.55784 0.83497
 N463 N 0.82733 0.54123 0.82797
 C464 C 0.79117 0.55525 0.85575
 H465 H 0.76474 0.54067 0.90251
 H466 H 0.75475 0.49359 0.90381
 H467 H 0.83137 0.52525 0.83762
 H468 H 0.76918 0.42425 0.83088
 H469 H 0.81049 0.41686 0.80032
 H470 H 0.90496 0.46688 0.79123
 H471 H 0.91428 0.51415 0.78962
 H472 H 0.80181 0.59553 0.82236
 H473 H 0.82314 0.48401 0.83884
 H474 H 0.84376 0.58816 0.79259
 C475 C 0.24121 0.50524 0.11352
 C476 C 0.24022 0.48068 0.11753
 C477 C 0.22410 0.47698 0.13876
 N478 N 0.21541 0.49843 0.14798
 C479 C 0.22591 0.51575 0.13261
 C480 C 0.21995 0.45439 0.15080
 C481 C 0.20088 0.45068 0.17038
 C482 C 0.19996 0.43080 0.18646
 C483 C 0.17831 0.43393 0.20241
 C484 C 0.16653 0.45555 0.19548
 N485 N 0.18024 0.46548 0.17576
 C486 C 0.14315 0.46514 0.20664
 C487 C 0.13438 0.48897 0.20220
 C488 C 0.10926 0.49748 0.20859
 C489 C 0.10974 0.52193 0.20389
 C490 C 0.13524 0.52757 0.19507
 N491 N 0.15022 0.50736 0.19392
 C492 C 0.14523 0.55128 0.19065
 C493 C 0.17005 0.55564 0.17842
 C494 C 0.18412 0.57749 0.17898
 C495 C 0.20640 0.57452 0.16388
 C496 C 0.20530 0.55094 0.15450
 N497 N 0.18307 0.53957 0.16342
 C498 C 0.22376 0.54096 0.13700
 H499 H 0.25234 0.51432 0.09852
 H500 H 0.25053 0.46711 0.10635
 H501 H 0.17572 0.52274 0.15738
 H502 H 0.21354 0.41569 0.18676
 H503 H 0.17196 0.42166 0.21738
 H504 H 0.09248 0.48718 0.21618
 H505 H 0.09335 0.53421 0.20710
 H506 H 0.22165 0.58820 0.16021
 H507 H 0.17446 0.48038 0.16512
 H508 H 0.17892 0.59386 0.18923
 C509 C 0.86231 0.49680 0.22755
 C510 C 0.86251 0.52170 0.22866
 C511 C 0.84904 0.52958 0.20724
 N512 N 0.83990 0.51032 0.19363
 C513 C 0.84772 0.49028 0.20610
 C514 C 0.84698 0.55394 0.19920
 C515 C 0.83241 0.56021 0.17724
 C516 C 0.83670 0.58110 0.16313
 C517 C 0.81690 0.58164 0.14504
 C518 C 0.80091 0.56118 0.14880
 N519 N 0.81072 0.54803 0.16827
 C520 C 0.77649 0.55637 0.13607
 C521 C 0.76448 0.53299 0.13557
 C522 C 0.73929 0.52749 0.12608
 C523 C 0.73630 0.50275 0.12726
 C524 C 0.75952 0.49392 0.13803
 N525 N 0.77677 0.51247 0.14283
 C526 C 0.76529 0.46908 0.14151
 C527 C 0.78795 0.46079 0.15498
 C528 C 0.79637 0.43690 0.15542
 C529 C 0.81849 0.43627 0.17075
 C530 C 0.82294 0.45969 0.17973
 N531 N 0.80387 0.47442 0.17042
 C532 C 0.84331 0.46632 0.19730
 H533 H 0.87160 0.48499 0.24121
 H534 H 0.87193 0.53257 0.24341
 H535 H 0.80050 0.49220 0.17594
 H536 H 0.85229 0.59468 0.16581
 H537 H 0.81425 0.59579 0.13108
 H538 H 0.72460 0.53988 0.11883
 H539 H 0.71899 0.49260 0.12067
 H540 H 0.82951 0.42012 0.17533
 H541 H 0.80108 0.53358 0.17731
 H542 H 0.78746 0.42127 0.14608
 C543 C 0.23906 0.49869 0.89911
 C544 C 0.23446 0.47448 0.90326
 C545 C 0.21547 0.46683 0.88556
 N546 N 0.20775 0.48589 0.87135
 C547 C 0.22242 0.50527 0.87935
 C548 C 0.20469 0.44292 0.88366
 C549 C 0.18597 0.43555 0.86465
 C550 C 0.17121 0.41400 0.86492
 C551 C 0.15641 0.41322 0.84294
 C552 C 0.16300 0.43388 0.82921
 N553 N 0.18101 0.44740 0.84260
 C554 C 0.15373 0.43882 0.80423
 C555 C 0.15710 0.46169 0.79247
 C556 C 0.15244 0.46640 0.76691
 C557 C 0.15601 0.49092 0.76371
 C558 C 0.16289 0.50034 0.78738
 N559 N 0.16351 0.48248 0.80492
 C560 C 0.16694 0.52521 0.79284
 C561 C 0.17826 0.53370 0.81599
 C562 C 0.17831 0.55769 0.82417
 C563 C 0.19378 0.55891 0.84573
 C564 C 0.20221 0.53554 0.85054
 N565 N 0.19273 0.52029 0.83231
 C566 C 0.21995 0.52917 0.87018
 H567 H 0.25258 0.51026 0.90992
 H568 H 0.24381 0.46401 0.91805
 H569 H 0.19880 0.50255 0.82930
 H570 H 0.17106 0.39990 0.87912
 H571 H 0.14271 0.39873 0.83756
 H572 H 0.14697 0.45354 0.75208
 H573 H 0.15380 0.50069 0.74600
 H574 H 0.19833 0.57523 0.85650
 H575 H 0.19160 0.46232 0.83571
 H576 H 0.16869 0.57291 0.81527
 C577 C 0.27453 0.37690 0.09607
 C578 C 0.29185 0.38657 0.11390
 C579 C 0.31909 0.38173 0.11391
 C580 C 0.32895 0.36661 0.09452
 C581 C 0.31152 0.35643 0.07596
 C582 C 0.28384 0.36127 0.07700
 O583 O 0.25002 0.38576 0.09786
 C584 C 0.25190 0.40136 0.11721
 C585 C 0.27707 0.40242 0.12777
 C586 C 0.28410 0.41884 0.14694
 C587 C 0.26454 0.43509 0.15529
 C588 C 0.23868 0.43467 0.14435
 C589 C 0.23209 0.41733 0.12534
 H590 H 0.33243 0.39006 0.12772
 H591 H 0.35023 0.36325 0.09355
 H592 H 0.27037 0.35442 0.06243
 H593 H 0.30417 0.41964 0.15458
 H594 H 0.26972 0.44861 0.16957
 H595 H 0.21268 0.41723 0.11625
 C596 C 0.72333 0.61749 0.06077
 C597 C 0.72675 0.63088 0.08278
 C598 C 0.71818 0.65468 0.08526
 C599 C 0.70531 0.66502 0.06428
 C600 C 0.70073 0.65127 0.04173
 C601 C 0.70995 0.62719 0.03994
 O602 O 0.73324 0.59533 0.06225
 C603 C 0.74288 0.59462 0.08579
 C604 C 0.73912 0.61580 0.09925
 C605 C 0.74652 0.61859 0.12464
 C606 C 0.75832 0.59875 0.13663
 C607 C 0.76313 0.57688 0.12299
 C608 C 0.75540 0.57495 0.09709
 H609 H 0.72120 0.66489 0.10274
 H610 H 0.69816 0.68342 0.06584
 H611 H 0.70673 0.61636 0.02290
 H612 H 0.74296 0.63531 0.13496
 H613 H 0.76387 0.60038 0.15653
 H614 H 0.75885 0.55856 0.08616
 C615 C 0.72604 0.39362 0.92356
 C616 C 0.70572 0.40798 0.91500
 C617 C 0.67924 0.40465 0.92270
 C618 C 0.67354 0.38578 0.93993
 C619 C 0.69423 0.37073 0.94905
 C620 C 0.72084 0.37480 0.94055
 O621 O 0.74990 0.40002 0.91448
 C622 C 0.74459 0.41888 0.89984
 C623 C 0.71786 0.42452 0.89943
 C624 C 0.70807 0.44399 0.88568
 C625 C 0.72662 0.45828 0.87199
 C626 C 0.75429 0.45288 0.87237
 C627 C 0.76331 0.43278 0.88637
 H628 H 0.66357 0.41626 0.91583
 H629 H 0.65308 0.38297 0.94621
 H630 H 0.73718 0.36382 0.94717
 H631 H 0.68699 0.44819 0.88570
 H632 H 0.71960 0.47369 0.86132
 H633 H 0.78436 0.42846 0.88715
 C634 C 0.26363 0.61236 0.92720
 C635 C 0.28367 0.60291 0.91227
 C636 C 0.30974 0.61202 0.91250
 C637 C 0.31549 0.63150 0.92904
 C638 C 0.29519 0.64159 0.94467
 C639 C 0.26880 0.63200 0.94347
 O640 O 0.24046 0.60051 0.92476
 C641 C 0.24599 0.58323 0.90788
 C642 C 0.27214 0.58398 0.89957
 C643 C 0.28232 0.56746 0.88202
 C644 C 0.26478 0.54953 0.87253
 C645 C 0.23778 0.54838 0.88082
 C646 C 0.22826 0.56536 0.89888
 H647 H 0.32521 0.60415 0.90070
 H648 H 0.33578 0.63859 0.92980
 H649 H 0.25299 0.63902 0.95548
 H650 H 0.30299 0.56837 0.87584
 H651 H 0.27211 0.53649 0.85874
 H652 H 0.20774 0.56469 0.90555
 C653 C 0.06650 0.26922 0.36903
 C654 C 0.08315 0.28580 0.38094
 C655 C 0.07996 0.31073 0.37891
 C656 C 0.05882 0.31892 0.36387
 C657 C 0.04180 0.30220 0.35097
 C658 C 0.04582 0.27699 0.35338
 O659 O 0.07144 0.24643 0.37538
 C660 C 0.09170 0.24867 0.39158
 C661 C 0.09980 0.27239 0.39536
 C662 C 0.11970 0.27910 0.41254
 C663 C 0.13111 0.26069 0.42706
 C664 C 0.12216 0.23628 0.42444
 C665 C 0.10273 0.23006 0.40593
 H666 H 0.09292 0.32340 0.38896
 H667 H 0.05582 0.33826 0.36204
 H668 H 0.03270 0.26391 0.34406
 H669 H 0.12553 0.29790 0.41535
 H670 H 0.14583 0.26552 0.44140
 H671 H 0.09517 0.21163 0.40408
 C672 C 0.10524 0.72731 0.62056
 C673 C 0.12274 0.71135 0.60939
 C674 C 0.12092 0.68640 0.61283
 C675 C 0.10022 0.67751 0.62845
 C676 C 0.08215 0.69360 0.64048
 C677 C 0.08488 0.71890 0.63670
 O678 O 0.10903 0.75005 0.61297
 C679 C 0.12937 0.74840 0.59671
 C680 C 0.13865 0.72512 0.59406
 C681 C 0.15872 0.71892 0.57689
 C682 C 0.16915 0.73735 0.56128
 C683 C 0.15920 0.76126 0.56295
 C684 C 0.13951 0.76702 0.58135
 H685 H 0.13457 0.67417 0.60339
 H686 H 0.09830 0.65812 0.63129
 H687 H 0.07101 0.73149 0.64528
 H688 H 0.16541 0.70042 0.57493
 H689 H 0.18399 0.73283 0.54697
 H690 H 0.13114 0.78501 0.58243
 C691 C 0.92764 0.72203 0.40056
 C692 C 0.90725 0.70584 0.40610
 C693 C 0.90673 0.68216 0.39677
 C694 C 0.92796 0.67496 0.38093
 C695 C 0.94879 0.69153 0.37433
 C696 C 0.94856 0.71544 0.38429
 O697 O 0.92494 0.74330 0.41223
 C698 C 0.90228 0.74055 0.42527
 C699 C 0.89046 0.71807 0.42194
 C700 C 0.86640 0.71148 0.43365
 C701 C 0.85429 0.72862 0.44977
 C702 C 0.86668 0.75153 0.45430
 C703 C 0.89089 0.75762 0.44164
 H704 H 0.89065 0.66965 0.40161
 H705 H 0.92787 0.65665 0.37330
 H706 H 0.96432 0.72839 0.37971
 H707 H 0.85738 0.69375 0.43062
 H708 H 0.83572 0.72389 0.45935
 H709 H 0.90076 0.77497 0.44488
 C710 C 0.91787 0.27033 0.60565
 C711 C 0.90619 0.28623 0.58907
 C712 C 0.90999 0.31123 0.59080
 C713 C 0.92670 0.32021 0.61026
 C714 C 0.93909 0.30420 0.62762
 C715 C 0.93430 0.27888 0.62533
 O716 O 0.91245 0.24723 0.60017
 C717 C 0.89701 0.24856 0.57968
 C718 C 0.89252 0.27202 0.57214
 C719 C 0.87734 0.27758 0.55082
 C720 C 0.86638 0.25818 0.53670
 C721 C 0.87085 0.23381 0.54396
 C722 C 0.88636 0.22897 0.56584
 H723 H 0.90075 0.32338 0.57739
 H724 H 0.93016 0.33960 0.61166
 H725 H 0.94373 0.26612 0.63797
 H726 H 0.87417 0.29618 0.54519
 H727 H 0.85450 0.26204 0.52000
 H728 H 0.89026 0.21054 0.57165
 C729 C 0.38638 0.08535 0.26892
 C730 C 0.37560 0.09227 0.24603
 C731 C 0.35040 0.08481 0.23794
 C732 C 0.33582 0.06915 0.25386
 C733 C 0.34660 0.06110 0.27735
 C734 C 0.37213 0.06975 0.28519
 O735 O 0.41121 0.09368 0.27228
 C736 C 0.41617 0.10596 0.25096
 C737 C 0.39500 0.10553 0.23429
 C738 C 0.39628 0.11575 0.21014
 C739 C 0.42044 0.12684 0.20278
 C740 C 0.44262 0.12780 0.21961
 C741 C 0.44030 0.11739 0.24421
 H742 H 0.34248 0.09038 0.21973
 H743 H 0.31634 0.06283 0.24749
 H744 H 0.38111 0.06367 0.30276
 H745 H 0.37948 0.11472 0.19720
 H746 H 0.42207 0.13441 0.18380
 H747 H 0.45696 0.11768 0.25735
 C748 C 0.62517 0.07237 0.74162
 C749 C 0.60923 0.08197 0.72299
 C750 C 0.61223 0.07652 0.69726
 C751 C 0.63226 0.06020 0.69041
 C752 C 0.64893 0.04977 0.70917
 C753 C 0.64555 0.05626 0.73518
 O754 O 0.61825 0.07940 0.76501
 C755 C 0.59750 0.09371 0.76098
 C756 C 0.59126 0.09587 0.73556
 C757 C 0.57001 0.10954 0.72693
 C758 C 0.55457 0.12161 0.74525
 C759 C 0.56051 0.11973 0.77158
 C760 C 0.58230 0.10554 0.77959
 H761 H 0.59931 0.08423 0.68301
 H762 H 0.63459 0.05548 0.67045
 H763 H 0.65768 0.04834 0.74995
 H764 H 0.56546 0.11084 0.70681
 H765 H 0.53797 0.13250 0.73902
 H766 H 0.58713 0.10380 0.79961
 C767 C 0.36516 0.94046 0.73468
 C768 C 0.38124 0.93015 0.71635
 C769 C 0.37946 0.93567 0.69063
 C770 C 0.36055 0.95280 0.68346
 C771 C 0.34377 0.96392 0.70193
 C772 C 0.34585 0.95736 0.72792
 O773 O 0.37105 0.93338 0.75818
 C774 C 0.39126 0.91832 0.75451
 C775 C 0.39817 0.91571 0.72923
 C776 C 0.41922 0.90142 0.72099
 C777 C 0.43382 0.88927 0.73961
 C778 C 0.42725 0.89171 0.76582
 C779 C 0.40558 0.90638 0.77340
 H780 H 0.39251 0.92743 0.67662
 H781 H 0.35914 0.95756 0.66350
 H782 H 0.33361 0.96582 0.74245
 H783 H 0.42434 0.89983 0.70097
 H784 H 0.45037 0.87803 0.73372
 H785 H 0.40037 0.90864 0.79334
 C786 C 0.63073 0.89801 0.26425
 C787 C 0.64181 0.89633 0.24026
 C788 C 0.66631 0.90715 0.23404
 C789 C 0.67948 0.92080 0.25310
 C790 C 0.66791 0.92352 0.27773
 C791 C 0.64350 0.91131 0.28343
 O792 O 0.60657 0.88789 0.26594
 C793 C 0.60214 0.87974 0.24247
 C794 C 0.62303 0.88444 0.22594
 C795 C 0.62167 0.87897 0.20001
 C796 C 0.59782 0.86839 0.19079
 C797 C 0.57600 0.86354 0.20749
 C798 C 0.57846 0.86898 0.23378
 H799 H 0.67451 0.90588 0.21494
 H800 H 0.69795 0.93020 0.24826
 H801 H 0.63379 0.91329 0.30181
 H802 H 0.63813 0.88320 0.18724
 H803 H 0.59607 0.86435 0.17061
 H804 H 0.56205 0.86561 0.24690
 C805 C 0.39314 0.25933 0.93140
 C806 C 0.40060 0.27516 0.91235
 C807 C 0.39543 0.29982 0.91344
 C808 C 0.38234 0.30865 0.93520
 C809 C 0.37449 0.29283 0.95525
 C810 C 0.37956 0.26769 0.95311
 O811 O 0.40166 0.23689 0.92728
 C812 C 0.41474 0.23867 0.90519
 C813 C 0.41456 0.26171 0.89525
 C814 C 0.42814 0.26803 0.87298
 C815 C 0.44274 0.24990 0.86053
 C816 C 0.44351 0.22612 0.87053
 C817 C 0.42910 0.22031 0.89303
 H818 H 0.40185 0.31195 0.89837
 H819 H 0.37859 0.32792 0.93659
 H820 H 0.37432 0.25531 0.96836
 H821 H 0.42797 0.28638 0.86576
 H822 H 0.45396 0.25442 0.84345
 H823 H 0.42988 0.20233 0.90119
 C824 C 0.59440 0.74347 0.91227
 C825 C 0.57716 0.72833 0.89914
 C826 C 0.57625 0.70337 0.90271
 C827 C 0.59373 0.69359 0.92068
 C828 C 0.61171 0.70876 0.93461
 C829 C 0.61216 0.73409 0.93009
 O830 O 0.59119 0.76676 0.90680
 C831 C 0.57147 0.76628 0.88987
 C832 C 0.56224 0.74317 0.88452
 C833 C 0.54098 0.73844 0.86813
 C834 C 0.52853 0.75837 0.85699
 C835 C 0.53747 0.78236 0.86238
 C836 C 0.55943 0.78640 0.87886
 H837 H 0.56231 0.69188 0.89231
 H838 H 0.59309 0.67419 0.92383
 H839 H 0.62536 0.74621 0.94061
 H840 H 0.53393 0.72011 0.86444
 H841 H 0.51159 0.75525 0.84451
 H842 H 0.56627 0.80460 0.88353
 C843 C 0.35868 0.76666 0.07253
 C844 C 0.34995 0.75912 0.09619
 C845 C 0.33107 0.74056 0.09936
 C846 C 0.32118 0.72905 0.07729
 C847 C 0.33090 0.73575 0.05288
 C848 C 0.34962 0.75501 0.05041
 O849 O 0.37798 0.78338 0.07369
 C850 C 0.38185 0.78621 0.09857
 C851 C 0.36548 0.77154 0.11319
 C852 C 0.36897 0.76886 0.13936
 C853 C 0.39054 0.78135 0.15075
 C854 C 0.40747 0.79680 0.13609
 C855 C 0.40238 0.79986 0.10978
 H856 H 0.32482 0.73466 0.11814
 H857 H 0.30719 0.71398 0.07926
 H858 H 0.35780 0.75996 0.03196
 H859 H 0.35659 0.75644 0.15031
 H860 H 0.39476 0.77828 0.17072
 H861 H 0.41564 0.81078 0.09800
 C862 C 0.64011 0.25211 0.08510
 C863 C 0.65123 0.22958 0.08197
 C864 C 0.66998 0.22471 0.06294
 C865 C 0.67727 0.24375 0.04641
 C866 C 0.66518 0.26679 0.04878
 C867 C 0.64661 0.27102 0.06861
 O868 O 0.62168 0.25281 0.10330
 C869 C 0.62083 0.23019 0.11170
 C870 C 0.63833 0.21511 0.09922
 C871 C 0.63841 0.19013 0.10318
 C872 C 0.61914 0.18031 0.12000
 C873 C 0.60060 0.19557 0.13263
 C874 C 0.60238 0.22097 0.12917
 H875 H 0.67829 0.20681 0.06059
 H876 H 0.69142 0.24030 0.03116
 H877 H 0.63695 0.28839 0.07075
 H878 H 0.65186 0.17848 0.09270
 H879 H 0.61776 0.16082 0.12225
 H880 H 0.58825 0.23301 0.13825
 C881 C 0.23492 0.08618 0.61098
 C882 C 0.20918 0.08794 0.62003
 C883 C 0.20093 0.07757 0.64297
 C884 C 0.21986 0.06442 0.65684
 C885 C 0.24642 0.06193 0.64757
 C886 C 0.25400 0.07339 0.62446
 O887 O 0.23871 0.09697 0.58866
 C888 C 0.21480 0.10572 0.58340
 C889 C 0.19598 0.10067 0.60194
 C890 C 0.16956 0.10802 0.60013
 C891 C 0.16241 0.12141 0.57854
 C892 C 0.18159 0.12707 0.55937
 C893 C 0.20812 0.11895 0.56177
 H894 H 0.18053 0.07915 0.64971
 H895 H 0.21362 0.05566 0.67436
 H896 H 0.27398 0.07174 0.61664
 H897 H 0.15505 0.10381 0.61490
 H898 H 0.14209 0.12776 0.57687
 H899 H 0.22315 0.12329 0.54752
 C900 C 0.74345 0.06125 0.38287
 C901 C 0.72470 0.06845 0.40050
 C902 C 0.69953 0.05772 0.40249
 C903 C 0.69338 0.03861 0.38572
 C904 C 0.71220 0.03068 0.36707
 C905 C 0.73757 0.04256 0.36551
 O906 O 0.76675 0.07294 0.38540
 C907 C 0.76251 0.08782 0.40502
 C908 C 0.73700 0.08584 0.41478
 C909 C 0.72836 0.09897 0.43588
 C910 C 0.74688 0.11462 0.44766
 C911 C 0.77351 0.11666 0.43841
 C912 C 0.78137 0.10330 0.41655
 H913 H 0.68529 0.06352 0.41680
 H914 H 0.67384 0.03002 0.38742
 H915 H 0.75264 0.03689 0.35192
 H916 H 0.70822 0.09693 0.44328
 H917 H 0.74077 0.12478 0.46440
 H918 H 0.80169 0.10432 0.40938
 C919 C 0.76995 0.92813 0.62776
 C920 C 0.77346 0.90809 0.64283
 C921 C 0.76519 0.90721 0.66824
 C922 C 0.75227 0.92766 0.67833
 C923 C 0.74734 0.94801 0.66274
 C924 C 0.75658 0.94834 0.63721
 O925 O 0.77878 0.92515 0.60403
 C926 C 0.78773 0.90259 0.60398
 C927 C 0.78462 0.89126 0.62715
 C928 C 0.79064 0.86699 0.63076
 C929 C 0.80015 0.85389 0.60964
 C930 C 0.80413 0.86523 0.58558
 C931 C 0.79823 0.89017 0.58299
 H932 H 0.76809 0.89121 0.67971
 H933 H 0.74492 0.92719 0.69779
 H934 H 0.75274 0.96361 0.62489
 H935 H 0.78746 0.85828 0.64900
 H936 H 0.80429 0.83480 0.61195
 H937 H 0.80129 0.89953 0.56509
 C938 C 0.25893 0.92779 0.38193
 C939 C 0.23530 0.92074 0.37054
 C940 C 0.22627 0.93075 0.34798
 C941 C 0.24224 0.94879 0.33663
 C942 C 0.26665 0.95665 0.34803
 C943 C 0.27507 0.94594 0.37109
 O944 O 0.26368 0.91595 0.40341
 C945 C 0.24252 0.90123 0.40561
 C946 C 0.22454 0.90355 0.38603
 C947 C 0.20061 0.89045 0.38487
 C948 C 0.19487 0.87436 0.40483
 C949 C 0.21313 0.87148 0.42521
 C950 C 0.23742 0.88502 0.42546
 H951 H 0.20758 0.92491 0.33943
 H952 H 0.23536 0.95682 0.31907
 H953 H 0.29355 0.95150 0.38025
 H954 H 0.18668 0.89280 0.36935
 H955 H 0.17611 0.86430 0.40464
 H956 H 0.25162 0.88323 0.44086
 C957 C 0.07168 0.38459 0.74701
 C958 C 0.09246 0.36913 0.75164
 C959 C 0.09227 0.34508 0.74343
 C960 C 0.06989 0.33674 0.72963
 C961 C 0.04868 0.35260 0.72386
 C962 C 0.04958 0.37685 0.73279
 O963 O 0.07558 0.40662 0.75676
 C964 C 0.09945 0.40512 0.76758
 C965 C 0.11081 0.38267 0.76475
 C966 C 0.13627 0.37753 0.77369
 C967 C 0.15050 0.39625 0.78618
 C968 C 0.13886 0.41934 0.79006
 C969 C 0.11290 0.42372 0.78058
 H970 H 0.10879 0.33321 0.74739
 H971 H 0.06947 0.31819 0.72271
 H972 H 0.03363 0.38932 0.72869
 H973 H 0.14499 0.35985 0.77090
 H974 H 0.17048 0.39278 0.79304
 H975 H 0.10352 0.44115 0.78319
 C976 C 0.08370 0.61513 0.25757
 C977 C 0.08437 0.62553 0.23378
 C978 C 0.07034 0.64647 0.22809
 C979 C 0.05475 0.65684 0.24763
 C980 C 0.05324 0.64599 0.27211
 C981 C 0.06827 0.62498 0.27709
 O982 O 0.09778 0.59499 0.25902
 C983 C 0.10744 0.59245 0.23560
 C984 C 0.09980 0.61056 0.21931
 C985 C 0.10670 0.61061 0.19353
 C986 C 0.12189 0.59113 0.18424
 C987 C 0.12993 0.57228 0.20075
 C988 C 0.12287 0.57325 0.22689
 H989 H 0.07102 0.65430 0.20921
 H990 H 0.04326 0.67283 0.24345
 H991 H 0.06753 0.61617 0.29550
 H992 H 0.10022 0.62485 0.18095
 H993 H 0.12711 0.59050 0.16417
 H994 H 0.12872 0.55911 0.23992
 C995 C 0.90431 0.39265 0.25166
 C996 C 0.91229 0.39287 0.22652
 C997 C 0.93211 0.37789 0.21696
 C998 C 0.94468 0.36237 0.23413
 C999 C 0.93765 0.36246 0.26041
 C1000 C 0.91687 0.37764 0.26919
 O1001 O 0.88518 0.40848 0.25677
 C1002 C 0.88123 0.41907 0.23441
 C1003 C 0.89758 0.41033 0.21539
 C1004 C 0.89788 0.41962 0.19081
 C1005 C 0.88041 0.43857 0.18552
 C1006 C 0.86272 0.44743 0.20453
 C1007 C 0.86311 0.43751 0.22937
 H1008 H 0.93801 0.37842 0.19708
 H1009 H 0.96071 0.35109 0.22713
 H1010 H 0.91118 0.37823 0.28914
 H1011 H 0.91124 0.41268 0.17629
 H1012 H 0.88020 0.44612 0.16649
 H1013 H 0.84976 0.44394 0.24416
 C1014 C 0.94466 0.60065 0.74300
 C1015 C 0.94481 0.60829 0.76802
 C1016 C 0.96036 0.62772 0.77660
 C1017 C 0.97660 0.63974 0.75869
 C1018 C 0.97708 0.63220 0.73273
 C1019 C 0.96073 0.61232 0.72483
 O1020 O 0.92810 0.58197 0.73885
 C1021 C 0.91762 0.57776 0.76177
 C1022 C 0.92727 0.59336 0.78025
 C1023 C 0.91888 0.59247 0.80554
 C1024 C 0.89951 0.57493 0.81202
 C1025 C 0.88898 0.55880 0.79331
 C1026 C 0.89831 0.56009 0.76783
 H1027 H 0.96003 0.63343 0.79639
 H1028 H 0.98894 0.65483 0.76518
 H1029 H 0.96058 0.60608 0.70521
 H1030 H 0.92675 0.60499 0.81970
 H1031 H 0.89238 0.57405 0.83154
 H1032 H 0.89035 0.54810 0.75320
 C1033 C 0.72178 0.62385 0.90854
 C1034 C 0.74701 0.63404 0.90761
 C1035 C 0.75368 0.65551 0.92026
 C1036 C 0.73367 0.66665 0.93492
 C1037 C 0.70783 0.65571 0.93738
 C1038 C 0.70184 0.63421 0.92343
 O1039 O 0.71967 0.60307 0.89582
 C1040 C 0.74422 0.59984 0.88694
 C1041 C 0.76183 0.61811 0.89385
 C1042 C 0.78908 0.61713 0.88865
 C1043 C 0.79853 0.59640 0.87602
 C1044 C 0.78065 0.57750 0.86832
 C1045 C 0.75299 0.57961 0.87348
 H1046 H 0.77371 0.66318 0.91928
 H1047 H 0.73881 0.68308 0.94532
 H1048 H 0.68245 0.62527 0.92465
 H1049 H 0.80270 0.63138 0.89488
 H1050 H 0.81981 0.59485 0.87259
 H1051 H 0.73887 0.56547 0.86801
 C1052 C 0.27165 0.37979 0.94528
 C1053 C 0.24549 0.37567 0.95240
 C1054 C 0.23820 0.35895 0.97103
 C1055 C 0.25875 0.34617 0.98299
 C1056 C 0.28608 0.35133 0.97722
 C1057 C 0.29246 0.36844 0.95797
 O1058 O 0.27426 0.39551 0.92633
 C1059 C 0.24924 0.40178 0.92170
 C1060 C 0.23090 0.39064 0.93754
 C1061 C 0.20385 0.39630 0.93742
 C1062 C 0.19544 0.41405 0.92017
 C1063 C 0.21373 0.42462 0.90252
 C1064 C 0.24102 0.41821 0.90332
 H1065 H 0.21744 0.35571 0.97604
 H1066 H 0.25334 0.33318 0.99762
 H1067 H 0.31299 0.37253 0.95267
 H1068 H 0.18990 0.38790 0.95064
 H1069 H 0.17469 0.41942 0.92034
 H1070 H 0.25553 0.42634 0.89044
 C1071 C 0.26776 0.61752 0.07165
 C1072 C 0.28881 0.60517 0.08193
 C1073 C 0.31530 0.61026 0.07562
 C1074 C 0.32031 0.62877 0.05788
 C1075 C 0.29893 0.64201 0.04703
 C1076 C 0.27225 0.63627 0.05437
 O1077 O 0.24406 0.60927 0.07941
 C1078 C 0.25030 0.59135 0.09499
 C1079 C 0.27742 0.58817 0.09733
 C1080 C 0.28832 0.57032 0.11263
 C1081 C 0.27049 0.55507 0.12596
 C1082 C 0.24243 0.55769 0.12340
 C1083 C 0.23225 0.57621 0.10779
 H1084 H 0.33153 0.60014 0.08380
 H1085 H 0.34090 0.63271 0.05268
 H1086 H 0.25533 0.64565 0.04642
 H1087 H 0.30973 0.56820 0.11422
 H1088 H 0.27843 0.54107 0.13809
 H1089 H 0.21092 0.57855 0.10553
 C1090 C 0.72399 0.39197 0.07475
 C1091 C 0.70346 0.39929 0.09042
 C1092 C 0.67754 0.39018 0.08823
 C1093 C 0.67253 0.37296 0.06897
 C1094 C 0.69356 0.36446 0.05299
 C1095 C 0.71980 0.37396 0.05635
 O1096 O 0.74667 0.40414 0.07877
 C1097 C 0.74036 0.41927 0.09756
 C1098 C 0.71430 0.41675 0.10572
 C1099 C 0.70377 0.43035 0.12572
 C1100 C 0.72088 0.44720 0.13783
 C1101 C 0.74752 0.45072 0.12910
 C1102 C 0.75727 0.43665 0.10852
 H1103 H 0.66159 0.39653 0.10048
 H1104 H 0.65228 0.36602 0.06682
 H1105 H 0.73623 0.36844 0.04420
 H1106 H 0.68327 0.42787 0.13198
 H1107 H 0.71338 0.45777 0.15373
 H1108 H 0.77755 0.43901 0.10152
 C1109 C 0.94614 0.72140 0.62247
 C1110 C 0.92969 0.73321 0.63940
 C1111 C 0.93329 0.73237 0.66566
 C1112 C 0.95465 0.71871 0.67485
 C1113 C 0.97085 0.70498 0.65788
 C1114 C 0.96624 0.70626 0.63124
 O1115 O 0.94084 0.72638 0.59827
 C1116 C 0.92024 0.74125 0.59997
 C1117 C 0.91218 0.74546 0.62468
 C1118 C 0.89004 0.75932 0.63074
 C1119 C 0.87574 0.76940 0.61050
 C1120 C 0.88466 0.76684 0.58481
 C1121 C 0.90747 0.75253 0.57968
 H1122 H 0.92051 0.74235 0.67858
 H1123 H 0.95787 0.71808 0.69526
 H1124 H 0.97869 0.69665 0.61769
 H1125 H 0.88365 0.76186 0.65032
 H1126 H 0.85794 0.77960 0.61489
 H1127 H 0.91524 0.75036 0.56052
 C1128 C 0.90530 0.26585 0.36482
 C1129 C 0.90624 0.24291 0.35447
 C1130 C 0.92070 0.23763 0.33246
 C1131 C 0.93524 0.25666 0.32096
 C1132 C 0.93556 0.28038 0.33186
 C1133 C 0.91972 0.28497 0.35387
 O1134 O 0.89149 0.26685 0.38646
 C1135 C 0.88377 0.24400 0.39002
 C1136 C 0.89237 0.22857 0.37107
 C1137 C 0.88841 0.20356 0.37215
 C1138 C 0.87538 0.19411 0.39378
 C1139 C 0.86640 0.20966 0.41363
 C1140 C 0.87012 0.23506 0.41130
 H1141 H 0.92131 0.21939 0.32476
 H1142 H 0.94709 0.25257 0.30418
 H1143 H 0.91943 0.30266 0.36296
 H1144 H 0.89584 0.19170 0.35729
 H1145 H 0.87282 0.17463 0.39542
 H1146 H 0.86356 0.24738 0.42615
 C1147 C 0.07322 0.27400 0.61423
 C1148 C 0.08743 0.29067 0.60001
 C1149 C 0.08282 0.31543 0.60133
 C1150 C 0.06268 0.32337 0.61796
 C1151 C 0.04789 0.30658 0.63322
 C1152 C 0.05369 0.28151 0.63147
 O1153 O 0.07881 0.25120 0.60828
 C1154 C 0.09698 0.25352 0.58991
 C1155 C 0.10320 0.27733 0.58436
 C1156 C 0.12061 0.28398 0.56479
 C1157 C 0.13149 0.26535 0.54990
 C1158 C 0.12437 0.24075 0.55450
 C1159 C 0.10743 0.23472 0.57522
 H1160 H 0.09383 0.32814 0.58947
 H1161 H 0.05870 0.34262 0.61889
 H1162 H 0.04251 0.26804 0.64226
 H1163 H 0.12497 0.30284 0.56062
 H1164 H 0.14440 0.27003 0.53397
 H1165 H 0.10131 0.21611 0.57873
 C1166 C 0.09312 0.72495 0.37971
 C1167 C 0.10808 0.70798 0.39214
 C1168 C 0.10163 0.68338 0.39190
 C1169 C 0.07891 0.67593 0.37816
 C1170 C 0.06345 0.69295 0.36444
 C1171 C 0.07100 0.71787 0.36516
 O1172 O 0.10095 0.74761 0.38461
 C1173 C 0.12139 0.74486 0.40039
 C1174 C 0.12682 0.72093 0.40528
 C1175 C 0.14643 0.71386 0.42232
 C1176 C 0.16032 0.73220 0.43560
 C1177 C 0.15389 0.75694 0.43210
 C1178 C 0.13481 0.76340 0.41359
 H1179 H 0.11328 0.67045 0.40244
 H1180 H 0.07366 0.65680 0.37801
 H1181 H 0.05944 0.73152 0.35554
 H1182 H 0.15018 0.69491 0.42600
 H1183 H 0.17482 0.72716 0.44986
 H1184 H 0.12916 0.78212 0.41103
 C1185 C 0.62041 0.92584 0.73703
 C1186 C 0.62943 0.92219 0.76145
 C1187 C 0.65300 0.93240 0.77065
 C1188 C 0.66783 0.94728 0.75415
 C1189 C 0.65891 0.95192 0.72891
 C1190 C 0.63490 0.94072 0.72015
 O1191 O 0.59696 0.91494 0.73257
 C1192 C 0.59112 0.90437 0.75471
 C1193 C 0.61036 0.90837 0.77298
 C1194 C 0.60784 0.90016 0.79790
 C1195 C 0.58438 0.88741 0.80439
 C1196 C 0.56413 0.88290 0.78601
 C1197 C 0.56779 0.89123 0.76064
 H1198 H 0.65957 0.92932 0.79000
 H1199 H 0.68610 0.95554 0.76132
 H1200 H 0.62738 0.94401 0.70116
 H1201 H 0.62314 0.90389 0.81199
 H1202 H 0.58174 0.88132 0.82386
 H1203 H 0.55268 0.88805 0.74621
 C1204 C 0.38293 0.93871 0.25779
 C1205 C 0.39961 0.92918 0.27585
 C1206 C 0.39815 0.93526 0.30154
 C1207 C 0.37876 0.95198 0.30898
 C1208 C 0.36114 0.96212 0.29084
 C1209 C 0.36319 0.95523 0.26483
 O1210 O 0.38802 0.93063 0.23435
 C1211 C 0.40828 0.91565 0.23779
 C1212 C 0.41601 0.91410 0.26288
 C1213 C 0.43658 0.89934 0.27097
 C1214 C 0.44970 0.88546 0.25243
 C1215 C 0.44227 0.88674 0.22638
 C1216 C 0.42132 0.90218 0.21893
 H1217 H 0.41155 0.92750 0.31536
 H1218 H 0.37743 0.95693 0.32897
 H1219 H 0.35017 0.96274 0.25052
 H1220 H 0.44219 0.89841 0.29086
 H1221 H 0.46559 0.87358 0.25828
 H1222 H 0.41530 0.90344 0.19916
 C1223 C 0.62040 0.04675 0.26532
 C1224 C 0.62871 0.04556 0.24029
 C1225 C 0.64919 0.03068 0.23204
 C1226 C 0.66186 0.01653 0.25036
 C1227 C 0.65377 0.01724 0.27635
 C1228 C 0.63245 0.03238 0.28391
 O1229 O 0.60133 0.06299 0.26913
 C1230 C 0.59758 0.07214 0.24600
 C1231 C 0.61378 0.06195 0.22771
 C1232 C 0.61365 0.06901 0.20230
 C1233 C 0.59618 0.08747 0.19540
 C1234 C 0.57952 0.09865 0.21387
 C1235 C 0.58010 0.09073 0.23955
 H1236 H 0.65549 0.03026 0.21226
 H1237 H 0.67804 0.00495 0.24427
 H1238 H 0.62611 0.03352 0.30365
 H1239 H 0.62667 0.06070 0.18831
 H1240 H 0.59574 0.09330 0.17571
 H1241 H 0.56769 0.09908 0.25402
 C1242 C 0.36992 0.08658 0.73667
 C1243 C 0.35994 0.08816 0.76111
 C1244 C 0.33601 0.07728 0.76854
 C1245 C 0.32190 0.06385 0.75016
 C1246 C 0.33193 0.06125 0.72485
 C1247 C 0.35623 0.07312 0.71797
 O1248 O 0.39340 0.09792 0.73393
 C1249 C 0.39831 0.10663 0.75719
 C1250 C 0.37849 0.10100 0.77451
 C1251 C 0.38005 0.10716 0.80022
 C1252 C 0.40304 0.11968 0.80848
 C1253 C 0.42368 0.12607 0.79102
 C1254 C 0.42113 0.11958 0.76491
 H1255 H 0.32865 0.07875 0.78793
 H1256 H 0.30342 0.05497 0.75595
 H1257 H 0.36459 0.07136 0.69897
 H1258 H 0.36433 0.10216 0.81352
 H1259 H 0.40489 0.12437 0.82850
 H1260 H 0.43662 0.12417 0.75120
 C1261 C 0.59284 0.73324 0.07005
 C1262 C 0.57807 0.71619 0.08327
 C1263 C 0.57787 0.69168 0.07682
 C1264 C 0.59372 0.68446 0.05602
 C1265 C 0.60943 0.70169 0.04232
 C1266 C 0.60889 0.72645 0.04953
 O1267 O 0.58941 0.75569 0.07851
 C1268 C 0.57213 0.75278 0.09754
 C1269 C 0.56465 0.72895 0.10137
 C1270 C 0.54613 0.72194 0.11989
 C1271 C 0.53443 0.74031 0.13465
 C1272 C 0.54129 0.76502 0.13041
 C1273 C 0.56076 0.77129 0.11194
 H1274 H 0.56586 0.67863 0.08733
 H1275 H 0.59398 0.66543 0.05082
 H1276 H 0.62044 0.74009 0.03936
 H1277 H 0.54045 0.70309 0.12249
 H1278 H 0.51938 0.73550 0.14873
 H1279 H 0.56598 0.79007 0.10819
 C1280 C 0.41110 0.26241 0.09101
 C1281 C 0.43025 0.27799 0.10076
 C1282 C 0.43272 0.30207 0.09326
 C1283 C 0.41458 0.31052 0.07509
 C1284 C 0.39438 0.29493 0.06493
 C1285 C 0.39266 0.27050 0.07313
 O1286 O 0.41304 0.23993 0.09975
 C1287 C 0.43384 0.24136 0.11541
 C1288 C 0.44497 0.26432 0.11680
 C1289 C 0.46751 0.26977 0.13130
 C1290 C 0.47945 0.25067 0.14443
 C1291 C 0.46882 0.22673 0.14271
 C1292 C 0.44538 0.22208 0.12838
 H1293 H 0.44817 0.31390 0.10099
 H1294 H 0.41614 0.32927 0.06914
 H1295 H 0.37766 0.25808 0.06559
 H1296 H 0.47602 0.28792 0.13194
 H1297 H 0.49755 0.25425 0.15518
 H1298 H 0.43726 0.20386 0.12640
 C1299 C 0.63300 0.24438 0.92212
 C1300 C 0.63817 0.25375 0.89828
 C1301 C 0.65503 0.27371 0.89438
 C1302 C 0.66647 0.28481 0.91599
 C1303 C 0.66040 0.27609 0.94073
 C1304 C 0.64381 0.25539 0.94384
 O1305 O 0.61509 0.22641 0.92191
 C1306 C 0.60850 0.22457 0.89747
 C1307 C 0.62181 0.24107 0.88223
 C1308 C 0.61547 0.24437 0.85667
 C1309 C 0.59447 0.23021 0.84650
 C1310 C 0.58089 0.21272 0.86173
 C1311 C 0.58840 0.20961 0.88747
 H1312 H 0.65845 0.28102 0.87550
 H1313 H 0.67869 0.30104 0.91363
 H1314 H 0.63826 0.24897 0.96265
 H1315 H 0.62551 0.25807 0.84527
 H1316 H 0.58839 0.23312 0.82696
 H1317 H 0.57773 0.19695 0.89967
 C1318 C 0.35904 0.75443 0.91018
 C1319 C 0.34775 0.77703 0.91155
 C1320 C 0.32685 0.78230 0.92829
 C1321 C 0.31766 0.76366 0.94452
 C1322 C 0.32987 0.74059 0.94406
 C1323 C 0.35047 0.73588 0.92625
 O1324 O 0.37966 0.75336 0.89429
 C1325 C 0.38174 0.77581 0.88559
 C1326 C 0.36283 0.79113 0.89560
 C1327 C 0.36319 0.81598 0.89087
 C1328 C 0.38420 0.82538 0.87577
 C1329 C 0.40411 0.80988 0.86569
 C1330 C 0.40219 0.78463 0.87000
 H1331 H 0.31846 0.80027 0.92933
 H1332 H 0.30203 0.76753 0.95825
 H1333 H 0.36035 0.71853 0.92561
 H1334 H 0.34851 0.82783 0.89936
 H1335 H 0.38557 0.84477 0.87267
 H1336 H 0.41720 0.77240 0.86270
 C1337 C 0.74617 0.90479 0.40041
 C1338 C 0.77285 0.91124 0.40037
 C1339 C 0.78344 0.92945 0.38505
 C1340 C 0.76587 0.94158 0.36899
 C1341 C 0.73812 0.93565 0.36865
 C1342 C 0.72806 0.91702 0.38479
 O1343 O 0.74059 0.88656 0.41623
 C1344 C 0.76428 0.88157 0.42637
 C1345 C 0.78455 0.89633 0.41734
 C1346 C 0.81087 0.89473 0.42548
 C1347 C 0.81664 0.87716 0.44376
 C1348 C 0.79632 0.86138 0.45320
 C1349 C 0.76969 0.86357 0.44435
 H1350 H 0.80454 0.93409 0.38536
 H1351 H 0.77392 0.95587 0.35699
 H1352 H 0.70705 0.91201 0.38488
 H1353 H 0.82640 0.90669 0.41815
 H1354 H 0.83698 0.87568 0.45056
 H1355 H 0.75385 0.85175 0.45134
 C1356 C 0.25008 0.93722 0.60362
 C1357 C 0.22475 0.93147 0.61219
 C1358 C 0.21325 0.94229 0.63343
 C1359 C 0.22856 0.95969 0.64656
 C1360 C 0.25484 0.96604 0.63830
 C1361 C 0.26567 0.95476 0.61630
 O1362 O 0.25728 0.92423 0.58334
 C1363 C 0.23600 0.91006 0.57912
 C1364 C 0.21557 0.91387 0.59626
 C1365 C 0.19152 0.90093 0.59567
 C1366 C 0.18834 0.88329 0.57658
 C1367 C 0.20909 0.87887 0.55871
 C1368 C 0.23330 0.89247 0.55998
 H1369 H 0.19330 0.93736 0.63980
 H1370 H 0.21984 0.96821 0.66324
 H1371 H 0.28570 0.95907 0.60965
 H1372 H 0.17579 0.90429 0.60944
 H1373 H 0.16975 0.87300 0.57562
 H1374 H 0.24943 0.88931 0.54657
 C1375 C 0.24049 0.07969 0.37941
 C1376 C 0.21540 0.08067 0.36885
 C1377 C 0.20891 0.06907 0.34599
 C1378 C 0.22899 0.05564 0.33375
 C1379 C 0.25490 0.05399 0.34455
 C1380 C 0.26065 0.06647 0.36764
 O1381 O 0.24265 0.09190 0.40121
 C1382 C 0.21836 0.10077 0.40457
 C1383 C 0.20088 0.09438 0.38537
 C1384 C 0.17434 0.10165 0.38523
 C1385 C 0.16563 0.11632 0.40553
 C1386 C 0.18344 0.12343 0.42531
 C1387 C 0.21014 0.11537 0.42487
 H1388 H 0.18903 0.07011 0.33800
 H1389 H 0.22416 0.04612 0.31620
 H1390 H 0.28014 0.06561 0.37650
 H1391 H 0.16091 0.09636 0.36998
 H1392 H 0.14516 0.12250 0.40574
 H1393 H 0.22416 0.12073 0.43963
 C1394 C 0.75205 0.07579 0.61585
 C1395 C 0.77699 0.08122 0.62551
 C1396 C 0.78662 0.07094 0.64773
 C1397 C 0.76987 0.05438 0.66054
 C1398 C 0.74414 0.04816 0.65086
 C1399 C 0.73515 0.05910 0.62812
 O1400 O 0.74698 0.08736 0.59428
 C1401 C 0.76925 0.10022 0.59021
 C1402 C 0.78828 0.09702 0.60871
 C1403 C 0.81355 0.10786 0.60760
 C1404 C 0.81961 0.12230 0.58631
 C1405 C 0.80040 0.12580 0.56686
 C1406 C 0.77463 0.11498 0.56921
 H1407 H 0.80636 0.07542 0.65490
 H1408 H 0.77717 0.04614 0.67783
 H1409 H 0.71566 0.05478 0.62024
 H1410 H 0.82828 0.10484 0.62226
 H1411 H 0.83942 0.13034 0.58464
 H1412 H 0.75958 0.11735 0.55467
 C1413 C 0.92525 0.61368 0.25525
 C1414 C 0.90164 0.62617 0.25431
 C1415 C 0.89831 0.64864 0.26608
 C1416 C 0.92015 0.65849 0.27959
 C1417 C 0.94427 0.64546 0.28156
 C1418 C 0.94689 0.62282 0.26912
 O1419 O 0.92434 0.59270 0.24273
 C1420 C 0.89951 0.59176 0.23393
 C1421 C 0.88470 0.61165 0.24072
 C1422 C 0.85778 0.61372 0.23473
 C1423 C 0.84564 0.59446 0.22131
 C1424 C 0.86058 0.57388 0.21371
 C1425 C 0.88809 0.57281 0.21978
 H1426 H 0.87956 0.65815 0.26502
 H1427 H 0.91804 0.67581 0.28920
 H1428 H 0.96518 0.61260 0.27035
 H1429 H 0.84642 0.62937 0.24060
 H1430 H 0.82455 0.59548 0.21685
 H1431 H 0.90013 0.55755 0.21399
 C1432 C 0.90830 0.38765 0.73793
 C1433 C 0.90414 0.37655 0.76107
 C1434 C 0.91527 0.35429 0.76708
 C1435 C 0.93170 0.34328 0.74864
 C1436 C 0.93686 0.35478 0.72491
 C1437 C 0.92454 0.37711 0.71945
 O1438 O 0.89694 0.40917 0.73629
 C1439 C 0.88548 0.41185 0.75895
 C1440 C 0.88932 0.39246 0.77491
 C1441 C 0.88035 0.39225 0.80007
 C1442 C 0.86707 0.41289 0.80914
 C1443 C 0.86293 0.43307 0.79298
 C1444 C 0.87199 0.43232 0.76742
 H1445 H 0.91193 0.34597 0.78550
 H1446 H 0.94110 0.32628 0.75322
 H1447 H 0.92818 0.38651 0.70166
 H1448 H 0.88396 0.37698 0.81243
 H1449 H 0.86040 0.41340 0.82881
 H1450 H 0.86924 0.44753 0.75475
 C1451 C 0.09971 0.58859 0.73234
 C1452 C 0.12552 0.59759 0.73133
 C1453 C 0.13197 0.62011 0.72095
 C1454 C 0.11095 0.63389 0.71123
 C1455 C 0.08435 0.62472 0.71166
 C1456 C 0.07866 0.60167 0.72213
 O1457 O 0.09754 0.56775 0.74476
 C1458 C 0.12252 0.56343 0.75167
 C1459 C 0.14047 0.58098 0.74368
 C1460 C 0.16757 0.58037 0.74949
 C1461 C 0.17641 0.56114 0.76459
 C1462 C 0.15805 0.54343 0.77398
 C1463 C 0.13081 0.54439 0.76699
 H1464 H 0.15233 0.62704 0.72084
 H1465 H 0.11531 0.65163 0.70330
 H1466 H 0.05836 0.59460 0.72311
 H1467 H 0.18131 0.59441 0.74305
 H1468 H 0.19733 0.56048 0.76982
 H1469 H 0.11635 0.53128 0.77418
 C1470 C 0.07126 0.39486 0.25588
 C1471 C 0.07933 0.41172 0.27380
 C1472 C 0.06901 0.41239 0.29844
 C1473 C 0.04950 0.39496 0.30490
 C1474 C 0.04088 0.37724 0.28685
 C1475 C 0.05212 0.37712 0.26201
 O1476 O 0.08271 0.39816 0.23323
 C1477 C 0.09835 0.41752 0.23697
 C1478 C 0.09708 0.42640 0.26153
 C1479 C 0.11116 0.44697 0.26953
 C1480 C 0.12696 0.45907 0.25136
 C1481 C 0.12820 0.45058 0.22580
 C1482 C 0.11396 0.42932 0.21855
 H1483 H 0.07550 0.42601 0.31210
 H1484 H 0.04118 0.39524 0.32400
 H1485 H 0.04571 0.36403 0.24773
 H1486 H 0.10970 0.45367 0.28892
 H1487 H 0.13782 0.47538 0.25695
 H1488 H 0.11439 0.42271 0.19907
   
