data_POSCAR
  _audit_creation_date              2014-09-24
  _audit_creation_method            'ToBaCCo'
  _symmetry_space_group_name_H-M    'P1'
  _symmetry_Int_Tables_number       1
  _symmetry_cell_setting            triclinic
  loop_
  _symmetry_equiv_pos_as_xyz
 x,y,z
_cell_length_a 51.7577
_cell_length_b 51.6375
_cell_length_c 52.1924
_cell_angle_alpha 90.213900
_cell_angle_beta 89.562500
_cell_angle_gamma 89.802500
loop_
  _atom_site_label
  _atom_site_type_symbol
  _atom_site_fract_x
  _atom_site_fract_y
  _atom_site_fract_z
N1 N 0.38441 1.35568 0.31865
 N2 N 0.36870 1.37392 0.31052
 C3 C 0.37891 1.38483 0.28933
 C4 C 0.40228 1.37266 0.28407
 C5 C 0.40534 1.35461 0.30328
 H6 H 0.36949 1.39960 0.27805
 H7 H 0.42069 1.34044 0.30487
 Cu8 Cu 0.33540 1.37988 0.32734
 Cu9 Cu 0.37423 1.33139 0.34543
 Cu10 Cu 0.30803 1.32367 0.34378
 N11 N 0.29937 1.37837 0.33819
 N12 N 0.28830 1.35577 0.34176
 C13 C 0.26314 1.35936 0.34709
 C14 C 0.25840 1.38567 0.34828
 C15 C 0.28182 1.39733 0.34251
 H16 H 0.24984 1.34399 0.35196
 H17 H 0.28582 1.41786 0.34159
 N18 N 0.33179 1.29740 0.35787
 N19 N 0.35700 1.30080 0.35946
 C20 C 0.36758 1.28053 0.37172
 C21 C 0.34796 1.26373 0.37839
 C22 C 0.32556 1.27497 0.36937
 H23 H 0.38794 1.27845 0.37583
 H24 H 0.30610 1.26771 0.37166
 H25 H 0.34168 1.33292 0.32475
 H26 H 0.33737 1.34479 0.35831
 N27 N 0.37809 0.84210 0.81124
 N28 N 0.37041 0.86635 0.80967
 C29 C 0.37797 0.87610 0.78689
 C30 C 0.39110 0.85687 0.77361
 C31 C 0.39083 0.83562 0.78959
 H32 H 0.37439 0.89569 0.78056
 H33 H 0.39941 0.81686 0.78575
 Cu34 Cu 0.35164 0.88303 0.83765
 Cu35 Cu 0.37118 0.82061 0.84111
 Cu36 Cu 0.33054 0.84681 0.88710
 N37 N 0.32566 0.89571 0.86178
 N38 N 0.31731 0.88124 0.88075
 C39 C 0.29849 0.89389 0.89354
 C40 C 0.29490 0.91758 0.88202
 C41 C 0.31246 0.91825 0.86195
 H42 H 0.28778 0.88620 0.90966
 H43 H 0.31474 0.93352 0.84799
 N44 N 0.34594 0.81230 0.89026
 N45 N 0.36163 0.80219 0.87283
 C46 C 0.36887 0.77837 0.88055
 C47 C 0.35705 0.77346 0.90387
 C48 C 0.34271 0.79529 0.90945
 H49 H 0.38167 0.76553 0.87002
 H50 H 0.33083 0.79847 0.92632
 H51 H 0.33698 0.83975 0.84829
 H52 H 0.36566 0.84974 0.86763
 N53 N 0.87431 1.33924 0.80413
 N54 N 0.86281 1.36157 0.80006
 C55 C 0.87315 1.37253 0.77895
 C56 C 0.89209 1.35603 0.76948
 C57 C 0.89233 1.33516 0.78591
 H58 H 0.86723 1.39093 0.77105
 H59 H 0.90447 1.31811 0.78454
 Cu60 Cu 0.83492 1.37366 0.82227
 Cu61 Cu 0.86429 1.31636 0.83172
 Cu62 Cu 0.82558 1.34370 0.87902
 N63 N 0.81274 1.38821 0.84888
 N64 N 0.80884 1.37629 0.87078
 C65 C 0.79168 1.38992 0.88494
 C66 C 0.78473 1.41162 0.87123
 C67 C 0.79848 1.41004 0.84850
 H68 H 0.78454 1.38432 0.90363
 H69 H 0.79757 1.42343 0.83264
 N70 N 0.84413 1.31072 0.88341
 N71 N 0.85853 1.30016 0.86517
 C72 C 0.86848 1.27772 0.87373
 C73 C 0.85981 1.27401 0.89848
 C74 C 0.84442 1.29519 0.90406
 H75 H 0.88115 1.26508 0.86281
 H76 H 0.83415 1.29888 0.92183
 H77 H 0.82796 1.33113 0.84213
 H78 H 0.85707 1.34824 0.85450
 N79 N 0.87756 0.84439 0.30734
 N80 N 0.86446 0.86552 0.30190
 C81 C 0.87257 0.87471 0.27907
 C82 C 0.89181 0.85838 0.26987
 C83 C 0.89453 0.83945 0.28832
 H84 H 0.86509 0.89189 0.26990
 H85 H 0.90781 0.82322 0.28794
 Cu86 Cu 0.83835 0.87874 0.32556
 Cu87 Cu 0.87200 0.82502 0.33890
 Cu88 Cu 0.81381 0.83866 0.36952
 N89 N 0.81488 0.89131 0.35217
 N90 N 0.80479 0.87526 0.36897
 C91 C 0.78770 0.88812 0.38384
 C92 C 0.78730 0.91366 0.37610
 C93 C 0.80477 0.91509 0.35599
 H94 H 0.77617 0.87941 0.39886
 H95 H 0.80907 0.93193 0.34449
 N96 N 0.83391 0.80700 0.37590
 N97 N 0.85653 0.80219 0.36498
 C98 C 0.86584 0.77966 0.37409
 C99 C 0.84823 0.77001 0.39164
 C100 C 0.82825 0.78778 0.39231
 H101 H 0.88400 0.77091 0.36834
 H102 H 0.81104 0.78695 0.40416
 H103 H 0.83391 0.83253 0.33479
 H104 H 0.84988 0.85073 0.36122
 N105 N 0.61737 0.64852 0.31718
 N106 N 0.62832 0.62553 0.31629
 C107 C 0.62257 0.61398 0.29385
 C108 C 0.60734 0.63088 0.28006
 C109 C 0.60432 0.65249 0.29542
 H110 H 0.62924 0.59498 0.28793
 H111 H 0.59363 0.66993 0.29102
 Cu112 Cu 0.64941 0.61342 0.34443
 Cu113 Cu 0.62147 0.67187 0.34613
 Cu114 Cu 0.67913 0.66070 0.37733
 N115 N 0.67713 0.60589 0.36798
 N116 N 0.68901 0.62437 0.38064
 C117 C 0.70900 0.61400 0.39345
 C118 C 0.70953 0.58766 0.38848
 C119 C 0.68902 0.58317 0.37235
 H120 H 0.72274 0.62495 0.40459
 H121 H 0.68400 0.56497 0.36336
 N122 N 0.66044 0.69416 0.37881
 N123 N 0.63783 0.69794 0.36787
 C124 C 0.62980 0.72234 0.37256
 C125 C 0.64838 0.73451 0.38704
 C126 C 0.66748 0.71616 0.39073
 H127 H 0.61213 0.73076 0.36537
 H128 H 0.68517 0.71868 0.40134
 H129 H 0.65853 0.65968 0.34349
 H130 H 0.64185 0.64992 0.37375
 N131 N 0.61347 0.13674 0.82438
 N132 N 0.63197 0.12192 0.81495
 C133 C 0.62321 0.10959 0.79389
 C134 C 0.59780 0.11718 0.79019
 C135 C 0.59225 0.13419 0.80998
 H136 H 0.63455 0.09648 0.78209
 H137 H 0.57443 0.14482 0.81306
 Cu138 Cu 0.66575 0.12073 0.83138
 Cu139 Cu 0.61908 0.16013 0.85306
 Cu140 Cu 0.68016 0.18094 0.85713
 N141 N 0.70079 0.13028 0.84177
 N142 N 0.70650 0.15374 0.85015
 C143 C 0.73135 0.15395 0.85747
 C144 C 0.74154 0.12941 0.85398
 C145 C 0.72168 0.11484 0.84395
 H146 H 0.74067 0.17007 0.86688
 H147 H 0.72197 0.09429 0.83986
 N148 N 0.65150 0.20002 0.87306
 N149 N 0.62787 0.19076 0.87275
 C150 C 0.61198 0.20712 0.88532
 C151 C 0.62626 0.22806 0.89357
 C152 C 0.65133 0.22305 0.88540
 H153 H 0.59131 0.20462 0.88722
 H154 H 0.66808 0.23520 0.88813
 H155 H 0.66042 0.15919 0.83031
 H156 H 0.66237 0.14604 0.86363
 N157 N 1.11940 0.63482 0.81845
 N158 N 1.13894 0.62296 0.80713
 C159 C 1.13027 0.60995 0.78647
 C160 C 1.10382 0.61371 0.78509
 C161 C 1.09758 0.62936 0.80577
 H162 H 1.14231 0.59904 0.77326
 H163 H 1.07874 0.63727 0.81050
 Cu164 Cu 1.17370 0.62646 0.82061
 Cu165 Cu 1.12426 0.65876 0.84710
 Cu166 Cu 1.18622 0.68322 0.84931
 N167 N 1.20621 0.63223 0.83813
 N168 N 1.21174 0.65521 0.84754
 C169 C 1.23496 0.65415 0.85881
 C170 C 1.24413 0.62906 0.85704
 C171 C 1.22544 0.61555 0.84376
 H172 H 1.24355 0.66995 0.86939
 H173 H 1.22537 0.59506 0.83936
 N174 N 1.15614 0.70203 0.86348
 N175 N 1.13297 0.69146 0.86461
 C176 C 1.11695 0.70736 0.87765
 C177 C 1.13062 0.72911 0.88486
 C178 C 1.15541 0.72523 0.87547
 H179 H 1.09668 0.70366 0.88116
 H180 H 1.17184 0.73787 0.87789
 H181 H 1.15539 0.66979 0.82682
 H182 H 1.16259 0.65338 0.85771
 N183 N 1.11370 0.14263 0.31769
 N184 N 1.12627 0.12054 0.31570
 C185 C 1.11908 0.10836 0.29399
 C186 C 1.10112 0.12389 0.28190
 C187 C 1.09807 0.14531 0.29750
 H188 H 1.12665 0.08995 0.28733
 H189 H 1.08583 0.16196 0.29412
 Cu190 Cu 1.15096 0.11050 0.34172
 Cu191 Cu 1.11961 0.16714 0.34535
 Cu192 Cu 1.18071 0.16013 0.37082
 N193 N 1.17981 0.10488 0.36454
 N194 N 1.19159 0.12431 0.37583
 C195 C 1.21205 0.11516 0.38881
 C196 C 1.21296 0.08859 0.38548
 C197 C 1.19224 0.08271 0.37003
 H198 H 1.22568 0.12703 0.39913
 H199 H 1.18726 0.06385 0.36250
 N200 N 1.16081 0.19284 0.37240
 N201 N 1.13693 0.19501 0.36395
 C202 C 1.12831 0.21928 0.36825
 C203 C 1.14783 0.23306 0.37983
 C204 C 1.16811 0.21577 0.38225
 H205 H 1.10953 0.22652 0.36272
 H206 H 1.18674 0.21960 0.39069
 H207 H 1.15695 0.15722 0.33905
 H208 H 1.14409 0.14717 0.37098
 N209 N 0.63539 1.37141 0.69875
 N210 N 0.65770 1.38262 0.69421
 C211 C 0.66060 1.40241 0.71078
 C212 C 0.63893 1.40337 0.72641
 C213 C 0.62334 1.38346 0.71831
 H214 H 0.67713 1.41515 0.71144
 H215 H 0.60450 1.37831 0.72579
 Cu216 Cu 0.68043 1.37050 0.66681
 Cu217 Cu 0.62276 1.34341 0.67789
 Cu218 Cu 0.67071 1.30965 0.64524
 N219 N 0.70452 1.35363 0.64336
 N220 N 0.70082 1.32981 0.63520
 C221 C 0.72066 1.32278 0.61984
 C222 C 0.73758 1.34335 0.61826
 C223 C 0.72682 1.36261 0.63342
 H224 H 0.72258 1.30413 0.61049
 H225 H 0.73468 1.38165 0.63700
 N226 N 0.63523 1.29649 0.64990
 N227 N 0.61719 1.30960 0.66244
 C228 C 0.59487 1.29651 0.66172
 C229 C 0.59891 1.27423 0.64778
 C230 C 0.62466 1.27465 0.64044
 H231 H 0.57678 1.30301 0.67012
 H232 H 0.63473 1.26048 0.62868
 H233 H 0.65944 1.32994 0.67833
 H234 H 0.64868 1.34237 0.64651
 N235 N 0.63144 0.87585 1.19075
 N236 N 0.65515 0.88442 1.18771
 C237 C 0.66055 0.90116 1.20672
 C238 C 0.63907 0.90311 1.22245
 C239 C 0.62089 0.88685 1.21180
 H240 H 0.67877 0.91103 1.20913
 H241 H 0.60151 0.88325 1.21879
 Cu242 Cu 0.67673 0.87268 1.15936
 Cu243 Cu 0.61603 0.85155 1.16674
 Cu244 Cu 0.66054 0.81814 1.12883
 N245 N 0.69711 0.85973 1.13065
 N246 N 0.69080 0.83816 1.11883
 C247 C 0.70890 0.83255 1.10099
 C248 C 0.72745 0.85171 1.10169
 C249 C 0.71940 0.86867 1.12068
 H250 H 0.70884 0.81555 1.08882
 H251 H 0.72937 0.88583 1.12716
 N252 N 0.62460 0.80672 1.13392
 N253 N 0.60753 0.81969 1.14789
 C254 C 0.58482 0.80703 1.14748
 C255 C 0.58779 0.78521 1.13238
 C256 C 0.61318 0.78560 1.12404
 H257 H 0.56751 0.81307 1.15763
 H258 H 0.62265 0.77151 1.11177
 H259 H 0.65081 0.83367 1.16489
 H260 H 0.64197 0.85207 1.13551
 N261 N 1.12091 1.38189 1.18179
 N262 N 1.14368 1.39242 1.17791
 C263 C 1.14826 1.40978 1.19654
 C264 C 1.12727 1.41000 1.21297
 C265 C 1.11016 1.39216 1.20310
 H266 H 1.16581 1.42095 1.19833
 H267 H 1.09152 1.38681 1.21092
 Cu268 Cu 1.16580 1.38193 1.14960
 Cu269 Cu 1.10752 1.35553 1.15888
 Cu270 Cu 1.15637 1.32157 1.12760
 N271 N 1.19148 1.36458 1.12853
 N272 N 1.18790 1.34086 1.12005
 C273 C 1.20922 1.33307 1.10723
 C274 C 1.22701 1.35299 1.10782
 C275 C 1.21513 1.37273 1.12144
 H276 H 1.21177 1.31420 1.09848
 H277 H 1.22326 1.39136 1.12632
 N278 N 1.12059 1.30855 1.13098
 N279 N 1.10201 1.32177 1.14263
 C280 C 1.07999 1.30803 1.14200
 C281 C 1.08492 1.28512 1.12920
 C282 C 1.11077 1.28604 1.12238
 H283 H 1.06181 1.31412 1.15045
 H284 H 1.12162 1.27135 1.11207
 H285 H 1.14402 1.34158 1.16004
 H286 H 1.13433 1.35420 1.12806
 N287 N 1.13238 0.87613 0.68892
 N288 N 1.15382 0.88835 0.68287
 C289 C 1.15700 0.90836 0.69915
 C290 C 1.13660 0.90845 0.71633
 C291 C 1.12129 0.88779 0.70933
 H292 H 1.17332 0.92138 0.69912
 H293 H 1.10373 0.88140 0.71867
 Cu294 Cu 1.17652 0.87565 0.65576
 Cu295 Cu 1.12136 0.84511 0.67094
 Cu296 Cu 1.15724 0.82691 0.61747
 N297 N 1.19784 0.86335 0.62740
 N298 N 1.19006 0.84450 0.61233
 C299 C 1.20850 0.83956 0.59464
 C300 C 1.22885 0.85619 0.59891
 C301 C 1.22150 0.87106 0.61979
 H302 H 1.20736 0.82477 0.57997
 H303 H 1.23270 0.88611 0.62886
 N304 N 1.12363 0.81143 0.62624
 N305 N 1.10997 0.81836 0.64663
 C306 C 1.08835 0.80396 0.64772
 C307 C 1.08867 0.78697 0.62726
 C308 C 1.11123 0.79216 0.61402
 H309 H 1.07375 0.80525 0.66261
 H310 H 1.11826 0.78231 0.59701
 H311 H 1.15688 0.83266 0.65619
 H312 H 1.13817 0.85666 0.63701
 N313 N 0.37755 0.62898 0.68883
 N314 N 0.35408 0.61938 0.68788
 C315 C 0.34790 0.60910 0.71065
 C316 C 0.36860 0.61220 0.72679
 C317 C 0.38731 0.62474 0.71239
 H318 H 0.32957 0.60011 0.71516
 H319 H 0.40625 0.63077 0.71864
 Cu320 Cu 0.33296 0.62134 0.65754
 Cu321 Cu 0.39216 0.64711 0.65924
 Cu322 Cu 0.34354 0.67441 0.62259
 N323 N 0.30789 0.63311 0.63299
 N324 N 0.31174 0.65455 0.62004
 C325 C 0.29028 0.66026 0.60688
 C326 C 0.27217 0.64128 0.61177
 C327 C 0.28395 0.62420 0.62831
 H328 H 0.28780 0.67730 0.59514
 H329 H 0.27532 0.60749 0.63736
 N330 N 0.37978 0.68600 0.62102
 N331 N 0.39846 0.67500 0.63428
 C332 C 0.42098 0.68664 0.62849
 C333 C 0.41616 0.70587 0.61078
 C334 C 0.38990 0.70497 0.60646
 H335 H 0.43939 0.68187 0.63696
 H336 H 0.37901 0.71720 0.59367
 H337 H 0.35649 0.66212 0.65804
 H338 H 0.36495 0.64177 0.62955
 N339 N 0.37903 0.12721 1.18417
 N340 N 0.35773 0.11641 1.19292
 C341 C 0.36363 0.10094 1.21283
 C342 C 0.39010 0.10194 1.21640
 C343 C 0.39922 0.11851 1.19773
 H344 H 0.34965 0.09072 1.22449
 H345 H 0.41882 0.12547 1.19559
 Cu346 Cu 0.32430 0.12532 1.17829
 Cu347 Cu 0.37851 0.15594 1.15981
 Cu348 Cu 0.32005 0.18794 1.16329
 N349 N 0.29240 0.13971 1.16445
 N350 N 0.29067 0.16469 1.15993
 C351 C 0.26728 0.17006 1.15033
 C352 C 0.25372 0.14722 1.14812
 C353 C 0.27017 0.12819 1.15733
 H354 H 0.26116 0.18902 1.14397
 H355 H 0.26657 0.10759 1.15807
 N356 N 0.35242 0.20497 1.15304
 N357 N 0.37438 0.19236 1.14943
 C358 C 0.39213 0.20884 1.13978
 C359 C 0.38062 0.23295 1.13747
 C360 C 0.35555 0.22979 1.14609
 H361 H 0.41191 0.20373 1.13513
 H362 H 0.34041 0.24429 1.14641
 H363 H 0.34801 0.16608 1.18186
 H364 H 0.33973 0.15796 1.14809
 N365 N 0.87832 0.62994 1.18378
 N366 N 0.85687 0.61640 1.18532
 C367 C 0.85726 0.60194 1.20672
 C368 C 0.88001 0.60674 1.21950
 C369 C 0.89290 0.62453 1.20432
 H370 H 0.84059 0.59197 1.21445
 H371 H 0.90982 0.63544 1.20978
 Cu372 Cu 0.82717 0.62459 1.16417
 Cu373 Cu 0.88212 0.65900 1.15964
 Cu374 Cu 0.82249 0.68831 1.15590
 N375 N 0.79542 0.64011 1.15180
 N376 N 0.79358 0.66540 1.14961
 C377 C 0.76988 0.67166 1.14141
 C378 C 0.75625 0.64908 1.13785
 C379 C 0.77292 0.62928 1.14470
 H380 H 0.76343 0.69116 1.13735
 H381 H 0.76917 0.60869 1.14418
 N382 N 0.85516 0.70657 1.14913
 N383 N 0.87802 0.69516 1.14826
 C384 C 0.89535 0.71171 1.13788
 C385 C 0.88244 0.73453 1.13206
 C386 C 0.85723 0.73056 1.13966
 H387 H 0.91534 0.70703 1.13372
 H388 H 0.84105 0.74343 1.13642
 H389 H 0.84754 0.66578 1.17621
 H390 H 0.84574 0.66076 1.14093
 N391 N 0.89193 0.11256 0.66724
 N392 N 0.86915 0.10791 0.67756
 C393 C 0.87253 0.09738 0.70096
 C394 C 0.89888 0.09530 0.70521
 C395 C 0.91048 0.10477 0.68333
 H396 H 0.85713 0.09312 0.71440
 H397 H 0.93093 0.10794 0.68028
 Cu398 Cu 0.83771 0.11861 0.65992
 Cu399 Cu 0.89618 0.13360 0.63665
 Cu400 Cu 0.84383 0.17355 0.62625
 N401 N 0.80840 0.13339 0.64166
 N402 N 0.81087 0.15555 0.62954
 C403 C 0.78801 0.16229 0.61951
 C404 C 0.77033 0.14314 0.62514
 C405 C 0.78385 0.12496 0.63923
 H406 H 0.78469 0.17953 0.60828
 H407 H 0.77640 0.10716 0.64719
 N408 N 0.87902 0.18179 0.61399
 N409 N 0.89866 0.16571 0.61682
 C410 C 0.92030 0.17693 0.60780
 C411 C 0.91400 0.20126 0.59890
 C412 C 0.88762 0.20369 0.60288
 H413 H 0.93948 0.16871 0.60927
 H414 H 0.87585 0.22059 0.59919
 H415 H 0.86719 0.15461 0.65259
 H416 H 0.85844 0.13779 0.62219
 N417 N 1.34426 0.36061 0.70894
 N418 N 1.34830 0.33580 0.71271
 C419 C 1.36471 0.33286 0.73237
 C420 C 1.37099 0.35717 0.74151
 C421 C 1.35758 0.37439 0.72633
 H422 H 1.37174 0.31444 0.73931
 H423 H 1.35803 0.39531 0.72735
 Cu424 Cu 1.33209 0.30975 0.69130
 Cu425 Cu 1.32241 0.37262 0.68134
 Cu426 Cu 1.31692 0.32836 0.63147
 N427 N 1.32689 0.28488 0.66400
 N428 N 1.32396 0.29191 0.63998
 C429 C 1.32702 0.27079 0.62478
 C430 C 1.33147 0.24953 0.64045
 C431 C 1.33075 0.25923 0.66511
 H432 H 1.32656 0.27098 0.60407
 H433 H 1.33527 0.24878 0.68245
 N434 N 1.30486 0.36500 0.62904
 N435 N 1.30842 0.38178 0.64785
 C436 C 1.29829 0.40476 0.64139
 C437 C 1.28706 0.40239 0.61771
 C438 C 1.29139 0.37689 0.61030
 H439 H 1.29762 0.42161 0.65374
 H440 H 1.28465 0.36758 0.59301
 H441 H 1.30429 0.33862 0.66726
 H442 H 1.33944 0.34384 0.66035
 N443 N 1.38894 0.88341 1.17410
 N444 N 1.39588 0.86065 1.18303
 C445 C 1.41046 0.86426 1.20418
 C446 C 1.41289 0.89077 1.20823
 C447 C 1.39925 0.90216 1.18861
 H448 H 1.41844 0.84887 1.21573
 H449 H 1.39568 0.92264 1.18602
 Cu450 Cu 1.38524 0.82887 1.16510
 Cu451 Cu 1.36388 0.88739 1.14687
 Cu452 Cu 1.32534 0.83648 1.13678
 N453 N 1.36565 0.79937 1.15070
 N454 N 1.34223 0.80244 1.14123
 C455 C 1.33415 0.77976 1.13153
 C456 C 1.35353 0.76159 1.13443
 C457 C 1.37328 0.77458 1.14682
 H458 H 1.31624 0.77712 1.12131
 H459 H 1.39209 0.76692 1.15169
 N460 N 1.31579 0.87123 1.12567
 N461 N 1.33107 0.89115 1.12942
 C462 C 1.31901 0.91289 1.12179
 C463 C 1.29492 0.90623 1.11266
 C464 C 1.29351 0.87960 1.11529
 H465 H 1.32670 0.93224 1.12384
 H466 H 1.27709 0.86743 1.11113
 H467 H 1.35090 0.84662 1.16601
 H468 H 1.36484 0.84252 1.13299
 N469 N 0.89053 0.38460 1.16960
 N470 N 0.89459 0.36188 1.18020
 C471 C 0.90841 0.36528 1.20180
 C472 C 0.91337 0.39155 1.20450
 C473 C 0.90215 0.40305 1.18349
 H474 H 0.91378 0.34998 1.21480
 H475 H 0.90068 0.42358 1.17966
 Cu476 Cu 0.88048 0.33042 1.16471
 Cu477 Cu 0.86663 0.38964 1.14145
 Cu478 Cu 0.82555 0.33851 1.13166
 N479 N 0.86590 0.30216 1.14424
 N480 N 0.84387 0.30553 1.13228
 C481 C 0.83736 0.28353 1.12025
 C482 C 0.85638 0.26532 1.12448
 C483 C 0.87438 0.27772 1.13981
 H484 H 0.82027 0.28118 1.10865
 H485 H 0.89217 0.26967 1.14711
 N486 N 0.81694 0.37401 1.12123
 N487 N 0.83314 0.39345 1.12413
 C488 C 0.82160 0.41543 1.11630
 C489 C 0.79703 0.40945 1.10796
 C490 C 0.79477 0.38297 1.11115
 H491 H 0.82999 0.43454 1.11777
 H492 H 0.77791 0.37128 1.10743
 H493 H 0.84529 0.36149 1.15844
 H494 H 0.86141 0.35197 1.12769
 N495 N 0.86579 0.87610 0.68852
 N496 N 0.88069 0.85564 0.68516
 C497 C 0.90243 0.85870 0.69873
 C498 C 0.90083 0.88206 0.71160
 C499 C 0.87735 0.89269 0.70476
 H500 H 0.91776 0.84448 0.70005
 H501 H 0.86920 0.91092 0.71123
 Cu502 Cu 0.86955 0.82572 0.66532
 Cu503 Cu 0.83258 0.87903 0.67138
 Cu504 Cu 0.80530 0.81855 0.66461
 N505 N 0.85382 0.79367 0.65350
 N506 N 0.82857 0.79096 0.65374
 C507 C 0.82251 0.76739 0.64466
 C508 C 0.84514 0.75468 0.63817
 C509 C 0.86476 0.77183 0.64411
 H510 H 0.80301 0.76034 0.64224
 H511 H 0.88528 0.76887 0.64131
 N512 N 0.78516 0.85099 0.66362
 N513 N 0.79573 0.87420 0.66446
 C514 C 0.77790 0.89206 0.65802
 C515 C 0.75505 0.87929 0.65293
 C516 C 0.76028 0.85341 0.65688
 H517 H 0.78170 0.91250 0.65570
 H518 H 0.74759 0.83734 0.65274
 H519 H 0.82981 0.84286 0.68467
 H520 H 0.82998 0.84485 0.64891
 N521 N 0.62956 0.63539 0.69665
 N522 N 0.61477 0.65486 0.68974
 C523 C 0.59610 0.65835 0.70750
 C524 C 0.59949 0.64016 0.72653
 C525 C 0.62089 0.62586 0.71910
 H526 H 0.58147 0.67334 0.70697
 H527 H 0.62968 0.60998 0.72934
 Cu528 Cu 0.62212 0.67501 0.65920
 Cu529 Cu 0.65954 0.62477 0.67658
 Cu530 Cu 0.66598 0.65297 0.61669
 N531 N 0.63506 0.69673 0.63164
 N532 N 0.65226 0.68803 0.61503
 C533 C 0.65715 0.70652 0.59759
 C534 C 0.64225 0.72795 0.60368
 C535 C 0.62844 0.72114 0.62538
 H536 H 0.67034 0.70442 0.58153
 H537 H 0.61448 0.73294 0.63566
 N538 N 0.68571 0.62221 0.62707
 N539 N 0.68314 0.61147 0.64986
 C540 C 0.69889 0.59075 0.65115
 C541 C 0.71225 0.58865 0.62827
 C542 C 0.70356 0.60891 0.61341
 H543 H 0.70075 0.57825 0.66762
 H544 H 0.70977 0.61363 0.59416
 H545 H 0.66608 0.65830 0.65502
 H546 H 0.64153 0.63462 0.64347
 N547 N 0.62864 1.13005 1.19045
 N548 N 0.61952 1.15371 1.18792
 C549 C 0.60639 1.16040 1.20923
 C550 C 0.60712 1.13982 1.22602
 C551 C 0.62141 1.12076 1.21356
 H552 H 0.59671 1.17879 1.21217
 H553 H 0.62600 1.10161 1.22056
 Cu554 Cu 0.62428 1.17347 1.15670
 Cu555 Cu 0.64847 1.11353 1.16283
 Cu556 Cu 0.67698 1.15833 1.12212
 N557 N 0.63572 1.19501 1.12849
 N558 N 0.65647 1.18898 1.11505
 C559 C 0.66078 1.20747 1.09748
 C560 C 0.64166 1.22602 1.10008
 C561 C 0.62604 1.21759 1.11993
 H562 H 0.67681 1.20756 1.08405
 H563 H 0.60922 1.22733 1.12779
 N564 N 0.68872 1.12221 1.12469
 N565 N 0.67736 1.10485 1.13944
 C566 C 0.68932 1.08186 1.13612
 C567 C 0.70907 1.08504 1.11844
 C568 C 0.70816 1.11079 1.11159
 H569 H 0.68432 1.06424 1.14612
 H570 H 0.72063 1.12046 1.09797
 H571 H 0.66438 1.14866 1.15906
 H572 H 0.64409 1.13864 1.13136
 N573 N 0.12612 0.63464 1.19599
 N574 N 0.11778 0.65855 1.19329
 C575 C 0.10440 0.66557 1.21440
 C576 C 0.10431 0.64488 1.23112
 C577 C 0.11826 0.62552 1.21887
 H578 H 0.09518 0.68420 1.21727
 H579 H 0.12220 0.60622 1.22587
 Cu580 Cu 0.12417 0.67787 1.16202
 Cu581 Cu 0.14580 0.61713 1.16912
 Cu582 Cu 0.17592 0.65974 1.12736
 N583 N 0.13556 0.69766 1.13249
 N584 N 0.15584 0.69037 1.11892
 C585 C 0.16019 0.70773 1.10025
 C586 C 0.14159 0.72691 1.10226
 C587 C 0.12623 0.71997 1.12292
 H588 H 0.17589 0.70662 1.08648
 H589 H 0.10978 0.73048 1.13058
 N590 N 0.18697 0.62358 1.13169
 N591 N 0.17499 0.60707 1.14690
 C592 C 0.18701 0.58394 1.14544
 C593 C 0.20745 0.58611 1.12844
 C594 C 0.20687 0.61141 1.12005
 H595 H 0.18171 0.56701 1.15640
 H596 H 0.22006 0.62036 1.10661
 H597 H 0.16330 0.65163 1.16464
 H598 H 0.14250 0.64186 1.13720
 N599 N 0.11708 1.12362 0.67801
 N600 N 0.11445 1.14753 0.68645
 C601 C 0.10120 1.14716 0.70892
 C602 C 0.09481 1.12159 0.71423
 C603 C 0.10480 1.10740 0.69397
 H604 H 0.09680 1.16404 0.72051
 H605 H 0.10495 1.08653 0.69200
 Cu606 Cu 0.12854 1.17622 0.66618
 Cu607 Cu 0.14022 1.11435 0.64984
 Cu608 Cu 0.18277 1.16271 0.63310
 N609 N 0.14311 1.20102 0.64161
 N610 N 0.16490 1.19574 0.62950
 C611 C 0.17075 1.21524 0.61352
 C612 C 0.15140 1.23365 0.61525
 C613 C 0.13411 1.22413 0.63339
 H614 H 0.18734 1.21545 0.60077
 H615 H 0.11618 1.23299 0.63969
 N616 N 0.19016 1.12594 0.62690
 N617 N 0.17341 1.10749 0.63226
 C618 C 0.18409 1.08438 0.62634
 C619 C 0.20862 1.08863 0.61663
 C620 C 0.21182 1.11518 0.61713
 H621 H 0.17505 1.06583 0.62972
 H622 H 0.22884 1.12587 0.61141
 H623 H 0.16261 1.14358 0.66271
 H624 H 0.14647 1.14952 0.63141
 N625 N 1.35202 0.61561 0.31272
 N626 N 1.37491 0.62502 0.31833
 C627 C 1.39313 0.61100 0.30593
 C628 C 1.38093 0.59239 0.29125
 C629 C 1.35482 0.59590 0.29590
 H630 H 1.41363 0.61500 0.30641
 H631 H 1.33910 0.58501 0.28765
 Cu632 Cu 1.37884 0.65684 0.33873
 Cu633 Cu 1.32086 0.62987 0.32839
 Cu634 Cu 1.32265 0.69320 0.34025
 N635 N 1.37830 0.69465 0.34591
 N636 N 1.35709 0.70859 0.34301
 C637 C 1.36270 0.73379 0.34583
 C638 C 1.38857 0.73594 0.35173
 C639 C 1.39799 0.71073 0.35175
 H640 H 1.34862 0.74931 0.34521
 H641 H 1.41770 0.70463 0.35502
 N642 N 1.29348 0.67205 0.35144
 N643 N 1.29297 0.64692 0.34732
 C644 C 1.27196 0.63687 0.35896
 C645 C 1.25870 0.65688 0.37102
 C646 C 1.27280 0.67891 0.36574
 H647 H 1.26716 0.61650 0.35930
 H648 H 1.26885 0.69834 0.37260
 H649 H 1.34717 0.66799 0.31942
 H650 H 1.34228 0.66277 0.35444
 N651 N 1.35219 1.11044 0.82259
 N652 N 1.37305 1.12336 0.81601
 C653 C 1.38258 1.11348 0.79394
 C654 C 1.36684 1.09324 0.78651
 C655 C 1.34784 1.09175 0.80515
 H656 H 1.39957 1.12051 0.78403
 H657 H 1.33180 1.07839 0.80578
 Cu658 Cu 1.38588 1.15141 0.83739
 Cu659 Cu 1.33198 1.11925 0.85297
 Cu660 Cu 1.34191 1.18217 0.87395
 N661 N 1.39489 1.18198 0.85724
 N662 N 1.37751 1.19386 0.87159
 C663 C 1.38819 1.21488 0.88241
 C664 C 1.41367 1.21617 0.87448
 C665 C 1.41734 1.19503 0.85851
 H666 H 1.37802 1.22843 0.89476
 H667 H 1.43486 1.18988 0.84825
 N668 N 1.31089 1.16208 0.88271
 N669 N 1.30747 1.13787 0.87533
 C670 C 1.28463 1.12943 0.88444
 C671 C 1.27327 1.14930 0.89831
 C672 C 1.29040 1.16967 0.89693
 H673 H 1.27673 1.11040 0.88092
 H674 H 1.28807 1.18861 0.90557
 H675 H 1.33934 1.15629 0.84317
 H676 H 1.35559 1.14549 0.87312
 N677 N 0.84209 0.62119 0.80807
 N678 N 0.86617 0.62910 0.80640
 C679 C 0.87774 0.61766 0.78613
 C680 C 0.85985 0.60182 0.77450
 C681 C 0.83748 0.60442 0.78888
 H682 H 0.89761 0.62067 0.78035
 H683 H 0.81923 0.59493 0.78546
 Cu684 Cu 0.88075 0.65316 0.83100
 Cu685 Cu 0.81924 0.63383 0.83504
 Cu686 Cu 0.83547 0.68721 0.86738
 N687 N 0.88890 0.68520 0.84957
 N688 N 0.87159 0.69852 0.86292
 C689 C 0.88282 0.72005 0.87216
 C690 C 0.90830 0.72028 0.86402
 C691 C 0.91154 0.69795 0.84977
 H692 H 0.87312 0.73460 0.88371
 H693 H 0.92891 0.69175 0.83984
 N694 N 0.80497 0.66699 0.87658
 N695 N 0.79862 0.64584 0.86402
 C696 C 0.77631 0.63656 0.87370
 C697 C 0.76827 0.65286 0.89327
 C698 C 0.78686 0.67197 0.89459
 H699 H 0.76640 0.61956 0.86672
 H700 H 0.78700 0.68850 0.90739
 H701 H 0.84630 0.67225 0.83146
 H702 H 0.85321 0.65314 0.86092
 N703 N 0.83807 1.11952 0.30778
 N704 N 0.85892 1.13239 0.30111
 C705 C 0.86936 1.12140 0.28002
 C706 C 0.85424 1.10054 0.27320
 C707 C 0.83459 1.09981 0.29123
 H708 H 0.88689 1.12774 0.27063
 H709 H 0.81914 1.08581 0.29246
 Cu710 Cu 0.87114 1.16143 0.32133
 Cu711 Cu 0.81805 1.12843 0.33828
 Cu712 Cu 0.83086 1.18918 0.36378
 N713 N 0.88312 1.18765 0.34507
 N714 N 0.86713 1.19890 0.36137
 C715 C 0.87975 1.21765 0.37405
 C716 C 0.90501 1.21802 0.36524
 C717 C 0.90655 1.19868 0.34696
 H718 H 0.87104 1.23030 0.38825
 H719 H 0.92322 1.19355 0.33538
 N720 N 0.79925 1.16962 0.37178
 N721 N 0.79472 1.14623 0.36258
 C722 C 0.77223 1.13756 0.37238
 C723 C 0.76225 1.15639 0.38853
 C724 C 0.77982 1.17643 0.38776
 H725 H 0.76380 1.11892 0.36813
 H726 H 0.77878 1.19438 0.39845
 H727 H 0.82504 1.16672 0.33082
 H728 H 0.84346 1.15300 0.35823
 N729 N 0.64757 0.37219 0.30592
 N730 N 0.63676 0.34981 0.30062
 C731 C 0.63081 0.34885 0.27574
 C732 C 0.63715 0.37229 0.26488
 C733 C 0.64732 0.38707 0.28462
 H734 H 0.62206 0.33239 0.26632
 H735 H 0.65596 0.40606 0.28308
 Cu736 Cu 0.63079 0.32383 0.32652
 Cu737 Cu 0.66606 0.37630 0.33851
 Cu738 Cu 0.68429 0.31496 0.35973
 N739 N 0.63419 0.29424 0.34856
 N740 N 0.65630 0.28964 0.35990
 C741 C 0.65462 0.26713 0.37259
 C742 C 0.62973 0.25784 0.36992
 C743 C 0.61718 0.27549 0.35451
 H744 H 0.66979 0.25911 0.38434
 H745 H 0.59735 0.27483 0.34813
 N746 N 0.70317 0.34691 0.36855
 N747 N 0.69493 0.37032 0.36237
 C748 C 0.71005 0.38803 0.37375
 C749 C 0.72883 0.37508 0.38744
 C750 C 0.72405 0.34909 0.38365
 H751 H 0.70787 0.40877 0.37179
 H752 H 0.73440 0.33302 0.39202
 H753 H 0.67516 0.33947 0.33014
 H754 H 0.65643 0.34298 0.36053
 N755 N 0.63607 0.88491 0.82050
 N756 N 0.62689 0.86391 0.80963
 C757 C 0.61473 0.87033 0.78782
 C758 C 0.61607 0.89692 0.78528
 C759 C 0.62964 0.90556 0.80632
 H760 H 0.60474 0.85687 0.77546
 H761 H 0.63446 0.92539 0.81100
 Cu762 Cu 0.62862 0.83115 0.82728
 Cu763 Cu 0.65494 0.88379 0.85264
 Cu764 Cu 0.66994 0.82283 0.87585
 N765 N 0.62247 0.80565 0.85370
 N766 N 0.63837 0.80178 0.87288
 C767 C 0.62730 0.78492 0.88940
 C768 C 0.60313 0.77853 0.87998
 C769 C 0.60089 0.79186 0.85734
 H770 H 0.63537 0.77924 0.90761
 H771 H 0.58417 0.79255 0.84503
 N772 N 0.69066 0.85379 0.88427
 N773 N 0.68321 0.87714 0.87705
 C774 C 0.70043 0.89459 0.88530
 C775 C 0.71996 0.88176 0.89786
 C776 C 0.71329 0.85578 0.89690
 H777 H 0.69980 0.91503 0.88089
 H778 H 0.72419 0.83962 0.90439
 H779 H 0.66920 0.84799 0.84335
 H780 H 0.64313 0.84953 0.86811
 N781 N 0.14460 0.37308 0.80815
 N782 N 0.12776 0.35537 0.80127
 C783 C 0.11324 0.36467 0.78200
 C784 C 0.12123 0.38971 0.77702
 C785 C 0.14094 0.39446 0.79406
 H786 H 0.09817 0.35405 0.77233
 H787 H 0.15267 0.41172 0.79520
 Cu788 Cu 0.12669 0.32209 0.81866
 Cu789 Cu 0.17237 0.36595 0.83237
 Cu790 Cu 0.18526 0.30046 0.83437
 N791 N 0.13102 0.28859 0.83516
 N792 N 0.15439 0.27958 0.83941
 C793 C 0.15269 0.25691 0.85175
 C794 C 0.12693 0.25183 0.85644
 C795 C 0.11351 0.27217 0.84537
 H796 H 0.16910 0.24620 0.85895
 H797 H 0.09287 0.27553 0.84595
 N798 N 0.21107 0.32691 0.84285
 N799 N 0.20574 0.35191 0.84394
 C800 C 0.22611 0.36449 0.85402
 C801 C 0.24497 0.34633 0.85965
 C802 C 0.23484 0.32283 0.85220
 H803 H 0.22676 0.38509 0.85778
 H804 H 0.24348 0.30393 0.85491
 H805 H 0.17260 0.33223 0.81328
 H806 H 0.16272 0.32964 0.84760
 N807 N 0.16095 0.86521 0.29636
 N808 N 0.14767 0.84430 0.29088
 C809 C 0.13052 0.84964 0.27251
 C810 C 0.13315 0.87524 0.26581
 C811 C 0.15275 0.88474 0.28121
 H812 H 0.11563 0.83650 0.26615
 H813 H 0.15903 0.90464 0.28274
 Cu814 Cu 0.14892 0.81412 0.31234
 Cu815 Cu 0.18584 0.86466 0.32463
 Cu816 Cu 0.18376 0.81124 0.36568
 N817 N 0.13929 0.79164 0.34012
 N818 N 0.15237 0.79038 0.36157
 C819 C 0.13926 0.77527 0.37832
 C820 C 0.11649 0.76758 0.36662
 C821 C 0.11740 0.77810 0.34245
 H822 H 0.14501 0.77161 0.39787
 H823 H 0.10257 0.77711 0.32797
 N824 N 0.20746 0.84091 0.37064
 N825 N 0.20682 0.86190 0.35615
 C826 C 0.22340 0.87940 0.36568
 C827 C 0.23543 0.86874 0.38664
 C828 C 0.22504 0.84432 0.38931
 H829 H 0.22689 0.89840 0.35775
 H830 H 0.22931 0.83047 0.40420
 H831 H 0.19186 0.82519 0.32919
 H832 H 0.16455 0.83991 0.34741
 O833 O 0.99762 0.91657 0.86341
 O834 O 1.00481 0.88919 0.83160
 C835 C 0.99183 0.90766 0.84150
 C836 C 0.96935 0.91824 0.82761
 C837 C 0.96445 0.91019 0.80249
 H838 H 0.97785 0.89704 0.79308
 O839 O 1.01341 1.10647 0.87589
 O840 O 1.00843 1.13838 0.84828
 C841 C 1.02059 1.11840 0.85580
 C842 C 1.04364 1.10882 0.84172
 C843 C 1.04756 1.11378 0.81543
 H844 H 1.03348 1.12487 0.80480
 O845 O 0.88143 0.96318 0.89668
 O846 O 0.85195 0.96100 0.86643
 C847 C 0.86164 0.95257 0.88714
 C848 C 0.84974 0.93048 0.90065
 C849 C 0.82325 0.92572 0.89861
 H850 H 0.81144 0.93813 0.88674
 O851 O 1.12597 1.05654 0.91303
 O852 O 1.15668 1.06437 0.88461
 C853 C 1.14558 1.06938 0.90586
 C854 C 1.15528 1.09043 0.92247
 C855 C 1.17833 1.10347 0.91657
 H856 H 1.18928 1.09791 0.89968
 O857 O 0.93029 0.86342 0.95851
 O858 O 0.90575 0.82891 0.95414
 C859 C 0.92536 0.84208 0.94751
 C860 C 0.94225 0.83269 0.92643
 C861 C 0.93769 0.80849 0.91518
 H862 H 0.92256 0.79633 0.92288
 O863 O 1.07142 1.14168 0.98645
 O864 O 1.09577 1.17651 0.98992
 C865 C 1.07803 1.16399 0.97866
 C866 C 1.06708 1.17461 0.95479
 C867 C 1.08244 1.19131 0.94012
 H868 H 1.10102 1.19752 0.94729
 O869 O 0.90955 1.01988 0.86541
 O870 O 0.88232 1.01644 0.83325
 C871 C 0.90081 1.02806 0.84426
 C872 C 0.91226 1.05157 0.83290
 C873 C 0.90936 1.05740 0.80677
 H874 H 0.89860 1.04453 0.79440
 O875 O 1.10121 1.00384 0.87298
 O876 O 1.13216 1.01103 0.84462
 C877 C 1.11269 0.99810 0.85213
 C878 C 1.10373 0.97573 0.83686
 C879 C 1.11486 0.97024 0.81286
 H880 H 1.12944 0.98308 0.80513
 O881 O 1.05155 0.88742 0.89879
 O882 O 1.05772 0.85911 0.86753
 C883 C 1.06369 0.86819 0.88933
 C884 C 1.08477 0.85608 0.90396
 C885 C 1.09081 0.82988 0.90025
 H886 H 1.07995 0.81841 0.88666
 O887 O 0.95793 1.12865 0.91422
 O888 O 0.95331 1.16177 0.88811
 C889 C 0.94598 1.14903 0.90770
 C890 C 0.92314 1.15757 0.92297
 C891 C 0.91207 1.18217 0.91925
 H892 H 0.92067 1.19529 0.90554
 O893 O 0.85891 1.07085 0.97397
 O894 O 0.82443 1.09606 0.97510
 C895 C 0.83782 1.07851 0.96418
 C896 C 0.82978 1.06885 0.93870
 C897 C 0.81313 1.08417 0.92403
 H898 H 0.80493 1.10179 0.93204
 O899 O 1.14577 0.93442 0.97172
 O900 O 1.18038 0.90950 0.96949
 C901 C 1.16803 0.92959 0.96251
 C902 C 1.17923 0.94729 0.94306
 C903 C 1.20452 0.94354 0.93366
 H904 H 1.21625 0.92816 0.94147
 O905 O 0.96423 1.09759 0.87528
 O906 O 0.95963 1.13000 0.84824
 C907 C 0.95493 1.10681 0.85478
 C908 C 0.93883 1.09016 0.83829
 C909 C 0.93636 1.09537 0.81209
 H910 H 0.94620 1.11185 0.80378
 O911 O 1.04729 0.92452 0.86562
 O912 O 1.05452 0.89669 0.83420
 C913 C 1.05877 0.91841 0.84485
 C914 C 1.07756 0.93663 0.83330
 C915 C 1.08897 0.93141 0.80928
 H916 H 1.08346 0.91411 0.79900
 O917 O 1.13439 1.00705 0.90947
 O918 O 1.16532 1.01483 0.88124
 C919 C 1.15704 1.00282 0.90085
 C920 C 1.17374 0.98327 0.91322
 C921 C 1.19906 0.97935 0.90430
 H922 H 1.20657 0.99134 0.88901
 O923 O 0.87339 1.01302 0.89859
 O924 O 0.84569 1.01162 0.86669
 C925 C 0.85244 1.02047 0.88840
 C926 C 0.83676 1.04075 0.90139
 C927 C 0.81975 1.05637 0.88712
 H928 H 0.81693 1.05270 0.86689
 O929 O 0.88893 1.10985 0.98044
 O930 O 0.85450 1.13517 0.98165
 C931 C 0.87724 1.13025 0.97345
 C932 C 0.88991 1.14831 0.95532
 C933 C 0.87942 1.17301 0.95149
 H934 H 0.86246 1.17900 0.96229
 O935 O 1.11781 0.89291 0.96759
 O936 O 1.15208 0.86740 0.96620
 C937 C 1.12990 0.87369 0.95796
 C938 C 1.11758 0.85859 0.93725
 C939 C 1.12355 0.83222 0.93319
 H940 H 1.13767 0.82258 0.94508
 O941 O 1.09247 1.05352 0.87615
 O942 O 1.12306 1.06051 0.84734
 C943 C 1.10041 1.06471 0.85594
 C944 C 1.08288 1.08242 0.84217
 C945 C 1.08644 1.08730 0.81599
 H946 H 1.10230 1.07817 0.80568
 O947 O 0.91753 0.97029 0.86268
 O948 O 0.88908 0.96630 0.83171
 C949 C 0.91103 0.96094 0.84114
 C950 C 0.92935 0.94355 0.82733
 C951 C 0.92454 0.93492 0.80214
 H952 H 0.90729 0.94131 0.79241
 O953 O 1.00793 1.13685 0.91458
 O954 O 1.00457 1.16885 0.88690
 C955 C 1.01480 1.15903 0.90670
 C956 C 1.03637 1.17249 0.91947
 C957 C 1.05219 1.18935 0.90514
 H958 H 1.04762 1.19362 0.88538
 O959 O 1.00192 0.87883 0.89546
 O960 O 1.00832 0.85126 0.86364
 C961 C 0.99698 0.85742 0.88446
 C962 C 0.97729 0.83994 0.89567
 C963 C 0.97235 0.81558 0.88460
 H964 H 0.98354 0.80908 0.86817
 O965 O 1.11301 1.11433 0.98775
 O966 O 1.13711 1.14925 0.99183
 C967 C 1.13246 1.12771 0.98103
 C968 C 1.14907 1.11864 0.95965
 C969 C 1.17204 1.13158 0.95342
 H970 H 1.17841 1.14762 0.96520
 O971 O 0.88856 0.89178 0.95978
 O972 O 0.86351 0.85751 0.95594
 C973 C 0.86919 0.88060 0.94986
 C974 C 0.85325 0.89494 0.93121
 C975 C 0.82660 0.89007 0.92864
 H976 H 0.81738 0.87527 0.94013
 Cu977 Cu 1.02402 0.90461 0.88402
 Cu978 Cu 1.03213 0.87134 0.84603
 Cu979 Cu 0.98616 1.11423 0.89774
 Cu980 Cu 0.98044 1.15336 0.86558
 Cu981 Cu 0.89829 0.99173 0.88392
 Cu982 Cu 0.86431 0.98824 0.84641
 Cu983 Cu 1.11036 1.02967 0.89574
 Cu984 Cu 1.14741 1.03857 0.86161
 C985 C 0.95188 0.93513 0.83978
 H986 H 0.95553 0.94121 0.85930
 C987 C 0.94212 0.91815 0.78958
 C988 C 1.06146 1.09321 0.85481
 H989 H 1.05858 1.08932 0.87502
 C990 C 1.06876 1.10259 0.80245
 C991 C 0.86455 0.91517 0.91715
 H992 H 0.88500 0.91908 0.91915
 C993 C 0.81143 0.90598 0.91287
 C994 C 1.14101 1.09795 0.94423
 H995 H 1.12307 1.08817 0.94874
 C996 C 1.18694 1.12400 0.93207
 C997 C 0.96222 0.84823 0.91670
 H998 H 0.96559 0.86713 0.92510
 C999 C 0.95241 0.79985 0.89413
 C1000 C 1.04402 1.16514 0.94431
 H1001 H 1.03266 1.15123 0.95500
 C1002 C 1.07572 1.19792 0.91510
 C1003 C 0.92696 1.06810 0.84845
 H1004 H 0.92909 1.06386 0.86864
 C1005 C 0.92192 1.07898 0.79621
 C1006 C 1.08491 0.95896 0.84680
 H1007 H 1.07650 0.96291 0.86548
 C1008 C 1.10769 0.94817 0.79886
 C1009 C 1.09810 0.87026 0.92257
 H1010 H 1.09326 0.89047 0.92566
 C1011 C 1.10977 0.81777 0.91501
 C1012 C 0.91197 1.14083 0.94121
 H1013 H 0.92008 1.12168 0.94399
 C1014 C 0.89029 1.19007 0.93362
 C1015 C 0.84154 1.04710 0.92725
 H1016 H 0.85524 1.03577 0.93813
 C1017 C 0.80855 1.07847 0.89827
 C1018 C 1.16406 0.96735 0.93280
 H1019 H 1.14438 0.97008 0.93951
 C1020 C 1.21453 0.95943 0.91411
 O1021 O 1.03784 0.90219 1.11665
 O1022 O 1.04244 0.86971 1.14357
 C1023 C 1.04755 0.89280 1.13689
 C1024 C 1.06509 0.90875 1.15278
 C1025 C 1.07182 0.90064 1.17746
 H1026 H 1.06379 0.88292 1.18515
 O1027 O 0.95314 1.07661 1.13110
 O1028 O 0.94685 1.10405 1.16303
 C1029 C 0.94201 1.08261 1.15209
 C1030 C 0.92267 1.06481 1.16340
 C1031 C 0.90927 1.07157 1.18601
 H1032 H 0.91391 1.08952 1.19557
 O1033 O 0.86661 0.99345 1.08745
 O1034 O 0.83587 0.98593 1.11594
 C1035 C 0.84400 0.99769 1.09608
 C1036 C 0.82729 1.01703 1.08333
 C1037 C 0.80208 1.02151 1.09230
 H1038 H 0.79451 1.01006 1.10798
 O1039 O 1.13043 0.98984 1.09432
 O1040 O 1.15855 0.99227 1.12574
 C1041 C 1.15227 0.98402 1.10365
 C1042 C 1.17009 0.96692 1.08883
 C1043 C 1.19548 0.96247 1.09709
 H1044 H 1.20260 0.97228 1.11399
 O1045 O 1.11538 0.88936 1.01691
 O1046 O 1.15011 0.86449 1.01559
 C1047 C 1.12741 0.86918 1.02394
 C1048 C 1.11486 0.85110 1.04207
 C1049 C 1.12631 0.82714 1.04762
 H1050 H 1.14432 0.82178 1.03830
 O1051 O 0.88421 1.10658 1.02983
 O1052 O 0.84939 1.13131 1.03071
 C1053 C 0.87134 1.12529 1.03955
 C1054 C 0.88195 1.14010 1.06141
 C1055 C 0.87008 1.16309 1.06990
 H1056 H 0.85319 1.17025 1.06003
 O1057 O 0.90886 0.94759 1.12071
 O1058 O 0.87850 0.93979 1.14949
 C1059 C 0.90107 0.93571 1.14057
 C1060 C 0.91848 0.91659 1.15279
 C1061 C 0.91188 0.90454 1.17612
 H1062 H 0.89396 0.90965 1.18569
 O1063 O 1.08459 1.02995 1.13145
 O1064 O 1.11242 1.03288 1.16308
 C1065 C 1.09076 1.03882 1.15330
 C1066 C 1.07287 1.05704 1.16677
 C1067 C 1.08029 1.06963 1.18965
 H1068 H 1.09888 1.06551 1.19810
 O1069 O 0.99388 0.86236 1.07766
 O1070 O 0.99777 0.83023 1.10511
 C1071 C 0.98744 0.83993 1.08530
 C1072 C 0.96633 0.82587 1.07218
 C1073 C 0.95251 0.80653 1.08543
 H1074 H 0.95822 0.80090 1.10455
 O1075 O 0.99791 1.12252 1.10072
 O1076 O 0.99184 1.14996 1.13273
 C1077 C 1.00262 1.14407 1.11155
 C1078 C 1.02126 1.16214 1.09963
 C1079 C 1.02534 1.18688 1.11014
 H1080 H 1.01423 1.19318 1.12671
 O1081 O 0.88667 0.88679 1.00942
 O1082 O 0.86211 0.85222 1.00508
 C1083 C 0.86723 0.87344 1.01626
 C1084 C 0.85098 0.88232 1.03796
 C1085 C 0.82760 0.86994 1.04388
 H1086 H 0.82091 0.85427 1.03181
 O1087 O 1.10970 1.11096 1.03760
 O1088 O 1.13309 1.14636 1.04139
 C1089 C 1.12786 1.12341 1.04829
 C1090 C 1.14267 1.11141 1.06940
 C1091 C 1.16236 1.12523 1.08164
 H1092 H 1.16732 1.14445 1.07505
 O1093 O 1.00320 1.08380 1.13174
 O1094 O 0.99690 1.11118 1.16371
 C1095 C 1.00970 1.09276 1.15340
 C1096 C 1.03304 1.08285 1.16646
 C1097 C 1.04068 1.09467 1.18926
 H1098 H 1.02855 1.10953 1.19784
 O1099 O 0.98826 0.89372 1.11601
 O1100 O 0.99314 0.86156 1.14328
 C1101 C 0.98101 0.88160 1.13595
 C1102 C 0.95781 0.89037 1.15034
 C1103 C 0.95097 0.87860 1.17354
 H1104 H 0.96345 0.86380 1.18142
 O1105 O 1.12144 1.03924 1.09922
 O1106 O 1.14952 1.04202 1.13067
 C1107 C 1.13983 1.05099 1.11022
 C1108 C 1.14906 1.07585 1.09952
 C1109 C 1.16901 1.08989 1.11136
 H1110 H 1.17863 1.08204 1.12797
 O1111 O 0.87478 0.94407 1.08457
 O1112 O 0.84411 0.93638 1.11308
 C1113 C 0.85513 0.93129 1.09183
 C1114 C 0.84523 0.91031 1.07528
 C1115 C 0.82185 0.89777 1.08101
 H1116 H 0.81099 0.90364 1.09782
 O1117 O 1.06794 1.13912 1.03668
 O1118 O 1.09141 1.17452 1.04004
 C1119 C 1.07216 1.16100 1.04697
 C1120 C 1.05511 1.17039 1.06789
 C1121 C 1.05897 1.19496 1.07869
 H1122 H 1.07350 1.20759 1.07060
 O1123 O 0.92805 0.85897 1.00842
 O1124 O 0.90331 0.82452 1.00438
 C1125 C 0.92170 0.83634 1.01541
 C1126 C 0.93425 0.82438 1.03793
 C1127 C 0.92085 0.80531 1.05161
 H1128 H 0.90238 0.79844 1.04474
 O1129 O 1.09410 0.98030 1.12719
 O1130 O 1.12174 0.98270 1.15904
 C1131 C 1.10337 0.97118 1.14773
 C1132 C 1.09272 0.94675 1.15816
 C1133 C 1.09979 0.93785 1.18259
 H1134 H 1.11300 0.94893 1.19428
 O1135 O 0.89953 0.99720 1.12413
 O1136 O 0.86899 0.98960 1.15279
 C1137 C 0.88812 1.00286 1.14504
 C1138 C 0.89650 1.02571 1.15997
 C1139 C 0.88341 1.03273 1.18259
 H1140 H 0.86798 1.02057 1.18975
 O1141 O 0.94845 1.11446 1.09895
 O1142 O 0.94246 1.14209 1.13080
 C1143 C 0.93613 1.13331 1.10900
 C1144 C 0.91385 1.14448 1.09529
 C1145 C 0.90186 1.16766 1.10353
 H1146 H 0.90933 1.17799 1.11995
 O1147 O 1.04421 0.86989 1.07881
 O1148 O 1.04841 0.83714 1.10546
 C1149 C 1.05615 0.84967 1.08598
 C1150 C 1.07980 0.84127 1.07205
 C1151 C 1.09156 0.81733 1.07739
 H1152 H 1.08247 0.80446 1.09100
 O1153 O 1.14527 0.92904 1.02166
 O1154 O 1.18027 0.90465 1.01989
 C1155 C 1.16727 0.92278 1.03039
 C1156 C 1.17736 0.93653 1.05327
 C1157 C 1.20248 0.93178 1.06232
 H1158 H 1.21507 0.91830 1.05227
 O1159 O 0.85629 1.06483 1.02447
 O1160 O 0.82159 1.08967 1.02545
 C1161 C 0.83373 1.06968 1.03299
 C1162 C 0.82211 1.05237 1.05261
 C1163 C 0.79698 1.05683 1.06223
 H1164 H 0.78538 1.07233 1.05440
 Cu1165 Cu 1.01571 0.88517 1.09444
 Cu1166 Cu 1.02110 0.84629 1.12689
 Cu1167 Cu 0.97617 1.09658 1.11241
 Cu1168 Cu 0.96897 1.12942 1.15093
 Cu1169 Cu 0.91085 0.87873 0.98426
 Cu1170 Cu 0.88148 0.83712 0.97916
 Cu1171 Cu 1.12773 0.91404 0.99456
 Cu1172 Cu 1.16936 0.88419 0.99260
 Cu1173 Cu 0.87534 1.08525 1.00235
 Cu1174 Cu 0.83382 1.11528 1.00332
 Cu1175 Cu 1.08807 1.12299 1.01192
 Cu1176 Cu 1.11655 1.16529 1.01633
 Cu1177 Cu 0.89061 0.97118 1.10143
 Cu1178 Cu 0.85385 0.96212 1.13579
 Cu1179 Cu 1.10486 1.00955 1.10995
 Cu1180 Cu 1.13834 1.01259 1.14785
 C1181 C 1.07537 0.93202 1.14342
 H1182 H 1.07017 0.93846 1.12441
 C1183 C 1.08903 0.91504 1.19243
 C1184 C 0.91626 1.04175 1.15064
 H1185 H 0.92615 1.03665 1.13295
 C1186 C 0.88942 1.05570 1.19569
 C1187 C 0.83699 1.03227 1.06321
 H1188 H 0.85656 1.02905 1.05638
 C1189 C 0.78687 1.04145 1.08214
 C1190 C 1.16140 0.95415 1.06669
 H1191 H 1.14184 0.95749 1.06020
 C1192 C 1.21171 0.94492 1.08403
 C1193 C 1.09150 0.85790 1.05420
 H1194 H 1.08273 0.87653 1.05024
 C1195 C 1.11487 0.81006 1.06522
 C1196 C 0.90389 1.13112 1.07409
 H1197 H 0.91290 1.11321 1.06779
 C1198 C 0.87990 1.17715 1.09083
 C1199 C 0.94162 0.90953 1.14028
 H1200 H 0.94668 0.91840 1.12215
 C1201 C 0.92816 0.88548 1.18668
 C1202 C 1.04910 1.06381 1.15539
 H1203 H 1.04352 1.05496 1.13742
 C1204 C 1.06431 1.08882 1.20068
 C1205 C 0.95708 0.83458 1.04833
 H1206 H 0.96694 0.85016 1.03848
 C1207 C 0.92933 0.79693 1.07558
 C1208 C 1.03607 1.15419 1.07833
 H1209 H 1.03333 1.13500 1.07036
 C1210 C 1.04431 1.20331 1.09990
 C1211 C 0.85948 0.90260 1.05362
 H1212 H 0.87767 0.91200 1.04926
 C1213 C 0.81273 0.87761 1.06526
 C1214 C 1.13632 1.08666 1.07835
 H1215 H 1.12079 1.07612 1.06928
 C1216 C 1.17563 1.11472 1.10258
 O1217 O 0.99490 0.40821 0.36354
 O1218 O 1.00151 0.38062 0.33178
 C1219 C 0.98869 0.39915 0.34175
 C1220 C 0.96615 0.41047 0.32840
 C1221 C 0.96155 0.40582 0.30219
 H1222 H 0.97466 0.39378 0.29104
 O1223 O 1.00712 0.60582 0.38254
 O1224 O 1.00117 0.63689 0.35426
 C1225 C 1.01407 0.61761 0.36234
 C1226 C 1.03777 0.60940 0.34841
 C1227 C 1.04550 0.62266 0.32628
 H1228 H 1.03365 0.63824 0.31895
 O1229 O 0.88395 0.45629 0.40254
 O1230 O 0.85390 0.45283 0.37294
 C1231 C 0.86435 0.44492 0.39346
 C1232 C 0.85296 0.42291 0.40741
 C1233 C 0.82671 0.41751 0.40469
 H1234 H 0.81501 0.42913 0.39196
 O1235 O 1.12334 0.55359 0.41053
 O1236 O 1.15257 0.56036 0.38038
 C1237 C 1.14247 0.56628 0.40187
 C1238 C 1.15223 0.58891 0.41632
 C1239 C 1.17353 0.60301 0.40720
 H1240 H 1.18355 0.59647 0.39009
 O1241 O 0.93250 0.35752 0.46542
 O1242 O 0.90818 0.32267 0.46270
 C1243 C 0.92729 0.33594 0.45491
 C1244 C 0.94318 0.32648 0.43301
 C1245 C 0.93823 0.30221 0.42191
 H1246 H 0.92353 0.28989 0.43018
 O1247 O 1.06990 0.64751 0.48089
 O1248 O 1.09412 0.68252 0.48295
 C1249 C 1.07544 0.67018 0.47326
 C1250 C 1.06056 0.68165 0.45214
 C1251 C 1.07037 0.70285 0.43821
 H1252 H 1.08839 0.71164 0.44389
 O1253 O 0.90830 0.51435 0.37031
 O1254 O 0.87865 0.51104 0.34038
 C1255 C 0.89748 0.52305 0.35032
 C1256 C 0.90634 0.54799 0.33952
 C1257 C 0.89599 0.55799 0.31661
 H1258 H 0.88205 0.54695 0.30576
 O1259 O 1.09527 0.50083 0.37226
 O1260 O 1.12362 0.50887 0.34156
 C1261 C 1.10501 0.49558 0.35043
 C1262 C 1.09566 0.47311 0.33557
 C1263 C 1.10588 0.46822 0.31112
 H1264 H 1.11928 0.48186 0.30266
 O1265 O 1.04988 0.38121 0.39865
 O1266 O 1.05657 0.35289 0.36758
 C1267 C 1.06276 0.36245 0.38914
 C1268 C 1.08549 0.35233 0.40321
 C1269 C 1.09880 0.32988 0.39490
 H1270 H 1.09210 0.31920 0.37835
 O1271 O 0.95030 0.62940 0.41839
 O1272 O 0.94439 0.66057 0.39025
 C1273 C 0.93747 0.64874 0.41043
 C1274 C 0.91383 0.65692 0.42443
 C1275 C 0.90054 0.67968 0.41776
 H1276 H 0.90829 0.69176 0.40271
 O1277 O 0.85724 0.56704 0.47938
 O1278 O 0.82125 0.59002 0.48038
 C1279 C 0.83505 0.57208 0.47049
 C1280 C 0.82552 0.55728 0.44809
 C1281 C 0.80013 0.56084 0.43940
 H1282 H 0.78715 0.57387 0.44954
 O1283 O 1.14371 0.43298 0.46921
 O1284 O 1.17871 0.40852 0.46722
 C1285 C 1.16545 0.42750 0.45907
 C1286 C 1.17440 0.44162 0.43604
 C1287 C 1.19136 0.42905 0.41902
 H1288 H 1.19916 0.41017 0.42377
 O1289 O 0.95782 0.59619 0.38137
 O1290 O 0.95210 0.62754 0.35337
 C1291 C 0.94783 0.60460 0.36083
 C1292 C 0.93071 0.58795 0.34545
 C1293 C 0.92004 0.59762 0.32289
 H1294 H 0.92497 0.61690 0.31642
 O1295 O 1.04366 0.41907 0.36668
 O1296 O 1.05057 0.39132 0.33513
 C1297 C 1.05447 0.41329 0.34553
 C1298 C 1.07184 0.43239 0.33321
 C1299 C 1.08258 0.42771 0.30876
 H1300 H 1.07805 0.40994 0.29876
 O1301 O 1.13133 0.50346 0.40588
 O1302 O 1.15976 0.51000 0.37488
 C1303 C 1.15258 0.49783 0.39481
 C1304 C 1.16808 0.47568 0.40419
 C1305 C 1.18493 0.46240 0.38727
 H1306 H 1.18761 0.46911 0.36779
 O1307 O 0.87399 0.50546 0.40561
 O1308 O 0.84433 0.50183 0.37569
 C1309 C 0.85152 0.51057 0.39729
 C1310 C 0.83361 0.52710 0.41258
 C1311 C 0.80798 0.53055 0.40463
 H1312 H 0.80111 0.52059 0.38772
 O1313 O 0.88250 0.61011 0.48283
 O1314 O 0.84663 0.63330 0.48402
 C1315 C 0.86932 0.62947 0.47539
 C1316 C 0.88040 0.64733 0.45616
 C1317 C 0.86735 0.67014 0.44933
 H1318 H 0.84932 0.67507 0.45883
 O1319 O 1.11529 0.39202 0.46842
 O1320 O 1.15038 0.36768 0.46707
 C1321 C 1.12801 0.37324 0.45879
 C1322 C 1.11719 0.35800 0.43734
 C1323 C 1.13027 0.33591 0.42854
 H1324 H 1.14762 0.32955 0.43817
 O1325 O 1.08718 0.55067 0.37643
 O1326 O 1.11619 0.55850 0.34630
 C1327 C 1.09418 0.56284 0.35643
 C1328 C 1.07683 0.58272 0.34531
 C1329 C 1.08407 0.59615 0.32297
 H1330 H 1.10216 0.59156 0.31343
 O1331 O 0.91784 0.46459 0.36676
 O1332 O 0.88826 0.46119 0.33674
 C1333 C 0.91053 0.45572 0.34527
 C1334 C 0.92808 0.43866 0.33030
 C1335 C 0.92399 0.43417 0.30416
 H1336 H 0.90807 0.44358 0.29450
 O1337 O 1.00003 0.63940 0.41856
 O1338 O 0.99378 0.67026 0.39014
 C1339 C 1.00484 0.66193 0.41008
 C1340 C 1.02512 0.67787 0.42199
 C1341 C 1.03462 0.69945 0.40885
 H1342 H 1.02506 0.70565 0.39155
 O1343 O 1.00022 0.37332 0.39850
 O1344 O 1.00635 0.34526 0.36707
 C1345 C 0.99545 0.35164 0.38813
 C1346 C 0.97653 0.33406 0.40043
 C1347 C 0.97136 0.30966 0.38973
 H1348 H 0.98180 0.30332 0.37276
 O1349 O 1.11052 0.61824 0.47955
 O1350 O 1.13477 0.65320 0.48176
 C1351 C 1.12973 0.63133 0.47171
 C1352 C 1.14578 0.62114 0.45022
 C1353 C 1.16706 0.63509 0.44072
 H1354 H 1.17255 0.65311 0.44981
 O1355 O 0.89148 0.38641 0.46774
 O1356 O 0.86656 0.35190 0.46553
 C1357 C 0.87204 0.37483 0.45851
 C1358 C 0.85615 0.38850 0.43928
 C1359 C 0.82966 0.38307 0.43606
 H1360 H 0.82035 0.36832 0.44754
 Cu1361 Cu 1.02155 0.39820 0.38493
 Cu1362 Cu 1.02952 0.36462 0.34733
 Cu1363 Cu 0.97922 0.61463 0.40323
 Cu1364 Cu 0.97215 0.65195 0.36922
 Cu1365 Cu 0.89917 0.48555 0.38912
 Cu1366 Cu 0.86341 0.48122 0.35332
 Cu1367 Cu 1.10646 0.52654 0.39443
 Cu1368 Cu 1.14100 0.53529 0.35782
 C1369 C 0.94926 0.42687 0.34217
 H1370 H 0.95246 0.43034 0.36238
 C1371 C 0.94071 0.41808 0.28999
 C1372 C 1.05348 0.58935 0.35775
 H1373 H 1.04785 0.57935 0.37512
 C1374 C 1.06851 0.61623 0.31346
 C1375 C 0.86752 0.40854 0.42489
 H1376 H 0.88780 0.41302 0.42734
 C1377 C 0.81485 0.39814 0.41920
 C1378 C 1.13877 0.59792 0.43805
 H1379 H 1.12209 0.58731 0.44490
 C1380 C 1.18112 0.62614 0.41923
 C1381 C 0.96245 0.34223 0.42219
 H1382 H 0.96597 0.36122 0.43031
 C1383 C 0.95199 0.29378 0.40009
 C1384 C 1.03790 0.66939 0.44392
 H1385 H 1.03085 0.65243 0.45389
 C1386 C 1.05769 0.71155 0.41612
 C1387 C 0.92396 0.56306 0.35356
 H1388 H 0.93177 0.55580 0.37135
 C1389 C 0.90276 0.58298 0.30844
 C1390 C 1.07842 0.45526 0.34639
 H1391 H 1.07077 0.45878 0.36547
 C1392 C 1.09974 0.44560 0.29764
 C1393 C 1.09470 0.36599 0.42471
 H1394 H 1.08480 0.38336 0.43118
 C1395 C 1.12128 0.32164 0.40758
 C1396 C 0.90374 0.64108 0.44381
 H1397 H 0.91370 0.62333 0.44877
 C1398 C 0.87726 0.68657 0.43021
 C1399 C 0.84213 0.54027 0.43458
 H1400 H 0.86190 0.53781 0.44081
 C1401 C 0.79124 0.54747 0.41776
 C1402 C 1.16293 0.46509 0.42858
 H1403 H 1.14904 0.47443 0.44124
 C1404 C 1.19600 0.43876 0.39447
 O1405 O 1.04284 0.40669 0.62023
 O1406 O 1.04838 0.37607 0.64904
 C1407 C 1.05289 0.39885 0.64095
 C1408 C 1.07015 0.41653 0.65541
 C1409 C 1.07727 0.41124 0.68091
 H1410 H 1.06983 0.39419 0.69041
 O1411 O 0.95725 0.57963 0.63004
 O1412 O 0.95126 0.60746 0.66169
 C1413 C 0.94651 0.58574 0.65119
 C1414 C 0.92761 0.56782 0.66316
 C1415 C 0.91422 0.57496 0.68572
 H1416 H 0.91833 0.59332 0.69484
 O1417 O 0.86818 0.49335 0.59155
 O1418 O 0.83894 0.48608 0.62162
 C1419 C 0.84599 0.49759 0.60128
 C1420 C 0.82860 0.51690 0.58950
 C1421 C 0.80450 0.52239 0.60073
 H1422 H 0.79820 0.51144 0.61727
 O1423 O 1.13283 0.49579 0.58937
 O1424 O 1.16209 0.49934 0.61966
 C1425 C 1.15497 0.49025 0.59817
 C1426 C 1.17217 0.47242 0.58357
 C1427 C 1.19734 0.46719 0.59199
 H1428 H 1.20468 0.47702 0.60878
 O1429 O 1.11724 0.38905 0.51832
 O1430 O 1.15261 0.36516 0.51674
 C1431 C 1.13031 0.36970 0.52601
 C1432 C 1.11957 0.35274 0.54632
 C1433 C 1.13276 0.33031 0.55427
 H1434 H 1.15075 0.32494 0.54493
 O1435 O 0.88296 0.60580 0.53234
 O1436 O 0.84721 0.62915 0.53368
 C1437 C 0.86964 0.62403 0.54215
 C1438 C 0.88029 0.63905 0.56386
 C1439 C 0.86633 0.65968 0.57477
 H1440 H 0.84778 0.66513 0.56692
 O1441 O 0.91284 0.44914 0.62413
 O1442 O 0.88365 0.44190 0.65423
 C1443 C 0.90589 0.43780 0.64461
 C1444 C 0.92365 0.41911 0.65681
 C1445 C 0.91675 0.40655 0.67975
 H1446 H 0.89851 0.41113 0.68898
 O1447 O 1.08845 0.53699 0.62694
 O1448 O 1.11750 0.54088 0.65739
 C1449 C 1.09525 0.54601 0.64854
 C1450 C 1.07704 0.56273 0.66326
 C1451 C 1.08214 0.57001 0.68878
 H1452 H 1.09945 0.56307 0.69805
 O1453 O 1.00039 0.36410 0.58277
 O1454 O 1.00601 0.33294 0.61097
 C1455 C 0.99562 0.34133 0.59055
 C1456 C 0.97718 0.32485 0.57611
 C1457 C 0.97296 0.29898 0.58320
 H1458 H 0.98392 0.29054 0.59868
 O1459 O 1.00022 0.62587 0.59731
 O1460 O 0.99468 0.65360 0.62912
 C1461 C 1.00502 0.64757 0.60772
 C1462 C 1.02335 0.66568 0.59519
 C1463 C 1.02780 0.69026 0.60583
 H1464 H 1.01715 0.69628 0.62278
 O1465 O 0.89056 0.38196 0.51746
 O1466 O 0.86664 0.34677 0.51515
 C1467 C 0.87167 0.36845 0.52546
 C1468 C 0.85591 0.37778 0.54741
 C1469 C 0.83410 0.36397 0.55575
 H1470 H 0.82817 0.34678 0.54544
 O1471 O 1.10965 0.61537 0.52925
 O1472 O 1.13361 0.65055 0.53149
 C1473 C 1.12854 0.62765 0.53869
 C1474 C 1.14475 0.61547 0.55842
 C1475 C 1.16751 0.62752 0.56608
 H1476 H 1.17335 0.64534 0.55687
 O1477 O 1.00690 0.58916 0.63043
 O1478 O 1.00096 0.61663 0.66240
 C1479 C 1.01367 0.59826 0.65199
 C1480 C 1.03685 0.58776 0.66488
 C1481 C 1.04208 0.59448 0.69034
 H1482 H 1.02870 0.60686 0.70076
 O1483 O 0.99354 0.39650 0.62025
 O1484 O 0.99925 0.36544 0.64856
 C1485 C 0.98660 0.38483 0.64054
 C1486 C 0.96318 0.39332 0.65462
 C1487 C 0.95604 0.38104 0.67747
 H1488 H 0.96838 0.36611 0.68530
 O1489 O 1.12396 0.54540 0.59265
 O1490 O 1.15335 0.54927 0.62276
 C1491 C 1.14298 0.55738 0.60231
 C1492 C 1.15236 0.58127 0.58965
 C1493 C 1.17541 0.59368 0.59715
 H1494 H 1.18704 0.58551 0.61226
 O1495 O 0.87803 0.44388 0.58897
 O1496 O 0.84873 0.43663 0.61897
 C1497 C 0.85916 0.43079 0.59760
 C1498 C 0.84975 0.40826 0.58280
 C1499 C 0.82790 0.39429 0.59086
 H1500 H 0.81755 0.40040 0.60792
 O1501 O 1.06804 0.64324 0.53066
 O1502 O 1.09176 0.67854 0.53305
 C1503 C 1.07277 0.66503 0.54088
 C1504 C 1.05645 0.67427 0.56259
 C1505 C 1.06062 0.69876 0.57359
 H1506 H 1.07502 0.71137 0.56526
 O1507 O 0.93271 0.35518 0.51547
 O1508 O 0.90899 0.31988 0.51310
 C1509 C 0.92774 0.33234 0.52284
 C1510 C 0.94364 0.32056 0.54336
 C1511 C 0.93930 0.29496 0.55130
 H1512 H 0.92473 0.28334 0.54198
 O1513 O 1.09697 0.48738 0.62315
 O1514 O 1.12586 0.49118 0.65378
 C1515 C 1.10685 0.47934 0.64383
 C1516 C 1.09622 0.45600 0.65652
 C1517 C 1.10278 0.45054 0.68187
 H1518 H 1.11541 0.46364 0.69206
 O1519 O 0.90377 0.49887 0.62554
 O1520 O 0.87453 0.49166 0.65561
 C1521 C 0.89316 0.50497 0.64672
 C1522 C 0.90173 0.52833 0.66079
 C1523 C 0.88871 0.53584 0.68324
 H1524 H 0.87338 0.52382 0.69084
 O1525 O 0.95048 0.61712 0.59798
 O1526 O 0.94489 0.64509 0.62959
 C1527 C 0.93779 0.63558 0.60832
 C1528 C 0.91398 0.64522 0.59589
 C1529 C 0.89990 0.66618 0.60631
 H1530 H 0.90698 0.67621 0.62309
 O1531 O 1.05015 0.37264 0.58426
 O1532 O 1.05580 0.34178 0.61279
 C1533 C 1.06285 0.35332 0.59251
 C1534 C 1.08641 0.34468 0.57874
 C1535 C 1.09976 0.32231 0.58645
 H1536 H 1.09210 0.31099 0.60210
 O1537 O 1.14475 0.43108 0.51952
 O1538 O 1.18011 0.40721 0.51755
 C1539 C 1.16725 0.42570 0.52752
 C1540 C 1.17813 0.44060 0.54918
 C1541 C 1.20310 0.43522 0.55825
 H1542 H 1.21500 0.42072 0.54881
 O1543 O 0.85458 0.56476 0.52948
 O1544 O 0.81870 0.58789 0.53066
 C1545 C 0.83201 0.56884 0.53846
 C1546 C 0.82167 0.55186 0.55891
 C1547 C 0.79759 0.55718 0.57054
 H1548 H 0.78600 0.57302 0.56347
 Cu1549 Cu 1.02123 0.38805 0.59901
 Cu1550 Cu 1.02795 0.35092 0.63313
 Cu1551 Cu 0.97928 0.60019 0.61076
 Cu1552 Cu 0.97249 0.63347 0.64889
 Cu1553 Cu 0.91418 0.37375 0.49170
 Cu1554 Cu 0.88532 0.33169 0.48874
 Cu1555 Cu 1.12677 0.41378 0.49424
 Cu1556 Cu 1.16907 0.38486 0.49200
 Cu1557 Cu 0.87283 0.58455 0.50587
 Cu1558 Cu 0.82978 0.61231 0.50728
 Cu1559 Cu 1.08705 0.62762 0.50480
 Cu1560 Cu 1.11593 0.66978 0.50769
 Cu1561 Cu 0.89366 0.47189 0.60451
 Cu1562 Cu 0.85856 0.46333 0.64067
 Cu1563 Cu 1.10771 0.51614 0.60495
 Cu1564 Cu 1.14265 0.52048 0.64143
 C1565 C 1.07965 0.43906 0.64349
 H1566 H 1.07455 0.44320 0.62384
 C1567 C 1.09338 0.42844 0.69436
 C1568 C 0.92133 0.54432 0.65095
 H1569 H 0.93110 0.53888 0.63330
 C1570 C 0.89455 0.55912 0.69571
 C1571 C 0.83690 0.53153 0.56841
 H1572 H 0.85572 0.52768 0.55997
 C1573 C 0.78895 0.54269 0.59171
 C1574 C 1.16292 0.45932 0.56189
 H1575 H 1.14345 0.46310 0.55538
 C1576 C 1.21283 0.44852 0.57956
 C1577 C 1.09633 0.35956 0.55855
 H1578 H 1.08622 0.37697 0.55279
 C1579 C 1.12298 0.31484 0.57431
 C1580 C 0.90419 0.63212 0.57443
 H1581 H 0.91484 0.61588 0.56641
 C1582 C 0.87600 0.67344 0.59584
 C1583 C 0.94705 0.41254 0.64457
 H1584 H 0.95231 0.42179 0.62669
 C1585 C 0.93289 0.38738 0.69017
 C1586 C 1.05428 0.57165 0.65157
 H1587 H 1.05037 0.56649 0.63185
 C1588 C 1.06457 0.58575 0.70252
 C1589 C 0.96265 0.33532 0.55589
 H1590 H 0.96570 0.35527 0.55033
 C1591 C 0.95399 0.28405 0.57105
 C1592 C 1.03759 0.65796 0.57341
 H1593 H 1.03455 0.63888 0.56533
 C1594 C 1.04650 0.70688 0.59534
 C1595 C 0.86339 0.40000 0.56091
 H1596 H 0.88040 0.41051 0.55476
 C1597 C 0.81984 0.37214 0.57735
 C1598 C 1.13739 0.59227 0.57009
 H1599 H 1.11954 0.58311 0.56431
 C1600 C 1.18309 0.61693 0.58522
 O1601 O 0.58568 1.03901 0.63386
 O1602 O 0.61386 1.04289 0.66510
 C1603 C 0.59187 1.04800 0.65565
 C1604 C 0.57312 1.06449 0.66995
 C1605 C 0.57801 1.07270 0.69526
 H1606 H 0.59567 1.06680 0.70454
 O1607 O 0.41048 0.95030 0.62512
 O1608 O 0.37958 0.94204 0.65319
 C1609 C 0.40238 0.93821 0.64476
 C1610 C 0.41960 0.91905 0.65724
 C1611 C 0.41186 0.90581 0.67958
 H1612 H 0.39331 0.91004 0.68838
 O1613 O 0.49667 1.12602 0.60383
 O1614 O 0.49050 1.15333 0.63591
 C1615 C 0.50163 1.14733 0.61491
 C1616 C 0.52147 1.16465 0.60393
 C1617 C 0.52859 1.18725 0.61704
 H1618 H 0.51849 1.19278 0.63450
 O1619 O 0.50011 0.86589 0.58594
 O1620 O 0.50606 0.83455 0.61390
 C1621 C 0.49597 0.84286 0.59334
 C1622 C 0.47866 0.82576 0.57838
 C1623 C 0.47485 0.80007 0.58598
 H1624 H 0.48541 0.79243 0.60213
 O1625 O 0.60954 1.11530 0.53814
 O1626 O 0.63330 1.15061 0.54024
 C1627 C 0.62857 1.12768 0.54738
 C1628 C 0.64500 1.11566 0.56713
 C1629 C 0.66731 1.12812 0.57577
 H1630 H 0.67307 1.14624 0.56709
 O1631 O 0.39506 0.88222 0.51675
 O1632 O 0.37047 0.84747 0.51468
 C1633 C 0.37546 0.86948 0.52430
 C1634 C 0.35819 0.88026 0.54438
 C1635 C 0.33384 0.86919 0.54881
 H1636 H 0.32773 0.85293 0.53722
 O1637 O 0.45273 1.07991 0.63487
 O1638 O 0.44617 1.10724 0.66684
 C1639 C 0.44182 1.08562 0.65605
 C1640 C 0.42346 1.06713 0.66783
 C1641 C 0.41198 1.07231 0.69182
 H1642 H 0.41713 1.08981 0.70196
 O1643 O 0.54040 0.90870 0.62547
 O1644 O 0.54602 0.87771 0.65386
 C1645 C 0.55002 0.90074 0.64636
 C1646 C 0.56608 0.91863 0.66175
 C1647 C 0.57167 0.91368 0.68772
 H1648 H 0.56413 0.89653 0.69697
 O1649 O 0.63012 0.99647 0.59805
 O1650 O 0.65798 0.99890 0.62976
 C1651 C 0.65120 0.98955 0.60826
 C1652 C 0.66689 0.96898 0.59589
 C1653 C 0.68369 0.95391 0.61084
 H1654 H 0.68651 0.95847 0.63090
 O1655 O 0.36803 0.99591 0.59137
 O1656 O 0.33701 0.98820 0.61949
 C1657 C 0.34535 1.00021 0.59988
 C1658 C 0.32889 1.01999 0.58734
 C1659 C 0.30346 1.02450 0.59600
 H1660 H 0.29539 1.01281 0.61126
 O1661 O 0.38411 1.11218 0.53244
 O1662 O 0.34826 1.13537 0.53273
 C1663 C 0.37031 1.13026 0.54201
 C1664 C 0.37979 1.14435 0.56489
 C1665 C 0.36460 1.16341 0.57741
 H1666 H 0.34605 1.16909 0.56973
 O1667 O 0.61617 0.89362 0.52107
 O1668 O 0.65128 0.86926 0.51969
 C1669 C 0.62874 0.87384 0.52842
 C1670 C 0.61731 0.85637 0.54777
 C1671 C 0.62870 0.83227 0.55284
 H1672 H 0.64556 0.82622 0.54194
 O1673 O 0.40086 0.99977 0.62820
 O1674 O 0.37008 0.99177 0.65651
 C1675 C 0.38928 1.00514 0.64909
 C1676 C 0.39784 1.02766 0.66443
 C1677 C 0.38657 1.03311 0.68839
 H1678 H 0.37215 1.02013 0.69616
 O1679 O 0.59350 0.98958 0.63075
 O1680 O 0.62103 0.99331 0.66265
 C1681 C 0.60234 0.98169 0.65194
 C1682 C 0.59102 0.95864 0.66422
 C1683 C 0.59583 0.95376 0.69003
 H1684 H 0.60734 0.96727 0.70098
 O1685 O 0.54922 0.87630 0.58799
 O1686 O 0.55517 0.84503 0.61602
 C1687 C 0.56202 0.85688 0.59580
 C1688 C 0.58507 0.84817 0.58111
 C1689 C 0.59675 0.82405 0.58599
 H1690 H 0.58853 0.81166 0.60055
 O1691 O 0.44702 1.11749 0.60224
 O1692 O 0.44083 1.14487 0.63423
 C1693 C 0.43436 1.13599 0.61249
 C1694 C 0.41131 1.14667 0.59951
 C1695 C 0.39589 1.16541 0.61172
 H1696 H 0.40144 1.17298 0.63026
 O1697 O 0.35848 1.06929 0.52922
 O1698 O 0.32255 1.09236 0.52926
 C1699 C 0.33565 1.07326 0.53746
 C1700 C 0.32439 1.05592 0.55717
 C1701 C 0.29921 1.06032 0.56646
 H1702 H 0.28771 1.07589 0.55859
 O1703 O 0.64350 0.93491 0.52557
 O1704 O 0.67841 0.91027 0.52474
 C1705 C 0.66491 0.92802 0.53522
 C1706 C 0.67324 0.93886 0.56009
 C1707 C 0.68957 0.92397 0.57554
 H1708 H 0.69715 0.90563 0.56859
 O1709 O 0.49118 0.89807 0.62300
 O1710 O 0.49686 0.86677 0.65105
 C1711 C 0.48381 0.88585 0.64281
 C1712 C 0.45947 0.89346 0.65598
 C1713 C 0.45129 0.88031 0.67801
 H1714 H 0.46330 0.86514 0.68593
 O1715 O 0.50244 1.08882 0.63606
 O1716 O 0.49568 1.11600 0.66814
 C1717 C 0.50878 1.09788 0.65778
 C1718 C 0.53205 1.08798 0.67094
 C1719 C 0.53712 1.09569 0.69614
 H1720 H 0.52328 1.10794 0.70609
 O1721 O 0.37793 0.94639 0.58781
 O1722 O 0.34664 0.93859 0.61563
 C1723 C 0.35842 0.93329 0.59479
 C1724 C 0.34966 0.91144 0.57867
 C1725 C 0.32535 0.90010 0.58286
 H1726 H 0.31286 0.90795 0.59767
 O1727 O 0.62289 1.04636 0.60090
 O1728 O 0.65158 1.04966 0.63171
 C1729 C 0.64197 1.05785 0.61094
 C1730 C 0.65204 1.08146 0.59842
 C1731 C 0.67459 1.09408 0.60685
 H1732 H 0.68563 1.08605 0.62248
 O1733 O 0.43643 0.85370 0.51571
 O1734 O 0.41206 0.81884 0.51386
 C1735 C 0.43091 0.83115 0.52358
 C1736 C 0.44635 0.81984 0.54474
 C1737 C 0.44225 0.79431 0.55328
 H1738 H 0.42805 0.78219 0.54399
 O1739 O 0.56673 1.14199 0.53994
 O1740 O 0.59073 1.17705 0.54298
 C1741 C 0.57179 1.16346 0.55065
 C1742 C 0.55609 1.17228 0.57281
 C1743 C 0.56312 1.19463 0.58642
 H1744 H 0.57935 1.20606 0.57990
 Cu1745 Cu 0.60533 1.01782 0.61264
 Cu1746 Cu 0.63910 1.02166 0.65037
 Cu1747 Cu 0.39243 0.97382 0.60534
 Cu1748 Cu 0.35520 0.96430 0.63901
 Cu1749 Cu 0.47520 1.10029 0.61602
 Cu1750 Cu 0.46758 1.13313 0.65447
 Cu1751 Cu 0.51982 0.89044 0.60285
 Cu1752 Cu 0.52670 0.85291 0.63654
 C1753 C 0.55001 1.07217 0.65806
 H1754 H 0.54624 1.06632 0.63849
 C1755 C 0.55998 1.08837 0.70854
 C1756 C 0.44359 0.91291 0.64585
 H1757 H 0.44962 0.92278 0.62854
 C1758 C 0.42765 0.88631 0.68997
 C1759 C 0.53510 1.15749 0.58160
 H1760 H 0.52995 1.13987 0.57154
 C1761 C 0.54960 1.20209 0.60865
 C1762 C 0.46467 0.83534 0.55747
 H1763 H 0.46750 0.85522 0.55159
 C1764 C 0.45665 0.78431 0.57380
 C1765 C 0.63773 1.09228 0.57834
 H1766 H 0.62022 1.08291 0.57192
 C1767 C 0.68237 1.11754 0.59546
 C1768 C 0.36585 0.90153 0.55923
 H1769 H 0.38471 0.91003 0.55601
 C1770 C 0.31714 0.87901 0.56784
 C1771 C 0.41645 1.04463 0.65446
 H1772 H 0.42496 1.04071 0.63582
 C1773 C 0.39352 1.05534 0.70233
 C1774 C 0.57582 0.94124 0.65027
 H1775 H 0.57204 0.94505 0.63025
 C1776 C 0.58619 0.93157 0.70202
 C1777 C 0.66190 0.96139 0.57041
 H1778 H 0.64825 0.97230 0.55905
 C1779 C 0.69431 0.93102 0.60093
 C1780 C 0.33906 1.03565 0.56770
 H1781 H 0.35870 1.03249 0.56104
 C1782 C 0.28866 1.04479 0.58587
 C1783 C 0.40330 1.13658 0.57593
 H1784 H 0.41489 1.12168 0.56671
 C1785 C 0.37257 1.17378 0.60098
 C1786 C 0.59541 0.86406 0.56185
 H1787 H 0.58668 0.88276 0.55814
 C1788 C 0.61853 0.81582 0.57175
 O1789 O 0.59861 1.00141 0.37600
 O1790 O 0.62907 1.00893 0.34723
 C1791 C 0.61021 0.99538 0.35531
 C1792 C 0.60226 0.97202 0.34081
 C1793 C 0.61478 0.96561 0.31770
 H1794 H 0.62956 0.97828 0.31007
 O1795 O 0.41190 1.01622 0.37250
 O1796 O 0.38288 1.01239 0.34199
 C1797 C 0.40170 1.02440 0.35197
 C1798 C 0.41187 1.04829 0.34004
 C1799 C 0.40776 1.05386 0.31397
 H1800 H 0.39694 1.04060 0.30207
 O1801 O 0.45574 1.13104 0.41725
 O1802 O 0.45104 1.16262 0.38936
 C1803 C 0.44347 1.15075 0.40931
 C1804 C 0.41948 1.15909 0.42273
 C1805 C 0.40488 1.18003 0.41350
 H1806 H 0.41186 1.19093 0.39720
 O1807 O 0.55157 0.88220 0.40229
 O1808 O 0.55933 0.85405 0.37129
 C1809 C 0.56503 0.86383 0.39295
 C1810 C 0.58796 0.85470 0.40731
 C1811 C 0.60113 0.83174 0.40040
 H1812 H 0.59413 0.82005 0.38469
 O1813 O 0.64592 0.93857 0.47518
 O1814 O 0.68136 0.91478 0.47443
 C1815 C 0.66856 0.93419 0.46662
 C1816 C 0.67956 0.95125 0.44660
 C1817 C 0.70434 0.94650 0.43631
 H1818 H 0.71612 0.93110 0.44407
 O1819 O 0.36025 1.07234 0.47924
 O1820 O 0.32422 1.09525 0.47922
 C1821 C 0.33816 1.07715 0.46992
 C1822 C 0.32885 1.06178 0.44779
 C1823 C 0.30351 1.06509 0.43876
 H1824 H 0.29046 1.07850 0.44830
 O1825 O 0.51154 1.10665 0.38029
 O1826 O 0.50629 1.13778 0.35192
 C1827 C 0.51850 1.11805 0.35982
 C1828 C 0.54147 1.10876 0.34547
 C1829 C 0.54896 1.12072 0.32254
 H1830 H 0.53719 1.13613 0.31474
 O1831 O 0.49757 0.90899 0.36607
 O1832 O 0.50520 0.88221 0.33387
 C1833 C 0.49189 0.90034 0.34401
 C1834 C 0.46925 0.91161 0.33072
 C1835 C 0.46404 0.90647 0.30468
 H1836 H 0.47684 0.89413 0.29351
 O1837 O 0.62118 1.05691 0.41402
 O1838 O 0.65170 1.06452 0.38533
 C1839 C 0.64027 1.07022 0.40629
 C1840 C 0.64913 1.09265 0.42168
 C1841 C 0.67107 1.10671 0.41413
 H1842 H 0.68149 1.10094 0.39699
 O1843 O 0.38696 0.95831 0.40495
 O1844 O 0.35699 0.95492 0.37527
 C1845 C 0.36744 0.94686 0.39575
 C1846 C 0.35644 0.92427 0.40923
 C1847 C 0.33038 0.91811 0.40612
 H1848 H 0.31841 0.92985 0.39375
 O1849 O 0.56786 1.14583 0.48964
 O1850 O 0.59153 1.18112 0.49309
 C1851 C 0.57367 1.16849 0.48223
 C1852 C 0.56249 1.17913 0.45855
 C1853 C 0.57796 1.19585 0.44420
 H1854 H 0.59583 1.20307 0.45217
 O1855 O 0.43671 0.85552 0.46531
 O1856 O 0.41148 0.82130 0.46300
 C1857 C 0.43062 0.83421 0.45473
 C1858 C 0.44464 0.82530 0.43141
 C1859 C 0.43352 0.80637 0.41563
 H1860 H 0.41570 0.79701 0.42140
 O1861 O 0.42123 0.96631 0.36936
 O1862 O 0.39162 0.96259 0.33940
 C1863 C 0.41388 0.95717 0.34797
 C1864 C 0.43126 0.93989 0.33301
 C1865 C 0.42661 0.93493 0.30707
 H1866 H 0.41046 0.94420 0.29767
 O1867 O 0.58956 1.05129 0.37606
 O1868 O 0.61993 1.05883 0.34721
 C1869 C 0.59730 1.06273 0.35588
 C1870 C 0.58003 1.08153 0.34317
 C1871 C 0.58720 1.09359 0.32001
 H1872 H 0.60519 1.08834 0.31061
 O1873 O 0.50221 0.87204 0.39885
 O1874 O 0.50912 0.84484 0.36684
 C1875 C 0.49741 0.85077 0.38755
 C1876 C 0.47699 0.83362 0.39802
 C1877 C 0.46508 0.81498 0.38227
 H1878 H 0.47149 0.81228 0.36263
 O1879 O 0.50594 1.13884 0.41781
 O1880 O 0.50228 1.16981 0.38903
 C1881 C 0.51259 1.16079 0.40917
 C1882 C 0.53373 1.17495 0.42190
 C1883 C 0.55041 1.19092 0.40739
 H1884 H 0.54707 1.19386 0.38714
 O1885 O 0.39651 0.88542 0.46725
 O1886 O 0.37082 0.85146 0.46543
 C1887 C 0.37673 0.87424 0.45824
 C1888 C 0.36065 0.88835 0.43941
 C1889 C 0.33441 0.88215 0.43566
 H1890 H 0.32556 0.86647 0.44625
 O1891 O 0.60881 1.11761 0.48820
 O1892 O 0.63246 1.15300 0.49059
 C1893 C 0.62750 1.13130 0.48014
 C1894 C 0.64307 1.12228 0.45790
 C1895 C 0.66501 1.13610 0.44997
 H1896 H 0.67111 1.15292 0.46076
 O1897 O 0.54653 0.91932 0.36964
 O1898 O 0.55463 0.89175 0.33821
 C1899 C 0.55835 0.91355 0.34897
 C1900 C 0.57706 0.93210 0.33766
 C1901 C 0.58983 0.92617 0.31448
 H1902 H 0.58557 0.90820 0.30471
 O1903 O 0.46252 1.09733 0.38076
 O1904 O 0.45782 1.12838 0.35222
 C1905 C 0.45319 1.10549 0.35986
 C1906 C 0.43719 1.08795 0.34417
 C1907 C 0.43351 1.09285 0.31809
 H1908 H 0.44229 1.10968 0.30932
 O1909 O 0.37721 1.00784 0.40760
 O1910 O 0.34799 1.00430 0.37726
 C1911 C 0.35499 1.01321 0.39884
 C1912 C 0.33710 1.03027 0.41350
 C1913 C 0.31153 1.03341 0.40529
 H1914 H 0.30472 1.02277 0.38876
 O1915 O 0.63327 1.00801 0.41097
 O1916 O 0.66371 1.01567 0.38221
 C1917 C 0.65603 1.00427 0.40236
 C1918 C 0.67337 0.98573 0.41531
 C1919 C 0.69829 0.98099 0.40557
 H1920 H 0.70528 0.99189 0.38926
 O1921 O 0.61716 0.89731 0.47130
 O1922 O 0.65264 0.87354 0.47051
 C1923 C 0.63034 0.87871 0.46187
 C1924 C 0.61991 0.86267 0.44075
 C1925 C 0.63276 0.83987 0.43347
 H1926 H 0.64996 0.83400 0.44364
 O1927 O 0.38739 1.11420 0.48256
 O1928 O 0.35149 1.13732 0.48257
 C1929 C 0.37432 1.13323 0.47430
 C1930 C 0.38544 1.15020 0.45424
 C1931 C 0.37102 1.17097 0.44449
 H1932 H 0.35210 1.17532 0.45242
 Cu1933 Cu 0.60755 1.02870 0.39708
 Cu1934 Cu 0.64410 1.03776 0.36259
 Cu1935 Cu 0.40239 0.98757 0.39150
 Cu1936 Cu 0.36694 0.98311 0.35546
 Cu1937 Cu 0.58575 1.12665 0.51396
 Cu1938 Cu 0.61420 1.16908 0.51710
 Cu1939 Cu 0.62725 0.91872 0.49821
 Cu1940 Cu 0.66963 0.88980 0.49705
 Cu1941 Cu 0.37616 1.08976 0.50590
 Cu1942 Cu 0.33302 1.11738 0.50590
 Cu1943 Cu 0.41881 0.87249 0.49150
 Cu1944 Cu 0.38899 0.83108 0.48901
 Cu1945 Cu 0.48429 1.11550 0.40203
 Cu1946 Cu 0.47840 1.15311 0.36814
 Cu1947 Cu 0.52369 0.89826 0.38738
 Cu1948 Cu 0.53299 0.86535 0.34947
 C1949 C 0.58325 0.95523 0.35058
 H1950 H 0.57379 0.95982 0.36862
 C1951 C 0.60876 0.94280 0.30442
 C1952 C 0.42655 1.06549 0.35491
 H1953 H 0.42961 1.06145 0.37502
 C1954 C 0.41910 1.07586 0.30286
 C1955 C 0.40976 1.14457 0.44339
 H1956 H 0.42071 1.12817 0.45037
 C1957 C 0.38055 1.18597 0.42417
 C1958 C 0.59741 0.86985 0.42773
 H1959 H 0.58760 0.88763 0.43314
 C1960 C 0.62354 0.82413 0.41361
 C1961 C 0.66434 0.97107 0.43608
 H1962 H 0.64498 0.97440 0.44342
 C1963 C 0.71375 0.96120 0.41564
 C1964 C 0.34552 1.04426 0.43503
 H1965 H 0.36524 1.04199 0.44145
 C1966 C 0.29474 1.05082 0.41764
 C1967 C 0.55694 1.08899 0.35546
 H1968 H 0.55149 1.08010 0.37346
 C1969 C 0.57171 1.11331 0.30964
 C1970 C 0.45267 0.92831 0.34459
 H1971 H 0.45625 0.93217 0.36466
 C1972 C 0.44290 0.91851 0.29274
 C1973 C 0.63539 1.10045 0.44374
 H1974 H 0.61832 1.08986 0.44958
 C1975 C 0.67930 1.12835 0.42828
 C1976 C 0.37140 0.90950 0.42610
 H1977 H 0.39152 0.91447 0.42882
 C1978 C 0.31914 0.89751 0.41947
 C1979 C 0.54019 1.16884 0.44741
 H1980 H 0.52863 1.15510 0.45812
 C1981 C 0.57315 1.20046 0.41838
 C1982 C 0.46670 0.83845 0.42264
 H1983 H 0.47502 0.85351 0.43447
 C1984 C 0.44321 0.80155 0.39095
 O1985 O 0.49092 0.41484 0.86965
 O1986 O 0.49733 0.38691 0.83816
 C1987 C 0.48379 0.40458 0.84871
 C1988 C 0.45868 0.41188 0.83733
 C1989 C 0.44841 0.39673 0.81753
 H1990 H 0.45964 0.38088 0.80951
 O1991 O 0.50425 0.60332 0.88238
 O1992 O 0.49765 0.63496 0.85486
 C1993 C 0.51075 0.61558 0.86231
 C1994 C 0.53425 0.60777 0.84799
 C1995 C 0.54006 0.61899 0.82427
 H1996 H 0.52656 0.63260 0.81598
 O1997 O 0.37302 0.45793 0.90880
 O1998 O 0.34324 0.45481 0.87898
 C1999 C 0.35378 0.44632 0.89918
 C2000 C 0.34483 0.42183 0.91084
 C2001 C 0.32512 0.40712 0.89943
 H2002 H 0.31512 0.41450 0.88283
 O2003 O 0.62204 0.55806 0.91388
 O2004 O 0.65150 0.56575 0.88415
 C2005 C 0.64125 0.57097 0.90574
 C2006 C 0.65126 0.59248 0.92158
 C2007 C 0.67459 0.60499 0.91548
 H2008 H 0.68566 0.59846 0.89903
 O2009 O 0.43072 0.36144 0.96952
 O2010 O 0.40764 0.32571 0.96727
 C2011 C 0.42643 0.33949 0.95945
 C2012 C 0.44303 0.33025 0.93796
 C2013 C 0.43957 0.30541 0.92751
 H2014 H 0.42543 0.29256 0.93595
 O2015 O 0.56658 0.64441 0.98643
 O2016 O 0.59011 0.67987 0.98851
 C2017 C 0.57175 0.66707 0.97861
 C2018 C 0.55678 0.67824 0.95725
 C2019 C 0.56425 0.70188 0.94610
 H2020 H 0.58050 0.71251 0.95368
 O2021 O 0.40106 0.51457 0.87704
 O2022 O 0.37229 0.51069 0.84631
 C2023 C 0.39114 0.52259 0.85637
 C2024 C 0.40064 0.54674 0.84455
 C2025 C 0.38900 0.55608 0.82232
 H2026 H 0.37413 0.54483 0.81299
 O2027 O 0.59509 0.50488 0.87589
 O2028 O 0.62433 0.51257 0.84592
 C2029 C 0.60542 0.49941 0.85442
 C2030 C 0.59614 0.47692 0.83955
 C2031 C 0.60810 0.47061 0.81623
 H2032 H 0.62300 0.48314 0.80861
 O2033 O 0.54795 0.38842 0.90253
 O2034 O 0.55344 0.35985 0.87138
 C2035 C 0.56001 0.36921 0.89286
 C2036 C 0.58146 0.35719 0.90701
 C2037 C 0.58686 0.33077 0.90385
 H2038 H 0.57540 0.31920 0.89086
 O2039 O 0.44857 0.62552 0.92064
 O2040 O 0.44244 0.65768 0.89365
 C2041 C 0.43603 0.64546 0.91380
 C2042 C 0.41366 0.65440 0.92930
 C2043 C 0.40241 0.67870 0.92472
 H2044 H 0.41076 0.69109 0.91024
 O2045 O 0.35372 0.56855 0.98445
 O2046 O 0.31910 0.59355 0.98628
 C2047 C 0.33223 0.57583 0.97530
 C2048 C 0.32350 0.56567 0.95030
 C2049 C 0.30775 0.58146 0.93519
 H2050 H 0.30060 0.59973 0.94274
 O2051 O 0.64364 0.43605 0.97188
 O2052 O 0.67806 0.41094 0.96891
 C2053 C 0.66549 0.43088 0.96189
 C2054 C 0.67585 0.44789 0.94138
 C2055 C 0.69986 0.44257 0.92964
 H2056 H 0.71134 0.42653 0.93647
 O2057 O 0.45480 0.59418 0.88174
 O2058 O 0.44817 0.62615 0.85465
 C2059 C 0.44410 0.60302 0.86171
 C2060 C 0.42622 0.58635 0.84703
 C2061 C 0.41445 0.59529 0.82441
 H2062 H 0.41899 0.61428 0.81691
 O2063 O 0.54075 0.42547 0.86957
 O2064 O 0.54734 0.39739 0.83827
 C2065 C 0.55166 0.41931 0.84853
 C2066 C 0.57023 0.43756 0.83652
 C2067 C 0.58280 0.43136 0.81325
 H2068 H 0.57814 0.41344 0.80360
 O2069 O 0.63036 0.50836 0.91028
 O2070 O 0.65970 0.51594 0.88040
 C2071 C 0.65241 0.50387 0.90037
 C2072 C 0.66938 0.48375 0.91157
 C2073 C 0.69342 0.47821 0.90026
 H2074 H 0.69993 0.48951 0.88404
 O2075 O 0.36534 0.50813 0.91087
 O2076 O 0.33639 0.50566 0.88015
 C2077 C 0.34400 0.51524 0.90124
 C2078 C 0.32905 0.53628 0.91381
 C2079 C 0.31306 0.55249 0.89901
 H2080 H 0.31037 0.54858 0.87880
 O2081 O 0.38224 0.60898 0.98904
 O2082 O 0.34757 0.63391 0.99121
 C2083 C 0.36994 0.62907 0.98213
 C2084 C 0.38154 0.64656 0.96286
 C2085 C 0.37053 0.67092 0.95801
 H2086 H 0.35380 0.67724 0.96897
 O2087 O 0.61589 0.39439 0.96949
 O2088 O 0.65010 0.36880 0.96754
 C2089 C 0.62773 0.37504 0.95981
 C2090 C 0.61492 0.35977 0.93958
 C2091 C 0.62036 0.33322 0.93600
 H2092 H 0.63449 0.32360 0.94788
 O2093 O 0.58662 0.55434 0.87886
 O2094 O 0.61578 0.56214 0.84888
 C2095 C 0.59345 0.56593 0.85848
 C2096 C 0.57509 0.58401 0.84613
 C2097 C 0.58069 0.59551 0.82229
 H2098 H 0.59873 0.59101 0.81267
 O2099 O 0.40860 0.46480 0.87432
 O2100 O 0.37904 0.46060 0.84438
 C2101 C 0.40116 0.45502 0.85325
 C2102 C 0.41807 0.43619 0.83959
 C2103 C 0.40825 0.42087 0.81953
 H2104 H 0.38848 0.42347 0.81340
 O2105 O 0.49814 0.63527 0.91989
 O2106 O 0.49193 0.66699 0.89240
 C2107 C 0.50301 0.65805 0.91215
 C2108 C 0.52269 0.67393 0.92534
 C2109 C 0.53005 0.69782 0.91497
 H2110 H 0.52027 0.70514 0.89821
 O2111 O 0.49871 0.37895 0.90286
 O2112 O 0.50454 0.35092 0.87130
 C2113 C 0.49421 0.35704 0.89269
 C2114 C 0.47626 0.33880 0.90548
 C2115 C 0.47263 0.31379 0.89550
 H2116 H 0.48364 0.30750 0.87886
 O2117 O 0.60911 0.61806 0.98610
 O2118 O 0.63269 0.65345 0.98895
 C2119 C 0.62825 0.63158 0.97877
 C2120 C 0.64491 0.62201 0.95763
 C2121 C 0.66822 0.63436 0.95140
 H2122 H 0.67458 0.65060 0.96287
 O2123 O 0.38757 0.38768 0.97087
 O2124 O 0.36459 0.35191 0.96821
 C2125 C 0.36906 0.37492 0.96112
 C2126 C 0.35302 0.38658 0.94079
 C2127 C 0.33356 0.37205 0.92896
 H2128 H 0.32954 0.35258 0.93546
 Cu2129 Cu 0.51914 0.40494 0.88915
 Cu2130 Cu 0.52642 0.37121 0.85139
 Cu2131 Cu 0.47687 0.61132 0.90390
 Cu2132 Cu 0.46926 0.64967 0.87120
 Cu2133 Cu 0.38984 0.48654 0.89589
 Cu2134 Cu 0.35471 0.48251 0.85947
 Cu2135 Cu 0.60560 0.53089 0.89780
 Cu2136 Cu 0.64080 0.53995 0.86185
 C2137 C 0.44341 0.43167 0.84818
 H2138 H 0.45093 0.44296 0.86398
 C2139 C 0.42321 0.40077 0.80878
 C2140 C 0.55172 0.59014 0.85864
 H2141 H 0.54739 0.58167 0.87713
 C2142 C 0.56312 0.61304 0.81115
 C2143 C 0.35827 0.41155 0.93181
 H2144 H 0.37371 0.42258 0.94047
 C2145 C 0.31958 0.38207 0.90829
 C2146 C 0.63680 0.60097 0.94282
 H2147 H 0.61864 0.59162 0.94740
 C2148 C 0.68339 0.62592 0.93046
 C2149 C 0.46156 0.34676 0.92689
 H2150 H 0.46399 0.36614 0.93449
 C2151 C 0.45421 0.29707 0.90621
 C2152 C 0.53598 0.66441 0.94670
 H2153 H 0.53059 0.64584 0.95466
 C2154 C 0.55101 0.71167 0.92486
 C2155 C 0.41943 0.56187 0.85667
 H2156 H 0.42801 0.55501 0.87427
 C2157 C 0.39560 0.58023 0.81224
 C2158 C 0.57696 0.46052 0.84942
 H2159 H 0.56794 0.46516 0.86767
 C2160 C 0.60196 0.44780 0.80307
 C2161 C 0.59542 0.37151 0.92500
 H2162 H 0.59096 0.39186 0.92778
 C2163 C 0.60589 0.31859 0.91851
 C2164 C 0.40324 0.63855 0.94854
 H2165 H 0.41167 0.61966 0.95196
 C2166 C 0.38088 0.68720 0.93905
 C2167 C 0.33413 0.54305 0.93948
 H2168 H 0.34730 0.53137 0.95067
 C2169 C 0.30315 0.57553 0.90949
 C2170 C 0.66086 0.46866 0.93229
 H2171 H 0.64211 0.47259 0.94083
 C2172 C 0.70871 0.45753 0.90885
 O2173 O 0.54155 0.40560 1.12183
 O2174 O 0.54783 0.37335 1.14867
 C2175 C 0.55279 0.39621 1.14127
 C2176 C 0.57269 0.41125 1.15504
 C2177 C 0.58659 0.39925 1.17450
 H2178 H 0.58163 0.37974 1.18026
 O2179 O 0.45627 0.57805 1.13631
 O2180 O 0.45156 0.60557 1.16845
 C2181 C 0.44672 0.58385 1.15808
 C2182 C 0.42964 0.56531 1.17146
 C2183 C 0.42414 0.56850 1.19757
 H2184 H 0.43282 0.58425 1.20821
 O2185 O 0.36654 0.49487 1.09890
 O2186 O 0.33740 0.48733 1.12897
 C2187 C 0.34432 0.49888 1.10858
 C2188 C 0.32673 0.51762 1.09617
 C2189 C 0.30180 0.52212 1.10601
 H2190 H 0.29502 0.51125 1.12242
 O2191 O 0.63227 0.49301 1.09402
 O2192 O 0.66200 0.49703 1.12381
 C2193 C 0.65477 0.48807 1.10230
 C2194 C 0.67226 0.47105 1.08704
 C2195 C 0.69800 0.46695 1.09441
 H2196 H 0.70567 0.47710 1.11086
 O2197 O 0.61449 0.39209 1.01901
 O2198 O 0.64917 0.36719 1.01700
 C2199 C 0.62671 0.37200 1.02595
 C2200 C 0.61468 0.35400 1.04454
 C2201 C 0.62598 0.32979 1.04919
 H2202 H 0.64342 0.32431 1.03889
 O2203 O 0.38081 0.60536 1.03865
 O2204 O 0.34577 0.62974 1.04053
 C2205 C 0.36807 0.62395 1.04871
 C2206 C 0.37918 0.63886 1.07024
 C2207 C 0.36679 0.66120 1.07967
 H2208 H 0.34912 0.66777 1.07078
 O2209 O 0.41169 0.45047 1.13007
 O2210 O 0.38286 0.44238 1.16030
 C2211 C 0.40518 0.43889 1.15051
 C2212 C 0.42387 0.42116 1.16276
 C2213 C 0.41981 0.41216 1.18785
 H2214 H 0.40287 0.41858 1.19832
 O2215 O 0.58725 0.53287 1.13230
 O2216 O 0.61655 0.53691 1.16248
 C2217 C 0.59439 0.54240 1.15356
 C2218 C 0.57723 0.56114 1.16716
 C2219 C 0.58612 0.57486 1.18881
 H2220 H 0.60510 0.57092 1.19650
 O2221 O 0.49554 0.36431 1.08677
 O2222 O 0.50098 0.33301 1.11490
 C2223 C 0.48967 0.34207 1.09540
 C2224 C 0.46827 0.32739 1.08375
 C2225 C 0.45478 0.30888 1.09839
 H2226 H 0.46086 0.30440 1.11769
 O2227 O 0.49800 0.62504 1.10316
 O2228 O 0.49258 0.65277 1.13501
 C2229 C 0.50260 0.64686 1.11348
 C2230 C 0.52044 0.66518 1.10074
 C2231 C 0.52493 0.68981 1.11136
 H2232 H 0.51454 0.69588 1.12845
 O2233 O 0.38826 0.38617 1.02089
 O2234 O 0.36437 0.35098 1.01816
 C2235 C 0.36931 0.37269 1.02865
 C2236 C 0.35335 0.38196 1.05055
 C2237 C 0.33037 0.36926 1.05711
 H2238 H 0.32383 0.35318 1.04548
 O2239 O 0.60664 0.61389 1.03574
 O2240 O 0.62973 0.64959 1.03850
 C2241 C 0.62498 0.62658 1.04570
 C2242 C 0.64065 0.61475 1.06620
 C2243 C 0.66095 0.62868 1.07719
 H2244 H 0.66561 0.64782 1.07015
 O2245 O 0.50603 0.58710 1.13456
 O2246 O 0.50092 0.61501 1.16628
 C2247 C 0.51357 0.59671 1.15562
 C2248 C 0.53783 0.58760 1.16758
 C2249 C 0.54715 0.60088 1.18895
 H2250 H 0.53598 0.61664 1.19723
 O2251 O 0.49191 0.39742 1.12390
 O2252 O 0.49838 0.36619 1.15190
 C2253 C 0.48586 0.38604 1.14462
 C2254 C 0.46360 0.39564 1.15996
 C2255 C 0.45930 0.38683 1.18501
 H2256 H 0.47291 0.37344 1.19346
 O2257 O 0.62194 0.54220 1.09794
 O2258 O 0.65144 0.54637 1.12794
 C2259 C 0.64054 0.55463 1.10780
 C2260 C 0.64875 0.57944 1.09623
 C2261 C 0.66929 0.59361 1.10671
 H2262 H 0.67995 0.58590 1.12276
 O2263 O 0.37615 0.44568 1.09553
 O2264 O 0.34679 0.43760 1.12523
 C2265 C 0.35713 0.43245 1.10359
 C2266 C 0.34734 0.41086 1.08746
 C2267 C 0.32416 0.39799 1.09357
 H2268 H 0.31309 0.40393 1.11026
 O2269 O 0.56537 0.64238 1.03647
 O2270 O 0.58836 0.67819 1.03870
 C2271 C 0.56961 0.66442 1.04646
 C2272 C 0.55320 0.67370 1.06795
 C2273 C 0.55748 0.69816 1.07888
 H2274 H 0.57183 0.71082 1.07052
 O2275 O 0.42867 0.35704 1.01970
 O2276 O 0.40473 0.32185 1.01730
 C2277 C 0.42288 0.33451 1.02759
 C2278 C 0.43575 0.32372 1.05034
 C2279 C 0.42262 0.30534 1.06525
 H2280 H 0.40403 0.29804 1.05920
 O2281 O 0.59806 0.48334 1.12905
 O2282 O 0.62761 0.48674 1.15905
 C2283 C 0.60900 0.47453 1.14892
 C2284 C 0.60046 0.44925 1.15933
 C2285 C 0.61445 0.43655 1.17882
 H2286 H 0.63118 0.44560 1.18732
 O2287 O 0.40107 0.49947 1.13419
 O2288 O 0.37245 0.49169 1.16469
 C2289 C 0.39121 0.50492 1.15593
 C2290 C 0.40193 0.52700 1.17072
 C2291 C 0.39632 0.53074 1.19701
 H2292 H 0.38386 0.51737 1.20714
 O2293 O 0.44858 0.61553 1.10425
 O2294 O 0.44336 0.64309 1.13627
 C2295 C 0.43609 0.63392 1.11494
 C2296 C 0.41259 0.64414 1.10254
 C2297 C 0.40004 0.66666 1.11170
 H2298 H 0.40792 0.67710 1.12786
 O2299 O 0.54565 0.37278 1.08427
 O2300 O 0.55124 0.34041 1.11112
 C2301 C 0.55796 0.35266 1.09107
 C2302 C 0.58086 0.34413 1.07595
 C2303 C 0.59253 0.31992 1.08037
 H2304 H 0.58394 0.30698 1.09422
 O2305 O 0.64502 0.43160 1.02184
 O2306 O 0.67999 0.40721 1.01936
 C2307 C 0.66737 0.42560 1.02986
 C2308 C 0.67832 0.43996 1.05193
 C2309 C 0.70379 0.43553 1.06009
 H2310 H 0.71603 0.42186 1.04988
 O2311 O 0.35274 0.56386 1.03483
 O2312 O 0.31768 0.58819 1.03665
 C2313 C 0.33043 0.56853 1.04403
 C2314 C 0.31983 0.55155 1.06436
 C2315 C 0.29500 0.55589 1.07457
 H2316 H 0.28288 0.57077 1.06638
 Cu2317 Cu 0.51807 0.38810 1.10130
 Cu2318 Cu 0.52533 0.34999 1.13430
 Cu2319 Cu 0.47762 0.59867 1.11631
 Cu2320 Cu 0.47160 0.63178 1.15479
 Cu2321 Cu 0.41124 0.37658 0.99531
 Cu2322 Cu 0.38307 0.33404 0.99236
 Cu2323 Cu 0.62644 0.41614 0.99573
 Cu2324 Cu 0.66796 0.38621 0.99304
 Cu2325 Cu 0.37077 0.58404 1.01173
 Cu2326 Cu 0.32883 0.61355 1.01394
 Cu2327 Cu 0.58455 0.62614 1.01090
 Cu2328 Cu 0.61248 0.66891 1.01401
 Cu2329 Cu 0.39175 0.47338 1.11172
 Cu2330 Cu 0.35691 0.46386 1.14779
 Cu2331 Cu 0.60690 0.51237 1.11044
 Cu2332 Cu 0.64228 0.51709 1.14644
 C2333 C 0.57953 0.43639 1.14769
 H2334 H 0.56907 0.44558 1.13228
 C2335 C 0.60771 0.41127 1.18604
 C2336 C 0.41866 0.54444 1.15825
 H2337 H 0.42291 0.54197 1.13802
 C2338 C 0.40776 0.55134 1.21046
 C2339 C 0.33542 0.53221 1.07515
 H2340 H 0.35479 0.52911 1.06772
 C2341 C 0.28590 0.54137 1.09550
 C2342 C 0.66278 0.45776 1.06555
 H2343 H 0.64294 0.46079 1.05978
 C2344 C 0.71380 0.44915 1.08114
 C2345 C 0.59197 0.36091 1.05781
 H2346 H 0.58330 0.37971 1.05449
 C2347 C 0.61511 0.31252 1.06694
 C2348 C 0.40212 0.63063 1.08169
 H2349 H 0.41158 0.61322 1.07467
 C2350 C 0.37709 0.67539 1.10025
 C2351 C 0.44594 0.41300 1.14913
 H2352 H 0.44902 0.41966 1.12968
 C2353 C 0.43755 0.39506 1.19926
 C2354 C 0.55291 0.56760 1.15680
 H2355 H 0.54611 0.55771 1.13981
 C2356 C 0.57124 0.59509 1.19938
 C2357 C 0.45867 0.33459 1.05965
 H2358 H 0.46833 0.34954 1.04872
 C2359 C 0.43167 0.29833 1.08940
 C2360 C 0.53447 0.65743 1.07886
 H2361 H 0.53145 0.63831 1.07085
 C2362 C 0.54361 0.70630 1.10071
 C2363 C 0.36159 0.40283 1.06573
 H2364 H 0.37955 0.41245 1.06095
 C2365 C 0.31551 0.37719 1.07835
 C2366 C 0.63475 0.59005 1.07574
 H2367 H 0.61874 0.57939 1.06768
 C2368 C 0.67534 0.61831 1.09735
 N2369 N 1.06308 1.12819 1.22599
 N2370 N 1.07231 1.13808 1.24737
 C2371 C 1.08809 1.12008 1.25737
 C2372 C 1.08846 1.09868 1.24127
 N2373 N 1.07238 1.10458 1.22192
 H2374 H 1.09858 1.08051 1.24383
 N2375 N 1.05046 0.60137 0.74442
 N2376 N 1.06014 0.60891 0.76660
 C2377 C 1.08587 0.60526 0.76506
 C2378 C 1.09173 0.59509 0.74115
 N2379 N 1.06902 0.59305 0.72879
 H2380 H 1.11066 0.59103 0.73313
 N2381 N 0.54695 1.11102 0.74749
 N2382 N 0.55650 1.11922 0.76946
 C2383 C 0.58112 1.11082 0.77035
 C2384 C 0.58639 1.09697 0.74813
 N2385 N 0.56447 1.09771 0.73422
 H2386 H 0.60460 1.08838 0.74229
 N2387 N 0.57446 0.63647 1.22108
 N2388 N 0.58360 0.64665 1.24239
 C2389 C 0.59633 0.62758 1.25452
 C2390 C 0.59495 0.60526 1.23984
 N2391 N 0.58094 0.61170 1.21916
 H2392 H 0.60205 0.58609 1.24440
 N2393 N 0.93356 0.85085 1.21776
 N2394 N 0.92431 0.84302 1.24010
 C2395 C 0.90582 0.86011 1.24706
 C2396 C 0.90394 0.87874 1.22816
 N2397 N 0.92168 0.87224 1.21015
 H2398 H 0.89132 0.89547 1.22786
 N2399 N 0.93637 0.35080 0.71924
 N2400 N 0.92578 0.34173 0.74052
 C2401 C 0.90758 0.35899 0.74783
 C2402 C 0.90728 0.37900 0.73034
 N2403 N 0.92558 0.37310 0.71272
 H2404 H 0.89508 0.39606 0.73055
 N2405 N 0.42745 0.84747 0.71623
 N2406 N 0.41807 0.83894 0.73827
 C2407 C 0.40376 0.85832 0.74838
 C2408 C 0.40451 0.87908 0.73172
 N2409 N 0.41957 0.87147 0.71187
 H2410 H 0.39572 0.89799 0.73418
 N2411 N 0.44910 0.36836 1.23595
 N2412 N 0.44022 0.36192 1.25889
 C2413 C 0.41824 0.37549 1.26268
 C2414 C 0.41393 0.39055 1.24133
 N2415 N 0.43360 0.38542 1.22492
 H2416 H 0.39765 0.40323 1.23795
 N2417 N 0.94351 1.08954 0.75626
 N2418 N 0.93814 1.09358 0.73187
 C2419 C 0.91257 1.08964 0.72913
 C2420 C 0.90234 1.08285 0.75271
 N2421 N 0.92236 1.08312 0.76908
 H2422 H 0.88233 1.07932 0.75773
 N2423 N 0.88543 0.61983 0.28582
 N2424 N 0.87986 0.62704 0.26224
 C2425 C 0.88241 0.60583 0.24737
 C2426 C 0.88951 0.58517 0.26257
 N2427 N 0.89124 0.59485 0.28651
 H2428 H 0.89473 0.56572 0.25662
 N2429 N 0.43841 1.08712 0.26200
 N2430 N 0.43139 1.09413 0.23872
 C2431 C 0.40549 1.09179 0.23771
 C2432 C 0.39678 1.08286 0.26121
 N2433 N 0.41800 1.08028 0.27579
 H2434 H 0.37701 1.08065 0.26773
 N2435 N 0.35629 0.58506 0.78793
 N2436 N 0.34848 0.59320 0.76531
 C2437 C 0.36923 0.60347 0.75347
 C2438 C 0.39016 0.60165 0.76969
 N2439 N 0.38118 0.58990 0.79097
 H2440 H 0.41008 0.60674 0.76583
 N2441 N 1.14024 0.95593 0.76567
 N2442 N 1.14854 0.94601 0.74367
 C2443 C 1.13319 0.92569 0.73848
 C2444 C 1.11523 0.92341 0.75795
 N2445 N 1.12028 0.94265 0.77469
 H2446 H 1.10035 0.90888 0.75976
 N2447 N 1.13345 0.45291 0.26576
 N2448 N 1.14145 0.44399 0.24327
 C2449 C 1.12472 0.42535 0.23645
 C2450 C 1.10619 0.42303 0.25541
 N2451 N 1.11238 0.44059 0.27348
 H2452 H 1.09005 0.40979 0.25599
 N2453 N 0.64566 0.94625 0.27526
 N2454 N 0.65447 0.93608 0.25355
 C2455 C 0.63659 0.91897 0.24569
 C2456 C 0.61654 0.91891 0.26320
 N2457 N 0.62295 0.93618 0.28147
 H2458 H 0.59910 0.90745 0.26259
 N2459 N 0.63726 0.45403 0.77250
 N2460 N 0.64792 0.44274 0.75220
 C2461 C 0.63349 0.42177 0.74711
 C2462 C 0.61364 0.42051 0.76479
 N2463 N 0.61667 0.44102 0.78045
 H2464 H 0.59886 0.40585 0.76621
 N2465 N 1.19469 1.15584 1.11484
 N2466 N 1.21501 1.16513 1.12696
 C2467 C 1.22845 1.14464 1.13569
 C2468 C 1.21561 1.12230 1.12857
 N2469 N 1.19463 1.13021 1.11548
 H2470 H 1.22155 1.10243 1.13155
 N2471 N 1.21093 0.65467 0.58495
 N2472 N 1.23452 0.66176 0.59129
 C2473 C 1.24544 0.64127 0.60283
 C2474 C 1.22770 0.62129 0.60357
 N2475 N 1.20635 0.63048 0.59202
 H2476 H 1.23051 0.60183 0.61067
 N2477 N 0.70859 1.15632 0.59887
 N2478 N 0.73171 1.16379 0.60644
 C2479 C 0.74327 1.14293 0.61673
 C2480 C 0.72634 1.12225 0.61533
 N2481 N 0.70489 1.13147 0.60387
 H2482 H 0.72988 1.10233 0.62069
 N2483 N 0.69557 0.65927 1.10830
 N2484 N 0.71677 0.66817 1.11916
 C2485 C 0.73040 0.64736 1.12680
 C2486 C 0.71690 0.62532 1.12040
 N2487 N 0.69525 0.63364 1.10882
 H2488 H 0.72273 0.60535 1.12291
 N2489 N 1.25139 0.97081 0.88687
 N2490 N 1.27295 0.96031 0.87767
 C2491 C 1.27497 0.93677 0.88845
 C2492 C 1.25411 0.93314 0.90457
 N2493 N 1.23973 0.95483 0.90305
 H2494 H 1.24925 0.91581 0.91510
 N2495 N 1.19654 0.39855 0.37117
 N2496 N 1.21331 0.38321 0.35936
 C2497 C 1.23525 0.39688 0.35644
 C2498 C 1.23128 0.42143 0.36659
 N2499 N 1.20684 0.42152 0.37571
 H2500 H 1.24548 0.43643 0.36976
 N2501 N 0.75098 0.97106 0.38837
 N2502 N 0.77077 0.95901 0.37727
 C2503 C 0.77026 0.93437 0.38565
 C2504 C 0.74968 0.93169 0.40231
 N2505 N 0.73806 0.95503 0.40350
 H2506 H 0.74287 0.91409 0.41127
 N2507 N 0.74184 0.46530 0.87626
 N2508 N 0.76207 0.45368 0.86556
 C2509 C 0.76554 0.43135 0.87833
 C2510 C 0.74687 0.42962 0.89722
 N2511 N 0.73231 0.45121 0.89528
 H2512 H 0.74356 0.41355 0.91004
 N2513 N 0.78108 0.84308 1.05932
 N2514 N 0.75837 0.83553 1.06843
 C2515 C 0.75135 0.85298 1.08643
 C2516 C 0.77042 0.87144 1.08812
 N2517 N 0.78876 0.86458 1.07091
 H2518 H 0.77064 0.88820 1.10059
 N2519 N 0.79256 0.33357 0.57787
 N2520 N 0.77080 0.32514 0.58840
 C2521 C 0.76175 0.34447 0.60340
 C2522 C 0.77861 0.36500 0.60178
 N2523 N 0.79768 0.35746 0.58565
 H2524 H 0.77680 0.38368 0.61105
 N2525 N 0.28290 0.84847 0.55703
 N2526 N 0.25937 0.84183 0.56460
 C2527 C 0.25331 0.85727 0.58461
 C2528 C 0.27383 0.87356 0.58913
 N2529 N 0.29202 0.86750 0.57146
 H2530 H 0.27516 0.88820 0.60390
 N2531 N 0.28665 0.34001 1.07584
 N2532 N 0.26321 0.33287 1.08320
 C2533 C 0.25319 0.35278 1.09676
 C2534 C 0.27127 0.37238 1.09761
 N2535 N 0.29194 0.36363 1.08429
 H2536 H 0.26924 0.39130 1.10640
 N2537 N 0.80277 1.12230 0.88314
 N2538 N 0.78523 1.13662 0.87147
 C2539 C 0.76655 1.12039 0.86365
 C2540 C 0.77324 1.09547 0.87078
 N2541 N 0.79598 1.09761 0.88292
 H2542 H 0.76170 1.07808 0.86945
 N2543 N 0.75230 0.53411 0.39529
 N2544 N 0.73023 0.54415 0.38727
 C2545 C 0.72951 0.56886 0.39564
 C2546 C 0.75176 0.57368 0.40917
 N2547 N 0.76550 0.55150 0.40848
 H2548 H 0.75799 0.59187 0.41740
 N2549 N 0.25586 1.03587 0.39617
 N2550 N 0.23382 1.04525 0.38737
 C2551 C 0.23307 1.07051 0.39390
 C2552 C 0.25527 1.07636 0.40716
 N2553 N 0.26900 1.05420 0.40813
 H2554 H 0.26148 1.09510 0.41410
 N2555 N 0.29978 0.61985 0.89508
 N2556 N 0.28457 0.63474 0.88118
 C2557 C 0.26694 0.61909 0.87036
 C2558 C 0.27192 0.59389 0.87796
 N2559 N 0.29253 0.59534 0.89350
 H2560 H 0.26052 0.57673 0.87437
 N2561 N 1.03204 1.24128 1.12548
 N2562 N 1.04217 1.26335 1.13359
 C2563 C 1.06656 1.26411 1.12438
 C2564 C 1.07109 1.24193 1.11038
 N2565 N 1.04907 1.22817 1.11142
 H2566 H 1.08885 1.23623 1.10082
 N2567 N 1.03700 0.74171 0.62590
 N2568 N 1.04760 0.76314 0.63499
 C2569 C 1.06987 0.76649 0.62191
 C2570 C 1.07259 0.74654 0.60452
 N2571 N 1.05167 0.73137 0.60758
 H2572 H 1.08887 0.74289 0.59189
 N2573 N 0.54216 1.23679 0.63960
 N2574 N 0.55472 1.25607 0.65058
 C2575 C 0.57897 1.25549 0.64103
 C2576 C 0.58092 1.23541 0.62375
 N2577 N 0.55748 1.22421 0.62332
 H2578 H 0.59775 1.22946 0.61282
 N2579 N 0.53323 0.74349 1.12823
 N2580 N 0.54435 0.76478 1.13709
 C2581 C 0.56834 0.76538 1.12688
 C2582 C 0.57158 0.74393 1.11148
 N2583 N 0.54924 0.73073 1.11273
 H2584 H 0.58882 0.73815 1.10107
 N2585 N 0.86381 1.22672 0.94763
 N2586 N 0.85525 1.24922 0.93898
 C2587 C 0.86532 1.25206 0.91530
 C2588 C 0.88039 1.23070 0.90967
 N2589 N 0.87896 1.21529 0.93036
 H2590 H 0.89066 1.22648 0.89200
 N2591 N 0.84046 0.71622 0.43344
 N2592 N 0.83204 0.73829 0.42366
 C2593 C 0.85012 0.74615 0.40675
 C2594 C 0.86993 0.72822 0.40645
 N2595 N 0.86320 0.70972 0.42341
 H2596 H 0.88743 0.72886 0.39503
 N2597 N 0.33906 1.20628 0.41483
 N2598 N 0.32960 1.22658 0.40257
 C2599 C 0.34999 1.23966 0.39308
 C2600 C 0.37227 1.22679 0.39986
 N2601 N 0.36463 1.20599 0.41340
 H2602 H 0.39201 1.23213 0.39548
 N2603 N 0.35288 0.72365 0.95063
 N2604 N 0.34610 0.74674 0.94195
 C2605 C 0.35899 0.75016 0.91972
 C2606 C 0.37387 0.72850 0.91497
 N2607 N 0.36959 0.71234 0.93477
 H2608 H 0.38633 0.72498 0.89861
 N2609 N 1.09279 0.77460 0.92021
 N2610 N 1.09735 0.75078 0.91189
 C2611 C 1.12021 0.75130 0.89940
 C2612 C 1.12970 0.77630 0.90046
 N2613 N 1.11202 0.79016 0.91377
 H2614 H 1.14657 0.78404 0.89082
 N2615 N 1.16067 0.29601 0.40414
 N2616 N 1.16843 0.27255 0.39727
 C2617 C 1.14761 0.26033 0.38786
 C2618 C 1.12676 0.27714 0.38894
 N2619 N 1.13575 0.29923 0.39936
 H2620 H 1.10687 0.27323 0.38404
 N2621 N 0.66132 0.79593 0.41493
 N2622 N 0.66859 0.77220 0.40845
 C2623 C 0.64846 0.76138 0.39631
 C2624 C 0.62858 0.77930 0.39538
 N2625 N 0.63739 0.80067 0.40733
 H2626 H 0.60938 0.77661 0.38778
 N2627 N 0.58714 0.27615 0.92362
 N2628 N 0.59174 0.25184 0.91691
 C2629 C 0.61567 0.25112 0.90659
 C2630 C 0.62577 0.27592 0.90731
 N2631 N 0.60729 0.29089 0.91818
 H2632 H 0.64366 0.28274 0.89889
 N2633 N 0.88708 0.79150 1.09457
 N2634 N 0.87423 0.77566 1.10978
 C2635 C 0.89089 0.75701 1.11701
 C2636 C 0.91472 0.76201 1.10578
 N2637 N 0.91131 0.78370 1.09183
 H2638 H 0.93228 0.75065 1.10678
 N2639 N 0.96812 0.24187 0.58655
 N2640 N 0.95816 0.21944 0.59379
 C2641 C 0.93236 0.22135 0.59084
 C2642 C 0.92678 0.24566 0.58142
 N2643 N 0.94964 0.25783 0.57901
 H2644 H 0.90798 0.25398 0.57761
 N2645 N 0.47050 0.74469 0.59486
 N2646 N 0.46038 0.72364 0.60522
 C2647 C 0.43491 0.72429 0.60016
 C2648 C 0.42972 0.74632 0.58613
 N2649 N 0.45248 0.75856 0.58329
 H2650 H 0.41107 0.75364 0.58026
 N2651 N 0.39295 0.29678 1.11542
 N2652 N 0.37870 0.27988 1.12815
 C2653 C 0.39148 0.25710 1.12730
 C2654 C 0.41424 0.26056 1.11364
 N2655 N 0.41434 0.28565 1.10669
 H2656 H 0.42847 0.24614 1.10814
 N2657 N 1.07016 1.08100 0.76147
 N2658 N 1.07771 1.08536 0.73765
 C2659 C 1.08322 1.11079 0.73594
 C2660 C 1.07842 1.12211 0.75969
 N2661 N 1.07035 1.10269 0.77503
 H2662 H 1.08264 1.14169 0.76579
 N2663 N 1.06827 0.65493 0.28688
 N2664 N 1.07765 0.66333 0.26476
 C2665 C 1.09199 0.64385 0.25484
 C2666 C 1.09128 0.62325 0.27163
 N2667 N 1.07621 0.63097 0.29138
 H2668 H 1.10018 0.60438 0.26936
 N2669 N 0.57140 1.15093 0.28178
 N2670 N 0.58065 1.15869 0.25942
 C2671 C 0.59501 1.13902 0.24992
 C2672 C 0.59444 1.11887 0.26733
 N2673 N 0.57938 1.12714 0.28695
 H2674 H 0.60341 1.09998 0.26557
 N2675 N 0.55432 0.64488 0.77795
 N2676 N 0.56330 0.65262 0.75547
 C2677 C 0.58391 0.63760 0.74997
 C2678 C 0.58736 0.62035 0.76983
 N2679 N 0.56843 0.62554 0.78701
 H2680 H 0.60204 0.60549 0.77136
 N2681 N 0.95489 0.89472 0.75093
 N2682 N 0.94463 0.88467 0.73003
 C2683 C 0.91968 0.89200 0.72994
 C2684 C 0.91487 0.90694 0.75148
 N2685 N 0.93741 0.90806 0.76424
 H2686 H 0.89642 0.91440 0.75807
 N2687 N 0.93546 0.43729 0.24819
 N2688 N 0.92770 0.43079 0.22498
 C2689 C 0.92447 0.40489 0.22489
 C2690 C 0.93088 0.39556 0.24887
 N2691 N 0.93757 0.41650 0.26280
 H2692 H 0.92862 0.37608 0.25610
 N2693 N 0.43431 0.93731 0.25144
 N2694 N 0.42561 0.93048 0.22868
 C2695 C 0.42434 0.90442 0.22831
 C2696 C 0.43306 0.89533 0.25174
 N2697 N 0.43891 0.91664 0.26562
 H2698 H 0.43278 0.87564 0.25880
 N2699 N 0.41947 0.35802 0.78939
 N2700 N 0.40575 0.34563 0.77194
 C2701 C 0.38926 0.36309 0.76203
 C2702 C 0.39321 0.38664 0.77400
 N2703 N 0.41227 0.38262 0.79097
 H2704 H 0.38335 0.40481 0.77059
 N2705 N 1.07728 0.89553 1.23297
 N2706 N 1.08849 0.88499 1.25308
 C2707 C 1.11403 0.88951 1.25079
 C2708 C 1.11821 0.90316 1.22841
 N2709 N 1.09472 0.90646 1.21787
 H2710 H 1.13653 0.90763 1.21934
 N2711 N 1.11010 0.44264 0.73544
 N2712 N 1.11770 0.43311 0.75762
 C2713 C 1.11257 0.40759 0.75705
 C2714 C 1.10146 0.40169 0.73372
 N2715 N 1.10042 0.42419 0.72069
 H2716 H 1.09643 0.38275 0.72638
 N2717 N 0.59530 0.94766 0.74470
 N2718 N 0.60363 0.93922 0.76704
 C2719 C 0.60505 0.91325 0.76521
 C2720 C 0.59706 0.90589 0.74104
 N2721 N 0.59127 0.92805 0.72879
 H2722 H 0.59730 0.88669 0.73264
 N2723 N 0.62560 0.37072 1.19973
 N2724 N 0.63239 0.35926 1.22118
 C2725 C 0.63447 0.37796 1.23904
 C2726 C 0.62906 0.40161 1.22770
 N2727 N 0.62307 0.39603 1.20315
 H2728 H 0.62609 0.42011 1.23712
 N2729 N 0.85390 1.05032 1.22635
 N2730 N 0.84383 1.06167 1.24693
 C2731 C 0.85862 1.08247 1.25186
 C2732 C 0.87807 1.08354 1.23372
 N2733 N 0.87451 1.06308 1.21805
 H2734 H 0.89317 1.09787 1.23226
 N2735 N 0.85567 0.55783 0.72225
 N2736 N 0.84568 0.56881 0.74303
 C2737 C 0.86345 0.58561 0.75167
 C2738 C 0.88468 0.58471 0.73553
 N2739 N 0.87904 0.56709 0.71735
 H2740 H 0.90240 0.59564 0.73703
 N2741 N 0.36087 1.04779 0.73550
 N2742 N 0.35314 1.05728 0.75789
 C2743 C 0.36909 1.07704 0.76344
 C2744 C 0.38685 1.07940 0.74379
 N2745 N 0.38106 1.06078 0.72659
 H2746 H 0.40231 1.09334 0.74234
 N2747 N 0.42409 0.55427 1.25355
 N2748 N 0.41795 0.56602 1.27535
 C2749 C 0.39341 0.57439 1.27306
 C2750 C 0.38463 0.56725 1.24909
 N2751 N 0.40434 0.55456 1.23755
 H2752 H 0.36694 0.57335 1.23991
 N2753 N 1.11972 1.20150 0.89981
 N2754 N 1.13399 1.21538 0.88396
 C2755 C 1.11796 1.23224 0.87241
 C2756 C 1.09309 1.22805 0.88151
 N2757 N 1.09522 1.20881 0.89879
 H2758 H 1.07561 1.23867 0.87715
 N2759 N 1.05767 0.73735 0.37747
 N2760 N 1.07320 0.75176 0.36338
 C2761 C 1.09540 0.75411 0.37640
 C2762 C 1.09295 0.74077 0.39925
 N2763 N 1.06898 0.73036 0.39904
 H2764 H 1.10754 0.73790 0.41369
 N2765 N 0.61842 1.20422 0.40796
 N2766 N 0.63439 1.21973 0.39560
 C2767 C 0.61961 1.23643 0.38244
 C2768 C 0.59384 1.23044 0.38678
 N2769 N 0.59406 1.21036 0.40318
 H2770 H 0.57688 1.24115 0.38090
 N2771 N 0.54395 0.74854 0.89707
 N2772 N 0.55729 0.76631 0.88459
 C2773 C 0.58206 0.76386 0.89194
 C2774 C 0.58354 0.74406 0.90959
 N2775 N 0.55925 0.73489 0.91213
 H2776 H 0.60074 0.73589 0.91808
 N2777 N 0.84307 1.20644 1.09176
 N2778 N 0.83624 1.22959 1.10033
 C2779 C 0.85638 1.23895 1.11361
 C2780 C 0.87596 1.22057 1.11303
 N2781 N 0.86683 1.20054 1.09900
 H2782 H 0.89511 1.22214 1.12104
 N2783 N 0.83514 0.69459 0.60631
 N2784 N 0.82626 0.71584 0.61756
 C2785 C 0.84697 0.72916 0.62578
 C2786 C 0.86897 0.71532 0.61930
 N2787 N 0.86074 0.69383 0.60715
 H2788 H 0.88892 0.72067 0.62247
 N2789 N 0.35156 1.18525 0.64080
 N2790 N 0.34094 1.20559 0.65216
 C2791 C 0.33847 1.22412 0.63422
 C2792 C 0.34765 1.21423 0.61109
 N2793 N 0.35584 1.18993 0.61623
 H2794 H 0.35068 1.22446 0.59325
 N2795 N 0.33947 0.70364 1.10320
 N2796 N 0.33256 0.72668 1.11208
 C2797 C 0.35317 0.73653 1.12428
 C2798 C 0.37308 0.71854 1.12277
 N2799 N 0.36371 0.69829 1.10924
 H2800 H 0.39266 0.72061 1.12958
 N2801 N 0.96289 0.76210 0.86734
 N2802 N 0.95181 0.74057 0.85898
 C2803 C 0.92763 0.74043 0.86877
 C2804 C 0.92420 0.76240 0.88331
 N2805 N 0.94664 0.77545 0.88208
 H2806 H 0.90681 0.76846 0.89332
 N2807 N 0.96112 0.25714 0.37155
 N2808 N 0.94926 0.23666 0.36186
 C2809 C 0.92535 0.23636 0.37226
 C2810 C 0.92291 0.25716 0.38865
 N2811 N 0.94565 0.26971 0.38772
 H2812 H 0.90583 0.26321 0.39917
 N2813 N 0.40648 0.79986 0.36309
 N2814 N 0.39060 0.78255 0.35325
 C2815 C 0.40121 0.75907 0.35737
 C2816 C 0.42439 0.76257 0.37003
 N2817 N 0.42692 0.78839 0.37313
 H2818 H 0.43681 0.74792 0.37824
 N2819 N 0.46664 0.25970 0.87983
 N2820 N 0.45653 0.23791 0.87096
 C2821 C 0.43236 0.23655 0.88062
 C2822 C 0.42797 0.25805 0.89573
 N2823 N 0.44983 0.27207 0.89480
 H2824 H 0.41025 0.26342 0.90555
 N2825 N 1.14756 0.77661 1.05767
 N2826 N 1.15535 0.75418 1.06716
 C2827 C 1.13942 0.74879 1.08694
 C2828 C 1.12157 0.76859 1.08928
 N2829 N 1.12731 0.78566 1.07061
 H2830 H 1.10639 0.77047 1.10352
 N2831 N 1.15945 0.28472 0.57231
 N2832 N 1.16767 0.26300 0.58296
 C2833 C 1.14975 0.25609 0.60048
 C2834 C 1.13019 0.27436 0.60025
 N2835 N 1.13694 0.29199 0.58231
 H2836 H 1.11274 0.27440 0.61177
 N2837 N 0.64885 0.78107 0.56094
 N2838 N 0.65572 0.75769 0.56875
 C2839 C 0.64101 0.75237 0.58943
 C2840 C 0.62488 0.77321 0.59410
 N2841 N 0.63032 0.79081 0.57581
 H2842 H 0.61064 0.77513 0.60925
 N2843 N 0.64764 0.27940 1.05767
 N2844 N 0.65532 0.25643 1.06587
 C2845 C 0.63933 0.24996 1.08524
 C2846 C 0.62157 0.26965 1.08871
 N2847 N 0.62741 0.28779 1.07108
 H2848 H 0.60631 0.27067 1.10294
 N2849 N 1.21588 1.16120 0.93454
 N2850 N 1.23880 1.16869 0.92592
 C2851 C 1.24814 1.14909 0.91145
 C2852 C 1.23029 1.12937 0.91138
 N2853 N 1.21036 1.13768 0.92600
 H2854 H 1.23191 1.11074 0.90194
 N2855 N 1.20535 0.66632 0.41372
 N2856 N 1.22566 0.67529 0.40098
 C2857 C 1.23563 0.65522 0.38756
 C2858 C 1.22084 0.63363 0.39248
 N2859 N 1.20204 0.64135 0.40890
 H2860 H 1.22371 0.61425 0.38496
 N2861 N 0.70766 1.16612 0.42944
 N2862 N 0.72971 1.17430 0.41932
 C2863 C 0.73823 1.15531 0.40360
 C2864 C 0.72078 1.13525 0.40435
 N2865 N 0.70188 1.14273 0.42068
 H2866 H 0.72211 1.11691 0.39430
 N2867 N 0.71520 0.66024 0.93654
 N2868 N 0.73775 0.66803 0.92727
 C2869 C 0.74450 0.65108 0.90872
 C2870 C 0.72537 0.63264 0.90686
 N2871 N 0.70731 0.63903 0.92458
 H2872 H 0.72490 0.61624 0.89393
 N2873 N 1.25246 0.95954 1.10204
 N2874 N 1.27493 0.94998 1.10958
 C2875 C 1.27427 0.92426 1.10508
 C2876 C 1.25068 0.91832 1.09435
 N2877 N 1.23767 0.94090 1.09278
 H2878 H 1.24339 0.89945 1.08901
 N2879 N 1.25198 0.45935 0.60266
 N2880 N 1.27218 0.44765 0.61289
 C2881 C 1.27108 0.42255 0.60584
 C2882 C 1.24949 0.41918 0.59080
 N2883 N 1.23802 0.44264 0.58942
 H2884 H 1.24159 0.40113 0.58380
 N2885 N 0.69572 0.88881 0.62072
 N2886 N 0.71132 0.87448 0.63480
 C2887 C 0.73169 0.88946 0.64078
 C2888 C 0.72807 0.91363 0.63002
 N2889 N 0.70541 0.91227 0.61767
 H2890 H 0.74127 0.92984 0.62968
 N2891 N 0.75527 0.46347 1.09792
 N2892 N 0.77782 0.45363 1.10492
 C2893 C 0.77665 0.42790 1.10063
 C2894 C 0.75269 0.42224 1.09063
 N2895 N 0.73995 0.44498 1.08924
 H2896 H 0.74496 0.40343 1.08570
 N2897 N 0.74841 1.02954 1.10672
 N2898 N 0.72753 1.04047 1.11691
 C2899 C 0.72776 1.06545 1.10961
 C2900 C 0.74935 1.06950 1.09448
 N2901 N 0.76179 1.04659 1.09315
 H2902 H 0.75605 1.08762 1.08652
 N2903 N 0.75671 0.53612 0.62539
 N2904 N 0.73640 0.54782 0.63583
 C2905 C 0.73203 0.56923 0.62188
 C2906 C 0.75025 0.57032 0.60250
 N2907 N 0.76546 0.54927 0.60537
 H2908 H 0.75277 0.58564 0.58863
 N2909 N 0.24749 1.03245 0.60564
 N2910 N 0.22575 1.04343 0.61387
 C2911 C 0.22792 1.06900 0.60922
 C2912 C 0.25159 1.07338 0.59784
 N2913 N 0.26322 1.05010 0.59587
 H2914 H 0.25981 1.09177 0.59221
 N2915 N 0.24834 0.53082 1.12219
 N2916 N 0.22718 0.54209 1.13145
 C2917 C 0.22669 0.56625 1.12180
 C2918 C 0.24808 0.56945 1.10633
 N2919 N 0.26114 0.54690 1.10701
 H2920 H 0.25409 0.58689 1.09655
 N2921 N 0.76916 0.92589 0.91521
 N2922 N 0.74463 0.92010 0.91150
 C2923 C 0.74347 0.89437 0.90737
 C2924 C 0.76833 0.88438 0.90880
 N2925 N 0.78374 0.90484 0.91361
 H2926 H 0.77478 0.86487 0.90449
 N2927 N 0.77195 0.41653 0.42033
 N2928 N 0.74875 0.41144 0.41115
 C2929 C 0.74952 0.38686 0.40252
 C2930 C 0.77391 0.37687 0.40691
 N2931 N 0.78731 0.39606 0.41811
 H2932 H 0.78187 0.35864 0.40017
 N2933 N 0.27535 0.91373 0.41849
 N2934 N 0.25257 0.90682 0.40949
 C2935 C 0.25456 0.88172 0.40270
 C2936 C 0.27942 0.87336 0.40780
 N2937 N 0.29176 0.89401 0.41767
 H2938 H 0.28842 0.85528 0.40203
 N2939 N 0.30328 0.34013 0.89471
 N2940 N 0.28397 0.32999 0.88165
 C2941 C 0.26928 0.34988 0.87356
 C2942 C 0.28025 0.37271 0.88203
 N2943 N 0.30146 0.36572 0.89522
 H2944 H 0.27318 0.39227 0.87946
   
