data_POSCAR
  _audit_creation_date              2014-09-24
  _audit_creation_method            'ToBaCCo'
  _symmetry_space_group_name_H-M    'P1'
  _symmetry_Int_Tables_number       1
  _symmetry_cell_setting            triclinic
  loop_
  _symmetry_equiv_pos_as_xyz
 x,y,z
_cell_length_a 77.3198
_cell_length_b 77.6974
_cell_length_c 77.7388
_cell_angle_alpha 89.867300
_cell_angle_beta 89.917700
_cell_angle_gamma 90.312500
loop_
  _atom_site_label
  _atom_site_type_symbol
  _atom_site_fract_x
  _atom_site_fract_y
  _atom_site_fract_z
N1 N 0.36566 0.32383 0.33126
 N2 N 0.36373 0.33626 0.31993
 C3 C 0.37583 0.33459 0.30754
 C4 C 0.38587 0.32036 0.31138
 C5 C 0.37903 0.31389 0.32651
 H6 H 0.37728 0.34313 0.29664
 H7 H 0.38345 0.30271 0.33352
 Cu8 Cu 0.34569 0.35353 0.32259
 Cu9 Cu 0.35077 0.32130 0.35132
 Cu10 Cu 0.32024 0.35300 0.35779
 N11 N 0.32842 0.37132 0.32666
 N12 N 0.31894 0.37124 0.34071
 C13 C 0.30802 0.38465 0.34031
 C14 C 0.31071 0.39365 0.32516
 C15 C 0.32374 0.38481 0.31678
 H16 H 0.29842 0.38725 0.35006
 H17 H 0.32920 0.38789 0.30433
 N18 N 0.32331 0.33347 0.37363
 N19 N 0.33455 0.32106 0.37090
 C20 C 0.33260 0.30895 0.38322
 C21 C 0.31954 0.31407 0.39424
 C22 C 0.31402 0.32968 0.38781
 H23 H 0.34000 0.29722 0.38400
 H24 H 0.30356 0.33738 0.39282
 H25 H 0.32960 0.33408 0.34152
 H26 H 0.34603 0.34727 0.35332
 N27 N 0.36915 0.82537 -0.16704
 N28 N 0.36757 0.83598 -0.18012
 C29 C 0.38096 0.83395 -0.19093
 C30 C 0.39153 0.82116 -0.18444
 C31 C 0.38364 0.81604 -0.16919
 H32 H 0.38247 0.84096 -0.20286
 H33 H 0.38788 0.80595 -0.16058
 Cu34 Cu 0.34778 0.85076 -0.18267
 Cu35 Cu 0.35155 0.82381 -0.14901
 Cu36 Cu 0.31595 0.85066 -0.15364
 N37 N 0.33173 0.86967 -0.18107
 N38 N 0.31903 0.86956 -0.16985
 C39 C 0.30898 0.88340 -0.17256
 C40 C 0.31582 0.89267 -0.18626
 C41 C 0.33036 0.88360 -0.19124
 H42 H 0.29730 0.88620 -0.16545
 H43 H 0.33898 0.88642 -0.20185
 N44 N 0.31839 0.83414 -0.13459
 N45 N 0.33207 0.82426 -0.13248
 C46 C 0.32963 0.81439 -0.11839
 C47 C 0.31364 0.81819 -0.11140
 C48 C 0.30691 0.83082 -0.12197
 H49 H 0.33855 0.80473 -0.11383
 H50 H 0.29454 0.83708 -0.12067
 H51 H 0.33126 0.83115 -0.16394
 H52 H 0.34236 0.84876 -0.15197
 N53 N 0.86492 0.32514 -0.16667
 N54 N 0.86306 0.33467 -0.18052
 C55 C 0.87570 0.33110 -0.19178
 C56 C 0.88615 0.31852 -0.18476
 C57 C 0.87893 0.31504 -0.16875
 H58 H 0.87703 0.33721 -0.20421
 H59 H 0.88340 0.30570 -0.15945
 Cu60 Cu 0.84432 0.35082 -0.18310
 Cu61 Cu 0.84851 0.32653 -0.14744
 Cu62 Cu 0.81644 0.35760 -0.15119
 N63 N 0.83042 0.37145 -0.18239
 N64 N 0.81944 0.37417 -0.16980
 C65 C 0.81076 0.38882 -0.17296
 C66 C 0.81664 0.39564 -0.18842
 C67 C 0.82923 0.38427 -0.19397
 H68 H 0.80060 0.39387 -0.16487
 H69 H 0.83668 0.38489 -0.20573
 N70 N 0.81847 0.34224 -0.13114
 N71 N 0.83042 0.33024 -0.12967
 C72 C 0.82752 0.32133 -0.11500
 C73 C 0.81319 0.32820 -0.10684
 C74 C 0.80785 0.34144 -0.11745
 H75 H 0.83502 0.31043 -0.11071
 H76 H 0.79667 0.34951 -0.11567
 H77 H 0.82781 0.33530 -0.16097
 H78 H 0.84248 0.35209 -0.15195
 N79 N 0.87018 0.82347 0.32912
 N80 N 0.86800 0.83375 0.31588
 C81 C 0.88084 0.83122 0.30447
 C82 C 0.89163 0.81860 0.31093
 C83 C 0.88452 0.81406 0.32665
 H84 H 0.88189 0.83773 0.29222
 H85 H 0.88898 0.80405 0.33523
 Cu86 Cu 0.84782 0.84835 0.31416
 Cu87 Cu 0.85289 0.82156 0.34719
 Cu88 Cu 0.82186 0.85369 0.34874
 N89 N 0.83196 0.86745 0.31582
 N90 N 0.82178 0.86971 0.32918
 C91 C 0.81210 0.88387 0.32645
 C92 C 0.81653 0.89080 0.31052
 C93 C 0.82925 0.88000 0.30425
 H94 H 0.80245 0.88867 0.33528
 H95 H 0.83605 0.88098 0.29215
 N96 N 0.82443 0.83590 0.36698
 N97 N 0.83647 0.82393 0.36630
 C98 C 0.83479 0.81341 0.37994
 C99 C 0.82093 0.81882 0.38974
 C100 C 0.81466 0.83316 0.38116
 H101 H 0.84277 0.80229 0.38221
 H102 H 0.80353 0.84072 0.38476
 H103 H 0.83105 0.83284 0.33601
 H104 H 0.84758 0.84763 0.34540
 N105 N 0.63174 0.67410 0.33399
 N106 N 0.63311 0.66183 0.32247
 C107 C 0.62064 0.66389 0.31053
 C108 C 0.61093 0.67818 0.31492
 C109 C 0.61832 0.68426 0.32990
 H110 H 0.61886 0.65571 0.29945
 H111 H 0.61447 0.69555 0.33703
 Cu112 Cu 0.65129 0.64458 0.32407
 Cu113 Cu 0.64808 0.67678 0.35278
 Cu114 Cu 0.68172 0.64769 0.35502
 N115 N 0.67045 0.62842 0.32551
 N116 N 0.68246 0.62994 0.33737
 C117 C 0.69440 0.61760 0.33508
 C118 C 0.68957 0.60773 0.32106
 C119 C 0.67429 0.61493 0.31535
 H120 H 0.70568 0.61589 0.34308
 H121 H 0.66674 0.61079 0.30440
 N122 N 0.67871 0.66650 0.37174
 N123 N 0.66583 0.67754 0.37085
 C124 C 0.66754 0.68916 0.38356
 C125 C 0.68219 0.68526 0.39295
 C126 C 0.68891 0.67078 0.38514
 H127 H 0.65888 0.69981 0.38565
 H128 H 0.70061 0.66413 0.38875
 H129 H 0.66863 0.66534 0.34010
 H130 H 0.65533 0.65118 0.35448
 N131 N 0.63108 0.17388 -0.16283
 N132 N 0.63038 0.16044 -0.17304
 C133 C 0.61743 0.16251 -0.18438
 C134 C 0.60950 0.17810 -0.18108
 C135 C 0.61847 0.18493 -0.16727
 H136 H 0.61423 0.15342 -0.19441
 H137 H 0.61630 0.19727 -0.16124
 Cu138 Cu 0.64676 0.14169 -0.17119
 Cu139 Cu 0.64907 0.17658 -0.14541
 Cu140 Cu 0.68241 0.14711 -0.14724
 N141 N 0.66666 0.12676 -0.17373
 N142 N 0.68075 0.12928 -0.16464
 C143 C 0.69264 0.11753 -0.16907
 C144 C 0.68561 0.10696 -0.18162
 C145 C 0.66905 0.11321 -0.18424
 H146 H 0.70536 0.11672 -0.16340
 H147 H 0.65954 0.10838 -0.19324
 N148 N 0.68171 0.16590 -0.13039
 N149 N 0.66881 0.17690 -0.12928
 C150 C 0.67204 0.18789 -0.11624
 C151 C 0.68777 0.18363 -0.10895
 C152 C 0.69348 0.16961 -0.11822
 H153 H 0.66373 0.19838 -0.11248
 H154 H 0.70528 0.16251 -0.11616
 H155 H 0.66639 0.16378 -0.16076
 H156 H 0.65620 0.15118 -0.14281
 N157 N 0.13107 0.67753 -0.16573
 N158 N 0.13147 0.66544 -0.17750
 C159 C 0.11821 0.66769 -0.18846
 C160 C 0.10897 0.68198 -0.18327
 C161 C 0.11750 0.68789 -0.16879
 H162 H 0.11564 0.65967 -0.19950
 H163 H 0.11419 0.69904 -0.16119
 Cu164 Cu 0.14950 0.64816 -0.17773
 Cu165 Cu 0.14839 0.67900 -0.14759
 Cu166 Cu 0.18057 0.64797 -0.14748
 N167 N 0.16798 0.63136 -0.17800
 N168 N 0.17990 0.63103 -0.16597
 C169 C 0.19107 0.61822 -0.16941
 C170 C 0.18593 0.61026 -0.18449
 C171 C 0.17122 0.61892 -0.18955
 H172 H 0.20235 0.61521 -0.16179
 H173 H 0.16348 0.61640 -0.20083
 N174 N 0.17902 0.66630 -0.12999
 N175 N 0.16698 0.67830 -0.13028
 C176 C 0.16984 0.68938 -0.11729
 C177 C 0.18436 0.68413 -0.10836
 C178 C 0.18978 0.66942 -0.11672
 H179 H 0.16198 0.70050 -0.11458
 H180 H 0.20102 0.66183 -0.11356
 H181 H 0.16823 0.66718 -0.16108
 H182 H 0.15444 0.65311 -0.14716
 N183 N 0.13243 0.17484 0.34053
 N184 N 0.13227 0.16335 0.32815
 C185 C 0.11912 0.16697 0.31732
 C186 C 0.11072 0.18153 0.32327
 C187 C 0.11953 0.18608 0.33806
 H188 H 0.11614 0.15987 0.30574
 H189 H 0.11706 0.19699 0.34626
 Cu190 Cu 0.14984 0.14535 0.32706
 Cu191 Cu 0.14996 0.17551 0.35837
 Cu192 Cu 0.18259 0.14555 0.35573
 N193 N 0.16877 0.12876 0.32575
 N194 N 0.18148 0.12919 0.33696
 C195 C 0.19303 0.11696 0.33308
 C196 C 0.18740 0.10830 0.31861
 C197 C 0.17188 0.11608 0.31431
 H198 H 0.20470 0.11459 0.34031
 H199 H 0.16368 0.11292 0.30350
 N200 N 0.18158 0.16304 0.37392
 N201 N 0.16889 0.17423 0.37520
 C202 C 0.17197 0.18460 0.38873
 C203 C 0.18742 0.17981 0.39621
 C204 C 0.19314 0.16606 0.38652
 H205 H 0.16390 0.19525 0.39257
 H206 H 0.20492 0.15889 0.38839
 H207 H 0.16882 0.16462 0.34315
 H208 H 0.15626 0.14976 0.35751
 N209 N 0.63147 0.32796 0.66505
 N210 N 0.63245 0.34071 0.67611
 C211 C 0.62059 0.33829 0.68857
 C212 C 0.61160 0.32321 0.68511
 C213 C 0.61881 0.31705 0.67003
 H214 H 0.61872 0.34690 0.69930
 H215 H 0.61532 0.30535 0.66332
 Cu216 Cu 0.64898 0.35947 0.67324
 Cu217 Cu 0.64710 0.32646 0.64531
 Cu218 Cu 0.68537 0.34839 0.65279
 N219 N 0.66913 0.37460 0.67297
 N220 N 0.68337 0.36999 0.66504
 C221 C 0.69574 0.38187 0.66774
 C222 C 0.68892 0.39473 0.67794
 C223 C 0.67194 0.38972 0.68099
 H224 H 0.70880 0.38090 0.66290
 H225 H 0.66257 0.39627 0.68894
 N226 N 0.68299 0.33033 0.63534
 N227 N 0.66828 0.32242 0.63181
 C228 C 0.67079 0.31174 0.61840
 C229 C 0.68795 0.31301 0.61336
 C230 C 0.69524 0.32493 0.62438
 H231 H 0.66091 0.30361 0.61277
 H232 H 0.70835 0.32982 0.62409
 H233 H 0.66449 0.33440 0.66264
 H234 H 0.66016 0.35042 0.64524
 N235 N 0.63724 0.81888 1.16688
 N236 N 0.63107 0.83319 1.17338
 C237 C 0.61645 0.82960 1.18213
 C238 C 0.61342 0.81205 1.18120
 C239 C 0.62688 0.80566 1.17138
 H240 H 0.60894 0.83894 1.18919
 H241 H 0.62915 0.79241 1.16787
 Cu242 Cu 0.64370 0.85472 1.17128
 Cu243 Cu 0.65862 0.81833 1.15373
 Cu244 Cu 0.67694 0.85787 1.14367
 N245 N 0.66090 0.87291 1.17327
 N246 N 0.67384 0.87432 1.16237
 C247 C 0.68381 0.88782 1.16693
 C248 C 0.67682 0.89513 1.18160
 C249 C 0.66224 0.88534 1.18522
 H250 H 0.69555 0.89171 1.16037
 H251 H 0.65334 0.88690 1.19584
 N252 N 0.68283 0.83660 1.13137
 N253 N 0.67627 0.82148 1.13569
 C254 C 0.68262 0.80941 1.12509
 C255 C 0.69375 0.81730 1.11353
 C256 C 0.69358 0.83456 1.11788
 H257 H 0.67892 0.79598 1.12544
 H258 H 0.70068 0.84487 1.11166
 H259 H 0.67041 0.84093 1.16215
 H260 H 0.65427 0.84250 1.14436
 N261 N 0.12990 0.32041 1.15741
 N262 N 0.12840 0.33283 1.16877
 C263 C 0.11567 0.32870 1.17994
 C264 C 0.10889 0.31283 1.17535
 C265 C 0.11824 0.30800 1.16096
 H266 H 0.11187 0.33648 1.19081
 H267 H 0.11690 0.29622 1.15371
 Cu268 Cu 0.14366 0.35288 1.16848
 Cu269 Cu 0.14727 0.32071 1.13927
 Cu270 Cu 0.17820 0.35260 1.14204
 N271 N 0.16286 0.36903 1.17131
 N272 N 0.17639 0.36846 1.16110
 C273 C 0.18793 0.38046 1.16595
 C274 C 0.18135 0.38913 1.17997
 C275 C 0.16532 0.38160 1.18302
 H276 H 0.20016 0.38278 1.15959
 H277 H 0.15630 0.38486 1.19313
 N278 N 0.17793 0.33554 1.12353
 N279 N 0.16606 0.32336 1.12228
 C280 C 0.16970 0.31350 1.10849
 C281 C 0.18461 0.31980 1.10079
 C282 C 0.18941 0.33380 1.11066
 H283 H 0.16232 0.30233 1.10455
 H284 H 0.20057 0.34201 1.10879
 H285 H 0.16418 0.33358 1.15505
 H286 H 0.15204 0.34675 1.13885
 N287 N 0.13320 0.81799 0.66357
 N288 N 0.13301 0.83105 0.67428
 C289 C 0.12024 0.82849 0.68588
 C290 C 0.11224 0.81292 0.68225
 C291 C 0.12079 0.80668 0.66799
 H292 H 0.11715 0.83710 0.69634
 H293 H 0.11814 0.79482 0.66123
 Cu294 Cu 0.14988 0.84971 0.67201
 Cu295 Cu 0.14956 0.81627 0.64482
 Cu296 Cu 0.17951 0.84889 0.64000
 N297 N 0.16704 0.86799 0.66909
 N298 N 0.17837 0.86777 0.65645
 C299 C 0.18890 0.88156 0.65783
 C300 C 0.18392 0.89092 0.67213
 C301 C 0.17001 0.88193 0.67894
 H302 H 0.19970 0.88422 0.64937
 H303 H 0.16290 0.88513 0.69047
 N304 N 0.17658 0.83032 0.62289
 N305 N 0.16483 0.81809 0.62478
 C306 C 0.16555 0.80738 0.61127
 C307 C 0.17850 0.81297 0.60034
 C308 C 0.18532 0.82752 0.60812
 H309 H 0.15756 0.79604 0.60976
 H310 H 0.19591 0.83537 0.60340
 H311 H 0.16924 0.83086 0.65623
 H312 H 0.15381 0.84276 0.64198
 N313 N 0.36645 0.68372 0.66762
 N314 N 0.36928 0.66976 0.67673
 C315 C 0.38352 0.67217 0.68639
 C316 C 0.38986 0.68856 0.68317
 C317 C 0.37867 0.69554 0.67119
 H318 H 0.38864 0.66290 0.69543
 H319 H 0.37907 0.70832 0.66568
 Cu320 Cu 0.35308 0.65059 0.67600
 Cu321 Cu 0.34651 0.68586 0.65259
 Cu322 Cu 0.32858 0.64658 0.64068
 N323 N 0.33753 0.63116 0.67306
 N324 N 0.32778 0.62967 0.65929
 C325 C 0.31781 0.61547 0.66082
 C326 C 0.32147 0.60777 0.67648
 C327 C 0.33407 0.61804 0.68385
 H328 H 0.30839 0.61138 0.65139
 H329 H 0.33990 0.61634 0.69637
 N330 N 0.32528 0.66800 0.62742
 N331 N 0.33164 0.68297 0.63240
 C332 C 0.32682 0.69523 0.62121
 C333 C 0.31685 0.68765 0.60854
 C334 C 0.31614 0.67037 0.61287
 H335 H 0.33051 0.70862 0.62222
 H336 H 0.30927 0.66032 0.60606
 H337 H 0.33061 0.66469 0.65911
 H338 H 0.35080 0.66095 0.64651
 N339 N 0.36712 0.17709 1.15757
 N340 N 0.36773 0.16466 1.16906
 C341 C 0.38034 0.16828 1.18050
 C342 C 0.38790 0.18385 1.17595
 C343 C 0.37918 0.18902 1.16132
 H344 H 0.38364 0.16037 1.19146
 H345 H 0.38141 0.20059 1.15388
 Cu346 Cu 0.35163 0.14521 1.16816
 Cu347 Cu 0.35074 0.17727 1.13860
 Cu348 Cu 0.32166 0.14349 1.13687
 N349 N 0.33423 0.12686 1.16739
 N350 N 0.32290 0.12628 1.15483
 C351 C 0.31215 0.11289 1.15725
 C352 C 0.31684 0.10450 1.17221
 C353 C 0.33094 0.11373 1.17836
 H354 H 0.30136 0.10987 1.14897
 H355 H 0.33801 0.11124 1.19010
 N356 N 0.32218 0.16204 1.11978
 N357 N 0.33316 0.17506 1.12038
 C358 C 0.32957 0.18601 1.10739
 C359 C 0.31558 0.17957 1.09832
 C360 C 0.31131 0.16434 1.10651
 H361 H 0.33626 0.19803 1.10497
 H362 H 0.30083 0.15570 1.10328
 H363 H 0.33212 0.16332 1.15154
 H364 H 0.34746 0.15108 1.13759
 N365 N 0.87387 0.66965 1.16601
 N366 N 0.87198 0.65683 1.17694
 C367 C 0.88427 0.65794 1.18911
 C368 C 0.89449 0.67224 1.18564
 C369 C 0.88750 0.67935 1.17085
 H370 H 0.88547 0.64911 1.19979
 H371 H 0.89189 0.69083 1.16421
 Cu372 Cu 0.85366 0.63979 1.17440
 Cu373 Cu 0.85823 0.67254 1.14651
 Cu374 Cu 0.81827 0.65341 1.15390
 N375 N 0.83264 0.62596 1.17381
 N376 N 0.81883 0.63137 1.16564
 C377 C 0.80589 0.61994 1.16786
 C378 C 0.81193 0.60659 1.17797
 C379 C 0.82895 0.61086 1.18156
 H380 H 0.79296 0.62157 1.16286
 H381 H 0.83784 0.60370 1.18954
 N382 N 0.82205 0.67170 1.13677
 N383 N 0.83736 0.67843 1.13325
 C384 C 0.83572 0.68956 1.12002
 C385 C 0.81852 0.68985 1.11511
 C386 C 0.81027 0.67835 1.12600
 H387 H 0.84622 0.69693 1.11442
 H388 H 0.79679 0.67460 1.12572
 H389 H 0.84002 0.66601 1.16376
 H390 H 0.84322 0.64978 1.14641
 N391 N 0.86622 0.17363 0.66965
 N392 N 0.86567 0.15979 0.67941
 C393 C 0.87859 0.16062 0.69100
 C394 C 0.88769 0.17583 0.68834
 C395 C 0.87948 0.18371 0.67465
 H396 H 0.88100 0.15101 0.70078
 H397 H 0.88263 0.19609 0.66904
 Cu398 Cu 0.84755 0.14253 0.67641
 Cu399 Cu 0.84874 0.17830 0.65226
 Cu400 Cu 0.82416 0.14289 0.64009
 N401 N 0.82913 0.12577 0.67252
 N402 N 0.82013 0.12596 0.65819
 C403 C 0.80858 0.11296 0.65844
 C404 C 0.81038 0.10410 0.67382
 C405 C 0.82355 0.11261 0.68244
 H406 H 0.79951 0.11032 0.64821
 H407 H 0.82865 0.10943 0.69499
 N408 N 0.82514 0.16442 0.62666
 N409 N 0.83414 0.17804 0.63150
 C410 C 0.83130 0.19097 0.62031
 C411 C 0.81986 0.18522 0.60786
 C412 C 0.81628 0.16832 0.61229
 H413 H 0.83699 0.20367 0.62130
 H414 H 0.80738 0.15970 0.60585
 H415 H 0.82903 0.16070 0.65864
 H416 H 0.84847 0.15297 0.64675
 N417 N 0.32526 0.37123 0.66514
 N418 N 0.33709 0.37232 0.67721
 C419 C 0.33377 0.38613 0.68709
 C420 C 0.31897 0.39396 0.68100
 C421 C 0.31393 0.38418 0.66702
 H422 H 0.34119 0.38993 0.69825
 H423 H 0.30269 0.38609 0.65900
 Cu424 Cu 0.35504 0.35501 0.67935
 Cu425 Cu 0.32472 0.35252 0.64855
 Cu426 Cu 0.35405 0.31947 0.65489
 N427 N 0.37326 0.33788 0.68060
 N428 N 0.37290 0.32405 0.67090
 C429 C 0.38653 0.31407 0.67481
 C430 C 0.39590 0.32204 0.68772
 C431 C 0.38711 0.33716 0.69104
 H432 H 0.38915 0.30169 0.66906
 H433 H 0.39036 0.34676 0.70054
 N434 N 0.33686 0.31942 0.63615
 N435 N 0.32616 0.33232 0.63341
 C436 C 0.31630 0.32869 0.61963
 C437 C 0.32087 0.31270 0.61346
 C438 C 0.33398 0.30717 0.62422
 H439 H 0.30619 0.33686 0.61465
 H440 H 0.34094 0.29518 0.62339
 H441 H 0.33491 0.33507 0.66540
 H442 H 0.35059 0.34520 0.65008
 N443 N 0.32341 0.86901 0.16044
 N444 N 0.33478 0.87130 0.17279
 C445 C 0.32993 0.88483 0.18244
 C446 C 0.31470 0.89134 0.17583
 C447 C 0.31094 0.88097 0.16183
 H448 H 0.33678 0.88948 0.19363
 H449 H 0.29994 0.88195 0.15334
 Cu450 Cu 0.35456 0.85613 0.17560
 Cu451 Cu 0.32548 0.85056 0.14362
 Cu452 Cu 0.35971 0.82253 0.14880
 N453 N 0.37311 0.83951 0.17872
 N454 N 0.37501 0.82646 0.16819
 C455 C 0.38842 0.81684 0.17343
 C456 C 0.39534 0.82419 0.18807
 C457 C 0.38529 0.83860 0.19109
 H458 H 0.39272 0.80518 0.16721
 H459 H 0.38658 0.84759 0.20160
 N460 N 0.34296 0.82052 0.12991
 N461 N 0.32984 0.83112 0.12790
 C462 C 0.32061 0.82611 0.11406
 C463 C 0.32830 0.81168 0.10706
 C464 C 0.34244 0.80853 0.11745
 H465 H 0.30903 0.83236 0.10947
 H466 H 0.35158 0.79815 0.11620
 H467 H 0.33834 0.83412 0.16003
 H468 H 0.35188 0.84782 0.14543
 N469 N 0.82752 0.36867 0.16811
 N470 N 0.83971 0.36766 0.17986
 C471 C 0.83710 0.37994 0.19178
 C472 C 0.82253 0.38917 0.18725
 C473 C 0.81685 0.38172 0.17211
 H474 H 0.84511 0.38191 0.20298
 H475 H 0.80551 0.38527 0.16480
 Cu476 Cu 0.85735 0.34989 0.17897
 Cu477 Cu 0.82585 0.35233 0.14907
 Cu478 Cu 0.85935 0.32306 0.14541
 N479 N 0.87486 0.33196 0.17773
 N480 N 0.87529 0.32140 0.16457
 C481 C 0.88813 0.31003 0.16678
 C482 C 0.89626 0.31358 0.18222
 C483 C 0.88754 0.32764 0.18882
 H484 H 0.89123 0.29994 0.15777
 H485 H 0.89011 0.33403 0.20090
 N486 N 0.83961 0.32357 0.12961
 N487 N 0.82681 0.33467 0.13077
 C488 C 0.81517 0.33116 0.11831
 C489 C 0.82088 0.31703 0.10911
 C490 C 0.83640 0.31262 0.11663
 H491 H 0.80320 0.33801 0.11634
 H492 H 0.84471 0.30207 0.11304
 H493 H 0.83921 0.33231 0.16045
 H494 H 0.85174 0.34883 0.14808
 N495 N 0.81992 0.86786 0.66738
 N496 N 0.82916 0.86595 0.68143
 C497 C 0.82436 0.87770 0.69310
 C498 C 0.81136 0.88760 0.68606
 C499 C 0.80892 0.88108 0.66965
 H500 H 0.83002 0.87901 0.70574
 H501 H 0.79951 0.88533 0.66030
 Cu502 Cu 0.84670 0.84848 0.68346
 Cu503 Cu 0.82218 0.85207 0.64795
 Cu504 Cu 0.85420 0.82093 0.65149
 N505 N 0.86825 0.83600 0.68201
 N506 N 0.87116 0.82494 0.66960
 C507 C 0.88633 0.81703 0.67257
 C508 C 0.89333 0.82364 0.68758
 C509 C 0.88149 0.83570 0.69318
 H510 H 0.89163 0.80688 0.66469
 H511 H 0.88202 0.84315 0.70489
 N512 N 0.83861 0.82265 0.63153
 N513 N 0.82657 0.83456 0.63001
 C514 C 0.81761 0.83165 0.61543
 C515 C 0.82432 0.81726 0.60741
 C516 C 0.83768 0.81196 0.61797
 H517 H 0.80656 0.83903 0.61124
 H518 H 0.84581 0.80083 0.61624
 H519 H 0.83154 0.83158 0.66146
 H520 H 0.84806 0.84657 0.65231
 N521 N 0.67371 0.63368 0.66365
 N522 N 0.66142 0.63470 0.67533
 C523 C 0.66359 0.62225 0.68712
 C524 C 0.67796 0.61273 0.68264
 C525 C 0.68406 0.62032 0.66761
 H526 H 0.65547 0.62052 0.69831
 H527 H 0.69533 0.61658 0.66028
 Cu528 Cu 0.64436 0.65283 0.67455
 Cu529 Cu 0.67506 0.65010 0.64438
 Cu530 Cu 0.65147 0.68764 0.65105
 N531 N 0.62724 0.67098 0.67366
 N532 N 0.63032 0.68479 0.66435
 C533 C 0.61782 0.69640 0.66715
 C534 C 0.60621 0.68948 0.67887
 C535 C 0.61257 0.67329 0.68269
 H536 H 0.61769 0.70915 0.66158
 H537 H 0.60735 0.66432 0.69203
 N538 N 0.66913 0.68533 0.63306
 N539 N 0.67795 0.67114 0.63006
 C540 C 0.68842 0.67393 0.61639
 C541 C 0.68595 0.69065 0.61059
 C542 C 0.67361 0.69739 0.62149
 H543 H 0.69716 0.66453 0.61103
 H544 H 0.66796 0.71005 0.62095
 H545 H 0.66799 0.66859 0.66090
 H546 H 0.65086 0.66204 0.64535
 N547 N 0.67424 0.13121 0.16681
 N548 N 0.66143 0.13197 0.17791
 C549 C 0.66336 0.11939 0.18970
 C550 C 0.67813 0.11021 0.18574
 C551 C 0.68466 0.11805 0.17109
 H552 H 0.65471 0.11715 0.20041
 H553 H 0.69630 0.11456 0.16424
 Cu554 Cu 0.64384 0.14970 0.17610
 Cu555 Cu 0.67684 0.14781 0.14805
 Cu556 Cu 0.64538 0.17936 0.14474
 N557 N 0.62623 0.16743 0.17425
 N558 N 0.62703 0.17907 0.16197
 C559 C 0.61397 0.19027 0.16396
 C560 C 0.60444 0.18542 0.17828
 C561 C 0.61256 0.17084 0.18446
 H562 H 0.61173 0.20122 0.15569
 H563 H 0.60898 0.16358 0.19580
 N564 N 0.66497 0.17756 0.12859
 N565 N 0.67712 0.16577 0.13001
 C566 C 0.68910 0.16849 0.11767
 C567 C 0.68420 0.18263 0.10800
 C568 C 0.66883 0.18798 0.11524
 H569 H 0.70059 0.16083 0.11593
 H570 H 0.66127 0.19896 0.11129
 H571 H 0.66396 0.16776 0.15986
 H572 H 0.65090 0.15338 0.14571
 N573 N 0.17467 0.62621 0.16072
 N574 N 0.16310 0.62686 0.17309
 C575 C 0.16587 0.61385 0.18420
 C576 C 0.17998 0.60455 0.17851
 C577 C 0.18520 0.61275 0.16349
 H578 H 0.15837 0.61150 0.19574
 H579 H 0.19599 0.60944 0.15530
 Cu580 Cu 0.14572 0.64490 0.17371
 Cu581 Cu 0.17540 0.64329 0.14226
 Cu582 Cu 0.15802 0.68208 0.15537
 N583 N 0.13233 0.66579 0.17668
 N584 N 0.13746 0.68037 0.16970
 C585 C 0.12656 0.69296 0.17431
 C586 C 0.11376 0.68588 0.18465
 C587 C 0.11783 0.66857 0.18587
 H588 H 0.12791 0.70623 0.17032
 H589 H 0.11092 0.65882 0.19312
 N590 N 0.17398 0.67994 0.13570
 N591 N 0.18004 0.66508 0.13021
 C592 C 0.18959 0.66781 0.11595
 C593 C 0.18953 0.68526 0.11230
 C594 C 0.17949 0.69253 0.12510
 H595 H 0.19610 0.65785 0.10876
 H596 H 0.17605 0.70592 0.12643
 H597 H 0.17109 0.65968 0.16190
 H598 H 0.15293 0.65829 0.14616
 N599 N 0.17504 0.13142 0.67117
 N600 N 0.16266 0.13200 0.68272
 C601 C 0.16295 0.11761 0.69230
 C602 C 0.17639 0.10743 0.68657
 C603 C 0.18381 0.11661 0.67312
 H604 H 0.15439 0.11514 0.70304
 H605 H 0.19507 0.11304 0.66568
 Cu606 Cu 0.14830 0.15209 0.68522
 Cu607 Cu 0.17933 0.15073 0.65567
 Cu608 Cu 0.14568 0.18039 0.65263
 N609 N 0.12925 0.16783 0.68338
 N610 N 0.12796 0.17900 0.67074
 C611 C 0.11343 0.18830 0.67311
 C612 C 0.10522 0.18240 0.68793
 C613 C 0.11571 0.16942 0.69404
 H614 H 0.10919 0.19861 0.66477
 H615 H 0.11386 0.16179 0.70553
 N616 N 0.16518 0.17941 0.63595
 N617 N 0.17798 0.16830 0.63744
 C618 C 0.18956 0.17117 0.62484
 C619 C 0.18392 0.18478 0.61489
 C620 C 0.16836 0.18965 0.62224
 H621 H 0.20128 0.16386 0.62308
 H622 H 0.16023 0.20016 0.61813
 H623 H 0.16576 0.17111 0.66678
 H624 H 0.15312 0.15483 0.65450
 N625 N 0.32201 0.62666 0.33120
 N626 N 0.33331 0.62750 0.31857
 C627 C 0.32964 0.61519 0.30697
 C628 C 0.31528 0.60612 0.31263
 C629 C 0.31081 0.61369 0.32809
 H630 H 0.33690 0.61299 0.29531
 H631 H 0.30003 0.61021 0.33629
 Cu632 Cu 0.35174 0.64453 0.31848
 Cu633 Cu 0.32227 0.64303 0.35022
 Cu634 Cu 0.35523 0.67368 0.34996
 N635 N 0.37012 0.66163 0.31840
 N636 N 0.37166 0.67280 0.33098
 C637 C 0.38535 0.68312 0.32780
 C638 C 0.39267 0.67824 0.31234
 C639 C 0.38269 0.66453 0.30674
 H640 H 0.38946 0.69366 0.33593
 H641 H 0.38441 0.65725 0.29505
 N642 N 0.33734 0.67246 0.36801
 N643 N 0.32486 0.66079 0.36822
 C644 C 0.31434 0.66392 0.38168
 C645 C 0.32041 0.67831 0.39025
 C646 C 0.33505 0.68333 0.38127
 H647 H 0.30275 0.65667 0.38472
 H648 H 0.34321 0.69433 0.38391
 H649 H 0.33438 0.66286 0.33707
 H650 H 0.34845 0.64792 0.34950
 N651 N 0.32201 0.12930 0.82597
 N652 N 0.33378 0.13073 0.81385
 C653 C 0.33223 0.11742 0.80293
 C654 C 0.31867 0.10709 0.80848
 C655 C 0.31253 0.11500 0.82319
 H656 H 0.34010 0.11570 0.79157
 H657 H 0.30154 0.11103 0.83089
 Cu658 Cu 0.34908 0.15052 0.81270
 Cu659 Cu 0.31887 0.14713 0.84318
 Cu660 Cu 0.35263 0.17661 0.84712
 N661 N 0.36851 0.16602 0.81548
 N662 N 0.37011 0.17619 0.82887
 C663 C 0.38462 0.18575 0.82698
 C664 C 0.39247 0.18125 0.81158
 C665 C 0.38186 0.16863 0.80471
 H666 H 0.38895 0.19550 0.83592
 H667 H 0.38351 0.16195 0.79266
 N668 N 0.33341 0.17478 0.86394
 N669 N 0.32066 0.16353 0.86231
 C670 C 0.30923 0.16578 0.87514
 C671 C 0.31491 0.17921 0.88535
 C672 C 0.33030 0.18461 0.87789
 H673 H 0.29742 0.15846 0.87661
 H674 H 0.33835 0.19521 0.88208
 H675 H 0.33228 0.16814 0.83275
 H676 H 0.34520 0.15117 0.84370
 N677 N 0.82305 0.63523 0.83238
 N678 N 0.83631 0.63591 0.82180
 C679 C 0.83558 0.62243 0.81100
 C680 C 0.82100 0.61279 0.81498
 C681 C 0.81334 0.62131 0.82862
 H682 H 0.84476 0.62016 0.80076
 H683 H 0.80141 0.61785 0.83509
 Cu684 Cu 0.85271 0.65488 0.82221
 Cu685 Cu 0.81911 0.65312 0.84947
 Cu686 Cu 0.85635 0.67579 0.85980
 N687 N 0.87198 0.67021 0.82682
 N688 N 0.87350 0.67821 0.84161
 C689 C 0.88798 0.68788 0.84142
 C690 C 0.89593 0.68585 0.82558
 C691 C 0.88540 0.67454 0.81664
 H692 H 0.89211 0.69604 0.85192
 H693 H 0.88729 0.66992 0.80364
 N694 N 0.83540 0.67585 0.87423
 N695 N 0.82099 0.66768 0.87008
 C696 C 0.80870 0.67132 0.88181
 C697 C 0.81579 0.68236 0.89390
 C698 C 0.83271 0.68488 0.88871
 H699 H 0.79555 0.66649 0.88136
 H700 H 0.84218 0.69326 0.89467
 H701 H 0.83668 0.67281 0.84254
 H702 H 0.84501 0.65258 0.85247
 N703 N 0.82494 0.12956 0.33186
 N704 N 0.83678 0.13196 0.31993
 C705 C 0.83570 0.11912 0.30836
 C706 C 0.82243 0.10812 0.31335
 C707 C 0.81596 0.11514 0.32834
 H708 H 0.84367 0.11815 0.29698
 H709 H 0.80502 0.11047 0.33572
 Cu710 Cu 0.85179 0.15216 0.32008
 Cu711 Cu 0.82071 0.14642 0.34974
 Cu712 Cu 0.84992 0.18005 0.35313
 N713 N 0.87029 0.16862 0.32453
 N714 N 0.86956 0.17947 0.33745
 C715 C 0.88348 0.18995 0.33689
 C716 C 0.89351 0.18538 0.32285
 C717 C 0.88477 0.17174 0.31537
 H718 H 0.88583 0.20036 0.34579
 H719 H 0.88842 0.16496 0.30379
 N720 N 0.83123 0.17599 0.37002
 N721 N 0.82022 0.16301 0.36879
 C722 C 0.80886 0.16380 0.38189
 C723 C 0.81286 0.17800 0.39184
 C724 C 0.82713 0.18541 0.38396
 H725 H 0.79823 0.15492 0.38378
 H726 H 0.83382 0.19697 0.38796
 H727 H 0.83144 0.16804 0.33845
 H728 H 0.84643 0.15397 0.35080
 N729 N 0.67024 0.36938 0.33298
 N730 N 0.65729 0.36797 0.32212
 C731 C 0.65863 0.38050 0.31017
 C732 C 0.67325 0.39025 0.31372
 C733 C 0.68026 0.38284 0.32831
 H734 H 0.64981 0.38219 0.29955
 H735 H 0.69196 0.38677 0.33485
 Cu736 Cu 0.64036 0.34947 0.32448
 Cu737 Cu 0.67353 0.35330 0.35200
 Cu738 Cu 0.64310 0.32056 0.35639
 N739 N 0.62345 0.33095 0.32678
 N740 N 0.62466 0.31966 0.33933
 C741 C 0.61204 0.30779 0.33764
 C742 C 0.60235 0.31187 0.32324
 C743 C 0.60991 0.32669 0.31672
 H744 H 0.61030 0.29685 0.34610
 H745 H 0.60610 0.33354 0.30522
 N746 N 0.66272 0.32360 0.37232
 N747 N 0.67453 0.33580 0.37042
 C748 C 0.68673 0.33384 0.38263
 C749 C 0.68232 0.31979 0.39273
 C750 C 0.66701 0.31368 0.38588
 H751 H 0.69803 0.34196 0.38402
 H752 H 0.65985 0.30250 0.39021
 H753 H 0.66120 0.33257 0.34077
 H754 H 0.64783 0.34672 0.35477
 N755 N 0.67946 0.86659 0.83541
 N756 N 0.66626 0.86668 0.82475
 C757 C 0.66799 0.88019 0.81393
 C758 C 0.68317 0.88885 0.81793
 C759 C 0.69004 0.87986 0.83167
 H760 H 0.65920 0.88321 0.80355
 H761 H 0.70198 0.88258 0.83838
 Cu762 Cu 0.64878 0.84842 0.82548
 Cu763 Cu 0.68273 0.84878 0.85269
 Cu764 Cu 0.64916 0.81981 0.85810
 N765 N 0.63081 0.83080 0.82792
 N766 N 0.63109 0.81996 0.84092
 C767 C 0.61784 0.80883 0.83953
 C768 C 0.60865 0.81278 0.82484
 C769 C 0.61719 0.82688 0.81778
 H770 H 0.61537 0.79841 0.84842
 H771 H 0.61395 0.83345 0.80595
 N772 N 0.66867 0.82147 0.87410
 N773 N 0.68159 0.83243 0.87208
 C774 C 0.69318 0.82989 0.88476
 C775 C 0.68733 0.81652 0.89506
 C776 C 0.67174 0.81155 0.88794
 H777 H 0.70521 0.83691 0.88618
 H778 H 0.66335 0.80130 0.89237
 H779 H 0.66778 0.82931 0.84184
 H780 H 0.65659 0.84553 0.85562
 N781 N 0.17779 0.37185 0.82674
 N782 N 0.16665 0.37043 0.81409
 C783 C 0.16906 0.38357 0.80299
 C784 C 0.18246 0.39375 0.80911
 C785 C 0.18761 0.38597 0.82425
 H786 H 0.16186 0.38534 0.79122
 H787 H 0.19825 0.38986 0.83240
 Cu788 Cu 0.15085 0.35097 0.81281
 Cu789 Cu 0.18021 0.35411 0.84412
 Cu790 Cu 0.14641 0.32477 0.84737
 N791 N 0.13124 0.33555 0.81540
 N792 N 0.12933 0.32542 0.82885
 C793 C 0.11480 0.31595 0.82684
 C794 C 0.10728 0.32041 0.81129
 C795 C 0.11807 0.33293 0.80444
 H796 H 0.11026 0.30625 0.83579
 H797 H 0.11663 0.33957 0.79231
 N798 N 0.16527 0.32637 0.86453
 N799 N 0.17799 0.33769 0.86318
 C800 C 0.18913 0.33543 0.87621
 C801 C 0.18331 0.32191 0.88629
 C802 C 0.16813 0.31644 0.87851
 H803 H 0.20090 0.34276 0.87788
 H804 H 0.16005 0.30577 0.88253
 H805 H 0.16698 0.33319 0.83328
 H806 H 0.15379 0.35017 0.84393
 N807 N 0.18152 0.86591 0.32857
 N808 N 0.16719 0.86981 0.32042
 C809 C 0.16971 0.88451 0.31150
 C810 C 0.18656 0.89003 0.31423
 C811 C 0.19365 0.87787 0.32513
 H812 H 0.16019 0.89050 0.30329
 H813 H 0.20672 0.87744 0.33000
 Cu814 Cu 0.14722 0.85453 0.32150
 Cu815 Cu 0.18391 0.84503 0.34202
 Cu816 Cu 0.14536 0.82475 0.35283
 N817 N 0.13002 0.83620 0.32124
 N818 N 0.12899 0.82479 0.33372
 C819 C 0.11582 0.81387 0.33045
 C820 C 0.10837 0.81856 0.31496
 C821 C 0.11771 0.83283 0.30949
 H822 H 0.11222 0.80307 0.33853
 H823 H 0.11578 0.84021 0.29786
 N824 N 0.16710 0.82099 0.36548
 N825 N 0.18187 0.82814 0.36072
 C826 C 0.19453 0.82269 0.37117
 C827 C 0.18744 0.81149 0.38312
 C828 C 0.16998 0.81075 0.37919
 H829 H 0.20784 0.82690 0.37035
 H830 H 0.16018 0.80313 0.38566
 H831 H 0.16261 0.83034 0.33430
 H832 H 0.15909 0.84813 0.34999
 C833 C 0.25635 1.05407 0.23981
 C834 C 0.24141 1.05429 0.24928
 C835 C 0.23719 1.03727 0.25280
 N836 N 0.24906 1.02671 0.24573
 C837 C 0.26080 1.03692 0.23774
 C838 C 0.22300 1.03197 0.26307
 C839 C 0.21856 1.01454 0.26634
 C840 C 0.20732 1.00927 0.27925
 C841 C 0.20683 0.99162 0.27885
 C842 C 0.21773 0.98648 0.26565
 N843 N 0.22462 1.00057 0.25788
 C844 C 0.22108 0.96905 0.26150
 C845 C 0.23436 0.96346 0.25030
 C846 C 0.23734 0.94640 0.24605
 C847 C 0.25206 0.94615 0.23625
 C848 C 0.25758 0.96309 0.23464
 N849 N 0.24669 0.97362 0.24320
 C850 C 0.27261 0.96836 0.22555
 C851 C 0.27806 0.98572 0.22351
 C852 C 0.29145 0.99093 0.21277
 C853 C 0.29223 1.00857 0.21356
 C854 C 0.27927 1.01377 0.22473
 N855 N 0.27093 0.99973 0.23100
 C856 C 0.27527 1.03122 0.22818
 H857 H 0.26309 1.06530 0.23490
 H858 H 0.23447 1.06571 0.25312
 H859 H 0.26143 0.99973 0.24036
 H860 H 0.20050 1.01727 0.28837
 H861 H 0.19953 0.98350 0.28759
 H862 H 0.22984 0.93520 0.24981
 H863 H 0.25805 0.93473 0.23108
 H864 H 0.30110 1.01665 0.20634
 H865 H 0.23207 1.00069 0.24676
 H866 H 0.29957 0.98291 0.20480
 C867 C 0.25846 0.44925 0.76599
 C868 C 0.27113 0.44925 0.75365
 C869 C 0.27281 0.46610 0.74794
 N870 N 0.26153 0.47634 0.75632
 C871 C 0.25283 0.46610 0.76745
 C872 C 0.28405 0.47151 0.73462
 C873 C 0.28645 0.48886 0.72964
 C874 C 0.29484 0.49412 0.71474
 C875 C 0.29511 0.51182 0.71492
 C876 C 0.28687 0.51691 0.72993
 N877 N 0.28180 0.50281 0.73889
 C878 C 0.28523 0.53418 0.73540
 C879 C 0.27470 0.53949 0.74930
 C880 C 0.27367 0.55623 0.75536
 C881 C 0.26143 0.55618 0.76813
 C882 C 0.25528 0.53945 0.76941
 N883 N 0.26331 0.52930 0.75781
 C884 C 0.24170 0.53413 0.78041
 C885 C 0.23597 0.51691 0.78212
 C886 C 0.22066 0.51195 0.79007
 C887 C 0.21995 0.49428 0.78943
 C888 C 0.23487 0.48891 0.78115
 N889 N 0.24465 0.50278 0.77691
 C890 C 0.23933 0.47151 0.77840
 H891 H 0.25388 0.43809 0.77306
 H892 H 0.27822 0.43810 0.74930
 H893 H 0.25726 0.50252 0.77236
 H894 H 0.30030 0.48605 0.70481
 H895 H 0.30091 0.51996 0.70516
 H896 H 0.28079 0.56742 0.75091
 H897 H 0.25735 0.56728 0.77545
 H898 H 0.20961 0.48630 0.79450
 H899 H 0.27723 0.50266 0.75143
 H900 H 0.21096 0.52021 0.79571
 C901 C 0.74097 -0.05259 0.24259
 C902 C 0.75088 -0.05302 0.25717
 C903 C 0.75441 -0.03606 0.26152
 N904 N 0.74682 -0.02532 0.25012
 C905 C 0.73859 -0.03538 0.23852
 C906 C 0.76508 -0.03099 0.27543
 C907 C 0.76936 -0.01370 0.27951
 C908 C 0.78204 -0.00901 0.29123
 C909 C 0.78309 0.00863 0.29097
 C910 C 0.77100 0.01436 0.27911
 N911 N 0.76244 0.00066 0.27244
 C912 C 0.76858 0.03191 0.27475
 C913 C 0.75826 0.03790 0.26096
 C914 C 0.75595 0.05511 0.25683
 C915 C 0.74551 0.05555 0.24262
 C916 C 0.74169 0.03860 0.23851
 N917 N 0.74952 0.02787 0.24974
 C918 C 0.73075 0.03350 0.22484
 C919 C 0.72664 0.01620 0.22068
 C920 C 0.71410 0.01144 0.20884
 C921 C 0.71354 -0.00623 0.20869
 C922 C 0.72572 -0.01188 0.22048
 N923 N 0.73388 0.00188 0.22750
 C924 C 0.72866 -0.02943 0.22445
 H925 H 0.73607 -0.06373 0.23580
 H926 H 0.75511 -0.06456 0.26371
 H927 H 0.74454 0.00147 0.23554
 H928 H 0.79006 -0.01742 0.29891
 H929 H 0.79204 0.01633 0.29843
 H930 H 0.76122 0.06625 0.26336
 H931 H 0.74118 0.06708 0.23611
 H932 H 0.70486 -0.01401 0.20101
 H933 H 0.75184 0.00114 0.26434
 H934 H 0.70595 0.01981 0.20126
 C935 C 0.73852 0.45173 0.74599
 C936 C 0.75074 0.45156 0.75873
 C937 C 0.75541 0.46856 0.76165
 N938 N 0.74650 0.47904 0.75101
 C939 C 0.73620 0.46881 0.74135
 C940 C 0.76719 0.47396 0.77451
 C941 C 0.77089 0.49135 0.77865
 C942 C 0.78020 0.49654 0.79299
 C943 C 0.78063 0.51422 0.79275
 C944 C 0.77169 0.51943 0.77820
 N945 N 0.76606 0.50539 0.76954
 C946 C 0.76914 0.53686 0.77345
 C947 C 0.75877 0.54249 0.75958
 C948 C 0.75629 0.55960 0.75513
 C949 C 0.74501 0.55971 0.74156
 C950 C 0.74091 0.54266 0.73812
 N951 N 0.74938 0.53222 0.74912
 C952 C 0.72974 0.53718 0.72480
 C953 C 0.72546 0.51980 0.72121
 C954 C 0.71605 0.51450 0.70698
 C955 C 0.71461 0.49690 0.70797
 C956 C 0.72316 0.49182 0.72280
 N957 N 0.72950 0.50589 0.73093
 C958 C 0.72497 0.47446 0.72813
 H959 H 0.73212 0.44048 0.74077
 H960 H 0.75541 0.44020 0.76528
 H961 H 0.73501 0.50609 0.74305
 H962 H 0.78592 0.48847 0.80279
 H963 H 0.78676 0.52230 0.80231
 H964 H 0.76193 0.57088 0.76110
 H965 H 0.74038 0.57108 0.73498
 H966 H 0.70820 0.48876 0.69865
 H967 H 0.76039 0.50532 0.75750
 H968 H 0.71087 0.52247 0.69680
 C969 C 0.24171 0.44429 0.26482
 C970 C 0.22786 0.44427 0.25384
 C971 C 0.22547 0.46119 0.24865
 N972 N 0.23742 0.47151 0.25611
 C973 C 0.24730 0.46122 0.26608
 C974 C 0.21315 0.46653 0.23635
 C975 C 0.21019 0.48393 0.23184
 C976 C 0.20110 0.48924 0.21743
 C977 C 0.20106 0.50694 0.21763
 C978 C 0.21012 0.51200 0.23217
 N979 N 0.21542 0.49787 0.24088
 C980 C 0.21259 0.52931 0.23730
 C981 C 0.22390 0.53453 0.25060
 C982 C 0.22540 0.55124 0.25665
 C983 C 0.23835 0.55117 0.26867
 C984 C 0.24446 0.53444 0.26950
 N985 N 0.23566 0.52432 0.25838
 C986 C 0.25870 0.52917 0.27956
 C987 C 0.26473 0.51204 0.28053
 C988 C 0.28058 0.50728 0.28735
 C989 C 0.28152 0.48965 0.28612
 C990 C 0.26618 0.48410 0.27868
 N991 N 0.25595 0.49782 0.27551
 C992 C 0.26183 0.46666 0.27568
 H993 H 0.24709 0.43309 0.27111
 H994 H 0.22050 0.43304 0.25000
 H995 H 0.24310 0.49741 0.27176
 H996 H 0.19519 0.48121 0.20769
 H997 H 0.19501 0.51513 0.20813
 H998 H 0.21809 0.56240 0.25268
 H999 H 0.24297 0.56226 0.27574
 H1000 H 0.29226 0.48182 0.29029
 H1001 H 0.22086 0.49767 0.25307
 H1002 H 0.29048 0.51563 0.29260
 C1003 C 0.74340 1.05166 0.73362
 C1004 C 0.72990 1.05184 0.74505
 C1005 C 0.72707 1.03491 0.75005
 N1006 N 0.73842 1.02442 0.74208
 C1007 C 0.74834 1.03463 0.73194
 C1008 C 0.71491 1.02966 0.76263
 C1009 C 0.71142 1.01229 0.76690
 C1010 C 0.70263 1.00695 0.78154
 C1011 C 0.70187 0.98927 0.78099
 C1012 C 0.71015 0.98428 0.76599
 N1013 N 0.71573 0.99841 0.75736
 C1014 C 0.71192 0.96703 0.76052
 C1015 C 0.72264 0.96184 0.74676
 C1016 C 0.72307 0.94532 0.74009
 C1017 C 0.73584 0.94524 0.72785
 C1018 C 0.74292 0.96168 0.72753
 N1019 N 0.73483 0.97180 0.73912
 C1020 C 0.75740 0.96664 0.71751
 C1021 C 0.76400 0.98364 0.71672
 C1022 C 0.78009 0.98813 0.71011
 C1023 C 0.78156 1.00573 0.71146
 C1024 C 0.76635 1.01152 0.71886
 N1025 N 0.75564 0.99800 0.72184
 C1026 C 0.76250 1.02901 0.72196
 H1027 H 0.74902 1.06283 0.72737
 H1028 H 0.72308 1.06318 0.74934
 H1029 H 0.74277 0.99867 0.72556
 H1030 H 0.69744 1.01495 0.79168
 H1031 H 0.69591 0.98104 0.79060
 H1032 H 0.71509 0.93442 0.74376
 H1033 H 0.73966 0.93424 0.72025
 H1034 H 0.79261 1.01337 0.70746
 H1035 H 0.72078 0.99870 0.74499
 H1036 H 0.78982 0.97961 0.70494
 C1037 C 0.73768 0.44332 0.25186
 C1038 C 0.74969 0.44324 0.23886
 C1039 C 0.75541 0.46007 0.23691
 N1040 N 0.74730 0.47039 0.24831
 C1041 C 0.73633 0.46023 0.25737
 C1042 C 0.76851 0.46536 0.22529
 C1043 C 0.77398 0.48264 0.22306
 C1044 C 0.78874 0.48760 0.21416
 C1045 C 0.78944 0.50527 0.21466
 C1046 C 0.77509 0.51071 0.22389
 N1047 N 0.76562 0.49681 0.22872
 C1048 C 0.77073 0.52817 0.22677
 C1049 C 0.75710 0.53369 0.23760
 C1050 C 0.75185 0.55064 0.23935
 C1051 C 0.73897 0.55071 0.25148
 C1052 C 0.73686 0.53384 0.25694
 N1053 N 0.74803 0.52349 0.24851
 C1054 C 0.72534 0.52853 0.27009
 C1055 C 0.72294 0.51121 0.27531
 C1056 C 0.71441 0.50616 0.29020
 C1057 C 0.71467 0.48847 0.29059
 C1058 C 0.72332 0.48313 0.27590
 N1059 N 0.72810 0.49710 0.26656
 C1060 C 0.72581 0.46570 0.27120
 H1061 H 0.73083 0.43215 0.25676
 H1062 H 0.75388 0.43201 0.23181
 H1063 H 0.73302 0.49699 0.25417
 H1064 H 0.79806 0.47936 0.20790
 H1065 H 0.79935 0.51317 0.20871
 H1066 H 0.75683 0.56189 0.23274
 H1067 H 0.73212 0.56198 0.25591
 H1068 H 0.70900 0.48046 0.30053
 H1069 H 0.75335 0.49702 0.23405
 H1070 H 0.70863 0.51437 0.29984
 C1071 C 0.24500 -0.05601 0.76079
 C1072 C 0.23429 -0.05626 0.74679
 C1073 C 0.23192 -0.03926 0.74187
 N1074 N 0.24086 -0.02869 0.75244
 C1075 C 0.24890 -0.03887 0.76401
 C1076 C 0.22141 -0.03395 0.72797
 C1077 C 0.21932 -0.01665 0.72258
 C1078 C 0.20726 -0.01135 0.71052
 C1079 C 0.20878 0.00622 0.70916
 C1080 C 0.22173 0.01127 0.72045
 N1081 N 0.22833 -0.00280 0.72831
 C1082 C 0.22667 0.02861 0.72330
 C1083 C 0.23778 0.03432 0.73659
 C1084 C 0.24147 0.05148 0.73998
 C1085 C 0.25175 0.05177 0.75429
 C1086 C 0.25415 0.03478 0.75919
 N1087 N 0.24560 0.02417 0.74834
 C1088 C 0.26439 0.02950 0.77329
 C1089 C 0.26694 0.01217 0.77828
 C1090 C 0.27939 0.00690 0.78995
 C1091 C 0.27829 -0.01071 0.79096
 C1092 C 0.26517 -0.01580 0.77988
 N1093 N 0.25809 -0.00173 0.77246
 C1094 C 0.26041 -0.03317 0.77695
 H1095 H 0.24959 -0.06723 0.76765
 H1096 H 0.22896 -0.06770 0.74085
 H1097 H 0.24714 -0.00151 0.76480
 H1098 H 0.19805 -0.01927 0.70362
 H1099 H 0.20097 0.01437 0.70100
 H1100 H 0.23700 0.06270 0.73304
 H1101 H 0.25680 0.06323 0.76041
 H1102 H 0.28645 -0.01884 0.79879
 H1103 H 0.23904 -0.00303 0.73629
 H1104 H 0.28861 0.01486 0.79679
 C1105 C 0.24337 0.25651 1.04628
 C1106 C 0.25849 0.24744 1.04617
 C1107 C 0.26266 0.24459 1.02906
 N1108 N 0.25059 0.25172 1.01875
 C1109 C 0.23877 0.25902 1.02922
 C1110 C 0.27702 0.23488 1.02348
 C1111 C 0.28122 0.23152 1.00607
 C1112 C 0.29360 0.21975 1.00090
 C1113 C 0.29332 0.21940 0.98326
 C1114 C 0.28076 0.23096 0.97803
 N1115 N 0.27370 0.23859 0.99201
 C1116 C 0.27602 0.23366 0.96063
 C1117 C 0.26136 0.24304 0.95520
 C1118 C 0.25677 0.24555 0.93814
 C1119 C 0.24167 0.25468 0.93824
 C1120 C 0.23749 0.25751 0.95536
 N1121 N 0.24955 0.25037 0.96567
 C1122 C 0.22308 0.26715 0.96095
 C1123 C 0.21890 0.27052 0.97836
 C1124 C 0.20639 0.28216 0.98354
 C1125 C 0.20666 0.28248 1.00118
 C1126 C 0.21931 0.27102 1.00641
 N1127 N 0.22647 0.26350 0.99241
 C1128 C 0.22404 0.26828 1.02380
 H1129 H 0.23656 0.26074 1.05767
 H1130 H 0.26554 0.24330 1.05746
 H1131 H 0.23525 0.25348 0.99246
 H1132 H 0.30175 0.21187 1.00900
 H1133 H 0.30119 0.21119 0.97524
 H1134 H 0.26357 0.24125 0.92677
 H1135 H 0.23464 0.25885 0.92696
 H1136 H 0.19869 0.29058 1.00923
 H1137 H 0.26499 0.24867 0.99195
 H1138 H 0.19816 0.28996 0.97545
 C1139 C 0.23656 0.74769 0.54823
 C1140 C 0.24731 0.73374 0.54888
 C1141 C 0.25314 0.73102 0.53223
 N1142 N 0.24626 0.74279 0.52144
 C1143 C 0.23604 0.75292 0.53118
 C1144 C 0.26554 0.71860 0.52748
 C1145 C 0.27007 0.71513 0.51022
 C1146 C 0.28479 0.70638 0.50512
 C1147 C 0.28424 0.70531 0.48748
 C1148 C 0.26920 0.71345 0.48228
 N1149 N 0.26056 0.71925 0.49623
 C1150 C 0.26344 0.71449 0.46507
 C1151 C 0.24984 0.72522 0.45956
 C1152 C 0.24279 0.72511 0.44317
 C1153 C 0.23093 0.73815 0.44267
 C1154 C 0.23126 0.74593 0.45870
 N1155 N 0.24286 0.73802 0.46898
 C1156 C 0.22182 0.76079 0.46316
 C1157 C 0.22180 0.76804 0.47982
 C1158 C 0.21609 0.78447 0.48373
 C1159 C 0.21771 0.78641 0.50123
 C1160 C 0.22437 0.77111 0.50753
 N1161 N 0.22669 0.75995 0.49442
 C1162 C 0.22700 0.76745 0.52512
 H1163 H 0.22993 0.75336 0.55908
 H1164 H 0.25056 0.72654 0.56034
 H1165 H 0.22961 0.74697 0.49559
 H1166 H 0.29493 0.70133 0.51326
 H1167 H 0.29380 0.69916 0.47942
 H1168 H 0.24598 0.71663 0.43262
 H1169 H 0.22316 0.74166 0.43165
 H1170 H 0.21425 0.79775 0.50850
 H1171 H 0.24807 0.72411 0.49638
 H1172 H 0.21126 0.79409 0.47488
 C1173 C 0.26022 0.73131 0.05294
 C1174 C 0.27156 0.74492 0.05273
 C1175 C 0.27198 0.75101 0.03596
 N1176 N 0.26111 0.74170 0.02598
 C1177 C 0.25391 0.72962 0.03633
 C1178 C 0.28128 0.76574 0.03048
 C1179 C 0.28332 0.77057 0.01304
 C1180 C 0.29043 0.78604 0.00747
 C1181 C 0.29097 0.78541 -0.01020
 C1182 C 0.28416 0.76957 -0.01497
 N1183 N 0.27974 0.76054 -0.00073
 C1184 C 0.28277 0.76372 -0.03211
 C1185 C 0.27270 0.74937 -0.03716
 C1186 C 0.27189 0.74298 -0.05378
 C1187 C 0.25994 0.72988 -0.05358
 C1188 C 0.25388 0.72864 -0.03683
 N1189 N 0.26161 0.74063 -0.02684
 C1190 C 0.24060 0.71732 -0.03137
 C1191 C 0.23560 0.71509 -0.01399
 C1192 C 0.22068 0.70664 -0.00867
 C1193 C 0.22072 0.70681 0.00902
 C1194 C 0.23571 0.71529 0.01405
 N1195 N 0.24478 0.72015 -0.00006
 C1196 C 0.24082 0.71788 0.03134
 H1197 H 0.25687 0.72367 0.06413
 H1198 H 0.27856 0.74984 0.06372
 H1199 H 0.25728 0.72510 -0.00015
 H1200 H 0.29493 0.79665 0.01530
 H1201 H 0.29584 0.79547 -0.01859
 H1202 H 0.27900 0.74743 -0.06495
 H1203 H 0.25603 0.72226 -0.06456
 H1204 H 0.21077 0.70135 0.01722
 H1205 H 0.27620 0.74764 -0.00038
 H1206 H 0.21075 0.70097 -0.01671
 C1207 C 0.23431 0.25404 0.45090
 C1208 C 0.24733 0.26608 0.45078
 C1209 C 0.25324 0.26738 0.46756
 N1210 N 0.24432 0.25646 0.47789
 C1211 C 0.23264 0.24839 0.46776
 C1212 C 0.26710 0.27805 0.47285
 C1213 C 0.27225 0.28014 0.49017
 C1214 C 0.28758 0.28788 0.49532
 C1215 C 0.28749 0.28800 0.51301
 C1216 C 0.27208 0.28037 0.51820
 N1217 N 0.26281 0.27575 0.50419
 C1218 C 0.26671 0.27863 0.53552
 C1219 C 0.25246 0.26850 0.54095
 C1220 C 0.24620 0.26790 0.55767
 C1221 C 0.23287 0.25620 0.55778
 C1222 C 0.23140 0.25002 0.54113
 N1223 N 0.24346 0.25747 0.53090
 C1224 C 0.21962 0.23706 0.53595
 C1225 C 0.21738 0.23172 0.51871
 C1226 C 0.20853 0.21697 0.51378
 C1227 C 0.20896 0.21648 0.49610
 C1228 C 0.21804 0.23096 0.49068
 N1229 N 0.22296 0.24027 0.50455
 C1230 C 0.22095 0.23545 0.47326
 H1231 H 0.22692 0.24992 0.43982
 H1232 H 0.25195 0.27304 0.43959
 H1233 H 0.22826 0.25255 0.50429
 H1234 H 0.29779 0.29295 0.48718
 H1235 H 0.29761 0.29320 0.52112
 H1236 H 0.25079 0.27510 0.56868
 H1237 H 0.22519 0.25260 0.56889
 H1238 H 0.20324 0.20656 0.48814
 H1239 H 0.25006 0.27160 0.50417
 H1240 H 0.20244 0.20749 0.52205
 C1241 C 0.76915 0.77835 1.05480
 C1242 C 0.78129 0.76558 1.05503
 C1243 C 0.78096 0.75799 1.03892
 N1244 N 0.76907 0.76573 1.02884
 C1245 C 0.76185 0.77820 1.03853
 C1246 C 0.79050 0.74326 1.03428
 C1247 C 0.79112 0.73669 1.01735
 C1248 C 0.79700 0.72044 1.01301
 C1249 C 0.79593 0.71917 0.99540
 C1250 C 0.78939 0.73467 0.98947
 N1251 N 0.78661 0.74533 1.00292
 C1252 C 0.78691 0.73881 0.97193
 C1253 C 0.77703 0.75293 0.96621
 C1254 C 0.77588 0.75833 0.94924
 C1255 C 0.76441 0.77171 0.94896
 C1256 C 0.75896 0.77409 0.96578
 N1257 N 0.76660 0.76253 0.97629
 C1258 C 0.74616 0.78591 0.97089
 C1259 C 0.74147 0.78888 0.98817
 C1260 C 0.72648 0.79709 0.99337
 C1261 C 0.72688 0.79774 1.01104
 C1262 C 0.74221 0.79006 1.01615
 N1263 N 0.75109 0.78484 1.00210
 C1264 C 0.74783 0.78857 1.03338
 H1265 H 0.76595 0.78671 1.06545
 H1266 H 0.78929 0.76214 1.06592
 H1267 H 0.76370 0.78030 1.00190
 H1268 H 0.80154 0.71047 1.02161
 H1269 H 0.79951 0.70807 0.98784
 H1270 H 0.78251 0.75309 0.93817
 H1271 H 0.76039 0.77874 0.93763
 H1272 H 0.71700 0.80325 1.01917
 H1273 H 0.78354 0.75830 1.00215
 H1274 H 0.71624 0.80200 0.98528
 C1275 C 0.73244 0.24230 0.55238
 C1276 C 0.74596 0.23096 0.55193
 C1277 C 0.75316 0.23223 0.53564
 N1278 N 0.74455 0.24399 0.52615
 C1279 C 0.73184 0.25012 0.53635
 C1280 C 0.76804 0.22331 0.53018
 C1281 C 0.77419 0.22351 0.51306
 C1282 C 0.79032 0.21774 0.50793
 C1283 C 0.79089 0.21916 0.49029
 C1284 C 0.77509 0.22577 0.48514
 N1285 N 0.76497 0.22828 0.49909
 C1286 C 0.76996 0.22811 0.46785
 C1287 C 0.75513 0.23739 0.46287
 C1288 C 0.74883 0.23836 0.44620
 C1289 C 0.73502 0.24936 0.44661
 C1290 C 0.73338 0.25480 0.46350
 N1291 N 0.74574 0.24755 0.47339
 C1292 C 0.72131 0.26706 0.46928
 C1293 C 0.71880 0.27120 0.48679
 C1294 C 0.71029 0.28572 0.49262
 C1295 C 0.71010 0.28477 0.51029
 C1296 C 0.71839 0.26961 0.51476
 N1297 N 0.72357 0.26137 0.50034
 C1298 C 0.72042 0.26351 0.53180
 H1299 H 0.72405 0.24456 0.56330
 H1300 H 0.75008 0.22280 0.56244
 H1301 H 0.72843 0.24894 0.49971
 H1302 H 0.80056 0.21288 0.51604
 H1303 H 0.80165 0.21553 0.48219
 H1304 H 0.75374 0.23191 0.43489
 H1305 H 0.72717 0.25302 0.43570
 H1306 H 0.70452 0.29421 0.51884
 H1307 H 0.75186 0.23108 0.49893
 H1308 H 0.70488 0.29601 0.48493
 C1309 C 0.73686 0.25561 -0.05310
 C1310 C 0.75045 0.26700 -0.05288
 C1311 C 0.75568 0.26839 -0.03589
 N1312 N 0.74586 0.25806 -0.02576
 C1313 C 0.73427 0.25030 -0.03624
 C1314 C 0.76984 0.27848 -0.03024
 C1315 C 0.77387 0.28148 -0.01274
 C1316 C 0.78880 0.28962 -0.00704
 C1317 C 0.78755 0.29072 0.01059
 C1318 C 0.77191 0.28316 0.01520
 N1319 N 0.76358 0.27778 0.00088
 C1320 C 0.76560 0.28192 0.03225
 C1321 C 0.75159 0.27128 0.03734
 C1322 C 0.74511 0.27026 0.05396
 C1323 C 0.73246 0.25783 0.05382
 C1324 C 0.73156 0.25169 0.03712
 N1325 N 0.74336 0.25983 0.02711
 C1326 C 0.72049 0.23823 0.03167
 C1327 C 0.71837 0.23318 0.01432
 C1328 C 0.70956 0.21850 0.00909
 C1329 C 0.70988 0.21843 -0.00860
 C1330 C 0.71892 0.23304 -0.01372
 N1331 N 0.72386 0.24206 0.00032
 C1332 C 0.72199 0.23778 -0.03105
 H1333 H 0.72979 0.25159 -0.06442
 H1334 H 0.75589 0.27348 -0.06400
 H1335 H 0.72911 0.25436 0.00026
 H1336 H 0.79946 0.29438 -0.01477
 H1337 H 0.79709 0.29642 0.01904
 H1338 H 0.74921 0.27755 0.06509
 H1339 H 0.72485 0.25372 0.06480
 H1340 H 0.70418 0.20866 -0.01675
 H1341 H 0.75090 0.27345 0.00034
 H1342 H 0.70351 0.20883 0.01717
 C1343 C 0.74752 0.74517 0.44531
 C1344 C 0.75664 0.76032 0.44502
 C1345 C 0.75932 0.76501 0.46202
 N1346 N 0.75203 0.75322 0.47264
 C1347 C 0.74481 0.74106 0.46247
 C1348 C 0.76881 0.77975 0.46723
 C1349 C 0.77241 0.78426 0.48453
 C1350 C 0.78362 0.79740 0.48932
 C1351 C 0.78464 0.79706 0.50695
 C1352 C 0.77403 0.78373 0.51257
 N1353 N 0.76632 0.77625 0.49882
 C1354 C 0.77238 0.77861 0.53002
 C1355 C 0.76353 0.76365 0.53578
 C1356 C 0.76233 0.75858 0.55286
 C1357 C 0.75300 0.74357 0.55314
 C1358 C 0.74861 0.73993 0.53623
 N1359 N 0.75513 0.75220 0.52566
 C1360 C 0.73797 0.72596 0.53114
 C1361 C 0.73373 0.72200 0.51384
 C1362 C 0.72106 0.71023 0.50908
 C1363 C 0.72034 0.71038 0.49144
 C1364 C 0.73250 0.72231 0.48580
 N1365 N 0.74086 0.72911 0.49953
 C1366 C 0.73523 0.72661 0.46828
 H1367 H 0.74332 0.73803 0.43411
 H1368 H 0.76089 0.76706 0.43355
 H1369 H 0.75154 0.73723 0.49909
 H1370 H 0.79073 0.80607 0.48096
 H1371 H 0.79270 0.80542 0.51471
 H1372 H 0.76757 0.76503 0.56404
 H1373 H 0.74972 0.73626 0.56456
 H1374 H 0.71151 0.70284 0.48367
 H1375 H 0.75695 0.76672 0.49920
 H1376 H 0.71287 0.70255 0.51743
 C1377 C 0.94963 0.24173 0.25937
 C1378 C 0.94967 0.25640 0.24958
 C1379 C 0.96685 0.26027 0.24604
 N1380 N 0.97725 0.24845 0.25342
 C1381 C 0.96678 0.23708 0.26158
 C1382 C 0.97239 0.27416 0.23557
 C1383 C 0.98987 0.27798 0.23151
 C1384 C 0.99494 0.28982 0.21909
 C1385 C 1.01266 0.28941 0.21834
 C1386 C 1.01806 0.27733 0.23034
 N1387 N 1.00408 0.27066 0.23856
 C1388 C 1.03559 0.27274 0.23298
 C1389 C 1.04113 0.25847 0.24286
 C1390 C 1.05829 0.25403 0.24538
 C1391 C 1.05824 0.23933 0.25514
 C1392 C 1.04106 0.23524 0.25838
 N1393 N 1.03065 0.24696 0.25082
 C1394 C 1.03550 0.22117 0.26865
 C1395 C 1.01799 0.21718 0.27251
 C1396 C 1.01286 0.20494 0.28453
 C1397 C 0.99512 0.20537 0.28529
 C1398 C 0.98979 0.21788 0.27372
 N1399 N 1.00380 0.22475 0.26572
 C1400 C 0.97230 0.22269 0.27129
 H1401 H 0.93822 0.23523 0.26425
 H1402 H 0.93831 0.26334 0.24544
 H1403 H 1.00364 0.23339 0.25557
 H1404 H 0.98671 0.29771 0.21108
 H1405 H 1.02063 0.29690 0.20962
 H1406 H 1.06970 0.26068 0.24068
 H1407 H 1.06962 0.23251 0.25946
 H1408 H 0.98710 0.19761 0.29372
 H1409 H 1.00428 0.26244 0.24906
 H1410 H 1.02105 0.19677 0.29229
 C1411 C 0.55873 0.25648 0.74564
 C1412 C 0.55856 0.24661 0.76027
 C1413 C 0.54134 0.24402 0.76462
 N1414 N 0.53104 0.25206 0.75314
 C1415 C 0.54161 0.25971 0.74151
 C1416 C 0.53562 0.23389 0.77870
 C1417 C 0.51804 0.23078 0.78301
 C1418 C 0.51262 0.21864 0.79500
 C1419 C 0.49486 0.21880 0.79502
 C1420 C 0.48981 0.23107 0.78308
 N1421 N 0.50405 0.23859 0.77609
 C1422 C 0.47234 0.23452 0.77880
 C1423 C 0.46699 0.24501 0.76489
 C1424 C 0.44986 0.24829 0.76078
 C1425 C 0.45003 0.25815 0.74616
 C1426 C 0.46726 0.26069 0.74180
 N1427 N 0.47757 0.25267 0.75329
 C1428 C 0.47297 0.27061 0.72757
 C1429 C 0.49052 0.27373 0.72325
 C1430 C 0.49593 0.28552 0.71092
 C1431 C 0.51369 0.28534 0.71089
 C1432 C 0.51875 0.27341 0.72318
 N1433 N 0.50452 0.26617 0.73044
 C1434 C 0.53623 0.26989 0.72739
 H1435 H 0.57019 0.26079 0.73885
 H1436 H 0.56987 0.24179 0.76686
 H1437 H 0.50435 0.25592 0.73897
 H1438 H 0.52061 0.21020 0.80268
 H1439 H 0.48663 0.21050 0.80271
 H1440 H 0.43838 0.24398 0.76755
 H1441 H 0.43872 0.26292 0.73955
 H1442 H 0.52192 0.29335 0.70290
 H1443 H 0.50422 0.24908 0.76784
 H1444 H 0.48792 0.29368 0.70297
 C1445 C -0.05869 0.23819 0.75106
 C1446 C -0.05853 0.24812 0.76559
 C1447 C -0.04139 0.25246 0.76870
 N1448 N -0.03112 0.24536 0.75660
 C1449 C -0.04165 0.23667 0.74573
 C1450 C -0.03584 0.26374 0.78189
 C1451 C -0.01835 0.26826 0.78513
 C1452 C -0.01328 0.28150 0.79600
 C1453 C 0.00444 0.28242 0.79527
 C1454 C 0.00983 0.26976 0.78396
 N1455 N -0.00414 0.26093 0.77809
 C1456 C 0.02732 0.26703 0.77927
 C1457 C 0.03270 0.25678 0.76524
 C1458 C 0.04983 0.25377 0.76091
 C1459 C 0.04966 0.24421 0.74615
 C1460 C 0.03243 0.24153 0.74192
 N1461 N 0.02212 0.24925 0.75363
 C1462 C 0.02676 0.23174 0.72764
 C1463 C 0.00926 0.22768 0.72395
 C1464 C 0.00408 0.21622 0.71128
 C1465 C -0.01362 0.21498 0.71225
 C1466 C -0.01888 0.22572 0.72548
 N1467 N -0.00485 0.23364 0.73232
 C1468 C -0.03630 0.22753 0.73091
 H1469 H -0.07013 0.23287 0.74503
 H1470 H -0.06981 0.25193 0.77288
 H1471 H -0.00497 0.24318 0.74157
 H1472 H -0.02150 0.28991 0.80343
 H1473 H 0.01241 0.29170 0.80201
 H1474 H 0.06132 0.25802 0.76766
 H1475 H 0.06098 0.23964 0.73939
 H1476 H -0.02166 0.20677 0.70433
 H1477 H -0.00389 0.24990 0.77060
 H1478 H 0.01223 0.20916 0.70246
 C1479 C 0.44076 0.23659 0.24757
 C1480 C 0.44061 0.25044 0.25843
 C1481 C 0.45771 0.25532 0.26086
 N1482 N 0.46826 0.24486 0.25182
 C1483 C 0.45796 0.23339 0.24367
 C1484 C 0.46313 0.26885 0.27180
 C1485 C 0.48059 0.27372 0.27471
 C1486 C 0.48576 0.28577 0.28684
 C1487 C 0.50351 0.28642 0.28637
 C1488 C 0.50882 0.27476 0.27398
 N1489 N 0.49473 0.26736 0.26666
 C1490 C 0.52637 0.27106 0.27026
 C1491 C 0.53208 0.25746 0.25962
 C1492 C 0.54930 0.25357 0.25661
 C1493 C 0.54947 0.23940 0.24616
 C1494 C 0.53234 0.23510 0.24298
 N1495 N 0.52176 0.24616 0.25124
 C1496 C 0.52693 0.22151 0.23212
 C1497 C 0.50945 0.21726 0.22852
 C1498 C 0.50434 0.20608 0.21559
 C1499 C 0.48659 0.20578 0.21563
 C1500 C 0.48122 0.21675 0.22862
 N1501 N 0.49527 0.22345 0.23664
 C1502 C 0.46364 0.22030 0.23240
 H1503 H 0.42946 0.22964 0.24311
 H1504 H 0.42918 0.25619 0.26399
 H1505 H 0.49522 0.23087 0.24770
 H1506 H 0.47762 0.29314 0.29540
 H1507 H 0.51158 0.29433 0.29455
 H1508 H 0.56063 0.26019 0.26148
 H1509 H 0.56094 0.23306 0.24139
 H1510 H 0.47855 0.19853 0.20682
 H1511 H 0.49476 0.25916 0.25621
 H1512 H 0.51254 0.19912 0.20674
 C1513 C 0.94777 0.74820 0.75960
 C1514 C 0.94789 0.76081 0.74726
 C1515 C 0.96508 0.76379 0.74306
 N1516 N 0.97544 0.75328 0.75229
 C1517 C 0.96488 0.74380 0.76249
 C1518 C 0.97078 0.77534 0.73017
 C1519 C 0.98832 0.77944 0.72705
 C1520 C 0.99434 0.78828 0.71271
 C1521 C 1.01192 0.79007 0.71467
 C1522 C 1.01618 0.78236 0.73021
 N1523 N 1.00167 0.77612 0.73777
 C1524 C 1.03310 0.78163 0.73705
 C1525 C 1.03793 0.77140 0.75129
 C1526 C 1.05430 0.77134 0.75854
 C1527 C 1.05418 0.75881 0.77097
 C1528 C 1.03772 0.75163 0.77097
 N1529 N 1.02785 0.75930 0.75886
 C1530 C 1.03260 0.73727 0.78101
 C1531 C 1.01565 0.73031 0.78116
 C1532 C 1.01109 0.71465 0.78854
 C1533 C 0.99352 0.71277 0.78648
 C1534 C 0.98779 0.72734 0.77793
 N1535 N 1.00132 0.73804 0.77492
 C1536 C 0.97032 0.73062 0.77378
 H1537 H 0.93635 0.74281 0.76566
 H1538 H 0.93659 0.76698 0.74189
 H1539 H 1.00050 0.75060 0.77049
 H1540 H 0.98684 0.79294 0.70192
 H1541 H 1.02058 0.79636 0.70565
 H1542 H 1.06531 0.77926 0.75500
 H1543 H 1.06513 0.75518 0.77880
 H1544 H 0.98585 0.70190 0.79080
 H1545 H 1.00070 0.77137 0.75021
 H1546 H 1.01950 0.70550 0.79482
 C1547 C 0.55606 0.76465 0.25306
 C1548 C 0.55615 0.75243 0.26581
 C1549 C 0.53952 0.74576 0.26671
 N1550 N 0.52934 0.75331 0.25478
 C1551 C 0.53940 0.76493 0.24645
 C1552 C 0.53427 0.73239 0.27793
 C1553 C 0.51687 0.72727 0.28036
 C1554 C 0.51166 0.71256 0.28911
 C1555 C 0.49388 0.71263 0.28939
 C1556 C 0.48870 0.72739 0.28079
 N1557 N 0.50279 0.73632 0.27550
 C1558 C 0.47130 0.73245 0.27859
 C1559 C 0.46591 0.74553 0.26718
 C1560 C 0.44904 0.75129 0.26567
 C1561 C 0.44895 0.76301 0.25245
 C1562 C 0.46578 0.76408 0.24637
 N1563 N 0.47609 0.75330 0.25532
 C1564 C 0.47104 0.77384 0.23191
 C1565 C 0.48847 0.77568 0.22662
 C1566 C 0.49371 0.78262 0.21100
 C1567 C 0.51149 0.78298 0.21113
 C1568 C 0.51665 0.77633 0.22686
 N1569 N 0.50255 0.77201 0.23627
 C1570 C 0.53403 0.77520 0.23241
 H1571 H 0.56704 0.77240 0.24911
 H1572 H 0.56720 0.74889 0.27356
 H1573 H 0.50254 0.76862 0.24919
 H1574 H 0.51983 0.70281 0.29479
 H1575 H 0.48570 0.70293 0.29530
 H1576 H 0.43789 0.74728 0.27313
 H1577 H 0.43769 0.76973 0.24770
 H1578 H 0.51967 0.78766 0.20080
 H1579 H 0.50283 0.74871 0.27049
 H1580 H 0.48561 0.78709 0.20059
 C1581 C -0.05291 0.73334 0.25079
 C1582 C -0.05310 0.74488 0.26410
 C1583 C -0.03614 0.75021 0.26653
 N1584 N -0.02563 0.74235 0.25511
 C1585 C -0.03583 0.73194 0.24554
 C1586 C -0.03087 0.76290 0.27844
 C1587 C -0.01342 0.76745 0.28155
 C1588 C -0.00815 0.78205 0.29039
 C1589 C 0.00961 0.78171 0.29094
 C1590 C 0.01472 0.76690 0.28244
 N1591 N 0.00059 0.75818 0.27695
 C1592 C 0.03208 0.76159 0.28057
 C1593 C 0.03745 0.74822 0.26955
 C1594 C 0.05411 0.74178 0.26887
 C1595 C 0.05427 0.72974 0.25602
 C1596 C 0.03771 0.72929 0.24918
 N1597 N 0.02748 0.74065 0.25744
 C1598 C 0.03267 0.71918 0.23492
 C1599 C 0.01550 0.71805 0.22874
 C1600 C 0.01084 0.71113 0.21296
 C1601 C -0.00689 0.71199 0.21195
 C1602 C -0.01261 0.71945 0.22711
 N1603 N 0.00112 0.72292 0.23734
 C1604 C -0.03019 0.72202 0.23141
 H1605 H -0.06411 0.72687 0.24547
 H1606 H -0.06446 0.74900 0.27108
 H1607 H 0.00060 0.72670 0.25010
 H1608 H -0.01625 0.79197 0.29583
 H1609 H 0.01782 0.79129 0.29694
 H1610 H 0.06505 0.74544 0.27676
 H1611 H 0.06537 0.72230 0.25207
 H1612 H -0.01468 0.70756 0.20127
 H1613 H 0.00042 0.74584 0.27189
 H1614 H 0.01933 0.70600 0.20317
 C1615 C 0.55330 0.75438 0.76053
 C1616 C 0.55315 0.74037 0.74988
 C1617 C 0.53592 0.73619 0.74706
 N1618 N 0.52560 0.74711 0.75579
 C1619 C 0.53617 0.75823 0.76408
 C1620 C 0.53015 0.72297 0.73597
 C1621 C 0.51256 0.71887 0.73292
 C1622 C 0.50684 0.70882 0.71933
 C1623 C 0.48914 0.70824 0.72035
 C1624 C 0.48444 0.71791 0.73457
 N1625 N 0.49884 0.72411 0.74236
 C1626 C 0.46710 0.72074 0.73968
 C1627 C 0.46188 0.73269 0.75229
 C1628 C 0.44487 0.73540 0.75723
 C1629 C 0.44511 0.74864 0.76883
 C1630 C 0.46227 0.75363 0.77063
 N1631 N 0.47245 0.74381 0.76054
 C1632 C 0.46806 0.76709 0.78143
 C1633 C 0.48551 0.77240 0.78328
 C1634 C 0.49112 0.78459 0.79506
 C1635 C 0.50874 0.78598 0.79319
 C1636 C 0.51349 0.77460 0.78031
 N1637 N 0.49921 0.76661 0.77415
 C1638 C 0.53080 0.77162 0.77515
 H1639 H 0.56477 0.76085 0.76525
 H1640 H 0.56447 0.73406 0.74474
 H1641 H 0.49874 0.75843 0.76370
 H1642 H 0.51458 0.70284 0.70942
 H1643 H 0.48068 0.70167 0.71140
 H1644 H 0.43342 0.72867 0.75279
 H1645 H 0.43389 0.75404 0.77511
 H1646 H 0.51712 0.79420 0.80074
 H1647 H 0.49939 0.73043 0.75408
 H1648 H 0.48337 0.79159 0.80427
 C1649 C 0.42296 0.29247 0.30001
 C1650 C 0.42773 0.29880 0.28374
 N1651 N 0.41895 0.31224 0.27686
 C1652 C 0.40557 0.31962 0.28547
 C1653 C 0.40062 0.31319 0.30170
 N1654 N 0.40955 0.29975 0.30854
 N1655 N 0.43167 0.27901 0.30693
 C1656 C 0.44488 0.27149 0.29825
 C1657 C 0.44956 0.27765 0.28189
 N1658 N 0.44086 0.29121 0.27499
 H1659 H 0.39880 0.33024 0.27958
 H1660 H 0.45155 0.26066 0.30391
 C1661 C 0.42798 0.79264 0.80787
 C1662 C 0.43409 0.79876 0.79197
 N1663 N 0.42644 0.81252 0.78451
 C1664 C 0.41276 0.82036 0.79208
 C1665 C 0.40626 0.81409 0.80788
 N1666 N 0.41424 0.80040 0.81543
 N1667 N 0.43556 0.77871 0.81521
 C1668 C 0.44887 0.77053 0.80725
 C1669 C 0.45476 0.77652 0.79122
 N1670 N 0.44727 0.79055 0.78399
 H1671 H 0.40704 0.83124 0.78560
 H1672 H 0.45458 0.75929 0.81316
 C1673 C -0.07618 0.28970 0.80786
 C1674 C -0.07153 0.29407 0.79094
 N1675 N -0.08038 0.30646 0.78249
 C1676 C -0.09381 0.31466 0.79010
 C1677 C -0.09879 0.31021 0.80698
 N1678 N -0.08973 0.29781 0.81549
 N1679 N -0.06720 0.27724 0.81625
 C1680 C -0.05390 0.26890 0.80841
 C1681 C -0.04948 0.27312 0.79137
 N1682 N -0.05841 0.28567 0.78309
 H1683 H -0.10054 0.32441 0.78284
 H1684 H -0.04701 0.25891 0.81524
 C1685 C -0.07056 0.79029 0.30370
 C1686 C -0.06706 0.79311 0.28619
 N1687 N -0.07670 0.80456 0.27721
 C1688 C -0.08980 0.81326 0.28490
 C1689 C -0.09358 0.81026 0.30237
 N1690 N -0.08377 0.79882 0.31133
 N1691 N -0.06084 0.77890 0.31271
 C1692 C -0.04782 0.77012 0.30496
 C1693 C -0.04450 0.77273 0.28738
 N1694 N -0.05420 0.78422 0.27841
 H1695 H -0.09733 0.82215 0.27730
 H1696 H -0.04027 0.76103 0.31234
 C1697 C 0.57395 0.70679 0.30506
 C1698 C 0.56979 0.70200 0.28817
 N1699 N 0.57882 0.68923 0.28042
 C1700 C 0.59192 0.68109 0.28876
 C1701 C 0.59633 0.68605 0.30560
 N1702 N 0.58713 0.69881 0.31331
 N1703 N 0.56487 0.71949 0.31289
 C1704 C 0.55185 0.72769 0.30452
 C1705 C 0.54784 0.72310 0.28754
 N1706 N 0.55691 0.71031 0.27973
 H1707 H 0.59896 0.67108 0.28217
 H1708 H 0.54484 0.73784 0.31094
 C1709 C 0.57488 0.20890 0.80704
 C1710 C 0.56892 0.20204 0.79143
 N1711 N 0.57608 0.18742 0.78520
 C1712 C 0.58899 0.17933 0.79383
 C1713 C 0.59516 0.18623 0.80940
 N1714 N 0.58787 0.20090 0.81561
 N1715 N 0.56767 0.22351 0.81330
 C1716 C 0.55482 0.23163 0.80459
 C1717 C 0.54900 0.22490 0.78887
 N1718 N 0.55619 0.21022 0.78266
 H1719 H 0.59446 0.16777 0.78840
 H1720 H 0.54932 0.24333 0.80973
 C1721 C 1.07303 0.71211 0.80743
 C1722 C 1.06627 0.70530 0.79212
 N1723 N 1.07322 0.69083 0.78536
 C1724 C 1.08675 0.68288 0.79312
 C1725 C 1.09380 0.68979 0.80832
 N1726 N 1.08664 0.70425 0.81513
 N1727 N 1.06608 0.72664 0.81416
 C1728 C 1.05276 0.73475 0.80618
 C1729 C 1.04620 0.72811 0.79070
 N1730 N 1.05309 0.71347 0.78408
 H1731 H 1.09198 0.67141 0.78731
 H1732 H 1.04754 0.74643 0.81163
 C1733 C 1.07516 0.19278 0.29304
 C1734 C 1.06977 0.20872 0.29955
 N1735 N 1.07756 0.21532 0.31369
 C1736 C 1.09057 0.20677 0.32164
 C1737 C 1.09622 0.19085 0.31512
 N1738 N 1.08828 0.18424 0.30091
 N1739 N 1.06726 0.18621 0.27887
 C1740 C 1.05429 0.19492 0.27089
 C1741 C 1.04906 0.21095 0.27732
 N1742 N 1.05694 0.21745 0.29154
 H1743 H 1.09650 0.21255 0.33281
 H1744 H 1.04823 0.18952 0.25957
 C1745 C 0.57589 0.29357 0.69794
 C1746 C 0.57135 0.29999 0.71419
 N1747 N 0.57990 0.31383 0.72062
 C1748 C 0.59282 0.32160 0.71155
 C1749 C 0.59751 0.31520 0.69528
 N1750 N 0.58886 0.30127 0.68890
 N1751 N 0.56729 0.27972 0.69151
 C1752 C 0.55436 0.27198 0.70063
 C1753 C 0.54990 0.27832 0.71693
 N1754 N 0.55853 0.29221 0.72333
 H1755 H 0.59940 0.33254 0.71713
 H1756 H 0.54772 0.26091 0.69532
 C1757 C 0.57309 0.80256 0.20543
 C1758 C 0.57347 0.78453 0.20653
 N1759 N 0.58669 0.77579 0.19919
 C1760 C 0.59962 0.78426 0.19079
 C1761 C 0.59939 0.80235 0.18974
 N1762 N 0.58605 0.81103 0.19714
 N1763 N 0.55986 0.81129 0.21280
 C1764 C 0.54702 0.80280 0.22132
 C1765 C 0.54745 0.78476 0.22260
 N1766 N 0.56070 0.77606 0.21511
 H1767 H 0.61005 0.77690 0.18524
 H1768 H 0.53666 0.81003 0.22722
 C1769 C 1.07419 0.30135 0.20658
 C1770 C 1.06988 0.28454 0.20148
 N1771 N 1.07821 0.27734 0.18796
 C1772 C 1.09069 0.28615 0.17925
 C1773 C 1.09517 0.30298 0.18433
 N1774 N 1.08673 0.31015 0.19794
 N1775 N 1.06578 0.30856 0.22010
 C1776 C 1.05327 0.29969 0.22877
 C1777 C 1.04904 0.28284 0.22373
 N1778 N 1.05747 0.27567 0.21017
 H1779 H 1.09708 0.27994 0.16859
 H1780 H 1.04674 0.30566 0.23952
 C1781 C 1.07410 0.80644 0.71071
 C1782 C 1.07085 0.78877 0.70858
 N1783 N 1.08110 0.77939 0.69807
 C1784 C 1.09448 0.78685 0.68948
 C1785 C 1.09787 0.80454 0.69156
 N1786 N 1.08758 0.81392 0.70223
 N1787 N 1.06368 0.81580 0.72117
 C1788 C 1.05019 0.80825 0.72964
 C1789 C 1.04710 0.79055 0.72760
 N1790 N 1.05753 0.78124 0.71711
 H1791 H 1.10245 0.77895 0.68129
 H1792 H 1.04208 0.81588 0.73799
 C1793 C 0.42687 0.69577 0.71262
 C1794 C 0.43160 0.71279 0.70870
 N1795 N 0.42294 0.72148 0.69628
 C1796 C 0.40964 0.71396 0.68766
 C1797 C 0.40467 0.69697 0.69170
 N1798 N 0.41353 0.68828 0.70409
 N1799 N 0.43555 0.68708 0.72507
 C1800 C 0.44872 0.69472 0.73383
 C1801 C 0.45332 0.71180 0.73002
 N1802 N 0.44465 0.72044 0.71750
 H1803 H 0.40300 0.72129 0.67788
 H1804 H 0.45542 0.68764 0.74378
 C1805 C 0.42418 0.19317 0.20597
 C1806 C 0.42818 0.21033 0.20179
 N1807 N 0.41911 0.21845 0.18930
 C1808 C 0.40619 0.21024 0.18075
 C1809 C 0.40201 0.19306 0.18492
 N1810 N 0.41117 0.18496 0.19751
 N1811 N 0.43335 0.18506 0.21846
 C1812 C 0.44630 0.19336 0.22699
 C1813 C 0.45017 0.21058 0.22291
 N1814 N 0.44099 0.21864 0.21036
 H1815 H 0.39917 0.21718 0.17096
 H1816 H 0.45337 0.18671 0.23697
 C1817 C -0.07001 0.70097 0.20058
 C1818 C -0.06377 0.69197 0.21495
 N1819 N -0.07102 0.67664 0.21934
 C1820 C -0.08432 0.66990 0.21008
 C1821 C -0.09076 0.67892 0.19574
 N1822 N -0.08332 0.69426 0.19133
 N1823 N -0.06285 0.71639 0.19628
 C1824 C -0.04977 0.72327 0.20578
 C1825 C -0.04359 0.71432 0.22021
 N1826 N -0.05075 0.69885 0.22446
 H1827 H -0.08977 0.65766 0.21397
 H1828 H -0.04437 0.73567 0.20227
 C1829 C -0.07611 0.20450 0.70140
 C1830 C -0.07103 0.19722 0.71713
 N1831 N -0.07924 0.18289 0.72303
 C1832 C -0.09237 0.17552 0.71397
 C1833 C -0.09766 0.18290 0.69829
 N1834 N -0.08930 0.19725 0.69242
 N1835 N -0.06792 0.21883 0.69545
 C1836 C -0.05491 0.22628 0.70459
 C1837 C -0.04992 0.21914 0.72042
 N1838 N -0.05811 0.20472 0.72633
 H1839 H -0.09875 0.16422 0.71913
 H1840 H -0.04862 0.23777 0.69968
 C1841 C 0.29332 0.42692 0.29549
 C1842 C 0.28173 0.43573 0.30621
 N1843 N 0.28012 0.43095 0.32293
 C1844 C 0.28944 0.41767 0.32943
 C1845 C 0.30095 0.40865 0.31872
 N1846 N 0.30265 0.41363 0.30198
 N1847 N 0.29475 0.43154 0.27869
 C1848 C 0.28500 0.44450 0.27209
 C1849 C 0.27331 0.45322 0.28277
 N1850 N 0.27200 0.44866 0.29964
 H1851 H 0.28780 0.41421 0.34281
 H1852 H 0.28620 0.44787 0.25862
 C1853 C 0.28548 -0.07297 0.80410
 C1854 C 0.29317 -0.06539 0.78955
 N1855 N 0.30849 -0.07140 0.78367
 C1856 C 0.31645 -0.08482 0.79153
 C1857 C 0.30864 -0.09278 0.80592
 N1858 N 0.29335 -0.08646 0.81190
 N1859 N 0.27005 -0.06703 0.80989
 C1860 C 0.26188 -0.05392 0.80166
 C1861 C 0.26945 -0.04654 0.78695
 N1862 N 0.28497 -0.05242 0.78128
 H1863 H 0.32861 -0.08924 0.78634
 H1864 H 0.24950 -0.04948 0.80633
 C1865 C 0.79015 0.43316 0.80220
 C1866 C 0.79655 0.43817 0.78604
 N1867 N 0.80978 0.42933 0.77885
 C1868 C 0.81686 0.41558 0.78700
 C1869 C 0.81032 0.41025 0.80312
 N1870 N 0.79714 0.41936 0.81032
 N1871 N 0.77680 0.44193 0.80932
 C1872 C 0.76946 0.45543 0.80092
 C1873 C 0.77576 0.46033 0.78467
 N1874 N 0.78918 0.45155 0.77761
 H1875 H 0.82732 0.40887 0.78074
 H1876 H 0.75867 0.46210 0.80670
 C1877 C 0.78908 -0.07192 0.30225
 C1878 C 0.79458 -0.06708 0.28571
 N1879 N 0.80740 -0.07593 0.27791
 C1880 C 0.81497 -0.08955 0.28579
 C1881 C 0.80938 -0.09477 0.30232
 N1882 N 0.79655 -0.08565 0.31015
 N1883 N 0.77618 -0.06297 0.30999
 C1884 C 0.76846 -0.04950 0.30185
 C1885 C 0.77381 -0.04486 0.28519
 N1886 N 0.78681 -0.05376 0.27756
 H1887 H 0.82511 -0.09621 0.27899
 H1888 H 0.75810 -0.04265 0.30817
 C1889 C 0.31149 0.57378 0.70850
 C1890 C 0.29687 0.56579 0.70133
 N1891 N 0.29084 0.57124 0.68586
 C1892 C 0.29867 0.58445 0.67729
 C1893 C 0.31313 0.59271 0.68462
 N1894 N 0.31918 0.58704 0.70005
 N1895 N 0.31756 0.56837 0.72396
 C1896 C 0.30956 0.55541 0.73267
 C1897 C 0.29472 0.54763 0.72570
 N1898 N 0.28875 0.55296 0.71011
 H1899 H 0.29346 0.58859 0.66508
 H1900 H 0.31451 0.55138 0.74506
 C1901 C 0.30430 1.07069 0.20394
 C1902 C 0.29010 1.06296 0.19570
 N1903 N 0.28521 1.06855 0.17995
 C1904 C 0.29376 1.08164 0.17203
 C1905 C 0.30787 1.08968 0.18026
 N1906 N 0.31285 1.08389 0.19607
 N1907 N 0.30909 1.06505 0.21979
 C1908 C 0.30022 1.05212 0.22779
 C1909 C 0.28590 1.04457 0.21959
 N1910 N 0.28122 1.05017 0.20370
 H1911 H 0.28940 1.08571 0.15948
 H1912 H 0.30412 1.04790 0.24047
 C1913 C 0.80030 0.56821 0.20410
 C1914 C 0.78359 0.56439 0.19813
 N1915 N 0.77656 0.57416 0.18548
 C1916 C 0.78542 0.58768 0.17859
 C1917 C 0.80213 0.59165 0.18463
 N1918 N 0.80917 0.58169 0.19721
 N1919 N 0.80722 0.55863 0.21696
 C1920 C 0.79812 0.54546 0.22422
 C1921 C 0.78137 0.54166 0.21831
 N1922 N 0.77451 0.55124 0.20534
 H1923 H 0.77943 0.59520 0.16855
 H1924 H 0.80378 0.53813 0.23462
 C1925 C 0.79408 1.06907 0.70229
 C1926 C 0.78107 1.06160 0.69212
 N1927 N 0.77806 1.06789 0.67612
 C1928 C 0.78739 1.08139 0.66981
 C1929 C 0.80033 1.08907 0.68000
 N1930 N 0.80338 1.08259 0.69602
 N1931 N 0.79695 1.06291 0.71839
 C1932 C 0.78729 1.04970 0.72483
 C1933 C 0.77417 1.04233 0.71473
 N1934 N 0.77138 1.04846 0.69856
 H1935 H 0.78457 1.08608 0.65703
 H1936 H 0.78960 1.04514 0.73779
 C1937 C 0.69842 0.56882 0.29484
 C1938 C 0.71591 0.56577 0.29851
 N1939 N 0.72438 0.57621 0.30969
 C1940 C 0.71620 0.58963 0.31734
 C1941 C 0.69874 0.59293 0.31349
 N1942 N 0.69030 0.58236 0.30229
 N1943 N 0.68991 0.55831 0.28373
 C1944 C 0.69815 0.54496 0.27601
 C1945 C 0.71573 0.54210 0.27940
 N1946 N 0.72421 0.55259 0.29063
 H1947 H 0.72338 0.59779 0.32606
 H1948 H 0.69118 0.53685 0.26705
 C1949 C 0.69108 1.07004 0.79007
 C1950 C 0.70846 1.06584 0.79297
 N1951 N 0.71787 1.07513 0.80438
 C1952 C 0.71075 1.08852 0.81303
 C1953 C 0.69336 1.09302 0.81001
 N1954 N 0.68398 1.08354 0.79855
 N1955 N 0.68163 1.06062 0.77873
 C1956 C 0.68885 1.04726 0.77006
 C1957 C 0.70633 1.04327 0.77273
 N1958 N 0.71572 1.05267 0.78417
 H1959 H 0.71876 1.09560 0.82196
 H1960 H 0.68116 1.04003 0.76094
 C1961 C 0.21538 0.57367 0.80680
 C1962 C 0.21134 0.56974 0.78963
 N1963 N 0.19904 0.57893 0.78132
 C1964 C 0.19057 0.59190 0.78936
 C1965 C 0.19465 0.59602 0.80651
 N1966 N 0.20703 0.58675 0.81480
 N1967 N 0.22763 0.56438 0.81513
 C1968 C 0.23608 0.55139 0.80704
 C1969 C 0.23219 0.54762 0.78981
 N1970 N 0.21989 0.55690 0.78151
 H1971 H 0.18094 0.59904 0.78228
 H1972 H 0.24588 0.54420 0.81386
 C1973 C 0.19611 1.07165 0.28902
 C1974 C 0.21339 1.06787 0.29300
 N1975 N 0.22177 1.07721 0.30512
 C1976 C 0.21370 1.09018 0.31353
 C1977 C 0.19638 1.09415 0.30961
 N1978 N 0.18801 1.08473 0.29736
 N1979 N 0.18777 1.06219 0.27688
 C1980 C 0.19598 1.04918 0.26849
 C1981 C 0.21333 1.04555 0.27236
 N1982 N 0.22159 1.05501 0.28458
 H1983 H 0.22089 1.09740 0.32301
 H1984 H 0.18914 1.04187 0.25879
 C1985 C 0.69762 0.43469 0.70272
 C1986 C 0.71547 0.43694 0.70015
 N1987 N 0.72420 0.42574 0.69006
 C1988 C 0.71596 0.41227 0.68249
 C1989 C 0.69810 0.40976 0.68521
 N1990 N 0.68937 0.42116 0.69525
 N1991 N 0.68893 0.44584 0.71297
 C1992 C 0.69733 0.45903 0.72091
 C1993 C 0.71524 0.46110 0.71858
 N1994 N 0.72387 0.45001 0.70816
 H1995 H 0.72341 0.40353 0.67468
 H1996 H 0.69022 0.46762 0.72924
 C1997 C 0.70513 -0.06831 0.19435
 C1998 C 0.69849 -0.06409 0.21061
 N1999 N 0.68472 -0.07295 0.21694
 C2000 C 0.67730 -0.08593 0.20781
 C2001 C 0.68405 -0.09040 0.19160
 N2002 N 0.69783 -0.08138 0.18528
 N2003 N 0.71892 -0.05944 0.18800
 C2004 C 0.72646 -0.04661 0.19726
 C2005 C 0.72001 -0.04257 0.21364
 N2006 N 0.70611 -0.05140 0.21992
 H2007 H 0.66644 -0.09280 0.21334
 H2008 H 0.73755 -0.03980 0.19206
 C2009 C 0.18798 0.42654 0.20905
 C2010 C 0.20575 0.42974 0.20695
 N2011 N 0.21514 0.41971 0.19624
 C2012 C 0.20760 0.40661 0.18746
 C2013 C 0.18980 0.40325 0.18951
 N2014 N 0.18041 0.41334 0.20036
 N2015 N 0.17862 0.43672 0.21975
 C2016 C 0.18628 0.44989 0.22847
 C2017 C 0.20410 0.45293 0.22648
 N2018 N 0.21339 0.44275 0.21573
 H2019 H 0.21555 0.39882 0.17912
 H2020 H 0.17863 0.45776 0.23704
 C2021 C 0.19437 -0.07412 0.70289
 C2022 C 0.20861 -0.06609 0.69496
 N2023 N 0.21424 -0.07187 0.67948
 C2024 C 0.20638 -0.08544 0.67162
 C2025 C 0.19228 -0.09372 0.67965
 N2026 N 0.18658 -0.08770 0.69509
 N2027 N 0.18882 -0.06849 0.71845
 C2028 C 0.19701 -0.05528 0.72656
 C2029 C 0.21146 -0.04743 0.71881
 N2030 N 0.21687 -0.05296 0.70309
 H2031 H 0.21124 -0.08975 0.65933
 H2032 H 0.19253 -0.05112 0.73907
 C2033 C 0.29322 0.30498 0.43317
 C2034 C 0.29627 0.28738 0.43586
 N2035 N 0.30730 0.27891 0.42528
 C2036 C 0.31534 0.28720 0.41203
 C2037 C 0.31203 0.30475 0.40906
 N2038 N 0.30104 0.31318 0.41981
 N2039 N 0.28228 0.31352 0.44377
 C2040 C 0.27410 0.30521 0.45690
 C2041 C 0.27683 0.28754 0.45940
 N2042 N 0.28791 0.27901 0.44882
 H2043 H 0.32390 0.28004 0.40373
 H2044 H 0.26530 0.31222 0.46511
 C2045 C 0.30735 0.79101 -0.07250
 C2046 C 0.28959 0.79300 -0.06931
 N2047 N 0.28012 0.80343 -0.07960
 C2048 C 0.28755 0.81194 -0.09303
 C2049 C 0.30529 0.80978 -0.09648
 N2050 N 0.31475 0.79934 -0.08604
 N2051 N 0.31684 0.78063 -0.06212
 C2052 C 0.30932 0.77203 -0.04877
 C2053 C 0.29151 0.77377 -0.04579
 N2054 N 0.28205 0.78426 -0.05614
 H2055 H 0.27956 0.82001 -0.10106
 H2056 H 0.31707 0.76369 -0.04074
 C2057 C 0.79996 0.29956 -0.07065
 C2058 C 0.78669 0.30914 -0.06297
 N2059 N 0.78280 0.32493 -0.06927
 C2060 C 0.79139 0.33153 -0.08307
 C2061 C 0.80448 0.32187 -0.09108
 N2062 N 0.80853 0.30611 -0.08451
 N2063 N 0.80366 0.28363 -0.06449
 C2064 C 0.79455 0.27678 -0.05110
 C2065 C 0.78111 0.28627 -0.04358
 N2066 N 0.77754 0.30229 -0.04968
 H2067 H 0.78789 0.34415 -0.08775
 H2068 H 0.79749 0.26395 -0.04657
 C2069 C 0.79165 0.80794 0.42635
 C2070 C 0.79951 0.79308 0.43297
 N2071 N 0.81431 0.78724 0.42579
 C2072 C 0.82162 0.79546 0.41215
 C2073 C 0.81370 0.81021 0.40519
 N2074 N 0.79888 0.81614 0.41260
 N2075 N 0.77675 0.81368 0.43359
 C2076 C 0.76931 0.80514 0.44705
 C2077 C 0.77707 0.79014 0.45347
 N2078 N 0.79204 0.78451 0.44627
 H2079 H 0.83339 0.79031 0.40679
 H2080 H 0.75734 0.80980 0.45251
 C2081 C 0.69481 0.28838 0.57298
 C2082 C 0.71293 0.28807 0.57198
 N2083 N 0.72249 0.29570 0.58443
 C2084 C 0.71478 0.30373 0.59788
 C2085 C 0.69661 0.30410 0.59901
 N2086 N 0.68705 0.29632 0.58649
 N2087 N 0.68530 0.28077 0.56039
 C2088 C 0.69313 0.27284 0.54688
 C2089 C 0.71128 0.27246 0.54594
 N2090 N 0.72072 0.28011 0.55858
 H2091 H 0.72282 0.30960 0.60762
 H2092 H 0.68532 0.26677 0.53704
 C2093 C 0.71992 0.81214 1.07377
 C2094 C 0.72091 0.79416 1.07245
 N2095 N 0.71310 0.78410 1.08447
 C2096 C 0.70430 0.79118 1.09779
 C2097 C 0.70328 0.80920 1.09925
 N2098 N 0.71119 0.81925 1.08714
 N2099 N 0.72776 0.82217 1.06168
 C2100 C 0.73660 0.81500 1.04836
 C2101 C 0.73768 0.79700 1.04713
 N2102 N 0.72978 0.78703 1.05926
 H2103 H 0.69832 0.78275 1.10718
 H2104 H 0.74289 0.82320 1.03896
 C2105 C 0.19547 0.29161 1.06381
 C2106 C 0.21166 0.29818 1.05878
 N2107 N 0.21853 0.31183 1.06722
 C2108 C 0.21002 0.31920 1.08058
 C2109 C 0.19388 0.31254 1.08587
 N2110 N 0.18699 0.29888 1.07725
 N2111 N 0.18864 0.27790 1.05533
 C2112 C 0.19735 0.27039 1.04213
 C2113 C 0.21367 0.27681 1.03729
 N2114 N 0.22041 0.29061 1.04573
 H2115 H 0.21598 0.32998 1.08706
 H2116 H 0.19178 0.25937 1.03565
 C2117 C 0.20687 0.79888 0.56450
 C2118 C 0.19667 0.78599 0.55685
 N2119 N 0.18056 0.78277 0.56295
 C2120 C 0.17422 0.79164 0.57657
 C2121 C 0.18451 0.80429 0.58459
 N2122 N 0.20058 0.80773 0.57819
 N2123 N 0.22315 0.80184 0.55854
 C2124 C 0.22975 0.79232 0.54543
 C2125 C 0.21964 0.77924 0.53802
 N2126 N 0.20329 0.77645 0.54385
 H2127 H 0.16133 0.78868 0.58114
 H2128 H 0.24286 0.79465 0.54107
 C2129 C 0.29173 0.69392 0.56836
 C2130 C 0.29245 0.71187 0.56636
 N2131 N 0.30123 0.72154 0.57795
 C2132 C 0.30932 0.71411 0.59154
 C2133 C 0.30855 0.69613 0.59373
 N2134 N 0.29974 0.68647 0.58199
 N2135 N 0.28285 0.68428 0.55676
 C2136 C 0.27457 0.69182 0.54330
 C2137 C 0.27513 0.70981 0.54141
 N2138 N 0.28414 0.71938 0.55301
 H2139 H 0.31612 0.72226 0.60055
 H2140 H 0.26741 0.68392 0.53430
 C2141 C 0.30497 0.21003 1.06299
 C2142 C 0.28902 0.20351 1.05729
 N2143 N 0.28220 0.18926 1.06480
 C2144 C 0.29055 0.18120 1.07784
 C2145 C 0.30648 0.18774 1.08378
 N2146 N 0.31330 0.20206 1.07614
 N2147 N 0.31176 0.22433 1.05540
 C2148 C 0.30323 0.23244 1.04242
 C2149 C 0.28717 0.22601 1.03690
 N2150 N 0.28047 0.21166 1.04446
 H2151 H 0.28461 0.16996 1.08360
 H2152 H 0.30877 0.24388 1.03660
 C2153 C 0.81380 0.71558 1.07503
 C2154 C 0.79579 0.71765 1.07423
 N2155 N 0.78562 0.71079 1.08672
 C2156 C 0.79261 0.70187 1.10001
 C2157 C 0.81065 0.69975 1.10095
 N2158 N 0.82083 0.70675 1.08839
 N2159 N 0.82390 0.72236 1.06237
 C2160 C 0.81679 0.73114 1.04898
 C2161 C 0.79878 0.73332 1.04828
 N2162 N 0.78873 0.72649 1.06097
 H2163 H 0.78412 0.69664 1.10979
 H2164 H 0.82507 0.73651 1.03907
 C2165 C 0.79410 0.19529 0.56886
 C2166 C 0.79634 0.21318 0.56741
 N2167 N 0.80655 0.22156 0.57887
 C2168 C 0.81457 0.21291 0.59181
 C2169 C 0.81211 0.19502 0.59352
 N2170 N 0.80192 0.18667 0.58189
 N2171 N 0.78396 0.18686 0.55734
 C2172 C 0.77585 0.19554 0.54449
 C2173 C 0.77782 0.21347 0.54321
 N2174 N 0.78805 0.22189 0.55472
 H2175 H 0.82253 0.22003 0.60076
 H2176 H 0.76766 0.18861 0.53556
 C2177 C 0.71112 0.69722 0.42921
 C2178 C 0.70461 0.71336 0.43394
 N2179 N 0.69071 0.71984 0.42556
 C2180 C 0.68306 0.71098 0.41256
 C2181 C 0.68969 0.69491 0.40753
 N2182 N 0.70359 0.68842 0.41610
 N2183 N 0.72500 0.69072 0.43767
 C2184 C 0.73275 0.69972 0.45056
 C2185 C 0.72643 0.71601 0.45508
 N2186 N 0.71244 0.72242 0.44666
 H2187 H 0.67209 0.71663 0.40610
 H2188 H 0.74390 0.69439 0.45703
 C2189 C 0.69580 0.21171 -0.07111
 C2190 C 0.71340 0.20872 -0.06792
 N2191 N 0.72223 0.19758 -0.07799
 C2192 C 0.71428 0.18925 -0.09117
 C2193 C 0.69668 0.19230 -0.09456
 N2194 N 0.68787 0.20352 -0.08439
 N2195 N 0.68696 0.22279 -0.06090
 C2196 C 0.69498 0.23109 -0.04771
 C2197 C 0.71264 0.22829 -0.04469
 N2198 N 0.72143 0.21713 -0.05489
 H2199 H 0.72177 0.18056 -0.09901
 H2200 H 0.68775 0.23997 -0.03981
 C2201 C 0.21377 0.69183 -0.07135
 C2202 C 0.20936 0.70865 -0.06655
 N2203 N 0.19671 0.71703 -0.07521
 C2204 C 0.18827 0.70939 -0.08851
 C2205 C 0.19278 0.69261 -0.09356
 N2206 N 0.20547 0.68425 -0.08476
 N2207 N 0.22641 0.68344 -0.06264
 C2208 C 0.23493 0.69117 -0.04941
 C2209 C 0.23072 0.70810 -0.04481
 N2210 N 0.21800 0.71645 -0.05350
 H2211 H 0.17837 0.71652 -0.09521
 H2212 H 0.24509 0.68434 -0.04276
 C2213 C 0.19515 0.20832 0.43371
 C2214 C 0.21264 0.20519 0.43730
 N2215 N 0.22147 0.19361 0.42771
 C2216 C 0.21364 0.18503 0.41461
 C2217 C 0.19618 0.18830 0.41077
 N2218 N 0.18737 0.19991 0.42050
 N2219 N 0.18628 0.21984 0.44338
 C2220 C 0.19418 0.22846 0.45643
 C2221 C 0.21174 0.22554 0.45984
 N2222 N 0.22057 0.21394 0.45017
 H2223 H 0.22112 0.17602 0.40713
 H2224 H 0.18693 0.23770 0.46391
 C2225 C 0.31048 0.43179 0.70871
 C2226 C 0.29331 0.43574 0.70447
 N2227 N 0.28499 0.42635 0.69230
 C2228 C 0.29301 0.41308 0.68424
 C2229 C 0.31010 0.40884 0.68869
 N2230 N 0.31841 0.41840 0.70084
 N2231 N 0.31886 0.44123 0.72081
 C2232 C 0.31077 0.45438 0.72900
 C2233 C 0.29349 0.45811 0.72503
 N2234 N 0.28515 0.44871 0.71281
 H2235 H 0.28593 0.40574 0.67474
 H2236 H 0.31761 0.46165 0.73873
 C2237 C 0.30215 0.92841 0.20319
 C2238 C 0.28586 0.93268 0.19653
 N2239 N 0.27936 0.92359 0.18310
 C2240 C 0.28837 0.91036 0.17604
 C2241 C 0.30464 0.90591 0.18277
 N2242 N 0.31111 0.91515 0.19621
 N2243 N 0.30866 0.93746 0.21665
 C2244 C 0.29955 0.95055 0.22383
 C2245 C 0.28316 0.95474 0.21732
 N2246 N 0.27672 0.94569 0.20375
 H2247 H 0.28275 0.90334 0.16543
 H2248 H 0.30492 0.95750 0.23465
 C2249 C 0.79385 0.42604 0.19750
 C2250 C 0.79821 0.42942 0.21470
 N2251 N 0.81053 0.41985 0.22253
 C2252 C 0.81872 0.40699 0.21398
 C2253 C 0.81427 0.40338 0.19680
 N2254 N 0.80188 0.41306 0.18900
 N2255 N 0.78162 0.43573 0.18962
 C2256 C 0.77347 0.44862 0.19819
 C2257 C 0.77763 0.45185 0.21547
 N2258 N 0.78995 0.44216 0.22332
 H2259 H 0.82837 0.39953 0.22068
 H2260 H 0.76373 0.45616 0.19169
 C2261 C 0.78437 0.92654 0.69253
 C2262 C 0.78453 0.92805 0.71053
 N2263 N 0.79332 0.91645 0.72012
 C2264 C 0.80206 0.90338 0.71255
 C2265 C 0.80192 0.90170 0.69453
 N2266 N 0.79298 0.91336 0.68493
 N2267 N 0.77567 0.93831 0.68298
 C2268 C 0.76708 0.95150 0.69063
 C2269 C 0.76709 0.95288 0.70865
 N2270 N 0.77584 0.94109 0.71816
 H2271 H 0.80884 0.89429 0.72061
 H2272 H 0.76016 0.96071 0.68281
 C2273 C 0.70733 0.57705 0.69529
 C2274 C 0.69967 0.57135 0.71069
 N2275 N 0.68510 0.57901 0.71649
 C2276 C 0.67781 0.59219 0.70766
 C2277 C 0.68545 0.59811 0.69227
 N2278 N 0.70008 0.59030 0.68644
 N2279 N 0.72199 0.56935 0.68958
 C2280 C 0.72935 0.55627 0.69863
 C2281 C 0.72170 0.55069 0.71408
 N2282 N 0.70702 0.55839 0.71973
 H2283 H 0.66621 0.59794 0.71278
 H2284 H 0.74110 0.55038 0.69394
 C2285 C 0.70701 0.07373 0.19682
 C2286 C 0.70079 0.06887 0.21310
 N2287 N 0.68717 0.07734 0.22003
 C2288 C 0.67948 0.09051 0.21146
 C2289 C 0.68577 0.09559 0.19521
 N2290 N 0.69943 0.08698 0.18830
 N2291 N 0.72060 0.06520 0.18985
 C2292 C 0.72830 0.05205 0.19848
 C2293 C 0.72221 0.04731 0.21485
 N2294 N 0.70855 0.05585 0.22177
 H2295 H 0.66875 0.09705 0.21746
 H2296 H 0.73916 0.04546 0.19273
 C2297 C 0.18793 0.56965 0.21031
 C2298 C 0.20332 0.56244 0.20409
 N2299 N 0.21066 0.56885 0.18955
 C2300 C 0.20337 0.58222 0.18094
 C2301 C 0.18802 0.58964 0.18718
 N2302 N 0.18068 0.58307 0.20176
 N2303 N 0.18064 0.56329 0.22492
 C2304 C 0.18810 0.55007 0.23365
 C2305 C 0.20358 0.54296 0.22753
 N2306 N 0.21082 0.54931 0.21284
 H2307 H 0.20966 0.58707 0.16947
 H2308 H 0.18221 0.54532 0.24538
 C2309 C 0.20420 0.06973 0.69585
 C2310 C 0.19587 0.06250 0.71024
 N2311 N 0.18102 0.06955 0.71614
 C2312 C 0.17418 0.08367 0.70847
 C2313 C 0.18269 0.09127 0.69431
 N2314 N 0.19747 0.08396 0.68827
 N2315 N 0.21920 0.06275 0.69009
 C2316 C 0.22636 0.04900 0.69824
 C2317 C 0.21822 0.04206 0.71286
 N2318 N 0.20310 0.04894 0.71847
 H2319 H 0.16238 0.08899 0.71362
 H2320 H 0.23849 0.04383 0.69368
 C2321 C 0.28583 0.56901 0.30499
 C2322 C 0.28940 0.56506 0.28773
 N2323 N 0.30143 0.57438 0.27900
 C2324 C 0.31008 0.58752 0.28672
 C2325 C 0.30643 0.59168 0.30397
 N2326 N 0.29434 0.58225 0.31267
 N2327 N 0.27384 0.55960 0.31373
 C2328 C 0.26519 0.54646 0.30596
 C2329 C 0.26861 0.54267 0.28864
 N2330 N 0.28066 0.55207 0.27992
 H2331 H 0.31947 0.59476 0.27932
 H2332 H 0.25559 0.53919 0.31311
 C2333 C 0.29017 0.06953 0.79986
 C2334 C 0.29544 0.06470 0.78328
 N2335 N 0.30854 0.07338 0.77546
 C2336 C 0.31655 0.08680 0.78339
 C2337 C 0.31110 0.09192 0.79988
 N2338 N 0.29803 0.08304 0.80772
 N2339 N 0.27703 0.06085 0.80768
 C2340 C 0.26881 0.04765 0.79958
 C2341 C 0.27385 0.04304 0.78286
 N2342 N 0.28713 0.05165 0.77512
 H2343 H 0.32681 0.09353 0.77669
 H2344 H 0.25826 0.04100 0.80596
 C2345 C 0.79168 0.57703 0.80242
 C2346 C 0.80043 0.56996 0.78829
 N2347 N 0.81593 0.57664 0.78342
 C2348 C 0.82305 0.59018 0.79194
 C2349 C 0.81420 0.59751 0.80595
 N2350 N 0.79873 0.59062 0.81087
 N2351 N 0.77609 0.57045 0.80721
 C2352 C 0.76878 0.55720 0.79838
 C2353 C 0.77742 0.55029 0.78410
 N2354 N 0.79309 0.55682 0.77940
 H2355 H 0.83538 0.59522 0.78764
 H2356 H 0.75623 0.55229 0.80223
 C2357 C 0.79415 0.07090 0.30297
 C2358 C 0.79984 0.06644 0.28643
 N2359 N 0.81324 0.07521 0.27919
 C2360 C 0.82110 0.08840 0.28767
 C2361 C 0.81520 0.09316 0.30411
 N2362 N 0.80187 0.08416 0.31135
 N2363 N 0.78071 0.06219 0.31021
 C2364 C 0.77258 0.04929 0.30157
 C2365 C 0.77804 0.04502 0.28490
 N2366 N 0.79162 0.05367 0.27773
 H2367 H 0.83162 0.09523 0.28146
 H2368 H 0.76176 0.04263 0.30749
 C2369 C 0.70259 0.42594 0.30061
 C2370 C 0.69490 0.43168 0.28530
 N2371 N 0.68015 0.42403 0.27967
 C2372 C 0.67275 0.41082 0.28859
 C2373 C 0.68049 0.40490 0.30387
 N2374 N 0.69525 0.41272 0.30948
 N2375 N 0.71741 0.43351 0.30621
 C2376 C 0.72495 0.44652 0.29713
 C2377 C 0.71733 0.45221 0.28177
 N2378 N 0.70244 0.44464 0.27620
 H2379 H 0.66106 0.40497 0.28366
 H2380 H 0.73684 0.45229 0.30173
 C2381 C 0.68828 0.92655 0.78869
 C2382 C 0.70577 0.93082 0.79112
 N2383 N 0.71541 0.92161 0.80237
 C2384 C 0.70839 0.90826 0.81132
 C2385 C 0.69093 0.90371 0.80881
 N2386 N 0.68128 0.91305 0.79749
 N2387 N 0.67865 0.93591 0.77747
 C2388 C 0.68579 0.94926 0.76849
 C2389 C 0.70336 0.95331 0.77072
 N2390 N 0.71292 0.94397 0.78203
 H2391 H 0.71654 0.90111 0.82005
 H2392 H 0.67794 0.95647 0.75952
 C2393 C 0.21080 0.43184 0.80277
 C2394 C 0.20834 0.43550 0.78525
 N2395 N 0.19702 0.42588 0.77597
 C2396 C 0.18812 0.41266 0.78338
 C2397 C 0.19083 0.40870 0.80083
 N2398 N 0.20212 0.41849 0.81009
 N2399 N 0.22205 0.44151 0.81209
 C2400 C 0.23108 0.45461 0.80464
 C2401 C 0.22890 0.45806 0.78705
 N2402 N 0.21753 0.44842 0.77775
 H2403 H 0.17937 0.40509 0.77558
 H2404 H 0.24009 0.46209 0.81225
 C2405 C 0.19441 0.92893 0.28737
 C2406 C 0.21196 0.93224 0.29059
 N2407 N 0.22077 0.92207 0.30168
 C2408 C 0.21287 0.90859 0.30966
 C2409 C 0.19532 0.90501 0.30633
 N2410 N 0.18650 0.91539 0.29527
 N2411 N 0.18566 0.93912 0.27617
 C2412 C 0.19376 0.95239 0.26793
 C2413 C 0.21141 0.95551 0.27097
 N2414 N 0.22004 0.94537 0.28232
 H2415 H 0.22036 0.90074 0.31835
 H2416 H 0.18663 0.96025 0.25892
 C2417 C 0.43261 0.29353 0.69906
 C2418 C 0.43882 0.30123 0.71419
 N2419 N 0.43128 0.31577 0.72012
 C2420 C 0.41770 0.32295 0.71171
 C2421 C 0.41120 0.31514 0.69671
 N2422 N 0.41893 0.30059 0.69075
 N2423 N 0.44016 0.27895 0.69315
 C2424 C 0.45354 0.27161 0.70178
 C2425 C 0.45952 0.27912 0.71708
 N2426 N 0.45203 0.29381 0.72291
 H2427 H 0.41192 0.33445 0.71692
 H2428 H 0.45922 0.25986 0.69699
 C2429 C 0.43092 0.79562 0.20218
 C2430 C 0.43677 0.80382 0.21717
 N2431 N 0.42913 0.81863 0.22234
 C2432 C 0.41587 0.82562 0.21324
 C2433 C 0.40991 0.81739 0.19825
 N2434 N 0.41768 0.80256 0.19313
 N2435 N 0.43842 0.78073 0.19703
 C2436 C 0.45152 0.77363 0.20623
 C2437 C 0.45738 0.78179 0.22125
 N2438 N 0.44983 0.79672 0.22639
 H2439 H 0.41006 0.83740 0.21775
 H2440 H 0.45723 0.76168 0.20199
 C2441 C 0.93225 0.30235 0.21182
 C2442 C 0.93770 0.28652 0.20510
 N2443 N 0.92972 0.27992 0.19105
 C2444 C 0.91649 0.28840 0.18338
 C2445 C 0.91083 0.30421 0.19011
 N2446 N 0.91892 0.31079 0.20424
 N2447 N 0.94031 0.30892 0.22589
 C2448 C 0.95351 0.30031 0.23359
 C2449 C 0.95879 0.28438 0.22698
 N2450 N 0.95075 0.27787 0.21285
 H2451 H 0.91037 0.28267 0.17228
 H2452 H 0.95967 0.30569 0.24487
 C2453 C 0.93075 0.79660 0.70005
 C2454 C 0.93674 0.80507 0.71484
 N2455 N 0.92895 0.81977 0.72005
 C2456 C 0.91527 0.82629 0.71129
 C2457 C 0.90896 0.81766 0.69665
 N2458 N 0.91702 0.80305 0.69133
 N2459 N 0.93841 0.78175 0.69499
 C2460 C 0.95168 0.77492 0.70416
 C2461 C 0.95751 0.78327 0.71908
 N2462 N 0.94992 0.79821 0.72405
 H2463 H 0.90934 0.83799 0.71586
 H2464 H 0.95744 0.76293 0.70006
 C2465 C 0.56591 0.30009 0.29439
 C2466 C 0.56120 0.28377 0.30065
 N2467 N 0.56972 0.27704 0.31432
 C2468 C 0.58282 0.28586 0.32201
 C2469 C 0.58775 0.30215 0.31568
 N2470 N 0.57908 0.30885 0.30198
 N2471 N 0.55737 0.30682 0.28069
 C2472 C 0.54439 0.29788 0.27290
 C2473 C 0.53983 0.28146 0.27902
 N2474 N 0.54835 0.27479 0.29280
 H2475 H 0.58941 0.28003 0.33279
 H2476 H 0.53783 0.30340 0.26192
 C2477 C 0.57140 0.80087 0.79700
 C2478 C 0.56630 0.78503 0.80419
 N2479 N 0.57485 0.77871 0.81799
 C2480 C 0.58835 0.78745 0.82498
 C2481 C 0.59368 0.80327 0.81777
 N2482 N 0.58500 0.80960 0.80390
 N2483 N 0.56279 0.80713 0.78313
 C2484 C 0.54940 0.79818 0.77606
 C2485 C 0.54450 0.78224 0.78313
 N2486 N 0.55306 0.77606 0.79707
 H2487 H 0.59491 0.78188 0.83589
 H2488 H 0.54279 0.80329 0.76491
 C2489 C 0.06825 0.29298 0.80465
 C2490 C 0.06367 0.29724 0.78771
 N2491 N 0.07301 0.30922 0.77899
 C2492 C 0.08685 0.31709 0.78636
 C2493 C 0.09175 0.31269 0.80325
 N2494 N 0.08220 0.30073 0.81201
 N2495 N 0.05888 0.28089 0.81330
 C2496 C 0.04528 0.27273 0.80568
 C2497 C 0.04095 0.27674 0.78859
 N2498 N 0.05024 0.28900 0.78007
 H2499 H 0.09405 0.32646 0.77892
 H2500 H 0.03815 0.26296 0.81271
 C2501 C 0.07176 0.78860 0.30658
 C2502 C 0.06754 0.79264 0.28948
 N2503 N 0.07649 0.80517 0.28111
 C2504 C 0.08954 0.81386 0.28902
 C2505 C 0.09397 0.80976 0.30609
 N2506 N 0.08490 0.79717 0.31444
 N2507 N 0.06273 0.77610 0.31498
 C2508 C 0.04970 0.76740 0.30701
 C2509 C 0.04563 0.77130 0.28985
 N2510 N 0.05466 0.78386 0.28149
 H2511 H 0.09647 0.82369 0.28191
 H2512 H 0.04272 0.75741 0.31388
 C2513 C 0.56891 0.69710 0.70785
 C2514 C 0.56524 0.71447 0.70457
 N2515 N 0.57457 0.72321 0.69259
 C2516 C 0.58755 0.71542 0.68381
 C2517 C 0.59151 0.69809 0.68726
 N2518 N 0.58196 0.68935 0.69919
 N2519 N 0.55959 0.68837 0.71987
 C2520 C 0.54683 0.69629 0.72889
 C2521 C 0.54336 0.71375 0.72582
 N2522 N 0.55262 0.72241 0.71364
 H2523 H 0.59481 0.72284 0.67447
 H2524 H 0.53962 0.68916 0.73851
 C2525 C 0.56724 0.19469 0.20708
 C2526 C 0.56228 0.21113 0.20148
 N2527 N 0.57082 0.21868 0.18819
 C2528 C 0.58420 0.21062 0.18027
 C2529 C 0.58943 0.19425 0.18600
 N2530 N 0.58072 0.18669 0.19929
 N2531 N 0.55865 0.18712 0.22037
 C2532 C 0.54538 0.19530 0.22838
 C2533 C 0.54060 0.21185 0.22296
 N2534 N 0.54916 0.21937 0.20958
 H2535 H 0.59081 0.21711 0.16984
 H2536 H 0.53879 0.18909 0.23903
 C2537 C 0.07319 0.69338 0.20917
 C2538 C 0.07198 0.71140 0.20865
 N2539 N 0.08422 0.72071 0.20022
 C2540 C 0.09769 0.71286 0.19228
 C2541 C 0.09910 0.69481 0.19287
 N2542 N 0.08672 0.68551 0.20134
 N2543 N 0.06092 0.68409 0.21766
 C2544 C 0.04753 0.69203 0.22573
 C2545 C 0.04643 0.71006 0.22538
 N2546 N 0.05871 0.71932 0.21681
 H2547 H 0.10725 0.72072 0.18578
 H2548 H 0.03800 0.68441 0.23261
 C2549 C 0.06785 0.21043 0.69887
 C2550 C 0.06076 0.20166 0.71306
 N2551 N 0.06778 0.18661 0.71829
 C2552 C 0.08175 0.17997 0.71015
 C2553 C 0.08926 0.18885 0.69615
 N2554 N 0.08196 0.20387 0.69075
 N2555 N 0.06081 0.22560 0.69379
 C2556 C 0.04715 0.23248 0.70242
 C2557 C 0.04031 0.22384 0.71681
 N2558 N 0.04727 0.20858 0.72174
 H2559 H 0.08694 0.16793 0.71474
 H2560 H 0.04191 0.24472 0.69836
 C2561 C 0.43094 0.70619 0.30448
 C2562 C 0.43476 0.70256 0.28720
 N2563 N 0.42506 0.69084 0.27857
 C2564 C 0.41163 0.68260 0.28638
 C2565 C 0.40756 0.68638 0.30361
 N2566 N 0.41741 0.69811 0.31224
 N2567 N 0.44072 0.71787 0.31313
 C2568 C 0.45409 0.72618 0.30524
 C2569 C 0.45771 0.72276 0.28789
 N2570 N 0.44795 0.71099 0.27927
 H2571 H 0.40407 0.67346 0.27906
 H2572 H 0.46163 0.73557 0.31231
 C2573 C 0.43109 0.20925 0.80452
 C2574 C 0.43635 0.20415 0.78802
 N2575 N 0.42761 0.19147 0.77978
 C2576 C 0.41371 0.18369 0.78720
 C2577 C 0.40811 0.18891 0.80362
 N2578 N 0.41707 0.20158 0.81193
 N2579 N 0.43988 0.22204 0.81268
 C2580 C 0.45357 0.23006 0.80497
 C2581 C 0.45859 0.22515 0.78832
 N2582 N 0.44986 0.21223 0.78029
 H2583 H 0.40705 0.17372 0.78013
 H2584 H 0.46025 0.24038 0.81157
 C2585 C 0.92992 0.70074 0.79528
 C2586 C 0.93956 0.71211 0.80555
 N2587 N 0.93518 0.71427 0.82231
 C2588 C 0.92145 0.70574 0.82926
 C2589 C 0.91154 0.69459 0.81893
 N2590 N 0.91616 0.69229 0.80219
 N2591 N 0.93412 0.69875 0.77845
 C2592 C 0.94742 0.70781 0.77134
 C2593 C 0.95686 0.71945 0.78151
 N2594 N 0.95279 0.72122 0.79844
 H2595 H 0.91826 0.70783 0.84264
 H2596 H 0.95042 0.70625 0.75782
 C2597 C 0.93143 0.19513 0.29507
 C2598 C 0.93743 0.21070 0.30205
 N2599 N 0.92944 0.21740 0.31604
 C2600 C 0.91558 0.20934 0.32331
 C2601 C 0.90924 0.19393 0.31614
 N2602 N 0.91746 0.18719 0.30220
 N2603 N 0.93938 0.18846 0.28102
 C2604 C 0.95297 0.19676 0.27349
 C2605 C 0.95874 0.21252 0.28023
 N2606 N 0.95085 0.21910 0.29442
 H2607 H 0.90943 0.21514 0.33435
 H2608 H 0.95895 0.19137 0.26214
 C2609 C 0.29388 0.30458 0.57493
 C2610 C 0.29614 0.28686 0.57238
 N2611 N 0.30681 0.27795 0.58296
 C2612 C 0.31526 0.28593 0.59608
 C2613 C 0.31276 0.30363 0.59889
 N2614 N 0.30211 0.31249 0.58814
 N2615 N 0.28330 0.31356 0.56430
 C2616 C 0.27476 0.30556 0.55127
 C2617 C 0.27674 0.28778 0.54889
 N2618 N 0.28743 0.27882 0.55951
 H2619 H 0.32352 0.27844 0.60440
 H2620 H 0.26626 0.31291 0.54303
 C2621 C 0.30118 0.79685 0.07048
 C2622 C 0.31013 0.78218 0.06497
 N2623 N 0.32495 0.77758 0.07303
 C2624 C 0.33122 0.78691 0.08643
 C2625 C 0.32222 0.80154 0.09216
 N2626 N 0.30740 0.80615 0.08392
 N2627 N 0.28626 0.80137 0.06251
 C2628 C 0.27982 0.79180 0.04934
 C2629 C 0.28868 0.77704 0.04391
 N2630 N 0.30368 0.77259 0.05187
 H2631 H 0.34303 0.78279 0.09256
 H2632 H 0.26779 0.79549 0.04330
 C2633 C 0.79123 0.30825 0.07248
 C2634 C 0.79585 0.29137 0.06804
 N2635 N 0.80845 0.28326 0.07698
 C2636 C 0.81672 0.29124 0.09017
 C2637 C 0.81211 0.30812 0.09478
 N2638 N 0.79937 0.31620 0.08579
 N2639 N 0.77866 0.31637 0.06341
 C2640 C 0.77046 0.30833 0.05017
 C2641 C 0.77494 0.29138 0.04589
 N2642 N 0.78756 0.28329 0.05495
 H2643 H 0.82661 0.28431 0.09709
 H2644 H 0.76039 0.31497 0.04317
 C2645 C 0.79622 0.80696 0.57000
 C2646 C 0.80334 0.79143 0.56423
 N2647 N 0.81749 0.78495 0.57218
 C2648 C 0.82477 0.79318 0.58579
 C2649 C 0.81749 0.80857 0.59191
 N2650 N 0.80339 0.81513 0.58371
 N2651 N 0.78198 0.81337 0.56208
 C2652 C 0.77442 0.80483 0.54878
 C2653 C 0.78131 0.78909 0.54326
 N2654 N 0.79570 0.78281 0.55109
 H2655 H 0.83596 0.78754 0.59186
 H2656 H 0.76291 0.81001 0.54283
 C2657 C 0.28985 0.68763 0.42590
 C2658 C 0.29566 0.70384 0.43145
 N2659 N 0.30963 0.71122 0.42380
 C2660 C 0.31804 0.70320 0.41075
 C2661 C 0.31215 0.68705 0.40495
 N2662 N 0.29816 0.67966 0.41277
 N2663 N 0.27583 0.68028 0.43355
 C2664 C 0.26728 0.68848 0.44644
 C2665 C 0.27296 0.70479 0.45181
 N2666 N 0.28707 0.71207 0.44420
 H2667 H 0.32901 0.70957 0.40485
 H2668 H 0.25604 0.68249 0.45227
 C2669 C 0.30427 0.20896 0.92120
 C2670 C 0.28821 0.20246 0.92674
 N2671 N 0.28143 0.18831 0.91908
 C2672 C 0.28987 0.18039 0.90600
 C2673 C 0.30584 0.18699 0.90014
 N2674 N 0.31268 0.20113 0.90802
 N2675 N 0.31102 0.22315 0.92892
 C2676 C 0.30237 0.23119 0.94185
 C2677 C 0.28620 0.22482 0.94719
 N2678 N 0.27953 0.21055 0.93951
 H2679 H 0.28400 0.16917 0.90020
 H2680 H 0.30791 0.24255 0.94776
 C2681 C 0.81014 0.70878 0.93305
 C2682 C 0.79210 0.70896 0.93497
 N2683 N 0.78207 0.69990 0.92384
 C2684 C 0.78926 0.69080 0.91073
 C2685 C 0.80733 0.69094 0.90854
 N2686 N 0.81729 0.69991 0.91987
 N2687 N 0.82022 0.71781 0.94414
 C2688 C 0.81305 0.72718 0.95702
 C2689 C 0.79499 0.72768 0.95878
 N2690 N 0.78490 0.71849 0.94771
 H2691 H 0.78092 0.68389 0.90195
 H2692 H 0.82130 0.73446 0.96560
 C2693 C 0.79946 0.20678 0.42745
 C2694 C 0.78514 0.19791 0.43427
 N2695 N 0.78035 0.18257 0.42744
 C2696 C 0.78916 0.17570 0.41398
 C2697 C 0.80341 0.18463 0.40693
 N2698 N 0.80823 0.19997 0.41397
 N2699 N 0.80415 0.22222 0.43421
 C2700 C 0.79507 0.22924 0.44743
 C2701 C 0.78067 0.22042 0.45416
 N2702 N 0.77605 0.20493 0.44742
 H2703 H 0.78494 0.16348 0.40883
 H2704 H 0.79892 0.24163 0.45254
 C2705 C 0.69281 0.29256 0.43055
 C2706 C 0.71030 0.29661 0.43332
 N2707 N 0.71822 0.30850 0.42315
 C2708 C 0.70947 0.31647 0.41024
 C2709 C 0.69204 0.31218 0.40718
 N2710 N 0.68415 0.30032 0.41751
 N2711 N 0.68483 0.28078 0.44082
 C2712 C 0.69361 0.27275 0.45365
 C2713 C 0.71120 0.27650 0.45619
 N2714 N 0.71915 0.28840 0.44596
 H2715 H 0.71621 0.32575 0.40226
 H2716 H 0.68706 0.26327 0.46158
 C2717 C 0.71867 0.80986 0.93057
 C2718 C 0.71359 0.79364 0.93686
 N2719 N 0.69996 0.78535 0.92964
 C2720 C 0.69114 0.79251 0.91635
 C2721 C 0.69628 0.80867 0.90983
 N2722 N 0.70998 0.81695 0.91716
 N2723 N 0.73228 0.81817 0.93789
 C2724 C 0.74112 0.81092 0.95115
 C2725 C 0.73620 0.79459 0.95725
 N2726 N 0.72252 0.78633 0.94995
 H2727 H 0.68045 0.78544 0.91080
 H2728 H 0.75203 0.81766 0.95673
 C2729 C 0.19452 0.29149 0.92152
 C2730 C 0.20982 0.29887 0.92791
 N2731 N 0.21585 0.31379 0.92107
 C2732 C 0.20739 0.32164 0.90796
 C2733 C 0.19220 0.31417 0.90122
 N2734 N 0.18608 0.29926 0.90831
 N2735 N 0.18855 0.27650 0.92843
 C2736 C 0.19729 0.26853 0.94136
 C2737 C 0.21272 0.27582 0.94755
 N2738 N 0.21858 0.29087 0.94069
 H2739 H 0.21264 0.33351 0.90285
 H2740 H 0.19241 0.25653 0.94661
 C2741 C 0.19544 0.78665 0.42317
 C2742 C 0.21357 0.78563 0.42324
 N2743 N 0.22278 0.79300 0.41030
 C2744 C 0.21472 0.80139 0.39727
 C2745 C 0.19654 0.80242 0.39707
 N2746 N 0.18734 0.79494 0.41008
 N2747 N 0.18626 0.77938 0.43623
 C2748 C 0.19440 0.77111 0.44934
 C2749 C 0.21253 0.76997 0.44932
 N2750 N 0.22168 0.77729 0.43623
 H2751 H 0.22248 0.80702 0.38712
 H2752 H 0.18686 0.76536 0.45961
 C2753 C 0.71348 0.69902 0.57202
 C2754 C 0.70980 0.71637 0.56864
 N2755 N 0.69858 0.72492 0.57885
 C2756 C 0.69079 0.71695 0.59235
 C2757 C 0.69435 0.69953 0.59591
 N2758 N 0.70569 0.69097 0.58557
 N2759 N 0.72487 0.69058 0.56175
 C2760 C 0.73277 0.69876 0.54832
 C2761 C 0.72913 0.71617 0.54504
 N2762 N 0.71767 0.72450 0.55532
 H2763 H 0.68198 0.72431 0.60018
 H2764 H 0.74192 0.69187 0.54040
 C2765 C 0.69349 0.21151 0.07095
 C2766 C 0.71083 0.20768 0.06732
 N2767 N 0.71908 0.19551 0.07674
 C2768 C 0.71081 0.18702 0.08971
 C2769 C 0.69349 0.19099 0.09358
 N2770 N 0.68528 0.20318 0.08402
 N2771 N 0.68519 0.22362 0.06147
 C2772 C 0.69349 0.23216 0.04856
 C2773 C 0.71091 0.22853 0.04508
 N2774 N 0.71919 0.21634 0.05456
 H2775 H 0.71781 0.17751 0.09706
 H2776 H 0.68669 0.24185 0.04123
 C2777 C 0.21450 0.69238 0.07198
 C2778 C 0.21446 0.71040 0.07067
 N2779 N 0.20631 0.71986 0.08283
 C2780 C 0.19816 0.71214 0.09631
 C2781 C 0.19816 0.69407 0.09775
 N2782 N 0.20639 0.68464 0.08547
 N2783 N 0.22278 0.68296 0.05982
 C2784 C 0.23109 0.69077 0.04644
 C2785 C 0.23115 0.70882 0.04519
 N2786 N 0.22277 0.71818 0.05737
 H2787 H 0.19190 0.72011 0.10580
 H2788 H 0.23779 0.68303 0.03701
 C2789 C 0.19261 0.21202 0.57634
 C2790 C 0.21005 0.20834 0.57301
 N2791 N 0.21851 0.19694 0.58313
 C2792 C 0.21037 0.18905 0.59651
 C2793 C 0.19294 0.19282 0.60010
 N2794 N 0.18448 0.20428 0.58985
 N2795 N 0.18415 0.22338 0.56609
 C2796 C 0.19240 0.23131 0.55274
 C2797 C 0.20993 0.22783 0.54961
 N2798 N 0.21833 0.21639 0.55984
 H2799 H 0.21760 0.18015 0.60438
 H2800 H 0.18548 0.24045 0.54483
   
