data_POSCAR
  _audit_creation_date              2014-09-24
  _audit_creation_method            'ToBaCCo'
  _symmetry_space_group_name_H-M    'P1'
  _symmetry_Int_Tables_number       1
  _symmetry_cell_setting            triclinic
  loop_
  _symmetry_equiv_pos_as_xyz
 x,y,z
_cell_length_a 83.9566
_cell_length_b 83.8160
_cell_length_c 84.3204
_cell_angle_alpha 89.985900
_cell_angle_beta 89.938900
_cell_angle_gamma 90.571300
loop_
  _atom_site_label
  _atom_site_type_symbol
  _atom_site_fract_x
  _atom_site_fract_y
  _atom_site_fract_z
N1 N 0.18139 0.22080 0.22333
 N2 N 0.18559 0.20868 0.23221
 C3 C 0.17494 0.20690 0.24406
 C4 C 0.16343 0.21855 0.24255
 C5 C 0.16797 0.22716 0.22922
 H6 H 0.17555 0.19780 0.25311
 H7 H 0.16187 0.23716 0.22401
 Cu8 Cu 0.20442 0.19623 0.22735
 Cu9 Cu 0.19342 0.22729 0.20464
 Cu10 Cu 0.22644 0.20480 0.19498
 N11 N 0.22272 0.18347 0.22140
 N12 N 0.23127 0.18687 0.20877
 C13 C 0.24297 0.17611 0.20733
 C14 C 0.24171 0.16530 0.21972
 C15 C 0.22868 0.17038 0.22841
 H16 H 0.25159 0.17606 0.19781
 H17 H 0.22388 0.16498 0.23904
 N18 N 0.21964 0.22339 0.18249
 N19 N 0.20709 0.23197 0.18619
 C20 C 0.20550 0.24369 0.17540
 C21 C 0.21762 0.24245 0.16432
 C22 C 0.22635 0.22942 0.16924
 H23 H 0.19606 0.25236 0.17549
 H24 H 0.23686 0.22468 0.16362
 H25 H 0.20226 0.20485 0.19983
 H26 H 0.21514 0.21850 0.21190
 N27 N 0.68067 0.72029 0.72132
 N28 N 0.68459 0.70791 0.72998
 C29 C 0.67389 0.70614 0.74179
 C30 C 0.66263 0.71806 0.74047
 C31 C 0.66737 0.72681 0.72730
 H32 H 0.67418 0.69675 0.75056
 H33 H 0.66164 0.73719 0.72241
 Cu34 Cu 0.70316 0.69521 0.72478
 Cu35 Cu 0.69295 0.72698 0.70284
 Cu36 Cu 0.72609 0.70450 0.69335
 N37 N 0.72179 0.68270 0.71934
 N38 N 0.73067 0.68639 0.70702
 C39 C 0.74256 0.67582 0.70579
 C40 C 0.74110 0.66484 0.71801
 C41 C 0.72774 0.66963 0.72638
 H42 H 0.75160 0.67615 0.69666
 H43 H 0.72260 0.66390 0.73669
 N44 N 0.71948 0.72327 0.68098
 N45 N 0.70689 0.73183 0.68460
 C46 C 0.70546 0.74366 0.67390
 C47 C 0.71772 0.74251 0.66297
 C48 C 0.72637 0.72942 0.66788
 H49 H 0.69602 0.75233 0.67394
 H50 H 0.73695 0.72472 0.66235
 H51 H 0.70182 0.70470 0.69748
 H52 H 0.71444 0.71784 0.71030
 N53 N 0.31700 0.77866 0.72336
 N54 N 0.31274 0.79079 0.73221
 C55 C 0.32330 0.79258 0.74410
 C56 C 0.33481 0.78092 0.74267
 C57 C 0.33037 0.77231 0.72934
 H58 H 0.32264 0.80171 0.75312
 H59 H 0.33652 0.76231 0.72416
 Cu60 Cu 0.29398 0.80330 0.72721
 Cu61 Cu 0.30512 0.77220 0.70460
 Cu62 Cu 0.27229 0.79479 0.69465
 N63 N 0.27580 0.81613 0.72107
 N64 N 0.26739 0.81277 0.70836
 C65 C 0.25578 0.82359 0.70677
 C66 C 0.25691 0.83448 0.71917
 C67 C 0.26984 0.82925 0.72800
 H68 H 0.24728 0.82352 0.69717
 H69 H 0.27470 0.83461 0.73860
 N70 N 0.27913 0.77615 0.68225
 N71 N 0.29162 0.76753 0.68605
 C72 C 0.29328 0.75580 0.67528
 C73 C 0.28127 0.75708 0.66411
 C74 C 0.27253 0.77014 0.66896
 H75 H 0.30270 0.74712 0.67544
 H76 H 0.26210 0.77491 0.66326
 H77 H 0.29640 0.79469 0.69970
 H78 H 0.28335 0.78107 0.71166
 N79 N 0.81871 0.27954 0.22197
 N80 N 0.81444 0.29167 0.23079
 C81 C 0.82506 0.29359 0.24261
 C82 C 0.83671 0.28199 0.24117
 C83 C 0.83216 0.27329 0.22786
 H84 H 0.82435 0.30283 0.25149
 H85 H 0.83816 0.26321 0.22268
 Cu86 Cu 0.79555 0.30401 0.22589
 Cu87 Cu 0.80668 0.27287 0.20337
 Cu88 Cu 0.77356 0.29513 0.19361
 N89 N 0.77722 0.31668 0.21983
 N90 N 0.76868 0.31315 0.20725
 C91 C 0.75695 0.32387 0.20574
 C92 C 0.75818 0.33480 0.21802
 C93 C 0.77123 0.32982 0.22672
 H94 H 0.74833 0.32382 0.19623
 H95 H 0.77602 0.33533 0.23729
 N96 N 0.78042 0.27645 0.18126
 N97 N 0.79301 0.26797 0.18499
 C98 C 0.79465 0.25616 0.17430
 C99 C 0.78250 0.25725 0.16325
 C100 C 0.77371 0.27028 0.16809
 H101 H 0.80413 0.24755 0.17443
 H102 H 0.76317 0.27492 0.16248
 H103 H 0.79772 0.29524 0.19841
 H104 H 0.78491 0.28160 0.21060
 N105 N 0.81773 0.72190 0.27776
 N106 N 0.81404 0.70916 0.26940
 C107 C 0.82472 0.70755 0.25760
 C108 C 0.83575 0.71994 0.25860
 C109 C 0.83088 0.72880 0.27158
 H110 H 0.82460 0.69795 0.24906
 H111 H 0.83643 0.73950 0.27622
 Cu112 Cu 0.79577 0.69581 0.27496
 Cu113 Cu 0.80538 0.72848 0.29615
 Cu114 Cu 0.77245 0.70517 0.30594
 N115 N 0.77711 0.68299 0.28042
 N116 N 0.76806 0.68671 0.29256
 C117 C 0.75618 0.67589 0.29383
 C118 C 0.75781 0.66474 0.28182
 C119 C 0.77126 0.66967 0.27354
 H120 H 0.74701 0.67620 0.30283
 H121 H 0.77654 0.66389 0.26339
 N122 N 0.77884 0.72431 0.31802
 N123 N 0.79139 0.73316 0.31432
 C124 C 0.79274 0.74514 0.32489
 C125 C 0.78045 0.74381 0.33580
 C126 C 0.77188 0.73045 0.33102
 H127 H 0.80199 0.75419 0.32463
 H128 H 0.76147 0.72539 0.33674
 H129 H 0.79676 0.70607 0.30201
 H130 H 0.78410 0.71844 0.28871
 N131 N 0.31821 0.22230 -0.22265
 N132 N 0.31409 0.21012 -0.23159
 C133 C 0.32475 0.20866 -0.24342
 C134 C 0.33626 0.22060 -0.24188
 C135 C 0.33160 0.22902 -0.22849
 H136 H 0.32416 0.19947 -0.25238
 H137 H 0.33749 0.23922 -0.22320
 Cu138 Cu 0.29538 0.19709 -0.22678
 Cu139 Cu 0.30608 0.22839 -0.20396
 Cu140 Cu 0.27327 0.20493 -0.19438
 N141 N 0.27724 0.18374 -0.22080
 N142 N 0.26864 0.18688 -0.20819
 C143 C 0.25704 0.17577 -0.20677
 C144 C 0.25843 0.16500 -0.21915
 C145 C 0.27142 0.17048 -0.22782
 H146 H 0.24840 0.17546 -0.19726
 H147 H 0.27629 0.16523 -0.23844
 N148 N 0.27985 0.22371 -0.18187
 N149 N 0.29234 0.23265 -0.18552
 C150 C 0.29379 0.24441 -0.17472
 C151 C 0.28163 0.24283 -0.16369
 C152 C 0.27304 0.22954 -0.16865
 H153 H 0.30302 0.25348 -0.17492
 H154 H 0.26267 0.22436 -0.16297
 H155 H 0.29743 0.20567 -0.19922
 H156 H 0.28445 0.21900 -0.21126
 N157 N 0.68254 0.27775 -0.22236
 N158 N 0.68630 0.29041 -0.23080
 C159 C 0.67575 0.29190 -0.24271
 C160 C 0.66467 0.27949 -0.24173
 C161 C 0.66948 0.27075 -0.22859
 H162 H 0.67612 0.30140 -0.25136
 H163 H 0.66393 0.26014 -0.22375
 Cu164 Cu 0.70451 0.30382 -0.22523
 Cu165 Cu 0.69466 0.27138 -0.20376
 Cu166 Cu 0.72742 0.29484 -0.19388
 N167 N 0.72311 0.31670 -0.21973
 N168 N 0.73200 0.31311 -0.20745
 C169 C 0.74386 0.32395 -0.20616
 C170 C 0.74237 0.33500 -0.21829
 C171 C 0.72904 0.32996 -0.22668
 H172 H 0.75288 0.32376 -0.19703
 H173 H 0.72388 0.33566 -0.23693
 N174 N 0.72086 0.27586 -0.18161
 N175 N 0.70841 0.26692 -0.18538
 C176 C 0.70696 0.25504 -0.17470
 C177 C 0.71906 0.25656 -0.16362
 C178 C 0.72763 0.26992 -0.16843
 H179 H 0.69762 0.24608 -0.17485
 H180 H 0.73807 0.27495 -0.16278
 H181 H 0.70317 0.29385 -0.19808
 H182 H 0.71603 0.28135 -0.21109
 N183 N 0.18238 0.77839 0.27736
 N184 N 0.18609 0.79103 0.26886
 C185 C 0.17552 0.79240 0.25693
 C186 C 0.16456 0.77996 0.25802
 C187 C 0.16935 0.77132 0.27117
 H188 H 0.17568 0.80187 0.24824
 H189 H 0.16381 0.76065 0.27592
 Cu190 Cu 0.20420 0.80458 0.27439
 Cu191 Cu 0.19457 0.77213 0.29595
 Cu192 Cu 0.22727 0.79574 0.30567
 N193 N 0.22275 0.81756 0.27983
 N194 N 0.23171 0.81404 0.29207
 C195 C 0.24354 0.82490 0.29328
 C196 C 0.24200 0.83597 0.28111
 C197 C 0.22860 0.83082 0.27281
 H198 H 0.25251 0.82470 0.30245
 H199 H 0.22338 0.83628 0.26248
 N200 N 0.22084 0.77673 0.31798
 N201 N 0.20838 0.76776 0.31429
 C202 C 0.20700 0.75590 0.32500
 C203 C 0.21918 0.75744 0.33599
 C204 C 0.22771 0.77080 0.33111
 H205 H 0.19781 0.74679 0.32478
 H206 H 0.23803 0.77598 0.33684
 H207 H 0.20301 0.79466 0.30157
 H208 H 0.21587 0.78220 0.28853
 N209 N 0.47142 0.43247 0.47400
 N210 N 0.45927 0.43679 0.48277
 C211 C 0.45745 0.42630 0.49476
 C212 C 0.46911 0.41477 0.49347
 C213 C 0.47776 0.41914 0.48011
 H214 H 0.44829 0.42702 0.50373
 H215 H 0.48779 0.41298 0.47503
 Cu216 Cu 0.44678 0.45552 0.47758
 Cu217 Cu 0.47795 0.44425 0.45517
 Cu218 Cu 0.45541 0.47703 0.44485
 N219 N 0.43396 0.47364 0.47120
 N220 N 0.43736 0.48196 0.45842
 C221 C 0.42651 0.49354 0.45666
 C222 C 0.41565 0.49246 0.46902
 C223 C 0.42080 0.47965 0.47801
 H224 H 0.42657 0.50209 0.44707
 H225 H 0.41524 0.47489 0.48858
 N226 N 0.47413 0.47016 0.43262
 N227 N 0.48270 0.45767 0.43654
 C228 C 0.49448 0.45595 0.42584
 C229 C 0.49330 0.46794 0.41460
 C230 C 0.48023 0.47672 0.41934
 H231 H 0.50329 0.44666 0.42624
 H232 H 0.47537 0.48701 0.41342
 H233 H 0.46904 0.46611 0.46203
 H234 H 0.45552 0.45293 0.45013
 N235 N -0.02932 -0.06925 0.97241
 N236 N -0.04183 -0.06535 0.98088
 C237 C -0.04358 -0.07587 0.99285
 C238 C -0.03152 -0.08702 0.99182
 C239 C -0.02270 -0.08238 0.97867
 H240 H -0.05306 -0.07557 1.00151
 H241 H -0.01223 -0.08808 0.97396
 Cu242 Cu -0.05474 -0.04706 0.97521
 Cu243 Cu -0.02265 -0.05723 0.95374
 Cu244 Cu -0.04520 -0.02430 0.94370
 N245 N -0.06714 -0.02839 0.96961
 N246 N -0.06335 -0.01957 0.95726
 C247 C -0.07389 -0.00766 0.95591
 C248 C -0.08494 -0.00904 0.96807
 C249 C -0.08022 -0.02236 0.97654
 H250 H -0.07349 0.00133 0.94672
 H251 H -0.08602 -0.02745 0.98683
 N252 N -0.02640 -0.03103 0.93148
 N253 N -0.01783 -0.04356 0.93529
 C254 C -0.00603 -0.04517 0.92460
 C255 C -0.00719 -0.03307 0.91347
 C256 C -0.02027 -0.02434 0.91827
 H257 H 0.00264 -0.05460 0.92481
 H258 H -0.02503 -0.01388 0.91256
 H259 H -0.03206 -0.03572 0.96093
 H260 H -0.04490 -0.04857 0.94802
 N261 N 1.02779 0.56558 0.97472
 N262 N 1.04127 0.56289 0.98211
 C263 C 1.04352 0.57422 0.99323
 C264 C 1.03074 0.58458 0.99282
 C265 C 1.02099 0.57865 0.98089
 H266 H 1.05378 0.57495 1.00093
 H267 H 1.00974 0.58340 0.97696
 Cu268 Cu 1.05448 0.54490 0.97624
 Cu269 Cu 1.01993 0.55186 0.95774
 Cu270 Cu 1.04560 0.52255 0.94437
 N271 N 1.06736 0.52665 0.97043
 N272 N 1.06398 0.51816 0.95775
 C273 C 1.07484 0.50658 0.95614
 C274 C 1.08567 0.50781 0.96849
 C275 C 1.08050 0.52072 0.97733
 H276 H 1.07473 0.49783 0.94672
 H277 H 1.08599 0.52558 0.98788
 N278 N 1.02621 0.52875 0.93282
 N279 N 1.01631 0.53968 0.93806
 C280 C 1.00429 0.54120 0.92763
 C281 C 1.00667 0.53066 0.91521
 C282 C 1.02071 0.52297 0.91895
 H283 H 0.99457 0.54943 0.92900
 H284 H 1.02661 0.51396 0.91200
 H285 H 1.03256 0.53112 0.96284
 H286 H 1.04255 0.54650 0.95012
 N287 N 0.52925 0.06893 0.47297
 N288 N 0.54141 0.06474 0.48178
 C289 C 0.54313 0.07531 0.49370
 C290 C 0.53139 0.08675 0.49232
 C291 C 0.52281 0.08226 0.47899
 H292 H 0.55224 0.07470 0.50271
 H293 H 0.51275 0.08833 0.47386
 Cu294 Cu 0.55398 0.04603 0.47672
 Cu295 Cu 0.52281 0.05698 0.45423
 Cu296 Cu 0.54550 0.02418 0.44423
 N297 N 0.56686 0.02787 0.47057
 N298 N 0.56349 0.01938 0.45789
 C299 C 0.57432 0.00775 0.45633
 C300 C 0.58514 0.00899 0.46868
 C301 C 0.57999 0.02193 0.47748
 H302 H 0.57440 -0.00081 0.44675
 H303 H 0.58537 0.02669 0.48813
 N304 N 0.52684 0.03093 0.43188
 N305 N 0.51818 0.04340 0.43570
 C306 C 0.50642 0.04498 0.42499
 C307 C 0.50771 0.03294 0.41383
 C308 C 0.52081 0.02426 0.41862
 H309 H 0.49769 0.05436 0.42519
 H310 H 0.52560 0.01381 0.41292
 H311 H 0.53179 0.03523 0.46129
 H312 H 0.54527 0.04835 0.44925
 N313 N -0.02779 0.06867 0.52760
 N314 N -0.04042 0.06486 0.51917
 C315 C -0.04190 0.07539 0.50721
 C316 C -0.02954 0.08645 0.50818
 C317 C -0.02083 0.08175 0.52131
 H318 H -0.05141 0.07516 0.49859
 H319 H -0.01020 0.08739 0.52599
 Cu320 Cu -0.05385 0.04670 0.52488
 Cu321 Cu -0.02144 0.05659 0.54625
 Cu322 Cu -0.04492 0.02384 0.55634
 N323 N -0.06676 0.02813 0.53051
 N324 N -0.06323 0.01928 0.54285
 C325 C -0.07409 0.00745 0.54422
 C326 C -0.08509 0.00891 0.53207
 C327 C -0.08000 0.02220 0.52360
 H328 H -0.07394 -0.00155 0.55340
 H329 H -0.08563 0.02732 0.51329
 N330 N -0.02591 0.03039 0.56849
 N331 N -0.01700 0.04287 0.56468
 C332 C -0.00514 0.04436 0.57533
 C333 C -0.00661 0.03223 0.58642
 C334 C -0.01993 0.02361 0.58166
 H335 H 0.00393 0.05359 0.57500
 H336 H -0.02507 0.01330 0.58749
 H337 H -0.03145 0.03517 0.53906
 H338 H -0.04390 0.04812 0.55202
 N339 N 0.47324 0.56704 0.02678
 N340 N 0.46108 0.56286 0.01786
 C341 C 0.45973 0.57338 0.00588
 C342 C 0.47171 0.58479 0.00732
 C343 C 0.48006 0.58032 0.02076
 H344 H 0.45068 0.57276 -0.00321
 H345 H 0.49019 0.58638 0.02596
 Cu346 Cu 0.44797 0.54424 0.02286
 Cu347 Cu 0.47914 0.55517 0.04568
 Cu348 Cu 0.45550 0.52256 0.05559
 N349 N 0.43456 0.52619 0.02898
 N350 N 0.43757 0.51776 0.04174
 C351 C 0.42645 0.50619 0.04325
 C352 C 0.41580 0.50740 0.03076
 C353 C 0.42137 0.52027 0.02195
 H354 H 0.42605 0.49769 0.05288
 H355 H 0.41622 0.52500 0.01121
 N356 N 0.47417 0.52927 0.06814
 N357 N 0.48319 0.54167 0.06435
 C358 C 0.49488 0.54321 0.07520
 C359 C 0.49314 0.53121 0.08639
 C360 C 0.47986 0.52261 0.08148
 H361 H 0.50388 0.55251 0.07505
 H362 H 0.47474 0.51220 0.08715
 H363 H 0.46969 0.53344 0.03865
 H364 H 0.45638 0.54670 0.05042
 N365 N 0.52729 -0.06784 0.02741
 N366 N 0.53951 -0.06370 0.01852
 C367 C 0.54093 -0.07428 0.00659
 C368 C 0.52894 -0.08569 0.00806
 C369 C 0.52052 -0.08116 0.02145
 H370 H 0.55015 -0.07382 -0.00235
 H371 H 0.51021 -0.08707 0.02651
 Cu372 Cu 0.55258 -0.04506 0.02351
 Cu373 Cu 0.52119 -0.05582 0.04616
 Cu374 Cu 0.54467 -0.02308 0.05597
 N375 N 0.56593 -0.02695 0.02958
 N376 N 0.56279 -0.01843 0.04225
 C377 C 0.57392 -0.00688 0.04379
 C378 C 0.58470 -0.00819 0.03140
 C379 C 0.57920 -0.02110 0.02262
 H380 H 0.57411 0.00182 0.05324
 H381 H 0.58458 -0.02603 0.01209
 N382 N 0.52584 -0.02969 0.06838
 N383 N 0.51691 -0.04217 0.06466
 C384 C 0.50514 -0.04367 0.07544
 C385 C 0.50669 -0.03154 0.08651
 C386 C 0.51997 -0.02291 0.08160
 H387 H 0.49607 -0.05290 0.07519
 H388 H 0.52513 -0.01257 0.08734
 H389 H 0.53067 -0.03413 0.03900
 H390 H 0.54387 -0.04725 0.05103
 N391 N 1.02779 0.43278 0.52813
 N392 N 1.04047 0.43646 0.51970
 C393 C 1.04183 0.42593 0.50771
 C394 C 1.02934 0.41503 0.50868
 C395 C 1.02067 0.41980 0.52183
 H396 H 1.05133 0.42608 0.49907
 H397 H 1.00996 0.41431 0.52649
 Cu398 Cu 1.05405 0.45452 0.52536
 Cu399 Cu 1.02154 0.44492 0.54678
 Cu400 Cu 1.04524 0.47750 0.55677
 N401 N 1.06708 0.47301 0.53093
 N402 N 1.06358 0.48192 0.54324
 C403 C 1.07448 0.49372 0.54453
 C404 C 1.08547 0.49217 0.53237
 C405 C 1.08034 0.47886 0.52397
 H406 H 1.07435 0.50277 0.55365
 H407 H 1.08595 0.47369 0.51367
 N408 N 1.02620 0.47109 0.56899
 N409 N 1.01720 0.45868 0.56520
 C410 C 1.00531 0.45730 0.57587
 C411 C 1.00686 0.46943 0.58693
 C412 C 1.02026 0.47794 0.58214
 H413 H 0.99617 0.44815 0.57556
 H414 H 1.02546 0.48823 0.58794
 H415 H 1.03174 0.46626 0.53954
 H416 H 1.04407 0.45323 0.55251
 C417 C 0.35727 -0.01293 0.25227
 C418 C 0.36561 0.00147 0.25024
 C419 C 0.35727 0.01571 0.24819
 C420 C 0.34054 0.01567 0.24814
 C421 C 0.33228 0.00114 0.25020
 C422 C 0.34053 -0.01323 0.25228
 C423 C 0.38312 0.00165 0.25023
 C424 C 0.39145 -0.00119 0.23613
 C425 C 0.40819 -0.00089 0.23595
 C426 C 0.41644 0.00219 0.25014
 C427 C 0.40819 0.00503 0.26437
 C428 C 0.39146 0.00476 0.26428
 H429 H 0.36385 -0.02390 0.25367
 H430 H 0.36386 0.02681 0.24680
 H431 H 0.38487 -0.00336 0.22529
 H432 H 0.38488 0.00712 0.27507
 H433 H 0.31938 0.00101 0.25018
 H434 H 0.42934 0.00195 0.25020
 C435 C 0.14309 -0.01548 0.74702
 C436 C 0.13481 -0.00127 0.74946
 C437 C 0.14321 0.01307 0.75165
 C438 C 0.15995 0.01333 0.75147
 C439 C 0.16814 -0.00101 0.74900
 C440 C 0.15983 -0.01547 0.74672
 C441 C 0.11731 -0.00137 0.74953
 C442 C 0.10899 -0.00461 0.76359
 C443 C 0.09226 -0.00465 0.76380
 C444 C 0.08398 -0.00144 0.74968
 C445 C 0.09221 0.00181 0.73550
 C446 C 0.10894 0.00182 0.73555
 H447 H 0.13646 -0.02647 0.74510
 H448 H 0.13667 0.02402 0.75333
 H449 H 0.11559 -0.00723 0.77430
 H450 H 0.11550 0.00450 0.72478
 H451 H 0.18104 -0.00098 0.74926
 H452 H 0.07108 -0.00145 0.74974
 C453 C 0.64269 0.48438 0.24689
 C454 C 0.63434 0.49850 0.24965
 C455 C 0.64267 0.51284 0.25208
 C456 C 0.65940 0.51321 0.25179
 C457 C 0.66766 0.49896 0.24902
 C458 C 0.65942 0.48449 0.24653
 C459 C 0.61684 0.49830 0.24978
 C460 C 0.60858 0.49537 0.26394
 C461 C 0.59185 0.49510 0.26417
 C462 C 0.58351 0.49782 0.24998
 C463 C 0.59168 0.50075 0.23569
 C464 C 0.60841 0.50098 0.23573
 H465 H 0.63611 0.47340 0.24481
 H466 H 0.63607 0.52372 0.25398
 H467 H 0.61523 0.49312 0.27470
 H468 H 0.61493 0.50304 0.22481
 H469 H 0.68056 0.49907 0.24920
 H470 H 0.57062 0.49809 0.25015
 C471 C 0.85714 0.48745 0.75314
 C472 C 0.86545 0.50178 0.75061
 C473 C 0.85709 0.51596 0.74826
 C474 C 0.84036 0.51593 0.74842
 C475 C 0.83213 0.50146 0.75096
 C476 C 0.84040 0.48716 0.75337
 C477 C 0.88296 0.50198 0.75057
 C478 C 0.89129 0.49941 0.73642
 C479 C 0.90802 0.49971 0.73623
 C480 C 0.91628 0.50257 0.75046
 C481 C 0.90804 0.50516 0.76474
 C482 C 0.89131 0.50485 0.76466
 H483 H 0.86374 0.47659 0.75517
 H484 H 0.86366 0.52702 0.74652
 H485 H 0.88469 0.49741 0.72554
 H486 H 0.88473 0.50701 0.77550
 H487 H 0.81923 0.50125 0.75065
 H488 H 0.92918 0.50235 0.75050
 C489 C 0.25169 0.35816 -0.01405
 C490 C 0.24902 0.36657 0.00003
 C491 C 0.24600 0.35827 0.01415
 C492 C 0.24563 0.34151 0.01431
 C493 C 0.24832 0.33319 0.00009
 C494 C 0.25134 0.34140 -0.01416
 C495 C 0.24928 0.38411 -0.00005
 C496 C 0.23519 0.39251 -0.00263
 C497 C 0.23535 0.40927 -0.00299
 C498 C 0.24984 0.41748 -0.00065
 C499 C 0.26406 0.40916 0.00195
 C500 C 0.26365 0.39240 0.00223
 H501 H 0.25381 0.36472 -0.02494
 H502 H 0.24375 0.36491 0.02493
 H503 H 0.22418 0.38596 -0.00462
 H504 H 0.27451 0.38576 0.00400
 H505 H 0.24850 0.32027 0.00020
 H506 H 0.24998 0.43040 -0.00046
 C507 C 0.74895 0.14056 -0.01445
 C508 C 0.75163 0.13219 -0.00035
 C509 C 0.75461 0.14053 0.01374
 C510 C 0.75492 0.15730 0.01385
 C511 C 0.75220 0.16557 -0.00038
 C512 C 0.74924 0.15731 -0.01461
 C513 C 0.75143 0.11466 -0.00036
 C514 C 0.76554 0.10628 -0.00295
 C515 C 0.76543 0.08952 -0.00321
 C516 C 0.75096 0.08128 -0.00076
 C517 C 0.73672 0.08957 0.00185
 C518 C 0.73708 0.10633 0.00202
 H519 H 0.74688 0.13397 -0.02533
 H520 H 0.75686 0.13393 0.02455
 H521 H 0.77652 0.11286 -0.00502
 H522 H 0.72620 0.11294 0.00379
 H523 H 0.75198 0.17849 -0.00031
 H524 H 0.75086 0.06836 -0.00048
 C525 C 0.24912 0.64167 0.48530
 C526 C 0.25164 0.63327 0.49942
 C527 C 0.25445 0.64158 0.51356
 C528 C 0.25475 0.65834 0.51372
 C529 C 0.25219 0.66665 0.49948
 C530 C 0.24939 0.65843 0.48520
 C531 C 0.25144 0.61574 0.49936
 C532 C 0.26554 0.60737 0.49667
 C533 C 0.26545 0.59061 0.49643
 C534 C 0.25100 0.58236 0.49896
 C535 C 0.23677 0.59064 0.50166
 C536 C 0.23713 0.60740 0.50185
 H537 H 0.24717 0.63511 0.47440
 H538 H 0.25659 0.63495 0.52438
 H539 H 0.27651 0.61396 0.49454
 H540 H 0.22626 0.61401 0.50372
 H541 H 0.25195 0.67957 0.49958
 H542 H 0.25091 0.56944 0.49924
 C543 C 0.75106 0.85956 0.48534
 C544 C 0.74879 0.86782 0.49957
 C545 C 0.74643 0.85938 0.51372
 C546 C 0.74633 0.84262 0.51377
 C547 C 0.74861 0.83444 0.49940
 C548 C 0.75098 0.84280 0.48511
 C549 C 0.74893 0.88535 0.49968
 C550 C 0.73478 0.89370 0.49725
 C551 C 0.73478 0.91046 0.49735
 C552 C 0.74921 0.91874 0.49986
 C553 C 0.76350 0.91048 0.50228
 C554 C 0.76322 0.89371 0.50220
 H555 H 0.75271 0.86622 0.47443
 H556 H 0.74488 0.86590 0.52470
 H557 H 0.72375 0.88709 0.49550
 H558 H 0.77413 0.88713 0.50387
 H559 H 0.74855 0.82151 0.49933
 H560 H 0.74932 0.93166 0.49993
 C561 C -0.01483 0.25446 0.35742
 C562 C -0.00092 0.25099 0.36584
 C563 C 0.01311 0.24742 0.35765
 C564 C 0.01337 0.24733 0.34099
 C565 C -0.00068 0.25078 0.33266
 C566 C -0.01485 0.25433 0.34076
 C567 C -0.00107 0.25110 0.38327
 C568 C -0.00317 0.23681 0.39165
 C569 C -0.00357 0.23681 0.40831
 C570 C -0.00166 0.25134 0.41645
 C571 C 0.00050 0.26576 0.40816
 C572 C 0.00073 0.26551 0.39150
 H573 H -0.02558 0.25736 0.36389
 H574 H 0.02376 0.24460 0.36429
 H575 H -0.00480 0.22576 0.38515
 H576 H 0.00218 0.27652 0.38489
 H577 H -0.00058 0.25069 0.31981
 H578 H -0.00145 0.25137 0.42929
 C579 C -0.01404 0.74667 0.14227
 C580 C 0.00016 0.74897 0.13380
 C581 C 0.01457 0.75099 0.14195
 C582 C 0.01490 0.75077 0.15860
 C583 C 0.00057 0.74844 0.16698
 C584 C -0.01395 0.74633 0.15892
 C585 C -0.00005 0.74910 0.11638
 C586 C -0.00328 0.76325 0.10821
 C587 C -0.00366 0.76346 0.09156
 C588 C -0.00080 0.74925 0.08321
 C589 C 0.00240 0.73496 0.09128
 C590 C 0.00280 0.73502 0.10794
 H591 H -0.02508 0.74489 0.13583
 H592 H 0.02551 0.75256 0.13527
 H593 H -0.00567 0.77402 0.11487
 H594 H 0.00505 0.72409 0.11439
 H595 H 0.00066 0.74869 0.17982
 H596 H -0.00066 0.74941 0.07036
 C597 C 0.48636 0.24779 0.64311
 C598 C 0.50057 0.25003 0.63465
 C599 C 0.51499 0.25189 0.64279
 C600 C 0.51533 0.25157 0.65944
 C601 C 0.50100 0.24928 0.66782
 C602 C 0.48646 0.24732 0.65976
 C603 C 0.50035 0.25023 0.61722
 C604 C 0.49699 0.26439 0.60911
 C605 C 0.49661 0.26466 0.59246
 C606 C 0.49956 0.25051 0.58405
 C607 C 0.50285 0.23621 0.59207
 C608 C 0.50330 0.23622 0.60872
 H609 H 0.47530 0.24612 0.63667
 H610 H 0.52594 0.25342 0.63611
 H611 H 0.49453 0.27511 0.61581
 H612 H 0.50564 0.22528 0.61513
 H613 H 0.50110 0.24943 0.68066
 H614 H 0.49969 0.25071 0.57121
 C615 C 0.48550 0.75347 0.85747
 C616 C 0.49963 0.75010 0.86557
 C617 C 0.51359 0.74701 0.85707
 C618 C 0.51358 0.74735 0.84041
 C619 C 0.49931 0.75066 0.83240
 C620 C 0.48520 0.75372 0.84082
 C621 C 0.49984 0.74997 0.88300
 C622 C 0.49831 0.73552 0.89124
 C623 C 0.49845 0.73529 0.90790
 C624 C 0.50025 0.74974 0.91619
 C625 C 0.50185 0.76431 0.90804
 C626 C 0.50157 0.76430 0.89138
 H627 H 0.47481 0.75603 0.86418
 H628 H 0.52450 0.74466 0.86347
 H629 H 0.49713 0.72449 0.88463
 H630 H 0.50259 0.77542 0.88489
 H631 H 0.49909 0.75044 0.81956
 H632 H 0.50041 0.74966 0.92903
 C633 C 0.13117 0.21199 0.27358
 C634 C 0.12222 0.22588 0.27193
 C635 C 0.12677 0.23741 0.26079
 C636 C 0.14019 0.23507 0.25127
 C637 C 0.14927 0.22112 0.25277
 C638 C 0.14461 0.20962 0.26408
 C639 C 0.10826 0.22824 0.28155
 C640 C 0.09651 0.23028 0.28948
 C641 C 0.08266 0.23276 0.29861
 C642 C 0.07075 0.23496 0.30628
 C643 C 0.05645 0.23770 0.31525
 C644 C 0.04196 0.23108 0.31020
 C645 C 0.02797 0.23408 0.31865
 C646 C 0.02830 0.24376 0.33227
 C647 C 0.04296 0.25024 0.33735
 C648 C 0.05693 0.24724 0.32887
 H649 H 0.12773 0.20296 0.28215
 H650 H 0.11993 0.24822 0.25942
 H651 H 0.14343 0.24426 0.24283
 H652 H 0.15118 0.19869 0.26554
 H653 H 0.04146 0.22366 0.29969
 H654 H 0.01691 0.22874 0.31457
 H655 H 0.04356 0.25789 0.34768
 H656 H 0.06808 0.25247 0.33285
 C657 C 0.62331 0.73403 0.75576
 C658 C 0.62161 0.72572 0.77006
 C659 C 0.63331 0.71494 0.77474
 C660 C 0.64667 0.71245 0.76515
 C661 C 0.64850 0.72073 0.75072
 C662 C 0.63665 0.73158 0.74617
 C663 C 0.60780 0.72823 0.77984
 C664 C 0.59615 0.73042 0.78790
 C665 C 0.58243 0.73311 0.79716
 C666 C 0.57062 0.73552 0.80490
 C667 C 0.55641 0.73853 0.81395
 C668 C 0.55281 0.72934 0.82737
 C669 C 0.53892 0.73221 0.83603
 C670 C 0.52843 0.74433 0.83135
 C671 C 0.53220 0.75354 0.81787
 C672 C 0.54609 0.75065 0.80925
 H673 H 0.61430 0.74239 0.75201
 H674 H 0.63212 0.70845 0.78580
 H675 H 0.65555 0.70411 0.76915
 H676 H 0.63752 0.73810 0.73513
 H677 H 0.56070 0.71990 0.83109
 H678 H 0.53625 0.72481 0.84623
 H679 H 0.52448 0.76309 0.81410
 H680 H 0.54878 0.75787 0.79891
 C681 C 0.37144 0.76217 0.76103
 C682 C 0.37596 0.77375 0.77213
 C683 C 0.36697 0.78763 0.77371
 C684 C 0.35355 0.78995 0.76421
 C685 C 0.34893 0.77840 0.75294
 C686 C 0.35804 0.76445 0.75151
 C687 C 0.38991 0.77147 0.78173
 C688 C 0.40168 0.76951 0.78965
 C689 C 0.41556 0.76717 0.79875
 C690 C 0.42750 0.76511 0.80638
 C691 C 0.44187 0.76259 0.81529
 C692 C 0.44159 0.75302 0.82890
 C693 C 0.45565 0.75026 0.83731
 C694 C 0.47018 0.75701 0.83218
 C695 C 0.47029 0.76673 0.81856
 C696 C 0.45623 0.76948 0.81019
 H697 H 0.37831 0.75137 0.75971
 H698 H 0.37039 0.79670 0.78224
 H699 H 0.34696 0.80087 0.76561
 H700 H 0.35483 0.75523 0.74310
 H701 H 0.43055 0.74758 0.83292
 H702 H 0.45521 0.74257 0.84763
 H703 H 0.48125 0.77227 0.81445
 H704 H 0.45657 0.77694 0.79969
 C705 C -0.12563 0.26505 0.25735
 C706 C -0.12280 0.27510 0.27028
 C707 C -0.13340 0.28739 0.27363
 C708 C -0.14679 0.28967 0.26407
 C709 C -0.14983 0.27966 0.25092
 C710 C -0.13900 0.26727 0.24776
 C711 C -0.10895 0.27282 0.28004
 C712 C -0.09728 0.27085 0.28811
 C713 C -0.08355 0.26845 0.29741
 C714 C -0.07175 0.26631 0.30523
 C715 C -0.05757 0.26366 0.31440
 C716 C -0.05824 0.25429 0.32813
 C717 C -0.04438 0.25138 0.33681
 C718 C -0.02965 0.25778 0.33182
 C719 C -0.02913 0.26730 0.31807
 C720 C -0.04300 0.27021 0.30943
 H721 H -0.11748 0.25548 0.25465
 H722 H -0.13131 0.29526 0.28363
 H723 H -0.15464 0.29934 0.26711
 H724 H -0.14067 0.25921 0.23789
 H725 H -0.06945 0.24912 0.33206
 H726 H -0.04513 0.24386 0.34723
 H727 H -0.01801 0.27258 0.31406
 H728 H -0.04235 0.27750 0.29884
 C729 C -0.12508 0.73675 0.24299
 C730 C -0.12321 0.72808 0.22896
 C731 C -0.13481 0.71686 0.22450
 C732 C -0.14819 0.71426 0.23408
 C733 C -0.15017 0.72286 0.24828
 C734 C -0.13845 0.73418 0.25259
 C735 C -0.10927 0.73054 0.21927
 C736 C -0.09751 0.73256 0.21127
 C737 C -0.08363 0.73487 0.20207
 C738 C -0.07168 0.73681 0.19434
 C739 C -0.05728 0.73907 0.18530
 C740 C -0.04328 0.73149 0.18999
 C741 C -0.02922 0.73380 0.18138
 C742 C -0.02897 0.74375 0.16794
 C743 C -0.04312 0.75125 0.16326
 C744 C -0.05718 0.74894 0.17190
 H745 H -0.11614 0.74544 0.24658
 H746 H -0.13349 0.71008 0.21365
 H747 H -0.15697 0.70555 0.23027
 H748 H -0.13944 0.74097 0.26344
 H749 H -0.04324 0.72379 0.20032
 H750 H -0.01857 0.72768 0.18515
 H751 H -0.04326 0.75912 0.15307
 H752 H -0.06795 0.75490 0.16819
 C753 C 0.36640 0.21623 0.72577
 C754 C 0.37691 0.22876 0.72927
 C755 C 0.37389 0.23869 0.74221
 C756 C 0.36046 0.23607 0.75170
 C757 C 0.34974 0.22340 0.74842
 C758 C 0.35294 0.21355 0.73522
 C759 C 0.39092 0.23132 0.71971
 C760 C 0.40273 0.23341 0.71181
 C761 C 0.41666 0.23580 0.70270
 C762 C 0.42865 0.23779 0.69504
 C763 C 0.44308 0.24009 0.68607
 C764 C 0.44323 0.25005 0.67273
 C765 C 0.45731 0.25237 0.66412
 C766 C 0.47144 0.24477 0.66877
 C767 C 0.47113 0.23475 0.68216
 C768 C 0.45704 0.23244 0.69074
 H769 H 0.36863 0.20845 0.71577
 H770 H 0.38198 0.24844 0.74503
 H771 H 0.35865 0.24403 0.76160
 H772 H 0.34518 0.20369 0.73208
 H773 H 0.43250 0.25607 0.66904
 H774 H 0.45722 0.26030 0.65398
 H775 H 0.48175 0.22856 0.68590
 H776 H 0.45705 0.22467 0.70101
 C777 C 0.63477 0.28392 0.72578
 C778 C 0.62468 0.27090 0.72873
 C779 C 0.62792 0.26063 0.74135
 C780 C 0.64114 0.26339 0.75106
 C781 C 0.65143 0.27655 0.74833
 C782 C 0.64802 0.28674 0.73545
 C783 C 0.61085 0.26819 0.71898
 C784 C 0.59917 0.26594 0.71097
 C785 C 0.58536 0.26331 0.70177
 C786 C 0.57345 0.26108 0.69408
 C787 C 0.55908 0.25843 0.68512
 C788 C 0.54806 0.24682 0.69005
 C789 C 0.53390 0.24449 0.68163
 C790 C 0.53057 0.25376 0.66814
 C791 C 0.54180 0.26531 0.66318
 C792 C 0.55596 0.26763 0.67164
 H793 H 0.63236 0.29196 0.71603
 H794 H 0.62016 0.25050 0.74375
 H795 H 0.64312 0.25515 0.76070
 H796 H 0.65545 0.29698 0.73274
 H797 H 0.55037 0.23962 0.70045
 H798 H 0.52559 0.23537 0.68561
 H799 H 0.53949 0.27276 0.65296
 H800 H 0.56439 0.27669 0.66775
 C801 C 0.13547 0.78228 0.22361
 C802 C 0.12395 0.77098 0.22810
 C803 C 0.12575 0.76253 0.24228
 C804 C 0.13897 0.76538 0.25197
 C805 C 0.15061 0.77678 0.24762
 C806 C 0.14871 0.78517 0.23328
 C807 C 0.11018 0.76819 0.21830
 C808 C 0.09854 0.76584 0.21025
 C809 C 0.08477 0.76310 0.20101
 C810 C 0.07290 0.76076 0.19330
 C811 C 0.05858 0.75798 0.18430
 C812 C 0.04761 0.74633 0.18927
 C813 C 0.03347 0.74389 0.18083
 C814 C 0.03012 0.75308 0.16730
 C815 C 0.04130 0.76466 0.16231
 C816 C 0.05543 0.76710 0.17078
 H817 H 0.13420 0.78890 0.21265
 H818 H 0.11687 0.75378 0.24589
 H819 H 0.13990 0.75876 0.26293
 H820 H 0.15744 0.79393 0.22945
 H821 H 0.04994 0.73919 0.19970
 H822 H 0.02520 0.73474 0.18484
 H823 H 0.03896 0.77205 0.15205
 H824 H 0.06381 0.77619 0.16686
 C825 C 0.25682 0.12641 0.23698
 C826 C 0.27099 0.12438 0.22851
 C827 C 0.27566 0.13575 0.21724
 C828 C 0.26619 0.14908 0.21441
 C829 C 0.25188 0.15123 0.22283
 C830 C 0.24733 0.13972 0.23418
 C831 C 0.28062 0.11054 0.23127
 C832 C 0.28857 0.09887 0.23356
 C833 C 0.29774 0.08510 0.23623
 C834 C 0.30544 0.07326 0.23848
 C835 C 0.31447 0.05900 0.24113
 C836 C 0.30941 0.04791 0.25254
 C837 C 0.31795 0.03388 0.25490
 C838 C 0.33167 0.03074 0.24587
 C839 C 0.33673 0.04202 0.23452
 C840 C 0.32816 0.05604 0.23217
 H841 H 0.25307 0.11765 0.24571
 H842 H 0.28662 0.13430 0.21061
 H843 H 0.27017 0.15768 0.20567
 H844 H 0.23638 0.14085 0.24082
 H845 H 0.29885 0.05009 0.25957
 H846 H 0.31388 0.02554 0.26388
 H847 H 0.34713 0.03985 0.22726
 H848 H 0.33215 0.06452 0.22327
 C849 C 0.75947 0.62912 0.73854
 C850 C 0.77060 0.62419 0.72725
 C851 C 0.77220 0.63260 0.71300
 C852 C 0.76268 0.64586 0.71002
 C853 C 0.75137 0.65089 0.72126
 C854 C 0.74993 0.64236 0.73559
 C855 C 0.78022 0.61039 0.73019
 C856 C 0.78818 0.59875 0.73263
 C857 C 0.79737 0.58504 0.73545
 C858 C 0.80510 0.57324 0.73784
 C859 C 0.81416 0.55904 0.74069
 C860 C 0.80922 0.54819 0.75235
 C861 C 0.81779 0.53423 0.75494
 C862 C 0.83145 0.53092 0.74587
 C863 C 0.83640 0.54197 0.73425
 C864 C 0.82779 0.55593 0.73168
 H865 H 0.75814 0.62269 0.74963
 H866 H 0.78076 0.62887 0.70415
 H867 H 0.76410 0.65200 0.69882
 H868 H 0.74149 0.64591 0.74459
 H869 H 0.79870 0.55050 0.75942
 H870 H 0.81381 0.52607 0.76411
 H871 H 0.84675 0.53967 0.72696
 H872 H 0.83170 0.56423 0.72258
 C873 C 0.76052 0.37147 0.76160
 C874 C 0.77159 0.37656 0.77296
 C875 C 0.77324 0.36800 0.78710
 C876 C 0.76381 0.35445 0.78992
 C877 C 0.75256 0.34926 0.77862
 C878 C 0.75107 0.35792 0.76439
 C879 C 0.78108 0.39069 0.77022
 C880 C 0.78892 0.40261 0.76800
 C881 C 0.79796 0.41667 0.76549
 C882 C 0.80555 0.42877 0.76341
 C883 C 0.81443 0.44335 0.76100
 C884 C 0.82799 0.44351 0.75132
 C885 C 0.83650 0.45773 0.74888
 C886 C 0.83153 0.47198 0.75609
 C887 C 0.81793 0.47167 0.76586
 C888 C 0.80945 0.45744 0.76828
 H889 H 0.75915 0.37800 0.75061
 H890 H 0.78174 0.37187 0.79599
 H891 H 0.76526 0.34822 0.80104
 H892 H 0.74267 0.35426 0.75535
 H893 H 0.83192 0.43267 0.74559
 H894 H 0.84681 0.45764 0.74115
 H895 H 0.81394 0.48239 0.77174
 H896 H 0.79900 0.45744 0.77584
 C897 C 0.27438 -0.13331 0.28477
 C898 C 0.27089 -0.12327 0.27204
 C899 C 0.25793 -0.12679 0.26222
 C900 C 0.24843 -0.14027 0.26514
 C901 C 0.25171 -0.15051 0.27801
 C902 C 0.26492 -0.14681 0.28774
 C903 C 0.28048 -0.10923 0.26917
 C904 C 0.28842 -0.09740 0.26681
 C905 C 0.29760 -0.08347 0.26410
 C906 C 0.30533 -0.07148 0.26184
 C907 C 0.31439 -0.05706 0.25919
 C908 C 0.32806 -0.05386 0.26818
 C909 C 0.33665 -0.03967 0.26585
 C910 C 0.33166 -0.02848 0.25450
 C911 C 0.31798 -0.03188 0.24543
 C912 C 0.30941 -0.04607 0.24777
 H913 H 0.28440 -0.13068 0.29246
 H914 H 0.25512 -0.11908 0.25232
 H915 H 0.23852 -0.14248 0.25725
 H916 H 0.26806 -0.15419 0.29775
 H917 H 0.33199 -0.06226 0.27709
 H918 H 0.34702 -0.03731 0.27314
 H919 H 0.31397 -0.02361 0.23644
 H920 H 0.29888 -0.04845 0.24071
 C921 C 0.22525 -0.13483 0.71445
 C922 C 0.22831 -0.12497 0.72747
 C923 C 0.24073 -0.12861 0.73783
 C924 C 0.25013 -0.14202 0.73517
 C925 C 0.24729 -0.15208 0.72201
 C926 C 0.23462 -0.14826 0.71172
 C927 C 0.21885 -0.11098 0.73008
 C928 C 0.21103 -0.09919 0.73223
 C929 C 0.20202 -0.08528 0.73468
 C930 C 0.19447 -0.07330 0.73673
 C931 C 0.18563 -0.05887 0.73912
 C932 C 0.17213 -0.05890 0.74889
 C933 C 0.16368 -0.04481 0.75132
 C934 C 0.16865 -0.03050 0.74402
 C935 C 0.18219 -0.03063 0.73417
 C936 C 0.19061 -0.04472 0.73175
 H937 H 0.21565 -0.13211 0.70633
 H938 H 0.24321 -0.12103 0.74796
 H939 H 0.25962 -0.14432 0.74348
 H940 H 0.23183 -0.15551 0.70148
 H941 H 0.16820 -0.06979 0.75468
 H942 H 0.15342 -0.04506 0.75911
 H943 H 0.18618 -0.01985 0.72822
 H944 H 0.20101 -0.04457 0.72413
 C945 C 0.74303 0.37385 0.23489
 C946 C 0.72886 0.37576 0.22643
 C947 C 0.72418 0.36425 0.21532
 C948 C 0.73366 0.35090 0.21262
 C949 C 0.74800 0.34887 0.22101
 C950 C 0.75253 0.36051 0.23222
 C951 C 0.71923 0.38964 0.22902
 C952 C 0.71129 0.40135 0.23118
 C953 C 0.70215 0.41516 0.23367
 C954 C 0.69448 0.42706 0.23579
 C955 C 0.68550 0.44138 0.23831
 C956 C 0.67200 0.44112 0.24806
 C957 C 0.66344 0.45511 0.25068
 C958 C 0.66832 0.46956 0.24358
 C959 C 0.68186 0.46966 0.23373
 C960 C 0.69038 0.45566 0.23112
 H961 H 0.74679 0.38271 0.24350
 H962 H 0.71321 0.36561 0.20871
 H963 H 0.72968 0.34219 0.20400
 H964 H 0.76350 0.35947 0.23884
 H965 H 0.66815 0.43013 0.25372
 H966 H 0.65319 0.45469 0.25847
 H967 H 0.68578 0.48054 0.22792
 H968 H 0.70079 0.45599 0.22352
 C969 C 0.73976 0.62829 0.26166
 C970 C 0.72853 0.62327 0.27292
 C971 C 0.72676 0.63186 0.28702
 C972 C 0.73621 0.64538 0.28989
 C973 C 0.74761 0.65051 0.27869
 C974 C 0.74923 0.64180 0.26450
 C975 C 0.71899 0.60920 0.27008
 C976 C 0.71111 0.59734 0.26771
 C977 C 0.70202 0.58337 0.26494
 C978 C 0.69438 0.57136 0.26256
 C979 C 0.68542 0.55692 0.25970
 C980 C 0.67190 0.55335 0.26881
 C981 C 0.66336 0.53919 0.26619
 C982 C 0.66827 0.52839 0.25442
 C983 C 0.68182 0.53214 0.24526
 C984 C 0.69033 0.54631 0.24790
 H985 H 0.74122 0.62174 0.25069
 H986 H 0.71813 0.62805 0.29584
 H987 H 0.73466 0.65165 0.30098
 H988 H 0.75774 0.64541 0.25553
 H989 H 0.66803 0.56146 0.27802
 H990 H 0.65309 0.53654 0.27355
 H991 H 0.68577 0.52418 0.23597
 H992 H 0.70076 0.54897 0.24075
 C993 C 0.24367 0.12571 0.76352
 C994 C 0.22951 0.12327 0.77198
 C995 C 0.22474 0.13448 0.78327
 C996 C 0.23410 0.14806 0.78613
 C997 C 0.24840 0.15064 0.77772
 C998 C 0.25305 0.13929 0.76635
 C999 C 0.21998 0.10919 0.76917
 C1000 C 0.21207 0.09733 0.76682
 C1001 C 0.20294 0.08338 0.76409
 C1002 C 0.19524 0.07139 0.76177
 C1003 C 0.18620 0.05698 0.75901
 C1004 C 0.17257 0.05364 0.76804
 C1005 C 0.16395 0.03950 0.76553
 C1006 C 0.16889 0.02850 0.75395
 C1007 C 0.18255 0.03203 0.74488
 C1008 C 0.19114 0.04617 0.74740
 H1009 H 0.24750 0.11709 0.75478
 H1010 H 0.21379 0.13271 0.78988
 H1011 H 0.23003 0.15654 0.79487
 H1012 H 0.26399 0.14075 0.75971
 H1013 H 0.16867 0.06190 0.77709
 H1014 H 0.15360 0.03703 0.77283
 H1015 H 0.18653 0.02391 0.73574
 H1016 H 0.20165 0.04866 0.74032
 C1017 C 0.21481 0.27661 0.13485
 C1018 C 0.22563 0.27187 0.12318
 C1019 C 0.23391 0.25759 0.12499
 C1020 C 0.23137 0.24805 0.13838
 C1021 C 0.22046 0.25267 0.15017
 C1022 C 0.21223 0.26710 0.14825
 C1023 C 0.22812 0.28154 0.10928
 C1024 C 0.23021 0.28953 0.09755
 C1025 C 0.23265 0.29872 0.08372
 C1026 C 0.23473 0.30643 0.07182
 C1027 C 0.23723 0.31545 0.05749
 C1028 C 0.23006 0.31045 0.04334
 C1029 C 0.23270 0.31898 0.02932
 C1030 C 0.24256 0.33266 0.02928
 C1031 C 0.24961 0.33767 0.04359
 C1032 C 0.24697 0.32910 0.05760
 H1033 H 0.20834 0.28766 0.13358
 H1034 H 0.24230 0.25378 0.11601
 H1035 H 0.23785 0.23701 0.13933
 H1036 H 0.20385 0.27114 0.15709
 H1037 H 0.22247 0.29992 0.04313
 H1038 H 0.22693 0.31495 0.01854
 H1039 H 0.25741 0.34803 0.04389
 H1040 H 0.25262 0.33304 0.06848
 C1041 C 0.73450 0.75792 0.62395
 C1042 C 0.72626 0.77223 0.62216
 C1043 C 0.71532 0.77692 0.63374
 C1044 C 0.71258 0.76730 0.64704
 C1045 C 0.72075 0.75283 0.64894
 C1046 C 0.73178 0.74829 0.63723
 C1047 C 0.72895 0.78201 0.60836
 C1048 C 0.73121 0.79007 0.59671
 C1049 C 0.73386 0.79936 0.58298
 C1050 C 0.73615 0.80715 0.57116
 C1051 C 0.73889 0.81625 0.55693
 C1052 C 0.72987 0.82985 0.55381
 C1053 C 0.73235 0.83850 0.53983
 C1054 C 0.74389 0.83363 0.52877
 C1055 C 0.75297 0.82001 0.53208
 C1056 C 0.75047 0.81139 0.54606
 H1057 H 0.74297 0.75416 0.61503
 H1058 H 0.70890 0.78799 0.63248
 H1059 H 0.70411 0.77129 0.65582
 H1060 H 0.73822 0.73722 0.63817
 H1061 H 0.72083 0.83369 0.56212
 H1062 H 0.72506 0.84883 0.53753
 H1063 H 0.76209 0.81610 0.52390
 H1064 H 0.75755 0.80091 0.54838
 C1065 C 0.78600 0.77491 0.36816
 C1066 C 0.77158 0.77354 0.37640
 C1067 C 0.76000 0.76260 0.37130
 C1068 C 0.76283 0.75299 0.35806
 C1069 C 0.77733 0.75419 0.34972
 C1070 C 0.78886 0.76532 0.35491
 C1071 C 0.76876 0.78319 0.39022
 C1072 C 0.76640 0.79114 0.40188
 C1073 C 0.76364 0.80029 0.41564
 C1074 C 0.76129 0.80796 0.42749
 C1075 C 0.75848 0.81693 0.44176
 C1076 C 0.74681 0.81181 0.45253
 C1077 C 0.74428 0.82028 0.46657
 C1078 C 0.75342 0.83400 0.47003
 C1079 C 0.76504 0.83913 0.45907
 C1080 C 0.76756 0.83063 0.44504
 H1081 H 0.79508 0.78332 0.37203
 H1082 H 0.74878 0.76145 0.37758
 H1083 H 0.75360 0.74470 0.35438
 H1084 H 0.80020 0.76654 0.34891
 H1085 H 0.73969 0.80124 0.45009
 H1086 H 0.73510 0.81616 0.47466
 H1087 H 0.77239 0.84954 0.46149
 H1088 H 0.77666 0.83467 0.43681
 C1089 C 0.26171 0.26054 -0.12732
 C1090 C 0.27299 0.27196 -0.12258
 C1091 C 0.28704 0.27396 -0.13132
 C1092 C 0.28984 0.26456 -0.14471
 C1093 C 0.27860 0.25297 -0.14956
 C1094 C 0.26447 0.25111 -0.14070
 C1095 C 0.27020 0.28150 -0.10869
 C1096 C 0.26784 0.28940 -0.09699
 C1097 C 0.26503 0.29852 -0.08321
 C1098 C 0.26260 0.30619 -0.07138
 C1099 C 0.25966 0.31519 -0.05716
 C1100 C 0.26883 0.32879 -0.05372
 C1101 C 0.26609 0.33738 -0.03978
 C1102 C 0.25413 0.33245 -0.02908
 C1103 C 0.24493 0.31881 -0.03270
 C1104 C 0.24768 0.31025 -0.04664
 H1105 H 0.25078 0.25889 -0.12065
 H1106 H 0.29588 0.28276 -0.12774
 H1107 H 0.30088 0.26632 -0.15111
 H1108 H 0.25547 0.24245 -0.14407
 H1109 H 0.27816 0.33269 -0.06176
 H1110 H 0.27349 0.34771 -0.03723
 H1111 H 0.23550 0.31485 -0.02482
 H1112 H 0.24048 0.29977 -0.04921
 C1113 C 0.73559 0.24162 -0.12449
 C1114 C 0.72750 0.22705 -0.12278
 C1115 C 0.71671 0.22206 -0.13443
 C1116 C 0.71398 0.23162 -0.14774
 C1117 C 0.72203 0.24633 -0.14957
 C1118 C 0.73289 0.25119 -0.13777
 C1119 C 0.73022 0.21732 -0.10900
 C1120 C 0.73256 0.20931 -0.09737
 C1121 C 0.73535 0.20012 -0.08365
 C1122 C 0.73781 0.19242 -0.07184
 C1123 C 0.74080 0.18343 -0.05763
 C1124 C 0.73168 0.16980 -0.05414
 C1125 C 0.73447 0.16124 -0.04020
 C1126 C 0.74641 0.16622 -0.02955
 C1127 C 0.75557 0.17989 -0.03321
 C1128 C 0.75277 0.18842 -0.04716
 H1129 H 0.74395 0.24562 -0.11551
 H1130 H 0.71039 0.21079 -0.13324
 H1131 H 0.70563 0.22738 -0.15658
 H1132 H 0.73923 0.26245 -0.13865
 H1133 H 0.72235 0.16586 -0.06215
 H1134 H 0.72710 0.15088 -0.03762
 H1135 H 0.76498 0.18390 -0.02536
 H1136 H 0.75992 0.19893 -0.04976
 C1137 C 0.23948 0.73912 0.37179
 C1138 C 0.22795 0.72810 0.37689
 C1139 C 0.21361 0.72655 0.36857
 C1140 C 0.21077 0.73602 0.35524
 C1141 C 0.22225 0.74722 0.35003
 C1142 C 0.23667 0.74861 0.35846
 C1143 C 0.23078 0.71850 0.39074
 C1144 C 0.23317 0.71057 0.40241
 C1145 C 0.23598 0.70141 0.41616
 C1146 C 0.23839 0.69371 0.42797
 C1147 C 0.24130 0.68468 0.44218
 C1148 C 0.23219 0.67101 0.44553
 C1149 C 0.23487 0.66240 0.45947
 C1150 C 0.24669 0.66738 0.47025
 C1151 C 0.25584 0.68109 0.46672
 C1152 C 0.25315 0.68967 0.45278
 H1153 H 0.25063 0.74041 0.37813
 H1154 H 0.20458 0.71807 0.37244
 H1155 H 0.19949 0.73466 0.34918
 H1156 H 0.24585 0.75696 0.35478
 H1157 H 0.22296 0.66707 0.43742
 H1158 H 0.22751 0.65201 0.46194
 H1159 H 0.26517 0.68510 0.47468
 H1160 H 0.26029 0.70022 0.45029
 C1161 C 0.28430 0.72296 0.63462
 C1162 C 0.27363 0.72776 0.62287
 C1163 C 0.26536 0.74205 0.62463
 C1164 C 0.26778 0.75155 0.63805
 C1165 C 0.27855 0.74689 0.64994
 C1166 C 0.28675 0.73244 0.64806
 C1167 C 0.27127 0.71813 0.60892
 C1168 C 0.26930 0.71019 0.59715
 C1169 C 0.26699 0.70105 0.58328
 C1170 C 0.26502 0.69338 0.57134
 C1171 C 0.26265 0.68439 0.55697
 C1172 C 0.26992 0.68945 0.54287
 C1173 C 0.26744 0.68092 0.52884
 C1174 C 0.25763 0.66720 0.52871
 C1175 C 0.25047 0.66215 0.54297
 C1176 C 0.25296 0.67071 0.55701
 H1177 H 0.29076 0.71190 0.63339
 H1178 H 0.25709 0.74590 0.61558
 H1179 H 0.26132 0.76261 0.63896
 H1180 H 0.29502 0.72835 0.65697
 H1181 H 0.27747 0.70000 0.54272
 H1182 H 0.27328 0.68499 0.51810
 H1183 H 0.24271 0.65175 0.54322
 H1184 H 0.24724 0.66672 0.56785
 C1185 C 0.76625 0.24173 0.12409
 C1186 C 0.77462 0.22749 0.12236
 C1187 C 0.78547 0.22289 0.13403
 C1188 C 0.78800 0.23251 0.14736
 C1189 C 0.77969 0.24691 0.14920
 C1190 C 0.76874 0.25137 0.13740
 C1191 C 0.77219 0.21772 0.10852
 C1192 C 0.77015 0.20966 0.09685
 C1193 C 0.76777 0.20038 0.08307
 C1194 C 0.76572 0.19260 0.07121
 C1195 C 0.76327 0.18351 0.05693
 C1196 C 0.75358 0.16983 0.05711
 C1197 C 0.75095 0.16120 0.04314
 C1198 C 0.75797 0.16620 0.02879
 C1199 C 0.76778 0.17991 0.02876
 C1200 C 0.77040 0.18850 0.04274
 H1201 H 0.75784 0.24543 0.11510
 H1202 H 0.79201 0.21188 0.13282
 H1203 H 0.79641 0.22858 0.15621
 H1204 H 0.76220 0.26238 0.13829
 H1205 H 0.74796 0.16589 0.06802
 H1206 H 0.74320 0.15081 0.04350
 H1207 H 0.77353 0.18393 0.01795
 H1208 H 0.77795 0.19905 0.04247
 C1209 C 0.46266 0.38315 0.52523
 C1210 C 0.47627 0.37384 0.52338
 C1211 C 0.48760 0.37795 0.51187
 C1212 C 0.48532 0.39128 0.50221
 C1213 C 0.47164 0.40072 0.50389
 C1214 C 0.46035 0.39650 0.51558
 C1215 C 0.47854 0.35993 0.53311
 C1216 C 0.48051 0.34819 0.54110
 C1217 C 0.48288 0.33433 0.55028
 C1218 C 0.48498 0.32239 0.55794
 C1219 C 0.48756 0.30802 0.56688
 C1220 C 0.48061 0.29363 0.56191
 C1221 C 0.48343 0.27956 0.57030
 C1222 C 0.49327 0.27969 0.58380
 C1223 C 0.50008 0.29425 0.58880
 C1224 C 0.49726 0.30831 0.58037
 H1225 H 0.45380 0.38005 0.53408
 H1226 H 0.49819 0.37083 0.51034
 H1227 H 0.49434 0.39416 0.49347
 H1228 H 0.44964 0.40335 0.51722
 H1229 H 0.47306 0.29327 0.55150
 H1230 H 0.47784 0.26859 0.56629
 H1231 H 0.50786 0.29470 0.59903
 H1232 H 0.50275 0.31938 0.58429
 C1233 C -0.01546 0.87389 0.00769
 C1234 C -0.02400 0.87222 0.02186
 C1235 C -0.03491 0.88391 0.02630
 C1236 C -0.03733 0.89720 0.01659
 C1237 C -0.02884 0.89898 0.00227
 C1238 C -0.01784 0.88716 -0.00203
 C1239 C -0.02166 0.85842 0.03171
 C1240 C -0.01966 0.84675 0.03981
 C1241 C -0.01726 0.83297 0.04908
 C1242 C -0.01518 0.82108 0.05683
 C1243 C -0.01262 0.80674 0.06583
 C1244 C -0.00291 0.80706 0.07931
 C1245 C -0.00010 0.79303 0.08778
 C1246 C -0.00696 0.77847 0.08285
 C1247 C -0.01683 0.77831 0.06937
 C1248 C -0.01962 0.79235 0.06092
 H1249 H -0.00701 0.86489 0.00412
 H1250 H -0.04158 0.88274 0.03725
 H1251 H -0.04579 0.90606 0.02039
 H1252 H -0.01116 0.88800 -0.01297
 H1253 H 0.00261 0.81813 0.08318
 H1254 H 0.00769 0.79350 0.09800
 H1255 H -0.02245 0.76734 0.06540
 H1256 H -0.02719 0.79198 0.05053
 C1257 C 0.03533 0.61545 0.02555
 C1258 C 0.02322 0.62612 0.02175
 C1259 C 0.01354 0.62323 0.00855
 C1260 C 0.01596 0.60972 -0.00084
 C1261 C 0.02813 0.59890 0.00284
 C1262 C 0.03779 0.60193 0.01617
 C1263 C 0.02073 0.64009 0.03133
 C1264 C 0.01859 0.65185 0.03925
 C1265 C 0.01598 0.66569 0.04838
 C1266 C 0.01367 0.67759 0.05604
 C1267 C 0.01079 0.69188 0.06502
 C1268 C -0.00125 0.70228 0.06031
 C1269 C -0.00401 0.71626 0.06888
 C1270 C 0.00525 0.72002 0.08229
 C1271 C 0.01729 0.70945 0.08697
 C1272 C 0.02004 0.69547 0.07837
 H1273 H 0.04289 0.61757 0.03576
 H1274 H 0.00414 0.63143 0.00549
 H1275 H 0.00835 0.60791 -0.01103
 H1276 H 0.04719 0.59387 0.01948
 H1277 H -0.00851 0.69960 0.05002
 H1278 H -0.01350 0.72404 0.06511
 H1279 H 0.02474 0.71211 0.09713
 H1280 H 0.02942 0.68752 0.08209
 C1281 C 0.51226 0.12313 0.51091
 C1282 C 0.52378 0.12774 0.52201
 C1283 C 0.53775 0.11890 0.52352
 C1284 C 0.54021 0.10553 0.51393
 C1285 C 0.52873 0.10083 0.50266
 C1286 C 0.51470 0.10979 0.50130
 C1287 C 0.52131 0.14162 0.53172
 C1288 C 0.51916 0.15332 0.53972
 C1289 C 0.51653 0.16711 0.54892
 C1290 C 0.51420 0.17897 0.55664
 C1291 C 0.51129 0.19322 0.56566
 C1292 C 0.52058 0.19681 0.57900
 C1293 C 0.51782 0.21076 0.58764
 C1294 C 0.50574 0.22131 0.58302
 C1295 C 0.49644 0.21755 0.56964
 C1296 C 0.49921 0.20360 0.56103
 H1297 H 0.50139 0.12988 0.50965
 H1298 H 0.54677 0.12238 0.53206
 H1299 H 0.55120 0.09905 0.51528
 H1300 H 0.50552 0.10650 0.49290
 H1301 H 0.53000 0.18887 0.58266
 H1302 H 0.52530 0.21341 0.59778
 H1303 H 0.48691 0.22531 0.56592
 H1304 H 0.49192 0.20092 0.55076
 C1305 C -0.01265 0.12553 0.49229
 C1306 C -0.02122 0.12725 0.47819
 C1307 C -0.03238 0.11558 0.47378
 C1308 C -0.03503 0.10226 0.48346
 C1309 C -0.02654 0.10044 0.49773
 C1310 C -0.01527 0.11223 0.50199
 C1311 C -0.01875 0.14114 0.46842
 C1312 C -0.01673 0.15289 0.46038
 C1313 C -0.01445 0.16678 0.45116
 C1314 C -0.01256 0.17876 0.44346
 C1315 C -0.01042 0.19323 0.43447
 C1316 C -0.00053 0.19348 0.42109
 C1317 C 0.00165 0.20763 0.41251
 C1318 C -0.00601 0.22171 0.41724
 C1319 C -0.01598 0.22129 0.43067
 C1320 C -0.01815 0.20715 0.43922
 H1321 H -0.00402 0.13452 0.49585
 H1322 H -0.03908 0.11679 0.46288
 H1323 H -0.04370 0.09343 0.47968
 H1324 H -0.00858 0.11135 0.51290
 H1325 H 0.00554 0.18278 0.41735
 H1326 H 0.00953 0.20761 0.40234
 H1327 H -0.02221 0.23187 0.43448
 H1328 H -0.02586 0.20708 0.44953
 C1329 C 0.49165 0.62122 0.98888
 C1330 C 0.48036 0.62571 0.97758
 C1331 C 0.46631 0.61677 0.97589
 C1332 C 0.46352 0.60342 0.98549
 C1333 C 0.47476 0.59883 0.99696
 C1334 C 0.48889 0.60789 0.99850
 C1335 C 0.48308 0.63962 0.96790
 C1336 C 0.48530 0.65135 0.95990
 C1337 C 0.48785 0.66519 0.95066
 C1338 C 0.48996 0.67711 0.94291
 C1339 C 0.49241 0.69147 0.93384
 C1340 C 0.48325 0.69434 0.92029
 C1341 C 0.48532 0.70850 0.91174
 C1342 C 0.49659 0.72001 0.91666
 C1343 C 0.50585 0.71695 0.93021
 C1344 C 0.50376 0.70277 0.93873
 H1345 H 0.50258 0.62806 0.99028
 H1346 H 0.45746 0.62017 0.96721
 H1347 H 0.45246 0.59687 0.98399
 H1348 H 0.49789 0.60470 1.00706
 H1349 H 0.47438 0.68569 0.91644
 H1350 H 0.47789 0.71061 0.90148
 H1351 H 0.51476 0.72548 0.93416
 H1352 H 0.51094 0.70066 0.94918
 C1353 C 0.53121 0.88529 0.97352
 C1354 C 0.52045 0.87338 0.97831
 C1355 C 0.51238 0.87488 0.99275
 C1356 C 0.51509 0.88819 1.00239
 C1357 C 0.52594 0.90023 0.99774
 C1358 C 0.53395 0.89862 0.98315
 C1359 C 0.51780 0.85954 0.96853
 C1360 C 0.51560 0.84786 0.96046
 C1361 C 0.51304 0.83407 0.95117
 C1362 C 0.51088 0.82218 0.94339
 C1363 C 0.50834 0.80787 0.93427
 C1364 C 0.49717 0.79646 0.93935
 C1365 C 0.49495 0.78236 0.93075
 C1366 C 0.50390 0.77947 0.91694
 C1367 C 0.51501 0.79108 0.91186
 C1368 C 0.51721 0.80518 0.92049
 H1369 H 0.53752 0.88426 0.96236
 H1370 H 0.50405 0.86571 0.99659
 H1371 H 0.50877 0.88890 1.01355
 H1372 H 0.54228 0.90765 0.97907
 H1373 H 0.49021 0.79844 0.94998
 H1374 H 0.48616 0.77375 0.93484
 H1375 H 0.52220 0.78911 0.90139
 H1376 H 0.52594 0.81390 0.91648
 C1377 C 0.01179 0.37634 0.49262
 C1378 C 0.02029 0.37458 0.47847
 C1379 C 0.03165 0.38609 0.47409
 C1380 C 0.03455 0.39928 0.48385
 C1381 C 0.02612 0.40114 0.49817
 C1382 C 0.01466 0.38952 0.50240
 C1383 C 0.01750 0.36084 0.46858
 C1384 C 0.01516 0.34923 0.46044
 C1385 C 0.01244 0.33551 0.45110
 C1386 C 0.01014 0.32367 0.44329
 C1387 C 0.00742 0.30938 0.43418
 C1388 C 0.01649 0.30641 0.42058
 C1389 C 0.01413 0.29230 0.41200
 C1390 C 0.00268 0.28097 0.41695
 C1391 C -0.00648 0.28416 0.43055
 C1392 C -0.00411 0.29827 0.43909
 H1393 H 0.00300 0.36748 0.49615
 H1394 H 0.03830 0.38484 0.46314
 H1395 H 0.04336 0.40800 0.48010
 H1396 H 0.00800 0.39043 0.51334
 H1397 H 0.02548 0.31491 0.41670
 H1398 H 0.02149 0.29010 0.40169
 H1399 H -0.01553 0.27578 0.43453
 H1400 H -0.01122 0.30047 0.44959
 C1401 C 0.37964 0.51104 0.48881
 C1402 C 0.37443 0.52150 0.47702
 C1403 C 0.38273 0.52257 0.46266
 C1404 C 0.39617 0.51319 0.46007
 C1405 C 0.40149 0.50256 0.47182
 C1406 C 0.39306 0.50164 0.48625
 C1407 C 0.36046 0.53099 0.47958
 C1408 C 0.34870 0.53884 0.48168
 C1409 C 0.33484 0.54791 0.48411
 C1410 C 0.32291 0.55554 0.48616
 C1411 C 0.30858 0.56450 0.48858
 C1412 C 0.29436 0.55953 0.48139
 C1413 C 0.28035 0.56805 0.48388
 C1414 C 0.28039 0.58169 0.49361
 C1415 C 0.29476 0.58665 0.50071
 C1416 C 0.30876 0.57809 0.49821
 H1417 H 0.37330 0.51012 0.49998
 H1418 H 0.37878 0.53061 0.45343
 H1419 H 0.40222 0.51419 0.44879
 H1420 H 0.39682 0.49373 0.49563
 H1421 H 0.29409 0.54904 0.47388
 H1422 H 0.26952 0.56406 0.47807
 H1423 H 0.29513 0.59699 0.50841
 H1424 H 0.31970 0.58202 0.50387
 C1425 C 0.87912 0.00934 -0.01183
 C1426 C 0.87426 0.02038 -0.02324
 C1427 C 0.88281 0.02196 -0.03740
 C1428 C 0.89613 0.01248 -0.04020
 C1429 C 0.90109 0.00125 -0.02885
 C1430 C 0.89243 -0.00016 -0.01460
 C1431 C 0.86035 0.02990 -0.02052
 C1432 C 0.84861 0.03777 -0.01830
 C1433 C 0.83478 0.04685 -0.01575
 C1434 C 0.82287 0.05447 -0.01363
 C1435 C 0.80853 0.06341 -0.01114
 C1436 C 0.80873 0.07695 -0.00142
 C1437 C 0.79474 0.08551 0.00111
 C1438 C 0.78036 0.08060 -0.00603
 C1439 C 0.78032 0.06701 -0.01583
 C1440 C 0.79432 0.05849 -0.01836
 H1441 H 0.87259 0.00803 -0.00081
 H1442 H 0.87913 0.03045 -0.04634
 H1443 H 0.90238 0.01387 -0.05135
 H1444 H 0.89591 -0.00853 -0.00551
 H1445 H 0.81966 0.08084 0.00426
 H1446 H 0.79510 0.09581 0.00886
 H1447 H 0.76950 0.06307 -0.02167
 H1448 H 0.79404 0.04805 -0.02594
 C1449 C 0.61836 0.02190 0.03712
 C1450 C 0.62650 0.02065 0.02270
 C1451 C 0.62095 0.01007 0.01108
 C1452 C 0.60734 0.00073 0.01387
 C1453 C 0.59907 0.00184 0.02836
 C1454 C 0.60475 0.01258 0.03994
 C1455 C 0.64064 0.03010 0.01988
 C1456 C 0.65253 0.03792 0.01752
 C1457 C 0.66653 0.04697 0.01477
 C1458 C 0.67856 0.05459 0.01241
 C1459 C 0.69301 0.06354 0.00960
 C1460 C 0.69650 0.07713 0.01866
 C1461 C 0.71066 0.08567 0.01608
 C1462 C 0.72154 0.08070 0.00442
 C1463 C 0.71787 0.06707 -0.00467
 C1464 C 0.70370 0.05857 -0.00209
 H1465 H 0.62258 0.03002 0.04622
 H1466 H 0.62715 0.00902 -0.00015
 H1467 H 0.60331 -0.00726 0.00461
 H1468 H 0.59882 0.01372 0.05127
 H1469 H 0.68833 0.08105 0.02778
 H1470 H 0.71324 0.09599 0.02340
 H1471 H 0.72590 0.06308 -0.01388
 H1472 H 0.70110 0.04809 -0.00920
 C1473 C 0.11853 0.52302 0.53752
 C1474 C 0.12693 0.52138 0.52329
 C1475 C 0.12173 0.51032 0.51197
 C1476 C 0.10823 0.50087 0.51487
 C1477 C 0.09971 0.50235 0.52918
 C1478 C 0.10502 0.51359 0.54046
 C1479 C 0.14099 0.53092 0.52038
 C1480 C 0.15282 0.53881 0.51795
 C1481 C 0.16676 0.54792 0.51511
 C1482 C 0.17874 0.55558 0.51267
 C1483 C 0.19315 0.56456 0.50974
 C1484 C 0.20376 0.55959 0.49798
 C1485 C 0.21790 0.56812 0.49529
 C1486 C 0.22161 0.58176 0.50434
 C1487 C 0.21081 0.58672 0.51607
 C1488 C 0.19667 0.57816 0.51876
 H1489 H 0.12248 0.53153 0.54639
 H1490 H 0.12814 0.50896 0.50089
 H1491 H 0.10448 0.49248 0.50584
 H1492 H 0.09889 0.51503 0.55164
 H1493 H 0.20113 0.54910 0.49091
 H1494 H 0.22587 0.56413 0.48603
 H1495 H 0.21342 0.59706 0.52336
 H1496 H 0.18856 0.58209 0.52793
 C1497 C 0.12152 0.48935 -0.01137
 C1498 C 0.12671 0.47869 -0.02298
 C1499 C 0.11847 0.47745 -0.03734
 C1500 C 0.10510 0.48686 -0.04010
 C1501 C 0.09978 0.49769 -0.02852
 C1502 C 0.10815 0.49879 -0.01410
 C1503 C 0.14061 0.46916 -0.02025
 C1504 C 0.15232 0.46127 -0.01801
 C1505 C 0.16612 0.45215 -0.01545
 C1506 C 0.17800 0.44448 -0.01331
 C1507 C 0.19231 0.43550 -0.01084
 C1508 C 0.19210 0.42200 -0.00106
 C1509 C 0.20606 0.41340 0.00144
 C1510 C 0.22044 0.41823 -0.00579
 C1511 C 0.22050 0.43178 -0.01565
 C1512 C 0.20653 0.44034 -0.01815
 H1513 H 0.12781 0.49040 -0.00020
 H1514 H 0.12242 0.46926 -0.04644
 H1515 H 0.09908 0.48573 -0.05139
 H1516 H 0.10440 0.50685 -0.00484
 H1517 H 0.18116 0.41817 0.00469
 H1518 H 0.20568 0.40314 0.00924
 H1519 H 0.23132 0.43566 -0.02156
 H1520 H 0.20681 0.45075 -0.02577
 C1521 C 0.61487 0.97521 0.46587
 C1522 C 0.62618 0.97985 0.47718
 C1523 C 0.62406 0.99394 0.48578
 C1524 C 0.61070 1.00338 0.48307
 C1525 C 0.59926 0.99888 0.47168
 C1526 C 0.60150 0.98464 0.46313
 C1527 C 0.64004 0.97025 0.47987
 C1528 C 0.65172 0.96233 0.48213
 C1529 C 0.66549 0.95318 0.48478
 C1530 C 0.67734 0.94551 0.48706
 C1531 C 0.69159 0.93651 0.48981
 C1532 C 0.70239 0.94145 0.50148
 C1533 C 0.71639 0.93293 0.50400
 C1534 C 0.71977 0.91934 0.49486
 C1535 C 0.70877 0.91439 0.48323
 C1536 C 0.69478 0.92294 0.48072
 H1537 H 0.61639 0.96431 0.45916
 H1538 H 0.63276 0.99766 0.49454
 H1539 H 0.60950 1.01428 0.48981
 H1540 H 0.59294 0.98068 0.45438
 H1541 H 0.70002 0.95192 0.50862
 H1542 H 0.72450 0.93690 0.51320
 H1543 H 0.71113 0.90408 0.47589
 H1544 H 0.68651 0.91904 0.47162
 C1545 C 0.88188 0.97806 0.53746
 C1546 C 0.87347 0.97963 0.52324
 C1547 C 0.87867 0.99064 0.51184
 C1548 C 0.89217 1.00011 0.51467
 C1549 C 0.90069 0.99870 0.52897
 C1550 C 0.89539 0.98751 0.54031
 C1551 C 0.85941 0.97009 0.52041
 C1552 C 0.84756 0.96221 0.51804
 C1553 C 0.83360 0.95312 0.51527
 C1554 C 0.82160 0.94549 0.51290
 C1555 C 0.80717 0.93652 0.51007
 C1556 C 0.79644 0.94158 0.49846
 C1557 C 0.78228 0.93307 0.49587
 C1558 C 0.77866 0.91937 0.50487
 C1559 C 0.78957 0.91432 0.51645
 C1560 C 0.80372 0.92286 0.51903
 H1561 H 0.87794 0.96959 0.54638
 H1562 H 0.87226 0.99194 0.50078
 H1563 H 0.89591 1.00845 0.50558
 H1564 H 0.90152 0.98613 0.55149
 H1565 H 0.79901 0.95212 0.49143
 H1566 H 0.77423 0.93713 0.48672
 H1567 H 0.78702 0.90393 0.52369
 H1568 H 0.81192 0.91887 0.52808
 C1569 C 0.38526 0.47375 0.03349
 C1570 C 0.37416 0.47837 0.02207
 C1571 C 0.37669 0.49240 0.01340
 C1572 C 0.39025 0.50181 0.01617
 C1573 C 0.40148 0.49732 0.02768
 C1574 C 0.39883 0.48313 0.03628
 C1575 C 0.36008 0.46882 0.01934
 C1576 C 0.34823 0.46092 0.01706
 C1577 C 0.33427 0.45180 0.01439
 C1578 C 0.32227 0.44414 0.01211
 C1579 C 0.30783 0.43515 0.00938
 C1580 C 0.29712 0.44009 -0.00228
 C1581 C 0.28294 0.43159 -0.00477
 C1582 C 0.27928 0.41800 0.00440
 C1583 C 0.29018 0.41306 0.01602
 C1584 C 0.30436 0.42160 0.01850
 H1585 H 0.38343 0.46289 0.04026
 H1586 H 0.36815 0.49611 0.00455
 H1587 H 0.39177 0.51266 0.00937
 H1588 H 0.40722 0.47919 0.04514
 H1589 H 0.29970 0.45055 -0.00943
 H1590 H 0.27489 0.43556 -0.01396
 H1591 H 0.28762 0.40277 0.02339
 H1592 H 0.31255 0.41770 0.02760
 C1593 C 0.51210 0.48732 0.37831
 C1594 C 0.52274 0.47556 0.37344
 C1595 C 0.52389 0.46137 0.38207
 C1596 C 0.51439 0.45891 0.39550
 C1597 C 0.50356 0.47062 0.40048
 C1598 C 0.50258 0.48489 0.39172
 C1599 C 0.53232 0.47798 0.35946
 C1600 C 0.54023 0.48002 0.34768
 C1601 C 0.54935 0.48241 0.33379
 C1602 C 0.55699 0.48445 0.32185
 C1603 C 0.56594 0.48690 0.30747
 C1604 C 0.56084 0.47974 0.29334
 C1605 C 0.56932 0.48232 0.27929
 C1606 C 0.58304 0.49211 0.27917
 C1607 C 0.58814 0.49915 0.29346
 C1608 C 0.57963 0.49657 0.30751
 H1609 H 0.51112 0.49837 0.37172
 H1610 H 0.53206 0.45216 0.37838
 H1611 H 0.51543 0.44773 0.40181
 H1612 H 0.49453 0.49425 0.39522
 H1613 H 0.55028 0.47221 0.29318
 H1614 H 0.56522 0.47656 0.26853
 H1615 H 0.59854 0.50690 0.29372
 H1616 H 0.58365 0.50221 0.31837
 C1617 C 0.02662 -0.03668 0.88369
 C1618 C 0.02240 -0.02525 0.87240
 C1619 C 0.00862 -0.01627 0.87458
 C1620 C -0.00096 -0.01875 0.88794
 C1621 C 0.00311 -0.03028 0.89936
 C1622 C 0.01706 -0.03919 0.89707
 C1623 C 0.03211 -0.02281 0.85852
 C1624 C 0.04013 -0.02076 0.84681
 C1625 C 0.04935 -0.01831 0.83300
 C1626 C 0.05710 -0.01619 0.82113
 C1627 C 0.06616 -0.01360 0.80684
 C1628 C 0.06106 -0.02042 0.79256
 C1629 C 0.06961 -0.01763 0.77859
 C1630 C 0.08340 -0.00795 0.77872
 C1631 C 0.08852 -0.00126 0.79317
 C1632 C 0.07994 -0.00406 0.80713
 H1633 H 0.03728 -0.04370 0.88213
 H1634 H 0.00523 -0.00740 0.86590
 H1635 H -0.01160 -0.01169 0.88917
 H1636 H 0.02070 -0.04808 0.90558
 H1637 H 0.05043 -0.02785 0.79221
 H1638 H 0.06550 -0.02313 0.76770
 H1639 H 0.09898 0.00638 0.79361
 H1640 H 0.08396 0.00132 0.81812
 C1641 C 0.01182 0.01221 0.62232
 C1642 C 0.02279 0.02384 0.62730
 C1643 C 0.02427 0.03814 0.61886
 C1644 C 0.01478 0.04086 0.60553
 C1645 C 0.00364 0.02928 0.60045
 C1646 C 0.00231 0.01490 0.60900
 C1647 C 0.03237 0.02115 0.64117
 C1648 C 0.04029 0.01888 0.65286
 C1649 C 0.04942 0.01620 0.66662
 C1650 C 0.05710 0.01389 0.67846
 C1651 C 0.06610 0.01110 0.69269
 C1652 C 0.06119 0.01780 0.70706
 C1653 C 0.06973 0.01487 0.72096
 C1654 C 0.08331 0.00517 0.72067
 C1655 C 0.08822 -0.00142 0.70615
 C1656 C 0.07965 0.00151 0.69225
 H1657 H 0.01058 0.00108 0.62876
 H1658 H 0.03270 0.04724 0.62263
 H1659 H 0.01609 0.05211 0.59937
 H1660 H -0.00600 0.00564 0.60542
 H1661 H 0.05074 0.02527 0.70753
 H1662 H 0.06579 0.02030 0.73192
 H1663 H 0.09852 -0.00909 0.70558
 H1664 H 0.08353 -0.00378 0.68120
 C1665 C 0.52732 0.53348 0.11585
 C1666 C 0.52213 0.52279 0.12756
 C1667 C 0.50752 0.51483 0.12581
 C1668 C 0.49811 0.51753 0.11243
 C1669 C 0.50318 0.52828 0.10057
 C1670 C 0.51792 0.53622 0.10246
 C1671 C 0.53173 0.52003 0.14140
 C1672 C 0.53964 0.51766 0.15307
 C1673 C 0.54877 0.51482 0.16682
 C1674 C 0.55643 0.51234 0.17863
 C1675 C 0.56542 0.50932 0.19282
 C1676 C 0.56042 0.49738 0.20335
 C1677 C 0.56899 0.49454 0.21725
 C1678 C 0.58271 0.50363 0.22081
 C1679 C 0.58770 0.51556 0.21010
 C1680 C 0.57909 0.51839 0.19621
 H1681 H 0.53863 0.53970 0.11707
 H1682 H 0.50337 0.50655 0.13482
 H1683 H 0.48681 0.51129 0.11152
 H1684 H 0.52231 0.54447 0.09357
 H1685 H 0.54988 0.49026 0.20083
 H1686 H 0.56498 0.48513 0.22515
 H1687 H 0.59809 0.52288 0.21261
 H1688 H 0.58304 0.52770 0.18816
 C1689 C 0.48854 -0.01148 0.12255
 C1690 C 0.47744 -0.02300 0.12752
 C1691 C 0.47581 -0.03726 0.11905
 C1692 C 0.48526 -0.04004 0.10569
 C1693 C 0.49652 -0.02856 0.10060
 C1694 C 0.49801 -0.01422 0.10920
 C1695 C 0.46786 -0.02022 0.14140
 C1696 C 0.45995 -0.01786 0.15308
 C1697 C 0.45083 -0.01503 0.16685
 C1698 C 0.44318 -0.01255 0.17869
 C1699 C 0.43423 -0.00952 0.19292
 C1700 C 0.42065 -0.01866 0.19647
 C1701 C 0.41211 -0.01582 0.21041
 C1702 C 0.41708 -0.00380 0.22101
 C1703 C 0.43070 0.00538 0.21728
 C1704 C 0.43921 0.00252 0.20334
 H1705 H 0.48989 -0.00038 0.12902
 H1706 H 0.46728 -0.04628 0.12282
 H1707 H 0.48382 -0.05125 0.09950
 H1708 H 0.50641 -0.00503 0.10563
 H1709 H 0.41672 -0.02805 0.18850
 H1710 H 0.40178 -0.02320 0.21305
 H1711 H 0.43470 0.01486 0.22509
 H1712 H 0.44969 0.00969 0.20069
 C1713 C 0.97584 0.46386 0.61936
 C1714 C 0.97744 0.47816 0.62778
 C1715 C 0.98854 0.48967 0.62280
 C1716 C 0.99806 0.48687 0.60949
 C1717 C 0.99661 0.47249 0.60095
 C1718 C 0.98533 0.46103 0.60604
 C1719 C 0.96783 0.48097 0.64163
 C1720 C 0.95989 0.48334 0.65330
 C1721 C 0.95075 0.48614 0.66706
 C1722 C 0.94307 0.48857 0.67889
 C1723 C 0.93409 0.49151 0.69312
 C1724 C 0.92047 0.48237 0.69655
 C1725 C 0.91192 0.48509 0.71052
 C1726 C 0.91690 0.49698 0.72125
 C1727 C 0.93055 0.50616 0.71763
 C1728 C 0.93908 0.50343 0.70366
 H1729 H 0.96730 0.45485 0.62314
 H1730 H 0.98987 0.50079 0.62922
 H1731 H 1.00646 0.49604 0.60590
 H1732 H 0.98392 0.44979 0.59989
 H1733 H 0.91653 0.47307 0.68849
 H1734 H 0.90157 0.47770 0.71306
 H1735 H 0.93456 0.51555 0.72555
 H1736 H 0.94958 0.51061 0.70111
 C1737 C 0.97489 0.53684 0.88380
 C1738 C 0.97752 0.52384 0.87377
 C1739 C 0.98959 0.51303 0.87729
 C1740 C 0.99904 0.51521 0.89078
 C1741 C 0.99655 0.52827 0.90095
 C1742 C 0.98432 0.53905 0.89730
 C1743 C 0.96793 0.52165 0.85978
 C1744 C 0.96001 0.51976 0.84801
 C1745 C 0.95087 0.51751 0.83414
 C1746 C 0.94318 0.51555 0.82222
 C1747 C 0.93417 0.51318 0.80789
 C1748 C 0.93917 0.52043 0.79376
 C1749 C 0.93062 0.51791 0.77975
 C1750 C 0.91694 0.50808 0.77969
 C1751 C 0.91194 0.50093 0.79398
 C1752 C 0.92052 0.50345 0.80797
 H1753 H 0.96559 0.54531 0.88116
 H1754 H 0.99172 0.50291 0.86961
 H1755 H 1.00821 0.50658 0.89321
 H1756 H 0.98208 0.54930 0.90474
 H1757 H 0.94970 0.52801 0.79357
 H1758 H 0.93465 0.52375 0.76900
 H1759 H 0.90157 0.49315 0.79427
 H1760 H 0.91657 0.49774 0.81883
 C1761 C 0.49257 0.01683 0.37446
 C1762 C 0.47823 0.02502 0.37280
 C1763 C 0.47345 0.03570 0.38458
 C1764 C 0.48298 0.03825 0.39794
 C1765 C 0.49747 0.03012 0.39972
 C1766 C 0.50212 0.01934 0.38782
 C1767 C 0.46853 0.02255 0.35894
 C1768 C 0.46051 0.02050 0.34726
 C1769 C 0.45126 0.01808 0.33348
 C1770 C 0.44350 0.01601 0.32163
 C1771 C 0.43441 0.01352 0.30736
 C1772 C 0.42072 0.00386 0.30761
 C1773 C 0.41209 0.00120 0.29366
 C1774 C 0.41709 0.00815 0.27927
 C1775 C 0.43081 0.01793 0.27919
 C1776 C 0.43940 0.02059 0.29314
 H1777 H 0.49641 0.00855 0.36540
 H1778 H 0.46235 0.04210 0.38342
 H1779 H 0.47891 0.04652 0.40687
 H1780 H 0.51321 0.01295 0.38866
 H1781 H 0.41678 -0.00171 0.31854
 H1782 H 0.40169 -0.00654 0.29406
 H1783 H 0.43484 0.02362 0.26835
 H1784 H 0.44997 0.02811 0.29283
   
