data_POSCAR
  _audit_creation_date              2014-09-24
  _audit_creation_method            'ToBaCCo'
  _symmetry_space_group_name_H-M    'P1'
  _symmetry_Int_Tables_number       1
  _symmetry_cell_setting            triclinic
  loop_
  _symmetry_equiv_pos_as_xyz
 x,y,z
_cell_length_a 37.6155
_cell_length_b 37.6488
_cell_length_c 37.7628
_cell_angle_alpha 86.326100
_cell_angle_beta 86.388400
_cell_angle_gamma 86.178600
loop_
  _atom_site_label
  _atom_site_type_symbol
  _atom_site_fract_x
  _atom_site_fract_y
  _atom_site_fract_z
C1 C 0.80599 0.64017 1.01011
 C2 C 0.81625 0.61754 0.97845
 C3 C 0.78979 0.59729 0.96960
 C4 C 0.75555 0.60103 0.99396
 C5 C 0.77153 0.66192 1.00009
 C6 C 0.74519 0.64118 0.99145
 C7 C 0.79414 0.61367 1.04017
 C8 C 0.76746 0.59340 1.03213
 H9 H 0.84041 0.62095 0.96157
 H10 H 0.73422 0.58404 0.98721
 H11 H 0.76915 0.69085 0.99776
 H12 H 0.80223 0.61480 1.06717
 C13 C 0.80226 0.35145 0.47619
 C14 C 0.80951 0.37326 0.50742
 C15 C 0.78130 0.39533 0.51819
 C16 C 0.74815 0.39368 0.49667
 C17 C 0.76880 0.33179 0.48832
 C18 C 0.74051 0.35390 0.49926
 C19 C 0.78996 0.37893 0.44716
 C20 C 0.76161 0.40105 0.45774
 H21 H 0.83488 0.37154 0.51987
 H22 H 0.72532 0.41190 0.50530
 H23 H 0.76759 0.30305 0.48832
 H24 H 0.79989 0.37798 0.41958
 C25 C 0.30084 -0.14797 -0.02621
 C26 C 0.30752 -0.12800 0.00424
 C27 C 0.27757 -0.10535 0.01598
 C28 C 0.24641 -0.10689 -0.00502
 C29 C 0.26921 -0.16741 -0.01535
 C30 C 0.23916 -0.14472 -0.00335
 C31 C 0.28919 -0.12116 -0.05340
 C32 C 0.25911 -0.09844 -0.04186
 H33 H 0.33281 -0.12969 0.01689
 H34 H 0.22328 -0.08917 0.00397
 H35 H 0.26844 -0.19617 -0.01584
 H36 H 0.29875 -0.12157 -0.08116
 C37 C 0.30826 0.13305 0.51060
 C38 C 0.31781 0.11079 0.47852
 C39 C 0.29090 0.09100 0.46983
 C40 C 0.25707 0.09474 0.49478
 C41 C 0.27382 0.15524 0.50136
 C42 C 0.24707 0.13495 0.49293
 C43 C 0.29663 0.10630 0.54054
 C44 C 0.26950 0.08649 0.53268
 H45 H 0.34174 0.11422 0.46130
 H46 H 0.23540 0.07810 0.48818
 H47 H 0.27178 0.18418 0.49915
 H48 H 0.30504 0.10716 0.56745
 C49 C 0.13607 0.51115 0.30778
 C50 C 0.11301 0.47971 0.31762
 C51 C 0.09301 0.47113 0.29088
 C52 C 0.09734 0.49561 0.25686
 C53 C 0.15812 0.50092 0.27375
 C54 C 0.13760 0.49264 0.24715
 C55 C 0.10999 0.54168 0.29560
 C56 C 0.08995 0.53395 0.26864
 H57 H 0.11613 0.46261 0.34166
 H58 H 0.08052 0.48913 0.23531
 H59 H 0.18707 0.49811 0.27186
 H60 H 0.11141 0.56872 0.30363
 C61 C -0.14757 -0.02742 0.30149
 C62 C -0.12759 0.00527 0.30854
 C63 C -0.10558 0.01649 0.28061
 C64 C -0.10555 -0.00617 0.24811
 C65 C -0.16726 -0.01660 0.26766
 C66 C -0.14519 -0.00526 0.23964
 C67 C -0.12013 -0.05423 0.29096
 C68 C -0.09688 -0.04279 0.26147
 H69 H -0.13001 0.01799 0.33368
 H70 H -0.08752 0.00318 0.22557
 H71 H -0.19594 -0.01734 0.26615
 H72 H -0.12078 -0.08201 0.30061
 C73 C 0.34910 0.47283 0.80388
 C74 C 0.36979 0.50513 0.81028
 C75 C 0.39053 0.51671 0.78154
 C76 C 0.38876 0.49479 0.74876
 C77 C 0.32797 0.48404 0.77120
 C78 C 0.34873 0.49558 0.74231
 C79 C 0.37738 0.44467 0.79105
 C80 C 0.39817 0.45601 0.76213
 H81 H 0.36859 0.51751 0.83558
 H82 H 0.40567 0.50417 0.72530
 H83 H 0.29911 0.48401 0.77150
 H84 H 0.37784 0.41698 0.80113
 C85 C 0.63506 1.01156 0.80564
 C86 C 0.61284 0.97935 0.81513
 C87 C 0.59262 0.97104 0.78841
 C88 C 0.59614 0.99645 0.75486
 C89 C 0.65704 1.00221 0.77124
 C90 C 0.63640 0.99405 0.74465
 C91 C 0.60965 1.04026 0.79509
 C92 C 0.58842 1.03252 0.76675
 H93 H 0.61637 0.96195 0.83890
 H94 H 0.57934 0.98979 0.73337
 H95 H 0.68599 0.99955 0.76919
 H96 H 0.61103 1.06723 0.80336
 C97 C -0.02433 0.30145 -0.15178
 C98 C 0.00674 0.30851 -0.12953
 C99 C 0.01745 0.28016 -0.10771
 C100 C -0.00384 0.24706 -0.11010
 C101 C -0.01172 0.26822 -0.17171
 C102 C -0.00078 0.23977 -0.14986
 C103 C -0.05367 0.28884 -0.12483
 C104 C -0.04302 0.26033 -0.10303
 H105 H 0.01913 0.33384 -0.13078
 H106 H 0.00478 0.22411 -0.09209
 H107 H -0.01171 0.26719 -0.20039
 H108 H -0.08134 0.29892 -0.12574
 C109 C 0.51175 0.30426 0.13651
 C110 C 0.47974 0.31415 0.11411
 C111 C 0.47095 0.28743 0.09420
 C112 C 0.49576 0.25339 0.09795
 C113 C 0.50213 0.26993 0.15845
 C114 C 0.49361 0.24335 0.13800
 C115 C 0.54188 0.29237 0.11001
 C116 C 0.53391 0.26545 0.09005
 H117 H 0.46254 0.33818 0.11754
 H118 H 0.48909 0.23189 0.08117
 H119 H 0.49961 0.26790 0.18729
 H120 H 0.56895 0.30051 0.11104
 C121 C 1.01094 0.80736 0.63403
 C122 C 0.97965 0.81683 0.61379
 C123 C 0.97027 0.78896 0.59262
 C124 C 0.99452 0.75694 0.59546
 C125 C 1.00293 0.77433 0.65489
 C126 C 0.99379 0.74642 0.63342
 C127 C 1.03909 0.79701 0.60771
 C128 C 1.03049 0.76883 0.58661
 H129 H 0.96220 0.84060 0.61790
 H130 H 0.98764 0.73560 0.57855
 H131 H 1.00105 0.77199 0.68375
 H132 H 1.06626 0.80510 0.60823
 C133 C 0.47428 0.80126 0.34966
 C134 C 0.50601 0.80856 0.37088
 C135 C 0.51709 0.78049 0.39290
 C136 C 0.49537 0.74745 0.39177
 C137 C 0.48610 0.76761 0.33015
 C138 C 0.49736 0.73947 0.35220
 C139 C 0.44549 0.78936 0.37752
 C140 C 0.45639 0.76114 0.39955
 H141 H 0.51849 0.83387 0.36891
 H142 H 0.50423 0.72473 0.40995
 H143 H 0.48579 0.76620 0.30154
 H144 H 0.41781 0.79949 0.37694
 C145 C 0.40298 -0.01545 0.26786
 H146 H 0.39949 0.00916 0.28133
 C147 C 0.42089 -0.04520 0.28391
 H148 H 0.43130 -0.04346 0.30979
 C149 C 0.39150 -0.04846 0.21881
 H150 H 0.37921 -0.04975 0.19385
 C151 C 0.40961 -0.07883 0.23379
 H152 H 0.41109 -0.10343 0.22031
 N153 N 0.38805 -0.01781 0.23630
 C154 C 0.36959 0.08988 0.18900
 H155 H 0.34125 0.09075 0.18535
 C156 C 0.38890 0.11957 0.17865
 H157 H 0.37538 0.14336 0.16693
 C158 C 0.42186 0.05794 0.20869
 H159 H 0.43467 0.03387 0.22038
 C160 C 0.44219 0.08708 0.19867
 H161 H 0.47049 0.08517 0.20273
 Zn162 Zn 0.35801 0.02135 0.22045
 N163 N 0.38610 0.06001 0.20425
 C164 C 0.32388 0.06854 0.26956
 N165 N 0.32804 0.03399 0.26067
 C166 C 0.31752 0.00700 0.28394
 C167 C 0.30491 0.01403 0.31857
 C168 C 0.31084 0.07675 0.30364
 C169 C 0.34246 0.01646 0.14908
 C170 C 0.32778 0.00142 0.12095
 C171 C 0.28985 -0.03150 0.16339
 C172 C 0.30529 -0.01584 0.19081
 N173 N 0.33156 0.00713 0.18325
 H174 H 0.33276 0.08966 0.25119
 H175 H 0.32177 -0.02034 0.27664
 H176 H 0.29897 -0.00791 0.33747
 H177 H 0.30950 0.10418 0.31098
 H178 H 0.36399 0.03400 0.14362
 H179 H 0.33792 0.00769 0.09394
 H180 H 0.27020 -0.05097 0.16988
 H181 H 0.29750 -0.02334 0.21815
 C182 C 0.42553 0.11841 0.18381
 C183 C 0.42383 -0.07739 0.26704
 C184 C 0.30184 -0.02351 0.12807
 C185 C 0.30284 0.04917 0.32895
 C186 C 0.05974 1.04536 0.79464
 H187 H 0.05460 1.01920 0.80667
 C188 C 0.04198 1.07577 0.80846
 H189 H 0.02293 1.07285 0.83097
 C190 C 0.09246 1.08117 0.75198
 H191 H 0.11309 1.08338 0.73089
 C192 C 0.07541 1.11213 0.76496
 H193 H 0.08262 1.13792 0.75337
 N194 N 0.08467 1.04861 0.76710
 C195 C 0.10700 0.94125 0.73108
 H196 H 0.13537 0.93964 0.73476
 C197 C 0.09165 0.91301 0.71721
 H198 H 0.10824 0.88947 0.71056
 C199 C 0.05124 0.97460 0.73414
 H200 H 0.03593 0.99901 0.74022
 C201 C 0.03492 0.94720 0.71910
 H202 H 0.00690 0.95046 0.71384
 Zn203 Zn 0.11343 1.00788 0.75377
 N204 N 0.08679 0.97114 0.73948
 C205 C 0.13338 0.95866 0.80997
 N206 N 0.13950 0.99117 0.79366
 C207 C 0.16278 1.01263 0.80653
 C208 C 0.18202 1.00096 0.83609
 C209 C 0.15229 0.94586 0.83919
 C210 C 0.12662 1.03092 0.68350
 C211 C 0.14601 1.03993 0.65186
 C212 C 0.20041 1.02490 0.68174
 C213 C 0.17994 1.01631 0.71298
 N214 N 0.14369 1.01995 0.71337
 H215 H 0.11368 0.94255 0.80056
 H216 H 0.16657 1.03871 0.79363
 H217 H 0.20101 1.01794 0.84560
 H218 H 0.14776 0.91957 0.85133
 H219 H 0.09776 1.03291 0.68442
 H220 H 0.13187 1.04912 0.62861
 H221 H 0.22926 1.02239 0.68169
 H222 H 0.19299 1.00665 0.73673
 C223 C 0.05548 0.91620 0.71020
 C224 C 0.05035 1.10960 0.79387
 C225 C 0.18334 1.03718 0.65087
 C226 C 0.17696 0.96704 0.85244
 C227 C 0.56027 0.54621 0.29495
 H228 H 0.55563 0.51982 0.30668
 C229 C 0.54213 0.57616 0.30925
 H230 H 0.52326 0.57270 0.33185
 C231 C 0.59218 0.58303 0.25254
 H232 H 0.61265 0.58579 0.23136
 C233 C 0.57475 0.61355 0.26602
 H234 H 0.58149 0.63959 0.25472
 N235 N 0.58496 0.55018 0.26729
 C236 C 0.60827 0.44295 0.23157
 H237 H 0.63662 0.44151 0.23534
 C238 C 0.59303 0.41436 0.21823
 H239 H 0.60969 0.39073 0.21199
 C240 C 0.55239 0.47611 0.23412
 H241 H 0.53697 0.50058 0.23980
 C242 C 0.53617 0.44832 0.21965
 H243 H 0.50813 0.45137 0.21447
 Zn244 Zn 0.61420 0.51006 0.25343
 N245 N 0.58794 0.47292 0.23946
 C246 C 0.63373 0.46172 0.31024
 N247 N 0.64071 0.49362 0.29306
 C248 C 0.66492 0.51464 0.30503
 C249 C 0.68451 0.50291 0.33433
 C250 C 0.65276 0.44897 0.33939
 C251 C 0.62634 0.53403 0.18322
 C252 C 0.64528 0.54376 0.15152
 C253 C 0.70016 0.52879 0.18057
 C254 C 0.68014 0.51947 0.21189
 N255 N 0.64386 0.52278 0.21275
 H256 H 0.61322 0.44610 0.30160
 H257 H 0.66924 0.54037 0.29156
 H258 H 0.70431 0.51947 0.34304
 H259 H 0.64751 0.42316 0.35228
 H260 H 0.59747 0.53576 0.18450
 H261 H 0.63080 0.55322 0.12856
 H262 H 0.72904 0.52659 0.18019
 H263 H 0.69358 0.50954 0.23531
 C264 C 0.55684 0.41722 0.21130
 C265 C 0.54989 0.61028 0.29504
 C266 C 0.68263 0.54142 0.15009
 C267 C 0.67866 0.46949 0.35147
 C268 C 0.90875 0.48751 0.76851
 H269 H 0.90575 0.51197 0.78227
 C270 C 0.92604 0.45721 0.78429
 H271 H 0.93649 0.45839 0.81023
 C272 C 0.89635 0.45536 0.71917
 H273 H 0.88387 0.45457 0.69425
 C274 C 0.91383 0.42448 0.73386
 H275 H 0.91464 0.40003 0.72016
 N276 N 0.89357 0.48582 0.73697
 C277 C 0.87384 0.59351 0.68976
 H278 H 0.84538 0.59400 0.68685
 C279 C 0.89261 0.62327 0.67839
 H280 H 0.87853 0.64678 0.66676
 C281 C 0.92694 0.56233 0.70835
 H282 H 0.94021 0.53850 0.72007
 C283 C 0.94681 0.59154 0.69714
 H284 H 0.97526 0.59000 0.70032
 Zn285 Zn 0.86340 0.52519 0.72168
 N286 N 0.89103 0.56398 0.70491
 C287 C 0.82873 0.57243 0.77053
 N288 N 0.83365 0.53780 0.76207
 C289 C 0.82319 0.51086 0.78543
 C290 C 0.80957 0.51813 0.81970
 C291 C 0.81466 0.58088 0.80421
 C292 C 0.84749 0.51980 0.65061
 C293 C 0.83256 0.50461 0.62274
 C294 C 0.79416 0.47277 0.66565
 C295 C 0.80984 0.48858 0.69280
 N296 N 0.83647 0.51107 0.68488
 H297 H 0.83756 0.59353 0.75211
 H298 H 0.82795 0.48347 0.77844
 H299 H 0.80351 0.49630 0.83869
 H300 H 0.81253 0.60843 0.81120
 H301 H 0.86933 0.53692 0.64490
 H302 H 0.84280 0.51036 0.59568
 H303 H 0.77424 0.45363 0.67242
 H304 H 0.80198 0.48153 0.72022
 C305 C 0.92945 0.62250 0.68224
 C306 C 0.92818 0.42518 0.76713
 C307 C 0.80629 0.48010 0.63025
 C308 C 0.80646 0.55344 0.82962
 C309 C 0.26948 0.40263 -0.01180
 H310 H 0.28316 0.39905 0.01266
 C311 C 0.28569 0.41996 -0.04165
 H312 H 0.31189 0.42989 -0.04015
 C313 C 0.21975 0.39182 -0.04434
 H314 H 0.19448 0.37997 -0.04543
 C315 C 0.23487 0.40936 -0.07476
 H316 H 0.22112 0.41087 -0.09918
 N317 N 0.23750 0.38829 -0.01388
 C318 C 0.18919 0.36976 0.09296
 H319 H 0.18514 0.34155 0.09334
 C320 C 0.17849 0.38888 0.12266
 H321 H 0.16613 0.37537 0.14598
 C322 C 0.21023 0.42185 0.06222
 H323 H 0.22259 0.43463 0.03860
 C324 C 0.19996 0.44198 0.09142
 H325 H 0.20449 0.47013 0.09002
 Zn326 Zn 0.22140 0.35839 0.02498
 N327 N 0.20520 0.38628 0.06368
 C328 C 0.27033 0.32340 0.07184
 N329 N 0.26145 0.32793 0.03741
 C330 C 0.28461 0.31715 0.01042
 C331 C 0.31919 0.30382 0.01737
 C332 C 0.30437 0.30966 0.07997
 C333 C 0.14974 0.34459 0.01838
 C334 C 0.12167 0.33039 0.00271
 C335 C 0.16437 0.29042 -0.02778
 C336 C 0.19171 0.30540 -0.01153
 N337 N 0.18402 0.33245 0.01051
 H338 H 0.25200 0.33252 0.09294
 H339 H 0.27730 0.32171 -0.01681
 H340 H 0.33807 0.29767 -0.00454
 H341 H 0.31178 0.30801 0.10731
 H342 H 0.14428 0.36672 0.03518
 H343 H 0.09465 0.34147 0.00777
 H344 H 0.17103 0.27011 -0.04653
 H345 H 0.21916 0.29662 -0.01789
 C346 C 0.18420 0.42531 0.12213
 C347 C 0.26854 0.42292 -0.07364
 C348 C 0.12902 0.30369 -0.02136
 C349 C 0.32963 0.30135 0.05240
 C350 C 0.79727 0.05604 1.04657
 H351 H 0.80853 0.05035 1.02032
 C352 C 0.81135 0.03801 1.07664
 H353 H 0.83331 0.01820 1.07339
 C354 C 0.75629 0.09034 1.08291
 H355 H 0.73579 0.11166 1.08541
 C356 C 0.76963 0.07312 1.11353
 H357 H 0.75887 0.08088 1.13939
 N358 N 0.77038 0.08181 1.05025
 C359 C 0.73448 0.10475 0.94327
 H360 H 0.73874 0.13295 0.94185
 C361 C 0.72042 0.08988 0.91491
 H362 H 0.71418 0.10666 0.89146
 C363 C 0.73619 0.04896 0.97631
 H364 H 0.74175 0.03349 1.00068
 C365 C 0.72101 0.03313 0.94872
 H366 H 0.71520 0.00529 0.95179
 Zn367 Zn 0.75649 0.11064 1.00996
 N368 N 0.74224 0.08430 0.97310
 C369 C 0.81346 0.12948 0.96163
 N370 N 0.79608 0.13703 0.99323
 C371 C 0.80744 0.16222 1.01345
 C372 C 0.83606 0.18244 1.00101
 C373 C 0.84201 0.14903 0.94823
 C374 C 0.68621 0.12317 1.03426
 C375 C 0.65428 0.14226 1.04352
 C376 C 0.68298 0.19687 1.02676
 C377 C 0.71450 0.17670 1.01792
 N378 N 0.71566 0.14050 1.02234
 H379 H 0.80529 0.10825 0.94667
 H380 H 0.79385 0.16702 1.03897
 H381 H 0.84417 0.20309 1.01687
 H382 H 0.85500 0.14337 0.92261
 H383 H 0.68770 0.09433 1.03681
 H384 H 0.63139 0.12795 1.05352
 H385 H 0.68235 0.22570 1.02365
 H386 H 0.73782 0.18997 1.00736
 C387 C 0.71266 0.05397 0.91783
 C388 C 0.79778 0.04704 1.11055
 C389 C 0.65258 0.17956 1.04001
 C390 C 0.85322 0.17613 0.96777
 C391 C 0.29348 0.56224 0.55130
 H392 H 0.30594 0.55597 0.52565
 C393 C 0.30653 0.54534 0.58241
 H394 H 0.32882 0.52565 0.58070
 C395 C 0.25043 0.59680 0.58511
 H396 H 0.22945 0.61778 0.58628
 C397 C 0.26262 0.58065 0.61669
 H398 H 0.25013 0.58894 0.64163
 N399 N 0.26601 0.58759 0.55324
 C400 C 0.23293 0.60737 0.44484
 H401 H 0.23712 0.63560 0.44285
 C402 C 0.21967 0.59171 0.41651
 H403 H 0.21397 0.60792 0.39255
 C404 C 0.23400 0.55235 0.47920
 H405 H 0.23900 0.53750 0.50405
 C406 C 0.21955 0.53575 0.45166
 H407 H 0.21371 0.50795 0.45526
 Zn408 Zn 0.25310 0.61515 0.51182
 N409 N 0.23999 0.58768 0.47530
 C410 C 0.31127 0.63248 0.46455
 N411 N 0.29304 0.64113 0.49541
 C412 C 0.30405 0.66679 0.51528
 C413 C 0.33329 0.68629 0.50318
 C414 C 0.34040 0.65133 0.45148
 C415 C 0.18220 0.62779 0.53373
 C416 C 0.15007 0.64683 0.54230
 C417 C 0.17883 0.70147 0.52594
 C418 C 0.21060 0.68135 0.51783
 N419 N 0.21182 0.64516 0.52246
 H420 H 0.30336 0.61087 0.44995
 H421 H 0.28978 0.67244 0.54027
 H422 H 0.34116 0.70733 0.51870
 H423 H 0.35405 0.64481 0.42639
 H424 H 0.18377 0.59895 0.53648
 H425 H 0.12707 0.63247 0.55191
 H426 H 0.17816 0.73030 0.52277
 H427 H 0.23410 0.69464 0.50784
 C428 C 0.21191 0.55582 0.42011
 C429 C 0.29136 0.55500 0.61555
 C430 C 0.14829 0.68412 0.53875
 C431 C 0.35138 0.67881 0.47065
 C432 C 0.77037 0.90510 0.48545
 H433 H 0.78400 0.90187 0.50995
 C434 C 0.78659 0.92216 0.45543
 H435 H 0.81273 0.93224 0.45687
 C436 C 0.72087 0.89357 0.45292
 H437 H 0.69569 0.88153 0.45190
 C438 C 0.73601 0.91082 0.42232
 H439 H 0.72237 0.91194 0.39785
 N440 N 0.73853 0.89049 0.48345
 C441 C 0.68997 0.87187 0.59031
 H442 H 0.68632 0.84358 0.59066
 C443 C 0.67879 0.89088 0.61995
 H444 H 0.66647 0.87719 0.64319
 C445 C 0.71053 0.92424 0.55971
 H446 H 0.72294 0.93714 0.53617
 C447 C 0.69974 0.94428 0.58886
 H448 H 0.70392 0.97250 0.58752
 Zn449 Zn 0.72257 0.86068 0.52252
 N450 N 0.70595 0.88858 0.56112
 C451 C 0.77160 0.82660 0.56985
 N452 N 0.76283 0.83059 0.53536
 C453 C 0.78613 0.81945 0.50862
 C454 C 0.82065 0.80612 0.51589
 C455 C 0.80558 0.81290 0.57829
 C456 C 0.65103 0.84618 0.51647
 C457 C 0.62289 0.83173 0.50116
 C458 C 0.66556 0.79230 0.46998
 C459 C 0.69299 0.80751 0.48591
 N460 N 0.68533 0.83439 0.50816
 H461 H 0.75322 0.83604 0.59075
 H462 H 0.77893 0.82363 0.48132
 H463 H 0.83960 0.79959 0.49416
 H464 H 0.81284 0.81161 0.60568
 H465 H 0.64553 0.86823 0.53337
 H466 H 0.59583 0.84252 0.50663
 H467 H 0.67216 0.77212 0.45108
 H468 H 0.72045 0.79903 0.47917
 C469 C 0.68395 0.92741 0.61947
 C470 C 0.76960 0.92456 0.42334
 C471 C 0.63016 0.80517 0.47694
 C472 C 0.83092 0.80404 0.55099
 C473 C -0.01363 0.26951 0.40692
 H474 H 0.01090 0.28312 0.40334
 C475 C -0.04344 0.28558 0.42468
 H476 H -0.04183 0.31162 0.43489
 C477 C -0.04645 0.22017 0.39564
 H478 H -0.04767 0.19511 0.38343
 C479 C -0.07686 0.23516 0.41360
 H480 H -0.10142 0.22158 0.41506
 N481 N -0.01589 0.23782 0.39212
 C482 C 0.09149 0.18987 0.37214
 H483 H 0.09169 0.18637 0.34391
 C484 C 0.12144 0.17869 0.39086
 H485 H 0.14479 0.16655 0.37699
 C486 C 0.06089 0.20984 0.42471
 H487 H 0.03721 0.22194 0.43784
 C488 C 0.09034 0.19903 0.44446
 H489 H 0.08909 0.20293 0.47266
 Zn490 Zn 0.02296 0.22209 0.36179
 N491 N 0.06214 0.20556 0.38910
 C492 C 0.06969 0.27103 0.32682
 N493 N 0.03511 0.26239 0.33177
 C494 C 0.00793 0.28578 0.32153
 C495 C 0.01487 0.32030 0.30826
 C496 C 0.07781 0.30499 0.31311
 C497 C 0.01746 0.15064 0.34667
 C498 C 0.00231 0.12256 0.33200
 C499 C -0.03014 0.16537 0.29375
 C500 C -0.01435 0.19273 0.30916
 N501 N 0.00846 0.18496 0.33556
 H502 H 0.09097 0.25255 0.33550
 H503 H -0.01941 0.27865 0.32638
 H504 H -0.00715 0.33933 0.30250
 H505 H 0.10531 0.31215 0.31108
 H506 H 0.03485 0.14506 0.36832
 H507 H 0.00836 0.09545 0.34225
 H508 H -0.04946 0.17203 0.27395
 H509 H -0.02159 0.22020 0.30120
 C510 C 0.12110 0.18353 0.42734
 C511 C -0.07558 0.26859 0.42761
 C512 C -0.02245 0.12992 0.30592
 C513 C 0.05010 0.33043 0.30525
 C514 C 1.04808 0.80163 0.06334
 H515 H 1.02198 0.81522 0.06119
 C516 C 1.07806 0.81644 0.04594
 H517 H 1.07480 0.84123 0.03000
 C518 C 1.08436 0.75378 0.08840
 H519 H 1.08706 0.73016 0.10602
 C520 C 1.11487 0.76741 0.07114
 H521 H 1.14073 0.75378 0.07509
 N522 N 1.05180 0.77114 0.08452
 C523 C 0.94506 0.73396 0.10755
 H524 H 0.94413 0.73662 0.13596
 C525 C 0.91638 0.72076 0.09230
 H526 H 0.89321 0.71354 0.10904
 C527 C 0.97700 0.73926 0.05147
 H528 H 1.00101 0.74609 0.03595
 C529 C 0.94912 0.72495 0.03518
 H530 H 0.95164 0.72095 0.00698
 Zn531 Zn 1.01169 0.75684 0.11350
 N532 N 0.97447 0.74312 0.08715
 C533 C 0.96249 0.81281 0.13408
 N534 N 0.99499 0.79628 0.14027
 C535 C 1.01626 0.80864 0.16401
 C536 C 1.00420 0.83762 0.18395
 C537 C 0.94940 0.84161 0.15347
 C538 C 1.03466 0.68578 0.12593
 C539 C 1.04368 0.65390 0.14515
 C540 C 1.02969 0.68388 0.19942
 C541 C 1.02112 0.71533 0.17914
 N542 N 1.02429 0.71584 0.14303
 H543 H 0.94659 0.80390 0.11397
 H544 H 1.04243 0.79570 0.16772
 H545 H 1.02097 0.84666 0.20337
 H546 H 0.92313 0.85398 0.14886
 H547 H 1.03611 0.68672 0.09718
 H548 H 1.05242 0.63048 0.13102
 H549 H 1.02752 0.68378 0.22816
 H550 H 1.01175 0.73913 0.19228
 C551 C 0.91859 0.71526 0.05593
 C552 C 1.11196 0.79951 0.05037
 C553 C 1.04146 0.65285 0.18234
 C554 C 0.97019 0.85402 0.17893
 C555 C 0.54740 0.29564 0.56086
 H556 H 0.52093 0.30708 0.55575
 C557 C 0.57735 0.31021 0.54313
 H558 H 0.57380 0.33270 0.52410
 C559 C 0.58439 0.25366 0.59346
 H560 H 0.58718 0.23256 0.61402
 C561 C 0.61491 0.26742 0.57645
 H562 H 0.64101 0.25638 0.58359
 N563 N 0.55145 0.26805 0.58567
 C564 C 0.44479 0.23054 0.60748
 H565 H 0.44309 0.23427 0.63572
 C566 C 0.41672 0.21642 0.59206
 H567 H 0.39320 0.20960 0.60847
 C568 C 0.47821 0.23381 0.55208
 H569 H 0.50260 0.24005 0.53695
 C570 C 0.45095 0.21861 0.53568
 H571 H 0.45428 0.21346 0.50777
 Zn572 Zn 0.51117 0.25369 0.61418
 N573 N 0.47464 0.23914 0.58748
 C574 C 0.46156 0.30993 0.63343
 N575 N 0.49379 0.29323 0.64044
 C576 C 0.51452 0.30553 0.66469
 C577 C 0.50219 0.33469 0.68424
 C578 C 0.44819 0.33892 0.65245
 C579 C 0.53597 0.18346 0.62669
 C580 C 0.54518 0.15156 0.64576
 C581 C 0.52832 0.18045 0.70016
 C582 C 0.51955 0.21197 0.68002
 N583 N 0.52396 0.21298 0.64394
 H584 H 0.44611 0.30098 0.61296
 H585 H 0.54047 0.29240 0.66910
 H586 H 0.51853 0.34363 0.70407
 H587 H 0.42211 0.35140 0.64721
 H588 H 0.53853 0.18484 0.59795
 H589 H 0.55517 0.12856 0.63155
 H590 H 0.52511 0.17989 0.72889
 H591 H 0.50900 0.23538 0.69320
 C592 C 0.42000 0.20947 0.55603
 C593 C 0.61154 0.29634 0.55143
 C594 C 0.54153 0.14994 0.68293
 C595 C 0.46845 0.35135 0.67835
 C596 C 0.48296 0.77202 0.90424
 H597 H 0.50746 0.78565 0.90033
 C598 C 0.45314 0.78840 0.92175
 H599 H 0.45472 0.81467 0.93144
 C600 C 0.45020 0.72229 0.89413
 H601 H 0.44900 0.69693 0.88251
 C602 C 0.41981 0.73757 0.91189
 H603 H 0.39528 0.72391 0.91379
 N604 N 0.48075 0.73996 0.89014
 C605 C 0.58797 0.69077 0.87093
 H606 H 0.58792 0.68632 0.84292
 C607 C 0.61812 0.68022 0.88963
 H608 H 0.64130 0.66757 0.87597
 C609 C 0.55799 0.71278 0.92292
 H610 H 0.53452 0.72553 0.93582
 C611 C 0.58768 0.70271 0.94262
 H612 H 0.58678 0.70776 0.97055
 Zn613 Zn 0.51961 0.72347 0.86006
 N614 N 0.55883 0.70718 0.88759
 C615 C 0.56696 0.77133 0.82428
 N616 N 0.53222 0.76326 0.82942
 C617 C 0.50536 0.78694 0.81897
 C618 C 0.51283 0.82123 0.80535
 C619 C 0.57560 0.80503 0.81024
 C620 C 0.51402 0.65176 0.84533
 C621 C 0.49875 0.62358 0.83091
 C622 C 0.46557 0.66622 0.79313
 C623 C 0.48150 0.69368 0.80827
 N624 N 0.50474 0.68605 0.83432
 H625 H 0.58800 0.75262 0.83307
 H626 H 0.47790 0.78027 0.82393
 H627 H 0.49107 0.84053 0.79947
 H628 H 0.60323 0.81177 0.80813
 H629 H 0.53174 0.64624 0.86671
 H630 H 0.50505 0.59649 0.84109
 H631 H 0.44594 0.67277 0.77362
 H632 H 0.47404 0.72112 0.80039
 C633 C 0.61825 0.68655 0.92577
 C634 C 0.42105 0.77131 0.92522
 C635 C 0.47359 0.63078 0.80518
 C636 C 0.54826 0.83083 0.80224
 C637 C 0.47240 -0.11240 0.30784
 C638 C 0.45112 -0.12999 0.33989
 C639 C 0.46171 -0.16684 0.32566
 C640 C 0.48316 -0.14961 0.29380
 C641 C 0.42807 -0.16493 0.30430
 C642 C 0.41739 -0.12781 0.31840
 C643 C 0.43871 -0.11043 0.28655
 C644 C 0.44928 -0.14725 0.27215
 H645 H 0.49061 -0.09055 0.30908
 H646 H 0.45192 -0.12320 0.36799
 H647 H 0.51039 -0.15901 0.28401
 H648 H 0.40997 -0.18688 0.30314
 H649 H 0.39016 -0.11857 0.32837
 H650 H 0.44869 -0.15438 0.24414
 C651 C 0.97528 0.38853 0.80849
 C652 C 0.95305 0.37042 0.83956
 C653 C 0.96364 0.33389 0.82458
 C654 C 0.98601 0.35166 0.79369
 C655 C 0.93059 0.33681 0.80233
 C656 C 0.91992 0.37363 0.81718
 C657 C 0.94218 0.39152 0.78630
 C658 C 0.95273 0.35503 0.77114
 H659 H 0.99368 0.41001 0.81084
 H660 H 0.95320 0.37647 0.86793
 H661 H 1.01335 0.34217 0.78432
 H662 H 0.91232 0.31521 0.80006
 H663 H 0.89257 0.38298 0.82669
 H664 H 0.95280 0.34869 0.74284
 C665 C 0.05879 1.16902 0.82579
 C666 C 0.03965 1.20049 0.80479
 C667 C 0.01197 1.20443 0.83625
 C668 C 0.03099 1.17330 0.85744
 C669 C -0.01200 1.17869 0.82049
 C670 C 0.01587 1.17436 0.78882
 C671 C 0.03492 1.14317 0.80994
 C672 C 0.00720 1.14706 0.84149
 H673 H 0.08809 1.16481 0.82789
 H674 H 0.05298 1.22276 0.78985
 H675 H 0.03754 1.17271 0.88572
 H676 H -0.04128 1.18308 0.81838
 H677 H 0.00968 1.17452 0.76045
 H678 H -0.00645 1.12522 0.85678
 C679 C 0.50616 0.64673 0.34306
 C680 C 0.52958 0.67303 0.35945
 C681 C 0.51042 0.70418 0.33844
 C682 C 0.48679 0.67842 0.32226
 C683 C 0.53827 0.70077 0.30706
 C684 C 0.55757 0.66929 0.32786
 C685 C 0.53404 0.64341 0.31159
 C686 C 0.51483 0.67463 0.29068
 H687 H 0.49266 0.62459 0.35800
 H688 H 0.53591 0.67227 0.38780
 H689 H 0.45750 0.68259 0.32010
 H690 H 0.55147 0.72328 0.29240
 H691 H 0.58687 0.66527 0.33006
 H692 H 0.50879 0.67502 0.26225
 C693 C 0.50681 0.38847 0.17396
 C694 C 0.52758 0.37227 0.14149
 C695 C 0.52173 0.33459 0.15824
 C696 C 0.50074 0.35039 0.19049
 C697 C 0.55682 0.33415 0.17712
 C698 C 0.56276 0.37196 0.16039
 C699 C 0.54201 0.38789 0.19275
 C700 C 0.53612 0.35028 0.20959
 H701 H 0.48614 0.41087 0.17256
 H702 H 0.52407 0.38105 0.11323
 H703 H 0.47511 0.34106 0.20263
 H704 H 0.57734 0.31157 0.17835
 H705 H 0.58834 0.38100 0.14783
 H706 H 0.53969 0.34154 0.23784
 C707 C 0.03284 0.84983 0.70682
 C708 C -0.00097 0.85086 0.68523
 C709 C 0.02079 0.83611 0.65517
 C710 C 0.05367 0.83350 0.67463
 C711 C 0.02786 0.87174 0.63886
 C712 C 0.00630 0.88913 0.67015
 C713 C 0.04060 0.88750 0.69081
 C714 C 0.06223 0.87102 0.65902
 H715 H 0.03454 0.83984 0.73500
 H716 H -0.02731 0.84117 0.69489
 H717 H 0.07256 0.80953 0.67572
 H718 H 0.02548 0.87945 0.61017
 H719 H -0.01413 0.91166 0.66755
 H720 H 0.08857 0.87863 0.64707
 C721 C 0.98965 0.66012 0.67011
 C722 C 0.98826 0.67774 0.63192
 C723 C 0.97930 0.71420 0.64761
 C724 C 0.98107 0.69715 0.68562
 C725 C 0.93918 0.70879 0.64793
 C726 C 0.94786 0.67207 0.63232
 C727 C 0.94935 0.65486 0.67029
 C728 C 0.94063 0.69135 0.68602
 H729 H 1.01064 0.64007 0.67915
 H730 H 1.00807 0.67240 0.60954
 H731 H 0.99483 0.70758 0.70756
 H732 H 0.91815 0.72886 0.63945
 H733 H 0.93412 0.66165 0.61035
 H734 H 0.92082 0.69673 0.70838
 C735 C 0.48609 0.15573 0.17607
 C736 C 0.48762 0.17300 0.13766
 C737 C 0.47766 0.20965 0.15257
 C738 C 0.47643 0.19293 0.19081
 C739 C 0.43779 0.20443 0.14987
 C740 C 0.44750 0.16755 0.13503
 C741 C 0.44605 0.15067 0.17323
 C742 C 0.43626 0.18735 0.18819
 H743 H 0.50624 0.13569 0.18679
 H744 H 0.50902 0.16748 0.11677
 H745 H 0.48847 0.20360 0.21370
 H746 H 0.41779 0.22468 0.13952
 H747 H 0.43546 0.15701 0.11206
 H748 H 0.41487 0.19307 0.20904
 C749 C 0.31988 0.41605 -0.12433
 C750 C 0.30509 0.42629 -0.16116
 C751 C 0.32622 0.46003 -0.16363
 C752 C 0.34117 0.44991 -0.12711
 C753 C 0.29430 0.48145 -0.14616
 C754 C 0.27289 0.44749 -0.14329
 C755 C 0.28795 0.43738 -0.10676
 C756 C 0.30904 0.47117 -0.10927
 H757 H 0.33022 0.38897 -0.11504
 H758 H 0.30377 0.40795 -0.18285
 H759 H 0.36949 0.45096 -0.12080
 H760 H 0.28410 0.50854 -0.15557
 H761 H 0.24468 0.44674 -0.15008
 H762 H 0.31042 0.48960 -0.08767
 C763 C 0.82160 0.91702 0.37357
 C764 C 0.80754 0.92626 0.33624
 C765 C 0.82841 0.96019 0.33342
 C766 C 0.84259 0.95105 0.37048
 C767 C 0.79599 0.98178 0.34982
 C768 C 0.77484 0.94762 0.35308
 C769 C 0.78920 0.93851 0.39009
 C770 C 0.81000 0.97249 0.38720
 H771 H 0.83199 0.89022 0.38364
 H772 H 0.80681 0.90735 0.31496
 H773 H 0.87070 0.95248 0.37735
 H774 H 0.78577 1.00858 0.33960
 H775 H 0.74683 0.94641 0.34583
 H776 H 0.81079 0.99150 0.40839
 C777 C 0.79265 0.01395 1.17554
 C778 C 0.82300 -0.01563 1.17962
 C779 C 0.84102 0.00762 1.20439
 C780 C 0.81087 0.03701 1.20067
 C781 C 0.86264 0.02477 1.17261
 C782 C 0.84440 0.00173 1.14733
 C783 C 0.81417 0.03116 1.14370
 C784 C 0.83228 0.05430 1.16858
 H785 H 0.76371 0.00953 1.17648
 H786 H 0.81929 -0.04456 1.18457
 H787 H 0.79723 0.05148 1.22291
 H788 H 0.89152 0.02947 1.17118
 H789 H 0.85833 -0.01309 1.12550
 H790 H 0.83601 0.08325 1.16379
 C791 C 0.29382 0.54911 0.68718
 C792 C 0.29425 0.50911 0.69929
 C793 C 0.33344 0.51035 0.70831
 C794 C 0.33321 0.55013 0.69641
 C795 C 0.34630 0.50000 0.67067
 C796 C 0.30688 0.49901 0.66120
 C797 C 0.30648 0.53889 0.64934
 C798 C 0.34576 0.54007 0.65831
 H799 H 0.27239 0.56922 0.69510
 H800 H 0.27271 0.49624 0.71584
 H801 H 0.34429 0.57098 0.71124
 H802 H 0.36809 0.47963 0.66431
 H803 H 0.29591 0.47805 0.64645
 H804 H 0.36687 0.55300 0.64119
 C805 C 0.16100 0.56221 0.37483
 C806 C 0.17777 0.55537 0.33731
 C807 C 0.15799 0.52086 0.33808
 C808 C 0.14120 0.52759 0.37547
 C809 C 0.18990 0.49927 0.35419
 C810 C 0.20990 0.53407 0.35376
 C811 C 0.19303 0.54088 0.39108
 C812 C 0.17335 0.50625 0.39200
 H813 H 0.14894 0.58819 0.38349
 H814 H 0.17952 0.57553 0.31460
 H815 H 0.11270 0.52495 0.38413
 H816 H 0.20152 0.47325 0.34524
 H817 H 0.23840 0.53676 0.34513
 H818 H 0.17147 0.48595 0.41456
 C819 C 0.70949 0.03381 0.85110
 C820 C 0.68954 -0.00098 0.85110
 C821 C 0.65730 0.02087 0.83591
 C822 C 0.67704 0.05539 0.83558
 C823 C 0.64111 0.02674 0.87370
 C824 C 0.67358 0.00512 0.88930
 C825 C 0.69321 0.03975 0.88881
 C826 C 0.66086 0.06136 0.87350
 H827 H 0.73786 0.03673 0.84210
 H828 H 0.70107 -0.02675 0.84144
 H829 H 0.67839 0.07603 0.81327
 H830 H 0.61273 0.02386 0.88272
 H831 H 0.67211 -0.01565 0.91147
 H832 H 0.64891 0.08709 0.88289
 C833 C 0.68673 0.93685 0.68860
 C834 C 0.68973 0.97674 0.69503
 C835 C 0.65103 0.97840 0.71087
 C836 C 0.64794 0.93878 0.70480
 C837 C 0.63693 0.98923 0.67413
 C838 C 0.67580 0.98729 0.65773
 C839 C 0.67262 0.94753 0.65180
 C840 C 0.63395 0.94937 0.66778
 H841 H 0.70729 0.91507 0.69436
 H842 H 0.71266 0.98812 0.70641
 H843 H 0.63674 0.91875 0.72437
 H844 H 0.61631 1.01101 0.66858
 H845 H 0.68721 1.00753 0.63839
 H846 H 0.61100 0.93800 0.65643
 C847 C 0.18727 0.43468 0.19129
 C848 C 0.19096 0.47446 0.19770
 C849 C 0.15225 0.47678 0.21348
 C850 C 0.14848 0.43728 0.20741
 C851 C 0.13835 0.48786 0.17670
 C852 C 0.17723 0.48524 0.16037
 C853 C 0.17333 0.44558 0.15446
 C854 C 0.13467 0.44810 0.17038
 H855 H 0.20747 0.41255 0.19709
 H856 H 0.21409 0.48543 0.20912
 H857 H 0.13700 0.41743 0.22697
 H858 H 0.11810 0.51000 0.17110
 H859 H 0.18901 0.50526 0.14102
 H860 H 0.11150 0.43714 0.15901
 C861 C -0.11101 0.31014 0.47518
 C862 C -0.12891 0.34182 0.45339
 C863 C -0.16563 0.32739 0.46406
 C864 C -0.14808 0.29590 0.48601
 C865 C -0.16347 0.30538 0.43098
 C866 C -0.12647 0.31968 0.42021
 C867 C -0.10879 0.28819 0.44204
 C868 C -0.14548 0.27359 0.45269
 H869 H -0.08920 0.31188 0.49335
 H870 H -0.12240 0.37012 0.45370
 H871 H -0.15742 0.28645 0.51324
 H872 H -0.18538 0.30371 0.41291
 H873 H -0.11729 0.32929 0.39298
 H874 H -0.15231 0.24538 0.45260
 C875 C 0.38575 0.81359 0.97257
 C876 C 0.36641 0.84436 0.95088
 C877 C 0.33189 0.82944 0.96173
 C878 C 0.34856 0.79990 0.98366
 C879 C 0.33265 0.80813 0.93029
 C880 C 0.36935 0.82208 0.91785
 C881 C 0.38787 0.79091 0.93975
 C882 C 0.35121 0.77631 0.95135
 H883 H 0.40723 0.81647 0.99084
 H884 H 0.37127 0.87312 0.95111
 H885 H 0.33854 0.79194 1.01112
 H886 H 0.30953 0.80691 0.91360
 H887 H 0.37728 0.83205 0.89038
 H888 H 0.34371 0.74824 0.95216
 C889 C 1.14871 0.85299 0.01565
 C890 C 1.18048 0.85901 0.03833
 C891 C 1.20615 0.84177 0.01008
 C892 C 1.17489 0.83595 -0.01278
 C893 C 1.20277 0.80477 0.02934
 C894 C 1.17669 0.82186 0.05766
 C895 C 1.14531 0.81590 0.03486
 C896 C 1.17108 0.79873 0.00667
 H897 H 1.12662 0.87314 0.00984
 H898 H 1.18446 0.88377 0.05166
 H899 H 1.17414 0.84171 -0.04189
 H900 H 1.22509 0.78489 0.03517
 H901 H 1.17722 0.81598 0.08681
 H902 H 1.16693 0.77383 -0.00631
 C903 C 0.67051 0.32941 0.55922
 C904 C 0.70205 0.30857 0.54007
 C905 C 0.70529 0.34005 0.51229
 C906 C 0.67408 0.36110 0.53132
 C907 C 0.67951 0.32379 0.48875
 C908 C 0.67590 0.29210 0.51670
 C909 C 0.64462 0.31304 0.53578
 C910 C 0.64777 0.34462 0.50797
 H911 H 0.66656 0.33162 0.58840
 H912 H 0.72467 0.29390 0.55326
 H913 H 0.67325 0.38955 0.53758
 H914 H 0.68362 0.32163 0.45958
 H915 H 0.67640 0.26358 0.51073
 H916 H 0.62554 0.35961 0.49448
 C917 C 0.35338 0.20667 0.53492
 C918 C 0.35388 0.18749 0.49970
 C919 C 0.33856 0.15490 0.52054
 C920 C 0.33774 0.17388 0.55548
 C921 C 0.37646 0.13856 0.52655
 C922 C 0.39220 0.17139 0.50595
 C923 C 0.39121 0.19026 0.54101
 C924 C 0.37577 0.15756 0.56160
 H925 H 0.34417 0.23492 0.53842
 H926 H 0.34445 0.19954 0.47410
 H927 H 0.31511 0.17483 0.57581
 H928 H 0.38568 0.11030 0.52310
 H929 H 0.41470 0.17032 0.48551
 H930 H 0.38495 0.14510 0.58715
 C931 C 0.85161 0.71365 0.03476
 C932 C 0.85192 0.69456 -0.00053
 C933 C 0.83615 0.66215 0.02022
 C934 C 0.83550 0.68102 0.05521
 C935 C 0.87388 0.64537 0.02631
 C936 C 0.89005 0.67799 0.00580
 C937 C 0.88927 0.69676 0.04090
 C938 C 0.87336 0.66424 0.06138
 H939 H 0.84273 0.74198 0.03828
 H940 H 0.84266 0.70679 -0.02613
 H941 H 0.81283 0.68222 0.07549
 H942 H 0.88281 0.61703 0.02286
 H943 H 0.91259 0.67665 -0.01460
 H944 H 0.88232 0.65151 0.08691
 C945 C 0.68802 0.68948 0.93360
 C946 C 0.69525 0.69423 0.97290
 C947 C 0.71107 0.65552 0.97591
 C948 C 0.70419 0.65068 0.93688
 C949 C 0.67426 0.64206 0.98798
 C950 C 0.65790 0.68094 0.98470
 C951 C 0.65116 0.67600 0.94552
 C952 C 0.66712 0.63732 0.94871
 H953 H 0.69348 0.70906 0.91098
 H954 H 0.70699 0.71764 0.98294
 H955 H 0.72345 0.63844 0.91713
 H956 H 0.66903 0.62241 1.01060
 H957 H 0.63888 0.69335 1.00467
 H958 H 0.65540 0.61390 0.93865
 C959 C 0.15971 0.17467 0.48692
 C960 C 0.17629 0.13582 0.48823
 C961 C 0.21311 0.14997 0.47761
 C962 C 0.19709 0.18864 0.47660
 C963 C 0.20691 0.14744 0.43806
 C964 C 0.16982 0.13338 0.44842
 C965 C 0.15366 0.17202 0.44721
 C966 C 0.19053 0.18620 0.43676
 H967 H 0.14030 0.18582 0.50730
 H968 H 0.17083 0.11496 0.50966
 H969 H 0.20849 0.21135 0.48831
 H970 H 0.22654 0.13657 0.41787
 H971 H 0.15846 0.11065 0.43670
 H972 H 0.19619 0.20701 0.41535
 C973 C 0.57095 0.08151 0.69049
 C974 C 0.59851 0.08125 0.71916
 C975 C 0.57448 0.06149 0.74426
 C976 C 0.54749 0.05979 0.71803
 C977 C 0.55735 0.09425 0.75862
 C978 C 0.58116 0.11667 0.73234
 C979 C 0.55297 0.11657 0.70435
 C980 C 0.52869 0.09493 0.73100
 H981 H 0.57736 0.07467 0.66256
 H982 H 0.62760 0.07421 0.71529
 H983 H 0.53411 0.03526 0.71327
 H984 H 0.55202 0.09817 0.78742
 H985 H 0.59583 0.13972 0.73911
 H986 H 0.49953 0.09989 0.73664
 C987 C 1.08179 0.61985 0.23097
 C988 C 1.05772 0.59921 0.25865
 C989 C 1.07459 0.56391 0.24500
 C990 C 1.09869 0.58433 0.21747
 C991 C 1.04572 0.56330 0.21805
 C992 C 1.02867 0.59911 0.23141
 C993 C 1.05289 0.61957 0.20396
 C994 C 1.06970 0.58419 0.19021
 H995 H 1.09670 0.64327 0.23617
 H996 H 1.05269 0.60522 0.28699
 H997 H 1.12766 0.57785 0.21194
 H998 H 1.03096 0.53974 0.21300
 H999 H 0.99970 0.60551 0.23693
 H1000 H 1.07496 0.57755 0.16208
 C1001 C 0.92170 0.87763 0.22720
 C1002 C 0.93891 0.89782 0.25534
 C1003 C 0.92253 0.93156 0.24027
 C1004 C 0.90471 0.91388 0.21336
 C1005 C 0.95394 0.93843 0.21624
 C1006 C 0.97238 0.90259 0.23001
 C1007 C 0.95468 0.88326 0.20146
 C1008 C 0.93723 0.91917 0.18694
 H1009 H 0.90751 0.85274 0.23251
 H1010 H 0.93909 0.89021 0.28424
 H1011 H 0.87625 0.91970 0.20759
 H1012 H 0.96643 0.96444 0.21288
 H1013 H 1.00039 0.89888 0.23787
 H1014 H 0.93598 0.92901 0.15867
 C1015 C 0.41967 0.37467 0.72608
 C1016 C 0.43700 0.39421 0.75468
 C1017 C 0.41937 0.42967 0.73987
 C1018 C 0.40197 0.41035 0.71145
 C1019 C 0.45223 0.43601 0.71450
 C1020 C 0.47011 0.40008 0.72902
 C1021 C 0.45255 0.38071 0.70062
 C1022 C 0.43502 0.41626 0.68578
 H1023 H 0.40634 0.34921 0.73074
 H1024 H 0.43784 0.38524 0.78321
 H1025 H 0.37373 0.41489 0.70445
 H1026 H 0.46538 0.46158 0.71002
 H1027 H 0.49827 0.39603 0.73633
 H1028 H 0.43433 0.42513 0.65721
 C1029 C 0.42287 0.60262 0.76808
 C1030 C 0.43785 0.56596 0.75503
 C1031 C 0.41370 0.54724 0.78380
 C1032 C 0.39846 0.58341 0.79665
 C1033 C 0.44319 0.54579 0.81035
 C1034 C 0.46768 0.56494 0.78180
 C1035 C 0.45235 0.60108 0.79479
 C1036 C 0.42805 0.58211 0.82329
 H1037 H 0.41436 0.62595 0.75046
 H1038 H 0.44170 0.55906 0.72685
 H1039 H 0.36975 0.59076 0.80274
 H1040 H 0.45136 0.52213 0.82772
 H1041 H 0.49638 0.55760 0.77573
 H1042 H 0.42404 0.58890 0.85150
 C1043 C -0.07275 0.10214 0.26811
 C1044 C -0.05775 0.06546 0.25517
 C1045 C -0.08237 0.04683 0.28357
 C1046 C -0.09762 0.08303 0.29631
 C1047 C -0.05329 0.04512 0.31055
 C1048 C -0.02833 0.06419 0.28237
 C1049 C -0.04366 0.10037 0.29525
 C1050 C -0.06842 0.08149 0.32339
 H1051 H -0.08089 0.12554 0.25041
 H1052 H -0.05353 0.05863 0.22699
 H1053 H -0.12636 0.09052 0.30203
 H1054 H -0.04550 0.02137 0.32797
 H1055 H 0.00041 0.05673 0.27667
 H1056 H -0.07278 0.08826 0.35159
 C1057 C 0.07844 0.38663 0.32634
 C1058 C 0.10412 0.40123 0.29629
 C1059 C 0.07875 0.43480 0.29186
 C1060 C 0.05311 0.42037 0.32183
 C1061 C 0.05876 0.41731 0.26391
 C1062 C 0.08405 0.38322 0.26852
 C1063 C 0.05850 0.36878 0.29858
 C1064 C 0.03291 0.40226 0.29407
 H1065 H 0.08657 0.37385 0.35215
 H1066 H 0.13357 0.40107 0.29722
 H1067 H 0.04049 0.43596 0.34378
 H1068 H 0.05078 0.43024 0.23812
 H1069 H 0.09662 0.36752 0.24664
 H1070 H 0.00346 0.40279 0.29306
 C1071 C 0.57726 0.88659 0.82343
 C1072 C 0.60320 0.90100 0.79351
 C1073 C 0.57817 0.93482 0.78907
 C1074 C 0.55227 0.92056 0.81891
 C1075 C 0.55809 0.91764 0.76098
 C1076 C 0.58303 0.88330 0.76560
 C1077 C 0.55721 0.86904 0.79553
 C1078 C 0.53198 0.90279 0.79101
 H1079 H 0.58519 0.87366 0.84924
 H1080 H 0.63266 0.90054 0.79456
 H1081 H 0.53974 0.93620 0.84086
 H1082 H 0.55031 0.93072 0.73519
 H1083 H 0.59556 0.86759 0.74370
 H1084 H 0.50252 0.90365 0.78989
 C1085 C 0.73068 0.58279 0.11791
 C1086 C 0.75851 0.55951 0.09637
 C1087 C 0.74420 0.57717 0.06176
 C1088 C 0.71653 0.60049 0.08307
 C1089 C 0.71748 0.54819 0.06057
 C1090 C 0.73149 0.53034 0.09569
 C1091 C 0.70390 0.55378 0.11705
 C1092 C 0.68950 0.57139 0.08235
 H1093 H 0.73601 0.59708 0.14165
 H1094 H 0.78709 0.55457 0.10196
 H1095 H 0.71057 0.62952 0.07751
 H1096 H 0.71231 0.53408 0.03668
 H1097 H 0.73747 0.50132 0.10118
 H1098 H 0.66114 0.57662 0.07609
 C1099 C 0.19113 1.06605 0.58281
 C1100 C 0.21856 1.09480 0.58329
 C1101 C 0.24605 1.07083 0.56249
 C1102 C 0.21892 1.04219 0.56157
 C1103 C 0.25992 1.05349 0.59743
 C1104 C 0.23226 1.07743 0.61844
 C1105 C 0.20508 1.04875 0.61784
 C1106 C 0.23249 1.02466 0.59701
 H1107 H 0.16287 1.07158 0.57629
 H1108 H 0.21301 1.12382 0.57727
 H1109 H 0.21371 1.02778 0.53787
 H1110 H 0.28841 1.04823 0.60326
 H1111 H 0.23763 1.09199 0.64200
 H1112 H 0.23801 0.99564 0.60297
 C1113 C 0.22810 0.92213 0.87656
 C1114 C 0.25288 0.94124 0.89925
 C1115 C 0.23766 0.92054 0.93262
 C1116 C 0.21313 0.90131 0.91018
 C1117 C 0.20852 0.95049 0.93883
 C1118 C 0.22340 0.97142 0.90491
 C1119 C 0.19884 0.95204 0.88246
 C1120 C 0.18367 0.93140 0.91597
 H1121 H 0.23605 0.91057 0.85071
 H1122 H 0.28157 0.94520 0.89256
 H1123 H 0.20939 0.87226 0.91221
 H1124 H 0.20060 0.96214 0.96463
 H1125 H 0.22761 1.00039 0.90283
 H1126 H 0.15499 0.92745 0.92273
 C1127 C 0.72606 0.42081 0.37608
 C1128 C 0.75492 0.43827 0.39520
 C1129 C 0.73968 0.42187 0.43086
 C1130 C 0.71100 0.40434 0.41196
 C1131 C 0.71458 0.45525 0.43621
 C1132 C 0.72952 0.47191 0.40006
 C1133 C 0.70085 0.45421 0.38112
 C1134 C 0.68560 0.43790 0.41688
 H1135 H 0.73068 0.40670 0.35111
 H1136 H 0.78364 0.43840 0.38642
 H1137 H 0.70361 0.37635 0.41715
 H1138 H 0.71013 0.46919 0.46128
 H1139 H 0.73721 0.49984 0.39531
 H1140 H 0.65686 0.43788 0.42560
 C1141 C 0.78324 0.47343 0.56455
 C1142 C 0.81148 0.44776 0.54629
 C1143 C 0.78407 0.41909 0.54807
 C1144 C 0.75560 0.44442 0.56591
 C1145 C 0.79628 0.40433 0.58454
 C1146 C 0.82379 0.43310 0.58291
 C1147 C 0.79559 0.45858 0.60099
 C1148 C 0.76802 0.42992 0.60286
 H1149 H 0.77791 0.50209 0.55660
 H1150 H 0.82934 0.45488 0.52273
 H1151 H 0.72744 0.44892 0.55869
 H1152 H 0.80164 0.37567 0.59250
 H1153 H 0.85197 0.42848 0.59007
 H1154 H 0.74989 0.42246 0.62607
 C1155 C 0.27846 -0.02925 0.06229
 C1156 C 0.30692 -0.05421 0.04333
 C1157 C 0.27991 -0.08322 0.04475
 C1158 C 0.25120 -0.05861 0.06324
 C1159 C 0.29254 -0.09853 0.08088
 C1160 C 0.31965 -0.06939 0.07964
 C1161 C 0.29126 -0.04463 0.09840
 C1162 C 0.26408 -0.07364 0.09987
 H1163 H 0.27271 -0.00052 0.05492
 H1164 H 0.32454 -0.04637 0.01982
 H1165 H 0.22291 -0.05418 0.05645
 H1166 H 0.29832 -0.12725 0.08834
 H1167 H 0.34792 -0.07381 0.08656
 H1168 H 0.24621 -0.08177 0.12306
 C1169 C 0.29264 0.03173 0.40051
 C1170 C 0.32105 0.05133 0.41839
 C1171 C 0.29141 0.07722 0.43338
 C1172 C 0.26283 0.05782 0.41611
 C1173 C 0.29564 0.10275 0.40011
 C1174 C 0.32535 0.07682 0.38493
 C1175 C 0.29694 0.05746 0.36732
 C1176 C 0.26722 0.08327 0.38232
 H1177 H 0.29133 0.00235 0.40081
 H1178 H 0.34322 0.03831 0.43353
 H1179 H 0.23700 0.05009 0.42919
 H1180 H 0.29689 0.13212 0.40021
 H1181 H 0.35119 0.08467 0.37193
 H1182 H 0.24512 0.09626 0.36708
 C1183 C 0.79470 0.53679 0.90115
 C1184 C 0.82196 0.55752 0.91943
 C1185 C 0.79129 0.58287 0.93340
 C1186 C 0.76384 0.56236 0.91573
 C1187 C 0.79567 0.60805 0.89989
 C1188 C 0.82642 0.58266 0.88576
 C1189 C 0.79916 0.56219 0.86772
 C1190 C 0.76841 0.58745 0.88169
 H1191 H 0.79424 0.50732 0.90180
 H1192 H 0.84398 0.54532 0.93528
 H1193 H 0.73800 0.55411 0.92836
 H1194 H 0.79604 0.63753 0.89966
 H1195 H 0.85229 0.59105 0.87330
 H1196 H 0.74644 0.59963 0.86576
 C1197 C 0.08018 0.69148 0.56826
 C1198 C 0.08060 0.71963 0.59629
 C1199 C 0.05894 0.74624 0.57219
 C1200 C 0.05801 0.71842 0.54427
 C1201 C 0.09348 0.76028 0.55406
 C1202 C 0.11539 0.73349 0.57813
 C1203 C 0.11484 0.70558 0.55020
 C1204 C 0.09312 0.73212 0.52600
 H1205 H 0.07425 0.66320 0.57440
 H1206 H 0.07514 0.71463 0.62537
 H1207 H 0.03416 0.71242 0.53039
 H1208 H 0.09883 0.78876 0.54811
 H1209 H 0.13916 0.73960 0.59209
 H1210 H 0.09860 0.73705 0.49694
 C1211 C 0.62011 0.22853 1.08017
 C1212 C 0.59847 0.25586 1.05645
 C1213 C 0.56374 0.24194 1.07427
 C1214 C 0.58516 0.21476 1.09803
 C1215 C 0.56263 0.21457 1.04594
 C1216 C 0.59787 0.22819 1.02793
 C1217 C 0.61933 0.20109 1.05181
 C1218 C 0.58451 0.18709 1.06958
 H1219 H 0.64393 0.23415 1.09431
 H1220 H 0.60400 0.28435 1.05099
 H1221 H 0.57956 0.20944 1.12703
 H1222 H 0.53867 0.20911 1.03195
 H1223 H 0.60341 0.23350 0.99893
 H1224 H 0.57828 0.15883 1.07531
 C1225 C 0.89909 0.22970 0.96795
 C1226 C 0.93624 0.21549 0.95265
 C1227 C 0.93036 0.23847 0.91812
 C1228 C 0.89368 0.25299 0.93316
 C1229 C 0.91328 0.20776 0.90199
 C1230 C 0.91873 0.18447 0.93669
 C1231 C 0.88196 0.19898 0.95166
 C1232 C 0.87635 0.22207 0.91712
 H1233 H 0.89342 0.23884 0.99520
 H1234 H 0.96122 0.21308 0.96702
 H1235 H 0.88345 0.28136 0.93171
 H1236 H 0.91937 0.19896 0.87465
 H1237 H 0.92884 0.15607 0.93829
 H1238 H 0.85149 0.22465 0.90256
 C1239 C 0.39830 0.73146 0.47087
 C1240 C 0.43529 0.71667 0.45566
 C1241 C 0.42975 0.73961 0.42105
 C1242 C 0.39324 0.75470 0.43601
 C1243 C 0.41218 0.70913 0.40502
 C1244 C 0.41728 0.68589 0.43982
 C1245 C 0.38069 0.70099 0.45468
 C1246 C 0.37545 0.72403 0.42005
 H1247 H 0.39273 0.74072 0.49809
 H1248 H 0.46025 0.71393 0.47005
 H1249 H 0.38340 0.78318 0.43449
 H1250 H 0.41818 0.70017 0.37773
 H1251 H 0.42696 0.65736 0.44154
 H1252 H 0.35061 0.72695 0.40545
 C1253 C 0.56409 0.78263 0.47046
 C1254 C 0.54568 0.81085 0.44490
 C1255 C 0.54727 0.78335 0.41638
 C1256 C 0.56526 0.75491 0.44160
 C1257 C 0.58385 0.79529 0.40151
 C1258 C 0.58243 0.82289 0.43015
 C1259 C 0.60065 0.79470 0.45550
 C1260 C 0.60232 0.76705 0.42699
 H1261 H 0.55622 0.77745 0.49905
 H1262 H 0.52209 0.82885 0.45204
 H1263 H 0.55797 0.72683 0.44616
 H1264 H 0.59172 0.80049 0.37291
 H1265 H 0.58967 0.85099 0.42547
 H1266 H 0.62555 0.74877 0.41949
 C1267 C 0.06283 0.28193 -0.02908
 C1268 C 0.04526 0.31028 -0.05510
 C1269 C 0.04714 0.28269 -0.08357
 C1270 C 0.06428 0.25413 -0.05789
 C1271 C 0.08411 0.29416 -0.09772
 C1272 C 0.08240 0.32184 -0.06914
 C1273 C 0.09979 0.29353 -0.04332
 C1274 C 0.10174 0.26578 -0.07178
 H1275 H 0.05435 0.27694 -0.00061
 H1276 H 0.02174 0.32857 -0.04847
 H1277 H 0.05661 0.22617 -0.05341
 H1278 H 0.09260 0.29918 -0.12619
 H1279 H 0.09002 0.34982 -0.07372
 H1280 H 0.12490 0.24722 -0.07878
 C1281 C 0.38612 0.32296 0.07994
 C1282 C 0.40104 0.29309 0.10576
 C1283 C 0.43440 0.28835 0.08034
 C1284 C 0.41965 0.31815 0.05456
 C1285 C 0.41673 0.26006 0.06096
 C1286 C 0.38286 0.26497 0.08630
 C1287 C 0.36810 0.29484 0.06061
 C1288 C 0.40136 0.29003 0.03496
 H1289 H 0.37335 0.34895 0.08778
 H1290 H 0.40119 0.29438 0.13505
 H1291 H 0.43511 0.34003 0.04161
 H1292 H 0.42961 0.23408 0.05325
 H1293 H 0.36729 0.24315 0.09920
 H1294 H 0.40161 0.28870 0.00568
 C1295 C 0.90264 0.79131 0.53420
 C1296 C 0.92133 0.81945 0.55339
 C1297 C 0.93541 0.78985 0.57978
 C1298 C 0.91737 0.76152 0.56077
 C1299 C 0.90199 0.79561 0.60492
 C1300 C 0.88771 0.82526 0.57847
 C1301 C 0.86929 0.79713 0.55953
 C1302 C 0.88340 0.76746 0.58582
 H1303 H 0.90302 0.78949 0.50496
 H1304 H 0.93720 0.84088 0.54013
 H1305 H 0.92959 0.73512 0.55353
 H1306 H 0.90190 0.79742 0.63416
 H1307 H 0.87533 0.85160 0.58574
 H1308 H 0.86738 0.74613 0.59900
   
