data_POSCAR
  _audit_creation_date              2014-09-24
  _audit_creation_method            'ToBaCCo'
  _symmetry_space_group_name_H-M    'P1'
  _symmetry_Int_Tables_number       1
  _symmetry_cell_setting            triclinic
  loop_
  _symmetry_equiv_pos_as_xyz
 x,y,z
_cell_length_a 32.3464
_cell_length_b 32.7767
_cell_length_c 38.5939
_cell_angle_alpha 90.040800
_cell_angle_beta 89.935300
_cell_angle_gamma 90.000900
loop_
  _atom_site_label
  _atom_site_type_symbol
  _atom_site_fract_x
  _atom_site_fract_y
  _atom_site_fract_z
Zr1 Zr 0.24799 0.25008 0.31201
 O2 O 0.27929 0.28126 0.35227
 O3 O 0.20795 0.21234 0.34047
 O4 O 0.20819 0.28939 0.33979
 O5 O 0.32508 0.17874 0.29901
 O6 O 0.17920 0.32923 0.29788
 O7 O 0.28721 0.21100 0.34070
 O8 O 0.16859 0.18300 0.29827
 O9 O 0.19425 0.25444 0.28193
 O10 O 0.24613 0.19715 0.28184
 O11 O 0.25453 0.30397 0.28282
 O12 O 0.30389 0.24944 0.28368
 Zr13 Zr 0.25327 0.25355 0.19063
 Zr14 Zr 0.20230 0.30634 0.25083
 Zr15 Zr 0.29950 0.19794 0.25173
 Zr16 Zr 0.19392 0.20247 0.25077
 O17 O 0.36489 0.19865 0.24940
 O18 O 0.13004 0.21693 0.24976
 O19 O 0.24716 0.19924 0.21963
 O20 O 0.19800 0.25441 0.21946
 O21 O 0.25579 0.30696 0.22042
 O22 O 0.30670 0.24961 0.22099
 C23 C 0.17871 0.18868 0.33018
 C24 C 0.31625 0.18662 0.33084
 C25 C 0.18487 0.31897 0.32971
 O26 O 0.13702 0.30545 0.24772
 O27 O 0.18459 0.33300 0.20330
 O28 O 0.21706 0.29514 0.16178
 C29 C 0.19288 0.32428 0.17146
 O30 O 0.33549 0.32238 0.29873
 Zr31 Zr 0.30773 0.30135 0.25212
 O32 O 0.29342 0.29175 0.16278
 O33 O 0.21176 0.37014 0.25362
 O34 O 0.30171 0.36577 0.25313
 O35 O 0.37202 0.28861 0.25140
 O36 O 0.33095 0.32366 0.20498
 C37 C 0.32120 0.31695 0.17325
 O38 O 0.21981 0.22473 0.15030
 O39 O 0.29099 0.13398 0.25436
 O40 O 0.28935 0.21093 0.16246
 O41 O 0.31765 0.17134 0.20479
 O42 O 0.19734 0.13786 0.25191
 O43 O 0.16998 0.17738 0.20412
 C44 C 0.31149 0.18054 0.17284
 H45 H 0.24540 0.17186 0.29584
 H46 H 0.17352 0.25565 0.20411
 H47 H 0.33226 0.24761 0.20694
 H48 H 0.25631 0.32818 0.29810
 H49 H 0.11462 0.19170 0.25549
 H50 H 0.12780 0.33427 0.24838
 H51 H 0.18424 0.38315 0.25138
 H52 H 0.32911 0.37757 0.24750
 H53 H 0.16927 0.12743 0.25721
 H54 H 0.31892 0.12162 0.25523
 H55 H 0.37411 0.16986 0.24816
 H56 H 0.38662 0.31433 0.24568
 H57 H 0.14489 0.16120 0.20935
 H58 H 0.23148 0.23445 0.12798
 H59 H 0.26812 0.27091 0.37456
 H60 H 0.35624 0.34362 0.29323
 Zr61 Zr 0.75155 0.75264 0.30792
 O62 O 0.72246 0.71988 0.34847
 O63 O 0.79060 0.79214 0.33555
 O64 O 0.79412 0.71621 0.33540
 O65 O 0.67034 0.81955 0.29662
 O66 O 0.82640 0.67927 0.29315
 O67 O 0.71136 0.78978 0.33749
 O68 O 0.82658 0.82433 0.29272
 O69 O 0.80486 0.75218 0.27706
 O70 O 0.74888 0.80548 0.27773
 O71 O 0.74868 0.69815 0.27906
 O72 O 0.69519 0.74892 0.28045
 Zr73 Zr 0.74456 0.74842 0.18704
 Zr74 Zr 0.80037 0.69957 0.24639
 Zr75 Zr 0.69492 0.80072 0.24857
 Zr76 Zr 0.80071 0.80389 0.24582
 O77 O 0.62974 0.79491 0.24902
 O78 O 0.86546 0.79447 0.24271
 O79 O 0.74665 0.80330 0.21563
 O80 O 0.80028 0.75150 0.21483
 O81 O 0.74666 0.69492 0.21663
 O82 O 0.69154 0.74831 0.21821
 C83 C 0.81831 0.81728 0.32479
 C84 C 0.68079 0.81253 0.32828
 C85 C 0.81997 0.68888 0.32504
 O86 O 0.86527 0.70527 0.24168
 O87 O 0.81816 0.67321 0.19884
 O88 O 0.78182 0.70798 0.15770
 C89 C 0.80796 0.68044 0.16718
 O90 O 0.66902 0.67461 0.29600
 Zr91 Zr 0.69503 0.69650 0.24895
 O92 O 0.70454 0.71029 0.15948
 O93 O 0.79615 0.63528 0.25009
 O94 O 0.70643 0.63283 0.25097
 O95 O 0.62981 0.70304 0.24774
 O96 O 0.67477 0.67112 0.20164
 C97 C 0.68092 0.68129 0.16986
 O98 O 0.77623 0.77893 0.14657
 O99 O 0.69905 0.86513 0.24924
 O100 O 0.70552 0.78827 0.15930
 O101 O 0.67124 0.82342 0.20158
 O102 O 0.79320 0.86812 0.24805
 O103 O 0.82027 0.83081 0.19847
 C104 C 0.67884 0.81485 0.16961
 H105 H 0.74840 0.83079 0.29174
 H106 H 0.82437 0.75179 0.19898
 H107 H 0.66553 0.74813 0.20472
 H108 H 0.74902 0.67402 0.29447
 H109 H 0.87901 0.82092 0.24775
 H110 H 0.87671 0.67725 0.24271
 H111 H 0.82454 0.62438 0.24734
 H112 H 0.68007 0.61877 0.24564
 H113 H 0.82084 0.88023 0.25219
 H114 H 0.67038 0.87552 0.25118
 H115 H 0.61822 0.82293 0.24927
 H116 H 0.61795 0.67590 0.24233
 H117 H 0.84433 0.84876 0.20283
 H118 H 0.76495 0.76859 0.12433
 H119 H 0.73351 0.73060 0.37066
 H120 H 0.65035 0.65140 0.29098
 Zr121 Zr 0.75427 0.24776 -0.31134
 O122 O 0.72476 0.27815 -0.35295
 O123 O 0.79377 0.20773 -0.33854
 O124 O 0.79432 0.28711 -0.33925
 O125 O 0.67398 0.17941 -0.29831
 O126 O 0.82549 0.32509 -0.29713
 O127 O 0.71391 0.20954 -0.33986
 O128 O 0.82936 0.17650 -0.29512
 O129 O 0.80765 0.25017 -0.28061
 O130 O 0.75272 0.19552 -0.28024
 O131 O 0.74965 0.30242 -0.28274
 O132 O 0.69788 0.25044 -0.28355
 Zr133 Zr 0.74715 0.25399 -0.19012
 Zr134 Zr 0.80151 0.30308 -0.25023
 Zr135 Zr 0.69882 0.19934 -0.25082
 Zr136 Zr 0.80455 0.19892 -0.24854
 O137 O 0.63346 0.20313 -0.25105
 O138 O 0.86912 0.20998 -0.24717
 O139 O 0.75063 0.19869 -0.21804
 O140 O 0.80284 0.25171 -0.21812
 O141 O 0.74765 0.30692 -0.22047
 O142 O 0.69407 0.25211 -0.22109
 C143 C 0.82087 0.18218 -0.32730
 C144 C 0.68378 0.18641 -0.33011
 C145 C 0.81826 0.31624 -0.32902
 O146 O 0.86658 0.29859 -0.24673
 O147 O 0.81943 0.32999 -0.20280
 O148 O 0.78429 0.29471 -0.16121
 C149 C 0.80985 0.32261 -0.17097
 O150 O 0.67022 0.32512 -0.29976
 Zr151 Zr 0.69599 0.30321 -0.25266
 O152 O 0.70844 0.29409 -0.16312
 O153 O 0.79581 0.36731 -0.25348
 O154 O 0.70567 0.36719 -0.25381
 O155 O 0.63112 0.29377 -0.25313
 O156 O 0.67261 0.32690 -0.20582
 C157 C 0.68138 0.31980 -0.17389
 O158 O 0.77883 0.22388 -0.14950
 O159 O 0.70500 0.13510 -0.25073
 O160 O 0.70786 0.21489 -0.16164
 O161 O 0.67564 0.17710 -0.20342
 O162 O 0.79798 0.13453 -0.24851
 O163 O 0.82632 0.17407 -0.20108
 C164 C 0.68205 0.18732 -0.17162
 H165 H 0.75253 0.16987 -0.29380
 H166 H 0.82707 0.25217 -0.20247
 H167 H 0.66803 0.25194 -0.20760
 H168 H 0.74892 0.32652 -0.29816
 H169 H 0.88324 0.18382 -0.25229
 H170 H 0.87740 0.32686 -0.24758
 H171 H 0.82404 0.37886 -0.25157
 H172 H 0.67891 0.38048 -0.24839
 H173 H 0.82566 0.12257 -0.25281
 H174 H 0.67664 0.12382 -0.25226
 H175 H 0.62274 0.17482 -0.25006
 H176 H 0.61776 0.32025 -0.24776
 H177 H 0.85084 0.15677 -0.20559
 H178 H 0.76762 0.23446 -0.12729
 H179 H 0.73624 0.26681 -0.37480
 H180 H 0.65106 0.34793 -0.29469
 Zr181 Zr 0.24954 0.75254 -0.31110
 O182 O 0.28170 0.72235 -0.35148
 O183 O 0.20977 0.79093 -0.33915
 O184 O 0.20979 0.71418 -0.33999
 O185 O 0.32711 0.82265 -0.29660
 O186 O 0.17821 0.67503 -0.29884
 O187 O 0.28859 0.79281 -0.33893
 O188 O 0.16932 0.81851 -0.29697
 O189 O 0.19529 0.74917 -0.28152
 O190 O 0.24885 0.80476 -0.28010
 O191 O 0.25374 0.69770 -0.28280
 O192 O 0.30501 0.75034 -0.28228
 Zr193 Zr 0.25249 0.74639 -0.18982
 Zr194 Zr 0.20103 0.69639 -0.25130
 Zr195 Zr 0.30194 0.80138 -0.24965
 Zr196 Zr 0.19609 0.80046 -0.24957
 O197 O 0.36723 0.79741 -0.24926
 O198 O 0.13162 0.78907 -0.24685
 O199 O 0.24907 0.80154 -0.21794
 O200 O 0.19776 0.74773 -0.21915
 O201 O 0.25365 0.69334 -0.22019
 O202 O 0.30644 0.74867 -0.21980
 C203 C 0.17912 0.81307 -0.32908
 C204 C 0.31772 0.81696 -0.32871
 C205 C 0.18535 0.68514 -0.33050
 O206 O 0.13580 0.69947 -0.24858
 O207 O 0.18282 0.66878 -0.20443
 O208 O 0.21403 0.70550 -0.16178
 C209 C 0.18981 0.67659 -0.17219
 O210 O 0.33531 0.67807 -0.29794
 Zr211 Zr 0.30618 0.69744 -0.25135
 O212 O 0.29218 0.70815 -0.16196
 O213 O 0.20802 0.63236 -0.25531
 O214 O 0.29739 0.63349 -0.25536
 O215 O 0.37100 0.70621 -0.24761
 O216 O 0.32477 0.67103 -0.20403
 C217 C 0.31688 0.67991 -0.17222
 O218 O 0.21946 0.77597 -0.14959
 O219 O 0.29539 0.86559 -0.24902
 O220 O 0.29039 0.78651 -0.16081
 O221 O 0.32405 0.82370 -0.20210
 O222 O 0.20132 0.86486 -0.25200
 O223 O 0.17461 0.82628 -0.20231
 C224 C 0.31664 0.81393 -0.17041
 H225 H 0.24852 0.83033 -0.29374
 H226 H 0.17304 0.74689 -0.20402
 H227 H 0.33198 0.74892 -0.20571
 H228 H 0.25508 0.67383 -0.29849
 H229 H 0.11724 0.81507 -0.25192
 H230 H 0.12563 0.67099 -0.24957
 H231 H 0.18009 0.62028 -0.25288
 H232 H 0.32403 0.62022 -0.24960
 H233 H 0.17317 0.87581 -0.25582
 H234 H 0.32369 0.87709 -0.24983
 H235 H 0.37786 0.82573 -0.24850
 H236 H 0.38354 0.67935 -0.24228
 H237 H 0.15062 0.84422 -0.20694
 H238 H 0.23038 0.76551 -0.12728
 H239 H 0.27077 0.73307 -0.37370
 H240 H 0.35476 0.65554 -0.29281
 Zr241 Zr 1.25012 1.25157 0.80955
 O242 O 1.21761 1.22077 0.84940
 O243 O 1.29023 1.28905 0.83767
 O244 O 1.28966 1.21331 0.83849
 O245 O 1.17873 1.32807 0.79610
 O246 O 1.32336 1.17653 0.79699
 O247 O 1.21170 1.29131 0.83793
 O248 O 1.33235 1.31623 0.79611
 O249 O 1.30427 1.24696 0.78010
 O250 O 1.25370 1.30429 0.77917
 O251 O 1.24376 1.19730 0.78107
 O252 O 1.19470 1.25290 0.78080
 Zr253 Zr 1.24675 1.24701 0.68843
 Zr254 Zr 1.29653 1.19479 0.74982
 Zr255 Zr 1.20077 1.30430 0.74881
 Zr256 Zr 1.30611 1.29832 0.74844
 O257 O 1.13536 1.30424 0.74835
 O258 O 1.36980 1.28308 0.74678
 O259 O 1.25329 1.30181 0.71685
 O260 O 1.30168 1.24597 0.71765
 O261 O 1.24352 1.19399 0.71864
 O262 O 1.19321 1.25212 0.71865
 C263 C 1.32105 1.31085 0.82776
 C264 C 1.18647 1.31931 0.82798
 C265 C 1.31681 1.18695 0.82869
 O266 O 1.36172 1.19445 0.74475
 O267 O 1.31384 1.16691 0.70333
 O268 O 1.28162 1.20295 0.66067
 C269 C 1.30573 1.17418 0.67136
 O270 O 1.16286 1.17948 0.79604
 Zr271 Zr 1.19108 1.20036 0.74956
 O272 O 1.20581 1.21079 0.65987
 O273 O 1.28694 1.13129 0.75554
 O274 O 1.19719 1.13597 0.74970
 O275 O 1.12668 1.21253 0.74896
 O276 O 1.16745 1.17930 0.70172
 C277 C 1.17683 1.18671 0.66986
 O278 O 1.28176 1.27496 0.64862
 O279 O 1.21064 1.36814 0.74884
 O280 O 1.21021 1.28865 0.65957
 O281 O 1.18245 1.32962 0.70140
 O282 O 1.30360 1.36294 0.75033
 O283 O 1.33027 1.32329 0.70181
 C284 C 1.18796 1.31921 0.66959
 H285 H 1.25510 1.32975 0.79293
 H286 H 1.32620 1.24415 0.70234
 H287 H 1.16760 1.25437 0.70477
 H288 H 1.24209 1.17339 0.79668
 H289 H 1.38561 1.30807 0.75252
 H290 H 1.37085 1.16569 0.74687
 H291 H 1.31453 1.11825 0.75428
 H292 H 1.16989 1.12434 0.74354
 H293 H 1.33178 1.37284 0.75589
 H294 H 1.18301 1.38119 0.74921
 H295 H 1.12655 1.33313 0.74682
 H296 H 1.11232 1.18659 0.74354
 H297 H 1.35512 1.33978 0.70712
 H298 H 1.27047 1.26501 0.62627
 H299 H 1.22844 1.23094 0.87186
 H300 H 1.14353 1.15695 0.79061
 Zr301 Zr 0.74672 0.74542 0.81225
 O302 O 0.77804 0.77634 0.85267
 O303 O 0.70807 0.70594 0.83983
 O304 O 0.70633 0.78248 0.84175
 O305 O 0.82171 0.67235 0.79756
 O306 O 0.67154 0.81903 0.80079
 O307 O 0.78661 0.70648 0.83993
 O308 O 0.66780 0.67726 0.79777
 O309 O 0.69242 0.74829 0.78283
 O310 O 0.74583 0.69322 0.78100
 O311 O 0.75055 0.80041 0.78452
 O312 O 0.80233 0.74682 0.78367
 Zr313 Zr 0.75082 0.75262 0.69138
 Zr314 Zr 0.69783 0.80130 0.75311
 Zr315 Zr 0.79890 0.69600 0.75061
 Zr316 Zr 0.69329 0.69743 0.75041
 O317 O 0.86422 0.69904 0.74973
 O318 O 0.62896 0.70978 0.74888
 O319 O 0.74635 0.69702 0.71882
 O320 O 0.69562 0.75041 0.72035
 O321 O 0.75119 0.80505 0.72244
 O322 O 0.80442 0.74920 0.72142
 C323 C 0.67851 0.68277 0.82954
 C324 C 0.81318 0.67987 0.82955
 C325 C 0.67883 0.80869 0.83240
 O326 O 0.63262 0.79820 0.74951
 O327 O 0.67748 0.82745 0.70644
 O328 O 0.71399 0.79487 0.66401
 C329 C 0.68687 0.82091 0.67449
 O330 O 0.83074 0.81974 0.80088
 Zr331 Zr 0.80367 0.80014 0.75354
 O332 O 0.79003 0.79207 0.66380
 O333 O 0.70469 0.86523 0.75790
 O334 O 0.79592 0.86431 0.75629
 O335 O 0.86845 0.79045 0.75179
 O336 O 0.82509 0.82516 0.70667
 C337 C 0.81640 0.81853 0.67462
 O338 O 0.71758 0.72407 0.65081
 O339 O 0.79195 0.63179 0.75003
 O340 O 0.78850 0.71279 0.66187
 O341 O 0.81762 0.67155 0.70268
 O342 O 0.69893 0.63297 0.75121
 O343 O 0.67039 0.67227 0.70342
 C344 C 0.81113 0.68224 0.67105
 H345 H 0.74544 0.66747 0.79438
 H346 H 0.67112 0.75110 0.70501
 H347 H 0.83000 0.74853 0.70732
 H348 H 0.75121 0.82415 0.80039
 H349 H 0.61431 0.68403 0.75436
 H350 H 0.62204 0.82638 0.75238
 H351 H 0.67649 0.87697 0.75705
 H352 H 0.82304 0.87699 0.75108
 H353 H 0.67127 0.62162 0.75666
 H354 H 0.82015 0.62000 0.75059
 H355 H 0.87431 0.67056 0.74834
 H356 H 0.88166 0.81728 0.74770
 H357 H 0.64634 0.65455 0.70849
 H358 H 0.72853 0.73499 0.62865
 H359 H 0.76759 0.76524 0.87495
 H360 H 0.85040 0.84225 0.79625
 Zr361 Zr 1.25417 0.74654 0.19041
 O362 O 1.22162 0.77883 0.15153
 O363 O 1.29359 0.70941 0.16096
 O364 O 1.29323 0.78611 0.16182
 O365 O 1.17865 0.67339 0.20372
 O366 O 1.32846 0.82040 0.20387
 O367 O 1.21401 0.70833 0.16197
 O368 O 1.32866 0.67232 0.20156
 O369 O 1.30906 0.74714 0.21915
 O370 O 1.25474 0.69286 0.21983
 O371 O 1.25116 0.79995 0.22050
 O372 O 1.19916 0.74723 0.22004
 Zr373 Zr 1.25259 0.74790 0.31175
 Zr374 Zr 1.30457 0.79864 0.25101
 Zr375 Zr 1.20249 0.69473 0.25112
 Zr376 Zr 1.30787 0.69464 0.24977
 O377 O 1.13724 0.69865 0.25273
 O378 O 1.37231 0.70627 0.24772
 O379 O 1.25563 0.69361 0.28222
 O380 O 1.30694 0.74614 0.28173
 O381 O 1.25205 0.80192 0.28286
 O382 O 1.19834 0.74632 0.28233
 C383 C 1.31944 0.68168 0.17014
 C384 C 1.18722 0.68163 0.17187
 C385 C 1.32008 0.81266 0.17194
 O386 O 1.36979 0.79397 0.25207
 O387 O 1.32764 0.82123 0.29801
 O388 O 1.29089 0.78824 0.33994
 C389 C 1.31899 0.81348 0.32985
 O390 O 1.17172 0.82318 0.20667
 Zr391 Zr 1.19882 0.79892 0.25239
 O392 O 1.21322 0.78505 0.34155
 O393 O 1.29876 0.86291 0.25006
 O394 O 1.20845 0.86287 0.25416
 O395 O 1.13388 0.78995 0.25266
 O396 O 1.17591 0.81911 0.30062
 C397 C 1.18474 0.81013 0.33223
 O398 O 1.28653 0.71726 0.35076
 O399 O 1.20844 0.63045 0.24952
 O400 O 1.21551 0.70695 0.34027
 O401 O 1.18442 0.66839 0.29852
 O402 O 1.29988 0.63041 0.24999
 O403 O 1.33419 0.66859 0.29511
 C404 C 1.19199 0.67743 0.33038
 H405 H 1.25426 0.66764 0.20573
 H406 H 1.33192 0.74569 0.29652
 H407 H 1.17288 0.74474 0.29652
 H408 H 1.25025 0.82465 0.20577
 H409 H 1.38614 0.68053 0.24083
 H410 H 1.38082 0.82210 0.25048
 H411 H 1.32719 0.87417 0.25038
 H412 H 1.18183 0.87569 0.26074
 H413 H 1.32661 0.61787 0.24329
 H414 H 1.18006 0.61910 0.24944
 H415 H 1.12677 0.67026 0.25356
 H416 H 1.12079 0.81638 0.25865
 H417 H 1.35783 0.65103 0.28851
 H418 H 1.27611 0.72712 0.37347
 H419 H 1.23175 0.76885 0.12876
 H420 H 1.15379 0.84658 0.21283
 Zr421 Zr 0.74562 1.25588 0.18959
 O422 O 0.77547 1.22644 0.14756
 O423 O 0.70314 1.29397 0.16417
 O424 O 0.70481 1.21841 0.16092
 O425 O 0.82348 1.32666 0.20267
 O426 O 0.67066 1.18235 0.20255
 O427 O 0.78414 1.29575 0.16111
 O428 O 0.67075 1.32770 0.20834
 O429 O 0.69279 1.25386 0.22097
 O430 O 0.74768 1.30752 0.22147
 O431 O 0.74969 1.20044 0.21677
 O432 O 0.80247 1.25251 0.21640
 Zr433 Zr 0.75502 1.24629 0.31054
 Zr434 Zr 0.69826 1.20013 0.24974
 Zr435 Zr 0.80202 1.30279 0.25010
 Zr436 Zr 0.69673 1.30416 0.25403
 O437 O 0.86716 1.29730 0.24940
 O438 O 0.63207 1.29392 0.25668
 O439 O 0.75098 1.30234 0.28368
 O440 O 0.69885 1.25056 0.28315
 O441 O 0.75269 1.19445 0.27881
 O442 O 0.80751 1.24913 0.27893
 C443 C 0.67666 1.31969 0.17612
 C444 C 0.81238 1.32097 0.17096
 C445 C 0.67753 1.19215 0.17072
 O446 O 0.63319 1.20486 0.25393
 O447 O 0.67755 1.17505 0.29675
 O448 O 0.71702 1.20534 0.33848
 C449 C 0.68780 1.18131 0.32851
 O450 O 0.82939 1.18013 0.19785
 Zr451 Zr 0.80402 1.19882 0.24615
 O452 O 0.79435 1.20502 0.33628
 O453 O 0.70386 1.13605 0.24535
 O454 O 0.79463 1.13497 0.24185
 O455 O 0.86910 1.20673 0.24696
 O456 O 0.82580 1.17130 0.29187
 C457 C 0.81880 1.17738 0.32428
 O458 O 0.72476 1.27398 0.35323
 O459 O 0.79785 1.36728 0.25083
 O460 O 0.79313 1.28670 0.33915
 O461 O 0.82181 1.32734 0.29759
 O462 O 0.70542 1.36830 0.25509
 O463 O 0.67605 1.32836 0.30213
 C464 C 0.81510 1.31751 0.32940
 H465 H 0.74713 1.33345 0.20836
 H466 H 0.67483 1.25053 0.29906
 H467 H 0.83348 1.24906 0.29251
 H468 H 0.74938 1.17685 0.20074
 H469 H 0.61815 1.32035 0.25229
 H470 H 0.62193 1.17678 0.25250
 H471 H 0.67548 1.12483 0.24687
 H472 H 0.82157 1.12145 0.24603
 H473 H 0.67819 1.38121 0.25079
 H474 H 0.82646 1.37806 0.24974
 H475 H 0.87831 1.32536 0.25124
 H476 H 0.88169 1.17954 0.25080
 H477 H 0.65258 1.34714 0.29803
 H478 H 0.73679 1.26224 0.37468
 H479 H 0.76385 1.23792 0.12586
 H480 H 0.84905 1.15742 0.20162
 N481 N 0.57238 1.04617 0.03655
 N482 N 0.60073 1.07372 0.04489
 N483 N 0.54332 0.96045 0.06041
 N484 N 0.55038 0.93313 0.08466
 N485 N 0.57302 0.96016 0.03718
 N486 N 0.60125 0.93251 0.04520
 N487 N 0.54251 1.04605 0.05966
 N488 N 0.54962 1.07329 0.08405
 C489 C 0.58576 1.09068 0.07452
 C490 C 0.58639 0.91570 0.07483
 N491 N 0.42530 0.95864 0.03640
 N492 N 0.39629 0.93197 0.04507
 N493 N 0.45342 1.04503 0.05915
 N494 N 0.44268 1.06915 0.08495
 N495 N 0.42460 1.04473 0.03518
 N496 N 0.39370 1.06904 0.04409
 N497 N 0.45450 0.95944 0.06001
 N498 N 0.44615 0.93361 0.08519
 Mn499 Mn 0.49848 1.00276 0.05993
 C500 C 0.41016 0.91611 0.07541
 C501 C 0.40587 1.08465 0.07493
 N502 N 0.57384 0.95864 -0.03812
 N503 N 0.60188 0.93031 -0.04516
 N504 N 0.54395 1.04371 -0.06266
 N505 N 0.55155 1.07052 -0.08724
 N506 N 0.57307 1.04468 -0.03896
 N507 N 0.60134 1.07233 -0.04698
 N508 N 0.54446 0.95817 -0.06159
 N509 N 0.55158 0.92978 -0.08500
 Mn510 Mn 0.57365 1.00244 -0.00084
 C511 C 0.58726 0.91234 -0.07446
 C512 C 0.58717 1.08845 -0.07709
 N513 N 0.42544 1.04347 -0.03976
 N514 N 0.39726 1.07123 -0.04763
 N515 N 0.45552 0.95744 -0.06202
 N516 N 0.44797 0.92987 -0.08603
 N517 N 0.42600 0.95760 -0.03863
 N518 N 0.39747 0.93012 -0.04628
 N519 N 0.45496 1.04308 -0.06314
 N520 N 0.44772 1.07036 -0.08743
 Mn521 Mn 0.42490 1.00111 -0.00172
 Mn522 Mn 0.49974 1.00060 -0.06254
 Cl523 Cl 0.49922 1.00177 -0.00129
 C524 C 0.41186 1.08799 -0.07738
 C525 C 0.41190 0.91277 -0.07581
 N526 N 0.95691 0.57566 0.53756
 N527 N 0.92915 0.60388 0.54547
 N528 N 1.04394 0.54596 0.56006
 N529 N 1.07152 0.55387 0.58422
 N530 N 1.04375 0.57490 0.53657
 N531 N 1.07116 0.60342 0.54428
 N532 N 0.95712 0.54673 0.56109
 N533 N 0.92954 0.55430 0.58539
 C534 C 0.91206 0.58984 0.57531
 C535 C 1.08855 0.58956 0.57394
 N536 N 1.04228 0.42878 0.53703
 N537 N 1.06871 0.39954 0.54538
 N538 N 0.95643 0.45897 0.56133
 N539 N 0.92963 0.45133 0.58620
 N540 N 0.95533 0.43017 0.53767
 N541 N 0.92761 0.40216 0.54590
 N542 N 1.04318 0.45813 0.56021
 N543 N 1.07021 0.44977 0.58468
 Mn544 Mn 1.00020 0.50245 0.56089
 C545 C 1.08641 0.41348 0.57498
 C546 C 0.91154 0.41609 0.57613
 N547 N 1.04320 0.57433 0.46174
 N548 N 1.07210 0.60148 0.45419
 N549 N 0.95606 0.54645 0.43883
 N550 N 0.93086 0.55601 0.41334
 N551 N 0.95634 0.57536 0.46243
 N552 N 0.93124 0.60538 0.45344
 N553 N 1.04267 0.54511 0.43846
 N554 N 1.07107 0.55144 0.41460
 Mn555 Mn 1.00001 0.57552 0.49957
 C556 C 1.08941 0.58650 0.42477
 C557 C 0.91510 0.59246 0.42299
 N558 N 0.95435 0.42983 0.46260
 N559 N 0.92654 0.40171 0.45466
 N560 N 1.04145 0.45751 0.43860
 N561 N 1.06890 0.44959 0.41431
 N562 N 1.04126 0.42857 0.46209
 N563 N 1.06863 0.40002 0.45427
 N564 N 0.95479 0.45869 0.43900
 N565 N 0.92749 0.45105 0.41456
 Mn566 Mn 0.99825 0.42886 0.49985
 Mn567 Mn 0.99875 0.50194 0.43854
 Cl568 Cl 0.99924 0.50219 0.49972
 C569 C 0.90973 0.41571 0.42473
 C570 C 1.08588 0.41387 0.42448
 N571 N 0.95841 0.54429 -0.06118
 N572 N 0.93070 0.55148 -0.08533
 N573 N 1.04596 0.57301 -0.03838
 N574 N 1.07355 0.60111 -0.04737
 N575 N 1.04508 0.54364 -0.06155
 N576 N 1.07162 0.55095 -0.08669
 N577 N 0.95867 0.57371 -0.03808
 N578 N 0.93095 0.60186 -0.04606
 C579 C 0.91354 0.58724 -0.07553
 C580 C 1.08964 0.58655 -0.07755
 N581 N 1.04465 0.54473 0.06074
 N582 N 1.07161 0.55250 0.08538
 N583 N 0.95818 0.57449 0.03714
 N584 N 0.92985 0.60243 0.04449
 N585 N 0.95788 0.54553 0.06066
 N586 N 0.92958 0.55290 0.08444
 N587 N 1.04527 0.57358 0.03714
 N588 N 1.07273 0.60193 0.04534
 Mn589 Mn 1.00207 0.57422 -0.00054
 C590 C 1.08920 0.58799 0.07540
 C591 C 0.91201 0.58827 0.07405
 N592 N 1.04409 0.45604 -0.06069
 N593 N 1.07134 0.44830 -0.08513
 N594 N 0.95686 0.42756 -0.03744
 N595 N 0.92867 0.39974 -0.04554
 N596 N 0.95740 0.45664 -0.06085
 N597 N 0.92987 0.44949 -0.08524
 N598 N 1.04405 0.42700 -0.03724
 N599 N 1.07139 0.39849 -0.04542
 Mn600 Mn 1.00122 0.50014 -0.06115
 C601 C 1.08843 0.41258 -0.07527
 C602 C 0.91180 0.41417 -0.07539
 N603 N 0.95725 0.45756 0.06130
 N604 N 0.92985 0.45031 0.08581
 N605 N 1.04418 0.42759 0.03835
 N606 N 1.07228 0.39974 0.04652
 N607 N 1.04400 0.45699 0.06151
 N608 N 1.07171 0.45004 0.08580
 N609 N 0.95691 0.42827 0.03805
 N610 N 0.92907 0.40027 0.04627
 Mn611 Mn 1.00092 0.50121 0.06120
 Mn612 Mn 1.00052 0.42705 0.00044
 Cl613 Cl 1.00120 0.50064 0.00000
 C614 C 0.91216 0.41475 0.07605
 C615 C 1.08947 0.41447 0.07616
 N616 N 0.57375 1.04376 0.53716
 N617 N 0.60259 1.07074 0.54538
 N618 N 0.54493 0.95846 0.56091
 N619 N 0.55426 0.93358 0.58652
 N620 N 0.57418 0.95805 0.53723
 N621 N 0.60419 0.93284 0.54630
 N622 N 0.54399 1.04401 0.56039
 N623 N 0.55181 1.07100 0.58487
 C624 C 0.58820 1.08781 0.57508
 C625 C 0.59093 0.91736 0.57689
 N626 N 0.42693 0.95631 0.53676
 N627 N 0.39759 0.93001 0.54547
 N628 N 0.45424 1.04278 0.56010
 N629 N 0.44243 1.06616 0.58612
 N630 N 0.42571 1.04229 0.53587
 N631 N 0.39424 1.06585 0.54461
 N632 N 0.45583 0.95730 0.56064
 N633 N 0.44687 0.93203 0.58611
 Mn634 Mn 0.49979 1.00072 0.56067
 C635 C 0.41086 0.91468 0.57617
 C636 C 0.40547 1.08113 0.57574
 N637 N 0.57480 0.95746 0.46182
 N638 N 0.60316 0.92973 0.45396
 N639 N 0.54519 1.04333 0.43845
 N640 N 0.55375 1.06974 0.41374
 N641 N 0.57444 1.04330 0.46203
 N642 N 0.60375 1.06974 0.45386
 N643 N 0.54558 0.95782 0.43822
 N644 N 0.55301 0.93050 0.41399
 Mn645 Mn 0.57475 1.00058 0.49957
 C646 C 0.58877 0.91290 0.42411
 C647 C 0.59008 1.08633 0.42383
 N648 N 0.42639 1.04196 0.46138
 N649 N 0.39764 1.06926 0.45383
 N650 N 0.45703 0.95704 0.43808
 N651 N 0.44990 0.92963 0.41388
 N652 N 0.42784 0.95619 0.46171
 N653 N 0.39985 0.92821 0.45406
 N654 N 0.45605 1.04266 0.43815
 N655 N 0.44834 1.07031 0.41425
 Mn656 Mn 0.42635 0.99910 0.49891
 Mn657 Mn 0.50094 1.00030 0.43803
 Cl658 Cl 0.50050 1.00019 0.49934
 C659 C 0.41201 1.08694 0.42443
 C660 C 0.41438 0.91165 0.42426
 N661 N 1.07567 1.03964 0.53804
 N662 N 1.10306 1.06827 0.54562
 N663 N 1.04592 0.95400 0.56104
 N664 N 1.05249 0.92672 0.58534
 N665 N 1.07592 0.95368 0.53811
 N666 N 1.10392 0.92584 0.54639
 N667 N 1.04579 1.03934 0.56106
 N668 N 1.05181 1.06754 0.58476
 C669 C 1.08740 1.08557 0.57480
 C670 C 1.08846 0.90909 0.57587
 N671 N 0.92843 0.95370 0.53670
 N672 N 0.89807 0.92894 0.54591
 N673 N 0.95742 1.03920 0.56040
 N674 N 0.94765 1.06338 0.58634
 N675 N 0.92825 1.03942 0.53676
 N676 N 0.89776 1.06398 0.54621
 N677 N 0.95756 0.95388 0.56036
 N678 N 0.94784 0.92944 0.58612
 Mn679 Mn 1.00173 0.99661 0.56083
 C680 C 0.91113 0.91347 0.57656
 C681 C 0.91082 1.07919 0.57699
 N682 N 1.07695 0.95382 0.46310
 N683 N 1.10490 0.92555 0.45602
 N684 N 1.04723 1.03933 0.43951
 N685 N 1.05475 1.06639 0.41520
 N686 N 1.07655 1.03965 0.46302
 N687 N 1.10500 1.06714 0.45510
 N688 N 1.04776 0.95388 0.43951
 N689 N 1.05489 0.92580 0.41588
 Mn690 Mn 1.07692 0.99671 0.50056
 C691 C 1.09039 0.90813 0.42654
 C692 C 1.09049 1.08394 0.42536
 N693 N 0.92910 1.03925 0.46171
 N694 N 0.89826 1.06291 0.45161
 N695 N 0.95915 0.95358 0.43866
 N696 N 0.95030 0.92851 0.41309
 N697 N 0.92953 0.95346 0.46196
 N698 N 0.89979 0.92802 0.45278
 N699 N 0.95854 1.03888 0.43822
 N700 N 0.94837 1.06196 0.41164
 Mn701 Mn 0.92841 0.99649 0.49927
 Mn702 Mn 1.00326 0.99642 0.43882
 Cl703 Cl 1.00255 0.99660 0.49985
 C704 C 0.91116 1.07741 0.42056
 C705 C 0.91365 0.91217 0.42248
 N706 N 0.45434 0.56927 -0.03769
 N707 N 0.44456 0.59894 -0.05925
 N708 N 0.42430 0.54032 0.03419
 N709 N 0.39434 0.54910 0.05620
 N710 N 0.45247 0.56918 0.03439
 N711 N 0.44216 0.59861 0.05599
 N712 N 0.42641 0.54024 -0.03865
 N713 N 0.39732 0.54896 -0.06135
 C714 C 0.40939 0.58537 -0.07425
 C715 C 0.40627 0.58530 0.06982
 N716 N 0.45408 0.42458 0.03387
 N717 N 0.44602 0.39668 0.05754
 N718 N 0.42693 0.45270 -0.03879
 N719 N 0.39765 0.44219 -0.06083
 N720 N 0.45677 0.42559 -0.03887
 N721 N 0.44909 0.39636 -0.06137
 N722 N 0.42491 0.45238 0.03328
 N723 N 0.39578 0.44387 0.05601
 Mn724 Mn 0.42524 0.49646 -0.00245
 C725 C 0.40962 0.40930 0.07112
 C726 C 0.41245 0.40744 -0.07514
 N727 N 0.54145 0.57003 0.03653
 N728 N 0.55071 0.59996 0.05805
 N729 N 0.57313 0.54248 -0.03465
 N730 N 0.60296 0.55232 -0.05648
 N731 N 0.54315 0.56947 -0.03598
 N732 N 0.55131 0.59790 -0.05904
 N733 N 0.56984 0.54142 0.03774
 N734 N 0.59886 0.55091 0.06025
 Mn735 Mn 0.49791 0.56981 -0.00071
 C736 C 0.58621 0.58718 0.07304
 C737 C 0.58842 0.58658 -0.07183
 N738 N 0.54487 0.42676 -0.03679
 N739 N 0.55311 0.39953 -0.06088
 N740 N 0.57071 0.45378 0.03745
 N741 N 0.59767 0.44556 0.06215
 N742 N 0.54263 0.42499 0.03555
 N743 N 0.54993 0.39608 0.05839
 N744 N 0.57420 0.45435 -0.03514
 N745 N 0.60376 0.44617 -0.05770
 Mn746 Mn 0.49960 0.42514 -0.00158
 Mn747 Mn 0.57244 0.49801 0.00140
 Cl748 Cl 0.49879 0.49737 -0.00080
 C749 C 0.58965 0.41226 -0.07387
 C750 C 0.58398 0.40957 0.07501
 C751 C 0.32648 1.15851 0.11114
 C752 C 0.33167 1.15369 0.14700
 C753 C 0.35722 1.12134 0.15822
 C754 C 0.38051 1.09855 0.13449
 C755 C 0.37845 1.10684 0.09881
 C756 C 0.34906 1.13522 0.08749
 C757 C 0.35413 1.17053 0.06345
 C758 C 0.32955 1.19591 0.08928
 H759 H 0.36108 1.11480 0.18552
 H760 H 0.40120 1.07526 0.14426
 H761 H 0.33762 1.16569 0.03853
 H762 H 0.38689 1.18040 0.06086
 H763 H 0.29892 1.20565 0.07922
 H764 H 0.34805 1.22046 0.10175
 C765 C 0.84347 0.61704 0.65077
 C766 C 0.83109 0.65715 0.64377
 C767 C 0.83902 0.67215 0.61005
 C768 C 0.86377 0.64956 0.58652
 C769 C 0.88044 0.61138 0.59617
 C770 C 0.86710 0.59479 0.62762
 C771 C 0.89056 0.57414 0.65592
 C772 C 0.86464 0.59860 0.68139
 H773 H 0.82870 0.70237 0.60274
 H774 H 0.87182 0.66303 0.56181
 H775 H 0.92385 0.58264 0.65623
 H776 H 0.88419 0.54083 0.65690
 H777 H 0.88310 0.62111 0.69638
 H778 H 0.84343 0.57928 0.69702
 C779 C 0.61402 0.84992 0.15109
 C780 C 0.65377 0.83591 0.14313
 C781 C 0.66791 0.84175 0.10882
 C782 C 0.64521 0.86627 0.08541
 C783 C 0.60768 0.88455 0.09581
 C784 C 0.59153 0.87326 0.12803
 C785 C 0.57290 0.89837 0.15633
 C786 C 0.59766 0.87272 0.18170
 H787 H 0.69764 0.82979 0.10083
 H788 H 0.65811 0.87271 0.06010
 H789 H 0.53898 0.89359 0.15854
 H790 H 0.58292 0.93082 0.15545
 H791 H 0.57789 0.85324 0.19847
 H792 H 0.62193 0.89042 0.19548
 C793 C 1.15173 0.32733 0.61211
 C794 C 1.16507 0.34372 0.64375
 C795 C 1.15004 0.38264 0.65303
 C796 C 1.12518 0.40522 0.63034
 C797 C 1.11419 0.38962 0.59763
 C798 C 1.12676 0.34977 0.58956
 C799 C 1.14938 0.33443 0.55846
 C800 C 1.17655 0.31003 0.58300
 H801 H 1.15786 0.39606 0.67783
 H802 H 1.11483 0.43515 0.63850
 H803 H 1.16631 0.35901 0.54455
 H804 H 1.12950 0.31493 0.54181
 H805 H 1.20928 0.32044 0.58339
 H806 H 1.17229 0.27651 0.58048
 C807 C 0.66967 1.16039 -0.11131
 C808 C 0.65596 1.16741 -0.14521
 C809 C 0.61544 1.15510 -0.15356
 C810 C 0.59199 1.13174 -0.13022
 C811 C 0.60871 1.11954 -0.09813
 C812 C 0.64673 1.13657 -0.08840
 C813 C 0.68456 1.11695 -0.07389
 C814 C 0.70962 1.14303 -0.09886
 H815 H 0.60254 1.16188 -0.17880
 H816 H 0.56188 1.12098 -0.13840
 H817 H 0.68622 1.08376 -0.07971
 H818 H 0.68955 1.12520 -0.04627
 H819 H 0.72587 1.12497 -0.11913
 H820 H 0.72896 1.16630 -0.08560
 C821 C 1.15835 0.61248 0.34949
 C822 C 1.17211 0.65194 0.35722
 C823 C 1.16533 0.66631 0.39131
 C824 C 1.14013 0.64407 0.41460
 C825 C 1.12193 0.60687 0.40428
 C826 C 1.13427 0.59048 0.37245
 C827 C 1.10962 0.57151 0.34398
 C828 C 1.13603 0.59571 0.31873
 H829 H 1.17675 0.69598 0.39911
 H830 H 1.13283 0.65722 0.43961
 H831 H 1.07666 0.58120 0.34422
 H832 H 1.11473 0.53805 0.34221
 H833 H 1.11819 0.61929 0.30444
 H834 H 1.15626 0.57610 0.30243
 C835 C 0.38235 0.84700 -0.15161
 C836 C 0.34211 0.83425 -0.14371
 C837 C 0.32814 0.84069 -0.10944
 C838 C 0.35162 0.86473 -0.08610
 C839 C 0.38977 0.88183 -0.09652
 C840 C 0.40554 0.86980 -0.12864
 C841 C 0.42520 0.89400 -0.15698
 C842 C 0.39977 0.86889 -0.18229
 H843 H 0.29803 0.82968 -0.10148
 H844 H 0.33888 0.87177 -0.06084
 H845 H 0.45896 0.88810 -0.15900
 H846 H 0.41624 0.92675 -0.15638
 H847 H 0.41907 0.84859 -0.19875
 H848 H 0.37630 0.88727 -0.19638
 C849 C 0.83865 0.33282 0.39063
 C850 C 0.83309 0.34477 0.35608
 C851 C 0.84516 0.38486 0.34728
 C852 C 0.86750 0.40914 0.37076
 C853 C 0.87882 0.39383 0.40353
 C854 C 0.86142 0.35657 0.41366
 C855 C 0.88044 0.32014 0.43038
 C856 C 0.85537 0.29420 0.40535
 H857 H 0.83934 0.39680 0.32159
 H858 H 0.87842 0.43869 0.36217
 H859 H 0.87054 0.31665 0.45781
 H860 H 0.91435 0.31819 0.42590
 H861 H 0.83081 0.27624 0.41849
 H862 H 0.87474 0.27708 0.38647
 C863 C 1.16420 0.33466 0.11118
 C864 C 1.17309 0.34976 0.14438
 C865 C 1.16067 0.39010 0.15172
 C866 C 1.13572 0.41202 0.12832
 C867 C 1.12190 0.39404 0.09714
 C868 C 1.13897 0.35612 0.08824
 C869 C 1.11872 0.31806 0.07554
 C870 C 1.14629 0.29462 0.10051
 H871 H 1.16834 0.40398 0.17636
 H872 H 1.12502 0.44205 0.13587
 H873 H 1.12597 0.31187 0.04788
 H874 H 1.08535 0.31657 0.08239
 H875 H 1.16941 0.27501 0.08718
 H876 H 1.12892 0.27947 0.12180
 C877 C 0.62614 0.86259 0.65670
 C878 C 0.66366 0.84430 0.64833
 C879 C 0.67711 0.84925 0.61356
 C880 C 0.65348 0.87269 0.58956
 C881 C 0.61558 0.89092 0.59970
 C882 C 0.60331 0.88412 0.63371
 C883 C 0.57087 0.89460 0.65965
 C884 C 0.59663 0.86985 0.68573
 H885 H 0.70598 0.83579 0.60508
 H886 H 0.66496 0.87670 0.56342
 H887 H 0.54055 0.88046 0.65338
 H888 H 0.57000 0.92782 0.66546
 H889 H 0.58125 0.84129 0.69439
 H890 H 0.61035 0.88879 0.70667
 C891 C 1.17024 0.66158 -0.11260
 C892 C 1.17047 0.65271 -0.14837
 C893 C 1.14878 0.61705 -0.15860
 C894 C 1.12471 0.59470 -0.13492
 C895 C 1.12012 0.60756 -0.10027
 C896 C 1.14523 0.63999 -0.08937
 C897 C 1.13500 0.67726 -0.06900
 C898 C 1.16221 0.70093 -0.09416
 H899 H 1.14911 0.60675 -0.18528
 H900 H 1.10755 0.56868 -0.14454
 H901 H 1.14783 0.67603 -0.04232
 H902 H 1.10174 0.68560 -0.07068
 H903 H 1.19062 0.71333 -0.08188
 H904 H 1.14473 0.72309 -0.11030
 C905 C 0.67716 1.15126 0.38797
 C906 C 0.66202 1.16144 0.35511
 C907 C 0.61995 1.15355 0.34831
 C908 C 0.59574 1.13139 0.37191
 C909 C 0.61311 1.11618 0.40275
 C910 C 0.65332 1.12871 0.41115
 C911 C 0.68963 1.10428 0.42287
 C912 C 0.71567 1.12895 0.39761
 H913 H 0.60612 1.16303 0.32407
 H914 H 0.56419 1.12405 0.36490
 H915 H 0.68713 1.07150 0.41574
 H916 H 0.69746 1.11028 0.45044
 H917 H 0.72845 1.11052 0.37589
 H918 H 0.73830 1.14911 0.41077
 C919 C 0.83736 0.66932 0.10718
 C920 C 0.82747 0.65457 0.14027
 C921 C 0.83891 0.61406 0.14794
 C922 C 0.86408 0.59156 0.12509
 C923 C 0.87908 0.60916 0.09415
 C924 C 0.86285 0.64726 0.08477
 C925 C 0.88408 0.68492 0.07230
 C926 C 0.85623 0.70898 0.09670
 H927 H 0.83038 0.60052 0.17253
 H928 H 0.87410 0.56144 0.13294
 H929 H 0.87770 0.69104 0.04450
 H930 H 0.91727 0.68592 0.07973
 H931 H 0.83382 0.72888 0.08291
 H932 H 0.87327 0.72398 0.11824
 C933 C 0.32244 1.15204 0.61003
 C934 C 0.32624 1.14704 0.64596
 C935 C 0.35212 1.11519 0.65777
 C936 C 0.37732 1.09348 0.63469
 C937 C 0.37676 1.10234 0.59911
 C938 C 0.34681 1.12970 0.58701
 C939 C 0.35168 1.16529 0.56326
 C940 C 0.32527 1.18970 0.58846
 H941 H 0.35493 1.10846 0.68513
 H942 H 0.39825 1.07068 0.64491
 H943 H 0.33634 1.16007 0.53788
 H944 H 0.38418 1.17621 0.56162
 H945 H 0.29489 1.19873 0.57749
 H946 H 0.34251 1.21466 0.60160
 C947 C 0.83712 0.33420 -0.11036
 C948 C 0.82945 0.34844 -0.14402
 C949 C 0.84243 0.38846 -0.15182
 C950 C 0.86689 0.41079 -0.12831
 C951 C 0.87966 0.39351 -0.09655
 C952 C 0.86192 0.35603 -0.08730
 C953 C 0.88127 0.31812 -0.07341
 C954 C 0.85416 0.29427 -0.09851
 H955 H 0.83555 0.40176 -0.17684
 H956 H 0.87809 0.44051 -0.13619
 H957 H 0.87309 0.31283 -0.04579
 H958 H 0.91481 0.31602 -0.07950
 H959 H 0.83039 0.27535 -0.08530
 H960 H 0.87198 0.27829 -0.11910
 C961 C 0.38394 0.84877 0.34728
 C962 C 0.34481 0.83382 0.35622
 C963 C 0.33250 0.83771 0.39118
 C964 C 0.35603 0.86155 0.41451
 C965 C 0.39270 0.88085 0.40332
 C966 C 0.40731 0.87134 0.37024
 C967 C 0.42388 0.89823 0.34225
 C968 C 0.39820 0.87341 0.31696
 H969 H 0.30366 0.82456 0.39990
 H970 H 0.34442 0.86663 0.44048
 H971 H 0.45773 0.89423 0.33855
 H972 H 0.41333 0.93039 0.34475
 H973 H 0.41742 0.85522 0.29874
 H974 H 0.37289 0.89132 0.30480
 C975 C 1.12016 1.14397 0.34644
 C976 C 1.15634 1.16418 0.35611
 C977 C 1.17302 1.15543 0.38912
 C978 C 1.15184 1.12939 0.41230
 C979 C 1.11350 1.11218 0.40290
 C980 C 1.09922 1.11899 0.36926
 C981 C 1.05798 1.13347 0.35702
 C982 C 1.08103 1.16090 0.33186
 H983 H 1.20229 1.16853 0.39697
 H984 H 1.16505 1.12327 0.43753
 H985 H 1.04070 1.15056 0.37729
 H986 H 1.04018 1.10887 0.34394
 H987 H 1.07712 1.19398 0.33743
 H988 H 1.07651 1.15203 0.30432
 C989 C 0.61276 0.66085 -0.14283
 C990 C 0.65589 0.66048 -0.14380
 C991 C 0.67717 0.63904 -0.11772
 C992 C 0.65532 0.61437 -0.09418
 C993 C 0.61192 0.61200 -0.09587
 C994 C 0.59121 0.63767 -0.11893
 C995 C 0.55793 0.62786 -0.14440
 C996 C 0.58174 0.65322 -0.17068
 H997 H 0.71064 0.63952 -0.11678
 H998 H 0.67227 0.59673 -0.07521
 H999 H 0.52779 0.64163 -0.13695
 H1000 H 0.55670 0.59484 -0.15099
 H1001 H 0.56529 0.68155 -0.17842
 H1002 H 0.59439 0.63481 -0.19246
 C1003 C 0.83081 1.15238 0.61287
 C1004 C 0.84263 1.15541 0.64777
 C1005 C 0.87357 1.12852 0.65963
 C1006 C 0.89474 1.10306 0.63657
 C1007 C 0.88534 1.10327 0.60100
 C1008 C 0.85151 1.12644 0.58996
 C1009 C 0.84955 1.15652 0.56110
 C1010 C 0.82807 1.18520 0.58620
 H1011 H 0.88262 1.12799 0.68663
 H1012 H 0.91941 1.08409 0.64656
 H1013 H 0.82913 1.14597 0.53974
 H1014 H 0.88059 1.16740 0.55280
 H1015 H 0.79579 1.19251 0.57874
 H1016 H 0.84746 1.21176 0.59319
 C1017 C 0.35835 0.67561 0.11489
 C1018 C 0.33809 0.65726 0.14273
 C1019 C 0.33472 0.61442 0.14321
 C1020 C 0.35538 0.59070 0.11827
 C1021 C 0.38077 0.60958 0.09339
 C1022 C 0.37997 0.65221 0.09111
 C1023 C 0.41432 0.68253 0.08885
 C1024 C 0.39049 0.70829 0.11489
 H1025 H 0.31728 0.59937 0.16349
 H1026 H 0.35369 0.55775 0.11985
 H1027 H 0.41633 0.69681 0.06279
 H1028 H 0.44400 0.67058 0.09924
 H1029 H 0.37869 0.73734 0.10381
 H1030 H 0.40636 0.71134 0.14031
 C1031 C 1.11905 0.85206 0.65589
 C1032 C 1.15556 0.83157 0.64665
 C1033 C 1.16561 0.83103 0.61076
 C1034 C 1.14320 0.85516 0.58681
 C1035 C 1.10945 0.87896 0.59800
 C1036 C 1.09633 0.87421 0.63222
 C1037 C 1.08428 0.90546 0.65853
 C1038 C 1.10961 0.88138 0.68454
 H1039 H 1.19232 0.81440 0.60138
 H1040 H 1.15335 0.85653 0.56009
 H1041 H 1.05055 0.90489 0.66410
 H1042 H 1.09730 0.93614 0.65285
 H1043 H 1.09047 0.86737 0.70529
 H1044 H 1.13741 0.89822 0.69354
 C1045 C 0.64204 0.38303 0.15632
 C1046 C 0.65074 0.34165 0.15142
 C1047 C 0.63179 0.32135 0.12351
 C1048 C 0.60828 0.34340 0.09928
 C1049 C 0.60475 0.38612 0.10205
 C1050 C 0.62008 0.40494 0.13183
 C1051 C 0.64657 0.44182 0.13611
 C1052 C 0.67078 0.41780 0.16302
 H1053 H 0.63595 0.28880 0.12003
 H1054 H 0.59506 0.32745 0.07734
 H1055 H 0.62905 0.46779 0.14740
 H1056 H 0.66486 0.44908 0.11250
 H1057 H 0.66734 0.43013 0.18970
 H1058 H 0.70311 0.41104 0.15501
 C1059 C 0.87564 0.86428 0.34009
 C1060 C 0.84156 0.84116 0.35058
 C1061 C 0.82882 0.84439 0.38549
 C1062 C 0.85187 0.86782 0.40933
 C1063 C 0.88849 0.88751 0.39875
 C1064 C 0.89865 0.88650 0.36358
 C1065 C 0.93848 0.87598 0.34618
 C1066 C 0.91319 0.85163 0.32026
 H1067 H 0.80167 0.82832 0.39448
 H1068 H 0.84182 0.86942 0.43607
 H1069 H 0.95885 0.85671 0.36261
 H1070 H 0.95364 0.90318 0.33457
 H1071 H 0.91892 0.81821 0.32151
 H1072 H 0.91378 0.86494 0.29378
 C1073 C 0.38742 0.33146 -0.14471
 C1074 C 0.34424 0.33206 -0.14532
 C1075 C 0.32335 0.35379 -0.11914
 C1076 C 0.34554 0.37867 -0.09606
 C1077 C 0.38891 0.38099 -0.09827
 C1078 C 0.40933 0.35481 -0.12116
 C1079 C 0.44256 0.36394 -0.14690
 C1080 C 0.41835 0.33842 -0.17280
 H1081 H 0.28988 0.35365 -0.11797
 H1082 H 0.32883 0.39674 -0.07717
 H1083 H 0.47260 0.34999 -0.13950
 H1084 H 0.44407 0.39685 -0.15381
 H1085 H 0.43450 0.30984 -0.18039
 H1086 H 0.40578 0.35667 -0.19467
 C1087 C 1.15242 0.38379 -0.15282
 C1088 C 1.16610 0.34436 -0.14513
 C1089 C 1.16073 0.33051 -0.11072
 C1090 C 1.13695 0.35339 -0.08680
 C1091 C 1.11895 0.39077 -0.09681
 C1092 C 1.12978 0.40640 -0.12929
 C1093 C 1.10376 0.42496 -0.15709
 C1094 C 1.12865 0.40005 -0.18295
 H1095 H 1.17249 0.30097 -0.10297
 H1096 H 1.13084 0.34083 -0.06137
 H1097 H 1.10898 0.45836 -0.15950
 H1098 H 1.07079 0.41551 -0.15546
 H1099 H 1.14814 0.41918 -0.20023
 H1100 H 1.10999 0.37625 -0.19625
 C1101 C 0.67082 0.84094 0.38867
 C1102 C 0.65526 0.83180 0.35564
 C1103 C 0.61389 0.84270 0.34885
 C1104 C 0.59138 0.86676 0.37245
 C1105 C 0.60979 0.88107 0.40329
 C1106 C 0.64876 0.86535 0.41180
 C1107 C 0.68693 0.88635 0.42410
 C1108 C 0.71107 0.85948 0.39906
 H1109 H 0.59957 0.83455 0.32446
 H1110 H 0.56053 0.87639 0.36528
 H1111 H 0.69365 0.87959 0.45175
 H1112 H 0.68759 0.91925 0.41708
 H1113 H 0.73126 0.83709 0.41245
 H1114 H 0.72606 0.87674 0.37766
 C1115 C 0.84850 0.61576 -0.15229
 C1116 C 0.83417 0.65484 -0.14404
 C1117 C 0.83944 0.66829 -0.10952
 C1118 C 0.86381 0.64552 -0.08605
 C1119 C 0.88244 0.60862 -0.09662
 C1120 C 0.87168 0.59320 -0.12917
 C1121 C 0.89787 0.57549 -0.15731
 C1122 C 0.87238 0.60031 -0.18274
 H1123 H 0.82717 0.69750 -0.10136
 H1124 H 0.86986 0.65783 -0.06051
 H1125 H 0.89324 0.54204 -0.16007
 H1126 H 0.93068 0.58549 -0.15576
 H1127 H 0.85314 0.58106 -0.20011
 H1128 H 0.89053 0.62461 -0.19590
 C1129 C 0.38257 1.15433 0.34956
 C1130 C 0.34219 1.16666 0.35747
 C1131 C 0.32795 1.15912 0.39152
 C1132 C 0.35145 1.13472 0.41454
 C1133 C 0.38982 1.11816 0.40405
 C1134 C 0.40577 1.13112 0.37225
 C1135 C 0.42574 1.10771 0.34355
 C1136 C 0.40023 1.13317 0.31859
 H1137 H 0.29760 1.16948 0.39948
 H1138 H 0.33851 1.12693 0.43956
 H1139 H 0.41705 1.07488 0.34358
 H1140 H 0.45946 1.11391 0.34175
 H1141 H 0.37690 1.11490 0.30420
 H1142 H 0.41934 1.15395 0.30242
 C1143 C 1.15221 0.61759 0.15312
 C1144 C 1.16636 0.65681 0.14513
 C1145 C 1.16158 0.67019 0.11055
 C1146 C 1.13793 0.64709 0.08670
 C1147 C 1.11952 0.60995 0.09696
 C1148 C 1.12971 0.59478 0.12969
 C1149 C 1.10313 0.57685 0.15744
 C1150 C 1.12790 0.60189 0.18323
 H1151 H 1.17380 0.69947 0.10256
 H1152 H 1.13230 0.65928 0.06107
 H1153 H 1.10800 0.54344 0.16023
 H1154 H 1.07027 0.58658 0.15545
 H1155 H 1.14696 0.58276 0.20079
 H1156 H 1.10929 0.62602 0.19620
 C1157 C 0.67309 1.15647 0.61024
 C1158 C 0.65773 1.16696 0.64303
 C1159 C 0.61598 1.15759 0.65005
 C1160 C 0.59253 1.13402 0.62676
 C1161 C 0.61034 1.11875 0.59600
 C1162 C 0.65004 1.13263 0.58739
 C1163 C 0.68726 1.10945 0.57575
 C1164 C 0.71241 1.13551 0.60062
 H1165 H 0.60199 1.16676 0.67435
 H1166 H 0.56132 1.12563 0.63400
 H1167 H 0.69474 1.11529 0.54808
 H1168 H 0.68608 1.07671 0.58324
 H1169 H 0.73411 1.15635 0.58714
 H1170 H 0.72601 1.11794 0.62246
 C1171 C 0.83903 0.33356 0.11047
 C1172 C 0.83222 0.34694 0.14449
 C1173 C 0.84504 0.38680 0.15296
 C1174 C 0.86868 0.40994 0.12954
 C1175 C 0.88072 0.39353 0.09727
 C1176 C 0.86315 0.35615 0.08751
 C1177 C 0.88261 0.31877 0.07261
 C1178 C 0.85622 0.29408 0.09764
 H1179 H 0.83849 0.39941 0.17833
 H1180 H 0.87984 0.43954 0.13780
 H1181 H 0.91629 0.31684 0.07816
 H1182 H 0.87397 0.31409 0.04502
 H1183 H 0.87457 0.27778 0.11767
 H1184 H 0.83238 0.27525 0.08444
 C1185 C 0.37354 0.86217 0.65679
 C1186 C 0.33966 0.83809 0.64737
 C1187 C 0.33014 0.83837 0.61125
 C1188 C 0.35307 0.86306 0.58746
 C1189 C 0.38686 0.88714 0.59888
 C1190 C 0.39596 0.88458 0.63395
 C1191 C 0.42331 0.90211 0.66113
 C1192 C 0.39825 0.87650 0.68709
 H1193 H 0.30449 0.82063 0.60135
 H1194 H 0.34428 0.86335 0.56041
 H1195 H 0.41879 0.93553 0.66427
 H1196 H 0.45593 0.89197 0.65825
 H1197 H 0.37967 0.89526 0.70536
 H1198 H 0.41644 0.85147 0.69909
 C1199 C 0.32965 1.16056 -0.11094
 C1200 C 0.34344 1.16803 -0.14477
 C1201 C 0.38405 1.15595 -0.15318
 C1202 C 0.40746 1.13229 -0.13001
 C1203 C 0.39057 1.11956 -0.09809
 C1204 C 0.35254 1.13650 -0.08823
 C1205 C 0.31467 1.11680 -0.07379
 C1206 C 0.28966 1.14313 -0.09856
 H1207 H 0.39696 1.16291 -0.17840
 H1208 H 0.43758 1.12161 -0.13827
 H1209 H 0.30967 1.12481 -0.04611
 H1210 H 0.31296 1.08366 -0.07983
 H1211 H 0.27033 1.16631 -0.08512
 H1212 H 0.27341 1.12528 -0.11893
 C1213 C 0.86121 0.62843 0.34292
 C1214 C 0.84313 0.66565 0.35128
 C1215 C 0.84785 0.67868 0.38614
 C1216 C 0.87092 0.65489 0.41026
 C1217 C 0.88893 0.61728 0.40012
 C1218 C 0.88235 0.60546 0.36602
 C1219 C 0.89293 0.57349 0.34005
 C1220 C 0.86856 0.59939 0.31384
 H1221 H 0.83448 0.70729 0.39461
 H1222 H 0.87481 0.66600 0.43648
 H1223 H 0.87813 0.54370 0.34604
 H1224 H 0.92666 0.57225 0.33456
 H1225 H 0.83954 0.58465 0.30486
 H1226 H 0.88823 0.61281 0.29313
 C1227 C 0.61299 1.15594 0.15183
 C1228 C 0.65205 1.17173 0.14379
 C1229 C 0.66595 1.16660 0.10926
 C1230 C 0.64382 1.14154 0.08568
 C1231 C 0.60695 1.12186 0.09600
 C1232 C 0.59100 1.13217 0.12859
 C1233 C 0.57368 1.10598 0.15673
 C1234 C 0.59788 1.13203 0.18224
 H1235 H 0.69524 1.17949 0.10119
 H1236 H 0.65663 1.13593 0.06019
 H1237 H 0.58481 1.07392 0.15529
 H1238 H 0.53964 1.10955 0.15933
 H1239 H 0.62294 1.11490 0.19550
 H1240 H 0.57772 1.15051 0.19952
 C1241 C 1.15418 0.61957 0.64989
 C1242 C 1.16543 0.65991 0.64256
 C1243 C 1.15824 0.67417 0.60856
 C1244 C 1.13490 0.65049 0.58491
 C1245 C 1.11916 0.61201 0.59481
 C1246 C 1.13193 0.59629 0.62666
 C1247 C 1.10807 0.57561 0.65475
 C1248 C 1.13259 0.60114 0.68035
 H1249 H 1.16812 0.70447 0.60104
 H1250 H 1.12718 0.66328 0.55988
 H1251 H 1.11520 0.54248 0.65633
 H1252 H 1.07459 0.58333 0.65430
 H1253 H 1.15380 0.58256 0.69656
 H1254 H 1.11318 0.62346 0.69475
 C1255 C 0.66864 0.83815 -0.10773
 C1256 C 0.65307 0.82810 -0.14054
 C1257 C 0.61190 0.83919 -0.14778
 C1258 C 0.58951 0.86420 -0.12483
 C1259 C 0.60794 0.87939 -0.09429
 C1260 C 0.64670 0.86352 -0.08523
 C1261 C 0.68506 0.88466 -0.07346
 C1262 C 0.70901 0.85693 -0.09795
 H1263 H 0.59778 0.83051 -0.17213
 H1264 H 0.55883 0.87397 -0.13238
 H1265 H 0.69179 0.87868 -0.04569
 H1266 H 0.68589 0.91733 -0.08118
 H1267 H 0.72945 0.83498 -0.08425
 H1268 H 0.72378 0.87351 -0.11984
 C1269 C 1.15164 0.38404 0.34836
 C1270 C 1.16422 0.34426 0.35628
 C1271 C 1.15751 0.33048 0.39052
 C1272 C 1.13359 0.35391 0.41394
 C1273 C 1.11670 0.39169 0.40358
 C1274 C 1.12878 0.40712 0.37139
 C1275 C 1.10393 0.42620 0.34312
 C1276 C 1.12905 0.40083 0.31777
 H1277 H 1.16835 0.30067 0.39847
 H1278 H 1.12643 0.34144 0.43922
 H1279 H 1.10989 0.45948 0.34083
 H1280 H 1.07074 0.41739 0.34407
 H1281 H 1.14940 0.41962 0.30093
 H1282 H 1.11031 0.37742 0.30407
 C1283 C 0.37715 0.85990 0.15598
 C1284 C 0.34238 0.83753 0.14584
 C1285 C 0.32754 0.84379 0.11180
 C1286 C 0.34914 0.86950 0.08841
 C1287 C 0.38626 0.88884 0.09850
 C1288 C 0.39855 0.88445 0.13300
 C1289 C 0.43947 0.87277 0.14784
 C1290 C 0.41598 0.84583 0.17313
 H1291 H 0.29950 0.82884 0.10325
 H1292 H 0.33735 0.87347 0.06238
 H1293 H 0.45513 0.89897 0.16057
 H1294 H 0.45894 0.85529 0.12926
 H1295 H 0.41819 0.85661 0.20037
 H1296 H 0.42180 0.81268 0.16930
 C1297 C 0.84020 0.33345 0.60976
 C1298 C 0.83695 0.34370 0.64489
 C1299 C 0.85055 0.38299 0.65473
 C1300 C 0.87221 0.40792 0.63136
 C1301 C 0.88130 0.39401 0.59767
 C1302 C 0.86242 0.35776 0.58682
 C1303 C 0.87952 0.32178 0.56800
 C1304 C 0.85501 0.29523 0.59296
 H1305 H 0.84627 0.39384 0.68100
 H1306 H 0.88436 0.43673 0.64060
 H1307 H 0.91356 0.31869 0.57110
 H1308 H 0.86814 0.32000 0.54087
 H1309 H 0.87482 0.27667 0.61043
 H1310 H 0.82925 0.27868 0.58013
 C1311 C 1.16787 1.15811 0.61008
 C1312 C 1.15169 1.16706 0.64291
 C1313 C 1.11030 1.15637 0.64950
 C1314 C 1.08821 1.13236 0.62576
 C1315 C 1.10730 1.11801 0.59521
 C1316 C 1.14629 1.13373 0.58683
 C1317 C 1.18471 1.11262 0.57505
 C1318 C 1.20835 1.13943 0.60038
 H1319 H 1.09571 1.16465 0.67379
 H1320 H 1.05730 1.12260 0.63267
 H1321 H 1.19205 1.11935 0.54750
 H1322 H 1.18517 1.07972 0.58209
 H1323 H 1.22906 1.16168 0.58735
 H1324 H 1.22271 1.12214 0.62204
 C1325 C 0.66746 0.61734 0.13760
 C1326 C 0.65896 0.65850 0.14329
 C1327 C 0.62985 0.67788 0.12182
 C1328 C 0.60591 0.65475 0.09859
 C1329 C 0.61169 0.61223 0.09604
 C1330 C 0.64467 0.59479 0.11412
 C1331 C 0.64591 0.55768 0.13650
 C1332 C 0.67080 0.58261 0.16237
 H1333 H 0.62404 0.71029 0.12443
 H1334 H 0.58228 0.66987 0.08345
 H1335 H 0.66409 0.53269 0.12437
 H1336 H 0.61484 0.54872 0.14624
 H1337 H 0.70319 0.57180 0.16525
 H1338 H 0.65403 0.58827 0.18708
 C1339 C 1.17340 0.83715 0.39260
 C1340 C 1.15862 0.82856 0.35929
 C1341 C 1.11714 0.83843 0.35201
 C1342 C 1.09375 0.86167 0.37545
 C1343 C 1.11153 0.87609 0.40645
 C1344 C 1.15051 0.86089 0.41554
 C1345 C 1.18809 0.88232 0.42862
 C1346 C 1.21316 0.85611 0.40375
 H1347 H 1.10348 0.83021 0.32737
 H1348 H 1.06288 0.87089 0.36795
 H1349 H 1.19429 0.87534 0.45631
 H1350 H 1.18842 0.91530 0.42187
 H1351 H 1.23336 0.83384 0.41727
 H1352 H 1.22837 0.87382 0.38273
 C1353 C 0.67721 0.35831 -0.11863
 C1354 C 0.65774 0.34169 -0.14768
 C1355 C 0.61450 0.34495 -0.15036
 C1356 C 0.59213 0.36771 -0.12590
 C1357 C 0.61293 0.38868 -0.09931
 C1358 C 0.65529 0.38188 -0.09514
 C1359 C 0.69003 0.41146 -0.09108
 C1360 C 0.71419 0.38547 -0.11671
 H1361 H 0.59822 0.33056 -0.17161
 H1362 H 0.55891 0.37035 -0.12864
 H1363 H 0.70323 0.41090 -0.06450
 H1364 H 0.68235 0.44232 -0.10115
 H1365 H 0.74120 0.36983 -0.10487
 H1366 H 0.72073 0.40126 -0.14163
 C1367 C 0.83037 1.14922 0.38436
 C1368 C 0.84005 1.14985 0.34892
 C1369 C 0.86977 1.12161 0.33696
 C1370 C 0.89214 1.09742 0.36033
 C1371 C 0.88491 1.10021 0.39622
 C1372 C 0.85197 1.12448 0.40750
 C1373 C 0.85174 1.15642 0.43503
 C1374 C 0.82905 1.18368 0.40960
 H1375 H 0.87726 1.11942 0.30967
 H1376 H 0.91602 1.07747 0.35030
 H1377 H 0.88326 1.16756 0.44157
 H1378 H 0.83248 1.14739 0.45764
 H1379 H 0.84804 1.20976 0.40066
 H1380 H 0.79716 1.19149 0.41793
 C1381 C 0.33574 0.61359 -0.14537
 C1382 C 0.33769 0.65617 -0.14546
 C1383 C 0.35913 0.67569 -0.11842
 C1384 C 0.38265 0.65262 -0.09490
 C1385 C 0.38377 0.60977 -0.09752
 C1386 C 0.35771 0.59084 -0.12146
 C1387 C 0.36718 0.55833 -0.14740
 C1388 C 0.34319 0.58345 -0.17368
 H1389 H 0.35973 0.70868 -0.11678
 H1390 H 0.40066 0.66824 -0.07532
 H1391 H 0.35189 0.52894 -0.14087
 H1392 H 0.40076 0.55604 -0.15334
 H1393 H 0.31415 0.56850 -0.18237
 H1394 H 0.36299 0.59580 -0.19478
 C1395 C 0.87313 0.86606 0.65908
 C1396 C 0.83846 0.84363 0.64893
 C1397 C 0.82473 0.84795 0.61437
 C1398 C 0.84786 0.87116 0.59035
 C1399 C 0.88531 0.88967 0.60047
 C1400 C 0.89605 0.88811 0.63546
 C1401 C 0.93602 0.87702 0.65232
 C1402 C 0.91080 0.85286 0.67842
 H1403 H 0.79681 0.83282 0.60577
 H1404 H 0.83728 0.87339 0.56381
 H1405 H 0.95170 0.90397 0.66387
 H1406 H 0.95590 0.85757 0.63555
 H1407 H 0.91194 0.86608 0.70493
 H1408 H 0.91609 0.81937 0.67696
 C1409 C 0.38640 0.34246 0.14788
 C1410 C 0.34328 0.34078 0.14740
 C1411 C 0.32180 0.36651 0.12454
 C1412 C 0.34360 0.39031 0.10040
 C1413 C 0.38701 0.38767 0.09827
 C1414 C 0.40785 0.36483 0.12332
 C1415 C 0.44038 0.33286 0.11948
 C1416 C 0.41690 0.30830 0.14649
 H1417 H 0.28833 0.36776 0.12508
 H1418 H 0.32645 0.40904 0.08232
 H1419 H 0.47107 0.34357 0.12868
 H1420 H 0.44035 0.31842 0.09339
 H1421 H 0.43405 0.30492 0.17127
 H1422 H 0.40333 0.27960 0.13612
   
