data_POSCAR
  _audit_creation_date              2014-09-24
  _audit_creation_method            'ToBaCCo'
  _symmetry_space_group_name_H-M    'P1'
  _symmetry_Int_Tables_number       1
  _symmetry_cell_setting            triclinic
  loop_
  _symmetry_equiv_pos_as_xyz
 x,y,z
_cell_length_a 69.0259
_cell_length_b 65.7343
_cell_length_c 68.4732
_cell_angle_alpha 89.956600
_cell_angle_beta 90.019300
_cell_angle_gamma 90.242500
loop_
  _atom_site_label
  _atom_site_type_symbol
  _atom_site_fract_x
  _atom_site_fract_y
  _atom_site_fract_z
C1 C 0.36163 0.33567 0.33734
 C2 C 0.35242 0.35269 0.32919
 C3 C 0.33515 0.36028 0.33716
 C4 C 0.32693 0.35042 0.35340
 C5 C 0.33585 0.33328 0.36173
 C6 C 0.35329 0.32617 0.35370
 H7 H 0.35839 0.35968 0.31618
 H8 H 0.31350 0.35602 0.35948
 H9 H 0.36055 0.31337 0.36039
 C10 C 0.36214 0.83424 -0.16714
 C11 C 0.35348 0.82503 -0.15072
 C12 C 0.33633 0.83266 -0.14256
 C13 C 0.32776 0.85002 -0.15079
 C14 C 0.33606 0.85991 -0.16708
 C15 C 0.35319 0.85168 -0.17504
 H16 H 0.36044 0.81234 -0.14358
 H17 H 0.31477 0.85591 -0.14409
 H18 H 0.35861 0.85777 -0.18864
 C19 C 0.85849 0.32851 -0.16024
 C20 C 0.84983 0.31948 -0.14388
 C21 C 0.83294 0.32752 -0.13564
 C22 C 0.82498 0.34535 -0.14359
 C23 C 0.83361 0.35518 -0.15981
 C24 C 0.85042 0.34634 -0.16799
 H25 H 0.85636 0.30611 -0.13743
 H26 H 0.81222 0.35160 -0.13676
 H27 H 0.85666 0.35246 -0.18124
 C28 C 0.86449 0.83106 0.33878
 C29 C 0.85562 0.84826 0.33064
 C30 C 0.83812 0.85609 0.33818
 C31 C 0.82960 0.84586 0.35422
 C32 C 0.83829 0.82857 0.36255
 C33 C 0.85579 0.82140 0.35479
 H34 H 0.86194 0.85466 0.31755
 H35 H 0.81635 0.85141 0.36066
 H36 H 0.86283 0.80842 0.36141
 C37 C 0.64195 0.66919 0.33140
 C38 C 0.65173 0.65375 0.32121
 C39 C 0.66840 0.64468 0.32909
 C40 C 0.67514 0.65111 0.34744
 C41 C 0.66565 0.66652 0.35783
 C42 C 0.64900 0.67539 0.34975
 H43 H 0.64680 0.64931 0.30681
 H44 H 0.68802 0.64426 0.35357
 H45 H 0.64137 0.68697 0.35790
 C46 C 0.63527 0.16112 -0.16340
 C47 C 0.64353 0.16875 -0.14618
 C48 C 0.66048 0.16017 -0.13850
 C49 C 0.66922 0.14380 -0.14831
 C50 C 0.66125 0.13576 -0.16569
 C51 C 0.64419 0.14478 -0.17299
 H52 H 0.63653 0.18113 -0.13854
 H53 H 0.68206 0.13716 -0.14196
 H54 H 0.63828 0.14004 -0.18689
 C55 C 0.14089 0.66714 -0.16657
 C56 C 0.14899 0.67489 -0.14930
 C57 C 0.16526 0.66564 -0.14079
 C58 C 0.17350 0.64854 -0.14986
 C59 C 0.16570 0.64039 -0.16724
 C60 C 0.14908 0.64977 -0.17510
 H61 H 0.14274 0.68823 -0.14256
 H62 H 0.18678 0.64251 -0.14385
 H63 H 0.14182 0.64317 -0.18759
 C64 C 0.13732 0.16680 0.33542
 C65 C 0.14660 0.14998 0.32687
 C66 C 0.16340 0.14171 0.33527
 C67 C 0.17059 0.15014 0.35269
 C68 C 0.16179 0.16712 0.36131
 C69 C 0.14518 0.17535 0.35252
 H70 H 0.14087 0.14347 0.31355
 H71 H 0.18305 0.14331 0.35967
 H72 H 0.13871 0.18889 0.35866
 C73 C 0.64119 0.33448 0.66474
 C74 C 0.65007 0.32764 0.64747
 C75 C 0.66654 0.33755 0.63992
 C76 C 0.67386 0.35472 0.64971
 C77 C 0.66544 0.36160 0.66714
 C78 C 0.64909 0.35140 0.67451
 H79 H 0.64429 0.31442 0.64003
 H80 H 0.68610 0.36290 0.64363
 H81 H 0.64290 0.35619 0.68828
 C82 C 0.63300 0.83925 1.16515
 C83 C 0.64162 0.83046 1.14855
 C84 C 0.65915 0.83792 1.14095
 C85 C 0.66819 0.85463 1.14996
 C86 C 0.66000 0.86405 1.16651
 C87 C 0.64241 0.85607 1.17384
 H88 H 0.63439 0.81824 1.14084
 H89 H 0.68148 0.86039 1.14368
 H90 H 0.63696 0.86175 1.18756
 C91 C 0.13968 0.33078 1.16194
 C92 C 0.14773 0.32352 1.14428
 C93 C 0.16448 0.33230 1.13620
 C94 C 0.17325 0.34877 1.14571
 C95 C 0.16572 0.35639 1.16323
 C96 C 0.14893 0.34747 1.17116
 H97 H 0.14065 0.31151 1.13615
 H98 H 0.18622 0.35553 1.13956
 H99 H 0.14397 0.35285 1.18520
 C100 C 0.13724 0.83078 0.66495
 C101 C 0.14578 0.84833 0.67326
 C102 C 0.16271 0.85707 0.66539
 C103 C 0.17136 0.84803 0.64900
 C104 C 0.16330 0.83055 0.64047
 C105 C 0.14615 0.82236 0.64828
 H106 H 0.14010 0.85464 0.68664
 H107 H 0.18452 0.85449 0.64299
 H108 H 0.13947 0.80976 0.64067
 C109 C 0.36269 0.66044 0.66211
 C110 C 0.35408 0.64337 0.67099
 C111 C 0.33714 0.63457 0.66326
 C112 C 0.32892 0.64298 0.64632
 C113 C 0.33727 0.66005 0.63723
 C114 C 0.35416 0.66865 0.64523
 H115 H 0.36048 0.63702 0.68406
 H116 H 0.31586 0.63632 0.64028
 H117 H 0.36059 0.68190 0.63837
 C118 C 0.36315 0.16862 1.16875
 C119 C 0.35546 0.17724 1.15152
 C120 C 0.33830 0.16970 1.14303
 C121 C 0.32873 0.15314 1.15177
 C122 C 0.33615 0.14407 1.16870
 C123 C 0.35342 0.15163 1.17678
 H124 H 0.36224 0.19038 1.14492
 H125 H 0.31510 0.14780 1.14579
 H126 H 0.35953 0.14359 1.18909
 C127 C 0.86449 0.67398 1.15780
 C128 C 0.85513 0.68306 1.14166
 C129 C 0.83807 0.67482 1.13369
 C130 C 0.83044 0.65686 1.14163
 C131 C 0.83957 0.64714 1.15735
 C132 C 0.85653 0.65571 1.16529
 H133 H 0.86139 0.69624 1.13460
 H134 H 0.81692 0.65080 1.13602
 H135 H 0.86294 0.64835 1.17782
 C136 C 0.86010 0.17000 0.66119
 C137 C 0.85167 0.15222 0.66910
 C138 C 0.83462 0.14346 0.66123
 C139 C 0.82592 0.15318 0.64506
 C140 C 0.83402 0.17084 0.63689
 C141 C 0.85117 0.17882 0.64477
 H142 H 0.85737 0.14624 0.68260
 H143 H 0.81298 0.14697 0.63844
 H144 H 0.85784 0.19164 0.63746
 C145 C 0.33560 0.35643 0.66351
 C146 C 0.35202 0.34807 0.67249
 C147 C 0.36180 0.33149 0.66410
 C148 C 0.35504 0.32346 0.64629
 C149 C 0.33884 0.33191 0.63692
 C150 C 0.32928 0.34837 0.64564
 H151 H 0.35703 0.35433 0.68621
 H152 H 0.36226 0.31055 0.63977
 H153 H 0.31663 0.35476 0.63860
 C154 C 0.33446 0.85820 0.16469
 C155 C 0.32706 0.85007 0.14725
 C156 C 0.33510 0.83245 0.13893
 C157 C 0.35073 0.82290 0.14839
 C158 C 0.35824 0.83074 0.16594
 C159 C 0.35007 0.84846 0.17385
 H160 H 0.31491 0.85741 0.14020
 H161 H 0.35696 0.80928 0.14218
 H162 H 0.35580 0.85462 0.18734
 C163 C 0.83591 0.35764 0.16070
 C164 C 0.85309 0.34965 0.16859
 C165 C 0.86121 0.33168 0.16118
 C166 C 0.85191 0.32170 0.14562
 C167 C 0.83468 0.32935 0.13755
 C168 C 0.82684 0.34738 0.14516
 H169 H 0.86011 0.35737 0.18065
 H170 H 0.85802 0.30780 0.13988
 H171 H 0.81355 0.35336 0.13906
 C172 C 0.83620 0.85781 0.66208
 C173 C 0.85193 0.84896 0.67184
 C174 C 0.85999 0.83057 0.66539
 C175 C 0.85215 0.82106 0.64876
 C176 C 0.83645 0.82974 0.63866
 C177 C 0.82866 0.84818 0.64541
 H178 H 0.85780 0.85632 0.68469
 H179 H 0.85785 0.80655 0.64407
 H180 H 0.81687 0.85525 0.63752
 C181 C 0.66697 0.64102 0.66969
 C182 C 0.67402 0.64801 0.65163
 C183 C 0.66523 0.66435 0.64190
 C184 C 0.64876 0.67333 0.65021
 C185 C 0.64127 0.66643 0.66814
 C186 C 0.65048 0.65023 0.67778
 H187 H 0.68637 0.64058 0.64505
 H188 H 0.64189 0.68597 0.64285
 H189 H 0.64527 0.64533 0.69195
 C190 C 0.66229 0.13804 0.17111
 C191 C 0.66956 0.14459 0.15297
 C192 C 0.66148 0.16139 0.14329
 C193 C 0.64569 0.17143 0.15183
 C194 C 0.63812 0.16510 0.16989
 C195 C 0.64654 0.14840 0.17943
 H196 H 0.68139 0.13642 0.14624
 H197 H 0.63940 0.18442 0.14449
 H198 H 0.64126 0.14391 0.19369
 C199 C 0.16535 0.64277 0.16350
 C200 C 0.17259 0.65014 0.14564
 C201 C 0.16384 0.66664 0.13612
 C202 C 0.14742 0.67561 0.14453
 C203 C 0.13993 0.66852 0.16238
 C204 C 0.14895 0.65201 0.17172
 H205 H 0.18529 0.64320 0.13927
 H206 H 0.14034 0.68804 0.13702
 H207 H 0.14368 0.64689 0.18579
 C208 C 0.16135 0.14171 0.66471
 C209 C 0.14425 0.14970 0.67271
 C210 C 0.13531 0.16683 0.66449
 C211 C 0.14374 0.17610 0.64807
 C212 C 0.16096 0.16855 0.63994
 C213 C 0.16960 0.15126 0.64831
 H214 H 0.13820 0.14295 0.68580
 H215 H 0.13667 0.18904 0.64140
 H216 H 0.18286 0.14534 0.64213
 C217 C 0.33537 0.63988 0.33755
 C218 C 0.32778 0.64966 0.35408
 C219 C 0.33749 0.66622 0.36267
 C220 C 0.35503 0.67297 0.35447
 C221 C 0.36272 0.66366 0.33772
 C222 C 0.35285 0.64701 0.32947
 H223 H 0.31391 0.64482 0.35988
 H224 H 0.36285 0.68539 0.36128
 H225 H 0.35867 0.63973 0.31658
 C226 C 0.33832 0.13991 0.83458
 C227 C 0.33054 0.14763 0.85201
 C228 C 0.33894 0.16455 0.86132
 C229 C 0.35541 0.17373 0.85302
 C230 C 0.36351 0.16621 0.83564
 C231 C 0.35486 0.14926 0.82658
 H232 H 0.31779 0.14055 0.85829
 H233 H 0.36187 0.18685 0.86005
 H234 H 0.36095 0.14339 0.81316
 C235 C 0.83607 0.64330 0.84237
 C236 C 0.85340 0.65113 0.83456
 C237 C 0.86171 0.66909 0.84190
 C238 C 0.85250 0.67925 0.85732
 C239 C 0.83511 0.67181 0.86530
 C240 C 0.82704 0.65376 0.85778
 H241 H 0.86036 0.64332 0.82256
 H242 H 0.85879 0.69316 0.86299
 H243 H 0.81362 0.64794 0.86381
 C244 C 0.83849 0.14119 0.33897
 C245 C 0.85508 0.15006 0.33062
 C246 C 0.86310 0.16806 0.33832
 C247 C 0.85439 0.17703 0.35476
 C248 C 0.83787 0.16828 0.36341
 C249 C 0.82999 0.15047 0.35529
 H250 H 0.86198 0.14270 0.31832
 H251 H 0.86041 0.19089 0.36080
 H252 H 0.81680 0.14412 0.36136
 C253 C 0.66693 0.36658 0.33207
 C254 C 0.65015 0.35769 0.32403
 C255 C 0.64150 0.34059 0.33276
 C256 C 0.64970 0.33256 0.34984
 C257 C 0.66673 0.34080 0.35783
 C258 C 0.67515 0.35798 0.34898
 H259 H 0.64426 0.36360 0.31052
 H260 H 0.64275 0.31979 0.35701
 H261 H 0.68824 0.36449 0.35508
 C262 C 0.65908 0.86342 0.83318
 C263 C 0.66655 0.85579 0.85079
 C264 C 0.65752 0.83940 0.86043
 C265 C 0.64072 0.83071 0.85230
 C266 C 0.63297 0.83823 0.83476
 C267 C 0.64232 0.85448 0.82529
 H268 H 0.67950 0.86254 0.85698
 H269 H 0.63344 0.81838 0.85985
 H270 H 0.63684 0.85979 0.81138
 C271 C 0.16266 0.35401 0.83688
 C272 C 0.17157 0.34531 0.85336
 C273 C 0.16372 0.32787 0.86229
 C274 C 0.14652 0.31947 0.85484
 C275 C 0.13755 0.32769 0.83826
 C276 C 0.14569 0.34499 0.82939
 H277 H 0.18478 0.35193 0.85910
 H278 H 0.14002 0.30648 0.86208
 H279 H 0.13923 0.35099 0.81619
 C280 C 0.16349 0.85993 0.33879
 C281 C 0.14709 0.85037 0.33076
 C282 C 0.13889 0.83308 0.33968
 C283 C 0.14723 0.82553 0.35694
 C284 C 0.16374 0.83475 0.36509
 C285 C 0.17175 0.85192 0.35588
 H286 H 0.14081 0.85629 0.31744
 H287 H 0.14069 0.81258 0.36421
 H288 H 0.18489 0.85867 0.36167
 O289 O 0.24833 1.01971 0.27602
 O290 O 0.27493 0.98022 0.24932
 O291 O 0.27502 1.01977 0.24965
 O292 O 0.24813 0.98024 0.27614
 O293 O 0.22569 0.98001 0.25319
 O294 O 0.25270 1.02003 0.22659
 O295 O 0.25253 0.98018 0.22635
 O296 O 0.22573 1.01977 0.25324
 Cu297 Cu 0.26385 0.99990 0.26505
 Cu298 Cu 0.23691 0.99997 0.23751
 C299 C 0.23256 1.02663 0.26918
 C300 C 0.26833 0.97343 0.23327
 C301 C 0.26843 1.02687 0.23375
 C302 C 0.23231 0.97338 0.26930
 O303 O 0.25090 0.51556 0.72533
 O304 O 0.22246 0.47662 0.75162
 O305 O 0.22349 0.51614 0.75123
 O306 O 0.24929 0.47596 0.72503
 O307 O 0.27162 0.47521 0.74808
 O308 O 0.24548 0.51566 0.77459
 O309 O 0.24473 0.47582 0.77471
 O310 O 0.27303 0.51472 0.74856
 Cu311 Cu 0.23432 0.49614 0.73598
 Cu312 Cu 0.26091 0.49529 0.76386
 C313 C 0.26685 0.52180 0.73248
 C314 C 0.22882 0.46946 0.76762
 C315 C 0.23002 0.52289 0.76730
 C316 C 0.26482 0.46866 0.73199
 O317 O 0.77529 0.01856 0.25830
 O318 O 0.74750 -0.02057 0.23164
 O319 O 0.74727 0.01903 0.23296
 O320 O 0.77538 -0.02113 0.25734
 O321 O 0.75380 -0.02235 0.28107
 O322 O 0.72589 0.01812 0.25688
 O323 O 0.72598 -0.02132 0.25544
 O324 O 0.75399 0.01730 0.28228
 Cu325 Cu 0.76353 -0.00095 0.24268
 Cu326 Cu 0.73780 -0.00216 0.27133
 C327 C 0.76936 0.02466 0.27484
 C328 C 0.73190 -0.02755 0.23895
 C329 C 0.73176 0.02546 0.24076
 C330 C 0.76937 -0.02868 0.27333
 O331 O 0.72738 0.52060 0.75575
 O332 O 0.75335 0.47999 0.78240
 O333 O 0.75389 0.51985 0.78277
 O334 O 0.72608 0.48097 0.75597
 O335 O 0.74855 0.48044 0.73308
 O336 O 0.77649 0.51923 0.76001
 O337 O 0.77566 0.47976 0.75935
 O338 O 0.75004 0.52006 0.73305
 Cu339 Cu 0.73794 0.50037 0.77155
 Cu340 Cu 0.76491 0.49982 0.74408
 C341 C 0.73442 0.52733 0.73983
 C342 C 0.76898 0.47291 0.77532
 C343 C 0.76990 0.52627 0.77595
 C344 C 0.73254 0.47404 0.73995
 O345 O 0.22363 0.51945 0.24714
 O346 O 0.24991 0.47964 0.27451
 O347 O 0.24915 0.51929 0.27524
 O348 O 0.22394 0.47960 0.24687
 O349 O 0.24763 0.48009 0.22526
 O350 O 0.27233 0.52045 0.25308
 O351 O 0.27348 0.48104 0.25280
 O352 O 0.24700 0.51982 0.22519
 Cu353 Cu 0.23427 0.49941 0.26311
 Cu354 Cu 0.26240 0.50041 0.23685
 C355 C 0.23098 0.52654 0.23151
 C356 C 0.26629 0.47365 0.26833
 C357 C 0.26500 0.52673 0.26898
 C358 C 0.23162 0.47286 0.23133
 O359 O 0.77431 0.98069 0.74297
 O360 O 0.74637 1.01963 0.76916
 O361 O 0.74646 0.98000 0.76866
 O362 O 0.77407 1.02021 0.74343
 O363 O 0.75256 1.02027 0.71960
 O364 O 0.72473 0.98039 0.74504
 O365 O 0.72486 1.01986 0.74533
 O366 O 0.75257 0.98054 0.71935
 Cu367 Cu 0.76247 1.00010 0.75843
 Cu368 Cu 0.73654 1.00026 0.72992
 C369 C 0.76822 0.97391 0.72671
 C370 C 0.73084 1.02645 0.76171
 C371 C 0.73080 0.97339 0.76121
 C372 C 0.76804 1.02715 0.72722
 O373 O 0.77878 0.48428 0.24022
 O374 O 0.75295 0.52466 0.26632
 O375 O 0.75195 0.48499 0.26697
 O376 O 0.77923 0.52386 0.23932
 O377 O 0.75677 0.52325 0.21640
 O378 O 0.72906 0.48542 0.24448
 O379 O 0.73037 0.52498 0.24353
 O380 O 0.75585 0.48357 0.21778
 Cu381 Cu 0.76799 0.50442 0.25549
 Cu382 Cu 0.74075 0.50428 0.22825
 C383 C 0.77175 0.47691 0.22460
 C384 C 0.73738 0.53190 0.25937
 C385 C 0.73576 0.47864 0.26047
 C386 C 0.77262 0.53021 0.22311
 O387 O 0.22423 0.02012 0.74779
 O388 O 0.25209 -0.01935 0.77350
 O389 O 0.25239 0.02039 0.77314
 O390 O 0.22415 -0.01942 0.74793
 O391 O 0.24558 -0.01959 0.72404
 O392 O 0.27386 0.02005 0.74928
 O393 O 0.27346 -0.01943 0.74955
 O394 O 0.24572 0.02022 0.72396
 Cu395 Cu 0.23608 0.00046 0.76300
 Cu396 Cu 0.26177 0.00031 0.73428
 C397 C 0.23022 0.02697 0.73152
 C398 C 0.26753 -0.02619 0.76589
 C399 C 0.26798 0.02701 0.76553
 C400 C 0.23009 -0.02637 0.73170
 O401 O 0.22932 0.24899 1.01979
 O402 O 0.25740 0.22101 0.98297
 O403 O 0.25798 0.22351 1.02093
 O404 O 0.22903 0.24681 0.98179
 O405 O 0.24978 0.27237 0.98011
 O406 O 0.27875 0.24904 1.01922
 O407 O 0.27815 0.24654 0.98104
 O408 O 0.25007 0.27454 1.01797
 Cu409 Cu 0.24136 0.23252 1.00154
 Cu410 Cu 0.26633 0.26314 0.99942
 C411 C 0.23489 0.26654 1.02521
 C412 C 0.27247 0.22903 0.97556
 C413 C 0.27325 0.23239 1.02689
 C414 C 0.23446 0.26355 0.97422
 O415 O 0.24815 0.77584 0.48410
 O416 O 0.27534 0.74699 0.52120
 O417 O 0.27631 0.74968 0.48312
 O418 O 0.24758 0.77362 0.52205
 O419 O 0.22628 0.74859 0.52020
 O420 O 0.25498 0.72468 0.48121
 O421 O 0.25401 0.72201 0.51906
 O422 O 0.22686 0.75080 0.48213
 Cu423 Cu 0.26401 0.76402 0.50281
 Cu424 Cu 0.23837 0.73404 0.50047
 C425 C 0.23289 0.76819 0.47670
 C426 C 0.26927 0.72957 0.52652
 C427 C 0.27054 0.73314 0.47544
 C428 C 0.23205 0.76515 0.52786
 O429 O 0.27724 0.74944 -0.02076
 O430 O 0.24893 0.72326 0.01715
 O431 O 0.24937 0.72284 -0.02070
 O432 O 0.27652 0.75032 0.01749
 O433 O 0.25507 0.77507 0.01644
 O434 O 0.22782 0.74752 -0.02151
 O435 O 0.22738 0.74795 0.01663
 O436 O 0.25573 0.77414 -0.02167
 Cu437 Cu 0.26523 0.73405 -0.00161
 Cu438 Cu 0.23935 0.76366 -0.00257
 C439 C 0.27125 0.76609 -0.02792
 C440 C 0.23331 0.73106 0.02338
 C441 C 0.23397 0.73051 -0.02768
 C442 C 0.27036 0.76737 0.02357
 O443 O 0.27298 0.24892 0.48113
 O444 O 0.24392 0.22497 0.52003
 O445 O 0.24379 0.22398 0.48186
 O446 O 0.27335 0.24990 0.51922
 O447 O 0.25347 0.27607 0.51828
 O448 O 0.22344 0.24978 0.48166
 O449 O 0.22411 0.25121 0.51973
 O450 O 0.25272 0.27477 0.48037
 Cu451 Cu 0.26051 0.23431 0.50064
 Cu452 Cu 0.23640 0.26554 0.49997
 C453 C 0.26775 0.26588 0.47399
 C454 C 0.22913 0.23410 0.52666
 C455 C 0.22862 0.23249 0.47529
 C456 C 0.26848 0.26749 0.52509
 O457 O 0.74965 0.73398 0.98013
 O458 O 0.72077 0.75800 1.01878
 O459 O 0.72072 0.75932 0.98056
 O460 O 0.75028 0.73358 1.01816
 O461 O 0.77035 0.75978 1.01833
 O462 O 0.74084 0.78546 0.98133
 O463 O 0.74091 0.78413 1.01932
 O464 O 0.76971 0.76020 0.98026
 Cu465 Cu 0.73330 0.74362 0.99935
 Cu466 Cu 0.75747 0.77500 0.99982
 C467 C 0.76459 0.74296 0.97353
 C468 C 0.72597 0.77503 1.02584
 C469 C 0.72582 0.77683 0.97450
 C470 C 0.76536 0.74241 1.02473
 O471 O 0.75277 0.23085 0.48001
 O472 O 0.72596 0.25931 0.51757
 O473 O 0.72549 0.25801 0.47943
 O474 O 0.75307 0.23201 0.51795
 O475 O 0.77521 0.25629 0.51678
 O476 O 0.74736 0.28255 0.47852
 O477 O 0.74820 0.28350 0.51664
 O478 O 0.77465 0.25537 0.47867
 Cu479 Cu 0.73708 0.24264 0.49881
 Cu480 Cu 0.76356 0.27188 0.49752
 C481 C 0.76826 0.23826 0.47286
 C482 C 0.73267 0.27615 0.52375
 C483 C 0.73172 0.27464 0.47230
 C484 C 0.76883 0.23976 0.52404
 O485 O 0.77139 0.24135 -0.01697
 O486 O 0.74297 0.21562 0.02130
 O487 O 0.74323 0.21504 -0.01672
 O488 O 0.77131 0.24156 0.02115
 O489 O 0.75023 0.26669 0.02100
 O490 O 0.72240 0.24038 -0.01760
 O491 O 0.72169 0.24056 0.02053
 O492 O 0.75060 0.26675 -0.01713
 Cu493 Cu 0.75934 0.22589 0.00222
 Cu494 Cu 0.73412 0.25612 0.00168
 C495 C 0.76584 0.25840 -0.02366
 C496 C 0.72746 0.22371 0.02748
 C497 C 0.72811 0.22319 -0.02377
 C498 C 0.76552 0.25854 0.02772
 O499 O 0.77580 0.74301 0.48133
 O500 O 0.74721 0.71822 0.52004
 O501 O 0.74719 0.71725 0.48196
 O502 O 0.77601 0.74378 0.51940
 O503 O 0.75498 0.76895 0.51938
 O504 O 0.72683 0.74300 0.48091
 O505 O 0.72612 0.74332 0.51898
 O506 O 0.75547 0.76881 0.48119
 Cu507 Cu 0.76362 0.72802 0.50074
 Cu508 Cu 0.73879 0.75859 0.50008
 C509 C 0.77052 0.76013 0.47459
 C510 C 0.73175 0.72651 0.52613
 C511 C 0.73222 0.72565 0.47485
 C512 C 0.77031 0.76080 0.52598
 O513 O 1.01936 0.27571 0.24373
 O514 O 0.98138 0.25081 0.27318
 O515 O 1.01904 0.25016 0.27277
 O516 O 0.98138 0.27608 0.24390
 O517 O 0.98102 0.25044 0.22314
 O518 O 1.01856 0.22451 0.25201
 O519 O 0.98065 0.22518 0.25241
 O520 O 1.01875 0.24998 0.22307
 Cu521 Cu 1.00034 0.26579 0.26043
 Cu522 Cu 0.99966 0.23495 0.23560
 C523 C 1.02570 0.26701 0.22846
 C524 C 0.97446 0.23378 0.26781
 C525 C 1.02532 0.23294 0.26726
 C526 C 0.97468 0.26762 0.22862
 O527 O 0.52147 0.27503 0.74515
 O528 O 0.48353 0.24961 0.77427
 O529 O 0.52116 0.24833 0.77324
 O530 O 0.48356 0.27635 0.74640
 O531 O 0.48247 0.25211 0.72416
 O532 O 0.51909 0.22339 0.75179
 O533 O 0.48143 0.22541 0.75204
 O534 O 0.52031 0.25004 0.72370
 Cu535 Cu 0.50261 0.26486 0.76189
 Cu536 Cu 0.50071 0.23530 0.73570
 C537 C 0.52760 0.26672 0.72959
 C538 C 0.47585 0.23325 0.76802
 C539 C 0.52645 0.23096 0.76718
 C540 C 0.47643 0.26896 0.73082
 O541 O -0.02120 0.27339 0.75699
 O542 O 0.01697 0.24779 0.72833
 O543 O -0.02078 0.24900 0.72710
 O544 O 0.01662 0.27290 0.75766
 O545 O 0.01577 0.24655 0.77761
 O546 O -0.02218 0.22285 0.74726
 O547 O 0.01539 0.22151 0.74832
 O548 O -0.02206 0.24715 0.77707
 Cu549 Cu -0.00198 0.26342 0.74051
 Cu550 Cu -0.00337 0.23192 0.76462
 C551 C -0.02825 0.26449 0.77190
 C552 C 0.02268 0.23021 0.73348
 C553 C -0.02798 0.23193 0.73197
 C554 C 0.02278 0.26373 0.77273
 O555 O 0.51993 0.25286 0.22740
 O556 O 0.48222 0.28004 0.25471
 O557 O 0.52001 0.28036 0.25454
 O558 O 0.48206 0.25216 0.22764
 O559 O 0.48263 0.22821 0.25022
 O560 O 0.52013 0.25629 0.27700
 O561 O 0.48230 0.25595 0.27715
 O562 O 0.52031 0.22882 0.24989
 Cu563 Cu 0.50098 0.26876 0.23880
 Cu564 Cu 0.50135 0.23993 0.26583
 C565 C 0.52674 0.23632 0.23404
 C566 C 0.47572 0.27262 0.27054
 C567 C 0.52669 0.27296 0.27031
 C568 C 0.47582 0.23535 0.23442
 O569 O 1.01832 0.77543 0.74811
 O570 O 0.98197 0.74926 0.77857
 O571 O 1.01965 0.74884 0.77620
 O572 O 0.98043 0.77563 0.75030
 O573 O 0.97899 0.75088 0.72860
 O574 O 1.01790 0.72404 0.75458
 O575 O 0.98011 0.72455 0.75686
 O576 O 1.01665 0.75051 0.72661
 Cu577 Cu 1.00024 0.76481 0.76544
 Cu578 Cu 0.99823 0.73499 0.73952
 C579 C 1.02388 0.76731 0.73225
 C580 C 0.97470 0.73251 0.77285
 C581 C 1.02559 0.73189 0.76967
 C582 C 0.97292 0.76778 0.73510
 O583 O 0.47925 0.75063 0.22653
 O584 O 0.51940 0.72566 0.25289
 O585 O 0.48161 0.72286 0.25361
 O586 O 0.51706 0.75326 0.22570
 O587 O 0.51592 0.77715 0.24826
 O588 O 0.48063 0.74679 0.27616
 O589 O 0.51832 0.74966 0.27536
 O590 O 0.47829 0.77433 0.24929
 Cu591 Cu 0.49943 0.73570 0.23741
 Cu592 Cu 0.49821 0.76436 0.26452
 C593 C 0.47179 0.76669 0.23356
 C594 C 0.52582 0.73353 0.26858
 C595 C 0.47491 0.72973 0.26958
 C596 C 0.52264 0.77038 0.23228
 O597 O -0.01600 0.77781 0.25350
 O598 O 0.02154 0.75238 0.22453
 O599 O -0.01621 0.75335 0.22367
 O600 O 0.02158 0.77671 0.25432
 O601 O 0.02042 0.75029 0.27418
 O602 O -0.01742 0.72690 0.24348
 O603 O 0.02041 0.72592 0.24432
 O604 O -0.01741 0.75140 0.27334
 Cu605 Cu 0.00282 0.76768 0.23699
 Cu606 Cu 0.00136 0.73596 0.26082
 C607 C -0.02317 0.76899 0.26835
 C608 C 0.02757 0.73491 0.22954
 C609 C -0.02337 0.73619 0.22836
 C610 C 0.02755 0.76745 0.26945
 O611 O 0.47928 0.77498 0.74848
 O612 O 0.51841 0.74874 0.72254
 O613 O 0.48069 0.74738 0.72130
 O614 O 0.51680 0.77612 0.74964
 O615 O 0.51709 0.75193 0.77199
 O616 O 0.48027 0.72352 0.74397
 O617 O 0.51825 0.72442 0.74476
 O618 O 0.47932 0.75117 0.77120
 Cu619 Cu 0.49877 0.76417 0.73321
 Cu620 Cu 0.49870 0.73530 0.76021
 C621 C 0.47266 0.76770 0.76432
 C622 C 0.52520 0.73222 0.72926
 C623 C 0.47414 0.73064 0.72786
 C624 C 0.52323 0.76892 0.76558
 C625 C 0.41276 0.31185 0.31039
 C626 C 0.41039 0.33300 0.31189
 C627 C 0.39387 0.34077 0.32090
 C628 C 0.37968 0.32758 0.32847
 C629 C 0.38285 0.30653 0.32706
 N630 N 0.39904 0.29933 0.31820
 C631 C 0.42963 0.30271 0.30044
 N632 N 0.43529 0.28362 0.30558
 C633 C 0.45018 0.27392 0.29659
 C634 C 0.46015 0.28336 0.28115
 C635 C 0.45454 0.30302 0.27558
 C636 C 0.43935 0.31275 0.28518
 H637 H 0.39228 0.35711 0.32207
 H638 H 0.37227 0.29578 0.33256
 H639 H 0.45394 0.25872 0.30127
 H640 H 0.46176 0.31082 0.26368
 H641 H 0.42122 0.34348 0.30641
 H642 H 0.43497 0.32767 0.28024
 C643 C 0.41119 0.80890 0.80491
 C644 C 0.40783 0.82987 0.80367
 C645 C 0.39188 0.83826 0.81312
 C646 C 0.37907 0.82597 0.82408
 C647 C 0.38360 0.80507 0.82558
 N648 N 0.39915 0.79726 0.81602
 C649 C 0.42736 0.79901 0.79439
 N650 N 0.43412 0.78079 0.80094
 C651 C 0.44860 0.77060 0.79174
 C652 C 0.45705 0.77862 0.77473
 C653 C 0.45020 0.79728 0.76764
 C654 C 0.43539 0.80747 0.77735
 H655 H 0.39010 0.85458 0.81223
 H656 H 0.37433 0.79457 0.83337
 H657 H 0.45337 0.75620 0.79767
 H658 H 0.45617 0.80398 0.75449
 H659 H 0.41751 0.83987 0.79573
 H660 H 0.43006 0.82154 0.77122
 C661 C -0.09257 0.30031 0.81254
 C662 C -0.10762 0.28821 0.82005
 C663 C -0.12351 0.29742 0.82885
 C664 C -0.12455 0.31870 0.83028
 C665 C -0.10931 0.33028 0.82232
 N666 N -0.09396 0.32093 0.81372
 C667 C -0.07554 0.29111 0.80291
 N668 N -0.06634 0.30146 0.78834
 C669 C -0.05102 0.29351 0.77847
 C670 C -0.04411 0.27403 0.78314
 C671 C -0.05306 0.26340 0.79848
 C672 C -0.06870 0.27186 0.80838
 H673 H -0.13517 0.28787 0.83423
 H674 H -0.10945 0.34672 0.82313
 H675 H -0.04444 0.30231 0.76686
 H676 H -0.04813 0.24841 0.80273
 H677 H -0.10741 0.27181 0.81878
 H678 H -0.07524 0.26341 0.82026
 C679 C -0.08475 0.80720 0.31127
 C680 C -0.08651 0.82830 0.31395
 C681 C -0.10286 0.83604 0.32326
 C682 C -0.11745 0.82288 0.33003
 C683 C -0.11480 0.80184 0.32768
 N684 N -0.09879 0.79466 0.31845
 C685 C -0.06824 0.79820 0.30058
 N686 N -0.06324 0.77854 0.30426
 C687 C -0.04873 0.76903 0.29447
 C688 C -0.03847 0.77930 0.27973
 C689 C -0.04343 0.79954 0.27566
 C690 C -0.05825 0.80903 0.28601
 H691 H -0.10409 0.85233 0.32519
 H692 H -0.12570 0.79114 0.33261
 H693 H -0.04546 0.75336 0.29801
 H694 H -0.03599 0.80802 0.26434
 H695 H -0.07540 0.83876 0.30906
 H696 H -0.06213 0.82444 0.28217
 C697 C 0.59208 0.69795 0.30643
 C698 C 0.60573 0.70966 0.31673
 C699 C 0.62194 0.70028 0.32483
 C700 C 0.62471 0.67925 0.32272
 C701 C 0.61085 0.66813 0.31207
 N702 N 0.59516 0.67762 0.30428
 C703 C 0.57473 0.70722 0.29739
 N704 N 0.56655 0.69817 0.28149
 C705 C 0.55084 0.70606 0.27222
 C706 C 0.54238 0.72414 0.27894
 C707 C 0.55031 0.73345 0.29557
 C708 C 0.56639 0.72506 0.30484
 H709 H 0.63249 0.70958 0.33244
 H710 H 0.61233 0.65188 0.31015
 H711 H 0.54511 0.69829 0.25953
 H712 H 0.54417 0.74732 0.30139
 H713 H 0.60424 0.72596 0.31819
 H714 H 0.57203 0.73240 0.31779
 C715 C 0.58600 0.18826 0.80921
 C716 C 0.58732 0.16698 0.81033
 C717 C 0.60313 0.15816 0.81970
 C718 C 0.61761 0.17042 0.82808
 C719 C 0.61533 0.19162 0.82736
 N720 N 0.59986 0.19988 0.81801
 C721 C 0.57012 0.19845 0.79850
 N722 N 0.56527 0.21782 0.80344
 C723 C 0.55127 0.22837 0.79386
 C724 C 0.54138 0.21951 0.77806
 C725 C 0.54624 0.19960 0.77263
 C726 C 0.56056 0.18904 0.78277
 H727 H 0.60407 0.14174 0.82035
 H728 H 0.62616 0.20163 0.83361
 H729 H 0.54807 0.24373 0.79848
 H730 H 0.53908 0.19222 0.76046
 H731 H 0.57630 0.15718 0.80415
 H732 H 0.56437 0.17393 0.77793
 C733 C 1.09169 0.69438 0.80576
 C734 C 1.10689 0.68677 0.79435
 C735 C 1.12299 0.67828 0.80342
 C736 C 1.12406 0.67716 0.82388
 C737 C 1.10877 0.68547 0.83479
 N738 N 1.09319 0.69377 0.82559
 C739 C 1.07425 0.70322 0.79658
 N740 N 1.06499 0.71895 0.80547
 C741 C 1.04926 0.72812 0.79738
 C742 C 1.04194 0.72141 0.77933
 C743 C 1.05096 0.70485 0.77024
 C744 C 1.06708 0.69576 0.77878
 H745 H 1.13468 0.67269 0.79438
 H746 H 1.10895 0.68495 0.85058
 H747 H 1.04262 0.74073 0.80496
 H748 H 1.04576 0.69909 0.75637
 H749 H 1.10651 0.68763 0.77857
 H750 H 1.07376 0.68294 0.77154
 C751 C 1.08749 0.19415 0.30889
 C752 C 1.08868 0.19286 0.32932
 C753 C 1.10476 0.18370 0.33793
 C754 C 1.11975 0.17587 0.32631
 C755 C 1.11779 0.17715 0.30591
 N756 N 1.10195 0.18609 0.29786
 C757 C 1.07095 0.20402 0.29899
 N758 N 1.06583 0.19770 0.28077
 C759 C 1.05113 0.20641 0.27057
 C760 C 1.04080 0.22279 0.27854
 C761 C 1.04592 0.22964 0.29725
 C762 C 1.06090 0.22028 0.30754
 H763 H 1.10537 0.18260 0.35370
 H764 H 1.12901 0.17151 0.29634
 H765 H 1.04777 0.20075 0.25612
 H766 H 1.03841 0.24230 0.30391
 H767 H 1.07722 0.19855 0.33858
 H768 H 1.06486 0.22611 0.32177
 C769 C 0.59193 0.30374 0.68929
 C770 C 0.60664 0.29236 0.68034
 C771 C 0.62261 0.30235 0.67222
 C772 C 0.62403 0.32365 0.67293
 C773 C 0.60896 0.33444 0.68199
 N774 N 0.59362 0.32436 0.68990
 C775 C 0.57506 0.29393 0.69884
 N776 N 0.56612 0.30376 0.71381
 C777 C 0.55084 0.29556 0.72361
 C778 C 0.54361 0.27630 0.71845
 C779 C 0.55231 0.26610 0.70275
 C780 C 0.56799 0.27483 0.69293
 H781 H 0.63407 0.29334 0.66584
 H782 H 0.60931 0.35088 0.68271
 H783 H 0.54448 0.30404 0.73552
 H784 H 0.54714 0.25128 0.69818
 H785 H 0.60620 0.27591 0.68009
 H786 H 0.57432 0.26675 0.68076
 C787 C 0.58294 0.81397 0.19171
 C788 C 0.58681 0.83483 0.19362
 C789 C 0.60309 0.84323 0.18460
 C790 C 0.61570 0.83107 0.17339
 C791 C 0.61063 0.81035 0.17116
 N792 N 0.59481 0.80252 0.18035
 C793 C 0.56659 0.80387 0.20192
 N794 N 0.56023 0.78548 0.19531
 C795 C 0.54597 0.77476 0.20444
 C796 C 0.53736 0.78236 0.22150
 C797 C 0.54363 0.80132 0.22854
 C798 C 0.55821 0.81207 0.21887
 H799 H 0.60533 0.85946 0.18604
 H800 H 0.61971 0.79995 0.16313
 H801 H 0.54164 0.76018 0.19852
 H802 H 0.53751 0.80771 0.24174
 H803 H 0.57734 0.84474 0.20178
 H804 H 0.56318 0.82629 0.22507
 C805 C 1.09020 0.30266 0.18719
 C806 C 1.10224 0.29147 0.17474
 C807 C 1.11842 0.30074 0.16636
 C808 C 1.12303 0.32128 0.17031
 C809 C 1.11055 0.33181 0.18313
 N810 N 1.09481 0.32239 0.19103
 C811 C 1.07306 0.29344 0.19690
 N812 N 1.06609 0.30220 0.21348
 C813 C 1.05080 0.29434 0.22354
 C814 C 1.04158 0.27650 0.21705
 C815 C 1.04821 0.26749 0.19974
 C816 C 1.06382 0.27593 0.18959
 H817 H 1.12774 0.29126 0.15757
 H818 H 1.11271 0.34772 0.18644
 H819 H 1.04610 0.30187 0.23675
 H820 H 1.04140 0.25385 0.19406
 H821 H 1.09969 0.27551 0.17189
 H822 H 1.06837 0.26881 0.17614
 C823 C 1.08746 0.80338 0.69019
 C824 C 1.10011 0.79164 0.67892
 C825 C 1.11640 0.80067 0.67055
 C826 C 1.12045 0.82156 0.67329
 C827 C 1.10730 0.83267 0.68493
 N828 N 1.09151 0.82344 0.69292
 C829 C 1.07034 0.79431 0.69997
 N830 N 1.06343 0.80315 0.71653
 C831 C 1.04832 0.79517 0.72677
 C832 C 1.03928 0.77714 0.72049
 C833 C 1.04579 0.76814 0.70312
 C834 C 1.06121 0.77669 0.69281
 H835 H 1.12622 0.79079 0.66280
 H836 H 1.10902 0.84883 0.68725
 H837 H 1.04366 0.80271 0.73999
 H838 H 1.03912 0.75436 0.69761
 H839 H 1.09793 0.77546 0.67706
 H840 H 1.06582 0.76955 0.67937
 C841 C 0.41270 0.68909 0.68726
 C842 C 0.41124 0.68735 0.66688
 C843 C 0.39507 0.67782 0.65868
 C844 C 0.38032 0.67000 0.67068
 C845 C 0.38255 0.67172 0.69101
 N846 N 0.39843 0.68106 0.69865
 C847 C 0.42924 0.69946 0.69680
 N848 N 0.43416 0.69405 0.71534
 C849 C 0.44869 0.70341 0.72533
 C850 C 0.45903 0.71956 0.71679
 C851 C 0.45418 0.72542 0.69769
 C852 C 0.43936 0.71541 0.68765
 H853 H 0.39421 0.67641 0.64295
 H854 H 0.37149 0.66610 0.70085
 H855 H 0.45186 0.69849 0.74007
 H856 H 0.46170 0.73787 0.69058
 H857 H 0.42253 0.69301 0.65733
 H858 H 0.43555 0.72056 0.67314
 C859 C 0.41232 0.19421 0.19677
 C860 C 0.39893 0.18281 0.20760
 C861 C 0.38287 0.17433 0.19835
 C862 C 0.37979 0.17703 0.17812
 C863 C 0.39366 0.18884 0.16790
 N864 N 0.40922 0.19697 0.17734
 C865 C 0.42931 0.20389 0.20617
 N866 N 0.43670 0.22144 0.19857
 C867 C 0.45176 0.23155 0.20702
 C868 C 0.46025 0.22405 0.22421
 C869 C 0.45322 0.20566 0.23192
 C870 C 0.43786 0.19554 0.22295
 H871 H 0.37246 0.16656 0.20752
 H872 H 0.39270 0.19116 0.15232
 H873 H 0.45686 0.24558 0.20048
 H874 H 0.45945 0.19916 0.24501
 H875 H 0.40040 0.18097 0.22323
 H876 H 0.43284 0.18130 0.22910
 C877 C -0.08653 0.70162 0.18442
 C878 C -0.09957 0.71354 0.17374
 C879 C -0.11554 0.70441 0.16484
 C880 C -0.11890 0.68326 0.16645
 C881 C -0.10532 0.67196 0.17742
 N882 N -0.08987 0.68128 0.18596
 C883 C -0.06976 0.71066 0.19482
 N884 N -0.06236 0.70074 0.21060
 C885 C -0.04740 0.70837 0.22128
 C886 C -0.03897 0.72715 0.21629
 C887 C -0.04605 0.73739 0.19980
 C888 C -0.06135 0.72920 0.18901
 H889 H -0.12570 0.71437 0.15761
 H890 H -0.10644 0.65563 0.17883
 H891 H -0.04231 0.69986 0.23379
 H892 H -0.03986 0.75181 0.19528
 H893 H -0.09797 0.72988 0.17279
 H894 H -0.06634 0.73730 0.17622
 C895 C -0.09086 0.19730 0.68785
 C896 C -0.10360 0.20925 0.67685
 C897 C -0.11960 0.20024 0.66792
 C898 C -0.12328 0.17918 0.66985
 C899 C -0.10999 0.16783 0.68113
 N900 N -0.09450 0.17704 0.68968
 C901 C -0.07411 0.20626 0.69828
 N902 N -0.06713 0.19661 0.71440
 C903 C -0.05224 0.20427 0.72516
 C904 C -0.04348 0.22279 0.71987
 C905 C -0.05011 0.23271 0.70301
 C906 C -0.06533 0.22449 0.69216
 H907 H -0.12955 0.21022 0.66041
 H908 H -0.11141 0.15154 0.68276
 H909 H -0.04747 0.19602 0.73795
 H910 H -0.04364 0.24691 0.69826
 H911 H -0.10175 0.22555 0.67566
 H912 H -0.06998 0.23233 0.67910
 C913 C 0.30762 0.41108 0.30964
 C914 C 0.32783 0.41102 0.31195
 C915 C 0.33674 0.39463 0.32118
 C916 C 0.32563 0.37825 0.32820
 C917 C 0.30539 0.37920 0.32613
 N918 N 0.29703 0.39532 0.31700
 C919 C 0.29757 0.42767 0.29917
 N920 N 0.27883 0.43199 0.30375
 C921 C 0.26862 0.44673 0.29436
 C922 C 0.27720 0.45791 0.27915
 C923 C 0.29645 0.45357 0.27411
 C924 C 0.30665 0.43853 0.28405
 H925 H 0.35233 0.39481 0.32291
 H926 H 0.29625 0.36689 0.33124
 H927 H 0.25377 0.44950 0.29862
 H928 H 0.30362 0.46172 0.26240
 H929 H 0.33672 0.42355 0.30687
 H930 H 0.32131 0.43516 0.27954
 C931 C 0.30950 -0.08955 0.80548
 C932 C 0.32961 -0.09202 0.80425
 C933 C 0.33836 -0.10845 0.81354
 C934 C 0.32728 -0.12268 0.82428
 C935 C 0.30717 -0.11900 0.82575
 N936 N 0.29900 -0.10292 0.81637
 C937 C 0.29937 -0.07285 0.79519
 N938 N 0.28196 -0.06636 0.80209
 C939 C 0.27166 -0.05142 0.79315
 C940 C 0.27870 -0.04220 0.77604
 C941 C 0.29653 -0.04879 0.76858
 C942 C 0.30687 -0.06407 0.77806
 H943 H 0.35398 -0.10944 0.81272
 H944 H 0.29761 -0.12934 0.83337
 H945 H 0.25791 -0.04690 0.79935
 H946 H 0.30245 -0.04224 0.75534
 H947 H 0.33864 -0.08124 0.79647
 H948 H 0.32033 -0.06920 0.77169
 C949 C 0.80882 0.40748 0.81410
 C950 C 0.82881 0.40415 0.81263
 C951 C 0.83698 0.38708 0.82138
 C952 C 0.82545 0.37309 0.83192
 C953 C 0.80551 0.37760 0.83364
 N954 N 0.79789 0.39426 0.82474
 C955 C 0.79924 0.42480 0.80420
 N956 N 0.78194 0.43166 0.81109
 C957 C 0.77211 0.44712 0.80236
 C958 C 0.77957 0.45648 0.78550
 C959 C 0.79732 0.44954 0.77813
 C960 C 0.80714 0.43376 0.78735
 H961 H 0.85252 0.38539 0.82035
 H962 H 0.79560 0.36747 0.84109
 H963 H 0.75842 0.45191 0.80848
 H964 H 0.80358 0.45616 0.76508
 H965 H 0.83821 0.41472 0.80505
 H966 H 0.82049 0.42837 0.78095
 C967 C 0.81144 -0.09321 0.31105
 C968 C 0.83156 -0.09556 0.30990
 C969 C 0.84035 -0.11209 0.31902
 C970 C 0.82928 -0.12655 0.32951
 C971 C 0.80913 -0.12306 0.33078
 N972 N 0.80093 -0.10687 0.32162
 C973 C 0.80128 -0.07627 0.30118
 N974 N 0.78379 -0.07013 0.30817
 C975 C 0.77347 -0.05492 0.29968
 C976 C 0.78057 -0.04503 0.28295
 C977 C 0.79848 -0.05124 0.27538
 C978 C 0.80885 -0.06681 0.28440
 H979 H 0.85597 -0.11292 0.31832
 H980 H 0.79955 -0.13360 0.33813
 H981 H 0.75966 -0.05072 0.30594
 H982 H 0.80446 -0.04416 0.26242
 H983 H 0.84059 -0.08459 0.30237
 H984 H 0.82238 -0.07162 0.27797
 C985 C 0.30973 0.58444 0.69246
 C986 C 0.33003 0.58517 0.69119
 C987 C 0.33897 0.60140 0.68154
 C988 C 0.32780 0.61691 0.67314
 C989 C 0.30753 0.61541 0.67450
 N990 N 0.29916 0.59945 0.68395
 C991 C 0.29944 0.56779 0.70273
 N992 N 0.28102 0.56301 0.69721
 C993 C 0.27047 0.54825 0.70627
 C994 C 0.27831 0.53751 0.72212
 C995 C 0.29722 0.54230 0.72814
 C996 C 0.30783 0.55737 0.71849
 H997 H 0.35462 0.60166 0.68046
 H998 H 0.29832 0.62709 0.66844
 H999 H 0.25590 0.54514 0.70122
 H1000 H 0.30381 0.53448 0.74036
 H1001 H 0.33895 0.57324 0.69725
 H1002 H 0.32221 0.56110 0.72370
 C1003 C 0.30735 1.09429 0.19697
 C1004 C 0.31575 1.10984 0.20820
 C1005 C 0.32486 1.12612 0.19894
 C1006 C 0.32571 1.12706 0.17848
 C1007 C 0.31660 1.11150 0.16774
 N1008 N 0.30778 1.09572 0.17713
 C1009 C 0.29797 1.07653 0.20634
 N1010 N 0.28260 1.06730 0.19748
 C1011 C 0.27310 1.05125 0.20572
 C1012 C 0.27906 1.04357 0.22390
 C1013 C 0.29520 1.05254 0.23296
 C1014 C 0.30466 1.06894 0.22426
 H1015 H 0.33112 1.13808 0.20783
 H1016 H 0.31687 1.11163 0.15194
 H1017 H 0.26082 1.04466 0.19816
 H1018 H 0.30043 1.04705 0.24691
 H1019 H 0.31509 1.10962 0.22399
 H1020 H 0.31718 1.07547 0.23146
 C1021 C 0.81273 0.59440 0.18249
 C1022 C 0.81366 0.59639 0.16209
 C1023 C 0.82267 0.61341 0.15390
 C1024 C 0.83085 0.62845 0.16593
 C1025 C 0.83006 0.62560 0.18625
 N1026 N 0.82114 0.60893 0.19389
 C1027 C 0.80269 0.57713 0.19204
 N1028 N 0.80805 0.57164 0.21044
 C1029 C 0.79899 0.55647 0.22044
 C1030 C 0.78327 0.54604 0.21206
 C1031 C 0.77748 0.55147 0.19312
 C1032 C 0.78713 0.56694 0.18307
 H1033 H 0.82332 0.61476 0.13816
 H1034 H 0.83603 0.63687 0.19610
 H1035 H 0.80386 0.55287 0.23506
 H1036 H 0.76535 0.54390 0.18613
 H1037 H 0.80768 0.58490 0.15250
 H1038 H 0.78201 0.57121 0.16871
 C1039 C 0.80918 1.09194 0.68844
 C1040 C 0.82924 1.09504 0.68969
 C1041 C 0.83763 1.11183 0.68051
 C1042 C 0.82623 1.12578 0.66987
 C1043 C 0.80619 1.12151 0.66847
 N1044 N 0.79839 1.10510 0.67771
 C1045 C 0.79938 1.07480 0.69848
 N1046 N 0.78199 1.06810 0.69156
 C1047 C 0.77188 1.05281 0.70030
 C1048 C 0.77909 1.04345 0.71724
 C1049 C 0.79692 1.05021 0.72469
 C1050 C 0.80708 1.06584 0.71541
 H1051 H 0.85322 1.11332 0.68131
 H1052 H 0.79639 1.13163 0.66100
 H1053 H 0.75813 1.04816 0.69411
 H1054 H 0.80297 1.04354 0.73780
 H1055 H 0.83850 1.08449 0.69737
 H1056 H 0.82053 1.07111 0.72178
 C1057 C 0.69925 0.59788 0.29884
 C1058 C 0.70955 0.61331 0.30856
 C1059 C 0.69948 0.62868 0.31813
 C1060 C 0.67915 0.62884 0.31808
 C1061 C 0.66939 0.61351 0.30766
 N1062 N 0.67953 0.59862 0.29846
 C1063 C 0.70934 0.58090 0.28902
 N1064 N 0.70086 0.57161 0.27341
 C1065 C 0.70942 0.55595 0.26374
 C1066 C 0.72756 0.54866 0.26981
 C1067 C 0.73636 0.55781 0.28608
 C1068 C 0.72734 0.57385 0.29570
 H1069 H 0.70764 0.64053 0.32546
 H1070 H 0.65372 0.61306 0.30722
 H1071 H 0.70206 0.54924 0.25136
 H1072 H 0.75027 0.55261 0.29138
 H1073 H 0.72522 0.61371 0.30861
 H1074 H 0.73429 0.58037 0.30841
 C1075 C 0.68831 1.08795 0.80320
 C1076 C 0.66828 1.09079 0.80150
 C1077 C 0.65936 1.10638 0.81188
 C1078 C 0.67019 1.11937 0.82420
 C1079 C 0.69024 1.11544 0.82585
 N1080 N 0.69857 1.10020 0.81544
 C1081 C 0.69864 1.07192 0.79221
 N1082 N 0.71588 1.06501 0.79917
 C1083 C 0.72634 1.05052 0.78978
 C1084 C 0.71960 1.04218 0.77216
 C1085 C 0.70197 1.04923 0.76460
 C1086 C 0.69149 1.06408 0.77452
 H1087 H 0.64378 1.10758 0.81068
 H1088 H 0.69964 1.12495 0.83457
 H1089 H 0.73992 1.04561 0.79609
 H1090 H 0.69630 1.04336 0.75096
 H1091 H 0.65940 1.08086 0.79260
 H1092 H 0.67819 1.06958 0.76810
 C1093 C 0.19148 0.59003 0.80435
 C1094 C 0.18055 0.60398 0.79355
 C1095 C 0.17210 0.62050 0.80290
 C1096 C 0.17443 0.62353 0.82317
 C1097 C 0.18596 0.60926 0.83332
 N1098 N 0.19399 0.59320 0.82381
 C1099 C 0.20069 0.57226 0.79495
 N1100 N 0.21713 0.56429 0.80283
 C1101 C 0.22659 0.54835 0.79454
 C1102 C 0.21954 0.53951 0.77726
 C1103 C 0.20234 0.54716 0.76924
 C1104 C 0.19287 0.56340 0.77803
 H1105 H 0.16451 0.63132 0.79382
 H1106 H 0.18807 0.61022 0.84893
 H1107 H 0.23973 0.54281 0.80131
 H1108 H 0.19621 0.54068 0.75607
 H1109 H 0.17891 0.60256 0.77790
 H1110 H 0.17949 0.56878 0.77167
 C1111 C 0.19377 1.09247 0.30814
 C1112 C 0.20420 1.10836 0.31698
 C1113 C 0.19427 1.12437 0.32567
 C1114 C 0.17393 1.12471 0.32569
 C1115 C 0.16403 1.10871 0.31635
 N1116 N 0.17405 1.09324 0.30790
 C1117 C 0.20379 1.07517 0.29878
 N1118 N 0.19541 1.06567 0.28324
 C1119 C 0.20414 1.05002 0.27370
 C1120 C 0.22237 1.04303 0.27979
 C1121 C 0.23101 1.05231 0.29608
 C1122 C 0.22181 1.06831 0.30558
 H1123 H 0.20255 1.13666 0.33213
 H1124 H 0.14836 1.10829 0.31603
 H1125 H 0.19688 1.04318 0.26131
 H1126 H 0.24499 1.04733 0.30140
 H1127 H 0.21987 1.10869 0.31687
 H1128 H 0.22869 1.07506 0.31823
 C1129 C 0.69110 0.41128 0.69857
 C1130 C 0.67083 0.40948 0.69776
 C1131 C 0.66242 0.39337 0.68746
 C1132 C 0.67412 0.37905 0.67792
 C1133 C 0.69432 0.38155 0.67895
 N1134 N 0.70215 0.39736 0.68903
 C1135 C 0.70093 0.42794 0.70927
 N1136 N 0.71915 0.43350 0.70375
 C1137 C 0.72937 0.44828 0.71311
 C1138 C 0.72138 0.45830 0.72930
 C1139 C 0.70266 0.45273 0.73534
 C1140 C 0.69240 0.43761 0.72538
 H1141 H 0.64678 0.39229 0.68674
 H1142 H 0.70393 0.37078 0.67204
 H1143 H 0.74379 0.45200 0.70801
 H1144 H 0.69598 0.45997 0.74782
 H1145 H 0.66150 0.42053 0.70465
 H1146 H 0.67818 0.43327 0.73061
 C1147 C 0.68828 -0.08791 0.19654
 C1148 C 0.66807 -0.08967 0.19741
 C1149 C 0.65875 -0.10525 0.18727
 C1150 C 0.66937 -0.11935 0.17604
 C1151 C 0.68965 -0.11638 0.17501
 N1152 N 0.69836 -0.10112 0.18519
 C1153 C 0.69895 -0.07213 0.20765
 N1154 N 0.71662 -0.06580 0.20114
 C1155 C 0.72734 -0.05159 0.21078
 C1156 C 0.72046 -0.04300 0.22821
 C1157 C 0.70239 -0.04949 0.23529
 C1158 C 0.69163 -0.06401 0.22512
 H1159 H 0.64310 -0.10568 0.18785
 H1160 H 0.69888 -0.12671 0.16708
 H1161 H 0.74126 -0.04713 0.20485
 H1162 H 0.69657 -0.04339 0.24875
 H1163 H 0.65940 -0.07895 0.20556
 H1164 H 0.67796 -0.06906 0.23116
 C1165 C 0.19505 0.40582 0.19156
 C1166 C 0.20584 0.39011 0.18304
 C1167 C 0.19626 0.37392 0.17408
 C1168 C 0.17593 0.37325 0.17350
 C1169 C 0.16567 0.38901 0.18264
 N1170 N 0.17534 0.40466 0.19133
 C1171 C 0.20462 0.42337 0.20111
 N1172 N 0.19550 0.43297 0.21611
 C1173 C 0.20367 0.44892 0.22577
 C1174 C 0.22209 0.45617 0.22040
 C1175 C 0.23152 0.44681 0.20466
 C1176 C 0.22286 0.43047 0.19500
 H1177 H 0.20480 0.36181 0.16777
 H1178 H 0.14999 0.38912 0.18255
 H1179 H 0.19581 0.45580 0.23772
 H1180 H 0.24567 0.45198 0.19991
 H1181 H 0.22150 0.39006 0.18354
 H1182 H 0.23034 0.42366 0.18277
 C1183 C 0.18885 -0.09127 0.69332
 C1184 C 0.16859 -0.09254 0.69189
 C1185 C 0.16009 -0.10924 0.68262
 C1186 C 0.17166 -0.12475 0.67478
 C1187 C 0.19188 -0.12271 0.67629
 N1188 N 0.19982 -0.10627 0.68533
 C1189 C 0.19867 -0.07405 0.70316
 N1190 N 0.21690 -0.06878 0.69745
 C1191 C 0.22704 -0.05347 0.70610
 C1192 C 0.21896 -0.04262 0.72175
 C1193 C 0.20023 -0.04789 0.72798
 C1194 C 0.19003 -0.06352 0.71871
 H1195 H 0.14446 -0.10990 0.68141
 H1196 H 0.20141 -0.13434 0.67067
 H1197 H 0.24149 -0.05001 0.70092
 H1198 H 0.19349 -0.04000 0.74005
 H1199 H 0.15937 -0.08064 0.69755
 H1200 H 0.17578 -0.06760 0.72404
 C1201 C 0.30933 0.30258 0.41013
 C1202 C 0.31837 0.29121 0.39540
 C1203 C 0.32706 0.30122 0.37970
 C1204 C 0.32682 0.32255 0.37856
 C1205 C 0.31756 0.33335 0.39357
 N1206 N 0.30911 0.32324 0.40868
 C1207 C 0.29935 0.29276 0.42679
 N1208 N 0.28460 0.30281 0.43571
 C1209 C 0.27448 0.29466 0.45086
 C1210 C 0.27908 0.27523 0.45797
 C1211 C 0.29451 0.26476 0.44927
 C1212 C 0.30467 0.27345 0.43373
 H1213 H 0.33360 0.29223 0.36823
 H1214 H 0.31716 0.34980 0.39340
 H1215 H 0.26280 0.30335 0.45723
 H1216 H 0.29865 0.24980 0.45438
 H1217 H 0.31831 0.27475 0.39562
 H1218 H 0.31666 0.26518 0.42744
 C1219 C 0.31062 0.80301 -0.09308
 C1220 C 0.31883 0.79132 -0.10806
 C1221 C 0.32714 0.80099 -0.12416
 C1222 C 0.32736 0.82231 -0.12544
 C1223 C 0.31882 0.83345 -0.11020
 N1224 N 0.31072 0.82366 -0.09469
 C1225 C 0.30131 0.79343 -0.07589
 N1226 N 0.28648 0.80321 -0.06682
 C1227 C 0.27691 0.79501 -0.05131
 C1228 C 0.28220 0.77585 -0.04401
 C1229 C 0.29780 0.76577 -0.05283
 C1230 C 0.30737 0.77448 -0.06872
 H1231 H 0.33309 0.79176 -0.13577
 H1232 H 0.31880 0.84990 -0.11046
 H1233 H 0.26507 0.80339 -0.04485
 H1234 H 0.30248 0.75103 -0.04761
 H1235 H 0.31847 0.77487 -0.10766
 H1236 H 0.31945 0.76648 -0.07516
 C1237 C 0.80609 0.29676 -0.08745
 C1238 C 0.81396 0.28544 -0.10287
 C1239 C 0.82257 0.29550 -0.11856
 C1240 C 0.82345 0.31684 -0.11901
 C1241 C 0.81515 0.32762 -0.10342
 N1242 N 0.80675 0.31746 -0.08829
 C1243 C 0.79655 0.28674 -0.07065
 N1244 N 0.78198 0.29656 -0.06119
 C1245 C 0.77221 0.28800 -0.04600
 C1246 C 0.77699 0.26839 -0.03946
 C1247 C 0.79230 0.25823 -0.04867
 C1248 C 0.80210 0.26732 -0.06422
 H1249 H 0.82827 0.28655 -0.13050
 H1250 H 0.81558 0.34407 -0.10308
 H1251 H 0.76061 0.29646 -0.03920
 H1252 H 0.79658 0.24315 -0.04402
 H1253 H 0.81311 0.26900 -0.10311
 H1254 H 0.81397 0.25925 -0.07098
 C1255 C 0.81154 0.79768 0.41076
 C1256 C 0.82032 0.78636 0.39582
 C1257 C 0.82901 0.79644 0.38016
 C1258 C 0.82902 0.81778 0.37924
 C1259 C 0.81994 0.82852 0.39440
 N1260 N 0.81150 0.81835 0.40950
 C1261 C 0.80174 0.78774 0.42748
 N1262 N 0.78703 0.79765 0.43662
 C1263 C 0.77707 0.78931 0.45179
 C1264 C 0.78179 0.76983 0.45869
 C1265 C 0.79722 0.75954 0.44979
 C1266 C 0.80721 0.76841 0.43424
 H1267 H 0.83541 0.78750 0.36858
 H1268 H 0.81973 0.84498 0.39441
 H1269 H 0.76538 0.79787 0.45833
 H1270 H 0.80147 0.74455 0.45472
 H1271 H 0.82011 0.76991 0.39590
 H1272 H 0.81919 0.76026 0.42779
 C1273 C 0.69540 0.31443 0.58914
 C1274 C 0.70630 0.32273 0.60451
 C1275 C 0.69688 0.33024 0.62097
 C1276 C 0.67658 0.32966 0.62224
 C1277 C 0.66620 0.32112 0.60656
 N1278 N 0.67574 0.31373 0.59070
 C1279 C 0.70486 0.30567 0.57171
 N1280 N 0.69628 0.28973 0.56234
 C1281 C 0.70462 0.28038 0.54677
 C1282 C 0.72269 0.28704 0.53973
 C1283 C 0.73147 0.30385 0.54880
 C1284 C 0.72264 0.31318 0.56475
 H1285 H 0.70556 0.33609 0.63290
 H1286 H 0.65054 0.32046 0.60678
 H1287 H 0.69725 0.26760 0.54009
 H1288 H 0.74533 0.30959 0.54380
 H1289 H 0.72198 0.32292 0.60414
 H1290 H 0.72966 0.32615 0.57147
 C1291 C 0.68524 0.80956 1.09116
 C1292 C 0.67646 0.79749 1.10562
 C1293 C 0.66794 0.80675 1.12177
 C1294 C 0.66810 0.82801 1.12365
 C1295 C 0.67713 0.83953 1.10892
 N1296 N 0.68541 0.83015 1.09333
 C1297 C 0.69491 0.80048 1.07397
 N1298 N 0.70966 0.81085 1.06522
 C1299 C 0.71956 0.80324 1.04970
 C1300 C 0.71473 0.78405 1.04205
 C1301 C 0.69925 0.77334 1.05055
 C1302 C 0.68931 0.78147 1.06644
 H1303 H 0.66157 0.79723 1.13300
 H1304 H 0.67745 0.85597 1.10965
 H1305 H 0.73129 0.81210 1.04350
 H1306 H 0.69491 0.75857 1.04504
 H1307 H 0.67658 0.78106 1.10482
 H1308 H 0.67730 0.77300 1.07257
 C1309 C 0.19236 0.30741 1.08578
 C1310 C 0.19082 0.32861 1.08772
 C1311 C 0.18134 0.33674 1.10390
 C1312 C 0.17329 0.32387 1.11814
 C1313 C 0.17455 0.30276 1.11529
 N1314 N 0.18396 0.29520 1.09946
 C1315 C 0.20306 0.29785 1.06947
 N1316 N 0.19862 0.27836 1.06439
 C1317 C 0.20831 0.26824 1.05013
 C1318 C 0.22373 0.27766 1.04022
 C1319 C 0.22860 0.29773 1.04525
 C1320 C 0.21833 0.30786 1.05982
 H1321 H 0.18029 0.35311 1.10528
 H1322 H 0.16863 0.29226 1.12593
 H1323 H 0.20412 0.25274 1.04679
 H1324 H 0.24046 0.30554 1.03807
 H1325 H 0.19673 0.33887 1.07687
 H1326 H 0.22275 0.32311 1.06380
 C1327 C 0.19079 0.80123 0.59199
 C1328 C 0.18219 0.78946 0.60676
 C1329 C 0.17333 0.79904 0.62252
 C1330 C 0.17291 0.82037 0.62369
 C1331 C 0.18190 0.83160 0.60873
 N1332 N 0.19054 0.82189 0.59352
 C1333 C 0.20067 0.79173 0.57516
 N1334 N 0.21563 0.80178 0.56646
 C1335 C 0.22568 0.79374 0.55125
 C1336 C 0.22076 0.77447 0.54387
 C1337 C 0.20507 0.76406 0.55231
 C1338 C 0.19501 0.77262 0.56792
 H1339 H 0.16710 0.78973 0.63397
 H1340 H 0.18186 0.84806 0.60896
 H1341 H 0.23757 0.80237 0.54505
 H1342 H 0.20068 0.74924 0.54699
 H1343 H 0.18268 0.77301 0.60645
 H1344 H 0.18284 0.76440 0.57406
 C1345 C 0.30946 0.68678 0.58757
 C1346 C 0.31075 0.66551 0.58899
 C1347 C 0.32000 0.65680 0.60505
 C1348 C 0.32805 0.66916 0.61969
 C1349 C 0.32685 0.69036 0.61746
 N1350 N 0.31772 0.69849 0.60172
 C1351 C 0.29932 0.69692 0.57121
 N1352 N 0.30428 0.71640 0.56652
 C1353 C 0.29518 0.72696 0.55213
 C1354 C 0.27987 0.71802 0.54166
 C1355 C 0.27448 0.69798 0.54630
 C1356 C 0.28414 0.68740 0.56101
 H1357 H 0.32100 0.64039 0.60594
 H1358 H 0.33273 0.70048 0.62844
 H1359 H 0.29975 0.74242 0.54912
 H1360 H 0.26267 0.69053 0.53869
 H1361 H 0.30494 0.65565 0.57778
 H1362 H 0.27932 0.67219 0.56465
 C1363 C 0.31359 0.19811 1.09255
 C1364 C 0.32204 0.21020 1.10717
 C1365 C 0.33015 0.20096 1.12356
 C1366 C 0.32993 0.17969 1.12548
 C1367 C 0.32127 0.16816 1.11055
 N1368 N 0.31335 0.17753 1.09476
 C1369 C 0.30411 0.20716 1.07524
 N1370 N 0.28944 0.19675 1.06643
 C1371 C 0.27964 0.20431 1.05083
 C1372 C 0.28449 0.22348 1.04316
 C1373 C 0.29991 0.23424 1.05169
 C1374 C 0.30975 0.22615 1.06769
 H1375 H 0.33617 0.21050 1.13494
 H1376 H 0.32087 0.15172 1.11136
 H1377 H 0.26795 0.19541 1.04460
 H1378 H 0.30424 0.24901 1.04616
 H1379 H 0.32193 0.22663 1.10632
 H1380 H 0.32170 0.23465 1.07391
 C1381 C 0.80875 0.70507 1.08681
 C1382 C 0.81739 0.71657 1.10176
 C1383 C 0.82695 0.70670 1.11696
 C1384 C 0.82798 0.68538 1.11741
 C1385 C 0.81896 0.67443 1.10228
 N1386 N 0.80966 0.68440 1.08763
 C1387 C 0.79823 0.71486 1.07052
 N1388 N 0.78338 0.70469 1.06173
 C1389 C 0.77283 0.71300 1.04697
 C1390 C 0.77710 0.73268 1.04019
 C1391 C 0.79265 0.74321 1.04876
 C1392 C 0.80323 0.73439 1.06385
 H1393 H 0.83320 0.71577 1.12858
 H1394 H 0.81946 0.65798 1.10197
 H1395 H 0.76106 0.70427 1.04067
 H1396 H 0.79658 0.75836 1.04390
 H1397 H 0.81642 0.73299 1.10203
 H1398 H 0.81530 0.74273 1.07004
 C1399 C 0.80765 0.20134 0.58845
 C1400 C 0.81566 0.21274 0.60379
 C1401 C 0.82403 0.20275 0.61960
 C1402 C 0.82455 0.18141 0.62024
 C1403 C 0.81604 0.17055 0.60476
 N1404 N 0.80788 0.18065 0.58950
 C1405 C 0.79848 0.21133 0.57148
 N1406 N 0.78357 0.20179 0.56217
 C1407 C 0.77412 0.21039 0.54684
 C1408 C 0.77963 0.22972 0.53998
 C1409 C 0.79530 0.23955 0.54903
 C1410 C 0.80475 0.23044 0.56474
 H1411 H 0.82992 0.21175 0.63145
 H1412 H 0.81617 0.15410 0.60459
 H1413 H 0.76222 0.20218 0.54016
 H1414 H 0.80013 0.25441 0.54414
 H1415 H 0.81515 0.22919 0.60384
 H1416 H 0.81689 0.23825 0.57141
 C1417 C 0.69126 0.68821 0.41092
 C1418 C 0.69015 0.66718 0.40743
 C1419 C 0.68140 0.66007 0.39036
 C1420 C 0.67363 0.67379 0.37676
 C1421 C 0.67438 0.69464 0.38116
 N1422 N 0.68311 0.70122 0.39782
 C1423 C 0.70136 0.69678 0.42817
 N1424 N 0.69676 0.71588 0.43426
 C1425 C 0.70604 0.72517 0.44936
 C1426 C 0.72122 0.71529 0.45914
 C1427 C 0.72618 0.69559 0.45314
 C1428 C 0.71634 0.68630 0.43772
 H1429 H 0.68072 0.64383 0.38779
 H1430 H 0.66863 0.70577 0.37107
 H1431 H 0.70177 0.74041 0.45343
 H1432 H 0.73788 0.68744 0.46017
 H1433 H 0.69584 0.65625 0.41774
 H1434 H 0.72092 0.67137 0.43301
 C1435 C 0.68744 0.18418 -0.08701
 C1436 C 0.68597 0.16302 -0.08949
 C1437 C 0.67694 0.15520 -0.10611
 C1438 C 0.66925 0.16833 -0.12027
 C1439 C 0.67046 0.18938 -0.11693
 N1440 N 0.67943 0.19665 -0.10067
 C1441 C 0.69762 0.19335 -0.07011
 N1442 N 0.69293 0.21257 -0.06444
 C1443 C 0.70214 0.22223 -0.04950
 C1444 C 0.71730 0.21260 -0.03946
 C1445 C 0.72241 0.19282 -0.04511
 C1446 C 0.71265 0.18317 -0.06037
 H1447 H 0.67586 0.13885 -0.10782
 H1448 H 0.66476 0.20007 -0.12747
 H1449 H 0.69780 0.23753 -0.04571
 H1450 H 0.73409 0.18486 -0.03788
 H1451 H 0.69153 0.15254 -0.07869
 H1452 H 0.71728 0.16816 -0.06476
 C1453 C 0.19301 0.69052 -0.09011
 C1454 C 0.19104 0.66934 -0.09198
 C1455 C 0.18169 0.66126 -0.10831
 C1456 C 0.17424 0.67417 -0.12281
 C1457 C 0.17604 0.69527 -0.12009
 N1458 N 0.18525 0.70278 -0.10408
 C1459 C 0.20338 0.69993 -0.07346
 N1460 N 0.19878 0.71926 -0.06811
 C1461 C 0.20808 0.72915 -0.05338
 C1462 C 0.22325 0.71965 -0.04325
 C1463 C 0.22830 0.69977 -0.04859
 C1464 C 0.21842 0.68986 -0.06363
 H1465 H 0.18023 0.64491 -0.10956
 H1466 H 0.17063 0.70581 -0.13093
 H1467 H 0.20378 0.74452 -0.04983
 H1468 H 0.23999 0.69191 -0.04125
 H1469 H 0.19645 0.65907 -0.08092
 H1470 H 0.22293 0.67474 -0.06780
 C1471 C 0.18699 0.19470 0.41214
 C1472 C 0.16674 0.19395 0.41025
 C1473 C 0.15848 0.18487 0.39378
 C1474 C 0.17030 0.17658 0.37912
 C1475 C 0.19049 0.17756 0.38170
 N1476 N 0.19817 0.18638 0.39790
 C1477 C 0.19666 0.20415 0.42916
 N1478 N 0.21457 0.19747 0.43441
 C1479 C 0.22475 0.20590 0.44937
 C1480 C 0.21713 0.22239 0.45981
 C1481 C 0.19870 0.22956 0.45465
 C1482 C 0.18839 0.22045 0.43941
 H1483 H 0.14285 0.18410 0.39265
 H1484 H 0.20023 0.17167 0.37071
 H1485 H 0.23897 0.19998 0.45276
 H1486 H 0.19232 0.24232 0.46226
 H1487 H 0.15735 0.19993 0.42150
 H1488 H 0.17442 0.22655 0.43536
 C1489 C 0.30400 0.40421 0.69144
 C1490 C 0.29394 0.38857 0.68180
 C1491 C 0.30426 0.37307 0.67270
 C1492 C 0.32459 0.37303 0.67311
 C1493 C 0.33409 0.38885 0.68312
 N1494 N 0.32371 0.40378 0.69195
 C1495 C 0.29367 0.42090 0.70141
 N1496 N 0.30199 0.43001 0.71720
 C1497 C 0.29315 0.44527 0.72717
 C1498 C 0.27488 0.45230 0.72125
 C1499 C 0.26624 0.44336 0.70479
 C1500 C 0.27555 0.42771 0.69486
 H1501 H 0.29628 0.36089 0.66567
 H1502 H 0.34975 0.38949 0.68374
 H1503 H 0.30040 0.45187 0.73968
 H1504 H 0.25223 0.44840 0.69960
 H1505 H 0.27828 0.38798 0.68163
 H1506 H 0.26871 0.42128 0.68204
 C1507 C 0.30876 0.90985 0.19250
 C1508 C 0.32902 0.90809 0.19190
 C1509 C 0.33739 0.89147 0.18254
 C1510 C 0.32570 0.87658 0.17368
 C1511 C 0.30552 0.87925 0.17409
 N1512 N 0.29769 0.89555 0.18337
 C1513 C 0.29908 0.92672 0.20293
 N1514 N 0.28101 0.93248 0.19725
 C1515 C 0.27104 0.94747 0.20648
 C1516 C 0.27914 0.95745 0.22269
 C1517 C 0.29770 0.95165 0.22888
 C1518 C 0.30769 0.93636 0.21907
 H1519 H 0.35303 0.89032 0.18215
 H1520 H 0.29593 0.86812 0.16753
 H1521 H 0.25672 0.95137 0.20129
 H1522 H 0.30447 0.95884 0.24138
 H1523 H 0.33838 0.91946 0.19840
 H1524 H 0.32177 0.93184 0.22446
 C1525 C 0.81079 0.41090 0.18621
 C1526 C 0.83096 0.40983 0.18380
 C1527 C 0.83912 0.39263 0.17523
 C1528 C 0.82729 0.37644 0.16903
 C1529 C 0.80714 0.37837 0.17127
 N1530 N 0.79952 0.39528 0.17968
 C1531 C 0.80144 0.42846 0.19584
 N1532 N 0.78289 0.43334 0.19100
 C1533 C 0.77324 0.44891 0.19968
 C1534 C 0.78219 0.46039 0.21446
 C1535 C 0.80126 0.45552 0.21975
 C1536 C 0.81093 0.43965 0.21048
 H1537 H 0.85468 0.39207 0.17334
 H1538 H 0.79744 0.36625 0.16683
 H1539 H 0.75850 0.45206 0.19525
 H1540 H 0.80869 0.46390 0.23114
 H1541 H 0.84036 0.42219 0.18826
 H1542 H 0.82545 0.43589 0.21516
 C1543 C 0.80992 0.91055 0.68718
 C1544 C 0.83020 0.90917 0.68647
 C1545 C 0.83879 0.89226 0.67781
 C1546 C 0.82728 0.87670 0.66981
 C1547 C 0.80706 0.87906 0.67017
 N1548 N 0.79903 0.89563 0.67876
 C1549 C 0.80002 0.92754 0.69713
 N1550 N 0.78183 0.93277 0.69134
 C1551 C 0.77156 0.94769 0.70031
 C1552 C 0.77943 0.95811 0.71638
 C1553 C 0.79811 0.95289 0.72265
 C1554 C 0.80845 0.93768 0.71308
 H1555 H 0.85444 0.89135 0.67741
 H1556 H 0.79762 0.86742 0.66425
 H1557 H 0.75715 0.95115 0.69507
 H1558 H 0.80471 0.96047 0.73503
 H1559 H 0.83939 0.92102 0.69243
 H1560 H 0.82262 0.93358 0.71852
 C1561 C 0.69685 0.59312 0.69945
 C1562 C 0.70744 0.60834 0.68975
 C1563 C 0.69768 0.62397 0.68024
 C1564 C 0.67736 0.62460 0.68031
 C1565 C 0.66729 0.60938 0.69062
 N1566 N 0.67715 0.59424 0.69980
 C1567 C 0.70666 0.57602 0.70940
 N1568 N 0.69815 0.56712 0.72521
 C1569 C 0.70660 0.55152 0.73510
 C1570 C 0.72463 0.54392 0.72909
 C1571 C 0.73340 0.55263 0.71258
 C1572 C 0.72450 0.56859 0.70272
 H1573 H 0.70608 0.63572 0.67301
 H1574 H 0.65162 0.60927 0.69107
 H1575 H 0.69925 0.54513 0.74766
 H1576 H 0.74722 0.54717 0.70729
 H1577 H 0.72311 0.60842 0.68973
 H1578 H 0.73145 0.57481 0.68986
 C1579 C 0.68926 0.08881 0.20178
 C1580 C 0.66899 0.09070 0.20217
 C1581 C 0.66018 0.10666 0.19211
 C1582 C 0.67144 0.12074 0.18160
 C1583 C 0.69163 0.11815 0.18141
 N1584 N 0.69987 0.10248 0.19130
 C1585 C 0.69949 0.07223 0.21211
 N1586 N 0.71726 0.06648 0.20556
 C1587 C 0.72772 0.05159 0.21437
 C1588 C 0.72045 0.04162 0.23097
 C1589 C 0.70224 0.04745 0.23811
 C1590 C 0.69173 0.06271 0.22875
 H1591 H 0.64454 0.10780 0.19232
 H1592 H 0.70093 0.12873 0.17370
 H1593 H 0.74175 0.04768 0.20843
 H1594 H 0.69613 0.04025 0.25095
 H1595 H 0.65996 0.07983 0.20981
 H1596 H 0.67792 0.06720 0.23478
 C1597 C 0.19420 0.59335 0.19197
 C1598 C 0.20513 0.60872 0.18289
 C1599 C 0.19572 0.62488 0.17383
 C1600 C 0.17541 0.62588 0.17374
 C1601 C 0.16501 0.61048 0.18345
 N1602 N 0.17452 0.59482 0.19220
 C1603 C 0.20365 0.57576 0.20149
 N1604 N 0.19491 0.56658 0.21702
 C1605 C 0.20312 0.55066 0.22666
 C1606 C 0.22117 0.54308 0.22069
 C1607 C 0.23013 0.55201 0.20440
 C1608 C 0.22145 0.56826 0.19478
 H1609 H 0.20437 0.63673 0.16708
 H1610 H 0.14933 0.61064 0.18375
 H1611 H 0.19563 0.54412 0.23906
 H1612 H 0.24398 0.54658 0.19915
 H1613 H 0.22080 0.60852 0.18301
 H1614 H 0.22857 0.57471 0.18212
 C1615 C 0.18849 0.09067 0.69233
 C1616 C 0.16822 0.09128 0.69078
 C1617 C 0.15941 0.10774 0.68154
 C1618 C 0.17068 0.12367 0.67382
 C1619 C 0.19094 0.12222 0.67530
 N1620 N 0.19919 0.10601 0.68436
 C1621 C 0.19854 0.07382 0.70239
 N1622 N 0.21684 0.06886 0.69677
 C1623 C 0.22710 0.05383 0.70564
 C1624 C 0.21908 0.04301 0.72139
 C1625 C 0.20030 0.04801 0.72753
 C1626 C 0.18999 0.06333 0.71807
 H1627 H 0.14378 0.10791 0.68030
 H1628 H 0.20023 0.13418 0.66971
 H1629 H 0.24159 0.05057 0.70053
 H1630 H 0.19359 0.04013 0.73968
 H1631 H 0.15923 0.07909 0.69640
 H1632 H 0.17569 0.06721 0.72332
 C1633 C 0.30448 0.59042 0.31096
 C1634 C 0.30515 0.59192 0.33141
 C1635 C 0.31528 0.60797 0.34007
 C1636 C 0.32477 0.62256 0.32847
 C1637 C 0.32388 0.62036 0.30809
 N1638 N 0.31397 0.60457 0.29999
 C1639 C 0.29409 0.57371 0.30090
 N1640 N 0.29991 0.56825 0.28265
 C1641 C 0.29098 0.55327 0.27232
 C1642 C 0.27498 0.54289 0.28022
 C1643 C 0.26859 0.54839 0.29893
 C1644 C 0.27809 0.56375 0.30931
 H1645 H 0.31592 0.60879 0.35585
 H1646 H 0.33077 0.63133 0.29854
 H1647 H 0.29632 0.54963 0.25788
 H1648 H 0.25623 0.54088 0.30553
 H1649 H 0.29831 0.58066 0.34067
 H1650 H 0.27265 0.56800 0.32354
 C1651 C 0.31084 0.09010 0.80495
 C1652 C 0.33116 0.09123 0.80557
 C1653 C 0.34012 0.10735 0.81535
 C1654 C 0.32896 0.12238 0.82453
 C1655 C 0.30869 0.12049 0.82378
 N1656 N 0.30029 0.10463 0.81420
 C1657 C 0.30051 0.07347 0.79469
 N1658 N 0.28239 0.06817 0.80072
 C1659 C 0.27185 0.05332 0.79181
 C1660 C 0.27939 0.04298 0.77559
 C1661 C 0.29798 0.04833 0.76900
 C1662 C 0.30858 0.06351 0.77850
 H1663 H 0.35579 0.10789 0.81593
 H1664 H 0.29947 0.13179 0.83046
 H1665 H 0.25752 0.04978 0.79730
 H1666 H 0.30433 0.04083 0.75648
 H1667 H 0.34008 0.07966 0.79891
 H1668 H 0.32271 0.06765 0.77289
 C1669 C 0.81029 0.59063 0.81597
 C1670 C 0.83045 0.59146 0.81859
 C1671 C 0.83881 0.60840 0.82756
 C1672 C 0.82719 0.62460 0.83392
 C1673 C 0.80704 0.62289 0.83149
 N1674 N 0.79923 0.60621 0.82271
 C1675 C 0.80071 0.57338 0.80595
 N1676 N 0.78206 0.56866 0.81061
 C1677 C 0.77211 0.55347 0.80154
 C1678 C 0.78084 0.54224 0.78650
 C1679 C 0.80002 0.54693 0.78139
 C1680 C 0.81002 0.56241 0.79109
 H1681 H 0.85436 0.60879 0.82958
 H1682 H 0.79750 0.63502 0.83603
 H1683 H 0.75729 0.55045 0.80585
 H1684 H 0.80727 0.53872 0.76981
 H1685 H 0.83968 0.57911 0.81396
 H1686 H 0.82465 0.56607 0.78658
 C1687 C 0.81095 0.08868 0.31423
 C1688 C 0.81256 0.09043 0.33461
 C1689 C 0.82187 0.10733 0.34265
 C1690 C 0.82967 0.12251 0.33050
 C1691 C 0.82832 0.11983 0.31020
 N1692 N 0.81909 0.10327 0.30270
 C1693 C 0.80045 0.07157 0.30491
 N1694 N 0.80511 0.06620 0.28630
 C1695 C 0.79567 0.05111 0.27656
 C1696 C 0.78028 0.04060 0.28548
 C1697 C 0.77517 0.04594 0.30463
 C1698 C 0.78519 0.06136 0.31438
 H1699 H 0.82302 0.10850 0.35838
 H1700 H 0.83407 0.13117 0.30028
 H1701 H 0.80001 0.04757 0.26177
 H1702 H 0.76332 0.03833 0.31204
 H1703 H 0.80687 0.07886 0.34430
 H1704 H 0.78060 0.06554 0.32893
 C1705 C 0.69392 0.41679 0.30267
 C1706 C 0.67364 0.41598 0.30419
 C1707 C 0.66487 0.39977 0.31399
 C1708 C 0.67619 0.38435 0.32235
 C1709 C 0.69644 0.38601 0.32090
 N1710 N 0.70466 0.40193 0.31125
 C1711 C 0.70398 0.43326 0.29192
 N1712 N 0.72249 0.43823 0.29696
 C1713 C 0.73280 0.45282 0.28737
 C1714 C 0.72461 0.46316 0.27146
 C1715 C 0.70559 0.45816 0.26595
 C1716 C 0.69524 0.44329 0.27611
 H1717 H 0.64923 0.39938 0.31514
 H1718 H 0.70576 0.37442 0.32698
 H1719 H 0.74747 0.45610 0.29204
 H1720 H 0.69872 0.46567 0.25369
 H1721 H 0.66460 0.42780 0.29811
 H1722 H 0.68079 0.43938 0.27125
 C1723 C 0.68759 0.91167 0.80221
 C1724 C 0.66727 0.91109 0.80298
 C1725 C 0.65801 0.89552 0.81325
 C1726 C 0.66887 0.88047 0.82279
 C1727 C 0.68917 0.88185 0.82197
 N1728 N 0.69787 0.89719 0.81188
 C1729 C 0.69816 0.92772 0.79137
 N1730 N 0.71636 0.93298 0.79722
 C1731 C 0.72699 0.94748 0.78790
 C1732 C 0.71946 0.95751 0.77147
 C1733 C 0.70084 0.95210 0.76501
 C1734 C 0.69016 0.93727 0.77490
 H1735 H 0.64233 0.89538 0.81390
 H1736 H 0.69815 0.87052 0.82896
 H1737 H 0.74135 0.95106 0.79329
 H1738 H 0.69450 0.95936 0.75234
 H1739 H 0.65857 0.92268 0.79604
 H1740 H 0.67598 0.93312 0.76943
 C1741 C 0.18807 0.40525 0.80760
 C1742 C 0.16784 0.40388 0.80929
 C1743 C 0.15956 0.38731 0.81900
 C1744 C 0.17134 0.37206 0.82704
 C1745 C 0.19152 0.37420 0.82525
 N1746 N 0.19924 0.39050 0.81577
 C1747 C 0.19770 0.42234 0.79736
 N1748 N 0.21607 0.42756 0.80262
 C1749 C 0.22610 0.44271 0.79359
 C1750 C 0.21775 0.45344 0.77799
 C1751 C 0.19886 0.44823 0.77222
 C1752 C 0.18878 0.43275 0.78187
 H1753 H 0.14395 0.38655 0.82041
 H1754 H 0.20119 0.36276 0.83100
 H1755 H 0.24068 0.44612 0.79843
 H1756 H 0.19192 0.45604 0.76019
 H1757 H 0.15847 0.41558 0.80351
 H1758 H 0.17440 0.42870 0.77688
 C1759 C 0.19109 0.91075 0.31103
 C1760 C 0.18923 0.91039 0.33145
 C1761 C 0.17993 0.89402 0.34043
 C1762 C 0.17240 0.87797 0.32920
 C1763 C 0.17402 0.87924 0.30878
 N1764 N 0.18322 0.89534 0.30034
 C1765 C 0.20161 0.92730 0.30088
 N1766 N 0.19664 0.93216 0.28220
 C1767 C 0.20603 0.94692 0.27190
 C1768 C 0.22163 0.95754 0.28030
 C1769 C 0.22709 0.95261 0.29946
 C1770 C 0.21714 0.93758 0.30978
 H1771 H 0.17856 0.89395 0.35619
 H1772 H 0.16851 0.86719 0.29953
 H1773 H 0.20143 0.95015 0.25711
 H1774 H 0.23909 0.96034 0.30649
 H1775 H 0.19474 0.92266 0.34042
 H1776 H 0.22192 0.93375 0.32437
 C1777 C 0.41125 0.30650 0.69327
 C1778 C 0.39537 0.31323 0.70425
 C1779 C 0.37921 0.32108 0.69473
 C1780 C 0.37878 0.32244 0.67426
 C1781 C 0.39485 0.31519 0.66380
 N1782 N 0.41042 0.30745 0.67343
 C1783 C 0.42857 0.29788 0.70283
 N1784 N 0.43850 0.28271 0.69381
 C1785 C 0.45407 0.27359 0.70221
 C1786 C 0.46052 0.27975 0.72076
 C1787 C 0.45086 0.29582 0.73000
 C1788 C 0.43490 0.30488 0.72113
 H1789 H 0.36694 0.32584 0.70343
 H1790 H 0.39523 0.31600 0.64803
 H1791 H 0.46123 0.26137 0.69450
 H1792 H 0.45539 0.30112 0.74427
 H1793 H 0.39523 0.31207 0.72002
 H1794 H 0.42765 0.31725 0.72851
 C1795 C 0.40580 0.80281 0.19580
 C1796 C 0.39010 0.81042 0.20653
 C1797 C 0.37451 0.81916 0.19676
 C1798 C 0.37441 0.82043 0.17630
 C1799 C 0.39013 0.81205 0.16606
 N1800 N 0.40521 0.80359 0.17593
 C1801 C 0.42290 0.79398 0.20566
 N1802 N 0.43308 0.77892 0.19672
 C1803 C 0.44879 0.77007 0.20519
 C1804 C 0.45516 0.77648 0.22369
 C1805 C 0.44511 0.79229 0.23292
 C1806 C 0.42903 0.80104 0.22400
 H1807 H 0.36246 0.82483 0.20526
 H1808 H 0.39068 0.81269 0.15028
 H1809 H 0.45621 0.75804 0.19749
 H1810 H 0.44956 0.79782 0.24713
 H1811 H 0.38971 0.80944 0.22230
 H1812 H 0.42168 0.81339 0.23132
 C1813 C 0.91196 0.30548 0.18695
 C1814 C 0.90970 0.30516 0.16657
 C1815 C 0.89331 0.31392 0.15815
 C1816 C 0.87913 0.32303 0.16992
 C1817 C 0.88218 0.32341 0.19021
 N1818 N 0.89826 0.31477 0.19807
 C1819 C 0.92875 0.29593 0.19676
 N1820 N 0.93444 0.30302 0.21455
 C1821 C 0.94928 0.29456 0.22476
 C1822 C 0.95916 0.27765 0.21726
 C1823 C 0.95350 0.27006 0.19897
 C1824 C 0.93838 0.27914 0.18867
 H1825 H 0.89182 0.31371 0.14241
 H1826 H 0.87160 0.33011 0.19989
 H1827 H 0.95307 0.30083 0.23886
 H1828 H 0.96064 0.25697 0.19268
 H1829 H 0.92053 0.29849 0.15716
 H1830 H 0.93397 0.27266 0.17485
 C1831 C 0.90797 0.80501 0.69656
 C1832 C 0.89279 0.81415 0.70694
 C1833 C 0.87707 0.82218 0.69680
 C1834 C 0.87636 0.82126 0.67631
 C1835 C 0.89166 0.81161 0.66652
 N1836 N 0.90683 0.80381 0.67674
 C1837 C 0.92493 0.79621 0.70668
 N1838 N 0.93435 0.78027 0.69834
 C1839 C 0.94980 0.77117 0.70698
 C1840 C 0.95672 0.77817 0.72508
 C1841 C 0.94753 0.79490 0.73370
 C1842 C 0.93166 0.80394 0.72457
 H1843 H 0.86535 0.82891 0.70504
 H1844 H 0.89178 0.81060 0.65075
 H1845 H 0.95657 0.75842 0.69974
 H1846 H 0.95244 0.80087 0.74758
 H1847 H 0.89281 0.81476 0.72272
 H1848 H 0.92491 0.81695 0.73140
 C1849 C 0.59187 0.31140 0.30753
 C1850 C 0.60668 0.29962 0.31577
 C1851 C 0.62285 0.30917 0.32380
 C1852 C 0.62440 0.33046 0.32375
 C1853 C 0.60946 0.34171 0.31497
 N1854 N 0.59381 0.33203 0.30716
 C1855 C 0.57450 0.30177 0.29887
 N1856 N 0.56560 0.31076 0.28337
 C1857 C 0.55006 0.30216 0.27428
 C1858 C 0.54263 0.28341 0.28077
 C1859 C 0.55123 0.27426 0.29712
 C1860 C 0.56710 0.28337 0.30619
 H1861 H 0.63428 0.29982 0.32981
 H1862 H 0.61005 0.35816 0.31461
 H1863 H 0.54374 0.30982 0.26183
 H1864 H 0.54590 0.25990 0.30276
 H1865 H 0.60601 0.28317 0.31569
 H1866 H 0.57342 0.27607 0.31883
 C1867 C 0.58332 0.81141 0.80739
 C1868 C 0.58522 0.83267 0.80799
 C1869 C 0.60120 0.84140 0.81725
 C1870 C 0.61528 0.82906 0.82603
 C1871 C 0.61247 0.80789 0.82576
 N1872 N 0.59683 0.79972 0.81651
 C1873 C 0.56723 0.80131 0.79684
 N1874 N 0.56172 0.78221 0.80226
 C1875 C 0.54752 0.77174 0.79278
 C1876 C 0.53815 0.78037 0.77659
 C1877 C 0.54366 0.80001 0.77071
 C1878 C 0.55814 0.81050 0.78075
 H1879 H 0.60253 0.85781 0.81757
 H1880 H 0.62298 0.79781 0.83233
 H1881 H 0.54381 0.75658 0.79774
 H1882 H 0.53692 0.80721 0.75822
 H1883 H 0.57449 0.84254 0.80152
 H1884 H 0.56248 0.82537 0.77554
 C1885 C 0.08733 0.29896 0.81374
 C1886 C 0.10224 0.28698 0.82152
 C1887 C 0.11855 0.29636 0.82951
 C1888 C 0.12010 0.31766 0.82986
 C1889 C 0.10490 0.32909 0.82185
 N1890 N 0.08918 0.31959 0.81402
 C1891 C 0.07014 0.28975 0.80431
 N1892 N 0.06097 0.30029 0.78994
 C1893 C 0.04559 0.29250 0.78002
 C1894 C 0.03857 0.27293 0.78438
 C1895 C 0.04743 0.26205 0.79956
 C1896 C 0.06317 0.27040 0.80957
 H1897 H 0.13013 0.28690 0.83502
 H1898 H 0.10542 0.34555 0.82192
 H1899 H 0.03907 0.30151 0.76855
 H1900 H 0.04239 0.24698 0.80352
 H1901 H 0.10168 0.27054 0.82094
 H1902 H 0.06970 0.26177 0.82129
 C1903 C 0.09035 0.80316 0.31300
 C1904 C 0.10494 0.79153 0.32185
 C1905 C 0.12064 0.80128 0.33067
 C1906 C 0.12193 0.82261 0.33074
 C1907 C 0.10701 0.83367 0.32175
 N1908 N 0.09190 0.82381 0.31315
 C1909 C 0.07382 0.79363 0.30265
 N1910 N 0.06513 0.80410 0.28793
 C1911 C 0.05022 0.79620 0.27737
 C1912 C 0.04316 0.77659 0.28143
 C1913 C 0.05159 0.76570 0.29687
 C1914 C 0.06689 0.77415 0.30750
 H1915 H 0.13203 0.79210 0.33699
 H1916 H 0.10727 0.85013 0.32162
 H1917 H 0.04404 0.80521 0.26571
 H1918 H 0.04651 0.75059 0.30061
 H1919 H 0.10463 0.77508 0.32149
 H1920 H 0.07301 0.76554 0.31946
 C1921 C 0.59159 0.69553 0.69292
 C1922 C 0.60597 0.70731 0.68377
 C1923 C 0.62219 0.69783 0.67586
 C1924 C 0.62422 0.67663 0.67701
 C1925 C 0.60972 0.66544 0.68667
 N1926 N 0.59401 0.67503 0.69429
 C1927 C 0.57411 0.70495 0.70149
 N1928 N 0.56521 0.69579 0.71694
 C1929 C 0.54940 0.70393 0.72581
 C1930 C 0.54163 0.72239 0.71914
 C1931 C 0.55028 0.73177 0.70290
 C1932 C 0.56643 0.72312 0.69404
 H1933 H 0.63327 0.70716 0.66909
 H1934 H 0.61067 0.64906 0.68786
 H1935 H 0.54310 0.69611 0.73820
 H1936 H 0.54469 0.74593 0.69713
 H1937 H 0.60498 0.72371 0.68301
 H1938 H 0.57268 0.73055 0.68142
 C1939 C 0.59045 0.19694 0.19555
 C1940 C 0.60513 0.20791 0.18596
 C1941 C 0.62068 0.19755 0.17771
 C1942 C 0.62173 0.17627 0.17894
 C1943 C 0.60690 0.16589 0.18892
 N1944 N 0.59189 0.17633 0.19689
 C1945 C 0.57374 0.20723 0.20471
 N1946 N 0.56485 0.19832 0.22028
 C1947 C 0.54968 0.20711 0.22968
 C1948 C 0.54256 0.22601 0.22341
 C1949 C 0.55121 0.23520 0.20708
 C1950 C 0.56674 0.22589 0.19770
 H1951 H 0.63204 0.20626 0.17066
 H1952 H 0.60707 0.14948 0.19014
 H1953 H 0.54335 0.19941 0.24212
 H1954 H 0.54610 0.24970 0.20164
 H1955 H 0.60490 0.22435 0.18517
 H1956 H 0.57301 0.23319 0.18500
 C1957 C 0.09136 0.69816 0.18877
 C1958 C 0.10569 0.70980 0.17937
 C1959 C 0.12146 0.70013 0.17079
 C1960 C 0.12311 0.67886 0.17152
 C1961 C 0.10860 0.66779 0.18128
 N1962 N 0.09335 0.67757 0.18957
 C1963 C 0.07451 0.70774 0.19842
 N1964 N 0.06574 0.69791 0.21356
 C1965 C 0.05055 0.70604 0.22346
 C1966 C 0.04333 0.72524 0.21826
 C1967 C 0.05183 0.73538 0.20237
 C1968 C 0.06733 0.72670 0.19240
 H1969 H 0.13257 0.70934 0.16391
 H1970 H 0.10924 0.65136 0.18214
 H1971 H 0.04434 0.69761 0.23552
 H1972 H 0.04661 0.75012 0.19770
 H1973 H 0.10509 0.72624 0.17902
 H1974 H 0.07344 0.73474 0.18005
 C1975 C 0.08465 0.19127 0.69173
 C1976 C 0.08648 0.17011 0.68957
 C1977 C 0.10285 0.16217 0.68045
 C1978 C 0.11738 0.17519 0.67334
 C1979 C 0.11471 0.19627 0.67523
 N1980 N 0.09868 0.20365 0.68428
 C1981 C 0.06807 0.20050 0.70213
 N1982 N 0.06305 0.22007 0.69803
 C1983 C 0.04844 0.22975 0.70751
 C1984 C 0.03807 0.21975 0.72235
 C1985 C 0.04305 0.19961 0.72684
 C1986 C 0.05798 0.18996 0.71682
 H1987 H 0.10409 0.14584 0.67887
 H1988 H 0.12557 0.20687 0.67001
 H1989 H 0.04516 0.24533 0.70366
 H1990 H 0.03554 0.19133 0.73826
 H1991 H 0.07538 0.15974 0.69467
 H1992 H 0.06186 0.17464 0.72101
 C1993 C 0.41340 0.68794 0.30985
 C1994 C 0.41077 0.66675 0.31077
 C1995 C 0.39440 0.65877 0.32006
 C1996 C 0.38064 0.67179 0.32846
 C1997 C 0.38403 0.69286 0.32749
 N1998 N 0.40006 0.70025 0.31838
 C1999 C 0.43014 0.69746 0.29986
 N2000 N 0.43564 0.71655 0.30527
 C2001 C 0.45020 0.72683 0.29622
 C2002 C 0.45999 0.71805 0.28038
 C2003 C 0.45464 0.69834 0.27457
 C2004 C 0.43978 0.68798 0.28427
 H2005 H 0.39262 0.64242 0.32083
 H2006 H 0.37376 0.70351 0.33355
 H2007 H 0.45377 0.74203 0.30114
 H2008 H 0.46173 0.69104 0.26235
 H2009 H 0.42130 0.65641 0.30466
 H2010 H 0.43552 0.67306 0.27914
 C2011 C 0.41296 0.19523 0.80965
 C2012 C 0.41187 0.19345 0.83006
 C2013 C 0.39581 0.18394 0.83854
 C2014 C 0.38080 0.17622 0.82680
 C2015 C 0.38256 0.17822 0.80644
 N2016 N 0.39836 0.18745 0.79853
 C2017 C 0.42963 0.20501 0.79977
 N2018 N 0.43410 0.19921 0.78124
 C2019 C 0.44891 0.20775 0.77100
 C2020 C 0.46011 0.22339 0.77929
 C2021 C 0.45569 0.22973 0.79834
 C2022 C 0.44053 0.22056 0.80864
 H2023 H 0.39532 0.18234 0.85427
 H2024 H 0.37127 0.17276 0.79679
 H2025 H 0.45171 0.20249 0.75630
 H2026 H 0.46389 0.24183 0.80525
 H2027 H 0.42342 0.19891 0.83939
 H2028 H 0.43713 0.22599 0.82315
 C2029 C 0.91262 0.69488 0.81585
 C2030 C 0.91054 0.69520 0.83626
 C2031 C 0.89407 0.68658 0.84479
 C2032 C 0.87967 0.67761 0.83310
 C2033 C 0.88253 0.67725 0.81279
 N2034 N 0.89867 0.68576 0.80483
 C2035 C 0.92942 0.70425 0.80585
 N2036 N 0.93439 0.69738 0.78780
 C2037 C 0.94907 0.70579 0.77726
 C2038 C 0.95953 0.72243 0.78469
 C2039 C 0.95469 0.72975 0.80329
 C2040 C 0.93970 0.72072 0.81392
 H2041 H 0.89269 0.68679 0.86053
 H2042 H 0.87176 0.67067 0.80318
 H2043 H 0.95224 0.69971 0.76293
 H2044 H 0.96231 0.74263 0.80954
 H2045 H 0.92155 0.70176 0.84559
 H2046 H 0.93587 0.72704 0.82798
 C2047 C 0.91239 0.19613 0.31104
 C2048 C 0.91085 0.19619 0.33149
 C2049 C 0.89489 0.18694 0.34040
 C2050 C 0.88041 0.17761 0.32905
 C2051 C 0.88267 0.17767 0.30865
 N2052 N 0.89836 0.18673 0.30032
 C2053 C 0.92887 0.20582 0.30073
 N2054 N 0.93396 0.19878 0.28276
 C2055 C 0.94860 0.20721 0.27217
 C2056 C 0.95894 0.22400 0.27946
 C2057 C 0.95386 0.23160 0.29791
 C2058 C 0.93890 0.22256 0.30859
 H2059 H 0.89403 0.18685 0.35619
 H2060 H 0.87183 0.17086 0.29928
 H2061 H 0.95193 0.20095 0.25796
 H2062 H 0.96138 0.24460 0.30405
 H2063 H 0.92196 0.20295 0.34058
 H2064 H 0.93498 0.22898 0.32257
 C2065 C 0.31284 0.30677 0.58559
 C2066 C 0.31543 0.32791 0.58707
 C2067 C 0.32451 0.33604 0.60351
 C2068 C 0.33118 0.32323 0.61844
 C2069 C 0.32923 0.30212 0.61592
 N2070 N 0.32012 0.29454 0.59986
 C2071 C 0.30184 0.29747 0.56928
 N2072 N 0.30537 0.27777 0.56429
 C2073 C 0.29521 0.26802 0.55004
 C2074 C 0.28023 0.27806 0.54008
 C2075 C 0.27633 0.29833 0.54505
 C2076 C 0.28705 0.30806 0.55957
 H2077 H 0.32616 0.35239 0.60464
 H2078 H 0.33418 0.29169 0.62708
 H2079 H 0.29864 0.25234 0.54675
 H2080 H 0.26484 0.30664 0.53784
 H2081 H 0.31047 0.33814 0.57576
 H2082 H 0.28332 0.32349 0.56349
 C2083 C 0.30954 0.80741 0.08714
 C2084 C 0.31186 0.82857 0.08882
 C2085 C 0.32048 0.83670 0.10554
 C2086 C 0.32683 0.82387 0.12062
 C2087 C 0.32472 0.80276 0.11810
 N2088 N 0.31625 0.79520 0.10170
 C2089 C 0.29983 0.79798 0.07010
 N2090 N 0.30434 0.77852 0.06511
 C2091 C 0.29549 0.76863 0.05010
 C2092 C 0.28085 0.77826 0.03929
 C2093 C 0.27594 0.79830 0.04422
 C2094 C 0.28538 0.80821 0.05954
 H2095 H 0.32226 0.85303 0.10660
 H2096 H 0.32930 0.79228 0.12937
 H2097 H 0.29964 0.75313 0.04688
 H2098 H 0.26467 0.80628 0.03636
 H2099 H 0.30729 0.83877 0.07733
 H2100 H 0.28095 0.82346 0.06338
 C2101 C 0.80635 0.29757 0.09084
 C2102 C 0.81484 0.28654 0.10616
 C2103 C 0.82397 0.29689 0.12137
 C2104 C 0.82475 0.31824 0.12146
 C2105 C 0.81582 0.32871 0.10599
 N2106 N 0.80695 0.31827 0.09133
 C2107 C 0.79641 0.28727 0.07442
 N2108 N 0.78166 0.29694 0.06507
 C2109 C 0.77172 0.28822 0.05006
 C2110 C 0.77656 0.26863 0.04356
 C2111 C 0.79200 0.25859 0.05272
 C2112 C 0.80193 0.26782 0.06810
 H2113 H 0.83015 0.28817 0.13324
 H2114 H 0.81615 0.34515 0.10538
 H2115 H 0.76001 0.29658 0.04331
 H2116 H 0.79633 0.24353 0.04812
 H2117 H 0.81410 0.27010 0.10667
 H2118 H 0.81394 0.25986 0.07474
 C2119 C 0.81130 0.79989 0.58899
 C2120 C 0.83148 0.79955 0.59159
 C2121 C 0.83971 0.80928 0.60774
 C2122 C 0.82793 0.81939 0.62131
 C2123 C 0.80783 0.81949 0.61805
 N2124 N 0.80018 0.80995 0.60221
 C2125 C 0.80166 0.78985 0.57222
 N2126 N 0.78406 0.79679 0.56627
 C2127 C 0.77401 0.78806 0.55137
 C2128 C 0.78149 0.77102 0.54164
 C2129 C 0.79959 0.76354 0.54757
 C2130 C 0.80971 0.77290 0.56279
 H2131 H 0.85531 0.80917 0.60941
 H2132 H 0.79814 0.82687 0.62821
 H2133 H 0.76006 0.79425 0.54738
 H2134 H 0.80586 0.75036 0.54056
 H2135 H 0.84091 0.79223 0.58115
 H2136 H 0.82340 0.76653 0.56739
 C2137 C 0.31205 0.69661 0.41168
 C2138 C 0.32170 0.70803 0.39730
 C2139 C 0.33013 0.69812 0.38144
 C2140 C 0.32901 0.67686 0.37980
 C2141 C 0.31926 0.66601 0.39453
 N2142 N 0.31106 0.67601 0.40978
 C2143 C 0.30215 0.70635 0.42838
 N2144 N 0.28686 0.69656 0.43679
 C2145 C 0.27673 0.70468 0.45189
 C2146 C 0.28188 0.72380 0.45948
 C2147 C 0.29786 0.73396 0.45131
 C2148 C 0.30802 0.72531 0.43580
 H2149 H 0.33707 0.70718 0.37021
 H2150 H 0.31819 0.64959 0.39399
 H2151 H 0.26461 0.69623 0.45786
 H2152 H 0.30243 0.74866 0.45680
 H2153 H 0.32228 0.72446 0.39788
 H2154 H 0.32042 0.73334 0.42991
 C2155 C 0.31238 0.18891 0.91276
 C2156 C 0.31401 0.16773 0.91060
 C2157 C 0.32287 0.15980 0.89397
 C2158 C 0.33021 0.17283 0.87948
 C2159 C 0.32873 0.19391 0.88245
 N2160 N 0.31997 0.20129 0.89874
 C2161 C 0.30251 0.19825 0.92971
 N2162 N 0.30713 0.21770 0.93478
 C2163 C 0.29813 0.22763 0.94962
 C2164 C 0.28322 0.21803 0.96017
 C2165 C 0.27823 0.19798 0.95520
 C2166 C 0.28781 0.18805 0.94004
 H2167 H 0.32411 0.14345 0.89252
 H2168 H 0.33407 0.20454 0.87163
 H2169 H 0.30237 0.24312 0.95288
 H2170 H 0.26674 0.19003 0.96285
 H2171 H 0.30873 0.15735 0.92167
 H2172 H 0.28326 0.17282 0.93614
 C2173 C 0.80679 0.70438 0.91132
 C2174 C 0.81557 0.71518 0.89598
 C2175 C 0.82473 0.70456 0.88099
 C2176 C 0.82523 0.68320 0.88117
 C2177 C 0.81609 0.67299 0.89669
 N2178 N 0.80720 0.68367 0.91110
 C2179 C 0.79653 0.71483 0.92740
 N2180 N 0.78204 0.70477 0.93688
 C2181 C 0.77178 0.71338 0.95164
 C2182 C 0.77599 0.73330 0.95778
 C2183 C 0.79111 0.74383 0.94847
 C2184 C 0.80140 0.73467 0.93331
 H2185 H 0.83111 0.71309 0.86906
 H2186 H 0.81622 0.65655 0.89752
 H2187 H 0.76035 0.70464 0.95851
 H2188 H 0.79494 0.75916 0.95283
 H2189 H 0.81501 0.73160 0.89522
 H2190 H 0.81318 0.74299 0.92655
 C2191 C 0.80924 0.19582 0.41217
 C2192 C 0.81118 0.17459 0.41142
 C2193 C 0.82078 0.16568 0.39570
 C2194 C 0.82851 0.17779 0.38069
 C2195 C 0.82672 0.19901 0.38227
 N2196 N 0.81727 0.20735 0.39773
 C2197 C 0.79871 0.20603 0.42821
 N2198 N 0.80349 0.22553 0.43294
 C2199 C 0.79417 0.23600 0.44723
 C2200 C 0.77883 0.22692 0.45757
 C2201 C 0.77355 0.20690 0.45281
 C2202 C 0.78343 0.19641 0.43820
 H2203 H 0.82225 0.14929 0.39537
 H2204 H 0.83237 0.20896 0.37101
 H2205 H 0.79864 0.25147 0.45033
 H2206 H 0.76173 0.19934 0.46032
 H2207 H 0.80558 0.16491 0.42291
 H2208 H 0.77878 0.18116 0.43450
 C2209 C 0.69277 0.31188 0.40733
 C2210 C 0.68446 0.30002 0.39248
 C2211 C 0.67615 0.30949 0.37636
 C2212 C 0.67597 0.33080 0.37491
 C2213 C 0.68477 0.34213 0.38990
 N2214 N 0.69287 0.33252 0.40549
 C2215 C 0.70190 0.30237 0.42458
 N2216 N 0.71713 0.31188 0.43339
 C2217 C 0.72662 0.30355 0.44885
 C2218 C 0.72086 0.28455 0.45631
 C2219 C 0.70483 0.27481 0.44778
 C2220 C 0.69533 0.28365 0.43198
 H2221 H 0.67011 0.30009 0.36488
 H2222 H 0.68495 0.35858 0.38941
 H2223 H 0.73879 0.31168 0.45511
 H2224 H 0.69977 0.26023 0.45316
 H2225 H 0.68473 0.28357 0.39303
 H2226 H 0.68293 0.27592 0.42574
 C2227 C 0.68376 0.81551 0.91220
 C2228 C 0.68216 0.83667 0.90980
 C2229 C 0.67331 0.84444 0.89310
 C2230 C 0.66587 0.83127 0.87881
 C2231 C 0.66707 0.81022 0.88212
 N2232 N 0.67593 0.80299 0.89844
 C2233 C 0.69411 0.80642 0.92900
 N2234 N 0.68985 0.78697 0.93447
 C2235 C 0.69940 0.77736 0.94919
 C2236 C 0.71448 0.78729 0.95917
 C2237 C 0.71909 0.80733 0.95377
 C2238 C 0.70901 0.81691 0.93875
 H2239 H 0.67224 0.86078 0.89137
 H2240 H 0.66153 0.79952 0.87147
 H2241 H 0.69543 0.76186 0.95281
 H2242 H 0.73069 0.81555 0.96097
 H2243 H 0.68756 0.84718 0.92068
 H2244 H 0.71334 0.83211 0.93451
 C2245 C 0.19224 0.29901 0.91040
 C2246 C 0.18357 0.28710 0.89579
 C2247 C 0.17438 0.29655 0.88014
 C2248 C 0.17371 0.31786 0.87892
 C2249 C 0.18282 0.32923 0.89369
 N2250 N 0.19177 0.31966 0.90880
 C2251 C 0.20240 0.28965 0.92713
 N2252 N 0.21735 0.29989 0.93565
 C2253 C 0.22763 0.29199 0.95078
 C2254 C 0.22298 0.27268 0.95825
 C2255 C 0.20732 0.26208 0.94999
 C2256 C 0.19701 0.27049 0.93447
 H2257 H 0.16808 0.28714 0.86880
 H2258 H 0.18261 0.34569 0.89339
 H2259 H 0.23948 0.30077 0.95684
 H2260 H 0.20312 0.24721 0.95540
 H2261 H 0.18424 0.27066 0.89612
 H2262 H 0.18485 0.26213 0.92848
 C2263 C 0.19205 0.80953 0.41520
 C2264 C 0.19049 0.83074 0.41336
 C2265 C 0.18101 0.83897 0.39720
 C2266 C 0.17303 0.82618 0.38285
 C2267 C 0.17451 0.80505 0.38551
 N2268 N 0.18384 0.79740 0.40135
 C2269 C 0.20237 0.79986 0.43170
 N2270 N 0.19763 0.78044 0.43672
 C2271 C 0.20688 0.77022 0.45122
 C2272 C 0.22218 0.77948 0.46147
 C2273 C 0.22737 0.79949 0.45650
 C2274 C 0.21752 0.80973 0.44168
 H2275 H 0.17981 0.85534 0.39599
 H2276 H 0.16871 0.79460 0.37477
 H2277 H 0.20246 0.75477 0.45448
 H2278 H 0.23915 0.80716 0.46395
 H2279 H 0.19627 0.84092 0.42433
 H2280 H 0.22215 0.82493 0.43778
 C2281 C 0.69037 0.68952 0.58991
 C2282 C 0.67012 0.68844 0.59163
 C2283 C 0.66187 0.67995 0.60840
 C2284 C 0.67371 0.67256 0.62351
 C2285 C 0.69389 0.67364 0.62099
 N2286 N 0.70157 0.68192 0.60453
 C2287 C 0.70001 0.69872 0.57274
 N2288 N 0.71814 0.69240 0.56790
 C2289 C 0.72830 0.70069 0.55286
 C2290 C 0.72040 0.71667 0.54187
 C2291 C 0.70174 0.72348 0.54660
 C2292 C 0.69148 0.71452 0.56196
 H2293 H 0.64625 0.67903 0.60947
 H2294 H 0.70363 0.66839 0.63229
 H2295 H 0.74269 0.69505 0.54979
 H2296 H 0.69514 0.73583 0.53856
 H2297 H 0.66072 0.69381 0.58010
 H2298 H 0.67732 0.72036 0.56566
 C2299 C 0.68643 0.18569 0.09092
 C2300 C 0.66620 0.18505 0.09292
 C2301 C 0.65802 0.17670 0.10977
 C2302 C 0.66990 0.16898 0.12466
 C2303 C 0.69006 0.16937 0.12180
 N2304 N 0.69768 0.17761 0.10528
 C2305 C 0.69599 0.19512 0.07382
 N2306 N 0.71401 0.18874 0.06866
 C2307 C 0.72408 0.19728 0.05369
 C2308 C 0.71620 0.21358 0.04311
 C2309 C 0.69765 0.22044 0.04819
 C2310 C 0.68749 0.21124 0.06346
 H2311 H 0.64240 0.17626 0.11111
 H2312 H 0.69980 0.16373 0.13291
 H2313 H 0.73839 0.19159 0.05034
 H2314 H 0.69107 0.23304 0.04048
 H2315 H 0.65674 0.19076 0.08158
 H2316 H 0.67344 0.21717 0.06745
 C2317 C 0.19094 0.69125 0.08499
 C2318 C 0.18932 0.67006 0.08715
 C2319 C 0.18011 0.66202 0.10358
 C2320 C 0.17240 0.67498 0.11786
 C2321 C 0.17371 0.69608 0.11478
 N2322 N 0.18285 0.70355 0.09871
 C2323 C 0.20152 0.70064 0.06846
 N2324 N 0.19693 0.71990 0.06281
 C2325 C 0.20658 0.72978 0.04828
 C2326 C 0.22212 0.72034 0.03871
 C2327 C 0.22713 0.70052 0.04436
 C2328 C 0.21691 0.69064 0.05916
 H2329 H 0.17900 0.64566 0.10511
 H2330 H 0.16805 0.70665 0.12544
 H2331 H 0.20230 0.74509 0.04446
 H2332 H 0.23908 0.69269 0.03745
 H2333 H 0.19499 0.65974 0.07628
 H2334 H 0.22145 0.67559 0.06359
 C2335 C 0.18767 0.19832 0.59111
 C2336 C 0.17899 0.20999 0.60585
 C2337 C 0.17024 0.20028 0.62169
 C2338 C 0.17008 0.17896 0.62297
 C2339 C 0.17901 0.16786 0.60796
 N2340 N 0.18751 0.17768 0.59270
 C2341 C 0.19762 0.20785 0.57426
 N2342 N 0.21217 0.19754 0.56527
 C2343 C 0.22224 0.20546 0.54997
 C2344 C 0.21781 0.22491 0.54279
 C2345 C 0.20257 0.23561 0.55155
 C2346 C 0.19244 0.22716 0.56723
 H2347 H 0.16398 0.20949 0.63315
 H2348 H 0.17910 0.15140 0.60823
 H2349 H 0.23378 0.19660 0.54355
 H2350 H 0.19854 0.25059 0.54640
 H2351 H 0.17936 0.22644 0.60552
 H2352 H 0.18060 0.23562 0.57357
   
