data_POSCAR
  _audit_creation_date              2014-09-24
  _audit_creation_method            'ToBaCCo'
  _symmetry_space_group_name_H-M    'P1'
  _symmetry_Int_Tables_number       1
  _symmetry_cell_setting            triclinic
  loop_
  _symmetry_equiv_pos_as_xyz
 x,y,z
_cell_length_a 48.0236
_cell_length_b 48.7222
_cell_length_c 49.8541
_cell_angle_alpha 89.783200
_cell_angle_beta 89.516100
_cell_angle_gamma 89.397800
loop_
  _atom_site_label
  _atom_site_type_symbol
  _atom_site_fract_x
  _atom_site_fract_y
  _atom_site_fract_z
C1 C 0.40421 0.01176 0.30486
 H2 H 0.39411 0.03153 0.30233
 C3 C 0.41843 0.00561 0.32869
 H4 H 0.41948 0.02095 0.34428
 C5 C 0.41477 -0.03256 0.28791
 H6 H 0.41285 -0.04751 0.27206
 C7 C 0.42935 -0.03937 0.31103
 H8 H 0.43876 -0.05960 0.31268
 N9 N 0.40274 -0.00735 0.28508
 C10 C 0.39681 -0.00829 0.19771
 H11 H 0.37459 -0.00667 0.19465
 C12 C 0.41477 -0.00964 0.17554
 H13 H 0.40598 -0.00953 0.15565
 C14 C 0.43509 -0.00856 0.22734
 H15 H 0.44309 -0.00731 0.24747
 C16 C 0.45377 -0.00984 0.20577
 H17 H 0.47591 -0.01002 0.20968
 Zn18 Zn 0.38223 -0.00329 0.25288
 N19 N 0.40713 -0.00784 0.22306
 C20 C 0.37270 0.04822 0.22922
 N21 N 0.36409 0.03189 0.24983
 C22 C 0.34252 0.03990 0.26608
 C23 C 0.32801 0.06459 0.26099
 C24 C 0.35844 0.07243 0.22306
 C25 C 0.35292 -0.05103 0.23429
 C26 C 0.33772 -0.07501 0.23882
 C27 C 0.32922 -0.06001 0.28429
 C28 C 0.34369 -0.03601 0.27857
 N29 N 0.35592 -0.03225 0.25419
 H30 H 0.39038 0.04233 0.21700
 H31 H 0.33605 0.02684 0.28250
 H32 H 0.31041 0.07038 0.27353
 H33 H 0.36517 0.08455 0.20598
 H34 H 0.36332 -0.04830 0.21524
 H35 H 0.33645 -0.08977 0.22274
 H36 H 0.32082 -0.06273 0.30436
 H37 H 0.34678 -0.02114 0.29429
 C38 C 0.44370 -0.01019 0.17944
 C39 C 0.43125 -0.02030 0.33189
 C40 C 0.32657 -0.08040 0.26453
 C41 C 0.33555 0.08069 0.23870
 C42 C 0.08010 0.02729 0.71048
 H43 H 0.07580 0.04313 0.72510
 C44 C 0.06400 0.02591 0.68722
 H45 H 0.04686 0.04022 0.68436
 C46 C 0.10737 -0.01069 0.69607
 H47 H 0.12422 -0.02509 0.69948
 C48 C 0.09260 -0.01208 0.67213
 H49 H 0.09785 -0.02782 0.65759
 N50 N 0.10004 0.00788 0.71536
 C51 C 0.10193 -0.00228 0.80352
 H52 H 0.12306 -0.01007 0.80483
 C53 C 0.08641 0.00212 0.82698
 H54 H 0.09575 -0.00257 0.84615
 C55 C 0.06474 0.01425 0.77694
 H56 H 0.05594 0.01854 0.75760
 C57 C 0.04858 0.01923 0.79991
 H58 H 0.02776 0.02765 0.79776
 Zn59 Zn 0.11749 0.00378 0.74971
 N60 N 0.09148 0.00498 0.77916
 C61 C 0.14317 0.04670 0.77760
 N62 N 0.14441 0.03192 0.75450
 C63 C 0.16392 0.03753 0.73527
 C64 C 0.18328 0.05855 0.73917
 C65 C 0.16253 0.06702 0.78265
 C66 C 0.11537 -0.05230 0.74717
 C67 C 0.12462 -0.07917 0.74336
 C68 C 0.17193 -0.06392 0.74903
 C69 C 0.16176 -0.03698 0.75207
 N70 N 0.13392 -0.03173 0.75041
 H71 H 0.12717 0.04294 0.79235
 H72 H 0.16436 0.02578 0.71690
 H73 H 0.19871 0.06291 0.72381
 H74 H 0.16128 0.07824 0.80135
 H75 H 0.09336 -0.04750 0.74608
 H76 H 0.10958 -0.09507 0.73953
 H77 H 0.19416 -0.06787 0.74934
 H78 H 0.17608 -0.02026 0.75479
 C79 C 0.05968 0.01390 0.82537
 C80 C 0.06990 0.00557 0.66812
 C81 C 0.15319 -0.08515 0.74377
 C82 C 0.18284 0.07321 0.76336
 C83 C 0.59466 0.51328 0.19533
 H84 H 0.60452 0.53289 0.19822
 C85 C 0.58052 0.50793 0.17138
 H86 H 0.57934 0.52369 0.15606
 C87 C 0.58442 0.46872 0.21158
 H88 H 0.58635 0.45340 0.22724
 C89 C 0.56992 0.46268 0.18832
 H90 H 0.56064 0.44264 0.18635
 N91 N 0.59623 0.49369 0.21482
 C92 C 0.60197 0.49136 0.30221
 H93 H 0.62425 0.49229 0.30505
 C94 C 0.58425 0.48999 0.32452
 H95 H 0.59324 0.48952 0.34432
 C96 C 0.56342 0.49236 0.27289
 H97 H 0.55529 0.49400 0.25281
 C98 C 0.54495 0.49109 0.29464
 H99 H 0.52276 0.49138 0.29093
 Zn100 Zn 0.61629 0.49710 0.24724
 N101 N 0.59140 0.49252 0.27697
 C102 C 0.62595 0.54783 0.27169
 N103 N 0.63402 0.53203 0.25049
 C104 C 0.65485 0.54037 0.23367
 C105 C 0.66933 0.56466 0.23885
 C106 C 0.64023 0.57163 0.27794
 C107 C 0.64373 0.44786 0.26555
 C108 C 0.66038 0.42444 0.26183
 C109 C 0.67538 0.44288 0.21915
 C110 C 0.65878 0.46604 0.22382
 N111 N 0.64303 0.46802 0.24653
 H112 H 0.60873 0.54183 0.28431
 H113 H 0.66074 0.52798 0.21660
 H114 H 0.68637 0.57068 0.22581
 H115 H 0.63398 0.58331 0.29548
 H116 H 0.63035 0.44901 0.28297
 H117 H 0.65978 0.40819 0.27667
 H118 H 0.68687 0.44126 0.20042
 H119 H 0.65711 0.48166 0.20847
 C120 C 0.55529 0.49011 0.32088
 C121 C 0.56787 0.48230 0.16776
 C122 C 0.67586 0.42147 0.23803
 C123 C 0.66250 0.58005 0.26176
 C124 C 0.92368 0.52620 0.78363
 H125 H 0.92500 0.53932 0.76611
 C126 C 0.94081 0.53100 0.80561
 H127 H 0.95517 0.54798 0.80478
 C128 C 0.90377 0.48781 0.80548
 H129 H 0.89002 0.47046 0.80515
 C130 C 0.91955 0.49259 0.82836
 H131 H 0.91736 0.47874 0.84523
 N132 N 0.90609 0.50450 0.78366
 C133 C 0.89973 0.48668 0.69796
 H134 H 0.87741 0.48569 0.69539
 C135 C 0.91731 0.48498 0.67557
 H136 H 0.90821 0.48257 0.65597
 C137 C 0.93836 0.49159 0.72666
 H138 H 0.94664 0.49389 0.74656
 C139 C 0.95669 0.48998 0.70485
 H140 H 0.97886 0.49145 0.70830
 Zn141 Zn 0.88526 0.49780 0.75210
 N142 N 0.91035 0.49102 0.72281
 C143 C 0.86646 0.54276 0.72051
 N144 N 0.86338 0.53001 0.74468
 C145 C 0.84608 0.54078 0.76384
 C146 C 0.83059 0.56479 0.75869
 C147 C 0.85101 0.56623 0.71435
 C148 C 0.86691 0.44359 0.74190
 C149 C 0.85229 0.41944 0.74684
 C150 C 0.82857 0.44205 0.78359
 C151 C 0.84299 0.46607 0.77742
 N152 N 0.86230 0.46630 0.75727
 H153 H 0.88117 0.53517 0.70588
 H154 H 0.84460 0.53106 0.78329
 H155 H 0.81688 0.57306 0.77407
 H156 H 0.85376 0.57579 0.69486
 H157 H 0.88267 0.44367 0.72638
 H158 H 0.85684 0.40141 0.73488
 H159 H 0.81413 0.44187 0.80040
 H160 H 0.83979 0.48408 0.78966
 C161 C 0.94619 0.48744 0.67882
 C162 C 0.93884 0.51413 0.82849
 C163 C 0.83337 0.41833 0.76832
 C164 C 0.83280 0.57756 0.73349
 C165 C 0.21814 0.40627 0.97114
 H166 H 0.23509 0.40444 0.95680
 C167 C 0.19534 0.42331 0.96546
 H168 H 0.19516 0.43483 0.94684
 C169 C 0.19715 0.39217 1.01200
 H170 H 0.19740 0.37924 1.02964
 C171 C 0.17399 0.40915 1.00721
 H172 H 0.15690 0.40925 1.02149
 N173 N 0.21854 0.39086 0.99393
 C174 C 0.30340 0.36082 1.00738
 H175 H 0.29789 0.33960 1.01066
 C176 C 0.33074 0.36905 1.01130
 H177 H 0.34612 0.35402 1.01767
 C178 C 0.28982 0.40610 0.99538
 H179 H 0.27367 0.42047 0.98951
 C180 C 0.31727 0.41514 0.99851
 H181 H 0.32205 0.43655 0.99514
 Zn182 Zn 0.24744 0.36402 0.99697
 N183 N 0.28350 0.37927 0.99983
 C184 C 0.26820 0.34044 0.94858
 N185 N 0.24611 0.34203 0.96581
 C186 C 0.22254 0.32751 0.96153
 C187 C 0.22128 0.30902 0.94030
 C188 C 0.26746 0.32282 0.92654
 C189 C 0.24248 0.35258 1.05265
 C190 C 0.24210 0.33581 1.07553
 C191 C 0.24186 0.29612 1.04671
 C192 C 0.24218 0.31354 1.02451
 N193 N 0.24244 0.34126 1.02773
 H194 H 0.28653 0.35255 0.95207
 H195 H 0.20513 0.32952 0.97533
 H196 H 0.20273 0.29690 0.93765
 H197 H 0.28533 0.32135 0.91322
 H198 H 0.24355 0.37464 1.05474
 H199 H 0.24263 0.34523 1.09513
 H200 H 0.24216 0.27414 1.04353
 H201 H 0.24347 0.30467 1.00477
 C202 C 0.33800 0.39647 1.00688
 C203 C 0.17264 0.42458 0.98339
 C204 C 0.24214 0.30713 1.07262
 C205 C 0.24401 0.30642 0.92266
 C206 C 0.80368 0.13942 1.00062
 H207 H 0.79726 0.16056 0.99784
 C208 C 0.83164 0.13223 0.99777
 H209 H 0.84643 0.14816 0.99288
 C210 C 0.79170 0.09325 1.00965
 H211 H 0.77593 0.07805 1.01352
 C212 C 0.81978 0.08521 1.00787
 H213 H 0.82516 0.06376 1.01056
 N214 N 0.78427 0.12001 1.00592
 C215 C 0.70007 0.10323 0.98739
 H216 H 0.70014 0.11642 0.96992
 C217 C 0.67815 0.08483 0.99132
 H218 H 0.66185 0.08384 0.97653
 C219 C 0.72006 0.08995 1.02878
 H220 H 0.73599 0.09271 1.04372
 C221 C 0.69865 0.07138 1.03350
 H222 H 0.69859 0.05967 1.05200
 Zn223 Zn 0.74728 0.13378 1.00490
 N224 N 0.72034 0.10558 1.00616
 C225 C 0.74859 0.14095 0.94890
 N226 N 0.74558 0.15456 0.97258
 C227 C 0.74742 0.18237 0.97366
 C228 C 0.75375 0.19744 0.95053
 C229 C 0.75422 0.15533 0.92514
 C230 C 0.75892 0.15569 1.05620
 C231 C 0.75255 0.16929 1.08018
 C232 C 0.70869 0.18374 1.06115
 C233 C 0.71574 0.16960 1.03766
 N234 N 0.74052 0.15597 1.03559
 H235 H 0.74814 0.11876 0.94870
 H236 H 0.74598 0.19272 0.99277
 H237 H 0.75635 0.21944 0.95196
 H238 H 0.75749 0.14410 0.90666
 H239 H 0.77824 0.14424 1.05440
 H240 H 0.76744 0.16862 1.09634
 H241 H 0.68879 0.19434 1.06245
 H242 H 0.70124 0.16905 1.02118
 C243 C 0.67700 0.06898 1.01492
 C244 C 0.84015 0.10478 1.00119
 C245 C 0.72705 0.18342 1.08294
 C246 C 0.75776 0.18384 0.92600
 C247 C 0.28115 0.59373 0.47272
 H248 H 0.26559 0.59735 0.45760
 C249 C 0.30277 0.57522 0.46750
 H250 H 0.30302 0.56429 0.44862
 C251 C 0.30081 0.60531 0.51449
 H252 H 0.30063 0.61777 0.53233
 C253 C 0.32299 0.58687 0.51006
 H254 H 0.33928 0.58514 0.52483
 N255 N 0.28022 0.60815 0.49600
 C256 C 0.19915 0.62083 0.52228
 H257 H 0.20449 0.63708 0.53580
 C258 C 0.17575 0.60532 0.52808
 H259 H 0.16380 0.60967 0.54612
 C260 C 0.20769 0.59545 0.48261
 H261 H 0.22021 0.59142 0.46500
 C262 C 0.18383 0.57972 0.48739
 H263 H 0.17841 0.56357 0.47358
 Zn264 Zn 0.25019 0.63395 0.49835
 N265 N 0.21542 0.61504 0.50049
 C266 C 0.23393 0.65566 0.44684
 N267 N 0.25308 0.65569 0.46682
 C268 C 0.27738 0.66949 0.46411
 C269 C 0.28343 0.68379 0.44054
 C270 C 0.23928 0.66959 0.42268
 C271 C 0.25523 0.64499 0.55420
 C272 C 0.25025 0.66038 0.57743
 C273 C 0.23969 0.69966 0.54954
 C274 C 0.24534 0.68369 0.52686
 N275 N 0.25241 0.65670 0.52948
 H276 H 0.21486 0.64431 0.44933
 H277 H 0.29239 0.66885 0.48016
 H278 H 0.30309 0.69437 0.43882
 H279 H 0.22398 0.66912 0.40689
 H280 H 0.25927 0.62319 0.55594
 H281 H 0.25153 0.65038 0.59681
 H282 H 0.23306 0.72081 0.54697
 H283 H 0.24225 0.69243 0.50713
 C284 C 0.16823 0.58409 0.51090
 C285 C 0.32416 0.57164 0.48618
 C286 C 0.24157 0.68788 0.57521
 C287 C 0.26448 0.68370 0.41926
 C288 C 0.71890 0.89849 0.47319
 H289 H 0.73394 0.89584 0.45711
 C290 C 0.69254 0.90941 0.46759
 H291 H 0.68775 0.91572 0.44728
 C292 C 0.70580 0.89089 0.51850
 H293 H 0.71026 0.88226 0.53794
 C294 C 0.67941 0.90234 0.51391
 H295 H 0.66420 0.90277 0.53007
 N296 N 0.72472 0.88856 0.49807
 C297 C 0.81142 0.86181 0.50931
 H298 H 0.80640 0.84054 0.51301
 C299 C 0.83859 0.87069 0.51296
 H300 H 0.85431 0.85609 0.51949
 C301 C 0.79674 0.90660 0.49676
 H302 H 0.78018 0.92049 0.49078
 C303 C 0.82405 0.91629 0.49958
 H304 H 0.82836 0.93774 0.49589
 Zn305 Zn 0.75530 0.86343 0.50022
 N306 N 0.79103 0.87973 0.50175
 C307 C 0.77403 0.83975 0.45069
 N308 N 0.75305 0.84125 0.46918
 C309 C 0.72889 0.82742 0.46581
 C310 C 0.72574 0.80994 0.44403
 C311 C 0.77136 0.82310 0.42804
 C312 C 0.75300 0.85224 0.55608
 C313 C 0.75100 0.83578 0.57907
 C314 C 0.74766 0.79607 0.55049
 C315 C 0.74960 0.81320 0.52819
 N316 N 0.75172 0.84082 0.53123
 H317 H 0.79281 0.85141 0.45348
 H318 H 0.71230 0.82951 0.48050
 H319 H 0.70664 0.79852 0.44201
 H320 H 0.78825 0.82178 0.41356
 H321 H 0.75571 0.87416 0.55802
 H322 H 0.75204 0.84525 0.59862
 H323 H 0.74601 0.77415 0.54746
 H324 H 0.75002 0.80415 0.50850
 C325 C 0.84523 0.89821 0.50820
 C326 C 0.67217 0.91066 0.48791
 C327 C 0.74825 0.80727 0.57634
 C328 C 0.74714 0.80762 0.42490
 C329 C -0.00127 0.29620 0.41209
 H330 H 0.01572 0.28419 0.42032
 C331 C -0.00790 0.32180 0.42296
 H332 H 0.00404 0.32918 0.43971
 C333 C -0.03680 0.30124 0.37975
 H334 H -0.04836 0.29316 0.36319
 C335 C -0.04420 0.32687 0.39002
 H336 H -0.06106 0.33833 0.38082
 N337 N -0.01463 0.28719 0.38989
 C338 C 0.01633 0.20390 0.39612
 H339 H 0.03284 0.20334 0.38134
 C340 C 0.01162 0.18080 0.41220
 H341 H 0.02503 0.16301 0.40965
 C342 C -0.02182 0.22726 0.41640
 H343 H -0.03549 0.24501 0.41727
 C344 C -0.02707 0.20486 0.43304
 H345 H -0.04450 0.20607 0.44693
 Zn346 Zn -0.00008 0.25534 0.37274
 N347 N -0.00064 0.22635 0.39818
 C348 C 0.05059 0.24322 0.34549
 N349 N 0.03663 0.26247 0.36020
 C350 C 0.04865 0.28686 0.36619
 C351 C 0.07623 0.29184 0.35908
 C352 C 0.07823 0.24751 0.33764
 C353 C -0.03479 0.22010 0.34471
 C354 C -0.05553 0.21315 0.32676
 C355 C -0.05115 0.25783 0.30607
 C356 C -0.02962 0.26358 0.32390
 N357 N -0.02307 0.24536 0.34371
 H358 H 0.04032 0.22445 0.33998
 H359 H 0.03709 0.30263 0.37661
 H360 H 0.08551 0.31118 0.36454
 H361 H 0.08919 0.23168 0.32648
 H362 H -0.02903 0.20561 0.36016
 H363 H -0.06545 0.19337 0.32874
 H364 H -0.05757 0.27315 0.29153
 H365 H -0.01955 0.28333 0.32317
 C366 C -0.01074 0.18087 0.43063
 C367 C -0.02889 0.33792 0.41115
 C368 C -0.06481 0.23258 0.30800
 C369 C 0.09147 0.27192 0.34494
 C370 C 0.00434 0.69623 0.12624
 H371 H 0.01706 0.70304 0.14262
 C372 C 0.00154 0.66820 0.12178
 H373 H 0.01267 0.65360 0.13427
 C374 C -0.02729 0.70654 0.09125
 H375 H -0.03978 0.72147 0.08054
 C376 C -0.02984 0.67869 0.08541
 H377 H -0.04360 0.67227 0.06957
 N378 N -0.00981 0.71479 0.11091
 C379 C 0.00458 0.80230 0.10008
 H380 H 0.00770 0.80640 0.12114
 C381 C 0.00391 0.82400 0.08190
 H382 H 0.00700 0.84457 0.08929
 C383 C -0.00545 0.77056 0.06566
 H384 H -0.00941 0.74982 0.05943
 C385 C -0.00669 0.79182 0.04676
 H386 H -0.01162 0.78716 0.02613
 Zn387 Zn -0.00850 0.75211 0.12071
 N388 N -0.00109 0.77637 0.09196
 C389 C 0.04616 0.75124 0.13806
 N390 N 0.01965 0.75692 0.14621
 C391 C 0.01391 0.76609 0.17138
 C392 C 0.03540 0.76934 0.18972
 C393 C 0.06824 0.75404 0.15577
 C394 C -0.05936 0.78108 0.12274
 C395 C -0.08647 0.78655 0.13136
 C396 C -0.08123 0.75118 0.16515
 C397 C -0.05416 0.74636 0.15574
 N398 N -0.04382 0.76126 0.13492
 H399 H 0.05005 0.74430 0.11777
 H400 H -0.00726 0.77100 0.17724
 H401 H 0.03049 0.77657 0.20974
 H402 H 0.08913 0.74931 0.14884
 H403 H -0.05111 0.79230 0.10581
 H404 H -0.09831 0.80229 0.12094
 H405 H -0.08878 0.73874 0.18162
 H406 H -0.04147 0.73038 0.16474
 C407 C -0.00292 0.81903 0.05506
 C408 C -0.01548 0.65931 0.10101
 C409 C -0.09806 0.77134 0.15268
 C410 C 0.06293 0.76311 0.18202
 C411 C 0.52246 0.22161 0.57507
 H412 H 0.53269 0.24063 0.57024
 C413 C 0.52491 0.19964 0.55740
 H414 H 0.53656 0.20230 0.53890
 C415 C 0.49639 0.19454 0.60560
 H416 H 0.48581 0.19247 0.62464
 C417 C 0.49834 0.17197 0.58849
 H418 H 0.48890 0.15285 0.59456
 N419 N 0.50818 0.21882 0.59856
 C420 C 0.53937 0.29609 0.61949
 H421 H 0.54795 0.28882 0.63819
 C422 C 0.54621 0.32218 0.61029
 H423 H 0.56024 0.33456 0.62195
 C424 C 0.50944 0.28961 0.58251
 H425 H 0.49443 0.27707 0.57229
 C426 C 0.51562 0.31567 0.57265
 H427 H 0.50561 0.32274 0.55451
 Zn428 Zn 0.50700 0.24860 0.62271
 N429 N 0.52065 0.28072 0.60600
 C430 C 0.52414 0.24849 0.67679
 N431 N 0.53065 0.24038 0.65144
 C432 C 0.55633 0.23028 0.64501
 C433 C 0.57724 0.22931 0.66420
 C434 C 0.54445 0.24784 0.69664
 C435 C 0.45740 0.27984 0.62761
 C436 C 0.43019 0.28573 0.63568
 C437 C 0.42961 0.24289 0.66015
 C438 C 0.45683 0.23764 0.65131
 N439 N 0.47007 0.25589 0.63502
 H440 H 0.50378 0.25707 0.68121
 H441 H 0.56099 0.22445 0.62454
 H442 H 0.59779 0.22217 0.65834
 H443 H 0.53929 0.25552 0.71644
 H444 H 0.46821 0.29466 0.61546
 H445 H 0.42049 0.30482 0.62933
 H446 H 0.41940 0.22800 0.67291
 H447 H 0.46752 0.21921 0.65784
 C448 C 0.53351 0.33261 0.58714
 C449 C 0.51285 0.17441 0.56406
 C450 C 0.41593 0.26714 0.65208
 C451 C 0.57164 0.23906 0.69016
 C452 C 0.49388 0.79517 0.91576
 H453 H 0.50795 0.78201 0.92690
 C454 C 0.48755 0.82146 0.92521
 H455 H 0.49662 0.82812 0.94384
 C456 C 0.46584 0.80266 0.87750
 H457 H 0.45769 0.79557 0.85869
 C458 C 0.45885 0.82898 0.88626
 H459 H 0.44536 0.84174 0.87404
 N460 N 0.48383 0.78668 0.89178
 C461 C 0.50393 0.69888 0.89365
 H462 H 0.51565 0.69653 0.87523
 C463 C 0.49985 0.67614 0.91029
 H464 H 0.50877 0.65656 0.90445
 C465 C 0.47731 0.72706 0.92303
 H466 H 0.46790 0.74674 0.92758
 C467 C 0.47266 0.70488 0.94020
 H468 H 0.46008 0.70793 0.95809
 Zn469 Zn 0.49713 0.75349 0.87615
 N470 N 0.49282 0.72375 0.90030
 C471 C 0.54734 0.73935 0.84887
 N472 N 0.53512 0.75756 0.86607
 C473 C 0.54959 0.77914 0.87586
 C474 C 0.57752 0.78257 0.86918
 C475 C 0.57529 0.74222 0.84135
 C476 C 0.45104 0.73356 0.84967
 C477 C 0.43080 0.73389 0.82983
 C478 C 0.46175 0.76046 0.80169
 C479 C 0.48148 0.75958 0.82209
 N480 N 0.47546 0.74687 0.84573
 H481 H 0.53530 0.72278 0.84070
 H482 H 0.53970 0.79390 0.88889
 H483 H 0.58860 0.79983 0.87739
 H484 H 0.58470 0.72747 0.82777
 H485 H 0.44657 0.72410 0.86886
 H486 H 0.41115 0.72399 0.83387
 H487 H 0.46628 0.77182 0.78349
 H488 H 0.50080 0.77059 0.81979
 C489 C 0.48393 0.67900 0.93388
 C490 C 0.47049 0.83899 0.90992
 C491 C 0.43563 0.74839 0.80589
 C492 C 0.59072 0.76400 0.85177
 C493 C -0.22209 0.67460 0.97119
 H494 H -0.20845 0.67428 0.98835
 C495 C -0.21643 0.69206 0.94951
 H496 H -0.19832 0.70509 0.94993
 C497 C -0.26295 0.65888 0.95008
 H498 H -0.28166 0.64684 0.95066
 C499 C -0.25754 0.67524 0.92765
 H500 H -0.27200 0.67530 0.91109
 N501 N -0.24534 0.65883 0.97133
 C502 C -0.26642 0.65245 1.05666
 H503 H -0.26754 0.63049 1.05975
 C504 C -0.27013 0.67013 1.07843
 H505 H -0.27394 0.66129 1.09802
 C506 C -0.26030 0.69011 1.02718
 H507 H -0.25688 0.69798 1.00719
 C508 C -0.26395 0.70854 1.04830
 H509 H -0.26284 0.73033 1.04409
 Zn510 Zn -0.25378 0.63790 1.00262
 N511 N -0.26082 0.66257 1.03173
 C512 C -0.21056 0.61561 1.03509
 N513 N -0.22250 0.61452 1.01045
 C514 C -0.21188 0.59758 0.99113
 C515 C -0.18891 0.58046 0.99652
 C516 C -0.18813 0.59848 1.04148
 C517 C -0.30964 0.62131 1.01197
 C518 C -0.33460 0.60820 1.00622
 C519 C -0.31184 0.58620 0.96856
 C520 C -0.28703 0.59897 0.97559
 N521 N -0.28648 0.61678 0.99657
 H522 H -0.21810 0.62986 1.04996
 H523 H -0.22097 0.59757 0.97138
 H524 H -0.18080 0.56707 0.98096
 H525 H -0.17922 0.59962 1.06133
 H526 H -0.30927 0.63585 1.02820
 H527 H -0.35296 0.61259 1.01828
 H528 H -0.31225 0.57301 0.95113
 H529 H -0.26862 0.59585 0.96335
 C530 C -0.26834 0.69869 1.07453
 C531 C -0.23431 0.69239 0.92743
 C532 C -0.33600 0.59099 0.98388
 C533 C -0.17702 0.58060 1.02214
 C534 C -0.23136 0.34458 0.55672
 H535 H -0.21281 0.35686 0.55541
 C536 C -0.23710 0.33079 0.57950
 H537 H -0.22304 0.33231 0.59625
 C538 C -0.27156 0.32734 0.53500
 H539 H -0.28552 0.32694 0.51810
 C540 C -0.27823 0.31124 0.55922
 H541 H -0.29676 0.29876 0.55901
 N542 N -0.24993 0.34318 0.53422
 C543 C -0.26629 0.33915 0.45266
 H544 H -0.28579 0.35020 0.45402
 C545 C -0.26050 0.32321 0.42986
 H546 H -0.27556 0.32254 0.41386
 C547 C -0.22336 0.32565 0.47189
 H548 H -0.20866 0.32714 0.48814
 C549 C -0.21699 0.30917 0.44981
 H550 H -0.19747 0.29785 0.44939
 Zn551 Zn -0.24874 0.36545 0.50259
 N552 N -0.24724 0.34091 0.47266
 C553 C -0.20796 0.39248 0.47403
 N554 N -0.21727 0.38869 0.49961
 C555 C -0.20680 0.40360 0.52022
 C556 C -0.18519 0.42224 0.51549
 C557 C -0.18704 0.41118 0.46838
 C558 C -0.28588 0.39807 0.52965
 C559 C -0.30737 0.41672 0.53473
 C560 C -0.31734 0.41780 0.48735
 C561 C -0.29487 0.39963 0.48308
 N562 N -0.28032 0.38935 0.50429
 H563 H -0.21740 0.38163 0.45766
 H564 H -0.21559 0.40161 0.54014
 H565 H -0.17698 0.43398 0.53198
 H566 H -0.18017 0.41383 0.44780
 H567 H -0.27330 0.39074 0.54611
 H568 H -0.31119 0.42297 0.55527
 H569 H -0.32887 0.42537 0.47025
 H570 H -0.28884 0.39437 0.46285
 C571 C -0.23529 0.30838 0.42808
 C572 C -0.26229 0.31322 0.58122
 C573 C -0.32391 0.42653 0.51358
 C574 C -0.17532 0.42628 0.48918
 C575 C 0.25116 -0.18401 0.02692
 H576 H 0.25203 -0.19368 0.00744
 C577 C 0.24484 -0.19897 0.04865
 H578 H 0.24128 -0.22076 0.04644
 C579 C 0.25369 -0.14273 0.05231
 H580 H 0.25446 -0.12059 0.05332
 C581 C 0.24851 -0.15875 0.07711
 H582 H 0.24723 -0.14787 0.09597
 N583 N 0.25492 -0.15486 0.02906
 C584 C 0.28438 -0.16894 -0.03552
 H585 H 0.29893 -0.16811 -0.01910
 C586 C 0.29126 -0.18365 -0.05870
 H587 H 0.31114 -0.19429 -0.05984
 C588 C 0.24107 -0.15546 -0.05410
 H589 H 0.22172 -0.14405 -0.05236
 C590 C 0.24726 -0.16968 -0.07778
 H591 H 0.23227 -0.16942 -0.09386
 Zn592 Zn 0.25302 -0.13329 -0.00281
 N593 N 0.25962 -0.15527 -0.03361
 C594 C 0.29991 -0.10232 0.01511
 N595 N 0.27989 -0.10498 -0.00386
 C596 C 0.27988 -0.08896 -0.02624
 C597 C 0.30049 -0.06938 -0.03028
 C598 C 0.32100 -0.08293 0.01185
 C599 C 0.20912 -0.09233 -0.00735
 C600 C 0.18115 -0.08391 -0.00565
 C601 C 0.16867 -0.13077 0.00444
 C602 C 0.19651 -0.13835 0.00162
 N603 N 0.21617 -0.11920 -0.00364
 H604 H 0.30020 -0.11584 0.03233
 H605 H 0.26421 -0.09197 -0.04137
 H606 H 0.30025 -0.05722 -0.04851
 H607 H 0.33700 -0.08157 0.02692
 H608 H 0.22507 -0.07732 -0.01115
 H609 H 0.17605 -0.06240 -0.00832
 H610 H 0.15365 -0.14651 0.00930
 H611 H 0.20262 -0.15958 0.00435
 C612 C 0.27273 -0.18392 -0.08034
 C613 C 0.24300 -0.18575 0.07545
 C614 C 0.16055 -0.10321 0.00100
 C615 C 0.32166 -0.06639 -0.01130
 C616 C 0.26693 1.19172 0.47299
 H617 H 0.26655 1.19942 0.49327
 C618 C 0.27086 1.20999 0.45171
 H619 H 0.27321 1.23163 0.45590
 C620 C 0.26414 1.15439 0.44286
 H621 H 0.26104 1.13269 0.43958
 C622 C 0.26816 1.17192 0.42099
 H623 H 0.26815 1.16337 0.40101
 N624 N 0.26291 1.16457 0.46822
 C625 C 0.26771 1.15978 0.54906
 H626 H 0.28520 1.14578 0.54778
 C627 C 0.26462 1.17629 0.57168
 H628 H 0.27955 1.17446 0.58777
 C629 C 0.22783 1.18036 0.52934
 H630 H 0.21366 1.18183 0.51263
 C631 C 0.22454 1.19794 0.55123
 H632 H 0.20768 1.21287 0.55147
 Zn633 Zn 0.25372 1.14056 0.49708
 N634 N 0.24932 1.16193 0.52852
 C635 C 0.30602 1.11562 0.48516
 N636 N 0.28344 1.11455 0.50186
 C637 C 0.28352 1.09787 0.52385
 C638 C 0.30761 1.08322 0.53083
 C639 C 0.33019 1.10063 0.49094
 C640 C 0.20347 1.13451 0.46938
 C641 C 0.17705 1.12463 0.46383
 C642 C 0.18149 1.09312 0.50101
 C643 C 0.20813 1.10355 0.50577
 N644 N 0.21872 1.12376 0.48984
 H645 H 0.30602 1.12918 0.46802
 H646 H 0.26570 1.09763 0.53720
 H647 H 0.30788 1.07131 0.54922
 H648 H 0.34826 1.10269 0.47798
 H649 H 0.21132 1.15144 0.45767
 H650 H 0.16545 1.13372 0.44745
 H651 H 0.17346 1.07706 0.51387
 H652 H 0.22008 1.09573 0.52243
 C653 C 0.24302 1.19581 0.57274
 C654 C 0.27093 1.20023 0.42528
 C655 C 0.16561 1.10374 0.47973
 C656 C 0.33146 1.08499 0.51453
 C657 C 0.15778 0.47219 0.27439
 H658 H 0.15542 0.48856 0.28881
 C659 C 0.17543 0.44997 0.28007
 H660 H 0.18701 0.44992 0.29862
 C661 C 0.14381 0.45132 0.23394
 H662 H 0.13062 0.45120 0.21655
 C663 C 0.16137 0.42873 0.23878
 H664 H 0.16168 0.41187 0.22472
 N665 N 0.14218 0.47244 0.25175
 C666 C 0.11511 0.55281 0.22649
 H667 H 0.09761 0.54499 0.21558
 C668 C 0.12293 0.57991 0.22227
 H669 H 0.11156 0.59217 0.20779
 C670 C 0.15012 0.54680 0.25916
 H671 H 0.16048 0.53392 0.27374
 C672 C 0.15861 0.57412 0.25562
 H673 H 0.17566 0.58182 0.26738
 Zn674 Zn 0.11411 0.50037 0.24901
 N675 N 0.12874 0.53661 0.24451
 C676 C 0.09005 0.52044 0.29792
 N677 N 0.09269 0.49863 0.28107
 C678 C 0.07961 0.47455 0.28633
 C679 C 0.06175 0.47223 0.30841
 C680 C 0.07305 0.51868 0.32080
 C681 C 0.10130 0.49253 0.19402
 C682 C 0.08392 0.49065 0.17173
 C683 C 0.04424 0.49089 0.20182
 C684 C 0.06235 0.49268 0.22341
 N685 N 0.09035 0.49352 0.21928
 H686 H 0.10081 0.53931 0.29347
 H687 H 0.08234 0.45744 0.27276
 H688 H 0.05081 0.45319 0.31186
 H689 H 0.07075 0.53627 0.33387
 H690 H 0.12359 0.49406 0.19114
 H691 H 0.09343 0.49030 0.15200
 H692 H 0.02206 0.49075 0.20600
 H693 H 0.05378 0.49455 0.24339
 C694 C 0.14489 0.59102 0.23688
 C695 C 0.17704 0.42761 0.26241
 C696 C 0.05477 0.49029 0.17536
 C697 C 0.05824 0.49450 0.32585
 C698 C -0.11465 1.04967 0.25090
 H699 H -0.09258 1.04516 0.25175
 C700 C -0.12425 1.07627 0.25564
 H701 H -0.10946 1.09225 0.26001
 C702 C -0.16088 1.03392 0.24595
 H703 H -0.17511 1.01714 0.24332
 C704 C -0.17138 1.06057 0.24984
 H705 H -0.19367 1.06418 0.25000
 N706 N -0.13293 1.02900 0.24693
 C707 C -0.14633 0.94536 0.26477
 H708 H -0.13359 0.94535 0.28253
 C709 C -0.16424 0.92339 0.26004
 H710 H -0.16534 0.90682 0.27450
 C711 C -0.15890 0.96590 0.22338
 H712 H -0.15608 0.98218 0.20882
 C713 C -0.17689 0.94448 0.21786
 H714 H -0.18811 0.94469 0.19911
 Zn715 Zn -0.11663 0.99353 0.24766
 N716 N -0.14389 0.96591 0.24635
 C717 C -0.10818 0.99381 0.30368
 N718 N -0.09505 0.99253 0.27939
 C719 C -0.06715 0.99661 0.27711
 C720 C -0.05156 1.00336 0.29960
 C721 C -0.09320 0.99986 0.32686
 C722 C -0.07920 0.96388 0.21558
 C723 C -0.06477 0.95675 0.19215
 C724 C -0.08119 0.99891 0.17174
 C725 C -0.09499 1.00539 0.19574
 N726 N -0.09393 0.98781 0.21694
 H727 H -0.13055 0.99162 0.30485
 H728 H -0.05727 0.99659 0.25756
 H729 H -0.02960 1.00768 0.29721
 H730 H -0.10410 1.00171 0.34587
 H731 H -0.07919 0.95003 0.23259
 H732 H -0.05340 0.93744 0.19158
 H733 H -0.08282 1.01316 0.15514
 H734 H -0.10736 1.02402 0.19709
 C735 C -0.17938 0.92258 0.23603
 C736 C -0.15291 1.08182 0.25559
 C737 C -0.06598 0.97411 0.16956
 C738 C -0.06468 1.00557 0.32476
 C739 C 0.34480 0.53657 -0.23154
 H740 H 0.34212 0.52081 -0.21642
 C741 C 0.33518 0.56314 -0.22659
 H742 H 0.32466 0.56766 -0.20779
 C743 C 0.36421 0.55046 -0.27327
 H744 H 0.37696 0.54588 -0.29065
 C745 C 0.35412 0.57726 -0.26947
 H746 H 0.35877 0.59299 -0.28420
 N747 N 0.35990 0.53095 -0.25407
 C748 C 0.36238 0.44099 -0.24102
 H749 H 0.38141 0.43867 -0.22977
 C750 C 0.34591 0.41924 -0.24453
 H751 H 0.35182 0.39974 -0.23569
 C752 C 0.33326 0.47003 -0.26757
 H753 H 0.32891 0.48952 -0.27720
 C754 C 0.31508 0.44645 -0.27280
 H755 H 0.29735 0.44955 -0.28580
 Zn756 Zn 0.38002 0.49743 -0.25222
 N757 N 0.35529 0.46718 -0.25276
 C758 C 0.39479 0.48718 -0.19660
 N759 N 0.40019 0.50105 -0.21980
 C760 C 0.41805 0.52253 -0.22028
 C761 C 0.43168 0.53057 -0.19712
 C762 C 0.40810 0.49458 -0.17281
 C763 C 0.39454 0.49519 -0.30707
 C764 C 0.41236 0.49360 -0.32933
 C765 C 0.45110 0.48759 -0.29923
 C766 C 0.43257 0.48943 -0.27758
 N767 N 0.40492 0.49378 -0.28180
 H768 H 0.37931 0.47129 -0.19612
 H769 H 0.42111 0.53397 -0.23869
 H770 H 0.44564 0.54786 -0.19812
 H771 H 0.40329 0.48355 -0.15450
 H772 H 0.37239 0.49802 -0.30993
 H773 H 0.40363 0.49519 -0.34921
 H774 H 0.47307 0.48447 -0.29539
 H775 H 0.44037 0.48734 -0.25741
 C776 C 0.32096 0.42172 -0.26191
 C777 C 0.34047 0.58393 -0.24536
 C778 C 0.44113 0.49005 -0.32551
 C779 C 0.42668 0.51672 -0.17290
 C780 C 0.62752 -0.05009 -0.22051
 H781 H 0.61009 -0.04359 -0.20827
 C782 C 0.64079 -0.07333 -0.21414
 H783 H 0.63391 -0.08476 -0.19667
 C784 C 0.65562 -0.04306 -0.25950
 H785 H 0.66188 -0.03083 -0.27661
 C786 C 0.67006 -0.06966 -0.25395
 H787 H 0.68649 -0.07644 -0.26745
 N788 N 0.63609 -0.03402 -0.24334
 C789 C 0.64585 0.04995 -0.22921
 H790 H 0.63502 0.04756 -0.21036
 C791 C 0.66002 0.07442 -0.23427
 H792 H 0.66020 0.08995 -0.21882
 C793 C 0.65675 0.03380 -0.27281
 H794 H 0.65459 0.01832 -0.28811
 C795 C 0.67016 0.05828 -0.27906
 H796 H 0.67878 0.06091 -0.29904
 Zn797 Zn 0.61808 0.00117 -0.24715
 N798 N 0.64409 0.03038 -0.24856
 C799 C 0.60310 0.00702 -0.19229
 N800 N 0.59290 0.00589 -0.21766
 C801 C 0.56498 0.00541 -0.22205
 C802 C 0.54621 0.00572 -0.20052
 C803 C 0.58506 0.00743 -0.17018
 C804 C 0.58595 0.02983 -0.28300
 C805 C 0.57260 0.03665 -0.30681
 C806 C 0.58448 -0.00831 -0.32398
 C807 C 0.59752 -0.01442 -0.29952
 N808 N 0.59804 0.00471 -0.27969
 H809 H 0.62535 0.00628 -0.18915
 H810 H 0.55716 0.00374 -0.24222
 H811 H 0.52410 0.00477 -0.20447
 H812 H 0.59380 0.00766 -0.15027
 H813 H 0.58711 0.04481 -0.26710
 H814 H 0.56329 0.05687 -0.30888
 H815 H 0.58433 -0.02364 -0.33961
 H816 H 0.60764 -0.03412 -0.29661
 C817 C 0.67131 0.07937 -0.25993
 C818 C 0.66360 -0.08394 -0.23154
 C819 C 0.57191 0.01763 -0.32782
 C820 C 0.55619 0.00638 -0.17416
 C821 C 0.04729 0.24716 0.84278
 H822 H 0.03467 0.26286 0.83326
 C823 C 0.07344 0.24047 0.83216
 H824 H 0.08053 0.25096 0.81426
 C825 C 0.05359 0.21524 0.87825
 H826 H 0.04609 0.20567 0.89644
 C827 C 0.07980 0.20788 0.86829
 H828 H 0.09206 0.19267 0.87897
 N829 N 0.03825 0.23514 0.86590
 C830 C -0.05053 0.25695 0.86580
 H831 H -0.05357 0.26631 0.88518
 C832 C -0.07298 0.25531 0.84822
 H833 H -0.09299 0.26375 0.85422
 C834 C -0.02113 0.23370 0.83480
 H835 H -0.00122 0.22450 0.82985
 C836 C -0.04287 0.23165 0.81668
 H837 H -0.03911 0.22131 0.79779
 Zn838 Zn 0.00508 0.24803 0.88287
 N839 N -0.02512 0.24649 0.85872
 C840 C -0.00901 0.29738 0.91014
 N841 N 0.01060 0.28461 0.89462
 C842 C 0.03414 0.29788 0.88682
 C843 C 0.03782 0.32540 0.89305
 C844 C -0.00597 0.32494 0.91716
 C845 C -0.01566 0.20088 0.90649
 C846 C -0.01520 0.17921 0.92479
 C847 C 0.01176 0.20723 0.95469
 C848 C 0.01075 0.22844 0.93578
 N849 N -0.00220 0.22457 0.91198
 H850 H -0.02703 0.28624 0.91708
 H851 H 0.05017 0.28741 0.87554
 H852 H 0.05648 0.33566 0.88617
 H853 H -0.02205 0.33490 0.92906
 H854 H -0.02520 0.19814 0.88713
 H855 H -0.02514 0.16020 0.91948
 H856 H 0.02333 0.21011 0.97299
 H857 H 0.02194 0.24722 0.93927
 C858 C -0.06919 0.24255 0.82326
 C859 C 0.09033 0.22112 0.84542
 C860 C -0.00041 0.18187 0.94879
 C861 C 0.01749 0.33934 0.90809
 C862 C 0.45954 0.26368 0.14768
 H863 H 0.47116 0.28118 0.15441
 C864 C 0.43187 0.26059 0.15597
 H865 H 0.42229 0.27612 0.16859
 C866 C 0.45800 0.22181 0.12381
 H867 H 0.46808 0.20640 0.11163
 C868 C 0.43033 0.21811 0.13131
 H869 H 0.41960 0.19996 0.12463
 N870 N 0.47198 0.24455 0.13159
 C871 C 0.55863 0.26695 0.14108
 H872 H 0.56369 0.27123 0.12030
 C873 C 0.57915 0.26890 0.16055
 H874 H 0.59985 0.27512 0.15457
 C875 C 0.52573 0.25191 0.17355
 H876 H 0.50524 0.24419 0.17824
 C877 C 0.54560 0.25362 0.19368
 H878 H 0.53998 0.24760 0.21393
 Zn879 Zn 0.50926 0.24928 0.11933
 N880 N 0.53277 0.25802 0.14779
 C881 C 0.52368 0.27439 0.06982
 N882 N 0.51094 0.27813 0.09401
 C883 C 0.50026 0.30301 0.10119
 C884 C 0.50158 0.32522 0.08355
 C885 C 0.52549 0.29605 0.05155
 C886 C 0.54036 0.20017 0.11929
 C887 C 0.54693 0.17340 0.11156
 C888 C 0.51773 0.17954 0.07273
 C889 C 0.51175 0.20623 0.08117
 N890 N 0.52243 0.21574 0.10450
 H891 H 0.53301 0.25480 0.06481
 H892 H 0.49100 0.30581 0.12077
 H893 H 0.49295 0.34478 0.08982
 H894 H 0.53580 0.29270 0.03243
 H895 H 0.54851 0.20790 0.13787
 H896 H 0.56032 0.16098 0.12421
 H897 H 0.50817 0.17216 0.05462
 H898 H 0.49731 0.21887 0.06990
 C899 C 0.57293 0.26136 0.18710
 C900 C 0.41690 0.23767 0.14748
 C901 C 0.53484 0.16250 0.08851
 C902 C 0.51434 0.32186 0.05835
 C903 C -0.04036 0.75695 0.66028
 H904 H -0.02446 0.75902 0.67534
 C905 C -0.06717 0.75564 0.66767
 H906 H -0.07246 0.75641 0.68879
 C907 C -0.05150 0.75526 0.61377
 H908 H -0.04518 0.75484 0.59290
 C909 C -0.08114 0.75279 0.62092
 H910 H -0.09606 0.75062 0.60490
 N911 N -0.03269 0.75559 0.63239
 C912 C 0.05118 0.77240 0.64949
 H913 H 0.05232 0.78807 0.63414
 C914 C 0.07292 0.76945 0.66773
 H915 H 0.09028 0.78340 0.66664
 C916 C 0.02814 0.73401 0.66839
 H917 H 0.01120 0.71957 0.66771
 C918 C 0.04922 0.73053 0.68719
 H919 H 0.04807 0.71360 0.70127
 Zn920 Zn 0.00479 0.75316 0.62094
 N921 N 0.02965 0.75446 0.64987
 C922 C 0.00439 0.80818 0.60627
 N923 N 0.01138 0.78264 0.59743
 C924 C 0.02210 0.77850 0.57246
 C925 C 0.02646 0.80078 0.55532
 C926 C 0.00820 0.83101 0.58972
 C927 C -0.00956 0.70139 0.59881
 C928 C -0.00390 0.67495 0.58959
 C929 C 0.04528 0.68436 0.59222
 C930 C 0.03867 0.71096 0.60069
 N931 N 0.01160 0.71886 0.60414
 H932 H -0.00421 0.81075 0.62624
 H933 H 0.02727 0.75796 0.56584
 H934 H 0.03508 0.79715 0.53549
 H935 H 0.00263 0.85116 0.59720
 H936 H -0.03089 0.70740 0.60242
 H937 H -0.02103 0.66123 0.58594
 H938 H 0.06690 0.67809 0.59021
 H939 H 0.05514 0.72504 0.60554
 C940 C 0.07236 0.74788 0.68647
 C941 C -0.08895 0.75224 0.64691
 C942 C 0.02379 0.66604 0.58669
 C943 C 0.01940 0.82742 0.56388
 C944 C 0.53346 0.74994 0.34127
 H945 H 0.51767 0.75160 0.32605
 C946 C 0.56145 0.74815 0.33372
 H947 H 0.56690 0.74807 0.31261
 C948 C 0.54564 0.74787 0.38724
 H949 H 0.53917 0.74769 0.40808
 C950 C 0.57377 0.74555 0.38060
 H951 H 0.58900 0.74368 0.39642
 N952 N 0.52613 0.74876 0.36764
 C953 C 0.44294 0.76914 0.35027
 H954 H 0.44178 0.78459 0.36574
 C955 C 0.42175 0.76749 0.33134
 H956 H 0.40469 0.78216 0.33202
 C957 C 0.46557 0.73004 0.33162
 H958 H 0.48210 0.71482 0.33266
 C959 C 0.44516 0.72791 0.31214
 H960 H 0.44640 0.71120 0.29791
 Zn961 Zn 0.48873 0.74729 0.37905
 N962 N 0.46403 0.75029 0.35024
 C963 C 0.49023 0.80149 0.39499
 N964 N 0.48327 0.77591 0.40346
 C965 C 0.47539 0.77087 0.42922
 C966 C 0.47464 0.79218 0.44781
 C967 C 0.48988 0.82336 0.41292
 C968 C 0.50269 0.69469 0.39961
 C969 C 0.49694 0.66828 0.40861
 C970 C 0.44778 0.67925 0.40715
 C971 C 0.45451 0.70581 0.39887
 N972 N 0.48160 0.71290 0.39503
 H973 H 0.49677 0.80469 0.37440
 H974 H 0.47039 0.75023 0.43550
 H975 H 0.46868 0.78779 0.46837
 H976 H 0.49580 0.84347 0.40579
 H977 H 0.52399 0.70015 0.39565
 H978 H 0.51402 0.65398 0.41177
 H979 H 0.42616 0.67361 0.40962
 H980 H 0.43811 0.72054 0.39458
 C981 C 0.42254 0.74633 0.31231
 C982 C 0.58185 0.74512 0.35355
 C983 C 0.46923 0.66024 0.41207
 C984 C 0.48233 0.81873 0.43980
 Zr985 Zr 0.01482 -0.03240 1.03091
 O986 O 0.04133 -0.03059 1.06458
 O987 O 0.00346 -0.07382 1.03114
 O988 O -0.00706 -0.03930 1.06716
 O989 O 0.06980 -0.03806 0.98576
 O990 O -0.04344 -0.00893 1.06556
 O991 O 0.05159 -0.05528 1.02467
 O992 O -0.02518 -0.07774 0.99519
 O993 O -0.02715 -0.03048 1.02014
 O994 O 0.01394 -0.04111 0.98994
 O995 O 0.00185 0.00769 1.04052
 O996 O 0.04139 -0.00353 1.01238
 Zr997 Zr -0.01647 0.03118 0.96799
 Zr998 Zr -0.03955 0.01016 1.02776
 Zr999 Zr 0.03825 -0.01142 0.97117
 Zr1000 Zr -0.02753 -0.03769 0.97887
 O1001 O 0.07704 0.00838 0.96693
 O1002 O -0.06880 -0.04876 0.98934
 O1003 O -0.00318 -0.00894 0.95803
 O1004 O -0.04237 0.00208 0.98663
 O1005 O -0.01547 0.04026 1.00888
 O1006 O 0.02545 0.02891 0.97878
 C1007 C -0.01189 -0.08783 1.01532
 C1008 C 0.07052 -0.05421 1.00630
 C1009 C -0.02875 -0.02750 1.07747
 O1010 O -0.07959 -0.00742 1.02990
 O1011 O -0.06928 0.03964 1.01541
 O1012 O -0.05178 0.05595 0.97586
 C1013 C -0.06995 0.05588 0.99500
 O1014 O 0.05392 0.02856 1.05206
 Zr1015 Zr 0.02617 0.03635 1.01986
 O1016 O -0.00502 0.07271 0.96773
 O1017 O -0.04397 0.04028 1.05801
 O1018 O 0.01371 0.06161 1.05247
 O1019 O 0.06632 0.05039 1.00879
 O1020 O 0.02070 0.07681 1.00565
 C1021 C 0.00827 0.08695 0.98507
 O1022 O -0.04498 0.03062 0.93580
 O1023 O 0.04501 -0.04317 0.94289
 O1024 O 0.00288 0.03451 0.92996
 O1025 O 0.03932 0.00419 0.93170
 O1026 O -0.01473 -0.06491 0.94793
 O1027 O -0.05168 -0.03124 0.94383
 C1028 C 0.02361 0.02149 0.91919
 H1029 H 0.02133 -0.05956 0.98537
 H1030 H -0.06179 0.00385 0.98030
 H1031 H 0.03703 0.04213 0.96863
 H1032 H 0.00349 0.01118 1.05999
 H1033 H -0.07230 -0.06694 0.98127
 H1034 H -0.08983 0.00221 1.04448
 H1035 H -0.06320 0.03882 1.06524
 H1036 H 0.02718 0.07683 1.05362
 H1037 H -0.02870 -0.07971 0.94696
 H1038 H 0.06431 -0.04122 0.93599
 H1039 H 0.08738 -0.00144 0.95254
 H1040 H 0.06896 0.06835 1.01763
 H1041 H -0.06330 -0.04755 0.94063
 H1042 H -0.04554 0.04936 0.92793
 H1043 H 0.04238 -0.04933 1.07241
 H1044 H 0.06247 0.04598 1.05775
 Zr1045 Zr 0.52697 0.48761 0.53578
 O1046 O 0.55032 0.51263 0.56177
 O1047 O 0.53310 0.44886 0.55298
 O1048 O 0.50959 0.48811 0.57469
 O1049 O 0.57876 0.47746 0.48752
 O1050 O 0.46396 0.49949 0.56827
 O1051 O 0.56980 0.47926 0.53250
 O1052 O 0.50529 0.42133 0.52815
 O1053 O 0.48710 0.47123 0.53225
 O1054 O 0.52846 0.46208 0.50220
 O1055 O 0.50017 0.52169 0.53227
 O1056 O 0.54066 0.51259 0.50377
 Zr1057 Zr 0.47321 0.50448 0.46068
 Zr1058 Zr 0.46059 0.50514 0.52644
 Zr1059 Zr 0.53976 0.48698 0.46997
 Zr1060 Zr 0.48850 0.44702 0.49791
 O1061 O 0.56993 0.51415 0.45434
 O1062 O 0.45427 0.42898 0.51820
 O1063 O 0.50014 0.47018 0.46399
 O1064 O 0.46013 0.47953 0.49277
 O1065 O 0.47162 0.53030 0.49407
 O1066 O 0.51313 0.52064 0.46455
 C1067 C 0.52262 0.42549 0.54729
 C1068 C 0.58618 0.47540 0.51228
 C1069 C 0.48468 0.49290 0.58333
 O1070 O 0.42782 0.47928 0.53904
 O1071 O 0.42310 0.51944 0.50909
 O1072 O 0.43097 0.51574 0.46409
 C1073 C 0.41541 0.52158 0.48445
 O1074 O 0.54071 0.56110 0.52648
 Zr1075 Zr 0.51189 0.54494 0.49871
 O1076 O 0.46691 0.54356 0.44385
 O1077 O 0.44785 0.54157 0.54624
 O1078 O 0.49052 0.57629 0.52022
 O1079 O 0.54415 0.56555 0.47775
 O1080 O 0.49293 0.57114 0.47040
 C1081 C 0.47606 0.56714 0.45091
 O1082 O 0.44790 0.47987 0.43606
 O1083 O 0.55491 0.44980 0.45324
 O1084 O 0.48955 0.50009 0.42160
 O1085 O 0.53489 0.48739 0.42793
 O1086 O 0.50980 0.41401 0.47884
 O1087 O 0.46335 0.42958 0.46766
 C1088 C 0.51389 0.49302 0.41285
 H1089 H 0.54195 0.44667 0.50376
 H1090 H 0.44129 0.47221 0.48962
 H1091 H 0.51896 0.53168 0.44880
 H1092 H 0.50068 0.53314 0.54862
 H1093 H 0.45762 0.40888 0.51850
 H1094 H 0.41555 0.49042 0.55090
 H1095 H 0.43023 0.53739 0.55583
 H1096 H 0.49711 0.59414 0.51315
 H1097 H 0.50211 0.39673 0.48622
 H1098 H 0.57221 0.45427 0.44323
 H1099 H 0.58254 0.50302 0.44279
 H1100 H 0.54017 0.58551 0.47900
 H1101 H 0.45841 0.41060 0.47288
 H1102 H 0.43972 0.49202 0.42210
 H1103 H 0.55865 0.50042 0.57558
 H1104 H 0.54095 0.58136 0.52490
 Zr1105 Zr 0.48611 1.02577 0.53633
 O1106 O 0.46307 1.02282 0.57266
 O1107 O 0.49617 1.06776 0.53698
 O1108 O 0.51035 1.03158 0.57088
 O1109 O 0.42850 1.03107 0.49464
 O1110 O 0.54683 1.00155 0.56651
 O1111 O 0.44602 1.04392 0.53502
 O1112 O 0.52458 1.07282 0.50051
 O1113 O 0.52739 1.02517 0.52257
 O1114 O 0.48438 1.03665 0.49578
 O1115 O 0.50080 0.98563 0.54364
 O1116 O 0.45982 0.99689 0.51820
 Zr1117 Zr 0.51574 0.96561 0.46907
 Zr1118 Zr 0.54145 0.98459 0.52801
 Zr1119 Zr 0.46040 1.00689 0.47717
 Zr1120 Zr 0.52521 1.03437 0.48167
 O1121 O 0.42188 0.98647 0.47411
 O1122 O 0.56708 1.04579 0.48832
 O1123 O 0.50095 1.00581 0.46121
 O1124 O 0.54145 0.99484 0.48712
 O1125 O 0.51742 0.95439 0.50960
 O1126 O 0.47455 0.96665 0.48287
 C1127 C 0.51202 1.08210 0.52148
 C1128 C 0.42646 1.04319 0.51749
 C1129 C 0.53258 1.01966 0.57965
 O1130 O 0.58070 1.00386 0.52889
 O1131 O 0.57219 0.95784 0.51197
 O1132 O 0.55421 0.94450 0.47196
 C1133 C 0.57372 0.94479 0.48956
 O1134 O 0.45077 0.96293 0.55818
 Zr1135 Zr 0.47632 0.95726 0.52358
 O1136 O 0.50501 0.92375 0.46837
 O1137 O 0.54832 0.95256 0.55601
 O1138 O 0.49211 0.93049 0.55359
 O1139 O 0.43547 0.94340 0.51580
 O1140 O 0.47989 0.91793 0.50689
 C1141 C 0.49119 0.90891 0.48519
 O1142 O 0.54092 0.96808 0.43404
 O1143 O 0.45204 1.04013 0.45087
 O1144 O 0.49340 0.96231 0.43300
 O1145 O 0.45746 0.99297 0.43729
 O1146 O 0.50912 1.06316 0.45365
 O1147 O 0.54680 1.03037 0.44446
 C1148 C 0.47203 0.97540 0.42381
 H1149 H 0.47603 1.05508 0.49288
 H1150 H 0.56047 0.99451 0.47933
 H1151 H 0.46251 0.95369 0.47321
 H1152 H 0.50031 0.98116 0.56302
 H1153 H 0.56969 1.06428 0.48040
 H1154 H 0.59212 0.99366 0.54215
 H1155 H 0.56781 0.95423 0.56214
 H1156 H 0.47914 0.91487 0.55524
 H1157 H 0.52243 1.07853 0.45242
 H1158 H 0.43253 1.03820 0.44490
 H1159 H 0.41075 0.99673 0.46068
 H1160 H 0.43341 0.92525 0.52460
 H1161 H 0.55647 1.04772 0.44021
 H1162 H 0.54141 0.94962 0.42564
 H1163 H 0.46207 1.04144 0.58067
 H1164 H 0.44426 0.94489 0.56476
 Zr1165 Zr -0.02859 0.50887 1.04122
 O1166 O -0.05485 0.48462 1.06584
 O1167 O -0.02791 0.54588 1.06251
 O1168 O -0.01103 0.50158 1.07907
 O1169 O -0.08049 0.52691 0.99612
 O1170 O 0.03369 0.48819 1.07000
 O1171 O -0.07022 0.52289 1.04055
 O1172 O -0.00012 0.57315 1.03671
 O1173 O 0.01259 0.52183 1.03674
 O1174 O -0.02856 0.53696 1.00948
 O1175 O -0.00511 0.47294 1.03414
 O1176 O -0.04529 0.48757 1.00842
 Zr1177 Zr 0.02156 0.49316 0.96258
 Zr1178 Zr 0.03573 0.48635 1.02766
 Zr1179 Zr -0.04298 0.51552 0.97635
 Zr1180 Zr 0.01255 0.54858 1.00399
 O1181 O -0.07614 0.49235 0.96083
 O1182 O 0.04921 0.56221 1.02299
 O1183 O -0.00215 0.52920 0.96938
 O1184 O 0.03765 0.51428 0.99561
 O1185 O 0.02174 0.46477 0.99419
 O1186 O -0.01961 0.48032 0.96740
 C1187 C -0.01549 0.56860 1.05749
 C1188 C -0.08689 0.52889 1.02122
 C1189 C 0.01356 0.49411 1.08633
 O1190 O 0.07046 0.50863 1.04117
 O1191 O 0.07198 0.47164 1.00794
 O1192 O 0.06282 0.47783 0.96352
 C1193 C 0.07880 0.47032 0.98292
 O1194 O -0.04884 0.43735 1.02788
 Zr1195 Zr -0.01966 0.45338 0.99978
 O1196 O 0.02250 0.45546 0.94240
 O1197 O 0.04599 0.44729 1.04366
 O1198 O -0.00045 0.41878 1.01812
 O1199 O -0.05445 0.43760 0.97919
 O1200 O -0.00418 0.42785 0.96893
 C1201 C 0.01174 0.43217 0.94847
 O1202 O 0.04902 0.51656 0.93837
 O1203 O -0.05488 0.55503 0.96255
 O1204 O 0.00476 0.50357 0.92482
 O1205 O -0.03986 0.51726 0.93423
 O1206 O -0.00653 0.58464 0.98839
 O1207 O 0.03783 0.56584 0.97321
 C1208 C -0.01955 0.51232 0.91787
 H1209 H -0.04031 0.55341 1.01287
 H1210 H 0.05700 0.52023 0.99208
 H1211 H -0.02696 0.47118 0.95127
 H1212 H -0.00626 0.46016 1.04958
 H1213 H 0.04782 0.58246 1.02440
 H1214 H 0.08212 0.49561 1.05161
 H1215 H 0.06400 0.44924 1.05298
 H1216 H -0.00883 0.40216 1.01029
 H1217 H 0.00311 0.60057 0.99623
 H1218 H -0.07288 0.55294 0.95323
 H1219 H -0.08805 0.50532 0.95058
 H1220 H -0.05235 0.41735 0.97880
 H1221 H 0.04452 0.58402 0.97900
 H1222 H 0.05522 0.50475 0.92323
 H1223 H -0.06128 0.49629 1.08100
 H1224 H -0.05109 0.41744 1.02476
 Zr1225 Zr -0.02873 0.49230 0.46371
 O1226 O -0.05323 0.51683 0.43767
 O1227 O -0.03325 0.45351 0.44664
 O1228 O -0.01123 0.49276 0.42480
 O1229 O -0.07937 0.48015 0.51245
 O1230 O 0.03329 0.50719 0.43077
 O1231 O -0.07118 0.48282 0.46736
 O1232 O -0.00333 0.42664 0.47070
 O1233 O 0.01210 0.47737 0.46682
 O1234 O -0.02842 0.46629 0.49713
 O1235 O -0.00391 0.52728 0.46724
 O1236 O -0.04349 0.51634 0.49602
 Zr1237 Zr 0.02466 0.51003 0.53844
 Zr1238 Zr 0.03669 0.51213 0.47262
 Zr1239 Zr -0.04075 0.49032 0.52964
 Zr1240 Zr 0.01242 0.45258 0.50090
 O1241 O -0.07205 0.51622 0.54611
 O1242 O 0.04738 0.43614 0.48000
 O1243 O -0.00018 0.47482 0.53509
 O1244 O 0.03892 0.48604 0.50608
 O1245 O 0.02445 0.53637 0.50526
 O1246 O -0.01614 0.52485 0.53513
 C1247 C -0.02133 0.43044 0.45196
 C1248 C -0.08707 0.47828 0.48781
 C1249 C 0.01321 0.49893 0.41596
 O1250 O 0.07073 0.48763 0.45943
 O1251 O 0.07363 0.52724 0.48981
 O1252 O 0.06578 0.52356 0.53482
 C1253 C 0.08097 0.53002 0.51446
 O1254 O -0.04669 0.56508 0.47369
 Zr1255 Zr -0.01664 0.54966 0.50109
 O1256 O 0.02857 0.54904 0.55568
 O1257 O 0.04710 0.54939 0.45322
 O1258 O 0.00258 0.58205 0.47957
 O1259 O -0.04986 0.56871 0.52254
 O1260 O 0.00112 0.57623 0.52935
 C1261 C 0.01829 0.57247 0.54875
 O1262 O 0.05203 0.48614 0.56237
 O1263 O -0.05392 0.45239 0.54594
 O1264 O 0.00927 0.50397 0.57762
 O1265 O -0.03528 0.48964 0.57158
 O1266 O -0.00669 0.41863 0.52006
 O1267 O 0.03902 0.43560 0.53066
 C1268 C -0.01441 0.49555 0.58649
 H1269 H -0.04111 0.45051 0.49565
 H1270 H 0.05822 0.47942 0.50905
 H1271 H -0.02241 0.53534 0.55108
 H1272 H -0.00523 0.53887 0.45093
 H1273 H 0.04521 0.41594 0.47957
 H1274 H 0.08228 0.49941 0.44762
 H1275 H 0.06487 0.54604 0.44346
 H1276 H -0.00503 0.59954 0.48678
 H1277 H 0.00186 0.40172 0.51247
 H1278 H -0.07129 0.45615 0.55623
 H1279 H -0.08388 0.50448 0.55768
 H1280 H -0.04710 0.58881 0.52140
 H1281 H 0.04496 0.41690 0.52522
 H1282 H 0.05955 0.49834 0.57640
 H1283 H -0.06098 0.50443 0.42394
 H1284 H -0.04821 0.58527 0.47549
 Zr1285 Zr 0.47227 -0.00720 -0.03508
 O1286 O 0.44792 0.01861 -0.06011
 O1287 O 0.46725 -0.04542 -0.05351
 O1288 O 0.48919 -0.00415 -0.07406
 O1289 O 0.42119 -0.01860 0.01336
 O1290 O 0.53467 0.00679 -0.06751
 O1291 O 0.42943 -0.01536 -0.03167
 O1292 O 0.49558 -0.07384 -0.02936
 O1293 O 0.51250 -0.02387 -0.03222
 O1294 O 0.47148 -0.03392 -0.00221
 O1295 O 0.49865 0.02658 -0.03060
 O1296 O 0.45861 0.01677 -0.00226
 Zr1297 Zr 0.52645 0.00665 0.04031
 Zr1298 Zr 0.53857 0.00965 -0.02552
 Zr1299 Zr 0.46015 -0.01008 0.03078
 Zr1300 Zr 0.51174 -0.04928 0.00151
 O1301 O 0.42962 0.01668 0.04730
 O1302 O 0.54628 -0.06683 -0.01920
 O1303 O 0.50002 -0.02734 0.03615
 O1304 O 0.53963 -0.01717 0.00742
 O1305 O 0.52749 0.03367 0.00763
 O1306 O 0.48629 0.02322 0.03705
 C1307 C 0.47831 -0.06900 -0.04848
 C1308 C 0.41337 -0.01962 -0.01129
 C1309 C 0.51384 0.00147 -0.08268
 O1310 O 0.57105 -0.01625 -0.03974
 O1311 O 0.57636 0.02215 -0.00804
 O1312 O 0.56861 0.01754 0.03693
 C1313 C 0.58419 0.02340 0.01661
 O1314 O 0.45741 0.06601 -0.02328
 Zr1315 Zr 0.48697 0.04875 0.00359
 O1316 O 0.53192 0.04503 0.05836
 O1317 O 0.55109 0.04695 -0.04360
 O1318 O 0.50727 0.08072 -0.01762
 O1319 O 0.45491 0.06884 0.02577
 O1320 O 0.50652 0.07396 0.03189
 C1321 C 0.52312 0.06905 0.05152
 O1322 O 0.55225 -0.01891 0.06421
 O1323 O 0.44577 -0.04779 0.04656
 O1324 O 0.51026 0.00091 0.07934
 O1325 O 0.46506 -0.01110 0.07275
 O1326 O 0.49086 -0.08276 0.01970
 O1327 O 0.53724 -0.06794 0.03123
 C1328 C 0.48598 -0.00614 0.08793
 H1329 H 0.45823 -0.04918 -0.00417
 H1330 H 0.55858 -0.02479 0.01021
 H1331 H 0.48041 0.03375 0.05311
 H1332 H 0.49784 0.03877 -0.04651
 H1333 H 0.54332 -0.08691 -0.01991
 H1334 H 0.58322 -0.00473 -0.05120
 H1335 H 0.56859 0.04300 -0.05360
 H1336 H 0.50048 0.09836 -0.01005
 H1337 H 0.49879 -0.09985 0.01190
 H1338 H 0.42842 -0.04365 0.05675
 H1339 H 0.41725 0.00523 0.05862
 H1340 H 0.45870 0.08879 0.02509
 H1341 H 0.54222 -0.08686 0.02565
 H1342 H 0.56025 -0.00729 0.07846
 H1343 H 0.43977 0.00691 -0.07422
 H1344 H 0.45652 0.08616 -0.02084
 Zr1345 Zr 0.51125 0.53067 -0.03715
 O1346 O 0.53495 0.52813 -0.07313
 O1347 O 0.49931 0.57231 -0.03843
 O1348 O 0.48734 0.53562 -0.07217
 O1349 O 0.56795 0.53797 0.00515
 O1350 O 0.45192 0.50517 -0.06746
 O1351 O 0.55025 0.55002 -0.03559
 O1352 O 0.46988 0.57687 -0.00262
 O1353 O 0.46981 0.52900 -0.02398
 O1354 O 0.51179 0.54177 0.00330
 O1355 O 0.49876 0.49014 -0.04422
 O1356 O 0.53884 0.50278 -0.01834
 Zr1357 Zr 0.48395 0.47000 0.03021
 Zr1358 Zr 0.45797 0.48803 -0.02906
 Zr1359 Zr 0.53711 0.51290 0.02259
 Zr1360 Zr 0.47085 0.53839 0.01681
 O1361 O 0.57672 0.49390 0.02641
 O1362 O 0.42852 0.54835 0.00933
 O1363 O 0.49637 0.51065 0.03793
 O1364 O 0.45674 0.49824 0.01169
 O1365 O 0.48351 0.45879 -0.01020
 O1366 O 0.52524 0.47223 0.01704
 C1367 C 0.48251 0.58637 -0.02347
 C1368 C 0.56964 0.54993 -0.01789
 C1369 C 0.46562 0.52327 -0.08084
 O1370 O 0.41755 0.50566 -0.02993
 O1371 O 0.42916 0.45949 -0.01357
 O1372 O 0.44830 0.44559 0.02597
 C1373 C 0.42923 0.44482 0.00798
 O1374 O 0.55035 0.46922 -0.05785
 Zr1375 Zr 0.52458 0.46268 -0.02359
 O1376 O 0.49674 0.42856 0.03164
 O1377 O 0.45314 0.45631 -0.05746
 O1378 O 0.51087 0.43538 -0.05365
 O1379 O 0.56594 0.44995 -0.01500
 O1380 O 0.52248 0.42323 -0.00661
 C1381 C 0.51114 0.41395 0.01497
 O1382 O 0.45736 0.47238 0.06427
 O1383 O 0.54313 0.54640 0.04875
 O1384 O 0.50583 0.46710 0.06654
 O1385 O 0.54032 0.49871 0.06259
 O1386 O 0.48484 0.56784 0.04473
 O1387 O 0.44885 0.53401 0.05374
 C1388 C 0.52651 0.48059 0.07592
 H1389 H 0.51912 0.56045 0.00610
 H1390 H 0.43766 0.49688 0.01922
 H1391 H 0.53780 0.45963 0.02696
 H1392 H 0.49969 0.48566 -0.06356
 H1393 H 0.42483 0.56689 0.01676
 H1394 H 0.40687 0.49523 -0.04334
 H1395 H 0.43359 0.45730 -0.06364
 H1396 H 0.52476 0.42023 -0.05496
 H1397 H 0.47072 0.58280 0.04547
 H1398 H 0.56263 0.54513 0.05500
 H1399 H 0.58705 0.50460 0.03987
 H1400 H 0.56900 0.43184 -0.02357
 H1401 H 0.43809 0.55103 0.05751
 H1402 H 0.45754 0.45404 0.07302
 H1403 H 0.53519 0.54671 -0.08139
 H1404 H 0.55814 0.45144 -0.06406
 Zr1405 Zr 0.01693 1.03317 0.46090
 O1406 O 0.04286 1.02918 0.42649
 O1407 O 0.00330 1.07421 0.45678
 O1408 O -0.00511 1.03416 0.42445
 O1409 O 0.07222 1.04484 0.50388
 O1410 O -0.04027 1.00360 0.43038
 O1411 O 0.05383 1.05596 0.46319
 O1412 O -0.02713 1.07970 0.49168
 O1413 O -0.02485 1.03086 0.47292
 O1414 O 0.01577 1.04646 0.50068
 O1415 O 0.00616 0.99176 0.45608
 O1416 O 0.04499 1.00735 0.48182
 Zr1417 Zr -0.01055 0.97562 0.53113
 Zr1418 Zr -0.03504 0.98922 0.47001
 Zr1419 Zr 0.04169 1.01972 0.52200
 Zr1420 Zr -0.02542 1.04252 0.51320
 O1421 O 0.08164 1.00198 0.52759
 O1422 O -0.06782 1.05041 0.50408
 O1423 O 0.00051 1.01710 0.53632
 O1424 O -0.03801 1.00172 0.51010
 O1425 O -0.00923 0.96204 0.49139
 O1426 O 0.03114 0.97836 0.51907
 C1427 C -0.01421 1.08853 0.47074
 C1428 C 0.07305 1.05724 0.48100
 C1429 C -0.02618 1.02059 0.41597
 O1430 O -0.07584 1.00562 0.46677
 O1431 O -0.06375 0.96108 0.48627
 O1432 O -0.04545 0.94996 0.52697
 C1433 C -0.06402 0.94772 0.50860
 O1434 O 0.05868 0.97117 0.44501
 Zr1435 Zr 0.03213 0.96645 0.47901
 O1436 O 0.00414 0.93488 0.53577
 O1437 O -0.03785 0.95547 0.44362
 O1438 O 0.02040 0.93676 0.45034
 O1439 O 0.07357 0.95601 0.48975
 O1440 O 0.03065 0.92809 0.49824
 C1441 C 0.01921 0.91971 0.52011
 O1442 O -0.03872 0.97760 0.56403
 O1443 O 0.04612 1.05489 0.54634
 O1444 O 0.00840 0.97886 0.56910
 O1445 O 0.04436 1.00847 0.56275
 O1446 O -0.01366 1.07425 0.53968
 O1447 O -0.04796 1.03936 0.54994
 C1448 C 0.02895 0.99314 0.57768
 H1449 H 0.02220 1.06556 0.50274
 H1450 H -0.05727 1.00025 0.51715
 H1451 H 0.04366 0.96693 0.53029
 H1452 H 0.00796 0.98599 0.43713
 H1453 H -0.07241 1.06919 0.51041
 H1454 H -0.08573 0.99409 0.45364
 H1455 H -0.05713 0.95549 0.43669
 H1456 H 0.03477 0.92200 0.45039
 H1457 H -0.02858 1.08846 0.53937
 H1458 H 0.06555 1.05470 0.55289
 H1459 H 0.09144 1.01378 0.54053
 H1460 H 0.07753 0.93732 0.48282
 H1461 H -0.06004 1.05579 0.55225
 H1462 H -0.03758 0.95976 0.57368
 H1463 H 0.04269 1.04711 0.41694
 H1464 H 0.06774 0.95336 0.44071
 Zr1465 Zr 0.72563 0.26632 0.22009
 O1466 O 0.73459 0.28861 0.18450
 O1467 O 0.68190 0.26377 0.21759
 O1468 O 0.71729 0.24436 0.18475
 O1469 O 0.72638 0.32270 0.26275
 O1470 O 0.74130 0.20409 0.18953
 O1471 O 0.71317 0.30771 0.22152
 O1472 O 0.67045 0.23740 0.25374
 O1473 O 0.71902 0.22582 0.23251
 O1474 O 0.71288 0.26901 0.26019
 O1475 O 0.76419 0.24632 0.21421
 O1476 O 0.75757 0.28741 0.24015
 Zr1477 Zr 0.77751 0.22758 0.28903
 Zr1478 Zr 0.75803 0.20632 0.22853
 Zr1479 Zr 0.74523 0.28776 0.28066
 Zr1480 Zr 0.70819 0.22863 0.27307
 O1481 O 0.77168 0.32180 0.28557
 O1482 O 0.68976 0.19053 0.26394
 O1483 O 0.73913 0.24782 0.29552
 O1484 O 0.74575 0.20680 0.26903
 O1485 O 0.79041 0.22523 0.24900
 O1486 O 0.78395 0.26800 0.27665
 C1487 C 0.66411 0.25148 0.23281
 C1488 C 0.71565 0.32648 0.23937
 C1489 C 0.72599 0.22094 0.17601
 O1490 O 0.73391 0.17029 0.22750
 O1491 O 0.78274 0.17369 0.24370
 O1492 O 0.79618 0.18867 0.28484
 C1493 C 0.79635 0.17098 0.26575
 O1494 O 0.79503 0.29316 0.20315
 Zr1495 Zr 0.79533 0.26563 0.23631
 O1496 O 0.82097 0.22942 0.29109
 O1497 O 0.78932 0.19566 0.20016
 O1498 O 0.82089 0.24823 0.20579
 O1499 O 0.81602 0.30205 0.24745
 O1500 O 0.83356 0.25288 0.25334
 C1501 C 0.83918 0.23845 0.27432
 O1502 O 0.76875 0.20198 0.32242
 O1503 O 0.71193 0.30125 0.30560
 O1504 O 0.78244 0.24790 0.32598
 O1505 O 0.75690 0.28733 0.32138
 O1506 O 0.68181 0.24742 0.30206
 O1507 O 0.70348 0.20305 0.30727
 C1508 C 0.77155 0.27025 0.33531
 H1509 H 0.69561 0.28001 0.26275
 H1510 H 0.74352 0.18796 0.27618
 H1511 H 0.79844 0.27709 0.28737
 H1512 H 0.76959 0.24644 0.19501
 H1513 H 0.67066 0.19081 0.27168
 H1514 H 0.74284 0.15807 0.21404
 H1515 H 0.78524 0.17684 0.19389
 H1516 H 0.83853 0.25860 0.20531
 H1517 H 0.66441 0.23665 0.30277
 H1518 H 0.71684 0.31974 0.31217
 H1519 H 0.76246 0.33400 0.29886
 H1520 H 0.83511 0.30095 0.23979
 H1521 H 0.71482 0.21116 0.32164
 H1522 H 0.78659 0.19844 0.33179
 H1523 H 0.71663 0.29290 0.17559
 H1524 H 0.81439 0.29815 0.19840
 Zr1525 Zr 0.76362 0.72605 0.71410
 O1526 O 0.74037 0.69913 0.68988
 O1527 O 0.80109 0.72881 0.69236
 O1528 O 0.75588 0.74273 0.67611
 O1529 O 0.78294 0.67530 0.75955
 O1530 O 0.74116 0.78653 0.68438
 O1531 O 0.77927 0.68562 0.71507
 O1532 O 0.82710 0.75804 0.71717
 O1533 O 0.77505 0.76712 0.71799
 O1534 O 0.79199 0.72720 0.74554
 O1535 O 0.72618 0.74767 0.72095
 O1536 O 0.74245 0.70872 0.74714
 Zr1537 Zr 0.74495 0.77470 0.79197
 Zr1538 Zr 0.73813 0.78846 0.72674
 Zr1539 Zr 0.77056 0.71209 0.77894
 Zr1540 Zr 0.80190 0.76827 0.75059
 O1541 O 0.74861 0.67853 0.79549
 O1542 O 0.81443 0.80547 0.73213
 O1543 O 0.78258 0.75291 0.78542
 O1544 O 0.76595 0.79160 0.75877
 O1545 O 0.71653 0.77369 0.76046
 O1546 O 0.73381 0.73359 0.78773
 C1547 C 0.82315 0.74286 0.69650
 C1548 C 0.78520 0.66913 0.73448
 C1549 C 0.74797 0.76674 0.66842
 O1550 O 0.75948 0.82370 0.71311
 O1551 O 0.72122 0.82349 0.74587
 O1552 O 0.72520 0.81359 0.79043
 C1553 C 0.71737 0.82916 0.77084
 O1554 O 0.69167 0.70333 0.72776
 Zr1555 Zr 0.70662 0.73252 0.75560
 O1556 O 0.70714 0.77323 0.81307
 O1557 O 0.69847 0.79689 0.71027
 O1558 O 0.67095 0.75037 0.73748
 O1559 O 0.69192 0.69741 0.77639
 O1560 O 0.67999 0.74644 0.78682
 C1561 C 0.68392 0.76182 0.80739
 O1562 O 0.76700 0.80359 0.81499
 O1563 O 0.81112 0.70197 0.79226
 O1564 O 0.75612 0.75885 0.82991
 O1565 O 0.77190 0.71544 0.82102
 O1566 O 0.83927 0.75052 0.76538
 O1567 O 0.81807 0.79321 0.78155
 C1568 C 0.76581 0.73521 0.83718
 H1569 H 0.80911 0.71628 0.74197
 H1570 H 0.77092 0.81094 0.76218
 H1571 H 0.72483 0.72586 0.80399
 H1572 H 0.71345 0.74600 0.70553
 H1573 H 0.83503 0.80500 0.73074
 H1574 H 0.74607 0.83457 0.70230
 H1575 H 0.69993 0.81467 0.70066
 H1576 H 0.65438 0.74147 0.74551
 H1577 H 0.85497 0.76086 0.75739
 H1578 H 0.80970 0.68422 0.80191
 H1579 H 0.76229 0.66741 0.80573
 H1580 H 0.67131 0.69867 0.77690
 H1581 H 0.83654 0.80020 0.77601
 H1582 H 0.75463 0.80916 0.83010
 H1583 H 0.75254 0.69325 0.67472
 H1584 H 0.67151 0.70053 0.73087
 Zr1585 Zr 0.24549 0.21954 0.78689
 O1586 O 0.27136 0.19570 0.81230
 O1587 O 0.20652 0.21448 0.80525
 O1588 O 0.24612 0.23645 0.82568
 O1589 O 0.23370 0.16973 0.73865
 O1590 O 0.25964 0.28069 0.81904
 O1591 O 0.23675 0.17748 0.78362
 O1592 O 0.17852 0.24395 0.78192
 O1593 O 0.22958 0.25953 0.78393
 O1594 O 0.21848 0.21959 0.75427
 O1595 O 0.28043 0.24477 0.78225
 O1596 O 0.26971 0.20593 0.75397
 Zr1597 Zr 0.26100 0.27358 0.71137
 Zr1598 Zr 0.26423 0.28450 0.77712
 Zr1599 Zr 0.24263 0.20832 0.72118
 Zr1600 Zr 0.20378 0.25966 0.75062
 O1601 O 0.26922 0.17804 0.70420
 O1602 O 0.18659 0.29381 0.77142
 O1603 O 0.22600 0.24808 0.71591
 O1604 O 0.23701 0.28654 0.74450
 O1605 O 0.28854 0.27362 0.74369
 O1606 O 0.27684 0.23353 0.71456
 C1607 C 0.18295 0.22627 0.80074
 C1608 C 0.23242 0.16182 0.76334
 C1609 C 0.25178 0.26068 0.83416
 O1610 O 0.23902 0.31746 0.79102
 O1611 O 0.27830 0.32147 0.75973
 O1612 O 0.27271 0.31505 0.71484
 C1613 C 0.27911 0.32984 0.73520
 O1614 O 0.32021 0.20443 0.77514
 Zr1615 Zr 0.30277 0.23324 0.74774
 O1616 O 0.29991 0.27712 0.69223
 O1617 O 0.30213 0.29514 0.79556
 O1618 O 0.33546 0.25364 0.76757
 O1619 O 0.32214 0.20043 0.72659
 O1620 O 0.32855 0.25032 0.71777
 C1621 C 0.32385 0.26661 0.69790
 O1622 O 0.23641 0.30055 0.68770
 O1623 O 0.20409 0.19495 0.70595
 O1624 O 0.25311 0.25862 0.67260
 O1625 O 0.24170 0.21376 0.67929
 O1626 O 0.16940 0.23999 0.73282
 O1627 O 0.18560 0.28544 0.72093
 C1628 C 0.24592 0.23480 0.66415
 H1629 H 0.20278 0.20674 0.75633
 H1630 H 0.22970 0.30541 0.74180
 H1631 H 0.28716 0.22747 0.69832
 H1632 H 0.29251 0.24359 0.79822
 H1633 H 0.16614 0.29132 0.77222
 H1634 H 0.25092 0.32888 0.80257
 H1635 H 0.29856 0.31243 0.80546
 H1636 H 0.35325 0.24678 0.75979
 H1637 H 0.15223 0.24808 0.74081
 H1638 H 0.20800 0.17793 0.69571
 H1639 H 0.25738 0.16621 0.69300
 H1640 H 0.34251 0.20345 0.72692
 H1641 H 0.16649 0.29073 0.72664
 H1642 H 0.24855 0.30799 0.67325
 H1643 H 0.25919 0.18769 0.82641
 H1644 H 0.34071 0.20395 0.77289
 Zr1645 Zr 0.27125 0.76865 0.28221
 O1646 O 0.26654 0.79161 0.31804
 O1647 O 0.31420 0.75935 0.28389
 O1648 O 0.27683 0.74527 0.31742
 O1649 O 0.27700 0.82503 0.23939
 O1650 O 0.24711 0.70937 0.31350
 O1651 O 0.28845 0.80819 0.28063
 O1652 O 0.32094 0.73014 0.24882
 O1653 O 0.27174 0.72767 0.26989
 O1654 O 0.28371 0.76948 0.24198
 O1655 O 0.23046 0.75470 0.28879
 O1656 O 0.24232 0.79445 0.26247
 Zr1657 Zr 0.21329 0.73856 0.21419
 Zr1658 Zr 0.23057 0.71427 0.27458
 Zr1659 Zr 0.25401 0.79312 0.22181
 Zr1660 Zr 0.28246 0.72884 0.22924
 O1661 O 0.23260 0.83094 0.21665
 O1662 O 0.29437 0.68777 0.23804
 O1663 O 0.25411 0.75271 0.20732
 O1664 O 0.24232 0.71316 0.23398
 O1665 O 0.20053 0.73794 0.25440
 O1666 O 0.21314 0.77952 0.22646
 C1667 C 0.32958 0.74344 0.26927
 C1668 C 0.28794 0.82735 0.26278
 C1669 C 0.26501 0.72351 0.32654
 O1670 O 0.25003 0.67518 0.27657
 O1671 O 0.20329 0.68448 0.25926
 O1672 O 0.19006 0.70240 0.21897
 C1673 C 0.18937 0.68370 0.23730
 O1674 O 0.20616 0.80460 0.30091
 Zr1675 Zr 0.20214 0.77867 0.26699
 O1676 O 0.17104 0.75017 0.21103
 O1677 O 0.19774 0.70860 0.30255
 O1678 O 0.17402 0.76416 0.29671
 O1679 O 0.18784 0.81879 0.25724
 O1680 O 0.16293 0.77465 0.24919
 C1681 C 0.15491 0.76346 0.22733
 O1682 O 0.21670 0.71147 0.18113
 O1683 O 0.28876 0.80094 0.19661
 O1684 O 0.21365 0.75805 0.17628
 O1685 O 0.24190 0.79497 0.18125
 O1686 O 0.31241 0.74340 0.20126
 O1687 O 0.27977 0.70667 0.19272
 C1688 C 0.22682 0.77901 0.16698
 H1689 H 0.30233 0.77763 0.23930
 H1690 H 0.24205 0.69423 0.22686
 H1691 H 0.20032 0.79115 0.21577
 H1692 H 0.22533 0.75558 0.30804
 H1693 H 0.31344 0.68487 0.23078
 H1694 H 0.23955 0.66440 0.29011
 H1695 H 0.19935 0.68947 0.30921
 H1696 H 0.15797 0.77710 0.29737
 H1697 H 0.32802 0.72992 0.20080
 H1698 H 0.28670 0.82008 0.19006
 H1699 H 0.24339 0.84162 0.20327
 H1700 H 0.16896 0.82105 0.26517
 H1701 H 0.29732 0.69627 0.18962
 H1702 H 0.19837 0.71131 0.17205
 H1703 H 0.28516 0.79289 0.32646
 H1704 H 0.18755 0.81162 0.30641
 Zr1705 Zr 0.22403 0.76845 0.71391
 O1706 O 0.22777 0.79444 0.67992
 O1707 O 0.18159 0.75800 0.71211
 O1708 O 0.21975 0.74736 0.67720
 O1709 O 0.21768 0.82319 0.75824
 O1710 O 0.24852 0.71005 0.68102
 O1711 O 0.20240 0.80594 0.71856
 O1712 O 0.17570 0.72947 0.74796
 O1713 O 0.22421 0.72717 0.72563
 O1714 O 0.21300 0.76833 0.75454
 O1715 O 0.26484 0.75427 0.70619
 O1716 O 0.25331 0.79369 0.73313
 Zr1717 Zr 0.28415 0.73618 0.77990
 Zr1718 Zr 0.26541 0.71350 0.71977
 Zr1719 Zr 0.24301 0.79140 0.77412
 Zr1720 Zr 0.21473 0.72757 0.76666
 O1721 O 0.26377 0.82923 0.77808
 O1722 O 0.20312 0.68673 0.75784
 O1723 O 0.24350 0.75074 0.78829
 O1724 O 0.25474 0.71160 0.76058
 O1725 O 0.29581 0.73629 0.73939
 O1726 O 0.28382 0.77735 0.76806
 C1727 C 0.16661 0.74246 0.72729
 C1728 C 0.20299 0.82464 0.73673
 C1729 C 0.23167 0.72557 0.66772
 O1730 O 0.24590 0.67490 0.71722
 O1731 O 0.29291 0.68287 0.73430
 O1732 O 0.30575 0.69868 0.77531
 C1733 C 0.30606 0.68050 0.75663
 O1734 O 0.28827 0.80463 0.69440
 Zr1735 Zr 0.29363 0.77736 0.72739
 O1736 O 0.32689 0.74483 0.78058
 O1737 O 0.29790 0.70781 0.69135
 O1738 O 0.32052 0.76381 0.69604
 O1739 O 0.30858 0.81663 0.73801
 O1740 O 0.33373 0.77109 0.74327
 C1741 C 0.34257 0.75802 0.76402
 O1742 O 0.28029 0.71011 0.81383
 O1743 O 0.20968 0.79877 0.80129
 O1744 O 0.28833 0.75682 0.81669
 O1745 O 0.25771 0.79279 0.81394
 O1746 O 0.18519 0.74185 0.79538
 O1747 O 0.21866 0.70481 0.80292
 C1748 C 0.27549 0.77779 0.82674
 H1749 H 0.19422 0.77614 0.75805
 H1750 H 0.25508 0.69252 0.76746
 H1751 H 0.29723 0.78848 0.77824
 H1752 H 0.26968 0.75570 0.68691
 H1753 H 0.18426 0.68387 0.76552
 H1754 H 0.25632 0.66422 0.70347
 H1755 H 0.29621 0.68887 0.68440
 H1756 H 0.33645 0.77655 0.69517
 H1757 H 0.16984 0.72841 0.79611
 H1758 H 0.21185 0.81772 0.80806
 H1759 H 0.25351 0.83976 0.79203
 H1760 H 0.32727 0.81860 0.72969
 H1761 H 0.20134 0.69447 0.80634
 H1762 H 0.29890 0.70860 0.82228
 H1763 H 0.20917 0.79572 0.67144
 H1764 H 0.30655 0.81214 0.68894
 Zr1765 Zr 0.26453 0.22746 0.21161
 O1766 O 0.24049 0.20038 0.18835
 O1767 O 0.30239 0.22698 0.19055
 O1768 O 0.25744 0.24337 0.17294
 O1769 O 0.28361 0.17855 0.25934
 O1770 O 0.24207 0.28722 0.18005
 O1771 O 0.27937 0.18666 0.21447
 O1772 O 0.32890 0.25762 0.21314
 O1773 O 0.27666 0.26853 0.21371
 O1774 O 0.29304 0.22954 0.24290
 O1775 O 0.22758 0.25012 0.21786
 O1776 O 0.24337 0.21192 0.24551
 Zr1777 Zr 0.24729 0.27977 0.28768
 Zr1778 Zr 0.24015 0.29095 0.22218
 Zr1779 Zr 0.27168 0.21631 0.27706
 Zr1780 Zr 0.30387 0.27053 0.24594
 O1781 O 0.24911 0.18398 0.29513
 O1782 O 0.31661 0.30632 0.22507
 O1783 O 0.28453 0.25714 0.28163
 O1784 O 0.26846 0.29474 0.25366
 O1785 O 0.21850 0.27800 0.25650
 O1786 O 0.23532 0.23874 0.28512
 C1787 C 0.32495 0.24041 0.19400
 C1788 C 0.28569 0.17116 0.23460
 C1789 C 0.24904 0.26708 0.16462
 O1790 O 0.26188 0.32507 0.20647
 O1791 O 0.22473 0.32734 0.24029
 O1792 O 0.23122 0.32007 0.28501
 C1793 C 0.22345 0.33501 0.26501
 O1794 O 0.19273 0.20642 0.22659
 Zr1795 Zr 0.20806 0.23669 0.25310
 O1796 O 0.20877 0.28091 0.30796
 O1797 O 0.20024 0.29948 0.20636
 O1798 O 0.17250 0.25396 0.23425
 O1799 O 0.19286 0.20285 0.27553
 O1800 O 0.18171 0.25236 0.28348
 C1801 C 0.18553 0.26918 0.30290
 O1802 O 0.27074 0.30790 0.31036
 O1803 O 0.31213 0.20605 0.29058
 O1804 O 0.25700 0.26490 0.32624
 O1805 O 0.27378 0.22159 0.31890
 O1806 O 0.34097 0.25312 0.26171
 O1807 O 0.32099 0.29703 0.27514
 C1808 C 0.26710 0.24177 0.33436
 H1809 H 0.30995 0.21813 0.23994
 H1810 H 0.27408 0.31405 0.25615
 H1811 H 0.22618 0.23194 0.30168
 H1812 H 0.21472 0.24806 0.20260
 H1813 H 0.33717 0.30542 0.22331
 H1814 H 0.24837 0.33581 0.19566
 H1815 H 0.20176 0.31689 0.19613
 H1816 H 0.15585 0.24555 0.24265
 H1817 H 0.35684 0.26259 0.25301
 H1818 H 0.31046 0.18881 0.30106
 H1819 H 0.26261 0.17312 0.30584
 H1820 H 0.17226 0.20433 0.27590
 H1821 H 0.33933 0.30363 0.26876
 H1822 H 0.25864 0.31459 0.32524
 H1823 H 0.25262 0.19358 0.17354
 H1824 H 0.17257 0.20384 0.22995
 Zr1825 Zr 0.73237 0.72539 0.28746
 O1826 O 0.75691 0.69849 0.31117
 O1827 O 0.69456 0.72584 0.30865
 O1828 O 0.73743 0.74159 0.32609
 O1829 O 0.71467 0.67641 0.24024
 O1830 O 0.75316 0.78502 0.31889
 O1831 O 0.71807 0.68480 0.28507
 O1832 O 0.66794 0.75635 0.28511
 O1833 O 0.71959 0.76643 0.28462
 O1834 O 0.70421 0.72737 0.25581
 O1835 O 0.76909 0.74777 0.28156
 O1836 O 0.75431 0.70969 0.25398
 Zr1837 Zr 0.74946 0.77730 0.21120
 Zr1838 Zr 0.75583 0.78859 0.27670
 Zr1839 Zr 0.72630 0.71392 0.22205
 Zr1840 Zr 0.69273 0.76838 0.25207
 O1841 O 0.74968 0.68133 0.20482
 O1842 O 0.67872 0.80454 0.27176
 O1843 O 0.71265 0.75472 0.21679
 O1844 O 0.72780 0.79249 0.24485
 O1845 O 0.77799 0.77557 0.24267
 O1846 O 0.76232 0.73630 0.21427
 C1847 C 0.67212 0.73988 0.30497
 C1848 C 0.71230 0.66923 0.26507
 C1849 C 0.74521 0.76528 0.33435
 O1850 O 0.73342 0.82295 0.29166
 O1851 O 0.77126 0.82455 0.25837
 O1852 O 0.76492 0.81745 0.21367
 C1853 C 0.77261 0.83217 0.23362
 O1854 O 0.80498 0.70389 0.27323
 Zr1855 Zr 0.78932 0.73434 0.24654
 O1856 O 0.78791 0.77863 0.19126
 O1857 O 0.79531 0.79686 0.29318
 O1858 O 0.82420 0.75154 0.26583
 O1859 O 0.80567 0.70068 0.22439
 O1860 O 0.81566 0.75049 0.21633
 C1861 C 0.81146 0.76727 0.19670
 O1862 O 0.72553 0.80535 0.18815
 O1863 O 0.68627 0.70376 0.20799
 O1864 O 0.74095 0.76228 0.17263
 O1865 O 0.72505 0.71892 0.18001
 O1866 O 0.65605 0.75072 0.23660
 O1867 O 0.67569 0.79445 0.22198
 C1868 C 0.73169 0.73908 0.16448
 H1869 H 0.68743 0.71612 0.25886
 H1870 H 0.72191 0.81182 0.24210
 H1871 H 0.77188 0.72948 0.19790
 H1872 H 0.78167 0.74568 0.29708
 H1873 H 0.65815 0.80368 0.27307
 H1874 H 0.74663 0.83368 0.30248
 H1875 H 0.79336 0.81433 0.30317
 H1876 H 0.84114 0.74333 0.25753
 H1877 H 0.63996 0.76042 0.24496
 H1878 H 0.68843 0.68645 0.19777
 H1879 H 0.73652 0.67042 0.19411
 H1880 H 0.82622 0.70238 0.22413
 H1881 H 0.65690 0.80079 0.22766
 H1882 H 0.73761 0.81206 0.17332
 H1883 H 0.74486 0.69182 0.32603
 H1884 H 0.82526 0.70145 0.27020
 Zr1885 Zr 0.77901 0.26495 0.78853
 O1886 O 0.77251 0.28843 0.82381
 O1887 O 0.82220 0.25683 0.79191
 O1888 O 0.78302 0.24268 0.82472
 O1889 O 0.78259 0.32165 0.74579
 O1890 O 0.75706 0.20428 0.81905
 O1891 O 0.79464 0.30517 0.78703
 O1892 O 0.83164 0.22970 0.75581
 O1893 O 0.78258 0.22420 0.77574
 O1894 O 0.79221 0.26703 0.74852
 O1895 O 0.73908 0.24831 0.79392
 O1896 O 0.74884 0.28901 0.76828
 Zr1897 Zr 0.72477 0.23175 0.71884
 Zr1898 Zr 0.74232 0.20808 0.77938
 Zr1899 Zr 0.76140 0.28879 0.72780
 Zr1900 Zr 0.79401 0.22665 0.73522
 O1901 O 0.73777 0.32537 0.72310
 O1902 O 0.80858 0.18622 0.74326
 O1903 O 0.76459 0.24871 0.71272
 O1904 O 0.75515 0.20831 0.73906
 O1905 O 0.71123 0.22982 0.75880
 O1906 O 0.72143 0.27243 0.73163
 C1907 C 0.83884 0.24227 0.77717
 C1908 C 0.79350 0.32429 0.76916
 C1909 C 0.77209 0.22025 0.83338
 O1910 O 0.76487 0.17067 0.78210
 O1911 O 0.71812 0.17647 0.76275
 O1912 O 0.70714 0.19240 0.72104
 C1913 C 0.70712 0.17377 0.73943
 O1914 O 0.71183 0.29725 0.80534
 Zr1915 Zr 0.70974 0.27050 0.77184
 O1916 O 0.68131 0.23782 0.71675
 O1917 O 0.70878 0.19966 0.80583
 O1918 O 0.68260 0.25497 0.80194
 O1919 O 0.69199 0.30902 0.76115
 O1920 O 0.67106 0.26218 0.75451
 C1921 C 0.66402 0.24936 0.73321
 O1922 O 0.73184 0.20753 0.68416
 O1923 O 0.79579 0.29889 0.70296
 O1924 O 0.72101 0.25365 0.68244
 O1925 O 0.74940 0.29052 0.68710
 O1926 O 0.82356 0.24394 0.70837
 O1927 O 0.79376 0.20497 0.69829
 C1928 C 0.73318 0.27524 0.67326
 H1929 H 0.81039 0.27622 0.74641
 H1930 H 0.75688 0.18951 0.73175
 H1931 H 0.70768 0.28311 0.72107
 H1932 H 0.73312 0.24887 0.81296
 H1933 H 0.82790 0.18472 0.73623
 H1934 H 0.75458 0.15891 0.79498
 H1935 H 0.71156 0.18063 0.81245
 H1936 H 0.66583 0.26699 0.80247
 H1937 H 0.84011 0.23162 0.70806
 H1938 H 0.79255 0.31789 0.69645
 H1939 H 0.74798 0.33688 0.70995
 H1940 H 0.67290 0.30971 0.76886
 H1941 H 0.81228 0.19642 0.69507
 H1942 H 0.71374 0.20553 0.67491
 H1943 H 0.79078 0.29040 0.83277
 H1944 H 0.69286 0.30378 0.81019
 N1945 N 0.47463 0.94953 0.38228
 N1946 N 0.46433 0.95014 0.35774
 C1947 C 0.44687 0.97199 0.35637
 C1948 C 0.44668 0.98473 0.38115
 N1949 N 0.46424 0.97002 0.39667
 H1950 H 0.43514 1.00288 0.38729
 N1951 N -0.00976 0.53305 0.87434
 N1952 N -0.02105 0.53459 0.85019
 C1953 C -0.04380 0.51845 0.85059
 C1954 C -0.04615 0.50715 0.87602
 N1955 N -0.02457 0.51669 0.89001
 H1956 H -0.06212 0.49378 0.88392
 N1957 N 0.01269 0.04062 0.87523
 N1958 N 0.02127 0.03851 0.84998
 C1959 C 0.04373 0.02160 0.84984
 C1960 C 0.04871 0.01353 0.87600
 N1961 N 0.02894 0.02585 0.89116
 H1962 H 0.06457 -0.00051 0.88328
 N1963 N 0.49765 0.49451 0.36671
 N1964 N 0.50793 0.49367 0.34198
 C1965 C 0.53579 0.49043 0.34406
 C1966 C 0.54222 0.48920 0.37103
 N1967 N 0.51791 0.49186 0.38439
 H1968 H 0.56249 0.48720 0.38019
 N1969 N 0.52459 0.45390 0.11707
 N1970 N 0.53507 0.45376 0.14153
 C1971 C 0.55219 0.47547 0.14322
 C1972 C 0.55194 0.48895 0.11868
 N1973 N 0.53448 0.47476 0.10301
 H1974 H 0.56317 0.50718 0.11279
 N1975 N 0.01426 0.98936 0.62428
 N1976 N 0.02405 0.99383 0.64863
 C1977 C 0.05095 1.00088 0.64557
 C1978 C 0.05749 1.00039 0.61855
 N1979 N 0.03399 0.99311 0.60596
 H1980 H 0.07719 1.00515 0.60899
 N1981 N 0.00267 0.49554 0.63234
 N1982 N -0.00705 0.49315 0.65717
 C1983 C -0.03470 0.48883 0.65541
 C1984 C -0.04159 0.48862 0.62854
 N1985 N -0.01776 0.49293 0.61492
 H1986 H -0.06193 0.48646 0.61966
 N1987 N 0.50187 -0.00606 0.13424
 N1988 N 0.49132 -0.00719 0.15886
 C1989 C 0.46349 -0.00987 0.15648
 C1990 C 0.45736 -0.01046 0.12944
 N1991 N 0.48181 -0.00800 0.11634
 H1992 H 0.43718 -0.01183 0.12008
 N1993 N 0.40785 0.40527 0.02925
 N1994 N 0.38399 0.39190 0.02938
 C1995 C 0.36688 0.40510 0.01217
 C1996 C 0.38120 0.42705 0.00127
 N1997 N 0.40665 0.42632 0.01245
 H1998 H 0.37391 0.44200 -0.01325
 N1999 N -0.08536 0.90888 0.53121
 N2000 N -0.10908 0.89526 0.53154
 C2001 C -0.12608 0.90752 0.51358
 C2002 C -0.11180 0.92915 0.50201
 N2003 N -0.08649 0.92918 0.51355
 H2004 H -0.11901 0.94337 0.48679
 N2005 N -0.08908 0.10067 0.98376
 N2006 N -0.11285 0.11453 0.98567
 C2007 C -0.13176 0.09755 0.99695
 C2008 C -0.11852 0.07271 1.00215
 N2009 N -0.09206 0.07563 0.99360
 H2010 H -0.12704 0.05434 1.01115
 N2011 N 0.37558 0.52814 0.45553
 N2012 N 0.35127 0.54114 0.45530
 C2013 C 0.34795 0.55321 0.47947
 C2014 C 0.37117 0.54690 0.49471
 N2015 N 0.38781 0.53128 0.47896
 H2016 H 0.37611 0.55382 0.51469
 N2017 N 0.11599 0.54595 0.54498
 N2018 N 0.13899 0.56059 0.54488
 C2019 C 0.14522 0.56606 0.51901
 C2020 C 0.12528 0.55412 0.50308
 N2021 N 0.10737 0.54189 0.52019
 H2022 H 0.12305 0.55564 0.48154
 N2023 N 0.62439 0.02754 0.04542
 N2024 N 0.64917 0.03915 0.04559
 C2025 C 0.65278 0.05144 0.02152
 C2026 C 0.62918 0.04674 0.00641
 N2027 N 0.61206 0.03182 0.02213
 H2028 H 0.62435 0.05429 -0.01347
 N2029 N 0.60559 0.92254 0.45824
 N2030 N 0.63192 0.91430 0.45674
 C2031 C 0.64305 0.91799 0.48120
 C2032 C 0.62246 0.92865 0.49789
 N2033 N 0.59944 0.93116 0.48275
 H2034 H 0.62427 0.93480 0.51864
 N2035 N 0.11732 0.46219 0.95181
 N2036 N 0.14239 0.45059 0.95130
 C2037 C 0.14728 0.44060 0.97614
 C2038 C 0.12417 0.44662 0.99199
 N2039 N 0.10603 0.46004 0.97602
 H2040 H 0.12064 0.44148 1.01287
 N2041 N -0.04962 0.40805 0.41853
 N2042 N -0.05268 0.38354 0.40767
 C2043 C -0.03386 0.36665 0.41932
 C2044 C -0.01903 0.38170 0.43767
 N2045 N -0.02947 0.40734 0.43645
 H2046 H -0.00204 0.37501 0.45031
 N2047 N 0.45210 -0.08996 -0.08452
 N2048 N 0.44913 -0.11432 -0.09579
 C2049 C 0.46602 -0.13200 -0.08257
 C2050 C 0.47956 -0.11760 -0.06289
 N2051 N 0.47036 -0.09155 -0.06485
 H2052 H 0.49501 -0.12501 -0.04886
 N2053 N -0.02484 -0.13455 1.00346
 N2054 N -0.02206 -0.15982 1.01310
 C2055 C -0.00828 -0.15784 1.03651
 C2056 C -0.00278 -0.13050 1.04090
 N2057 N -0.01352 -0.11673 1.01999
 H2058 H 0.00784 -0.12133 1.05764
 N2059 N 0.55058 0.40353 0.58183
 N2060 N 0.55450 0.37891 0.59254
 C2061 C 0.53741 0.36162 0.57966
 C2062 C 0.52277 0.37651 0.56076
 N2063 N 0.53153 0.40246 0.56286
 H2064 H 0.50684 0.36951 0.54725
 N2065 N 0.53029 1.12725 0.51184
 N2066 N 0.53087 1.15206 0.52246
 C2067 C 0.51634 1.15091 0.54570
 C2068 C 0.50673 1.12442 0.54899
 N2069 N 0.51594 1.11043 0.52745
 H2070 H 0.49461 1.11598 0.56539
 N2071 N -0.02306 0.58672 1.10242
 N2072 N -0.02275 0.61067 1.11491
 C2073 C -0.01836 0.62992 1.09587
 C2074 C -0.01577 0.61719 1.07142
 N2075 N -0.01880 0.59030 1.07638
 H2076 H -0.01135 0.62644 1.05208
 N2077 N 0.46176 0.63141 -0.01572
 N2078 N 0.46176 0.65632 -0.02641
 C2079 C 0.47844 0.65528 -0.04832
 C2080 C 0.48870 0.62877 -0.05070
 N2081 N 0.47778 0.61462 -0.03002
 H2082 H 0.50275 0.62048 -0.06577
 N2083 N -0.03908 1.13192 0.47432
 N2084 N -0.03850 1.15702 0.46415
 C2085 C -0.01755 1.15758 0.44591
 C2086 C -0.00535 1.13166 0.44516
 N2087 N -0.01948 1.11640 0.46311
 H2088 H 0.01203 1.12449 0.43304
 N2089 N 0.77750 0.74870 0.88284
 N2090 N 0.77837 0.73769 0.90720
 C2091 C 0.77039 0.71134 0.90476
 C2092 C 0.76476 0.70648 0.87815
 N2093 N 0.76946 0.73022 0.86520
 H2094 H 0.75729 0.68778 0.86916
 N2095 N 0.26851 0.25776 0.38059
 N2096 N 0.26969 0.24734 0.40514
 C2097 C 0.27214 0.21982 0.40257
 C2098 C 0.27264 0.21377 0.37553
 N2099 N 0.27027 0.23791 0.36260
 H2100 H 0.27332 0.19383 0.36606
 N2101 N 0.79376 0.26304 0.37857
 N2102 N 0.79232 0.27248 0.40344
 C2103 C 0.77241 0.29226 0.40390
 C2104 C 0.76184 0.29478 0.37825
 N2105 N 0.77577 0.27625 0.36312
 H2106 H 0.74570 0.30866 0.37125
 N2107 N 0.30189 0.77337 0.86804
 N2108 N 0.30175 0.78301 0.89285
 C2109 C 0.28026 0.80099 0.89479
 C2110 C 0.26730 0.80217 0.87008
 N2111 N 0.28145 0.78466 0.85403
 H2112 H 0.24930 0.81430 0.86431
 N2113 N 0.21935 0.76456 0.12110
 N2114 N 0.22451 0.77302 0.09629
 C2115 C 0.23485 0.79862 0.09794
 C2116 C 0.23575 0.80557 0.12491
 N2117 N 0.22592 0.78375 0.13858
 H2118 H 0.24389 0.82401 0.13386
 N2119 N 0.70798 0.27176 0.63141
 N2120 N 0.70869 0.28146 0.60660
 C2121 C 0.73031 0.29894 0.60487
 C2122 C 0.74278 0.29971 0.62990
 N2123 N 0.72814 0.28249 0.64578
 H2124 H 0.76071 0.31133 0.63603
 N2125 N 0.23476 0.25097 0.61911
 N2126 N 0.23313 0.24109 0.59442
 C2127 C 0.24036 0.21429 0.59588
 C2128 C 0.24631 0.20797 0.62217
 N2129 N 0.24257 0.23134 0.63595
 H2130 H 0.25294 0.18842 0.63046
 N2131 N 0.73271 0.75494 0.11814
 N2132 N 0.73288 0.74460 0.09361
 C2133 C 0.73008 0.71714 0.09612
 C2134 C 0.72784 0.71108 0.12322
 N2135 N 0.72969 0.73516 0.13614
 H2136 H 0.72648 0.69119 0.13284
 N2137 N 0.15396 0.65960 0.21261
 N2138 N 0.14190 0.63534 0.21185
 C2139 C 0.15284 0.61998 0.23183
 C2140 C 0.17210 0.63593 0.24509
 N2141 N 0.17207 0.66046 0.23241
 H2142 H 0.18515 0.63024 0.26185
 N2143 N 0.69554 0.13843 0.70756
 N2144 N 0.68710 0.11268 0.70711
 C2145 C 0.68186 0.10516 0.73274
 C2146 C 0.68753 0.12743 0.74904
 N2147 N 0.69590 0.14768 0.73247
 H2148 H 0.68631 0.12876 0.77068
 N2149 N 0.83473 0.14662 0.28642
 N2150 N 0.84914 0.12349 0.28390
 C2151 C 0.83698 0.10901 0.26429
 C2152 C 0.81454 0.12404 0.25477
 N2153 N 0.81397 0.14740 0.26915
 H2154 H 0.80053 0.11886 0.23872
 N2155 N 0.32964 0.64860 0.78626
 N2156 N 0.33823 0.62272 0.78674
 C2157 C 0.33442 0.61264 0.76191
 C2158 C 0.32332 0.63325 0.74604
 N2159 N 0.32060 0.65534 0.76208
 H2160 H 0.31658 0.63192 0.72542
 N2161 N 0.27524 0.37330 0.71146
 N2162 N 0.28556 0.39838 0.71215
 C2163 C 0.30464 0.39876 0.73193
 C2164 C 0.30541 0.37283 0.74356
 N2165 N 0.28681 0.35771 0.73015
 H2166 H 0.31801 0.36559 0.76008
 N2167 N 0.78085 0.87078 0.20383
 N2168 N 0.79310 0.89497 0.20386
 C2169 C 0.80367 0.89860 0.22859
 C2170 C 0.79735 0.87565 0.24385
 N2171 N 0.78316 0.85887 0.22760
 H2172 H 0.80292 0.87124 0.26442
 N2173 N 0.68936 0.85721 0.80084
 N2174 N 0.67417 0.88000 0.80056
 C2175 C 0.67740 0.89166 0.77612
 C2176 C 0.69537 0.87497 0.76130
 N2177 N 0.70219 0.85372 0.77752
 H2178 H 0.70190 0.87731 0.74060
 N2179 N 0.21572 0.37384 0.29467
 N2180 N 0.20402 0.39856 0.29461
 C2181 C 0.19347 0.40279 0.26992
 C2182 C 0.19927 0.37957 0.25470
 N2183 N 0.21311 0.36208 0.27096
 H2184 H 0.19365 0.37554 0.23413
 N2185 N 0.16117 0.19973 0.83648
 N2186 N 0.13664 0.19749 0.84856
 C2187 C 0.11929 0.21568 0.83662
 C2188 C 0.13406 0.22923 0.81684
 N2189 N 0.16000 0.21872 0.81748
 H2190 H 0.12702 0.24549 0.80361
 N2191 N 0.65368 0.72631 0.34858
 N2192 N 0.63004 0.72789 0.36238
 C2193 C 0.61123 0.74031 0.34628
 C2194 C 0.62407 0.74633 0.32220
 N2195 N 0.65041 0.73725 0.32446
 H2196 H 0.61528 0.75643 0.30478
 N2197 N 0.61517 0.24733 0.24405
 N2198 N 0.59049 0.25020 0.23275
 C2199 C 0.59501 0.25905 0.20743
 C2200 C 0.62346 0.26159 0.20359
 N2201 N 0.63516 0.25396 0.22686
 H2202 H 0.63471 0.26705 0.18547
 N2203 N 0.12073 0.72352 0.73524
 N2204 N 0.09533 0.72469 0.72521
 C2205 C 0.09618 0.74226 0.70426
 C2206 C 0.12313 0.75177 0.70167
 N2207 N 0.13771 0.73950 0.72134
 H2208 H 0.13152 0.76565 0.68672
 N2209 N 0.84004 0.73665 0.65083
 N2210 N 0.86328 0.73981 0.63672
 C2211 C 0.88319 0.74755 0.65406
 C2212 C 0.87126 0.74908 0.67934
 N2213 N 0.84448 0.74211 0.67639
 H2214 H 0.88073 0.75508 0.69802
 N2215 N 0.34632 0.21695 0.15609
 N2216 N 0.37056 0.21554 0.14333
 C2217 C 0.38750 0.23370 0.15519
 C2218 C 0.37281 0.24636 0.17570
 N2219 N 0.34730 0.23528 0.17556
 H2220 H 0.38007 0.26145 0.18982
 N2221 N 0.37591 0.72485 0.26151
 N2222 N 0.40103 0.72537 0.27213
 C2223 C 0.39942 0.74211 0.29358
 C2224 C 0.37234 0.75181 0.29586
 N2225 N 0.35842 0.74044 0.27551
 H2226 H 0.36339 0.76497 0.31117
 N2227 N 0.88619 0.22750 0.76862
 N2228 N 0.91087 0.22719 0.78011
 C2229 C 0.90780 0.23971 0.80404
 C2230 C 0.88018 0.24787 0.80683
 N2231 N 0.86752 0.23977 0.78427
 H2232 H 0.87014 0.25812 0.82359
 N2233 N 0.53189 1.04822 0.61947
 N2234 N 0.54173 1.04816 0.64418
 C2235 C 0.55784 1.02546 0.64684
 C2236 C 0.55776 1.01165 0.62260
 N2237 N 0.54135 1.02659 0.60614
 H2238 H 0.56790 0.99238 0.61758
 N2239 N -0.00162 0.49277 1.13282
 N2240 N 0.00898 0.49161 1.15721
 C2241 C 0.03699 0.49037 1.15444
 C2242 C 0.04314 0.49055 1.12714
 N2243 N 0.01848 0.49217 1.11454
 H2244 H 0.06328 0.49025 1.11724
 N2245 N -0.02663 -0.05626 1.11762
 N2246 N -0.03619 -0.05620 1.14264
 C2247 C -0.05248 -0.03357 1.14550
 C2248 C -0.05277 -0.01993 1.12108
 N2249 N -0.03649 -0.03474 1.10436
 H2250 H -0.06319 -0.00085 1.11592
 N2251 N 0.49927 0.48458 0.62933
 N2252 N 0.48839 0.48354 0.65381
 C2253 C 0.46087 0.48894 0.65152
 C2254 C 0.45528 0.49342 0.62467
 N2255 N 0.47975 0.49053 0.61160
 H2256 H 0.43553 0.49838 0.61545
 N2257 N 0.46763 0.54909 -0.12263
 N2258 N 0.45796 0.54770 -0.14737
 C2259 C 0.44065 0.52606 -0.14821
 C2260 C 0.43984 0.51435 -0.12290
 N2261 N 0.45693 0.52933 -0.10762
 H2262 H 0.42897 0.49610 -0.11644
 N2263 N -0.01732 1.03627 0.37042
 N2264 N -0.02643 1.03204 0.34580
 C2265 C -0.04887 1.01572 0.34797
 C2266 C -0.05335 1.01022 0.37489
 N2267 N -0.03317 1.02341 0.38819
 H2268 H -0.06883 0.99693 0.38380
 N2269 N 0.00309 0.48014 0.37207
 N2270 N 0.01472 0.47802 0.34798
 C2271 C 0.03851 0.49248 0.34857
 C2272 C 0.04114 0.50354 0.37388
 N2273 N 0.01863 0.49530 0.38790
 H2274 H 0.05817 0.51547 0.38160
 N2275 N 0.49836 -0.00103 -0.12902
 N2276 N 0.50887 0.00047 -0.15363
 C2277 C 0.53649 0.00466 -0.15122
 C2278 C 0.54254 0.00568 -0.12418
 N2279 N 0.51825 0.00201 -0.11111
 H2280 H 0.56252 0.00858 -0.11479
 N2281 N 0.60380 0.56697 -0.04990
 N2282 N 0.62932 0.57704 -0.05030
 C2283 C 0.63715 0.57960 -0.02452
 C2284 C 0.61558 0.57078 -0.00825
 N2285 N 0.59520 0.56310 -0.02489
 H2286 H 0.61494 0.56961 0.01344
 N2287 N 0.09867 1.08893 0.45269
 N2288 N 0.12296 1.10146 0.45164
 C2289 C 0.13725 1.09382 0.47369
 C2290 C 0.12066 1.07609 0.48846
 N2291 N 0.09681 1.07367 0.47461
 H2292 H 0.12534 1.06594 0.50726
 N2293 N 0.08994 -0.09842 1.01845
 N2294 N 0.11363 -0.11238 1.01673
 C2295 C 0.13258 -0.09564 1.00524
 C2296 C 0.11946 -0.07076 0.99973
 N2297 N 0.09299 -0.07350 1.00834
 H2298 H 0.12801 -0.05261 0.99034
 N2299 N 0.62424 0.46785 0.54286
 N2300 N 0.64820 0.45434 0.54404
 C2301 C 0.65358 0.44431 0.51930
 C2302 C 0.63200 0.45266 0.50265
 N2303 N 0.61413 0.46709 0.51828
 H2304 H 0.62840 0.44696 0.48202
 N2305 N -0.12587 0.47055 0.45821
 N2306 N -0.14938 0.45669 0.45777
 C2307 C -0.15334 0.44626 0.48260
 C2308 C -0.13146 0.45446 0.49847
 N2309 N -0.11477 0.46946 0.48239
 H2310 H -0.12690 0.44820 0.51884
 N2311 N 0.37261 -0.02158 -0.03972
 N2312 N 0.34809 -0.03370 -0.04036
 C2313 C 0.34498 -0.04742 -0.01696
 C2314 C 0.36852 -0.04297 -0.00175
 N2315 N 0.38515 -0.02682 -0.01671
 H2316 H 0.37390 -0.05189 0.01746
 N2317 N 0.39151 1.06007 0.54916
 N2318 N 0.36582 1.07028 0.54919
 C2319 C 0.35810 1.07266 0.52332
 C2320 C 0.37998 1.06358 0.50737
 N2321 N 0.40037 1.05597 0.52427
 H2322 H 0.38096 1.06250 0.48569
 N2323 N -0.12244 0.54230 1.05359
 N2324 N -0.14626 0.55617 1.05465
 C2325 C -0.15307 0.56268 1.02919
 C2326 C -0.13255 0.55212 1.01236
 N2327 N -0.11381 0.53964 1.02845
 H2328 H -0.13051 0.55475 0.99087
 N2329 N 0.04996 0.59783 0.57727
 N2330 N 0.05256 0.62291 0.58714
 C2331 C 0.03005 0.63745 0.57906
 C2332 C 0.01362 0.62057 0.56392
 N2333 N 0.02671 0.59611 0.56335
 H2334 H -0.00586 0.62555 0.55416
 N2335 N 0.55054 0.09062 0.08645
 N2336 N 0.55456 0.11540 0.09649
 C2337 C 0.53849 0.13306 0.08231
 C2338 C 0.52443 0.11823 0.06332
 N2339 N 0.53244 0.09198 0.06663
 H2340 H 0.50926 0.12550 0.04895
 N2341 N 0.02101 0.13312 0.99847
 N2342 N 0.01857 0.15874 0.98974
 C2343 C 0.00449 0.15787 0.96644
 C2344 C -0.00150 0.13074 0.96112
 N2345 N 0.00922 0.11606 0.98148
 H2346 H -0.01192 0.12228 0.94392
 N2347 N 0.44367 0.59244 0.42225
 N2348 N 0.44071 0.61750 0.41209
 C2349 C 0.46302 0.63189 0.42006
 C2350 C 0.47963 0.61503 0.43541
 N2351 N 0.46693 0.59069 0.43624
 H2352 H 0.49907 0.61991 0.44506
 N2353 N 0.47624 0.86289 0.49655
 N2354 N 0.47330 0.83865 0.48509
 C2355 C 0.48266 0.84114 0.45962
 C2356 C 0.49172 0.86775 0.45589
 N2357 N 0.48732 0.88054 0.47938
 H2358 H 0.50006 0.87718 0.43790
 N2359 N 0.03663 0.40986 0.91170
 N2360 N 0.03889 0.38527 0.90062
 C2361 C 0.02103 0.36874 0.91389
 C2362 C 0.00773 0.38397 0.93348
 N2363 N 0.01805 0.40942 0.93144
 H2364 H -0.00744 0.37720 0.94820
 N2365 N 0.52852 0.36824 0.00444
 N2366 N 0.52974 0.34344 0.01531
 C2367 C 0.51678 0.34506 0.03937
 C2368 C 0.50747 0.37177 0.04288
 N2369 N 0.51526 0.38546 0.02068
 H2370 H 0.49651 0.38061 0.05987
 N2371 N 0.03809 0.87421 0.51167
 N2372 N 0.03852 0.84941 0.52255
 C2373 C 0.02401 0.85104 0.54577
 C2374 C 0.01459 0.87784 0.54878
 N2375 N 0.02386 0.89152 0.52706
 H2376 H 0.00200 0.88650 0.56481
 N2377 N 0.25024 0.25111 0.11853
 N2378 N 0.24829 0.26102 0.09386
 C2379 C 0.24400 0.28836 0.09598
 C2380 C 0.24332 0.29490 0.12296
 N2381 N 0.24732 0.27110 0.13625
 H2382 H 0.24066 0.31487 0.13210
 N2383 N 0.74814 0.75109 0.62245
 N2384 N 0.74825 0.76107 0.59776
 C2385 C 0.74709 0.78866 0.59980
 C2386 C 0.74605 0.79531 0.62679
 N2387 N 0.74677 0.77125 0.64012
 H2388 H 0.74557 0.81544 0.63589
 N2389 N 0.21357 0.73547 0.62321
 N2390 N 0.21646 0.72655 0.59826
 C2391 C 0.23281 0.70387 0.59915
 C2392 C 0.23968 0.69907 0.62567
 N2393 N 0.22726 0.71924 0.64000
 H2394 H 0.25336 0.68329 0.63363
 N2395 N 0.69885 0.22599 0.13518
 N2396 N 0.69864 0.21662 0.11026
 C2397 C 0.71943 0.19787 0.10816
 C2398 C 0.73223 0.19585 0.13290
 N2399 N 0.71875 0.21369 0.14912
 H2400 H 0.75003 0.18332 0.13845
 N2401 N 0.78674 0.23099 0.87857
 N2402 N 0.78251 0.22251 0.90352
 C2403 C 0.76758 0.19927 0.90217
 C2404 C 0.76299 0.19363 0.87538
 N2405 N 0.77526 0.21397 0.86133
 H2406 H 0.75067 0.17731 0.86703
 N2407 N 0.29322 0.72515 0.36667
 N2408 N 0.29356 0.71523 0.39142
 C2409 C 0.27158 0.69836 0.39400
 C2410 C 0.25779 0.69811 0.36967
 N2411 N 0.27202 0.71507 0.35325
 H2412 H 0.23904 0.68724 0.36453
 N2413 N 0.73034 0.75396 0.37963
 N2414 N 0.73005 0.76475 0.40395
 C2415 C 0.74405 0.78855 0.40230
 C2416 C 0.75295 0.79208 0.37610
 N2417 N 0.74390 0.77004 0.36264
 H2418 H 0.76385 0.80939 0.36748
 N2419 N 0.23295 0.25028 0.87840
 N2420 N 0.22983 0.26214 0.90212
 C2421 C 0.24329 0.28628 0.90074
 C2422 C 0.25479 0.28886 0.87543
 N2423 N 0.24783 0.26600 0.86214
 H2424 H 0.26603 0.30613 0.86714
 N2425 N 0.80553 0.35945 0.80132
 N2426 N 0.81525 0.38478 0.80186
 C2427 C 0.82047 0.39213 0.77621
 C2428 C 0.81354 0.37042 0.75983
 N2429 N 0.80435 0.35049 0.77633
 H2430 H 0.81511 0.36917 0.73820
 N2431 N 0.29840 0.86248 0.29522
 N2432 N 0.30786 0.88785 0.29620
 C2433 C 0.31488 0.89525 0.27090
 C2434 C 0.30905 0.87325 0.25421
 N2435 N 0.29897 0.85335 0.27028
 H2436 H 0.31156 0.87171 0.23267
 N2437 N 0.16363 0.84797 0.71651
 N2438 N 0.14964 0.87144 0.71816
 C2439 C 0.16278 0.88703 0.73630
 C2440 C 0.18542 0.87228 0.74586
 N2441 N 0.18509 0.84800 0.73298
 H2442 H 0.20024 0.87831 0.76092
 N2443 N 0.70549 0.36213 0.20688
 N2444 N 0.69561 0.38754 0.20577
 C2445 C 0.68999 0.39530 0.23121
 C2446 C 0.69695 0.37368 0.24810
 N2447 N 0.70645 0.35346 0.23203
 H2448 H 0.69462 0.37241 0.26968
 N2449 N 0.69583 0.63453 0.29609
 N2450 N 0.68227 0.61106 0.29600
 C2451 C 0.67886 0.60401 0.27011
 C2452 C 0.69096 0.62402 0.25419
 N2453 N 0.70120 0.64274 0.27127
 H2454 H 0.69085 0.62564 0.23253
 N2455 N 0.22577 0.12327 0.79343
 N2456 N 0.21280 0.09947 0.79418
 C2457 C 0.20309 0.09488 0.76931
 C2458 C 0.21064 0.11677 0.75314
 N2459 N 0.22466 0.13407 0.76907
 H2460 H 0.20425 0.12095 0.73275
 N2461 N 0.30256 0.13614 0.20393
 N2462 N 0.31606 0.11234 0.20425
 C2463 C 0.31923 0.10510 0.23020
 C2464 C 0.30705 0.12540 0.24592
 N2465 N 0.29700 0.14444 0.22866
 H2466 H 0.30694 0.12694 0.26758
 N2467 N 0.79890 0.63453 0.70209
 N2468 N 0.81154 0.61032 0.70101
 C2469 C 0.81667 0.60255 0.72650
 C2470 C 0.80659 0.62294 0.74340
 N2471 N 0.79579 0.64254 0.72727
 H2472 H 0.80825 0.62409 0.76501
 N2473 N 0.83356 0.79259 0.16044
 N2474 N 0.85806 0.79426 0.14824
 C2475 C 0.87524 0.77587 0.16023
 C2476 C 0.86025 0.76289 0.18038
 N2477 N 0.83450 0.77389 0.17970
 H2478 H 0.86700 0.74698 0.19414
 N2479 N 0.34624 0.29192 0.66155
 N2480 N 0.37060 0.29262 0.64891
 C2481 C 0.38702 0.27331 0.66045
 C2482 C 0.37200 0.26087 0.68067
 N2483 N 0.34678 0.27304 0.68068
 H2484 H 0.37859 0.24457 0.69408
 N2485 N 0.39056 0.76950 0.75280
 N2486 N 0.41579 0.76684 0.76310
 C2487 C 0.41293 0.75312 0.78653
 C2488 C 0.38501 0.74754 0.79026
 N2489 N 0.37186 0.75815 0.76889
 H2490 H 0.37496 0.73769 0.80719
 N2491 N 0.87466 0.20370 0.27984
 N2492 N 0.90053 0.20121 0.28840
 C2493 C 0.90991 0.22683 0.29259
 C2494 C 0.88880 0.24525 0.28621
 N2495 N 0.86727 0.22988 0.27840
 H2496 H 0.88813 0.26719 0.28956
 N2497 N 0.16173 0.29469 0.33840
 N2498 N 0.13678 0.29615 0.34987
 C2499 C 0.12097 0.27688 0.33816
 C2500 C 0.13703 0.26358 0.31912
 N2501 N 0.16222 0.27529 0.31991
 H2502 H 0.13097 0.24738 0.30563
 N2503 N 0.66196 0.78353 0.84598
 N2504 N 0.63745 0.78469 0.85825
 C2505 C 0.62036 0.76784 0.84483
 C2506 C 0.63525 0.75629 0.82383
 N2507 N 0.66103 0.76666 0.82529
 H2508 H 0.62803 0.74228 0.80866
 N2509 N 0.61531 0.25565 0.74518
 N2510 N 0.59034 0.25269 0.73463
 C2511 C 0.59423 0.24244 0.70976
 C2512 C 0.62259 0.23922 0.70541
 N2513 N 0.63488 0.24780 0.72793
 H2514 H 0.63337 0.23241 0.68745
 N2515 N 0.10740 0.77799 0.23699
 N2516 N 0.08260 0.77825 0.22563
 C2517 C 0.08577 0.76648 0.20133
 C2518 C 0.11343 0.75886 0.19820
 N2519 N 0.12611 0.76643 0.22087
 H2520 H 0.12347 0.74892 0.18127
   
