data_POSCAR
  _audit_creation_date              2014-09-24
  _audit_creation_method            'ToBaCCo'
  _symmetry_space_group_name_H-M    'P1'
  _symmetry_Int_Tables_number       1
  _symmetry_cell_setting            triclinic
  loop_
  _symmetry_equiv_pos_as_xyz
 x,y,z
_cell_length_a 75.7646
_cell_length_b 75.7727
_cell_length_c 75.8362
_cell_angle_alpha 90.006300
_cell_angle_beta 89.990400
_cell_angle_gamma 89.931100
loop_
  _atom_site_label
  _atom_site_type_symbol
  _atom_site_fract_x
  _atom_site_fract_y
  _atom_site_fract_z
C1 C 0.35847 0.33251 0.34567
 C2 C 0.34538 0.33253 0.35875
 C3 C 0.33246 0.34545 0.35875
 C4 C 0.33245 0.35854 0.34567
 C5 C 0.34537 0.35852 0.33276
 C6 C 0.35846 0.34542 0.33276
 C7 C 0.37220 0.32118 0.34200
 N8 N 0.38049 0.32692 0.32719
 C9 C 0.37219 0.34174 0.32145
 C10 C 0.34170 0.37225 0.32146
 N11 N 0.32688 0.38056 0.32719
 C12 C 0.32114 0.37228 0.34200
 C13 C 0.32115 0.34180 0.37248
 N14 N 0.32690 0.32699 0.38077
 C15 C 0.34172 0.32123 0.37247
 H16 H 0.37571 0.30946 0.34937
 H17 H 0.37568 0.34911 0.30974
 H18 H 0.34908 0.37574 0.30974
 H19 H 0.30941 0.37580 0.34937
 H20 H 0.30943 0.34919 0.37598
 H21 H 0.34911 0.30950 0.37598
 C22 C 0.35828 0.83226 -0.15527
 C23 C 0.34524 0.83232 -0.14215
 C24 C 0.33232 0.84524 -0.14214
 C25 C 0.33226 0.85828 -0.15527
 C26 C 0.34513 0.85822 -0.16822
 C27 C 0.35823 0.84512 -0.16822
 C28 C 0.37202 0.82093 -0.15893
 N29 N 0.38028 0.82660 -0.17380
 C30 C 0.37194 0.84142 -0.17955
 C31 C 0.34143 0.87193 -0.17954
 N32 N 0.32661 0.88027 -0.17380
 C33 C 0.32094 0.87201 -0.15893
 C34 C 0.32106 0.84164 -0.12837
 N35 N 0.32684 0.82685 -0.12004
 C36 C 0.34163 0.82107 -0.12836
 H37 H 0.37554 0.80926 -0.15146
 H38 H 0.37538 0.84882 -0.19127
 H39 H 0.34883 0.87536 -0.19127
 H40 H 0.30927 0.87553 -0.15146
 H41 H 0.30935 0.84904 -0.12485
 H42 H 0.34903 0.80935 -0.12484
 C43 C 0.85824 0.33228 -0.15517
 C44 C 0.84520 0.33233 -0.14205
 C45 C 0.83227 0.34525 -0.14204
 C46 C 0.83222 0.35830 -0.15516
 C47 C 0.84510 0.35825 -0.16810
 C48 C 0.85819 0.34515 -0.16811
 C49 C 0.87197 0.32095 -0.15883
 N50 N 0.88024 0.32663 -0.17370
 C51 C 0.87190 0.34145 -0.17944
 C52 C 0.84140 0.37196 -0.17943
 N53 N 0.82658 0.38031 -0.17368
 C54 C 0.82090 0.37204 -0.15881
 C55 C 0.82101 0.34164 -0.12827
 N56 N 0.82680 0.32685 -0.11995
 C57 C 0.84159 0.32107 -0.12828
 H58 H 0.87549 0.30928 -0.15138
 H59 H 0.87534 0.34885 -0.19116
 H60 H 0.84881 0.37540 -0.19114
 H61 H 0.80923 0.37556 -0.15135
 H62 H 0.80930 0.34904 -0.12474
 H63 H 0.84899 0.30936 -0.12477
 C64 C 0.85845 0.83246 0.34520
 C65 C 0.84540 0.83251 0.35832
 C66 C 0.83247 0.84542 0.35832
 C67 C 0.83241 0.85847 0.34520
 C68 C 0.84529 0.85842 0.33227
 C69 C 0.85839 0.84534 0.33226
 C70 C 0.87219 0.82115 0.34153
 N71 N 0.88045 0.82683 0.32666
 C72 C 0.87210 0.84165 0.32093
 C73 C 0.84159 0.87213 0.32094
 N74 N 0.82675 0.88046 0.32667
 C75 C 0.82108 0.87220 0.34154
 C76 C 0.82120 0.84180 0.37209
 N77 N 0.82699 0.82702 0.38041
 C78 C 0.84179 0.82124 0.37209
 H79 H 0.87571 0.80947 0.34898
 H80 H 0.87554 0.84906 0.30921
 H81 H 0.84900 0.87557 0.30922
 H82 H 0.80939 0.87570 0.34899
 H83 H 0.80948 0.84920 0.37561
 H84 H 0.84919 0.80953 0.37561
 C85 C 0.64154 0.66759 0.34562
 C86 C 0.65462 0.66757 0.35870
 C87 C 0.66753 0.65463 0.35872
 C88 C 0.66753 0.64154 0.34565
 C89 C 0.65462 0.64155 0.33274
 C90 C 0.64154 0.65466 0.33273
 C91 C 0.62781 0.67892 0.34194
 N92 N 0.61952 0.67317 0.32714
 C93 C 0.62782 0.65834 0.32142
 C94 C 0.65828 0.62781 0.32145
 N95 N 0.67308 0.61949 0.32719
 C96 C 0.67883 0.62778 0.34199
 C97 C 0.67883 0.65829 0.37244
 N98 N 0.67309 0.67312 0.38072
 C99 C 0.65828 0.67888 0.37242
 H100 H 0.62430 0.69065 0.34930
 H101 H 0.62432 0.65095 0.30971
 H102 H 0.65090 0.62431 0.30974
 H103 H 0.69055 0.62426 0.34937
 H104 H 0.69054 0.65089 0.37596
 H105 H 0.65090 0.69062 0.37592
 C106 C 0.64160 0.16771 -0.15514
 C107 C 0.65464 0.16766 -0.14201
 C108 C 0.66756 0.15474 -0.14201
 C109 C 0.66762 0.14169 -0.15512
 C110 C 0.65475 0.14173 -0.16807
 C111 C 0.64165 0.15483 -0.16807
 C112 C 0.62786 0.17903 -0.15880
 N113 N 0.61960 0.17334 -0.17366
 C114 C 0.62794 0.15852 -0.17940
 C115 C 0.65845 0.12802 -0.17938
 N116 N 0.67327 0.11967 -0.17363
 C117 C 0.67894 0.12795 -0.15877
 C118 C 0.67882 0.15835 -0.12824
 N119 N 0.67304 0.17314 -0.11992
 C120 C 0.65826 0.17893 -0.12824
 H121 H 0.62434 0.19071 -0.15134
 H122 H 0.62450 0.15111 -0.19111
 H123 H 0.65105 0.12457 -0.19111
 H124 H 0.69061 0.12444 -0.15130
 H125 H 0.69053 0.15094 -0.12472
 H126 H 0.65086 0.19064 -0.12472
 C127 C 0.14168 0.66766 -0.15510
 C128 C 0.15473 0.66761 -0.14199
 C129 C 0.16765 0.65469 -0.14200
 C130 C 0.16769 0.64164 -0.15512
 C131 C 0.15481 0.64169 -0.16805
 C132 C 0.14172 0.65479 -0.16804
 C133 C 0.12794 0.67899 -0.15874
 N134 N 0.11966 0.67331 -0.17361
 C135 C 0.12800 0.65849 -0.17936
 C136 C 0.15850 0.62798 -0.17938
 N137 N 0.17333 0.61963 -0.17365
 C138 C 0.17902 0.62790 -0.15878
 C139 C 0.17892 0.65831 -0.12823
 N140 N 0.17313 0.67310 -0.11991
 C141 C 0.15834 0.67887 -0.12822
 H142 H 0.12443 0.69066 -0.15128
 H143 H 0.12455 0.65109 -0.19107
 H144 H 0.15109 0.62454 -0.19109
 H145 H 0.19069 0.62439 -0.15133
 H146 H 0.19064 0.65091 -0.12472
 H147 H 0.15094 0.69058 -0.12470
 C148 C 0.14175 0.16776 0.34492
 C149 C 0.15478 0.16769 0.35805
 C150 C 0.16770 0.15478 0.35805
 C151 C 0.16777 0.14175 0.34491
 C152 C 0.15492 0.14181 0.33196
 C153 C 0.14182 0.15490 0.33197
 C154 C 0.12801 0.17909 0.34125
 N155 N 0.11977 0.17342 0.32637
 C156 C 0.12812 0.15860 0.32063
 C157 C 0.15862 0.12812 0.32062
 N158 N 0.17345 0.11977 0.32636
 C159 C 0.17911 0.12802 0.34124
 C160 C 0.17895 0.15837 0.37184
 N161 N 0.17315 0.17315 0.38017
 C162 C 0.15837 0.17894 0.37185
 H163 H 0.12449 0.19075 0.34872
 H164 H 0.12470 0.15121 0.30889
 H165 H 0.15123 0.12469 0.30889
 H166 H 0.19078 0.12450 0.34871
 H167 H 0.19066 0.15097 0.37536
 H168 H 0.15096 0.19064 0.37537
 C169 C 0.64141 0.33251 0.65444
 C170 C 0.65449 0.33252 0.64135
 C171 C 0.66739 0.34543 0.64135
 C172 C 0.66739 0.35851 0.65443
 C173 C 0.65448 0.35850 0.66735
 C174 C 0.64141 0.34542 0.66735
 C175 C 0.62770 0.32119 0.65811
 N176 N 0.61941 0.32693 0.67292
 C177 C 0.62769 0.34174 0.67866
 C178 C 0.65815 0.37222 0.67866
 N179 N 0.67295 0.38051 0.67292
 C180 C 0.67869 0.37223 0.65810
 C181 C 0.67871 0.34177 0.62762
 N182 N 0.67298 0.32696 0.61933
 C183 C 0.65817 0.32121 0.62762
 H184 H 0.62420 0.30947 0.65073
 H185 H 0.62418 0.34911 0.69038
 H186 H 0.65077 0.37572 0.69039
 H187 H 0.69041 0.37573 0.65073
 H188 H 0.69042 0.34915 0.62412
 H189 H 0.65081 0.30948 0.62412
 C190 C 0.64127 0.83234 1.15490
 C191 C 0.65431 0.83237 1.14176
 C192 C 0.66720 0.84530 1.14174
 C193 C 0.66723 0.85835 1.15484
 C194 C 0.65437 0.85832 1.16780
 C195 C 0.64130 0.84522 1.16783
 C196 C 0.62757 0.82102 1.15858
 N197 N 0.61930 0.82671 1.17346
 C198 C 0.62761 0.84154 1.17918
 C199 C 0.65807 0.87203 1.17911
 N200 N 0.67285 0.88034 1.17332
 C201 C 0.67854 0.87208 1.15848
 C202 C 0.67846 0.84167 1.12796
 N203 N 0.67271 0.82687 1.11967
 C204 C 0.65794 0.82109 1.12800
 H205 H 0.62407 0.80933 1.15114
 H206 H 0.62416 0.84895 1.19089
 H207 H 0.65074 0.87551 1.19087
 H208 H 0.69022 0.87560 1.15106
 H209 H 0.69016 0.84906 1.12443
 H210 H 0.65057 0.80937 1.12450
 C211 C 0.14130 0.33226 1.15481
 C212 C 0.15432 0.33232 1.14167
 C213 C 0.16718 0.34528 1.14162
 C214 C 0.16718 0.35835 1.15471
 C215 C 0.15432 0.35830 1.16767
 C216 C 0.14130 0.34516 1.16773
 C217 C 0.12763 0.32090 1.15852
 N218 N 0.11936 0.32658 1.17339
 C219 C 0.12763 0.34144 1.17909
 C220 C 0.15798 0.37204 1.17897
 N221 N 0.17273 0.38039 1.17316
 C222 C 0.17844 0.37212 1.15833
 C223 C 0.17844 0.34166 1.12784
 N224 N 0.17272 0.32684 1.11957
 C225 C 0.15798 0.32104 1.12792
 H226 H 0.12417 0.30920 1.15109
 H227 H 0.12416 0.34886 1.19080
 H228 H 0.15064 0.37551 1.19072
 H229 H 0.19011 0.37567 1.15090
 H230 H 0.19012 0.34908 1.12429
 H231 H 0.15063 0.30929 1.12444
 C232 C 0.14171 0.83282 0.65480
 C233 C 0.15477 0.83284 0.64170
 C234 C 0.16771 0.84571 0.64174
 C235 C 0.16777 0.85873 0.65488
 C236 C 0.15488 0.85871 0.66781
 C237 C 0.14176 0.84567 0.66777
 C238 C 0.12796 0.82153 0.65843
 N239 N 0.11971 0.82722 0.67328
 C240 C 0.12804 0.84198 0.67908
 C241 C 0.15859 0.87238 0.67917
 N242 N 0.17344 0.88067 0.67346
 C243 C 0.17912 0.87241 0.65858
 C244 C 0.17899 0.84207 0.62797
 N245 N 0.17320 0.82732 0.61963
 C246 C 0.15839 0.82159 0.62791
 H247 H 0.12442 0.80986 0.65101
 H248 H 0.12458 0.84931 0.69084
 H249 H 0.15118 0.87583 0.69089
 H250 H 0.19081 0.87589 0.65114
 H251 H 0.19073 0.84943 0.62449
 H252 H 0.15097 0.80990 0.62437
 C253 C 0.35860 0.66725 0.65429
 C254 C 0.34552 0.66725 0.64120
 C255 C 0.33260 0.65436 0.64121
 C256 C 0.33257 0.64130 0.65430
 C257 C 0.34548 0.64129 0.66722
 C258 C 0.35857 0.65435 0.66721
 C259 C 0.37232 0.67855 0.65796
 N260 N 0.38059 0.67282 0.67278
 C261 C 0.37229 0.65802 0.67853
 C262 C 0.34178 0.62759 0.67854
 N263 N 0.32697 0.61932 0.67280
 C264 C 0.32124 0.62760 0.65799
 C265 C 0.32130 0.65805 0.62748
 N266 N 0.32706 0.67284 0.61919
 C267 C 0.34187 0.67856 0.62748
 H268 H 0.37583 0.69026 0.65058
 H269 H 0.37577 0.65066 0.69026
 H270 H 0.34915 0.62409 0.69027
 H271 H 0.30952 0.62410 0.65061
 H272 H 0.30956 0.65069 0.62398
 H273 H 0.34927 0.69027 0.62397
 C274 C 0.35831 0.16716 1.15457
 C275 C 0.34523 0.16717 1.14149
 C276 C 0.33227 0.15431 1.14153
 C277 C 0.33222 0.14128 1.15467
 C278 C 0.34513 0.14128 1.16757
 C279 C 0.35826 0.15430 1.16752
 C280 C 0.37208 0.17843 1.15819
 N281 N 0.38035 0.17271 1.17302
 C282 C 0.37200 0.15796 1.17881
 C283 C 0.34141 0.12761 1.17893
 N284 N 0.32655 0.11934 1.17324
 C285 C 0.32086 0.12762 1.15838
 C286 C 0.32098 0.15798 1.12780
 N287 N 0.32677 0.17273 1.11945
 C288 C 0.34160 0.17844 1.12772
 H289 H 0.37563 0.19011 1.15077
 H290 H 0.37548 0.15061 1.19056
 H291 H 0.34883 0.12414 1.19063
 H292 H 0.30915 0.12416 1.15095
 H293 H 0.30923 0.15063 1.12432
 H294 H 0.34902 0.19012 1.12417
 C295 C 0.85861 0.66747 1.15455
 C296 C 0.84554 0.66743 1.14145
 C297 C 0.83267 0.65449 1.14144
 C298 C 0.83269 0.64141 1.15452
 C299 C 0.84558 0.64145 1.16744
 C300 C 0.85863 0.65456 1.16746
 C301 C 0.87229 0.67881 1.15823
 N302 N 0.88058 0.67309 1.17304
 C303 C 0.87233 0.65827 1.17878
 C304 C 0.84193 0.62772 1.17875
 N305 N 0.82715 0.61939 1.17299
 C306 C 0.82141 0.62767 1.15818
 C307 C 0.82136 0.65813 1.12770
 N308 N 0.82707 0.67295 1.11942
 C309 C 0.84186 0.67873 1.12772
 H310 H 0.87577 0.69054 1.15085
 H311 H 0.87584 0.65090 1.19050
 H312 H 0.84930 0.62423 1.19048
 H313 H 0.80971 0.62413 1.15079
 H314 H 0.80967 0.65073 1.12419
 H315 H 0.84921 0.69046 1.12422
 C316 C 0.85883 0.16765 0.65492
 C317 C 0.84582 0.16759 0.64176
 C318 C 0.83296 0.15464 0.64172
 C319 C 0.83293 0.14159 0.65482
 C320 C 0.84577 0.14165 0.66780
 C321 C 0.85881 0.15477 0.66785
 C322 C 0.87250 0.17901 0.65862
 N323 N 0.88075 0.17335 0.67351
 C324 C 0.87246 0.15850 0.67922
 C325 C 0.84207 0.12794 0.67912
 N326 N 0.82732 0.11960 0.67331
 C327 C 0.82164 0.12784 0.65846
 C328 C 0.82171 0.15825 0.62793
 N329 N 0.82744 0.17305 0.61964
 C330 C 0.84219 0.17886 0.62800
 H331 H 0.87598 0.19070 0.65118
 H332 H 0.87590 0.15110 0.69094
 H333 H 0.84939 0.12448 0.69088
 H334 H 0.80997 0.12430 0.65102
 H335 H 0.81003 0.15083 0.62439
 H336 H 0.84954 0.19060 0.62451
 C337 C 0.33218 0.35820 0.65497
 C338 C 0.33219 0.34511 0.64188
 C339 C 0.34511 0.33219 0.64188
 C340 C 0.35820 0.33218 0.65496
 C341 C 0.35818 0.34509 0.66787
 C342 C 0.34509 0.35819 0.66787
 C343 C 0.32087 0.37195 0.65861
 N344 N 0.32661 0.38025 0.67341
 C345 C 0.34142 0.37193 0.67916
 C346 C 0.37193 0.34142 0.67916
 N347 N 0.38024 0.32661 0.67341
 C348 C 0.37195 0.32087 0.65861
 C349 C 0.34147 0.32090 0.62814
 N350 N 0.32667 0.32667 0.61984
 C351 C 0.32090 0.34147 0.62814
 H352 H 0.30916 0.37548 0.65122
 H353 H 0.34880 0.37544 0.69087
 H354 H 0.37544 0.34880 0.69087
 H355 H 0.37548 0.30916 0.65122
 H356 H 0.34887 0.30918 0.62463
 H357 H 0.30919 0.34887 0.62463
 C358 C 0.33245 0.85893 0.15421
 C359 C 0.33246 0.84584 0.14113
 C360 C 0.34540 0.83293 0.14111
 C361 C 0.35850 0.83295 0.15417
 C362 C 0.35850 0.84586 0.16707
 C363 C 0.34538 0.85894 0.16709
 C364 C 0.32112 0.87266 0.15789
 N365 N 0.32688 0.88096 0.17267
 C366 C 0.34171 0.87268 0.17839
 C367 C 0.37225 0.84221 0.17835
 N368 N 0.38057 0.82740 0.17260
 C369 C 0.37226 0.82165 0.15782
 C370 C 0.34174 0.82162 0.12740
 N371 N 0.32691 0.82735 0.11913
 C372 C 0.32114 0.84216 0.12742
 H373 H 0.30938 0.87617 0.15053
 H374 H 0.34911 0.87619 0.19009
 H375 H 0.37576 0.84960 0.19006
 H376 H 0.37578 0.80992 0.15044
 H377 H 0.34914 0.80991 0.12388
 H378 H 0.30940 0.84954 0.12393
 C379 C 0.83281 0.35830 0.15434
 C380 C 0.83282 0.34521 0.14126
 C381 C 0.84574 0.33229 0.14126
 C382 C 0.85883 0.33228 0.15433
 C383 C 0.85883 0.34520 0.16723
 C384 C 0.84573 0.35829 0.16723
 C385 C 0.82149 0.37204 0.15801
 N386 N 0.82724 0.38033 0.17280
 C387 C 0.84206 0.37203 0.17854
 C388 C 0.87257 0.34154 0.17852
 N389 N 0.88088 0.32672 0.17278
 C390 C 0.87258 0.32097 0.15799
 C391 C 0.84208 0.32098 0.12753
 N392 N 0.82726 0.32674 0.11925
 C393 C 0.82151 0.34155 0.12754
 H394 H 0.80976 0.37555 0.15064
 H395 H 0.84944 0.37553 0.19024
 H396 H 0.87607 0.34893 0.19023
 H397 H 0.87611 0.30925 0.15062
 H398 H 0.84947 0.30926 0.12402
 H399 H 0.80978 0.34895 0.12404
 C400 C 0.83262 0.85861 0.65490
 C401 C 0.83265 0.84554 0.64180
 C402 C 0.84557 0.83262 0.64180
 C403 C 0.85864 0.83259 0.65490
 C404 C 0.85861 0.84549 0.66782
 C405 C 0.84551 0.85858 0.66782
 C406 C 0.82130 0.87235 0.65857
 N407 N 0.82702 0.88062 0.67338
 C408 C 0.84182 0.87230 0.67913
 C409 C 0.87234 0.84180 0.67913
 N410 N 0.88066 0.82700 0.67337
 C411 C 0.87239 0.82128 0.65855
 C412 C 0.84194 0.82134 0.62805
 N413 N 0.82714 0.82711 0.61975
 C414 C 0.82137 0.84190 0.62805
 H415 H 0.80959 0.87587 0.65117
 H416 H 0.84919 0.87580 0.69086
 H417 H 0.87582 0.84917 0.69085
 H418 H 0.87592 0.80957 0.65116
 H419 H 0.84934 0.80962 0.62453
 H420 H 0.80965 0.84930 0.62454
 C421 C 0.66775 0.64165 0.65489
 C422 C 0.66774 0.65474 0.64181
 C423 C 0.65482 0.66765 0.64180
 C424 C 0.64173 0.66766 0.65488
 C425 C 0.64174 0.65475 0.66779
 C426 C 0.65484 0.64166 0.66779
 C427 C 0.67906 0.62790 0.65854
 N428 N 0.67331 0.61961 0.67334
 C429 C 0.65850 0.62792 0.67908
 C430 C 0.62798 0.65842 0.67908
 N431 N 0.61967 0.67323 0.67332
 C432 C 0.62797 0.67897 0.65853
 C433 C 0.65847 0.67895 0.62807
 N434 N 0.67328 0.67319 0.61977
 C435 C 0.67904 0.65838 0.62807
 H436 H 0.69078 0.62438 0.65116
 H437 H 0.65111 0.62441 0.69079
 H438 H 0.62447 0.65104 0.69078
 H439 H 0.62445 0.69068 0.65114
 H440 H 0.65107 0.69066 0.62456
 H441 H 0.69077 0.65099 0.62456
 C442 C 0.66774 0.14115 0.15441
 C443 C 0.66771 0.15423 0.14132
 C444 C 0.65476 0.16712 0.14130
 C445 C 0.64166 0.16711 0.15437
 C446 C 0.64168 0.15422 0.16728
 C447 C 0.65481 0.14115 0.16730
 C448 C 0.67908 0.12744 0.15811
 N449 N 0.67333 0.11915 0.17291
 C450 C 0.65849 0.12744 0.17862
 C451 C 0.62793 0.15787 0.17857
 N452 N 0.61960 0.17266 0.17281
 C453 C 0.62789 0.17841 0.15801
 C454 C 0.65840 0.17842 0.12757
 N455 N 0.67323 0.17269 0.11929
 C456 C 0.67902 0.15790 0.12760
 H457 H 0.69082 0.12393 0.15075
 H458 H 0.65110 0.12394 0.19033
 H459 H 0.62444 0.15050 0.19028
 H460 H 0.62436 0.19012 0.15062
 H461 H 0.65098 0.19012 0.12404
 H462 H 0.69076 0.15053 0.12410
 C463 C 0.16725 0.64176 0.15439
 C464 C 0.16726 0.65486 0.14133
 C465 C 0.15437 0.66781 0.14135
 C466 C 0.14130 0.66785 0.15445
 C467 C 0.14129 0.65493 0.16734
 C468 C 0.15435 0.64180 0.16732
 C469 C 0.17854 0.62799 0.15803
 N470 N 0.17279 0.61971 0.17284
 C471 C 0.15801 0.62805 0.17860
 C472 C 0.12758 0.65862 0.17867
 N473 N 0.11930 0.67346 0.17295
 C474 C 0.12759 0.67920 0.15815
 C475 C 0.15804 0.67911 0.12763
 N476 N 0.17282 0.67332 0.11931
 C477 C 0.17855 0.65849 0.12758
 H478 H 0.19024 0.62445 0.15064
 H479 H 0.15063 0.62456 0.19032
 H480 H 0.12408 0.65124 0.19038
 H481 H 0.12408 0.69093 0.15078
 H482 H 0.15067 0.69086 0.12413
 H483 H 0.19025 0.65107 0.12406
 C484 C 0.16724 0.14123 0.65470
 C485 C 0.16722 0.15430 0.64161
 C486 C 0.15430 0.16722 0.64162
 C487 C 0.14123 0.16725 0.65471
 C488 C 0.14125 0.15434 0.66763
 C489 C 0.15434 0.14125 0.66762
 C490 C 0.17856 0.12748 0.65835
 N491 N 0.17283 0.11920 0.67316
 C492 C 0.15803 0.12751 0.67892
 C493 C 0.12752 0.15803 0.67893
 N494 N 0.11920 0.17284 0.67318
 C495 C 0.12749 0.17856 0.65837
 C496 C 0.15795 0.17851 0.62788
 N497 N 0.17275 0.17275 0.61957
 C498 C 0.17851 0.15794 0.62787
 H499 H 0.19027 0.12396 0.65096
 H500 H 0.15065 0.12402 0.69064
 H501 H 0.12402 0.15066 0.69065
 H502 H 0.12396 0.19028 0.65099
 H503 H 0.15055 0.19024 0.62437
 H504 H 0.19023 0.15055 0.62435
 C505 C 0.33255 0.64169 0.34511
 C506 C 0.33255 0.65477 0.35819
 C507 C 0.34546 0.66768 0.35818
 C508 C 0.35853 0.66768 0.34509
 C509 C 0.35852 0.65478 0.33217
 C510 C 0.34544 0.64169 0.33218
 C511 C 0.32125 0.62796 0.34146
 N512 N 0.32698 0.61966 0.32666
 C513 C 0.34177 0.62796 0.32089
 C514 C 0.37225 0.65845 0.32086
 N515 N 0.38054 0.67325 0.32661
 C516 C 0.37225 0.67899 0.34142
 C517 C 0.34180 0.67898 0.37192
 N518 N 0.32701 0.67323 0.38023
 C519 C 0.32126 0.65843 0.37194
 H520 H 0.30955 0.62445 0.34887
 H521 H 0.34914 0.62445 0.30916
 H522 H 0.37575 0.65107 0.30914
 H523 H 0.37576 0.69070 0.34881
 H524 H 0.34918 0.69069 0.37543
 H525 H 0.30955 0.65104 0.37546
 C526 C 0.33267 0.14096 0.84555
 C527 C 0.33265 0.15405 0.85862
 C528 C 0.34556 0.16695 0.85864
 C529 C 0.35868 0.16692 0.84559
 C530 C 0.35870 0.15400 0.83269
 C531 C 0.34561 0.14093 0.83267
 C532 C 0.32137 0.12724 0.84188
 N533 N 0.32714 0.11892 0.82709
 C534 C 0.34196 0.12720 0.82137
 C535 C 0.37246 0.15765 0.82141
 N536 N 0.38074 0.17245 0.82716
 C537 C 0.37242 0.17821 0.84194
 C538 C 0.34187 0.17827 0.87235
 N539 N 0.32704 0.17256 0.88061
 C540 C 0.32131 0.15774 0.87232
 H541 H 0.30963 0.12375 0.84924
 H542 H 0.34937 0.12367 0.80968
 H543 H 0.37599 0.15026 0.80971
 H544 H 0.37591 0.18994 0.84932
 H545 H 0.34924 0.18999 0.87585
 H546 H 0.30958 0.15038 0.87581
 C547 C 0.83292 0.64113 0.84573
 C548 C 0.83288 0.65424 0.85878
 C549 C 0.84578 0.66715 0.85878
 C550 C 0.85890 0.66712 0.84573
 C551 C 0.85894 0.65419 0.83285
 C552 C 0.84586 0.64110 0.83285
 C553 C 0.82163 0.62739 0.84207
 N554 N 0.82741 0.61907 0.82729
 C555 C 0.84222 0.62735 0.82156
 C556 C 0.87269 0.65784 0.82156
 N557 N 0.88095 0.67266 0.82729
 C558 C 0.87262 0.67843 0.84207
 C559 C 0.84207 0.67849 0.87247
 N560 N 0.82725 0.67276 0.88074
 C561 C 0.82154 0.65793 0.87247
 H562 H 0.80989 0.62391 0.84943
 H563 H 0.84963 0.62383 0.80986
 H564 H 0.87622 0.65044 0.80986
 H565 H 0.87610 0.69016 0.84943
 H566 H 0.84943 0.69022 0.87597
 H567 H 0.80981 0.65056 0.87596
 C568 C 0.83324 0.14109 0.34554
 C569 C 0.83324 0.15418 0.35861
 C570 C 0.84613 0.16710 0.35859
 C571 C 0.85921 0.16709 0.34550
 C572 C 0.85922 0.15417 0.33261
 C573 C 0.84615 0.14108 0.33262
 C574 C 0.82194 0.12736 0.34189
 N575 N 0.82768 0.11906 0.32709
 C576 C 0.84248 0.12734 0.32133
 C577 C 0.87294 0.15783 0.32129
 N578 N 0.88122 0.17265 0.32702
 C579 C 0.87293 0.17840 0.34182
 C580 C 0.84246 0.17842 0.37231
 N581 N 0.82765 0.17268 0.38061
 C582 C 0.82193 0.15786 0.37234
 H583 H 0.81023 0.12386 0.34928
 H584 H 0.84986 0.12383 0.30961
 H585 H 0.87645 0.15045 0.30958
 H586 H 0.87642 0.19013 0.34919
 H587 H 0.84982 0.19015 0.37580
 H588 H 0.81021 0.15048 0.37585
 C589 C 0.66743 0.35836 0.34543
 C590 C 0.66744 0.34528 0.35850
 C591 C 0.65455 0.33236 0.35849
 C592 C 0.64147 0.33236 0.34541
 C593 C 0.64145 0.34527 0.33251
 C594 C 0.65452 0.35836 0.33252
 C595 C 0.67873 0.37210 0.34177
 N596 N 0.67298 0.38039 0.32697
 C597 C 0.65818 0.37210 0.32122
 C598 C 0.62773 0.34160 0.32121
 N599 N 0.61945 0.32679 0.32695
 C600 C 0.62775 0.32104 0.34174
 C601 C 0.65823 0.32105 0.37222
 N602 N 0.67303 0.32680 0.38051
 C603 C 0.67875 0.34162 0.37222
 H604 H 0.69044 0.37560 0.34915
 H605 H 0.65080 0.37560 0.30951
 H606 H 0.62422 0.34898 0.30950
 H607 H 0.62426 0.30932 0.34912
 H608 H 0.65087 0.30933 0.37572
 H609 H 0.69046 0.34901 0.37573
 C610 C 0.66693 0.85901 0.84577
 C611 C 0.66694 0.84591 0.85883
 C612 C 0.65403 0.83301 0.85882
 C613 C 0.64094 0.83303 0.84575
 C614 C 0.64093 0.84596 0.83286
 C615 C 0.65402 0.85903 0.83287
 C616 C 0.67825 0.87273 0.84211
 N617 N 0.67250 0.88104 0.82732
 C618 C 0.65768 0.87277 0.82158
 C619 C 0.62720 0.84230 0.82156
 N620 N 0.61892 0.82749 0.82728
 C621 C 0.62722 0.82173 0.84208
 C622 C 0.65772 0.82167 0.87252
 N623 N 0.67254 0.82739 0.88080
 C624 C 0.67827 0.84221 0.87253
 H625 H 0.68997 0.87621 0.84948
 H626 H 0.65030 0.87629 0.80987
 H627 H 0.62369 0.84969 0.80985
 H628 H 0.62372 0.81000 0.84944
 H629 H 0.65034 0.80994 0.87600
 H630 H 0.69000 0.84957 0.87603
 C631 C 0.16687 0.35879 0.84564
 C632 C 0.16689 0.34568 0.85870
 C633 C 0.15399 0.33277 0.85869
 C634 C 0.14089 0.33279 0.84562
 C635 C 0.14087 0.34572 0.83273
 C636 C 0.15395 0.35881 0.83275
 C637 C 0.17816 0.37253 0.84200
 N638 N 0.17241 0.38084 0.82721
 C639 C 0.15760 0.37256 0.82146
 C640 C 0.12714 0.34207 0.82143
 N641 N 0.11887 0.32725 0.82715
 C642 C 0.12717 0.32148 0.84194
 C643 C 0.15768 0.32144 0.87238
 N644 N 0.17249 0.32717 0.88067
 C645 C 0.17821 0.34199 0.87240
 H646 H 0.18989 0.37602 0.84937
 H647 H 0.15021 0.37608 0.80976
 H648 H 0.12362 0.34946 0.80973
 H649 H 0.12369 0.30975 0.84930
 H650 H 0.15031 0.30971 0.87587
 H651 H 0.18993 0.34937 0.87591
 C652 C 0.16721 0.85928 0.34558
 C653 C 0.16722 0.84620 0.35866
 C654 C 0.15430 0.83331 0.35868
 C655 C 0.14120 0.83332 0.34562
 C656 C 0.14118 0.84623 0.33272
 C657 C 0.15428 0.85930 0.33269
 C658 C 0.17853 0.87299 0.34189
 N659 N 0.17277 0.88129 0.32710
 C660 C 0.15794 0.87302 0.32138
 C661 C 0.12744 0.84258 0.32143
 N662 N 0.11915 0.82778 0.32719
 C663 C 0.12746 0.82203 0.34198
 C664 C 0.15799 0.82199 0.37239
 N665 N 0.17282 0.82771 0.38065
 C666 C 0.17856 0.84251 0.37236
 H667 H 0.19026 0.87648 0.34924
 H668 H 0.15054 0.87653 0.30968
 H669 H 0.12392 0.84995 0.30972
 H670 H 0.12396 0.81031 0.34936
 H671 H 0.15060 0.81028 0.37591
 H672 H 0.19029 0.84987 0.37584
 O673 O 0.27232 0.98336 0.24800
 O674 O 0.24810 1.01783 0.27229
 O675 O 0.24807 0.98342 0.27230
 O676 O 0.27235 1.01777 0.24801
 O677 O 0.25171 1.01780 0.22743
 O678 O 0.22742 0.98346 0.25173
 O679 O 0.22746 1.01787 0.25171
 O680 O 0.25167 0.98340 0.22743
 Cu681 Cu 0.26228 1.00059 0.26222
 Cu682 Cu 0.23749 1.00064 0.23751
 C683 C 0.26608 0.97748 0.23361
 C684 C 0.23369 1.02375 0.26610
 C685 C 0.23364 0.97756 0.26612
 C686 C 0.26614 1.02367 0.23361
 O687 O 0.25149 0.51734 0.72766
 O688 O 0.22713 0.48308 0.75200
 O689 O 0.22721 0.51749 0.75192
 O690 O 0.25144 0.48293 0.72776
 O691 O 0.27205 0.48292 0.74836
 O692 O 0.24782 0.51747 0.77253
 O693 O 0.24774 0.48306 0.77260
 O694 O 0.27210 0.51733 0.74827
 Cu695 Cu 0.23725 0.50021 0.73776
 Cu696 Cu 0.26200 0.50019 0.76251
 C697 C 0.26591 0.52320 0.73385
 C698 C 0.23332 0.47720 0.76641
 C699 C 0.23343 0.52339 0.76631
 C700 C 0.26583 0.47701 0.73398
 O701 O 0.77286 0.01675 0.25200
 O702 O 0.74846 -0.01759 0.22781
 O703 O 0.74857 0.01681 0.22775
 O704 O 0.77277 -0.01765 0.25204
 O705 O 0.75217 -0.01755 0.27266
 O706 O 0.72796 0.01692 0.24837
 O707 O 0.72786 -0.01748 0.24843
 O708 O 0.75225 0.01686 0.27262
 Cu709 Cu 0.76274 -0.00043 0.23783
 Cu710 Cu 0.73799 -0.00030 0.26259
 C711 C 0.76667 0.02269 0.26640
 C712 C 0.73404 -0.02342 0.23403
 C713 C 0.73418 0.02276 0.23395
 C714 C 0.76656 -0.02350 0.26645
 O715 O 0.72783 0.51699 0.74837
 O716 O 0.75205 0.48246 0.77255
 O717 O 0.75212 0.51687 0.77262
 O718 O 0.72777 0.48259 0.74830
 O719 O 0.74838 0.48257 0.72769
 O720 O 0.77274 0.51684 0.75201
 O721 O 0.77267 0.48243 0.75194
 O722 O 0.74845 0.51697 0.72776
 Cu723 Cu 0.73787 0.49973 0.76253
 Cu724 Cu 0.76263 0.49970 0.73778
 C725 C 0.73405 0.52289 0.73398
 C726 C 0.76645 0.47653 0.76632
 C727 C 0.76654 0.52273 0.76642
 C728 C 0.73396 0.47671 0.73388
 O729 O 0.22736 0.51729 0.24807
 O730 O 0.25162 0.48290 0.27239
 O731 O 0.25166 0.51730 0.27230
 O732 O 0.22734 0.48288 0.24814
 O733 O 0.24796 0.48280 0.22753
 O734 O 0.27227 0.51722 0.25169
 O735 O 0.27224 0.48281 0.25178
 O736 O 0.24797 0.51721 0.22746
 Cu737 Cu 0.23742 0.50010 0.26230
 Cu738 Cu 0.26218 0.50000 0.23754
 C739 C 0.23357 0.52314 0.23366
 C740 C 0.26603 0.47697 0.26620
 C741 C 0.26607 0.52315 0.26608
 C742 C 0.23355 0.47695 0.23375
 O743 O 0.72736 0.98320 0.75208
 O744 O 0.75177 1.01750 0.72784
 O745 O 0.75170 0.98310 0.72787
 O746 O 0.72741 1.01761 0.75202
 O747 O 0.74797 1.01758 0.77267
 O748 O 0.77227 0.98307 0.74852
 O749 O 0.77233 1.01748 0.74849
 O750 O 0.74793 0.98318 0.77273
 Cu751 Cu 0.73749 1.00036 0.73788
 Cu752 Cu 0.76219 1.00033 0.76268
 C753 C 0.73353 0.97732 0.76650
 C754 C 0.76617 1.02336 0.73407
 C755 C 0.76608 0.97718 0.73411
 C756 C 0.73359 1.02351 0.76642
 O757 O 0.72766 0.48271 0.25182
 O758 O 0.75194 0.51710 0.22759
 O759 O 0.75193 0.48269 0.22756
 O760 O 0.72768 0.51711 0.25187
 O761 O 0.74831 0.51706 0.27246
 O762 O 0.77256 0.48265 0.24814
 O763 O 0.77257 0.51705 0.24818
 O764 O 0.74829 0.48266 0.27241
 Cu765 Cu 0.73773 0.49991 0.23764
 Cu766 Cu 0.76250 0.49985 0.26237
 C767 C 0.73387 0.47680 0.26621
 C768 C 0.76635 0.52296 0.23379
 C769 C 0.76634 0.47678 0.23374
 C770 C 0.73389 0.52298 0.26627
 O771 O 0.25189 -0.01774 0.77240
 O772 O 0.22758 0.01672 0.74822
 O773 O 0.22759 -0.01768 0.74818
 O774 O 0.25189 0.01667 0.77245
 O775 O 0.27249 0.01667 0.75182
 O776 O 0.24818 -0.01768 0.72755
 O777 O 0.24818 0.01673 0.72759
 O778 O 0.27249 -0.01774 0.75177
 Cu779 Cu 0.23767 -0.00051 0.76238
 Cu780 Cu 0.26241 -0.00050 0.73761
 C781 C 0.26630 -0.02364 0.76617
 C782 C 0.23377 0.02262 0.73382
 C783 C 0.23378 -0.02356 0.73376
 C784 C 0.26629 0.02255 0.76624
 O785 O 0.25159 0.22739 0.98272
 O786 O 0.22730 0.25168 1.01711
 O787 O 0.22730 0.25170 0.98274
 O788 O 0.25159 0.22739 1.01710
 O789 O 0.27220 0.24798 1.01710
 O790 O 0.24791 0.27230 0.98274
 O791 O 0.24792 0.27228 1.01712
 O792 O 0.27220 0.24799 0.98273
 Cu793 Cu 0.23737 0.23747 0.99992
 Cu794 Cu 0.26213 0.26221 0.99992
 C795 C 0.26600 0.23359 0.97684
 C796 C 0.23351 0.26608 1.02301
 C797 C 0.23350 0.26610 0.97686
 C798 C 0.26600 0.23358 1.02299
 O799 O 0.27249 0.74837 0.51704
 O800 O 0.24821 0.77277 0.48273
 O801 O 0.24825 0.77272 0.51710
 O802 O 0.27247 0.74844 0.48266
 O803 O 0.25182 0.72787 0.48264
 O804 O 0.22760 0.75215 0.51709
 O805 O 0.22756 0.75220 0.48271
 O806 O 0.25184 0.72780 0.51702
 Cu807 Cu 0.26243 0.76264 0.49988
 Cu808 Cu 0.23763 0.73794 0.49986
 C809 C 0.26626 0.73396 0.52290
 C810 C 0.23378 0.76661 0.47685
 C811 C 0.23384 0.76654 0.52299
 C812 C 0.26624 0.73406 0.47676
 O813 O 0.27239 0.75193 -0.01746
 O814 O 0.24810 0.72772 0.01694
 O815 O 0.24813 0.72766 -0.01743
 O816 O 0.27236 0.75198 0.01692
 O817 O 0.25173 0.77261 0.01687
 O818 O 0.22750 0.74828 -0.01748
 O819 O 0.22746 0.74835 0.01690
 O820 O 0.25175 0.77255 -0.01750
 Cu821 Cu 0.26232 0.73775 -0.00025
 Cu822 Cu 0.23754 0.76252 -0.00031
 C823 C 0.26617 0.76633 -0.02337
 C824 C 0.23368 0.73395 0.02281
 C825 C 0.23372 0.73386 -0.02334
 C826 C 0.26614 0.76641 0.02278
 O827 O 0.27227 0.25168 0.48297
 O828 O 0.24796 0.22735 0.51727
 O829 O 0.24801 0.22741 0.48289
 O830 O 0.27223 0.25162 0.51734
 O831 O 0.25159 0.27224 0.51736
 O832 O 0.22737 0.24803 0.48291
 O833 O 0.22733 0.24798 0.51729
 O834 O 0.25163 0.27230 0.48298
 Cu835 Cu 0.26219 0.23744 0.50012
 Cu836 Cu 0.23741 0.26221 0.50013
 C837 C 0.26605 0.26610 0.47710
 C838 C 0.23354 0.23356 0.52316
 C839 C 0.23361 0.23363 0.47700
 C840 C 0.26600 0.26602 0.52325
 O841 O 0.75169 0.72756 0.98279
 O842 O 0.72736 0.75180 1.01718
 O843 O 0.72738 0.75185 0.98281
 O844 O 0.75169 0.72754 1.01716
 O845 O 0.77228 0.74817 1.01718
 O846 O 0.74797 0.77247 0.98283
 O847 O 0.74795 0.77243 1.01720
 O848 O 0.77228 0.74819 0.98280
 Cu849 Cu 0.73746 0.73762 0.99998
 Cu850 Cu 0.76219 0.76239 1.00000
 C851 C 0.76610 0.73378 0.97691
 C852 C 0.73355 0.76621 1.02308
 C853 C 0.73356 0.76627 0.97694
 C854 C 0.76609 0.73376 1.02305
 O855 O 0.74844 0.27227 0.48276
 O856 O 0.77277 0.24806 0.51716
 O857 O 0.77279 0.24802 0.48278
 O858 O 0.74843 0.27230 0.51713
 O859 O 0.72786 0.25165 0.51714
 O860 O 0.75222 0.22738 0.48280
 O861 O 0.75221 0.22741 0.51717
 O862 O 0.72788 0.25162 0.48277
 Cu863 Cu 0.76267 0.26224 0.49996
 Cu864 Cu 0.73798 0.23744 0.49997
 C865 C 0.73405 0.26603 0.47688
 C866 C 0.76660 0.23365 0.52306
 C867 C 0.76662 0.23360 0.47691
 C868 C 0.73403 0.26608 0.52302
 O869 O 0.77249 0.25170 -0.01747
 O870 O 0.74829 0.22738 0.01692
 O871 O 0.74823 0.22744 -0.01746
 O872 O 0.77256 0.25165 0.01691
 O873 O 0.75192 0.27228 0.01698
 O874 O 0.72759 0.24807 -0.01739
 O875 O 0.72766 0.24801 0.01699
 O876 O 0.75186 0.27233 -0.01740
 Cu877 Cu 0.76246 0.23747 -0.00028
 Cu878 Cu 0.73769 0.26225 -0.00020
 C879 C 0.76626 0.26612 -0.02332
 C880 C 0.73389 0.23359 0.02284
 C881 C 0.73380 0.23367 -0.02331
 C882 C 0.76635 0.26605 0.02283
 O883 O 0.77263 0.75197 0.48295
 O884 O 0.74839 0.72771 0.51735
 O885 O 0.74836 0.72771 0.48297
 O886 O 0.77265 0.75198 0.51733
 O887 O 0.75201 0.77261 0.51734
 O888 O 0.72773 0.74834 0.48299
 O889 O 0.72775 0.74834 0.51737
 O890 O 0.75199 0.77260 0.48296
 Cu891 Cu 0.76258 0.73777 0.50015
 Cu892 Cu 0.73780 0.76254 0.50017
 C893 C 0.76640 0.76638 0.47706
 C894 C 0.73398 0.73393 0.52325
 C895 C 0.73394 0.73392 0.47710
 C896 C 0.76643 0.76639 0.52322
 O897 O 1.01774 0.27231 0.24808
 O898 O 0.98340 0.24799 0.27233
 O899 O 1.01780 0.24803 0.27233
 O900 O 0.98334 0.27224 0.24805
 O901 O 0.98340 0.25161 0.22746
 O902 O 1.01787 0.22741 0.25174
 O903 O 0.98346 0.22735 0.25174
 O904 O 1.01781 0.25168 0.22748
 Cu905 Cu 1.00056 0.26221 0.26227
 Cu906 Cu 1.00064 0.23744 0.23754
 C907 C 1.02366 0.26610 0.23368
 C908 C 0.97755 0.23356 0.26613
 C909 C 1.02374 0.23363 0.26613
 C910 C 0.97747 0.26601 0.23366
 O911 O 0.51746 0.22723 0.75193
 O912 O 0.48292 0.25146 0.72776
 O913 O 0.51733 0.25151 0.72768
 O914 O 0.48304 0.22716 0.75199
 O915 O 0.48302 0.24776 0.77261
 O916 O 0.51730 0.27212 0.74829
 O917 O 0.48290 0.27206 0.74838
 O918 O 0.51743 0.24784 0.77254
 Cu919 Cu 0.50019 0.23727 0.73777
 Cu920 Cu 0.50016 0.26201 0.76253
 C921 C 0.52336 0.23345 0.76632
 C922 C 0.47699 0.26585 0.73399
 C923 C 0.52318 0.26593 0.73388
 C924 C 0.47716 0.23335 0.76640
 O925 O 0.01666 0.25192 0.77251
 O926 O -0.01768 0.22760 0.74825
 O927 O 0.01673 0.22761 0.74829
 O928 O -0.01775 0.25191 0.77247
 O929 O -0.01775 0.27250 0.75184
 O930 O 0.01673 0.24819 0.72766
 O931 O -0.01768 0.24818 0.72762
 O932 O 0.01666 0.27251 0.75189
 Cu933 Cu -0.00051 0.23769 0.76245
 Cu934 Cu -0.00051 0.26242 0.73768
 C935 C 0.02254 0.26632 0.76630
 C936 C -0.02356 0.23378 0.73384
 C937 C 0.02263 0.23379 0.73389
 C938 C -0.02365 0.26631 0.76624
 O939 O 0.48273 0.27216 0.25180
 O940 O 0.51714 0.24789 0.22748
 O941 O 0.48273 0.24789 0.22753
 O942 O 0.51714 0.27215 0.25176
 O943 O 0.51718 0.25152 0.27235
 O944 O 0.48276 0.22727 0.24812
 O945 O 0.51717 0.22726 0.24807
 O946 O 0.48277 0.25153 0.27239
 Cu947 Cu 0.49993 0.26209 0.23757
 Cu948 Cu 0.49998 0.23732 0.26230
 C949 C 0.47686 0.26595 0.26620
 C950 C 0.52305 0.23347 0.23367
 C951 C 0.47685 0.23348 0.23373
 C952 C 0.52305 0.26593 0.26614
 O953 O 0.98314 0.75171 0.72786
 O954 O 1.01763 0.72743 0.75202
 O955 O 0.98322 0.72740 0.75208
 O956 O 1.01754 0.75176 0.72783
 O957 O 1.01752 0.77234 0.74847
 O958 O 0.98319 0.74798 0.77272
 O959 O 1.01760 0.74800 0.77267
 O960 O 0.98311 0.77229 0.74850
 Cu961 Cu 1.00039 0.73750 0.73787
 Cu962 Cu 1.00035 0.76222 0.76266
 C963 C 0.97722 0.76610 0.73409
 C964 C 1.02352 0.73361 0.76642
 C965 C 0.97733 0.73357 0.76650
 C966 C 1.02341 0.76617 0.73405
 O967 O 0.51735 0.77277 0.24795
 O968 O 0.48289 0.74852 0.27213
 O969 O 0.51730 0.74851 0.27223
 O970 O 0.48294 0.77280 0.24787
 O971 O 0.48300 0.75217 0.22728
 O972 O 0.51736 0.72789 0.25164
 O973 O 0.48296 0.72789 0.25154
 O974 O 0.51742 0.75214 0.22736
 Cu975 Cu 0.50011 0.76272 0.26212
 Cu976 Cu 0.50019 0.73795 0.23738
 C977 C 0.52329 0.76655 0.23357
 C978 C 0.47703 0.73411 0.26592
 C979 C 0.52321 0.73410 0.26605
 C980 C 0.47709 0.76659 0.23347
 O981 O -0.01754 0.77295 0.25204
 O982 O 0.01695 0.74876 0.22777
 O983 O -0.01746 0.74868 0.22778
 O984 O 0.01687 0.77303 0.25204
 O985 O 0.01694 0.75241 0.27263
 O986 O -0.01739 0.72806 0.24837
 O987 O 0.01702 0.72814 0.24836
 O988 O -0.01747 0.75233 0.27264
 Cu989 Cu -0.00030 0.76293 0.23784
 Cu990 Cu -0.00022 0.73817 0.26257
 C991 C -0.02342 0.76673 0.26644
 C992 C 0.02288 0.73436 0.23396
 C993 C -0.02330 0.73426 0.23397
 C994 C 0.02278 0.76683 0.26643
 O995 O 0.48242 0.77261 0.75182
 O996 O 0.51699 0.74839 0.72768
 O997 O 0.48258 0.74831 0.72758
 O998 O 0.51683 0.77269 0.75192
 O999 O 0.51684 0.75209 0.77253
 O1000 O 0.48259 0.72771 0.74821
 O1001 O 0.51699 0.72779 0.74830
 O1002 O 0.48243 0.75202 0.77244
 Cu1003 Cu 0.49970 0.76257 0.73768
 Cu1004 Cu 0.49971 0.73783 0.76244
 C1005 C 0.47650 0.76640 0.76620
 C1006 C 0.52291 0.73400 0.73391
 C1007 C 0.47672 0.73389 0.73378
 C1008 C 0.52270 0.76651 0.76634
 C1009 C 0.42227 0.30186 0.30214
 N1010 N 0.41536 0.31699 0.29547
 N1011 N 0.40203 0.32510 0.30357
 C1012 C 0.39509 0.31838 0.31866
 N1013 N 0.40205 0.30327 0.32536
 N1014 N 0.41538 0.29517 0.31725
 C1015 C 0.43672 0.29272 0.29300
 N1016 N 0.44343 0.27743 0.29952
 N1017 N 0.45631 0.26896 0.29104
 C1018 C 0.46294 0.27548 0.27574
 N1019 N 0.45627 0.29079 0.26925
 N1020 N 0.44340 0.29926 0.27773
 C1021 C 0.42158 0.80215 0.80182
 N1022 N 0.41461 0.81721 0.79506
 N1023 N 0.40118 0.82526 0.80309
 C1024 C 0.39420 0.81856 0.81818
 N1025 N 0.40126 0.80351 0.82495
 N1026 N 0.41468 0.79546 0.81692
 C1027 C 0.43612 0.79306 0.79277
 N1028 N 0.44288 0.77782 0.79935
 N1029 N 0.45583 0.76939 0.79095
 C1030 C 0.46251 0.77590 0.77566
 N1031 N 0.45579 0.79116 0.76911
 N1032 N 0.44284 0.79959 0.77751
 C1033 C -0.07849 0.30214 0.80190
 N1034 N -0.08539 0.29546 0.81701
 N1035 N -0.09880 0.30352 0.82504
 C1036 C -0.10585 0.31857 0.81827
 N1037 N -0.09887 0.32527 0.80318
 N1038 N -0.08545 0.31721 0.79515
 C1039 C -0.06396 0.29304 0.79284
 N1040 N -0.05726 0.29956 0.77757
 N1041 N -0.04432 0.29111 0.76916
 C1042 C -0.03762 0.27583 0.77571
 N1043 N -0.04429 0.26934 0.79101
 N1044 N -0.05722 0.27779 0.79942
 C1045 C -0.07827 0.80242 0.30222
 N1046 N -0.08515 0.79571 0.31732
 N1047 N -0.09857 0.80375 0.32537
 C1048 C -0.10564 0.81880 0.31862
 N1049 N -0.09867 0.82552 0.30354
 N1050 N -0.08525 0.81748 0.29549
 C1051 C -0.06374 0.79335 0.29313
 N1052 N -0.05706 0.79990 0.27786
 N1053 N -0.04412 0.79149 0.26942
 C1054 C -0.03739 0.77621 0.27594
 N1055 N -0.04403 0.76968 0.29124
 N1056 N -0.05697 0.77810 0.29967
 C1057 C 0.57776 0.69821 0.30205
 N1058 N 0.58467 0.68307 0.29539
 N1059 N 0.59800 0.67497 0.30351
 C1060 C 0.60493 0.68170 0.31859
 N1061 N 0.59797 0.69682 0.32528
 N1062 N 0.58464 0.70492 0.31716
 C1063 C 0.56332 0.70734 0.29290
 N1064 N 0.55660 0.72263 0.29940
 N1065 N 0.54374 0.73110 0.29090
 C1066 C 0.53712 0.72457 0.27560
 N1067 N 0.54379 0.70925 0.26913
 N1068 N 0.55666 0.70079 0.27762
 C1069 C 0.57829 0.19775 0.80195
 N1070 N 0.58518 0.20446 0.81705
 N1071 N 0.59861 0.19643 0.82508
 C1072 C 0.60568 0.18138 0.81831
 N1073 N 0.59869 0.17466 0.80323
 N1074 N 0.58526 0.18269 0.79521
 C1075 C 0.56374 0.20682 0.79290
 N1076 N 0.55703 0.20028 0.77764
 N1077 N 0.54408 0.20869 0.76924
 C1078 C 0.53735 0.22396 0.77578
 N1079 N 0.54402 0.23048 0.79107
 N1080 N 0.55697 0.22207 0.79947
 C1081 C 1.07838 0.69779 0.80204
 N1082 N 1.08528 0.70447 0.81714
 N1083 N 1.09870 0.69641 0.82516
 C1084 C 1.10575 0.68137 0.81838
 N1085 N 1.09876 0.67467 0.80329
 N1086 N 1.08534 0.68273 0.79528
 C1087 C 1.06385 0.70690 0.79299
 N1088 N 1.05714 0.70038 0.77772
 N1089 N 1.04420 0.70883 0.76932
 C1090 C 1.03750 0.72410 0.77589
 N1091 N 1.04416 0.73059 0.79118
 N1092 N 1.05710 0.72214 0.79958
 C1093 C 1.07853 0.19789 0.30192
 N1094 N 1.08551 0.18282 0.29518
 N1095 N 1.09892 0.17477 0.30322
 C1096 C 1.10587 0.18147 0.31833
 N1097 N 1.09881 0.19652 0.32509
 N1098 N 1.08540 0.20457 0.31703
 C1099 C 1.06402 0.20697 0.29283
 N1100 N 1.05726 0.22223 0.29938
 N1101 N 1.04433 0.23066 0.29094
 C1102 C 1.03770 0.22414 0.27564
 N1103 N 1.04442 0.20886 0.26912
 N1104 N 1.05735 0.20043 0.27755
 C1105 C 0.57767 0.30189 0.69796
 N1106 N 0.58455 0.31701 0.70465
 N1107 N 0.59788 0.32511 0.69655
 C1108 C 0.60482 0.31840 0.68145
 N1109 N 0.59789 0.30331 0.67473
 N1110 N 0.58456 0.29520 0.68284
 C1111 C 0.56324 0.29274 0.70709
 N1112 N 0.55657 0.27746 0.70056
 N1113 N 0.54372 0.26898 0.70903
 C1114 C 0.53707 0.27548 0.72435
 N1115 N 0.54370 0.29079 0.73085
 N1116 N 0.55656 0.29927 0.72238
 C1117 C 0.57809 0.80228 0.19789
 N1118 N 0.58502 0.81735 0.20463
 N1119 N 0.59842 0.82539 0.19659
 C1120 C 0.60542 0.81867 0.18150
 N1121 N 0.59839 0.80361 0.17475
 N1122 N 0.58499 0.79558 0.18279
 C1123 C 0.56357 0.79320 0.20696
 N1124 N 0.55686 0.77795 0.20040
 N1125 N 0.54393 0.76952 0.20882
 C1126 C 0.53725 0.77604 0.22410
 N1127 N 0.54392 0.79132 0.23064
 N1128 N 0.55685 0.79975 0.22222
 C1129 C 1.07827 0.30201 0.19789
 N1130 N 1.08518 0.29533 0.18279
 N1131 N 1.09853 0.30341 0.17472
 C1132 C 1.10551 0.31849 0.18145
 N1133 N 1.09851 0.32520 0.19655
 N1134 N 1.08516 0.31711 0.20461
 C1135 C 1.06380 0.29288 0.20699
 N1136 N 1.05708 0.29941 0.22226
 N1137 N 1.04420 0.29094 0.23070
 C1138 C 1.03757 0.27564 0.22418
 N1139 N 1.04425 0.26913 0.20888
 N1140 N 1.05713 0.27760 0.20044
 C1141 C 1.07794 0.80216 0.69824
 N1142 N 1.08485 0.81724 0.70499
 N1143 N 1.09819 0.82536 0.69691
 C1144 C 1.10511 0.81869 0.68178
 N1145 N 1.09815 0.80364 0.67501
 N1146 N 1.08481 0.79552 0.68309
 C1147 C 1.06350 0.79301 0.70735
 N1148 N 1.05681 0.77775 0.70078
 N1149 N 1.04395 0.76926 0.70922
 C1150 C 1.03731 0.77572 0.72455
 N1151 N 1.04395 0.79101 0.73110
 N1152 N 1.05682 0.79950 0.72265
 C1153 C 0.42230 0.69788 0.69783
 N1154 N 0.41543 0.70455 0.68270
 N1155 N 0.40212 0.69644 0.67459
 C1156 C 0.39517 0.68135 0.68131
 N1157 N 0.40209 0.67466 0.69642
 N1158 N 0.41541 0.68277 0.70453
 C1159 C 0.43671 0.70704 0.70698
 N1160 N 0.44338 0.70053 0.72227
 N1161 N 0.45622 0.70902 0.73075
 C1162 C 0.46285 0.72433 0.72424
 N1163 N 0.45622 0.73081 0.70892
 N1164 N 0.44339 0.72232 0.70044
 C1165 C 0.42220 0.19766 0.19795
 N1166 N 0.41527 0.18257 0.20467
 N1167 N 0.40191 0.17450 0.19661
 C1168 C 0.39497 0.18120 0.18151
 N1169 N 0.40195 0.19626 0.17476
 N1170 N 0.41531 0.20434 0.18283
 C1171 C 0.43667 0.20677 0.20705
 N1172 N 0.44337 0.22203 0.20050
 N1173 N 0.45626 0.23048 0.20894
 C1174 C 0.46292 0.22397 0.22423
 N1175 N 0.45626 0.20868 0.23076
 N1176 N 0.44337 0.20023 0.22232
 C1177 C -0.07775 0.69823 0.19809
 N1178 N -0.08465 0.70490 0.18297
 N1179 N -0.09795 0.69677 0.17486
 C1180 C -0.10486 0.68166 0.18158
 N1181 N -0.09791 0.67496 0.19667
 N1182 N -0.08460 0.68310 0.20477
 C1183 C -0.06334 0.70740 0.20722
 N1184 N -0.05663 0.70088 0.22250
 N1185 N -0.04379 0.70938 0.23096
 C1186 C -0.03718 0.72470 0.22446
 N1187 N -0.04385 0.73119 0.20916
 N1188 N -0.05669 0.72270 0.20069
 C1189 C -0.07816 0.19790 0.69803
 N1190 N -0.08504 0.20457 0.68291
 N1191 N -0.09840 0.19649 0.67484
 C1192 C -0.10540 0.18142 0.68158
 N1193 N -0.09843 0.17473 0.69669
 N1194 N -0.08508 0.18281 0.70475
 C1195 C -0.06370 0.20702 0.70713
 N1196 N -0.05701 0.20050 0.72242
 N1197 N -0.04413 0.20897 0.73086
 C1198 C -0.03747 0.22425 0.72433
 N1199 N -0.04411 0.23074 0.70902
 N1200 N -0.05699 0.22228 0.70057
 C1201 C 0.30188 0.42236 0.30215
 N1202 N 0.31700 0.41544 0.29547
 N1203 N 0.32509 0.40209 0.30358
 C1204 C 0.31836 0.39517 0.31866
 N1205 N 0.30327 0.40215 0.32537
 N1206 N 0.29518 0.41549 0.31726
 C1207 C 0.29276 0.43682 0.29301
 N1208 N 0.27748 0.44355 0.29952
 N1209 N 0.26903 0.45643 0.29104
 C1210 C 0.27554 0.46305 0.27574
 N1211 N 0.29085 0.45636 0.26925
 N1212 N 0.29931 0.44348 0.27773
 C1213 C 0.30213 -0.07846 0.80182
 N1214 N 0.31719 -0.08543 0.79506
 N1215 N 0.32525 -0.09884 0.80308
 C1216 C 0.31856 -0.10582 0.81818
 N1217 N 0.30351 -0.09877 0.82496
 N1218 N 0.29545 -0.08536 0.81693
 C1219 C 0.29303 -0.06394 0.79276
 N1220 N 0.27778 -0.05720 0.79934
 N1221 N 0.26933 -0.04427 0.79094
 C1222 C 0.27582 -0.03760 0.77564
 N1223 N 0.29110 -0.04430 0.76908
 N1224 N 0.29955 -0.05724 0.77749
 C1225 C 0.80215 0.42161 0.80195
 N1226 N 0.81722 0.41464 0.79520
 N1227 N 0.82526 0.40121 0.80322
 C1228 C 0.81854 0.39422 0.81830
 N1229 N 0.80349 0.40129 0.82508
 N1230 N 0.79546 0.41471 0.81705
 C1231 C 0.79308 0.43616 0.79290
 N1232 N 0.77783 0.44292 0.79948
 N1233 N 0.76941 0.45587 0.79107
 C1234 C 0.77593 0.46254 0.77579
 N1235 N 0.79121 0.45582 0.76924
 N1236 N 0.79963 0.44287 0.77764
 C1237 C 0.80229 -0.07830 0.30223
 N1238 N 0.81737 -0.08527 0.29550
 N1239 N 0.82542 -0.09867 0.30354
 C1240 C 0.81870 -0.10564 0.31863
 N1241 N 0.80364 -0.09859 0.32538
 N1242 N 0.79559 -0.08518 0.31733
 C1243 C 0.79321 -0.06378 0.29314
 N1244 N 0.77795 -0.05702 0.29969
 N1245 N 0.76953 -0.04409 0.29125
 C1246 C 0.77604 -0.03746 0.27595
 N1247 N 0.79132 -0.04419 0.26943
 N1248 N 0.79975 -0.05711 0.27787
 C1249 C 0.30189 0.57763 0.69788
 N1250 N 0.31701 0.58451 0.70456
 N1251 N 0.32513 0.59782 0.69644
 C1252 C 0.31842 0.60475 0.68135
 N1253 N 0.30332 0.59782 0.67464
 N1254 N 0.29521 0.58451 0.68275
 C1255 C 0.29274 0.56322 0.70703
 N1256 N 0.27745 0.55655 0.70051
 N1257 N 0.26896 0.54371 0.70899
 C1258 C 0.27546 0.53707 0.72431
 N1259 N 0.29078 0.54370 0.73080
 N1260 N 0.29926 0.55654 0.72231
 C1261 C 0.30200 1.07826 0.19777
 N1262 N 0.31711 1.08515 0.20446
 N1263 N 0.32519 1.09850 0.19639
 C1264 C 0.31847 1.10550 0.18131
 N1265 N 0.30338 1.09852 0.17459
 N1266 N 0.29530 1.08516 0.18267
 C1267 C 0.29288 1.06380 0.20688
 N1268 N 0.27760 1.05712 0.20035
 N1269 N 0.26914 1.04424 0.20880
 C1270 C 0.27566 1.03757 0.22409
 N1271 N 0.29097 1.04421 0.23059
 N1272 N 0.29943 1.05709 0.22214
 C1273 C 0.80220 0.57758 0.19797
 N1274 N 0.81730 0.58449 0.20467
 N1275 N 0.82538 0.59784 0.19659
 C1276 C 0.81865 0.60478 0.18150
 N1277 N 0.80358 0.59782 0.17477
 N1278 N 0.79550 0.58447 0.18286
 C1279 C 0.79308 0.56312 0.20708
 N1280 N 0.77781 0.55643 0.20054
 N1281 N 0.76936 0.54355 0.20899
 C1282 C 0.77587 0.53688 0.22429
 N1283 N 0.79117 0.54353 0.23080
 N1284 N 0.79962 0.55642 0.22235
 C1285 C 0.80223 1.07786 0.69827
 N1286 N 0.81731 1.08477 0.70502
 N1287 N 0.82543 1.09809 0.69694
 C1288 C 0.81878 1.10501 0.68181
 N1289 N 0.80373 1.09804 0.67503
 N1290 N 0.79560 1.08472 0.68311
 C1291 C 0.79306 1.06342 0.70737
 N1292 N 0.77780 1.05674 0.70079
 N1293 N 0.76930 1.04389 0.70923
 C1294 C 0.77574 1.03725 0.72457
 N1295 N 0.79103 1.04389 0.73112
 N1296 N 0.79953 1.05675 0.72268
 C1297 C 0.69806 0.57764 0.30219
 N1298 N 0.70477 0.58453 0.31729
 N1299 N 0.69669 0.59789 0.32539
 C1300 C 0.68159 0.60486 0.31868
 N1301 N 0.67486 0.59792 0.30360
 N1302 N 0.68294 0.58456 0.29551
 C1303 C 0.70718 0.56317 0.29306
 N1304 N 0.70063 0.55649 0.27779
 N1305 N 0.70907 0.54360 0.26932
 C1306 C 0.72438 0.53691 0.27581
 N1307 N 0.73091 0.54355 0.29110
 N1308 N 0.72246 0.55644 0.29957
 C1309 C 0.69776 1.07838 0.80202
 N1310 N 0.70443 1.08529 0.81712
 N1311 N 0.69637 1.09871 0.82514
 C1312 C 0.68133 1.10576 0.81835
 N1313 N 0.67464 1.09877 0.80326
 N1314 N 0.68270 1.08535 0.79525
 C1315 C 0.70686 1.06385 0.79297
 N1316 N 0.70036 1.05714 0.77770
 N1317 N 0.70881 1.04420 0.76931
 C1318 C 0.72407 1.03749 0.77588
 N1319 N 0.73055 1.04416 0.79118
 N1320 N 0.72210 1.05710 0.79957
 C1321 C 0.19774 0.57832 0.80196
 N1322 N 0.20444 0.58522 0.81705
 N1323 N 0.19641 0.59865 0.82508
 C1324 C 0.18136 0.60572 0.81833
 N1325 N 0.17464 0.59873 0.80325
 N1326 N 0.18267 0.58530 0.79522
 C1327 C 0.20681 0.56378 0.79290
 N1328 N 0.20026 0.55707 0.77764
 N1329 N 0.20867 0.54411 0.76924
 C1330 C 0.22395 0.53739 0.77578
 N1331 N 0.23047 0.54406 0.79106
 N1332 N 0.22205 0.55701 0.79947
 C1333 C 0.19793 1.07854 0.30189
 N1334 N 0.18286 1.08552 0.29516
 N1335 N 0.17480 1.09892 0.30321
 C1336 C 0.18150 1.10588 0.31831
 N1337 N 0.19656 1.09882 0.32507
 N1338 N 0.20461 1.08542 0.31701
 C1339 C 0.20702 1.06403 0.29280
 N1340 N 0.22228 1.05728 0.29935
 N1341 N 0.23071 1.04436 0.29090
 C1342 C 0.22419 1.03771 0.27561
 N1343 N 0.20891 1.04442 0.26909
 N1344 N 0.20047 1.05735 0.27753
 C1345 C 0.69799 0.42224 0.69795
 N1346 N 0.68288 0.41536 0.70464
 N1347 N 0.67477 0.40204 0.69654
 C1348 C 0.68148 0.39510 0.68144
 N1349 N 0.69657 0.40204 0.67473
 N1350 N 0.70468 0.41536 0.68283
 C1351 C 0.70714 0.43667 0.70709
 N1352 N 0.72243 0.44334 0.70056
 N1353 N 0.73091 0.45619 0.70903
 C1354 C 0.72441 0.46283 0.72435
 N1355 N 0.70910 0.45620 0.73085
 N1356 N 0.70062 0.44335 0.72237
 C1357 C 0.69797 -0.07793 0.19827
 N1358 N 0.70461 -0.08482 0.18313
 N1359 N 0.69647 -0.09814 0.17506
 C1360 C 0.68140 -0.10507 0.18182
 N1361 N 0.67474 -0.09813 0.19694
 N1362 N 0.68287 -0.08481 0.20501
 C1363 C 0.70714 -0.06350 0.20737
 N1364 N 0.70066 -0.05678 0.22266
 N1365 N 0.70916 -0.04392 0.23109
 C1366 C 0.72447 -0.03731 0.22455
 N1367 N 0.73093 -0.04399 0.20923
 N1368 N 0.72242 -0.05685 0.20080
 C1369 C 0.19768 0.42226 0.19805
 N1370 N 0.20435 0.41536 0.18293
 N1371 N 0.19627 0.40200 0.17487
 C1372 C 0.18122 0.39502 0.18164
 N1373 N 0.17453 0.40196 0.19675
 N1374 N 0.18261 0.41533 0.20480
 C1375 C 0.20680 0.43674 0.20713
 N1376 N 0.20028 0.44345 0.22241
 N1377 N 0.20874 0.45635 0.23083
 C1378 C 0.22402 0.46301 0.22428
 N1379 N 0.23051 0.45633 0.20898
 N1380 N 0.22206 0.44343 0.20056
 C1381 C 0.19795 -0.07821 0.69796
 N1382 N 0.18286 -0.08513 0.70469
 N1383 N 0.17479 -0.09849 0.69663
 C1384 C 0.18150 -0.10547 0.68153
 N1385 N 0.19657 -0.09847 0.67478
 N1386 N 0.20464 -0.08510 0.68285
 C1387 C 0.20705 -0.06373 0.70706
 N1388 N 0.22231 -0.05702 0.70051
 N1389 N 0.23077 -0.04413 0.70895
 C1390 C 0.22426 -0.03748 0.72426
 N1391 N 0.20898 -0.04415 0.73079
 N1392 N 0.20053 -0.05704 0.72234
 C1393 C 0.30192 0.30200 0.42255
 N1394 N 0.31704 0.29529 0.41565
 N1395 N 0.32513 0.30338 0.40231
 C1396 C 0.31839 0.31847 0.39537
 N1397 N 0.30329 0.32521 0.40232
 N1398 N 0.29521 0.31712 0.41566
 C1399 C 0.29280 0.29287 0.43700
 N1400 N 0.27751 0.29941 0.44369
 N1401 N 0.26905 0.29094 0.45656
 C1402 C 0.27558 0.27563 0.46320
 N1403 N 0.29089 0.26912 0.45655
 N1404 N 0.29935 0.27758 0.44368
 C1405 C 0.30196 0.80202 -0.07810
 N1406 N 0.31707 0.79529 -0.08502
 N1407 N 0.32512 0.80332 -0.09841
 C1408 C 0.31837 0.81840 -0.10539
 N1409 N 0.30329 0.82516 -0.09842
 N1410 N 0.29524 0.81712 -0.08503
 C1411 C 0.29287 0.79295 -0.06361
 N1412 N 0.27759 0.79952 -0.05691
 N1413 N 0.26915 0.79110 -0.04400
 C1414 C 0.27568 0.77581 -0.03731
 N1415 N 0.29099 0.76927 -0.04397
 N1416 N 0.29943 0.77768 -0.05688
 C1417 C 0.80196 0.30195 -0.07803
 N1418 N 0.81706 0.29523 -0.08496
 N1419 N 0.82510 0.30329 -0.09835
 C1420 C 0.81834 0.31837 -0.10530
 N1421 N 0.80326 0.32512 -0.09832
 N1422 N 0.79522 0.31705 -0.08493
 C1423 C 0.79289 0.29285 -0.06354
 N1424 N 0.77762 0.29940 -0.05680
 N1425 N 0.76920 0.29095 -0.04390
 C1426 C 0.77575 0.27564 -0.03726
 N1427 N 0.79104 0.26912 -0.04395
 N1428 N 0.79946 0.27757 -0.05685
 C1429 C 0.80213 0.80214 0.42233
 N1430 N 0.81724 0.79542 0.41541
 N1431 N 0.82529 0.80347 0.40203
 C1432 C 0.81853 0.81854 0.39506
 N1433 N 0.80345 0.82529 0.40203
 N1434 N 0.79540 0.81724 0.41542
 C1435 C 0.79305 0.79305 0.43683
 N1436 N 0.77778 0.79961 0.44355
 N1437 N 0.76935 0.79118 0.45646
 C1438 C 0.77589 0.77588 0.46312
 N1439 N 0.79119 0.76935 0.45645
 N1440 N 0.79962 0.77778 0.44354
 C1441 C 0.69804 0.30195 0.57757
 N1442 N 0.70471 0.31708 0.58446
 N1443 N 0.69660 0.32517 0.59779
 C1444 C 0.68151 0.31844 0.60474
 N1445 N 0.67482 0.30333 0.59780
 N1446 N 0.68294 0.29524 0.58446
 C1447 C 0.70720 0.29282 0.56312
 N1448 N 0.70070 0.27753 0.55644
 N1449 N 0.70918 0.26907 0.54357
 C1450 C 0.72448 0.27560 0.53692
 N1451 N 0.73095 0.29092 0.54356
 N1452 N 0.72246 0.29938 0.55643
 C1453 C 0.69766 0.80197 1.07777
 N1454 N 0.70434 0.81708 1.08467
 N1455 N 0.69626 0.82514 1.09805
 C1456 C 0.68120 0.81839 1.10502
 N1457 N 0.67450 0.80330 1.09807
 N1458 N 0.68258 0.79524 1.08469
 C1459 C 0.70678 0.79287 1.06329
 N1460 N 0.70027 0.77760 1.05658
 N1461 N 0.70873 0.76916 1.04368
 C1462 C 0.72402 0.77570 1.03702
 N1463 N 0.73051 0.79100 1.04368
 N1464 N 0.72204 0.79944 1.05658
 C1465 C 0.19767 0.30191 1.07768
 N1466 N 0.18259 0.29518 1.08462
 N1467 N 0.17451 0.30325 1.09799
 C1468 C 0.18122 0.31835 1.10493
 N1469 N 0.19627 0.32510 1.09794
 N1470 N 0.20435 0.31703 1.08457
 C1471 C 0.20678 0.29280 1.06320
 N1472 N 0.22204 0.29935 1.05649
 N1473 N 0.23049 0.29090 1.04359
 C1474 C 0.22399 0.27560 1.03694
 N1475 N 0.20870 0.26908 1.04361
 N1476 N 0.20025 0.27753 1.05651
 C1477 C 0.19809 0.80238 0.57772
 N1478 N 0.18297 0.79571 0.58461
 N1479 N 0.17491 0.80378 0.59799
 C1480 C 0.18168 0.81883 0.60498
 N1481 N 0.19678 0.82553 0.59803
 N1482 N 0.20483 0.81745 0.58465
 C1483 C 0.20718 0.79327 0.56323
 N1484 N 0.22246 0.79978 0.55653
 N1485 N 0.23089 0.79132 0.54362
 C1486 C 0.22434 0.77605 0.53694
 N1487 N 0.20903 0.76957 0.54359
 N1488 N 0.20060 0.77803 0.55650
 C1489 C 0.30209 0.69792 0.57742
 N1490 N 0.31722 0.70458 0.58432
 N1491 N 0.32530 0.69646 0.59765
 C1492 C 0.31856 0.68138 0.60459
 N1493 N 0.30345 0.67470 0.59764
 N1494 N 0.29537 0.68282 0.58431
 C1495 C 0.29298 0.70709 0.56298
 N1496 N 0.27769 0.70060 0.55629
 N1497 N 0.26924 0.70910 0.54343
 C1498 C 0.27577 0.72440 0.53679
 N1499 N 0.29109 0.73086 0.54345
 N1500 N 0.29954 0.72236 0.55631
 C1501 C 0.30183 0.19770 1.07761
 N1502 N 0.31696 0.20437 1.08449
 N1503 N 0.32504 0.19629 1.09785
 C1504 C 0.31828 0.18123 1.10483
 N1505 N 0.30318 0.17454 1.09790
 N1506 N 0.29510 0.18262 1.08454
 C1507 C 0.29272 0.20682 1.06314
 N1508 N 0.27744 0.20030 1.05646
 N1509 N 0.26899 0.20877 1.04357
 C1510 C 0.27551 0.22405 1.03690
 N1511 N 0.29082 0.23054 1.04355
 N1512 N 0.29928 0.22208 1.05643
 C1513 C 0.80203 0.69791 1.07762
 N1514 N 0.81713 0.70463 1.08452
 N1515 N 0.82523 0.69655 1.09787
 C1516 C 0.81854 0.68145 1.10481
 N1517 N 0.80347 0.67470 1.09786
 N1518 N 0.79537 0.68278 1.08451
 C1519 C 0.79289 0.70702 1.06317
 N1520 N 0.77762 0.70047 1.05648
 N1521 N 0.76915 0.70892 1.04360
 C1522 C 0.77563 0.72424 1.03696
 N1523 N 0.79092 0.73076 1.04361
 N1524 N 0.79940 0.72231 1.05649
 C1525 C 0.80249 0.19793 0.57774
 N1526 N 0.81756 0.20468 0.58468
 N1527 N 0.82564 0.19663 0.59805
 C1528 C 0.81895 0.18152 0.60500
 N1529 N 0.80391 0.17475 0.59801
 N1530 N 0.79583 0.18280 0.58463
 C1531 C 0.79337 0.20701 0.56326
 N1532 N 0.77813 0.20043 0.55655
 N1533 N 0.76966 0.20885 0.54365
 C1534 C 0.77614 0.22417 0.53699
 N1535 N 0.79141 0.23072 0.54366
 N1536 N 0.79987 0.22230 0.55656
 C1537 C 0.69808 0.69809 0.42251
 N1538 N 0.70478 0.68296 0.41561
 N1539 N 0.69669 0.67488 0.40227
 C1540 C 0.68160 0.68163 0.39532
 N1541 N 0.67488 0.69673 0.40227
 N1542 N 0.68296 0.70481 0.41561
 C1543 C 0.70720 0.70720 0.43696
 N1544 N 0.70065 0.72249 0.44366
 N1545 N 0.70911 0.73094 0.45654
 C1546 C 0.72442 0.72441 0.46319
 N1547 N 0.73094 0.70910 0.45653
 N1548 N 0.72248 0.70065 0.44365
 C1549 C 0.69795 0.19798 -0.07801
 N1550 N 0.70466 0.18287 -0.08493
 N1551 N 0.69660 0.17483 -0.09831
 C1552 C 0.68152 0.18160 -0.10527
 N1553 N 0.67478 0.19668 -0.09829
 N1554 N 0.68285 0.20472 -0.08491
 C1555 C 0.70706 0.20705 -0.06352
 N1556 N 0.70052 0.22232 -0.05679
 N1557 N 0.70897 0.23074 -0.04388
 C1558 C 0.72428 0.22419 -0.03724
 N1559 N 0.73079 0.20889 -0.04393
 N1560 N 0.72234 0.20048 -0.05683
 C1561 C 0.19800 0.69801 -0.07801
 N1562 N 0.18289 0.70472 -0.08493
 N1563 N 0.17484 0.69665 -0.09830
 C1564 C 0.18160 0.68158 -0.10526
 N1565 N 0.19669 0.67484 -0.09829
 N1566 N 0.20473 0.68291 -0.08492
 C1567 C 0.20708 0.70712 -0.06353
 N1568 N 0.22235 0.70058 -0.05681
 N1569 N 0.23078 0.70903 -0.04391
 C1570 C 0.22423 0.72433 -0.03726
 N1571 N 0.20893 0.73085 -0.04394
 N1572 N 0.20051 0.72239 -0.05684
 C1573 C 0.19794 0.19796 0.42217
 N1574 N 0.18285 0.20469 0.41525
 N1575 N 0.17482 0.19666 0.40184
 C1576 C 0.18159 0.18160 0.39485
 N1577 N 0.19666 0.17484 0.40183
 N1578 N 0.20469 0.18287 0.41524
 C1579 C 0.20700 0.20702 0.43670
 N1580 N 0.22227 0.20045 0.44342
 N1581 N 0.23068 0.20887 0.45635
 C1582 C 0.22413 0.22415 0.46304
 N1583 N 0.20884 0.23069 0.45636
 N1584 N 0.20043 0.22228 0.44342
 C1585 C 0.30164 0.42217 0.69830
 N1586 N 0.29494 0.41526 0.68321
 N1587 N 0.30302 0.40187 0.67515
 C1588 C 0.31810 0.39490 0.68189
 N1589 N 0.32482 0.40186 0.69697
 N1590 N 0.31674 0.41525 0.70502
 C1591 C 0.29253 0.43669 0.70738
 N1592 N 0.29907 0.44341 0.72263
 N1593 N 0.29062 0.45634 0.73104
 C1594 C 0.27533 0.46303 0.72451
 N1595 N 0.26882 0.45635 0.70923
 N1596 N 0.27726 0.44341 0.70082
 C1597 C 0.30188 0.92279 0.19771
 N1598 N 0.31702 0.91588 0.20437
 N1599 N 0.32511 0.90253 0.19627
 C1600 C 0.31836 0.89558 0.18120
 N1601 N 0.30325 0.90254 0.17451
 N1602 N 0.29516 0.91589 0.18262
 C1603 C 0.29277 0.93726 0.20684
 N1604 N 0.27748 0.94398 0.20034
 N1605 N 0.26904 0.95688 0.20881
 C1606 C 0.27558 0.96353 0.22409
 N1607 N 0.29090 0.95686 0.23057
 N1608 N 0.29934 0.94396 0.22210
 C1609 C 0.80222 0.42215 0.19783
 N1610 N 0.81734 0.41524 0.20450
 N1611 N 0.82544 0.40189 0.19640
 C1612 C 0.81871 0.39494 0.18133
 N1613 N 0.80361 0.40191 0.17462
 N1614 N 0.79551 0.41526 0.18272
 C1615 C 0.79309 0.43661 0.20696
 N1616 N 0.77780 0.44332 0.20045
 N1617 N 0.76934 0.45621 0.20892
 C1618 C 0.77586 0.46285 0.22421
 N1619 N 0.79118 0.45618 0.23070
 N1620 N 0.79964 0.44329 0.22223
 C1621 C 0.80198 0.92245 0.69836
 N1622 N 0.79530 0.91557 0.68324
 N1623 N 0.80340 0.90222 0.67515
 C1624 C 0.81848 0.89524 0.68189
 N1625 N 0.82518 0.90217 0.69699
 N1626 N 0.81708 0.91553 0.70507
 C1627 C 0.79284 0.93694 0.70746
 N1628 N 0.79936 0.94362 0.72274
 N1629 N 0.79089 0.95653 0.73117
 C1630 C 0.77561 0.96322 0.72463
 N1631 N 0.76912 0.95657 0.70933
 N1632 N 0.77758 0.94367 0.70089
 C1633 C 0.69827 0.57770 0.69826
 N1634 N 0.70498 0.58461 0.68316
 N1635 N 0.69691 0.59799 0.67510
 C1636 C 0.68182 0.60497 0.68183
 N1637 N 0.67509 0.59801 0.69690
 N1638 N 0.68316 0.58463 0.70496
 C1639 C 0.70738 0.56320 0.70735
 N1640 N 0.70083 0.55649 0.72260
 N1641 N 0.70926 0.54356 0.73103
 C1642 C 0.72456 0.53687 0.72450
 N1643 N 0.73109 0.54354 0.70922
 N1644 N 0.72265 0.55647 0.70080
 C1645 C 0.69836 0.07739 0.19800
 N1646 N 0.68323 0.08431 0.20466
 N1647 N 0.67513 0.09764 0.19654
 C1648 C 0.68187 0.10456 0.18146
 N1649 N 0.69698 0.09760 0.17477
 N1650 N 0.70507 0.08426 0.18289
 C1651 C 0.70748 0.06294 0.20715
 N1652 N 0.72276 0.05620 0.20064
 N1653 N 0.73121 0.04331 0.20912
 C1654 C 0.72468 0.03670 0.22442
 N1655 N 0.70937 0.04340 0.23091
 N1656 N 0.70093 0.05628 0.22243
 C1657 C 0.19774 0.57782 0.19779
 N1658 N 0.20444 0.58470 0.18268
 N1659 N 0.19637 0.59807 0.17460
 C1660 C 0.18129 0.60507 0.18133
 N1661 N 0.17457 0.59813 0.19642
 N1662 N 0.18264 0.58476 0.20449
 C1663 C 0.20685 0.56333 0.20690
 N1664 N 0.20031 0.55667 0.22218
 N1665 N 0.20876 0.54377 0.23064
 C1666 C 0.22405 0.53707 0.22413
 N1667 N 0.23057 0.54369 0.20882
 N1668 N 0.22212 0.55659 0.20037
 C1669 C 0.19786 0.07734 0.69809
 N1670 N 0.18276 0.08426 0.70481
 N1671 N 0.17465 0.09763 0.69674
 C1672 C 0.18136 0.10458 0.68166
 N1673 N 0.19645 0.09760 0.67491
 N1674 N 0.20454 0.08424 0.68298
 C1675 C 0.20700 0.06286 0.70718
 N1676 N 0.22227 0.05615 0.70062
 N1677 N 0.23074 0.04324 0.70905
 C1678 C 0.22424 0.03657 0.72434
 N1679 N 0.20894 0.04325 0.73088
 N1680 N 0.20048 0.05616 0.72245
 C1681 C 0.30197 0.57783 0.30176
 N1682 N 0.29529 0.58475 0.31687
 N1683 N 0.30339 0.59811 0.32493
 C1684 C 0.31846 0.60505 0.31817
 N1685 N 0.32517 0.59807 0.30308
 N1686 N 0.31707 0.58472 0.29503
 C1687 C 0.29284 0.56335 0.29268
 N1688 N 0.29936 0.55662 0.27742
 N1689 N 0.29090 0.54372 0.26901
 C1690 C 0.27560 0.53709 0.27555
 N1691 N 0.26910 0.54379 0.29084
 N1692 N 0.27757 0.55668 0.29925
 C1693 C 0.30216 0.07713 0.80210
 N1694 N 0.29545 0.08404 0.81720
 N1695 N 0.30353 0.09738 0.82529
 C1696 C 0.31863 0.10432 0.81858
 N1697 N 0.32537 0.09736 0.80350
 N1698 N 0.31728 0.08402 0.79541
 C1699 C 0.29304 0.06268 0.79297
 N1700 N 0.29958 0.05598 0.77770
 N1701 N 0.29112 0.04311 0.76924
 C1702 C 0.27581 0.03646 0.77575
 N1703 N 0.26930 0.04312 0.79105
 N1704 N 0.27776 0.05599 0.79951
 C1705 C 0.80244 0.57727 0.80231
 N1706 N 0.79573 0.58418 0.81741
 N1707 N 0.80381 0.59753 0.82549
 C1708 C 0.81891 0.60446 0.81878
 N1709 N 0.82565 0.59749 0.80371
 N1710 N 0.81756 0.58415 0.79562
 C1711 C 0.79332 0.56282 0.79319
 N1712 N 0.79986 0.55611 0.77792
 N1713 N 0.79139 0.54325 0.76945
 C1714 C 0.77608 0.53661 0.77595
 N1715 N 0.76956 0.54328 0.79125
 N1716 N 0.77803 0.55614 0.79971
 C1717 C 0.80265 0.07726 0.30216
 N1718 N 0.79597 0.08418 0.31727
 N1719 N 0.80407 0.09752 0.32534
 C1720 C 0.81916 0.10445 0.31860
 N1721 N 0.82587 0.09748 0.30351
 N1722 N 0.81776 0.08414 0.29544
 C1723 C 0.79350 0.06281 0.29306
 N1724 N 0.80002 0.05608 0.27779
 N1725 N 0.79153 0.04321 0.26935
 C1726 C 0.77622 0.03659 0.27589
 N1727 N 0.76974 0.04328 0.29118
 N1728 N 0.77822 0.05615 0.29961
 C1729 C 0.69798 0.42219 0.30201
 N1730 N 0.68287 0.41530 0.29531
 N1731 N 0.67477 0.40196 0.30339
 C1732 C 0.68149 0.39500 0.31847
 N1733 N 0.69658 0.40194 0.32519
 N1734 N 0.70467 0.41528 0.31712
 C1735 C 0.70711 0.43665 0.29290
 N1736 N 0.72239 0.44332 0.29944
 N1737 N 0.73085 0.45620 0.29100
 C1738 C 0.72434 0.46288 0.27571
 N1739 N 0.70904 0.45624 0.26920
 N1740 N 0.70057 0.44336 0.27764
 C1741 C 0.69754 0.92280 0.80234
 N1742 N 0.70422 0.91590 0.81745
 N1743 N 0.69612 0.90257 0.82554
 C1744 C 0.68103 0.89564 0.81881
 N1745 N 0.67432 0.90259 0.80372
 N1746 N 0.68243 0.91592 0.79564
 C1747 C 0.70669 0.93724 0.79322
 N1748 N 0.70018 0.94393 0.77794
 N1749 N 0.70867 0.95679 0.76949
 C1750 C 0.72397 0.96343 0.77601
 N1751 N 0.73045 0.95677 0.79132
 N1752 N 0.72196 0.94391 0.79977
 C1753 C 0.19740 0.42265 0.80226
 N1754 N 0.18228 0.41577 0.79557
 N1755 N 0.17419 0.40242 0.80364
 C1756 C 0.18092 0.39546 0.81871
 N1757 N 0.19601 0.40239 0.82544
 N1758 N 0.20410 0.41574 0.81736
 C1759 C 0.20653 0.43711 0.79315
 N1760 N 0.22181 0.44378 0.79969
 N1761 N 0.23028 0.45665 0.79123
 C1762 C 0.22378 0.46331 0.77593
 N1763 N 0.20847 0.45668 0.76943
 N1764 N 0.20000 0.44381 0.77788
 C1765 C 0.19777 0.92303 0.30205
 N1766 N 0.18264 0.91616 0.29538
 N1767 N 0.17454 0.90283 0.30349
 C1768 C 0.18128 0.89588 0.31856
 N1769 N 0.19639 0.90280 0.32525
 N1770 N 0.20448 0.91613 0.31714
 C1771 C 0.20689 0.93747 0.29291
 N1772 N 0.22219 0.94414 0.29941
 N1773 N 0.23065 0.95700 0.29094
 C1774 C 0.22412 0.96366 0.27565
 N1775 N 0.20880 0.95703 0.26917
 N1776 N 0.20034 0.94417 0.27764
 C1777 C 0.42216 0.30165 0.69830
 N1778 N 0.41523 0.31675 0.70502
 N1779 N 0.40185 0.32483 0.69697
 C1780 C 0.39489 0.31810 0.68189
 N1781 N 0.40187 0.30302 0.67515
 N1782 N 0.41525 0.29495 0.68321
 C1783 C 0.43667 0.29254 0.70738
 N1784 N 0.44341 0.27728 0.70082
 N1785 N 0.45634 0.26883 0.70923
 C1786 C 0.46301 0.27535 0.72451
 N1787 N 0.45632 0.29064 0.73105
 N1788 N 0.44339 0.29908 0.72263
 C1789 C 0.42244 0.80244 0.19757
 N1790 N 0.41555 0.79572 0.18247
 N1791 N 0.40218 0.80380 0.17439
 C1792 C 0.39520 0.81890 0.18110
 N1793 N 0.40215 0.82564 0.19618
 N1794 N 0.41552 0.81755 0.20426
 C1795 C 0.43692 0.79332 0.20669
 N1796 N 0.44360 0.79987 0.22196
 N1797 N 0.45649 0.79142 0.23042
 C1798 C 0.46317 0.77611 0.22393
 N1799 N 0.45653 0.76958 0.20863
 N1800 N 0.44364 0.77804 0.20017
 C1801 C 0.92274 0.30177 0.19778
 N1802 N 0.91585 0.29505 0.18268
 N1803 N 0.90249 0.30312 0.17459
 C1804 C 0.89551 0.31822 0.18130
 N1805 N 0.90245 0.32497 0.19637
 N1806 N 0.91582 0.31689 0.20446
 C1807 C 0.93723 0.29267 0.20690
 N1808 N 0.94391 0.29924 0.22216
 N1809 N 0.95682 0.29081 0.23063
 C1810 C 0.96352 0.27550 0.22413
 N1811 N 0.95688 0.26896 0.20885
 N1812 N 0.94397 0.27740 0.20039
 C1813 C 0.92250 0.80198 0.69833
 N1814 N 0.91562 0.79530 0.68321
 N1815 N 0.90226 0.80340 0.67514
 C1816 C 0.89528 0.81848 0.68188
 N1817 N 0.90221 0.82518 0.69697
 N1818 N 0.91557 0.81708 0.70505
 C1819 C 0.93698 0.79285 0.70744
 N1820 N 0.94367 0.79937 0.72271
 N1821 N 0.95658 0.79091 0.73115
 C1822 C 0.96327 0.77562 0.72461
 N1823 N 0.95662 0.76913 0.70931
 N1824 N 0.94371 0.77759 0.70087
 C1825 C 0.57767 0.30179 0.30196
 N1826 N 0.58458 0.29508 0.31706
 N1827 N 0.59792 0.30317 0.32515
 C1828 C 0.60485 0.31827 0.31843
 N1829 N 0.59789 0.32500 0.30335
 N1830 N 0.58455 0.31690 0.29527
 C1831 C 0.56321 0.29266 0.29285
 N1832 N 0.55650 0.29921 0.27759
 N1833 N 0.54361 0.29075 0.26914
 C1834 C 0.53697 0.27545 0.27565
 N1835 N 0.54365 0.26893 0.29093
 N1836 N 0.55653 0.27738 0.29938
 C1837 C 0.57717 0.80247 0.80226
 N1838 N 0.58405 0.81759 0.79557
 N1839 N 0.59738 0.82569 0.80367
 C1840 C 0.60432 0.81897 0.81876
 N1841 N 0.59739 0.80388 0.82547
 N1842 N 0.58406 0.79578 0.81737
 C1843 C 0.56274 0.79333 0.79313
 N1844 N 0.55607 0.77805 0.79965
 N1845 N 0.54322 0.76956 0.79118
 C1846 C 0.53657 0.77606 0.77587
 N1847 N 0.54321 0.79137 0.76937
 N1848 N 0.55605 0.79985 0.77784
 C1849 C 0.07710 0.30224 0.80216
 N1850 N 0.08400 0.29554 0.81726
 N1851 N 0.09733 0.30363 0.82535
 C1852 C 0.10427 0.31873 0.81864
 N1853 N 0.09731 0.32545 0.80356
 N1854 N 0.08398 0.31736 0.79547
 C1855 C 0.06265 0.29311 0.79303
 N1856 N 0.05596 0.29963 0.77776
 N1857 N 0.04309 0.29116 0.76930
 C1858 C 0.03644 0.27586 0.77581
 N1859 N 0.04310 0.26936 0.79112
 N1860 N 0.05597 0.27783 0.79957
 C1861 C 0.07734 0.80277 0.30225
 N1862 N 0.08426 0.79608 0.31735
 N1863 N 0.09761 0.80417 0.32542
 C1864 C 0.10454 0.81926 0.31869
 N1865 N 0.09757 0.82598 0.30362
 N1866 N 0.08422 0.81788 0.29554
 C1867 C 0.06289 0.79363 0.29314
 N1868 N 0.05617 0.80016 0.27788
 N1869 N 0.04330 0.79169 0.26943
 C1870 C 0.03668 0.77638 0.27594
 N1871 N 0.04336 0.76987 0.29123
 N1872 N 0.05623 0.77835 0.29968
 C1873 C 0.57775 0.69820 0.69823
 N1874 N 0.58466 0.70489 0.68313
 N1875 N 0.59805 0.69682 0.67507
 C1876 C 0.60503 0.68174 0.68181
 N1877 N 0.59806 0.67501 0.69688
 N1878 N 0.58468 0.68309 0.70494
 C1879 C 0.56324 0.70731 0.70731
 N1880 N 0.55652 0.70077 0.72256
 N1881 N 0.54358 0.70921 0.73098
 C1882 C 0.53689 0.72450 0.72445
 N1883 N 0.54357 0.73101 0.70916
 N1884 N 0.55651 0.72257 0.70075
 C1885 C 0.57772 0.19763 0.19779
 N1886 N 0.58465 0.18252 0.20448
 N1887 N 0.59802 0.17444 0.19639
 C1888 C 0.60496 0.18117 0.18131
 N1889 N 0.59798 0.19625 0.17459
 N1890 N 0.58461 0.20433 0.18268
 C1891 C 0.56324 0.20674 0.20691
 N1892 N 0.55652 0.22202 0.20039
 N1893 N 0.54362 0.23048 0.20885
 C1894 C 0.53698 0.22396 0.22414
 N1895 N 0.54366 0.20865 0.23064
 N1896 N 0.55656 0.20020 0.22218
 C1897 C 0.07754 0.69852 0.19803
 N1898 N 0.08442 0.70522 0.18292
 N1899 N 0.09776 0.69712 0.17481
 C1900 C 0.10471 0.68201 0.18150
 N1901 N 0.09777 0.67528 0.19658
 N1902 N 0.08444 0.68339 0.20469
 C1903 C 0.06308 0.70765 0.20718
 N1904 N 0.05640 0.70110 0.22245
 N1905 N 0.04351 0.70955 0.23092
 C1906 C 0.03683 0.72486 0.22443
 N1907 N 0.04347 0.73139 0.20914
 N1908 N 0.05636 0.72294 0.20067
 C1909 C 0.07736 0.19788 0.69814
 N1910 N 0.08425 0.20456 0.68303
 N1911 N 0.09761 0.19645 0.67495
 C1912 C 0.10458 0.18137 0.68169
 N1913 N 0.09764 0.17467 0.69678
 N1914 N 0.08427 0.18277 0.70485
 C1915 C 0.06287 0.20702 0.70724
 N1916 N 0.05617 0.20050 0.72251
 N1917 N 0.04326 0.20897 0.73094
 C1918 C 0.03659 0.22426 0.72441
 N1919 N 0.04325 0.23075 0.70911
 N1920 N 0.05616 0.22228 0.70068
 C1921 C 0.42235 0.69826 0.30166
 N1922 N 0.41546 0.68315 0.29495
 N1923 N 0.40211 0.67506 0.30302
 C1924 C 0.39514 0.68177 0.31810
 N1925 N 0.40208 0.69685 0.32484
 N1926 N 0.41543 0.70494 0.31676
 C1927 C 0.43682 0.70738 0.29256
 N1928 N 0.44349 0.72265 0.29911
 N1929 N 0.45639 0.73111 0.29068
 C1930 C 0.46308 0.72460 0.27540
 N1931 N 0.45644 0.70930 0.26887
 N1932 N 0.44355 0.70084 0.27730
 C1933 C 0.42258 0.19743 0.80223
 N1934 N 0.41566 0.20413 0.81733
 N1935 N 0.40230 0.19605 0.82540
 C1936 C 0.39537 0.18096 0.81867
 N1937 N 0.40234 0.17423 0.80360
 N1938 N 0.41570 0.18232 0.79553
 C1939 C 0.43704 0.20656 0.79313
 N1940 N 0.44375 0.20003 0.77786
 N1941 N 0.45663 0.20850 0.76941
 C1942 C 0.46326 0.22380 0.77592
 N1943 N 0.45659 0.23031 0.79122
 N1944 N 0.44372 0.22184 0.79967
 C1945 C 0.92276 0.69765 0.80232
 N1946 N 0.91584 0.70435 0.81743
 N1947 N 0.90249 0.69627 0.82551
 C1948 C 0.89556 0.68117 0.81879
 N1949 N 0.90253 0.67444 0.80371
 N1950 N 0.91588 0.68253 0.79563
 C1951 C 0.93721 0.70678 0.79321
 N1952 N 0.94392 0.70026 0.77794
 N1953 N 0.95679 0.70873 0.76949
 C1954 C 0.96342 0.72403 0.77601
 N1955 N 0.95676 0.73053 0.79131
 N1956 N 0.94389 0.72206 0.79976
 C1957 C 0.92299 0.19766 0.30200
 N1958 N 0.91608 0.20436 0.31711
 N1959 N 0.90275 0.19627 0.32520
 C1960 C 0.89582 0.18117 0.31850
 N1961 N 0.90277 0.17444 0.30341
 N1962 N 0.91611 0.18254 0.29532
 C1963 C 0.93743 0.20679 0.29287
 N1964 N 0.94414 0.20025 0.27761
 N1965 N 0.95701 0.20872 0.26915
 C1966 C 0.96364 0.22403 0.27565
 N1967 N 0.95697 0.23054 0.29094
 N1968 N 0.94410 0.22208 0.29940
 C1969 C 0.30175 0.30176 0.57797
 N1970 N 0.29503 0.31687 0.58489
 N1971 N 0.30309 0.32493 0.59825
 C1972 C 0.31818 0.31818 0.60521
 N1973 N 0.32492 0.30310 0.59825
 N1974 N 0.31686 0.29504 0.58488
 C1975 C 0.29266 0.29267 0.56348
 N1976 N 0.29922 0.27740 0.55677
 N1977 N 0.29079 0.26897 0.54386
 C1978 C 0.27549 0.27551 0.53720
 N1979 N 0.26895 0.29080 0.54387
 N1980 N 0.27738 0.29923 0.55678
 C1981 C 0.30194 0.80233 0.07736
 N1982 N 0.29521 0.81744 0.08425
 N1983 N 0.30329 0.82554 0.09759
 C1984 C 0.31840 0.81883 0.10453
 N1985 N 0.32515 0.80374 0.09758
 N1986 N 0.31707 0.79564 0.08425
 C1987 C 0.29283 0.79319 0.06291
 N1988 N 0.29939 0.77791 0.05623
 N1989 N 0.29095 0.76944 0.04335
 C1990 C 0.27564 0.77594 0.03669
 N1991 N 0.26910 0.79125 0.04333
 N1992 N 0.27754 0.79972 0.05620
 C1993 C 0.80225 0.30180 0.07745
 N1994 N 0.81737 0.29508 0.08433
 N1995 N 0.82547 0.30315 0.09768
 C1996 C 0.81874 0.31824 0.10464
 N1997 N 0.80365 0.32499 0.09771
 N1998 N 0.79555 0.31692 0.08436
 C1999 C 0.79312 0.29271 0.06299
 N2000 N 0.77784 0.29927 0.05632
 N2001 N 0.76937 0.29084 0.04343
 C2002 C 0.77588 0.27554 0.03675
 N2003 N 0.79120 0.26900 0.04338
 N2004 N 0.79966 0.27743 0.05626
 C2005 C 0.80223 0.80219 0.57788
 N2006 N 0.79551 0.81730 0.58479
 N2007 N 0.80357 0.82536 0.59815
 C2008 C 0.81866 0.81862 0.60511
 N2009 N 0.82540 0.80354 0.59815
 N2010 N 0.81734 0.79547 0.58478
 C2011 C 0.79313 0.79309 0.56340
 N2012 N 0.79969 0.77782 0.55669
 N2013 N 0.79125 0.76938 0.54380
 C2014 C 0.77594 0.77590 0.53714
 N2015 N 0.76941 0.79121 0.54381
 N2016 N 0.77785 0.79965 0.55670
 C2017 C 0.30205 0.69821 0.42208
 N2018 N 0.31716 0.70490 0.41517
 N2019 N 0.32524 0.69682 0.40181
 C2020 C 0.31851 0.68174 0.39485
 N2021 N 0.30342 0.67502 0.40181
 N2022 N 0.29534 0.68311 0.41517
 C2023 C 0.29294 0.70732 0.43655
 N2024 N 0.27766 0.70080 0.44325
 N2025 N 0.26921 0.70926 0.45614
 C2026 C 0.27574 0.72454 0.46282
 N2027 N 0.29104 0.73104 0.45616
 N2028 N 0.29949 0.72258 0.44326
 C2029 C 0.30195 0.19764 0.92231
 N2030 N 0.29526 0.18252 0.91542
 N2031 N 0.30338 0.17440 0.90211
 C2032 C 0.31849 0.18110 0.89518
 N2033 N 0.32520 0.19619 0.90213
 N2034 N 0.31708 0.20431 0.91544
 C2035 C 0.29279 0.20679 0.93674
 N2036 N 0.29932 0.22207 0.94343
 N2037 N 0.29085 0.23055 0.95629
 C2038 C 0.27553 0.22405 0.96293
 N2039 N 0.26903 0.20875 0.95628
 N2040 N 0.27750 0.20027 0.94342
 C2041 C 0.80211 0.69786 0.92241
 N2042 N 0.79545 0.68272 0.91553
 N2043 N 0.80358 0.67460 0.90223
 C2044 C 0.81868 0.68131 0.89530
 N2045 N 0.82537 0.69642 0.90223
 N2046 N 0.81723 0.70454 0.91553
 C2047 C 0.79294 0.70701 0.93683
 N2048 N 0.79945 0.72230 0.94351
 N2049 N 0.79095 0.73077 0.95636
 C2050 C 0.77564 0.72426 0.96300
 N2051 N 0.76916 0.70894 0.95636
 N2052 N 0.77766 0.70047 0.94350
 C2053 C 0.80260 0.19771 0.42237
 N2054 N 0.79593 0.18258 0.41549
 N2055 N 0.80404 0.17447 0.40216
 C2056 C 0.81912 0.18120 0.39520
 N2057 N 0.82581 0.19631 0.40213
 N2058 N 0.81770 0.20441 0.41546
 C2059 C 0.79345 0.20684 0.43681
 N2060 N 0.79995 0.22214 0.44348
 N2061 N 0.79146 0.23060 0.45635
 C2062 C 0.77617 0.22408 0.46301
 N2063 N 0.76970 0.20875 0.45637
 N2064 N 0.77818 0.20029 0.44351
 C2065 C 0.69809 0.30183 0.42228
 N2066 N 0.68299 0.29511 0.41539
 N2067 N 0.67487 0.30319 0.40205
 C2068 C 0.68156 0.31829 0.39511
 N2069 N 0.69664 0.32504 0.40205
 N2070 N 0.70475 0.31695 0.41539
 C2071 C 0.70723 0.29272 0.43673
 N2072 N 0.72250 0.29928 0.44342
 N2073 N 0.73098 0.29084 0.45630
 C2074 C 0.72451 0.27553 0.46296
 N2075 N 0.70922 0.26899 0.45630
 N2076 N 0.70073 0.27743 0.44343
 C2077 C 0.69761 0.80226 0.92247
 N2078 N 0.70429 0.81739 0.91561
 N2079 N 0.69618 0.82553 0.90231
 C2080 C 0.68108 0.81883 0.89536
 N2081 N 0.67437 0.80372 0.90228
 N2082 N 0.68249 0.79559 0.91558
 C2083 C 0.70676 0.79310 0.93689
 N2084 N 0.70024 0.77780 0.94355
 N2085 N 0.70872 0.76931 0.95640
 C2086 C 0.72403 0.77581 0.96305
 N2087 N 0.73052 0.79113 0.95643
 N2088 N 0.72204 0.79962 0.94358
 C2089 C 0.19756 0.30207 0.92236
 N2090 N 0.18244 0.29539 0.91548
 N2091 N 0.17433 0.30351 0.90217
 C2092 C 0.18103 0.31862 0.89524
 N2093 N 0.19613 0.32532 0.90218
 N2094 N 0.20424 0.31720 0.91549
 C2095 C 0.20671 0.29292 0.93679
 N2096 N 0.22199 0.29944 0.94347
 N2097 N 0.23047 0.29095 0.95633
 C2098 C 0.22397 0.27564 0.96296
 N2099 N 0.20866 0.26915 0.95632
 N2100 N 0.20018 0.27763 0.94346
 C2101 C 0.19787 0.80263 0.42237
 N2102 N 0.20458 0.81773 0.41547
 N2103 N 0.19647 0.82585 0.40215
 C2104 C 0.18135 0.81917 0.39523
 N2105 N 0.17463 0.80409 0.40218
 N2106 N 0.18273 0.79597 0.41550
 C2107 C 0.20701 0.79347 0.43679
 N2108 N 0.20046 0.77820 0.44347
 N2109 N 0.20893 0.76970 0.45632
 C2110 C 0.22426 0.77617 0.46296
 N2111 N 0.23078 0.79147 0.45632
 N2112 N 0.22231 0.79996 0.44346
 C2113 C 0.69821 0.69813 0.57793
 N2114 N 0.70493 0.68302 0.58483
 N2115 N 0.69686 0.67495 0.59819
 C2116 C 0.68177 0.68168 0.60515
 N2117 N 0.67502 0.69677 0.59820
 N2118 N 0.68309 0.70484 0.58483
 C2119 C 0.70730 0.70723 0.56345
 N2120 N 0.70074 0.72251 0.55675
 N2121 N 0.70918 0.73095 0.54385
 C2122 C 0.72448 0.72442 0.53718
 N2123 N 0.73102 0.70912 0.54384
 N2124 N 0.72258 0.70068 0.55674
 C2125 C 0.69815 0.19769 0.07747
 N2126 N 0.68302 0.20437 0.08438
 N2127 N 0.67496 0.19628 0.09773
 C2128 C 0.68173 0.18120 0.10468
 N2129 N 0.69683 0.17449 0.09772
 N2130 N 0.70490 0.18259 0.08437
 C2131 C 0.70724 0.20682 0.06301
 N2132 N 0.72252 0.20029 0.05629
 N2133 N 0.73095 0.20875 0.04340
 C2134 C 0.72440 0.22406 0.03676
 N2135 N 0.70909 0.23056 0.04344
 N2136 N 0.70067 0.22210 0.05633
 C2137 C 0.19781 0.69822 0.07747
 N2138 N 0.20450 0.68309 0.08437
 N2139 N 0.19641 0.67504 0.09773
 C2140 C 0.18134 0.68180 0.10469
 N2141 N 0.17462 0.69691 0.09774
 N2142 N 0.18271 0.70496 0.08438
 C2143 C 0.20693 0.70731 0.06300
 N2144 N 0.20040 0.72258 0.05629
 N2145 N 0.20885 0.73101 0.04339
 C2146 C 0.22416 0.72446 0.03674
 N2147 N 0.23067 0.70916 0.04342
 N2148 N 0.22221 0.70073 0.05631
 C2149 C 0.19770 0.19770 0.57774
 N2150 N 0.20441 0.18258 0.58464
 N2151 N 0.19634 0.17451 0.59800
 C2152 C 0.18125 0.18125 0.60495
 N2153 N 0.17450 0.19634 0.59800
 N2154 N 0.18258 0.20441 0.58465
 C2155 C 0.20681 0.20681 0.56328
 N2156 N 0.20025 0.22209 0.55659
 N2157 N 0.20871 0.23055 0.54372
 C2158 C 0.22402 0.22403 0.53706
 N2159 N 0.23054 0.20872 0.54371
 N2160 N 0.22209 0.20027 0.55658
   
