data_POSCAR
  _audit_creation_date              2014-09-24
  _audit_creation_method            'ToBaCCo'
  _symmetry_space_group_name_H-M    'P1'
  _symmetry_Int_Tables_number       1
  _symmetry_cell_setting            triclinic
  loop_
  _symmetry_equiv_pos_as_xyz
 x,y,z
_cell_length_a 47.3513
_cell_length_b 47.2538
_cell_length_c 32.7576
_cell_angle_alpha 89.840200
_cell_angle_beta 90.128900
_cell_angle_gamma 90.149300
loop_
  _atom_site_label
  _atom_site_type_symbol
  _atom_site_fract_x
  _atom_site_fract_y
  _atom_site_fract_z
Zr1 Zr -0.04981 0.00325 0.00429
 O2 O -0.08415 -0.01832 -0.02325
 O3 O -0.07074 0.03118 0.04382
 O4 O -0.07199 -0.02262 0.04640
 O5 O -0.04079 0.05170 -0.07390
 O6 O -0.03713 -0.04820 0.07710
 O7 O -0.07389 0.02999 -0.03395
 O8 O -0.03458 0.05468 0.07514
 O9 O -0.02361 0.00228 0.05592
 O10 O -0.02408 0.03924 0.00077
 O11 O -0.02715 -0.03484 -0.00026
 O12 O -0.02875 0.00083 -0.05256
 Zr13 Zr 0.04872 -0.00173 -0.00782
 Zr14 Zr 0.00052 -0.03454 0.04963
 Zr15 Zr -0.00164 0.03600 -0.05353
 Zr16 Zr 0.00284 0.03750 0.05077
 O17 O -0.00371 0.03174 -0.11773
 O18 O 0.00442 0.03014 0.11460
 O19 O 0.02629 0.03670 -0.00369
 O20 O 0.02730 0.00074 0.04837
 O21 O 0.02332 -0.03799 -0.00461
 O22 O 0.02228 -0.00077 -0.05906
 C23 C -0.06101 0.05015 0.06826
 C24 C -0.06644 0.04748 -0.06223
 C25 C -0.06325 -0.04187 0.07140
 O26 O 0.00597 -0.03102 0.11353
 O27 O 0.03910 -0.05349 0.06548
 O28 O 0.07256 -0.03032 0.02803
 C29 C 0.06479 -0.04920 0.05422
 O30 O -0.04335 -0.04888 -0.07953
 Zr31 Zr -0.00394 -0.03598 -0.05450
 O32 O 0.06967 -0.03006 -0.04661
 O33 O -0.00341 -0.07907 0.04524
 O34 O -0.00810 -0.08019 -0.04474
 O35 O -0.00273 -0.03110 -0.11885
 O36 O 0.03352 -0.05589 -0.07375
 C37 C 0.05996 -0.05079 -0.06785
 O38 O 0.08300 0.01873 0.02157
 O39 O -0.00104 0.08074 -0.05006
 O40 O 0.07112 0.02575 -0.04750
 O41 O 0.03639 0.05264 -0.07618
 O42 O 0.00430 0.08200 0.04223
 O43 O 0.04200 0.05427 0.07159
 C44 C 0.06251 0.04618 -0.07059
 H45 H -0.03472 0.05723 0.00080
 H46 H 0.04069 0.00051 0.07162
 H47 H 0.03300 -0.00099 -0.08498
 H48 H -0.04003 -0.05136 0.00046
 H49 H 0.00041 0.04837 0.12828
 H50 H 0.00493 -0.05049 0.12477
 H51 H -0.00133 -0.08683 0.07323
 H52 H -0.00480 -0.08969 -0.07124
 H53 H 0.00118 0.09094 0.06917
 H54 H -0.00274 0.08804 -0.07836
 H55 H -0.00273 0.05113 -0.12922
 H56 H 0.00095 -0.05003 -0.13061
 H57 H 0.03868 0.06650 0.09560
 H58 H 0.10063 0.01099 0.00971
 H59 H -0.10176 -0.01042 -0.01156
 H60 H -0.04028 -0.06428 -0.09947
 Zr61 Zr 0.54869 0.49823 0.49173
 O62 O 0.58290 0.51889 0.52098
 O63 O 0.56969 0.46966 0.45340
 O64 O 0.57245 0.46981 0.52793
 O65 O 0.53657 0.55199 0.42236
 O66 O 0.53894 0.44696 0.56566
 O67 O 0.57120 0.52529 0.45165
 O68 O 0.53358 0.44361 0.42655
 O69 O 0.52328 0.46200 0.49546
 O70 O 0.52234 0.49877 0.44040
 O71 O 0.52721 0.50116 0.54781
 O72 O 0.52631 0.53671 0.49514
 Zr73 Zr 0.45018 0.50333 0.50347
 Zr74 Zr 0.50042 0.46590 0.54957
 Zr75 Zr 0.49845 0.53560 0.44522
 Zr76 Zr 0.49610 0.46362 0.44547
 O77 O 0.49899 0.58037 0.44801
 O78 O 0.49199 0.41948 0.45598
 O79 O 0.47132 0.50046 0.44674
 O80 O 0.47282 0.46520 0.49962
 O81 O 0.47630 0.50278 0.55518
 O82 O 0.47591 0.53929 0.49939
 C83 C 0.56000 0.44879 0.43240
 C84 C 0.56267 0.54550 0.42810
 C85 C 0.56463 0.45108 0.55429
 O86 O 0.49641 0.42134 0.54599
 O87 O 0.46277 0.45248 0.57719
 O88 O 0.42793 0.47774 0.54587
 C89 C 0.43665 0.45869 0.57121
 O90 O 0.54190 0.55489 0.57012
 Zr91 Zr 0.50277 0.53796 0.54949
 O92 O 0.42919 0.53154 0.54252
 O93 O 0.50587 0.46996 0.61340
 O94 O 0.50429 0.53115 0.61346
 O95 O 0.50421 0.58238 0.54019
 O96 O 0.46531 0.55531 0.57351
 C97 C 0.43889 0.55069 0.56671
 O98 O 0.41583 0.48158 0.47623
 O99 O 0.49656 0.53090 0.38107
 O100 O 0.42618 0.52970 0.46464
 O101 O 0.45933 0.55094 0.42428
 O102 O 0.49731 0.46799 0.38104
 O103 O 0.45671 0.45048 0.42060
 C104 C 0.43366 0.54681 0.43591
 H105 H 0.53307 0.49834 0.41451
 H106 H 0.45994 0.44869 0.50057
 H107 H 0.46524 0.55727 0.49907
 H108 H 0.54059 0.50109 0.57109
 H109 H 0.49532 0.40977 0.42966
 H110 H 0.49850 0.41382 0.57412
 H111 H 0.50481 0.45059 0.62498
 H112 H 0.50027 0.54949 0.62681
 H113 H 0.50100 0.44897 0.36959
 H114 H 0.49753 0.55022 0.36931
 H115 H 0.49735 0.58744 0.41959
 H116 H 0.50105 0.59155 0.56697
 H117 H 0.45980 0.43489 0.40098
 H118 H 0.39822 0.48958 0.48776
 H119 H 0.60056 0.51106 0.50932
 H120 H 0.53855 0.56737 0.59386
 Zr121 Zr 0.54967 -0.00333 0.49656
 O122 O 0.58228 0.01531 0.46137
 O123 O 0.57273 -0.02761 0.53883
 O124 O 0.57420 0.02539 0.53136
 O125 O 0.53611 -0.05825 0.42990
 O126 O 0.54132 0.05483 0.55907
 O127 O 0.57149 -0.03364 0.46139
 O128 O 0.53845 -0.04738 0.57868
 O129 O 0.52647 0.00282 0.55021
 O130 O 0.52377 -0.03896 0.50324
 O131 O 0.52693 0.03433 0.48697
 O132 O 0.52541 -0.00584 0.44232
 Zr133 Zr 0.45076 0.00192 0.49466
 Zr134 Zr 0.50218 0.03907 0.53932
 Zr135 Zr 0.49829 -0.04042 0.45151
 Zr136 Zr 0.49978 -0.03222 0.55523
 O137 O 0.49630 -0.04220 0.38705
 O138 O 0.50185 -0.01904 0.61698
 O139 O 0.47327 -0.03609 0.50394
 O140 O 0.47537 0.00433 0.54820
 O141 O 0.47629 0.03784 0.48767
 O142 O 0.47422 -0.00416 0.44134
 C143 C 0.56441 -0.04389 0.56799
 C144 C 0.56238 -0.05337 0.43760
 C145 C 0.56695 0.04710 0.55264
 O146 O 0.50082 0.04159 0.60375
 O147 O 0.46464 0.05952 0.55612
 O148 O 0.42905 0.03373 0.52734
 C149 C 0.43834 0.05456 0.54898
 O150 O 0.53849 0.04082 0.40404
 Zr151 Zr 0.50065 0.03081 0.43580
 O152 O 0.42774 0.02659 0.45300
 O153 O 0.50559 0.08272 0.52543
 O154 O 0.50547 0.07546 0.43619
 O155 O 0.49575 0.02006 0.37336
 O156 O 0.46222 0.04923 0.41689
 C157 C 0.43622 0.04498 0.42670
 O158 O 0.41833 -0.01547 0.53149
 O159 O 0.49808 -0.08444 0.46381
 O160 O 0.42603 -0.02826 0.46282
 O161 O 0.45901 -0.05868 0.43756
 O162 O 0.49775 -0.07706 0.55576
 O163 O 0.46194 -0.04641 0.58356
 C164 C 0.43335 -0.05103 0.44399
 H165 H 0.53437 -0.05691 0.50566
 H166 H 0.46339 0.00685 0.57265
 H167 H 0.46208 -0.00621 0.41686
 H168 H 0.53989 0.05057 0.48295
 H169 H 0.50656 -0.03589 0.63371
 H170 H 0.50243 0.06191 0.61079
 H171 H 0.50531 0.09303 0.55174
 H172 H 0.50057 0.08251 0.40855
 H173 H 0.50249 -0.08352 0.58376
 H174 H 0.49791 -0.09426 0.43711
 H175 H 0.49462 -0.06247 0.37977
 H176 H 0.49145 0.03777 0.35835
 H177 H 0.46662 -0.05649 0.60923
 H178 H 0.40007 -0.00862 0.52035
 H179 H 0.60050 0.00833 0.47249
 H180 H 0.53430 0.05432 0.38167
 Zr181 Zr -0.04919 0.50109 -0.01095
 O182 O -0.08185 0.48230 0.02393
 O183 O -0.07204 0.52620 -0.05221
 O184 O -0.07180 0.53195 0.02260
 O185 O -0.03856 0.44326 -0.07231
 O186 O -0.03689 0.55737 0.05381
 O187 O -0.07284 0.47111 -0.04546
 O188 O -0.03765 0.55129 -0.08453
 O189 O -0.02415 0.53764 -0.01472
 O190 O -0.02482 0.49735 -0.06383
 O191 O -0.02526 0.50234 0.04340
 O192 O -0.02602 0.46332 -0.00343
 Zr193 Zr 0.05000 0.49754 -0.00662
 Zr194 Zr 0.00115 0.53771 0.03758
 Zr195 Zr -0.00013 0.46140 -0.05523
 Zr196 Zr 0.00098 0.53292 -0.06626
 O197 O 0.00010 0.41704 -0.04581
 O198 O 0.00499 0.57755 -0.06238
 O199 O 0.02644 0.49660 -0.06157
 O200 O 0.02666 0.53507 -0.01432
 O201 O 0.02598 0.50161 0.04675
 O202 O 0.02462 0.46139 -0.00285
 C203 C -0.06384 0.54601 -0.07659
 C204 C -0.06467 0.44955 -0.06668
 C205 C -0.06300 0.55249 0.04527
 O206 O 0.00429 0.58182 0.02695
 O207 O 0.03979 0.55348 0.05946
 O208 O 0.07354 0.52578 0.03026
 C209 C 0.06565 0.54662 0.05283
 O210 O -0.03814 0.45038 0.07528
 Zr211 Zr -0.00024 0.46607 0.04880
 O212 O 0.07288 0.47241 0.03485
 O213 O -0.00138 0.53804 0.10203
 O214 O 0.00082 0.47738 0.11137
 O215 O -0.00151 0.42124 0.04629
 O216 O 0.03838 0.45082 0.07232
 C217 C 0.06442 0.45510 0.06268
 O218 O 0.08285 0.51756 -0.03972
 O219 O -0.00102 0.46155 -0.11982
 O220 O 0.07274 0.46849 -0.04314
 O221 O 0.03801 0.44506 -0.07726
 O222 O -0.00304 0.52422 -0.12950
 O223 O 0.03885 0.54479 -0.09660
 C224 C 0.06424 0.44956 -0.06885
 H225 H -0.03652 0.49584 -0.08883
 H226 H 0.03936 0.55165 -0.01694
 H227 H 0.03547 0.44354 -0.00142
 H228 H -0.03763 0.50397 0.06761
 H229 H 0.00012 0.58553 -0.08950
 H230 H 0.00338 0.59124 0.05392
 H231 H -0.00017 0.55812 0.11049
 H232 H 0.00564 0.46013 0.12715
 H233 H -0.00778 0.54230 -0.14328
 H234 H -0.00228 0.44152 -0.12851
 H235 H 0.00078 0.40806 -0.07310
 H236 H 0.00303 0.41396 0.07393
 H237 H 0.03455 0.55901 -0.11798
 H238 H 0.10100 0.51046 -0.02851
 H239 H -0.10002 0.48909 0.01241
 H240 H -0.03355 0.43952 0.10032
 Zr241 Zr 0.04897 0.50147 0.50069
 O242 O 0.08228 0.48194 0.53344
 O243 O 0.07123 0.52515 0.45687
 O244 O 0.07116 0.47220 0.46433
 O245 O 0.03992 0.55729 0.56727
 O246 O 0.03652 0.44356 0.43896
 O247 O 0.07309 0.53103 0.53411
 O248 O 0.03621 0.54541 0.41892
 O249 O 0.02365 0.49567 0.44885
 O250 O 0.02410 0.53779 0.49538
 O251 O 0.02553 0.46447 0.51239
 O252 O 0.02701 0.50495 0.55661
 Zr253 Zr -0.04965 0.49907 0.50977
 Zr254 Zr -0.00131 0.46012 0.46197
 Zr255 Zr 0.00077 0.54024 0.54891
 Zr256 Zr -0.00202 0.53140 0.44525
 O257 O 0.00159 0.54241 0.61339
 O258 O -0.00263 0.51778 0.38365
 O259 O -0.02634 0.53638 0.49839
 O260 O -0.02727 0.49555 0.45453
 O261 O -0.02510 0.46247 0.51544
 O262 O -0.02404 0.50471 0.56127
 C263 C 0.06240 0.54148 0.42807
 C264 C 0.06565 0.55127 0.55803
 C265 C 0.06257 0.45076 0.44344
 O266 O -0.00589 0.45723 0.39787
 O267 O -0.04007 0.44013 0.44954
 O268 O -0.07365 0.46781 0.47926
 C269 C -0.06584 0.44615 0.45834
 O270 O 0.04005 0.45816 0.59443
 Zr271 Zr 0.00137 0.46904 0.56538
 O272 O -0.07191 0.47518 0.55321
 O273 O 0.00189 0.41647 0.47594
 O274 O 0.00463 0.42427 0.56515
 O275 O -0.00075 0.48017 0.62798
 O276 O -0.03691 0.45192 0.58734
 C277 C -0.06310 0.45673 0.57918
 O278 O -0.08279 0.51723 0.47505
 O279 O 0.00125 0.58417 0.53596
 O280 O -0.07214 0.53005 0.54289
 O281 O -0.03728 0.55935 0.56605
 O282 O -0.00263 0.57627 0.44395
 O283 O -0.04047 0.54639 0.41962
 C284 C -0.06339 0.55249 0.56139
 H285 H 0.03516 0.55543 0.49201
 H286 H -0.04028 0.49317 0.43107
 H287 H -0.03515 0.50719 0.58657
 H288 H 0.03815 0.44794 0.51560
 H289 H 0.00194 0.53441 0.36637
 H290 H -0.00509 0.43684 0.39103
 H291 H -0.00001 0.40605 0.44985
 H292 H 0.00056 0.41750 0.59320
 H293 H 0.00110 0.58234 0.41547
 H294 H 0.00256 0.59416 0.56248
 H295 H 0.00082 0.56275 0.62054
 H296 H -0.00499 0.46263 0.64347
 H297 H -0.03653 0.55599 0.39332
 H298 H -0.10085 0.51100 0.48756
 H299 H 0.10028 0.48840 0.52098
 H300 H 0.03630 0.44477 0.61710
 Zr301 Zr 0.45058 -0.00102 0.00959
 O302 O 0.41746 0.01714 -0.02518
 O303 O 0.42829 -0.02501 0.05289
 O304 O 0.42666 -0.03227 -0.02110
 O305 O 0.46281 0.05920 0.06609
 O306 O 0.46032 -0.05983 -0.05086
 O307 O 0.42800 0.02993 0.04271
 O308 O 0.46330 -0.04828 0.08701
 O309 O 0.47518 -0.03758 0.01520
 O310 O 0.47610 0.00458 0.06118
 O311 O 0.47305 -0.00443 -0.04560
 O312 O 0.47387 0.03634 -0.00161
 Zr313 Zr 0.54919 0.00151 0.00082
 Zr314 Zr 0.49905 -0.03985 -0.03820
 Zr315 Zr 0.50089 0.04015 0.04902
 Zr316 Zr 0.50156 -0.03106 0.06525
 O317 O 0.50135 0.08410 0.03622
 O318 O 0.50489 -0.07582 0.06493
 O319 O 0.52716 0.00489 0.05669
 O320 O 0.52580 -0.03554 0.01233
 O321 O 0.52399 -0.00425 -0.05114
 O322 O 0.52429 0.03780 -0.00445
 C323 C 0.43712 -0.04350 0.07880
 C324 C 0.43671 0.05235 0.06131
 C325 C 0.43452 -0.05386 -0.04211
 O326 O 0.50220 -0.08351 -0.02435
 O327 O 0.53697 -0.05639 -0.06101
 O328 O 0.57149 -0.02768 -0.03550
 C329 C 0.56299 -0.04915 -0.05639
 O330 O 0.45985 0.04640 -0.08048
 Zr331 Zr 0.49828 0.03146 -0.05469
 O332 O 0.57151 0.02530 -0.04279
 O333 O 0.49463 -0.04263 -0.10233
 O334 O 0.49787 0.01792 -0.11633
 O335 O 0.49753 0.07633 -0.05587
 O336 O 0.53654 0.04566 -0.08073
 C337 C 0.56271 0.04174 -0.07147
 O338 O 0.58248 -0.01804 0.03364
 O339 O 0.50160 0.04222 0.11351
 O340 O 0.57323 0.03102 0.03440
 O341 O 0.54000 0.05720 0.06755
 O342 O 0.49932 -0.02003 0.12788
 O343 O 0.54022 -0.04191 0.09439
 C344 C 0.56574 0.05122 0.05835
 H345 H 0.46495 0.00701 0.08646
 H346 H 0.53842 -0.05206 0.01555
 H347 H 0.53533 0.05547 -0.00770
 H348 H 0.46009 -0.00679 -0.06911
 H349 H 0.50081 -0.08263 0.09296
 H350 H 0.50039 -0.09390 -0.05049
 H351 H 0.49546 -0.06302 -0.10923
 H352 H 0.50246 0.03458 -0.13354
 H353 H 0.49509 -0.03761 0.14330
 H354 H 0.50082 0.06255 0.12072
 H355 H 0.50262 0.09405 0.06276
 H356 H 0.50129 0.08245 -0.08432
 H357 H 0.53647 -0.05533 0.11702
 H358 H 0.60049 -0.01154 0.02127
 H359 H 0.39939 0.01088 -0.01273
 H360 H 0.46383 0.05599 -0.10677
 Zr361 Zr 0.45141 0.49658 -0.00008
 O362 O 0.41888 0.51942 0.02934
 O363 O 0.42817 0.46890 -0.03753
 O364 O 0.42851 0.52236 -0.04135
 O365 O 0.46162 0.44911 0.07891
 O366 O 0.46292 0.54699 -0.07476
 O367 O 0.42789 0.47082 0.04015
 O368 O 0.46245 0.44379 -0.07018
 O369 O 0.47571 0.49630 -0.05345
 O370 O 0.47609 0.45997 0.00261
 O371 O 0.47533 0.53412 0.00200
 O372 O 0.47453 0.49912 0.05520
 Zr373 Zr 0.55028 0.49906 0.00517
 Zr374 Zr 0.50111 0.53256 -0.04972
 Zr375 Zr 0.50049 0.46323 0.05525
 Zr376 Zr 0.50122 0.46045 -0.04921
 O377 O 0.50107 0.46821 0.11940
 O378 O 0.50047 0.46705 -0.11324
 O379 O 0.52658 0.46120 0.00359
 O380 O 0.52684 0.49661 -0.04944
 O381 O 0.52597 0.53597 0.00280
 O382 O 0.52571 0.49940 0.05816
 C383 C 0.43647 0.44922 -0.06174
 C384 C 0.43573 0.45371 0.06868
 C385 C 0.43687 0.54123 -0.06718
 O386 O 0.50416 0.52815 -0.11379
 O387 O 0.53963 0.55041 -0.06839
 O388 O 0.57365 0.52711 -0.03226
 C389 C 0.56553 0.54593 -0.05831
 O390 O 0.46257 0.54974 0.08185
 Zr391 Zr 0.50054 0.53528 0.05453
 O392 O 0.57352 0.52676 0.04224
 O393 O 0.49869 0.57722 -0.04631
 O394 O 0.49763 0.57946 0.04373
 O395 O 0.50375 0.53109 0.11885
 O396 O 0.53937 0.55419 0.07092
 C397 C 0.56536 0.54796 0.06368
 O398 O 0.58268 0.47750 -0.02641
 O399 O 0.49937 0.41846 0.05294
 O400 O 0.57326 0.47148 0.04397
 O401 O 0.53878 0.44577 0.07555
 O402 O 0.50183 0.41603 -0.03973
 O403 O 0.53905 0.44255 -0.07242
 C404 C 0.56485 0.45154 0.06811
 H405 H 0.46491 0.44227 0.00384
 H406 H 0.53941 0.49629 -0.07355
 H407 H 0.53732 0.49957 0.08335
 H408 H 0.46294 0.55096 0.00176
 H409 H 0.49541 0.44878 -0.12612
 H410 H 0.50333 0.54750 -0.12544
 H411 H 0.49999 0.58458 -0.07462
 H412 H 0.50232 0.58921 0.06964
 H413 H 0.49743 0.40687 -0.06619
 H414 H 0.49849 0.41156 0.08151
 H415 H 0.50176 0.44892 0.13127
 H416 H 0.50853 0.55002 0.12988
 H417 H 0.53450 0.43023 -0.09595
 H418 H 0.60097 0.48483 -0.01595
 H419 H 0.40060 0.51190 0.01911
 H420 H 0.46690 0.56537 0.10096
 Zr421 Zr 0.05027 -0.00062 0.50554
 O422 O 0.08282 -0.02213 0.47421
 O423 O 0.07337 0.02731 0.54249
 O424 O 0.07355 0.02738 0.46789
 O425 O 0.03885 -0.05369 0.57630
 O426 O 0.03945 0.05028 0.43137
 O427 O 0.07330 -0.02804 0.54452
 O428 O 0.03909 0.05478 0.57078
 O429 O 0.02582 0.03619 0.50276
 O430 O 0.02564 -0.00014 0.55848
 O431 O 0.02688 -0.00343 0.45092
 O432 O 0.02669 -0.03857 0.50427
 Zr433 Zr -0.04863 -0.00354 0.50007
 Zr434 Zr 0.00100 0.03241 0.45024
 Zr435 Zr 0.00054 -0.03640 0.55585
 Zr436 Zr 0.00034 0.03563 0.55445
 O437 O -0.00043 -0.08119 0.55402
 O438 O -0.00271 0.07975 0.54318
 O439 O -0.02556 -0.00061 0.55538
 O440 O -0.02482 0.03410 0.50189
 O441 O -0.02427 -0.00397 0.44677
 O442 O -0.02379 -0.04002 0.50319
 C443 C 0.06512 0.04859 0.56372
 C444 C 0.06491 -0.04793 0.56877
 C445 C 0.06536 0.04599 0.44156
 O446 O -0.00155 0.07708 0.45322
 O447 O -0.03720 0.04663 0.42502
 O448 O -0.07158 0.02204 0.45857
 C449 C -0.06324 0.04086 0.43264
 O450 O 0.03933 -0.05752 0.42846
 Zr451 Zr 0.00140 -0.03968 0.45143
 O452 O -0.07171 -0.03157 0.46287
 O453 O 0.00408 0.02770 0.38621
 O454 O 0.00068 -0.03337 0.38734
 O455 O 0.00223 -0.08405 0.46138
 O456 O -0.03725 -0.05665 0.43055
 C457 C -0.06328 -0.05134 0.43888
 O458 O -0.08132 0.01928 0.52916
 O459 O 0.00105 -0.03109 0.61994
 O460 O -0.07208 -0.02918 0.54055
 O461 O -0.03830 -0.05058 0.57957
 O462 O 0.00348 0.03171 0.61881
 O463 O -0.03769 0.05012 0.58154
 C464 C -0.06419 -0.04613 0.56924
 H465 H 0.03723 0.00017 0.58368
 H466 H -0.03727 0.05089 0.50147
 H467 H -0.03489 -0.05777 0.50458
 H468 H 0.03947 -0.00381 0.42684
 H469 H 0.00193 0.08964 0.56898
 H470 H -0.00025 0.08432 0.42485
 H471 H 0.00319 0.04699 0.37436
 H472 H -0.00428 -0.05173 0.37462
 H473 H 0.00821 0.05069 0.62968
 H474 H 0.00183 -0.05032 0.63201
 H475 H -0.00131 -0.08795 0.58266
 H476 H -0.00208 -0.09337 0.43501
 H477 H -0.03342 0.06584 0.60053
 H478 H -0.09955 0.01162 0.51895
 H479 H 0.10106 -0.01468 0.48467
 H480 H 0.03485 -0.06997 0.40503
 Zr481 Zr 0.75331 0.19923 0.24715
 O482 O 0.73232 0.16419 0.27396
 O483 O 0.78024 0.17919 0.20530
 O484 O 0.72660 0.17815 0.20524
 O485 O 0.80390 0.20630 0.32264
 O486 O 0.70013 0.21369 0.17779
 O487 O 0.78080 0.17407 0.28281
 O488 O 0.80270 0.21613 0.17419
 O489 O 0.75107 0.22671 0.19690
 O490 O 0.78933 0.22485 0.24993
 O491 O 0.71547 0.22185 0.25473
 O492 O 0.75224 0.21888 0.30508
 Zr493 Zr 0.74890 0.29764 0.26428
 Zr494 Zr 0.71455 0.25077 0.20626
 Zr495 Zr 0.78740 0.24591 0.30546
 Zr496 Zr 0.78639 0.25304 0.20144
 O497 O 0.78467 0.24174 0.36965
 O498 O 0.77746 0.25624 0.13815
 O499 O 0.78704 0.27517 0.25709
 O500 O 0.74986 0.27751 0.20697
 O501 O 0.71255 0.27235 0.26173
 O502 O 0.75096 0.26984 0.31404
 C503 C 0.79845 0.18949 0.18017
 C504 C 0.79920 0.18089 0.31014
 C505 C 0.70672 0.18743 0.18185
 O506 O 0.71652 0.25774 0.14252
 O507 O 0.69528 0.28982 0.19343
 O508 O 0.71973 0.32246 0.23076
 C509 C 0.70010 0.31531 0.20539
 O510 O 0.70307 0.20379 0.33374
 Zr511 Zr 0.71567 0.24380 0.31008
 O512 O 0.72158 0.31770 0.30539
 O513 O 0.67025 0.24676 0.21276
 O514 O 0.67133 0.24016 0.30217
 O515 O 0.72209 0.24325 0.37418
 O516 O 0.69661 0.28090 0.33252
 C517 C 0.70153 0.30751 0.32749
 O518 O 0.76884 0.33264 0.23578
 O519 O 0.83192 0.24712 0.29966
 O520 O 0.77729 0.31902 0.30393
 O521 O 0.80408 0.28325 0.32997
 O522 O 0.83099 0.25416 0.20753
 O523 O 0.80274 0.29275 0.18187
 C524 C 0.79775 0.30957 0.32622
 H525 H 0.80726 0.21421 0.24840
 H526 H 0.74910 0.29147 0.18440
 H527 H 0.75135 0.27986 0.34054
 H528 H 0.69895 0.20897 0.25425
 H529 H 0.79528 0.25258 0.12331
 H530 H 0.69684 0.25699 0.13226
 H531 H 0.66184 0.24951 0.18529
 H532 H 0.66245 0.24291 0.32923
 H533 H 0.83917 0.25171 0.17994
 H534 H 0.83993 0.24457 0.32741
 H535 H 0.80427 0.24253 0.38025
 H536 H 0.70351 0.24669 0.38711
 H537 H 0.81425 0.29005 0.15699
 H538 H 0.76143 0.35001 0.24888
 H539 H 0.73988 0.14683 0.26101
 H540 H 0.68809 0.20646 0.35439
 Zr541 Zr 0.74692 0.80052 0.75315
 O542 O 0.76740 0.83269 0.78713
 O543 O 0.72106 0.82436 0.71384
 O544 O 0.77428 0.82529 0.71653
 O545 O 0.69552 0.78686 0.82543
 O546 O 0.80161 0.79237 0.68473
 O547 O 0.71878 0.82219 0.79169
 O548 O 0.69856 0.79062 0.67600
 O549 O 0.74988 0.77789 0.69845
 O550 O 0.71080 0.77504 0.74993
 O551 O 0.78460 0.77731 0.75821
 O552 O 0.74698 0.77571 0.80707
 Zr553 Zr 0.75106 0.70150 0.75252
 Zr554 Zr 0.78623 0.75313 0.70491
 Zr555 Zr 0.71175 0.74901 0.80122
 Zr556 Zr 0.71448 0.75148 0.69686
 O557 O 0.71336 0.74659 0.86568
 O558 O 0.72431 0.75404 0.63385
 O559 O 0.71299 0.72445 0.74794
 O560 O 0.75096 0.72664 0.69932
 O561 O 0.78742 0.72666 0.75601
 O562 O 0.74810 0.72445 0.80686
 C563 C 0.70312 0.81648 0.68656
 C564 C 0.70033 0.81316 0.81750
 C565 C 0.79483 0.81804 0.69308
 O566 O 0.78523 0.75258 0.64036
 O567 O 0.80526 0.71557 0.68529
 O568 O 0.78131 0.67985 0.71695
 C569 C 0.80090 0.68924 0.69315
 O570 O 0.79525 0.78791 0.84070
 Zr571 Zr 0.78350 0.75047 0.80906
 O572 O 0.77701 0.67764 0.79143
 O573 O 0.83045 0.75579 0.71382
 O574 O 0.82793 0.75526 0.80408
 O575 O 0.77619 0.74452 0.87236
 O576 O 0.80282 0.71159 0.82415
 C577 C 0.79722 0.68568 0.81498
 O578 O 0.73179 0.66964 0.71657
 O579 O 0.66732 0.74920 0.79370
 O580 O 0.72230 0.67669 0.78673
 O581 O 0.69412 0.70966 0.81688
 O582 O 0.66982 0.74992 0.70118
 O583 O 0.69848 0.71396 0.66950
 C584 C 0.70100 0.68395 0.80878
 H585 H 0.69295 0.78587 0.74966
 H586 H 0.75211 0.71483 0.67446
 H587 H 0.74720 0.71205 0.83124
 H588 H 0.80112 0.79007 0.76081
 H589 H 0.70671 0.75912 0.61917
 H590 H 0.80509 0.75400 0.63109
 H591 H 0.83930 0.75576 0.68641
 H592 H 0.83632 0.74989 0.83074
 H593 H 0.66200 0.75500 0.67404
 H594 H 0.65893 0.74893 0.82140
 H595 H 0.69357 0.74500 0.87517
 H596 H 0.79460 0.73980 0.88507
 H597 H 0.68715 0.71899 0.64510
 H598 H 0.73891 0.65115 0.72664
 H599 H 0.76008 0.85113 0.77717
 H600 H 0.80969 0.78334 0.86160
 Zr601 Zr 0.25235 0.29995 0.75631
 O602 O 0.23229 0.33408 0.72594
 O603 O 0.27683 0.32122 0.80037
 O604 O 0.22335 0.32124 0.79442
 O605 O 0.30706 0.29265 0.68749
 O606 O 0.19498 0.28572 0.81811
 O607 O 0.28115 0.32505 0.72282
 O608 O 0.29700 0.28512 0.83626
 O609 O 0.24740 0.27323 0.80699
 O610 O 0.28872 0.27501 0.75910
 O611 O 0.21539 0.27645 0.74452
 O612 O 0.25498 0.27924 0.69921
 Zr613 Zr 0.25025 0.20122 0.74220
 Zr614 Zr 0.21186 0.24834 0.79373
 Zr615 Zr 0.29042 0.25295 0.70432
 Zr616 Zr 0.28318 0.24754 0.80801
 O617 O 0.29152 0.25561 0.63988
 O618 O 0.27063 0.24492 0.86999
 O619 O 0.28751 0.22452 0.75353
 O620 O 0.24744 0.22231 0.79863
 O621 O 0.21353 0.22576 0.73907
 O622 O 0.25492 0.22817 0.69187
 C623 C 0.29326 0.31159 0.82852
 C624 C 0.30106 0.31819 0.69801
 C625 C 0.20187 0.31199 0.81460
 O626 O 0.21008 0.24289 0.85777
 O627 O 0.19263 0.20903 0.80578
 O628 O 0.21966 0.17635 0.77287
 C629 C 0.19860 0.18345 0.79552
 O630 O 0.20777 0.29285 0.66332
 Zr631 Zr 0.21915 0.25352 0.69026
 O632 O 0.22573 0.17990 0.69859
 O633 O 0.16808 0.25094 0.78113
 O634 O 0.17449 0.25672 0.69212
 O635 O 0.22932 0.25280 0.62724
 O636 O 0.20163 0.21561 0.66724
 C637 C 0.20672 0.18922 0.67391
 O638 O 0.26903 0.16718 0.77442
 O639 O 0.33442 0.25315 0.71597
 O640 O 0.28093 0.17971 0.70687
 O641 O 0.30930 0.21546 0.68410
 O642 O 0.32798 0.24747 0.80790
 O643 O 0.29888 0.20846 0.83085
 C644 C 0.30284 0.18911 0.68766
 H645 H 0.30633 0.28608 0.76250
 H646 H 0.24554 0.20874 0.82154
 H647 H 0.25703 0.21767 0.66594
 H648 H 0.19877 0.28903 0.74232
 H649 H 0.28746 0.24912 0.88698
 H650 H 0.18984 0.24331 0.86532
 H651 H 0.15807 0.24864 0.80749
 H652 H 0.16730 0.25327 0.66413
 H653 H 0.33441 0.25052 0.83637
 H654 H 0.34401 0.25532 0.68926
 H655 H 0.31170 0.25510 0.63197
 H656 H 0.21161 0.24874 0.61215
 H657 H 0.30902 0.21178 0.85689
 H658 H 0.26264 0.14942 0.76115
 H659 H 0.23892 0.35181 0.73905
 H660 H 0.19415 0.28955 0.64084
 Zr661 Zr 0.24645 0.69918 0.24872
 O662 O 0.26827 0.66740 0.21608
 O663 O 0.21983 0.67489 0.28633
 O664 O 0.27309 0.67491 0.28708
 O665 O 0.19703 0.71192 0.17311
 O666 O 0.29892 0.70834 0.32081
 O667 O 0.21962 0.67695 0.20845
 O668 O 0.19573 0.70824 0.32245
 O669 O 0.24753 0.72188 0.30354
 O670 O 0.20997 0.72403 0.24950
 O671 O 0.28394 0.72308 0.24623
 O672 O 0.24777 0.72397 0.19483
 Zr673 Zr 0.24946 0.79837 0.24960
 Zr674 Zr 0.28370 0.74731 0.29956
 Zr675 Zr 0.21213 0.75007 0.19833
 Zr676 Zr 0.21181 0.74767 0.30273
 O677 O 0.21556 0.75254 0.13404
 O678 O 0.21981 0.74522 0.36634
 O679 O 0.21157 0.77469 0.25160
 O680 O 0.24800 0.77318 0.30272
 O681 O 0.28616 0.77379 0.24855
 O682 O 0.24828 0.77530 0.19515
 C683 C 0.20098 0.68247 0.31229
 C684 C 0.20181 0.68568 0.18144
 C685 C 0.29281 0.68254 0.31196
 O686 O 0.28078 0.74766 0.36398
 O687 O 0.30147 0.78515 0.32095
 O688 O 0.27839 0.82052 0.28738
 C689 C 0.29712 0.81144 0.31292
 O690 O 0.29751 0.71261 0.16495
 Zr691 Zr 0.28398 0.74986 0.19531
 O692 O 0.27640 0.82263 0.21261
 O693 O 0.32817 0.74555 0.29365
 O694 O 0.32829 0.74638 0.20353
 O695 O 0.27824 0.75508 0.13151
 O696 O 0.30270 0.78909 0.18039
 C697 C 0.29692 0.81492 0.18957
 O698 O 0.22882 0.82997 0.28408
 O699 O 0.16753 0.74915 0.20287
 O700 O 0.22129 0.82261 0.21348
 O701 O 0.19448 0.78908 0.18153
 O702 O 0.16731 0.74855 0.29525
 O703 O 0.19452 0.78485 0.32906
 C704 C 0.20070 0.81492 0.19010
 H705 H 0.19225 0.71291 0.24857
 H706 H 0.24824 0.78499 0.32764
 H707 H 0.24793 0.78766 0.17070
 H708 H 0.30069 0.71064 0.24476
 H709 H 0.20187 0.73981 0.37981
 H710 H 0.30035 0.74657 0.37463
 H711 H 0.33619 0.74573 0.32163
 H712 H 0.33739 0.75181 0.17742
 H713 H 0.15871 0.74320 0.32174
 H714 H 0.15994 0.74922 0.17464
 H715 H 0.19604 0.75376 0.12324
 H716 H 0.29687 0.76009 0.11979
 H717 H 0.18253 0.77958 0.35262
 H718 H 0.23604 0.84854 0.27443
 H719 H 0.26093 0.64883 0.22557
 H720 H 0.31257 0.71746 0.14519
 Zr721 Zr 0.24885 0.79777 0.76421
 O722 O 0.26880 0.83275 0.73568
 O723 O 0.22153 0.81786 0.80530
 O724 O 0.21970 0.82259 0.73069
 O725 O 0.30407 0.78335 0.82981
 O726 O 0.19522 0.78996 0.69338
 O727 O 0.27729 0.81914 0.80379
 O728 O 0.19647 0.78108 0.83233
 O729 O 0.21249 0.77248 0.76167
 O730 O 0.25091 0.76998 0.81398
 O731 O 0.24977 0.77763 0.70689
 O732 O 0.28697 0.77527 0.75698
 Zr733 Zr 0.25323 0.69933 0.74706
 Zr734 Zr 0.21446 0.75088 0.70621
 Zr735 Zr 0.28733 0.74602 0.80536
 Zr736 Zr 0.21560 0.74395 0.81003
 O737 O 0.33185 0.74719 0.79954
 O738 O 0.17127 0.74024 0.80216
 O739 O 0.25217 0.71900 0.80500
 O740 O 0.21540 0.72197 0.75469
 O741 O 0.25097 0.72682 0.69682
 O742 O 0.28924 0.72496 0.74982
 C743 C 0.20142 0.80769 0.82730
 C744 C 0.29778 0.80968 0.82603
 C745 C 0.20006 0.81545 0.70534
 O746 O 0.17015 0.74691 0.71276
 O747 O 0.19999 0.71379 0.67779
 O748 O 0.22648 0.67825 0.70519
 C749 C 0.20658 0.68752 0.68183
 O750 O 0.30265 0.79286 0.68178
 Zr751 Zr 0.28629 0.75315 0.70133
 O752 O 0.28016 0.67929 0.70518
 O753 O 0.21640 0.75782 0.64246
 O754 O 0.27733 0.75639 0.63805
 O755 O 0.33089 0.75423 0.70738
 O756 O 0.30256 0.71625 0.67401
 C757 C 0.29834 0.68961 0.67999
 O758 O 0.23226 0.66430 0.77391
 O759 O 0.28461 0.74187 0.86954
 O760 O 0.28076 0.67419 0.78269
 O761 O 0.30383 0.70643 0.82254
 O762 O 0.22203 0.74349 0.87413
 O763 O 0.20305 0.70396 0.83378
 C764 C 0.29916 0.68102 0.81003
 H765 H 0.25132 0.78002 0.84046
 H766 H 0.19888 0.70910 0.75423
 H767 H 0.30717 0.71432 0.74827
 H768 H 0.24901 0.79158 0.68432
 H769 H 0.16239 0.74301 0.82922
 H770 H 0.16173 0.74967 0.68531
 H771 H 0.19671 0.75709 0.63223
 H772 H 0.29515 0.75273 0.62319
 H773 H 0.20346 0.74697 0.88705
 H774 H 0.30421 0.74266 0.88014
 H775 H 0.33987 0.74465 0.82729
 H776 H 0.33906 0.75179 0.67978
 H777 H 0.18809 0.70664 0.85449
 H778 H 0.23982 0.64694 0.76095
 H779 H 0.26140 0.85013 0.74878
 H780 H 0.31416 0.79016 0.65691
 Zr781 Zr 0.25062 0.20144 0.25151
 O782 O 0.23179 0.16931 0.21557
 O783 O 0.27648 0.17792 0.29099
 O784 O 0.28122 0.17974 0.21664
 O785 O 0.19286 0.20959 0.31429
 O786 O 0.30552 0.21544 0.18547
 O787 O 0.22173 0.17664 0.28548
 O788 O 0.30084 0.21211 0.32536
 O789 O 0.28681 0.22678 0.25575
 O790 O 0.24682 0.22465 0.30551
 O791 O 0.25104 0.22633 0.19809
 O792 O 0.21248 0.22416 0.24569
 Zr793 Zr 0.24596 0.30044 0.25102
 Zr794 Zr 0.28612 0.25300 0.20434
 Zr795 Zr 0.21042 0.24898 0.29866
 Zr796 Zr 0.28205 0.25086 0.30842
 O797 O 0.16611 0.24894 0.28984
 O798 O 0.32654 0.25537 0.30434
 O799 O 0.24543 0.27589 0.30517
 O800 O 0.28368 0.27745 0.25733
 O801 O 0.24973 0.27755 0.19667
 O802 O 0.20999 0.27480 0.24713
 C803 C 0.29591 0.18613 0.31580
 C804 C 0.20009 0.18388 0.30687
 C805 C 0.30106 0.18911 0.19326
 O806 O 0.33021 0.25589 0.21439
 O807 O 0.30156 0.29222 0.18417
 O808 O 0.27362 0.32515 0.21481
 C809 C 0.29452 0.31789 0.19199
 O810 O 0.19897 0.21326 0.16704
 Zr811 Zr 0.21447 0.25099 0.19441
 O812 O 0.22041 0.32397 0.21089
 O813 O 0.28594 0.25218 0.13979
 O814 O 0.22507 0.25324 0.13164
 O815 O 0.16976 0.24927 0.19761
 O816 O 0.19870 0.28994 0.17265
 C817 C 0.20293 0.31587 0.18312
 O818 O 0.26591 0.33292 0.28506
 O819 O 0.21111 0.24681 0.36317
 O820 O 0.21739 0.32215 0.28887
 O821 O 0.19382 0.28685 0.32225
 O822 O 0.27378 0.24572 0.37162
 O823 O 0.29352 0.28855 0.33967
 C824 C 0.19873 0.31314 0.31438
 H825 H 0.24570 0.21239 0.33002
 H826 H 0.30011 0.29028 0.26023
 H827 H 0.19210 0.28556 0.24632
 H828 H 0.25253 0.21443 0.17337
 H829 H 0.33462 0.25026 0.33129
 H830 H 0.33939 0.25576 0.18722
 H831 H 0.30591 0.25365 0.13103
 H832 H 0.20763 0.25815 0.11644
 H833 H 0.29199 0.24120 0.38507
 H834 H 0.19120 0.24518 0.37209
 H835 H 0.15734 0.24877 0.31729
 H836 H 0.16226 0.25418 0.17023
 H837 H 0.30788 0.28416 0.36077
 H838 H 0.25860 0.35127 0.27473
 H839 H 0.23891 0.15090 0.22595
 H840 H 0.18788 0.21812 0.14235
 Zr841 Zr 0.75140 0.69983 0.24102
 O842 O 0.77077 0.66569 0.27225
 O843 O 0.72655 0.67878 0.19756
 O844 O 0.72118 0.67449 0.27171
 O845 O 0.80945 0.71485 0.18132
 O846 O 0.69425 0.70678 0.30554
 O847 O 0.78164 0.67878 0.20443
 O848 O 0.70197 0.71463 0.16735
 O849 O 0.71452 0.72418 0.23919
 O850 O 0.75530 0.72728 0.19110
 O851 O 0.74916 0.72038 0.29790
 O852 O 0.78866 0.72326 0.25189
 Zr853 Zr 0.75297 0.79852 0.25687
 Zr854 Zr 0.71341 0.74620 0.29431
 Zr855 Zr 0.79080 0.75211 0.20314
 Zr856 Zr 0.71939 0.75243 0.19080
 O857 O 0.83492 0.75226 0.21386
 O858 O 0.67473 0.75519 0.19379
 O859 O 0.75516 0.77827 0.19936
 O860 O 0.71607 0.77482 0.24559
 O861 O 0.74887 0.77129 0.30717
 O862 O 0.78953 0.77375 0.25832
 C863 C 0.70728 0.68822 0.17342
 C864 C 0.80312 0.68842 0.18450
 C865 C 0.70017 0.68133 0.29464
 O866 O 0.66947 0.74914 0.28298
 O867 O 0.69702 0.78302 0.32071
 O868 O 0.72378 0.81923 0.29561
 C869 C 0.70309 0.80945 0.31709
 O870 O 0.80106 0.70674 0.32882
 Zr871 Zr 0.78482 0.74584 0.30687
 O872 O 0.77769 0.81956 0.30089
 O873 O 0.71237 0.73960 0.35818
 O874 O 0.77294 0.74268 0.36908
 O875 O 0.82961 0.74605 0.30560
 O876 O 0.79877 0.78332 0.33537
 C877 C 0.79463 0.80983 0.32833
 O878 O 0.73257 0.83285 0.22749
 O879 O 0.79120 0.75557 0.13874
 O880 O 0.78140 0.82402 0.22322
 O881 O 0.80715 0.79203 0.18684
 O882 O 0.72885 0.75248 0.12754
 O883 O 0.70738 0.79194 0.16501
 C884 C 0.80117 0.81745 0.19797
 H885 H 0.75715 0.71706 0.16489
 H886 H 0.69932 0.78726 0.24412
 H887 H 0.80711 0.78489 0.26155
 H888 H 0.74758 0.70657 0.32057
 H889 H 0.66725 0.75199 0.16589
 H890 H 0.65979 0.74629 0.30948
 H891 H 0.69222 0.73991 0.36627
 H892 H 0.78991 0.74692 0.38576
 H893 H 0.71101 0.74844 0.11278
 H894 H 0.81128 0.75518 0.13035
 H895 H 0.84422 0.75471 0.18700
 H896 H 0.83637 0.74898 0.33393
 H897 H 0.69351 0.78876 0.14281
 H898 H 0.73921 0.85047 0.24090
 H899 H 0.76433 0.64799 0.25887
 H900 H 0.81147 0.70997 0.35465
 Zr901 Zr 0.74880 0.29924 0.75029
 O902 O 0.72783 0.33085 0.78438
 O903 O 0.77558 0.32339 0.71285
 O904 O 0.77749 0.32214 0.78719
 O905 O 0.69371 0.28904 0.68279
 O906 O 0.80236 0.28732 0.81953
 O907 O 0.72052 0.32298 0.71379
 O908 O 0.80211 0.28974 0.68121
 O909 O 0.78568 0.27494 0.74935
 O910 O 0.74768 0.27573 0.69627
 O911 O 0.74791 0.27462 0.80398
 O912 O 0.71112 0.27536 0.75309
 Zr913 Zr 0.74660 0.20011 0.75130
 Zr914 Zr 0.78381 0.24900 0.80095
 Zr915 Zr 0.71172 0.25032 0.70025
 Zr916 Zr 0.78357 0.25053 0.69664
 O917 O 0.66716 0.24894 0.70521
 O918 O 0.82792 0.24728 0.70453
 O919 O 0.74753 0.22442 0.69695
 O920 O 0.78393 0.22423 0.74810
 O921 O 0.74781 0.22333 0.80568
 O922 O 0.70996 0.22472 0.75192
 C923 C 0.79621 0.31561 0.69003
 C924 C 0.69992 0.31499 0.69069
 C925 C 0.79737 0.31345 0.81100
 O926 O 0.82826 0.24662 0.79494
 O927 O 0.79901 0.21028 0.82334
 O928 O 0.77345 0.17642 0.79010
 C929 C 0.79304 0.18436 0.81500
 O930 O 0.69454 0.28614 0.83060
 Zr931 Zr 0.71188 0.24882 0.80475
 O932 O 0.72020 0.17597 0.78938
 O933 O 0.78119 0.25086 0.86533
 O934 O 0.72025 0.24686 0.86830
 O935 O 0.66733 0.24935 0.79789
 O936 O 0.69609 0.20945 0.82521
 C937 C 0.70140 0.18363 0.81535
 O938 O 0.76862 0.16819 0.71923
 O939 O 0.71481 0.25239 0.63589
 O940 O 0.71985 0.17732 0.71146
 O941 O 0.69714 0.21189 0.67551
 O942 O 0.77763 0.25531 0.63280
 O943 O 0.79708 0.21308 0.66675
 C944 C 0.70209 0.18574 0.68415
 H945 H 0.74718 0.28788 0.67161
 H946 H 0.80074 0.21186 0.74678
 H947 H 0.69233 0.21345 0.75126
 H948 H 0.74827 0.28671 0.82861
 H949 H 0.83689 0.25252 0.67825
 H950 H 0.83637 0.24750 0.82284
 H951 H 0.80082 0.24992 0.87576
 H952 H 0.70240 0.24147 0.88205
 H953 H 0.79622 0.26034 0.62094
 H954 H 0.69523 0.25328 0.62525
 H955 H 0.65946 0.24871 0.67704
 H956 H 0.65895 0.24429 0.82464
 H957 H 0.81205 0.21783 0.64679
 H958 H 0.76141 0.14966 0.72910
 H959 H 0.73475 0.34945 0.77437
 H960 H 0.68282 0.28102 0.85452
 C961 C 0.12184 0.39312 0.87840
 C962 C 0.13206 0.41628 0.90131
 C963 C 0.11288 0.43552 0.91900
 C964 C 0.08344 0.43261 0.91259
 C965 C 0.07408 0.41063 0.88666
 C966 C 0.09282 0.39127 0.87013
 C967 C 0.14238 0.37175 0.86287
 C968 C 0.13358 0.34587 0.84593
 C969 C 0.15323 0.32663 0.83132
 C970 C 0.18221 0.33265 0.83271
 C971 C 0.19142 0.35812 0.85047
 C972 C 0.17163 0.37733 0.86674
 C973 C 0.16132 0.42015 0.90575
 C974 C 0.18067 0.40156 0.88780
 H975 H 0.16940 0.43810 0.92271
 H976 H 0.20304 0.40580 0.89142
 H977 H 0.12100 0.45266 0.93763
 H978 H 0.05191 0.40767 0.87953
 H979 H 0.14560 0.30708 0.81800
 H980 H 0.21385 0.36260 0.85249
 H981 H 0.08409 0.37508 0.85063
 H982 H 0.11163 0.33983 0.84423
 C983 C 0.37016 0.60020 0.38137
 C984 C 0.39889 0.60858 0.38275
 C985 C 0.41928 0.59048 0.39920
 C986 C 0.41167 0.56429 0.41609
 C987 C 0.38316 0.55611 0.41571
 C988 C 0.36262 0.57372 0.39820
 C989 C 0.34912 0.62041 0.36318
 C990 C 0.32031 0.61368 0.35709
 C991 C 0.30172 0.63363 0.34015
 C992 C 0.31140 0.66077 0.32984
 C993 C 0.34000 0.66740 0.33531
 C994 C 0.35888 0.64748 0.35104
 C995 C 0.40716 0.63534 0.36883
 C996 C 0.38751 0.65455 0.35396
 H997 H 0.42913 0.64176 0.37018
 H998 H 0.39491 0.67521 0.34421
 H999 H 0.44115 0.59735 0.40019
 H1000 H 0.37674 0.53607 0.42892
 H1001 H 0.27975 0.62800 0.33563
 H1002 H 0.34783 0.68808 0.32626
 H1003 H 0.34098 0.56653 0.39881
 H1004 H 0.31189 0.59312 0.36480
 C1005 C 0.87242 0.90128 0.62609
 C1006 C 0.90136 0.89379 0.62719
 C1007 C 0.92173 0.91179 0.61028
 C1008 C 0.91393 0.93694 0.59050
 C1009 C 0.88525 0.94434 0.58894
 C1010 C 0.86472 0.92687 0.60682
 C1011 C 0.85136 0.88099 0.64415
 C1012 C 0.82218 0.88682 0.64732
 C1013 C 0.80352 0.86666 0.66370
 C1014 C 0.81356 0.84018 0.67639
 C1015 C 0.84253 0.83452 0.67410
 C1016 C 0.86141 0.85468 0.65887
 C1017 C 0.90988 0.86789 0.64383
 C1018 C 0.89029 0.84857 0.65873
 H1019 H 0.93203 0.86216 0.64447
 H1020 H 0.89792 0.82852 0.67051
 H1021 H 0.94374 0.90550 0.61104
 H1022 H 0.87864 0.96355 0.57360
 H1023 H 0.78123 0.87154 0.66577
 H1024 H 0.85053 0.81437 0.68501
 H1025 H 0.84296 0.93339 0.60441
 H1026 H 0.81346 0.90680 0.63757
 C1027 C 0.63012 0.10651 0.10658
 C1028 C 0.60256 0.11659 0.09823
 C1029 C 0.58176 0.09818 0.08337
 C1030 C 0.58800 0.06979 0.07523
 C1031 C 0.61553 0.05993 0.08200
 C1032 C 0.63634 0.07797 0.09783
 C1033 C 0.65133 0.12684 0.12416
 C1034 C 0.67860 0.11870 0.13709
 C1035 C 0.69701 0.13839 0.15499
 C1036 C 0.68883 0.16671 0.15976
 C1037 C 0.66198 0.17502 0.14608
 C1038 C 0.64314 0.15539 0.12923
 C1039 C 0.59586 0.14508 0.10427
 C1040 C 0.61584 0.16415 0.11886
 H1041 H 0.57484 0.15282 0.09741
 H1042 H 0.60960 0.18601 0.12295
 H1043 H 0.56072 0.10618 0.07723
 H1044 H 0.62089 0.03813 0.07548
 H1045 H 0.71754 0.13137 0.16551
 H1046 H 0.65511 0.19669 0.15018
 H1047 H 0.65713 0.06929 0.10267
 H1048 H 0.68582 0.09714 0.13458
 C1049 C 0.87503 0.09578 0.37657
 C1050 C 0.90346 0.10441 0.38177
 C1051 C 0.92332 0.08575 0.39831
 C1052 C 0.91542 0.05865 0.41171
 C1053 C 0.88716 0.05012 0.40736
 C1054 C 0.86721 0.06834 0.38960
 C1055 C 0.85454 0.11676 0.35876
 C1056 C 0.82622 0.11007 0.34910
 C1057 C 0.80808 0.13072 0.33293
 C1058 C 0.81764 0.15854 0.32695
 C1059 C 0.84581 0.16519 0.33593
 C1060 C 0.86432 0.14459 0.35089
 C1061 C 0.91189 0.13197 0.37178
 C1062 C 0.89265 0.15176 0.35736
 H1063 H 0.93365 0.13855 0.37604
 H1064 H 0.90014 0.17299 0.35083
 H1065 H 0.94491 0.09293 0.40235
 H1066 H 0.88048 0.02939 0.41781
 H1067 H 0.78647 0.12507 0.32566
 H1068 H 0.85358 0.18646 0.33026
 H1069 H 0.84572 0.06087 0.38716
 H1070 H 0.81785 0.08902 0.35344
 C1071 C 0.37585 0.40409 0.63056
 C1072 C 0.40464 0.39643 0.62747
 C1073 C 0.42415 0.41509 0.60996
 C1074 C 0.41563 0.44119 0.59354
 C1075 C 0.38705 0.44882 0.59619
 C1076 C 0.36740 0.43063 0.61481
 C1077 C 0.35570 0.38300 0.64905
 C1078 C 0.32689 0.38877 0.65625
 C1079 C 0.30904 0.36795 0.67273
 C1080 C 0.31941 0.34083 0.68158
 C1081 C 0.34807 0.33515 0.67528
 C1082 C 0.36625 0.35598 0.65990
 C1083 C 0.41381 0.36976 0.64048
 C1084 C 0.39497 0.34981 0.65571
 H1085 H 0.43586 0.36393 0.63791
 H1086 H 0.40305 0.32923 0.66452
 H1087 H 0.44602 0.40855 0.60755
 H1088 H 0.37984 0.46874 0.58354
 H1089 H 0.28700 0.37286 0.67785
 H1090 H 0.35641 0.31446 0.68309
 H1091 H 0.34565 0.43735 0.61570
 H1092 H 0.31787 0.40921 0.64956
 C1093 C 0.62503 0.89532 0.89103
 C1094 C 0.59790 0.88522 0.90195
 C1095 C 0.57782 0.90374 0.91803
 C1096 C 0.58437 0.93230 0.92482
 C1097 C 0.61146 0.94226 0.91510
 C1098 C 0.63153 0.92408 0.89810
 C1099 C 0.64558 0.87475 0.87293
 C1100 C 0.67237 0.88279 0.85809
 C1101 C 0.69038 0.86279 0.84059
 C1102 C 0.68230 0.83426 0.83805
 C1103 C 0.65582 0.82606 0.85313
 C1104 C 0.63734 0.84601 0.86977
 C1105 C 0.59099 0.85659 0.89743
 C1106 C 0.61042 0.83734 0.88220
 H1107 H 0.57028 0.84888 0.90614
 H1108 H 0.60409 0.81535 0.87952
 H1109 H 0.55714 0.89566 0.92632
 H1110 H 0.61707 0.96419 0.92040
 H1111 H 0.71065 0.86969 0.82891
 H1112 H 0.64907 0.80419 0.85060
 H1113 H 0.65203 0.93282 0.89115
 H1114 H 0.67959 0.90445 0.85903
 C1115 C 0.12800 0.60264 0.10492
 C1116 C 0.10115 0.61267 0.09263
 C1117 C 0.08111 0.59397 0.07651
 C1118 C 0.08740 0.56527 0.07097
 C1119 C 0.11431 0.55536 0.08163
 C1120 C 0.13436 0.57376 0.09878
 C1121 C 0.14835 0.62343 0.12354
 C1122 C 0.17470 0.61555 0.14017
 C1123 C 0.19235 0.63574 0.15841
 C1124 C 0.18438 0.66432 0.15990
 C1125 C 0.15840 0.67234 0.14289
 C1126 C 0.14024 0.65222 0.12558
 C1127 C 0.09441 0.64138 0.09596
 C1128 C 0.11369 0.66079 0.11152
 H1129 H 0.07392 0.64902 0.08612
 H1130 H 0.10747 0.68282 0.11330
 H1131 H 0.06060 0.60201 0.06734
 H1132 H 0.11972 0.53333 0.07718
 H1133 H 0.21222 0.62895 0.17157
 H1134 H 0.15169 0.69423 0.14455
 H1135 H 0.15471 0.56510 0.10669
 H1136 H 0.18175 0.59386 0.14013
 C1137 C 0.37487 0.90049 0.13038
 C1138 C 0.40350 0.89221 0.12722
 C1139 C 0.42374 0.91128 0.11252
 C1140 C 0.41593 0.93834 0.09909
 C1141 C 0.38756 0.94656 0.10186
 C1142 C 0.36727 0.92799 0.11766
 C1143 C 0.35389 0.87917 0.14577
 C1144 C 0.32521 0.88557 0.15275
 C1145 C 0.30656 0.86473 0.16684
 C1146 C 0.31599 0.83701 0.17358
 C1147 C 0.34446 0.83053 0.16702
 C1148 C 0.36347 0.85136 0.15397
 C1149 C 0.41170 0.86463 0.13728
 C1150 C 0.39204 0.84452 0.14977
 H1151 H 0.43361 0.85830 0.13461
 H1152 H 0.39937 0.82330 0.15651
 H1153 H 0.44550 0.90446 0.10968
 H1154 H 0.38098 0.96729 0.09138
 H1155 H 0.28470 0.87024 0.17221
 H1156 H 0.35207 0.80931 0.17325
 H1157 H 0.34572 0.93528 0.11867
 H1158 H 0.31688 0.90654 0.14799
 C1159 C 0.61946 0.38738 0.38867
 C1160 C 0.62822 0.41570 0.39481
 C1161 C 0.60879 0.43592 0.40882
 C1162 C 0.58039 0.42848 0.41517
 C1163 C 0.57158 0.40073 0.40684
 C1164 C 0.59078 0.38043 0.39391
 C1165 C 0.64093 0.36610 0.37570
 C1166 C 0.63491 0.33697 0.37350
 C1167 C 0.65509 0.31803 0.35941
 C1168 C 0.68182 0.32756 0.34698
 C1169 C 0.68853 0.35642 0.35089
 C1170 C 0.66843 0.37563 0.36583
 C1171 C 0.65615 0.42365 0.38630
 C1172 C 0.67564 0.40418 0.37119
 H1173 H 0.66287 0.44538 0.39056
 H1174 H 0.69679 0.41150 0.36415
 H1175 H 0.61571 0.45745 0.41446
 H1176 H 0.54980 0.39441 0.41132
 H1177 H 0.64934 0.29590 0.35709
 H1178 H 0.70930 0.36395 0.34214
 H1179 H 0.58265 0.35951 0.38795
 H1180 H 0.61476 0.32832 0.38247
 C1181 C 0.87479 0.60058 0.87492
 C1182 C 0.90386 0.60610 0.86902
 C1183 C 0.92415 0.58688 0.88319
 C1184 C 0.91628 0.56273 0.90594
 C1185 C 0.88721 0.55757 0.91201
 C1186 C 0.86683 0.57603 0.89646
 C1187 C 0.85385 0.62182 0.85941
 C1188 C 0.82439 0.61721 0.86001
 C1189 C 0.80584 0.63795 0.84555
 C1190 C 0.81625 0.66387 0.83121
 C1191 C 0.84544 0.66853 0.82999
 C1192 C 0.86425 0.64753 0.84294
 C1193 C 0.91269 0.63136 0.85054
 C1194 C 0.89333 0.65191 0.83862
 H1195 H 0.93498 0.63570 0.84628
 H1196 H 0.90125 0.67142 0.82539
 H1197 H 0.94628 0.59177 0.87816
 H1198 H 0.87997 0.53933 0.92921
 H1199 H 0.78331 0.63387 0.84596
 H1200 H 0.85352 0.68827 0.81760
 H1201 H 0.84500 0.57112 0.90269
 H1202 H 0.81532 0.59763 0.87087
 C1203 C 0.12902 0.10599 0.60766
 C1204 C 0.10119 0.11550 0.59985
 C1205 C 0.08039 0.09639 0.58684
 C1206 C 0.08693 0.06786 0.58013
 C1207 C 0.11464 0.05852 0.58690
 C1208 C 0.13542 0.07726 0.60078
 C1209 C 0.15039 0.12708 0.62263
 C1210 C 0.17805 0.11955 0.63435
 C1211 C 0.19670 0.13986 0.64984
 C1212 C 0.18840 0.16822 0.65340
 C1213 C 0.16117 0.17602 0.64081
 C1214 C 0.14205 0.15571 0.62630
 C1215 C 0.09430 0.14410 0.60440
 C1216 C 0.11439 0.16383 0.61684
 H1217 H 0.07306 0.15139 0.59802
 H1218 H 0.10800 0.18574 0.61985
 H1219 H 0.05918 0.10396 0.58076
 H1220 H 0.12024 0.03663 0.58155
 H1221 H 0.21755 0.13328 0.65958
 H1222 H 0.15432 0.19777 0.64417
 H1223 H 0.15635 0.06891 0.60544
 H1224 H 0.18548 0.09803 0.63278
 C1225 C 0.12406 0.39527 0.38941
 C1226 C 0.09695 0.38523 0.40052
 C1227 C 0.07708 0.40373 0.41721
 C1228 C 0.08383 0.43220 0.42436
 C1229 C 0.11091 0.44209 0.41447
 C1230 C 0.13078 0.42393 0.39691
 C1231 C 0.14437 0.37473 0.37067
 C1232 C 0.17113 0.38273 0.35566
 C1233 C 0.18895 0.36275 0.33774
 C1234 C 0.18071 0.33428 0.33488
 C1235 C 0.15422 0.32614 0.34997
 C1236 C 0.13593 0.34607 0.36710
 C1237 C 0.08983 0.35669 0.39556
 C1238 C 0.10904 0.33745 0.37971
 H1239 H 0.06913 0.34902 0.40441
 H1240 H 0.10256 0.31554 0.37672
 H1241 H 0.05641 0.39569 0.42559
 H1242 H 0.11666 0.46395 0.42002
 H1243 H 0.20924 0.36961 0.32607
 H1244 H 0.14735 0.30431 0.34722
 H1245 H 0.15128 0.43261 0.38984
 H1246 H 0.17848 0.40434 0.35689
 C1247 C 0.37511 0.59608 0.87665
 C1248 C 0.40350 0.60480 0.88205
 C1249 C 0.42337 0.58618 0.89866
 C1250 C 0.41553 0.55903 0.91191
 C1251 C 0.38731 0.55041 0.90737
 C1252 C 0.36735 0.56859 0.88956
 C1253 C 0.35460 0.61700 0.85876
 C1254 C 0.32633 0.61023 0.84893
 C1255 C 0.30816 0.63083 0.83272
 C1256 C 0.31764 0.65869 0.82684
 C1257 C 0.34577 0.66542 0.83597
 C1258 C 0.36431 0.64487 0.85099
 C1259 C 0.41187 0.63239 0.87216
 C1260 C 0.39260 0.65213 0.85765
 H1261 H 0.43359 0.63904 0.87657
 H1262 H 0.40003 0.67339 0.85121
 H1263 H 0.44494 0.59341 0.90285
 H1264 H 0.38067 0.52964 0.91770
 H1265 H 0.28658 0.62512 0.82533
 H1266 H 0.35348 0.68672 0.83038
 H1267 H 0.34589 0.56104 0.88696
 H1268 H 0.31801 0.58914 0.85319
 C1269 C 0.62964 0.10274 0.60455
 C1270 C 0.60391 0.11330 0.58864
 C1271 C 0.58393 0.09479 0.57199
 C1272 C 0.58914 0.06567 0.56971
 C1273 C 0.61509 0.05515 0.58366
 C1274 C 0.63509 0.07343 0.60124
 C1275 C 0.64971 0.12339 0.62412
 C1276 C 0.67480 0.11518 0.64418
 C1277 C 0.69211 0.13534 0.66323
 C1278 C 0.68504 0.16418 0.66224
 C1279 C 0.66033 0.17248 0.64180
 C1280 C 0.64254 0.15247 0.62352
 C1281 C 0.59814 0.14231 0.58922
 C1282 C 0.61721 0.16151 0.60578
 H1283 H 0.57855 0.15034 0.57660
 H1284 H 0.61174 0.18377 0.60547
 H1285 H 0.56419 0.10319 0.56028
 H1286 H 0.61963 0.03274 0.58180
 H1287 H 0.71098 0.12831 0.67896
 H1288 H 0.65429 0.19460 0.64129
 H1289 H 0.65461 0.06431 0.61198
 H1290 H 0.68109 0.09329 0.64617
 C1291 C 0.87594 0.90352 0.13085
 C1292 C 0.90472 0.89582 0.12762
 C1293 C 0.92423 0.91445 0.11003
 C1294 C 0.91572 0.94059 0.09371
 C1295 C 0.88717 0.94827 0.09652
 C1296 C 0.86752 0.93009 0.11519
 C1297 C 0.85579 0.88244 0.14939
 C1298 C 0.82698 0.88821 0.15667
 C1299 C 0.80912 0.86736 0.17311
 C1300 C 0.81949 0.84022 0.18182
 C1301 C 0.84815 0.83456 0.17550
 C1302 C 0.86633 0.85540 0.16015
 C1303 C 0.91388 0.86914 0.14057
 C1304 C 0.89503 0.84921 0.15587
 H1305 H 0.93592 0.86328 0.13791
 H1306 H 0.90310 0.82861 0.16462
 H1307 H 0.94608 0.90788 0.10752
 H1308 H 0.87997 0.96822 0.08396
 H1309 H 0.78708 0.87225 0.17824
 H1310 H 0.85649 0.81386 0.18322
 H1311 H 0.84578 0.93685 0.11621
 H1312 H 0.81796 0.90867 0.15003
 C1313 C 0.87010 0.10182 0.88504
 C1314 C 0.89865 0.11058 0.88814
 C1315 C 0.91906 0.09223 0.90402
 C1316 C 0.91159 0.06536 0.91867
 C1317 C 0.88321 0.05682 0.91679
 C1318 C 0.86270 0.07470 0.89979
 C1319 C 0.84911 0.12222 0.86717
 C1320 C 0.82060 0.11518 0.85922
 C1321 C 0.80210 0.13519 0.84222
 C1322 C 0.81152 0.16273 0.83367
 C1323 C 0.83981 0.16975 0.84131
 C1324 C 0.85864 0.14978 0.85708
 C1325 C 0.90672 0.13790 0.87640
 C1326 C 0.88706 0.15723 0.86188
 H1327 H 0.92855 0.14462 0.87913
 H1328 H 0.89431 0.17828 0.85374
 H1329 H 0.94080 0.09935 0.90630
 H1330 H 0.87690 0.03626 0.92834
 H1331 H 0.78040 0.12923 0.83608
 H1332 H 0.84751 0.19075 0.83371
 H1333 H 0.84116 0.06719 0.89909
 H1334 H 0.81237 0.09429 0.86536
 C1335 C 0.13003 0.60659 0.60632
 C1336 C 0.10246 0.61666 0.59797
 C1337 C 0.08169 0.59825 0.58304
 C1338 C 0.08793 0.56987 0.57485
 C1339 C 0.11548 0.56002 0.58160
 C1340 C 0.13627 0.57807 0.59750
 C1341 C 0.15122 0.62692 0.62400
 C1342 C 0.17850 0.61879 0.63693
 C1343 C 0.19688 0.63848 0.65490
 C1344 C 0.18868 0.66680 0.65973
 C1345 C 0.16182 0.67508 0.64607
 C1346 C 0.14300 0.65546 0.62916
 C1347 C 0.09574 0.64514 0.60409
 C1348 C 0.11569 0.66420 0.61878
 H1349 H 0.07472 0.65287 0.59724
 H1350 H 0.10943 0.68605 0.62293
 H1351 H 0.06064 0.60624 0.57692
 H1352 H 0.12085 0.53823 0.57505
 H1353 H 0.21742 0.63147 0.66539
 H1354 H 0.15492 0.69675 0.65024
 H1355 H 0.15707 0.56940 0.60235
 H1356 H 0.18574 0.59725 0.63435
 C1357 C 0.62196 0.88737 0.38734
 C1358 C 0.63083 0.91529 0.39627
 C1359 C 0.61153 0.93476 0.41302
 C1360 C 0.58314 0.92702 0.41923
 C1361 C 0.57435 0.89967 0.40844
 C1362 C 0.59338 0.88012 0.39289
 C1363 C 0.64319 0.86683 0.37121
 C1364 C 0.63697 0.83796 0.36608
 C1365 C 0.65684 0.81969 0.34962
 C1366 C 0.68360 0.82948 0.33755
 C1367 C 0.69048 0.85813 0.34391
 C1368 C 0.67060 0.87672 0.36142
 C1369 C 0.65866 0.92360 0.38759
 C1370 C 0.67790 0.90493 0.36968
 H1371 H 0.66551 0.94504 0.39395
 H1372 H 0.69895 0.91258 0.36277
 H1373 H 0.61845 0.95601 0.42055
 H1374 H 0.55262 0.89308 0.41272
 H1375 H 0.65080 0.79776 0.34552
 H1376 H 0.71123 0.86589 0.33548
 H1377 H 0.58512 0.85957 0.38501
 H1378 H 0.61693 0.82893 0.37474
 C1379 C 0.37222 0.40116 0.12533
 C1380 C 0.40117 0.39376 0.12679
 C1381 C 0.42158 0.41174 0.10993
 C1382 C 0.41381 0.43679 0.08986
 C1383 C 0.38511 0.44412 0.08799
 C1384 C 0.36454 0.42666 0.10580
 C1385 C 0.35113 0.38087 0.14332
 C1386 C 0.32190 0.38659 0.14605
 C1387 C 0.30322 0.36643 0.16235
 C1388 C 0.31328 0.34005 0.17543
 C1389 C 0.34229 0.33450 0.17360
 C1390 C 0.36119 0.35466 0.15841
 C1391 C 0.40969 0.36796 0.14377
 C1392 C 0.39009 0.34864 0.15866
 H1393 H 0.43186 0.36230 0.14470
 H1394 H 0.39772 0.32868 0.17071
 H1395 H 0.44359 0.40550 0.11097
 H1396 H 0.37852 0.46326 0.07245
 H1397 H 0.28090 0.37122 0.16405
 H1398 H 0.35030 0.31443 0.18479
 H1399 H 0.34278 0.43311 0.10313
 H1400 H 0.31316 0.40650 0.13598
 C1401 C 0.62940 0.60522 0.10732
 C1402 C 0.60151 0.61472 0.09994
 C1403 C 0.58067 0.59564 0.08705
 C1404 C 0.58722 0.56716 0.08005
 C1405 C 0.61496 0.55781 0.08642
 C1406 C 0.63580 0.57652 0.10017
 C1407 C 0.65082 0.62627 0.12216
 C1408 C 0.67858 0.61874 0.13340
 C1409 C 0.69727 0.63901 0.14885
 C1410 C 0.68892 0.66732 0.15284
 C1411 C 0.66162 0.67513 0.14068
 C1412 C 0.64245 0.65487 0.12620
 C1413 C 0.59461 0.64329 0.10481
 C1414 C 0.61473 0.66300 0.11717
 H1415 H 0.57331 0.65057 0.09876
 H1416 H 0.60832 0.68488 0.12046
 H1417 H 0.55943 0.60321 0.08128
 H1418 H 0.62056 0.53595 0.08083
 H1419 H 0.71820 0.63242 0.15825
 H1420 H 0.65473 0.69685 0.14435
 H1421 H 0.65677 0.56818 0.10450
 H1422 H 0.68604 0.59725 0.13150
 C1423 C 0.11931 0.88775 0.88807
 C1424 C 0.12820 0.91598 0.89468
 C1425 C 0.10880 0.93623 0.90875
 C1426 C 0.08032 0.92892 0.91471
 C1427 C 0.07140 0.90127 0.90588
 C1428 C 0.09056 0.88094 0.89288
 C1429 C 0.14075 0.86641 0.87512
 C1430 C 0.13459 0.83732 0.87251
 C1431 C 0.15478 0.81834 0.85855
 C1432 C 0.18165 0.82777 0.84664
 C1433 C 0.18847 0.85658 0.85090
 C1434 C 0.16837 0.87584 0.86575
 C1435 C 0.15621 0.92381 0.88661
 C1436 C 0.17570 0.90431 0.87153
 H1437 H 0.16304 0.94548 0.89123
 H1438 H 0.19693 0.91155 0.86486
 H1439 H 0.11581 0.95768 0.91479
 H1440 H 0.04957 0.89504 0.91004
 H1441 H 0.14893 0.79625 0.85591
 H1442 H 0.20935 0.86404 0.84255
 H1443 H 0.08235 0.86010 0.88655
 H1444 H 0.11432 0.82875 0.88108
 C1445 C 0.37363 0.10153 0.37768
 C1446 C 0.40210 0.11023 0.38214
 C1447 C 0.42246 0.09111 0.39624
 C1448 C 0.41486 0.06355 0.40778
 C1449 C 0.38660 0.05499 0.40413
 C1450 C 0.36622 0.07364 0.38890
 C1451 C 0.35260 0.12274 0.36230
 C1452 C 0.32422 0.11586 0.35355
 C1453 C 0.30562 0.13647 0.33886
 C1454 C 0.31475 0.16446 0.33332
 C1455 C 0.34288 0.17150 0.34202
 C1456 C 0.36190 0.15087 0.35558
 C1457 C 0.41003 0.13819 0.37378
 C1458 C 0.39027 0.15819 0.36143
 H1459 H 0.43180 0.14486 0.37754
 H1460 H 0.39740 0.17968 0.35587
 H1461 H 0.44414 0.09813 0.39994
 H1462 H 0.38022 0.03388 0.41327
 H1463 H 0.28403 0.13054 0.33187
 H1464 H 0.35029 0.19294 0.33676
 H1465 H 0.34476 0.06603 0.38701
 H1466 H 0.31613 0.09464 0.35714
 C1467 C 0.87445 0.40099 0.63096
 C1468 C 0.90312 0.39276 0.62838
 C1469 C 0.92344 0.41175 0.61364
 C1470 C 0.91566 0.43869 0.59962
 C1471 C 0.88725 0.44687 0.60191
 C1472 C 0.86689 0.42838 0.61772
 C1473 C 0.85338 0.37972 0.64630
 C1474 C 0.82461 0.38608 0.65259
 C1475 C 0.80589 0.36528 0.66664
 C1476 C 0.81533 0.33765 0.67401
 C1477 C 0.84389 0.33122 0.66814
 C1478 C 0.86297 0.35201 0.65512
 C1479 C 0.91131 0.36528 0.63906
 C1480 C 0.89160 0.34522 0.65157
 H1481 H 0.93325 0.35899 0.63687
 H1482 H 0.89893 0.32408 0.65880
 H1483 H 0.94523 0.40496 0.61122
 H1484 H 0.88070 0.46750 0.59101
 H1485 H 0.78395 0.37076 0.67149
 H1486 H 0.85151 0.31008 0.67487
 H1487 H 0.84532 0.43564 0.61831
 H1488 H 0.81625 0.40698 0.64731
 C1489 C 0.87979 0.61195 0.10072
 C1490 C 0.87040 0.58408 0.09234
 C1491 C 0.88859 0.56470 0.07283
 C1492 C 0.91635 0.57265 0.06266
 C1493 C 0.92528 0.60038 0.07083
 C1494 C 0.90738 0.61974 0.08933
 C1495 C 0.86019 0.63190 0.12210
 C1496 C 0.86766 0.66009 0.13081
 C1497 C 0.84906 0.67788 0.15105
 C1498 C 0.82232 0.66833 0.16349
 C1499 C 0.81451 0.64019 0.15498
 C1500 C 0.83320 0.62201 0.13409
 C1501 C 0.84319 0.57569 0.10430
 C1502 C 0.82509 0.59416 0.12490
 H1503 H 0.83588 0.55439 0.09805
 H1504 H 0.80440 0.58649 0.13377
 H1505 H 0.88152 0.54326 0.06686
 H1506 H 0.94644 0.60723 0.06296
 H1507 H 0.85587 0.69936 0.15715
 H1508 H 0.79385 0.63255 0.16408
 H1509 H 0.91589 0.64054 0.09487
 H1510 H 0.88774 0.66903 0.12223
 C1511 C 0.62592 0.39629 0.61123
 C1512 C 0.59762 0.38743 0.60533
 C1513 C 0.57808 0.40554 0.58680
 C1514 C 0.58617 0.43241 0.57280
 C1515 C 0.61443 0.44091 0.57706
 C1516 C 0.63409 0.42315 0.59631
 C1517 C 0.64582 0.37638 0.63255
 C1518 C 0.67388 0.38358 0.64298
 C1519 C 0.69149 0.36395 0.66262
 C1520 C 0.68158 0.33666 0.67175
 C1521 C 0.65359 0.32958 0.66213
 C1522 C 0.63567 0.34915 0.64327
 C1523 C 0.58888 0.36041 0.61754
 C1524 C 0.60760 0.34154 0.63557
 H1525 H 0.56725 0.35362 0.61270
 H1526 H 0.59986 0.32073 0.64407
 H1527 H 0.55643 0.39849 0.58281
 H1528 H 0.62120 0.46150 0.56619
 H1529 H 0.71300 0.36992 0.66996
 H1530 H 0.64554 0.30873 0.66985
 H1531 H 0.65552 0.43073 0.59907
 H1532 H 0.68253 0.40423 0.63640
 C1533 C 0.12622 0.10083 0.38305
 C1534 C 0.09748 0.10866 0.38644
 C1535 C 0.07810 0.09043 0.40516
 C1536 C 0.08669 0.06447 0.42184
 C1537 C 0.11529 0.05694 0.41964
 C1538 C 0.13485 0.07480 0.40024
 C1539 C 0.14608 0.12104 0.36210
 C1540 C 0.17478 0.11494 0.35457
 C1541 C 0.19237 0.13497 0.33565
 C1542 C 0.18179 0.16157 0.32436
 C1543 C 0.15317 0.16746 0.33083
 C1544 C 0.13530 0.14749 0.34901
 C1545 C 0.08814 0.13484 0.37174
 C1546 C 0.10672 0.15398 0.35392
 H1547 H 0.06615 0.14081 0.37458
 H1548 H 0.09851 0.17417 0.34357
 H1549 H 0.05618 0.09684 0.40739
 H1550 H 0.12249 0.03709 0.43253
 H1551 H 0.21441 0.12993 0.33075
 H1552 H 0.14465 0.18775 0.32142
 H1553 H 0.15657 0.06802 0.39931
 H1554 H 0.18397 0.09490 0.36305
 C1555 C 0.37431 0.88665 0.90968
 C1556 C 0.36762 0.91582 0.91032
 C1557 C 0.38669 0.93533 0.92785
 C1558 C 0.41289 0.92612 0.94301
 C1559 C 0.41941 0.89727 0.94193
 C1560 C 0.40043 0.87777 0.92582
 C1561 C 0.35389 0.86652 0.89023
 C1562 C 0.35816 0.83711 0.89041
 C1563 C 0.33962 0.81918 0.87013
 C1564 C 0.31603 0.82979 0.84900
 C1565 C 0.31086 0.85910 0.84993
 C1566 C 0.32952 0.87747 0.87074
 C1567 C 0.34250 0.92531 0.89213
 C1568 C 0.32409 0.90662 0.87224
 H1569 H 0.33732 0.94763 0.89237
 H1570 H 0.30531 0.91513 0.85784
 H1571 H 0.38173 0.95772 0.92804
 H1572 H 0.43950 0.88971 0.95349
 H1573 H 0.34419 0.79674 0.87074
 H1574 H 0.29250 0.86761 0.83439
 H1575 H 0.40707 0.85598 0.92542
 H1576 H 0.37570 0.82736 0.90597
 C1577 C 0.12546 0.89810 0.62975
 C1578 C 0.09750 0.88885 0.62199
 C1579 C 0.07819 0.90680 0.60258
 C1580 C 0.08617 0.93394 0.58938
 C1581 C 0.11407 0.94297 0.59595
 C1582 C 0.13347 0.92536 0.61616
 C1583 C 0.14526 0.87802 0.65111
 C1584 C 0.17305 0.88535 0.66289
 C1585 C 0.19076 0.86538 0.68167
 C1586 C 0.18128 0.83762 0.68855
 C1587 C 0.15346 0.83047 0.67803
 C1588 C 0.13542 0.85036 0.66000
 C1589 C 0.08894 0.86150 0.63291
 C1590 C 0.10760 0.84255 0.65097
 H1591 H 0.06755 0.85444 0.62677
 H1592 H 0.10005 0.82144 0.65816
 H1593 H 0.05687 0.89930 0.59700
 H1594 H 0.12079 0.96377 0.58590
 H1595 H 0.21212 0.87141 0.68980
 H1596 H 0.14574 0.80924 0.68406
 H1597 H 0.15465 0.93330 0.62051
 H1598 H 0.18143 0.90632 0.65779
 C1599 C 0.62386 0.59832 0.36589
 C1600 C 0.59543 0.60695 0.37034
 C1601 C 0.57583 0.58926 0.38977
 C1602 C 0.58394 0.56305 0.40626
 C1603 C 0.61220 0.55454 0.40240
 C1604 C 0.63191 0.57185 0.38226
 C1605 C 0.64413 0.61830 0.34518
 C1606 C 0.67265 0.61161 0.33718
 C1607 C 0.69081 0.63166 0.31940
 C1608 C 0.68101 0.65886 0.30974
 C1609 C 0.65250 0.66527 0.31622
 C1610 C 0.63406 0.64530 0.33330
 C1611 C 0.58670 0.63354 0.35633
 C1612 C 0.60566 0.65242 0.33870
 H1613 H 0.56493 0.64011 0.35983
 H1614 H 0.59795 0.67299 0.32917
 H1615 H 0.55420 0.59640 0.39296
 H1616 H 0.61909 0.53447 0.41490
 H1617 H 0.71273 0.62619 0.31440
 H1618 H 0.64460 0.68606 0.30801
 H1619 H 0.65338 0.56437 0.38035
 H1620 H 0.68130 0.59114 0.34467
 C1621 C 0.37886 0.11168 0.11473
 C1622 C 0.37093 0.08286 0.11136
 C1623 C 0.38934 0.06337 0.09269
 C1624 C 0.41587 0.07228 0.07837
 C1625 C 0.42343 0.10086 0.08177
 C1626 C 0.40528 0.12028 0.09946
 C1627 C 0.35902 0.13184 0.13497
 C1628 C 0.36499 0.16089 0.13857
 C1629 C 0.34613 0.17895 0.15763
 C1630 C 0.32065 0.16879 0.17388
 C1631 C 0.31439 0.13976 0.17070
 C1632 C 0.33332 0.12128 0.15102
 C1633 C 0.34499 0.07373 0.12733
 C1634 C 0.32669 0.09247 0.14695
 H1635 H 0.33885 0.05169 0.12496
 H1636 H 0.30699 0.08429 0.15900
 H1637 H 0.38343 0.04124 0.09047
 H1638 H 0.44366 0.10836 0.07067
 H1639 H 0.35173 0.20115 0.15973
 H1640 H 0.29470 0.13166 0.18291
 H1641 H 0.41269 0.14181 0.10121
 H1642 H 0.38402 0.17035 0.12676
 C1643 C 0.87767 0.39314 0.87922
 C1644 C 0.86748 0.41791 0.89827
 C1645 C 0.88660 0.43695 0.91707
 C1646 C 0.91606 0.43211 0.91549
 C1647 C 0.92557 0.40802 0.89403
 C1648 C 0.90688 0.38904 0.87644
 C1649 C 0.85705 0.37245 0.86175
 C1650 C 0.86537 0.34564 0.84765
 C1651 C 0.84569 0.32695 0.83147
 C1652 C 0.81716 0.33435 0.82852
 C1653 C 0.80835 0.36092 0.84291
 C1654 C 0.82811 0.37973 0.86060
 C1655 C 0.83838 0.42357 0.89755
 C1656 C 0.81922 0.40526 0.87823
 H1657 H 0.83034 0.44268 0.91151
 H1658 H 0.79704 0.41084 0.87794
 H1659 H 0.87849 0.45559 0.93226
 H1660 H 0.94783 0.40326 0.89081
 H1661 H 0.85294 0.30653 0.82079
 H1662 H 0.78618 0.36649 0.84154
 H1663 H 0.91593 0.37142 0.86028
 H1664 H 0.88688 0.33835 0.84953
 C1665 C 0.62469 0.09747 0.87588
 C1666 C 0.59587 0.10523 0.87775
 C1667 C 0.57572 0.08599 0.89222
 C1668 C 0.58379 0.05936 0.90705
 C1669 C 0.61235 0.05161 0.90552
 C1670 C 0.63257 0.07029 0.88969
 C1671 C 0.64555 0.11904 0.86080
 C1672 C 0.67441 0.11307 0.85455
 C1673 C 0.69283 0.13408 0.84025
 C1674 C 0.68299 0.16157 0.83286
 C1675 C 0.65440 0.16767 0.83901
 C1676 C 0.63561 0.14662 0.85193
 C1677 C 0.58734 0.13257 0.86693
 C1678 C 0.60686 0.15297 0.85501
 H1679 H 0.56528 0.13851 0.86867
 H1680 H 0.59926 0.17401 0.84768
 H1681 H 0.55382 0.09250 0.89420
 H1682 H 0.61911 0.03125 0.91722
 H1683 H 0.71480 0.12888 0.83503
 H1684 H 0.64649 0.18867 0.83209
 H1685 H 0.65428 0.06344 0.88973
 H1686 H 0.68301 0.09225 0.85978
 C1687 C 0.37946 0.61067 0.61426
 C1688 C 0.37088 0.58233 0.60782
 C1689 C 0.39030 0.56247 0.59263
 C1690 C 0.41857 0.57026 0.58579
 C1691 C 0.42727 0.59792 0.59493
 C1692 C 0.40804 0.61789 0.60879
 C1693 C 0.35796 0.63168 0.62793
 C1694 C 0.36361 0.66089 0.62946
 C1695 C 0.34356 0.67959 0.64450
 C1696 C 0.31736 0.66976 0.65866
 C1697 C 0.31088 0.64081 0.65515
 C1698 C 0.33081 0.62182 0.63903
 C1699 C 0.34318 0.57405 0.61727
 C1700 C 0.32382 0.59321 0.63365
 H1701 H 0.33659 0.55229 0.61289
 H1702 H 0.30291 0.58562 0.64154
 H1703 H 0.38352 0.54096 0.58644
 H1704 H 0.44894 0.60449 0.59013
 H1705 H 0.34912 0.70180 0.64640
 H1706 H 0.29045 0.63305 0.66514
 H1707 H 0.41605 0.63879 0.61527
 H1708 H 0.38340 0.66974 0.61924
 C1709 C 0.12666 0.39973 0.11545
 C1710 C 0.09832 0.39083 0.11011
 C1711 C 0.07811 0.40968 0.09496
 C1712 C 0.08570 0.43714 0.08300
 C1713 C 0.11386 0.44591 0.08731
 C1714 C 0.13411 0.42755 0.10380
 C1715 C 0.14750 0.37876 0.13214
 C1716 C 0.17562 0.38586 0.14232
 C1717 C 0.19394 0.36543 0.15844
 C1718 C 0.18480 0.33743 0.16381
 C1719 C 0.15697 0.33021 0.15358
 C1720 C 0.13820 0.35062 0.13880
 C1721 C 0.09038 0.36289 0.11856
 C1722 C 0.11001 0.34309 0.13187
 H1723 H 0.06872 0.35607 0.11407
 H1724 H 0.10289 0.32160 0.13743
 H1725 H 0.05656 0.40244 0.09064
 H1726 H 0.12024 0.46693 0.07775
 H1727 H 0.21527 0.37151 0.16671
 H1728 H 0.14950 0.30878 0.15881
 H1729 H 0.15551 0.43524 0.10626
 H1730 H 0.18363 0.40712 0.13886
 C1731 C 0.87489 0.88879 0.39696
 C1732 C 0.86823 0.91796 0.39696
 C1733 C 0.88829 0.93781 0.41093
 C1734 C 0.91548 0.92891 0.42234
 C1735 C 0.92238 0.90016 0.41982
 C1736 C 0.90239 0.88032 0.40758
 C1737 C 0.85283 0.86812 0.38368
 C1738 C 0.85625 0.83874 0.38815
 C1739 C 0.83635 0.82009 0.37224
 C1740 C 0.81249 0.83014 0.35126
 C1741 C 0.80779 0.85952 0.34938
 C1742 C 0.82758 0.87853 0.36620
 C1743 C 0.84199 0.92700 0.38189
 C1744 C 0.82245 0.90777 0.36567
 H1745 H 0.83688 0.94934 0.38136
 H1746 H 0.80291 0.91587 0.35299
 H1747 H 0.88304 0.96011 0.41208
 H1748 H 0.94322 0.89281 0.42844
 H1749 H 0.84041 0.79762 0.37498
 H1750 H 0.78908 0.86759 0.33423
 H1751 H 0.90905 0.85854 0.40607
 H1752 H 0.87426 0.82970 0.40359
 C1753 C 0.87867 0.61183 0.61454
 C1754 C 0.87088 0.58295 0.61157
 C1755 C 0.88932 0.56346 0.59300
 C1756 C 0.91578 0.57241 0.57846
 C1757 C 0.92325 0.60103 0.58161
 C1758 C 0.90505 0.62046 0.59917
 C1759 C 0.85875 0.63200 0.63457
 C1760 C 0.86446 0.66115 0.63744
 C1761 C 0.84560 0.67921 0.65651
 C1762 C 0.82037 0.66896 0.67346
 C1763 C 0.81432 0.63986 0.67082
 C1764 C 0.83323 0.62138 0.65113
 C1765 C 0.84507 0.57376 0.62790
 C1766 C 0.82677 0.59250 0.64754
 H1767 H 0.83905 0.55167 0.62588
 H1768 H 0.80720 0.58427 0.65995
 H1769 H 0.88351 0.54130 0.59102
 H1770 H 0.94344 0.60855 0.57040
 H1771 H 0.85104 0.70146 0.65810
 H1772 H 0.79480 0.63169 0.68352
 H1773 H 0.91240 0.64202 0.60078
 H1774 H 0.88328 0.67067 0.62505
 C1775 C 0.62541 0.39773 0.12940
 C1776 C 0.59748 0.38842 0.12161
 C1777 C 0.57816 0.40631 0.10207
 C1778 C 0.58611 0.43343 0.08877
 C1779 C 0.61399 0.44250 0.09538
 C1780 C 0.63340 0.42497 0.11570
 C1781 C 0.64523 0.37773 0.15090
 C1782 C 0.67300 0.38512 0.16270
 C1783 C 0.69072 0.36521 0.18159
 C1784 C 0.68128 0.33745 0.18858
 C1785 C 0.65347 0.33026 0.17807
 C1786 C 0.63542 0.35008 0.15992
 C1787 C 0.58895 0.36109 0.13266
 C1788 C 0.60761 0.34221 0.15086
 H1789 H 0.56758 0.35398 0.12650
 H1790 H 0.60008 0.32111 0.15814
 H1791 H 0.55685 0.39877 0.09648
 H1792 H 0.62070 0.46330 0.08527
 H1793 H 0.71208 0.37129 0.18971
 H1794 H 0.64577 0.30902 0.18418
 H1795 H 0.65456 0.43295 0.12007
 H1796 H 0.68135 0.40608 0.15751
 C1797 C 0.37298 0.88980 0.39545
 C1798 C 0.36804 0.91922 0.39116
 C1799 C 0.38696 0.93887 0.40880
 C1800 C 0.41133 0.92939 0.42914
 C1801 C 0.41606 0.90028 0.43307
 C1802 C 0.39718 0.88076 0.41681
 C1803 C 0.35287 0.86946 0.37572
 C1804 C 0.35554 0.83999 0.38008
 C1805 C 0.33725 0.82171 0.35996
 C1806 C 0.31550 0.83203 0.33480
 C1807 C 0.31207 0.86151 0.33104
 C1808 C 0.33049 0.88026 0.35162
 C1809 C 0.34487 0.92865 0.36813
 C1810 C 0.32673 0.90963 0.34838
 H1811 H 0.34104 0.95113 0.36457
 H1812 H 0.30948 0.91805 0.33031
 H1813 H 0.38346 0.96140 0.40512
 H1814 H 0.43473 0.89253 0.44864
 H1815 H 0.34047 0.79920 0.36405
 H1816 H 0.29519 0.86986 0.31217
 H1817 H 0.40244 0.85874 0.42055
 H1818 H 0.37159 0.83042 0.39892
 C1819 C 0.12315 0.09998 0.86786
 C1820 C 0.09486 0.10868 0.87360
 C1821 C 0.07546 0.09071 0.89289
 C1822 C 0.08364 0.06411 0.90795
 C1823 C 0.11180 0.05556 0.90295
 C1824 C 0.13131 0.07317 0.88293
 C1825 C 0.14317 0.12021 0.84712
 C1826 C 0.17146 0.11347 0.83777
 C1827 C 0.18938 0.13364 0.81980
 C1828 C 0.17958 0.16102 0.81124
 C1829 C 0.15127 0.16754 0.81920
 C1830 C 0.13306 0.14744 0.83650
 C1831 C 0.08606 0.13556 0.86093
 C1832 C 0.10482 0.15464 0.84328
 H1833 H 0.06440 0.14219 0.86546
 H1834 H 0.09707 0.17540 0.83475
 H1835 H 0.05393 0.09789 0.89705
 H1836 H 0.11873 0.03520 0.91438
 H1837 H 0.21113 0.12807 0.81367
 H1838 H 0.14333 0.18847 0.81189
 H1839 H 0.15270 0.06563 0.88003
 H1840 H 0.18012 0.09285 0.84428
 C1841 C 0.12634 0.89629 0.11137
 C1842 C 0.09799 0.88745 0.10591
 C1843 C 0.07839 0.90545 0.08727
 C1844 C 0.08644 0.93220 0.07275
 C1845 C 0.11473 0.94068 0.07665
 C1846 C 0.13447 0.92304 0.09598
 C1847 C 0.14634 0.87645 0.13272
 C1848 C 0.17453 0.88359 0.14261
 C1849 C 0.19224 0.86396 0.16214
 C1850 C 0.18230 0.83676 0.17167
 C1851 C 0.15418 0.82979 0.16270
 C1852 C 0.13618 0.84933 0.14394
 C1853 C 0.08926 0.86055 0.11867
 C1854 C 0.10803 0.84176 0.13676
 H1855 H 0.06758 0.85378 0.11419
 H1856 H 0.10029 0.82104 0.14565
 H1857 H 0.05671 0.89839 0.08363
 H1858 H 0.12148 0.96119 0.06543
 H1859 H 0.21386 0.86985 0.16898
 H1860 H 0.14611 0.80901 0.17075
 H1861 H 0.15593 0.93060 0.09844
 H1862 H 0.18320 0.90417 0.13562
 C1863 C 0.87394 0.38662 0.41032
 C1864 C 0.86735 0.41583 0.41056
 C1865 C 0.88640 0.43536 0.42808
 C1866 C 0.91249 0.42613 0.44360
 C1867 C 0.91891 0.39725 0.44295
 C1868 C 0.89994 0.37773 0.42687
 C1869 C 0.85358 0.36647 0.39079
 C1870 C 0.85777 0.33705 0.39126
 C1871 C 0.83932 0.31910 0.37086
 C1872 C 0.81590 0.32970 0.34932
 C1873 C 0.81079 0.35902 0.34998
 C1874 C 0.82937 0.37742 0.37090
 C1875 C 0.84237 0.42531 0.39199
 C1876 C 0.82401 0.40659 0.37207
 H1877 H 0.83727 0.44765 0.39194
 H1878 H 0.80535 0.41510 0.35735
 H1879 H 0.88154 0.45777 0.42794
 H1880 H 0.93891 0.38968 0.45481
 H1881 H 0.84382 0.29664 0.37170
 H1882 H 0.79256 0.36753 0.33413
 H1883 H 0.90649 0.35592 0.42681
 H1884 H 0.87518 0.32731 0.40713
 C1885 C 0.38115 0.11315 0.60652
 C1886 C 0.37131 0.08603 0.59487
 C1887 C 0.38963 0.06702 0.57496
 C1888 C 0.41789 0.07458 0.56729
 C1889 C 0.42730 0.10159 0.57871
 C1890 C 0.40931 0.12059 0.59783
 C1891 C 0.36128 0.13276 0.62800
 C1892 C 0.36923 0.16020 0.64003
 C1893 C 0.35018 0.17786 0.65960
 C1894 C 0.32254 0.16888 0.66811
 C1895 C 0.31433 0.14136 0.65676
 C1896 C 0.33346 0.12335 0.63644
 C1897 C 0.34343 0.07802 0.60373
 C1898 C 0.32498 0.09620 0.62419
 H1899 H 0.33578 0.05727 0.59496
 H1900 H 0.30370 0.08890 0.63041
 H1901 H 0.38214 0.04615 0.56646
 H1902 H 0.44885 0.10819 0.57291
 H1903 H 0.35731 0.19882 0.66821
 H1904 H 0.29299 0.13421 0.66294
 H1905 H 0.41815 0.14087 0.60582
 H1906 H 0.39001 0.16869 0.63452
 C1907 C 0.62668 0.60086 0.88403
 C1908 C 0.59804 0.60893 0.88786
 C1909 C 0.57854 0.59067 0.90626
 C1910 C 0.58694 0.56443 0.92221
 C1911 C 0.61546 0.55665 0.91961
 C1912 C 0.63512 0.57454 0.90050
 C1913 C 0.64666 0.62111 0.86340
 C1914 C 0.67526 0.61480 0.85539
 C1915 C 0.69296 0.63485 0.83672
 C1916 C 0.68260 0.66168 0.82618
 C1917 C 0.65409 0.66781 0.83319
 C1918 C 0.63611 0.64783 0.85108
 C1919 C 0.58892 0.63538 0.87393
 C1920 C 0.60762 0.65456 0.85644
 H1921 H 0.56700 0.64155 0.87712
 H1922 H 0.59957 0.67495 0.84669
 H1923 H 0.55669 0.59725 0.90884
 H1924 H 0.62252 0.53658 0.93195
 H1925 H 0.71490 0.62962 0.83139
 H1926 H 0.64574 0.68830 0.82434
 H1927 H 0.65678 0.56757 0.89923
 H1928 H 0.68428 0.59456 0.86327
 C1929 C 0.37402 0.39003 0.89668
 C1930 C 0.36784 0.41930 0.89592
 C1931 C 0.38814 0.43895 0.90973
 C1932 C 0.41509 0.42970 0.92167
 C1933 C 0.42157 0.40084 0.91978
 C1934 C 0.40133 0.38121 0.90774
 C1935 C 0.35170 0.36959 0.88367
 C1936 C 0.35455 0.34024 0.88914
 C1937 C 0.33451 0.32172 0.87332
 C1938 C 0.31108 0.33189 0.85147
 C1939 C 0.30686 0.36131 0.84871
 C1940 C 0.32679 0.38021 0.86545
 C1941 C 0.34187 0.42861 0.88023
 C1942 C 0.32216 0.40952 0.86410
 H1943 H 0.33714 0.45102 0.87909
 H1944 H 0.30287 0.41779 0.85087
 H1945 H 0.38324 0.46134 0.91039
 H1946 H 0.44225 0.39326 0.92879
 H1947 H 0.33816 0.29923 0.87681
 H1948 H 0.28845 0.36949 0.83292
 H1949 H 0.40764 0.35931 0.90672
 H1950 H 0.37224 0.33113 0.90525
 C1951 C 0.87964 0.11022 0.11561
 C1952 C 0.87091 0.08198 0.10873
 C1953 C 0.89033 0.06205 0.09373
 C1954 C 0.91870 0.06969 0.08749
 C1955 C 0.92753 0.09721 0.09718
 C1956 C 0.90832 0.11725 0.11087
 C1957 C 0.85814 0.13134 0.12893
 C1958 C 0.86398 0.16051 0.13072
 C1959 C 0.84390 0.17932 0.14543
 C1960 C 0.81751 0.16961 0.15901
 C1961 C 0.81086 0.14072 0.15520
 C1962 C 0.83081 0.12165 0.13938
 C1963 C 0.84306 0.07387 0.11753
 C1964 C 0.82367 0.09310 0.13366
 H1965 H 0.83635 0.05218 0.11282
 H1966 H 0.80263 0.08563 0.14105
 H1967 H 0.88344 0.04064 0.08712
 H1968 H 0.94929 0.10366 0.09287
 H1969 H 0.84958 0.20148 0.14759
 H1970 H 0.79029 0.13308 0.16473
 H1971 H 0.91641 0.13806 0.11776
 H1972 H 0.88392 0.16925 0.12096
 C1973 C 0.62662 0.90090 0.62108
 C1974 C 0.59798 0.89252 0.61771
 C1975 C 0.57780 0.91143 0.60262
 C1976 C 0.58569 0.93836 0.58870
 C1977 C 0.61411 0.94662 0.59121
 C1978 C 0.63435 0.92825 0.60766
 C1979 C 0.64745 0.87981 0.63745
 C1980 C 0.67599 0.88647 0.64566
 C1981 C 0.69436 0.86591 0.66128
 C1982 C 0.68482 0.83819 0.66806
 C1983 C 0.65656 0.83143 0.65999
 C1984 C 0.63777 0.85202 0.64575
 C1985 C 0.58969 0.86497 0.62792
 C1986 C 0.60925 0.84499 0.64089
 H1987 H 0.56778 0.85854 0.62497
 H1988 H 0.60185 0.82378 0.64775
 H1989 H 0.55602 0.90456 0.59973
 H1990 H 0.62070 0.96723 0.58015
 H1991 H 0.71605 0.87163 0.66796
 H1992 H 0.64884 0.81024 0.66640
 H1993 H 0.65596 0.93552 0.60861
 H1994 H 0.68432 0.90750 0.64097
 C1995 C 0.12428 0.59662 0.37381
 C1996 C 0.09543 0.60434 0.37546
 C1997 C 0.07533 0.58528 0.39053
 C1998 C 0.08346 0.55889 0.40618
 C1999 C 0.11203 0.55117 0.40484
 C2000 C 0.13221 0.56966 0.38844
 C2001 C 0.14509 0.61804 0.35815
 C2002 C 0.17398 0.61207 0.35214
 C2003 C 0.19239 0.63300 0.33754
 C2004 C 0.18250 0.66039 0.32956
 C2005 C 0.15386 0.66644 0.33528
 C2006 C 0.13508 0.64548 0.34855
 C2007 C 0.08684 0.63150 0.36381
 C2008 C 0.10631 0.65179 0.35135
 H2009 H 0.06476 0.63742 0.36535
 H2010 H 0.09867 0.67271 0.34344
 H2011 H 0.05342 0.59177 0.39230
 H2012 H 0.11885 0.53100 0.41712
 H2013 H 0.21440 0.62783 0.33265
 H2014 H 0.14593 0.68737 0.32790
 H2015 H 0.15394 0.56286 0.38867
 H2016 H 0.18262 0.59134 0.35791
   
