data_POSCAR
  _audit_creation_date              2014-09-24
  _audit_creation_method            'ToBaCCo'
  _symmetry_space_group_name_H-M    'P1'
  _symmetry_Int_Tables_number       1
  _symmetry_cell_setting            triclinic
  loop_
  _symmetry_equiv_pos_as_xyz
 x,y,z
_cell_length_a 67.5862
_cell_length_b 67.7396
_cell_length_c 67.5702
_cell_angle_alpha 90.108900
_cell_angle_beta 90.043200
_cell_angle_gamma 89.604900
loop_
  _atom_site_label
  _atom_site_type_symbol
  _atom_site_fract_x
  _atom_site_fract_y
  _atom_site_fract_z
C1 C 0.37238 1.36046 0.34387
 C2 C 0.37359 1.34539 0.35807
 C3 C 0.35982 1.34462 0.37313
 C4 C 0.34471 1.35882 0.37426
 C5 C 0.34347 1.37357 0.36031
 C6 C 0.35745 1.37441 0.34496
 C7 C 0.38324 1.36445 0.32719
 N8 N 0.37537 1.38058 0.31784
 C9 C 0.35948 1.38664 0.32888
 C10 C 0.32678 1.38453 0.36460
 N11 N 0.31770 1.37681 0.38091
 C12 C 0.32888 1.36100 0.38678
 C13 C 0.36392 1.32810 0.38419
 N14 N 0.37987 1.31870 0.37623
 C15 C 0.38592 1.32925 0.36024
 H16 H 0.39567 1.35565 0.32223
 H17 H 0.34980 1.39899 0.32572
 H18 H 0.32179 1.39708 0.35607
 H19 H 0.32573 1.35113 0.39889
 H20 H 0.35578 1.32328 0.39707
 H21 H 0.39799 1.32516 0.35050
 C22 C 0.36263 0.84763 0.83357
 C23 C 0.36265 0.83426 0.84935
 C24 C 0.34772 0.83491 0.86334
 C25 C 0.33258 0.84919 0.86175
 C26 C 0.33270 0.86242 0.84626
 C27 C 0.34779 0.86165 0.83205
 C28 C 0.37488 0.84990 0.81751
 N29 N 0.36786 0.86501 0.80625
 C30 C 0.35129 0.87232 0.81511
 C31 C 0.31630 0.87432 0.84819
 N32 N 0.30588 0.86882 0.86457
 C33 C 0.31597 0.85332 0.87288
 C34 C 0.35141 0.81983 0.87657
 N35 N 0.36827 0.81023 0.87095
 C36 C 0.37516 0.81900 0.85429
 H37 H 0.38796 0.84116 0.81428
 H38 H 0.34213 0.88417 0.80938
 H39 H 0.31239 0.88589 0.83791
 H40 H 0.31188 0.84543 0.88612
 H41 H 0.34256 0.81620 0.88938
 H42 H 0.38814 0.81436 0.84608
 C43 C 0.87023 1.35387 0.83939
 C44 C 0.86968 1.34000 0.85472
 C45 C 0.85442 1.34045 0.86835
 C46 C 0.83956 1.35499 0.86685
 C47 C 0.84020 1.36864 0.85176
 C48 C 0.85563 1.36804 0.83788
 C49 C 0.88289 1.35640 0.82372
 N50 N 0.87641 1.37186 0.81243
 C51 C 0.85963 1.37901 0.82127
 C52 C 0.82383 1.38062 0.85365
 N53 N 0.81299 1.37475 0.86964
 C54 C 0.82276 1.35894 0.87770
 C55 C 0.85743 1.32482 0.88107
 N56 N 0.87417 1.31502 0.87549
 C57 C 0.88171 1.32427 0.85938
 H58 H 0.89560 1.34710 0.82085
 H59 H 0.85061 1.39122 0.81622
 H60 H 0.82034 1.39264 0.84374
 H61 H 0.81822 1.35053 0.89046
 H62 H 0.84811 1.32088 0.89345
 H63 H 0.89473 1.31958 0.85126
 C64 C 0.86990 0.85376 0.34106
 C65 C 0.86941 0.83964 0.35618
 C66 C 0.85557 0.84125 0.37111
 C67 C 0.84211 0.85705 0.37121
 C68 C 0.84247 0.87094 0.35622
 C69 C 0.85655 0.86925 0.34099
 C70 C 0.88132 0.85536 0.32438
 N71 N 0.87539 0.87153 0.31383
 C72 C 0.86011 0.88005 0.32412
 C73 C 0.82707 0.88395 0.35973
 N74 N 0.81754 0.87829 0.37651
 C75 C 0.82669 0.86184 0.38356
 C76 C 0.85778 0.82499 0.38309
 N77 N 0.87265 0.81353 0.37576
 C78 C 0.87990 0.82245 0.35932
 H79 H 0.89272 0.84490 0.32025
 H80 H 0.85197 0.89317 0.31995
 H81 H 0.82306 0.89653 0.35069
 H82 H 0.82209 0.85356 0.39643
 H83 H 0.84902 0.82166 0.39605
 H84 H 0.89142 0.81650 0.34987
 C85 C 0.62964 0.64621 0.33991
 C86 C 0.62997 0.66046 0.35496
 C87 C 0.64498 0.66030 0.36886
 C88 C 0.65981 0.64572 0.36796
 C89 C 0.65938 0.63158 0.35315
 C90 C 0.64417 0.63189 0.33898
 C91 C 0.61716 0.64331 0.32415
 N92 N 0.62364 0.62747 0.31336
 C93 C 0.64027 0.62045 0.32260
 C94 C 0.67565 0.61953 0.35579
 N95 N 0.68597 0.62600 0.37180
 C96 C 0.67634 0.64205 0.37930
 C97 C 0.64181 0.67619 0.38124
 N98 N 0.62520 0.68591 0.37519
 C99 C 0.61790 0.67634 0.35910
 H100 H 0.60435 0.65241 0.32107
 H101 H 0.64938 0.60819 0.31782
 H102 H 0.67983 0.60717 0.34648
 H103 H 0.68088 0.65037 0.39220
 H104 H 0.65091 0.68032 0.39375
 H105 H 0.60502 0.68087 0.35069
 C106 C 0.63120 0.14561 0.83930
 C107 C 0.63127 0.16144 0.85275
 C108 C 0.64508 0.16177 0.86784
 C109 C 0.65881 0.14638 0.86981
 C110 C 0.65881 0.13090 0.85660
 C111 C 0.64485 0.13050 0.84122
 C112 C 0.62038 0.14187 0.82249
 N113 N 0.62707 0.12478 0.81391
 C114 C 0.64211 0.11784 0.82557
 C115 C 0.67459 0.11889 0.86139
 N116 N 0.68430 0.12670 0.87731
 C117 C 0.67445 0.14360 0.88245
 C118 C 0.64274 0.17925 0.87786
 N119 N 0.62780 0.18962 0.86929
 C120 C 0.62059 0.17882 0.85395
 H121 H 0.60875 0.15141 0.81700
 H122 H 0.65103 0.10482 0.82294
 H123 H 0.67852 0.10551 0.85356
 H124 H 0.67863 0.15389 0.89392
 H125 H 0.65143 0.18416 0.89038
 H126 H 0.60895 0.18356 0.84398
 C127 C 1.13901 0.65115 0.83427
 C128 C 1.13849 0.66672 0.84800
 C129 C 1.15199 0.66706 0.86337
 C130 C 1.16599 0.65191 0.86536
 C131 C 1.16660 0.63666 0.85189
 C132 C 1.15302 0.63626 0.83617
 C133 C 1.12849 0.64742 0.81723
 N134 N 1.13583 0.63071 0.80872
 C135 C 1.15083 0.62380 0.82025
 C136 C 1.18235 0.62472 0.85703
 N137 N 1.19141 0.63235 0.87342
 C138 C 1.18123 0.64909 0.87846
 C139 C 1.14897 0.68421 0.87377
 N140 N 1.13391 0.69438 0.86516
 C141 C 1.12730 0.68377 0.84942
 H142 H 1.11684 0.65661 0.81113
 H143 H 1.15965 0.61074 0.81722
 H144 H 1.18663 0.61148 0.84915
 H145 H 1.18480 0.65917 0.89032
 H146 H 1.15724 0.68901 0.88661
 H147 H 1.11567 0.68841 0.83939
 C148 C 1.12848 0.14422 0.34016
 C149 C 1.13037 0.15884 0.35474
 C150 C 1.14585 0.15796 0.36809
 C151 C 1.15958 0.14236 0.36711
 C152 C 1.15771 0.12800 0.35277
 C153 C 1.14200 0.12894 0.33917
 C154 C 1.11547 0.14187 0.32472
 N155 N 1.12064 0.12545 0.31409
 C156 C 1.13698 0.11752 0.32311
 C157 C 1.17351 0.11526 0.35484
 N158 N 1.18512 0.12143 0.37020
 C159 C 1.17644 0.13812 0.37769
 C160 C 1.14452 0.17451 0.37989
 N161 N 1.12859 0.18540 0.37402
 C162 C 1.11986 0.17586 0.35864
 H163 H 1.10336 0.15187 0.32159
 H164 H 1.14520 0.10463 0.31838
 H165 H 1.17604 0.10245 0.34562
 H166 H 1.18203 0.14717 0.38960
 H167 H 1.15450 0.17835 0.39180
 H168 H 1.10716 0.18121 0.35042
 C169 C 0.63698 1.35146 0.66444
 C170 C 0.63743 1.33539 0.65126
 C171 C 0.65207 1.33423 0.63702
 C172 C 0.66632 1.34906 0.63563
 C173 C 0.66582 1.36489 0.64853
 C174 C 0.65107 1.36603 0.66309
 C175 C 0.62511 1.35608 0.68035
 N176 N 0.63160 1.37317 0.68891
 C177 C 0.64756 1.37923 0.67816
 C178 C 0.68184 1.37656 0.64419
 N179 N 0.69204 1.36814 0.62898
 C180 C 0.68258 1.35130 0.62367
 C181 C 0.64954 1.31684 0.62689
 N182 N 0.63368 1.30733 0.63456
 C183 C 0.62611 1.31861 0.64946
 H184 H 0.61303 1.34704 0.68542
 H185 H 0.65634 1.39222 0.68085
 H186 H 0.68604 1.38990 0.65191
 H187 H 0.68715 1.34135 0.61197
 H188 H 0.65863 1.31149 0.61481
 H189 H 0.61365 1.31467 0.65865
 C190 C 0.63082 0.85174 1.16126
 C191 C 0.63199 0.83714 1.14654
 C192 C 0.64642 0.83822 1.13211
 C193 C 0.65980 0.85393 1.13212
 C194 C 0.65862 0.86832 1.14660
 C195 C 0.64404 0.86716 1.16132
 C196 C 0.61898 0.85396 1.17766
 N197 N 0.62464 0.87039 1.18793
 C198 C 0.64005 0.87847 1.17775
 C199 C 0.67399 0.88117 1.14347
 N200 N 0.68449 0.87488 1.12746
 C201 C 0.67584 0.85821 1.12045
 C202 C 0.64477 0.82167 1.12045
 N203 N 0.62966 0.81053 1.12741
 C204 C 0.62172 0.81994 1.14336
 H205 H 0.60757 0.84371 1.18188
 H206 H 0.64807 0.89164 1.18172
 H207 H 0.67762 0.89379 1.15259
 H208 H 0.68087 0.84971 1.10782
 H209 H 0.65401 0.81797 1.10788
 H210 H 0.60980 0.81436 1.15241
 C211 C 1.13286 1.35084 1.15987
 C212 C 1.13250 1.33659 1.14481
 C213 C 1.14747 1.33595 1.13093
 C214 C 1.16305 1.34946 1.13197
 C215 C 1.16353 1.36344 1.14682
 C216 C 1.14827 1.36415 1.16097
 C217 C 1.12036 1.35468 1.17545
 N218 N 1.12772 1.37001 1.18610
 C219 C 1.14485 1.37586 1.17736
 C220 C 1.18056 1.37421 1.14417
 N221 N 1.19056 1.36714 1.12800
 C222 C 1.17965 1.35191 1.12060
 C223 C 1.14357 1.32046 1.11836
 N224 N 1.12660 1.31160 1.12432
 C225 C 1.11973 1.32144 1.14050
 H226 H 1.10706 1.34661 1.17899
 H227 H 1.15408 1.38784 1.18244
 H228 H 1.18503 1.38628 1.15358
 H229 H 1.18327 1.34281 1.10796
 H230 H 1.15274 1.31566 1.10612
 H231 H 1.10642 1.31786 1.14860
 C232 C 1.13620 0.85193 0.66262
 C233 C 1.13493 0.83756 0.64771
 C234 C 1.14921 0.83662 0.63310
 C235 C 1.16490 0.85003 0.63314
 C236 C 1.16615 0.86423 0.64779
 C237 C 1.15172 0.86514 0.66269
 C238 C 1.12499 0.85571 0.67920
 N239 N 1.13335 0.87084 0.68939
 C240 C 1.14972 0.87669 0.67934
 C241 C 1.18326 0.87463 0.64453
 N242 N 1.19245 0.86702 0.62830
 C243 C 1.18128 0.85195 0.62126
 C244 C 1.14481 0.82078 0.62118
 N245 N 1.12820 0.81202 0.62818
 C246 C 1.12204 0.82225 0.64441
 H247 H 1.11208 0.84757 0.68383
 H248 H 1.15955 0.88842 0.68385
 H249 H 1.18890 0.88647 0.65367
 H250 H 1.18481 0.84297 0.60845
 H251 H 1.15320 0.81597 0.60840
 H252 H 1.10949 0.81848 0.65356
 C253 C 0.36748 0.64736 0.66141
 C254 C 0.36836 0.66247 0.64727
 C255 C 0.35411 0.66370 0.63264
 C256 C 0.33882 0.64981 0.63188
 C257 C 0.33796 0.63497 0.64575
 C258 C 0.35241 0.63368 0.66062
 C259 C 0.37895 0.64285 0.67764
 N260 N 0.37124 0.62674 0.68673
 C261 C 0.35499 0.62104 0.67635
 C262 C 0.32136 0.62405 0.64170
 N263 N 0.31188 0.63184 0.62560
 C264 C 0.32274 0.64769 0.61961
 C265 C 0.35833 0.68000 0.62133
 N266 N 0.37483 0.68873 0.62872
 C267 C 0.38106 0.67805 0.64460
 H268 H 0.39200 0.65072 0.68242
 H269 H 0.34543 0.60890 0.68023
 H270 H 0.31685 0.61133 0.65014
 H271 H 0.31929 0.65750 0.60748
 H272 H 0.35002 0.68503 0.60859
 H273 H 0.39364 0.68157 0.65385
 C274 C 0.36089 0.15155 1.16588
 C275 C 0.36169 0.16505 1.15021
 C276 C 0.34763 0.16452 1.13527
 C277 C 0.33262 0.15017 1.13577
 C278 C 0.33204 0.13688 1.15119
 C279 C 0.34610 0.13764 1.16636
 C280 C 0.37222 0.14895 1.18264
 N281 N 0.36451 0.13384 1.19331
 C282 C 0.34854 0.12683 1.18337
 C283 C 0.31621 0.12474 1.14815
 N284 N 0.30679 0.13004 1.13108
 C285 C 0.31686 0.14580 1.12351
 C286 C 0.35198 0.17971 1.12241
 N287 N 0.36834 0.18924 1.12917
 C288 C 0.37430 0.18032 1.14616
 H289 H 0.38483 0.15772 1.18698
 H290 H 0.33937 0.11470 1.18814
 H291 H 0.31188 0.11318 1.15821
 H292 H 0.31343 0.15349 1.10993
 H293 H 0.34391 0.18347 1.10908
 H294 H 0.38669 0.18486 1.15520
 C295 C 0.86719 0.64830 1.16269
 C296 C 0.86767 0.66185 1.14708
 C297 C 0.85370 0.66097 1.13214
 C298 C 0.83911 0.64628 1.13257
 C299 C 0.83880 0.63278 1.14792
 C300 C 0.85291 0.63382 1.16311
 C301 C 0.87843 0.64631 1.17953
 N302 N 0.87134 0.63095 1.19023
 C303 C 0.85575 0.62316 1.18023
 C304 C 0.82301 0.62048 1.14472
 N305 N 0.81366 0.62615 1.12782
 C306 C 0.82341 0.64197 1.12032
 C307 C 0.85755 0.67634 1.11937
 N308 N 0.87356 0.68635 1.12620
 C309 C 0.87978 0.67755 1.14317
 H310 H 0.89084 0.65545 1.18370
 H311 H 0.84676 0.61102 1.18531
 H312 H 0.81844 0.60853 1.15425
 H313 H 0.81948 0.64971 1.10687
 H314 H 0.84936 0.67989 1.10606
 H315 H 0.89198 0.68247 1.15227
 C316 C 0.87052 0.14722 0.65821
 C317 C 0.86951 0.16160 0.64334
 C318 C 0.85460 0.16097 0.62934
 C319 C 0.84044 0.14594 0.63006
 C320 C 0.84151 0.13173 0.64471
 C321 C 0.85667 0.13241 0.65888
 C322 C 0.88297 0.14462 0.67408
 N323 N 0.87712 0.12849 0.68464
 C324 C 0.86094 0.12101 0.67516
 C325 C 0.82566 0.11934 0.64213
 N326 N 0.81495 0.12569 0.62630
 C327 C 0.82393 0.14198 0.61885
 C328 C 0.85700 0.17703 0.61713
 N329 N 0.87298 0.18741 0.62342
 C330 C 0.88069 0.17802 0.63946
 H331 H 0.89533 0.15409 0.67742
 H332 H 0.85227 0.10851 0.67978
 H333 H 0.82194 0.10692 0.65143
 H334 H 0.81886 0.15036 0.60618
 H335 H 0.84750 0.18110 0.60488
 H336 H 0.89356 0.18271 0.64772
 C337 C 1.35956 0.37420 0.65483
 C338 C 1.34537 0.37331 0.63971
 C339 C 1.34625 0.35834 0.62580
 C340 C 1.36129 0.34400 0.62687
 C341 C 1.37519 0.34483 0.64177
 C342 C 1.37434 0.36003 0.65587
 C343 C 1.36186 0.38656 0.67085
 N344 N 1.37766 0.38020 0.68163
 C345 C 1.38537 0.36397 0.67252
 C346 C 1.38735 0.32862 0.63968
 N347 N 1.38128 0.31772 0.62378
 C348 C 1.36524 0.32731 0.61593
 C349 C 1.33020 0.36066 0.61346
 N350 N 1.31955 0.37664 0.61958
 C351 C 1.32878 0.38446 0.63564
 H352 H 1.35233 0.39888 0.67470
 H353 H 1.39802 0.35554 0.67764
 H354 H 1.39962 0.32526 0.64938
 H355 H 1.35643 0.32249 0.60351
 H356 H 1.32623 0.35101 0.60133
 H357 H 1.32378 0.39727 0.64388
 C358 C 1.34984 0.86693 1.16430
 C359 C 1.33432 0.86476 1.15075
 C360 C 1.33479 0.84966 1.13694
 C361 C 1.35088 0.83637 1.13669
 C362 C 1.36610 0.83855 1.15013
 C363 C 1.36558 0.85398 1.16401
 C364 C 1.35284 0.87987 1.17966
 N365 N 1.37018 0.87519 1.18901
 C366 C 1.37798 0.85922 1.17927
 C367 C 1.37925 0.82332 1.14706
 N368 N 1.37257 0.81162 1.13201
 C369 C 1.35511 0.81976 1.12563
 C370 C 1.31748 0.85100 1.12615
 N371 N 1.30659 0.86643 1.13326
 C372 C 1.31685 0.87489 1.14829
 H373 H 1.34265 0.89155 1.18366
 H374 H 1.39153 0.85150 1.18288
 H375 H 1.39263 0.82119 1.15555
 H376 H 1.34563 0.81402 1.11414
 H377 H 1.31293 0.84120 1.11435
 H378 H 1.31197 0.88756 1.15682
 C379 C 0.85492 0.36592 1.16366
 C380 C 0.83962 0.36573 1.14960
 C381 C 0.84011 0.35227 1.13415
 C382 C 0.85590 0.33874 1.13263
 C383 C 0.87089 0.33909 1.14644
 C384 C 0.87038 0.35270 1.16202
 C385 C 0.85800 0.37661 1.18074
 N386 N 0.87503 0.37016 1.18967
 C387 C 0.88257 0.35547 1.17798
 C388 C 0.88371 0.32395 1.14206
 N389 N 0.87702 0.31403 1.12580
 C390 C 0.85988 0.32322 1.11999
 C391 C 0.82307 0.35502 1.12328
 N392 N 0.81225 0.36978 1.13176
 C393 C 0.82231 0.37638 1.14788
 H394 H 0.84806 0.38792 1.18619
 H395 H 0.89583 0.34692 1.18067
 H396 H 0.89652 0.32021 1.15089
 H397 H 0.85064 0.31907 1.10764
 H398 H 0.81865 0.34652 1.11046
 H399 H 0.81742 0.38809 1.15768
 C400 C 0.85791 0.86997 0.65693
 C401 C 0.84248 0.87111 0.64313
 C402 C 0.84159 0.85775 0.62768
 C403 C 0.85612 0.84298 0.62588
 C404 C 0.87137 0.84185 0.63951
 C405 C 0.87224 0.85542 0.65519
 C406 C 0.86169 0.88022 0.67406
 N407 N 0.87795 0.87222 0.68286
 C408 C 0.88450 0.85702 0.67138
 C409 C 0.88255 0.82546 0.63482
 N410 N 0.87444 0.81656 0.61872
 C411 C 0.85826 0.82722 0.61317
 C412 C 0.82443 0.86163 0.61738
 N413 N 0.81486 0.87697 0.62629
 C414 C 0.82586 0.88285 0.64205
 H415 H 0.85273 0.89209 0.68010
 H416 H 0.89707 0.84761 0.67468
 H417 H 0.89520 0.81998 0.64303
 H418 H 0.84857 0.82368 0.60092
 H419 H 0.81893 0.85338 0.60482
 H420 H 0.82195 0.89466 0.65217
 C421 C 0.64636 0.63471 0.66390
 C422 C 0.66230 0.63453 0.65064
 C423 C 0.66451 0.64976 0.63729
 C424 C 0.65078 0.66536 0.63695
 C425 C 0.63497 0.66550 0.64994
 C426 C 0.63277 0.65006 0.66357
 C427 C 0.64121 0.62242 0.67918
 N428 N 0.62484 0.62991 0.68823
 C429 C 0.61954 0.64681 0.67869
 C430 C 0.62442 0.68263 0.64657
 N431 N 0.63348 0.69288 0.63189
 C432 C 0.64963 0.68238 0.62596
 C433 C 0.68165 0.64618 0.62691
 N434 N 0.68995 0.62909 0.63359
 C435 C 0.67812 0.62190 0.64814
 H436 H 0.64900 0.60909 0.68348
 H437 H 0.60742 0.65646 0.68288
 H438 H 0.61137 0.68747 0.65454
 H439 H 0.65980 0.68673 0.61442
 H440 H 0.68788 0.65571 0.61573
 H441 H 0.68075 0.60845 0.65638
 C442 C 0.64123 1.12630 1.15746
 C443 C 0.65468 1.12623 1.14172
 C444 C 0.65424 1.14121 1.12786
 C445 C 0.64007 1.15641 1.12952
 C446 C 0.62678 1.15638 1.14500
 C447 C 0.62742 1.14123 1.15914
 C448 C 0.63906 1.11416 1.17353
 N449 N 0.62418 1.12126 1.18528
 C450 C 0.61699 1.13791 1.17629
 C451 C 0.61521 1.17303 1.14321
 N452 N 0.62098 1.18344 1.12691
 C453 C 0.63633 1.17313 1.11856
 C454 C 0.66968 1.13775 1.11494
 N455 N 0.67931 1.12099 1.12064
 C456 C 0.67017 1.11389 1.13701
 H457 H 0.64825 1.10138 1.17636
 H458 H 0.60525 1.14737 1.18167
 H459 H 0.60360 1.17704 1.15345
 H460 H 0.64454 1.17723 1.10551
 H461 H 0.67367 1.14684 1.10243
 H462 H 0.67487 1.10104 1.14533
 C463 C 0.15011 0.63481 1.16440
 C464 C 0.16446 0.63637 1.14956
 C465 C 0.16326 0.65140 1.13582
 C466 C 0.14756 0.66504 1.13671
 C467 C 0.13344 0.66351 1.15135
 C468 C 0.13475 0.64824 1.16536
 C469 C 0.14805 0.62205 1.18000
 N470 N 0.13172 0.62728 1.19074
 C471 C 0.12355 0.64342 1.18164
 C472 C 0.12040 0.67900 1.14891
 N473 N 0.12613 0.69008 1.13304
 C474 C 0.14286 0.68139 1.12561
 C475 C 0.17954 0.64964 1.12367
 N476 N 0.19054 0.63387 1.12973
 C477 C 0.18135 0.62569 1.14557
 H478 H 0.15831 0.61021 1.18329
 H479 H 0.11040 0.65133 1.18623
 H480 H 0.10766 0.68166 1.15820
 H481 H 0.15159 0.68658 1.11331
 H482 H 0.18310 0.65917 1.11136
 H483 H 0.18683 0.61322 1.15400
 C484 C 0.14384 1.12772 0.65871
 C485 C 0.15701 1.12613 0.64281
 C486 C 0.15669 1.14010 0.62800
 C487 C 0.14311 1.15578 0.62885
 C488 C 0.13008 1.15742 0.64449
 C489 C 0.13045 1.14316 0.65967
 C490 C 0.14162 1.11661 0.67546
 N491 N 0.12711 1.12471 0.68700
 C492 C 0.12019 1.14104 0.67720
 C493 C 0.11931 1.17456 0.64153
 N494 N 0.12546 1.18343 0.62442
 C495 C 0.14013 1.17174 0.61676
 C496 C 0.17182 1.13554 0.61513
 N497 N 0.18134 1.11912 0.62182
 C498 C 0.17228 1.11324 0.63875
 H499 H 0.15018 1.10347 0.67860
 H500 H 0.10892 1.15116 0.68242
 H501 H 0.10797 1.17998 0.65144
 H502 H 0.14857 1.17444 0.60350
 H503 H 0.17576 1.14380 0.60203
 H504 H 0.17698 1.10099 0.64793
 C505 C 1.35065 0.63544 0.33895
 C506 C 1.33654 0.63552 0.35413
 C507 C 1.33756 0.64945 0.36898
 C508 C 1.35270 0.66343 0.36892
 C509 C 1.36659 0.66348 0.35397
 C510 C 1.36556 0.64926 0.33876
 C511 C 1.35292 0.62378 0.32249
 N512 N 1.36894 0.62997 0.31194
 C513 C 1.37668 0.64569 0.32201
 C514 C 1.37902 0.67915 0.35766
 N515 N 1.37304 0.68864 0.37456
 C516 C 1.35684 0.67885 0.38136
 C517 C 1.32176 0.64642 0.38139
 N518 N 1.31112 0.63094 0.37441
 C519 C 1.32013 0.62416 0.35772
 H520 H 1.34309 0.61188 0.31866
 H521 H 1.38950 0.65413 0.31777
 H522 H 1.39148 0.68306 0.34850
 H523 H 1.34801 0.68268 0.39413
 H524 H 1.31832 0.65488 0.39456
 H525 H 1.31486 0.61218 0.34854
 C526 C 1.34125 1.14242 0.83155
 C527 C 1.32662 1.14242 0.84623
 C528 C 1.32761 1.15576 0.86165
 C529 C 1.34325 1.16914 0.86271
 C530 C 1.35769 1.16925 0.84831
 C531 C 1.35673 1.15568 0.83252
 C532 C 1.34358 1.13155 0.81453
 N533 N 1.36011 1.13776 0.80504
 C534 C 1.36830 1.15250 0.81598
 C535 C 1.37047 1.18437 0.85301
 N536 N 1.36416 1.19343 0.87003
 C537 C 1.34741 1.18395 0.87586
 C538 C 1.31121 1.15301 0.87329
 N539 N 1.30025 1.13825 0.86534
 C540 C 1.30961 1.13163 0.84878
 H541 H 1.33392 1.11990 0.80947
 H542 H 1.38143 1.16064 0.81197
 H543 H 1.38340 1.18819 0.84449
 H544 H 1.33819 1.18771 0.88838
 H545 H 1.30754 1.16116 0.88660
 H546 H 1.30420 1.12019 0.83902
 C547 C 0.85197 0.63286 0.83948
 C548 C 0.83787 0.63321 0.85471
 C549 C 0.83964 0.64657 0.87007
 C550 C 0.85547 0.65983 0.87042
 C551 C 0.86940 0.65946 0.85545
 C552 C 0.86765 0.64586 0.83989
 C553 C 0.85353 0.62208 0.82226
 N554 N 0.86980 0.62820 0.81222
 C555 C 0.87851 0.64275 0.82295
 C556 C 0.88237 0.67463 0.85901
 N557 N 0.87659 0.68428 0.87571
 C558 C 0.86016 0.67524 0.88280
 C559 C 0.82351 0.64417 0.88220
 N560 N 0.81191 0.62967 0.87461
 C561 C 0.82066 0.62291 0.85774
 H562 H 0.84350 0.61066 0.81740
 H563 H 0.89147 0.65092 0.81850
 H564 H 0.89460 0.67884 0.84962
 H565 H 0.85197 0.67971 0.89584
 H566 H 0.82052 0.65247 0.89558
 H567 H 0.81471 0.61175 0.84798
 C568 C 0.85427 1.13237 0.34147
 C569 C 0.83879 1.13397 0.35525
 C570 C 0.83913 1.14874 0.36941
 C571 C 0.85493 1.16200 0.37009
 C572 C 0.87021 1.16037 0.35661
 C573 C 0.86988 1.14546 0.34221
 C574 C 0.85750 1.12009 0.32551
 N575 N 0.87470 1.12540 0.31658
 C576 C 0.88234 1.14091 0.32677
 C577 C 0.88306 1.17562 0.36031
 N578 N 0.87591 1.18650 0.37568
 C579 C 0.85869 1.17820 0.38175
 C580 C 0.82201 1.14734 0.38025
 N581 N 0.81123 1.13204 0.37310
 C582 C 0.82142 1.12375 0.35780
 H583 H 0.84796 1.10824 0.32072
 H584 H 0.89568 1.14875 0.32288
 H585 H 0.89631 1.17889 0.35198
 H586 H 0.84948 1.18355 0.39374
 H587 H 0.81776 1.15677 0.39249
 H588 H 0.81635 1.11152 0.34886
 C589 C 0.65092 0.36348 0.33479
 C590 C 0.66657 0.36253 0.34851
 C591 C 0.66753 0.34709 0.36191
 C592 C 0.65293 0.33249 0.36187
 C593 C 0.63763 0.33350 0.34837
 C594 C 0.63660 0.34910 0.33487
 C595 C 0.64637 0.37615 0.31945
 N596 N 0.62954 0.36982 0.31020
 C597 C 0.62364 0.35317 0.31981
 C598 C 0.62613 0.31708 0.35099
 N599 N 0.63405 0.30608 0.36582
 C600 C 0.65044 0.31544 0.37264
 C601 C 0.68453 0.34936 0.37280
 N602 N 0.69400 0.36580 0.36645
 C603 C 0.68308 0.37399 0.35161
 H604 H 0.65492 0.38899 0.31557
 H605 H 0.61126 0.34393 0.31593
 H606 H 0.61298 0.31339 0.34264
 H607 H 0.66015 0.30996 0.38416
 H608 H 0.68963 0.33970 0.38451
 H609 H 0.68711 0.38700 0.34330
 C610 C 0.64326 0.86948 0.84156
 C611 C 0.65836 0.86778 0.85572
 C612 C 0.65797 0.85262 0.86937
 C613 C 0.64245 0.83900 0.86912
 C614 C 0.62754 0.84068 0.85520
 C615 C 0.62799 0.85600 0.84127
 C616 C 0.64032 0.88219 0.82596
 N617 N 0.62367 0.87673 0.81614
 C618 C 0.61603 0.86071 0.82545
 C619 C 0.61493 0.82506 0.85801
 N620 N 0.62184 0.81392 0.87328
 C621 C 0.63869 0.82240 0.88015
 C622 C 0.67486 0.85404 0.88065
 N623 N 0.68550 0.86971 0.87419
 C624 C 0.67546 0.87821 0.85895
 H625 H 0.64999 0.89412 0.82171
 H626 H 0.60281 0.85295 0.82101
 H627 H 0.60198 0.82176 0.84919
 H628 H 0.64762 0.81694 0.89229
 H629 H 0.67910 0.84429 0.89262
 H630 H 0.68051 0.89069 0.85039
 C631 C 0.15113 0.36073 0.83535
 C632 C 0.16704 0.36001 0.84877
 C633 C 0.16818 0.34487 0.86245
 C634 C 0.15350 0.33040 0.86305
 C635 C 0.13784 0.33121 0.84995
 C636 C 0.13670 0.34646 0.83600
 C637 C 0.14649 0.37309 0.81982
 N638 N 0.12952 0.36671 0.81088
 C639 C 0.12357 0.35033 0.82098
 C640 C 0.12623 0.31499 0.85347
 N641 N 0.13452 0.30431 0.86838
 C642 C 0.15123 0.31368 0.87431
 C643 C 0.18535 0.34731 0.87303
 N644 N 0.19476 0.36358 0.86619
 C645 C 0.18362 0.37150 0.85136
 H646 H 0.15523 0.38565 0.81552
 H647 H 0.11093 0.34125 0.81763
 H648 H 0.11302 0.31097 0.84537
 H649 H 0.16106 0.30872 0.88597
 H650 H 0.19058 0.33790 0.88489
 H651 H 0.18752 0.38436 0.84277
 C652 C 0.15071 0.86524 0.33596
 C653 C 0.16470 0.86458 0.35127
 C654 C 0.16371 0.85001 0.36551
 C655 C 0.14870 0.83583 0.36457
 C656 C 0.13489 0.83651 0.34945
 C657 C 0.13595 0.85135 0.33501
 C658 C 0.14849 0.87747 0.31993
 N659 N 0.13264 0.87148 0.30894
 C660 C 0.12495 0.85539 0.31833
 C661 C 0.12240 0.82075 0.35205
 N662 N 0.12831 0.81050 0.36833
 C663 C 0.14441 0.81968 0.37606
 C664 C 0.17941 0.85278 0.37821
 N665 N 0.18991 0.86866 0.37197
 C666 C 0.18094 0.87595 0.35549
 H667 H 0.15823 0.88959 0.31663
 H668 H 0.11229 0.84692 0.31366
 H669 H 0.11019 0.81681 0.34249
 H670 H 0.15240 0.81505 0.38915
 H671 H 0.18315 0.84360 0.39078
 H672 H 0.18577 0.88866 0.34716
 O673 O 0.97874 0.92836 0.90025
 O674 O 0.97898 0.90530 0.87715
 C675 C 0.97222 0.92144 0.88405
 C676 C 0.95633 0.93213 0.87342
 C677 C 0.95070 0.92648 0.85426
 H678 H 0.95868 0.91469 0.84684
 O679 O 1.01545 1.07084 0.90072
 O680 O 1.01520 1.09392 0.87774
 C681 C 1.02211 1.07785 0.88465
 C682 C 1.03832 1.06740 0.87414
 C683 C 1.04459 1.07383 0.85546
 H684 H 1.03725 1.08630 0.84854
 O685 O 0.89966 0.97946 0.92748
 O686 O 0.87628 0.97941 0.90468
 C687 C 0.88349 0.97276 0.92073
 C688 C 0.87313 0.95693 0.93159
 C689 C 0.85419 0.95081 0.92572
 H690 H 0.84705 0.95782 0.91319
 O691 O 1.09474 1.01898 0.92785
 O692 O 1.11801 1.01914 0.90499
 C693 C 1.11082 1.02578 0.92109
 C694 C 1.12101 1.04186 0.93182
 C695 C 1.13946 1.04867 0.92531
 H696 H 1.14640 1.04187 0.91254
 O697 O 0.92711 0.90138 0.98033
 O698 O 0.90422 0.87833 0.98022
 C699 C 0.92024 0.88535 0.97348
 C700 C 0.93068 0.87507 0.95715
 C701 C 0.92410 0.85665 0.95037
 H702 H 0.91189 0.84950 0.95779
 O703 O 1.06695 1.09777 0.98078
 O704 O 1.08969 1.12096 0.98067
 C705 C 1.07365 1.11388 0.97400
 C706 C 1.06299 1.12421 0.95786
 C707 C 1.06932 1.14278 0.95131
 H708 H 1.08148 1.15000 0.95879
 O709 O 0.92593 1.01830 0.90045
 O710 O 0.90263 1.01832 0.87757
 C711 C 0.91871 1.02510 0.88448
 C712 C 0.92891 1.04136 0.87412
 C713 C 0.92230 1.04787 0.85554
 H714 H 0.91014 1.04038 0.84834
 O715 O 1.06826 0.98058 0.90026
 O716 O 1.09138 0.98067 0.87724
 C717 C 1.07533 0.97388 0.88417
 C718 C 1.06501 0.95768 0.87377
 C719 C 1.07133 0.95127 0.85503
 H720 H 1.08331 0.95887 0.84770
 O721 O 1.01707 0.90156 0.92790
 O722 O 1.01728 0.87829 0.90502
 C723 C 1.02384 0.88538 0.92115
 C724 C 1.03976 0.87492 0.93197
 C725 C 1.04623 0.85621 0.92570
 H726 H 1.03926 0.84929 0.91305
 O727 O 0.97657 1.09771 0.92781
 O728 O 0.97627 1.12095 0.90500
 C729 C 0.96964 1.11381 0.92103
 C730 C 0.95340 1.12401 0.93175
 C731 C 0.94619 1.14245 0.92535
 H732 H 0.95280 1.14951 0.91263
 O733 O 0.89877 1.06958 0.98074
 O734 O 0.87527 1.09234 0.98075
 C735 C 0.88249 1.07627 0.97409
 C736 C 0.87210 1.06541 0.95821
 C737 C 0.85281 1.07080 0.95250
 H738 H 0.84518 1.08263 0.96022
 O739 O 1.09563 0.92864 0.97999
 O740 O 1.11886 0.90563 0.97975
 C741 C 1.11170 0.92169 0.97307
 C742 C 1.12199 0.93218 0.95686
 C743 C 1.14064 0.92568 0.95034
 H744 H 1.14765 0.91313 0.95745
 O745 O 0.97689 1.07082 0.90054
 O746 O 0.97657 1.09390 0.87757
 C747 C 0.97004 1.07777 0.88447
 C748 C 0.95403 1.06713 0.87405
 C749 C 0.94721 1.07347 0.85545
 H750 H 0.95396 1.08611 0.84842
 O751 O 1.01721 0.92814 0.90043
 O752 O 1.01750 0.90503 0.87740
 C753 C 1.02406 0.92115 0.88436
 C754 C 1.04001 0.93178 0.87391
 C755 C 1.04658 0.92551 0.85519
 H756 H 1.03978 0.91284 0.84822
 O757 O 1.09538 0.98046 0.92731
 O758 O 1.11867 0.98052 0.90447
 C759 C 1.11159 0.97371 0.92048
 C760 C 1.12199 0.95751 0.93108
 C761 C 1.14066 0.95071 0.92474
 H762 H 1.14789 0.95781 0.91238
 O763 O 0.89946 1.01781 0.92805
 O764 O 0.87599 1.01780 0.90534
 C765 C 0.88310 1.02436 0.92145
 C766 C 0.87244 1.03998 0.93252
 C767 C 0.85318 1.04552 0.92705
 H768 H 0.84601 1.03814 0.91477
 O769 O 0.92521 1.09712 0.98059
 O770 O 0.90181 1.11998 0.98061
 C771 C 0.91797 1.11312 0.97385
 C772 C 0.92818 1.12360 0.95763
 C773 C 0.92121 1.14203 0.95108
 H774 H 0.90886 1.14903 0.95859
 O775 O 1.06899 0.90130 0.98041
 O776 O 1.09212 0.87818 0.98019
 C777 C 1.07591 0.88517 0.97364
 C778 C 1.06524 0.87476 0.95762
 C779 C 1.07151 0.85601 0.95115
 H780 H 1.08376 0.84869 0.95852
 O781 O 1.06820 1.01911 0.90019
 O782 O 1.09130 1.01929 0.87716
 C783 C 1.07512 1.02597 0.88414
 C784 C 1.06437 1.04215 0.87385
 C785 C 1.07053 1.04890 0.85517
 H786 H 1.08293 1.04181 0.84782
 O787 O 0.92648 0.97985 0.90012
 O788 O 0.90328 0.97980 0.87714
 C789 C 0.91955 0.97322 0.88397
 C790 C 0.93046 0.95745 0.87336
 C791 C 0.92489 0.95156 0.85422
 H792 H 0.91251 0.95878 0.84698
 O793 O 1.01510 1.09769 0.92801
 O794 O 1.01492 1.12094 0.90520
 C795 C 1.02169 1.11384 0.92126
 C796 C 1.03766 1.12419 0.93202
 C797 C 1.04428 1.14273 0.92562
 H798 H 1.03743 1.14964 0.91287
 O799 O 0.97858 0.90148 0.92743
 O800 O 0.97871 0.87827 0.90450
 C801 C 0.97192 0.88537 0.92055
 C802 C 0.95586 0.87507 0.93119
 C803 C 0.94902 0.85665 0.92459
 H804 H 0.95575 0.84974 0.91176
 O805 O 1.09438 1.07082 0.98064
 O806 O 1.11721 1.09392 0.98045
 C807 C 1.11037 1.07779 0.97378
 C808 C 1.12080 1.06728 0.95756
 C809 C 1.13930 1.07382 0.95088
 H810 H 1.14641 1.08608 0.95826
 O811 O 0.89972 0.92828 0.98042
 O812 O 0.87672 0.90533 0.98038
 C813 C 0.88363 0.92138 0.97368
 C814 C 0.87314 0.93190 0.95757
 C815 C 0.85417 0.92602 0.95155
 H816 H 0.84680 0.91421 0.95935
 Cu817 Cu 0.99787 0.91722 0.91630
 Cu818 Cu 0.99815 0.88936 0.88872
 Cu819 Cu 0.99600 1.08195 0.91656
 Cu820 Cu 0.99574 1.10976 0.88907
 Cu821 Cu 0.91525 0.99882 0.91628
 Cu822 Cu 0.88720 0.99883 0.88887
 Cu823 Cu 1.07933 0.99978 0.91617
 Cu824 Cu 1.10718 0.99993 0.88867
 C825 C 0.94627 0.94774 0.88274
 H826 H 0.95045 0.95202 0.89762
 C827 C 0.93500 0.93612 0.84451
 C828 C 1.04816 1.05142 0.88310
 H829 H 1.04349 1.04653 0.89761
 C830 C 1.06060 1.06466 0.84581
 C831 C 0.88240 0.94749 0.94762
 H832 H 0.89710 0.95197 0.95207
 C833 C 0.84455 0.93542 0.93566
 C834 C 1.11187 1.05115 0.94806
 H835 H 1.09749 1.04618 0.95297
 C836 C 1.14874 1.06461 0.93475
 C837 C 0.94669 0.88408 0.94758
 H838 H 0.95167 0.89841 0.95258
 C839 C 0.93312 0.84735 0.93408
 C840 C 1.04701 1.11513 0.94825
 H841 H 1.04221 1.10070 0.95308
 C842 C 1.06011 1.15214 0.93517
 C843 C 0.94488 1.05096 0.88316
 H844 H 0.94988 1.04615 0.89762
 C845 C 0.93134 1.06392 0.84608
 C846 C 1.04922 0.94797 0.88298
 H847 H 1.04441 0.95270 0.89754
 C848 C 1.06220 0.93520 0.84560
 C849 C 1.04921 0.88399 0.94807
 H850 H 1.04446 0.89856 0.95279
 C851 C 1.06205 0.84662 0.93521
 C852 C 0.94438 1.11480 0.94800
 H853 H 0.94964 1.10046 0.95283
 C854 C 0.93006 1.15156 0.93494
 C855 C 0.88170 1.04985 0.94825
 H856 H 0.89666 1.04576 0.95240
 C857 C 0.84321 1.06082 0.93701
 C858 C 1.11287 0.94822 0.94726
 H859 H 1.09838 0.95316 0.95209
 C860 C 1.15014 0.93485 0.93436
 O861 O 1.01731 0.92852 1.09823
 O862 O 1.01763 0.90566 1.12142
 C863 C 1.02424 0.92168 1.11431
 C864 C 1.04044 0.93222 1.12458
 C865 C 1.04695 0.92598 1.14329
 H866 H 1.03982 0.91359 1.15038
 O867 O 0.97740 1.07047 1.09946
 O868 O 0.97721 1.09350 1.12257
 C869 C 0.97054 1.07746 1.11554
 C870 C 0.95430 1.06704 1.12579
 C871 C 0.94717 1.07373 1.14418
 H872 H 0.95390 1.08641 1.15120
 O873 O 0.89844 1.01856 1.07173
 O874 O 0.87520 1.01845 1.09462
 C875 C 0.88221 1.02521 1.07857
 C876 C 0.87177 1.04130 1.06794
 C877 C 0.85323 1.04833 1.07443
 H878 H 0.84621 1.04163 1.08713
 O879 O 1.09696 0.98041 1.07075
 O880 O 1.12019 0.98035 1.09368
 C881 C 1.11316 0.97366 1.07757
 C882 C 1.12355 0.95753 1.06686
 C883 C 1.14226 0.95075 1.07308
 H884 H 1.14960 0.95795 1.08535
 O885 O 1.06924 0.90166 1.01905
 O886 O 1.09243 0.87860 1.01881
 C887 C 1.07638 0.88562 1.02576
 C888 C 1.06620 0.87529 1.04214
 C889 C 1.07343 0.85713 1.04917
 H890 H 1.08599 0.85020 1.04195
 O891 O 0.92569 1.09675 1.01926
 O892 O 0.90240 1.11972 1.01922
 C893 C 0.91856 1.11279 1.02600
 C894 C 0.92894 1.12324 1.04219
 C895 C 0.92234 1.14189 1.04850
 H896 H 0.91008 1.14900 1.04096
 O897 O 0.92616 0.98029 1.09864
 O898 O 0.90315 0.98017 1.12177
 C899 C 0.91936 0.97358 1.11478
 C900 C 0.93026 0.95772 1.12528
 C901 C 0.92440 0.95177 1.14426
 H902 H 0.91197 0.95905 1.15136
 O903 O 1.06928 1.01869 1.09792
 O904 O 1.09234 1.01869 1.12103
 C905 C 1.07613 1.02537 1.11409
 C906 C 1.06539 1.04136 1.12467
 C907 C 1.07204 1.04796 1.14318
 H908 H 1.08457 1.04072 1.15014
 O909 O 0.97874 0.90117 1.07156
 O910 O 0.97895 0.87817 1.09461
 C911 C 0.97209 0.88513 1.07852
 C912 C 0.95588 0.87483 1.06799
 C913 C 0.94864 0.85666 1.07486
 H914 H 0.95524 0.84983 1.08778
 O915 O 1.01577 1.09733 1.07219
 O916 O 1.01567 1.12044 1.09522
 C917 C 1.02240 1.11344 1.07910
 C918 C 1.03843 1.12384 1.06852
 C919 C 1.04527 1.14214 1.07536
 H920 H 1.03815 1.14911 1.08794
 O921 O 0.89976 0.92830 1.01904
 O922 O 0.87684 0.90528 1.01894
 C923 C 0.88371 0.92132 1.02576
 C924 C 0.87326 0.93168 1.04204
 C925 C 0.85500 0.92475 1.04896
 H926 H 0.84806 0.91232 1.04170
 O927 O 1.09472 1.07094 1.01927
 O928 O 1.11748 1.09411 1.01905
 C929 C 1.11077 1.07804 1.02590
 C930 C 1.12147 1.06783 1.04210
 C931 C 1.13952 1.07522 1.04908
 H932 H 1.14608 1.08788 1.04192
 O933 O 1.01606 1.07022 1.09913
 O934 O 1.01600 1.09317 1.12232
 C935 C 1.02289 1.07714 1.11521
 C936 C 1.03935 1.06664 1.12534
 C937 C 1.04627 1.07305 1.14389
 H938 H 1.03923 1.08553 1.15113
 O939 O 0.97868 0.92822 1.09875
 O940 O 0.97895 0.90539 1.12197
 C941 C 0.97208 0.92142 1.11495
 C942 C 0.95597 0.93214 1.12541
 C943 C 0.94985 0.92634 1.14441
 H944 H 0.95740 0.91429 1.15183
 O945 O 1.09669 1.01896 1.07117
 O946 O 1.11990 1.01906 1.09412
 C947 C 1.11271 1.02586 1.07811
 C948 C 1.12260 1.04233 1.06767
 C949 C 1.14072 1.04995 1.07445
 H950 H 1.14796 1.04340 1.08717
 O951 O 0.89904 0.98009 1.07157
 O952 O 0.87588 0.97988 1.09453
 C953 C 0.88302 0.97323 1.07844
 C954 C 0.87291 0.95702 1.06783
 C955 C 0.85466 0.94986 1.07457
 H956 H 0.84773 0.95649 1.08744
 O957 O 1.06732 1.09785 1.01946
 O958 O 1.09003 1.12107 1.01931
 C959 C 1.07412 1.11395 1.02622
 C960 C 1.06369 1.12415 1.04264
 C961 C 1.07037 1.14245 1.04976
 H962 H 1.08302 1.14938 1.04290
 O963 O 0.92708 0.90130 1.01902
 O964 O 0.90421 0.87823 1.01888
 C965 C 0.92021 0.88525 1.02573
 C966 C 0.93059 0.87496 1.04209
 C967 C 0.92363 0.85681 1.04911
 H968 H 0.91123 0.84982 1.04181
 O969 O 1.06991 0.98020 1.09792
 O970 O 1.09295 0.98011 1.12104
 C971 C 1.07687 0.97342 1.11402
 C972 C 1.06628 0.95737 1.12443
 C973 C 1.07258 0.95085 1.14316
 H974 H 1.08491 0.95803 1.15039
 O975 O 0.92554 1.01876 1.09882
 O976 O 0.90243 1.01867 1.12185
 C977 C 0.91847 1.02546 1.11492
 C978 C 0.92879 1.04163 1.12540
 C979 C 0.92189 1.04849 1.14377
 H980 H 0.90944 1.04131 1.15074
 O981 O 0.97726 1.09719 1.07210
 O982 O 0.97704 1.12041 1.09502
 C983 C 0.97041 1.11334 1.07889
 C984 C 0.95428 1.12364 1.06806
 C985 C 0.94752 1.14238 1.07410
 H986 H 0.95440 1.14969 1.08658
 O987 O 1.01735 0.90119 1.07146
 O988 O 1.01771 0.87817 1.09449
 C989 C 1.02435 0.88518 1.07839
 C990 C 1.04075 0.87499 1.06785
 C991 C 1.04823 0.85683 1.07470
 H992 H 1.04167 0.84995 1.08755
 O993 O 1.09640 0.92848 1.01863
 O994 O 1.11966 0.90550 1.01833
 C995 C 1.11266 0.92157 1.02516
 C996 C 1.12325 0.93209 1.04116
 C997 C 1.14192 0.92552 1.04757
 H998 H 1.14876 0.91285 1.04048
 O999 O 0.89851 1.07001 1.01932
 O1000 O 0.87516 1.09292 1.01925
 C1001 C 0.88232 1.07693 1.02602
 C1002 C 0.87195 1.06657 1.04220
 C1003 C 0.85345 1.07336 1.04884
 H1004 H 0.84634 1.08568 1.04143
 Cu1005 Cu 0.99795 0.91705 1.08269
 Cu1006 Cu 0.99834 0.88954 1.11044
 Cu1007 Cu 0.99662 1.08148 1.08346
 Cu1008 Cu 0.99647 1.10918 1.11112
 Cu1009 Cu 0.91572 0.91712 0.99971
 Cu1010 Cu 0.88822 0.88946 0.99959
 Cu1011 Cu 1.08023 0.91732 0.99954
 Cu1012 Cu 1.10810 0.88967 0.99923
 Cu1013 Cu 0.91440 1.08108 0.99995
 Cu1014 Cu 0.88633 1.10856 0.99995
 Cu1015 Cu 1.07855 1.08204 1.00005
 Cu1016 Cu 1.10588 1.10984 0.99983
 Cu1017 Cu 0.91459 0.99945 1.08287
 Cu1018 Cu 0.88683 0.99926 1.11051
 Cu1019 Cu 1.08095 0.99955 1.08212
 Cu1020 Cu 1.10867 0.99954 1.10978
 C1021 C 1.05008 0.94805 1.11535
 H1022 H 1.04528 0.95280 1.10081
 C1023 C 1.06293 0.93522 1.15274
 C1024 C 0.94511 1.05087 1.11663
 H1025 H 0.95033 1.04581 1.10233
 C1026 C 0.93094 1.06455 1.15327
 C1027 C 0.88089 1.05043 1.05170
 H1028 H 0.89529 1.04531 1.04679
 C1029 C 0.84400 1.06441 1.06497
 C1030 C 1.11429 0.94822 1.05077
 H1031 H 1.09976 0.95317 1.04606
 C1032 C 1.15159 0.93476 1.06347
 C1033 C 1.04974 0.88400 1.05146
 H1034 H 1.04426 0.89814 1.04628
 C1035 C 1.06461 0.84781 1.06548
 C1036 C 0.94500 1.11430 1.05196
 H1037 H 0.94996 1.09977 1.04733
 C1038 C 0.93153 1.15156 1.06439
 C1039 C 0.94618 0.94795 1.11607
 H1040 H 0.95063 0.95235 1.10134
 C1041 C 0.93414 0.93617 1.15399
 C1042 C 1.04892 1.05067 1.11595
 H1043 H 1.04389 1.04582 1.10152
 C1044 C 1.06264 1.06381 1.15289
 C1045 C 0.94683 0.88374 1.05150
 H1046 H 0.95209 0.89789 1.04630
 C1047 C 0.93246 0.84757 1.06552
 C1048 C 1.04761 1.11506 1.05203
 H1049 H 1.04258 1.10081 1.04683
 C1050 C 1.06127 1.15154 1.06614
 C1051 C 0.88199 0.94794 1.05144
 H1052 H 0.89620 0.95319 1.04635
 C1053 C 0.84561 0.93371 1.06525
 C1054 C 1.11323 1.05130 1.05137
 H1055 H 1.09914 1.04574 1.04622
 C1056 C 1.14922 1.06649 1.06526
 O1057 O 0.98079 0.42855 0.40245
 O1058 O 0.98001 0.40553 0.37935
 C1059 C 0.97369 0.42180 0.38644
 C1060 C 0.95761 0.43281 0.37627
 C1061 C 0.95103 0.42697 0.35743
 H1062 H 0.95824 0.41475 0.34992
 O1063 O 1.02035 0.57005 0.40183
 O1064 O 1.02030 0.59265 0.37837
 C1065 C 1.02688 0.57654 0.38549
 C1066 C 1.04257 0.56541 0.37491
 C1067 C 1.04868 0.57127 0.35600
 H1068 H 1.04163 0.58384 0.34897
 O1069 O 0.90141 0.48214 0.43041
 O1070 O 0.87829 0.48228 0.40737
 C1071 C 0.88527 0.47555 0.42348
 C1072 C 0.87483 0.45957 0.43405
 C1073 C 0.85626 0.45304 0.42753
 H1074 H 0.84933 0.46005 0.41487
 O1075 O 1.09858 0.51634 0.42831
 O1076 O 1.12170 0.51587 0.40528
 C1077 C 1.11479 0.52275 0.42137
 C1078 C 1.12548 0.53863 0.43189
 C1079 C 1.14429 0.54454 0.42548
 H1080 H 1.15114 0.53717 0.41297
 O1081 O 0.92879 0.40298 0.48216
 O1082 O 0.90558 0.38026 0.48256
 C1083 C 0.92165 0.38696 0.47558
 C1084 C 0.93185 0.37635 0.45930
 C1085 C 0.92486 0.35803 0.45264
 H1086 H 0.91247 0.35120 0.46007
 O1087 O 1.07353 0.59723 0.47994
 O1088 O 1.09698 0.61971 0.47954
 C1089 C 1.08073 0.61304 0.47295
 C1090 C 1.07036 0.62339 0.45663
 C1091 C 1.07747 0.64140 0.44933
 H1092 H 1.09010 0.64825 0.45634
 O1093 O 0.92887 0.52002 0.40316
 O1094 O 0.90587 0.52015 0.37998
 C1095 C 0.92203 0.52666 0.38695
 C1096 C 0.93283 0.54235 0.37632
 C1097 C 0.92667 0.54847 0.35744
 H1098 H 0.91405 0.54148 0.35053
 O1099 O 1.07128 0.47808 0.40114
 O1100 O 1.09438 0.47765 0.37811
 C1101 C 1.07828 0.47112 0.38510
 C1102 C 1.06791 0.45485 0.37485
 C1103 C 1.07511 0.44734 0.35686
 H1104 H 1.08776 0.45420 0.34992
 O1105 O 1.01906 0.40061 0.42924
 O1106 O 1.01831 0.37727 0.40646
 C1107 C 1.02534 0.38424 0.42247
 C1108 C 1.04122 0.37346 0.43319
 C1109 C 1.04724 0.35450 0.42713
 H1110 H 1.04006 0.34758 0.41461
 O1111 O 0.98262 0.59830 0.42904
 O1112 O 0.98257 0.62112 0.40580
 C1113 C 0.97600 0.61443 0.42206
 C1114 C 0.96024 0.62525 0.43283
 C1115 C 0.95427 0.64422 0.42684
 H1116 H 0.96145 0.65111 0.41434
 O1117 O 0.90285 0.57322 0.48128
 O1118 O 0.88015 0.59676 0.48136
 C1119 C 0.88682 0.58052 0.47460
 C1120 C 0.87616 0.57018 0.45850
 C1121 C 0.85787 0.57729 0.45155
 H1122 H 0.85104 0.58997 0.45863
 O1123 O 1.09834 0.42581 0.48130
 O1124 O 1.12133 0.40255 0.48105
 C1125 C 1.11434 0.41869 0.47436
 C1126 C 1.12459 0.42915 0.45810
 C1127 C 1.14330 0.42280 0.45143
 H1128 H 1.15056 0.41034 0.45847
 O1129 O 0.98183 0.57108 0.40212
 O1130 O 0.98175 0.59373 0.37871
 C1131 C 0.97496 0.57787 0.38599
 C1132 C 0.95867 0.56740 0.37584
 C1133 C 0.95234 0.57327 0.35692
 H1134 H 0.95996 0.58509 0.34938
 O1135 O 1.01936 0.42685 0.40140
 O1136 O 1.01873 0.40369 0.37845
 C1137 C 1.02588 0.41959 0.38530
 C1138 C 1.04230 0.42955 0.37486
 C1139 C 1.04974 0.42219 0.35682
 H1140 H 1.04310 0.40929 0.35013
 O1141 O 1.09787 0.47782 0.42872
 O1142 O 1.12105 0.47741 0.40576
 C1143 C 1.11394 0.47083 0.42186
 C1144 C 1.12427 0.45464 0.43246
 C1145 C 1.14289 0.44802 0.42601
 H1146 H 1.15004 0.45533 0.41372
 O1147 O 0.90161 0.52072 0.43005
 O1148 O 0.87851 0.52089 0.40698
 C1149 C 0.88560 0.52771 0.42299
 C1150 C 0.87552 0.54429 0.43328
 C1151 C 0.85725 0.55164 0.42647
 H1152 H 0.85023 0.54483 0.41378
 O1153 O 0.93061 0.59937 0.48115
 O1154 O 0.90805 0.62306 0.48130
 C1155 C 0.92400 0.61566 0.47452
 C1156 C 0.93481 0.62583 0.45851
 C1157 C 0.92913 0.64484 0.45243
 H1158 H 0.91727 0.65246 0.46012
 O1159 O 1.07088 0.39936 0.48176
 O1160 O 1.09365 0.37589 0.48157
 C1161 C 1.07755 0.38314 0.47498
 C1162 C 1.06669 0.37292 0.45893
 C1163 C 1.07244 0.35394 0.45272
 H1164 H 1.08435 0.34636 0.46035
 O1165 O 1.07136 0.51664 0.40124
 O1166 O 1.09436 0.51621 0.37811
 C1167 C 1.07832 0.52319 0.38510
 C1168 C 1.06781 0.53940 0.37468
 C1169 C 1.07381 0.54553 0.35576
 H1170 H 1.08584 0.53790 0.34834
 O1171 O 0.92866 0.48156 0.40346
 O1172 O 0.90565 0.48174 0.38029
 C1173 C 0.92174 0.47488 0.38732
 C1174 C 0.93229 0.45878 0.37677
 C1175 C 0.92598 0.45276 0.35793
 H1176 H 0.91351 0.46014 0.35100
 O1177 O 1.02119 0.59776 0.42825
 O1178 O 1.02122 0.62049 0.40493
 C1179 C 1.02811 0.61358 0.42100
 C1180 C 1.04463 0.62368 0.43118
 C1181 C 1.05199 0.64167 0.42404
 H1182 H 1.04527 0.64844 0.41115
 O1183 O 0.98050 0.40138 0.42931
 O1184 O 0.97966 0.37817 0.40640
 C1185 C 0.97329 0.38546 0.42254
 C1186 C 0.95706 0.37561 0.43335
 C1187 C 0.94981 0.35731 0.42689
 H1188 H 0.95637 0.35018 0.41410
 O1189 O 1.09978 0.56922 0.48007
 O1190 O 1.12337 0.59155 0.47964
 C1191 C 1.11599 0.57559 0.47316
 C1192 C 1.12607 0.56450 0.45713
 C1193 C 1.14487 0.57021 0.45049
 H1194 H 1.15239 0.58235 0.45767
 O1195 O 0.90159 0.43012 0.48220
 O1196 O 0.87827 0.40752 0.48259
 C1197 C 0.88533 0.42341 0.47566
 C1198 C 0.87486 0.43399 0.45952
 C1199 C 0.85624 0.42767 0.45281
 H1200 H 0.84905 0.41542 0.46006
 Cu1201 Cu 1.00003 0.41668 0.41786
 Cu1202 Cu 0.99909 0.38884 0.39036
 Cu1203 Cu 1.00150 0.58205 0.41766
 Cu1204 Cu 1.00145 0.60929 0.38960
 Cu1205 Cu 0.91741 0.50110 0.41912
 Cu1206 Cu 0.88975 0.50126 0.39135
 Cu1207 Cu 1.08243 0.49730 0.41713
 Cu1208 Cu 1.11019 0.49675 0.38951
 C1209 C 0.94825 0.44885 0.38574
 H1210 H 0.95304 0.45328 0.40038
 C1211 C 0.93528 0.43695 0.34812
 C1212 C 1.05207 0.54933 0.38404
 H1213 H 1.04755 0.54489 0.39874
 C1214 C 1.06422 0.56139 0.34626
 C1215 C 0.88390 0.45007 0.45016
 H1216 H 0.89835 0.45486 0.45508
 C1217 C 0.84680 0.43714 0.43683
 C1218 C 1.11658 0.54857 0.44786
 H1219 H 1.10197 0.54425 0.45271
 C1220 C 1.15411 0.56028 0.43469
 C1221 C 0.94808 0.38493 0.44968
 H1222 H 0.95339 0.39918 0.45456
 C1223 C 0.93371 0.34842 0.43643
 C1224 C 1.05382 0.61478 0.44758
 H1225 H 1.04842 0.60076 0.45297
 C1226 C 1.06843 0.65064 0.43301
 C1227 C 0.94893 0.55180 0.38533
 H1228 H 0.95359 0.54733 0.40000
 C1229 C 0.93637 0.56387 0.34758
 C1230 C 1.05140 0.44599 0.38361
 H1231 H 1.04597 0.45157 0.39764
 C1232 C 1.06622 0.43097 0.34775
 C1233 C 1.05094 0.38246 0.44920
 H1234 H 1.04657 0.39719 0.45379
 C1235 C 1.06280 0.34459 0.43685
 C1236 C 0.95052 0.61625 0.44877
 H1237 H 0.95484 0.60150 0.45327
 C1238 C 0.93877 0.65416 0.43660
 C1239 C 0.88474 0.55357 0.44939
 H1240 H 0.89897 0.54817 0.45451
 C1241 C 0.84829 0.56814 0.43551
 C1242 C 1.11530 0.44521 0.44860
 H1243 H 1.10079 0.45007 0.45348
 C1244 C 1.15250 0.43214 0.43536
 O1245 O 1.02090 0.42900 0.59985
 O1246 O 1.02066 0.40636 0.62325
 C1247 C 1.02767 0.42212 0.61599
 C1248 C 1.04424 0.43235 0.62601
 C1249 C 1.05159 0.42566 0.64432
 H1250 H 1.04478 0.41316 0.65153
 O1251 O 0.98355 0.57249 0.59878
 O1252 O 0.98394 0.59560 0.62180
 C1253 C 0.97700 0.57962 0.61492
 C1254 C 0.96089 0.56937 0.62550
 C1255 C 0.95467 0.57574 0.64431
 H1256 H 0.96193 0.58814 0.65131
 O1257 O 0.90344 0.52179 0.57238
 O1258 O 0.88047 0.52232 0.59555
 C1259 C 0.88740 0.52878 0.57935
 C1260 C 0.87698 0.54483 0.56865
 C1261 C 0.85818 0.55138 0.57477
 H1262 H 0.85090 0.54422 0.58707
 O1263 O 1.10004 0.47936 0.57090
 O1264 O 1.12345 0.47925 0.59366
 C1265 C 1.11616 0.47243 0.57773
 C1266 C 1.12621 0.45591 0.56732
 C1267 C 1.14472 0.44899 0.57382
 H1268 H 1.15212 0.45642 0.58592
 O1269 O 1.07169 0.39933 0.52041
 O1270 O 1.09447 0.37588 0.52036
 C1271 C 1.07855 0.38322 0.52727
 C1272 C 1.06809 0.37337 0.54382
 C1273 C 1.07448 0.35493 0.55108
 H1274 H 1.08693 0.34746 0.54422
 O1275 O 0.93079 0.59959 0.51965
 O1276 O 0.90818 0.62323 0.51984
 C1277 C 0.92426 0.61590 0.52638
 C1278 C 0.93534 0.62623 0.54217
 C1279 C 0.92988 0.64538 0.54810
 H1280 H 0.91791 0.65295 0.54053
 O1281 O 0.93056 0.48312 0.59940
 O1282 O 0.90775 0.48367 0.62272
 C1283 C 0.92375 0.47669 0.61565
 C1284 C 0.93438 0.46070 0.62623
 C1285 C 0.92828 0.45480 0.64516
 H1286 H 0.91588 0.46222 0.65217
 O1287 O 1.07361 0.51849 0.59809
 O1288 O 1.09686 0.51836 0.62101
 C1289 C 1.08072 0.52521 0.61413
 C1290 C 1.07028 0.54145 0.62459
 C1291 C 1.07653 0.54768 0.64341
 H1292 H 1.08860 0.54000 0.65070
 O1293 O 0.98167 0.40281 0.57299
 O1294 O 0.98126 0.38007 0.59629
 C1295 C 0.97461 0.38702 0.58012
 C1296 C 0.95819 0.37694 0.56971
 C1297 C 0.95115 0.35872 0.57655
 H1298 H 0.95834 0.35160 0.58898
 O1299 O 1.02223 0.59856 0.57125
 O1300 O 1.02275 0.62175 0.59419
 C1301 C 1.02926 0.61454 0.57808
 C1302 C 1.04548 0.62451 0.56737
 C1303 C 1.05278 0.64272 0.57402
 H1304 H 1.04625 0.64973 0.58690
 O1305 O 0.90223 0.43075 0.52076
 O1306 O 0.87888 0.40817 0.52120
 C1307 C 0.88611 0.42420 0.52770
 C1308 C 0.87597 0.43512 0.54380
 C1309 C 0.85726 0.42923 0.55054
 H1310 H 0.84981 0.41705 0.54335
 O1311 O 1.10048 0.56995 0.51861
 O1312 O 1.12403 0.59233 0.51822
 C1313 C 1.11681 0.57652 0.52514
 C1314 C 1.12721 0.56585 0.54123
 C1315 C 1.14598 0.57194 0.54770
 H1316 H 1.15326 0.58408 0.54034
 O1317 O 1.02209 0.57147 0.59821
 O1318 O 1.02254 0.59453 0.62130
 C1319 C 1.02901 0.57830 0.61428
 C1320 C 1.04499 0.56741 0.62465
 C1321 C 1.05148 0.57349 0.64342
 H1322 H 1.04455 0.58613 0.65048
 O1323 O 0.98231 0.43010 0.59990
 O1324 O 0.98201 0.40750 0.62335
 C1325 C 0.97554 0.42362 0.61616
 C1326 C 0.95968 0.43474 0.62651
 C1327 C 0.95336 0.42904 0.64545
 H1328 H 0.96068 0.41688 0.65291
 O1329 O 1.10051 0.51792 0.57076
 O1330 O 1.12387 0.51779 0.59356
 C1331 C 1.11675 0.52448 0.57750
 C1332 C 1.12720 0.54035 0.56677
 C1333 C 1.14595 0.54663 0.57302
 H1334 H 1.15298 0.53955 0.58558
 O1335 O 0.90325 0.48330 0.57249
 O1336 O 0.88031 0.48381 0.59568
 C1337 C 0.88714 0.47687 0.57957
 C1338 C 0.87648 0.46091 0.56914
 C1339 C 0.85779 0.45480 0.57568
 H1340 H 0.85099 0.46205 0.58828
 O1341 O 1.07359 0.59735 0.51856
 O1342 O 1.09701 0.61986 0.51825
 C1343 C 1.08087 0.61329 0.52518
 C1344 C 1.07071 0.62391 0.54148
 C1345 C 1.07778 0.64214 0.54830
 H1346 H 1.09021 0.64895 0.54094
 O1347 O 0.92901 0.40323 0.52085
 O1348 O 0.90580 0.38052 0.52128
 C1349 C 0.92200 0.38736 0.52786
 C1350 C 0.93253 0.37707 0.54415
 C1351 C 0.92568 0.35887 0.55126
 H1352 H 0.91285 0.35213 0.54451
 O1353 O 1.07342 0.48000 0.59842
 O1354 O 1.09675 0.47988 0.62126
 C1355 C 1.08054 0.47331 0.61449
 C1356 C 1.07011 0.45738 0.62514
 C1357 C 1.07725 0.45049 0.64338
 H1358 H 1.08996 0.45748 0.65012
 O1359 O 0.93086 0.52155 0.59919
 O1360 O 0.90803 0.52211 0.62249
 C1361 C 0.92415 0.52847 0.61535
 C1362 C 0.93504 0.54433 0.62567
 C1363 C 0.92909 0.55082 0.64450
 H1364 H 0.91694 0.54355 0.65189
 O1365 O 0.98366 0.59900 0.57126
 O1366 O 0.98412 0.62230 0.59410
 C1367 C 0.97720 0.61529 0.57808
 C1368 C 0.96124 0.62594 0.56743
 C1369 C 0.95553 0.64506 0.57321
 H1370 H 0.96301 0.65216 0.58546
 O1371 O 1.02029 0.40175 0.57293
 O1372 O 1.01993 0.37900 0.59623
 C1373 C 1.02677 0.38561 0.58005
 C1374 C 1.04275 0.37469 0.56964
 C1375 C 1.04936 0.35633 0.57670
 H1376 H 1.04212 0.34971 0.58933
 O1377 O 1.09878 0.42617 0.51984
 O1378 O 1.12176 0.40290 0.51974
 C1379 C 1.11496 0.41914 0.52643
 C1380 C 1.12565 0.42979 0.54231
 C1381 C 1.14418 0.42304 0.54906
 H1382 H 1.15091 0.41010 0.54237
 O1383 O 0.90333 0.57312 0.51984
 O1384 O 0.88054 0.59658 0.52000
 C1385 C 0.88735 0.58036 0.52665
 C1386 C 0.87690 0.56997 0.54276
 C1387 C 0.85806 0.57624 0.54898
 H1388 H 0.85087 0.58857 0.54165
 Cu1389 Cu 1.00132 0.41819 0.58410
 Cu1390 Cu 1.00090 0.39094 0.61211
 Cu1391 Cu 1.00283 0.58306 0.58258
 Cu1392 Cu 1.00338 0.61088 0.61015
 Cu1393 Cu 0.91773 0.41903 0.50144
 Cu1394 Cu 0.88983 0.39181 0.50195
 Cu1395 Cu 1.08263 0.41497 0.50086
 Cu1396 Cu 1.11009 0.38694 0.50064
 Cu1397 Cu 0.91914 0.58395 0.50047
 Cu1398 Cu 0.89193 0.61227 0.50065
 Cu1399 Cu 1.08448 0.58122 0.49934
 Cu1400 Cu 1.11269 0.60814 0.49887
 Cu1401 Cu 0.91931 0.50240 0.58352
 Cu1402 Cu 0.89183 0.50302 0.61145
 Cu1403 Cu 1.08457 0.49898 0.58225
 Cu1404 Cu 1.11259 0.49882 0.60965
 C1405 C 1.05351 0.44833 0.61667
 H1406 H 1.04813 0.45340 0.60244
 C1407 C 1.06816 0.43462 0.65306
 C1408 C 0.95107 0.55356 0.61640
 H1409 H 0.95560 0.54876 0.60178
 C1410 C 0.93879 0.56653 0.65395
 C1411 C 0.88612 0.55412 0.55255
 H1412 H 0.90074 0.54933 0.54793
 C1413 C 0.84858 0.56699 0.56492
 C1414 C 1.11689 0.44634 0.55143
 H1415 H 1.10249 0.45145 0.54652
 C1416 C 1.15381 0.43256 0.56483
 C1417 C 1.05210 0.38300 0.55312
 H1418 H 1.04724 0.39731 0.54781
 C1419 C 1.06521 0.34634 0.56758
 C1420 C 0.95117 0.61672 0.55179
 H1421 H 0.95534 0.60187 0.54741
 C1422 C 0.93993 0.65495 0.56356
 C1423 C 0.95022 0.45071 0.61712
 H1424 H 0.95484 0.45503 0.60241
 C1425 C 0.93771 0.43904 0.65492
 C1426 C 1.05437 0.55127 0.61544
 H1427 H 1.04961 0.54667 0.60084
 C1428 C 1.06719 0.56367 0.65297
 C1429 C 0.94890 0.38589 0.55338
 H1430 H 0.95408 0.40006 0.54818
 C1431 C 0.93490 0.34958 0.56744
 C1432 C 1.05443 0.61532 0.55098
 H1433 H 1.04907 0.60113 0.54597
 C1434 C 1.06893 0.65164 0.56458
 C1435 C 0.88536 0.45110 0.55309
 H1436 H 0.89990 0.45556 0.54815
 C1437 C 0.84805 0.43900 0.56646
 C1438 C 1.11804 0.54993 0.55075
 H1439 H 1.10347 0.54531 0.54602
 C1440 C 1.15549 0.56238 0.56356
 O1441 O 0.56996 1.02086 0.59992
 O1442 O 0.59252 1.02089 0.62352
 C1443 C 0.57641 1.02747 0.61628
 C1444 C 0.56523 1.04328 0.62664
 C1445 C 0.57082 1.04954 0.64565
 H1446 H 0.58296 1.04221 0.65317
 O1447 O 0.42849 0.98127 0.59775
 O1448 O 0.40513 0.98070 0.62051
 C1449 C 0.42148 0.97430 0.61369
 C1450 C 0.43229 0.95830 0.62408
 C1451 C 0.42596 0.95166 0.64269
 H1452 H 0.41321 0.95852 0.64963
 O1453 O 0.51711 1.09937 0.57228
 O1454 O 0.51651 1.12243 0.59535
 C1455 C 0.52360 1.11546 0.57937
 C1456 C 0.53983 1.12591 0.56916
 C1457 C 0.54619 1.14443 0.57591
 H1458 H 0.53894 1.15125 0.58851
 O1459 O 0.48171 0.90223 0.57067
 O1460 O 0.48190 0.87913 0.59363
 C1461 C 0.47511 0.88610 0.57754
 C1462 C 0.45902 0.87570 0.56697
 C1463 C 0.45173 0.85765 0.57407
 H1464 H 0.45823 0.85105 0.58716
 O1465 O 0.59801 1.07313 0.52150
 O1466 O 0.62067 1.09640 0.52188
 C1467 C 0.61385 1.08029 0.52853
 C1468 C 0.62409 1.07007 0.54500
 C1469 C 0.64225 1.07700 0.55218
 H1470 H 0.64930 1.08937 0.54496
 O1471 O 0.40328 0.92875 0.51730
 O1472 O 0.38034 0.90576 0.51702
 C1473 C 0.38713 0.92186 0.52385
 C1474 C 0.37645 0.93246 0.53986
 C1475 C 0.35762 0.92624 0.54594
 H1476 H 0.35052 0.91414 0.53828
 O1477 O 0.47833 1.07225 0.59873
 O1478 O 0.47771 1.09525 0.62187
 C1479 C 0.47128 1.07914 0.61476
 C1480 C 0.45520 1.06848 0.62499
 C1481 C 0.44832 1.07490 0.64353
 H1482 H 0.45505 1.08759 0.65052
 O1483 O 0.51979 0.92966 0.59808
 O1484 O 0.52003 0.90653 0.62100
 C1485 C 0.52655 0.92269 0.61418
 C1486 C 0.54249 0.93322 0.62483
 C1487 C 0.54923 0.92636 0.64326
 H1488 H 0.54209 0.91385 0.65010
 O1489 O 0.59824 0.98327 0.57263
 O1490 O 0.62113 0.98328 0.59591
 C1491 C 0.61447 0.97677 0.57956
 C1492 C 0.62545 0.96124 0.56862
 C1493 C 0.64473 0.95581 0.57426
 H1494 H 0.65192 0.96357 0.58629
 O1495 O 0.40087 1.01940 0.57052
 O1496 O 0.37737 1.01894 0.59314
 C1497 C 0.38448 1.02582 0.57719
 C1498 C 0.37389 1.04176 0.56649
 C1499 C 0.35515 1.04832 0.57280
 H1500 H 0.34817 1.04141 0.58542
 O1501 O 0.42694 1.09853 0.51883
 O1502 O 0.40350 1.12135 0.51876
 C1503 C 0.41968 1.11452 0.52558
 C1504 C 0.42998 1.12506 0.54176
 C1505 C 0.42351 1.14382 0.54792
 H1506 H 0.41134 1.15095 0.54025
 O1507 O 0.57365 0.90400 0.51940
 O1508 O 0.59716 0.88127 0.51984
 C1509 C 0.58076 0.88800 0.52623
 C1510 C 0.56997 0.87738 0.54200
 C1511 C 0.57626 0.85858 0.54827
 H1512 H 0.58869 0.85147 0.54102
 O1513 O 0.42737 1.01979 0.59822
 O1514 O 0.40402 1.01931 0.62099
 C1515 C 0.42003 1.02636 0.61426
 C1516 C 0.43007 1.04270 0.62482
 C1517 C 0.42334 1.04934 0.64339
 H1518 H 0.41110 1.04196 0.65051
 O1519 O 0.57114 0.98236 0.59965
 O1520 O 0.59382 0.98228 0.62313
 C1521 C 0.57799 0.97544 0.61574
 C1522 C 0.56765 0.95896 0.62565
 C1523 C 0.57422 0.95184 0.64406
 H1524 H 0.58676 0.95868 0.65127
 O1525 O 0.52036 0.90302 0.57056
 O1526 O 0.52056 0.87978 0.59337
 C1527 C 0.52733 0.88697 0.57740
 C1528 C 0.54375 0.87685 0.56692
 C1529 C 0.55027 0.85810 0.57299
 H1530 H 0.54298 0.85086 0.58523
 O1531 O 0.47849 1.09921 0.57161
 O1532 O 0.47786 1.12235 0.59462
 C1533 C 0.47145 1.11528 0.57842
 C1534 C 0.45535 1.12552 0.56755
 C1535 C 0.44866 1.14429 0.57352
 H1536 H 0.45557 1.15156 0.58601
 O1537 O 0.40035 1.07120 0.51823
 O1538 O 0.37679 1.09388 0.51820
 C1539 C 0.38405 1.07787 0.52487
 C1540 C 0.37372 1.06718 0.54086
 C1541 C 0.35500 1.07348 0.54733
 H1542 H 0.34767 1.08567 0.53992
 O1543 O 0.59998 0.93164 0.51978
 O1544 O 0.62368 0.90910 0.52010
 C1545 C 0.61621 0.92507 0.52669
 C1546 C 0.62628 0.93599 0.54275
 C1547 C 0.64551 0.93071 0.54864
 H1548 H 0.65310 0.91866 0.54122
 O1549 O 0.48121 0.92951 0.59762
 O1550 O 0.48146 0.90651 0.62068
 C1551 C 0.47453 0.92254 0.61371
 C1552 C 0.45824 0.93299 0.62409
 C1553 C 0.45178 0.92663 0.64276
 H1554 H 0.45937 0.91451 0.65001
 O1555 O 0.51688 1.07225 0.59923
 O1556 O 0.51627 1.09518 0.62244
 C1557 C 0.52325 1.07913 0.61551
 C1558 C 0.53920 1.06852 0.62623
 C1559 C 0.54500 1.07459 0.64523
 H1560 H 0.53752 1.08695 0.65222
 O1561 O 0.40196 0.98093 0.57010
 O1562 O 0.37844 0.98041 0.59269
 C1563 C 0.38587 0.97392 0.57664
 C1564 C 0.37588 0.95785 0.56566
 C1565 C 0.35711 0.95135 0.57155
 H1566 H 0.34984 0.95830 0.58406
 O1567 O 0.59791 1.02166 0.57375
 O1568 O 0.62063 1.02175 0.59719
 C1569 C 0.61378 1.02853 0.58105
 C1570 C 0.62406 1.04482 0.57078
 C1571 C 0.64224 1.05199 0.57781
 H1572 H 0.64902 1.04535 0.59073
 O1573 O 0.43045 0.90165 0.51772
 O1574 O 0.40765 0.87851 0.51749
 C1575 C 0.42355 0.88562 0.52447
 C1576 C 0.43382 0.87548 0.54100
 C1577 C 0.42678 0.85745 0.54828
 H1578 H 0.41435 0.85041 0.54109
 O1579 O 0.57041 1.09979 0.52118
 O1580 O 0.59295 1.12318 0.52156
 C1581 C 0.57691 1.11596 0.52806
 C1582 C 0.56590 1.12617 0.54409
 C1583 C 0.57200 1.14473 0.55102
 H1584 H 0.58434 1.15203 0.54399
 Cu1585 Cu 0.58203 1.00205 0.58417
 Cu1586 Cu 0.60929 1.00204 0.61232
 Cu1587 Cu 0.41703 1.00042 0.58191
 Cu1588 Cu 0.38888 0.99976 0.60911
 Cu1589 Cu 0.49776 1.08348 0.58313
 Cu1590 Cu 0.49703 1.11113 0.61088
 Cu1591 Cu 0.50072 0.91840 0.58192
 Cu1592 Cu 0.50102 0.89066 0.60946
 C1593 C 0.54927 1.05273 0.61715
 H1594 H 0.54502 1.04814 0.60239
 C1595 C 0.56074 1.06515 0.65509
 C1596 C 0.44854 0.94897 0.61499
 H1597 H 0.45330 0.95381 0.60049
 C1598 C 0.43565 0.93587 0.65218
 C1599 C 0.54969 1.11698 0.55314
 H1600 H 0.54505 1.10256 0.54806
 C1601 C 0.56224 1.15398 0.56694
 C1602 C 0.45007 0.88438 0.55032
 H1603 H 0.45540 0.89843 0.54495
 C1604 C 0.43557 0.84845 0.56486
 C1605 C 0.61522 1.05386 0.55428
 H1606 H 0.60108 1.04860 0.54895
 C1607 C 0.65144 1.06811 0.56860
 C1608 C 0.38537 0.94841 0.54970
 H1609 H 0.39997 0.95316 0.54525
 C1610 C 0.34782 0.93561 0.56175
 C1611 C 0.44611 1.05227 0.61587
 H1612 H 0.45122 1.04741 0.60146
 C1613 C 0.43246 1.06540 0.65291
 C1614 C 0.55167 0.94964 0.61624
 H1615 H 0.54671 0.95484 0.60191
 C1616 C 0.56512 0.93552 0.65297
 C1617 C 0.61644 0.95138 0.55271
 H1618 H 0.60150 0.95536 0.54841
 C1619 C 0.65491 0.94060 0.56430
 C1620 C 0.38296 1.05119 0.55039
 H1621 H 0.39753 1.04643 0.54563
 C1622 C 0.34562 1.06420 0.56331
 C1623 C 0.44602 1.11612 0.55155
 H1624 H 0.45093 1.10154 0.54702
 C1625 C 0.43275 1.15357 0.56376
 C1626 C 0.55358 0.88628 0.55129
 H1627 H 0.54878 0.90086 0.54669
 C1628 C 0.56644 0.84880 0.56371
 O1629 O 0.57294 0.98334 0.40233
 O1630 O 0.59597 0.98382 0.37923
 C1631 C 0.58000 0.97685 0.38614
 C1632 C 0.56973 0.96077 0.37551
 C1633 C 0.57600 0.95476 0.35661
 H1634 H 0.58828 0.96217 0.34960
 O1635 O 0.42975 1.01998 0.40104
 O1636 O 0.40721 1.01987 0.37743
 C1637 C 0.42303 1.02674 0.38484
 C1638 C 0.43346 1.04311 0.37486
 C1639 C 0.42731 1.04975 0.35614
 H1640 H 0.41540 1.04226 0.34855
 O1641 O 0.48008 1.10020 0.42961
 O1642 O 0.48010 1.12338 0.40673
 C1643 C 0.47324 1.11628 0.42267
 C1644 C 0.45682 1.12646 0.43302
 C1645 C 0.44999 1.14501 0.42664
 H1646 H 0.45711 1.15215 0.41423
 O1647 O 0.52250 0.90303 0.42850
 O1648 O 0.52330 0.88016 0.40525
 C1649 C 0.52971 0.88713 0.42148
 C1650 C 0.54602 0.87699 0.43213
 C1651 C 0.55329 0.85859 0.42564
 H1652 H 0.54666 0.85152 0.41289
 O1653 O 0.60081 0.93122 0.48117
 O1654 O 0.62442 0.90859 0.48143
 C1655 C 0.61711 0.92450 0.47456
 C1656 C 0.62730 0.93509 0.45834
 C1657 C 0.64572 0.92849 0.45114
 H1658 H 0.65285 0.91576 0.45779
 O1659 O 0.40083 1.07148 0.47960
 O1660 O 0.37727 1.09416 0.47955
 C1661 C 0.38467 1.07825 0.47272
 C1662 C 0.37466 1.06778 0.45629
 C1663 C 0.35623 1.07437 0.44926
 H1664 H 0.34888 1.08667 0.45650
 O1665 O 0.51917 1.07330 0.40294
 O1666 O 0.51907 1.09629 0.37986
 C1667 C 0.52586 1.08021 0.38684
 C1668 C 0.54186 1.06957 0.37630
 C1669 C 0.54740 1.07522 0.35714
 H1670 H 0.53974 1.08735 0.34996
 O1671 O 0.48355 0.92990 0.40148
 O1672 O 0.48428 0.90710 0.37814
 C1673 C 0.47711 0.92301 0.38523
 C1674 C 0.46081 0.93331 0.37473
 C1675 C 0.45429 0.92645 0.35626
 H1676 H 0.46183 0.91410 0.34928
 O1677 O 0.59918 1.02192 0.42996
 O1678 O 0.62239 1.02237 0.40705
 C1679 C 0.61524 1.02882 0.42322
 C1680 C 0.62549 1.04471 0.43418
 C1681 C 0.64433 1.05100 0.42831
 H1682 H 0.65150 1.04401 0.41577
 O1683 O 0.40287 0.98103 0.42731
 O1684 O 0.38017 0.98084 0.40386
 C1685 C 0.38705 0.97409 0.42001
 C1686 C 0.37695 0.95761 0.43015
 C1687 C 0.35888 0.95038 0.42299
 H1688 H 0.35179 0.95753 0.41050
 O1689 O 0.57080 1.09978 0.48263
 O1690 O 0.59340 1.12311 0.48296
 C1691 C 0.57749 1.11596 0.47605
 C1692 C 0.56688 1.12632 0.45991
 C1693 C 0.57331 1.14484 0.45334
 H1694 H 0.58597 1.15168 0.46034
 O1695 O 0.43095 0.90150 0.47911
 O1696 O 0.40827 0.87826 0.47878
 C1697 C 0.42436 0.88536 0.47225
 C1698 C 0.43533 0.87516 0.45616
 C1699 C 0.42917 0.85670 0.44891
 H1700 H 0.41652 0.84949 0.45547
 O1701 O 0.43030 0.98146 0.40063
 O1702 O 0.40774 0.98126 0.37704
 C1703 C 0.42379 0.97466 0.38436
 C1704 C 0.43477 0.95856 0.37421
 C1705 C 0.42845 0.95143 0.35571
 H1706 H 0.41569 0.95805 0.34855
 O1707 O 0.57224 1.02179 0.40263
 O1708 O 0.59528 1.02228 0.37954
 C1709 C 0.57900 1.02865 0.38654
 C1710 C 0.56792 1.04442 0.37611
 C1711 C 0.57328 1.05027 0.35692
 H1712 H 0.58531 1.04275 0.34937
 O1713 O 0.48387 0.90253 0.42815
 O1714 O 0.48465 0.87965 0.40489
 C1715 C 0.47753 0.88644 0.42094
 C1716 C 0.46136 0.87581 0.43104
 C1717 C 0.45495 0.85745 0.42397
 H1718 H 0.46248 0.85060 0.41156
 O1719 O 0.51867 1.10010 0.43030
 O1720 O 0.51874 1.12323 0.40736
 C1721 C 0.52537 1.11619 0.42350
 C1722 C 0.54139 1.12649 0.43425
 C1723 C 0.54798 1.14506 0.42793
 H1724 H 0.54067 1.15233 0.41564
 O1725 O 0.40349 0.92840 0.47868
 O1726 O 0.38067 0.90529 0.47836
 C1727 C 0.38755 0.92137 0.47171
 C1728 C 0.37721 0.93180 0.45540
 C1729 C 0.35915 0.92476 0.44800
 H1730 H 0.35254 0.91178 0.45451
 O1731 O 0.59854 1.07322 0.48284
 O1732 O 0.62129 1.09641 0.48318
 C1733 C 0.61460 1.08030 0.47629
 C1734 C 0.62525 1.06988 0.46015
 C1735 C 0.64414 1.07598 0.45408
 H1736 H 0.65138 1.08795 0.46181
 O1737 O 0.52210 0.93035 0.40169
 O1738 O 0.52283 0.90761 0.37830
 C1739 C 0.52908 0.92374 0.38551
 C1740 C 0.54487 0.93475 0.37524
 C1741 C 0.55135 0.92893 0.35635
 H1742 H 0.54421 0.91672 0.34890
 O1743 O 0.48068 1.07297 0.40269
 O1744 O 0.48060 1.09602 0.37968
 C1745 C 0.47405 1.07986 0.38651
 C1746 C 0.45834 1.06912 0.37573
 C1747 C 0.45195 1.07558 0.35705
 H1748 H 0.45873 1.08840 0.35038
 O1749 O 0.40195 1.01956 0.42735
 O1750 O 0.37924 1.01947 0.40390
 C1751 C 0.38587 1.02621 0.42015
 C1752 C 0.37514 1.04231 0.43059
 C1753 C 0.35668 1.04915 0.42374
 H1754 H 0.34993 1.04230 0.41092
 O1755 O 0.59985 0.98344 0.42957
 O1756 O 0.62301 0.98385 0.40659
 C1757 C 0.61607 0.97691 0.42260
 C1758 C 0.62669 0.96075 0.43294
 C1759 C 0.64507 0.95398 0.42598
 H1760 H 0.65196 0.96128 0.41353
 O1761 O 0.57411 0.90403 0.48087
 O1762 O 0.59760 0.88127 0.48123
 C1763 C 0.58146 0.88802 0.47426
 C1764 C 0.57133 0.87747 0.45798
 C1765 C 0.57836 0.85908 0.45134
 H1766 H 0.59076 0.85213 0.45881
 O1767 O 0.42717 1.09909 0.48032
 O1768 O 0.40370 1.12188 0.48025
 C1769 C 0.42004 1.11518 0.47371
 C1770 C 0.43069 1.12589 0.45795
 C1771 C 0.42407 1.14447 0.45142
 H1772 H 0.41149 1.15144 0.45855
 Cu1773 Cu 0.58373 1.00260 0.41842
 Cu1774 Cu 0.61151 1.00315 0.39081
 Cu1775 Cu 0.41846 1.00053 0.41644
 Cu1776 Cu 0.39131 1.00035 0.38819
 Cu1777 Cu 0.58220 1.08413 0.50199
 Cu1778 Cu 0.60936 1.11211 0.50242
 Cu1779 Cu 0.58480 0.92000 0.50028
 Cu1780 Cu 0.61309 0.89278 0.50074
 Cu1781 Cu 0.41617 1.08279 0.49923
 Cu1782 Cu 0.38792 1.11007 0.49920
 Cu1783 Cu 0.41933 0.91737 0.49820
 Cu1784 Cu 0.39194 0.88963 0.49789
 Cu1785 Cu 0.49965 1.08436 0.41872
 Cu1786 Cu 0.49964 1.11207 0.39111
 Cu1787 Cu 0.50297 0.91872 0.41731
 Cu1788 Cu 0.50385 0.89133 0.38931
 C1789 C 0.55403 0.95080 0.38460
 H1790 H 0.54928 0.95521 0.39928
 C1791 C 0.56687 0.93888 0.34689
 C1792 C 0.44911 1.05278 0.38444
 H1793 H 0.45378 1.04789 0.39898
 C1794 C 0.43647 1.06598 0.34712
 C1795 C 0.44719 1.11713 0.44880
 H1796 H 0.45221 1.10269 0.45360
 C1797 C 0.43364 1.15416 0.43576
 C1798 C 0.55505 0.88620 0.44841
 H1799 H 0.54972 0.90051 0.45331
 C1800 C 0.56947 0.84952 0.43518
 C1801 C 0.61802 0.95134 0.44923
 H1802 H 0.60370 0.95634 0.45449
 C1803 C 0.65468 0.93783 0.43490
 C1804 C 0.38391 1.05163 0.44697
 H1805 H 0.39826 1.04665 0.45215
 C1806 C 0.34713 1.06521 0.43297
 C1807 C 0.55207 1.05405 0.38559
 H1808 H 0.54798 1.04977 0.40047
 C1809 C 0.56299 1.06557 0.34726
 C1810 C 0.45108 0.94948 0.38351
 H1811 H 0.45586 0.95468 0.39790
 C1812 C 0.43810 0.93534 0.34667
 C1813 C 0.61616 1.05412 0.45021
 H1814 H 0.60151 1.04950 0.45464
 C1815 C 0.65384 1.06654 0.43822
 C1816 C 0.38589 0.94833 0.44648
 H1817 H 0.39996 0.95366 0.45192
 C1818 C 0.34987 0.93394 0.43179
 C1819 C 0.55080 1.11735 0.45039
 H1820 H 0.54596 1.10292 0.45519
 C1821 C 0.56395 1.15435 0.43739
 C1822 C 0.45157 0.88445 0.44724
 H1823 H 0.45626 0.89877 0.45254
 C1824 C 0.43888 0.84780 0.43276
 O1825 O 0.47933 0.42872 0.90142
 O1826 O 0.47923 0.40555 0.87845
 C1827 C 0.47260 0.42175 0.88531
 C1828 C 0.45653 0.43235 0.87483
 C1829 C 0.44969 0.42578 0.85636
 H1830 H 0.45692 0.41335 0.84922
 O1831 O 0.51798 0.57103 0.90194
 O1832 O 0.51781 0.59398 0.87884
 C1833 C 0.52467 0.57791 0.88583
 C1834 C 0.54095 0.56735 0.87546
 C1835 C 0.54811 0.57429 0.85725
 H1836 H 0.54142 0.58723 0.85055
 O1837 O 0.40170 0.48054 0.92939
 O1838 O 0.37803 0.48084 0.90690
 C1839 C 0.38538 0.47401 0.92282
 C1840 C 0.37499 0.45813 0.93364
 C1841 C 0.35639 0.45159 0.92720
 H1842 H 0.34956 0.45835 0.91436
 O1843 O 0.59783 0.51778 0.92800
 O1844 O 0.62074 0.51760 0.90477
 C1845 C 0.61392 0.52434 0.92098
 C1846 C 0.62448 0.54029 0.93154
 C1847 C 0.64333 0.54628 0.92535
 H1848 H 0.65046 0.53886 0.91302
 O1849 O 0.42783 0.40183 0.98243
 O1850 O 0.40460 0.37913 0.98247
 C1851 C 0.42064 0.38596 0.97553
 C1852 C 0.43075 0.37580 0.95884
 C1853 C 0.42362 0.35782 0.95129
 H1854 H 0.41092 0.35089 0.95807
 O1855 O 0.57120 0.59771 0.97987
 O1856 O 0.59422 0.62062 0.97952
 C1857 C 0.57804 0.61372 0.97301
 C1858 C 0.56731 0.62415 0.95698
 C1859 C 0.57407 0.64238 0.94994
 H1860 H 0.58671 0.64928 0.95689
 O1861 O 0.42782 0.51928 0.90192
 O1862 O 0.40421 0.51964 0.87938
 C1863 C 0.42043 0.52627 0.88609
 C1864 C 0.43061 0.54258 0.87575
 C1865 C 0.42342 0.54988 0.85762
 H1866 H 0.41051 0.54325 0.85090
 O1867 O 0.57034 0.47971 0.90090
 O1868 O 0.59302 0.47954 0.87746
 C1869 C 0.57703 0.47292 0.88467
 C1870 C 0.56636 0.45677 0.87450
 C1871 C 0.57285 0.44953 0.85608
 H1872 H 0.58553 0.45614 0.84894
 O1873 O 0.51763 0.40165 0.92905
 O1874 O 0.51737 0.37832 0.90624
 C1875 C 0.52415 0.38536 0.92229
 C1876 C 0.54006 0.37469 0.93295
 C1877 C 0.54597 0.35577 0.92677
 H1878 H 0.53860 0.34886 0.91435
 O1879 O 0.47950 0.59835 0.92920
 O1880 O 0.47906 0.62141 0.90621
 C1881 C 0.47250 0.61440 0.92235
 C1882 C 0.45618 0.62457 0.93304
 C1883 C 0.44830 0.64256 0.92612
 H1884 H 0.45451 0.64937 0.91305
 O1885 O 0.40206 0.57068 0.98307
 O1886 O 0.37851 0.59339 0.98341
 C1887 C 0.38568 0.57737 0.97661
 C1888 C 0.37512 0.56663 0.96074
 C1889 C 0.35598 0.57245 0.95495
 H1890 H 0.34856 0.58444 0.96263
 O1891 O 0.59793 0.42727 0.97998
 O1892 O 0.62085 0.40395 0.97942
 C1893 C 0.61381 0.42010 0.97284
 C1894 C 0.62396 0.43038 0.95643
 C1895 C 0.64221 0.42338 0.94933
 H1896 H 0.64929 0.41089 0.95648
 O1897 O 0.47936 0.57141 0.90196
 O1898 O 0.47910 0.59435 0.87885
 C1899 C 0.47244 0.57835 0.88591
 C1900 C 0.45610 0.56801 0.87570
 C1901 C 0.44876 0.57503 0.85757
 H1902 H 0.45578 0.58752 0.85054
 O1903 O 0.51790 0.42850 0.90177
 O1904 O 0.51775 0.40524 0.87889
 C1905 C 0.52458 0.42130 0.88572
 C1906 C 0.54075 0.43147 0.87514
 C1907 C 0.54743 0.42445 0.85675
 H1908 H 0.54011 0.41204 0.84986
 O1909 O 0.59768 0.47926 0.92775
 O1910 O 0.62050 0.47904 0.90445
 C1911 C 0.61365 0.47231 0.92058
 C1912 C 0.62400 0.45592 0.93090
 C1913 C 0.64231 0.44868 0.92400
 H1914 H 0.64921 0.45542 0.91125
 O1915 O 0.40183 0.51892 0.93002
 O1916 O 0.37807 0.51923 0.90763
 C1917 C 0.38545 0.52566 0.92368
 C1918 C 0.37506 0.54134 0.93491
 C1919 C 0.35595 0.54732 0.92938
 H1920 H 0.34872 0.54021 0.91699
 O1921 O 0.42877 0.59796 0.98252
 O1922 O 0.40529 0.62072 0.98283
 C1923 C 0.42137 0.61388 0.97580
 C1924 C 0.43122 0.62423 0.95924
 C1925 C 0.42361 0.64220 0.95214
 H1926 H 0.41108 0.64902 0.95951
 O1927 O 0.57063 0.40066 0.98076
 O1928 O 0.59342 0.37721 0.98017
 C1929 C 0.57720 0.38444 0.97388
 C1930 C 0.56604 0.37419 0.95810
 C1931 C 0.57174 0.35523 0.95173
 H1932 H 0.58393 0.34769 0.95898
 O1933 O 0.57020 0.51827 0.90144
 O1934 O 0.59295 0.51819 0.87807
 C1935 C 0.57698 0.52509 0.88534
 C1936 C 0.56649 0.54155 0.87526
 C1937 C 0.57336 0.54870 0.85705
 H1938 H 0.58583 0.54153 0.84990
 O1939 O 0.42796 0.48078 0.90148
 O1940 O 0.40442 0.48104 0.87886
 C1941 C 0.42068 0.47421 0.88546
 C1942 C 0.43105 0.45807 0.87484
 C1943 C 0.42433 0.45130 0.85637
 H1944 H 0.41160 0.45827 0.84950
 O1945 O 0.51812 0.59840 0.92869
 O1946 O 0.51780 0.62148 0.90572
 C1947 C 0.52478 0.61443 0.92169
 C1948 C 0.54121 0.62459 0.93194
 C1949 C 0.54821 0.64282 0.92506
 H1950 H 0.54121 0.64977 0.91242
 O1951 O 0.47902 0.40239 0.92918
 O1952 O 0.47884 0.37918 0.90625
 C1953 C 0.47214 0.38637 0.92231
 C1954 C 0.45588 0.37623 0.93279
 C1955 C 0.44851 0.35833 0.92549
 H1956 H 0.45533 0.35154 0.91264
 O1957 O 0.59821 0.57038 0.97970
 O1958 O 0.62136 0.59316 0.97941
 C1959 C 0.61428 0.57710 0.97281
 C1960 C 0.62458 0.56626 0.95674
 C1961 C 0.64337 0.57215 0.95023
 H1962 H 0.65070 0.58441 0.95739
 O1963 O 0.40112 0.42938 0.98280
 O1964 O 0.37777 0.40681 0.98297
 C1965 C 0.38492 0.42269 0.97610
 C1966 C 0.37465 0.43317 0.95975
 C1967 C 0.35602 0.42685 0.95306
 H1968 H 0.34868 0.41481 0.96052
 Cu1969 Cu 0.49849 0.41767 0.91764
 Cu1970 Cu 0.49830 0.38971 0.89018
 Cu1971 Cu 0.49876 0.58252 0.91776
 Cu1972 Cu 0.49842 0.61011 0.89008
 Cu1973 Cu 0.41725 0.49983 0.91790
 Cu1974 Cu 0.38881 0.50023 0.89092
 Cu1975 Cu 0.58174 0.49875 0.91685
 Cu1976 Cu 0.60907 0.49861 0.88883
 C1977 C 0.44726 0.44862 0.88382
 H1978 H 0.45231 0.45357 0.89820
 C1979 C 0.43358 0.43513 0.84701
 C1980 C 0.55016 0.55088 0.88427
 H1981 H 0.54496 0.54563 0.89846
 C1982 C 0.56434 0.56510 0.84797
 C1983 C 0.38392 0.44894 0.95003
 H1984 H 0.39838 0.45373 0.95491
 C1985 C 0.34677 0.43600 0.93680
 C1986 C 0.61534 0.55023 0.94738
 H1987 H 0.60071 0.54580 0.95210
 C1988 C 0.65288 0.56216 0.93463
 C1989 C 0.44701 0.38477 0.94956
 H1990 H 0.45245 0.39875 0.95508
 C1991 C 0.43237 0.34907 0.93452
 C1992 C 0.55076 0.61547 0.94801
 H1993 H 0.54565 0.60127 0.95319
 C1994 C 0.56466 0.65181 0.93395
 C1995 C 0.44705 0.55166 0.88455
 H1996 H 0.45248 0.54634 0.89867
 C1997 C 0.43239 0.56614 0.84844
 C1998 C 0.55019 0.44774 0.88380
 H1999 H 0.54528 0.45304 0.89812
 C2000 C 0.56350 0.43332 0.84712
 C2001 C 0.55003 0.38370 0.94876
 H2002 H 0.54570 0.39842 0.95341
 C2003 C 0.56174 0.34590 0.93610
 C2004 C 0.44761 0.61564 0.94971
 H2005 H 0.45337 0.60163 0.95495
 C2006 C 0.43195 0.65145 0.93555
 C2007 C 0.38447 0.55093 0.95075
 H2008 H 0.39933 0.54653 0.95494
 C2009 C 0.34627 0.56279 0.93934
 C2010 C 0.61506 0.44676 0.94723
 H2011 H 0.60084 0.45206 0.95248
 C2012 C 0.65149 0.43237 0.93311
 O2013 O 0.52063 0.42751 1.09840
 O2014 O 0.52139 0.40468 1.12161
 C2015 C 0.52792 0.42067 1.11432
 C2016 C 0.54446 0.43123 1.12410
 C2017 C 0.55189 0.42484 1.14248
 H2018 H 0.54524 0.41235 1.14986
 O2019 O 0.48229 0.57125 1.09971
 O2020 O 0.48297 0.59421 1.12287
 C2021 C 0.47604 0.57819 1.11604
 C2022 C 0.46023 0.56775 1.12693
 C2023 C 0.45398 0.57449 1.14557
 H2024 H 0.46106 0.58719 1.15220
 O2025 O 0.40360 0.51914 1.07462
 O2026 O 0.38068 0.51949 1.09783
 C2027 C 0.38753 0.52601 1.08161
 C2028 C 0.37694 0.54195 1.07087
 C2029 C 0.35814 0.54840 1.07710
 H2030 H 0.35123 0.54152 1.08977
 O2031 O 0.60035 0.47986 1.06970
 O2032 O 0.62373 0.47974 1.09248
 C2033 C 0.61656 0.47304 1.07646
 C2034 C 0.62679 0.45677 1.06584
 C2035 C 0.64557 0.45011 1.07191
 H2036 H 0.65310 0.45761 1.08389
 O2037 O 0.57166 0.40059 1.01930
 O2038 O 0.59456 0.37725 1.01872
 C2039 C 0.57864 0.38440 1.02582
 C2040 C 0.56837 0.37397 1.04205
 C2041 C 0.57515 0.35544 1.04854
 H2042 H 0.58748 0.34838 1.04106
 O2043 O 0.42932 0.59815 1.02123
 O2044 O 0.40587 0.62095 1.02152
 C2045 C 0.42215 0.61414 1.02811
 C2046 C 0.43255 0.62456 1.04432
 C2047 C 0.42538 0.64270 1.05146
 H2048 H 0.41271 0.64959 1.04439
 O2049 O 0.43081 0.48052 1.10160
 O2050 O 0.40811 0.48077 1.12502
 C2051 C 0.42407 0.47384 1.11778
 C2052 C 0.43469 0.45750 1.12789
 C2053 C 0.42851 0.45073 1.14653
 H2054 H 0.41607 0.45780 1.15383
 O2055 O 0.57313 0.51837 1.09711
 O2056 O 0.59635 0.51812 1.12005
 C2057 C 0.58019 0.52498 1.11322
 C2058 C 0.56981 0.54116 1.12386
 C2059 C 0.57663 0.54754 1.14240
 H2060 H 0.58897 0.53997 1.14935
 O2061 O 0.48121 0.40054 1.07261
 O2062 O 0.48162 0.37756 1.09566
 C2063 C 0.47444 0.38462 1.07974
 C2064 C 0.45772 0.37467 1.06960
 C2065 C 0.45001 0.35679 1.07676
 H2066 H 0.45663 0.34986 1.08962
 O2067 O 0.52008 0.59801 1.07154
 O2068 O 0.52066 0.62117 1.09452
 C2069 C 0.52695 0.61410 1.07824
 C2070 C 0.54264 0.62446 1.06715
 C2071 C 0.54881 0.64335 1.07298
 H2072 H 0.54183 0.65049 1.08555
 O2073 O 0.40156 0.42923 1.02158
 O2074 O 0.37818 0.40670 1.02178
 C2075 C 0.38550 0.42256 1.02859
 C2076 C 0.37563 0.43311 1.04518
 C2077 C 0.35706 0.42701 1.05218
 H2078 H 0.34949 0.41497 1.04490
 O2079 O 0.59881 0.57072 1.01830
 O2080 O 0.62178 0.59367 1.01806
 C2081 C 0.61493 0.57766 1.02491
 C2082 C 0.62553 0.56729 1.04108
 C2083 C 0.64368 0.57439 1.04814
 H2084 H 0.65043 0.58699 1.04105
 O2085 O 0.52085 0.57107 1.09870
 O2086 O 0.52161 0.59404 1.12185
 C2087 C 0.52808 0.57789 1.11464
 C2088 C 0.54444 0.56708 1.12459
 C2089 C 0.55152 0.57326 1.14316
 H2090 H 0.54477 0.58587 1.15045
 O2091 O 0.48207 0.42754 1.09983
 O2092 O 0.48271 0.40470 1.12304
 C2093 C 0.47581 0.42080 1.11619
 C2094 C 0.46000 0.43154 1.12704
 C2095 C 0.45366 0.42503 1.14569
 H2096 H 0.46103 0.41256 1.15259
 O2097 O 0.60010 0.51846 1.06989
 O2098 O 0.62339 0.51834 1.09276
 C2099 C 0.61619 0.52522 1.07681
 C2100 C 0.62622 0.54163 1.06646
 C2101 C 0.64438 0.54900 1.07339
 H2102 H 0.65138 0.54232 1.08617
 O2103 O 0.40347 0.48069 1.07469
 O2104 O 0.38060 0.48098 1.09796
 C2105 C 0.38737 0.47418 1.08175
 C2106 C 0.37661 0.45832 1.07116
 C2107 C 0.35804 0.45203 1.07788
 H2108 H 0.35145 0.45900 1.09075
 O2109 O 0.57145 0.59769 1.01844
 O2110 O 0.59430 0.62077 1.01811
 C2111 C 0.57831 0.61384 1.02501
 C2112 C 0.56775 0.62436 1.04113
 C2113 C 0.57366 0.64330 1.04712
 H2114 H 0.58552 0.65062 1.03931
 O2115 O 0.42853 0.40186 1.02111
 O2116 O 0.40526 0.37921 1.02125
 C2117 C 0.42148 0.38592 1.02791
 C2118 C 0.43190 0.37541 1.04416
 C2119 C 0.42451 0.35756 1.05148
 H2120 H 0.41174 0.35093 1.04449
 O2121 O 0.57307 0.47976 1.09662
 O2122 O 0.59636 0.47958 1.11949
 C2123 C 0.58022 0.47290 1.11259
 C2124 C 0.56997 0.45672 1.12310
 C2125 C 0.57716 0.45004 1.14139
 H2126 H 0.58972 0.45727 1.14815
 O2127 O 0.43080 0.51911 1.10162
 O2128 O 0.40807 0.51948 1.12501
 C2129 C 0.42406 0.52607 1.11777
 C2130 C 0.43473 0.54233 1.12782
 C2131 C 0.42860 0.54936 1.14646
 H2132 H 0.41640 0.54233 1.15399
 O2133 O 0.48152 0.59851 1.07287
 O2134 O 0.48200 0.62161 1.09590
 C2135 C 0.47485 0.61461 1.07998
 C2136 C 0.45830 0.62489 1.06977
 C2137 C 0.45090 0.64310 1.07673
 H2138 H 0.45765 0.65006 1.08949
 O2139 O 0.51988 0.40000 1.07181
 O2140 O 0.52046 0.37697 1.09482
 C2141 C 0.52686 0.38391 1.07860
 C2142 C 0.54297 0.37359 1.06778
 C2143 C 0.54998 0.35504 1.07409
 H2144 H 0.54323 0.34793 1.08671
 O2145 O 0.59897 0.42728 1.01856
 O2146 O 0.62199 0.40406 1.01804
 C2147 C 0.61524 0.42023 1.02489
 C2148 C 0.62611 0.43084 1.04066
 C2149 C 0.64487 0.42433 1.04695
 H2150 H 0.65162 0.41154 1.03998
 O2151 O 0.40277 0.57076 1.02169
 O2152 O 0.37925 0.59349 1.02193
 C2153 C 0.38662 0.57754 1.02861
 C2154 C 0.37651 0.56703 1.04490
 C2155 C 0.35769 0.57318 1.05127
 H2156 H 0.35018 0.58509 1.04360
 Cu2157 Cu 0.50087 0.41614 1.08334
 Cu2158 Cu 0.50161 0.38867 1.11109
 Cu2159 Cu 0.50111 0.58242 1.08339
 Cu2160 Cu 0.50190 0.61007 1.11111
 Cu2161 Cu 0.41707 0.41784 1.00197
 Cu2162 Cu 0.38912 0.39070 1.00215
 Cu2163 Cu 0.58251 0.41630 0.99973
 Cu2164 Cu 0.61002 0.38828 0.99903
 Cu2165 Cu 0.41810 0.58212 1.00209
 Cu2166 Cu 0.38990 0.60945 1.00245
 Cu2167 Cu 0.58262 0.58182 0.99910
 Cu2168 Cu 0.61024 0.60935 0.99874
 Cu2169 Cu 0.41948 0.49984 1.08585
 Cu2170 Cu 0.39209 0.50021 1.11381
 Cu2171 Cu 0.58436 0.49914 1.08101
 Cu2172 Cu 0.61227 0.49891 1.10850
 C2173 C 0.55352 0.44732 1.11462
 H2174 H 0.54808 0.45222 1.10035
 C2175 C 0.56829 0.43413 1.15115
 C2176 C 0.45067 0.55153 1.11830
 H2177 H 0.45530 0.54641 1.10381
 C2178 C 0.43823 0.56539 1.15549
 C2179 C 0.38594 0.55128 1.05466
 H2180 H 0.40055 0.54659 1.04995
 C2181 C 0.34838 0.56399 1.06736
 C2182 C 0.61731 0.44716 1.05009
 H2183 H 0.60272 0.45207 1.04551
 C2184 C 0.65476 0.43390 1.06254
 C2185 C 0.55216 0.38283 1.05165
 H2186 H 0.54703 0.39724 1.04688
 C2187 C 0.56610 0.34586 1.06455
 C2188 C 0.44910 0.61588 1.05345
 H2189 H 0.45451 0.60173 1.04817
 C2190 C 0.43437 0.65206 1.06769
 C2191 C 0.45055 0.44790 1.11838
 H2192 H 0.45520 0.45284 1.10388
 C2193 C 0.43791 0.43448 1.15555
 C2194 C 0.55360 0.55091 1.11515
 H2195 H 0.54843 0.54622 1.10072
 C2196 C 0.56763 0.56357 1.15215
 C2197 C 0.44861 0.38374 1.05319
 H2198 H 0.45421 0.39765 1.04776
 C2199 C 0.43332 0.34818 1.06783
 C2200 C 0.55208 0.61517 1.05110
 H2201 H 0.54758 0.60049 1.04669
 C2202 C 0.56423 0.65294 1.06300
 C2203 C 0.38518 0.44889 1.05468
 H2204 H 0.39961 0.45352 1.04956
 C2205 C 0.34812 0.43643 1.06849
 C2206 C 0.61703 0.55079 1.05021
 H2207 H 0.60290 0.54541 1.04499
 C2208 C 0.65320 0.56542 1.06434
 C2209 C 1.09514 1.12864 1.28878
 C2210 C 1.08640 1.12204 1.27124
 C2211 C 1.09373 1.10535 1.26139
 C2212 C 1.10957 1.09484 1.26988
 C2213 C 1.11835 1.10135 1.28743
 C2214 C 1.11154 1.11860 1.29718
 C2215 C 1.08436 1.09920 1.24253
 C2216 C 1.09413 1.08907 1.22848
 C2217 C 1.08539 1.08330 1.20920
 C2218 C 1.09824 1.07852 1.19359
 C2219 C 1.09084 1.07248 1.17529
 C2220 C 1.07035 1.07090 1.17219
 C2221 C 1.05742 1.07573 1.18776
 C2222 C 1.06483 1.08178 1.20612
 H2223 H 1.08888 1.14176 1.29539
 H2224 H 1.07401 1.13026 1.26515
 H2225 H 1.11514 1.08140 1.26317
 H2226 H 1.13046 1.09259 1.29310
 H2227 H 1.06943 1.10433 1.23974
 H2228 H 1.10965 1.08564 1.23066
 H2229 H 1.11412 1.07951 1.19554
 H2230 H 1.10118 1.06911 1.16350
 H2231 H 1.04157 1.07435 1.18588
 H2232 H 1.05442 1.08475 1.21791
 C2233 C 1.14302 0.61239 0.77788
 C2234 C 1.13696 0.60460 0.75972
 C2235 C 1.11719 0.60631 0.75359
 C2236 C 1.10360 0.61632 0.76586
 C2237 C 1.10971 0.62423 0.78397
 C2238 C 1.12947 0.62232 0.79019
 C2239 C 1.11158 0.59825 0.73399
 C2240 C 1.09322 0.59221 0.72960
 C2241 C 1.08719 0.58445 0.70993
 C2242 C 1.06691 0.58329 0.70561
 C2243 C 1.06041 0.57642 0.68723
 C2244 C 1.07408 0.57045 0.67271
 C2245 C 1.09438 0.57123 0.67712
 C2246 C 1.10089 0.57805 0.69552
 H2247 H 1.15841 0.61099 0.78209
 H2248 H 1.14776 0.59718 0.75043
 H2249 H 1.08838 0.61848 0.76138
 H2250 H 1.09894 0.63177 0.79316
 H2251 H 1.12323 0.59715 0.72310
 H2252 H 1.08183 0.59318 0.74081
 H2253 H 1.05601 0.58789 0.71646
 H2254 H 1.04466 0.57567 0.68443
 H2255 H 1.10529 0.56684 0.66621
 H2256 H 1.11663 0.57806 0.69827
 C2257 C 0.62867 1.09870 0.78911
 C2258 C 0.62230 1.09063 0.77119
 C2259 C 0.60736 1.09981 0.76013
 C2260 C 0.59895 1.11744 0.76729
 C2261 C 0.60528 1.12559 0.78520
 C2262 C 0.62041 1.11649 0.79652
 C2263 C 0.60166 1.09110 0.74083
 C2264 C 0.58409 1.09437 0.73215
 C2265 C 0.57862 1.08610 0.71259
 C2266 C 0.55851 1.08426 0.70784
 C2267 C 0.55270 1.07720 0.68931
 C2268 C 0.56691 1.07198 0.67503
 C2269 C 0.58706 1.07385 0.67974
 C2270 C 0.59288 1.08090 0.69829
 H2271 H 0.64016 1.09075 0.79687
 H2272 H 0.62912 1.07708 0.76594
 H2273 H 0.58780 1.12533 0.75891
 H2274 H 0.59829 1.13921 0.78975
 H2275 H 0.61215 1.08106 0.73398
 H2276 H 0.57288 1.10284 0.73989
 H2277 H 0.54724 1.08828 0.71854
 H2278 H 0.53706 1.07575 0.68617
 H2279 H 0.59835 1.07036 0.66889
 H2280 H 0.60851 1.08276 0.70108
 C2281 C 0.59874 0.62977 1.28739
 C2282 C 0.59050 0.62271 1.26981
 C2283 C 0.59842 0.60608 1.26031
 C2284 C 0.61447 0.59618 1.26915
 C2285 C 0.62277 0.60317 1.28676
 C2286 C 0.61522 0.62027 1.29623
 C2287 C 0.58930 0.59938 1.24151
 C2288 C 0.59910 0.58878 1.22783
 C2289 C 0.59042 0.58272 1.20859
 C2290 C 0.60329 0.57753 1.19312
 C2291 C 0.59589 0.57150 1.17480
 C2292 C 0.57540 0.57038 1.17154
 C2293 C 0.56246 0.57549 1.18701
 C2294 C 0.56986 0.58150 1.20539
 H2295 H 0.59205 0.64285 1.29365
 H2296 H 0.57799 0.63052 1.26343
 H2297 H 0.62054 0.58282 1.26270
 H2298 H 0.63500 0.59483 1.29281
 H2299 H 0.57443 0.60453 1.23842
 H2300 H 0.61456 0.58524 1.23021
 H2301 H 0.61917 0.57825 1.19518
 H2302 H 0.60624 0.56786 1.16310
 H2303 H 0.54660 0.57443 1.18503
 H2304 H 0.55940 0.58474 1.21707
 C2305 C 0.90015 0.86857 1.28786
 C2306 C 0.90778 0.87455 1.26966
 C2307 C 0.89895 0.88999 1.25905
 C2308 C 0.88205 0.89927 1.26697
 C2309 C 0.87433 0.89331 1.28521
 C2310 C 0.88315 0.87773 1.29606
 C2311 C 0.90737 0.89536 1.23953
 C2312 C 0.90471 0.91305 1.23100
 C2313 C 0.91311 0.91838 1.21145
 C2314 C 0.91518 0.93843 1.20677
 C2315 C 0.92235 0.94418 1.18829
 C2316 C 0.92749 0.92998 1.17397
 C2317 C 0.92551 0.90989 1.17863
 C2318 C 0.91831 0.90412 1.19712
 H2319 H 0.90795 0.85681 1.29533
 H2320 H 0.92078 0.86709 1.26387
 H2321 H 0.87439 0.91083 1.25896
 H2322 H 0.86116 0.90081 1.29033
 H2323 H 0.91685 0.88452 1.23246
 H2324 H 0.89676 0.92451 1.23893
 H2325 H 0.91122 0.94971 1.21747
 H2326 H 0.92388 0.95978 1.18520
 H2327 H 0.92898 0.89864 1.16774
 H2328 H 0.91634 0.88854 1.19982
 C2329 C 0.90270 0.37025 0.78786
 C2330 C 0.91097 0.37669 0.77009
 C2331 C 0.90196 0.39176 0.75910
 C2332 C 0.88430 0.40022 0.76619
 C2333 C 0.87595 0.39381 0.78394
 C2334 C 0.88488 0.37857 0.79518
 C2335 C 0.91089 0.39756 0.73996
 C2336 C 0.90780 0.41518 0.73144
 C2337 C 0.91630 0.42077 0.71204
 C2338 C 0.91827 0.44087 0.70755
 C2339 C 0.92551 0.44680 0.68915
 C2340 C 0.93078 0.43273 0.67475
 C2341 C 0.92880 0.41259 0.67922
 C2342 C 0.92157 0.40665 0.69763
 H2343 H 0.91055 0.35871 0.79561
 H2344 H 0.92455 0.36984 0.76491
 H2345 H 0.87652 0.41146 0.75784
 H2346 H 0.86226 0.40078 0.78839
 H2347 H 0.92095 0.38710 0.73310
 H2348 H 0.89931 0.42636 0.73921
 H2349 H 0.91421 0.45204 0.71832
 H2350 H 0.92703 0.46242 0.68620
 H2351 H 0.93232 0.40142 0.66827
 H2352 H 0.91962 0.39104 0.70023
 C2353 C 0.38600 0.85832 0.77521
 C2354 C 0.39377 0.86467 0.75718
 C2355 C 0.39212 0.88451 0.75147
 C2356 C 0.38215 0.89787 0.76402
 C2357 C 0.37426 0.89148 0.78201
 C2358 C 0.37614 0.87165 0.78782
 C2359 C 0.40021 0.89045 0.73202
 C2360 C 0.40626 0.90884 0.72799
 C2361 C 0.41416 0.91514 0.70850
 C2362 C 0.41531 0.93544 0.70452
 C2363 C 0.42238 0.94218 0.68634
 C2364 C 0.42857 0.92874 0.67170
 C2365 C 0.42775 0.90843 0.67576
 C2366 C 0.42074 0.90168 0.69396
 H2367 H 0.38737 0.84289 0.77911
 H2368 H 0.40115 0.85405 0.74767
 H2369 H 0.38002 0.91315 0.75986
 H2370 H 0.36678 0.90209 0.79143
 H2371 H 0.40137 0.87900 0.72093
 H2372 H 0.40523 0.92004 0.73940
 H2373 H 0.41057 0.94616 0.71548
 H2374 H 0.42315 0.95793 0.68380
 H2375 H 0.43229 0.89769 0.66474
 H2376 H 0.42073 0.88594 0.69645
 C2377 C 0.37155 0.40456 1.29125
 C2378 C 0.37807 0.41262 1.27338
 C2379 C 0.39503 0.40525 1.26397
 C2380 C 0.40579 0.39001 1.27316
 C2381 C 0.39936 0.38192 1.29103
 C2382 C 0.38195 0.38885 1.30044
 C2383 C 0.40130 0.41409 1.24491
 C2384 C 0.41210 0.40422 1.23143
 C2385 C 0.41819 0.41259 1.21210
 C2386 C 0.42344 0.39952 1.19681
 C2387 C 0.42967 0.40662 1.17847
 C2388 C 0.43099 0.42702 1.17501
 C2389 C 0.42582 0.44015 1.19032
 C2390 C 0.41955 0.43304 1.20870
 H2391 H 0.35816 0.41070 1.29747
 H2392 H 0.36961 0.42452 1.26672
 H2393 H 0.41942 0.38445 1.26681
 H2394 H 0.40842 0.37037 1.29733
 H2395 H 0.39583 0.42875 1.24154
 H2396 H 0.41591 0.38891 1.23411
 H2397 H 0.42261 0.38371 1.19903
 H2398 H 0.43330 0.39610 1.16692
 H2399 H 0.42702 0.45594 1.18821
 H2400 H 0.41625 0.44362 1.22026
 C2401 C 0.90114 1.13163 0.71132
 C2402 C 0.90929 1.12474 0.72905
 C2403 C 0.90216 1.10757 0.73798
 C2404 C 0.88714 1.09697 0.72842
 C2405 C 0.87895 1.10379 0.71069
 C2406 C 0.88558 1.12144 0.70181
 C2407 C 0.91098 1.10102 0.75699
 C2408 C 0.90120 1.08992 0.77013
 C2409 C 0.90951 1.08374 0.78948
 C2410 C 0.89637 1.07827 0.80454
 C2411 C 0.90345 1.07200 0.82292
 C2412 C 0.92388 1.07089 0.82662
 C2413 C 0.93709 1.07627 0.81153
 C2414 C 0.93000 1.08255 0.79312
 H2415 H 0.90707 1.14517 0.70551
 H2416 H 0.92103 1.13307 0.73599
 H2417 H 0.88180 1.08320 0.73440
 H2418 H 0.86756 1.09487 0.70407
 H2419 H 0.92549 1.10658 0.76068
 H2420 H 0.88598 1.08600 0.76718
 H2421 H 0.88053 1.07896 0.80212
 H2422 H 0.89289 1.06819 0.83431
 H2423 H 0.95292 1.07521 0.81384
 H2424 H 0.94064 1.08600 0.78172
 C2425 C 0.88687 0.63828 0.22247
 C2426 C 0.89391 0.63220 0.24092
 C2427 C 0.89317 0.61227 0.24645
 C2428 C 0.88477 0.59854 0.23328
 C2429 C 0.87758 0.60467 0.21485
 C2430 C 0.87866 0.62459 0.20921
 C2431 C 0.90067 0.60662 0.26626
 C2432 C 0.90769 0.58854 0.27055
 C2433 C 0.91534 0.58280 0.29034
 C2434 C 0.91669 0.56264 0.29497
 C2435 C 0.92362 0.55649 0.31346
 C2436 C 0.92948 0.57038 0.32774
 C2437 C 0.92852 0.59055 0.32300
 C2438 C 0.92163 0.59671 0.30450
 H2439 H 0.88756 0.65378 0.21870
 H2440 H 0.90007 0.64310 0.25088
 H2441 H 0.88338 0.58315 0.23724
 H2442 H 0.87134 0.59380 0.20493
 H2443 H 0.90066 0.61805 0.27743
 H2444 H 0.90772 0.57725 0.25920
 H2445 H 0.91220 0.55160 0.28429
 H2446 H 0.92452 0.54082 0.31653
 H2447 H 0.93284 0.60162 0.33371
 H2448 H 0.92152 0.61235 0.30142
 C2449 C 0.35830 1.11907 0.22605
 C2450 C 0.36511 1.11196 0.24421
 C2451 C 0.38535 1.11209 0.24876
 C2452 C 0.39868 1.12003 0.23494
 C2453 C 0.39184 1.12729 0.21680
 C2454 C 0.37159 1.12673 0.21210
 C2455 C 0.39178 1.10431 0.26821
 C2456 C 0.40986 1.09674 0.27161
 C2457 C 0.41616 1.08857 0.29100
 C2458 C 0.43647 1.08708 0.29512
 C2459 C 0.44308 1.07962 0.31324
 C2460 C 0.42950 1.07334 0.32762
 C2461 C 0.40918 1.07443 0.32335
 C2462 C 0.40256 1.08185 0.30522
 H2463 H 0.34259 1.11879 0.22301
 H2464 H 0.35451 1.10617 0.25469
 H2465 H 0.41433 1.12096 0.23815
 H2466 H 0.40240 1.13311 0.20633
 H2467 H 0.38087 1.10449 0.27991
 H2468 H 0.42071 1.09661 0.25983
 H2469 H 0.44727 1.09187 0.28434
 H2470 H 0.45885 1.07865 0.31597
 H2471 H 0.39834 1.06979 0.33414
 H2472 H 0.38681 1.08203 0.30246
 C2473 C 0.37594 0.59733 0.70792
 C2474 C 0.38294 0.58853 0.72530
 C2475 C 0.39255 0.59982 0.73979
 C2476 C 0.39554 0.62006 0.73628
 C2477 C 0.38862 0.62883 0.71888
 C2478 C 0.37864 0.61760 0.70454
 C2479 C 0.39977 0.58991 0.75802
 C2480 C 0.40203 0.59941 0.77532
 C2481 C 0.40958 0.59014 0.79379
 C2482 C 0.41552 0.60260 0.80928
 C2483 C 0.42283 0.59482 0.82697
 C2484 C 0.42434 0.57430 0.82967
 C2485 C 0.41811 0.56175 0.81433
 C2486 C 0.41078 0.56954 0.79658
 H2487 H 0.36861 0.58821 0.69702
 H2488 H 0.38069 0.57287 0.72750
 H2489 H 0.40347 0.62915 0.74675
 H2490 H 0.39088 0.64448 0.71676
 H2491 H 0.40291 0.57428 0.75695
 H2492 H 0.39837 0.61497 0.77613
 H2493 H 0.41459 0.61849 0.80768
 H2494 H 0.42713 0.60489 0.83864
 H2495 H 0.41913 0.54588 0.81597
 H2496 H 0.40595 0.55931 0.78533
 C2497 C 1.14001 0.88651 0.72177
 C2498 C 1.13347 0.89367 0.74005
 C2499 C 1.11330 0.89341 0.74495
 C2500 C 1.09978 0.88551 0.73125
 C2501 C 1.10635 0.87827 0.71300
 C2502 C 1.12653 0.87869 0.70804
 C2503 C 1.10718 0.90074 0.76473
 C2504 C 1.08891 0.90749 0.76880
 C2505 C 1.08265 0.91471 0.78862
 C2506 C 1.06234 0.91577 0.79286
 C2507 C 1.05569 0.92242 0.81130
 C2508 C 1.06923 0.92830 0.82592
 C2509 C 1.08956 0.92752 0.82161
 C2510 C 1.09621 0.92091 0.80316
 H2511 H 1.15569 0.88672 0.71857
 H2512 H 1.14422 0.89945 0.75041
 H2513 H 1.08420 0.88446 0.73467
 H2514 H 1.09560 0.87239 0.70272
 H2515 H 1.11840 0.90067 0.77613
 H2516 H 1.07780 0.90759 0.75727
 H2517 H 1.05155 0.91132 0.78189
 H2518 H 1.03992 0.92316 0.81405
 H2519 H 1.10038 0.93185 0.83259
 H2520 H 1.11196 0.92099 0.80041
 C2521 C 1.09828 0.37792 0.20639
 C2522 C 1.08970 0.38528 0.22373
 C2523 C 1.10152 0.39289 0.23898
 C2524 C 1.12216 0.39362 0.23621
 C2525 C 1.13073 0.38636 0.21877
 C2526 C 1.11891 0.37823 0.20375
 C2527 C 1.09171 0.40031 0.25722
 C2528 C 1.10071 0.40098 0.27493
 C2529 C 1.09117 0.40837 0.29335
 C2530 C 1.10340 0.41393 0.30918
 C2531 C 1.09529 0.42110 0.32681
 C2532 C 1.07468 0.42278 0.32913
 C2533 C 1.06236 0.41678 0.31351
 C2534 C 1.07049 0.40963 0.29580
 H2535 H 1.08873 0.37210 0.19495
 H2536 H 1.07377 0.38479 0.22534
 H2537 H 1.13174 0.39998 0.24730
 H2538 H 1.14666 0.38680 0.21719
 H2539 H 1.07642 0.40493 0.25587
 H2540 H 1.11595 0.39614 0.27613
 H2541 H 1.11934 0.41288 0.30785
 H2542 H 1.10518 0.42520 0.33871
 H2543 H 1.04643 0.41788 0.31488
 H2544 H 1.06046 0.40494 0.28428
 C2545 C 0.59957 0.86855 0.21368
 C2546 C 0.59184 0.87514 0.23171
 C2547 C 0.60075 0.89063 0.24209
 C2548 C 0.61777 0.89933 0.23413
 C2549 C 0.62556 0.89279 0.21610
 C2550 C 0.61670 0.87716 0.20546
 C2551 C 0.59242 0.89660 0.26152
 C2552 C 0.59545 0.91435 0.26980
 C2553 C 0.58755 0.92013 0.28947
 C2554 C 0.58553 0.94028 0.29396
 C2555 C 0.57868 0.94638 0.31251
 C2556 C 0.57383 0.93243 0.32706
 C2557 C 0.57598 0.91225 0.32263
 C2558 C 0.58284 0.90614 0.30408
 H2559 H 0.59179 0.85677 0.20633
 H2560 H 0.57874 0.86810 0.23756
 H2561 H 0.62553 0.91085 0.24198
 H2562 H 0.63886 0.89987 0.21102
 H2563 H 0.58287 0.88614 0.26883
 H2564 H 0.60340 0.92550 0.26164
 H2565 H 0.58919 0.95135 0.28304
 H2566 H 0.57703 0.96203 0.31544
 H2567 H 0.57279 0.90117 0.33369
 H2568 H 0.58488 0.89050 0.30151
 C2569 C 0.63323 0.39880 0.71417
 C2570 C 0.62573 0.40761 0.73134
 C2571 C 0.60883 0.40020 0.74058
 C2572 C 0.59909 0.38411 0.73188
 C2573 C 0.60652 0.37525 0.71469
 C2574 C 0.62393 0.38223 0.70553
 C2575 C 0.60167 0.40982 0.75901
 C2576 C 0.59089 0.40040 0.77268
 C2577 C 0.58429 0.40948 0.79159
 C2578 C 0.57884 0.39695 0.80715
 C2579 C 0.57225 0.40470 0.82516
 C2580 C 0.57081 0.42521 0.82802
 C2581 C 0.57619 0.43781 0.81245
 C2582 C 0.58277 0.43005 0.79439
 H2583 H 0.64655 0.40504 0.70812
 H2584 H 0.63342 0.42013 0.73762
 H2585 H 0.58552 0.37844 0.73809
 H2586 H 0.59826 0.36305 0.70870
 H2587 H 0.60659 0.42472 0.76185
 H2588 H 0.58758 0.38492 0.77056
 H2589 H 0.57979 0.38107 0.80542
 H2590 H 0.56845 0.39460 0.83695
 H2591 H 0.57490 0.45367 0.81412
 H2592 H 0.58622 0.44024 0.78261
 C2593 C 1.28314 1.10317 1.13118
 C2594 C 1.26616 1.09426 1.12367
 C2595 C 1.25554 1.10287 1.10811
 C2596 C 1.26268 1.12043 1.09972
 C2597 C 1.27978 1.12940 1.10717
 C2598 C 1.29027 1.12109 1.12328
 C2599 C 1.23741 1.09278 1.10102
 C2600 C 1.22268 1.10197 1.09132
 C2601 C 1.20400 1.09217 1.08524
 C2602 C 1.18760 1.10412 1.08059
 C2603 C 1.16979 1.09575 1.07447
 C2604 C 1.16793 1.07517 1.07272
 C2605 C 1.18424 1.06312 1.07747
 C2606 C 1.20214 1.07151 1.08353
 H2607 H 1.29064 1.09554 1.14303
 H2608 H 1.26121 1.08057 1.13022
 H2609 H 1.25528 1.12724 1.08726
 H2610 H 1.28437 1.14303 1.10037
 H2611 H 1.23571 1.07750 1.10523
 H2612 H 1.22371 1.11767 1.08861
 H2613 H 1.18856 1.12004 1.08173
 H2614 H 1.15741 1.10541 1.07112
 H2615 H 1.18331 1.04724 1.07596
 H2616 H 1.21450 1.06171 1.08638
 C2617 C 1.28682 0.63378 0.59975
 C2618 C 1.26907 0.62722 0.59148
 C2619 C 1.25850 0.61179 0.60016
 C2620 C 1.26595 0.60316 0.61755
 C2621 C 1.28368 0.60967 0.62588
 C2622 C 1.29455 0.62520 0.61722
 C2623 C 1.23944 0.60574 0.59117
 C2624 C 1.23137 0.58791 0.59390
 C2625 C 1.21210 0.58193 0.58531
 C2626 C 1.20800 0.56172 0.58349
 C2627 C 1.18977 0.55538 0.57618
 C2628 C 1.17513 0.56913 0.57064
 C2629 C 1.17920 0.58937 0.57245
 C2630 C 1.19744 0.59573 0.57978
 H2631 H 1.29429 0.64554 0.59213
 H2632 H 1.26361 0.63423 0.57813
 H2633 H 1.25792 0.59167 0.62512
 H2634 H 1.28839 0.60257 0.63937
 H2635 H 1.23230 0.61620 0.58135
 H2636 H 1.23945 0.57683 0.60218
 H2637 H 1.21896 0.55078 0.58774
 H2638 H 1.18714 0.53969 0.57479
 H2639 H 1.16806 0.60032 0.56871
 H2640 H 1.19970 0.61141 0.58157
 C2641 C 0.79349 1.09667 0.62131
 C2642 C 0.77587 1.08829 0.61458
 C2643 C 0.76116 1.10005 0.60576
 C2644 C 0.76470 1.12035 0.60324
 C2645 C 0.78236 1.12871 0.60988
 C2646 C 0.79690 1.11700 0.61911
 C2647 C 0.74267 1.09057 0.59887
 C2648 C 0.72534 1.10029 0.59748
 C2649 C 0.70664 1.09135 0.59034
 C2650 C 0.69120 1.10404 0.58455
 C2651 C 0.67331 1.09650 0.57759
 C2652 C 0.67038 1.07603 0.57634
 C2653 C 0.68566 1.06326 0.58246
 C2654 C 0.70359 1.07080 0.58943
 H2655 H 0.80455 1.08720 0.62804
 H2656 H 0.77364 1.07258 0.61645
 H2657 H 0.75404 1.12981 0.59590
 H2658 H 0.78450 1.14441 0.60801
 H2659 H 0.74354 1.07506 0.59521
 H2660 H 0.72470 1.11575 0.60153
 H2661 H 0.69301 1.11990 0.58530
 H2662 H 0.66169 1.10674 0.57336
 H2663 H 0.68383 1.04741 0.58164
 H2664 H 0.71480 1.06042 0.59424
 C2665 C 0.79271 0.59685 1.12233
 C2666 C 0.77564 0.58811 1.11472
 C2667 C 0.76155 0.59942 1.10444
 C2668 C 0.76522 0.61962 1.10134
 C2669 C 0.78237 0.62834 1.10886
 C2670 C 0.79623 0.61709 1.11959
 C2671 C 0.74354 0.58956 1.09679
 C2672 C 0.72627 0.59908 1.09400
 C2673 C 0.70787 0.58971 1.08650
 C2674 C 0.69220 0.60209 1.08063
 C2675 C 0.67452 0.59422 1.07352
 C2676 C 0.67200 0.57369 1.07212
 C2677 C 0.68754 0.56122 1.07823
 C2678 C 0.70527 0.56910 1.08537
 H2679 H 0.80327 0.58771 1.13022
 H2680 H 0.77331 0.57248 1.11708
 H2681 H 0.75506 0.62872 1.09293
 H2682 H 0.78464 0.64396 1.10652
 H2683 H 0.74469 0.57389 1.09398
 H2684 H 0.72539 0.61469 1.09735
 H2685 H 0.69364 0.61799 1.08150
 H2686 H 0.66271 0.60425 1.06932
 H2687 H 0.68607 0.54534 1.07728
 H2688 H 0.71666 0.55889 1.09012
 C2689 C 1.28025 0.89411 0.86194
 C2690 C 1.26249 0.90249 0.86848
 C2691 C 1.25233 0.89455 0.88462
 C2692 C 1.26024 0.87775 0.89399
 C2693 C 1.27803 0.86929 0.88747
 C2694 C 1.28848 0.87724 0.87123
 C2695 C 1.23326 0.90381 0.89061
 C2696 C 1.22528 0.90190 0.90868
 C2697 C 1.20623 0.91122 0.91464
 C2698 C 1.20232 0.91381 0.93487
 C2699 C 1.18432 0.92184 0.94124
 C2700 C 1.16969 0.92738 0.92749
 C2701 C 1.17359 0.92491 0.90721
 C2702 C 1.19160 0.91684 0.90083
 H2703 H 1.28735 0.90123 0.84961
 H2704 H 1.25670 0.91538 0.86091
 H2705 H 1.25255 0.87076 0.90610
 H2706 H 1.28318 0.85628 0.89515
 H2707 H 1.22610 0.91330 0.87987
 H2708 H 1.23334 0.89389 0.91998
 H2709 H 1.21325 0.90956 0.94583
 H2710 H 1.18182 0.92372 0.95696
 H2711 H 1.16245 0.92866 0.89629
 H2712 H 1.19369 0.91452 0.88513
 C2713 C 1.29289 0.37438 0.40688
 C2714 C 1.27488 0.38038 0.41511
 C2715 C 1.26354 0.39531 0.40628
 C2716 C 1.27099 0.40471 0.38936
 C2717 C 1.28901 0.39876 0.38105
 C2718 C 1.30029 0.38322 0.38945
 C2719 C 1.24427 0.40079 0.41532
 C2720 C 1.22943 0.40919 0.40508
 C2721 C 1.20978 0.41422 0.41358
 C2722 C 1.19409 0.41801 0.40048
 C2723 C 1.17546 0.42345 0.40759
 C2724 C 1.17206 0.42531 0.42801
 C2725 C 1.18763 0.42133 0.44121
 C2726 C 1.20636 0.41596 0.43409
 H2727 H 1.30080 0.36278 0.41449
 H2728 H 1.26966 0.37310 0.42837
 H2729 H 1.26308 0.41685 0.38252
 H2730 H 1.29375 0.40641 0.36792
 H2731 H 1.24198 0.39657 0.43057
 H2732 H 1.23130 0.41174 0.38939
 H2733 H 1.19627 0.41682 0.38464
 H2734 H 1.16366 0.42623 0.39708
 H2735 H 1.18547 0.42294 0.45701
 H2736 H 1.21810 0.41372 0.44473
 C2737 C 0.79712 0.88684 0.40559
 C2738 C 0.77982 0.89465 0.41386
 C2739 C 0.76509 0.90294 0.40177
 C2740 C 0.76843 0.90409 0.38123
 C2741 C 0.78584 0.89641 0.37297
 C2742 C 0.80022 0.88742 0.38504
 C2743 C 0.74664 0.91032 0.41113
 C2744 C 0.72914 0.91066 0.40174
 C2745 C 0.71033 0.91748 0.41091
 C2746 C 0.69457 0.92265 0.39839
 C2747 C 0.67653 0.92912 0.40619
 C2748 C 0.67376 0.93046 0.42675
 C2749 C 0.68935 0.92488 0.43936
 C2750 C 0.70745 0.91843 0.43155
 H2751 H 0.80810 0.88033 0.41529
 H2752 H 0.77774 0.89384 0.42974
 H2753 H 0.75772 0.91099 0.37150
 H2754 H 0.78783 0.89708 0.35710
 H2755 H 0.74760 0.91491 0.42643
 H2756 H 0.72839 0.90581 0.38648
 H2757 H 0.69625 0.92181 0.38246
 H2758 H 0.66466 0.93292 0.39608
 H2759 H 0.68763 0.92575 0.45527
 H2760 H 0.71893 0.91398 0.44179
 C2761 C 0.78677 0.39940 0.86638
 C2762 C 0.76896 0.40770 0.87293
 C2763 C 0.75911 0.40002 0.88938
 C2764 C 0.76777 0.38408 0.89956
 C2765 C 0.78561 0.37573 0.89307
 C2766 C 0.79551 0.38309 0.87621
 C2767 C 0.74019 0.40934 0.89573
 C2768 C 0.72638 0.39983 0.90623
 C2769 C 0.70723 0.40881 0.91236
 C2770 C 0.69173 0.39621 0.91766
 C2771 C 0.67360 0.40386 0.92410
 C2772 C 0.67057 0.42436 0.92556
 C2773 C 0.68603 0.43703 0.92019
 C2774 C 0.70421 0.42937 0.91375
 H2775 H 0.79341 0.40602 0.85352
 H2776 H 0.76273 0.42014 0.86494
 H2777 H 0.76103 0.37816 0.91277
 H2778 H 0.79142 0.36354 0.90157
 H2779 H 0.73722 0.42417 0.89054
 H2780 H 0.72866 0.38441 0.90980
 H2781 H 0.69362 0.38034 0.91678
 H2782 H 0.66190 0.39371 0.92788
 H2783 H 0.68423 0.45288 0.92148
 H2784 H 0.71593 0.43962 0.91041
 C2785 C 0.70533 0.90422 1.12178
 C2786 C 0.72258 0.91281 1.11444
 C2787 C 0.73715 0.90119 1.10519
 C2788 C 0.73386 0.88082 1.10290
 C2789 C 0.71661 0.87226 1.11017
 C2790 C 0.70218 0.88382 1.11978
 C2791 C 0.75526 0.91083 1.09762
 C2792 C 0.77260 0.90126 1.09567
 C2793 C 0.79095 0.91028 1.08782
 C2794 C 0.80635 0.89764 1.08180
 C2795 C 0.82401 0.90523 1.07441
 C2796 C 0.82673 0.92571 1.07295
 C2797 C 0.81143 0.93843 1.07914
 C2798 C 0.79373 0.93083 1.08655
 H2799 H 0.69435 0.91357 1.12881
 H2800 H 0.72463 0.92857 1.11615
 H2801 H 0.74438 0.87145 1.09524
 H2802 H 0.71470 0.85650 1.10847
 H2803 H 0.75407 0.92631 1.09392
 H2804 H 0.77356 0.88587 1.09983
 H2805 H 0.80473 0.88177 1.08279
 H2806 H 0.83566 0.89505 1.07012
 H2807 H 0.81309 0.95428 1.07814
 H2808 H 0.78253 0.94118 1.09147
 C2809 C 0.72391 0.36228 0.61200
 C2810 C 0.74137 0.36929 0.60361
 C2811 C 0.74550 0.38956 0.60346
 C2812 C 0.73153 0.40278 0.61162
 C2813 C 0.71406 0.39574 0.62004
 C2814 C 0.71006 0.37542 0.62034
 C2815 C 0.76432 0.39610 0.59435
 C2816 C 0.77268 0.41367 0.59784
 C2817 C 0.79185 0.41966 0.58912
 C2818 C 0.79593 0.43985 0.58728
 C2819 C 0.81403 0.44615 0.57967
 C2820 C 0.82855 0.43234 0.57391
 C2821 C 0.82452 0.41212 0.57584
 C2822 C 0.80641 0.40582 0.58342
 H2823 H 0.72141 0.34653 0.61219
 H2824 H 0.75181 0.35878 0.59740
 H2825 H 0.73374 0.41856 0.61126
 H2826 H 0.70349 0.40625 0.62600
 H2827 H 0.77167 0.38568 0.58462
 H2828 H 0.76538 0.42430 0.60735
 H2829 H 0.78503 0.45081 0.59168
 H2830 H 0.81665 0.46183 0.57822
 H2831 H 0.83559 0.40115 0.57196
 H2832 H 0.80419 0.39015 0.58530
 C2833 C 0.22387 0.85975 0.61103
 C2834 C 0.24206 0.86582 0.60344
 C2835 C 0.24777 0.88565 0.60469
 C2836 C 0.23507 0.89929 0.61410
 C2837 C 0.21693 0.89317 0.62182
 C2838 C 0.21111 0.87335 0.62030
 C2839 C 0.26734 0.89133 0.59674
 C2840 C 0.27141 0.90954 0.59017
 C2841 C 0.29102 0.91558 0.58243
 C2842 C 0.29508 0.93583 0.58098
 C2843 C 0.31339 0.94233 0.57411
 C2844 C 0.32810 0.92871 0.56842
 C2845 C 0.32395 0.90844 0.56945
 C2846 C 0.30561 0.90193 0.57628
 H2847 H 0.21996 0.84432 0.60995
 H2848 H 0.25167 0.85499 0.59649
 H2849 H 0.23921 0.91458 0.61591
 H2850 H 0.20738 0.90398 0.62886
 H2851 H 0.27849 0.87984 0.59613
 H2852 H 0.25997 0.92078 0.59067
 H2853 H 0.28408 0.94669 0.58537
 H2854 H 0.31601 0.95805 0.57315
 H2855 H 0.33500 0.89757 0.56527
 H2856 H 0.30303 0.88621 0.57650
 C2857 C 0.21682 0.36545 1.10338
 C2858 C 0.23487 0.37207 1.09599
 C2859 C 0.24507 0.38741 1.10529
 C2860 C 0.23689 0.39591 1.12245
 C2861 C 0.21879 0.38931 1.12994
 C2862 C 0.20830 0.37387 1.12059
 C2863 C 0.26443 0.39349 1.09696
 C2864 C 0.27281 0.41107 1.10040
 C2865 C 0.29204 0.41704 1.09170
 C2866 C 0.29623 0.43723 1.09002
 C2867 C 0.31429 0.44352 1.08225
 C2868 C 0.32867 0.42973 1.07611
 C2869 C 0.32454 0.40950 1.07785
 C2870 C 0.30648 0.40320 1.08564
 H2871 H 0.20980 0.35369 1.09528
 H2872 H 0.24087 0.36515 1.08280
 H2873 H 0.24455 0.40739 1.13045
 H2874 H 0.21339 0.39635 1.14322
 H2875 H 0.27148 0.38331 1.08677
 H2876 H 0.26496 0.42200 1.10912
 H2877 H 0.28545 0.44820 1.09465
 H2878 H 0.31696 0.45921 1.08095
 H2879 H 0.33549 0.39853 1.07367
 H2880 H 0.30417 0.38752 1.08732
 C2881 C 0.70851 1.12774 0.90386
 C2882 C 0.72620 1.12109 0.91224
 C2883 C 0.73714 1.10589 0.90335
 C2884 C 0.72999 1.09735 0.88580
 C2885 C 0.71227 1.10395 0.87736
 C2886 C 0.70124 1.11950 0.88606
 C2887 C 0.75640 1.10022 0.91220
 C2888 C 0.76533 1.08280 0.90894
 C2889 C 0.78502 1.07766 0.91714
 C2890 C 0.79017 1.05768 0.91919
 C2891 C 0.80892 1.05221 0.92602
 C2892 C 0.82298 1.06665 0.93079
 C2893 C 0.81783 1.08666 0.92881
 C2894 C 0.79909 1.09213 0.92197
 H2895 H 0.70066 1.13928 0.91167
 H2896 H 0.73139 1.12792 0.92578
 H2897 H 0.73829 1.08600 0.87811
 H2898 H 0.70781 1.09715 0.86362
 H2899 H 0.76309 1.11069 0.92225
 H2900 H 0.75781 1.07153 0.90049
 H2901 H 0.77966 1.04626 0.91546
 H2902 H 0.81244 1.03667 0.92756
 H2903 H 0.82852 1.09808 0.93198
 H2904 H 0.79596 1.10767 0.91992
 C2905 C 0.70795 0.59713 0.37714
 C2906 C 0.72541 0.58880 0.38459
 C2907 C 0.73944 0.60055 0.39430
 C2908 C 0.73541 0.62082 0.39680
 C2909 C 0.71792 0.62913 0.38941
 C2910 C 0.70401 0.61741 0.37944
 C2911 C 0.75768 0.59102 0.40212
 C2912 C 0.77467 0.60077 0.40505
 C2913 C 0.79317 0.59170 0.41294
 C2914 C 0.80850 0.60430 0.41887
 C2915 C 0.82629 0.59669 0.42625
 C2916 C 0.82926 0.57620 0.42783
 C2917 C 0.81402 0.56352 0.42179
 C2918 C 0.79620 0.57114 0.41438
 H2919 H 0.69740 0.58763 0.36984
 H2920 H 0.72801 0.57311 0.38268
 H2921 H 0.74550 0.63029 0.40475
 H2922 H 0.71537 0.64480 0.39137
 H2923 H 0.75689 0.57539 0.40510
 H2924 H 0.77526 0.61633 0.40155
 H2925 H 0.80671 0.62017 0.41779
 H2926 H 0.83785 0.60687 0.43042
 H2927 H 0.81582 0.54767 0.42292
 H2928 H 0.78511 0.56075 0.40964
 C2929 C 0.21133 1.09687 0.36623
 C2930 C 0.22919 1.08847 0.37257
 C2931 C 0.23891 1.09567 0.38938
 C2932 C 0.23002 1.11108 0.40018
 C2933 C 0.21218 1.11953 0.39390
 C2934 C 0.20248 1.11278 0.37664
 C2935 C 0.25799 1.08653 0.39545
 C2936 C 0.27168 1.09622 0.40601
 C2937 C 0.29099 1.08761 0.41209
 C2938 C 0.30619 1.10053 0.41760
 C2939 C 0.32443 1.09325 0.42410
 C2940 C 0.32790 1.07282 0.42541
 C2941 C 0.31276 1.05982 0.41982
 C2942 C 0.29445 1.06712 0.41330
 H2943 H 0.20488 1.09091 0.35291
 H2944 H 0.23562 1.07645 0.36409
 H2945 H 0.23659 1.11651 0.41372
 H2946 H 0.20607 1.13117 0.40300
 H2947 H 0.26116 1.07180 0.39006
 H2948 H 0.26912 1.11158 0.40973
 H2949 H 0.30394 1.11636 0.41686
 H2950 H 0.33589 1.10365 0.42804
 H2951 H 0.31491 1.04401 0.42097
 H2952 H 0.28298 1.05664 0.40976
 C2953 C 0.21469 0.63326 0.90083
 C2954 C 0.23191 0.62637 0.90994
 C2955 C 0.24292 0.61093 0.90159
 C2956 C 0.23638 0.60245 0.88378
 C2957 C 0.21913 0.60931 0.87458
 C2958 C 0.20798 0.62504 0.88279
 C2959 C 0.26163 0.60487 0.91131
 C2960 C 0.27003 0.58706 0.90881
 C2961 C 0.28920 0.58138 0.91787
 C2962 C 0.29362 0.56126 0.92021
 C2963 C 0.31195 0.55523 0.92767
 C2964 C 0.32632 0.56923 0.93280
 C2965 C 0.32186 0.58938 0.93066
 C2966 C 0.30353 0.59542 0.92318
 H2967 H 0.20676 0.64498 0.90827
 H2968 H 0.23666 0.63318 0.92366
 H2969 H 0.24481 0.59091 0.87651
 H2970 H 0.21512 0.60250 0.86071
 H2971 H 0.26828 0.61535 0.92138
 H2972 H 0.26240 0.57590 0.90031
 H2973 H 0.28289 0.55016 0.91613
 H2974 H 0.31494 0.53960 0.92932
 H2975 H 0.33282 0.60047 0.93411
 H2976 H 0.30100 0.61104 0.92097
 C2977 C 1.12030 1.29048 1.09513
 C2978 C 1.11229 1.27349 1.08661
 C2979 C 1.10195 1.25987 1.09822
 C2980 C 1.09915 1.26394 1.11847
 C2981 C 1.10708 1.28098 1.12696
 C2982 C 1.11790 1.29435 1.11543
 C2983 C 1.09398 1.24187 1.08866
 C2984 C 1.09125 1.22489 1.09847
 C2985 C 1.08349 1.20647 1.08946
 C2986 C 1.07774 1.19117 1.10216
 C2987 C 1.07051 1.17343 1.09461
 C2988 C 1.06888 1.17050 1.07409
 C2989 C 1.07477 1.18569 1.06130
 C2990 C 1.08203 1.20347 1.06885
 H2991 H 1.12825 1.30067 1.08578
 H2992 H 1.11442 1.27084 1.07093
 H2993 H 1.09068 1.25417 1.12778
 H2994 H 1.10500 1.28351 1.14264
 H2995 H 1.09090 1.24276 1.07300
 H2996 H 1.09491 1.22426 1.11406
 H2997 H 1.07886 1.19294 1.11807
 H2998 H 1.06647 1.16188 1.10487
 H2999 H 1.07362 1.18388 1.04541
 H3000 H 1.08666 1.21456 1.05841
 C3001 C 1.09879 0.79121 0.62240
 C3002 C 1.09015 0.77409 0.61481
 C3003 C 1.10173 0.75974 0.60516
 C3004 C 1.12210 0.76314 0.60274
 C3005 C 1.13072 0.78026 0.61027
 C3006 C 1.11920 0.79446 0.62026
 C3007 C 1.09204 0.74176 0.59737
 C3008 C 1.10167 0.72451 0.59502
 C3009 C 1.09258 0.70625 0.58707
 C3010 C 1.10521 0.69088 0.58093
 C3011 C 1.09755 0.67326 0.57353
 C3012 C 1.07702 0.67053 0.57217
 C3013 C 1.06431 0.68581 0.57843
 C3014 C 1.07197 0.70347 0.58585
 H3015 H 1.08947 0.80201 0.62973
 H3016 H 1.07439 0.77195 0.61664
 H3017 H 1.13144 0.75281 0.59479
 H3018 H 1.14648 0.78224 0.60845
 H3019 H 1.07648 0.74294 0.59388
 H3020 H 1.11716 0.72356 0.59900
 H3021 H 1.12112 0.69250 0.58186
 H3022 H 1.10773 0.66163 0.56918
 H3023 H 1.04841 0.68415 0.57750
 H3024 H 1.06162 0.71463 0.59083
 C3025 C 0.63989 1.27402 0.62103
 C3026 C 0.63308 1.25578 0.61436
 C3027 C 0.61280 1.25154 0.61439
 C3028 C 0.59945 1.26572 0.62191
 C3029 C 0.60631 1.28395 0.62879
 C3030 C 0.62658 1.28836 0.62819
 C3031 C 0.60635 1.23208 0.60682
 C3032 C 0.58853 1.22895 0.59869
 C3033 C 0.58232 1.20964 0.59040
 C3034 C 0.56204 1.20591 0.58819
 C3035 C 0.55550 1.18793 0.58048
 C3036 C 0.56915 1.17330 0.57464
 C3037 C 0.58947 1.17716 0.57647
 C3038 C 0.59601 1.19513 0.58416
 H3039 H 0.65562 1.27685 0.62075
 H3040 H 0.64368 1.24502 0.60888
 H3041 H 0.58377 1.26275 0.62275
 H3042 H 0.59574 1.29472 0.63426
 H3043 H 0.61708 1.22019 0.60751
 H3044 H 0.57787 1.24093 0.59805
 H3045 H 0.55118 1.21690 0.59260
 H3046 H 0.53975 1.18554 0.57894
 H3047 H 0.60036 1.16616 0.57218
 H3048 H 0.61177 1.19758 0.58489
 C3049 C 0.63761 0.77889 1.11091
 C3050 C 0.63188 0.76049 1.10361
 C3051 C 0.61208 0.75453 1.10467
 C3052 C 0.59812 0.76722 1.11362
 C3053 C 0.60389 0.78558 1.12105
 C3054 C 0.62367 0.79165 1.11970
 C3055 C 0.60679 0.73475 1.09701
 C3056 C 0.58865 0.73021 1.09040
 C3057 C 0.58302 0.71037 1.08296
 C3058 C 0.56284 0.70576 1.08177
 C3059 C 0.55674 0.68722 1.07516
 C3060 C 0.57071 0.67285 1.06948
 C3061 C 0.59091 0.67755 1.07027
 C3062 C 0.59703 0.69612 1.07684
 H3063 H 0.65303 0.78298 1.10999
 H3064 H 0.64296 0.75090 1.09702
 H3065 H 0.58284 0.76291 1.11530
 H3066 H 0.59283 0.79511 1.12773
 H3067 H 0.61850 0.72381 1.09667
 H3068 H 0.57713 0.74139 1.09066
 H3069 H 0.55172 0.71650 1.08614
 H3070 H 0.54105 0.68418 1.07438
 H3071 H 0.60205 0.66677 1.06607
 H3072 H 0.61270 0.69913 1.07687
 C3073 C 0.90280 1.29389 0.88410
 C3074 C 0.91069 1.27646 0.89190
 C3075 C 0.89827 1.26207 0.89998
 C3076 C 0.87777 1.26585 0.90086
 C3077 C 0.86989 1.28339 0.89317
 C3078 C 0.88230 1.29747 0.88446
 C3079 C 0.90729 1.24354 0.90751
 C3080 C 0.89764 1.22630 0.90801
 C3081 C 0.90658 1.20746 0.91493
 C3082 C 0.89391 1.19206 0.92030
 C3083 C 0.90152 1.17396 0.92674
 C3084 C 0.92206 1.17077 0.92785
 C3085 C 0.93481 1.18603 0.92217
 C3086 C 0.92719 1.20418 0.91573
 H3087 H 0.91277 1.30463 0.87781
 H3088 H 0.92654 1.27403 0.89129
 H3089 H 0.86777 1.25542 0.90758
 H3090 H 0.85404 1.28574 0.89366
 H3091 H 0.92259 1.24422 0.91212
 H3092 H 0.88237 1.22580 0.90319
 H3093 H 0.87800 1.19405 0.91959
 H3094 H 0.89130 1.16236 0.93065
 H3095 H 0.95070 1.18401 0.92289
 H3096 H 0.93754 1.21535 0.91115
 C3097 C 0.86521 0.78218 0.39269
 C3098 C 0.87107 0.76360 0.39953
 C3099 C 0.89073 0.75717 0.39746
 C3100 C 0.90443 0.76961 0.38809
 C3101 C 0.89852 0.78815 0.38113
 C3102 C 0.87886 0.79464 0.38337
 C3103 C 0.89609 0.73714 0.40445
 C3104 C 0.91444 0.73201 0.41017
 C3105 C 0.92007 0.71195 0.41710
 C3106 C 0.94025 0.70697 0.41802
 C3107 C 0.94635 0.68827 0.42436
 C3108 C 0.93236 0.67411 0.43002
 C3109 C 0.91217 0.67913 0.42933
 C3110 C 0.90607 0.69784 0.42308
 H3111 H 0.84988 0.78660 0.39430
 H3112 H 0.86020 0.75421 0.40647
 H3113 H 0.91957 0.76494 0.38567
 H3114 H 0.90935 0.79745 0.37403
 H3115 H 0.88424 0.72655 0.40508
 H3116 H 0.92607 0.74290 0.40965
 H3117 H 0.95137 0.71757 0.41372
 H3118 H 0.96203 0.68497 0.42504
 H3119 H 0.90102 0.66850 0.43345
 H3120 H 0.89041 0.70106 0.42323
 C3121 C 0.40843 1.29594 0.38012
 C3122 C 0.41654 1.27815 0.38696
 C3123 C 0.40468 1.26430 0.39671
 C3124 C 0.38458 1.26882 0.39992
 C3125 C 0.37650 1.28657 0.39312
 C3126 C 0.38830 1.30035 0.38313
 C3127 C 0.41385 1.24570 0.40392
 C3128 C 0.40355 1.22903 0.40657
 C3129 C 0.41200 1.21019 0.41416
 C3130 C 0.39883 1.19515 0.41945
 C3131 C 0.40583 1.17707 0.42657
 C3132 C 0.42623 1.17353 0.42853
 C3133 C 0.43947 1.18850 0.42318
 C3134 C 0.43248 1.20662 0.41604
 H3135 H 0.41797 1.30636 0.37275
 H3136 H 0.43211 1.27515 0.38452
 H3137 H 0.37507 1.25889 0.40797
 H3138 H 0.36093 1.28942 0.39559
 H3139 H 0.42957 1.24598 0.40675
 H3140 H 0.38793 1.22900 0.40305
 H3141 H 0.38300 1.19738 0.41806
 H3142 H 0.39524 1.16571 0.43024
 H3143 H 0.45528 1.18625 0.42464
 H3144 H 0.44328 1.21751 0.41186
 C3145 C 0.39786 0.79065 0.87994
 C3146 C 0.40659 0.77387 0.88829
 C3147 C 0.39492 0.75930 0.89713
 C3148 C 0.37430 0.76229 0.89823
 C3149 C 0.36557 0.77919 0.89001
 C3150 C 0.37724 0.79340 0.88051
 C3151 C 0.40486 0.74144 0.90517
 C3152 C 0.39598 0.72383 0.90649
 C3153 C 0.40585 0.70560 0.91387
 C3154 C 0.39393 0.68985 0.91994
 C3155 C 0.40240 0.67232 0.92687
 C3156 C 0.42307 0.67003 0.92781
 C3157 C 0.43506 0.68561 0.92139
 C3158 C 0.42658 0.70321 0.91446
 H3159 H 0.40726 0.80152 0.87306
 H3160 H 0.42251 0.77208 0.88749
 H3161 H 0.36487 0.75172 0.90553
 H3162 H 0.34966 0.78093 0.89069
 H3163 H 0.42020 0.74291 0.90943
 H3164 H 0.38066 0.72253 0.90202
 H3165 H 0.37795 0.69115 0.91941
 H3166 H 0.39274 0.66044 0.93132
 H3167 H 0.45103 0.68428 0.92193
 H3168 H 0.43637 0.71466 0.90935
 C3169 C 1.14009 0.72731 0.87924
 C3170 C 1.13326 0.74551 0.88617
 C3171 C 1.11301 0.75009 0.88582
 C3172 C 1.09973 0.73642 0.87758
 C3173 C 1.10662 0.71825 0.87040
 C3174 C 1.12683 0.71343 0.87146
 C3175 C 1.10646 0.76931 0.89396
 C3176 C 1.08879 0.77206 0.90257
 C3177 C 1.08247 0.79108 0.91151
 C3178 C 1.06217 0.79482 0.91388
 C3179 C 1.05554 0.81269 0.92189
 C3180 C 1.06910 0.82717 0.92784
 C3181 C 1.08944 0.82321 0.92605
 C3182 C 1.09608 0.80533 0.91807
 H3183 H 1.15578 0.72408 0.87988
 H3184 H 1.14379 0.75591 0.89220
 H3185 H 1.08409 0.73975 0.87652
 H3186 H 1.09615 0.70780 0.86441
 H3187 H 1.11700 0.78123 0.89344
 H3188 H 1.07837 0.76001 0.90303
 H3189 H 1.05139 0.78398 0.90926
 H3190 H 1.03977 0.81520 0.92341
 H3191 H 1.10025 0.83410 0.93046
 H3192 H 1.11186 0.80278 0.91726
 C3193 C 1.13646 0.21716 0.39023
 C3194 C 1.13061 0.23564 0.39745
 C3195 C 1.11066 0.24152 0.39691
 C3196 C 1.09665 0.22855 0.38875
 C3197 C 1.10252 0.21009 0.38146
 C3198 C 1.12249 0.20420 0.38208
 C3199 C 1.10531 0.26154 0.40414
 C3200 C 1.08712 0.26656 0.41047
 C3201 C 1.08151 0.28668 0.41735
 C3202 C 1.06132 0.29165 0.41837
 C3203 C 1.05524 0.31039 0.42467
 C3204 C 1.06923 0.32462 0.43021
 C3205 C 1.08943 0.31961 0.42943
 C3206 C 1.09552 0.30086 0.42318
 H3207 H 1.15199 0.21321 0.39062
 H3208 H 1.14174 0.24542 0.40344
 H3209 H 1.08123 0.23270 0.38749
 H3210 H 1.09140 0.20041 0.37535
 H3211 H 1.11701 0.27232 0.40426
 H3212 H 1.07557 0.25559 0.41044
 H3213 H 1.05019 0.28099 0.41418
 H3214 H 1.03955 0.31367 0.42542
 H3215 H 1.10059 0.33028 0.43349
 H3216 H 1.11119 0.29762 0.42325
 C3217 C 0.59652 0.70734 0.38298
 C3218 C 0.58858 0.72482 0.39069
 C3219 C 0.60091 0.73911 0.39915
 C3220 C 0.62137 0.73522 0.40042
 C3221 C 0.62930 0.71766 0.39281
 C3222 C 0.61698 0.70363 0.38381
 C3223 C 0.59186 0.75763 0.40672
 C3224 C 0.60162 0.77479 0.40764
 C3225 C 0.59274 0.79362 0.41475
 C3226 C 0.60548 0.80894 0.42030
 C3227 C 0.59794 0.82703 0.42691
 C3228 C 0.57742 0.83029 0.42802
 C3229 C 0.56461 0.81510 0.42220
 C3230 C 0.57215 0.79697 0.41558
 H3231 H 0.58662 0.69665 0.37646
 H3232 H 0.57275 0.72733 0.38977
 H3233 H 0.63129 0.74557 0.40743
 H3234 H 0.64512 0.71523 0.39365
 H3235 H 0.57649 0.75698 0.41107
 H3236 H 0.61694 0.77525 0.40304
 H3237 H 0.62138 0.80689 0.41959
 H3238 H 0.60821 0.83857 0.43093
 H3239 H 0.54872 0.81716 0.42293
 H3240 H 0.56174 0.78587 0.41089
 C3241 C 0.63523 0.22272 0.88231
 C3242 C 0.62909 0.24133 0.88878
 C3243 C 0.60900 0.24655 0.88857
 C3244 C 0.59516 0.23307 0.88095
 C3245 C 0.60136 0.21449 0.87423
 C3246 C 0.62142 0.20905 0.87516
 C3247 C 0.60318 0.26620 0.89619
 C3248 C 0.58570 0.26981 0.90489
 C3249 C 0.58011 0.28927 0.91333
 C3250 C 0.55997 0.29370 0.91586
 C3251 C 0.55400 0.31196 0.92352
 C3252 C 0.56809 0.32614 0.92894
 C3253 C 0.58828 0.32152 0.92693
 C3254 C 0.59425 0.30325 0.91930
 H3255 H 0.65083 0.21901 0.88282
 H3256 H 0.64004 0.25156 0.89434
 H3257 H 0.57961 0.23687 0.88000
 H3258 H 0.59047 0.20421 0.86872
 H3259 H 0.61411 0.27774 0.89519
 H3260 H 0.57489 0.25813 0.90583
 H3261 H 0.54879 0.28309 0.91168
 H3262 H 0.53834 0.31497 0.92523
 H3263 H 0.59948 0.33216 0.93092
 H3264 H 0.60993 0.30020 0.91833
 C3265 C 0.90271 0.70700 1.11934
 C3266 C 0.91114 0.72414 1.11169
 C3267 C 0.89934 0.73841 1.10227
 C3268 C 0.87897 0.73480 1.09991
 C3269 C 0.87057 0.71754 1.10742
 C3270 C 0.88231 0.70360 1.11746
 C3271 C 0.90885 0.75663 1.09491
 C3272 C 0.89925 0.77398 1.09346
 C3273 C 0.90846 0.79258 1.08654
 C3274 C 0.89595 0.80819 1.08086
 C3275 C 0.90374 0.82602 1.07420
 C3276 C 0.92431 0.82874 1.07313
 C3277 C 0.93690 0.81331 1.07919
 C3278 C 0.92910 0.79543 1.08586
 H3279 H 0.91218 0.69635 1.12668
 H3280 H 0.92689 0.72642 1.11345
 H3281 H 0.86951 0.74514 1.09214
 H3282 H 0.85481 0.71531 1.10576
 H3283 H 0.92439 0.75562 1.09126
 H3284 H 0.88376 0.77474 1.09747
 H3285 H 0.88003 0.80655 1.08146
 H3286 H 0.89362 0.83776 1.07003
 H3287 H 0.95281 0.81498 1.07853
 H3288 H 0.93936 0.78410 1.09064
 C3289 C 0.87774 0.20937 0.59461
 C3290 C 0.88488 0.22685 0.58636
 C3291 C 0.89446 0.24090 0.59820
 C3292 C 0.89720 0.23687 0.61845
 C3293 C 0.89012 0.21938 0.62667
 C3294 C 0.88026 0.20545 0.61488
 C3295 C 0.90193 0.25919 0.58884
 C3296 C 0.90461 0.27610 0.59886
 C3297 C 0.91238 0.29459 0.59009
 C3298 C 0.91844 0.30966 0.60300
 C3299 C 0.92579 0.32742 0.59567
 C3300 C 0.92720 0.33060 0.57518
 C3301 C 0.92099 0.31564 0.56221
 C3302 C 0.91361 0.29785 0.56953
 H3303 H 0.87052 0.19879 0.58506
 H3304 H 0.88281 0.22946 0.57068
 H3305 H 0.90510 0.24695 0.62798
 H3306 H 0.89223 0.21687 0.64234
 H3307 H 0.90495 0.25849 0.57316
 H3308 H 0.90106 0.27658 0.61447
 H3309 H 0.91752 0.30768 0.61888
 H3310 H 0.93010 0.33879 0.60607
 H3311 H 0.92197 0.31763 0.54634
 H3312 H 0.90873 0.28695 0.55896
 C3313 C 0.40431 0.70957 0.62349
 C3314 C 0.41306 0.72673 0.61618
 C3315 C 0.40159 0.74125 0.60669
 C3316 C 0.38119 0.73801 0.60422
 C3317 C 0.37246 0.72083 0.61146
 C3318 C 0.38389 0.70643 0.62123
 C3319 C 0.41149 0.75917 0.59902
 C3320 C 0.40204 0.77647 0.59645
 C3321 C 0.41135 0.79458 0.58841
 C3322 C 0.39890 0.80992 0.58191
 C3323 C 0.40675 0.82731 0.57425
 C3324 C 0.42732 0.82986 0.57297
 C3325 C 0.43985 0.81465 0.57970
 C3326 C 0.43199 0.79720 0.58737
 H3327 H 0.41359 0.69863 0.63064
 H3328 H 0.42884 0.72873 0.61806
 H3329 H 0.37192 0.74847 0.59640
 H3330 H 0.35670 0.71893 0.60955
 H3331 H 0.42708 0.75786 0.59571
 H3332 H 0.38651 0.77758 0.60021
 H3333 H 0.38297 0.80843 0.58270
 H3334 H 0.39668 0.83891 0.56957
 H3335 H 0.45577 0.81618 0.57887
 H3336 H 0.44221 0.78607 0.59264
 C3337 C 0.39824 0.20877 1.12215
 C3338 C 0.40730 0.22562 1.11456
 C3339 C 0.39604 0.24040 1.10528
 C3340 C 0.37552 0.23759 1.10300
 C3341 C 0.36647 0.22060 1.11045
 C3342 C 0.37770 0.20615 1.12037
 C3343 C 0.40628 0.25827 1.09794
 C3344 C 0.39742 0.27600 1.09647
 C3345 C 0.40736 0.29425 1.08949
 C3346 C 0.39545 0.31040 1.08403
 C3347 C 0.40389 0.32788 1.07725
 C3348 C 0.42454 0.32974 1.07580
 C3349 C 0.43656 0.31380 1.08169
 C3350 C 0.42811 0.29624 1.08849
 H3351 H 0.40733 0.19773 1.12940
 H3352 H 0.42314 0.22727 1.11627
 H3353 H 0.36643 0.24834 1.09536
 H3354 H 0.35063 0.21897 1.10885
 H3355 H 0.42178 0.25664 1.09429
 H3356 H 0.38197 0.27739 1.10048
 H3357 H 0.37948 0.30945 1.08488
 H3358 H 0.39421 0.34003 1.07323
 H3359 H 0.45252 0.31479 1.08076
 H3360 H 0.43794 0.28447 1.09306
 C3361 C 1.13109 1.10197 0.71456
 C3362 C 1.12496 1.09483 0.73289
 C3363 C 1.10849 1.10295 0.74251
 C3364 C 1.09840 1.11879 0.73351
 C3365 C 1.10453 1.12605 0.71511
 C3366 C 1.12100 1.11774 0.70514
 C3367 C 1.10288 1.09475 0.76208
 C3368 C 1.08483 1.09668 0.77013
 C3369 C 1.07926 1.08784 0.78944
 C3370 C 1.05913 1.08497 0.79353
 C3371 C 1.05312 1.07711 0.81165
 C3372 C 1.06712 1.07201 0.82618
 C3373 C 1.08729 1.07480 0.82213
 C3374 C 1.09331 1.08274 0.80403
 H3375 H 1.14402 1.09506 0.70821
 H3376 H 1.13318 1.08277 0.73957
 H3377 H 1.08594 1.12587 0.74068
 H3378 H 1.09608 1.13809 0.70884
 H3379 H 1.11391 1.08580 0.76952
 H3380 H 1.07326 1.10414 0.76192
 H3381 H 1.04798 1.08881 0.78264
 H3382 H 1.03747 1.07499 0.81429
 H3383 H 1.09838 1.07139 0.83321
 H3384 H 1.10892 1.08529 0.80182
 C3385 C 1.13403 0.60063 0.21474
 C3386 C 1.12766 0.59174 0.23222
 C3387 C 1.11208 0.59990 0.24321
 C3388 C 1.10303 0.61735 0.23642
 C3389 C 1.10936 0.62632 0.21893
 C3390 C 1.12511 0.61823 0.20771
 C3391 C 1.10637 0.59029 0.26204
 C3392 C 1.08849 0.59248 0.27039
 C3393 C 1.08288 0.58335 0.28950
 C3394 C 1.06271 0.58121 0.29385
 C3395 C 1.05668 0.57365 0.31207
 C3396 C 1.07071 0.56817 0.32644
 C3397 C 1.09091 0.57010 0.32206
 C3398 C 1.09696 0.57769 0.30383
 H3399 H 1.14591 0.59335 0.20690
 H3400 H 1.13496 0.57833 0.23716
 H3401 H 1.09138 0.62450 0.24481
 H3402 H 1.10201 0.63986 0.21472
 H3403 H 1.11713 0.58048 0.26875
 H3404 H 1.07713 0.60078 0.26269
 H3405 H 1.05156 0.58551 0.28314
 H3406 H 1.04101 0.57216 0.31497
 H3407 H 1.10204 0.56636 0.33300
 H3408 H 1.11263 0.57968 0.30136
 C3409 C 0.62672 1.09595 0.21070
 C3410 C 0.62101 1.08841 0.22902
 C3411 C 0.60637 1.09783 0.24028
 C3412 C 0.59758 1.11516 0.23290
 C3413 C 0.60327 1.12280 0.21458
 C3414 C 0.61810 1.11345 0.20307
 C3415 C 0.60137 1.08965 0.25997
 C3416 C 0.58401 1.09293 0.26902
 C3417 C 0.57918 1.08506 0.28887
 C3418 C 0.55922 1.08305 0.29412
 C3419 C 0.55398 1.07640 0.31294
 C3420 C 0.56862 1.07179 0.32701
 C3421 C 0.58861 1.07376 0.32177
 C3422 C 0.59386 1.08040 0.30293
 H3423 H 0.63798 1.08781 0.20281
 H3424 H 0.62809 1.07507 0.23442
 H3425 H 0.58664 1.12323 0.24141
 H3426 H 0.59607 1.13625 0.20987
 H3427 H 0.61218 1.07994 0.26677
 H3428 H 0.57247 1.10103 0.26137
 H3429 H 0.54763 1.08662 0.28361
 H3430 H 0.53845 1.07484 0.31648
 H3431 H 0.60020 1.07071 0.33244
 H3432 H 0.60939 1.08239 0.29971
 C3433 C 0.59522 0.62517 0.70919
 C3434 C 0.58628 0.61768 0.72624
 C3435 C 0.59743 0.60705 0.74020
 C3436 C 0.61762 0.60352 0.73645
 C3437 C 0.62653 0.61095 0.71942
 C3438 C 0.61548 0.62196 0.70563
 C3439 C 0.58748 0.59943 0.75817
 C3440 C 0.59712 0.59628 0.77527
 C3441 C 0.58796 0.58832 0.79354
 C3442 C 0.60057 0.58206 0.80884
 C3443 C 0.59291 0.57449 0.82642
 C3444 C 0.57238 0.57305 0.82918
 C3445 C 0.55968 0.57948 0.81399
 C3446 C 0.56735 0.58706 0.79636
 H3447 H 0.58624 0.63331 0.69871
 H3448 H 0.57065 0.62037 0.72864
 H3449 H 0.62659 0.59480 0.74647
 H3450 H 0.64217 0.60828 0.71720
 H3451 H 0.57178 0.59677 0.75710
 H3452 H 0.61275 0.59959 0.77608
 H3453 H 0.61648 0.58299 0.80720
 H3454 H 0.60309 0.57002 0.83798
 H3455 H 0.54379 0.57849 0.81568
 H3456 H 0.55699 0.59206 0.78525
 C3457 C 0.89500 0.86415 0.71422
 C3458 C 0.90182 0.86968 0.73294
 C3459 C 0.89996 0.88927 0.73949
 C3460 C 0.89097 0.90327 0.72695
 C3461 C 0.88408 0.89772 0.70827
 C3462 C 0.88592 0.87809 0.70173
 C3463 C 0.90657 0.89426 0.75979
 C3464 C 0.91192 0.91250 0.76533
 C3465 C 0.91793 0.91792 0.78576
 C3466 C 0.91844 0.93801 0.79088
 C3467 C 0.92390 0.94394 0.80992
 C3468 C 0.92908 0.92987 0.82430
 C3469 C 0.92875 0.90977 0.81917
 C3470 C 0.92336 0.90383 0.80013
 H3471 H 0.89633 0.84885 0.70976
 H3472 H 0.90848 0.85858 0.74240
 H3473 H 0.88869 0.91839 0.73164
 H3474 H 0.87722 0.90880 0.69895
 H3475 H 0.90700 0.88226 0.77029
 H3476 H 0.91167 0.92426 0.75452
 H3477 H 0.91452 0.94920 0.78010
 H3478 H 0.92432 0.95956 0.81330
 H3479 H 0.93252 0.89855 0.82996
 H3480 H 0.92375 0.88823 0.79685
 C3481 C 0.90020 0.36806 0.21536
 C3482 C 0.90790 0.37438 0.23343
 C3483 C 0.89882 0.38969 0.24404
 C3484 C 0.88161 0.39849 0.23629
 C3485 C 0.87380 0.39218 0.21819
 C3486 C 0.88287 0.37673 0.20730
 C3487 C 0.90733 0.39540 0.26343
 C3488 C 0.90441 0.41310 0.27188
 C3489 C 0.91299 0.41867 0.29128
 C3490 C 0.91536 0.43876 0.29568
 C3491 C 0.92290 0.44468 0.31399
 C3492 C 0.92810 0.43061 0.32837
 C3493 C 0.92573 0.41049 0.32400
 C3494 C 0.91817 0.40456 0.30570
 H3495 H 0.90803 0.35619 0.20808
 H3496 H 0.92112 0.36724 0.23914
 H3497 H 0.87382 0.40997 0.24430
 H3498 H 0.86056 0.39952 0.21307
 H3499 H 0.91713 0.38482 0.27046
 H3500 H 0.89619 0.42436 0.26398
 H3501 H 0.91139 0.44992 0.28490
 H3502 H 0.92470 0.46029 0.31689
 H3503 H 0.92921 0.39934 0.33496
 H3504 H 0.91592 0.38896 0.30318
 C3505 C 0.36833 0.90087 0.21422
 C3506 C 0.37589 0.90982 0.23124
 C3507 C 0.39321 0.90269 0.24014
 C3508 C 0.40331 0.88683 0.23122
 C3509 C 0.39582 0.87784 0.21419
 C3510 C 0.37796 0.88445 0.20541
 C3511 C 0.40033 0.91227 0.25854
 C3512 C 0.41150 0.90285 0.27200
 C3513 C 0.41791 0.91181 0.29096
 C3514 C 0.42345 0.89919 0.30648
 C3515 C 0.42982 0.90684 0.32456
 C3516 C 0.43097 0.92733 0.32751
 C3517 C 0.42550 0.94002 0.31199
 C3518 C 0.41913 0.93236 0.29385
 H3519 H 0.35483 0.90704 0.20829
 H3520 H 0.36796 0.92221 0.23766
 H3521 H 0.41716 0.88139 0.23719
 H3522 H 0.40425 0.86566 0.20818
 H3523 H 0.39500 0.92706 0.26159
 H3524 H 0.41520 0.88744 0.26971
 H3525 H 0.42272 0.88332 0.30465
 H3526 H 0.43369 0.89668 0.33633
 H3527 H 0.42656 0.95588 0.31375
 H3528 H 0.41560 0.94260 0.28209
 C3529 C 0.38198 0.40896 0.70380
 C3530 C 0.38841 0.41713 0.72168
 C3531 C 0.39725 0.40521 0.73621
 C3532 C 0.40006 0.38498 0.73225
 C3533 C 0.39371 0.37683 0.71435
 C3534 C 0.38450 0.38870 0.69996
 C3535 C 0.40389 0.41444 0.75498
 C3536 C 0.40528 0.40445 0.77207
 C3537 C 0.41232 0.41303 0.79103
 C3538 C 0.41782 0.40003 0.80625
 C3539 C 0.42467 0.40720 0.82437
 C3540 C 0.42611 0.42761 0.82776
 C3541 C 0.42031 0.44069 0.81268
 C3542 C 0.41345 0.43351 0.79452
 H3543 H 0.37523 0.41855 0.69288
 H3544 H 0.38632 0.43280 0.72425
 H3545 H 0.40743 0.37540 0.74276
 H3546 H 0.39580 0.36117 0.71190
 H3547 H 0.40739 0.42997 0.75448
 H3548 H 0.40131 0.38900 0.77231
 H3549 H 0.41692 0.38421 0.80410
 H3550 H 0.42864 0.39674 0.83583
 H3551 H 0.42128 0.45649 0.81486
 H3552 H 0.40889 0.44413 0.78348
 C3553 C 1.13482 0.89707 1.28380
 C3554 C 1.12830 0.90536 1.26602
 C3555 C 1.11263 0.89701 1.25545
 C3556 C 1.10371 0.87990 1.26293
 C3557 C 1.11020 0.87152 1.28071
 C3558 C 1.12598 0.87987 1.29158
 C3559 C 1.10663 0.90609 1.23639
 C3560 C 1.08863 0.90390 1.22833
 C3561 C 1.08264 0.91283 1.20917
 C3562 C 1.06240 0.91528 1.20517
 C3563 C 1.05603 0.92289 1.18703
 C3564 C 1.06978 0.92810 1.17238
 C3565 C 1.09006 0.92575 1.17638
 C3566 C 1.09645 0.91811 1.19453
 H3567 H 1.14681 0.90446 1.29122
 H3568 H 1.13553 0.91849 1.26054
 H3569 H 1.09199 0.87260 1.25490
 H3570 H 1.10285 0.85828 1.28550
 H3571 H 1.11726 0.91562 1.22929
 H3572 H 1.07741 0.89590 1.23637
 H3573 H 1.05145 0.91126 1.21611
 H3574 H 1.04031 0.92470 1.18446
 H3575 H 1.10099 0.92926 1.16524
 H3576 H 1.11215 0.91587 1.19672
 C3577 C 1.10242 0.36710 0.78711
 C3578 C 1.09354 0.37481 0.77010
 C3579 C 1.10226 0.39036 0.75974
 C3580 C 1.11979 0.39858 0.76721
 C3581 C 1.12873 0.39091 0.78425
 C3582 C 1.12041 0.37477 0.79448
 C3583 C 1.09242 0.39767 0.74148
 C3584 C 1.10202 0.40722 0.72704
 C3585 C 1.09264 0.41380 0.70825
 C3586 C 1.10498 0.41847 0.69226
 C3587 C 1.09701 0.42500 0.67435
 C3588 C 1.07646 0.42714 0.67199
 C3589 C 1.06402 0.42247 0.68794
 C3590 C 1.07200 0.41599 0.70593
 H3591 H 1.09485 0.35511 0.79426
 H3592 H 1.07986 0.36838 0.76487
 H3593 H 1.12661 0.41109 0.76011
 H3594 H 1.14228 0.39775 0.78905
 H3595 H 1.07705 0.39383 0.73947
 H3596 H 1.11779 0.40949 0.72841
 H3597 H 1.12090 0.41698 0.69360
 H3598 H 1.10697 0.42827 0.66225
 H3599 H 1.04815 0.42429 0.68663
 H3600 H 1.06193 0.41316 0.71800
 C3601 C 0.61895 0.90599 0.79476
 C3602 C 0.61196 0.91467 0.77733
 C3603 C 0.60215 0.90332 0.76303
 C3604 C 0.59884 0.88319 0.76684
 C3605 C 0.60574 0.87454 0.78431
 C3606 C 0.61602 0.88580 0.79840
 C3607 C 0.59519 0.91300 0.74460
 C3608 C 0.59317 0.90325 0.72741
 C3609 C 0.58613 0.91227 0.70863
 C3610 C 0.58091 0.89960 0.69304
 C3611 C 0.57416 0.90714 0.67503
 C3612 C 0.57250 0.92761 0.67211
 C3613 C 0.57797 0.94037 0.68756
 C3614 C 0.58474 0.93283 0.70562
 H3615 H 0.62652 0.91513 0.80548
 H3616 H 0.61445 0.93025 0.77488
 H3617 H 0.59073 0.87408 0.75651
 H3618 H 0.60329 0.85895 0.78663
 H3619 H 0.59218 0.92867 0.74540
 H3620 H 0.59678 0.88766 0.72692
 H3621 H 0.58200 0.88374 0.69481
 H3622 H 0.57044 0.89691 0.66329
 H3623 H 0.57680 0.95622 0.68576
 H3624 H 0.58900 0.94323 0.71695
 C3625 C 0.60185 0.37128 1.28727
 C3626 C 0.59301 0.37896 1.27027
 C3627 C 0.60234 0.39363 1.25921
 C3628 C 0.62047 0.40112 1.26603
 C3629 C 0.62940 0.39347 1.28311
 C3630 C 0.62045 0.37809 1.29393
 C3631 C 0.59253 0.40069 1.24086
 C3632 C 0.60224 0.40925 1.22589
 C3633 C 0.59281 0.41520 1.20691
 C3634 C 0.60513 0.41910 1.19069
 C3635 C 0.59714 0.42496 1.17256
 C3636 C 0.57659 0.42712 1.17022
 C3637 C 0.56417 0.42316 1.18635
 C3638 C 0.57218 0.41741 1.20457
 H3639 H 0.59372 0.36010 1.29510
 H3640 H 0.57885 0.37317 1.26558
 H3641 H 0.62783 0.41298 1.25835
 H3642 H 0.64351 0.39952 1.28737
 H3643 H 0.57700 0.39734 1.23925
 H3644 H 0.61810 0.41106 1.22696
 H3645 H 0.62104 0.41757 1.19202
 H3646 H 0.60705 0.42775 1.16031
 H3647 H 0.54830 0.42503 1.18501
 H3648 H 0.56210 0.41515 1.21675
 C3649 C 0.90357 1.11689 1.29572
 C3650 C 0.91161 1.10919 1.27827
 C3651 C 0.89931 1.10144 1.26348
 C3652 C 0.87876 1.10086 1.26685
 C3653 C 0.87073 1.10849 1.28435
 C3654 C 0.88302 1.11679 1.29890
 C3655 C 0.90846 1.09382 1.24501
 C3656 C 0.89887 1.09319 1.22763
 C3657 C 0.90775 1.08583 1.20890
 C3658 C 0.89500 1.08045 1.19343
 C3659 C 0.90252 1.07357 1.17543
 C3660 C 0.92304 1.07201 1.17241
 C3661 C 0.93586 1.07768 1.18774
 C3662 C 0.92833 1.08455 1.20579
 H3663 H 0.91346 1.12284 1.30680
 H3664 H 0.92749 1.10955 1.27618
 H3665 H 0.86882 1.09439 1.25615
 H3666 H 0.85485 1.10821 1.28633
 H3667 H 0.92375 1.08910 1.24590
 H3668 H 0.88363 1.09816 1.22690
 H3669 H 0.87911 1.08150 1.19529
 H3670 H 0.89225 1.06969 1.16377
 H3671 H 0.95174 1.07663 1.18585
 H3672 H 0.93874 1.08909 1.21703
 C3673 C 0.86263 0.61401 0.77927
 C3674 C 0.86895 0.60746 0.76069
 C3675 C 0.88909 0.60753 0.75568
 C3676 C 0.90284 0.61464 0.76960
 C3677 C 0.89650 0.62127 0.78816
 C3678 C 0.87634 0.62102 0.79321
 C3679 C 0.89500 0.60078 0.73563
 C3680 C 0.91312 0.59379 0.73126
 C3681 C 0.91912 0.58693 0.71124
 C3682 C 0.93939 0.58541 0.70690
 C3683 C 0.94580 0.57886 0.68833
 C3684 C 0.93205 0.57354 0.67369
 C3685 C 0.91176 0.57488 0.67807
 C3686 C 0.90535 0.58139 0.69663
 H3687 H 0.84697 0.61395 0.78258
 H3688 H 0.85804 0.60228 0.75017
 H3689 H 0.91842 0.61552 0.76614
 H3690 H 0.90742 0.62652 0.79860
 H3691 H 0.88373 0.60143 0.72430
 H3692 H 0.92428 0.59312 0.74273
 H3693 H 0.95034 0.58937 0.71791
 H3694 H 0.96154 0.57770 0.68553
 H3695 H 0.90078 0.57102 0.66707
 H3696 H 0.88961 0.58171 0.69942
 C3697 C 0.35391 1.12305 0.77217
 C3698 C 0.36074 1.11524 0.75428
 C3699 C 0.38107 1.11409 0.75025
 C3700 C 0.39449 1.12153 0.76433
 C3701 C 0.38762 1.12951 0.78222
 C3702 C 0.36726 1.13017 0.78640
 C3703 C 0.38747 1.10557 0.73102
 C3704 C 0.40532 1.09728 0.72798
 C3705 C 0.41166 1.08860 0.70875
 C3706 C 0.43198 1.08637 0.70506
 C3707 C 0.43871 1.07860 0.68709
 C3708 C 0.42524 1.07271 0.67239
 C3709 C 0.40487 1.07440 0.67627
 C3710 C 0.39813 1.08220 0.69425
 H3711 H 0.33813 1.12371 0.77478
 H3712 H 0.35007 1.10987 0.74360
 H3713 H 0.41024 1.12150 0.76155
 H3714 H 0.39824 1.13489 0.79290
 H3715 H 0.37674 1.10588 0.71915
 H3716 H 0.41600 1.09699 0.73991
 H3717 H 0.44273 1.09089 0.71604
 H3718 H 0.45449 1.07715 0.68470
 H3719 H 0.39412 1.07004 0.66523
 H3720 H 0.38234 1.08297 0.69668
 C3721 C 0.36685 0.60491 1.28617
 C3722 C 0.37345 0.59689 1.26829
 C3723 C 0.38923 0.60532 1.25803
 C3724 C 0.39823 0.62223 1.26597
 C3725 C 0.39164 0.63036 1.28390
 C3726 C 0.37572 0.62191 1.29442
 C3727 C 0.39523 0.59639 1.23884
 C3728 C 0.41307 0.59882 1.23053
 C3729 C 0.41895 0.58956 1.21145
 C3730 C 0.43917 0.58715 1.20730
 C3731 C 0.44540 0.57899 1.18932
 C3732 C 0.43154 0.57315 1.17498
 C3733 C 0.41129 0.57553 1.17909
 C3734 C 0.40504 0.58373 1.19707
 H3735 H 0.35479 0.59741 1.29329
 H3736 H 0.36618 0.58390 1.26249
 H3737 H 0.41009 0.62957 1.25823
 H3738 H 0.39901 0.64346 1.28910
 H3739 H 0.38470 0.58662 1.23186
 H3740 H 0.42426 0.60711 1.23836
 H3741 H 0.45020 0.59158 1.21803
 H3742 H 0.46111 0.57721 1.18665
 H3743 H 0.40027 0.57158 1.16816
 H3744 H 0.38935 0.58593 1.19933
 C3745 C 1.14038 1.27167 0.88362
 C3746 C 1.13334 1.25375 0.89087
 C3747 C 1.11299 1.24978 0.89100
 C3748 C 1.09979 1.26400 0.88335
 C3749 C 1.10685 1.28189 0.87601
 C3750 C 1.12722 1.28595 0.87610
 C3751 C 1.10632 1.23042 0.89856
 C3752 C 1.08815 1.22727 0.90587
 C3753 C 1.08149 1.20790 0.91351
 C3754 C 1.06110 1.20430 0.91478
 C3755 C 1.05413 1.18625 0.92183
 C3756 C 1.06743 1.17143 0.92792
 C3757 C 1.08784 1.17513 0.92694
 C3758 C 1.09481 1.19317 0.91993
 H3759 H 1.15617 1.27420 0.88358
 H3760 H 1.14383 1.24296 0.89646
 H3761 H 1.08406 1.26128 0.88261
 H3762 H 1.09636 1.29263 0.87036
 H3763 H 1.11706 1.21853 0.89826
 H3764 H 1.07747 1.23924 0.90614
 H3765 H 1.05051 1.21545 0.91016
 H3766 H 1.03831 1.18397 0.92270
 H3767 H 1.09848 1.16397 0.93140
 H3768 H 1.11061 1.19548 0.91988
 C3769 C 1.09905 0.78925 0.37310
 C3770 C 1.09037 0.77209 0.38048
 C3771 C 1.10178 0.75795 0.39059
 C3772 C 1.12205 0.76158 0.39359
 C3773 C 1.13070 0.77876 0.38626
 C3774 C 1.11933 0.79278 0.37589
 C3775 C 1.09194 0.74002 0.39832
 C3776 C 1.10158 0.72292 0.40156
 C3777 C 1.09234 0.70475 0.40958
 C3778 C 1.10488 0.68936 0.41582
 C3779 C 1.09714 0.67188 0.42343
 C3780 C 1.07659 0.66931 0.42495
 C3781 C 1.06397 0.68459 0.41855
 C3782 C 1.07171 0.70210 0.41091
 H3783 H 1.08981 0.79990 0.36546
 H3784 H 1.07469 0.76979 0.37818
 H3785 H 1.13125 0.75142 0.40187
 H3786 H 1.14637 0.78097 0.38859
 H3787 H 1.07622 0.74114 0.40103
 H3788 H 1.11723 0.72202 0.39827
 H3789 H 1.12080 0.69085 0.41484
 H3790 H 1.10727 0.66026 0.42788
 H3791 H 1.04806 0.68307 0.41960
 H3792 H 1.06139 0.71327 0.40594
 C3793 C 0.61741 1.27445 0.35928
 C3794 C 0.60994 1.25645 0.36581
 C3795 C 0.61119 1.25118 0.38583
 C3796 C 0.62065 1.26403 0.39916
 C3797 C 0.62832 1.28197 0.39257
 C3798 C 0.62660 1.28743 0.37260
 C3799 C 0.60295 1.23200 0.39205
 C3800 C 0.59567 1.22876 0.41021
 C3801 C 0.58710 1.20970 0.41659
 C3802 C 0.58523 1.20603 0.43694
 C3803 C 0.57751 1.18820 0.44370
 C3804 C 0.57138 1.17363 0.43023
 C3805 C 0.57282 1.17745 0.40986
 C3806 C 0.58048 1.19530 0.40309
 H3807 H 0.61622 1.27812 0.34374
 H3808 H 0.60295 1.24669 0.35522
 H3809 H 0.62242 1.26017 0.41459
 H3810 H 0.63534 1.29172 0.40312
 H3811 H 0.60251 1.22050 0.38095
 H3812 H 0.59611 1.24051 0.42109
 H3813 H 0.58995 1.21693 0.44767
 H3814 H 0.57626 1.18584 0.45949
 H3815 H 0.56833 1.16649 0.39911
 H3816 H 0.58097 1.19767 0.38729
 C3817 C 0.59268 0.79282 0.87915
 C3818 C 0.58433 0.77537 0.88622
 C3819 C 0.59627 0.76056 0.89461
 C3820 C 0.61676 0.76379 0.89625
 C3821 C 0.62509 0.78124 0.88924
 C3822 C 0.61318 0.79595 0.88056
 C3823 C 0.58682 0.74233 0.90206
 C3824 C 0.59644 0.72498 0.90345
 C3825 C 0.58759 0.70656 0.91126
 C3826 C 0.60039 0.69112 0.91676
 C3827 C 0.59296 0.67343 0.92415
 C3828 C 0.57248 0.67069 0.92613
 C3829 C 0.55959 0.68602 0.92041
 C3830 C 0.56703 0.70376 0.91301
 H3831 H 0.58306 0.80398 0.87284
 H3832 H 0.56848 0.77337 0.88502
 H3833 H 0.62642 0.75307 0.90323
 H3834 H 0.64093 0.78313 0.89047
 H3835 H 0.57142 0.74344 0.90623
 H3836 H 0.61176 0.72408 0.89887
 H3837 H 0.61627 0.69276 0.91540
 H3838 H 0.60327 0.66176 0.92807
 H3839 H 0.54373 0.68435 0.92181
 H3840 H 0.55654 0.71498 0.90849
 C3841 C 0.90421 1.29042 1.12411
 C3842 C 0.91242 1.27301 1.11658
 C3843 C 0.90238 1.26193 1.10232
 C3844 C 0.88424 1.26913 1.09501
 C3845 C 0.87595 1.28658 1.10252
 C3846 C 0.88556 1.29744 1.11756
 C3847 C 0.91144 1.24311 1.09549
 C3848 C 0.90096 1.22823 1.08772
 C3849 C 0.90953 1.20877 1.08206
 C3850 C 0.89650 1.19313 1.07840
 C3851 C 0.90366 1.17455 1.07290
 C3852 C 0.92408 1.17114 1.07091
 C3853 C 0.93720 1.18668 1.07459
 C3854 C 0.93004 1.20536 1.07996
 H3855 H 0.91282 1.29819 1.13503
 H3856 H 0.92661 1.26802 1.12220
 H3857 H 0.87636 1.26143 1.08342
 H3858 H 0.86180 1.29112 1.09661
 H3859 H 0.92705 1.24113 1.09839
 H3860 H 0.88508 1.22984 1.08636
 H3861 H 0.88067 1.19528 1.07985
 H3862 H 0.89321 1.16277 1.07029
 H3863 H 0.95299 1.18450 1.07283
 H3864 H 0.94067 1.21701 1.08204
 C3865 C 0.86774 0.78542 0.60089
 C3866 C 0.87422 0.76746 0.59294
 C3867 C 0.89427 0.76197 0.59381
 C3868 C 0.90785 0.77520 0.60232
 C3869 C 0.90134 0.79314 0.61034
 C3870 C 0.88120 0.79837 0.60986
 C3871 C 0.90022 0.74246 0.58564
 C3872 C 0.91723 0.73319 0.59018
 C3873 C 0.92255 0.71331 0.58262
 C3874 C 0.94262 0.70801 0.58143
 C3875 C 0.94827 0.68918 0.57502
 C3876 C 0.93394 0.67513 0.56989
 C3877 C 0.91383 0.68039 0.57118
 C3878 C 0.90817 0.69925 0.57751
 H3879 H 0.85211 0.78893 0.60044
 H3880 H 0.86345 0.75764 0.58638
 H3881 H 0.92353 0.77201 0.60269
 H3882 H 0.91211 0.80302 0.61675
 H3883 H 0.88980 0.73532 0.57584
 H3884 H 0.92788 0.74020 0.59977
 H3885 H 0.95397 0.71852 0.58539
 H3886 H 0.96389 0.68566 0.57398
 H3887 H 0.90243 0.66976 0.56777
 H3888 H 0.89255 0.70250 0.57892
 C3889 C 0.40489 1.29069 0.62775
 C3890 C 0.41270 1.27261 0.62137
 C3891 C 0.40530 1.26329 0.60444
 C3892 C 0.39033 1.27277 0.59353
 C3893 C 0.38248 1.29085 0.59983
 C3894 C 0.38940 1.30017 0.61725
 C3895 C 0.41380 1.24394 0.59842
 C3896 C 0.40374 1.23066 0.58772
 C3897 C 0.41175 1.21101 0.58206
 C3898 C 0.39839 1.19605 0.57703
 C3899 C 0.40519 1.17740 0.57126
 C3900 C 0.42557 1.17331 0.57024
 C3901 C 0.43900 1.18828 0.57519
 C3902 C 0.43219 1.20697 0.58096
 H3903 H 0.41102 1.29682 0.64113
 H3904 H 0.42441 1.26572 0.62993
 H3905 H 0.38478 1.26646 0.57992
 H3906 H 0.37112 1.29739 0.59069
 H3907 H 0.42832 1.24018 0.60408
 H3908 H 0.38851 1.23376 0.58373
 H3909 H 0.38258 1.19877 0.57766
 H3910 H 0.39447 1.16611 0.56776
 H3911 H 0.45479 1.18567 0.57417
 H3912 H 0.44300 1.21825 0.58408
 C3913 C 0.39893 0.78697 1.13389
 C3914 C 0.40778 0.76956 1.12704
 C3915 C 0.39962 0.75904 1.11120
 C3916 C 0.38260 0.76667 1.10191
 C3917 C 0.37368 0.78411 1.10871
 C3918 C 0.38153 0.79463 1.12501
 C3919 C 0.40953 0.74051 1.10463
 C3920 C 0.40016 0.72607 1.09484
 C3921 C 0.40965 0.70718 1.08864
 C3922 C 0.39738 0.69131 1.08361
 C3923 C 0.40543 0.67341 1.07712
 C3924 C 0.42601 0.67092 1.07539
 C3925 C 0.43838 0.68670 1.08055
 C3926 C 0.43031 0.70469 1.08700
 H3927 H 0.40590 0.79406 1.14635
 H3928 H 0.42101 0.76414 1.13436
 H3929 H 0.37624 0.75944 1.08915
 H3930 H 0.36072 0.78922 1.10086
 H3931 H 0.42476 0.73838 1.10910
 H3932 H 0.38447 0.72760 1.09195
 H3933 H 0.38144 0.69277 1.08469
 H3934 H 0.39551 0.66144 1.07350
 H3935 H 0.45428 0.68529 1.07907
 H3936 H 0.44034 0.71665 1.09017
 C3937 C 0.90578 0.70548 0.88102
 C3938 C 0.91425 0.72290 0.88809
 C3939 C 0.90258 0.73720 0.89769
 C3940 C 0.88239 0.73337 0.90079
 C3941 C 0.87395 0.71594 0.89380
 C3942 C 0.88550 0.70188 0.88365
 C3943 C 0.91197 0.75569 0.90457
 C3944 C 0.90198 0.77282 0.90612
 C3945 C 0.91069 0.79164 0.91312
 C3946 C 0.89774 0.80692 0.91877
 C3947 C 0.90502 0.82495 0.92552
 C3948 C 0.92549 0.82820 0.92669
 C3949 C 0.93852 0.81307 0.92072
 C3950 C 0.93123 0.79498 0.91397
 H3951 H 0.91513 0.69477 0.87356
 H3952 H 0.92990 0.72536 0.88579
 H3953 H 0.87305 0.74370 0.90877
 H3954 H 0.85829 0.71366 0.89603
 H3955 H 0.92759 0.75502 0.90794
 H3956 H 0.88644 0.77320 0.90226
 H3957 H 0.88187 0.80487 0.91807
 H3958 H 0.89459 0.83645 0.92962
 H3959 H 0.95438 0.81515 0.92148
 H3960 H 0.94180 0.78390 0.90926
 C3961 C 0.90515 0.20713 0.38277
 C3962 C 0.91349 0.22446 0.39022
 C3963 C 0.90149 0.23932 0.39844
 C3964 C 0.88095 0.23624 0.39963
 C3965 C 0.87262 0.21893 0.39223
 C3966 C 0.88459 0.20421 0.38361
 C3967 C 0.91090 0.25754 0.40603
 C3968 C 0.90135 0.27493 0.40721
 C3969 C 0.91030 0.29338 0.41485
 C3970 C 0.89760 0.30882 0.42064
 C3971 C 0.90519 0.32659 0.42772
 C3972 C 0.92572 0.32941 0.42909
 C3973 C 0.93849 0.31406 0.42312
 C3974 C 0.93090 0.29624 0.41603
 H3975 H 0.91480 0.19594 0.37653
 H3976 H 0.92937 0.22634 0.38937
 H3977 H 0.87123 0.24700 0.40649
 H3978 H 0.85675 0.21719 0.39304
 H3979 H 0.92626 0.25641 0.41039
 H3980 H 0.88606 0.27588 0.40253
 H3981 H 0.88170 0.30711 0.41970
 H3982 H 0.89497 0.33827 0.43185
 H3983 H 0.95438 0.31580 0.42404
 H3984 H 0.94127 0.28501 0.41123
 C3985 C 0.37469 0.71234 0.40158
 C3986 C 0.38250 0.72947 0.40989
 C3987 C 0.39714 0.74018 0.40008
 C3988 C 0.40437 0.73293 0.38193
 C3989 C 0.39657 0.71573 0.37353
 C3990 C 0.38131 0.70518 0.38303
 C3991 C 0.40446 0.75856 0.40952
 C3992 C 0.41365 0.77302 0.39966
 C3993 C 0.41988 0.79197 0.40883
 C3994 C 0.42439 0.80782 0.39631
 C3995 C 0.43038 0.82593 0.40409
 C3996 C 0.43205 0.82865 0.42463
 C3997 C 0.42760 0.81285 0.43724
 C3998 C 0.42172 0.79464 0.42946
 H3999 H 0.36356 0.70484 0.41009
 H4000 H 0.37687 0.73449 0.42405
 H4001 H 0.41616 0.74033 0.37417
 H4002 H 0.40249 0.71110 0.35942
 H4003 H 0.40086 0.76063 0.42497
 H4004 H 0.41580 0.77157 0.38386
 H4005 H 0.42318 0.80622 0.38040
 H4006 H 0.43356 0.83791 0.39401
 H4007 H 0.42910 0.81445 0.45312
 H4008 H 0.41903 0.78274 0.43971
 C4009 C 0.36584 0.21578 0.89816
 C4010 C 0.37376 0.23240 0.90735
 C4011 C 0.38863 0.24336 0.89819
 C4012 C 0.39603 0.23682 0.87984
 C4013 C 0.38814 0.22012 0.87058
 C4014 C 0.37260 0.20939 0.87939
 C4015 C 0.39603 0.26127 0.90844
 C4016 C 0.40480 0.27628 0.89905
 C4017 C 0.41124 0.29480 0.90892
 C4018 C 0.41553 0.31114 0.89697
 C4019 C 0.42204 0.32880 0.90534
 C4020 C 0.42447 0.33056 0.92591
 C4021 C 0.42003 0.31434 0.93798
 C4022 C 0.41361 0.29658 0.92959
 H4023 H 0.35453 0.20800 0.90619
 H4024 H 0.36803 0.23687 0.92165
 H4025 H 0.40801 0.24443 0.87258
 H4026 H 0.39415 0.21605 0.85634
 H4027 H 0.39281 0.26252 0.92406
 H4028 H 0.40649 0.27558 0.88315
 H4029 H 0.41386 0.31026 0.88105
 H4030 H 0.42515 0.34114 0.89569
 H4031 H 0.42205 0.31524 0.95386
 H4032 H 0.41101 0.28429 0.93939
 C4033 C 1.10102 0.71585 1.13628
 C4034 C 1.09208 0.73318 1.12932
 C4035 C 1.09883 0.74230 1.11203
 C4036 C 1.11435 0.73334 1.10143
 C4037 C 1.12332 0.71603 1.10832
 C4038 C 1.11701 0.70694 1.12604
 C4039 C 1.08910 0.76082 1.10528
 C4040 C 1.09827 0.77423 1.09401
 C4041 C 1.08903 0.79300 1.08734
 C4042 C 1.10144 0.80840 1.08135
 C4043 C 1.09352 0.82618 1.07444
 C4044 C 1.07293 0.82896 1.07318
 C4045 C 1.06045 0.81357 1.07915
 C4046 C 1.06839 0.79574 1.08609
 H4047 H 1.09537 0.70986 1.14992
 H4048 H 1.08000 0.73967 1.13767
 H4049 H 1.11945 0.73943 1.08757
 H4050 H 1.13500 0.70982 1.09934
 H4051 H 1.07435 0.76387 1.11076
 H4052 H 1.11366 0.77192 1.09017
 H4053 H 1.11737 0.80669 1.08208
 H4054 H 1.10354 0.83785 1.07022
 H4055 H 1.04453 0.81517 1.07804
 H4056 H 1.05829 0.78406 1.08998
 C4057 C 1.12611 0.20815 0.59832
 C4058 C 1.11941 0.22596 0.59033
 C4059 C 1.10504 0.23734 0.60004
 C4060 C 1.09710 0.23022 0.61786
 C4061 C 1.10378 0.21234 0.62595
 C4062 C 1.11858 0.20091 0.61644
 C4063 C 1.09860 0.25619 0.59073
 C4064 C 1.08973 0.27101 0.60060
 C4065 C 1.08401 0.29019 0.59144
 C4066 C 1.07989 0.30625 0.60396
 C4067 C 1.07408 0.32449 0.59620
 C4068 C 1.07217 0.32713 0.57566
 C4069 C 1.07636 0.31115 0.56305
 C4070 C 1.08208 0.29283 0.57082
 H4071 H 1.13721 0.20029 0.58993
 H4072 H 1.12565 0.23094 0.57646
 H4073 H 1.08551 0.23820 0.62555
 H4074 H 1.09716 0.20773 0.63970
 H4075 H 1.10246 0.25819 0.57534
 H4076 H 1.08735 0.26959 0.61635
 H4077 H 1.08119 0.30470 0.61987
 H4078 H 1.07114 0.33659 0.60629
 H4079 H 1.07470 0.31268 0.54718
 H4080 H 1.08450 0.28078 0.56057
 C4081 C 0.64131 0.72511 0.61684
 C4082 C 0.63534 0.74338 0.60928
 C4083 C 0.61523 0.74860 0.60858
 C4084 C 0.60118 0.73533 0.61608
 C4085 C 0.60717 0.71709 0.62376
 C4086 C 0.62729 0.71174 0.62414
 C4087 C 0.60964 0.76824 0.60061
 C4088 C 0.59194 0.77217 0.59246
 C4089 C 0.58605 0.79184 0.58469
 C4090 C 0.56582 0.79600 0.58231
 C4091 C 0.55947 0.81439 0.57536
 C4092 C 0.57324 0.82904 0.57048
 C4093 C 0.59352 0.82476 0.57241
 C4094 C 0.59989 0.80635 0.57937
 H4095 H 0.65694 0.72157 0.61725
 H4096 H 0.64647 0.75343 0.60383
 H4097 H 0.58560 0.73906 0.61640
 H4098 H 0.59604 0.70708 0.62924
 H4099 H 0.62077 0.77960 0.60136
 H4100 H 0.58098 0.76062 0.59166
 H4101 H 0.55484 0.78504 0.58605
 H4102 H 0.54375 0.81711 0.57369
 H4103 H 0.60449 0.83576 0.56884
 H4104 H 0.61563 0.80363 0.58031
 C4105 C 0.59684 0.21012 1.13023
 C4106 C 0.58886 0.22803 1.12364
 C4107 C 0.59668 0.23761 1.10710
 C4108 C 0.61244 0.22860 1.09688
 C4109 C 0.62047 0.21067 1.10340
 C4110 C 0.61296 0.20102 1.12033
 C4111 C 0.58769 0.25663 1.10075
 C4112 C 0.59742 0.27016 1.09010
 C4113 C 0.58878 0.28946 1.08410
 C4114 C 0.60168 0.30472 1.07884
 C4115 C 0.59432 0.32303 1.07269
 C4116 C 0.57383 0.32649 1.07152
 C4117 C 0.56086 0.31124 1.07674
 C4118 C 0.56823 0.29288 1.08288
 H4119 H 0.59010 0.20367 1.14312
 H4120 H 0.57655 0.23452 1.13168
 H4121 H 0.61846 0.23514 1.08362
 H4122 H 0.63257 0.20461 1.09488
 H4123 H 0.57294 0.25994 1.10606
 H4124 H 0.61279 0.26756 1.08638
 H4125 H 0.61755 0.30250 1.07956
 H4126 H 0.60471 0.33455 1.06900
 H4127 H 0.54501 0.31337 1.07565
 H4128 H 0.55775 0.28137 1.08619
 C4129 C 1.26864 1.14430 0.88262
 C4130 C 1.25067 1.13758 0.89011
 C4131 C 1.24550 1.11764 0.88840
 C4132 C 1.25843 1.10459 0.87849
 C4133 C 1.27634 1.11137 0.87081
 C4134 C 1.28169 1.13127 0.87294
 C4135 C 1.22629 1.11121 0.89658
 C4136 C 1.22308 1.09287 0.90324
 C4137 C 1.20398 1.08622 0.91170
 C4138 C 1.20058 1.06587 0.91326
 C4139 C 1.18277 1.05884 0.92092
 C4140 C 1.16796 1.07204 0.92727
 C4141 C 1.17148 1.09242 0.92608
 C4142 C 1.18930 1.09945 0.91850
 H4143 H 1.27221 1.15978 0.88415
 H4144 H 1.24085 1.14796 0.89746
 H4145 H 1.25465 1.08924 0.87634
 H4146 H 1.28613 1.10102 0.86342
 H4147 H 1.21476 1.12230 0.89747
 H4148 H 1.23489 1.08203 0.90240
 H4149 H 1.21169 1.05533 0.90839
 H4150 H 1.18065 1.04304 0.92196
 H4151 H 1.16031 1.10298 0.93074
 H4152 H 1.19142 1.11524 0.91823
 C4153 C 1.28038 0.63590 0.39361
 C4154 C 1.26286 0.62867 0.40168
 C4155 C 1.25762 0.60879 0.39926
 C4156 C 1.27056 0.59617 0.38877
 C4157 C 1.28807 0.60345 0.38064
 C4158 C 1.29315 0.62340 0.38292
 C4159 C 1.23865 0.60212 0.40803
 C4160 C 1.23003 0.58477 0.40402
 C4161 C 1.21073 0.57895 0.41253
 C4162 C 1.20647 0.55881 0.41450
 C4163 C 1.18821 0.55273 0.42194
 C4164 C 1.17373 0.56670 0.42739
 C4165 C 1.17794 0.58687 0.42531
 C4166 C 1.19620 0.59295 0.41790
 H4167 H 1.28373 0.65139 0.39545
 H4168 H 1.25325 0.63873 0.40970
 H4169 H 1.26753 0.58065 0.38693
 H4170 H 1.29780 0.59338 0.37280
 H4171 H 1.23141 0.61224 0.41815
 H4172 H 1.23718 0.57418 0.39438
 H4173 H 1.21734 0.54773 0.41035
 H4174 H 1.18545 0.53709 0.42352
 H4175 H 1.16690 0.59797 0.42894
 H4176 H 1.19860 0.60859 0.41589
 C4177 C 0.77895 1.13998 0.38839
 C4178 C 0.76050 1.13419 0.39554
 C4179 C 0.75490 1.11429 0.39505
 C4180 C 0.76799 1.10030 0.38672
 C4181 C 0.78641 1.10614 0.37942
 C4182 C 0.79214 1.12602 0.38031
 C4183 C 0.73513 1.10891 0.40275
 C4184 C 0.73087 1.09098 0.40994
 C4185 C 0.71111 1.08537 0.41764
 C4186 C 0.70667 1.06522 0.41925
 C4187 C 0.68821 1.05913 0.42611
 C4188 C 0.67373 1.07307 0.43166
 C4189 C 0.67829 1.09324 0.43052
 C4190 C 0.69678 1.09935 0.42366
 H4191 H 0.78278 1.15545 0.38894
 H4192 H 0.75061 1.14528 0.40163
 H4193 H 0.76397 1.08492 0.38548
 H4194 H 0.79627 1.09506 0.37329
 H4195 H 0.72396 1.12041 0.40271
 H4196 H 0.74224 1.07965 0.41004
 H4197 H 0.71748 1.05412 0.41498
 H4198 H 0.68528 1.04347 0.42717
 H4199 H 0.66744 1.10434 0.43463
 H4200 H 0.69971 1.11500 0.42332
 C4201 C 0.78203 0.63539 0.89511
 C4202 C 0.76396 0.62907 0.90274
 C4203 C 0.75662 0.61027 0.89816
 C4204 C 0.76781 0.59793 0.88556
 C4205 C 0.78597 0.60422 0.87804
 C4206 C 0.79331 0.62305 0.88267
 C4207 C 0.73703 0.60461 0.90631
 C4208 C 0.72987 0.58616 0.90606
 C4209 C 0.71010 0.58067 0.91389
 C4210 C 0.70608 0.56060 0.91699
 C4211 C 0.68757 0.55459 0.92381
 C4212 C 0.67264 0.56855 0.92773
 C4213 C 0.67656 0.58863 0.92464
 C4214 C 0.69501 0.59465 0.91766
 H4215 H 0.78695 0.65012 0.89874
 H4216 H 0.75561 0.63900 0.91221
 H4217 H 0.76265 0.58354 0.88113
 H4218 H 0.79428 0.59423 0.86865
 H4219 H 0.72854 0.61625 0.91329
 H4220 H 0.73894 0.57422 0.90045
 H4221 H 0.71733 0.54948 0.91411
 H4222 H 0.68496 0.53901 0.92617
 H4223 H 0.66515 0.59966 0.92719
 H4224 H 0.69707 0.61020 0.91487
 C4225 C 1.27356 0.88058 1.14000
 C4226 C 1.25516 0.88745 1.13351
 C4227 C 1.25020 0.88694 1.11337
 C4228 C 1.26380 0.87866 1.09986
 C4229 C 1.28218 0.87157 1.10641
 C4230 C 1.28734 0.87272 1.12652
 C4231 C 1.23063 0.89483 1.10724
 C4232 C 1.22705 0.90253 1.08929
 C4233 C 1.20766 0.91112 1.08328
 C4234 C 1.20363 0.91328 1.06301
 C4235 C 1.18557 0.92116 1.05659
 C4236 C 1.17113 0.92720 1.07032
 C4237 C 1.17530 0.92549 1.09062
 C4238 C 1.19337 0.91762 1.09705
 H4239 H 1.27699 0.88132 1.15563
 H4240 H 1.24487 0.89351 1.14425
 H4241 H 1.26025 0.87744 1.08429
 H4242 H 1.29252 0.86555 1.09573
 H4243 H 1.21910 0.89480 1.11831
 H4244 H 1.23874 0.90255 1.07835
 H4245 H 1.21443 0.90867 1.05207
 H4246 H 1.18295 0.92260 1.04085
 H4247 H 1.16445 0.92993 1.10157
 H4248 H 1.19603 0.91691 1.11280
 C4249 C 1.29722 0.38075 0.59082
 C4250 C 1.27931 0.38720 0.58264
 C4251 C 1.26488 0.39633 0.59453
 C4252 C 1.26899 0.39942 0.61472
 C4253 C 1.28692 0.39304 0.62287
 C4254 C 1.30120 0.38353 0.61105
 C4255 C 1.24605 0.40292 0.58531
 C4256 C 1.22904 0.40452 0.59545
 C4257 C 1.21000 0.41146 0.58688
 C4258 C 1.19491 0.41731 0.59993
 C4259 C 1.17671 0.42407 0.59278
 C4260 C 1.17310 0.42507 0.57233
 C4261 C 1.18804 0.41892 0.55920
 C4262 C 1.20629 0.41215 0.56636
 H4263 H 1.30805 0.37376 0.58127
 H4264 H 1.27662 0.38489 0.56700
 H4265 H 1.25857 0.40701 0.62425
 H4266 H 1.28948 0.39534 0.63851
 H4267 H 1.24641 0.40619 0.56967
 H4268 H 1.22894 0.40080 0.61102
 H4269 H 1.19723 0.41675 0.61579
 H4270 H 1.16537 0.42834 0.60329
 H4271 H 1.18568 0.41955 0.54336
 H4272 H 1.21722 0.40732 0.55572
 C4273 C 0.78290 0.89250 0.63512
 C4274 C 0.76431 0.89986 0.62976
 C4275 C 0.75836 0.90004 0.60988
 C4276 C 0.77127 0.89233 0.59541
 C4277 C 0.78983 0.88485 0.60080
 C4278 C 0.79585 0.88490 0.62070
 C4279 C 0.73834 0.90755 0.60497
 C4280 C 0.73363 0.91529 0.58731
 C4281 C 0.71348 0.92231 0.58203
 C4282 C 0.70855 0.92400 0.56192
 C4283 C 0.68963 0.93009 0.55616
 C4284 C 0.67521 0.93476 0.57042
 C4285 C 0.68025 0.93356 0.59056
 C4286 C 0.69919 0.92749 0.59633
 H4287 H 0.78698 0.89240 0.65060
 H4288 H 0.75454 0.90547 0.64120
 H4289 H 0.76697 0.89163 0.58001
 H4290 H 0.79951 0.87910 0.58938
 H4291 H 0.72732 0.90669 0.61651
 H4292 H 0.74485 0.91619 0.57593
 H4293 H 0.71933 0.92036 0.55060
 H4294 H 0.68631 0.93124 0.54053
 H4295 H 0.66945 0.93700 0.60190
 H4296 H 0.70249 0.92709 0.61197
 C4297 C 0.77940 0.38448 1.13876
 C4298 C 0.76091 0.39131 1.13240
 C4299 C 0.75584 0.39094 1.11226
 C4300 C 0.76955 0.38315 1.09860
 C4301 C 0.78803 0.37621 1.10500
 C4302 C 0.79320 0.37688 1.12514
 C4303 C 0.73594 0.39821 1.10631
 C4304 C 0.73165 0.40501 1.08814
 C4305 C 0.71179 0.41246 1.08217
 C4306 C 0.70728 0.41357 1.06192
 C4307 C 0.68883 0.42053 1.05554
 C4308 C 0.67447 0.42669 1.06930
 C4309 C 0.67905 0.42585 1.08957
 C4310 C 0.69751 0.41891 1.09596
 H4311 H 0.78276 0.38486 1.15442
 H4312 H 0.75055 0.39700 1.14326
 H4313 H 0.76602 0.38202 1.08303
 H4314 H 0.79834 0.37048 1.09414
 H4315 H 0.72464 0.39817 1.11763
 H4316 H 0.74307 0.40506 1.07692
 H4317 H 0.71805 0.40893 1.05096
 H4318 H 0.68588 0.42130 1.03980
 H4319 H 0.66828 0.43038 1.10056
 H4320 H 0.70047 0.41895 1.11167
 C4321 C 0.70022 1.09214 1.11236
 C4322 C 0.71780 1.08405 1.10498
 C4323 C 0.73250 1.09625 1.09715
 C4324 C 0.72887 1.11671 1.09594
 C4325 C 0.71119 1.12479 1.10319
 C4326 C 0.69684 1.11262 1.11179
 C4327 C 0.75127 1.08711 1.09030
 C4328 C 0.76861 1.09663 1.09060
 C4329 C 0.78770 1.08770 1.08428
 C4330 C 0.80330 1.10037 1.07947
 C4331 C 0.82157 1.09280 1.07338
 C4332 C 0.82474 1.07231 1.07209
 C4333 C 0.80932 1.05956 1.07736
 C4334 C 0.79098 1.06715 1.08342
 H4335 H 0.68927 1.08236 1.11858
 H4336 H 0.72010 1.06823 1.10581
 H4337 H 0.73956 1.12652 1.08936
 H4338 H 0.70899 1.14062 1.10254
 H4339 H 0.75068 1.07187 1.08558
 H4340 H 0.76898 1.11183 1.09557
 H4341 H 0.80130 1.11624 1.08026
 H4342 H 0.83329 1.10300 1.06980
 H4343 H 0.81135 1.04371 1.07652
 H4344 H 0.77962 1.05682 1.08761
 C4345 C 0.71947 0.60795 0.63924
 C4346 C 0.73747 0.59996 0.63284
 C4347 C 0.74489 0.60425 0.61394
 C4348 C 0.73383 0.61691 0.60156
 C4349 C 0.71576 0.62480 0.60792
 C4350 C 0.70837 0.62050 0.62687
 C4351 C 0.76443 0.59584 0.60821
 C4352 C 0.77150 0.59569 0.58963
 C4353 C 0.79129 0.58779 0.58399
 C4354 C 0.79531 0.58473 0.56382
 C4355 C 0.81385 0.57790 0.55763
 C4356 C 0.82881 0.57391 0.57151
 C4357 C 0.82488 0.57693 0.59169
 C4358 C 0.80639 0.58393 0.59789
 H4359 H 0.71448 0.60457 0.65404
 H4360 H 0.74572 0.59045 0.64279
 H4361 H 0.73907 0.62114 0.58710
 H4362 H 0.70757 0.63425 0.59792
 H4363 H 0.77299 0.58907 0.61992
 H4364 H 0.76233 0.60111 0.57769
 H4365 H 0.78406 0.58768 0.55277
 H4366 H 0.81646 0.57559 0.54198
 H4367 H 0.83629 0.57432 0.60265
 H4368 H 0.80433 0.58664 0.61351
 C4369 C 0.20287 1.09007 0.61580
 C4370 C 0.22036 1.08174 0.60843
 C4371 C 0.23433 1.09350 0.59876
 C4372 C 0.23007 1.11364 0.59580
 C4373 C 0.21257 1.12195 0.60309
 C4374 C 0.19888 1.11032 0.61339
 C4375 C 0.25301 1.08431 0.59176
 C4376 C 0.26996 1.09441 0.59044
 C4377 C 0.28905 1.08592 0.58356
 C4378 C 0.30418 1.09901 0.57838
 C4379 C 0.32249 1.09196 0.57186
 C4380 C 0.32616 1.07158 0.57043
 C4381 C 0.31117 1.05840 0.57588
 C4382 C 0.29280 1.06546 0.58241
 H4383 H 0.19245 1.08067 0.62337
 H4384 H 0.22316 1.06613 0.61063
 H4385 H 0.24014 1.12304 0.58778
 H4386 H 0.20997 1.13759 0.60102
 H4387 H 0.25264 1.06876 0.58822
 H4388 H 0.27001 1.10987 0.59453
 H4389 H 0.30181 1.11483 0.57931
 H4390 H 0.33388 1.10249 0.56814
 H4391 H 0.31359 1.04260 0.57489
 H4392 H 0.28183 1.05478 0.58672
 C4393 C 0.22203 0.64082 1.11257
 C4394 C 0.24039 0.63455 1.10531
 C4395 C 0.24614 0.61464 1.10650
 C4396 C 0.23315 0.60109 1.11530
 C4397 C 0.21483 0.60737 1.12261
 C4398 C 0.20909 0.62732 1.12142
 C4399 C 0.26608 0.60884 1.09930
 C4400 C 0.27090 0.59038 1.09372
 C4401 C 0.29094 0.58424 1.08694
 C4402 C 0.29548 0.56399 1.08623
 C4403 C 0.31409 0.55739 1.07996
 C4404 C 0.32861 0.57094 1.07415
 C4405 C 0.32406 0.59121 1.07471
 C4406 C 0.30544 0.59781 1.08092
 H4407 H 0.21819 0.65633 1.11171
 H4408 H 0.25019 0.64533 1.09880
 H4409 H 0.23720 0.58573 1.11709
 H4410 H 0.20514 0.59659 1.12925
 H4411 H 0.27695 0.62043 1.09861
 H4412 H 0.25978 0.57899 1.09426
 H4413 H 0.28458 0.55318 1.09059
 H4414 H 0.31702 0.54167 1.07939
 H4415 H 0.33498 0.60203 1.07048
 H4416 H 0.30258 0.61351 1.08067
 C4417 C 0.71778 0.86188 0.88962
 C4418 C 0.73634 0.86772 0.89651
 C4419 C 0.74196 0.88761 0.89585
 C4420 C 0.72870 0.90156 0.88780
 C4421 C 0.71017 0.89570 0.88082
 C4422 C 0.70449 0.87580 0.88167
 C4423 C 0.76198 0.89299 0.90294
 C4424 C 0.76668 0.91110 0.90946
 C4425 C 0.78674 0.91671 0.91637
 C4426 C 0.79144 0.93684 0.91739
 C4427 C 0.81013 0.94292 0.92369
 C4428 C 0.82457 0.92898 0.92923
 C4429 C 0.81982 0.90883 0.92853
 C4430 C 0.80111 0.90274 0.92226
 H4431 H 0.71400 0.84640 0.89016
 H4432 H 0.74635 0.85664 0.90241
 H4433 H 0.73267 0.91694 0.88644
 H4434 H 0.70023 0.90677 0.87482
 H4435 H 0.77301 0.88136 0.90289
 H4436 H 0.75547 0.92257 0.90957
 H4437 H 0.78062 0.94795 0.91317
 H4438 H 0.81322 0.95857 0.92440
 H4439 H 0.83065 0.89771 0.93261
 H4440 H 0.79804 0.88711 0.92234
 C4441 C 0.72693 0.35949 0.38109
 C4442 C 0.74493 0.36623 0.38856
 C4443 C 0.74904 0.38649 0.38926
 C4444 C 0.73491 0.39992 0.38177
 C4445 C 0.71692 0.39313 0.37414
 C4446 C 0.71267 0.37286 0.37387
 C4447 C 0.76840 0.39282 0.39736
 C4448 C 0.77156 0.41064 0.40544
 C4449 C 0.79088 0.41686 0.41381
 C4450 C 0.79464 0.43711 0.41586
 C4451 C 0.81267 0.44369 0.42348
 C4452 C 0.82735 0.43013 0.42939
 C4453 C 0.82345 0.40985 0.42777
 C4454 C 0.80542 0.40326 0.42015
 H4455 H 0.72427 0.34376 0.38074
 H4456 H 0.75564 0.35557 0.39398
 H4457 H 0.73776 0.41560 0.38148
 H4458 H 0.70622 0.40377 0.36868
 H4459 H 0.78027 0.38204 0.39692
 H4460 H 0.75962 0.42136 0.40584
 H4461 H 0.78364 0.44792 0.41137
 H4462 H 0.81508 0.45942 0.42486
 H4463 H 0.83448 0.39902 0.43212
 H4464 H 0.80296 0.38752 0.41951
 C4465 C 0.21111 0.87411 0.40134
 C4466 C 0.22830 0.88164 0.41000
 C4467 C 0.24253 0.89125 0.39844
 C4468 C 0.23899 0.89358 0.37805
 C4469 C 0.22182 0.88610 0.36942
 C4470 C 0.20768 0.87625 0.38094
 C4471 C 0.26046 0.89920 0.40823
 C4472 C 0.27760 0.90205 0.39865
 C4473 C 0.29573 0.91031 0.40785
 C4474 C 0.31090 0.91679 0.39530
 C4475 C 0.32837 0.92453 0.40305
 C4476 C 0.33115 0.92593 0.42360
 C4477 C 0.31607 0.91933 0.43623
 C4478 C 0.29857 0.91156 0.42848
 H4479 H 0.20038 0.86689 0.41068
 H4480 H 0.23053 0.87987 0.42578
 H4481 H 0.24921 0.90148 0.36870
 H4482 H 0.21970 0.88791 0.35365
 H4483 H 0.25930 0.90248 0.42384
 H4484 H 0.27857 0.89830 0.38311
 H4485 H 0.30924 0.91586 0.37938
 H4486 H 0.33985 0.92914 0.39292
 H4487 H 0.31777 0.92027 0.45214
 H4488 H 0.28758 0.90635 0.43878
 C4489 C 0.22782 0.35758 0.88059
 C4490 C 0.24577 0.36448 0.88802
 C4491 C 0.24972 0.38477 0.88863
 C4492 C 0.23552 0.39806 0.88101
 C4493 C 0.21758 0.39111 0.87342
 C4494 C 0.21346 0.37080 0.87333
 C4495 C 0.26896 0.39128 0.89685
 C4496 C 0.27191 0.40916 0.90489
 C4497 C 0.29110 0.41548 0.91348
 C4498 C 0.29483 0.43576 0.91533
 C4499 C 0.31277 0.44242 0.92309
 C4500 C 0.32736 0.42892 0.92935
 C4501 C 0.32345 0.40862 0.92799
 C4502 C 0.30551 0.40195 0.92022
 H4503 H 0.22524 0.34183 0.88037
 H4504 H 0.25654 0.35392 0.89353
 H4505 H 0.23826 0.41376 0.88063
 H4506 H 0.20680 0.40162 0.86790
 H4507 H 0.28090 0.38058 0.89660
 H4508 H 0.25992 0.41983 0.90509
 H4509 H 0.28391 0.44651 0.91053
 H4510 H 0.31520 0.45816 0.92426
 H4511 H 0.33441 0.39784 0.93263
 H4512 H 0.30303 0.38621 0.91977
   
