data_POSCAR
  _audit_creation_date              2014-09-24
  _audit_creation_method            'ToBaCCo'
  _symmetry_space_group_name_H-M    'P1'
  _symmetry_Int_Tables_number       1
  _symmetry_cell_setting            triclinic
  loop_
  _symmetry_equiv_pos_as_xyz
 x,y,z
_cell_length_a 62.5939
_cell_length_b 62.8411
_cell_length_c 64.8868
_cell_angle_alpha 89.180400
_cell_angle_beta 89.932400
_cell_angle_gamma 89.855800
loop_
  _atom_site_label
  _atom_site_type_symbol
  _atom_site_fract_x
  _atom_site_fract_y
  _atom_site_fract_z
N1 N 0.39094 0.33040 0.34200
 N2 N 0.39046 0.34576 0.32803
 C3 C 0.40332 0.34055 0.31224
 C4 C 0.41242 0.32097 0.31667
 C5 C 0.40426 0.31498 0.33566
 H6 H 0.40493 0.34969 0.29807
 H7 H 0.40681 0.29998 0.34367
 Cu8 Cu 0.37088 0.36960 0.33050
 Cu9 Cu 0.37257 0.33054 0.36626
 Cu10 Cu 0.32993 0.36599 0.36352
 N11 N 0.34557 0.38718 0.32706
 N12 N 0.32923 0.38508 0.33967
 C13 C 0.31291 0.39709 0.33265
 C14 C 0.31940 0.40720 0.31470
 C15 C 0.34022 0.40066 0.31158
 H16 H 0.29722 0.39772 0.33963
 H17 H 0.35020 0.40437 0.29840
 N18 N 0.33150 0.34244 0.38382
 N19 N 0.34791 0.32925 0.38518
 C20 C 0.34335 0.31384 0.39914
 C21 C 0.32310 0.31751 0.40677
 C22 C 0.31604 0.33570 0.39676
 H23 H 0.35328 0.30008 0.40235
 H24 H 0.30031 0.34274 0.39789
 H25 H 0.34878 0.34399 0.34867
 H26 H 0.36240 0.36185 0.36709
 N27 N 0.38038 0.82434 -0.16451
 N28 N 0.38285 0.84098 -0.17679
 C29 C 0.39696 0.83617 -0.19171
 C30 C 0.40350 0.81536 -0.18857
 C31 C 0.39275 0.80834 -0.17119
 H32 H 0.40103 0.84649 -0.20461
 H33 H 0.39310 0.79249 -0.16449
 Cu34 Cu 0.36469 0.86582 -0.17405
 Cu35 Cu 0.35969 0.82375 -0.14214
 Cu36 Cu 0.32707 0.86812 -0.13731
 N37 N 0.34042 0.88494 -0.17660
 N38 N 0.32566 0.88582 -0.16219
 C39 C 0.30989 0.89895 -0.16855
 C40 C 0.31504 0.90651 -0.18803
 C41 C 0.33449 0.89733 -0.19270
 H42 H 0.29525 0.90179 -0.16012
 H43 H 0.34313 0.89864 -0.20711
 N44 N 0.32571 0.84340 -0.11832
 N45 N 0.33791 0.82639 -0.12043
 C46 C 0.33141 0.81123 -0.10702
 C47 C 0.31434 0.81903 -0.09600
 C48 C 0.31111 0.83946 -0.10347
 H49 H 0.33773 0.79522 -0.10618
 H50 H 0.29810 0.85001 -0.09953
 H51 H 0.33824 0.84469 -0.15581
 H52 H 0.35819 0.85591 -0.13770
 N53 N 0.88491 0.32105 -0.15930
 N54 N 0.88761 0.33769 -0.17152
 C55 C 0.90172 0.33276 -0.18640
 C56 C 0.90803 0.31189 -0.18331
 C57 C 0.89715 0.30494 -0.16599
 H58 H 0.90602 0.34308 -0.19922
 H59 H 0.89739 0.28908 -0.15932
 Cu60 Cu 0.86988 0.36280 -0.16861
 Cu61 Cu 0.86435 0.32081 -0.13678
 Cu62 Cu 0.83285 0.36600 -0.13139
 N63 N 0.84604 0.38249 -0.17087
 N64 N 0.83164 0.38396 -0.15618
 C65 C 0.81630 0.39774 -0.16226
 C66 C 0.82129 0.40499 -0.18191
 C67 C 0.84024 0.39501 -0.18692
 H68 H 0.80196 0.40119 -0.15359
 H69 H 0.84868 0.39598 -0.20146
 N70 N 0.83107 0.34111 -0.11253
 N71 N 0.84281 0.32382 -0.11488
 C72 C 0.83616 0.30875 -0.10143
 C73 C 0.81945 0.31688 -0.09013
 C74 C 0.81662 0.33744 -0.09747
 H75 H 0.84214 0.29261 -0.10074
 H76 H 0.80395 0.34829 -0.09325
 H77 H 0.84313 0.34234 -0.15006
 H78 H 0.86360 0.35300 -0.13218
 N79 N 0.88221 0.82057 0.34103
 N80 N 0.88454 0.83766 0.32933
 C81 C 0.89835 0.83335 0.31399
 C82 C 0.90482 0.81242 0.31626
 C83 C 0.89436 0.80480 0.33354
 H84 H 0.90243 0.84420 0.30151
 H85 H 0.89495 0.78876 0.33977
 Cu86 Cu 0.86697 0.86264 0.33371
 Cu87 Cu 0.86246 0.81944 0.36417
 Cu88 Cu 0.83161 0.86447 0.37255
 N89 N 0.84304 0.88237 0.33314
 N90 N 0.82936 0.88332 0.34850
 C91 C 0.81376 0.89728 0.34358
 C92 C 0.81780 0.90520 0.32399
 C93 C 0.83648 0.89543 0.31779
 H94 H 0.79985 0.90038 0.35300
 H95 H 0.84420 0.89693 0.30292
 N96 N 0.83030 0.83883 0.39039
 N97 N 0.84174 0.82157 0.38686
 C98 C 0.83531 0.80591 0.39976
 C99 C 0.81905 0.81362 0.41190
 C100 C 0.81627 0.83455 0.40566
 H101 H 0.84106 0.78969 0.39947
 H102 H 0.80384 0.84528 0.41070
 H103 H 0.84090 0.84157 0.35252
 H104 H 0.86222 0.85135 0.36997
 N105 N 0.61619 0.68032 0.34103
 N106 N 0.61657 0.66494 0.32750
 C107 C 0.60389 0.67028 0.31148
 C108 C 0.59495 0.68994 0.31535
 C109 C 0.60303 0.69586 0.33422
 H110 H 0.60187 0.66090 0.29778
 H111 H 0.60023 0.71074 0.34197
 Cu112 Cu 0.63492 0.64030 0.33145
 Cu113 Cu 0.63394 0.67948 0.36572
 Cu114 Cu 0.66998 0.63736 0.37034
 N115 N 0.65916 0.62101 0.33060
 N116 N 0.67267 0.61961 0.34606
 C117 C 0.68835 0.60583 0.34124
 C118 C 0.68456 0.59852 0.32161
 C119 C 0.66594 0.60846 0.31527
 H120 H 0.70207 0.60229 0.35082
 H121 H 0.65833 0.60725 0.30038
 N122 N 0.66952 0.66169 0.38925
 N123 N 0.65626 0.67797 0.38715
 C124 C 0.66210 0.69332 0.40026
 C125 C 0.67978 0.68632 0.41112
 C126 C 0.68402 0.66622 0.40386
 H127 H 0.65490 0.70895 0.40095
 H128 H 0.69769 0.65640 0.40774
 H129 H 0.65810 0.66183 0.35227
 H130 H 0.63853 0.64724 0.36873
 N131 N 0.61565 0.17740 -0.15570
 N132 N 0.61429 0.16060 -0.16748
 C133 C 0.59989 0.16451 -0.18251
 C134 C 0.59181 0.18480 -0.17986
 C135 C 0.60216 0.19250 -0.16276
 H136 H 0.59664 0.15403 -0.19520
 H137 H 0.60092 0.20839 -0.15669
 Cu138 Cu 0.63385 0.13677 -0.16384
 Cu139 Cu 0.63661 0.17963 -0.13374
 Cu140 Cu 0.67197 0.13742 -0.12757
 N141 N 0.65883 0.11840 -0.16548
 N142 N 0.67390 0.11893 -0.15139
 C143 C 0.68994 0.10587 -0.15689
 C144 C 0.68460 0.09674 -0.17544
 C145 C 0.66476 0.10500 -0.18047
 H146 H 0.70468 0.10378 -0.14840
 H147 H 0.65578 0.10223 -0.19441
 N148 N 0.67206 0.16254 -0.10967
 N149 N 0.65884 0.17876 -0.11231
 C150 C 0.66447 0.19443 -0.09950
 C151 C 0.68199 0.18776 -0.08827
 C152 C 0.68642 0.16748 -0.09504
 H153 H 0.65715 0.21001 -0.09914
 H154 H 0.69998 0.15772 -0.09070
 H155 H 0.65920 0.15982 -0.14693
 H156 H 0.64023 0.14768 -0.12804
 N157 N 0.11493 0.67353 -0.15992
 N158 N 0.11653 0.65938 -0.17458
 C159 C 0.10364 0.66508 -0.19030
 C160 C 0.09328 0.68368 -0.18509
 C161 C 0.10069 0.68856 -0.16568
 H162 H 0.10248 0.65675 -0.20473
 H163 H 0.09688 0.70259 -0.15691
 Cu164 Cu 0.13643 0.63568 -0.17241
 Cu165 Cu 0.13300 0.67227 -0.13544
 Cu166 Cu 0.17824 0.64063 -0.14071
 N167 N 0.16161 0.61791 -0.17529
 N168 N 0.17818 0.62036 -0.16313
 C169 C 0.19427 0.60792 -0.16966
 C170 C 0.18738 0.59713 -0.18678
 C171 C 0.16657 0.60374 -0.18995
 H172 H 0.21007 0.60737 -0.16294
 H173 H 0.15628 0.59950 -0.20262
 N174 N 0.17507 0.66193 -0.11892
 N175 N 0.15784 0.67389 -0.11680
 C176 C 0.16146 0.68826 -0.10199
 C177 C 0.18183 0.68501 -0.09436
 C178 C 0.18998 0.66828 -0.10543
 H179 H 0.15069 0.70106 -0.09805
 H180 H 0.20612 0.66216 -0.10461
 H181 H 0.15697 0.66205 -0.15415
 H182 H 0.14591 0.64159 -0.13608
 N183 N 0.11911 0.17879 0.33809
 N184 N 0.11679 0.16235 0.32598
 C185 C 0.10249 0.16729 0.31116
 C186 C 0.09559 0.18790 0.31419
 C187 C 0.10643 0.19475 0.33138
 H188 H 0.09840 0.15714 0.29843
 H189 H 0.10575 0.21041 0.33804
 Cu190 Cu 0.13500 0.13742 0.32894
 Cu191 Cu 0.13911 0.17849 0.36105
 Cu192 Cu 0.17510 0.13644 0.36323
 N193 N 0.15935 0.11847 0.32576
 N194 N 0.17525 0.11855 0.33899
 C195 C 0.19089 0.10569 0.33221
 C196 C 0.18444 0.09718 0.31375
 C197 C 0.16434 0.10552 0.31009
 H198 H 0.20615 0.10343 0.33973
 H199 H 0.15463 0.10331 0.29651
 N200 N 0.17636 0.16083 0.38192
 N201 N 0.16311 0.17718 0.38066
 C202 C 0.16977 0.19237 0.39358
 C203 C 0.18793 0.18512 0.40348
 C204 C 0.19167 0.16510 0.39582
 H205 H 0.16254 0.20792 0.39500
 H206 H 0.20533 0.15504 0.39910
 H207 H 0.16092 0.15985 0.34569
 H208 H 0.14353 0.14623 0.36502
 N209 N 0.61758 0.32427 0.66012
 N210 N 0.61862 0.33881 0.67445
 C211 C 0.60540 0.33338 0.69003
 C212 C 0.59540 0.31457 0.68501
 C213 C 0.60341 0.30926 0.66592
 H214 H 0.60382 0.34199 0.70427
 H215 H 0.60007 0.29495 0.65744
 Cu216 Cu 0.63853 0.36238 0.67209
 Cu217 Cu 0.63620 0.32479 0.63604
 Cu218 Cu 0.67771 0.36154 0.63695
 N219 N 0.66378 0.37997 0.67494
 N220 N 0.67934 0.37919 0.66134
 C221 C 0.69551 0.39160 0.66759
 C222 C 0.68972 0.40059 0.68608
 C223 C 0.66951 0.39291 0.69034
 H224 H 0.71056 0.39349 0.65958
 H225 H 0.66008 0.39585 0.70399
 N226 N 0.67594 0.33855 0.61665
 N227 N 0.66032 0.32446 0.61647
 C228 C 0.66511 0.30926 0.60277
 C229 C 0.68454 0.31414 0.59383
 C230 C 0.69096 0.33277 0.60293
 H231 H 0.65586 0.29499 0.60044
 H232 H 0.70620 0.34057 0.60084
 H233 H 0.66068 0.33832 0.65259
 H234 H 0.64532 0.35631 0.63507
 N235 N 0.61714 0.83182 1.15737
 N236 N 0.61737 0.84600 1.17209
 C237 C 0.60354 0.84008 1.18697
 C238 C 0.59401 0.82129 1.18120
 C239 C 0.60294 0.81649 1.16232
 H240 H 0.60145 0.84822 1.20141
 H241 H 0.60032 0.80225 1.15351
 Cu242 Cu 0.63742 0.86951 1.17172
 Cu243 Cu 0.63703 0.83336 1.13415
 Cu244 Cu 0.68176 0.86440 1.14337
 N245 N 0.66245 0.88672 1.17699
 N246 N 0.67998 0.88419 1.16612
 C247 C 0.69565 0.89604 1.17421
 C248 C 0.68748 0.90651 1.19104
 C249 C 0.66635 0.90035 1.19238
 H250 H 0.71198 0.89633 1.16880
 H251 H 0.65508 0.90445 1.20434
 N252 N 0.68031 0.84365 1.12097
 N253 N 0.66322 0.83207 1.11716
 C254 C 0.66787 0.81839 1.10195
 C255 C 0.68886 0.82156 1.09606
 C256 C 0.69622 0.83766 1.10835
 H257 H 0.65727 0.80612 1.09652
 H258 H 0.71233 0.84377 1.10877
 H259 H 0.65927 0.84309 1.15477
 H260 H 0.64986 0.86390 1.13616
 N261 N 0.11586 0.32704 1.15319
 N262 N 0.11748 0.34123 1.16781
 C263 C 0.10447 0.33573 1.18351
 C264 C 0.09401 0.31723 1.17834
 C265 C 0.10148 0.31220 1.15896
 H266 H 0.10346 0.34400 1.19798
 H267 H 0.09780 0.29807 1.15033
 Cu268 Cu 0.13787 0.36443 1.16585
 Cu269 Cu 0.13445 0.32765 1.12903
 Cu270 Cu 0.18054 0.35746 1.13551
 N271 N 0.16334 0.38161 1.16898
 N272 N 0.18021 0.37834 1.15736
 C273 C 0.19636 0.39054 1.16394
 C274 C 0.18921 0.40204 1.18054
 C275 C 0.16817 0.39609 1.18335
 H276 H 0.21235 0.39048 1.15761
 H277 H 0.15760 0.40101 1.19561
 N278 N 0.17757 0.33574 1.11416
 N279 N 0.15989 0.32474 1.11129
 C280 C 0.16349 0.31016 1.09664
 C281 C 0.18442 0.31210 1.09014
 C282 C 0.19283 0.32846 1.10146
 H283 H 0.15223 0.29808 1.09208
 H284 H 0.20920 0.33388 1.10119
 H285 H 0.15806 0.33710 1.14843
 H286 H 0.14841 0.35784 1.12987
 N287 N 0.11230 0.82235 0.65446
 N288 N 0.11259 0.83776 0.66795
 C289 C 0.09915 0.83289 0.68353
 C290 C 0.08982 0.81350 0.67943
 C291 C 0.09850 0.80724 0.66089
 H292 H 0.09719 0.84217 0.69731
 H293 H 0.09592 0.79227 0.65327
 Cu294 Cu 0.13237 0.86140 0.66520
 Cu295 Cu 0.13134 0.82212 0.63065
 Cu296 Cu 0.17316 0.85836 0.63202
 N297 N 0.15764 0.87892 0.66833
 N298 N 0.17388 0.87709 0.65560
 C299 C 0.19000 0.88943 0.66206
 C300 C 0.18347 0.89952 0.67974
 C301 C 0.16286 0.89257 0.68333
 H302 H 0.20549 0.89054 0.65474
 H303 H 0.15282 0.89639 0.69635
 N304 N 0.17187 0.83491 0.61227
 N305 N 0.15594 0.82120 0.61158
 C306 C 0.16069 0.80612 0.59772
 C307 C 0.18051 0.81063 0.58938
 C308 C 0.18716 0.82890 0.59896
 H309 H 0.15111 0.79219 0.59483
 H310 H 0.20250 0.83656 0.59716
 H311 H 0.15498 0.83605 0.64772
 H312 H 0.14073 0.85352 0.62885
 N313 N 0.38358 0.67495 0.65438
 N314 N 0.38517 0.65923 0.66789
 C315 C 0.39814 0.66513 0.68332
 C316 C 0.40488 0.68566 0.67922
 C317 C 0.39544 0.69142 0.66076
 H318 H 0.40148 0.65567 0.69700
 H319 H 0.39651 0.70667 0.65290
 Cu320 Cu 0.36785 0.63386 0.66534
 Cu321 Cu 0.36548 0.67321 0.63010
 Cu322 Cu 0.32938 0.63121 0.62958
 N323 N 0.34415 0.61423 0.66835
 N324 N 0.32913 0.61322 0.65426
 C325 C 0.31383 0.59973 0.66079
 C326 C 0.31949 0.59207 0.68007
 C327 C 0.33877 0.60161 0.68448
 H328 H 0.29907 0.59673 0.65269
 H329 H 0.34764 0.60036 0.69875
 N330 N 0.32853 0.65513 0.60960
 N331 N 0.34228 0.67103 0.60976
 C332 C 0.33600 0.68594 0.59593
 C333 C 0.31746 0.67910 0.58670
 C334 C 0.31310 0.65958 0.59574
 H335 H 0.34339 0.70136 0.59385
 H336 H 0.29894 0.65008 0.59347
 H337 H 0.34286 0.65558 0.64589
 H338 H 0.36091 0.64082 0.62832
 N339 N 0.38348 0.18089 1.15978
 N340 N 0.38569 0.16474 1.17271
 C341 C 0.39956 0.17004 1.18761
 C342 C 0.40623 0.19065 1.18381
 C343 C 0.39577 0.19708 1.16607
 H344 H 0.40362 0.16011 1.20080
 H345 H 0.39654 0.21259 1.15867
 Cu346 Cu 0.36804 0.13960 1.17030
 Cu347 Cu 0.36396 0.18019 1.13647
 Cu348 Cu 0.33386 0.13423 1.13104
 N349 N 0.34407 0.12008 1.17207
 N350 N 0.33098 0.11757 1.15647
 C351 C 0.31550 0.10381 1.16204
 C352 C 0.31893 0.09774 1.18231
 C353 C 0.33718 0.10830 1.18823
 H354 H 0.30209 0.09949 1.15247
 H355 H 0.34448 0.10804 1.20333
 N356 N 0.33246 0.15844 1.11142
 N357 N 0.34351 0.17611 1.11382
 C358 C 0.33673 0.19076 1.09999
 C359 C 0.32065 0.18196 1.08840
 C360 C 0.31833 0.16146 1.09599
 H361 H 0.34195 0.20713 1.09939
 H362 H 0.30598 0.15029 1.09188
 H363 H 0.34232 0.15892 1.14933
 H364 H 0.36424 0.14792 1.13321
 N365 N 0.88695 0.67271 1.15801
 N366 N 0.88685 0.65781 1.17244
 C367 C 0.90000 0.66355 1.18778
 C368 C 0.90872 0.68308 1.18265
 C369 C 0.90017 0.68844 1.16366
 H370 H 0.90202 0.65483 1.20215
 H371 H 0.90252 0.70314 1.15509
 Cu372 Cu 0.86738 0.63383 1.17118
 Cu373 Cu 0.86845 0.67132 1.13393
 Cu374 Cu 0.82387 0.63951 1.14145
 N375 N 0.84234 0.61618 1.17549
 N376 N 0.82512 0.61897 1.16416
 C377 C 0.80925 0.60690 1.17192
 C378 C 0.81693 0.59602 1.18899
 C379 C 0.83801 0.60216 1.19083
 H380 H 0.79304 0.60682 1.16618
 H381 H 0.84887 0.59790 1.20317
 N382 N 0.82594 0.66107 1.11918
 N383 N 0.84311 0.67284 1.11599
 C384 C 0.83896 0.68721 1.10090
 C385 C 0.81817 0.68435 1.09443
 C386 C 0.81042 0.66766 1.10625
 H387 H 0.84964 0.69985 1.09611
 H388 H 0.79425 0.66167 1.10626
 H389 H 0.84562 0.66048 1.15377
 H390 H 0.85594 0.64046 1.13533
 N391 N 0.88502 0.17115 0.66244
 N392 N 0.88624 0.15549 0.67603
 C393 C 0.90075 0.16046 0.69050
 C394 C 0.90901 0.18026 0.68561
 C395 C 0.89869 0.18660 0.66776
 H396 H 0.90384 0.15115 0.70434
 H397 H 0.89998 0.20190 0.66005
 Cu398 Cu 0.86617 0.13206 0.67543
 Cu399 Cu 0.86359 0.17194 0.64072
 Cu400 Cu 0.82701 0.13042 0.64033
 N401 N 0.84114 0.11437 0.67969
 N402 N 0.82597 0.11349 0.66574
 C403 C 0.81029 0.10066 0.67272
 C404 C 0.81587 0.09339 0.69217
 C405 C 0.83550 0.10240 0.69618
 H406 H 0.79550 0.09764 0.66468
 H407 H 0.84468 0.10088 0.71024
 N408 N 0.82661 0.15415 0.62007
 N409 N 0.84072 0.16974 0.62005
 C410 C 0.83500 0.18442 0.60579
 C411 C 0.81636 0.17789 0.59657
 C412 C 0.81139 0.15869 0.60599
 H413 H 0.84284 0.19956 0.60332
 H414 H 0.79705 0.14945 0.60372
 H415 H 0.84088 0.15420 0.65666
 H416 H 0.85892 0.13980 0.63876
 N417 N 0.32064 0.37962 0.65850
 N418 N 0.33722 0.38248 0.67056
 C419 C 0.33221 0.39702 0.68486
 C420 C 0.31136 0.40344 0.68155
 C421 C 0.30449 0.39215 0.66473
 H422 H 0.34248 0.40163 0.69741
 H423 H 0.28869 0.39244 0.65802
 Cu424 Cu 0.36248 0.36475 0.66814
 Cu425 Cu 0.32073 0.35888 0.63647
 Cu426 Cu 0.36686 0.32867 0.63085
 N427 N 0.38236 0.34103 0.67048
 N428 N 0.38445 0.32718 0.65562
 C429 C 0.39843 0.31198 0.66155
 C430 C 0.40515 0.31641 0.68129
 C431 C 0.39468 0.33494 0.68652
 H432 H 0.40238 0.29804 0.65270
 H433 H 0.39526 0.34291 0.70118
 N434 N 0.34201 0.32628 0.61240
 N435 N 0.32422 0.33728 0.61500
 C436 C 0.30930 0.33010 0.60193
 C437 C 0.31808 0.31382 0.59066
 C438 C 0.33884 0.31183 0.59757
 H439 H 0.29289 0.33548 0.60142
 H440 H 0.35023 0.29971 0.59324
 H441 H 0.34262 0.33805 0.64970
 H442 H 0.35298 0.35901 0.63177
 N443 N 0.32037 0.88484 0.15421
 N444 N 0.33628 0.88694 0.16724
 C445 C 0.33091 0.90148 0.18141
 C446 C 0.31055 0.90874 0.17700
 C447 C 0.30434 0.89789 0.15968
 H448 H 0.34047 0.90541 0.19470
 H449 H 0.28889 0.89861 0.15226
 Cu450 Cu 0.36091 0.86814 0.16614
 Cu451 Cu 0.32061 0.86370 0.13256
 Cu452 Cu 0.36466 0.83000 0.13073
 N453 N 0.38020 0.84411 0.16983
 N454 N 0.38197 0.82941 0.15570
 C455 C 0.39591 0.81444 0.16224
 C456 C 0.40296 0.81992 0.18161
 C457 C 0.39268 0.83881 0.18601
 H458 H 0.39982 0.80011 0.15398
 H459 H 0.39372 0.84769 0.20013
 N460 N 0.34058 0.82842 0.11119
 N461 N 0.32394 0.84137 0.11178
 C462 C 0.30941 0.83499 0.09792
 C463 C 0.31716 0.81712 0.08831
 C464 C 0.33690 0.81331 0.09711
 H465 H 0.29366 0.84182 0.09597
 H466 H 0.34716 0.79975 0.09443
 H467 H 0.34016 0.84194 0.14786
 H468 H 0.35306 0.86116 0.12965
 N469 N 0.82054 0.38541 0.16612
 N470 N 0.83788 0.38732 0.17736
 C471 C 0.83408 0.40117 0.19260
 C472 C 0.81322 0.40814 0.19080
 C473 C 0.80509 0.39789 0.17386
 H474 H 0.84519 0.40489 0.20478
 H475 H 0.78892 0.39883 0.16809
 Cu476 Cu 0.86247 0.36920 0.17275
 Cu477 Cu 0.81883 0.36582 0.14318
 Cu478 Cu 0.86366 0.33463 0.13394
 N479 N 0.88170 0.34489 0.17316
 N480 N 0.88248 0.33153 0.15776
 C481 C 0.89626 0.31571 0.16247
 C482 C 0.90422 0.31924 0.18197
 C483 C 0.89468 0.33787 0.18832
 H484 H 0.89927 0.30201 0.15297
 H485 H 0.89637 0.34530 0.20316
 N486 N 0.83780 0.33388 0.11663
 N487 N 0.82052 0.34525 0.12058
 C488 C 0.80471 0.33912 0.10797
 C489 C 0.81236 0.32317 0.09557
 C490 C 0.83340 0.32026 0.10136
 H491 H 0.78845 0.34491 0.10856
 H492 H 0.84413 0.30801 0.09600
 H493 H 0.84082 0.34385 0.15436
 H494 H 0.85078 0.36526 0.13672
 N495 N 0.81399 0.88060 0.66674
 N496 N 0.83076 0.88349 0.67854
 C497 C 0.82598 0.89800 0.69292
 C498 C 0.80506 0.90440 0.68997
 C499 C 0.79792 0.89309 0.67325
 H500 H 0.83647 0.90266 0.70529
 H501 H 0.78202 0.89340 0.66677
 Cu502 Cu 0.85609 0.86592 0.67563
 Cu503 Cu 0.81388 0.86003 0.64451
 Cu504 Cu 0.86020 0.83025 0.63796
 N505 N 0.87621 0.84235 0.67749
 N506 N 0.87817 0.82865 0.66248
 C507 C 0.89250 0.81361 0.66801
 C508 C 0.89957 0.81798 0.68766
 C509 C 0.88895 0.83631 0.69324
 H510 H 0.89653 0.79986 0.65893
 H511 H 0.88980 0.84422 0.70791
 N512 N 0.83510 0.82787 0.61979
 N513 N 0.81724 0.83864 0.62276
 C514 C 0.80225 0.83155 0.60969
 C515 C 0.81109 0.81562 0.59798
 C516 C 0.83194 0.81369 0.60471
 H517 H 0.78580 0.83679 0.60940
 H518 H 0.84341 0.80180 0.60003
 H519 H 0.83615 0.83923 0.65723
 H520 H 0.84606 0.86045 0.63934
 N521 N 0.67069 0.61008 0.66033
 N522 N 0.65613 0.61142 0.67488
 C523 C 0.66185 0.59886 0.69092
 C524 C 0.68089 0.58899 0.68604
 C525 C 0.68603 0.59636 0.66650
 H526 H 0.65330 0.59773 0.70539
 H527 H 0.70049 0.59302 0.65797
 Cu528 Cu 0.63210 0.63086 0.67233
 Cu529 Cu 0.66975 0.62808 0.63559
 Cu530 Cu 0.63713 0.67255 0.64006
 N531 N 0.61385 0.65568 0.67477
 N532 N 0.61623 0.67211 0.66222
 C533 C 0.60367 0.68812 0.66853
 C534 C 0.59288 0.68137 0.68595
 C535 C 0.59962 0.66069 0.68954
 H536 H 0.60323 0.70385 0.66159
 H537 H 0.59555 0.65061 0.70260
 N538 N 0.65912 0.66987 0.61861
 N539 N 0.67146 0.65294 0.61672
 C540 C 0.68640 0.65704 0.60222
 C541 C 0.68321 0.67749 0.59474
 C542 C 0.66582 0.68511 0.60539
 H543 H 0.69961 0.64661 0.59856
 H544 H 0.65946 0.70110 0.60453
 H545 H 0.65865 0.65170 0.65393
 H546 H 0.63872 0.64034 0.63588
 N547 N 0.67887 0.11722 0.16618
 N548 N 0.66150 0.11455 0.17733
 C549 C 0.66553 0.10035 0.19259
 C550 C 0.68657 0.09394 0.19088
 C551 C 0.69456 0.10487 0.17397
 H552 H 0.65447 0.09609 0.20478
 H553 H 0.71082 0.10460 0.16835
 Cu554 Cu 0.63664 0.13247 0.17287
 Cu555 Cu 0.68047 0.13786 0.14356
 Cu556 Cu 0.63561 0.16937 0.13511
 N557 N 0.61716 0.15653 0.17381
 N558 N 0.61673 0.17100 0.15897
 C559 C 0.60322 0.18671 0.16428
 C560 C 0.59490 0.18183 0.18350
 C561 C 0.60409 0.16262 0.18913
 H562 H 0.60068 0.20120 0.15541
 H563 H 0.60236 0.15431 0.20375
 N564 N 0.66139 0.17102 0.11769
 N565 N 0.67868 0.15948 0.12132
 C566 C 0.69443 0.16619 0.10870
 C567 C 0.68668 0.18269 0.09661
 C568 C 0.66569 0.18534 0.10260
 H569 H 0.71067 0.16034 0.10903
 H570 H 0.65490 0.19778 0.09746
 H571 H 0.65834 0.15897 0.15531
 H572 H 0.64852 0.13862 0.13704
 N573 N 0.17146 0.61360 0.15321
 N574 N 0.15735 0.61428 0.16822
 C575 C 0.16341 0.60079 0.18343
 C576 C 0.18222 0.59107 0.17753
 C577 C 0.18689 0.59953 0.15829
 H578 H 0.15547 0.59919 0.19818
 H579 H 0.20115 0.59674 0.14928
 Cu580 Cu 0.13392 0.63463 0.16771
 Cu581 Cu 0.17002 0.63290 0.12947
 Cu582 Cu 0.13997 0.67835 0.13814
 N583 N 0.11693 0.65998 0.17233
 N584 N 0.11985 0.67722 0.16097
 C585 C 0.10795 0.69313 0.16856
 C586 C 0.09703 0.68544 0.18555
 C587 C 0.10297 0.66432 0.18754
 H588 H 0.10782 0.70928 0.16259
 H589 H 0.09841 0.65334 0.19974
 N590 N 0.16099 0.67618 0.11569
 N591 N 0.17211 0.65875 0.11203
 C592 C 0.18628 0.66290 0.09684
 C593 C 0.18394 0.68394 0.09083
 C594 C 0.16778 0.69184 0.10298
 H595 H 0.19842 0.65194 0.09163
 H596 H 0.16224 0.70813 0.10331
 H597 H 0.16078 0.65555 0.14979
 H598 H 0.13960 0.64657 0.13177
 N599 N 0.16885 0.11120 0.64999
 N600 N 0.15396 0.11222 0.66425
 C601 C 0.15890 0.09864 0.67977
 C602 C 0.17778 0.08848 0.67486
 C603 C 0.18367 0.09680 0.65587
 H604 H 0.15023 0.09738 0.69416
 H605 H 0.19839 0.09377 0.64766
 Cu606 Cu 0.13141 0.13346 0.66276
 Cu607 Cu 0.16932 0.13054 0.62625
 Cu608 Cu 0.13731 0.17546 0.63109
 N609 N 0.11578 0.15968 0.66724
 N610 N 0.11883 0.17640 0.65519
 C611 C 0.10780 0.19299 0.66266
 C612 C 0.09735 0.18627 0.68031
 C613 C 0.10264 0.16504 0.68279
 H614 H 0.10780 0.20887 0.65601
 H615 H 0.09807 0.15459 0.69542
 N616 N 0.16012 0.17311 0.61031
 N617 N 0.17196 0.15586 0.60811
 C618 C 0.18723 0.15988 0.59394
 C619 C 0.18491 0.18064 0.58707
 C620 C 0.16761 0.18856 0.59770
 H621 H 0.20006 0.14909 0.59006
 H622 H 0.16174 0.20475 0.59718
 H623 H 0.15829 0.15425 0.64488
 H624 H 0.13875 0.14315 0.62636
 N625 N 0.32150 0.62099 0.33168
 N626 N 0.33895 0.61807 0.32078
 C627 C 0.33532 0.60284 0.30679
 C628 C 0.31445 0.59607 0.30909
 C629 C 0.30618 0.60783 0.32502
 H630 H 0.34646 0.59816 0.29492
 H631 H 0.28989 0.60771 0.33058
 Cu632 Cu 0.36331 0.63683 0.32384
 Cu633 Cu 0.31891 0.64357 0.35167
 Cu634 Cu 0.36496 0.67177 0.36248
 N635 N 0.38247 0.66112 0.32304
 N636 N 0.38353 0.67458 0.33835
 C637 C 0.39732 0.69025 0.33329
 C638 C 0.40500 0.68647 0.31369
 C639 C 0.39527 0.66789 0.30764
 H640 H 0.40053 0.70399 0.34264
 H641 H 0.39673 0.66030 0.29285
 N642 N 0.33898 0.67328 0.37967
 N643 N 0.32135 0.66281 0.37519
 C644 C 0.30575 0.66868 0.38819
 C645 C 0.31383 0.68369 0.40134
 C646 C 0.33497 0.68622 0.39563
 H647 H 0.28940 0.66330 0.38744
 H648 H 0.34611 0.69769 0.40166
 H649 H 0.34287 0.66403 0.34149
 H650 H 0.35046 0.64169 0.35925
 N651 N 0.31708 0.11673 0.83243
 N652 N 0.33378 0.11444 0.82036
 C653 C 0.32911 0.10031 0.80562
 C654 C 0.30834 0.09355 0.80867
 C655 C 0.30119 0.10423 0.82578
 H656 H 0.33955 0.09617 0.79299
 H657 H 0.28536 0.10352 0.83244
 Cu658 Cu 0.35876 0.13230 0.82355
 Cu659 Cu 0.31663 0.13675 0.85502
 Cu660 Cu 0.36170 0.16813 0.86128
 N661 N 0.37840 0.15615 0.82187
 N662 N 0.37983 0.16999 0.83682
 C663 C 0.39393 0.18522 0.83134
 C664 C 0.40143 0.18077 0.81183
 C665 C 0.39126 0.16226 0.80625
 H666 H 0.39757 0.19908 0.84038
 H667 H 0.39252 0.15425 0.79165
 N668 N 0.33666 0.16942 0.87978
 N669 N 0.31939 0.15776 0.87706
 C670 C 0.30424 0.16391 0.89043
 C671 C 0.31227 0.18022 0.90207
 C672 C 0.33288 0.18333 0.89500
 H673 H 0.28811 0.15782 0.89092
 H674 H 0.34370 0.19579 0.89957
 H675 H 0.33800 0.15837 0.84217
 H676 H 0.34892 0.13751 0.85993
 N677 N 0.81955 0.61834 0.84225
 N678 N 0.83623 0.61577 0.83020
 C679 C 0.83171 0.60093 0.81608
 C680 C 0.81106 0.59398 0.81948
 C681 C 0.80381 0.60531 0.83617
 H682 H 0.84211 0.59651 0.80351
 H683 H 0.78798 0.60476 0.84284
 Cu684 Cu 0.86090 0.63425 0.83235
 Cu685 Cu 0.81888 0.63948 0.86393
 Cu686 Cu 0.86396 0.67113 0.86899
 N687 N 0.88017 0.65836 0.82966
 N688 N 0.88173 0.67255 0.84427
 C689 C 0.89552 0.68784 0.83821
 C690 C 0.90267 0.68308 0.81866
 C691 C 0.89263 0.66430 0.81366
 H692 H 0.89910 0.70197 0.84687
 H693 H 0.89368 0.65599 0.79921
 N694 N 0.83896 0.67315 0.88741
 N695 N 0.82157 0.66158 0.88505
 C696 C 0.80642 0.66849 0.89809
 C697 C 0.81464 0.68517 0.90914
 C698 C 0.83531 0.68770 0.90208
 H699 H 0.79022 0.66260 0.89877
 H700 H 0.84628 0.70019 0.90624
 H701 H 0.84008 0.66072 0.85033
 H702 H 0.85111 0.64041 0.86861
 N703 N 0.82759 0.11727 0.34726
 N704 N 0.84244 0.11593 0.33300
 C705 C 0.83647 0.10149 0.31900
 C706 C 0.81690 0.09332 0.32492
 C707 C 0.81169 0.10371 0.34285
 H708 H 0.84497 0.09828 0.30485
 H709 H 0.79681 0.10250 0.35127
 Cu710 Cu 0.86630 0.13555 0.33232
 Cu711 Cu 0.82848 0.13863 0.36874
 Cu712 Cu 0.87111 0.17403 0.36709
 N713 N 0.88443 0.16007 0.32714
 N714 N 0.88664 0.17493 0.34103
 C715 C 0.89976 0.19014 0.33357
 C716 C 0.90577 0.18462 0.31387
 C717 C 0.89576 0.16548 0.31022
 H718 H 0.90390 0.20456 0.34154
 H719 H 0.89631 0.15642 0.29618
 N720 N 0.84844 0.17497 0.38823
 N721 N 0.83240 0.16136 0.38902
 C722 C 0.81854 0.16757 0.40364
 C723 C 0.82606 0.18602 0.41225
 C724 C 0.84501 0.19033 0.40214
 H725 H 0.80319 0.16029 0.40666
 H726 H 0.85474 0.20440 0.40373
 H727 H 0.84582 0.16102 0.35194
 H728 H 0.86089 0.14250 0.36925
 N729 N 0.67258 0.38642 0.34880
 N730 N 0.65939 0.38473 0.33314
 C731 C 0.66542 0.39831 0.31803
 C732 C 0.68325 0.40915 0.32463
 C733 C 0.68730 0.40136 0.34426
 H734 H 0.65817 0.39926 0.30292
 H735 H 0.70092 0.40503 0.35381
 Cu736 Cu 0.63706 0.36331 0.33284
 Cu737 Cu 0.67153 0.36654 0.37221
 Cu738 Cu 0.64896 0.31845 0.35870
 N739 N 0.62079 0.33748 0.32877
 N740 N 0.62573 0.31985 0.33884
 C741 C 0.61387 0.30379 0.33163
 C742 C 0.60084 0.31181 0.31623
 C743 C 0.60551 0.33325 0.31482
 H744 H 0.61537 0.28733 0.33654
 H745 H 0.59926 0.34458 0.30365
 N746 N 0.66797 0.32165 0.38260
 N747 N 0.67614 0.34004 0.38818
 C748 C 0.68951 0.33667 0.40418
 C749 C 0.68971 0.31514 0.40875
 C750 C 0.67581 0.30614 0.39492
 H751 H 0.69946 0.34872 0.41101
 H752 H 0.67249 0.28938 0.39328
 H753 H 0.66649 0.34508 0.35006
 H754 H 0.64325 0.34880 0.36765
 N755 N 0.66400 0.88622 0.84781
 N756 N 0.64997 0.88457 0.83286
 C757 C 0.65559 0.89765 0.81718
 C758 C 0.67400 0.90817 0.82272
 C759 C 0.67886 0.90068 0.84228
 H760 H 0.64754 0.89856 0.80245
 H761 H 0.69296 0.90431 0.85118
 Cu762 Cu 0.62703 0.86386 0.83426
 Cu763 Cu 0.66336 0.86737 0.87197
 Cu764 Cu 0.63440 0.82101 0.86467
 N765 N 0.61037 0.83823 0.83058
 N766 N 0.61373 0.82131 0.84228
 C767 C 0.60204 0.80506 0.83520
 C768 C 0.59084 0.81220 0.81815
 C769 C 0.59638 0.83334 0.81563
 H770 H 0.60240 0.78901 0.84141
 H771 H 0.59160 0.84393 0.80317
 N772 N 0.65587 0.82405 0.88658
 N773 N 0.66653 0.84182 0.88974
 C774 C 0.68125 0.83821 0.90455
 C775 C 0.67975 0.81718 0.91085
 C776 C 0.66351 0.80872 0.89925
 H777 H 0.69323 0.84952 0.90924
 H778 H 0.65854 0.79227 0.89919
 H779 H 0.65458 0.84398 0.85233
 H780 H 0.63334 0.85290 0.87040
 N781 N 0.17254 0.38588 0.84080
 N782 N 0.15651 0.38684 0.82775
 C783 C 0.16139 0.40059 0.81236
 C784 C 0.18152 0.40863 0.81607
 C785 C 0.18814 0.39899 0.83421
 H786 H 0.15171 0.40338 0.79878
 H787 H 0.20360 0.40049 0.84147
 Cu788 Cu 0.13257 0.36741 0.83031
 Cu789 Cu 0.17280 0.36636 0.86435
 Cu790 Cu 0.13325 0.32768 0.86532
 N791 N 0.11513 0.34220 0.82698
 N792 N 0.11587 0.32646 0.84053
 C793 C 0.10396 0.31022 0.83372
 C794 C 0.09541 0.31613 0.81489
 C795 C 0.10273 0.33651 0.81104
 H796 H 0.10230 0.29499 0.84153
 H797 H 0.10011 0.34604 0.79725
 N798 N 0.15727 0.32796 0.88488
 N799 N 0.17262 0.34233 0.88416
 C800 C 0.18823 0.33642 0.89732
 C801 C 0.18231 0.31755 0.90681
 C802 C 0.16262 0.31265 0.89866
 H803 H 0.20335 0.34450 0.89893
 H804 H 0.15372 0.29813 0.90134
 H805 H 0.15632 0.34334 0.84860
 H806 H 0.14070 0.35968 0.86698
 N807 N 0.17473 0.88418 0.33506
 N808 N 0.15726 0.88699 0.32411
 C809 C 0.16082 0.90217 0.30964
 C810 C 0.18166 0.90906 0.31167
 C811 C 0.18998 0.89740 0.32796
 H812 H 0.14972 0.90662 0.29755
 H813 H 0.20631 0.89751 0.33336
 Cu814 Cu 0.13307 0.86792 0.32749
 Cu815 Cu 0.17762 0.86140 0.35544
 Cu816 Cu 0.13255 0.83139 0.36576
 N817 N 0.11440 0.84324 0.32664
 N818 N 0.11428 0.82887 0.34158
 C819 C 0.10135 0.81276 0.33629
 C820 C 0.09301 0.81732 0.31703
 C821 C 0.10157 0.83677 0.31134
 H822 H 0.09902 0.79836 0.34534
 H823 H 0.09952 0.84501 0.29672
 N824 N 0.15832 0.83010 0.38312
 N825 N 0.17566 0.84128 0.37889
 C826 C 0.19137 0.83513 0.39178
 C827 C 0.18364 0.81921 0.40457
 C828 C 0.16261 0.81645 0.39879
 H829 H 0.20764 0.84080 0.39105
 H830 H 0.15181 0.80427 0.40442
 H831 H 0.15442 0.84077 0.34485
 H832 H 0.14599 0.86208 0.36287
 C833 C 0.23025 0.95871 0.25531
 C834 C 0.24361 0.94799 0.24160
 C835 C 0.25783 0.95869 0.22843
 C836 C 0.25893 0.98122 0.22915
 C837 C 0.24519 0.99253 0.24261
 C838 C 0.23050 0.98126 0.25537
 C839 C 0.21655 0.99290 0.26789
 C840 C 0.21755 1.01493 0.26865
 C841 C 0.23263 1.02646 0.25702
 C842 C 0.24632 1.01518 0.24349
 C843 C 0.27333 0.99281 0.21680
 C844 C 0.27429 1.01485 0.21753
 C845 C 0.26118 1.02645 0.23092
 C846 C 0.26256 1.04894 0.23216
 C847 C 0.24917 1.05960 0.24592
 C848 C 0.23440 1.04888 0.25850
 H849 H 0.20449 0.98524 0.27721
 H850 H 0.20618 1.02266 0.27852
 H851 H 0.28423 0.98512 0.20643
 H852 H 0.28560 1.02250 0.20738
 H853 H 0.24309 0.93091 0.24133
 H854 H 0.25013 1.07664 0.24674
 C855 C 0.26090 0.45483 0.73366
 C856 C 0.24665 0.44463 0.74715
 C857 C 0.23334 0.45586 0.76053
 C858 C 0.23384 0.47842 0.76003
 C859 C 0.24858 0.48919 0.74692
 C860 C 0.26225 0.47736 0.73383
 C861 C 0.27684 0.48844 0.72125
 C862 C 0.27787 0.51050 0.72122
 C863 C 0.26454 0.52263 0.73395
 C864 C 0.24972 0.51187 0.74697
 C865 C 0.22005 0.49056 0.77227
 C866 C 0.22106 0.51262 0.77223
 C867 C 0.23601 0.52368 0.76003
 C868 C 0.23762 0.54619 0.76049
 C869 C 0.25224 0.55639 0.74738
 C870 C 0.26561 0.54518 0.73403
 H871 H 0.28783 0.48033 0.71128
 H872 H 0.28941 0.51773 0.71104
 H873 H 0.20809 0.48330 0.78199
 H874 H 0.20979 0.52073 0.78190
 H875 H 0.24596 0.42754 0.74732
 H876 H 0.25308 0.57347 0.74741
 C877 C 0.76222 -0.04596 0.27535
 C878 C 0.74872 -0.05651 0.26170
 C879 C 0.73472 -0.04562 0.24844
 C880 C 0.73371 -0.02310 0.24923
 C881 C 0.74745 -0.01195 0.26271
 C882 C 0.76155 -0.02341 0.27597
 C883 C 0.77463 -0.01193 0.28939
 C884 C 0.77452 0.01016 0.28936
 C885 C 0.76119 0.02193 0.27604
 C886 C 0.74727 0.01076 0.26275
 C887 C 0.71937 -0.01137 0.23690
 C888 C 0.71923 0.01071 0.23691
 C889 C 0.73339 0.02219 0.24927
 C890 C 0.73411 0.04473 0.24849
 C891 C 0.74783 0.05536 0.26187
 C892 C 0.76137 0.04452 0.27562
 H893 H 0.78523 -0.01974 0.30015
 H894 H 0.78519 0.01773 0.29998
 H895 H 0.70796 -0.01897 0.22705
 H896 H 0.70771 0.01852 0.22707
 H897 H 0.74913 -0.07360 0.26135
 H898 H 0.74805 0.07245 0.26147
 C899 C 0.76786 0.45194 0.76552
 C900 C 0.75501 0.44080 0.75173
 C901 C 0.74081 0.45105 0.73821
 C902 C 0.73936 0.47359 0.73842
 C903 C 0.75217 0.48532 0.75229
 C904 C 0.76640 0.47448 0.76590
 C905 C 0.77878 0.48653 0.77947
 C906 C 0.77748 0.50859 0.77963
 C907 C 0.76347 0.51975 0.76649
 C908 C 0.75068 0.50800 0.75260
 C909 C 0.72548 0.48477 0.72516
 C910 C 0.72419 0.50681 0.72532
 C911 C 0.73645 0.51884 0.73898
 C912 C 0.73490 0.54135 0.73942
 C913 C 0.74764 0.55250 0.75328
 C914 C 0.76183 0.54227 0.76685
 H915 H 0.78971 0.47921 0.79024
 H916 H 0.78774 0.51663 0.79030
 H917 H 0.71535 0.47678 0.71437
 H918 H 0.71335 0.51413 0.71447
 H919 H 0.75592 0.42372 0.75166
 H920 H 0.74666 0.56956 0.75334
 C921 C 0.26764 0.45426 0.25886
 C922 C 0.25379 0.44300 0.24611
 C923 C 0.23978 0.45320 0.23236
 C924 C 0.23909 0.47576 0.23176
 C925 C 0.25338 0.48758 0.24413
 C926 C 0.26797 0.47679 0.25741
 C927 C 0.28245 0.48889 0.26885
 C928 C 0.28213 0.51097 0.26799
 C929 C 0.26731 0.52208 0.25566
 C930 C 0.25304 0.51028 0.24326
 C931 C 0.22456 0.48688 0.21911
 C932 C 0.22423 0.50896 0.21826
 C933 C 0.23833 0.52108 0.23011
 C934 C 0.23810 0.54364 0.22924
 C935 C 0.25205 0.55486 0.24193
 C936 C 0.26633 0.54462 0.25539
 H937 H 0.29441 0.48157 0.27855
 H938 H 0.29386 0.51909 0.27710
 H939 H 0.21303 0.47879 0.20977
 H940 H 0.21259 0.51624 0.20819
 H941 H 0.25395 0.42590 0.24688
 H942 H 0.25172 0.57195 0.24140
 C943 C 0.75588 0.95570 0.74341
 C944 C 0.74147 0.94543 0.75669
 C945 C 0.72878 0.95649 0.77075
 C946 C 0.73064 0.97895 0.77170
 C947 C 0.74511 0.98983 0.75837
 C948 C 0.75782 0.97816 0.74427
 C949 C 0.77207 0.98934 0.73142
 C950 C 0.77365 1.01136 0.73205
 C951 C 0.76131 1.02333 0.74579
 C952 C 0.74689 1.01245 0.75916
 C953 C 0.71845 0.99089 0.78558
 C954 C 0.72002 1.01290 0.78620
 C955 C 0.73412 1.02412 0.77321
 C956 C 0.73582 1.04663 0.77384
 C957 C 0.75022 1.05690 0.76055
 C958 C 0.76295 1.04583 0.74653
 H959 H 0.78229 0.98136 0.72063
 H960 H 0.78477 1.01869 0.72149
 H961 H 0.70745 0.98351 0.79624
 H962 H 0.70992 1.02086 0.79711
 H963 H 0.74027 0.92840 0.75624
 H964 H 0.75132 1.07395 0.76088
 C965 C 0.76806 0.54813 0.24655
 C966 C 0.75423 0.55908 0.25967
 C967 C 0.74068 0.54857 0.27363
 C968 C 0.74125 0.52602 0.27484
 C969 C 0.75490 0.51450 0.26149
 C970 C 0.76864 0.52558 0.24762
 C971 C 0.78255 0.51375 0.23521
 C972 C 0.78223 0.49166 0.23548
 C973 C 0.76801 0.48028 0.24821
 C974 C 0.75462 0.49179 0.26181
 C975 C 0.72857 0.51460 0.28900
 C976 C 0.72832 0.49250 0.28934
 C977 C 0.74074 0.48069 0.27554
 C978 C 0.73969 0.45816 0.27505
 C979 C 0.75287 0.44725 0.26129
 C980 C 0.76679 0.45777 0.24771
 H981 H 0.79396 0.52126 0.22506
 H982 H 0.79342 0.48377 0.22553
 H983 H 0.71863 0.52247 0.30012
 H984 H 0.71819 0.48492 0.30068
 H985 H 0.75405 0.57618 0.25903
 H986 H 0.75231 0.43017 0.26117
 C987 C 0.26176 -0.04803 0.75817
 C988 C 0.24828 -0.05935 0.74511
 C989 C 0.23409 -0.04921 0.73148
 C990 C 0.23299 -0.02665 0.73115
 C991 C 0.24675 -0.01475 0.74401
 C992 C 0.26126 -0.02546 0.75743
 C993 C 0.27486 -0.01326 0.76971
 C994 C 0.27417 0.00881 0.76912
 C995 C 0.25972 0.01984 0.75634
 C996 C 0.24598 0.00796 0.74346
 C997 C 0.21857 -0.01560 0.71834
 C998 C 0.21791 0.00648 0.71771
 C999 C 0.23148 0.01868 0.73003
 C1000 C 0.23097 0.04125 0.72935
 C1001 C 0.24441 0.05254 0.74248
 C1002 C 0.25858 0.04239 0.75610
 H1003 H 0.28638 -0.02044 0.77997
 H1004 H 0.28532 0.01695 0.77884
 H1005 H 0.20743 -0.02374 0.70861
 H1006 H 0.20644 0.01371 0.70741
 H1007 H 0.24878 -0.07644 0.74562
 H1008 H 0.24391 0.06963 0.74205
 C1009 C 0.26239 0.23374 0.95267
 C1010 C 0.24883 0.24831 0.94269
 C1011 C 0.23449 0.26119 0.95342
 C1012 C 0.23337 0.25922 0.97517
 C1013 C 0.24762 0.24527 0.98578
 C1014 C 0.26228 0.23262 0.97452
 C1015 C 0.27632 0.21916 0.98546
 C1016 C 0.27598 0.21797 1.00686
 C1017 C 0.26171 0.23032 1.01840
 C1018 C 0.24723 0.24400 1.00774
 C1019 C 0.21842 0.27080 0.98666
 C1020 C 0.21800 0.26954 1.00802
 C1021 C 0.23253 0.25665 1.01897
 C1022 C 0.23281 0.25608 1.04080
 C1023 C 0.24694 0.24218 1.05089
 C1024 C 0.26158 0.22952 1.04025
 H1025 H 0.28797 0.20945 0.97772
 H1026 H 0.28715 0.20717 1.01411
 H1027 H 0.20668 0.28096 0.97941
 H1028 H 0.20597 0.27879 1.01571
 H1029 H 0.24928 0.24953 0.92617
 H1030 H 0.24670 0.24142 1.06742
 C1031 C 0.26299 0.73612 0.45214
 C1032 C 0.24909 0.75030 0.44211
 C1033 C 0.23459 0.76308 0.45275
 C1034 C 0.23360 0.76132 0.47453
 C1035 C 0.24801 0.74756 0.48519
 C1036 C 0.26293 0.73516 0.47398
 C1037 C 0.27733 0.72214 0.48494
 C1038 C 0.27689 0.72089 0.50632
 C1039 C 0.26202 0.73259 0.51782
 C1040 C 0.24749 0.74621 0.50715
 C1041 C 0.21864 0.77292 0.48598
 C1042 C 0.21812 0.77158 0.50735
 C1043 C 0.23254 0.75859 0.51835
 C1044 C 0.23249 0.75765 0.54020
 C1045 C 0.24661 0.74371 0.55029
 C1046 C 0.26131 0.73114 0.53964
 H1047 H 0.28933 0.71284 0.47724
 H1048 H 0.28853 0.71062 0.51357
 H1049 H 0.20698 0.78314 0.47866
 H1050 H 0.20609 0.78086 0.51501
 H1051 H 0.24951 0.75135 0.42560
 H1052 H 0.24630 0.74278 0.56682
 C1053 C 0.25903 0.76856 -0.04668
 C1054 C 0.24473 0.75519 -0.05677
 C1055 C 0.23228 0.74010 -0.04624
 C1056 C 0.23408 0.73839 -0.02448
 C1057 C 0.24798 0.75227 -0.01378
 C1058 C 0.26021 0.76761 -0.02488
 C1059 C 0.27332 0.78150 -0.01386
 C1060 C 0.27502 0.78002 0.00744
 C1061 C 0.26372 0.76455 0.01879
 C1062 C 0.24979 0.75070 0.00810
 C1063 C 0.22252 0.72314 -0.01309
 C1064 C 0.22424 0.72164 0.00822
 C1065 C 0.23755 0.73538 0.01922
 C1066 C 0.23887 0.73434 0.04102
 C1067 C 0.25337 0.74755 0.05107
 C1068 C 0.26584 0.76259 0.04050
 H1069 H 0.28237 0.79390 -0.02143
 H1070 H 0.28530 0.79136 0.01475
 H1071 H 0.21197 0.71203 -0.02039
 H1072 H 0.21507 0.70934 0.01582
 H1073 H 0.24356 0.75633 -0.07326
 H1074 H 0.25466 0.74639 0.06755
 C1075 C 0.27264 0.25974 0.45347
 C1076 C 0.25850 0.24671 0.44275
 C1077 C 0.24473 0.23244 0.45276
 C1078 C 0.24542 0.23070 0.47456
 C1079 C 0.25940 0.24394 0.48586
 C1080 C 0.27330 0.25823 0.47528
 C1081 C 0.28744 0.27057 0.48687
 C1082 C 0.28727 0.26981 0.50827
 C1083 C 0.27299 0.25661 0.51915
 C1084 C 0.25928 0.24310 0.50784
 C1085 C 0.23255 0.21610 0.48544
 C1086 C 0.23244 0.21528 0.50683
 C1087 C 0.24520 0.22899 0.51842
 C1088 C 0.24428 0.22905 0.54025
 C1089 C 0.25792 0.24255 0.55099
 C1090 C 0.27198 0.25656 0.54098
 H1091 H 0.29890 0.28106 0.47967
 H1092 H 0.29860 0.27975 0.51605
 H1093 H 0.22237 0.20501 0.47766
 H1094 H 0.22216 0.20362 0.51404
 H1095 H 0.25829 0.24763 0.42620
 H1096 H 0.25751 0.24223 0.56754
 C1097 C 0.74070 0.76897 1.04627
 C1098 C 0.75465 0.75494 1.05645
 C1099 C 0.76840 0.74128 1.04592
 C1100 C 0.76873 0.74208 1.02407
 C1101 C 0.75437 0.75578 1.01329
 C1102 C 0.74027 0.76919 1.02441
 C1103 C 0.72621 0.78248 1.01333
 C1104 C 0.72590 0.78270 0.99193
 C1105 C 0.73942 0.76943 0.98053
 C1106 C 0.75397 0.75593 0.99131
 C1107 C 0.78297 0.72956 1.01268
 C1108 C 0.78258 0.72970 0.99127
 C1109 C 0.76796 0.74239 0.98020
 C1110 C 0.76690 0.74195 0.95838
 C1111 C 0.75263 0.75563 0.94817
 C1112 C 0.73873 0.76918 0.95869
 H1113 H 0.71510 0.79288 1.02093
 H1114 H 0.71480 0.79350 0.98458
 H1115 H 0.79475 0.71952 1.02006
 H1116 H 0.79405 0.71972 0.98362
 H1117 H 0.75480 0.75463 1.07299
 H1118 H 0.75225 0.75566 0.93164
 C1119 C 0.77468 0.24065 0.46025
 C1120 C 0.76196 0.25548 0.44962
 C1121 C 0.74681 0.26816 0.45953
 C1122 C 0.74516 0.26693 0.48130
 C1123 C 0.75762 0.25180 0.49249
 C1124 C 0.77228 0.23851 0.48192
 C1125 C 0.78407 0.22344 0.49336
 C1126 C 0.78173 0.22147 0.51458
 C1127 C 0.76730 0.23428 0.52544
 C1128 C 0.75515 0.24971 0.51429
 C1129 C 0.73132 0.28031 0.49220
 C1130 C 0.72918 0.27852 0.51345
 C1131 C 0.74059 0.26311 0.52486
 C1132 C 0.73796 0.26077 0.54649
 C1133 C 0.75000 0.24531 0.55704
 C1134 C 0.76470 0.23215 0.54708
 H1135 H 0.79525 0.21281 0.48618
 H1136 H 0.79147 0.20962 0.52219
 H1137 H 0.72206 0.29254 0.48454
 H1138 H 0.71837 0.28949 0.52067
 H1139 H 0.76349 0.25679 0.43317
 H1140 H 0.74826 0.24382 0.57347
 C1141 C 0.76312 0.26765 -0.04055
 C1142 C 0.74918 0.25400 -0.05076
 C1143 C 0.73530 0.24021 -0.04023
 C1144 C 0.73541 0.23994 -0.01838
 C1145 C 0.74911 0.25393 -0.00759
 C1146 C 0.76287 0.26794 -0.01870
 C1147 C 0.77607 0.28170 -0.00762
 C1148 C 0.77606 0.28164 0.01379
 C1149 C 0.76268 0.26796 0.02520
 C1150 C 0.74911 0.25385 0.01440
 C1151 C 0.72216 0.22615 -0.00697
 C1152 C 0.72216 0.22608 0.01442
 C1153 C 0.73558 0.23963 0.02551
 C1154 C 0.73595 0.23928 0.04736
 C1155 C 0.74919 0.25359 0.05757
 C1156 C 0.76241 0.26802 0.04705
 H1157 H 0.78660 0.29283 -0.01524
 H1158 H 0.78684 0.29248 0.02115
 H1159 H 0.71159 0.21510 -0.01430
 H1160 H 0.71133 0.21522 0.02201
 H1161 H 0.74920 0.25402 -0.06729
 H1162 H 0.74922 0.25346 0.07411
 C1163 C 0.76343 0.76259 0.46036
 C1164 C 0.74896 0.74971 0.44988
 C1165 C 0.73559 0.73520 0.46009
 C1166 C 0.73704 0.73313 0.48183
 C1167 C 0.75089 0.74671 0.49295
 C1168 C 0.76396 0.76162 0.48219
 C1169 C 0.77727 0.77500 0.49361
 C1170 C 0.77785 0.77384 0.51500
 C1171 C 0.76506 0.75933 0.52606
 C1172 C 0.75164 0.74538 0.51490
 C1173 C 0.72507 0.71790 0.49281
 C1174 C 0.72595 0.71646 0.51415
 C1175 C 0.73877 0.73026 0.52561
 C1176 C 0.73907 0.72940 0.54744
 C1177 C 0.75249 0.74324 0.55803
 C1178 C 0.76518 0.75845 0.54792
 H1179 H 0.78732 0.78676 0.48628
 H1180 H 0.78862 0.78450 0.52264
 H1181 H 0.71494 0.70668 0.48514
 H1182 H 0.71639 0.70427 0.52141
 H1183 H 0.74822 0.75084 0.43336
 H1184 H 0.75291 0.74229 0.57456
 C1185 C 0.95399 0.26255 0.23080
 C1186 C 0.94337 0.24895 0.24466
 C1187 C 0.95430 0.23553 0.25847
 C1188 C 0.97698 0.23595 0.25869
 C1189 C 0.98816 0.24919 0.24442
 C1190 C 0.97664 0.26213 0.23013
 C1191 C 0.98813 0.27433 0.21563
 C1192 C 1.01031 0.27467 0.21567
 C1193 C 1.02213 0.26290 0.23027
 C1194 C 1.01096 0.24966 0.24456
 C1195 C 0.98884 0.22350 0.27273
 C1196 C 1.01101 0.22388 0.27281
 C1197 C 1.02250 0.23694 0.25903
 C1198 C 1.04515 0.23771 0.25935
 C1199 C 1.05570 0.25118 0.24533
 C1200 C 1.04475 0.26394 0.23097
 H1201 H 0.98024 0.28369 0.20386
 H1202 H 1.01793 0.28430 0.20394
 H1203 H 0.98127 0.21333 0.28404
 H1204 H 1.01887 0.21372 0.28396
 H1205 H 0.92619 0.24895 0.24481
 H1206 H 1.07285 0.25160 0.24548
 C1207 C 0.54329 0.23470 0.76376
 C1208 C 0.55440 0.24821 0.75019
 C1209 C 0.54401 0.26151 0.73590
 C1210 C 0.52140 0.26088 0.73467
 C1211 C 0.50966 0.24767 0.74857
 C1212 C 0.52063 0.23456 0.76313
 C1213 C 0.50859 0.22173 0.77666
 C1214 C 0.48642 0.22173 0.77608
 C1215 C 0.47513 0.23443 0.76180
 C1216 C 0.48687 0.24764 0.74793
 C1217 C 0.51014 0.27300 0.71992
 C1218 C 0.48796 0.27302 0.71936
 C1219 C 0.47591 0.26087 0.73346
 C1220 C 0.45326 0.26153 0.73351
 C1221 C 0.44209 0.24801 0.74704
 C1222 C 0.45247 0.23426 0.76096
 H1223 H 0.51602 0.21149 0.78803
 H1224 H 0.47838 0.21167 0.78718
 H1225 H 0.51821 0.28258 0.70846
 H1226 H 0.48053 0.28264 0.70750
 H1227 H 0.57155 0.24832 0.75068
 H1228 H 0.42493 0.24819 0.74670
 C1229 C -0.04251 0.26149 0.76293
 C1230 C -0.05312 0.24705 0.75034
 C1231 C -0.04218 0.23333 0.73717
 C1232 C -0.01952 0.23363 0.73697
 C1233 C -0.00838 0.24853 0.74919
 C1234 C -0.01992 0.26272 0.76193
 C1235 C -0.00850 0.27772 0.77330
 C1236 C 0.01365 0.27836 0.77285
 C1237 C 0.02553 0.26405 0.76097
 C1238 C 0.01440 0.24923 0.74867
 C1239 C -0.00765 0.21947 0.72492
 C1240 C 0.01450 0.22019 0.72439
 C1241 C 0.02595 0.23511 0.73587
 C1242 C 0.04856 0.23632 0.73493
 C1243 C 0.05918 0.25053 0.74779
 C1244 C 0.04819 0.26412 0.76105
 H1245 H -0.01639 0.28937 0.78265
 H1246 H 0.02115 0.29046 0.78188
 H1247 H -0.01519 0.20745 0.71579
 H1248 H 0.02239 0.20863 0.71493
 H1249 H -0.07027 0.24650 0.75079
 H1250 H 0.07636 0.25101 0.74749
 C1251 C 0.45876 0.26839 0.26224
 C1252 C 0.44736 0.25526 0.24895
 C1253 C 0.45749 0.24110 0.23563
 C1254 C 0.48012 0.23974 0.23578
 C1255 C 0.49211 0.25319 0.24881
 C1256 C 0.48141 0.26763 0.26197
 C1257 C 0.49372 0.28087 0.27449
 C1258 C 0.51586 0.27986 0.27441
 C1259 C 0.52688 0.26549 0.26186
 C1260 C 0.51490 0.25212 0.24875
 C1261 C 0.49114 0.22532 0.22330
 C1262 C 0.51329 0.22436 0.22315
 C1263 C 0.52560 0.23764 0.23564
 C1264 C 0.54825 0.23679 0.23547
 C1265 C 0.55964 0.24995 0.24873
 C1266 C 0.54950 0.26407 0.26209
 H1267 H 0.48656 0.29233 0.28456
 H1268 H 0.52408 0.29068 0.28435
 H1269 H 0.48294 0.21438 0.21346
 H1270 H 0.52047 0.21290 0.21309
 H1271 H 0.43020 0.25596 0.24908
 H1272 H 0.57679 0.24915 0.24871
 C1273 C 0.95054 0.76391 0.73815
 C1274 C 0.94011 0.75057 0.75239
 C1275 C 0.95123 0.73702 0.76595
 C1276 C 0.97389 0.73740 0.76583
 C1277 C 0.98488 0.75014 0.75099
 C1278 C 0.97316 0.76314 0.73690
 C1279 C 0.98443 0.77500 0.72197
 C1280 C 1.00661 0.77465 0.72117
 C1281 C 1.01865 0.76242 0.73524
 C1282 C 1.00767 0.74985 0.75022
 C1283 C 0.98593 0.72546 0.78014
 C1284 C 1.00811 0.72530 0.77949
 C1285 C 1.01939 0.73698 0.76444
 C1286 C 1.04201 0.73622 0.76321
 C1287 C 1.05242 0.74912 0.74860
 C1288 C 1.04132 0.76237 0.73476
 H1289 H 0.97637 0.78460 0.71049
 H1290 H 1.01403 0.78409 0.70919
 H1291 H 0.97846 0.71620 0.79224
 H1292 H 1.01617 0.71593 0.79115
 H1293 H 0.92295 0.75073 0.75292
 H1294 H 1.06957 0.74889 0.74804
 C1295 C 0.54478 0.74129 0.26158
 C1296 C 0.55540 0.75414 0.24708
 C1297 C 0.54449 0.76737 0.23307
 C1298 C 0.52182 0.76718 0.23303
 C1299 C 0.51063 0.75470 0.24793
 C1300 C 0.52214 0.74200 0.26244
 C1301 C 0.51064 0.73042 0.27741
 C1302 C 0.48846 0.73060 0.27776
 C1303 C 0.47664 0.74240 0.26318
 C1304 C 0.48783 0.75496 0.24835
 C1305 C 0.50999 0.77910 0.21855
 C1306 C 0.48780 0.77934 0.21894
 C1307 C 0.47630 0.76771 0.23389
 C1308 C 0.45366 0.76842 0.23478
 C1309 C 0.44305 0.75532 0.24910
 C1310 C 0.45399 0.74198 0.26297
 H1311 H 0.51851 0.72113 0.28924
 H1312 H 0.48082 0.72147 0.28984
 H1313 H 0.51763 0.78831 0.20651
 H1314 H 0.47990 0.78866 0.20715
 H1315 H 0.57256 0.75395 0.24679
 H1316 H 0.42588 0.75538 0.24934
 C1317 C 0.04587 0.76281 0.26540
 C1318 C 0.05709 0.74852 0.25303
 C1319 C 0.04675 0.73461 0.23968
 C1320 C 0.02410 0.73428 0.23930
 C1321 C 0.01234 0.74899 0.25126
 C1322 C 0.02325 0.76349 0.26412
 C1323 C 0.01119 0.77829 0.27524
 C1324 C -0.01095 0.77852 0.27434
 C1325 C -0.02220 0.76395 0.26229
 C1326 C -0.01043 0.74928 0.25028
 C1327 C 0.01285 0.71971 0.22724
 C1328 C -0.00930 0.72000 0.22628
 C1329 C -0.02134 0.73485 0.23735
 C1330 C -0.04394 0.73568 0.23592
 C1331 C -0.05518 0.74982 0.24845
 C1332 C -0.04484 0.76358 0.26194
 H1333 H 0.01857 0.79009 0.28474
 H1334 H -0.01900 0.79054 0.28313
 H1335 H 0.02088 0.70768 0.21846
 H1336 H -0.01671 0.70819 0.21682
 H1337 H 0.07426 0.74838 0.25363
 H1338 H -0.07234 0.74999 0.24781
 C1339 C 0.45228 0.76548 0.75864
 C1340 C 0.44171 0.75196 0.74509
 C1341 C 0.45269 0.73745 0.73278
 C1342 C 0.47523 0.73598 0.73447
 C1343 C 0.48640 0.75017 0.74744
 C1344 C 0.47491 0.76523 0.75925
 C1345 C 0.48643 0.77952 0.77139
 C1346 C 0.50854 0.77863 0.77257
 C1347 C 0.52029 0.76342 0.76166
 C1348 C 0.50913 0.74923 0.74869
 C1349 C 0.48697 0.72071 0.72364
 C1350 C 0.50908 0.71978 0.72487
 C1351 C 0.52060 0.73408 0.73698
 C1352 C 0.54323 0.73369 0.73772
 C1353 C 0.55380 0.74738 0.75111
 C1354 C 0.54284 0.76199 0.76332
 H1355 H 0.47863 0.79180 0.78004
 H1356 H 0.51617 0.79025 0.78211
 H1357 H 0.47935 0.70902 0.71419
 H1358 H 0.51686 0.70746 0.71626
 H1359 H 0.42456 0.75260 0.74425
 H1360 H 0.57094 0.74667 0.75200
 C1361 C 0.42153 0.28360 0.27847
 C1362 C 0.42352 0.28286 0.30220
 C1363 C 0.42478 0.30728 0.30224
 C1364 C 0.42265 0.30817 0.27866
 C1365 C 0.44922 0.30643 0.30058
 C1366 C 0.44813 0.28178 0.30035
 C1367 C 0.44616 0.28263 0.27667
 C1368 C 0.44729 0.30713 0.27674
 H1369 H 0.40926 0.27464 0.26988
 H1370 H 0.41364 0.27289 0.31275
 H1371 H 0.41205 0.31910 0.26978
 H1372 H 0.46051 0.31596 0.30983
 H1373 H 0.45868 0.27082 0.30927
 H1374 H 0.45712 0.31711 0.26616
 C1375 C 0.44142 0.77948 0.79636
 C1376 C 0.44030 0.80415 0.79572
 C1377 C 0.41595 0.80283 0.79797
 C1378 C 0.41689 0.77840 0.79881
 C1379 C 0.41318 0.80265 0.77445
 C1380 C 0.43778 0.80375 0.77194
 C1381 C 0.43884 0.77925 0.77274
 C1382 C 0.41429 0.77806 0.77513
 H1383 H 0.45309 0.76983 0.80539
 H1384 H 0.45090 0.81499 0.80436
 H1385 H 0.40828 0.76780 0.80982
 H1386 H 0.40141 0.81228 0.76553
 H1387 H 0.44645 0.81412 0.76077
 H1388 H 0.40277 0.76760 0.76720
 C1389 C -0.05223 0.27638 0.80079
 C1390 C -0.05453 0.30094 0.79925
 C1391 C -0.07868 0.29867 0.80263
 C1392 C -0.07656 0.27434 0.80435
 C1393 C -0.08246 0.29734 0.77930
 C1394 C -0.05809 0.29942 0.77567
 C1395 C -0.05585 0.27504 0.77734
 C1396 C -0.08020 0.27287 0.78087
 H1397 H -0.03974 0.26765 0.80964
 H1398 H -0.04408 0.31263 0.80699
 H1399 H -0.08421 0.26395 0.81619
 H1400 H -0.09504 0.30607 0.77057
 H1401 H -0.05041 0.30971 0.76376
 H1402 H -0.09162 0.26159 0.77390
 C1403 C -0.06032 0.80139 0.27547
 C1404 C -0.08484 0.79955 0.27830
 C1405 C -0.08178 0.79981 0.30178
 C1406 C -0.05750 0.80184 0.29920
 C1407 C -0.08006 0.77541 0.30256
 C1408 C -0.08297 0.77501 0.27893
 C1409 C -0.05850 0.77693 0.27622
 C1410 C -0.05562 0.77722 0.29981
 H1411 H -0.05211 0.81203 0.26421
 H1412 H -0.09701 0.80885 0.26957
 H1413 H -0.04714 0.81300 0.30771
 H1414 H -0.08823 0.76463 0.31372
 H1415 H -0.09427 0.76420 0.27114
 H1416 H -0.04356 0.76793 0.30869
 C1417 C 0.58273 0.72413 0.27425
 C1418 C 0.58461 0.72725 0.29776
 C1419 C 0.58151 0.70320 0.30108
 C1420 C 0.57976 0.69993 0.27773
 C1421 C 0.55722 0.70618 0.30279
 C1422 C 0.56013 0.73045 0.29928
 C1423 C 0.55825 0.72725 0.27585
 C1424 C 0.55529 0.70309 0.27918
 H1425 H 0.59411 0.73090 0.26282
 H1426 H 0.59681 0.73713 0.30549
 H1427 H 0.58793 0.68730 0.26886
 H1428 H 0.54683 0.69863 0.31467
 H1429 H 0.55197 0.74310 0.30812
 H1430 H 0.54318 0.69311 0.27143
 C1431 C 0.58092 0.22072 0.78028
 C1432 C 0.57916 0.22198 0.80396
 C1433 C 0.57860 0.19754 0.80524
 C1434 C 0.58045 0.19616 0.78169
 C1435 C 0.55411 0.19771 0.80390
 C1436 C 0.55452 0.22237 0.80242
 C1437 C 0.55625 0.22104 0.77878
 C1438 C 0.55577 0.19652 0.78007
 H1439 H 0.59295 0.22970 0.77113
 H1440 H 0.58887 0.23256 0.81378
 H1441 H 0.59123 0.18527 0.77323
 H1442 H 0.54319 0.18810 0.81377
 H1443 H 0.54381 0.23327 0.81095
 H1444 H 0.54606 0.18607 0.77013
 C1445 C 1.05831 0.72476 0.80042
 C1446 C 1.05521 0.70048 0.80375
 C1447 C 1.07940 0.69724 0.80130
 C1448 C 1.08270 0.72128 0.79816
 C1449 C 1.07688 0.69429 0.77796
 C1450 C 1.05251 0.69772 0.78015
 C1451 C 1.05568 0.72189 0.77702
 C1452 C 1.08006 0.71848 0.77469
 H1453 H 1.05060 0.73740 0.80964
 H1454 H 1.04510 0.69291 0.81584
 H1455 H 1.09527 0.73090 0.80566
 H1456 H 1.08457 0.68171 0.76867
 H1457 H 1.04005 0.68799 0.77264
 H1458 H 1.09119 0.72524 0.76302
 C1459 C 1.08335 0.22530 0.27590
 C1460 C 1.08144 0.22554 0.29965
 C1461 C 1.08200 0.20109 0.30000
 C1462 C 1.08403 0.20073 0.27641
 C1463 C 1.05755 0.20016 0.29851
 C1464 C 1.05681 0.22486 0.29795
 C1465 C 1.05870 0.22450 0.27426
 C1466 C 1.05938 0.19998 0.27468
 H1467 H 1.09494 0.23527 0.26719
 H1468 H 1.09061 0.23609 0.30996
 H1469 H 1.09536 0.19070 0.26762
 H1470 H 1.04705 0.18969 0.30798
 H1471 H 1.04557 0.23490 0.30683
 H1472 H 1.05022 0.18948 0.26432
 C1473 C 0.58205 0.27941 0.72487
 C1474 C 0.58481 0.27694 0.70137
 C1475 C 0.58149 0.30104 0.69856
 C1476 C 0.57886 0.30366 0.72193
 C1477 C 0.55732 0.29793 0.69601
 C1478 C 0.56044 0.27360 0.69899
 C1479 C 0.55769 0.27612 0.72242
 C1480 C 0.55450 0.30034 0.71963
 H1481 H 0.59312 0.27244 0.73648
 H1482 H 0.59742 0.26738 0.69377
 H1483 H 0.58651 0.31609 0.73137
 H1484 H 0.54726 0.30572 0.68400
 H1485 H 0.55279 0.26114 0.68957
 H1486 H 0.54199 0.31001 0.72726
 C1487 C 0.55883 0.78009 0.19524
 C1488 C 0.55613 0.80460 0.19331
 C1489 C 0.58049 0.80709 0.19453
 C1490 C 0.58340 0.78285 0.19625
 C1491 C 0.57940 0.80877 0.21811
 C1492 C 0.55488 0.80610 0.21714
 C1493 C 0.55766 0.78175 0.21889
 C1494 C 0.58220 0.78441 0.21996
 H1495 H 0.55030 0.76818 0.18586
 H1496 H 0.54551 0.81306 0.18222
 H1497 H 0.59527 0.77334 0.18756
 H1498 H 0.58791 0.82060 0.22761
 H1499 H 0.54310 0.81569 0.22584
 H1500 H 0.59389 0.77675 0.23057
 C1501 C 1.05975 0.27592 0.19338
 C1502 C 1.05635 0.30023 0.19045
 C1503 C 1.08057 0.30353 0.19218
 C1504 C 1.08417 0.27946 0.19492
 C1505 C 1.07877 0.30617 0.21562
 C1506 C 1.05437 0.30267 0.21415
 C1507 C 1.05785 0.27849 0.21689
 C1508 C 1.08225 0.28196 0.21850
 H1509 H 1.05186 0.26337 0.18426
 H1510 H 1.04580 0.30791 0.17878
 H1511 H 1.09656 0.26998 0.18691
 H1512 H 1.08665 0.31866 0.22482
 H1513 H 1.04207 0.31225 0.22218
 H1514 H 1.09383 0.27511 0.22970
 C1515 C 1.07896 0.77793 0.71967
 C1516 C 1.07877 0.77588 0.69598
 C1517 C 1.07668 0.80019 0.69392
 C1518 C 1.07699 0.80237 0.71747
 C1519 C 1.05221 0.79859 0.69400
 C1520 C 1.05410 0.77405 0.69626
 C1521 C 1.05430 0.77618 0.71989
 C1522 C 1.05234 0.80059 0.71781
 H1523 H 1.09092 0.77001 0.72980
 H1524 H 1.08976 0.76574 0.68692
 H1525 H 1.08649 0.81408 0.72621
 H1526 H 1.04131 0.80723 0.68329
 H1527 H 1.04462 0.76229 0.68755
 H1528 H 1.04142 0.81077 0.72690
 C1529 C 0.43723 0.69950 0.72067
 C1530 C 0.41303 0.70178 0.71622
 C1531 C 0.41762 0.69950 0.69309
 C1532 C 0.44162 0.69704 0.69731
 C1533 C 0.42001 0.72372 0.69057
 C1534 C 0.41557 0.72615 0.71386
 C1535 C 0.43975 0.72378 0.71823
 C1536 C 0.44419 0.72151 0.69498
 H1537 H 0.44439 0.68956 0.73315
 H1538 H 0.40007 0.69355 0.72485
 H1539 H 0.45223 0.68493 0.69033
 H1540 H 0.41284 0.73370 0.67811
 H1541 H 0.40408 0.73789 0.72008
 H1542 H 0.45706 0.72974 0.68622
 C1543 C 0.44189 0.20331 0.22315
 C1544 C 0.41732 0.20506 0.22086
 C1545 C 0.41983 0.20403 0.19734
 C1546 C 0.44418 0.20210 0.19940
 C1547 C 0.42139 0.22840 0.19577
 C1548 C 0.41904 0.22957 0.21945
 C1549 C 0.44358 0.22773 0.22164
 C1550 C 0.44593 0.22671 0.19801
 H1551 H 0.45041 0.19301 0.23451
 H1552 H 0.40541 0.19605 0.23016
 H1553 H 0.45440 0.19065 0.19100
 H1554 H 0.41287 0.23876 0.18446
 H1555 H 0.40782 0.24060 0.22715
 H1556 H 0.45774 0.23572 0.18859
 C1557 C -0.08100 0.72344 0.21749
 C1558 C -0.07691 0.72137 0.19410
 C1559 C -0.07855 0.69706 0.19643
 C1560 C -0.08278 0.69900 0.21966
 C1561 C -0.05442 0.69526 0.20022
 C1562 C -0.05259 0.71982 0.19809
 C1563 C -0.05668 0.72174 0.22143
 C1564 C -0.05845 0.69737 0.22369
 H1565 H -0.09274 0.73477 0.22399
 H1566 H -0.08458 0.73124 0.18186
 H1567 H -0.09534 0.69034 0.22847
 H1568 H -0.04358 0.68354 0.19296
 H1569 H -0.04012 0.72851 0.18920
 H1570 H -0.05080 0.68753 0.23596
 C1571 C -0.05311 0.21821 0.69978
 C1572 C -0.05334 0.19353 0.70098
 C1573 C -0.07778 0.19401 0.69919
 C1574 C -0.07771 0.21845 0.69781
 C1575 C -0.08010 0.19471 0.72274
 C1576 C -0.05545 0.19443 0.72477
 C1577 C -0.05528 0.21893 0.72343
 C1578 C -0.07990 0.21928 0.72150
 H1579 H -0.04196 0.22800 0.69032
 H1580 H -0.04253 0.18280 0.69238
 H1581 H -0.08695 0.22840 0.68669
 H1582 H -0.09133 0.18494 0.73212
 H1583 H -0.04621 0.18459 0.73598
 H1584 H -0.09175 0.22951 0.72938
 C1585 C 0.28001 0.41737 0.27805
 C1586 C 0.30462 0.41579 0.27690
 C1587 C 0.30578 0.41990 0.30015
 C1588 C 0.28131 0.42136 0.30146
 C1589 C 0.30740 0.44398 0.29618
 C1590 C 0.30605 0.44006 0.27268
 C1591 C 0.28152 0.44163 0.27392
 C1592 C 0.28268 0.44560 0.29729
 H1593 H 0.26902 0.40558 0.27123
 H1594 H 0.31375 0.40339 0.26862
 H1595 H 0.27108 0.41360 0.31334
 H1596 H 0.31880 0.45481 0.30382
 H1597 H 0.31619 0.44783 0.26073
 H1598 H 0.27354 0.45791 0.30570
 C1599 C 0.27599 -0.05861 0.79636
 C1600 C 0.27703 -0.08314 0.79857
 C1601 C 0.30154 -0.08195 0.79830
 C1602 C 0.30076 -0.05761 0.79631
 C1603 C 0.30185 -0.08413 0.77474
 C1604 C 0.27717 -0.08515 0.77485
 C1605 C 0.27626 -0.06061 0.77271
 C1606 C 0.30086 -0.05959 0.77250
 H1607 H 0.26525 -0.04804 0.80523
 H1608 H 0.26723 -0.09293 0.80934
 H1609 H 0.31060 -0.04638 0.80529
 H1610 H 0.31252 -0.09474 0.76584
 H1611 H 0.26792 -0.09735 0.76653
 H1612 H 0.31064 -0.04985 0.76167
 C1613 C 0.78566 0.41470 0.77932
 C1614 C 0.81009 0.41774 0.78108
 C1615 C 0.80798 0.41712 0.80468
 C1616 C 0.78372 0.41393 0.80306
 C1617 C 0.80513 0.44136 0.80517
 C1618 C 0.80701 0.44218 0.78130
 C1619 C 0.78264 0.43914 0.77966
 C1620 C 0.78062 0.43838 0.80333
 H1621 H 0.77828 0.40282 0.76908
 H1622 H 0.82222 0.40920 0.77181
 H1623 H 0.77417 0.40220 0.81208
 H1624 H 0.81329 0.45224 0.81594
 H1625 H 0.81662 0.45383 0.77224
 H1626 H 0.76839 0.44695 0.81246
 C1627 C 0.77676 -0.06063 0.31227
 C1628 C 0.77948 -0.08510 0.31130
 C1629 C 0.80385 -0.08226 0.31162
 C1630 C 0.80139 -0.05801 0.31280
 C1631 C 0.80455 -0.08111 0.28796
 C1632 C 0.78001 -0.08379 0.28750
 C1633 C 0.77738 -0.05934 0.28854
 C1634 C 0.80186 -0.05666 0.28889
 H1635 H 0.76522 -0.05213 0.32224
 H1636 H 0.77032 -0.09692 0.32058
 H1637 H 0.81035 -0.04750 0.32332
 H1638 H 0.81597 -0.08958 0.27786
 H1639 H 0.77181 -0.09531 0.27745
 H1640 H 0.81107 -0.04491 0.27956
 C1641 C 0.30494 0.55574 0.71913
 C1642 C 0.30387 0.55521 0.69525
 C1643 C 0.30566 0.57955 0.69455
 C1644 C 0.30693 0.58028 0.71817
 C1645 C 0.28123 0.58185 0.69533
 C1646 C 0.27921 0.55732 0.69620
 C1647 C 0.28041 0.55790 0.71991
 C1648 C 0.28234 0.58244 0.71909
 H1649 H 0.31469 0.54495 0.72905
 H1650 H 0.31288 0.54411 0.68529
 H1651 H 0.31842 0.58984 0.72717
 H1652 H 0.27152 0.59270 0.68545
 H1653 H 0.26770 0.54781 0.68718
 H1654 H 0.27401 0.59453 0.72846
 C1655 C 0.30235 1.05889 0.21818
 C1656 C 0.30138 1.06056 0.19431
 C1657 C 0.30438 1.08473 0.19568
 C1658 C 0.30556 1.08325 0.21931
 C1659 C 0.28009 1.08814 0.19660
 C1660 C 0.27685 1.06378 0.19540
 C1661 C 0.27794 1.06215 0.21909
 C1662 C 0.28109 1.08652 0.22037
 H1663 H 0.31154 1.04682 0.22717
 H1664 H 0.30989 1.05000 0.18345
 H1665 H 0.31743 1.09133 0.22917
 H1666 H 0.27102 1.10032 0.18763
 H1667 H 0.26494 1.05571 0.18557
 H1668 H 0.27333 1.09806 0.23078
 C1669 C 0.80586 0.56231 0.23107
 C1670 C 0.80582 0.55896 0.20744
 C1671 C 0.80418 0.58313 0.20410
 C1672 C 0.80441 0.58669 0.22747
 C1673 C 0.77966 0.58199 0.20416
 C1674 C 0.78107 0.55765 0.20769
 C1675 C 0.78128 0.56106 0.23118
 C1676 C 0.77975 0.58542 0.22769
 H1677 H 0.81662 0.55414 0.24226
 H1678 H 0.81666 0.54818 0.19893
 H1679 H 0.81413 0.59877 0.23550
 H1680 H 0.76879 0.59012 0.19306
 H1681 H 0.77135 0.54565 0.19954
 H1682 H 0.76934 0.59718 0.23541
 C1683 C 0.77504 1.05945 0.70866
 C1684 C 0.77803 1.08388 0.70886
 C1685 C 0.80227 1.08071 0.70673
 C1686 C 0.79951 1.05646 0.70635
 C1687 C 0.80484 1.08011 0.73028
 C1688 C 0.78043 1.08314 0.73256
 C1689 C 0.77752 1.05869 0.73229
 C1690 C 0.80188 1.05567 0.73016
 H1691 H 0.76269 1.05087 0.69979
 H1692 H 0.76828 1.09561 0.70001
 H1693 H 0.80751 1.04559 0.69542
 H1694 H 0.81718 1.08871 0.73915
 H1695 H 0.77317 1.09501 0.74295
 H1696 H 0.81171 1.04403 0.73903
 C1697 C 0.72234 0.58634 0.28412
 C1698 C 0.69789 0.58321 0.28538
 C1699 C 0.69913 0.58510 0.30892
 C1700 C 0.72342 0.58837 0.30780
 C1701 C 0.70214 0.56094 0.31135
 C1702 C 0.70110 0.55887 0.28757
 C1703 C 0.72551 0.56200 0.28645
 C1704 C 0.72668 0.56401 0.31005
 H1705 H 0.73003 0.59768 0.27317
 H1706 H 0.68599 0.59118 0.27519
 H1707 H 0.73251 0.60064 0.31621
 H1708 H 0.69365 0.55060 0.32267
 H1709 H 0.69189 0.54669 0.27914
 H1710 H 0.73862 0.55603 0.32018
 C1711 C 0.72354 1.08485 0.78960
 C1712 C 0.69892 1.08619 0.78840
 C1713 C 0.69781 1.08391 0.81198
 C1714 C 0.72229 1.08274 0.81335
 C1715 C 0.69634 1.05961 0.81050
 C1716 C 0.69765 1.06168 0.78668
 C1717 C 0.72221 1.06034 0.78796
 C1718 C 0.72109 1.05822 0.81165
 H1719 H 0.73437 1.09618 0.78156
 H1720 H 0.68975 1.09780 0.77884
 H1721 H 0.73248 1.09149 0.82435
 H1722 H 0.68501 1.04932 0.81922
 H1723 H 0.68752 1.05293 0.77563
 H1724 H 0.73031 1.04668 0.82123
 C1725 C 0.19973 0.56235 0.77326
 C1726 C 0.19808 0.55933 0.79697
 C1727 C 0.20059 0.58344 0.79948
 C1728 C 0.20206 0.58667 0.77601
 C1729 C 0.22498 0.58110 0.80100
 C1730 C 0.22271 0.55681 0.79830
 C1731 C 0.22418 0.55989 0.77472
 C1732 C 0.22659 0.58420 0.77738
 H1733 H 0.18936 0.55455 0.76175
 H1734 H 0.18621 0.54921 0.80519
 H1735 H 0.19345 0.59910 0.76693
 H1736 H 0.23545 0.58887 0.81244
 H1737 H 0.23131 0.54447 0.80750
 H1738 H 0.23804 0.59532 0.76990
 C1739 C 0.19668 1.06474 0.27198
 C1740 C 0.19489 1.06038 0.29550
 C1741 C 0.19764 1.08426 0.29932
 C1742 C 0.19926 1.08882 0.27605
 C1743 C 0.22200 1.08158 0.30082
 C1744 C 0.21949 1.05752 0.29680
 C1745 C 0.22110 1.06193 0.27341
 C1746 C 0.22376 1.08600 0.27738
 H1747 H 0.18628 1.05775 0.26002
 H1748 H 0.18288 1.04994 0.30312
 H1749 H 0.19085 1.10184 0.26761
 H1750 H 0.23246 1.08857 0.31274
 H1751 H 0.22791 1.04460 0.30537
 H1752 H 0.23539 1.09736 0.27054
 C1753 C 0.72839 0.41278 0.72272
 C1754 C 0.70372 0.41191 0.72330
 C1755 C 0.70333 0.41394 0.69969
 C1756 C 0.72786 0.41466 0.69894
 C1757 C 0.70217 0.43829 0.70092
 C1758 C 0.70274 0.43646 0.72476
 C1759 C 0.72734 0.43733 0.72408
 C1760 C 0.72694 0.43920 0.70036
 H1761 H 0.73883 0.40137 0.73119
 H1762 H 0.69408 0.40056 0.73268
 H1763 H 0.73818 0.40558 0.68826
 H1764 H 0.69124 0.44868 0.69179
 H1765 H 0.69241 0.44551 0.73546
 H1766 H 0.73659 0.45047 0.69090
 C1767 C 0.69733 -0.06054 0.23306
 C1768 C 0.69734 -0.05659 0.20940
 C1769 C 0.69974 -0.08062 0.20616
 C1770 C 0.69955 -0.08478 0.22954
 C1771 C 0.72421 -0.07872 0.20623
 C1772 C 0.72203 -0.05453 0.20967
 C1773 C 0.72186 -0.05854 0.23317
 C1774 C 0.72416 -0.08275 0.22977
 H1775 H 0.68630 -0.05300 0.24420
 H1776 H 0.68619 -0.04593 0.20085
 H1777 H 0.69020 -0.09737 0.23760
 H1778 H 0.73537 -0.08622 0.19518
 H1779 H 0.73139 -0.04203 0.20147
 H1780 H 0.73492 -0.09439 0.23753
 C1781 C 0.22773 0.41495 0.21688
 C1782 C 0.20309 0.41349 0.21774
 C1783 C 0.20237 0.41579 0.19415
 C1784 C 0.22687 0.41711 0.19315
 C1785 C 0.20064 0.44008 0.19565
 C1786 C 0.20155 0.43801 0.21949
 C1787 C 0.22611 0.43943 0.21852
 C1788 C 0.22537 0.44157 0.19483
 H1789 H 0.23857 0.40369 0.22506
 H1790 H 0.19382 0.40180 0.22707
 H1791 H 0.23738 0.40846 0.18230
 H1792 H 0.18936 0.45030 0.18676
 H1793 H 0.19117 0.44669 0.23042
 H1794 H 0.23464 0.45317 0.18538
 C1795 C 0.21962 -0.06088 0.69389
 C1796 C 0.22125 -0.08534 0.69213
 C1797 C 0.19678 -0.08681 0.69332
 C1798 C 0.19491 -0.06253 0.69489
 C1799 C 0.19770 -0.08916 0.71690
 C1800 C 0.22232 -0.08754 0.71586
 C1801 C 0.22055 -0.06307 0.71757
 C1802 C 0.19602 -0.06466 0.71870
 H1803 H 0.22875 -0.04921 0.68439
 H1804 H 0.23168 -0.09393 0.68117
 H1805 H 0.18350 -0.05236 0.68611
 H1806 H 0.18858 -0.10094 0.72627
 H1807 H 0.23330 -0.09874 0.72393
 H1808 H 0.18566 -0.05607 0.72973
 C1809 C 0.31080 0.27453 0.43959
 C1810 C 0.30929 0.27840 0.41601
 C1811 C 0.30994 0.30251 0.41954
 C1812 C 0.31164 0.29891 0.44293
 C1813 C 0.28544 0.30338 0.42090
 C1814 C 0.28467 0.27913 0.41748
 C1815 C 0.28624 0.27535 0.44104
 C1816 C 0.28689 0.29957 0.44446
 H1817 H 0.32120 0.26254 0.44734
 H1818 H 0.31860 0.26978 0.40418
 H1819 H 0.32286 0.30723 0.45329
 H1820 H 0.27493 0.31529 0.41318
 H1821 H 0.27392 0.27169 0.40609
 H1822 H 0.27756 0.30829 0.45621
 C1823 C 0.27353 0.80716 -0.06045
 C1824 C 0.29828 0.80697 -0.05892
 C1825 C 0.29967 0.80628 -0.08252
 C1826 C 0.27520 0.80668 -0.08428
 C1827 C 0.29968 0.78182 -0.08193
 C1828 C 0.29811 0.78228 -0.05819
 C1829 C 0.27354 0.78264 -0.05981
 C1830 C 0.27509 0.78210 -0.08358
 H1831 H 0.26265 0.81754 -0.05154
 H1832 H 0.30800 0.81732 -0.04889
 H1833 H 0.26587 0.81684 -0.09515
 H1834 H 0.31041 0.77123 -0.09078
 H1835 H 0.30756 0.77212 -0.04741
 H1836 H 0.26617 0.77224 -0.09469
 C1837 C 0.77807 0.30573 -0.05496
 C1838 C 0.80278 0.30578 -0.05286
 C1839 C 0.80474 0.30440 -0.07640
 C1840 C 0.78033 0.30455 -0.07870
 C1841 C 0.80492 0.27995 -0.07509
 C1842 C 0.80275 0.28110 -0.05141
 C1843 C 0.77823 0.28122 -0.05361
 C1844 C 0.78038 0.28000 -0.07732
 H1845 H 0.76691 0.31630 -0.04659
 H1846 H 0.81215 0.31652 -0.04292
 H1847 H 0.77118 0.31431 -0.09004
 H1848 H 0.81593 0.26915 -0.08337
 H1849 H 0.81200 0.27133 -0.04015
 H1850 H 0.77188 0.26979 -0.08842
 C1851 C 0.77825 0.80119 0.44724
 C1852 C 0.80298 0.80103 0.44893
 C1853 C 0.80453 0.80063 0.42532
 C1854 C 0.78008 0.80101 0.42342
 C1855 C 0.80458 0.77617 0.42564
 C1856 C 0.80284 0.77632 0.44939
 C1857 C 0.77828 0.77667 0.44760
 C1858 C 0.78001 0.77643 0.42382
 H1859 H 0.76728 0.81144 0.45620
 H1860 H 0.81261 0.81128 0.45914
 H1861 H 0.77079 0.81128 0.41261
 H1862 H 0.81539 0.76568 0.41676
 H1863 H 0.81222 0.76604 0.46011
 H1864 H 0.77124 0.76671 0.41250
 C1865 C 0.72630 0.29890 0.56145
 C1866 C 0.70210 0.30251 0.55764
 C1867 C 0.69806 0.29993 0.58088
 C1868 C 0.72202 0.29650 0.58485
 C1869 C 0.69472 0.27586 0.57858
 C1870 C 0.69898 0.27817 0.55515
 C1871 C 0.72306 0.27477 0.55903
 C1872 C 0.71884 0.27231 0.58244
 H1873 H 0.73939 0.30837 0.55434
 H1874 H 0.69507 0.31508 0.54754
 H1875 H 0.73146 0.30411 0.59719
 H1876 H 0.68166 0.26637 0.58570
 H1877 H 0.68948 0.27051 0.54289
 H1878 H 0.72503 0.26023 0.59355
 C1879 C 0.72572 0.80771 1.05767
 C1880 C 0.70095 0.80683 1.05867
 C1881 C 0.70213 0.80794 1.08227
 C1882 C 0.72665 0.80901 1.08142
 C1883 C 0.70295 0.78356 1.08407
 C1884 C 0.70199 0.78218 1.06026
 C1885 C 0.72658 0.78323 1.05936
 C1886 C 0.72758 0.78451 1.08314
 H1887 H 0.73521 0.81768 1.04679
 H1888 H 0.68985 0.81616 1.04872
 H1889 H 0.73698 0.82003 1.09013
 H1890 H 0.69347 0.77368 1.09504
 H1891 H 0.69187 0.77103 1.05147
 H1892 H 0.73811 0.77600 1.09426
 C1893 C 0.21929 0.29529 1.05136
 C1894 C 0.19456 0.29535 1.05315
 C1895 C 0.19663 0.29732 1.07662
 C1896 C 0.22113 0.29745 1.07498
 C1897 C 0.19661 0.27300 1.07930
 C1898 C 0.19475 0.27074 1.05561
 C1899 C 0.21931 0.27086 1.05392
 C1900 C 0.22123 0.27300 1.07756
 H1901 H 0.22873 0.30449 1.03983
 H1902 H 0.18348 0.30473 1.04322
 H1903 H 0.23218 0.30841 1.08292
 H1904 H 0.18716 0.26393 1.09093
 H1905 H 0.18392 0.25963 1.04757
 H1906 H 0.23186 0.26446 1.08857
 C1907 C 0.21767 0.79616 0.55175
 C1908 C 0.19290 0.79554 0.55247
 C1909 C 0.19382 0.79658 0.57608
 C1910 C 0.21836 0.79739 0.57551
 C1911 C 0.19435 0.77219 0.57784
 C1912 C 0.19363 0.77088 0.55402
 C1913 C 0.21823 0.77167 0.55337
 C1914 C 0.21901 0.77286 0.57716
 H1915 H 0.22737 0.80605 0.54097
 H1916 H 0.18202 0.80502 0.54243
 H1917 H 0.22862 0.80831 0.58442
 H1918 H 0.18465 0.76239 0.58870
 H1919 H 0.18348 0.75986 0.54510
 H1920 H 0.22937 0.76412 0.58827
 C1921 C 0.27865 0.69258 0.54968
 C1922 C 0.30330 0.69512 0.55037
 C1923 C 0.30258 0.69240 0.57390
 C1924 C 0.27821 0.68967 0.57340
 C1925 C 0.30010 0.71655 0.57653
 C1926 C 0.30063 0.71949 0.55282
 C1927 C 0.27618 0.71682 0.55220
 C1928 C 0.27559 0.71395 0.57592
 H1929 H 0.26970 0.68272 0.53857
 H1930 H 0.31486 0.68721 0.53997
 H1931 H 0.26899 0.67732 0.58196
 H1932 H 0.30898 0.72640 0.58769
 H1933 H 0.30983 0.73187 0.54429
 H1934 H 0.26463 0.72108 0.58736
 C1935 C 0.27930 0.19181 1.05285
 C1936 C 0.30397 0.19388 1.05135
 C1937 C 0.30524 0.19397 1.07498
 C1938 C 0.28087 0.19169 1.07668
 C1939 C 0.30328 0.21835 1.07506
 C1940 C 0.30180 0.21849 1.05128
 C1941 C 0.27734 0.21626 1.05288
 C1942 C 0.27880 0.21618 1.07669
 H1943 H 0.26931 0.18091 1.04364
 H1944 H 0.31451 0.18458 1.04104
 H1945 H 0.27233 0.18057 1.08724
 H1946 H 0.31310 0.22946 1.08421
 H1947 H 0.31042 0.22964 1.04079
 H1948 H 0.26913 0.22487 1.08818
 C1949 C 0.80650 0.72663 1.06039
 C1950 C 0.80459 0.72319 1.08401
 C1951 C 0.80536 0.69902 1.08093
 C1952 C 0.80748 0.70217 1.05750
 C1953 C 0.78090 0.69818 1.07921
 C1954 C 0.78001 0.72248 1.08222
 C1955 C 0.78198 0.72584 1.05862
 C1956 C 0.78276 0.70155 1.05563
 H1957 H 0.81700 0.73845 1.05259
 H1958 H 0.81367 0.73202 1.09582
 H1959 H 0.81892 0.69364 1.04746
 H1960 H 0.77022 0.68646 1.08694
 H1961 H 0.76903 0.73007 1.09337
 H1962 H 0.77366 0.69262 1.04391
 C1963 C 0.80235 0.21873 0.56234
 C1964 C 0.80027 0.21555 0.58592
 C1965 C 0.80225 0.19138 0.58314
 C1966 C 0.80447 0.19434 0.55972
 C1967 C 0.77788 0.18935 0.58124
 C1968 C 0.77579 0.21369 0.58389
 C1969 C 0.77792 0.21683 0.56028
 C1970 C 0.77984 0.19255 0.55760
 H1971 H 0.81243 0.23091 0.55451
 H1972 H 0.80872 0.22503 0.59769
 H1973 H 0.81641 0.18623 0.54989
 H1974 H 0.76785 0.17717 0.58912
 H1975 H 0.76433 0.22102 0.59475
 H1976 H 0.77129 0.18307 0.54590
 C1977 C 0.72210 0.69802 0.44413
 C1978 C 0.69771 0.69580 0.44775
 C1979 C 0.69396 0.69927 0.42457
 C1980 C 0.71810 0.70133 0.42076
 C1981 C 0.69198 0.72342 0.42749
 C1982 C 0.69595 0.72020 0.45086
 C1983 C 0.72021 0.72222 0.44715
 C1984 C 0.71627 0.72559 0.42379
 H1985 H 0.73459 0.68759 0.45103
 H1986 H 0.68989 0.68342 0.45751
 H1987 H 0.72714 0.69348 0.40824
 H1988 H 0.67953 0.73392 0.42061
 H1989 H 0.68681 0.72807 0.46330
 H1990 H 0.72320 0.73761 0.41305
 C1991 C 0.69628 0.22526 -0.05123
 C1992 C 0.69462 0.22577 -0.07501
 C1993 C 0.69582 0.20134 -0.07508
 C1994 C 0.69728 0.20057 -0.05147
 C1995 C 0.72026 0.20213 -0.07693
 C1996 C 0.71920 0.22668 -0.07676
 C1997 C 0.72083 0.22607 -0.05297
 C1998 C 0.72199 0.20156 -0.05312
 H1999 H 0.68638 0.23489 -0.04063
 H2000 H 0.68334 0.23585 -0.08406
 H2001 H 0.68811 0.18968 -0.04117
 H2002 H 0.73008 0.19251 -0.08762
 H2003 H 0.72757 0.23700 -0.08817
 H2004 H 0.73336 0.19163 -0.04403
 C2005 C 0.22127 0.70135 -0.06000
 C2006 C 0.19682 0.69822 -0.05758
 C2007 C 0.19444 0.69968 -0.08111
 C2008 C 0.21867 0.70263 -0.08368
 C2009 C 0.19118 0.72388 -0.08016
 C2010 C 0.19377 0.72271 -0.05642
 C2011 C 0.21810 0.72563 -0.05893
 C2012 C 0.21553 0.72695 -0.08263
 H2013 H 0.23375 0.69208 -0.05166
 H2014 H 0.18898 0.68625 -0.04738
 H2015 H 0.22901 0.69440 -0.09497
 H2016 H 0.17870 0.73310 -0.08855
 H2017 H 0.18354 0.73108 -0.04514
 H2018 H 0.22260 0.73832 -0.09394
 C2019 C 0.23016 0.19549 0.43704
 C2020 C 0.20562 0.19443 0.44015
 C2021 C 0.20256 0.19763 0.41684
 C2022 C 0.22685 0.19853 0.41354
 C2023 C 0.20160 0.22189 0.41931
 C2024 C 0.20487 0.21893 0.44280
 C2025 C 0.22928 0.21981 0.43962
 C2026 C 0.22604 0.22291 0.41612
 H2027 H 0.24202 0.18466 0.44441
 H2028 H 0.19703 0.18259 0.44993
 H2029 H 0.23580 0.19005 0.40136
 H2030 H 0.18979 0.23279 0.41196
 H2031 H 0.19581 0.22744 0.45489
 H2032 H 0.23377 0.23439 0.40535
 C2033 C 0.27551 0.44360 0.69588
 C2034 C 0.30020 0.44153 0.69698
 C2035 C 0.29808 0.41731 0.69505
 C2036 C 0.27363 0.41920 0.69376
 C2037 C 0.29694 0.41463 0.71859
 C2038 C 0.29888 0.43906 0.72076
 C2039 C 0.27437 0.44106 0.71952
 C2040 C 0.27236 0.41665 0.71745
 H2041 H 0.26659 0.45556 0.68651
 H2042 H 0.31179 0.45165 0.68840
 H2043 H 0.26318 0.41097 0.68262
 H2044 H 0.30586 0.40258 0.72785
 H2045 H 0.30924 0.44731 0.73196
 H2046 H 0.26121 0.40547 0.72528
 C2047 C 0.27361 0.94821 0.19075
 C2048 C 0.29830 0.94657 0.19247
 C2049 C 0.29670 0.92234 0.19025
 C2050 C 0.27226 0.92380 0.18834
 C2051 C 0.29493 0.91939 0.21373
 C2052 C 0.29635 0.94382 0.21618
 C2053 C 0.27185 0.94539 0.21433
 C2054 C 0.27037 0.92097 0.21196
 H2055 H 0.26472 0.96010 0.18125
 H2056 H 0.30995 0.95699 0.18430
 H2057 H 0.26228 0.91551 0.17685
 H2058 H 0.30380 0.90741 0.22313
 H2059 H 0.30624 0.95214 0.22774
 H2060 H 0.25922 0.90950 0.21936
 C2061 C 0.77911 0.44803 0.20892
 C2062 C 0.80378 0.44557 0.20852
 C2063 C 0.80110 0.42151 0.20569
 C2064 C 0.77666 0.42381 0.20589
 C2065 C 0.80136 0.41777 0.22914
 C2066 C 0.80386 0.44203 0.23223
 C2067 C 0.77936 0.44443 0.23248
 C2068 C 0.77679 0.42019 0.22948
 H2069 H 0.76985 0.46053 0.20058
 H2070 H 0.81500 0.45590 0.19972
 H2071 H 0.76539 0.41627 0.19502
 H2072 H 0.81061 0.40517 0.23735
 H2073 H 0.81503 0.44960 0.24317
 H2074 H 0.76594 0.40884 0.23749
 C2075 C 0.79344 0.93976 0.72964
 C2076 C 0.79123 0.91539 0.72724
 C2077 C 0.79205 0.91832 0.70371
 C2078 C 0.79444 0.94249 0.70587
 C2079 C 0.76761 0.92046 0.70278
 C2080 C 0.76666 0.91764 0.72646
 C2081 C 0.76893 0.94202 0.72878
 C2082 C 0.76975 0.94482 0.70514
 H2083 H 0.80406 0.94778 0.74078
 H2084 H 0.80016 0.90315 0.73625
 H2085 H 0.80600 0.95260 0.69725
 H2086 H 0.75691 0.91246 0.69169
 H2087 H 0.75556 0.90643 0.73430
 H2088 H 0.76081 0.95697 0.69602
 C2089 C 0.69578 0.55098 0.72349
 C2090 C 0.69257 0.57539 0.72377
 C2091 C 0.69481 0.57613 0.70019
 C2092 C 0.69783 0.55190 0.69964
 C2093 C 0.71904 0.57943 0.70199
 C2094 C 0.71695 0.57856 0.72571
 C2095 C 0.72012 0.55414 0.72529
 C2096 C 0.72230 0.55501 0.70163
 H2097 H 0.68618 0.53925 0.73245
 H2098 H 0.68027 0.58386 0.73290
 H2099 H 0.68980 0.54104 0.68877
 H2100 H 0.72855 0.59126 0.69304
 H2101 H 0.72420 0.59046 0.73604
 H2102 H 0.73463 0.54655 0.69254
 C2103 C 0.69668 0.05987 0.23290
 C2104 C 0.69867 0.08421 0.22935
 C2105 C 0.69898 0.08069 0.20597
 C2106 C 0.69681 0.05656 0.20926
 C2107 C 0.72346 0.07891 0.20612
 C2108 C 0.72329 0.08231 0.22966
 C2109 C 0.72123 0.05799 0.23311
 C2110 C 0.72153 0.05462 0.20962
 H2111 H 0.68569 0.05196 0.24403
 H2112 H 0.68916 0.09653 0.23735
 H2113 H 0.68580 0.04607 0.20068
 H2114 H 0.73457 0.08678 0.19508
 H2115 H 0.73391 0.09378 0.23743
 H2116 H 0.73104 0.04238 0.20149
 C2117 C 0.22214 0.55450 0.19164
 C2118 C 0.19739 0.55387 0.19286
 C2119 C 0.19686 0.57824 0.19102
 C2120 C 0.22135 0.57905 0.18960
 C2121 C 0.19783 0.58025 0.21457
 C2122 C 0.19856 0.55570 0.21665
 C2123 C 0.22313 0.55638 0.21528
 C2124 C 0.22247 0.58094 0.21329
 H2125 H 0.23225 0.54384 0.18221
 H2126 H 0.18692 0.54284 0.18431
 H2127 H 0.23070 0.58876 0.17840
 H2128 H 0.18777 0.59095 0.22400
 H2129 H 0.18920 0.54603 0.22789
 H2130 H 0.23230 0.59303 0.22114
 C2131 C 0.19193 0.05296 0.71475
 C2132 C 0.19104 0.07752 0.71277
 C2133 C 0.19157 0.07567 0.68919
 C2134 C 0.19227 0.05130 0.69091
 C2135 C 0.21609 0.07675 0.68922
 C2136 C 0.21570 0.07848 0.71293
 C2137 C 0.21653 0.05392 0.71480
 C2138 C 0.21704 0.05219 0.69113
 H2139 H 0.18200 0.04313 0.72537
 H2140 H 0.18028 0.08805 0.72167
 H2141 H 0.18249 0.04022 0.68169
 H2142 H 0.22603 0.08663 0.67864
 H2143 H 0.22484 0.09062 0.72144
 H2144 H 0.22785 0.04171 0.68225
 C2145 C 0.27710 0.58267 0.27198
 C2146 C 0.27771 0.57983 0.29565
 C2147 C 0.30216 0.58202 0.29501
 C2148 C 0.30167 0.58497 0.27148
 C2149 C 0.30476 0.55785 0.29287
 C2150 C 0.28008 0.55551 0.29332
 C2151 C 0.27957 0.55833 0.26968
 C2152 C 0.30408 0.56058 0.26907
 H2153 H 0.26601 0.59384 0.26402
 H2154 H 0.26671 0.58774 0.30658
 H2155 H 0.31066 0.59723 0.26258
 H2156 H 0.31626 0.54776 0.30163
 H2157 H 0.27109 0.54333 0.30234
 H2158 H 0.31489 0.55259 0.25802
 C2159 C 0.27259 0.05386 0.79386
 C2160 C 0.29731 0.05558 0.79318
 C2161 C 0.29535 0.07984 0.79486
 C2162 C 0.27087 0.07830 0.79573
 C2163 C 0.29474 0.08233 0.77129
 C2164 C 0.29652 0.05785 0.76936
 C2165 C 0.27197 0.05619 0.77018
 C2166 C 0.27012 0.08065 0.77200
 H2167 H 0.26337 0.04211 0.80317
 H2168 H 0.30863 0.04539 0.80205
 H2169 H 0.26024 0.08677 0.80660
 H2170 H 0.30397 0.09418 0.76210
 H2171 H 0.30705 0.04935 0.75842
 H2172 H 0.25923 0.09187 0.76385
 C2173 C 0.77555 0.55373 0.80492
 C2174 C 0.80027 0.55565 0.80428
 C2175 C 0.79813 0.57991 0.80593
 C2176 C 0.77366 0.57817 0.80677
 C2177 C 0.79752 0.58234 0.78235
 C2178 C 0.79948 0.55787 0.78046
 C2179 C 0.77494 0.55604 0.78123
 C2180 C 0.77293 0.58049 0.78304
 H2181 H 0.76640 0.54193 0.81423
 H2182 H 0.81165 0.54554 0.81317
 H2183 H 0.76295 0.58658 0.81762
 H2184 H 0.80666 0.59423 0.77313
 H2185 H 0.81009 0.54944 0.76953
 H2186 H 0.76201 0.59172 0.77492
 C2187 C 0.77723 0.08224 0.28914
 C2188 C 0.77778 0.08158 0.31294
 C2189 C 0.80228 0.08015 0.31213
 C2190 C 0.80187 0.08094 0.28846
 C2191 C 0.80132 0.05575 0.31216
 C2192 C 0.77656 0.05699 0.31278
 C2193 C 0.77614 0.05764 0.28903
 C2194 C 0.80072 0.05635 0.28826
 H2195 H 0.76781 0.09410 0.28014
 H2196 H 0.76833 0.09207 0.32315
 H2197 H 0.81236 0.09089 0.27847
 H2198 H 0.81139 0.04496 0.32176
 H2199 H 0.76604 0.04709 0.32279
 H2200 H 0.81015 0.04589 0.27801
 C2201 C 0.70002 0.44868 0.28943
 C2202 C 0.69658 0.42438 0.28807
 C2203 C 0.69779 0.42263 0.31168
 C2204 C 0.70102 0.44676 0.31329
 C2205 C 0.72205 0.41901 0.31066
 C2206 C 0.72098 0.42086 0.28693
 C2207 C 0.72439 0.44517 0.28841
 C2208 C 0.72554 0.44333 0.31209
 H2209 H 0.69094 0.46094 0.28058
 H2210 H 0.68462 0.41655 0.27811
 H2211 H 0.69263 0.45730 0.32426
 H2212 H 0.73104 0.40667 0.31949
 H2213 H 0.72850 0.40926 0.27643
 H2214 H 0.73758 0.45119 0.32194
 C2215 C 0.71578 0.94205 0.80817
 C2216 C 0.69134 0.94552 0.81020
 C2217 C 0.68803 0.92138 0.80898
 C2218 C 0.71222 0.91772 0.80713
 C2219 C 0.68590 0.92286 0.78541
 C2220 C 0.68942 0.94718 0.78638
 C2221 C 0.71373 0.94364 0.78453
 C2222 C 0.71025 0.91931 0.78344
 H2223 H 0.72818 0.95002 0.81751
 H2224 H 0.68340 0.95620 0.82135
 H2225 H 0.72154 0.90548 0.81577
 H2226 H 0.67355 0.91490 0.77601
 H2227 H 0.68002 0.95934 0.77772
 H2228 H 0.71736 0.90757 0.77281
 C2229 C 0.21932 0.44584 0.79893
 C2230 C 0.19453 0.44569 0.79883
 C2231 C 0.19500 0.42139 0.80147
 C2232 C 0.21954 0.42138 0.80177
 C2233 C 0.19495 0.41856 0.77799
 C2234 C 0.19468 0.44307 0.77509
 C2235 C 0.21929 0.44316 0.77535
 C2236 C 0.21963 0.41868 0.77815
 H2237 H 0.22946 0.45712 0.80755
 H2238 H 0.18408 0.45669 0.80751
 H2239 H 0.22981 0.41237 0.81279
 H2240 H 0.18482 0.40721 0.76946
 H2241 H 0.18448 0.45206 0.76401
 H2242 H 0.22960 0.40666 0.77024
 C2243 C 0.21819 0.92103 0.27293
 C2244 C 0.21857 0.92365 0.29655
 C2245 C 0.19403 0.92265 0.29683
 C2246 C 0.19353 0.91992 0.27335
 C2247 C 0.19253 0.94693 0.29431
 C2248 C 0.21729 0.94808 0.29384
 C2249 C 0.21682 0.94549 0.27025
 C2250 C 0.19223 0.94443 0.27055
 H2251 H 0.22843 0.90943 0.26478
 H2252 H 0.22957 0.91509 0.30723
 H2253 H 0.18365 0.90821 0.26501
 H2254 H 0.18186 0.95748 0.30328
 H2255 H 0.22718 0.95970 0.30230
 H2256 H 0.18142 0.95305 0.25973
 C2257 C 0.44374 0.30072 0.71770
 C2258 C 0.44244 0.29906 0.69389
 C2259 C 0.41816 0.30227 0.69514
 C2260 C 0.41928 0.30414 0.71870
 C2261 C 0.41466 0.27813 0.69706
 C2262 C 0.43914 0.27468 0.69599
 C2263 C 0.44038 0.27647 0.71961
 C2264 C 0.41591 0.27985 0.72075
 H2265 H 0.45575 0.31005 0.72630
 H2266 H 0.45325 0.30714 0.68271
 H2267 H 0.41105 0.31632 0.72807
 H2268 H 0.40256 0.26892 0.68847
 H2269 H 0.44737 0.26246 0.68666
 H2270 H 0.40414 0.27257 0.73151
 C2271 C 0.44326 0.80675 0.21724
 C2272 C 0.44090 0.80359 0.19366
 C2273 C 0.41666 0.80676 0.19575
 C2274 C 0.41884 0.81011 0.21906
 C2275 C 0.41342 0.78275 0.19922
 C2276 C 0.43785 0.77935 0.19731
 C2277 C 0.44015 0.78261 0.22069
 C2278 C 0.41573 0.78595 0.22267
 H2279 H 0.45557 0.81666 0.22476
 H2280 H 0.45114 0.81100 0.18159
 H2281 H 0.41094 0.82283 0.22802
 H2282 H 0.40101 0.77294 0.19172
 H2283 H 0.44575 0.76660 0.18839
 H2284 H 0.40451 0.77934 0.23433
 C2285 C 0.94406 0.30198 0.21625
 C2286 C 0.94180 0.30106 0.19247
 C2287 C 0.91761 0.30437 0.19473
 C2288 C 0.91971 0.30549 0.21828
 C2289 C 0.91400 0.28022 0.19607
 C2290 C 0.93840 0.27664 0.19399
 C2291 C 0.94060 0.27771 0.21760
 C2292 C 0.91623 0.28118 0.21976
 H2293 H 0.95648 0.31096 0.22466
 H2294 H 0.95221 0.30941 0.18113
 H2295 H 0.91196 0.31740 0.22833
 H2296 H 0.90149 0.27136 0.18767
 H2297 H 0.94617 0.26467 0.18403
 H2298 H 0.90486 0.27363 0.23073
 C2299 C 0.93433 0.77647 0.70122
 C2300 C 0.90995 0.77997 0.70353
 C2301 C 0.91335 0.80407 0.70105
 C2302 C 0.93753 0.80081 0.69857
 C2303 C 0.91581 0.80634 0.72447
 C2304 C 0.91255 0.78207 0.72708
 C2305 C 0.93691 0.77865 0.72471
 C2306 C 0.94018 0.80288 0.72224
 H2307 H 0.94202 0.76409 0.69168
 H2308 H 0.89737 0.77061 0.69574
 H2309 H 0.94770 0.80870 0.68672
 H2310 H 0.90814 0.81868 0.73407
 H2311 H 0.90140 0.77499 0.73856
 H2312 H 0.95267 0.81233 0.73004
 C2313 C 0.58788 0.27502 0.27873
 C2314 C 0.58958 0.29955 0.27856
 C2315 C 0.58702 0.29931 0.30210
 C2316 C 0.58545 0.27491 0.30243
 C2317 C 0.56267 0.30136 0.30008
 C2318 C 0.56502 0.30143 0.27628
 C2319 C 0.56335 0.27696 0.27656
 C2320 C 0.56093 0.27674 0.30021
 H2321 H 0.59918 0.26450 0.27049
 H2322 H 0.60152 0.30906 0.26976
 H2323 H 0.59388 0.26390 0.31321
 H2324 H 0.55242 0.31232 0.30904
 H2325 H 0.55655 0.31232 0.26541
 H2326 H 0.54907 0.26724 0.30912
 C2327 C 0.58000 0.77322 0.78213
 C2328 C 0.58229 0.79768 0.78060
 C2329 C 0.57788 0.79904 0.80383
 C2330 C 0.57572 0.77473 0.80551
 C2331 C 0.55382 0.80144 0.79989
 C2332 C 0.55803 0.79989 0.77640
 C2333 C 0.55576 0.77551 0.77802
 C2334 C 0.55149 0.77689 0.80137
 H2335 H 0.59163 0.76190 0.77543
 H2336 H 0.59511 0.80635 0.77217
 H2337 H 0.58302 0.76429 0.81753
 H2338 H 0.54317 0.81318 0.80737
 H2339 H 0.55069 0.81021 0.76431
 H2340 H 0.53875 0.76823 0.80993
 C2341 C 0.06181 0.30256 0.77416
 C2342 C 0.05873 0.30330 0.79785
 C2343 C 0.08305 0.30241 0.80060
 C2344 C 0.08635 0.30186 0.77714
 C2345 C 0.08256 0.27798 0.80180
 C2346 C 0.05807 0.27864 0.79888
 C2347 C 0.06118 0.27807 0.77531
 C2348 C 0.08569 0.27726 0.77818
 H2349 H 0.05320 0.31264 0.76269
 H2350 H 0.04774 0.31414 0.80612
 H2351 H 0.09813 0.31152 0.76831
 H2352 H 0.09120 0.26786 0.81323
 H2353 H 0.04639 0.26898 0.80784
 H2354 H 0.09754 0.26681 0.77058
 C2355 C 0.05505 0.77931 0.30286
 C2356 C 0.07949 0.77846 0.30632
 C2357 C 0.08043 0.80278 0.30367
 C2358 C 0.05618 0.80388 0.30041
 C2359 C 0.08417 0.80065 0.28038
 C2360 C 0.08308 0.77619 0.28287
 C2361 C 0.05864 0.77720 0.27946
 C2362 C 0.05972 0.80158 0.27689
 H2363 H 0.04301 0.77042 0.31213
 H2364 H 0.08772 0.76897 0.31850
 H2365 H 0.04521 0.81542 0.30778
 H2366 H 0.09628 0.80952 0.27119
 H2367 H 0.09496 0.76511 0.27622
 H2368 H 0.05153 0.81107 0.26469
 C2369 C 0.55455 0.71875 0.70045
 C2370 C 0.57913 0.71930 0.69845
 C2371 C 0.57961 0.69486 0.69975
 C2372 C 0.55519 0.69409 0.70159
 C2373 C 0.58192 0.69551 0.72330
 C2374 C 0.58129 0.72009 0.72214
 C2375 C 0.55668 0.71942 0.72409
 C2376 C 0.55726 0.69493 0.72538
 H2377 H 0.54325 0.72843 0.69102
 H2378 H 0.58818 0.72943 0.68736
 H2379 H 0.54457 0.68325 0.69297
 H2380 H 0.59332 0.68582 0.73259
 H2381 H 0.59288 0.73048 0.73006
 H2382 H 0.54818 0.68495 0.73658
 C2383 C 0.55935 0.22218 0.19778
 C2384 C 0.58399 0.22068 0.19640
 C2385 C 0.58239 0.19629 0.19709
 C2386 C 0.55793 0.19753 0.19828
 C2387 C 0.58404 0.19616 0.22072
 C2388 C 0.58552 0.22071 0.22017
 C2389 C 0.56087 0.22207 0.22150
 C2390 C 0.55940 0.19759 0.22215
 H2391 H 0.54913 0.23299 0.18835
 H2392 H 0.59422 0.23014 0.18572
 H2393 H 0.54669 0.18785 0.18913
 H2394 H 0.59431 0.18540 0.23016
 H2395 H 0.59778 0.22977 0.22867
 H2396 H 0.54923 0.18810 0.23285
 C2397 C 0.06194 0.69664 0.22615
 C2398 C 0.05931 0.69634 0.20239
 C2399 C 0.08364 0.69810 0.20001
 C2400 C 0.08650 0.69821 0.22351
 C2401 C 0.08220 0.72252 0.19934
 C2402 C 0.05771 0.72097 0.20189
 C2403 C 0.06040 0.72111 0.22550
 C2404 C 0.08492 0.72277 0.22299
 H2405 H 0.05353 0.68603 0.23729
 H2406 H 0.04889 0.68534 0.19374
 H2407 H 0.09849 0.68872 0.23229
 H2408 H 0.09056 0.73328 0.18830
 H2409 H 0.04582 0.73044 0.19296
 H2410 H 0.09629 0.73338 0.23093
 C2411 C 0.08622 0.22508 0.71674
 C2412 C 0.08837 0.20057 0.71799
 C2413 C 0.08448 0.19957 0.69465
 C2414 C 0.08249 0.22392 0.69323
 C2415 C 0.06033 0.19738 0.69812
 C2416 C 0.06401 0.19856 0.72169
 C2417 C 0.06188 0.22297 0.72033
 C2418 C 0.05816 0.22196 0.69688
 H2419 H 0.09766 0.23623 0.72386
 H2420 H 0.10095 0.19166 0.72655
 H2421 H 0.09015 0.23439 0.68147
 H2422 H 0.04978 0.18586 0.69028
 H2423 H 0.05633 0.18816 0.73351
 H2424 H 0.04567 0.23086 0.68819
 C2425 C 0.43903 0.72876 0.30039
 C2426 C 0.41460 0.72521 0.29877
 C2427 C 0.41827 0.70107 0.30056
 C2428 C 0.44249 0.70436 0.30237
 C2429 C 0.42005 0.69943 0.27701
 C2430 C 0.41649 0.72371 0.27508
 C2431 C 0.44089 0.72716 0.27678
 C2432 C 0.44442 0.70291 0.27858
 H2433 H 0.44691 0.74093 0.30997
 H2434 H 0.40219 0.73430 0.30717
 H2435 H 0.45308 0.69623 0.31372
 H2436 H 0.41219 0.68734 0.26730
 H2437 H 0.40492 0.73102 0.26414
 H2438 H 0.45673 0.69369 0.27018
 C2439 C 0.43726 0.22130 0.79820
 C2440 C 0.41267 0.21898 0.79682
 C2441 C 0.41516 0.19469 0.79844
 C2442 C 0.43953 0.19677 0.79999
 C2443 C 0.41655 0.19311 0.77486
 C2444 C 0.41420 0.21756 0.77311
 C2445 C 0.43876 0.21979 0.77456
 C2446 C 0.44111 0.19539 0.77618
 H2447 H 0.44586 0.23299 0.80778
 H2448 H 0.40085 0.22863 0.80541
 H2449 H 0.44984 0.18805 0.81118
 H2450 H 0.40795 0.18147 0.76522
 H2451 H 0.40285 0.22552 0.76237
 H2452 H 0.45285 0.18565 0.76758
 C2453 C 0.91382 0.71910 0.77883
 C2454 C 0.91714 0.69482 0.78122
 C2455 C 0.91583 0.69701 0.80474
 C2456 C 0.91238 0.72115 0.80249
 C2457 C 0.94011 0.70010 0.80607
 C2458 C 0.94160 0.69810 0.78229
 C2459 C 0.93828 0.72236 0.78005
 C2460 C 0.93686 0.72448 0.80364
 H2461 H 0.90214 0.72629 0.76792
 H2462 H 0.90896 0.68256 0.77196
 H2463 H 0.90023 0.73057 0.81090
 H2464 H 0.95084 0.69210 0.81739
 H2465 H 0.95366 0.68857 0.77387
 H2466 H 0.94505 0.73677 0.81284
 C2467 C 0.91654 0.21927 0.27271
 C2468 C 0.91896 0.19490 0.27553
 C2469 C 0.91866 0.19770 0.29901
 C2470 C 0.91610 0.22190 0.29635
 C2471 C 0.94307 0.19981 0.29942
 C2472 C 0.94356 0.19721 0.27568
 C2473 C 0.94116 0.22153 0.27302
 C2474 C 0.94071 0.22423 0.29658
 H2475 H 0.90476 0.22672 0.26207
 H2476 H 0.90990 0.18277 0.26689
 H2477 H 0.90467 0.23198 0.30496
 H2478 H 0.95388 0.19165 0.31056
 H2479 H 0.95489 0.18702 0.26707
 H2480 H 0.94974 0.23638 0.30522
 C2481 C 0.28429 0.29627 0.55134
 C2482 C 0.28186 0.29866 0.57490
 C2483 C 0.30631 0.29891 0.57700
 C2484 C 0.30897 0.29672 0.55360
 C2485 C 0.30676 0.27461 0.57992
 C2486 C 0.28220 0.27424 0.57773
 C2487 C 0.28471 0.27186 0.55415
 C2488 C 0.30923 0.27214 0.55631
 H2489 H 0.27493 0.30519 0.53953
 H2490 H 0.27045 0.30956 0.58253
 H2491 H 0.32009 0.30615 0.54378
 H2492 H 0.31611 0.26580 0.59181
 H2493 H 0.27150 0.26566 0.58864
 H2494 H 0.32046 0.26111 0.54859
 C2495 C 0.30446 0.78058 0.04953
 C2496 C 0.30073 0.80487 0.05190
 C2497 C 0.30445 0.80243 0.07520
 C2498 C 0.30840 0.77843 0.07303
 C2499 C 0.28050 0.79856 0.07886
 C2500 C 0.27657 0.80084 0.05541
 C2501 C 0.28039 0.77676 0.05311
 C2502 C 0.28430 0.77444 0.07658
 H2503 H 0.31434 0.77305 0.03741
 H2504 H 0.30764 0.81752 0.04185
 H2505 H 0.32158 0.76924 0.08037
 H2506 H 0.27063 0.80600 0.09104
 H2507 H 0.26337 0.81005 0.04811
 H2508 H 0.27822 0.76225 0.08762
 C2509 C 0.77577 0.30755 0.05766
 C2510 C 0.77485 0.30930 0.08140
 C2511 C 0.79939 0.30905 0.08211
 C2512 C 0.80056 0.30752 0.05854
 C2513 C 0.79952 0.28469 0.08435
 C2514 C 0.77487 0.28480 0.08355
 C2515 C 0.77589 0.28308 0.05981
 C2516 C 0.80049 0.28289 0.06059
 H2517 H 0.76587 0.31698 0.04665
 H2518 H 0.76416 0.32017 0.08997
 H2519 H 0.81126 0.31704 0.04836
 H2520 H 0.80939 0.27535 0.09545
 H2521 H 0.76469 0.27615 0.09487
 H2522 H 0.81102 0.27192 0.05195
 C2523 C 0.77610 0.79829 0.55948
 C2524 C 0.77486 0.79943 0.58324
 C2525 C 0.79934 0.80080 0.58416
 C2526 C 0.80082 0.79987 0.56056
 C2527 C 0.80109 0.77645 0.58589
 C2528 C 0.77650 0.77495 0.58488
 C2529 C 0.77782 0.77384 0.56110
 C2530 C 0.80238 0.77525 0.56208
 H2531 H 0.76570 0.80730 0.54858
 H2532 H 0.76339 0.80936 0.59196
 H2533 H 0.81093 0.81030 0.55067
 H2534 H 0.81147 0.76753 0.59687
 H2535 H 0.76684 0.76538 0.59592
 H2536 H 0.81369 0.76519 0.55330
 C2537 C 0.30170 0.72294 0.43768
 C2538 C 0.30261 0.69827 0.43917
 C2539 C 0.30105 0.69725 0.41558
 C2540 C 0.30036 0.72164 0.41388
 C2541 C 0.27653 0.69633 0.41679
 C2542 C 0.27785 0.69755 0.44052
 C2543 C 0.27712 0.72204 0.43890
 C2544 C 0.27574 0.72083 0.41515
 H2545 H 0.31201 0.73401 0.44636
 H2546 H 0.31380 0.68883 0.44893
 H2547 H 0.30974 0.73149 0.40280
 H2548 H 0.26594 0.68542 0.40826
 H2549 H 0.26847 0.68761 0.45152
 H2550 H 0.26509 0.72941 0.40418
 C2551 C 0.27493 0.21838 0.91560
 C2552 C 0.29958 0.21863 0.91445
 C2553 C 0.29970 0.19423 0.91607
 C2554 C 0.27516 0.19386 0.91714
 C2555 C 0.30115 0.19512 0.93967
 C2556 C 0.30082 0.21980 0.93827
 C2557 C 0.27623 0.21944 0.93937
 C2558 C 0.27638 0.19494 0.94088
 H2559 H 0.26451 0.22728 0.90467
 H2560 H 0.30923 0.22831 0.90345
 H2561 H 0.26440 0.18323 0.90846
 H2562 H 0.31207 0.18539 0.94945
 H2563 H 0.31134 0.23059 0.94705
 H2564 H 0.26672 0.18516 0.95179
 C2565 C 0.77747 0.72387 0.92188
 C2566 C 0.80203 0.72415 0.91951
 C2567 C 0.80241 0.69989 0.92275
 C2568 C 0.77797 0.69948 0.92504
 C2569 C 0.80510 0.70250 0.94610
 C2570 C 0.80452 0.72704 0.94306
 C2571 C 0.78002 0.72667 0.94541
 C2572 C 0.78042 0.70230 0.94855
 H2573 H 0.76643 0.73194 0.91092
 H2574 H 0.81101 0.73306 0.90743
 H2575 H 0.76690 0.68815 0.91763
 H2576 H 0.81657 0.69352 0.95596
 H2577 H 0.81542 0.73848 0.95054
 H2578 H 0.77142 0.69329 0.96055
 C2579 C 0.81354 0.22284 0.45100
 C2580 C 0.80999 0.19851 0.44885
 C2581 C 0.81347 0.20077 0.42550
 C2582 C 0.81724 0.22480 0.42743
 C2583 C 0.78946 0.20453 0.42207
 C2584 C 0.78577 0.20243 0.44558
 C2585 C 0.78941 0.22654 0.44765
 C2586 C 0.79308 0.22868 0.42412
 H2587 H 0.82347 0.23052 0.46293
 H2588 H 0.81710 0.18595 0.45892
 H2589 H 0.83027 0.23399 0.41989
 H2590 H 0.77954 0.19695 0.41006
 H2591 H 0.77273 0.19324 0.45310
 H2592 H 0.78682 0.24074 0.41302
 C2593 C 0.73071 0.28069 0.42241
 C2594 C 0.70617 0.27897 0.42367
 C2595 C 0.70462 0.30338 0.42287
 C2596 C 0.72904 0.30521 0.42153
 C2597 C 0.70545 0.30434 0.44649
 C2598 C 0.70721 0.27971 0.44743
 C2599 C 0.73174 0.28148 0.44620
 C2600 C 0.73018 0.30596 0.44538
 H2601 H 0.74044 0.27134 0.41146
 H2602 H 0.69633 0.26764 0.41481
 H2603 H 0.73793 0.31583 0.41074
 H2604 H 0.69487 0.31417 0.45627
 H2605 H 0.69821 0.26910 0.45814
 H2606 H 0.74019 0.31703 0.45437
 C2607 C 0.72047 0.78144 0.92234
 C2608 C 0.69598 0.78051 0.92501
 C2609 C 0.69517 0.80496 0.92405
 C2610 C 0.71952 0.80600 0.92130
 C2611 C 0.69750 0.80609 0.94756
 C2612 C 0.69852 0.78141 0.94867
 C2613 C 0.72298 0.78241 0.94603
 C2614 C 0.72214 0.80693 0.94501
 H2615 H 0.72922 0.77172 0.91096
 H2616 H 0.68525 0.76947 0.91680
 H2617 H 0.72806 0.81623 0.90991
 H2618 H 0.68788 0.81635 0.95783
 H2619 H 0.68987 0.77118 0.95998
 H2620 H 0.73303 0.81777 0.95331
 C2621 C 0.22281 0.28116 0.91761
 C2622 C 0.19833 0.27921 0.91543
 C2623 C 0.19616 0.30313 0.91953
 C2624 C 0.22051 0.30525 0.92159
 C2625 C 0.19392 0.29881 0.94276
 C2626 C 0.19627 0.27463 0.93884
 C2627 C 0.22068 0.27665 0.94102
 C2628 C 0.21853 0.30070 0.94501
 H2629 H 0.23440 0.27461 0.90641
 H2630 H 0.18993 0.27044 0.90313
 H2631 H 0.23051 0.31791 0.91443
 H2632 H 0.18190 0.30625 0.95300
 H2633 H 0.18633 0.26192 0.94601
 H2634 H 0.22697 0.30956 0.95722
 C2635 C 0.22274 0.78220 0.41670
 C2636 C 0.19822 0.78078 0.41469
 C2637 C 0.19668 0.80485 0.41816
 C2638 C 0.22109 0.80639 0.42011
 C2639 C 0.19443 0.80123 0.44151
 C2640 C 0.19619 0.77687 0.43823
 C2641 C 0.22067 0.77836 0.44022
 C2642 C 0.21911 0.80254 0.44363
 H2643 H 0.23399 0.77517 0.40546
 H2644 H 0.18952 0.77190 0.40266
 H2645 H 0.23150 0.81856 0.41271
 H2646 H 0.18265 0.80923 0.45160
 H2647 H 0.18599 0.76459 0.44574
 H2648 H 0.22782 0.81151 0.45559
 C2649 C 0.72255 0.71481 0.58382
 C2650 C 0.69800 0.71500 0.58179
 C2651 C 0.69814 0.69054 0.58179
 C2652 C 0.72257 0.69022 0.58393
 C2653 C 0.69992 0.69046 0.55821
 C2654 C 0.69996 0.71515 0.55806
 C2655 C 0.72449 0.71490 0.56006
 C2656 C 0.72464 0.69037 0.56012
 H2657 H 0.73125 0.72438 0.59533
 H2658 H 0.68709 0.72534 0.59071
 H2659 H 0.73179 0.67984 0.59470
 H2660 H 0.69045 0.68031 0.54778
 H2661 H 0.69063 0.72553 0.54738
 H2662 H 0.73574 0.68028 0.55114
 C2663 C 0.72295 0.19949 0.05844
 C2664 C 0.72405 0.19722 0.08217
 C2665 C 0.69951 0.19728 0.08308
 C2666 C 0.69817 0.19934 0.05951
 C2667 C 0.69922 0.22160 0.08516
 C2668 C 0.72387 0.22168 0.08416
 C2669 C 0.72267 0.22391 0.06041
 C2670 C 0.69807 0.22392 0.06140
 H2671 H 0.73284 0.19038 0.04740
 H2672 H 0.73485 0.18622 0.09074
 H2673 H 0.68747 0.18997 0.04949
 H2674 H 0.68935 0.23061 0.09629
 H2675 H 0.73409 0.23018 0.09529
 H2676 H 0.68741 0.23502 0.05278
 C2677 C 0.22442 0.69577 0.05492
 C2678 C 0.22289 0.69632 0.07875
 C2679 C 0.19842 0.69669 0.07714
 C2680 C 0.19967 0.69593 0.05353
 C2681 C 0.19837 0.72115 0.07647
 C2682 C 0.22297 0.72090 0.07799
 C2683 C 0.22438 0.72030 0.05421
 C2684 C 0.19980 0.72062 0.05272
 H2685 H 0.23527 0.68538 0.04597
 H2686 H 0.23230 0.68620 0.08960
 H2687 H 0.18990 0.68552 0.04359
 H2688 H 0.18769 0.73178 0.08533
 H2689 H 0.23192 0.73081 0.08903
 H2690 H 0.19028 0.73073 0.04197
 C2691 C 0.22483 0.21735 0.57620
 C2692 C 0.20044 0.21757 0.57266
 C2693 C 0.20036 0.19314 0.57420
 C2694 C 0.22461 0.19281 0.57783
 C2695 C 0.20370 0.19147 0.55083
 C2696 C 0.20400 0.21613 0.54915
 C2697 C 0.22836 0.21581 0.55267
 C2698 C 0.22823 0.19133 0.55427
 H2699 H 0.23280 0.22767 0.58757
 H2700 H 0.18900 0.22848 0.58024
 H2701 H 0.23299 0.18311 0.58976
 H2702 H 0.19482 0.18070 0.54050
 H2703 H 0.19550 0.22584 0.53729
 H2704 H 0.23978 0.18056 0.54664
   
