data_POSCAR
  _audit_creation_date              2014-09-24
  _audit_creation_method            'ToBaCCo'
  _symmetry_space_group_name_H-M    'P1'
  _symmetry_Int_Tables_number       1
  _symmetry_cell_setting            triclinic
  loop_
  _symmetry_equiv_pos_as_xyz
 x,y,z
_cell_length_a 59.9991
_cell_length_b 60.3734
_cell_length_c 56.2940
_cell_angle_alpha 89.137900
_cell_angle_beta 89.001900
_cell_angle_gamma 88.847800
loop_
  _atom_site_label
  _atom_site_type_symbol
  _atom_site_fract_x
  _atom_site_fract_y
  _atom_site_fract_z
C1 C 0.39113 0.02496 0.28967
 H2 H 0.38069 0.03819 0.28269
 C3 C 0.40341 0.02857 0.31008
 H4 H 0.40171 0.04442 0.31866
 C5 C 0.40524 -0.01184 0.28741
 H6 H 0.40589 -0.02763 0.27876
 C7 C 0.41779 -0.00896 0.30772
 H8 H 0.42778 -0.02272 0.31452
 N9 N 0.39147 0.00468 0.27938
 C10 C 0.37130 -0.01692 0.20973
 H11 H 0.35383 -0.01935 0.21386
 C12 C 0.37986 -0.02241 0.18743
 H13 H 0.36881 -0.02897 0.17436
 C14 C 0.40672 -0.00506 0.22186
 H15 H 0.41699 0.00182 0.23540
 C16 C 0.41603 -0.01029 0.19960
 H17 H 0.43343 -0.00696 0.19621
 Zn18 Zn 0.37043 -0.00168 0.25556
 N19 N 0.38466 -0.00823 0.22631
 C20 C 0.34973 0.03313 0.22954
 N21 N 0.35068 0.02302 0.25125
 C22 C 0.33878 0.03112 0.27009
 C23 C 0.32601 0.05062 0.26776
 C24 C 0.33688 0.05237 0.22628
 C25 C 0.36651 -0.04665 0.26155
 C26 C 0.35694 -0.06716 0.26504
 C27 C 0.32119 -0.04673 0.27474
 C28 C 0.33270 -0.02712 0.27084
 N29 N 0.35464 -0.02749 0.26441
 H30 H 0.35942 0.02668 0.21477
 H31 H 0.33988 0.02285 0.28723
 H32 H 0.31723 0.05661 0.28335
 H33 H 0.33678 0.06025 0.20885
 H34 H 0.38360 -0.04609 0.25529
 H35 H 0.36706 -0.08195 0.26206
 H36 H 0.30361 -0.04595 0.27939
 H37 H 0.32379 -0.01149 0.27237
 C38 C 0.40242 -0.01904 0.18203
 C39 C 0.41641 0.01117 0.31976
 C40 C 0.33291 -0.06938 0.27150
 C41 C 0.32522 0.06182 0.24560
 C42 C 0.09814 0.03589 0.71547
 H43 H 0.09670 0.04684 0.73048
 C44 C 0.08585 0.04038 0.69507
 H45 H 0.07486 0.05482 0.69444
 C46 C 0.11413 0.00361 0.69816
 H47 H 0.12519 -0.01068 0.69943
 C48 C 0.10228 0.00756 0.67735
 H49 H 0.10401 -0.00417 0.66306
 N50 N 0.11161 0.01754 0.71680
 C51 C 0.11484 0.00280 0.79260
 H52 H 0.13266 0.00279 0.79517
 C53 C 0.10050 -0.00230 0.81163
 H54 H 0.10755 -0.00555 0.82890
 C55 C 0.08425 0.00734 0.76680
 H56 H 0.07796 0.01057 0.74921
 C57 C 0.06933 0.00236 0.78530
 H58 H 0.05163 0.00223 0.78184
 Zn59 Zn 0.12704 0.01244 0.74539
 N60 N 0.10654 0.00764 0.77077
 C61 C 0.14280 0.04968 0.77042
 N62 N 0.14458 0.03751 0.75034
 C63 C 0.15867 0.04330 0.73226
 C64 C 0.17193 0.06186 0.73405
 C65 C 0.15581 0.06842 0.77302
 C66 C 0.13491 -0.03294 0.74155
 C67 C 0.14713 -0.05284 0.74186
 C68 C 0.18069 -0.03196 0.74637
 C69 C 0.16777 -0.01247 0.74600
 N70 N 0.14532 -0.01331 0.74354
 H71 H 0.13120 0.04499 0.78441
 H72 H 0.15953 0.03345 0.71637
 H73 H 0.18302 0.06608 0.71933
 H74 H 0.15393 0.07747 0.78933
 H75 H 0.11695 -0.03312 0.74012
 H76 H 0.13793 -0.06794 0.74068
 H77 H 0.19855 -0.03086 0.74853
 H78 H 0.17570 0.00325 0.74818
 C79 C 0.07738 -0.00275 0.80800
 C80 C 0.08788 0.02617 0.67568
 C81 C 0.17049 -0.05261 0.74439
 C82 C 0.17065 0.07486 0.75455
 C83 C 0.61471 0.52282 0.20683
 H84 H 0.61286 0.53542 0.22022
 C85 C 0.60664 0.52683 0.18398
 H86 H 0.59872 0.54266 0.18001
 C87 C 0.62846 0.48734 0.19566
 H88 H 0.63735 0.47215 0.20008
 C89 C 0.62074 0.49067 0.17264
 H90 H 0.62352 0.47782 0.15963
 N91 N 0.62516 0.50324 0.21228
 C92 C 0.62003 0.49270 0.28883
 H93 H 0.63743 0.48967 0.29271
 C94 C 0.60386 0.49011 0.30671
 H95 H 0.60911 0.48570 0.32447
 C96 C 0.59230 0.50234 0.26081
 H97 H 0.58782 0.50662 0.24280
 C98 C 0.57559 0.50014 0.27822
 H99 H 0.55833 0.50308 0.27354
 Zn100 Zn 0.63702 0.49912 0.24300
 N101 N 0.61404 0.49867 0.26641
 C102 C 0.65396 0.53602 0.26716
 N103 N 0.65653 0.52271 0.24800
 C104 C 0.67155 0.52735 0.23039
 C105 C 0.68419 0.54646 0.23120
 C106 C 0.66649 0.55518 0.26889
 C107 C 0.63820 0.45372 0.24524
 C108 C 0.64642 0.43219 0.24783
 C109 C 0.68458 0.44843 0.24993
 C110 C 0.67430 0.46923 0.24744
 N111 N 0.65188 0.47133 0.24510
 H112 H 0.64159 0.53230 0.28073
 H113 H 0.67302 0.51663 0.21519
 H114 H 0.69554 0.55016 0.21654
 H115 H 0.66330 0.56570 0.28397
 H116 H 0.62044 0.45654 0.24348
 H117 H 0.63486 0.41864 0.24798
 H118 H 0.70250 0.44729 0.25176
 H119 H 0.68436 0.48388 0.24752
 C120 C 0.58126 0.49359 0.30137
 C121 C 0.60953 0.51050 0.16659
 C122 C 0.67088 0.42727 0.25054
 C123 C 0.68156 0.56094 0.25042
 C124 C 0.88839 0.52128 0.78702
 H125 H 0.89028 0.53253 0.77201
 C126 C 0.90004 0.52487 0.80789
 H127 H 0.91094 0.53887 0.80819
 C128 C 0.87200 0.48923 0.80387
 H129 H 0.86085 0.47553 0.80247
 C130 C 0.88353 0.49193 0.82488
 H131 H 0.88116 0.47995 0.83920
 N132 N 0.87506 0.50345 0.78522
 C133 C 0.87366 0.48478 0.71083
 H134 H 0.85583 0.48477 0.70824
 C135 C 0.88818 0.47907 0.69218
 H136 H 0.88124 0.47514 0.67520
 C137 C 0.90406 0.49105 0.73603
 H138 H 0.91017 0.49566 0.75315
 C139 C 0.91920 0.48556 0.71782
 H140 H 0.93692 0.48616 0.72103
 Zn141 Zn 0.86068 0.49888 0.75599
 N142 N 0.88176 0.49088 0.73211
 C143 C 0.85174 0.53640 0.72672
 N144 N 0.84595 0.52569 0.74725
 C145 C 0.83073 0.53464 0.76265
 C146 C 0.82045 0.55509 0.75756
 C147 C 0.84197 0.55689 0.72093
 C148 C 0.84943 0.45480 0.76310
 C149 C 0.83582 0.43644 0.76568
 C150 C 0.80381 0.46040 0.75863
 C151 C 0.81809 0.47836 0.75640
 N152 N 0.84043 0.47530 0.75904
 H153 H 0.86429 0.52934 0.71497
 H154 H 0.82683 0.52600 0.77914
 H155 H 0.80883 0.56170 0.77061
 H156 H 0.84704 0.56516 0.70455
 H157 H 0.86732 0.45274 0.76441
 H158 H 0.84388 0.42050 0.76852
 H159 H 0.78605 0.46324 0.75656
 H160 H 0.81129 0.49467 0.75247
 C161 C 0.91133 0.47946 0.69558
 C162 C 0.89807 0.50976 0.82717
 C163 C 0.81250 0.43908 0.76374
 C164 C 0.82608 0.56664 0.73637
 C165 C 0.22873 0.41801 0.98820
 H166 H 0.24308 0.42053 0.97664
 C167 C 0.21010 0.43226 0.98655
 H168 H 0.21023 0.44587 0.97380
 C169 C 0.21073 0.39685 1.01838
 H170 H 0.21069 0.38285 1.03049
 C171 C 0.19186 0.41058 1.01729
 H172 H 0.17796 0.40725 1.02924
 N173 N 0.22877 0.40077 1.00407
 C174 C 0.29720 0.38079 1.01999
 H175 H 0.29507 0.36304 1.01984
 C176 C 0.31795 0.38936 1.02500
 H177 H 0.33177 0.37808 1.02869
 C178 C 0.28181 0.41695 1.01477
 H179 H 0.26764 0.42762 1.01092
 C180 C 0.30237 0.42627 1.01958
 H181 H 0.30356 0.44410 1.01956
 Zn182 Zn 0.25342 0.38060 1.00539
 N183 N 0.27983 0.39455 1.01435
 C184 C 0.27822 0.36743 0.96447
 N185 N 0.25767 0.36799 0.97505
 C186 C 0.23961 0.36014 0.96391
 C187 C 0.24175 0.35152 0.94108
 C188 C 0.28122 0.35860 0.94186
 C189 C 0.24628 0.36514 1.05137
 C190 C 0.24142 0.35010 1.06964
 C191 C 0.24036 0.32110 1.04056
 C192 C 0.24499 0.33684 1.02278
 N193 N 0.24753 0.35842 1.02848
 H194 H 0.29237 0.37396 0.97341
 H195 H 0.22346 0.36074 0.97276
 H196 H 0.22701 0.34516 0.93306
 H197 H 0.29777 0.35838 0.93383
 H198 H 0.24888 0.38236 1.05539
 H199 H 0.24099 0.35623 1.08756
 H200 H 0.23833 0.30398 1.03566
 H201 H 0.24649 0.33180 1.00447
 C202 C 0.32092 0.41231 1.02414
 C203 C 0.19124 0.42837 1.00097
 C204 C 0.23809 0.32765 1.06437
 C205 C 0.26284 0.35086 0.92956
 C206 C 0.77923 0.07420 0.99358
 H207 H 0.76371 0.06563 0.99621
 C208 C 0.79928 0.06204 0.99181
 H209 H 0.79879 0.04412 0.99295
 C210 C 0.79856 0.10786 0.98937
 H211 H 0.79803 0.12577 0.98832
 C212 C 0.81895 0.09649 0.98788
 H213 H 0.83362 0.10631 0.98508
 N214 N 0.77929 0.09668 0.99238
 C215 C 0.71563 0.10234 1.02364
 H216 H 0.72122 0.11432 1.03617
 C217 C 0.69500 0.09246 1.02731
 H218 H 0.68502 0.09672 1.04287
 C219 C 0.72087 0.08353 0.98725
 H220 H 0.73071 0.08085 0.97123
 C221 C 0.70036 0.07321 0.99027
 H222 H 0.69464 0.06267 0.97634
 Zn223 Zn 0.75342 0.11469 0.99613
 N224 N 0.72798 0.09790 1.00373
 C225 C 0.72903 0.14375 0.96660
 N226 N 0.74716 0.12992 0.96735
 C227 C 0.75953 0.12553 0.94746
 C228 C 0.75376 0.13514 0.92566
 C229 C 0.72282 0.15400 0.94525
 C230 C 0.76529 0.12544 1.04206
 C231 C 0.76991 0.13886 1.06126
 C232 C 0.76244 0.17099 1.03633
 C233 C 0.75809 0.15691 1.01757
 N234 N 0.75921 0.13457 1.02087
 H235 H 0.71920 0.14660 0.98260
 H236 H 0.77368 0.11421 0.94833
 H237 H 0.76433 0.13146 0.91044
 H238 H 0.70829 0.16496 0.94511
 H239 H 0.76629 0.10760 1.04408
 H240 H 0.77402 0.13079 1.07790
 H241 H 0.76107 0.18874 1.03338
 H242 H 0.75377 0.16388 1.00045
 C243 C 0.68701 0.07792 1.01041
 C244 C 0.81970 0.07311 0.98952
 C245 C 0.76833 0.16211 1.05865
 C246 C 0.73493 0.14946 0.92423
 C247 C 0.26613 0.57988 0.50287
 H248 H 0.25475 0.57971 0.48818
 C249 C 0.28554 0.56664 0.50231
 H250 H 0.28869 0.55600 0.48729
 C251 C 0.27598 0.59436 0.54005
 H252 H 0.27268 0.60552 0.55449
 C253 C 0.29531 0.58123 0.54037
 H254 H 0.30653 0.58241 0.55515
 N255 N 0.26190 0.59364 0.52141
 C256 C 0.19175 0.61278 0.52925
 H257 H 0.19334 0.63057 0.53001
 C258 C 0.17076 0.60336 0.53135
 H259 H 0.15622 0.61406 0.53377
 C260 C 0.20880 0.57736 0.52444
 H261 H 0.22371 0.56733 0.52160
 C262 C 0.18809 0.56721 0.52640
 H263 H 0.18758 0.54939 0.52530
 Zn264 Zn 0.23751 0.61405 0.51972
 N265 N 0.21016 0.59978 0.52534
 C266 C 0.21878 0.62874 0.47607
 N267 N 0.23775 0.62708 0.48891
 C268 C 0.25750 0.63428 0.47987
 C269 C 0.25865 0.64394 0.45723
 C270 C 0.21910 0.63847 0.45340
 C271 C 0.23843 0.63064 0.56609
 C272 C 0.24371 0.64563 0.58369
 C273 C 0.25234 0.67254 0.55286
 C274 C 0.24708 0.65696 0.53591
 N275 N 0.24097 0.63623 0.54274
 H276 H 0.20332 0.62251 0.48332
 H277 H 0.27240 0.63252 0.49034
 H278 H 0.27461 0.64959 0.45047
 H279 H 0.20369 0.63921 0.44377
 H280 H 0.23308 0.61417 0.57103
 H281 H 0.24164 0.64036 0.60199
 H282 H 0.25772 0.68876 0.54692
 H283 H 0.24851 0.66131 0.51729
 C284 C 0.16862 0.58036 0.52936
 C285 C 0.30061 0.56764 0.52109
 C286 C 0.25147 0.66681 0.57715
 C287 C 0.23927 0.64642 0.44367
 C288 C 0.71179 0.89524 0.47058
 H289 H 0.71643 0.88382 0.45665
 C290 C 0.69068 0.90550 0.47061
 H291 H 0.67930 0.90178 0.45660
 C292 C 0.72033 0.91239 0.50683
 H293 H 0.73180 0.91447 0.52121
 C294 C 0.69945 0.92286 0.50763
 H295 H 0.69498 0.93319 0.52262
 N296 N 0.72600 0.89872 0.48866
 C297 C 0.79804 0.89098 0.49175
 H298 H 0.79931 0.87309 0.49294
 C299 C 0.81731 0.90349 0.49077
 H300 H 0.83330 0.89490 0.49077
 C301 C 0.77538 0.92348 0.48895
 H302 H 0.75900 0.93116 0.48790
 C303 C 0.79426 0.93668 0.48798
 H304 H 0.79225 0.95450 0.48637
 Zn305 Zn 0.75281 0.88235 0.49230
 N306 N 0.77762 0.90108 0.49114
 C307 C 0.76056 0.86907 0.44556
 N308 N 0.75707 0.86134 0.46807
 C309 C 0.75839 0.83932 0.47335
 C310 C 0.76336 0.82408 0.45555
 C311 C 0.76571 0.85443 0.42720
 C312 C 0.76549 0.87212 0.53951
 C313 C 0.76259 0.86301 0.56222
 C314 C 0.72895 0.84586 0.54919
 C315 C 0.73253 0.85535 0.52671
 N316 N 0.75058 0.86812 0.52229
 H317 H 0.75963 0.88671 0.44195
 H318 H 0.75604 0.83352 0.49143
 H319 H 0.76440 0.80661 0.46023
 H320 H 0.76803 0.86136 0.40957
 H321 H 0.77941 0.88279 0.53586
 H322 H 0.77463 0.86660 0.57569
 H323 H 0.71420 0.83614 0.55197
 H324 H 0.72067 0.85287 0.51278
 C325 C 0.81554 0.92673 0.48924
 C326 C 0.68423 0.91928 0.48956
 C327 C 0.74409 0.84973 0.56745
 C328 C 0.76744 0.83147 0.43211
 C329 C 0.00687 0.27271 0.41757
 H330 H 0.02051 0.26073 0.41829
 C331 C 0.00530 0.28954 0.43427
 H332 H 0.01783 0.29035 0.44784
 C333 C -0.02559 0.28642 0.39857
 H334 H -0.03765 0.28513 0.38467
 C335 C -0.02778 0.30361 0.41492
 H336 H -0.04169 0.31511 0.41320
 N337 N -0.00808 0.27179 0.39977
 C338 C 0.02020 0.21016 0.39073
 H339 H 0.03408 0.21661 0.38053
 C340 C 0.02243 0.18947 0.40201
 H341 H 0.03821 0.18083 0.39976
 C342 C -0.01645 0.21471 0.40624
 H343 H -0.03152 0.22475 0.40788
 C344 C -0.01505 0.19406 0.41774
 H345 H -0.02932 0.18847 0.42809
 Zn346 Zn -0.00258 0.24985 0.37638
 N347 N 0.00080 0.22208 0.39252
 C348 C 0.03137 0.24306 0.34150
 N349 N 0.02400 0.25677 0.35903
 C350 C 0.03536 0.27526 0.36434
 C351 C 0.05548 0.27994 0.35271
 C352 C 0.05153 0.24703 0.32943
 C353 C -0.03878 0.23053 0.35243
 C354 C -0.05657 0.23024 0.33672
 C355 C -0.04803 0.26772 0.32474
 C356 C -0.03045 0.26727 0.34071
 N357 N -0.02640 0.24902 0.35451
 H358 H 0.02183 0.22864 0.33732
 H359 H 0.02902 0.28639 0.37779
 H360 H 0.06438 0.29456 0.35770
 H361 H 0.05704 0.23529 0.31620
 H362 H -0.03499 0.21593 0.36300
 H363 H -0.06611 0.21530 0.33617
 H364 H -0.05108 0.28264 0.31426
 H365 H -0.02012 0.28164 0.34234
 C366 C 0.00442 0.18075 0.41547
 C367 C -0.01183 0.30565 0.43278
 C368 C -0.06163 0.24915 0.32264
 C369 C 0.06416 0.26561 0.33525
 C370 C 0.03038 0.72248 0.08671
 H371 H 0.04439 0.73312 0.08938
 C372 C 0.03242 0.70497 0.07081
 H373 H 0.04799 0.70245 0.06111
 C374 C -0.00636 0.71205 0.09720
 H375 H -0.02121 0.71439 0.10805
 C376 C -0.00500 0.69428 0.08156
 H377 H -0.01898 0.68332 0.08087
 N378 N 0.01124 0.72567 0.09962
 C379 C 0.01028 0.79388 0.12464
 H380 H 0.00440 0.79086 0.14263
 C381 C 0.01265 0.81562 0.11643
 H382 H 0.00902 0.82914 0.12842
 C383 C 0.02095 0.78003 0.08692
 H384 H 0.02391 0.76616 0.07535
 C385 C 0.02338 0.80162 0.07788
 H386 H 0.02868 0.80389 0.05957
 Zn387 Zn 0.01041 0.74774 0.12355
 N388 N 0.01478 0.77655 0.11007
 C389 C 0.04035 0.75608 0.16125
 N390 N 0.03321 0.74066 0.14589
 C391 C 0.04276 0.72004 0.14544
 C392 C 0.06073 0.71460 0.16000
 C393 C 0.05832 0.75138 0.17613
 C394 C -0.03540 0.75527 0.12527
 C395 C -0.05693 0.75633 0.13494
 C396 C -0.04236 0.74342 0.17254
 C397 C -0.02101 0.74255 0.16203
 N398 N -0.01801 0.74832 0.13876
 H399 H 0.03252 0.77229 0.16167
 H400 H 0.03664 0.70776 0.13355
 H401 H 0.06826 0.69817 0.15884
 H402 H 0.06374 0.76444 0.18742
 H403 H -0.03250 0.75991 0.10685
 H404 H -0.07050 0.76177 0.12365
 H405 H -0.04410 0.73839 0.19095
 H406 H -0.00687 0.73715 0.17243
 C407 C 0.01921 0.81977 0.09280
 C408 C 0.01469 0.69044 0.06819
 C409 C -0.06081 0.75037 0.15888
 C410 C 0.06912 0.73041 0.17539
 C411 C 0.51977 0.22169 0.59570
 H412 H 0.53214 0.23449 0.59519
 C413 C 0.52383 0.20189 0.58367
 H414 H 0.53939 0.19952 0.57392
 C415 C 0.48463 0.20906 0.60936
 H416 H 0.46956 0.21168 0.61978
 C417 C 0.48793 0.18908 0.59747
 H418 H 0.47535 0.17655 0.59916
 N419 N 0.50032 0.22502 0.60801
 C420 C 0.49006 0.29674 0.60974
 H421 H 0.48734 0.29896 0.62861
 C422 C 0.49039 0.31516 0.59447
 H423 H 0.48761 0.33152 0.60170
 C424 C 0.49687 0.27265 0.57746
 H425 H 0.49939 0.25606 0.57089
 C426 C 0.49696 0.29063 0.56147
 H427 H 0.49970 0.28776 0.54269
 Zn428 Zn 0.49601 0.25242 0.62383
 N429 N 0.49409 0.27607 0.60119
 C430 C 0.53395 0.27453 0.63963
 N431 N 0.52106 0.25655 0.64364
 C432 C 0.52687 0.24085 0.66014
 C433 C 0.54642 0.24285 0.67321
 C434 C 0.55332 0.27735 0.65242
 C435 C 0.44998 0.25182 0.62829
 C436 C 0.42900 0.25167 0.63930
 C437 C 0.44673 0.25372 0.67739
 C438 C 0.46750 0.25368 0.66554
 N439 N 0.46872 0.25249 0.64143
 H440 H 0.52969 0.28654 0.62603
 H441 H 0.51658 0.22647 0.66275
 H442 H 0.55064 0.22984 0.68582
 H443 H 0.56329 0.29178 0.64855
 H444 H 0.45140 0.25118 0.60913
 H445 H 0.41440 0.25083 0.62831
 H446 H 0.44644 0.25428 0.69656
 H447 H 0.48262 0.25451 0.67564
 C448 C 0.49443 0.31222 0.57006
 C449 C 0.50768 0.18540 0.58418
 C450 C 0.42701 0.25257 0.66418
 C451 C 0.56013 0.26131 0.66925
 C452 C 0.51025 0.78338 0.91548
 H453 H 0.52532 0.77324 0.91559
 C454 C 0.50827 0.80169 0.93039
 H455 H 0.52183 0.80542 0.94204
 C456 C 0.47492 0.79172 0.89914
 H457 H 0.46208 0.78817 0.88664
 C458 C 0.47217 0.81000 0.91387
 H459 H 0.45685 0.81968 0.91285
 N460 N 0.49397 0.77912 0.89972
 C461 C 0.50127 0.71101 0.87494
 H462 H 0.49821 0.71408 0.85633
 C463 C 0.50277 0.68924 0.88341
 H464 H 0.50142 0.67582 0.87098
 C465 C 0.50505 0.72471 0.91379
 H466 H 0.50544 0.73857 0.92567
 C467 C 0.50652 0.70306 0.92311
 H468 H 0.50820 0.70079 0.94206
 Zn469 Zn 0.49853 0.75700 0.87606
 N470 N 0.50261 0.72828 0.89002
 C471 C 0.53126 0.75021 0.83941
 N472 N 0.52396 0.76430 0.85666
 C473 C 0.53508 0.78320 0.86092
 C474 C 0.55498 0.78781 0.84877
 C475 C 0.55106 0.75422 0.82669
 C476 C 0.45462 0.74646 0.86817
 C477 C 0.43443 0.74539 0.85642
 C478 C 0.45165 0.76336 0.82236
 C479 C 0.47163 0.76397 0.83483
 N480 N 0.47261 0.75583 0.85744
 H481 H 0.52203 0.73556 0.83573
 H482 H 0.52880 0.79470 0.87402
 H483 H 0.56377 0.80270 0.85306
 H484 H 0.55654 0.74212 0.81382
 H485 H 0.45595 0.73995 0.88612
 H486 H 0.42085 0.73762 0.86591
 H487 H 0.45113 0.77031 0.80451
 H488 H 0.48620 0.77130 0.82662
 C489 C 0.50533 0.68494 0.90775
 C490 C 0.48940 0.81574 0.92909
 C491 C 0.43247 0.75431 0.83320
 C492 C 0.56356 0.77307 0.83167
 C493 C -0.22149 0.64843 0.96227
 H494 H -0.20882 0.63676 0.96823
 C495 C -0.21594 0.66442 0.94512
 H496 H -0.19903 0.66478 0.93817
 C497 C -0.25847 0.66271 0.96490
 H498 H -0.27501 0.66213 0.97259
 C499 C -0.25363 0.67901 0.94787
 H500 H -0.26662 0.69067 0.94251
 N501 N -0.24263 0.64744 0.97135
 C502 C -0.26180 0.62051 1.04067
 H503 H -0.26448 0.60345 1.03605
 C504 C -0.26640 0.62758 1.06371
 H505 H -0.27246 0.61562 1.07672
 C506 C -0.25080 0.65654 1.02888
 H507 H -0.24472 0.66770 1.01515
 C508 C -0.25533 0.66444 1.05171
 H509 H -0.25208 0.68166 1.05484
 Zn510 Zn -0.24984 0.62398 0.99293
 N511 N -0.25410 0.63493 1.02387
 C512 C -0.21444 0.59854 1.01265
 N513 N -0.22615 0.60266 0.99256
 C514 C -0.22003 0.59312 0.97166
 C515 C -0.20114 0.57928 0.97029
 C516 C -0.19553 0.58472 1.01216
 C517 C -0.29562 0.62367 0.99010
 C518 C -0.31695 0.61582 0.98719
 C519 C -0.29891 0.58032 0.97327
 C520 C -0.27841 0.59013 0.97674
 N521 N -0.27721 0.61113 0.98487
 H522 H -0.21931 0.60650 1.02904
 H523 H -0.22939 0.59693 0.95581
 H524 H -0.19634 0.57235 0.95326
 H525 H -0.18679 0.58230 1.02860
 H526 H -0.29376 0.63984 0.99768
 H527 H -0.33112 0.62634 0.99194
 H528 H -0.29927 0.56343 0.96712
 H529 H -0.26333 0.58055 0.97345
 C530 C -0.26340 0.64987 1.06966
 C531 C -0.23234 0.67961 0.93728
 C532 C -0.32083 0.59279 0.97882
 C533 C -0.18825 0.57518 0.99057
 C534 C -0.23105 0.35749 0.53162
 H535 H -0.22165 0.35279 0.51585
 C536 C -0.22484 0.34978 0.55297
 H537 H -0.21044 0.33874 0.55425
 C538 C -0.26148 0.37848 0.54817
 H539 H -0.27532 0.39005 0.54638
 C540 C -0.25520 0.37052 0.57206
 H541 H -0.26568 0.37575 0.58679
 N542 N -0.25019 0.37206 0.52948
 C543 C -0.26875 0.36758 0.45500
 H544 H -0.27029 0.38505 0.45063
 C545 C -0.27197 0.35186 0.43751
 H546 H -0.27557 0.35762 0.41969
 C547 C -0.26106 0.33931 0.48350
 H548 H -0.25694 0.33447 0.50145
 C549 C -0.26414 0.32303 0.46656
 H550 H -0.26203 0.30573 0.47161
 Zn551 Zn -0.25732 0.38384 0.49912
 N552 N -0.26287 0.36112 0.47730
 C553 C -0.22074 0.39495 0.46882
 N554 N -0.23255 0.40044 0.48877
 C555 C -0.22569 0.41664 0.50327
 C556 C -0.20613 0.42798 0.49807
 C557 C -0.20109 0.40587 0.46289
 C558 C -0.30245 0.39103 0.50727
 C559 C -0.32269 0.40266 0.50921
 C560 C -0.30345 0.43627 0.49860
 C561 C -0.28356 0.42391 0.49680
 N562 N -0.28344 0.40172 0.50127
 H563 H -0.22610 0.38163 0.45783
 H564 H -0.23516 0.42030 0.51932
 H565 H -0.20113 0.44025 0.51055
 H566 H -0.19176 0.40090 0.44713
 H567 H -0.30182 0.37335 0.51071
 H568 H -0.33715 0.39338 0.51456
 H569 H -0.30317 0.45394 0.49494
 H570 H -0.26829 0.43206 0.49174
 C571 C -0.26943 0.32920 0.44317
 C572 C -0.23742 0.35667 0.57467
 C573 C -0.32351 0.42572 0.50466
 C574 C -0.19327 0.42247 0.47769
 C575 C 0.27970 -0.14027 0.04318
 H576 H 0.29491 -0.13383 0.03542
 C577 C 0.27991 -0.14967 0.06489
 H578 H 0.29546 -0.15044 0.07426
 C579 C 0.24076 -0.14616 0.03897
 H580 H 0.22560 -0.14439 0.02894
 C581 C 0.24014 -0.15658 0.06277
 H582 H 0.22430 -0.16243 0.06966
 N583 N 0.25932 -0.13856 0.03016
 C584 C 0.25284 -0.13672 -0.04687
 H585 H 0.25650 -0.11954 -0.05068
 C586 C 0.24699 -0.15056 -0.06525
 H587 H 0.24680 -0.14398 -0.08323
 C588 C 0.24907 -0.16605 -0.01874
 H589 H 0.24980 -0.17201 -0.00058
 C590 C 0.24329 -0.18054 -0.03665
 H591 H 0.23964 -0.19761 -0.03213
 Zn592 Zn 0.25809 -0.12379 0.00042
 N593 N 0.25317 -0.14443 -0.02404
 C594 C 0.29958 -0.11668 -0.02280
 N595 N 0.28528 -0.10889 -0.00574
 C596 C 0.29040 -0.09096 0.00727
 C597 C 0.31033 -0.07984 0.00303
 C598 C 0.31963 -0.10607 -0.02770
 C599 C 0.21752 -0.10391 -0.01497
 C600 C 0.19830 -0.09069 -0.01308
 C601 C 0.21181 -0.07666 0.02379
 C602 C 0.23090 -0.09013 0.02108
 N603 N 0.23348 -0.10339 0.00186
 H604 H 0.29564 -0.13135 -0.03251
 H605 H 0.27910 -0.08528 0.02110
 H606 H 0.31363 -0.06583 0.01402
 H607 H 0.33066 -0.11266 -0.04144
 H608 H 0.21911 -0.11512 -0.02961
 H609 H 0.18596 -0.09242 -0.02660
 H610 H 0.21000 -0.06653 0.03947
 H611 H 0.24322 -0.09065 0.03486
 C612 C 0.24155 -0.17266 -0.06011
 C613 C 0.25883 -0.15831 0.07563
 C614 C 0.19508 -0.07677 0.00661
 C615 C 0.32532 -0.08727 -0.01487
 C616 C 0.28112 1.15300 0.47982
 H617 H 0.29197 1.14800 0.49417
 C618 C 0.28824 1.16863 0.46289
 H619 H 0.30458 1.17576 0.46426
 C620 C 0.24697 1.14915 0.45990
 H621 H 0.23123 1.14106 0.45822
 C622 C 0.25320 1.16501 0.44295
 H623 H 0.24208 1.16891 0.42846
 N624 N 0.26078 1.14361 0.47804
 C625 C 0.23827 1.11855 0.54708
 H626 H 0.23580 1.10145 0.54249
 C627 C 0.23302 1.12572 0.56994
 H628 H 0.22659 1.11400 0.58299
 C629 C 0.24974 1.15454 0.53553
 H630 H 0.25626 1.16565 0.52200
 C631 C 0.24465 1.16246 0.55825
 H632 H 0.24786 1.17960 0.56200
 Zn633 Zn 0.25274 1.12110 0.50019
 N634 N 0.24666 1.13287 0.53051
 C635 C 0.28728 1.09705 0.52294
 N636 N 0.27688 1.10056 0.50193
 C637 C 0.28448 1.09074 0.48171
 C638 C 0.30332 1.07677 0.48216
 C639 C 0.30616 1.08328 0.52423
 C640 C 0.20763 1.12042 0.49205
 C641 C 0.18678 1.11225 0.48713
 C642 C 0.20591 1.07542 0.48024
 C643 C 0.22585 1.08560 0.48537
 N644 N 0.22628 1.10737 0.49097
 H645 H 0.28126 1.10528 0.53876
 H646 H 0.27609 1.09407 0.46514
 H647 H 0.30920 1.06933 0.46575
 H648 H 0.31361 1.08094 0.54141
 H649 H 0.20901 1.13756 0.49708
 H650 H 0.17233 1.12325 0.48830
 H651 H 0.20614 1.05797 0.47610
 H652 H 0.24112 1.07582 0.48530
 C653 C 0.23610 1.14791 0.57577
 C654 C 0.27407 1.17494 0.44435
 C655 C 0.18371 1.08839 0.48098
 C656 C 0.31475 1.07312 0.50352
 C657 C 0.16416 0.47473 0.26576
 H658 H 0.16502 0.48741 0.27895
 C659 C 0.17716 0.45543 0.26833
 H660 H 0.18782 0.45352 0.28359
 C661 C 0.14914 0.46155 0.23018
 H662 H 0.13827 0.46393 0.21526
 C663 C 0.16178 0.44193 0.23210
 H664 H 0.15983 0.42951 0.21873
 N665 N 0.14997 0.47719 0.24727
 C666 C 0.13139 0.54720 0.24540
 H667 H 0.11375 0.54558 0.24918
 C668 C 0.14056 0.56812 0.24350
 H669 H 0.12986 0.58262 0.24586
 C670 C 0.16673 0.53010 0.23809
 H671 H 0.17674 0.51515 0.23601
 C672 C 0.17672 0.55086 0.23637
 H673 H 0.19443 0.55167 0.23266
 Zn674 Zn 0.12947 0.50175 0.24666
 N675 N 0.14443 0.52875 0.24254
 C676 C 0.12664 0.51188 0.29443
 N677 N 0.11444 0.50380 0.27651
 C678 C 0.09253 0.49905 0.27988
 C679 C 0.08225 0.50194 0.30220
 C680 C 0.11717 0.51490 0.31691
 C681 C 0.10744 0.51495 0.20467
 C682 C 0.09306 0.51313 0.18568
 C683 C 0.08245 0.47714 0.20078
 C684 C 0.09652 0.48003 0.22003
 N685 N 0.10890 0.49861 0.22149
 H686 H 0.14372 0.51654 0.29115
 H687 H 0.08294 0.49310 0.26532
 H688 H 0.06495 0.49761 0.30426
 H689 H 0.12741 0.52131 0.33082
 H690 H 0.11760 0.52942 0.20566
 H691 H 0.09223 0.52648 0.17260
 H692 H 0.07287 0.46219 0.20017
 H693 H 0.09793 0.46722 0.23359
 C694 C 0.16348 0.57017 0.23922
 C695 C 0.17575 0.43849 0.25168
 C696 C 0.08064 0.49390 0.18318
 C697 C 0.09468 0.51000 0.32119
 C698 C -0.14585 1.02823 0.25998
 H699 H -0.13691 1.02460 0.27611
 C700 C -0.15940 1.04727 0.25858
 H701 H -0.16054 1.05798 0.27379
 C702 C -0.15335 1.01972 0.21999
 H703 H -0.15033 1.00922 0.20482
 C704 C -0.16700 1.03861 0.21779
 H705 H -0.17464 1.04246 0.20089
 N706 N -0.14296 1.01501 0.24078
 C707 C -0.12079 0.94591 0.24014
 H708 H -0.10372 0.94831 0.24525
 C709 C -0.12854 0.92455 0.23738
 H710 H -0.11731 0.91054 0.24035
 C711 C -0.15619 0.96133 0.23050
 H712 H -0.16689 0.97574 0.22792
 C713 C -0.16475 0.94013 0.22778
 H714 H -0.18192 0.93853 0.22267
 Zn715 Zn -0.12149 0.99162 0.24094
 N716 N -0.13448 0.96378 0.23635
 C717 C -0.11875 0.98395 0.29008
 N718 N -0.10677 0.98948 0.27025
 C719 C -0.08422 0.99091 0.27067
 C720 C -0.07273 0.98612 0.29152
 C721 C -0.10800 0.97935 0.31144
 C722 C -0.09226 0.98118 0.20229
 C723 C -0.07643 0.98572 0.18460
 C724 C -0.07825 1.02433 0.19541
 C725 C -0.09371 1.01891 0.21331
 N726 N -0.10045 0.99765 0.21636
 H727 H -0.13666 0.98254 0.28912
 H728 H -0.07499 0.99512 0.25463
 H729 H -0.05483 0.98759 0.29092
 H730 H -0.11791 0.97471 0.32693
 H731 H -0.09784 0.96442 0.20475
 H732 H -0.07004 0.97222 0.17379
 H733 H -0.07319 1.04137 0.19370
 H734 H -0.10041 1.03170 0.22482
 C735 C -0.15076 0.92142 0.23128
 C736 C -0.17000 1.05280 0.23714
 C737 C -0.06935 1.00754 0.18069
 C738 C -0.08460 0.97979 0.31232
 C739 C 0.34202 0.54356 -0.23494
 H740 H 0.35194 0.53907 -0.21973
 C741 C 0.33058 0.56392 -0.23541
 H742 H 0.33155 0.57438 -0.22009
 C743 C 0.32885 0.53508 -0.27311
 H744 H 0.32841 0.52374 -0.28779
 C745 C 0.31718 0.55528 -0.27435
 H746 H 0.30771 0.55939 -0.29007
 N747 N 0.34077 0.52953 -0.25352
 C748 C 0.34630 0.45659 -0.25317
 H749 H 0.36406 0.45479 -0.25045
 C750 C 0.33386 0.43867 -0.25516
 H751 H 0.34196 0.42261 -0.25331
 C752 C 0.31485 0.48120 -0.25642
 H753 H 0.30756 0.49769 -0.25687
 C754 C 0.30034 0.46186 -0.25841
 H755 H 0.28258 0.46470 -0.26053
 Zn756 Zn 0.35637 0.50204 -0.25349
 N757 N 0.33633 0.47836 -0.25472
 C758 C 0.35915 0.49638 -0.20522
 N759 N 0.37224 0.49782 -0.22504
 C760 C 0.39472 0.49489 -0.22465
 C761 C 0.40566 0.49046 -0.20338
 C762 C 0.36810 0.49230 -0.18297
 C763 C 0.37154 0.48627 -0.29771
 C764 C 0.38283 0.48707 -0.31947
 C765 C 0.40171 0.51965 -0.30666
 C766 C 0.39008 0.51809 -0.28490
 N767 N 0.37517 0.50169 -0.28095
 H768 H 0.34127 0.49842 -0.20679
 H769 H 0.40428 0.49573 -0.24108
 H770 H 0.42361 0.48821 -0.20366
 H771 H 0.35700 0.49146 -0.16762
 H772 H 0.35919 0.47375 -0.29473
 H773 H 0.37920 0.47476 -0.33260
 H774 H 0.41296 0.53323 -0.30940
 H775 H 0.39234 0.53043 -0.27146
 C776 C 0.30938 0.44125 -0.25871
 C777 C 0.31800 0.57006 -0.25541
 C778 C 0.39784 0.50411 -0.32452
 C779 C 0.39270 0.48880 -0.17973
 C780 C 0.65405 -0.02808 -0.22628
 H781 H 0.64369 -0.02057 -0.21260
 C782 C 0.66368 -0.04789 -0.22223
 H783 H 0.66104 -0.05607 -0.20518
 C784 C 0.66941 -0.02574 -0.26560
 H785 H 0.67113 -0.01720 -0.28254
 C786 C 0.68024 -0.04767 -0.26201
 H787 H 0.68986 -0.05428 -0.27673
 N788 N 0.65713 -0.01695 -0.24881
 C789 C 0.65165 0.05331 -0.26509
 H790 H 0.63365 0.05470 -0.26541
 C791 C 0.66445 0.07200 -0.26911
 H792 H 0.65554 0.08749 -0.27189
 C793 C 0.68405 0.03092 -0.25953
 H794 H 0.69151 0.01488 -0.25554
 C795 C 0.69760 0.04929 -0.26320
 H796 H 0.71553 0.04702 -0.26209
 Zn797 Zn 0.64161 0.00983 -0.25550
 N798 N 0.66153 0.03328 -0.26075
 C799 C 0.63659 0.02463 -0.21026
 N800 N 0.62409 0.01801 -0.22863
 C801 C 0.60146 0.01764 -0.22682
 C802 C 0.59066 0.02312 -0.20533
 C803 C 0.62660 0.03050 -0.18875
 C804 C 0.63367 0.01557 -0.30367
 C805 C 0.62452 0.01174 -0.32569
 C806 C 0.59771 -0.01225 -0.30659
 C807 C 0.60773 -0.00819 -0.28476
 N808 N 0.62522 0.00577 -0.28368
 H809 H 0.65455 0.02495 -0.21224
 H810 H 0.59178 0.01275 -0.24179
 H811 H 0.57272 0.02207 -0.20430
 H812 H 0.63714 0.03529 -0.17433
 H813 H 0.64816 0.02580 -0.30283
 H814 H 0.63190 0.01968 -0.34126
 H815 H 0.58391 -0.02346 -0.30679
 H816 H 0.60185 -0.01656 -0.26880
 C817 C 0.68796 0.07026 -0.26841
 C818 C 0.67735 -0.05872 -0.24117
 C819 C 0.60632 -0.00232 -0.32758
 C820 C 0.60338 0.02939 -0.18573
 C821 C 0.02002 0.28039 0.84657
 H822 H 0.00800 0.29374 0.84936
 C823 C 0.03840 0.28355 0.83142
 H824 H 0.04042 0.29944 0.82252
 C825 C 0.03235 0.24372 0.85547
 H826 H 0.03006 0.22831 0.86515
 C827 C 0.05098 0.24617 0.84048
 H828 H 0.06293 0.23258 0.83926
 N829 N 0.01742 0.26076 0.85834
 C830 C -0.05294 0.25344 0.87740
 H831 H -0.05180 0.25114 0.89644
 C832 C -0.07352 0.25181 0.86650
 H833 H -0.08819 0.24835 0.87731
 C834 C -0.03506 0.26002 0.84019
 H835 H -0.01996 0.26283 0.82995
 C836 C -0.05540 0.25864 0.82853
 H837 H -0.05556 0.26024 0.80938
 Zn838 Zn -0.00659 0.25805 0.88040
 N839 N -0.03419 0.25744 0.86423
 C840 C -0.02506 0.29481 0.90592
 N841 N -0.00616 0.28282 0.90095
 C842 C 0.01378 0.28875 0.90975
 C843 C 0.01517 0.30698 0.92461
 C844 C -0.02449 0.31312 0.92077
 C845 C -0.01608 0.21380 0.89386
 C846 C -0.01385 0.19396 0.90677
 C847 C 0.01607 0.21002 0.92839
 C848 C 0.01316 0.22958 0.91512
 N849 N -0.00288 0.23124 0.89838
 H850 H -0.04066 0.29043 0.89821
 H851 H 0.02877 0.27956 0.90487
 H852 H 0.03131 0.31133 0.93130
 H853 H -0.03990 0.32224 0.92379
 H854 H -0.02818 0.21505 0.87990
 H855 H -0.02447 0.18053 0.90215
 H856 H 0.02897 0.20919 0.94163
 H857 H 0.02382 0.24338 0.91822
 C858 C -0.07498 0.25444 0.84179
 C859 C 0.05423 0.26638 0.82826
 C860 C 0.00235 0.19186 0.92457
 C861 C -0.00412 0.31945 0.93055
 C862 C 0.47089 0.26065 0.16306
 H863 H 0.48206 0.27440 0.16446
 C864 C 0.45093 0.26052 0.17625
 H865 H 0.44682 0.27427 0.18777
 C866 C 0.46257 0.22620 0.14607
 H867 H 0.46697 0.21302 0.13400
 C868 C 0.44247 0.22536 0.15900
 H869 H 0.43163 0.21157 0.15629
 N870 N 0.47643 0.24355 0.14851
 C871 C 0.54919 0.24305 0.14321
 H872 H 0.55158 0.24402 0.12414
 C873 C 0.56766 0.24202 0.15800
 H874 H 0.58421 0.24191 0.15003
 C875 C 0.52459 0.24116 0.17652
 H876 H 0.50780 0.24057 0.18369
 C877 C 0.54261 0.23984 0.19195
 H878 H 0.53951 0.23841 0.21091
 Zn879 Zn 0.50391 0.24492 0.13125
 N880 N 0.52815 0.24307 0.15264
 C881 C 0.52021 0.28732 0.11945
 N882 N 0.50438 0.27249 0.11416
 C883 C 0.48830 0.27707 0.09800
 C884 C 0.48768 0.29712 0.08534
 C885 C 0.52124 0.30790 0.10811
 C886 C 0.51032 0.20021 0.12104
 C887 C 0.51323 0.18122 0.10738
 C888 C 0.50913 0.20397 0.07203
 C889 C 0.50663 0.22259 0.08643
 N890 N 0.50705 0.22038 0.11050
 H891 H 0.53218 0.28335 0.13301
 H892 H 0.47571 0.26491 0.09491
 H893 H 0.47469 0.30013 0.07251
 H894 H 0.53418 0.31915 0.11297
 H895 H 0.51061 0.19888 0.14023
 H896 H 0.51519 0.16556 0.11669
 H897 H 0.50859 0.20615 0.05291
 H898 H 0.50440 0.23876 0.07827
 C899 C 0.56446 0.24067 0.18277
 C900 C 0.43653 0.24261 0.17456
 C901 C 0.51277 0.18287 0.08235
 C902 C 0.50486 0.31503 0.08956
 C903 C -0.03757 0.76420 0.63746
 H904 H -0.03118 0.77875 0.62851
 C905 C -0.05730 0.76538 0.64880
 H906 H -0.06669 0.78090 0.64859
 C907 C -0.03177 0.72637 0.64894
 H908 H -0.02182 0.71127 0.64891
 C909 C -0.05349 0.72691 0.66180
 H910 H -0.05890 0.71180 0.67043
 N911 N -0.02475 0.74383 0.63739
 C912 C 0.04755 0.73667 0.63322
 H913 H 0.05003 0.73467 0.61429
 C914 C 0.06583 0.73600 0.64822
 H915 H 0.08234 0.73315 0.64069
 C916 C 0.02286 0.74256 0.66595
 H917 H 0.00609 0.74538 0.67273
 C918 C 0.04068 0.74169 0.68166
 H919 H 0.03752 0.74376 0.70050
 Zn920 Zn 0.00292 0.74265 0.62036
 N921 N 0.02663 0.74035 0.64219
 C922 C 0.02371 0.78241 0.60602
 N923 N 0.00620 0.76919 0.60167
 C924 C -0.00936 0.77537 0.58540
 C925 C -0.00772 0.79556 0.57294
 C926 C 0.02610 0.80255 0.59392
 C927 C 0.01006 0.69764 0.61246
 C928 C 0.01209 0.67791 0.59994
 C929 C 0.00190 0.69801 0.56424
 C930 C 0.00039 0.71747 0.57745
 N931 N 0.00434 0.71693 0.60118
 H932 H 0.03569 0.77770 0.61933
 H933 H -0.02350 0.76493 0.58263
 H934 H -0.02069 0.79998 0.56058
 H935 H 0.04013 0.81277 0.59804
 H936 H 0.01319 0.69757 0.63132
 H937 H 0.01616 0.66301 0.60993
 H938 H -0.00143 0.69885 0.54539
 H939 H -0.00394 0.73291 0.56864
 C940 C 0.06250 0.73890 0.67275
 C941 C -0.06610 0.74568 0.66166
 C942 C 0.00812 0.67784 0.57531
 C943 C 0.01022 0.80962 0.57726
 C944 C 0.53284 0.77069 0.35027
 H945 H 0.52164 0.78483 0.35224
 C946 C 0.55262 0.77274 0.33706
 H947 H 0.55660 0.78858 0.32893
 C948 C 0.54150 0.73301 0.35903
 H949 H 0.53713 0.71761 0.36782
 C950 C 0.56142 0.73429 0.34583
 H951 H 0.57236 0.71985 0.34504
 N952 N 0.52777 0.75111 0.36109
 C953 C 0.45532 0.74907 0.36951
 H954 H 0.45331 0.74863 0.38865
 C955 C 0.43658 0.74834 0.35521
 H956 H 0.42029 0.74717 0.36364
 C957 C 0.47919 0.74974 0.33556
 H958 H 0.49583 0.75001 0.32794
 C959 C 0.46088 0.74886 0.32058
 H960 H 0.46359 0.74861 0.30151
 Zn961 Zn 0.50131 0.75016 0.37988
 N962 N 0.47614 0.74993 0.35958
 C963 C 0.48208 0.78964 0.39949
 N964 N 0.50036 0.77596 0.39925
 C965 C 0.51881 0.78110 0.41159
 C966 C 0.51922 0.80042 0.42500
 C967 C 0.48165 0.80898 0.41281
 C968 C 0.48619 0.70812 0.39555
 C969 C 0.48586 0.68877 0.40944
 C970 C 0.51775 0.70172 0.43033
 C971 C 0.51731 0.72093 0.41614
 N972 N 0.50155 0.72392 0.39926
 H973 H 0.46782 0.78594 0.38899
 H974 H 0.53354 0.77055 0.41050
 H975 H 0.53425 0.80419 0.43441
 H976 H 0.46678 0.81926 0.41191
 H977 H 0.47431 0.71021 0.38149
 H978 H 0.47361 0.67660 0.40538
 H979 H 0.53053 0.69976 0.44362
 H980 H 0.52975 0.73333 0.41850
 C981 C 0.43924 0.74840 0.33036
 C982 C 0.56720 0.75443 0.33470
 C983 C 0.50174 0.68534 0.42737
 C984 C 0.50049 0.81478 0.42587
 B985 B 0.00173 0.01757 1.02363
 B986 B -0.01708 0.01078 1.00349
 B987 B 0.00292 0.02873 0.99639
 B988 B 0.02668 0.02076 1.00996
 B989 B 0.02090 -0.00297 1.02571
 B990 B -0.00661 -0.00889 1.02179
 B991 B 0.01473 -0.01086 0.97868
 B992 B 0.03345 -0.00415 0.99882
 B993 B 0.01345 -0.02211 1.00595
 B994 B -0.01026 -0.01412 0.99230
 B995 B -0.00447 0.00968 0.97660
 B996 B 0.02293 0.01558 0.98053
 B997 B 0.47917 0.50676 0.51145
 B998 B 0.46304 0.50259 0.48799
 B999 B 0.48367 0.52090 0.48605
 B1000 B 0.50556 0.51111 0.50172
 B1001 B 0.49802 0.48603 0.51345
 B1002 B 0.47144 0.48080 0.50491
 B1003 B 0.49756 0.48340 0.46500
 B1004 B 0.51374 0.48759 0.48835
 B1005 B 0.49322 0.46932 0.49039
 B1006 B 0.47136 0.47904 0.47467
 B1007 B 0.47872 0.50425 0.46305
 B1008 B 0.50542 0.50928 0.47138
 B1009 B 0.51283 0.98619 0.52121
 B1010 B 0.52366 0.99017 0.49383
 B1011 B 0.50119 0.97442 0.49772
 B1012 B 0.48482 0.98538 0.51944
 B1013 B 0.49760 1.00868 0.52883
 B1014 B 0.52198 1.01149 0.51288
 B1015 B 0.48762 1.01460 0.48202
 B1016 B 0.47679 1.01053 0.50923
 B1017 B 0.49918 1.02628 0.50535
 B1018 B 0.51557 1.01541 0.48371
 B1019 B 0.50283 0.99218 0.47426
 B1020 B 0.47848 0.98931 0.49018
 B1021 B 0.01008 0.49061 1.02301
 B1022 B 0.02467 0.49106 0.99742
 B1023 B 0.00154 0.47612 1.00001
 B1024 B -0.01734 0.48988 1.01704
 B1025 B -0.00530 0.51412 1.02490
 B1026 B 0.02103 0.51455 1.01285
 B1027 B -0.00854 0.51394 0.97657
 B1028 B -0.02307 0.51352 1.00216
 B1029 B -0.00000 0.52849 0.99961
 B1030 B 0.01889 0.51476 0.98251
 B1031 B 0.00692 0.49046 0.97474
 B1032 B -0.01941 0.49000 0.98675
 B1033 B 0.00232 0.50528 0.48158
 B1034 B 0.01573 0.49882 0.50670
 B1035 B -0.00369 0.51918 0.50656
 B1036 B -0.02437 0.51219 0.48839
 B1037 B -0.01749 0.48663 0.47734
 B1038 B 0.00766 0.47845 0.48875
 B1039 B -0.02210 0.48273 0.52554
 B1040 B -0.03540 0.48934 0.50050
 B1041 B -0.01616 0.46889 0.50074
 B1042 B 0.00461 0.47581 0.51887
 B1043 B -0.00227 0.50133 0.52991
 B1044 B -0.02739 0.50955 0.51855
 B1045 B 0.51225 0.01665 -0.02536
 B1046 B 0.52661 0.00920 -0.00116
 B1047 B 0.50678 0.02912 0.00059
 B1048 B 0.48561 0.02254 -0.01724
 B1049 B 0.49271 -0.00217 -0.02999
 B1050 B 0.51840 -0.01039 -0.01997
 B1051 B 0.48981 -0.00864 0.01812
 B1052 B 0.47549 -0.00126 -0.00608
 B1053 B 0.49530 -0.02114 -0.00769
 B1054 B 0.51642 -0.01458 0.01004
 B1055 B 0.50936 0.01011 0.02278
 B1056 B 0.48372 0.01837 0.01276
 B1057 B 0.48803 0.48655 -0.02373
 B1058 B 0.47638 0.49169 0.00291
 B1059 B 0.49802 0.47382 0.00066
 B1060 B 0.51577 0.48309 -0.02064
 B1061 B 0.50476 0.50744 -0.03149
 B1062 B 0.48003 0.51268 -0.01679
 B1063 B 0.51324 0.51259 0.01563
 B1064 B 0.52486 0.50748 -0.01103
 B1065 B 0.50323 0.52532 -0.00869
 B1066 B 0.48550 0.51606 0.01256
 B1067 B 0.49649 0.49174 0.02342
 B1068 B 0.52125 0.48650 0.00870
 B1069 B -0.00531 0.97954 0.46754
 B1070 B -0.01806 0.98502 0.49350
 B1071 B 0.00388 0.96759 0.49255
 B1072 B 0.02231 0.97671 0.47191
 B1073 B 0.01122 1.00063 0.45998
 B1074 B -0.01415 1.00564 0.47341
 B1075 B 0.01773 1.00697 0.50730
 B1076 B 0.03051 1.00149 0.48129
 B1077 B 0.00840 1.01898 0.48224
 B1078 B -0.00997 1.00976 0.50301
 B1079 B 0.00118 0.98583 0.51481
 B1080 B 0.02655 0.98089 0.50138
 B1081 B 0.76390 0.23149 0.22924
 B1082 B 0.75872 0.21502 0.25285
 B1083 B 0.77854 0.23412 0.25413
 B1084 B 0.77012 0.25692 0.23880
 B1085 B 0.74430 0.25172 0.22819
 B1086 B 0.73738 0.22536 0.23680
 B1087 B 0.74187 0.24989 0.27667
 B1088 B 0.74712 0.26635 0.25313
 B1089 B 0.72727 0.24727 0.25177
 B1090 B 0.73565 0.22447 0.26713
 B1091 B 0.76148 0.22969 0.27779
 B1092 B 0.76843 0.25601 0.26915
 B1093 B 0.73701 0.76344 0.72636
 B1094 B 0.74462 0.77793 0.74993
 B1095 B 0.72437 0.75926 0.75270
 B1096 B 0.73077 0.73746 0.73539
 B1097 B 0.75565 0.74288 0.72158
 B1098 B 0.76421 0.76824 0.73063
 B1099 B 0.76221 0.74104 0.76950
 B1100 B 0.75454 0.72653 0.74605
 B1101 B 0.77475 0.74506 0.74309
 B1102 B 0.76845 0.76691 0.76051
 B1103 B 0.74341 0.76154 0.77432
 B1104 B 0.73500 0.73613 0.76533
 B1105 B 0.25549 0.26940 0.77092
 B1106 B 0.25427 0.27866 0.74283
 B1107 B 0.27014 0.25643 0.74955
 B1108 B 0.25718 0.24147 0.77104
 B1109 B 0.23250 0.25496 0.77739
 B1110 B 0.23087 0.27831 0.75985
 B1111 B 0.23209 0.24257 0.73097
 B1112 B 0.23332 0.23324 0.75901
 B1113 B 0.21749 0.25548 0.75232
 B1114 B 0.23042 0.27045 0.73084
 B1115 B 0.25508 0.25696 0.72446
 B1116 B 0.25671 0.23360 0.74201
 B1117 B 0.23869 0.73509 0.28361
 B1118 B 0.24401 0.72325 0.25733
 B1119 B 0.22381 0.74267 0.25981
 B1120 B 0.23184 0.76199 0.27900
 B1121 B 0.25784 0.75430 0.28832
 B1122 B 0.26530 0.72995 0.27487
 B1123 B 0.25994 0.76163 0.24028
 B1124 B 0.25451 0.77349 0.26653
 B1125 B 0.27480 0.75408 0.26414
 B1126 B 0.26681 0.73471 0.24491
 B1127 B 0.24081 0.74245 0.23556
 B1128 B 0.23326 0.76675 0.24905
 B1129 B 0.26269 0.74985 0.73333
 B1130 B 0.25622 0.73589 0.75825
 B1131 B 0.27246 0.75804 0.75931
 B1132 B 0.26354 0.77709 0.73920
 B1133 B 0.24085 0.76621 0.72585
 B1134 B 0.23660 0.74039 0.73756
 B1135 B 0.23102 0.77025 0.77308
 B1136 B 0.23755 0.78424 0.74809
 B1137 B 0.22128 0.76209 0.74717
 B1138 B 0.23025 0.74296 0.76714
 B1139 B 0.25278 0.75389 0.78057
 B1140 B 0.25708 0.77981 0.76879
 B1141 B 0.23977 0.25540 0.23297
 B1142 B 0.24505 0.27477 0.25281
 B1143 B 0.22668 0.25502 0.25940
 B1144 B 0.23566 0.23106 0.24725
 B1145 B 0.26045 0.23641 0.23304
 B1146 B 0.26617 0.26377 0.23647
 B1147 B 0.26530 0.24419 0.28036
 B1148 B 0.25992 0.22476 0.26044
 B1149 B 0.27835 0.24448 0.25392
 B1150 B 0.26932 0.26855 0.26602
 B1151 B 0.24450 0.26324 0.28021
 B1152 B 0.23891 0.23576 0.27688
 B1153 B 0.76830 0.75627 0.27010
 B1154 B 0.76366 0.76858 0.24373
 B1155 B 0.78103 0.74657 0.24555
 B1156 B 0.77103 0.72871 0.26628
 B1157 B 0.74671 0.74007 0.27725
 B1158 B 0.74239 0.76515 0.26326
 B1159 B 0.74170 0.73297 0.22984
 B1160 B 0.74630 0.72059 0.25618
 B1161 B 0.72899 0.74263 0.25443
 B1162 B 0.73894 0.76048 0.23374
 B1163 B 0.76320 0.74912 0.22271
 B1164 B 0.76771 0.72408 0.23673
 B1165 B 0.73295 0.23990 0.76956
 B1166 B 0.73659 0.23289 0.74110
 B1167 B 0.71896 0.25360 0.74833
 B1168 B 0.72952 0.26765 0.77113
 B1169 B 0.75449 0.25513 0.77779
 B1170 B 0.75872 0.23327 0.75911
 B1171 B 0.75716 0.27113 0.73220
 B1172 B 0.75355 0.27817 0.76065
 B1173 B 0.77112 0.25741 0.75341
 B1174 B 0.76059 0.24341 0.73064
 B1175 B 0.73564 0.25592 0.72396
 B1176 B 0.73135 0.27778 0.74264
 C1177 C 0.42662 1.01235 0.34343
 C1178 C 0.42852 1.03169 0.35648
 C1179 C 0.43423 1.03056 0.38189
 C1180 C 0.44792 1.04653 0.39164
 C1181 C 0.45426 1.04473 0.41545
 C1182 C 0.44658 1.02713 0.42987
 C1183 C 0.43181 1.01203 0.42040
 C1184 C 0.42579 1.01363 0.39664
 C1185 C 0.45436 1.02298 0.45430
 C1186 C 0.47560 1.02840 0.46173
 H1187 H 0.42627 1.04779 0.34808
 H1188 H 0.45419 1.05999 0.38067
 H1189 H 0.46519 1.05700 0.42242
 H1190 H 0.42547 0.99848 0.43121
 H1191 H 0.41454 1.00155 0.38981
 H1192 H 0.44470 1.01163 0.46519
 H1193 H 0.43196 0.99681 0.35162
 H1194 H 0.48595 1.03907 0.45082
 C1195 C -0.08989 0.51092 0.84718
 C1196 C -0.07547 0.52796 0.85285
 C1197 C -0.05996 0.52523 0.87283
 C1198 C -0.05580 0.54303 0.88778
 C1199 C -0.04141 0.54021 0.90702
 C1200 C -0.03061 0.51965 0.91108
 C1201 C -0.03415 0.50221 0.89552
 C1202 C -0.04879 0.50489 0.87671
 C1203 C -0.01572 0.51541 0.93131
 C1204 C -0.01881 0.52511 0.95351
 H1205 H -0.07578 0.54368 0.84340
 H1206 H -0.06398 0.55897 0.88483
 H1207 H -0.03862 0.55409 0.91845
 H1208 H -0.02587 0.48627 0.89819
 H1209 H -0.05121 0.49107 0.86504
 H1210 H -0.00396 0.50166 0.92957
 H1211 H -0.09115 0.49740 0.86004
 H1212 H -0.03109 0.53829 0.95590
 C1213 C 0.06116 -0.00756 0.82743
 C1214 C 0.06684 -0.01854 0.84859
 C1215 C 0.05136 -0.02095 0.86926
 C1216 C 0.05737 -0.03541 0.88796
 C1217 C 0.04440 -0.03652 0.90883
 C1218 C 0.02517 -0.02301 0.91142
 C1219 C 0.01860 -0.00936 0.89232
 C1220 C 0.03160 -0.00814 0.87156
 C1221 C 0.01262 -0.02104 0.93417
 C1222 C 0.02255 -0.02447 0.95619
 H1223 H 0.08340 -0.02575 0.85025
 H1224 H 0.07244 -0.04555 0.88664
 H1225 H 0.04972 -0.04769 0.92291
 H1226 H 0.00391 0.00129 0.89390
 H1227 H 0.02645 0.00357 0.85795
 H1228 H -0.00343 -0.01250 0.93365
 H1229 H 0.04399 -0.00272 0.82446
 H1230 H 0.03859 -0.03285 0.95730
 C1231 C 0.56340 0.49122 0.31961
 C1232 C 0.56535 0.47703 0.33937
 C1233 C 0.54864 0.47612 0.35905
 C1234 C 0.55533 0.46773 0.38126
 C1235 C 0.54076 0.46838 0.40089
 C1236 C 0.51904 0.47726 0.39858
 C1237 C 0.51202 0.48465 0.37614
 C1238 C 0.52656 0.48397 0.35651
 C1239 C 0.50433 0.48161 0.41940
 C1240 C 0.50743 0.47206 0.44187
 H1241 H 0.58036 0.46698 0.34127
 H1242 H 0.57221 0.46147 0.38366
 H1243 H 0.54700 0.46294 0.41796
 H1244 H 0.49535 0.49152 0.37389
 H1245 H 0.52041 0.48983 0.33958
 H1246 H 0.49159 0.49442 0.41726
 H1247 H 0.54834 0.50103 0.31710
 H1248 H 0.51854 0.45789 0.44408
 C1249 C 0.60173 0.51355 0.14195
 C1250 C 0.58497 0.52866 0.13520
 C1251 C 0.57592 0.52901 0.11090
 C1252 C 0.55334 0.53449 0.10763
 C1253 C 0.54373 0.53237 0.08534
 C1254 C 0.55670 0.52499 0.06583
 C1255 C 0.57957 0.52085 0.06885
 C1256 C 0.58915 0.52296 0.09109
 C1257 C 0.54678 0.51897 0.04301
 C1258 C 0.52530 0.52513 0.03604
 H1259 H 0.57643 0.53855 0.14853
 H1260 H 0.54287 0.53938 0.12260
 H1261 H 0.52599 0.53544 0.08388
 H1262 H 0.58996 0.51530 0.05407
 H1263 H 0.60680 0.51942 0.09279
 H1264 H 0.55651 0.50782 0.03183
 H1265 H 0.60824 0.50199 0.12892
 H1266 H 0.51557 0.53720 0.04596
 C1267 C 0.07401 1.03049 0.65460
 C1268 C 0.08005 1.02298 0.63203
 C1269 C 0.06526 1.02457 0.61129
 C1270 C 0.07467 1.02186 0.58853
 C1271 C 0.06117 1.02102 0.56864
 C1272 C 0.03781 1.02289 0.57111
 C1273 C 0.02841 1.02600 0.59383
 C1274 C 0.04194 1.02687 0.61375
 C1275 C 0.02285 1.01908 0.55099
 C1276 C 0.02999 1.01986 0.52729
 H1277 H 0.09651 1.01569 0.62927
 H1278 H 0.09255 1.01975 0.58620
 H1279 H 0.06915 1.01785 0.55163
 H1280 H 0.01047 1.02710 0.59627
 H1281 H 0.03397 1.02837 0.63103
 H1282 H 0.00611 1.01365 0.55516
 H1283 H 0.05893 1.04041 0.65694
 H1284 H 0.04597 1.02676 0.52287
 C1285 C -0.07241 0.47521 0.67601
 C1286 C -0.07731 0.46289 0.65598
 C1287 C -0.06282 0.46195 0.63439
 C1288 C -0.07225 0.45555 0.61296
 C1289 C -0.05995 0.45652 0.59167
 C1290 C -0.03789 0.46397 0.59140
 C1291 C -0.02799 0.46894 0.61302
 C1292 C -0.04027 0.46795 0.63432
 C1293 C -0.02504 0.46786 0.56908
 C1294 C -0.03508 0.47189 0.54722
 H1295 H -0.09322 0.45482 0.65528
 H1296 H -0.08943 0.45041 0.61256
 H1297 H -0.06794 0.45166 0.57555
 H1298 H -0.01088 0.47433 0.61337
 H1299 H -0.03199 0.47213 0.65048
 H1300 H -0.00729 0.47047 0.57047
 H1301 H -0.05633 0.48277 0.67740
 H1302 H -0.05285 0.47027 0.54545
 C1303 C 0.41032 -0.02331 0.15744
 C1304 C 0.43257 -0.02302 0.14982
 C1305 C 0.43890 -0.02256 0.12427
 C1306 C 0.46040 -0.02956 0.11706
 C1307 C 0.46734 -0.02734 0.09327
 C1308 C 0.45286 -0.01787 0.07637
 C1309 C 0.43130 -0.01127 0.08354
 C1310 C 0.42437 -0.01353 0.10717
 C1311 C 0.46032 -0.01180 0.05207
 C1312 C 0.47906 -0.02080 0.04045
 H1313 H 0.44575 -0.02287 0.16267
 H1314 H 0.47200 -0.03626 0.12996
 H1315 H 0.48430 -0.03204 0.08850
 H1316 H 0.41998 -0.00358 0.07093
 H1317 H 0.40798 -0.00717 0.11207
 H1318 H 0.45125 0.00174 0.04363
 H1319 H 0.39768 -0.02643 0.14448
 H1320 H 0.48794 -0.03491 0.04799
 C1321 C 0.34371 0.42068 0.02704
 C1322 C 0.35065 0.44126 0.01839
 C1323 C 0.37442 0.44712 0.01631
 C1324 C 0.38015 0.46953 0.01562
 C1325 C 0.40233 0.47564 0.01206
 C1326 C 0.41917 0.45935 0.00892
 C1327 C 0.41342 0.43697 0.00939
 C1328 C 0.39130 0.43086 0.01310
 C1329 C 0.44253 0.46507 0.00353
 C1330 C 0.45195 0.48485 0.01030
 H1331 H 0.33854 0.45332 0.01197
 H1332 H 0.36739 0.48236 0.01755
 H1333 H 0.40605 0.49309 0.01100
 H1334 H 0.42606 0.42415 0.00660
 H1335 H 0.38746 0.41346 0.01256
 H1336 H 0.45257 0.45309 -0.00617
 H1337 H 0.35602 0.40925 0.03435
 H1338 H 0.44237 0.49642 0.02105
 C1339 C -0.16456 0.94086 0.48813
 C1340 C -0.14389 0.93382 0.49687
 C1341 C -0.12319 0.94676 0.49490
 C1342 C -0.10449 0.93905 0.50741
 C1343 C -0.08420 0.94986 0.50533
 C1344 C -0.08215 0.96886 0.49071
 C1345 C -0.10086 0.97661 0.47822
 C1346 C -0.12117 0.96571 0.48021
 C1347 C -0.06067 0.98020 0.48690
 C1348 C -0.04172 0.97577 0.50032
 H1349 H -0.14275 0.91805 0.50619
 H1350 H -0.10547 0.92434 0.51862
 H1351 H -0.07020 0.94278 0.51477
 H1352 H -0.09968 0.99101 0.46657
 H1353 H -0.13491 0.97198 0.46977
 H1354 H -0.05954 0.99209 0.47234
 H1355 H -0.16670 0.95753 0.48116
 H1356 H -0.04247 0.96505 0.51583
 C1357 C -0.16102 0.06104 0.98912
 C1358 C -0.13967 0.06995 0.99036
 C1359 C -0.11906 0.05616 0.99020
 C1360 C -0.10064 0.06340 1.00274
 C1361 C -0.08062 0.05127 1.00241
 C1362 C -0.07851 0.03172 0.98924
 C1363 C -0.09677 0.02467 0.97628
 C1364 C -0.11697 0.03666 0.97692
 C1365 C -0.05702 0.01945 0.98763
 C1366 C -0.04214 0.01881 1.00637
 H1367 H -0.13757 0.08732 0.99385
 H1368 H -0.10175 0.07855 1.01281
 H1369 H -0.06661 0.05758 1.01191
 H1370 H -0.09535 0.00990 0.96565
 H1371 H -0.13070 0.03101 0.96652
 H1372 H -0.05269 0.01116 0.97120
 H1373 H -0.16202 0.04312 0.98903
 H1374 H -0.04754 0.02511 1.02344
 C1375 C 0.32238 0.55577 0.52098
 C1376 C 0.33424 0.55049 0.50021
 C1377 C 0.35812 0.54388 0.50026
 C1378 C 0.36705 0.53158 0.48128
 C1379 C 0.38978 0.52602 0.48028
 C1380 C 0.40402 0.53289 0.49821
 C1381 C 0.39517 0.54548 0.51696
 C1382 C 0.37247 0.55092 0.51804
 C1383 C 0.42819 0.52790 0.49760
 C1384 C 0.43744 0.50909 0.48696
 H1385 H 0.32623 0.55212 0.48318
 H1386 H 0.35641 0.52635 0.46714
 H1387 H 0.39619 0.51685 0.46519
 H1388 H 0.40589 0.55118 0.53082
 H1389 H 0.36643 0.56118 0.53246
 H1390 H 0.43882 0.53869 0.50733
 H1391 H 0.33037 0.55329 0.53793
 H1392 H 0.42675 0.49753 0.47840
 C1393 C 0.14585 0.57124 0.52941
 C1394 C 0.14079 0.54984 0.52233
 C1395 C 0.11767 0.54292 0.51807
 C1396 C 0.11253 0.52034 0.51948
 C1397 C 0.09107 0.51326 0.51444
 C1398 C 0.07444 0.52869 0.50763
 C1399 C 0.07967 0.55119 0.50593
 C1400 C 0.10101 0.55828 0.51110
 C1401 C 0.05172 0.52213 0.50144
 C1402 C 0.04133 0.50327 0.51052
 H1403 H 0.15396 0.53771 0.51923
 H1404 H 0.12519 0.50816 0.52439
 H1405 H 0.08775 0.49571 0.51533
 H1406 H 0.06718 0.56337 0.50049
 H1407 H 0.10449 0.57570 0.50890
 H1408 H 0.04217 0.53375 0.49069
 H1409 H 0.13222 0.58253 0.53389
 H1410 H 0.05027 0.49195 0.52218
 C1411 C 0.66392 0.06998 0.01308
 C1412 C 0.65584 0.05183 0.00109
 C1413 C 0.63181 0.04692 0.00055
 C1414 C 0.62511 0.02504 -0.00257
 C1415 C 0.60250 0.02018 -0.00427
 C1416 C 0.58625 0.03726 -0.00327
 C1417 C 0.59296 0.05915 -0.00055
 C1418 C 0.61550 0.06397 0.00152
 C1419 C 0.56236 0.03299 -0.00620
 C1420 C 0.55233 0.01350 0.00158
 H1421 H 0.66739 0.04070 -0.00798
 H1422 H 0.63741 0.01171 -0.00378
 H1423 H 0.59784 0.00321 -0.00708
 H1424 H 0.58071 0.07258 -0.00008
 H1425 H 0.62011 0.08111 0.00313
 H1426 H 0.55224 0.04614 -0.01396
 H1427 H 0.65268 0.07908 0.02482
 H1428 H 0.56220 0.00071 0.01034
 C1429 C 0.66135 0.92849 0.49236
 C1430 C 0.64624 0.93090 0.47391
 C1431 C 0.62292 0.93811 0.47850
 C1432 C 0.61164 0.95114 0.46154
 C1433 C 0.58971 0.95850 0.46594
 C1434 C 0.57866 0.95259 0.48728
 C1435 C 0.58966 0.93884 0.50377
 C1436 C 0.61160 0.93174 0.49951
 C1437 C 0.55571 0.96024 0.49291
 C1438 C 0.54714 0.98072 0.48534
 H1439 H 0.65176 0.92855 0.45570
 H1440 H 0.61993 0.95591 0.44505
 H1441 H 0.58140 0.96856 0.45257
 H1442 H 0.58134 0.93384 0.52017
 H1443 H 0.61961 0.92108 0.51258
 H1444 H 0.54615 0.95032 0.50537
 H1445 H 0.65620 0.93384 0.50994
 H1446 H 0.55722 0.99141 0.47413
 C1447 C 0.17117 0.44288 0.99885
 C1448 C 0.14983 0.43491 1.00363
 C1449 C 0.12914 0.44863 1.00300
 C1450 C 0.10876 0.43786 1.00132
 C1451 C 0.08867 0.44988 1.00176
 C1452 C 0.08853 0.47305 1.00395
 C1453 C 0.10888 0.48385 1.00604
 C1454 C 0.12906 0.47179 1.00546
 C1455 C 0.06738 0.48602 1.00519
 C1456 C 0.04804 0.47897 0.99449
 H1457 H 0.14797 0.41736 1.00719
 H1458 H 0.10834 0.41999 0.99986
 H1459 H 0.07329 0.44087 1.00103
 H1460 H 0.10915 0.50164 1.00817
 H1461 H 0.14441 0.48058 1.00756
 H1462 H 0.06715 0.50159 1.01451
 H1463 H 0.17320 0.45962 0.99216
 H1464 H 0.04870 0.46452 0.98334
 C1465 C -0.01162 0.32450 0.44947
 C1466 C -0.02459 0.34392 0.44707
 C1467 C -0.02071 0.36427 0.46079
 C1468 C -0.03769 0.38058 0.46225
 C1469 C -0.03393 0.40090 0.47300
 C1470 C -0.01295 0.40538 0.48245
 C1471 C 0.00390 0.38896 0.48129
 C1472 C 0.00013 0.36865 0.47062
 C1473 C -0.00725 0.42752 0.49135
 C1474 C -0.02293 0.44393 0.49750
 H1475 H -0.03768 0.34482 0.43415
 H1476 H -0.05379 0.37778 0.45453
 H1477 H -0.04719 0.41329 0.47291
 H1478 H 0.02031 0.39209 0.48809
 H1479 H 0.01394 0.35694 0.46922
 H1480 H 0.01029 0.43138 0.49204
 H1481 H 0.00042 0.32347 0.46355
 H1482 H -0.04042 0.44009 0.49885
 C1483 C 0.48878 -0.16326 -0.05741
 C1484 C 0.47642 -0.14462 -0.06494
 C1485 C 0.47900 -0.12205 -0.05548
 C1486 C 0.47358 -0.10397 -0.07037
 C1487 C 0.47689 -0.08234 -0.06309
 C1488 C 0.48524 -0.07818 -0.04054
 C1489 C 0.48992 -0.09615 -0.02511
 C1490 C 0.48689 -0.11797 -0.03256
 C1491 C 0.49024 -0.05504 -0.03474
 C1492 C 0.49006 -0.04643 -0.01184
 H1493 H 0.46639 -0.14583 -0.08062
 H1494 H 0.46733 -0.10659 -0.08803
 H1495 H 0.47313 -0.06876 -0.07528
 H1496 H 0.49659 -0.09344 -0.00768
 H1497 H 0.49078 -0.13150 -0.02043
 H1498 H 0.49319 -0.04389 -0.04968
 H1499 H 0.50051 -0.16162 -0.04318
 H1500 H 0.48614 -0.05686 0.00339
 C1501 C 0.02148 -0.15683 1.08485
 C1502 C 0.02108 -0.14947 1.06115
 C1503 C 0.02084 -0.12558 1.05429
 C1504 C 0.02742 -0.11918 1.03114
 C1505 C 0.02691 -0.09679 1.02407
 C1506 C 0.01958 -0.08038 1.04005
 C1507 C 0.01299 -0.08683 1.06312
 C1508 C 0.01339 -0.10909 1.07012
 C1509 C 0.01833 -0.05646 1.03380
 C1510 C 0.01844 -0.04766 1.01068
 H1511 H 0.02073 -0.16141 1.04704
 H1512 H 0.03310 -0.13154 1.01854
 H1513 H 0.03243 -0.09250 1.00624
 H1514 H 0.00710 -0.07457 1.07575
 H1515 H 0.00730 -0.11318 1.08779
 H1516 H 0.01566 -0.04514 1.04839
 H1517 H 0.02271 -0.14475 1.09873
 H1518 H 0.02032 -0.05830 0.99549
 C1519 C 0.49627 0.33141 0.55353
 C1520 C 0.50648 0.35083 0.56036
 C1521 C 0.50875 0.37082 0.54503
 C1522 C 0.52521 0.38601 0.55044
 C1523 C 0.52662 0.40615 0.53810
 C1524 C 0.51141 0.41179 0.52023
 C1525 C 0.49530 0.39627 0.51419
 C1526 C 0.49402 0.37594 0.52647
 C1527 C 0.51172 0.43475 0.51048
 C1528 C 0.49739 0.44343 0.49321
 H1529 H 0.51403 0.35115 0.57770
 H1530 H 0.53675 0.38249 0.56467
 H1531 H 0.53920 0.41773 0.54317
 H1532 H 0.48312 0.39994 0.50072
 H1533 H 0.48087 0.36477 0.52212
 H1534 H 0.52255 0.44608 0.51924
 H1535 H 0.49124 0.32951 0.53531
 H1536 H 0.48675 0.43277 0.48339
 C1537 C 0.51236 1.16432 0.57170
 C1538 C 0.49562 1.15040 0.56412
 C1539 C 0.50015 1.12851 0.55319
 C1540 C 0.48345 1.11882 0.53985
 C1541 C 0.48659 1.09761 0.53048
 C1542 C 0.50655 1.08559 0.53441
 C1543 C 0.52324 1.09531 0.54771
 C1544 C 0.52014 1.11651 0.55699
 C1545 C 0.50996 1.06237 0.52674
 C1546 C 0.49741 1.05214 0.50948
 H1547 H 0.47839 1.15596 0.56561
 H1548 H 0.46778 1.12758 0.53694
 H1549 H 0.47305 1.09051 0.52093
 H1550 H 0.53862 1.08627 0.55132
 H1551 H 0.53315 1.12304 0.56777
 H1552 H 0.52280 1.05267 0.53565
 H1553 H 0.52960 1.16020 0.56749
 H1554 H 0.48523 1.06153 0.49936
 C1555 C 0.01816 0.67067 1.05304
 C1556 C 0.00116 0.65651 1.04657
 C1557 C 0.00526 0.63460 1.03540
 C1558 C -0.01271 0.62371 1.02537
 C1559 C -0.01009 0.60216 1.01674
 C1560 C 0.01069 0.59099 1.01796
 C1561 C 0.02874 0.60207 1.02753
 C1562 C 0.02611 0.62355 1.03620
 C1563 C 0.01390 0.56734 1.01164
 C1564 C -0.00170 0.55471 0.99997
 H1565 H -0.01601 0.66140 1.04998
 H1566 H -0.02902 0.63171 1.02474
 H1567 H -0.02459 0.59420 1.00999
 H1568 H 0.04487 0.59380 1.02897
 H1569 H 0.04030 0.63093 1.04433
 H1570 H 0.02904 0.55915 1.01770
 H1571 H 0.03505 0.66706 1.04705
 H1572 H -0.01643 0.56244 0.99248
 C1573 C 0.50566 0.66143 -0.08408
 C1574 C 0.50736 0.65404 -0.06049
 C1575 C 0.50555 0.63025 -0.05376
 C1576 C 0.51604 0.62205 -0.03321
 C1577 C 0.51477 0.59958 -0.02674
 C1578 C 0.50269 0.58496 -0.04063
 C1579 C 0.49194 0.59328 -0.06090
 C1580 C 0.49316 0.61564 -0.06730
 C1581 C 0.50133 0.56092 -0.03526
 C1582 C 0.50541 0.55115 -0.01308
 H1583 H 0.51075 0.66560 -0.04660
 H1584 H 0.52557 0.63299 -0.02239
 H1585 H 0.52364 0.59373 -0.01123
 H1586 H 0.48239 0.58242 -0.07181
 H1587 H 0.48410 0.62141 -0.08272
 H1588 H 0.49599 0.55045 -0.04947
 H1589 H 0.50438 0.64911 -0.09774
 H1590 H 0.50946 0.56121 0.00191
 C1591 C 0.00478 1.16030 0.42587
 C1592 C 0.02252 1.14479 0.42437
 C1593 C 0.02126 1.12173 0.43376
 C1594 C 0.03517 1.10546 0.42339
 C1595 C 0.03407 1.08336 0.43087
 C1596 C 0.01931 1.07700 0.44920
 C1597 C 0.00575 1.09331 0.46014
 C1598 C 0.00676 1.11549 0.45253
 C1599 C 0.01787 1.05314 0.45536
 C1600 C 0.00976 1.04478 0.47706
 H1601 H 0.03746 1.14858 0.41431
 H1602 H 0.04662 1.10979 0.40904
 H1603 H 0.04473 1.07114 0.42217
 H1604 H -0.00602 1.08898 0.47413
 H1605 H -0.00377 1.12761 0.46146
 H1606 H 0.02446 1.04157 0.44236
 H1607 H -0.01015 1.15513 0.43534
 H1608 H 0.00435 1.05587 0.49101
 C1609 C 0.77186 0.69583 0.91786
 C1610 C 0.78783 0.69228 0.89987
 C1611 C 0.78833 0.70579 0.87776
 C1612 C 0.79565 0.69585 0.85657
 C1613 C 0.79382 0.70724 0.83488
 C1614 C 0.78471 0.72888 0.83407
 C1615 C 0.77902 0.73940 0.85545
 C1616 C 0.78076 0.72798 0.87712
 C1617 C 0.77968 0.74047 0.81143
 C1618 C 0.77441 0.72918 0.79089
 H1619 H 0.79811 0.67735 0.90034
 H1620 H 0.80198 0.67892 0.85668
 H1621 H 0.79922 0.69892 0.81883
 H1622 H 0.77235 0.75621 0.85531
 H1623 H 0.77582 0.73645 0.89323
 H1624 H 0.77689 0.75825 0.81188
 H1625 H 0.76000 0.70946 0.91599
 H1626 H 0.77595 0.71133 0.79042
 C1627 C 0.28158 0.19083 0.42583
 C1628 C 0.26664 0.20571 0.41512
 C1629 C 0.27180 0.21873 0.39336
 C1630 C 0.25873 0.23767 0.38833
 C1631 C 0.26077 0.24861 0.36642
 C1632 C 0.27554 0.24053 0.34886
 C1633 C 0.28950 0.22221 0.35427
 C1634 C 0.28765 0.21140 0.37637
 C1635 C 0.27428 0.25042 0.32472
 C1636 C 0.27762 0.23794 0.30422
 H1637 H 0.25002 0.20754 0.42278
 H1638 H 0.24637 0.24359 0.40112
 H1639 H 0.24988 0.26273 0.36272
 H1640 H 0.30143 0.21586 0.34131
 H1641 H 0.29780 0.19667 0.37957
 H1642 H 0.26626 0.26660 0.32311
 H1643 H 0.29906 0.19086 0.42071
 H1644 H 0.28542 0.22170 0.30539
 C1645 C 0.72981 0.31179 0.42493
 C1646 C 0.72129 0.31528 0.40218
 C1647 C 0.72566 0.29986 0.38231
 C1648 C 0.74396 0.28493 0.38234
 C1649 C 0.74916 0.27236 0.36232
 C1650 C 0.73628 0.27436 0.34183
 C1651 C 0.71771 0.28896 0.34186
 C1652 C 0.71253 0.30162 0.36193
 C1653 C 0.74413 0.26267 0.32029
 C1654 C 0.73108 0.25898 0.30050
 H1655 H 0.71148 0.33011 0.39844
 H1656 H 0.75498 0.28354 0.39730
 H1657 H 0.76373 0.26147 0.36262
 H1658 H 0.70774 0.29141 0.32618
 H1659 H 0.69855 0.31324 0.36131
 H1660 H 0.76144 0.25716 0.31983
 H1661 H 0.73686 0.29569 0.42954
 H1662 H 0.71335 0.26250 0.30106
 C1663 C 0.23459 0.81216 0.92115
 C1664 C 0.22360 0.81972 0.90078
 C1665 C 0.21842 0.80576 0.88019
 C1666 C 0.20790 0.81584 0.86059
 C1667 C 0.20490 0.80413 0.83969
 C1668 C 0.21245 0.78202 0.83798
 C1669 C 0.22163 0.77151 0.85804
 C1670 C 0.22473 0.78321 0.87888
 C1671 C 0.21323 0.77004 0.81525
 C1672 C 0.21604 0.78093 0.79337
 H1673 H 0.21895 0.83711 0.89949
 H1674 H 0.20258 0.83308 0.86116
 H1675 H 0.19713 0.81261 0.82484
 H1676 H 0.22749 0.75444 0.85721
 H1677 H 0.23273 0.77457 0.89343
 H1678 H 0.21684 0.75239 0.81619
 H1679 H 0.23760 0.79467 0.92420
 H1680 H 0.21260 0.79848 0.79185
 C1681 C 0.25743 0.83253 0.09871
 C1682 C 0.27547 0.82881 0.11381
 C1683 C 0.27212 0.82047 0.13844
 C1684 C 0.28837 0.80661 0.14891
 C1685 C 0.28494 0.79777 0.17181
 C1686 C 0.26523 0.80289 0.18468
 C1687 C 0.24957 0.81764 0.17459
 C1688 C 0.25294 0.82633 0.15175
 C1689 C 0.25988 0.79311 0.20831
 C1690 C 0.27017 0.77409 0.21784
 H1691 H 0.29241 0.83067 0.10740
 H1692 H 0.30350 0.80223 0.13915
 H1693 H 0.29773 0.78700 0.17921
 H1694 H 0.23442 0.82218 0.18425
 H1695 H 0.24049 0.83770 0.14460
 H1696 H 0.24576 0.80033 0.21788
 H1697 H 0.24111 0.82775 0.10532
 H1698 H 0.28399 0.76603 0.20867
 C1699 C 0.76927 0.34787 0.59679
 C1700 C 0.76094 0.35508 0.61882
 C1701 C 0.76484 0.34313 0.64159
 C1702 C 0.76003 0.35418 0.66287
 C1703 C 0.76034 0.34274 0.68459
 C1704 C 0.76548 0.31999 0.68555
 C1705 C 0.77127 0.30904 0.66437
 C1706 C 0.77092 0.32050 0.64259
 C1707 C 0.76145 0.30786 0.70816
 C1708 C 0.76896 0.28624 0.71282
 H1709 H 0.75105 0.37021 0.61981
 H1710 H 0.75520 0.37157 0.66262
 H1711 H 0.75566 0.35152 0.70063
 H1712 H 0.77472 0.29140 0.66425
 H1713 H 0.77416 0.31121 0.62658
 H1714 H 0.75013 0.31571 0.72074
 H1715 H 0.78199 0.33490 0.59666
 H1716 H 0.78122 0.27840 0.70123
 C1717 C 0.23132 0.15480 0.60049
 C1718 C 0.22788 0.17681 0.60710
 C1719 C 0.22576 0.18388 0.63215
 C1720 C 0.21742 0.20526 0.63690
 C1721 C 0.21719 0.21342 0.66001
 C1722 C 0.22536 0.20027 0.67892
 C1723 C 0.23310 0.17866 0.67427
 C1724 C 0.23339 0.17054 0.65117
 C1725 C 0.22873 0.20917 0.70292
 C1726 C 0.22063 0.22978 0.71042
 H1727 H 0.22650 0.18952 0.59341
 H1728 H 0.21162 0.21594 0.62256
 H1729 H 0.21154 0.23032 0.66258
 H1730 H 0.23975 0.16829 0.68844
 H1731 H 0.24052 0.15420 0.64834
 H1732 H 0.24001 0.19993 0.71435
 H1733 H 0.22989 0.14180 0.61382
 H1734 H 0.20820 0.23885 0.70033
 C1735 C 0.73210 0.65606 0.09226
 C1736 C 0.73305 0.67774 0.10069
 C1737 C 0.73122 0.68305 0.12625
 C1738 C 0.72544 0.70477 0.13280
 C1739 C 0.72584 0.71102 0.15658
 C1740 C 0.73214 0.69558 0.17433
 C1741 C 0.73734 0.67373 0.16785
 C1742 C 0.73695 0.66748 0.14409
 C1743 C 0.73641 0.70224 0.19896
 C1744 C 0.72913 0.72232 0.20861
 H1745 H 0.73478 0.69162 0.08851
 H1746 H 0.72122 0.71713 0.11937
 H1747 H 0.72232 0.72818 0.16068
 H1748 H 0.74258 0.66163 0.18114
 H1749 H 0.74220 0.65076 0.13977
 H1750 H 0.74753 0.69163 0.20922
 H1751 H 0.72710 0.64333 0.10492
 H1752 H 0.71675 0.73253 0.19968
 C1753 C 0.17255 0.59272 0.23828
 C1754 C 0.19448 0.59775 0.24366
 C1755 C 0.20120 0.62082 0.24770
 C1756 C 0.22335 0.62695 0.24336
 C1757 C 0.23001 0.64864 0.24750
 C1758 C 0.21456 0.66448 0.25630
 C1759 C 0.19259 0.65815 0.26114
 C1760 C 0.18596 0.63660 0.25695
 C1761 C 0.22055 0.68748 0.26154
 C1762 C 0.23920 0.69814 0.25214
 H1763 H 0.20690 0.58466 0.24569
 H1764 H 0.23549 0.61494 0.23670
 H1765 H 0.24726 0.65272 0.24422
 H1766 H 0.18047 0.66993 0.26828
 H1767 H 0.16900 0.63228 0.26153
 H1768 H 0.20900 0.69675 0.27271
 H1769 H 0.16076 0.60622 0.23518
 H1770 H 0.25054 0.68961 0.24010
 C1771 C 0.70137 0.08787 0.72827
 C1772 C 0.69397 0.10903 0.72090
 C1773 C 0.70774 0.12908 0.72141
 C1774 C 0.70049 0.14796 0.70867
 C1775 C 0.71137 0.16803 0.71070
 C1776 C 0.72968 0.16964 0.72573
 C1777 C 0.73760 0.15059 0.73768
 C1778 C 0.72664 0.13050 0.73574
 C1779 C 0.73998 0.19111 0.73023
 C1780 C 0.72727 0.21067 0.73133
 H1781 H 0.67742 0.11142 0.71394
 H1782 H 0.68601 0.14733 0.69747
 H1783 H 0.70525 0.18230 0.70075
 H1784 H 0.75169 0.15151 0.74939
 H1785 H 0.73248 0.11650 0.74627
 H1786 H 0.75715 0.19108 0.73591
 H1787 H 0.71906 0.08544 0.73112
 H1788 H 0.70973 0.21053 0.72723
 C1789 C 0.81766 0.07406 0.23360
 C1790 C 0.80973 0.08726 0.25221
 C1791 C 0.80131 0.11028 0.24862
 C1792 C 0.78759 0.11998 0.26621
 C1793 C 0.78063 0.14217 0.26417
 C1794 C 0.78745 0.15515 0.24449
 C1795 C 0.80120 0.14547 0.22696
 C1796 C 0.80804 0.12328 0.22893
 C1797 C 0.78195 0.17907 0.24244
 C1798 C 0.76361 0.18917 0.25369
 H1799 H 0.80958 0.08059 0.27016
 H1800 H 0.78251 0.11043 0.28176
 H1801 H 0.77061 0.14923 0.27842
 H1802 H 0.80694 0.15522 0.21183
 H1803 H 0.81923 0.11669 0.21541
 H1804 H 0.79298 0.18900 0.23155
 H1805 H 0.81499 0.07962 0.21548
 H1806 H 0.75186 0.17918 0.26366
 C1807 C 0.30539 0.59137 0.74275
 C1808 C 0.30869 0.60942 0.75747
 C1809 C 0.29629 0.63076 0.75510
 C1810 C 0.29481 0.64474 0.77477
 C1811 C 0.28369 0.66525 0.77320
 C1812 C 0.27406 0.67232 0.75171
 C1813 C 0.27543 0.65830 0.73208
 C1814 C 0.28655 0.63779 0.73364
 C1815 C 0.26260 0.69410 0.74896
 C1816 C 0.26631 0.71207 0.76360
 H1817 H 0.32056 0.60805 0.77164
 H1818 H 0.30217 0.63970 0.79149
 H1819 H 0.28252 0.67528 0.78893
 H1820 H 0.26820 0.66339 0.71530
 H1821 H 0.28787 0.62786 0.71785
 H1822 H 0.25211 0.69654 0.73363
 H1823 H 0.29313 0.59281 0.72893
 H1824 H 0.27766 0.71054 0.77825
 C1825 C 0.29562 0.42300 0.73802
 C1826 C 0.30389 0.40169 0.73318
 C1827 C 0.28974 0.38203 0.73156
 C1828 C 0.29826 0.36349 0.71944
 C1829 C 0.28641 0.34386 0.71924
 C1830 C 0.26589 0.34230 0.73150
 C1831 C 0.25693 0.36106 0.74286
 C1832 C 0.26879 0.38075 0.74306
 C1833 C 0.25412 0.32113 0.73379
 C1834 C 0.26567 0.30088 0.73491
 H1835 H 0.32143 0.39911 0.72925
 H1836 H 0.31431 0.36410 0.71036
 H1837 H 0.29348 0.32990 0.70968
 H1838 H 0.24114 0.36020 0.75244
 H1839 H 0.26190 0.39453 0.75302
 H1840 H 0.23639 0.32166 0.73780
 H1841 H 0.27772 0.42577 0.73818
 H1842 H 0.28357 0.30031 0.73245
 C1843 C 0.84162 0.89846 0.22880
 C1844 C 0.81956 0.89211 0.23244
 C1845 C 0.81288 0.86860 0.23371
 C1846 C 0.79039 0.86349 0.23078
 C1847 C 0.78327 0.84163 0.23308
 C1848 C 0.79861 0.82438 0.23843
 C1849 C 0.82106 0.82953 0.24141
 C1850 C 0.82814 0.85134 0.23917
 C1851 C 0.79194 0.80114 0.24250
 C1852 C 0.77113 0.79288 0.23700
 H1853 H 0.80668 0.90466 0.23516
 H1854 H 0.77823 0.87651 0.22693
 H1855 H 0.76572 0.83858 0.23126
 H1856 H 0.83317 0.81664 0.24589
 H1857 H 0.84546 0.85451 0.24253
 H1858 H 0.80404 0.79016 0.25078
 H1859 H 0.85436 0.88593 0.22545
 H1860 H 0.75905 0.80322 0.22784
 C1861 C 0.68590 0.91978 0.76349
 C1862 C 0.69797 0.90665 0.74724
 C1863 C 0.70467 0.88323 0.75202
 C1864 C 0.72071 0.87328 0.73698
 C1865 C 0.72688 0.85101 0.74001
 C1866 C 0.71720 0.83815 0.75837
 C1867 C 0.70101 0.84801 0.77329
 C1868 C 0.69474 0.87027 0.77017
 C1869 C 0.72239 0.81421 0.76144
 C1870 C 0.74104 0.80384 0.75117
 H1871 H 0.70296 0.91341 0.73016
 H1872 H 0.72833 0.88270 0.72257
 H1873 H 0.73876 0.84393 0.72747
 H1874 H 0.69295 0.83836 0.78723
 H1875 H 0.68169 0.87688 0.78164
 H1876 H 0.71096 0.80449 0.77209
 H1877 H 0.68250 0.91292 0.78099
 H1878 H 0.75396 0.81370 0.74296
 C1879 C 0.18786 0.41721 0.25633
 C1880 C 0.18958 0.39985 0.24019
 C1881 C 0.19903 0.37767 0.24634
 C1882 C 0.20631 0.36374 0.22793
 C1883 C 0.21449 0.34237 0.23290
 C1884 C 0.21554 0.33445 0.25650
 C1885 C 0.20787 0.34820 0.27488
 C1886 C 0.19972 0.36960 0.26992
 C1887 C 0.22359 0.31173 0.26246
 C1888 C 0.23779 0.29954 0.24753
 H1889 H 0.18426 0.40250 0.22211
 H1890 H 0.20552 0.36936 0.20959
 H1891 H 0.21942 0.33200 0.21813
 H1892 H 0.20811 0.34234 0.29316
 H1893 H 0.19348 0.37946 0.28456
 H1894 H 0.21854 0.30457 0.27942
 H1895 H 0.19557 0.41514 0.27347
 H1896 H 0.24425 0.30692 0.23127
 C1897 C 0.07454 0.27073 0.81367
 C1898 C 0.08909 0.25412 0.80523
 C1899 C 0.11122 0.25864 0.79420
 C1900 C 0.12228 0.24185 0.78130
 C1901 C 0.14398 0.24479 0.77241
 C1902 C 0.15511 0.26466 0.77635
 C1903 C 0.14393 0.28153 0.78895
 C1904 C 0.12229 0.27861 0.79781
 C1905 C 0.17886 0.26779 0.76972
 C1906 C 0.19119 0.25428 0.75417
 H1907 H 0.08422 0.23700 0.80673
 H1908 H 0.11427 0.22620 0.77852
 H1909 H 0.15214 0.23113 0.76333
 H1910 H 0.15221 0.29689 0.79253
 H1911 H 0.11476 0.29174 0.80825
 H1912 H 0.18733 0.28103 0.77843
 H1913 H 0.07806 0.28786 0.80944
 H1914 H 0.18319 0.24159 0.74423
 C1915 C 0.58883 0.75744 0.32207
 C1916 C 0.60192 0.74005 0.31290
 C1917 C 0.62477 0.74332 0.30320
 C1918 C 0.63391 0.72829 0.28670
 C1919 C 0.65589 0.73042 0.27825
 C1920 C 0.66919 0.74755 0.28643
 C1921 C 0.66006 0.76246 0.30299
 C1922 C 0.63813 0.76044 0.31126
 C1923 C 0.69301 0.74959 0.27969
 C1924 C 0.70300 0.74070 0.25925
 H1925 H 0.59518 0.72358 0.31237
 H1926 H 0.62407 0.71475 0.28050
 H1927 H 0.66257 0.71826 0.26599
 H1928 H 0.67007 0.77559 0.30985
 H1929 H 0.63199 0.77189 0.32457
 H1930 H 0.70320 0.75893 0.29152
 H1931 H 0.59448 0.77425 0.31960
 H1932 H 0.69308 0.73258 0.24625
 C1933 C 0.58347 0.23935 0.19924
 C1934 C 0.60401 0.24894 0.19391
 C1935 C 0.62373 0.24709 0.20942
 C1936 C 0.64099 0.26221 0.20597
 C1937 C 0.66066 0.26012 0.21885
 C1938 C 0.66356 0.24274 0.23553
 C1939 C 0.64619 0.22775 0.23917
 C1940 C 0.62645 0.22989 0.22633
 C1941 C 0.68518 0.23837 0.24732
 C1942 C 0.70186 0.25410 0.24881
 H1943 H 0.60560 0.25894 0.17786
 H1944 H 0.63946 0.27544 0.19286
 H1945 H 0.67382 0.27162 0.21482
 H1946 H 0.64812 0.21398 0.25159
 H1947 H 0.61381 0.21755 0.22909
 H1948 H 0.68876 0.22157 0.25337
 H1949 H 0.58071 0.23171 0.21653
 H1950 H 0.69818 0.27114 0.24404
 C1951 C 0.08146 0.73902 0.68919
 C1952 C 0.10201 0.74775 0.68237
 C1953 C 0.12151 0.74821 0.69807
 C1954 C 0.13789 0.76403 0.69349
 C1955 C 0.15726 0.76421 0.70688
 C1956 C 0.16076 0.74835 0.72507
 C1957 C 0.14440 0.73248 0.72965
 C1958 C 0.12486 0.73246 0.71640
 C1959 C 0.18211 0.74678 0.73782
 C1960 C 0.19596 0.76485 0.74037
 H1961 H 0.10361 0.75566 0.66504
 H1962 H 0.13583 0.77613 0.67925
 H1963 H 0.16980 0.77622 0.70225
 H1964 H 0.14691 0.71985 0.74328
 H1965 H 0.11284 0.71966 0.71999
 H1966 H 0.18755 0.73064 0.74441
 H1967 H 0.07862 0.73375 0.70744
 H1968 H 0.18995 0.78129 0.73558
 C1969 C 0.91253 0.74752 0.67225
 C1970 C 0.90193 0.73119 0.68609
 C1971 C 0.87828 0.73374 0.69385
 C1972 C 0.87081 0.72378 0.71518
 C1973 C 0.84844 0.72605 0.72262
 C1974 C 0.83314 0.73813 0.70858
 C1975 C 0.84057 0.74752 0.68698
 C1976 C 0.86282 0.74539 0.67969
 C1977 C 0.80929 0.74118 0.71513
 C1978 C 0.80003 0.73832 0.73793
 H1979 H 0.91100 0.71659 0.69216
 H1980 H 0.88234 0.71438 0.72619
 H1981 H 0.84321 0.71812 0.73908
 H1982 H 0.82909 0.75665 0.67565
 H1983 H 0.86774 0.75257 0.66271
 H1984 H 0.79852 0.74742 0.70119
 H1985 H 0.90351 0.76304 0.66947
 H1986 H 0.81018 0.73281 0.75264
 C1987 C 0.41521 0.24304 0.18839
 C1988 C 0.40279 0.22415 0.19366
 C1989 C 0.38053 0.22476 0.20561
 C1990 C 0.36615 0.20709 0.20217
 C1991 C 0.34455 0.20749 0.21185
 C1992 C 0.33691 0.22538 0.22559
 C1993 C 0.35154 0.24275 0.22986
 C1994 C 0.37315 0.24242 0.22002
 C1995 C 0.31311 0.22626 0.23307
 C1996 C 0.30431 0.23983 0.25096
 H1997 H 0.40900 0.20819 0.18776
 H1998 H 0.37142 0.19319 0.19133
 H1999 H 0.33360 0.19393 0.20823
 H2000 H 0.34618 0.25700 0.24004
 H2001 H 0.38390 0.25607 0.22369
 H2002 H 0.30185 0.21634 0.22310
 H2003 H 0.40918 0.25901 0.19448
 H2004 H 0.31526 0.24899 0.26209
 C2005 C 0.41992 0.74713 0.31440
 C2006 C 0.39866 0.75503 0.32087
 C2007 C 0.37864 0.75297 0.30605
 C2008 C 0.36006 0.76669 0.31096
 C2009 C 0.34025 0.76440 0.29867
 C2010 C 0.33854 0.74823 0.28107
 C2011 C 0.35713 0.73447 0.27612
 C2012 C 0.37704 0.73683 0.28840
 C2013 C 0.31709 0.74409 0.26934
 C2014 C 0.30001 0.76006 0.26793
 H2015 H 0.39661 0.76389 0.33737
 H2016 H 0.36072 0.77902 0.32471
 H2017 H 0.32612 0.77477 0.30378
 H2018 H 0.35612 0.72162 0.26298
 H2019 H 0.39078 0.72551 0.28456
 H2020 H 0.31422 0.72759 0.26289
 H2021 H 0.42286 0.74078 0.29672
 H2022 H 0.30334 0.77672 0.27325
 C2023 C 0.90311 0.25148 0.83066
 C2024 C 0.89762 0.25917 0.80791
 C2025 C 0.87541 0.25541 0.79774
 C2026 C 0.86622 0.27098 0.78172
 C2027 C 0.84476 0.26824 0.77288
 C2028 C 0.83227 0.24962 0.77968
 C2029 C 0.84190 0.23369 0.79498
 C2030 C 0.86322 0.23648 0.80384
 C2031 C 0.80886 0.24649 0.77262
 C2032 C 0.79716 0.25979 0.75635
 H2033 H 0.90912 0.26949 0.79798
 H2034 H 0.87540 0.28561 0.77658
 H2035 H 0.83799 0.28100 0.76128
 H2036 H 0.83278 0.21910 0.80038
 H2037 H 0.87008 0.22373 0.81545
 H2038 H 0.80000 0.23324 0.78161
 H2039 H 0.89032 0.24363 0.84146
 H2040 H 0.80530 0.27284 0.74638
 C2041 C 0.59804 0.99426 0.64956
 C2042 C 0.57921 0.98212 0.64391
 C2043 C 0.57104 0.98094 0.61914
 C2044 C 0.55665 0.96392 0.61290
 C2045 C 0.54868 0.96260 0.58967
 C2046 C 0.55513 0.97827 0.57229
 C2047 C 0.56939 0.99522 0.57853
 C2048 C 0.57691 0.99682 0.60167
 C2049 C 0.54687 0.97844 0.54776
 C2050 C 0.52504 0.97325 0.54210
 H2051 H 0.57024 0.97304 0.65757
 H2052 H 0.55163 0.95160 0.62601
 H2053 H 0.53770 0.94930 0.58530
 H2054 H 0.57420 1.00777 0.56557
 H2055 H 0.58687 1.01095 0.60566
 H2056 H 0.55670 0.98754 0.53473
 H2057 H 0.60730 1.00180 0.63503
 H2058 H 0.51465 0.96471 0.55503
 C2059 C 0.06687 0.49246 1.16337
 C2060 C 0.05737 0.47305 1.15534
 C2061 C 0.04369 0.47378 1.13381
 C2062 C 0.04784 0.45864 1.11551
 C2063 C 0.03646 0.46081 1.09405
 C2064 C 0.02041 0.47786 1.09094
 C2065 C 0.01541 0.49212 1.10982
 C2066 C 0.02711 0.49027 1.13096
 C2067 C 0.00905 0.48185 1.06821
 C2068 C 0.01975 0.47923 1.04619
 H2069 H 0.06197 0.45705 1.16289
 H2070 H 0.06047 0.44570 1.11749
 H2071 H 0.04027 0.44929 1.07993
 H2072 H 0.00297 0.50525 1.10787
 H2073 H 0.02340 0.50190 1.14502
 H2074 H -0.00703 0.49034 1.06894
 H2075 H 0.06443 0.50731 1.15254
 H2076 H 0.03631 0.47184 1.04516
 C2077 C -0.05366 0.01144 1.16239
 C2078 C -0.04753 0.03231 1.15362
 C2079 C -0.03202 0.03404 1.13309
 C2080 C -0.03680 0.04888 1.11438
 C2081 C -0.02414 0.04821 1.09327
 C2082 C -0.00633 0.03282 1.09081
 C2083 C -0.00043 0.01942 1.11037
 C2084 C -0.01322 0.01991 1.13127
 C2085 C 0.00518 0.02864 1.06784
 C2086 C -0.00530 0.03168 1.04606
 H2087 H -0.05612 0.04722 1.15946
 H2088 H -0.05103 0.06017 1.11562
 H2089 H -0.02870 0.05932 1.07883
 H2090 H 0.01339 0.00765 1.10905
 H2091 H -0.00882 0.00875 1.14577
 H2092 H 0.02059 0.01899 1.06836
 H2093 H -0.04658 -0.00291 1.15341
 H2094 H -0.02058 0.04136 1.04503
 C2095 C 0.40728 0.50521 0.65247
 C2096 C 0.42207 0.52117 0.64378
 C2097 C 0.42904 0.52133 0.61841
 C2098 C 0.45106 0.52629 0.61178
 C2099 C 0.45835 0.52401 0.58812
 C2100 C 0.44353 0.51701 0.57076
 C2101 C 0.42121 0.51346 0.57722
 C2102 C 0.41399 0.51572 0.60073
 C2103 C 0.45093 0.51080 0.54656
 C2104 C 0.47048 0.51785 0.53525
 H2105 H 0.42963 0.53277 0.65548
 H2106 H 0.46288 0.53087 0.62510
 H2107 H 0.47574 0.52664 0.58381
 H2108 H 0.40943 0.50830 0.56413
 H2109 H 0.39668 0.51262 0.60512
 H2110 H 0.44045 0.49943 0.53737
 H2111 H 0.40244 0.49261 0.64015
 H2112 H 0.48080 0.53001 0.54336
 C2113 C 0.40213 0.48422 -0.15388
 C2114 C 0.42431 0.47972 -0.14869
 C2115 C 0.43176 0.47754 -0.12381
 C2116 C 0.45442 0.47352 -0.11927
 C2117 C 0.46221 0.47343 -0.09598
 C2118 C 0.44739 0.47735 -0.07676
 C2119 C 0.42465 0.48060 -0.08127
 C2120 C 0.41685 0.48058 -0.10449
 C2121 C 0.45534 0.48111 -0.05247
 C2122 C 0.47626 0.47420 -0.04445
 H2123 H 0.43659 0.47859 -0.16302
 H2124 H 0.46624 0.47117 -0.13382
 H2125 H 0.47994 0.47142 -0.09330
 H2126 H 0.41295 0.48384 -0.06679
 H2127 H 0.39925 0.48366 -0.10728
 H2128 H 0.44496 0.49158 -0.04117
 H2129 H 0.39907 0.48642 -0.16783
 H2130 H 0.48628 0.46252 -0.05462
 C2131 C -0.07417 0.97390 0.33381
 C2132 C -0.05114 0.97046 0.33628
 C2133 C -0.04016 0.96594 0.35929
 C2134 C -0.01715 0.96930 0.36059
 C2135 C -0.00622 0.96692 0.38217
 C2136 C -0.01804 0.96117 0.40299
 C2137 C -0.04082 0.95640 0.40151
 C2138 C -0.05179 0.95873 0.37985
 C2139 C -0.00634 0.96210 0.42585
 C2140 C -0.01733 0.96676 0.44731
 H2141 H -0.04015 0.97182 0.32096
 H2142 H -0.00769 0.97450 0.34499
 H2143 H 0.01138 0.97051 0.38276
 H2144 H -0.05032 0.95106 0.41698
 H2145 H -0.06929 0.95491 0.37950
 H2146 H 0.01164 0.96346 0.42499
 H2147 H -0.08485 0.97166 0.34928
 H2148 H -0.03524 0.96594 0.44862
 C2149 C 0.08598 0.51296 0.34431
 C2150 C 0.06369 0.51038 0.35131
 C2151 C 0.05648 0.51122 0.37658
 C2152 C 0.03444 0.51752 0.38241
 C2153 C 0.02687 0.51711 0.40607
 C2154 C 0.04126 0.51015 0.42432
 C2155 C 0.06330 0.50400 0.41848
 C2156 C 0.07087 0.50452 0.39491
 C2157 C 0.03333 0.50647 0.44903
 C2158 C 0.01377 0.51576 0.45870
 H2159 H 0.05094 0.50833 0.33825
 H2160 H 0.02296 0.52245 0.36857
 H2161 H 0.00957 0.52131 0.40979
 H2162 H 0.07457 0.49818 0.43216
 H2163 H 0.08774 0.49880 0.39109
 H2164 H 0.04282 0.49466 0.45968
 H2165 H 0.09748 0.51792 0.35779
 H2166 H 0.00464 0.52857 0.44913
 C2167 C 0.59439 0.03351 -0.16293
 C2168 C 0.57198 0.03170 -0.15605
 C2169 C 0.56499 0.03107 -0.13064
 C2170 C 0.54304 0.03707 -0.12409
 C2171 C 0.53564 0.03483 -0.10044
 C2172 C 0.55010 0.02631 -0.08297
 C2173 C 0.57210 0.02062 -0.08950
 C2174 C 0.57948 0.02290 -0.11301
 C2175 C 0.54241 0.02054 -0.05861
 C2176 C 0.52283 0.02869 -0.04787
 H2177 H 0.55916 0.03019 -0.16914
 H2178 H 0.53147 0.04308 -0.13738
 H2179 H 0.51839 0.03884 -0.09621
 H2180 H 0.58346 0.01368 -0.07648
 H2181 H 0.59626 0.01728 -0.11739
 H2182 H 0.55224 0.00815 -0.04912
 H2183 H 0.60602 0.03764 -0.14924
 H2184 H 0.51324 0.04192 -0.05621
 C2185 C 0.65442 0.58413 -0.02250
 C2186 C 0.64859 0.56276 -0.02818
 C2187 C 0.62514 0.55581 -0.02594
 C2188 C 0.62009 0.53333 -0.02788
 C2189 C 0.59828 0.52617 -0.02399
 C2190 C 0.58110 0.54148 -0.01825
 C2191 C 0.58610 0.56399 -0.01681
 C2192 C 0.60783 0.57113 -0.02070
 C2193 C 0.55815 0.53471 -0.01225
 C2194 C 0.54920 0.51457 -0.01860
 H2195 H 0.66146 0.55056 -0.03258
 H2196 H 0.63315 0.52120 -0.03176
 H2197 H 0.59521 0.50861 -0.02471
 H2198 H 0.57317 0.57610 -0.01239
 H2199 H 0.61107 0.58862 -0.01915
 H2200 H 0.54794 0.54631 -0.00222
 H2201 H 0.66772 0.58681 -0.02255
 H2202 H 0.55883 0.50310 -0.02941
 C2203 C 0.15942 1.07941 0.47677
 C2204 C 0.15452 1.05748 0.47240
 C2205 C 0.13113 1.05031 0.47163
 C2206 C 0.12650 1.02762 0.47218
 C2207 C 0.10447 1.02048 0.47373
 C2208 C 0.08668 1.03601 0.47457
 C2209 C 0.09132 1.05866 0.47322
 C2210 C 0.11327 1.06577 0.47170
 C2211 C 0.06330 1.02956 0.47868
 C2212 C 0.05523 1.00844 0.47488
 H2213 H 0.16786 1.04513 0.47140
 H2214 H 0.13997 1.01540 0.47222
 H2215 H 0.10161 1.00289 0.47523
 H2216 H 0.07791 1.07094 0.47380
 H2217 H 0.11620 1.08341 0.47110
 H2218 H 0.05210 1.04224 0.48550
 H2219 H 0.17248 1.08241 0.47858
 H2220 H 0.06605 0.99582 0.46720
 C2221 C 0.17544 -0.06400 1.01032
 C2222 C 0.15842 -0.06152 0.99370
 C2223 C 0.13642 -0.05098 0.99889
 C2224 C 0.12311 -0.04433 0.97972
 C2225 C 0.10165 -0.03567 0.98357
 C2226 C 0.09300 -0.03339 1.00680
 C2227 C 0.10618 -0.04023 1.02601
 C2228 C 0.12772 -0.04891 1.02215
 C2229 C 0.07002 -0.02502 1.01142
 C2230 C 0.05861 -0.01140 0.99532
 H2231 H 0.16113 -0.06703 0.97571
 H2232 H 0.12923 -0.04615 0.96161
 H2233 H 0.09173 -0.03142 0.96824
 H2234 H 0.09973 -0.03900 1.04404
 H2235 H 0.13713 -0.05452 1.03737
 H2236 H 0.06196 -0.02954 1.02812
 H2237 H 0.17348 -0.05550 1.02705
 H2238 H 0.06694 -0.00539 0.97937
 C2239 C 0.65660 0.43851 0.50581
 C2240 C 0.63528 0.42970 0.50865
 C2241 C 0.61464 0.44347 0.50833
 C2242 C 0.59516 0.43407 0.49998
 C2243 C 0.57532 0.44643 0.49913
 C2244 C 0.57449 0.46845 0.50690
 C2245 C 0.59372 0.47765 0.51615
 C2246 C 0.61375 0.46533 0.51668
 C2247 C 0.55347 0.48154 0.50607
 C2248 C 0.53868 0.47900 0.48757
 H2249 H 0.63305 0.41201 0.50886
 H2250 H 0.59532 0.41713 0.49387
 H2251 H 0.56055 0.43861 0.49269
 H2252 H 0.59330 0.49444 0.52267
 H2253 H 0.62834 0.47280 0.52396
 H2254 H 0.54944 0.49289 0.52030
 H2255 H 0.65777 0.45626 0.50314
 H2256 H 0.54384 0.46897 0.47263
 C2257 C -0.17247 0.43186 0.47220
 C2258 C -0.16275 0.44866 0.48513
 C2259 C -0.13927 0.45534 0.48174
 C2260 C -0.13280 0.47570 0.49084
 C2261 C -0.11049 0.48183 0.48993
 C2262 C -0.09411 0.46755 0.48011
 C2263 C -0.10060 0.44752 0.47033
 C2264 C -0.12293 0.44133 0.47131
 C2265 C -0.07019 0.47285 0.48035
 C2266 C -0.06111 0.48522 0.49838
 H2267 H -0.17240 0.45755 0.49839
 H2268 H -0.14503 0.48680 0.49894
 H2269 H -0.10615 0.49772 0.49698
 H2270 H -0.08824 0.43626 0.46269
 H2271 H -0.12704 0.42524 0.46466
 H2272 H -0.05919 0.46519 0.46726
 H2273 H -0.16325 0.42538 0.45705
 H2274 H -0.07177 0.49174 0.51242
 C2275 C 0.34581 -0.07714 -0.02025
 C2276 C 0.35356 -0.05804 -0.00948
 C2277 C 0.37586 -0.04864 -0.01449
 C2278 C 0.37976 -0.02677 -0.00775
 C2279 C 0.40080 -0.01755 -0.01099
 C2280 C 0.41848 -0.03013 -0.02093
 C2281 C 0.41454 -0.05180 -0.02815
 C2282 C 0.39354 -0.06109 -0.02478
 C2283 C 0.44133 -0.02154 -0.02332
 C2284 C 0.44981 -0.00628 -0.00765
 H2285 H 0.34294 -0.04897 0.00279
 H2286 H 0.36648 -0.01679 0.00017
 H2287 H 0.40307 -0.00059 -0.00576
 H2288 H 0.42796 -0.06185 -0.03575
 H2289 H 0.39159 -0.07818 -0.02963
 H2290 H 0.45245 -0.02925 -0.03619
 H2291 H 0.35613 -0.08460 -0.03402
 H2292 H 0.43889 0.00136 0.00542
 C2293 C 0.33436 1.05990 0.50316
 C2294 C 0.34885 1.05718 0.52230
 C2295 C 0.37015 1.04454 0.52049
 C2296 C 0.38788 1.05056 0.53483
 C2297 C 0.40852 1.03954 0.53304
 C2298 C 0.41172 1.02213 0.51697
 C2299 C 0.39373 1.01548 0.50338
 C2300 C 0.37313 1.02659 0.50504
 C2301 C 0.43353 1.01074 0.51379
 C2302 C 0.45368 1.02139 0.51679
 H2303 H 0.34595 1.06616 0.53853
 H2304 H 0.38586 1.06408 0.54717
 H2305 H 0.42183 1.04462 0.54436
 H2306 H 0.39575 1.00189 0.49112
 H2307 H 0.35959 1.02099 0.49436
 H2308 H 0.43372 0.99424 0.50648
 H2309 H 0.33919 1.05231 0.48649
 H2310 H 0.45375 1.03831 0.52279
 C2311 C -0.16834 0.56254 0.98812
 C2312 C -0.15327 0.55811 1.00643
 C2313 C -0.13110 0.54727 1.00277
 C2314 C -0.11489 0.55006 1.02008
 C2315 C -0.09357 0.54070 1.01734
 C2316 C -0.08793 0.52831 0.99708
 C2317 C -0.10430 0.52492 0.98008
 C2318 C -0.12569 0.53428 0.98284
 C2319 C -0.06552 0.51809 0.99353
 C2320 C -0.04662 0.52525 1.00505
 H2321 H -0.15675 0.56404 1.02410
 H2322 H -0.11869 0.55967 1.03580
 H2323 H -0.08178 0.54299 1.03135
 H2324 H -0.10050 0.51507 0.96455
 H2325 H -0.13784 0.53098 0.96947
 H2326 H -0.06378 0.50479 0.98089
 H2327 H -0.16398 0.55683 0.97049
 H2328 H -0.04758 0.53945 1.01652
 C2329 C 0.00967 0.65844 0.56164
 C2330 C 0.01920 0.63837 0.56970
 C2331 C 0.01888 0.61734 0.55645
 C2332 C 0.00267 0.61295 0.53945
 C2333 C 0.00147 0.59186 0.52950
 C2334 C 0.01646 0.57481 0.53639
 C2335 C 0.03304 0.57951 0.55272
 C2336 C 0.03421 0.60047 0.56266
 C2337 C 0.01410 0.55151 0.52914
 C2338 C 0.00160 0.54455 0.51000
 H2339 H 0.02816 0.63786 0.58618
 H2340 H -0.00976 0.62536 0.53463
 H2341 H -0.01185 0.58876 0.51737
 H2342 H 0.04477 0.56669 0.55838
 H2343 H 0.04682 0.60336 0.57574
 H2344 H 0.02232 0.53901 0.54008
 H2345 H 0.00385 0.65933 0.54354
 H2346 H -0.00591 0.55649 0.49792
 C2347 C 0.51543 0.16435 0.06744
 C2348 C 0.52287 0.14335 0.07519
 C2349 C 0.52432 0.12355 0.05991
 C2350 C 0.51047 0.12081 0.04027
 C2351 C 0.51073 0.10071 0.02802
 C2352 C 0.52490 0.08305 0.03517
 C2353 C 0.53922 0.08623 0.05422
 C2354 C 0.53885 0.10614 0.06649
 C2355 C 0.52407 0.06049 0.02511
 C2356 C 0.51151 0.05439 0.00562
 H2357 H 0.52912 0.14120 0.09298
 H2358 H 0.49874 0.13372 0.03499
 H2359 H 0.49922 0.09892 0.01366
 H2360 H 0.55031 0.07296 0.06017
 H2361 H 0.54966 0.10777 0.08155
 H2362 H 0.53305 0.04752 0.03467
 H2363 H 0.51241 0.16673 0.04865
 H2364 H 0.50295 0.06674 -0.00510
 C2365 C 0.00581 0.17230 0.93813
 C2366 C -0.00786 0.15375 0.93776
 C2367 C -0.00261 0.13266 0.95051
 C2368 C -0.01988 0.11783 0.95539
 C2369 C -0.01544 0.09717 0.96603
 C2370 C 0.00650 0.09087 0.97197
 C2371 C 0.02375 0.10571 0.96709
 C2372 C 0.01931 0.12638 0.95650
 C2373 C 0.01231 0.06847 0.98134
 C2374 C -0.00314 0.05392 0.99136
 H2375 H -0.02351 0.15460 0.92856
 H2376 H -0.03686 0.12211 0.95061
 H2377 H -0.02914 0.08601 0.96873
 H2378 H 0.04085 0.10111 0.97110
 H2379 H 0.03320 0.13696 0.95232
 H2380 H 0.02956 0.06295 0.97962
 H2381 H 0.01977 0.17182 0.95007
 H2382 H -0.02015 0.05933 0.99478
 C2383 C 0.50268 0.66603 0.44176
 C2384 C 0.48629 0.64978 0.44257
 C2385 C 0.48872 0.62842 0.45573
 C2386 C 0.46947 0.61659 0.46173
 C2387 C 0.47105 0.59553 0.47231
 C2388 C 0.49204 0.58567 0.47677
 C2389 C 0.51127 0.59781 0.47153
 C2390 C 0.50969 0.61890 0.46099
 C2391 C 0.49460 0.56259 0.48583
 C2392 C 0.47859 0.54649 0.48254
 H2393 H 0.47057 0.65280 0.43392
 H2394 H 0.45311 0.62357 0.45797
 H2395 H 0.45580 0.58706 0.47679
 H2396 H 0.52764 0.59061 0.47481
 H2397 H 0.52493 0.62724 0.45618
 H2398 H 0.51065 0.55750 0.49282
 H2399 H 0.51677 0.66389 0.45339
 H2400 H 0.46315 0.55091 0.47392
 C2401 C 0.50174 0.83463 0.43877
 C2402 C 0.48403 0.84992 0.44175
 C2403 C 0.48632 0.87244 0.45151
 C2404 C 0.47044 0.88864 0.44495
 C2405 C 0.47212 0.91039 0.45254
 C2406 C 0.48946 0.91647 0.46732
 C2407 C 0.50513 0.90023 0.47460
 C2408 C 0.50361 0.87834 0.46671
 C2409 C 0.49111 0.94016 0.47321
 C2410 C 0.50153 0.94851 0.49314
 H2411 H 0.46776 0.84624 0.43516
 H2412 H 0.45692 0.88460 0.43337
 H2413 H 0.45985 0.92259 0.44664
 H2414 H 0.51886 0.90449 0.48576
 H2415 H 0.51590 0.86622 0.47258
 H2416 H 0.48263 0.95173 0.46137
 H2417 H 0.51766 0.83856 0.44622
 H2418 H 0.50899 0.93740 0.50613
 C2419 C -0.00206 0.33802 0.94521
 C2420 C -0.01999 0.35099 0.95386
 C2421 C -0.01739 0.37208 0.96666
 C2422 C -0.03587 0.38099 0.97911
 C2423 C -0.03494 0.40184 0.98945
 C2424 C -0.01547 0.41427 0.98768
 C2425 C 0.00326 0.40521 0.97566
 C2426 C 0.00231 0.38436 0.96523
 C2427 C -0.01618 0.43742 0.99607
 C2428 C 0.00277 0.44995 0.99948
 H2429 H -0.03687 0.34563 0.95162
 H2430 H -0.05130 0.37199 0.98037
 H2431 H -0.04969 0.40851 0.99837
 H2432 H 0.01834 0.41454 0.97317
 H2433 H 0.01673 0.37852 0.95521
 H2434 H -0.03245 0.44538 0.99806
 H2435 H 0.01458 0.34234 0.95034
 H2436 H 0.01906 0.44201 0.99956
 C2437 C 0.50686 0.33890 0.07746
 C2438 C 0.49324 0.34768 0.05975
 C2439 C 0.49621 0.37065 0.05062
 C2440 C 0.48291 0.37893 0.03204
 C2441 C 0.48505 0.40085 0.02376
 C2442 C 0.50053 0.41487 0.03404
 C2443 C 0.51384 0.40653 0.05249
 C2444 C 0.51183 0.38471 0.06061
 C2445 C 0.50251 0.43856 0.02730
 C2446 C 0.49575 0.44804 0.00572
 H2447 H 0.48010 0.33776 0.05268
 H2448 H 0.47067 0.36851 0.02411
 H2449 H 0.47416 0.40687 0.00987
 H2450 H 0.52579 0.41702 0.06081
 H2451 H 0.52235 0.37901 0.07498
 H2452 H 0.51029 0.44907 0.04007
 H2453 H 0.50418 0.32636 0.08236
 H2454 H 0.48937 0.43782 -0.00812
 C2455 C 0.01268 0.83072 0.56658
 C2456 C -0.00171 0.84068 0.55002
 C2457 C 0.00071 0.86408 0.54199
 C2458 C -0.00742 0.87093 0.51975
 C2459 C -0.00552 0.89300 0.51195
 C2460 C 0.00443 0.90872 0.52644
 C2461 C 0.01214 0.90187 0.54882
 C2462 C 0.01024 0.87992 0.55657
 C2463 C 0.00684 0.93240 0.51955
 C2464 C 0.00120 0.94189 0.49760
 H2465 H -0.01479 0.83132 0.54218
 H2466 H -0.01514 0.85914 0.50832
 H2467 H -0.01200 0.89754 0.49473
 H2468 H 0.01957 0.91363 0.56053
 H2469 H 0.01585 0.87561 0.57423
 H2470 H 0.01362 0.94311 0.53279
 H2471 H 0.02690 0.84015 0.57182
 H2472 H -0.00531 0.93201 0.48357
 C2473 C 0.23351 0.31157 0.08204
 C2474 C 0.22777 0.31658 0.10560
 C2475 C 0.22740 0.30004 0.12526
 C2476 C 0.21738 0.30610 0.14698
 C2477 C 0.21927 0.29236 0.16703
 C2478 C 0.23126 0.27213 0.16574
 C2479 C 0.24056 0.26568 0.14381
 C2480 C 0.23871 0.27947 0.12376
 C2481 C 0.23690 0.25884 0.18718
 C2482 C 0.22721 0.26230 0.20956
 H2483 H 0.22333 0.33342 0.11023
 H2484 H 0.20876 0.32196 0.14868
 H2485 H 0.21230 0.29833 0.18362
 H2486 H 0.25012 0.25033 0.14241
 H2487 H 0.24715 0.27437 0.10756
 H2488 H 0.25094 0.24734 0.18568
 H2489 H 0.23410 0.29434 0.07695
 H2490 H 0.21233 0.27253 0.21152
 C2491 C 0.74141 0.84147 0.59078
 C2492 C 0.72453 0.82734 0.59879
 C2493 C 0.72341 0.81973 0.62384
 C2494 C 0.71696 0.79801 0.62934
 C2495 C 0.71845 0.78973 0.65264
 C2496 C 0.72612 0.80326 0.67078
 C2497 C 0.73106 0.82541 0.66547
 C2498 C 0.72961 0.83362 0.64228
 C2499 C 0.73204 0.79448 0.69449
 C2500 C 0.72488 0.77442 0.70428
 H2501 H 0.71320 0.82009 0.58655
 H2502 H 0.71191 0.78710 0.61540
 H2503 H 0.71476 0.77249 0.65601
 H2504 H 0.73684 0.83621 0.67918
 H2505 H 0.73385 0.85072 0.63874
 H2506 H 0.74420 0.80378 0.70389
 H2507 H 0.75372 0.84612 0.60356
 H2508 H 0.71218 0.76507 0.69574
 C2509 C 0.25833 0.68245 0.59367
 C2510 C 0.26114 0.67813 0.61797
 C2511 C 0.26708 0.69533 0.63515
 C2512 C 0.27498 0.68863 0.65752
 C2513 C 0.27877 0.70418 0.67506
 C2514 C 0.27465 0.72690 0.67058
 C2515 C 0.26759 0.73363 0.64791
 C2516 C 0.26369 0.71809 0.63044
 C2517 C 0.27435 0.74365 0.68955
 C2518 C 0.27776 0.73859 0.71349
 H2519 H 0.25967 0.66146 0.62495
 H2520 H 0.27765 0.67120 0.66167
 H2521 H 0.28406 0.69810 0.69223
 H2522 H 0.26400 0.75096 0.64403
 H2523 H 0.25705 0.72405 0.61376
 H2524 H 0.26699 0.75970 0.68512
 H2525 H 0.26267 0.69866 0.58680
 H2526 H 0.28709 0.72387 0.71865
 C2527 C 0.77124 0.17671 0.07757
 C2528 C 0.77800 0.17035 0.10044
 C2529 C 0.77558 0.18513 0.12114
 C2530 C 0.78809 0.18060 0.14159
 C2531 C 0.78439 0.19282 0.16229
 C2532 C 0.76791 0.20971 0.16288
 C2533 C 0.75572 0.21446 0.14234
 C2534 C 0.75948 0.20236 0.12170
 C2535 C 0.76111 0.22099 0.18501
 C2536 C 0.77425 0.22243 0.20515
 H2537 H 0.78505 0.15401 0.10372
 H2538 H 0.80035 0.16717 0.14174
 H2539 H 0.79367 0.18832 0.17800
 H2540 H 0.74270 0.22716 0.14248
 H2541 H 0.74894 0.20592 0.10668
 H2542 H 0.74437 0.22808 0.18556
 H2543 H 0.76763 0.19412 0.07428
 H2544 H 0.79162 0.21734 0.20449
 C2545 C 0.72803 0.15960 0.90282
 C2546 C 0.73616 0.15364 0.88031
 C2547 C 0.73073 0.16606 0.85822
 C2548 C 0.73393 0.15546 0.83639
 C2549 C 0.73168 0.16729 0.81504
 C2550 C 0.72629 0.19001 0.81502
 C2551 C 0.72223 0.20050 0.83687
 C2552 C 0.72445 0.18864 0.85827
 C2553 C 0.72832 0.20254 0.79233
 C2554 C 0.72148 0.22460 0.78905
 H2555 H 0.74645 0.13886 0.87831
 H2556 H 0.73886 0.13811 0.83585
 H2557 H 0.73506 0.15882 0.79849
 H2558 H 0.71863 0.21809 0.83771
 H2559 H 0.72244 0.19754 0.87472
 H2560 H 0.73808 0.19464 0.77841
 H2561 H 0.71502 0.17227 0.90380
 H2562 H 0.71063 0.23261 0.80198
 C2563 C 0.24103 0.65630 0.42094
 C2564 C 0.22304 0.66193 0.40632
 C2565 C 0.22642 0.67166 0.38229
 C2566 C 0.21045 0.68660 0.37304
 C2567 C 0.21376 0.69659 0.35067
 C2568 C 0.23307 0.69156 0.33711
 C2569 C 0.24848 0.67586 0.34598
 C2570 C 0.24524 0.66603 0.36830
 C2571 C 0.23818 0.70228 0.31392
 C2572 C 0.22855 0.72220 0.30581
 H2573 H 0.20608 0.66082 0.41291
 H2574 H 0.19560 0.69085 0.38333
 H2575 H 0.20118 0.70810 0.34417
 H2576 H 0.26332 0.67142 0.33573
 H2577 H 0.25745 0.65392 0.37448
 H2578 H 0.25168 0.69492 0.30350
 H2579 H 0.25757 0.66051 0.41453
 H2580 H 0.21544 0.73045 0.31591
 C2581 C 0.77272 0.81564 0.41468
 C2582 C 0.77931 0.82065 0.39125
 C2583 C 0.78222 0.80373 0.37257
 C2584 C 0.79414 0.80928 0.35171
 C2585 C 0.79534 0.79471 0.33266
 C2586 C 0.78441 0.77435 0.33405
 C2587 C 0.77341 0.76832 0.35527
 C2588 C 0.77211 0.78291 0.37429
 C2589 C 0.78246 0.75996 0.31322
 C2590 C 0.78055 0.76882 0.29031
 H2591 H 0.78296 0.83750 0.38607
 H2592 H 0.80217 0.82514 0.34996
 H2593 H 0.80447 0.79962 0.31675
 H2594 H 0.76479 0.75274 0.35671
 H2595 H 0.76231 0.77812 0.38975
 H2596 H 0.77825 0.74278 0.31640
 H2597 H 0.77212 0.79836 0.42001
 H2598 H 0.78304 0.78631 0.28742
 C2599 C 0.26631 0.34284 0.90643
 C2600 C 0.24924 0.33878 0.89059
 C2601 C 0.25362 0.33085 0.86625
 C2602 C 0.23915 0.33772 0.84821
 C2603 C 0.24201 0.32972 0.82524
 C2604 C 0.25905 0.31422 0.81996
 C2605 C 0.27387 0.30756 0.83789
 C2606 C 0.27121 0.31588 0.86088
 C2607 C 0.25972 0.30460 0.79600
 C2608 C 0.26627 0.28268 0.79166
 H2609 H 0.23220 0.34342 0.89503
 H2610 H 0.22549 0.34922 0.85194
 H2611 H 0.23036 0.33508 0.81172
 H2612 H 0.28736 0.29587 0.83428
 H2613 H 0.28246 0.31007 0.87455
 H2614 H 0.25054 0.31362 0.78246
 H2615 H 0.28334 0.34093 0.89990
 H2616 H 0.27480 0.27302 0.80518
 C2617 C 0.79775 0.42127 0.76606
 C2618 C 0.80393 0.40001 0.77419
 C2619 C 0.78897 0.38079 0.77428
 C2620 C 0.79434 0.36237 0.78873
 C2621 C 0.78200 0.34306 0.78780
 C2622 C 0.76413 0.34168 0.77213
 C2623 C 0.75817 0.36034 0.75833
 C2624 C 0.77055 0.37969 0.75922
 C2625 C 0.75231 0.32074 0.76878
 C2626 C 0.76335 0.30024 0.77036
 H2627 H 0.82020 0.39710 0.78166
 H2628 H 0.80838 0.36280 0.80055
 H2629 H 0.78666 0.32919 0.79919
 H2630 H 0.74448 0.35963 0.74609
 H2631 H 0.76616 0.39331 0.74741
 H2632 H 0.73564 0.32162 0.76168
 H2633 H 0.78039 0.42443 0.76195
 H2634 H 0.78040 0.29935 0.77625
 C2635 C 0.32332 0.90639 0.27292
 C2636 C 0.30138 0.90040 0.27708
 C2637 C 0.29500 0.87703 0.27437
 C2638 C 0.27292 0.87070 0.27894
 C2639 C 0.26648 0.84887 0.27509
 C2640 C 0.28209 0.83314 0.26645
 C2641 C 0.30412 0.83944 0.26208
 C2642 C 0.31058 0.86104 0.26613
 C2643 C 0.27612 0.81033 0.26062
 C2644 C 0.25899 0.79870 0.27180
 H2645 H 0.28870 0.91293 0.28104
 H2646 H 0.26059 0.88273 0.28513
 H2647 H 0.24924 0.84458 0.27817
 H2648 H 0.31641 0.82760 0.25538
 H2649 H 0.32774 0.86521 0.26231
 H2650 H 0.28692 0.80191 0.24798
 H2651 H 0.32558 0.91978 0.27306
 H2652 H 0.24878 0.80659 0.28539
 C2653 C 0.18395 0.92803 0.74570
 C2654 C 0.17621 0.90647 0.74323
 C2655 C 0.19046 0.88635 0.74622
 C2656 C 0.18350 0.86657 0.73624
 C2657 C 0.19588 0.84696 0.73929
 C2658 C 0.21563 0.84672 0.75241
 C2659 C 0.22242 0.86639 0.76278
 C2660 C 0.21001 0.88607 0.75972
 C2661 C 0.22862 0.82600 0.75668
 C2662 C 0.22744 0.80782 0.74184
 H2663 H 0.15928 0.90378 0.73800
 H2664 H 0.16828 0.86622 0.72618
 H2665 H 0.18952 0.83198 0.73186
 H2666 H 0.23730 0.86651 0.77340
 H2667 H 0.21551 0.90076 0.76846
 H2668 H 0.23910 0.82493 0.77216
 H2669 H 0.20159 0.93004 0.74856
 H2670 H 0.21871 0.80936 0.72523
 C2671 C 0.67941 0.40235 0.25371
 C2672 C 0.70158 0.39554 0.25534
 C2673 C 0.70762 0.37179 0.25824
 C2674 C 0.72988 0.36474 0.25503
 C2675 C 0.73579 0.34225 0.25710
 C2676 C 0.71947 0.32646 0.26254
 C2677 C 0.69736 0.33361 0.26640
 C2678 C 0.69143 0.35599 0.26414
 C2679 C 0.72478 0.30254 0.26468
 C2680 C 0.74244 0.29223 0.25248
 H2681 H 0.71468 0.40761 0.25377
 H2682 H 0.74268 0.37661 0.25073
 H2683 H 0.75313 0.33738 0.25473
 H2684 H 0.68455 0.32178 0.27085
 H2685 H 0.67415 0.36086 0.26707
 H2686 H 0.71318 0.29253 0.27477
 H2687 H 0.67684 0.41563 0.25219
 H2688 H 0.75326 0.30199 0.24107
 C2689 C 0.69279 0.58117 0.24949
 C2690 C 0.69286 0.59659 0.26781
 C2691 C 0.70072 0.61942 0.26380
 C2692 C 0.71054 0.63074 0.28241
 C2693 C 0.71713 0.65271 0.27919
 C2694 C 0.71353 0.66380 0.25742
 C2695 C 0.70337 0.65260 0.23899
 C2696 C 0.69718 0.63057 0.24205
 C2697 C 0.71936 0.68718 0.25356
 C2698 C 0.73830 0.69647 0.26299
 H2699 H 0.68748 0.59204 0.28561
 H2700 H 0.71308 0.62257 0.29944
 H2701 H 0.72446 0.66116 0.29387
 H2702 H 0.70027 0.66093 0.22215
 H2703 H 0.68904 0.62251 0.22761
 H2704 H 0.70934 0.69672 0.24121
 H2705 H 0.70172 0.58540 0.23319
 H2706 H 0.74894 0.68652 0.27444
 C2707 C 0.18403 0.09372 0.75538
 C2708 C 0.18402 0.10895 0.77391
 C2709 C 0.19743 0.12928 0.77274
 C2710 C 0.18984 0.14801 0.78516
 C2711 C 0.20135 0.16787 0.78339
 C2712 C 0.22078 0.16933 0.76916
 C2713 C 0.22902 0.15030 0.75774
 C2714 C 0.21749 0.13044 0.75949
 C2715 C 0.23263 0.19038 0.76549
 C2716 C 0.22185 0.21100 0.76690
 H2717 H 0.17267 0.10727 0.78889
 H2718 H 0.17468 0.14741 0.79588
 H2719 H 0.19496 0.18196 0.79321
 H2720 H 0.24417 0.15091 0.74702
 H2721 H 0.22440 0.11610 0.75048
 H2722 H 0.24980 0.18954 0.75922
 H2723 H 0.19457 0.09711 0.74000
 H2724 H 0.20439 0.21210 0.77189
 C2725 C 0.31413 0.08233 0.24193
 C2726 C 0.30418 0.09529 0.25980
 C2727 C 0.29549 0.11819 0.25560
 C2728 C 0.28155 0.12796 0.27297
 C2729 C 0.27361 0.14975 0.27014
 C2730 C 0.27958 0.16226 0.24984
 C2731 C 0.29336 0.15254 0.23241
 C2732 C 0.30148 0.13086 0.23533
 C2733 C 0.27162 0.18530 0.24611
 C2734 C 0.26712 0.19976 0.26475
 H2735 H 0.30281 0.08893 0.27778
 H2736 H 0.27674 0.11867 0.28880
 H2737 H 0.26260 0.15661 0.28368
 H2738 H 0.29827 0.16194 0.21669
 H2739 H 0.31282 0.12450 0.22185
 H2740 H 0.27069 0.19144 0.22797
 H2741 H 0.31404 0.08880 0.22393
 H2742 H 0.26877 0.19401 0.28292
 C2743 C 0.81724 0.58774 0.73038
 C2744 C 0.80037 0.59887 0.74318
 C2745 C 0.79318 0.62197 0.73778
 C2746 C 0.77192 0.62917 0.74545
 C2747 C 0.76501 0.65120 0.74215
 C2748 C 0.77942 0.66662 0.73140
 C2749 C 0.80046 0.65935 0.72314
 C2750 C 0.80738 0.63727 0.72643
 C2751 C 0.77328 0.69040 0.72925
 C2752 C 0.75893 0.70076 0.74553
 H2753 H 0.79134 0.59043 0.75728
 H2754 H 0.76064 0.61772 0.75417
 H2755 H 0.74839 0.65604 0.74806
 H2756 H 0.81185 0.67094 0.71483
 H2757 H 0.82411 0.63254 0.72081
 H2758 H 0.78180 0.70033 0.71587
 H2759 H 0.82384 0.59582 0.71453
 H2760 H 0.75137 0.69123 0.75984
 C2761 C 0.91706 0.75121 0.16768
 C2762 C 0.91021 0.74685 0.19121
 C2763 C 0.88627 0.74650 0.19833
 C2764 C 0.87968 0.75204 0.22160
 C2765 C 0.85712 0.75189 0.22857
 C2766 C 0.84074 0.74585 0.21240
 C2767 C 0.84746 0.74000 0.18928
 C2768 C 0.86990 0.74019 0.18234
 C2769 C 0.81656 0.74553 0.21837
 C2770 C 0.80713 0.74788 0.24112
 H2771 H 0.92231 0.74461 0.20507
 H2772 H 0.89199 0.75680 0.23430
 H2773 H 0.85271 0.75673 0.24648
 H2774 H 0.83528 0.73511 0.17648
 H2775 H 0.87435 0.73502 0.16453
 H2776 H 0.80548 0.74267 0.20378
 H2777 H 0.90421 0.75592 0.15519
 H2778 H 0.81746 0.75003 0.25641
 C2779 C 0.40546 0.25173 0.67449
 C2780 C 0.40007 0.25370 0.69872
 C2781 C 0.37687 0.25092 0.70771
 C2782 C 0.36896 0.26302 0.72735
 C2783 C 0.34680 0.26109 0.73544
 C2784 C 0.33226 0.24672 0.72414
 C2785 C 0.34054 0.23407 0.70509
 C2786 C 0.36252 0.23609 0.69699
 C2787 C 0.30833 0.24455 0.73080
 C2788 C 0.29654 0.25736 0.74750
 H2789 H 0.41248 0.25850 0.71124
 H2790 H 0.37980 0.27434 0.73613
 H2791 H 0.34125 0.27097 0.75034
 H2792 H 0.32987 0.22267 0.69618
 H2793 H 0.36826 0.22587 0.68238
 H2794 H 0.29905 0.23282 0.72070
 H2795 H 0.39171 0.24966 0.66253
 H2796 H 0.30484 0.26940 0.75804
 C2797 C 0.41220 0.75501 0.82073
 C2798 C 0.39162 0.74851 0.83045
 C2799 C 0.36999 0.75178 0.81847
 C2800 C 0.35076 0.75399 0.83280
 C2801 C 0.32990 0.75716 0.82269
 C2802 C 0.32761 0.75773 0.79795
 C2803 C 0.34677 0.75522 0.78338
 C2804 C 0.36785 0.75232 0.79358
 C2805 C 0.30498 0.76163 0.78854
 C2806 C 0.29798 0.75569 0.76599
 H2807 H 0.39048 0.74259 0.84858
 H2808 H 0.35190 0.75356 0.85199
 H2809 H 0.31543 0.75906 0.83432
 H2810 H 0.34560 0.75584 0.76423
 H2811 H 0.38230 0.75024 0.78201
 H2812 H 0.29265 0.76837 0.80089
 H2813 H 0.41236 0.76214 0.80296
 H2814 H 0.30948 0.74807 0.75341
 C2815 C 0.92012 0.25058 0.30712
 C2816 C 0.90513 0.23352 0.30307
 C2817 C 0.88443 0.23648 0.28908
 C2818 C 0.87327 0.21759 0.28171
 C2819 C 0.85286 0.21954 0.27007
 C2820 C 0.84308 0.24053 0.26568
 C2821 C 0.85452 0.25942 0.27242
 C2822 C 0.87483 0.25748 0.28415
 C2823 C 0.82069 0.24357 0.25522
 C2824 C 0.80409 0.22766 0.25684
 H2825 H 0.90833 0.21712 0.31025
 H2826 H 0.88024 0.20120 0.28521
 H2827 H 0.84485 0.20459 0.26466
 H2828 H 0.84733 0.27580 0.26934
 H2829 H 0.88238 0.27251 0.28997
 H2830 H 0.81612 0.26008 0.24898
 H2831 H 0.91754 0.26616 0.29774
 H2832 H 0.80788 0.21147 0.26431
 C2833 C 0.08534 0.27010 0.32525
 C2834 C 0.09648 0.25741 0.30790
 C2835 C 0.12020 0.26077 0.30102
 C2836 C 0.12828 0.25277 0.27915
 C2837 C 0.15091 0.25420 0.27289
 C2838 C 0.16600 0.26361 0.28854
 C2839 C 0.15787 0.27174 0.31031
 C2840 C 0.13530 0.27033 0.31654
 C2841 C 0.19042 0.26356 0.28398
 C2842 C 0.20066 0.25954 0.26193
 H2843 H 0.08788 0.24457 0.29881
 H2844 H 0.11709 0.24503 0.26701
 H2845 H 0.15651 0.24719 0.25622
 H2846 H 0.16915 0.27876 0.32286
 H2847 H 0.13002 0.27598 0.33392
 H2848 H 0.20093 0.26613 0.29911
 H2849 H 0.09382 0.28438 0.33181
 H2850 H 0.19078 0.25788 0.24623
 C2851 C 0.58466 0.77726 0.82132
 C2852 C 0.59506 0.76460 0.80348
 C2853 C 0.61889 0.76698 0.79664
 C2854 C 0.62632 0.76022 0.77404
 C2855 C 0.64901 0.76047 0.76782
 C2856 C 0.66478 0.76727 0.78428
 C2857 C 0.65733 0.77417 0.80679
 C2858 C 0.63466 0.77410 0.81292
 C2859 C 0.68908 0.76547 0.77951
 C2860 C 0.69880 0.76515 0.75679
 H2861 H 0.58574 0.75258 0.79393
 H2862 H 0.61455 0.75435 0.76130
 H2863 H 0.65417 0.75445 0.75054
 H2864 H 0.66917 0.77918 0.81990
 H2865 H 0.62972 0.77875 0.83076
 H2866 H 0.69984 0.76415 0.79476
 H2867 H 0.59371 0.79118 0.82793
 H2868 H 0.68865 0.76776 0.74127
 C2869 C 0.58071 0.26424 0.68036
 C2870 C 0.59099 0.24948 0.69645
 C2871 C 0.61419 0.25268 0.70444
 C2872 C 0.62106 0.24391 0.72645
 C2873 C 0.64293 0.24674 0.73417
 C2874 C 0.65842 0.25825 0.71980
 C2875 C 0.65156 0.26669 0.69769
 C2876 C 0.62986 0.26381 0.69000
 C2877 C 0.68180 0.26194 0.72666
 C2878 C 0.69289 0.25115 0.74532
 H2879 H 0.58213 0.23544 0.70370
 H2880 H 0.60940 0.23505 0.73781
 H2881 H 0.64746 0.24007 0.75138
 H2882 H 0.66316 0.27537 0.68609
 H2883 H 0.62563 0.26999 0.67248
 H2884 H 0.69133 0.27304 0.71529
 H2885 H 0.58962 0.27914 0.67564
 H2886 H 0.68437 0.23949 0.75685
 C2887 C 0.08838 0.72486 0.18841
 C2888 C 0.09873 0.73881 0.20440
 C2889 C 0.12119 0.73416 0.21428
 C2890 C 0.12789 0.74603 0.23411
 C2891 C 0.14967 0.74388 0.24248
 C2892 C 0.16530 0.72976 0.23109
 C2893 C 0.15846 0.71751 0.21163
 C2894 C 0.13672 0.71968 0.20324
 C2895 C 0.18926 0.72903 0.23719
 C2896 C 0.19805 0.73813 0.25762
 H2897 H 0.09046 0.75395 0.21000
 H2898 H 0.11638 0.75748 0.24280
 H2899 H 0.15428 0.75403 0.25718
 H2900 H 0.17021 0.70672 0.20234
 H2901 H 0.13259 0.71070 0.18750
 H2902 H 0.20074 0.72194 0.22418
 H2903 H 0.09593 0.70868 0.18549
 H2904 H 0.18718 0.74411 0.27173
   
