data_POSCAR
  _audit_creation_date              2014-09-24
  _audit_creation_method            'ToBaCCo'
  _symmetry_space_group_name_H-M    'P1'
  _symmetry_Int_Tables_number       1
  _symmetry_cell_setting            triclinic
  loop_
  _symmetry_equiv_pos_as_xyz
 x,y,z
_cell_length_a 86.8041
_cell_length_b 86.5945
_cell_length_c 86.7296
_cell_angle_alpha 90.009400
_cell_angle_beta 90.026900
_cell_angle_gamma 90.053700
loop_
  _atom_site_label
  _atom_site_type_symbol
  _atom_site_fract_x
  _atom_site_fract_y
  _atom_site_fract_z
C1 C 0.32324 0.44752 0.92699
 C2 C 0.31675 0.45381 0.91358
 C3 C 0.30350 0.44722 0.90710
 C4 C 0.29655 0.43438 0.91405
 C5 C 0.30289 0.42794 0.92747
 C6 C 0.31630 0.43451 0.93398
 C7 C 0.33672 0.45380 0.93337
 C8 C 0.34332 0.44720 0.94657
 C9 C 0.33641 0.43435 0.95356
 C10 C 0.32293 0.42792 0.94733
 C11 C 0.31614 0.41483 0.95401
 C12 C 0.30290 0.40828 0.94747
 C13 C 0.29625 0.41485 0.93430
 H14 H 0.32209 0.46369 0.90805
 H15 H 0.28636 0.42930 0.90888
 H16 H 0.34217 0.46369 0.92796
 H17 H 0.34163 0.42923 0.96372
 H18 H 0.32126 0.40958 0.96415
 H19 H 0.28607 0.40962 0.92926
 C20 C 0.44781 0.82329 0.42748
 C21 C 0.45409 0.83673 0.43400
 C22 C 0.44743 0.84329 0.44719
 C23 C 0.43454 0.83637 0.45404
 C24 C 0.42811 0.82293 0.44767
 C25 C 0.43475 0.81635 0.43433
 C26 C 0.45414 0.81685 0.41407
 C27 C 0.44754 0.80366 0.40744
 C28 C 0.43465 0.79671 0.41425
 C29 C 0.42817 0.80299 0.42767
 C30 C 0.41503 0.79635 0.43435
 C31 C 0.40841 0.80295 0.44752
 C32 C 0.41497 0.81614 0.45421
 H33 H 0.46401 0.84220 0.42869
 H34 H 0.42937 0.84156 0.46419
 H35 H 0.46405 0.82221 0.40864
 H36 H 0.42956 0.78655 0.40897
 H37 H 0.40979 0.78621 0.42920
 H38 H 0.40969 0.82123 0.46434
 C39 C 0.94918 0.92863 0.82205
 C40 C 0.95560 0.91534 0.81538
 C41 C 0.94903 0.90888 0.80209
 C42 C 0.93609 0.91575 0.79528
 C43 C 0.92953 0.92903 0.80180
 C44 C 0.93607 0.93551 0.81525
 C45 C 0.95541 0.93495 0.83558
 C46 C 0.94866 0.94798 0.84238
 C47 C 0.93571 0.95487 0.83560
 C48 C 0.92933 0.94869 0.82207
 C49 C 0.91613 0.95525 0.81543
 C50 C 0.90961 0.94875 0.80215
 C51 C 0.91633 0.93574 0.79531
 H52 H 0.96555 0.90990 0.82067
 H53 H 0.93099 0.91062 0.78506
 H54 H 0.96537 0.92960 0.84094
 H55 H 0.93047 0.96489 0.84098
 H56 H 0.91077 0.96525 0.82071
 H57 H 0.91112 0.93072 0.78510
 C58 C 0.44629 -0.07248 0.32294
 C59 C 0.45260 -0.08582 0.31629
 C60 C 0.44580 -0.09241 0.30320
 C61 C 0.43272 -0.08566 0.29656
 C62 C 0.42626 -0.07232 0.30306
 C63 C 0.43304 -0.06569 0.31632
 C64 C 0.45279 -0.06598 0.33626
 C65 C 0.44617 -0.05288 0.34301
 C66 C 0.43309 -0.04607 0.33643
 C67 C 0.42644 -0.05241 0.32310
 C68 C 0.41313 -0.04592 0.31662
 C69 C 0.40638 -0.05256 0.30353
 C70 C 0.41295 -0.06567 0.29673
 H71 H 0.46267 -0.09119 0.32139
 H72 H 0.42749 -0.09092 0.28649
 H73 H 0.46285 -0.07122 0.34150
 H74 H 0.42800 -0.03599 0.34180
 H75 H 0.40789 -0.03583 0.32185
 H76 H 0.40758 -0.07079 0.28666
 C77 C 0.82066 0.30127 0.32107
 C78 C 0.81411 0.29481 0.33437
 C79 C 0.80118 0.30165 0.34120
 C80 C 0.79459 0.31490 0.33469
 C81 C 0.80099 0.32151 0.32138
 C82 C 0.81410 0.31469 0.31453
 C83 C 0.83387 0.29478 0.31439
 C84 C 0.84057 0.30158 0.30136
 C85 C 0.83403 0.31482 0.29480
 C86 C 0.82082 0.32147 0.30132
 C87 C 0.81443 0.33497 0.29510
 C88 C 0.80149 0.34176 0.30197
 C89 C 0.79475 0.33501 0.31501
 H90 H 0.81920 0.28464 0.33958
 H91 H 0.78466 0.32017 0.34013
 H92 H 0.83910 0.28460 0.31946
 H93 H 0.83939 0.32006 0.28479
 H94 H 0.81963 0.34035 0.28508
 H95 H 0.78480 0.34042 0.32030
 C96 C -0.20003 0.82023 0.81967
 C97 C -0.20630 0.83362 0.81308
 C98 C -0.19945 0.84029 0.80004
 C99 C -0.18639 0.83351 0.79339
 C100 C -0.17997 0.82012 0.79983
 C101 C -0.18679 0.81345 0.81304
 C102 C -0.20650 0.81374 0.83299
 C103 C -0.19986 0.80064 0.83975
 C104 C -0.18681 0.79383 0.83314
 C105 C -0.18018 0.80017 0.81982
 C106 C -0.16683 0.79372 0.81338
 C107 C -0.16003 0.80043 0.80036
 C108 C -0.16662 0.81352 0.79355
 H109 H -0.21634 0.83900 0.81825
 H110 H -0.18107 0.83880 0.78337
 H111 H -0.21653 0.81900 0.83827
 H112 H -0.18168 0.78377 0.83854
 H113 H -0.16156 0.78367 0.81864
 H114 H -0.16119 0.81871 0.78355
 C115 C 0.92934 0.32182 0.44905
 C116 C 0.93564 0.33539 0.45526
 C117 C 0.94853 0.34229 0.44837
 C118 C 0.95531 0.33557 0.43533
 C119 C 0.94915 0.32200 0.42898
 C120 C 0.93610 0.31508 0.43585
 C121 C 0.91618 0.31506 0.45559
 C122 C 0.90973 0.30174 0.44905
 C123 C 0.91648 0.29498 0.43603
 C124 C 0.92963 0.30159 0.42934
 C125 C 0.93622 0.29517 0.41604
 C126 C 0.94909 0.30211 0.40919
 C127 C 0.95559 0.31542 0.41568
 H128 H 0.93038 0.34071 0.46529
 H129 H 0.96523 0.34103 0.42999
 H130 H 0.91079 0.32027 0.46561
 H131 H 0.91132 0.28475 0.43098
 H132 H 0.93120 0.28493 0.41085
 H133 H 0.96549 0.32077 0.41022
 C134 C 0.42650 0.44612 0.82368
 C135 C 0.43305 0.45260 0.83698
 C136 C 0.44619 0.44598 0.84362
 C137 C 0.45297 0.43292 0.83696
 C138 C 0.44657 0.42628 0.82366
 C139 C 0.43326 0.43288 0.81698
 C140 C 0.41314 0.45244 0.81714
 C141 C 0.40649 0.44565 0.80406
 C142 C 0.41321 0.43258 0.79735
 C143 C 0.42658 0.42610 0.80374
 C144 C 0.43321 0.41281 0.79733
 C145 C 0.44635 0.40624 0.80402
 C146 C 0.45305 0.41298 0.81709
 H147 H 0.42783 0.46266 0.84229
 H148 H 0.46308 0.42782 0.84225
 H149 H 0.40779 0.46250 0.82230
 H150 H 0.40791 0.42735 0.78729
 H151 H 0.42805 0.40743 0.78727
 H152 H 0.46316 0.40775 0.82225
 C153 C 0.82268 0.92804 0.94826
 C154 C 0.81603 0.91481 0.95483
 C155 C 0.80268 0.90834 0.94839
 C156 C 0.79580 0.91515 0.93545
 C157 C 0.80230 0.92838 0.92875
 C158 C 0.81581 0.93486 0.93515
 C159 C 0.83626 0.93437 0.95437
 C160 C 0.84304 0.94735 0.94747
 C161 C 0.83619 0.95418 0.93452
 C162 C 0.82261 0.94800 0.92828
 C163 C 0.81590 0.95450 0.91507
 C164 C 0.80256 0.94798 0.90869
 C165 C 0.79574 0.93503 0.91554
 H166 H 0.82136 0.90942 0.96478
 H167 H 0.78553 0.91002 0.93045
 H168 H 0.84167 0.92908 0.96433
 H169 H 0.84155 0.96417 0.92918
 H170 H 0.82115 0.96446 0.90961
 H171 H 0.78549 0.93000 0.91043
 C172 C 0.32266 0.82388 0.30245
 C173 C 0.31622 0.83728 0.29604
 C174 C 0.30296 0.84384 0.30254
 C175 C 0.29598 0.83697 0.31540
 C176 C 0.30228 0.82357 0.32194
 C177 C 0.31569 0.81699 0.31546
 C178 C 0.33614 0.81743 0.29626
 C179 C 0.34268 0.80427 0.30297
 C180 C 0.33575 0.79736 0.31583
 C181 C 0.32228 0.80366 0.32216
 C182 C 0.31546 0.79706 0.33526
 C183 C 0.30222 0.80367 0.34171
 C184 C 0.29561 0.81682 0.33505
 H185 H 0.32162 0.84271 0.28615
 H186 H 0.28578 0.84216 0.32044
 H187 H 0.34165 0.82275 0.28637
 H188 H 0.34097 0.78723 0.32099
 H189 H 0.32055 0.78694 0.34058
 H190 H 0.28543 0.82191 0.34021
 C191 C 0.82341 0.42819 0.44762
 C192 C 0.81676 0.41505 0.45436
 C193 C 0.80359 0.40834 0.44785
 C194 C 0.79687 0.41478 0.43465
 C195 C 0.80337 0.42791 0.42776
 C196 C 0.81672 0.43465 0.43424
 C197 C 0.83683 0.43477 0.45382
 C198 C 0.84361 0.44765 0.44676
 C199 C 0.83694 0.45414 0.43354
 C200 C 0.82353 0.44770 0.42720
 C201 C 0.81697 0.45386 0.41376
 C202 C 0.80379 0.44711 0.40731
 C203 C 0.79697 0.43423 0.41431
 H204 H 0.82193 0.40990 0.46451
 H205 H 0.78674 0.40942 0.42963
 H206 H 0.84211 0.42974 0.46399
 H207 H 0.84230 0.46405 0.42808
 H208 H 0.82221 0.46377 0.40819
 H209 H 0.78683 0.42902 0.40916
 C210 C 0.94901 0.82114 -0.07124
 C211 C 0.95515 0.83467 -0.06480
 C212 C 0.94828 0.84136 -0.05181
 C213 C 0.93531 0.83450 -0.04506
 C214 C 0.92901 0.82097 -0.05135
 C215 C 0.93587 0.81425 -0.06451
 C216 C 0.95553 0.81458 -0.08451
 C217 C 0.94903 0.80131 -0.09112
 C218 C 0.93606 0.79440 -0.08440
 C219 C 0.92939 0.80081 -0.07113
 C220 C 0.91614 0.79424 -0.06458
 C221 C 0.90931 0.80100 -0.05159
 C222 C 0.91577 0.81426 -0.04495
 H223 H 0.96512 0.84013 -0.07000
 H224 H 0.93001 0.83984 -0.03507
 H225 H 0.96550 0.81995 -0.08984
 H226 H 0.93101 0.78420 -0.08963
 H227 H 0.91098 0.78405 -0.06970
 H228 H 0.91031 0.81947 -0.03497
 C229 C 0.32324 0.32218 0.80227
 C230 C 0.31688 0.33559 0.79582
 C231 C 0.30365 0.34224 0.80226
 C232 C 0.29660 0.33546 0.81511
 C233 C 0.30280 0.32204 0.82171
 C234 C 0.31619 0.31536 0.81529
 C235 C 0.33669 0.31564 0.79615
 C236 C 0.34315 0.30246 0.80292
 C237 C 0.33614 0.29563 0.81578
 C238 C 0.32269 0.30202 0.82205
 C239 C 0.31579 0.29551 0.83515
 C240 C 0.30258 0.30221 0.84156
 C241 C 0.29606 0.31538 0.83482
 H242 H 0.32231 0.34100 0.78593
 H243 H 0.28643 0.34075 0.82008
 H244 H 0.34227 0.32089 0.78626
 H245 H 0.34130 0.28550 0.82100
 H246 H 0.32082 0.28539 0.84053
 H247 H 0.28590 0.32055 0.83994
 C248 C 0.17936 0.55124 0.57032
 C249 C 0.16613 0.54480 0.56360
 C250 C 0.15942 0.55171 0.55064
 C251 C 0.16596 0.56502 0.54419
 C252 C 0.17918 0.57163 0.55077
 C253 C 0.18592 0.56473 0.56391
 C254 C 0.18591 0.54467 0.58357
 C255 C 0.19886 0.55146 0.59045
 C256 C 0.20545 0.56477 0.58406
 C257 C 0.19904 0.57150 0.57082
 C258 C 0.20528 0.58507 0.56457
 C259 C 0.19853 0.59193 0.55160
 C260 C 0.18558 0.58520 0.54468
 H261 H 0.16090 0.53457 0.56858
 H262 H 0.16059 0.57036 0.53424
 H263 H 0.18082 0.53444 0.58869
 H264 H 0.21539 0.57001 0.58956
 H265 H 0.21524 0.59045 0.56992
 H266 H 0.18036 0.59067 0.53471
 C267 C 0.57140 0.69950 0.07082
 C268 C 0.58489 0.70569 0.06441
 C269 C 0.59162 0.69881 0.05144
 C270 C 0.58483 0.68577 0.04469
 C271 C 0.57134 0.67942 0.05094
 C272 C 0.56458 0.68629 0.06408
 C273 C 0.56481 0.70604 0.08406
 C274 C 0.55158 0.69950 0.09062
 C275 C 0.54474 0.68647 0.08390
 C276 C 0.55117 0.67978 0.07066
 C277 C 0.54467 0.66648 0.06411
 C278 C 0.55145 0.65963 0.05115
 C279 C 0.56468 0.66612 0.04454
 H280 H 0.59030 0.71571 0.06962
 H281 H 0.59020 0.68046 0.03472
 H282 H 0.57009 0.71605 0.08943
 H283 H 0.53457 0.68142 0.08915
 H284 H 0.53450 0.66129 0.06921
 H285 H 0.56991 0.66065 0.03458
 C286 C 0.69817 0.17676 0.67778
 C287 C 0.70441 0.18334 0.66438
 C288 C 0.69773 0.19656 0.65790
 C289 C 0.68485 0.20337 0.66483
 C290 C 0.67845 0.19694 0.67823
 C291 C 0.68512 0.18356 0.68474
 C292 C 0.70454 0.16331 0.68414
 C293 C 0.69798 0.15660 0.69731
 C294 C 0.68509 0.16339 0.70429
 C295 C 0.67858 0.17684 0.69807
 C296 C 0.66544 0.18350 0.70473
 C297 C 0.65881 0.19671 0.69820
 C298 C 0.66532 0.20345 0.68504
 H299 H 0.71432 0.17809 0.65887
 H300 H 0.67970 0.21354 0.65967
 H301 H 0.71446 0.15794 0.67874
 H302 H 0.68001 0.15809 0.71442
 H303 H 0.66024 0.17831 0.71485
 H304 H 0.66003 0.21361 0.68001
 C305 C 1.07054 0.05118 0.17840
 C306 C 1.08373 0.04468 0.18513
 C307 C 1.09047 0.05155 0.19811
 C308 C 1.08400 0.06488 0.20457
 C309 C 1.07081 0.07153 0.19799
 C310 C 1.06405 0.06468 0.18483
 C311 C 1.06396 0.04463 0.16515
 C312 C 1.05104 0.05147 0.15826
 C313 C 1.04452 0.06481 0.16468
 C314 C 1.05096 0.07150 0.17794
 C315 C 1.04478 0.08508 0.18421
 C316 C 1.05157 0.09189 0.19720
 C317 C 1.06448 0.08511 0.20411
 H318 H 1.08891 0.03443 0.18015
 H319 H 1.08938 0.07018 0.21454
 H320 H 1.06902 0.03438 0.16005
 H321 H 1.03459 0.07012 0.15923
 H322 H 1.03485 0.09048 0.17888
 H323 H 1.06971 0.09054 0.21410
 C324 C 0.05193 0.17777 1.07220
 C325 C 0.04529 0.16460 1.06550
 C326 C 0.05189 0.15793 1.05234
 C327 C 0.06508 0.16449 1.04568
 C328 C 0.07186 0.17766 1.05223
 C329 C 0.06528 0.18434 1.06556
 C330 C 0.04565 0.18430 1.08559
 C331 C 0.05260 0.19722 1.09241
 C332 C 0.06579 0.20380 1.08581
 C333 C 0.07222 0.19742 1.07241
 C334 C 0.08565 0.20369 1.06592
 C335 C 0.09218 0.19699 1.05276
 C336 C 0.08528 0.18407 1.04590
 H337 H 0.03515 0.15941 1.07066
 H338 H 0.07019 0.15921 1.03556
 H339 H 0.03551 0.17923 1.09086
 H340 H 0.07114 0.21374 1.09124
 H341 H 0.09114 0.21362 1.07121
 H342 H 0.09049 0.17892 1.03577
 C343 C 0.17733 0.67798 0.69757
 C344 C 0.16397 0.68441 0.70399
 C345 C 0.15702 0.69729 0.69713
 C346 C 0.16346 0.70393 0.68389
 C347 C 0.17682 0.69765 0.67731
 C348 C 0.18380 0.68460 0.68416
 C349 C 0.18416 0.66484 0.70412
 C350 C 0.19728 0.65829 0.69738
 C351 C 0.20377 0.66489 0.68414
 C352 C 0.19709 0.67802 0.67745
 C353 C 0.20327 0.68450 0.66397
 C354 C 0.19628 0.69738 0.65716
 C355 C 0.18315 0.70398 0.66383
 H356 H 0.15883 0.67929 0.71418
 H357 H 0.15793 0.71384 0.67861
 H358 H 0.17916 0.65957 0.71430
 H359 H 0.21386 0.65965 0.67895
 H360 H 0.21337 0.67941 0.65865
 H361 H 0.17777 0.71389 0.65841
 C362 C 1.19707 0.17803 0.17757
 C363 C 1.20368 0.16483 0.18421
 C364 C 1.19708 0.15812 0.19735
 C365 C 1.18391 0.16466 0.20404
 C366 C 1.17715 0.17785 0.19754
 C367 C 1.18373 0.18457 0.18423
 C368 C 1.20335 0.18459 0.16418
 C369 C 1.19642 0.19752 0.15741
 C370 C 1.18325 0.20409 0.16404
 C371 C 1.17682 0.19768 0.17742
 C372 C 1.16341 0.20392 0.18394
 C373 C 1.15686 0.19719 0.19708
 C374 C 1.16374 0.18425 0.20390
 H375 H 1.21381 0.15965 0.17902
 H376 H 1.17879 0.15935 0.21414
 H377 H 1.21348 0.17953 0.15889
 H378 H 1.17791 0.21404 0.15864
 H379 H 1.15793 0.21387 0.17868
 H380 H 1.15852 0.17906 0.21401
 C381 C 0.67867 1.07253 0.55218
 C382 C 0.66552 1.06584 0.54552
 C383 C 0.65888 1.05263 0.55206
 C384 C 0.66542 1.04590 0.56522
 C385 C 0.67856 1.05243 0.57202
 C386 C 0.68523 1.06582 0.56550
 C387 C 0.68518 1.08598 0.54595
 C388 C 0.69808 1.09279 0.55292
 C389 C 0.70465 1.08610 0.56609
 C390 C 0.69829 1.07265 0.57246
 C391 C 0.70454 1.06607 0.58586
 C392 C 0.69786 1.05285 0.59235
 C393 C 0.68496 1.04601 0.58542
 H394 H 0.66030 1.07103 0.53541
 H395 H 0.66012 1.03574 0.57026
 H396 H 0.68008 1.09127 0.53582
 H397 H 0.71458 1.09148 0.57149
 H398 H 0.71446 1.07134 0.59137
 H399 H 0.67981 1.03584 0.59059
 C400 C 0.54971 0.57007 0.18044
 C401 C 0.54337 0.56346 0.16710
 C402 C 0.55013 0.55037 0.16047
 C403 C 0.56318 0.54367 0.16721
 C404 C 0.56968 0.55012 0.18055
 C405 C 0.56294 0.56339 0.18720
 C406 C 0.54332 0.58345 0.18691
 C407 C 0.55004 0.59023 0.19995
 C408 C 0.56309 0.58358 0.20674
 C409 C 0.56963 0.57019 0.20043
 C410 C 0.58298 0.56370 0.20685
 C411 C 0.58969 0.55061 0.20017
 C412 C 0.58302 0.54379 0.18712
 H413 H 0.53334 0.56864 0.16171
 H414 H 0.56840 0.53361 0.16190
 H415 H 0.53330 0.58877 0.18166
 H416 H 0.56828 0.58899 0.21676
 H417 H 0.58831 0.56898 0.21687
 H418 H 0.58839 0.53373 0.18196
 C419 C 0.67817 0.69904 0.17821
 C420 C 0.66498 0.70554 0.18492
 C421 C 0.65861 0.69903 0.19826
 C422 C 0.66546 0.68608 0.20509
 C423 C 0.67865 0.67943 0.19853
 C424 C 0.68505 0.68591 0.18501
 C425 C 0.68441 0.70521 0.16461
 C426 C 0.69733 0.69837 0.15778
 C427 C 0.70422 0.68541 0.16454
 C428 C 0.69814 0.67909 0.17814
 C429 C 0.70468 0.66587 0.18478
 C430 C 0.69826 0.65941 0.19812
 C431 C 0.68535 0.66620 0.20502
 H432 H 0.65952 0.71549 0.17966
 H433 H 0.66036 0.68105 0.21534
 H434 H 0.67910 0.71517 0.15922
 H435 H 0.71416 0.68014 0.15910
 H436 H 0.71461 0.66044 0.17946
 H437 H 0.68039 0.66104 0.21527
 C438 C 0.17797 0.05105 1.07123
 C439 C 0.16475 0.04458 1.06450
 C440 C 0.15800 0.05152 1.05155
 C441 C 0.16452 0.06487 1.04514
 C442 C 0.17773 0.07148 1.05173
 C443 C 0.18449 0.06457 1.06485
 C444 C 0.18456 0.04444 1.08445
 C445 C 0.19752 0.05124 1.09134
 C446 C 0.20407 0.06459 1.08496
 C447 C 0.19761 0.07134 1.07175
 C448 C 0.20383 0.08493 1.06552
 C449 C 0.19705 0.09180 1.05257
 C450 C 0.18410 0.08507 1.04565
 H451 H 0.15958 0.03432 1.06948
 H452 H 0.15917 0.07024 1.03518
 H453 H 0.17947 0.03417 1.08951
 H454 H 0.21403 0.06986 1.09041
 H455 H 0.21380 0.09030 1.07085
 H456 H 0.17888 0.09054 1.03569
 C457 C 0.57215 0.17894 0.55176
 C458 C 0.58575 0.18517 0.54564
 C459 C 0.59263 0.19808 0.55253
 C460 C 0.58589 0.20497 0.56549
 C461 C 0.57229 0.19888 0.57176
 C462 C 0.56537 0.18580 0.56489
 C463 C 0.56540 0.16575 0.54522
 C464 C 0.55206 0.15936 0.55169
 C465 C 0.54525 0.16620 0.56465
 C466 C 0.55184 0.17939 0.57133
 C467 C 0.54539 0.18607 0.58457
 C468 C 0.55232 0.19897 0.59142
 C469 C 0.56567 0.20541 0.58500
 H470 H 0.59113 0.17986 0.53567
 H471 H 0.59137 0.21489 0.57080
 H472 H 0.57065 0.16028 0.53527
 H473 H 0.53500 0.16108 0.56965
 H474 H 0.53513 0.18109 0.58971
 H475 H 0.57102 0.21532 0.59047
 C476 C 0.07128 0.55153 0.67888
 C477 C 0.08445 0.54502 0.68563
 C478 C 0.09121 0.55193 0.69859
 C479 C 0.08476 0.56529 0.70499
 C480 C 0.07159 0.57196 0.69839
 C481 C 0.06481 0.56507 0.68526
 C482 C 0.06467 0.54495 0.66565
 C483 C 0.05177 0.55178 0.65876
 C484 C 0.04528 0.56515 0.66511
 C485 C 0.05174 0.57188 0.67834
 C486 C 0.04558 0.58550 0.68456
 C487 C 0.05237 0.59234 0.69753
 C488 C 0.06528 0.58557 0.70446
 H489 H 0.08960 0.53475 0.68069
 H490 H 0.09016 0.57062 0.71495
 H491 H 0.06968 0.53467 0.66057
 H492 H 0.03536 0.57042 0.65961
 H493 H 0.03565 0.59089 0.67922
 H494 H 0.07052 0.59102 0.71443
 C495 C 0.67862 0.57159 0.05127
 C496 C 0.66538 0.56497 0.04474
 C497 C 0.65885 0.55168 0.05124
 C498 C 0.66559 0.54480 0.06420
 C499 C 0.67883 0.55126 0.07088
 C500 C 0.68538 0.56473 0.06442
 C501 C 0.68500 0.58514 0.04513
 C502 C 0.69798 0.59189 0.05200
 C503 C 0.70476 0.58506 0.06498
 C504 C 0.69852 0.57151 0.07128
 C505 C 0.70496 0.56481 0.08452
 C506 C 0.69838 0.55152 0.09096
 C507 C 0.68542 0.54472 0.08413
 H508 H 0.65999 0.57028 0.03478
 H509 H 0.66037 0.53458 0.06922
 H510 H 0.67977 0.59058 0.03515
 H511 H 0.71473 0.59044 0.07028
 H512 H 0.71492 0.57006 0.08998
 H513 H 0.68034 0.53450 0.08928
 C514 C 0.05236 0.67867 0.57247
 C515 C 0.04607 0.68517 0.58588
 C516 C 0.05299 0.69810 0.59270
 C517 C 0.06615 0.70473 0.58610
 C518 C 0.07260 0.69838 0.57270
 C519 C 0.06570 0.68528 0.56584
 C520 C 0.04577 0.66549 0.56576
 C521 C 0.05238 0.65886 0.55260
 C522 C 0.06554 0.66545 0.54595
 C523 C 0.07228 0.67863 0.55250
 C524 C 0.08569 0.68509 0.54617
 C525 C 0.09256 0.69802 0.55304
 C526 C 0.08600 0.70469 0.56621
 H527 H 0.03594 0.68006 0.59114
 H528 H 0.07148 0.71468 0.59154
 H529 H 0.03565 0.66023 0.57089
 H530 H 0.07063 0.66016 0.53582
 H531 H 0.09092 0.67995 0.53604
 H532 H 0.09147 0.71464 0.57150
 C533 C 0.55203 1.07043 0.67843
 C534 C 0.54557 1.06378 0.66517
 C535 C 0.55249 1.05089 0.65828
 C536 C 0.56585 1.04446 0.66471
 C537 C 0.57247 1.05097 0.67797
 C538 C 0.56556 1.06402 0.68487
 C539 C 0.54544 1.08359 0.68516
 C540 C 0.55224 1.09039 0.69815
 C541 C 0.56558 1.08400 0.70461
 C542 C 0.57233 1.07085 0.69803
 C543 C 0.58592 1.06461 0.70416
 C544 C 0.59280 1.05172 0.69725
 C545 C 0.58606 1.04488 0.68425
 H546 H 0.53529 1.06877 0.66007
 H547 H 0.57122 1.03455 0.65926
 H548 H 0.53518 1.08870 0.68017
 H549 H 0.57082 1.08943 0.71460
 H550 H 0.59129 1.06989 0.71416
 H551 H 0.59154 1.03497 0.67892
 C552 C 0.42742 0.32290 0.94778
 C553 C 0.43379 0.33634 0.95417
 C554 C 0.44668 0.34331 0.94735
 C555 C 0.45337 0.33680 0.93415
 C556 C 0.44713 0.32335 0.92761
 C557 C 0.43409 0.31636 0.93443
 C558 C 0.41429 0.31605 0.95429
 C559 C 0.40779 0.30284 0.94759
 C560 C 0.41444 0.29629 0.93442
 C561 C 0.42756 0.30298 0.92775
 C562 C 0.43409 0.29673 0.91434
 C563 C 0.44697 0.30373 0.90756
 C564 C 0.45351 0.31695 0.91420
 H565 H 0.42861 0.34150 0.96433
 H566 H 0.46328 0.34230 0.92887
 H567 H 0.40899 0.32110 0.96443
 H568 H 0.40925 0.28613 0.92925
 H569 H 0.42905 0.28656 0.90905
 H570 H 0.46342 0.32233 0.90880
 C571 C 0.92679 0.44767 0.32333
 C572 C 0.93327 0.45384 0.33682
 C573 C 0.94645 0.44714 0.34332
 C574 C 0.95334 0.43430 0.33629
 C575 C 0.94701 0.42799 0.32280
 C576 C 0.93367 0.43468 0.31628
 C577 C 0.91338 0.45405 0.31694
 C578 C 0.90680 0.44757 0.30368
 C579 C 0.91365 0.43475 0.29662
 C580 C 0.92706 0.42822 0.30285
 C581 C 0.93378 0.41514 0.29610
 C582 C 0.94695 0.40848 0.30264
 C583 C 0.95359 0.41492 0.31589
 H584 H 0.92793 0.46372 0.34236
 H585 H 0.96349 0.42911 0.34143
 H586 H 0.90794 0.46392 0.32238
 H587 H 0.90840 0.42976 0.28642
 H588 H 0.92867 0.40999 0.28590
 H589 H 0.96372 0.40960 0.32093
 C590 C 0.32411 0.94772 0.42629
 C591 C 0.31764 0.95397 0.41284
 C592 C 0.30437 0.94740 0.40639
 C593 C 0.29738 0.93462 0.41340
 C594 C 0.30368 0.92822 0.42685
 C595 C 0.31712 0.93478 0.43334
 C596 C 0.33760 0.95399 0.43265
 C597 C 0.34416 0.94743 0.44589
 C598 C 0.33719 0.93464 0.45294
 C599 C 0.32370 0.92824 0.44673
 C600 C 0.31685 0.91521 0.45348
 C601 C 0.30359 0.90868 0.44696
 C602 C 0.29699 0.91520 0.43374
 H603 H 0.32302 0.96381 0.40727
 H604 H 0.28716 0.92956 0.40825
 H605 H 0.34310 0.96384 0.42720
 H606 H 0.34238 0.92956 0.46314
 H607 H 0.32194 0.91000 0.46365
 H608 H 0.28678 0.90998 0.42872
 O609 O 0.24893 0.54090 0.72964
 O610 O 0.27587 0.53561 0.73195
 O611 O 0.23051 0.50048 0.70847
 O612 O 0.22999 0.47496 0.71302
 O613 O 0.20894 0.51952 0.74898
 O614 O 0.21473 0.51839 0.77582
 O615 O 0.27028 0.45946 0.75026
 O616 O 0.26715 0.46393 0.72393
 O617 O 0.29025 0.49859 0.76965
 O618 O 0.28626 0.52512 0.76731
 O619 O 0.25135 0.47987 0.78987
 O620 O 0.22366 0.48060 0.78459
 O621 O 0.25183 0.45938 0.76896
 O622 O 0.22327 0.46490 0.76746
 O623 O 0.26973 0.49864 0.79002
 O624 O 0.26768 0.52714 0.78398
 O625 O 0.29018 0.47977 0.75131
 O626 O 0.28547 0.48482 0.72346
 O627 O 0.23069 0.54101 0.74857
 O628 O 0.23224 0.53518 0.77595
 O629 O 0.20879 0.50095 0.73037
 O630 O 0.21509 0.47304 0.73275
 O631 O 0.24851 0.51968 0.70853
 O632 O 0.27622 0.51471 0.71439
 Zr633 Zr 0.25835 0.51852 0.73070
 O634 O 0.27308 0.50510 0.74458
 Zr635 Zr 0.23111 0.49140 0.73100
 O636 O 0.24504 0.47664 0.74434
 Zr637 Zr 0.23140 0.51860 0.75807
 O638 O 0.24490 0.50483 0.77282
 Zr639 Zr 0.26844 0.48164 0.74072
 O640 O 0.25453 0.49498 0.72573
 Zr641 Zr 0.26829 0.50865 0.76798
 O642 O 0.25481 0.52367 0.75423
 Zr643 Zr 0.24135 0.48133 0.76781
 O644 O 0.22618 0.49511 0.75448
 O645 O 0.23504 0.51470 0.73476
 O646 O 0.26469 0.48521 0.76417
 C647 C 0.23832 0.54745 0.73762
 C648 C 0.23799 0.51154 0.70201
 C649 C 0.20236 0.51172 0.73825
 C650 C 0.26285 0.45307 0.76135
 C651 C 0.29652 0.48735 0.76233
 C652 C 0.26229 0.48748 0.79630
 H653 H 0.28394 0.50767 0.74221
 H654 H 0.24234 0.50729 0.78365
 H655 H 0.22840 0.52126 0.72821
 H656 H 0.24275 0.46577 0.74171
 H657 H 0.26399 0.46894 0.71417
 H658 H 0.23785 0.46703 0.71530
 H659 H 0.25925 0.52510 0.79138
 H660 H 0.24220 0.54065 0.77490
 H661 H 0.29260 0.47588 0.72388
 H662 H 0.27533 0.52237 0.70594
 H663 H 0.22427 0.49025 0.79066
 H664 H 0.20995 0.50800 0.77563
 H665 H 0.27520 0.54231 0.72269
 H666 H 0.28307 0.53306 0.75977
 H667 H 0.20906 0.47482 0.74227
 H668 H 0.22519 0.45773 0.75880
 O669 O 0.20837 0.02011 0.24854
 O670 O 0.21384 0.01794 0.27547
 O671 O 0.24847 0.04149 0.22983
 O672 O 0.27396 0.03708 0.22925
 O673 O 0.22954 0.00080 0.20843
 O674 O 0.23083 -0.02608 0.21426
 O675 O 0.28982 -0.00008 0.26959
 O676 O 0.28526 0.02627 0.26638
 O677 O 0.25100 -0.01960 0.28977
 O678 O 0.22449 -0.01743 0.28587
 O679 O 0.26953 -0.03987 0.25075
 O680 O 0.26861 -0.03465 0.22305
 O681 O 0.28986 -0.01885 0.25115
 O682 O 0.28420 -0.01740 0.22256
 O683 O 0.25094 -0.04007 0.26926
 O684 O 0.22246 -0.03419 0.26733
 O685 O 0.26968 -0.00111 0.28958
 O686 O 0.26452 0.02673 0.28480
 O687 O 0.20823 0.00112 0.23031
 O688 O 0.21419 -0.02627 0.23186
 O689 O 0.24800 0.01951 0.20816
 O690 O 0.27589 0.01728 0.21435
 O691 O 0.22942 0.04138 0.24793
 O692 O 0.23462 0.03563 0.27566
 Zr693 Zr 0.23077 0.01921 0.25784
 O694 O 0.24430 0.00542 0.27255
 Zr695 Zr 0.25765 0.01898 0.23046
 O696 O 0.27252 0.00573 0.24436
 Zr697 Zr 0.23064 -0.00826 0.23093
 O698 O 0.24452 -0.02294 0.24440
 Zr699 Zr 0.26766 0.00939 0.26779
 O700 O 0.25420 0.02431 0.25391
 Zr701 Zr 0.24083 -0.01805 0.26782
 O702 O 0.22571 -0.00439 0.25437
 Zr703 Zr 0.26791 -0.01781 0.24073
 O704 O 0.25402 -0.00456 0.22559
 O705 O 0.23445 0.01510 0.23451
 O706 O 0.26417 -0.01412 0.26410
 C707 C 0.20179 0.01205 0.23798
 C708 C 0.23745 0.04792 0.23734
 C709 C 0.23725 0.01155 0.20179
 C710 C 0.29618 -0.01119 0.26215
 C711 C 0.26220 -0.01217 0.29599
 C712 C 0.26204 -0.04632 0.26176
 H713 H 0.24179 0.00781 0.28343
 H714 H 0.24210 -0.03380 0.24187
 H715 H 0.22783 0.02160 0.22787
 H716 H 0.28334 0.00841 0.24201
 H717 H 0.28022 0.03602 0.26322
 H718 H 0.28195 0.03483 0.23705
 H719 H 0.22449 -0.04161 0.25890
 H720 H 0.20881 -0.02524 0.24187
 H721 H 0.27348 0.02638 0.29189
 H722 H 0.22694 0.04406 0.27478
 H723 H 0.25901 -0.04076 0.22370
 H724 H 0.24116 -0.02583 0.20942
 H725 H 0.20712 0.02718 0.27482
 H726 H 0.21653 -0.00991 0.28270
 H727 H 0.27412 0.00772 0.20835
 H728 H 0.29136 -0.00872 0.22447
 O729 O 0.50071 0.70931 0.22989
 O730 O 0.47381 0.71467 0.23213
 O731 O 0.51916 0.74973 0.20859
 O732 O 0.51970 0.77525 0.21311
 O733 O 0.54081 0.73071 0.24905
 O734 O 0.53512 0.73192 0.27590
 O735 O 0.47948 0.79081 0.25043
 O736 O 0.48257 0.78634 0.22410
 O737 O 0.45955 0.75172 0.26984
 O738 O 0.46356 0.72518 0.26757
 O739 O 0.49858 0.77045 0.29000
 O740 O 0.52622 0.76972 0.28466
 O741 O 0.49799 0.79090 0.26909
 O742 O 0.52657 0.78538 0.26749
 O743 O 0.48015 0.75173 0.29021
 O744 O 0.48216 0.72321 0.28420
 O745 O 0.45958 0.77050 0.25146
 O746 O 0.46426 0.76545 0.22363
 O747 O 0.51900 0.70923 0.24879
 O748 O 0.51762 0.71515 0.27613
 O749 O 0.54092 0.74928 0.23044
 O750 O 0.53464 0.77720 0.23281
 O751 O 0.50118 0.73051 0.20869
 O752 O 0.47348 0.73556 0.21457
 Zr753 Zr 0.49136 0.73174 0.23088
 O754 O 0.47668 0.74518 0.24477
 Zr755 Zr 0.51861 0.75883 0.23111
 O756 O 0.50473 0.77362 0.24445
 Zr757 Zr 0.51838 0.73168 0.25820
 O758 O 0.50493 0.74547 0.27297
 Zr759 Zr 0.48132 0.76863 0.24088
 O760 O 0.49518 0.75526 0.22587
 Zr761 Zr 0.48152 0.74166 0.26817
 O762 O 0.49496 0.72663 0.25441
 Zr763 Zr 0.50848 0.76896 0.26792
 O764 O 0.52360 0.75516 0.25458
 O765 O 0.51468 0.73554 0.23490
 O766 O 0.48512 0.76510 0.26432
 C767 C 0.51130 0.70275 0.23790
 C768 C 0.51168 0.73866 0.20215
 C769 C 0.54737 0.73852 0.23831
 C770 C 0.48694 0.79720 0.26151
 C771 C 0.45326 0.76292 0.26249
 C772 C 0.48765 0.76287 0.29646
 H773 H 0.46581 0.74261 0.24242
 H774 H 0.50752 0.74303 0.28379
 H775 H 0.52130 0.72894 0.22836
 H776 H 0.50701 0.78449 0.24181
 H777 H 0.48571 0.78132 0.21433
 H778 H 0.51185 0.78318 0.21539
 H779 H 0.49060 0.72527 0.29160
 H780 H 0.50763 0.70972 0.27516
 H781 H 0.45714 0.77439 0.22404
 H782 H 0.47435 0.72791 0.20612
 H783 H 0.52567 0.76005 0.29070
 H784 H 0.53993 0.74229 0.27566
 H785 H 0.47445 0.70797 0.22288
 H786 H 0.46671 0.71727 0.25998
 H787 H 0.54070 0.77543 0.24232
 H788 H 0.52459 0.79258 0.25886
 O789 O -0.04118 0.75126 0.77024
 O790 O -0.03580 0.72432 0.76788
 O791 O -0.00087 0.76973 0.79161
 O792 O 0.02460 0.77029 0.78710
 O793 O -0.01989 0.79157 0.75127
 O794 O -0.01870 0.78597 0.72438
 O795 O 0.04013 0.73015 0.74958
 O796 O 0.03570 0.73314 0.77593
 O797 O 0.00108 0.71018 0.73013
 O798 O -0.02537 0.71421 0.73239
 O799 O 0.01977 0.74940 0.71011
 O800 O 0.01900 0.77709 0.71556
 O801 O 0.04019 0.74880 0.73103
 O802 O 0.03464 0.77741 0.73272
 O803 O 0.00112 0.73091 0.70984
 O804 O -0.02734 0.73291 0.71583
 O805 O 0.01985 0.71016 0.74849
 O806 O 0.01487 0.71477 0.77634
 O807 O -0.04130 0.76967 0.75143
 O808 O -0.03541 0.76841 0.72408
 O809 O -0.00134 0.79162 0.76987
 O810 O 0.02650 0.78536 0.76746
 O811 O -0.02002 0.75168 0.79144
 O812 O -0.01495 0.72395 0.78544
 Zr813 Zr -0.01880 0.74193 0.76921
 O814 O -0.00539 0.72727 0.75525
 Zr815 Zr 0.00820 0.76927 0.76910
 O816 O 0.02296 0.75541 0.75568
 Zr817 Zr -0.01891 0.76912 0.74201
 O818 O -0.00515 0.75570 0.72718
 Zr819 Zr 0.01801 0.73193 0.75915
 O820 O 0.00467 0.74575 0.77423
 Zr821 Zr -0.00893 0.73221 0.73187
 O822 O -0.02392 0.74562 0.74570
 Zr823 Zr 0.01828 0.75926 0.73223
 O824 O 0.00451 0.77435 0.74565
 O825 O -0.01503 0.76532 0.76530
 O826 O 0.01445 0.73582 0.73572
 C827 C -0.04774 0.76189 0.76228
 C828 C -0.01190 0.76219 0.79802
 C829 C -0.01209 0.79811 0.76203
 C830 C 0.04650 0.73769 0.73856
 C831 C 0.01226 0.70385 0.73746
 C832 C 0.01222 0.73844 0.70362
 H833 H -0.00795 0.71637 0.75756
 H834 H -0.00760 0.75833 0.71637
 H835 H -0.02162 0.77193 0.77187
 H836 H 0.03380 0.75771 0.75833
 H837 H 0.03071 0.73625 0.78571
 H838 H 0.03253 0.76246 0.78476
 H839 H -0.02528 0.74138 0.70847
 H840 H -0.04081 0.75838 0.72499
 H841 H 0.02379 0.70764 0.77589
 H842 H -0.02258 0.72478 0.79390
 H843 H 0.00936 0.77654 0.70951
 H844 H -0.00835 0.79078 0.72464
 H845 H -0.04247 0.72491 0.77714
 H846 H -0.03327 0.71734 0.73999
 H847 H 0.02472 0.79147 0.75798
 H848 H 0.04181 0.77543 0.74136
 O849 O 0.00091 0.04116 0.01993
 O850 O -0.02600 0.03577 0.01749
 O851 O 0.01932 0.00080 0.04114
 O852 O 0.01986 -0.02472 0.03659
 O853 O 0.04103 0.01992 0.00077
 O854 O 0.03537 0.01879 -0.02610
 O855 O -0.02019 -0.04037 -0.00085
 O856 O -0.01722 -0.03590 0.02547
 O857 O -0.04019 -0.00124 -0.02027
 O858 O -0.03619 0.02528 -0.01798
 O859 O -0.00110 -0.01986 -0.04037
 O860 O 0.02652 -0.01904 -0.03497
 O861 O -0.00162 -0.04037 -0.01944
 O862 O 0.02691 -0.03470 -0.01783
 O863 O -0.01953 -0.00117 -0.04060
 O864 O -0.01755 0.02734 -0.03453
 O865 O -0.04017 -0.02008 -0.00195
 O866 O -0.03555 -0.01507 0.02590
 O867 O 0.01925 0.04134 0.00110
 O868 O 0.01784 0.03552 -0.02630
 O869 O 0.04112 0.00133 0.01936
 O870 O 0.03487 -0.02659 0.01693
 O871 O 0.00128 0.01994 0.04103
 O872 O -0.02639 0.01485 0.03504
 Zr873 Zr -0.00846 0.01874 0.01880
 O874 O -0.02310 0.00527 0.00484
 Zr875 Zr 0.01881 -0.00828 0.01861
 O876 O 0.00498 -0.02308 0.00519
 Zr877 Zr 0.01861 0.01893 -0.00843
 O878 O 0.00521 0.00512 -0.02327
 Zr879 Zr -0.01845 -0.01818 0.00870
 O880 O -0.00464 -0.00479 0.02378
 Zr881 Zr -0.01822 0.00885 -0.01854
 O882 O -0.00483 0.02391 -0.00471
 Zr883 Zr 0.00877 -0.01837 -0.01826
 O884 O 0.02385 -0.00454 -0.00484
 O885 O 0.01487 0.01500 0.01485
 O886 O -0.01461 -0.01459 -0.01473
 C887 C 0.01155 0.04775 0.01201
 C888 C 0.01180 0.01184 0.04758
 C889 C 0.04758 0.01212 0.01151
 C890 C -0.01265 -0.04674 -0.01187
 C891 C -0.04649 -0.01247 -0.01295
 C892 C -0.01202 -0.01228 -0.04685
 H893 H -0.03398 0.00781 0.00716
 H894 H 0.00782 0.00759 -0.03408
 H895 H 0.02148 0.02159 0.02143
 H896 H 0.00728 -0.03395 0.00783
 H897 H -0.01410 -0.03089 0.03525
 H898 H 0.01204 -0.03270 0.03425
 H899 H -0.00908 0.02533 -0.04189
 H900 H 0.00785 0.04095 -0.02530
 H901 H -0.04266 -0.02403 0.02545
 H902 H -0.02555 0.02251 0.04349
 H903 H 0.02596 -0.00937 -0.04100
 H904 H 0.04017 0.00843 -0.02590
 H905 H -0.02540 0.04246 0.02676
 H906 H -0.03308 0.03319 -0.01036
 H907 H 0.04095 -0.02478 0.00745
 H908 H 0.02498 -0.04188 -0.00918
 O909 O 0.04128 0.52019 0.50062
 O910 O 0.03585 0.51793 0.47370
 O911 O 0.00105 0.54140 0.51922
 O912 O -0.02444 0.53686 0.51970
 O913 O 0.02007 0.50091 0.54077
 O914 O 0.01891 0.47402 0.53504
 O915 O -0.04007 0.49947 0.47950
 O916 O -0.03560 0.52584 0.48259
 O917 O -0.00110 0.48008 0.45945
 O918 O 0.02537 0.48242 0.46341
 O919 O -0.01963 0.45983 0.49852
 O920 O -0.01883 0.46518 0.52618
 O921 O -0.04007 0.48076 0.49800
 O922 O -0.03447 0.48233 0.52658
 O923 O -0.00099 0.45967 0.48007
 O924 O 0.02745 0.46577 0.48201
 O925 O -0.01986 0.49845 0.45953
 O926 O -0.01483 0.52634 0.46422
 O927 O 0.04144 0.50127 0.51892
 O928 O 0.03559 0.47385 0.51748
 O929 O 0.00152 0.51950 0.54094
 O930 O -0.02633 0.51711 0.53468
 O931 O 0.02014 0.54135 0.50116
 O932 O 0.01499 0.53548 0.47343
 Zr933 Zr 0.01889 0.51914 0.49130
 O934 O 0.00545 0.50521 0.47660
 Zr935 Zr -0.00806 0.51885 0.51861
 O936 O -0.02284 0.50546 0.50473
 Zr937 Zr 0.01907 0.49176 0.51831
 O938 O 0.00528 0.47695 0.50486
 Zr939 Zr -0.01794 0.50905 0.48129
 O940 O -0.00457 0.52411 0.49516
 Zr941 Zr 0.00900 0.48177 0.48142
 O942 O 0.02403 0.49558 0.49486
 Zr943 Zr -0.01815 0.48196 0.50845
 O944 O -0.00435 0.49534 0.52357
 O945 O 0.01517 0.51509 0.51464
 O946 O -0.01437 0.48558 0.48506
 C947 C 0.04786 0.51220 0.51121
 C948 C 0.01207 0.54787 0.51172
 C949 C 0.01229 0.51164 0.54737
 C950 C -0.04641 0.48837 0.48697
 C951 C -0.01231 0.48742 0.45318
 C952 C -0.01206 0.45337 0.48758
 H953 H 0.00798 0.50757 0.46573
 H954 H 0.00774 0.46612 0.50743
 H955 H 0.02176 0.52165 0.52127
 H956 H -0.03367 0.50808 0.50704
 H957 H -0.03060 0.53563 0.48574
 H958 H -0.03241 0.53453 0.51190
 H959 H 0.02545 0.45838 0.49047
 H960 H 0.04099 0.47487 0.50749
 H961 H -0.02377 0.52590 0.45711
 H962 H 0.02261 0.54397 0.47431
 H963 H -0.00918 0.45915 0.52561
 H964 H 0.00858 0.47422 0.53986
 H965 H 0.04252 0.52722 0.47433
 H966 H 0.03327 0.49004 0.46655
 H967 H -0.02455 0.50757 0.54071
 H968 H -0.04166 0.49098 0.52464
 O969 O 0.50145 0.04119 0.52014
 O970 O 0.47454 0.03581 0.51788
 O971 O 0.51992 0.00072 0.54120
 O972 O 0.52041 -0.02480 0.53656
 O973 O 0.54150 0.01996 0.50084
 O974 O 0.53577 0.01887 0.47398
 O975 O 0.48015 -0.04023 0.49920
 O976 O 0.48324 -0.03586 0.52555
 O977 O 0.46020 -0.00101 0.47999
 O978 O 0.46424 0.02551 0.48241
 O979 O 0.49912 -0.01966 0.45972
 O980 O 0.52680 -0.01886 0.46500
 O981 O 0.49865 -0.04020 0.48054
 O982 O 0.52720 -0.03462 0.48208
 O983 O 0.48073 -0.00093 0.45963
 O984 O 0.48282 0.02758 0.46576
 O985 O 0.46024 -0.01993 0.49822
 O986 O 0.46494 -0.01501 0.52610
 O987 O 0.51971 0.04140 0.50123
 O988 O 0.51827 0.03562 0.47384
 O989 O 0.54163 0.00131 0.51935
 O990 O 0.53533 -0.02661 0.51683
 O991 O 0.50194 0.01991 0.54121
 O992 O 0.47423 0.01484 0.53534
 Zr993 Zr 0.49208 0.01877 0.51904
 O994 O 0.47736 0.00539 0.50508
 Zr995 Zr 0.51931 -0.00829 0.51865
 O996 O 0.50540 -0.02302 0.50523
 Zr997 Zr 0.51905 0.01901 0.49169
 O998 O 0.50557 0.00528 0.47686
 Zr999 Zr 0.48199 -0.01808 0.50884
 O1000 O 0.49589 -0.00478 0.52391
 Zr1001 Zr 0.48218 0.00904 0.48170
 O1002 O 0.49564 0.02402 0.49553
 Zr1003 Zr 0.50911 -0.01823 0.48178
 O1004 O 0.52427 -0.00449 0.49519
 O1005 O 0.51539 0.01502 0.51497
 O1006 O 0.48576 -0.01441 0.48542
 C1007 C 0.51204 0.04780 0.51217
 C1008 C 0.51246 0.01176 0.54770
 C1009 C 0.54807 0.01213 0.51154
 C1010 C 0.48762 -0.04657 0.48810
 C1011 C 0.45391 -0.01228 0.48725
 C1012 C 0.48816 -0.01206 0.45332
 H1013 H 0.46650 0.00793 0.50745
 H1014 H 0.50814 0.00777 0.46604
 H1015 H 0.52202 0.02159 0.52154
 H1016 H 0.50768 -0.03390 0.50782
 H1017 H 0.48641 -0.03089 0.53533
 H1018 H 0.51255 -0.03273 0.53423
 H1019 H 0.49121 0.02553 0.45832
 H1020 H 0.50829 0.04105 0.47486
 H1021 H 0.45781 -0.02395 0.52563
 H1022 H 0.47512 0.02245 0.54383
 H1023 H 0.52620 -0.00919 0.45897
 H1024 H 0.54054 0.00849 0.47414
 H1025 H 0.47520 0.04247 0.52717
 H1026 H 0.46743 0.03341 0.49001
 H1027 H 0.54139 -0.02478 0.50734
 H1028 H 0.52528 -0.04182 0.49072
 O1029 O 0.50068 0.54118 0.02053
 O1030 O 0.47376 0.53587 0.01817
 O1031 O 0.51895 0.50072 0.04177
 O1032 O 0.51948 0.47521 0.03719
 O1033 O 0.54072 0.51978 0.00134
 O1034 O 0.53503 0.51867 -0.02551
 O1035 O 0.47925 0.45974 -0.00024
 O1036 O 0.48230 0.46417 0.02612
 O1037 O 0.45942 0.49892 -0.01960
 O1038 O 0.46350 0.52544 -0.01727
 O1039 O 0.49837 0.48014 -0.03970
 O1040 O 0.52606 0.48091 -0.03433
 O1041 O 0.49781 0.45967 -0.01883
 O1042 O 0.52635 0.46519 -0.01722
 O1043 O 0.48001 0.49889 -0.03991
 O1044 O 0.48214 0.52741 -0.03388
 O1045 O 0.45938 0.48007 -0.00129
 O1046 O 0.46404 0.48507 0.02658
 O1047 O 0.51899 0.54129 0.00166
 O1048 O 0.51756 0.53544 -0.02571
 O1049 O 0.54077 0.50121 0.01994
 O1050 O 0.53441 0.47330 0.01752
 O1051 O 0.50101 0.51994 0.04167
 O1052 O 0.47332 0.51496 0.03571
 Zr1053 Zr 0.49125 0.51878 0.01945
 O1054 O 0.47654 0.50537 0.00551
 Zr1055 Zr 0.51843 0.49167 0.01923
 O1056 O 0.50452 0.47691 0.00583
 Zr1057 Zr 0.51828 0.51887 -0.00782
 O1058 O 0.50482 0.50511 -0.02264
 Zr1059 Zr 0.48111 0.48190 0.00936
 O1060 O 0.49499 0.49524 0.02442
 Zr1061 Zr 0.48141 0.50894 -0.01787
 O1062 O 0.49487 0.52394 -0.00406
 Zr1063 Zr 0.50831 0.48162 -0.01762
 O1064 O 0.52345 0.49538 -0.00423
 O1065 O 0.51456 0.51497 0.01547
 O1066 O 0.48495 0.48549 -0.01407
 C1067 C 0.51131 0.54774 0.01256
 C1068 C 0.51147 0.51176 0.04822
 C1069 C 0.54725 0.51196 0.01208
 C1070 C 0.48673 0.45335 -0.01129
 C1071 C 0.45309 0.48769 -0.01231
 C1072 C 0.48744 0.48773 -0.04615
 H1073 H 0.46567 0.50795 0.00784
 H1074 H 0.50742 0.50757 -0.03345
 H1075 H 0.52119 0.52154 0.02205
 H1076 H 0.50678 0.46604 0.00846
 H1077 H 0.48544 0.46917 0.03590
 H1078 H 0.51157 0.46731 0.03491
 H1079 H 0.49055 0.52533 -0.04128
 H1080 H 0.50759 0.54089 -0.02473
 H1081 H 0.45688 0.47614 0.02612
 H1082 H 0.47419 0.52262 0.04416
 H1083 H 0.52544 0.49053 -0.04044
 H1084 H 0.53976 0.50827 -0.02532
 H1085 H 0.47440 0.54257 0.02743
 H1086 H 0.46669 0.53336 -0.00970
 H1087 H 0.54048 0.47508 0.00803
 H1088 H 0.52440 0.45802 -0.00857
 O1089 O 0.75194 0.26991 0.45958
 O1090 O 0.72504 0.26769 0.46496
 O1091 O 0.77054 0.29105 0.49993
 O1092 O 0.77098 0.28648 0.52543
 O1093 O 0.79200 0.25057 0.48083
 O1094 O 0.78622 0.22367 0.48193
 O1095 O 0.73070 0.24909 0.54089
 O1096 O 0.73389 0.27546 0.53654
 O1097 O 0.71065 0.22989 0.50174
 O1098 O 0.71472 0.23217 0.47528
 O1099 O 0.74963 0.20950 0.52041
 O1100 O 0.77730 0.21479 0.51964
 O1101 O 0.74918 0.23040 0.54091
 O1102 O 0.77773 0.23192 0.53534
 O1103 O 0.73118 0.20941 0.50175
 O1104 O 0.73324 0.21547 0.47328
 O1105 O 0.71076 0.24822 0.52058
 O1106 O 0.71558 0.27609 0.51570
 O1107 O 0.77019 0.25096 0.45940
 O1108 O 0.76870 0.22354 0.46520
 O1109 O 0.79219 0.26914 0.49944
 O1110 O 0.78592 0.26670 0.52729
 O1111 O 0.75252 0.29104 0.48078
 O1112 O 0.72480 0.28522 0.48587
 Zr1113 Zr 0.74261 0.26885 0.48197
 O1114 O 0.72789 0.25493 0.49536
 Zr1115 Zr 0.76988 0.26849 0.50899
 O1116 O 0.75596 0.25510 0.52372
 Zr1117 Zr 0.76954 0.24144 0.48177
 O1118 O 0.75605 0.22663 0.49551
 Zr1119 Zr 0.73256 0.25873 0.51879
 O1120 O 0.74646 0.27379 0.50547
 Zr1121 Zr 0.73265 0.23149 0.49175
 O1122 O 0.74613 0.24530 0.47677
 Zr1123 Zr 0.75963 0.23160 0.51898
 O1124 O 0.77478 0.24498 0.50523
 O1125 O 0.76592 0.26477 0.48572
 O1126 O 0.73627 0.23526 0.51516
 C1127 C 0.76251 0.26191 0.45299
 C1128 C 0.76307 0.29754 0.48889
 C1129 C 0.79860 0.26128 0.48865
 C1130 C 0.73815 0.23798 0.54724
 C1131 C 0.70438 0.23725 0.51294
 C1132 C 0.73865 0.20309 0.51284
 H1133 H 0.71704 0.25732 0.49280
 H1134 H 0.75860 0.21579 0.49303
 H1135 H 0.77256 0.27132 0.47915
 H1136 H 0.75826 0.25770 0.53458
 H1137 H 0.73708 0.28526 0.53159
 H1138 H 0.76321 0.28412 0.53341
 H1139 H 0.74164 0.20804 0.47532
 H1140 H 0.75871 0.22456 0.45980
 H1141 H 0.70846 0.27566 0.52463
 H1142 H 0.72570 0.29371 0.47825
 H1143 H 0.77670 0.20875 0.50998
 H1144 H 0.79102 0.22386 0.49229
 H1145 H 0.72570 0.27697 0.45830
 H1146 H 0.71790 0.23978 0.46740
 H1147 H 0.79193 0.25716 0.52550
 H1148 H 0.77582 0.24057 0.54254
 O1149 O 0.77024 0.79128 -0.00141
 O1150 O 0.76789 0.78599 0.02553
 O1151 O 0.79110 0.75073 -0.01982
 O1152 O 0.78638 0.72524 -0.02031
 O1153 O 0.75078 0.77000 -0.04148
 O1154 O 0.72397 0.76908 -0.03572
 O1155 O 0.74903 0.70995 0.01995
 O1156 O 0.77534 0.71425 0.01689
 O1157 O 0.72996 0.74927 0.03992
 O1158 O 0.73240 0.77574 0.03585
 O1159 O 0.70961 0.73062 0.00090
 O1160 O 0.71491 0.73130 -0.02677
 O1161 O 0.73039 0.70998 0.00142
 O1162 O 0.73193 0.71554 -0.02715
 O1163 O 0.70957 0.74938 0.01929
 O1164 O 0.71582 0.77785 0.01723
 O1165 O 0.74814 0.73032 0.03990
 O1166 O 0.77599 0.73514 0.03518
 O1167 O 0.75136 0.79151 -0.01972
 O1168 O 0.72395 0.78585 -0.01821
 O1169 O 0.76922 0.75130 -0.04159
 O1170 O 0.76667 0.72342 -0.03524
 O1171 O 0.79118 0.76992 -0.00181
 O1172 O 0.78527 0.76496 0.02591
 Zr1173 Zr 0.76901 0.76889 0.00801
 O1174 O 0.75503 0.75556 0.02273
 Zr1175 Zr 0.76853 0.74179 -0.01923
 O1176 O 0.75509 0.72711 -0.00531
 Zr1177 Zr 0.74169 0.76916 -0.01901
 O1178 O 0.72684 0.75547 -0.00553
 Zr1179 Zr 0.75871 0.73207 0.01812
 O1180 O 0.77381 0.74532 0.00422
 Zr1181 Zr 0.73167 0.75926 0.01790
 O1182 O 0.74554 0.77419 0.00443
 Zr1183 Zr 0.73167 0.73194 -0.00905
 O1184 O 0.74511 0.74564 -0.02421
 O1185 O 0.76495 0.76511 -0.01533
 O1186 O 0.73531 0.73579 0.01433
 C1187 C 0.76232 0.79789 -0.01204
 C1188 C 0.79764 0.76174 -0.01233
 C1189 C 0.76142 0.76210 -0.04806
 C1190 C 0.73795 0.70361 0.01246
 C1191 C 0.73722 0.73802 0.04623
 C1192 C 0.70322 0.73828 0.01182
 H1193 H 0.75740 0.75813 0.03360
 H1194 H 0.71604 0.75800 -0.00811
 H1195 H 0.77154 0.77163 -0.02198
 H1196 H 0.75764 0.71622 -0.00759
 H1197 H 0.78514 0.71919 0.01372
 H1198 H 0.78405 0.71733 -0.01243
 H1199 H 0.70842 0.77585 0.00878
 H1200 H 0.72504 0.79131 -0.00824
 H1201 H 0.77550 0.72622 0.04232
 H1202 H 0.79377 0.77256 0.02503
 H1203 H 0.70894 0.74101 -0.02621
 H1204 H 0.72406 0.75869 -0.04048
 H1205 H 0.77719 0.79262 0.02488
 H1206 H 0.74007 0.78359 0.03270
 H1207 H 0.75718 0.72525 -0.04130
 H1208 H 0.74053 0.70831 -0.02522
 O1209 O 0.95847 0.25112 0.26987
 O1210 O 0.96379 0.22414 0.26757
 O1211 O 0.99884 0.26959 0.29105
 O1212 O 1.02430 0.27015 0.28647
 O1213 O 0.97973 0.29127 0.25066
 O1214 O 0.98088 0.28557 0.22379
 O1215 O 1.03971 0.22981 0.24912
 O1216 O 1.03532 0.23290 0.27545
 O1217 O 1.00058 0.20979 0.22983
 O1218 O 0.97415 0.21386 0.23210
 O1219 O 1.01930 0.24889 0.20960
 O1220 O 1.01856 0.27660 0.21490
 O1221 O 1.03975 0.24839 0.23049
 O1222 O 1.03419 0.27702 0.23206
 O1223 O 1.00062 0.23042 0.20944
 O1224 O 0.97216 0.23250 0.21548
 O1225 O 1.01940 0.20983 0.24814
 O1226 O 1.01448 0.21456 0.27598
 O1227 O 0.95832 0.26944 0.25097
 O1228 O 0.96414 0.26800 0.22359
 O1229 O 0.99830 0.29139 0.26922
 O1230 O 1.02616 0.28511 0.26675
 O1231 O 0.97967 0.25157 0.29100
 O1232 O 0.98467 0.22380 0.28510
 Zr1233 Zr 0.98082 0.24172 0.26881
 O1234 O 0.99419 0.22700 0.25488
 Zr1235 Zr 1.00785 0.26904 0.26851
 O1236 O 1.02257 0.25511 0.25513
 Zr1237 Zr 0.98068 0.26879 0.24148
 O1238 O 0.99440 0.25530 0.22668
 Zr1239 Zr 1.01760 0.23164 0.25871
 O1240 O 1.00431 0.24555 0.27375
 Zr1241 Zr 0.99061 0.23184 0.23149
 O1242 O 0.97565 0.24531 0.24529
 Zr1243 Zr 1.01784 0.25886 0.23168
 O1244 O 1.00412 0.27403 0.24505
 O1245 O 0.98461 0.26509 0.26478
 O1246 O 1.01400 0.23544 0.23528
 C1247 C 0.95191 0.26174 0.26189
 C1248 C 0.98782 0.26210 0.29752
 C1249 C 0.98752 0.29785 0.26139
 C1250 C 1.04607 0.23732 0.23806
 C1251 C 1.01177 0.20348 0.23716
 C1252 C 1.01172 0.23791 0.20317
 H1253 H 0.99162 0.21611 0.25724
 H1254 H 0.99194 0.25789 0.21586
 H1255 H 0.97805 0.27173 0.27134
 H1256 H 1.03341 0.25741 0.25775
 H1257 H 1.03035 0.23607 0.28523
 H1258 H 1.03220 0.26227 0.28417
 H1259 H 0.97423 0.24092 0.20806
 H1260 H 0.95872 0.25799 0.22459
 H1261 H 1.02339 0.20742 0.27554
 H1262 H 0.97705 0.22468 0.29356
 H1263 H 1.00888 0.27605 0.20890
 H1264 H 0.99122 0.29038 0.22400
 H1265 H 0.95713 0.22479 0.27684
 H1266 H 0.96628 0.21702 0.23971
 H1267 H 1.02433 0.29121 0.25727
 H1268 H 1.04139 0.27507 0.24069
 O1269 O 0.75174 0.97959 0.79082
 O1270 O 0.72483 0.98188 0.78543
 O1271 O 0.77023 0.95844 0.75047
 O1272 O 0.77088 0.96306 0.72501
 O1273 O 0.79180 0.99900 0.76967
 O1274 O 0.78604 1.02588 0.76854
 O1275 O 0.73060 1.00039 0.70945
 O1276 O 0.73373 0.97402 0.71384
 O1277 O 0.71052 1.01962 0.74853
 O1278 O 0.71451 1.01735 0.77500
 O1279 O 0.74954 1.04000 0.72995
 O1280 O 0.77721 1.03473 0.73080
 O1281 O 0.74911 1.01909 0.70947
 O1282 O 0.77764 1.01759 0.71511
 O1283 O 0.73107 1.04010 0.74858
 O1284 O 0.73308 1.03404 0.77706
 O1285 O 0.71062 1.00129 0.72970
 O1286 O 0.71539 0.97341 0.73464
 O1287 O 0.76998 0.99857 0.79103
 O1288 O 0.76849 1.02599 0.78523
 O1289 O 0.79199 0.98038 0.75111
 O1290 O 0.78577 0.98284 0.72321
 O1291 O 0.75219 0.95846 0.76958
 O1292 O 0.72451 0.96433 0.76453
 Zr1293 Zr 0.74239 0.98067 0.76843
 O1294 O 0.72770 0.99458 0.75499
 Zr1295 Zr 0.76970 0.98103 0.74147
 O1296 O 0.75582 0.99441 0.72669
 Zr1297 Zr 0.76935 1.00810 0.76866
 O1298 O 0.75590 1.02289 0.75489
 Zr1299 Zr 0.73240 0.99077 0.73157
 O1300 O 0.74626 0.97573 0.74493
 Zr1301 Zr 0.73249 1.01802 0.75860
 O1302 O 0.74592 1.00423 0.77362
 Zr1303 Zr 0.75951 1.01791 0.73143
 O1304 O 0.77463 1.00454 0.74523
 O1305 O 0.76571 0.98476 0.76472
 O1306 O 0.73614 1.01424 0.73519
 C1307 C 0.76232 0.98760 0.79742
 C1308 C 0.76270 0.95194 0.76146
 C1309 C 0.79840 0.98827 0.76189
 C1310 C 0.73808 1.01149 0.70312
 C1311 C 0.70425 1.01227 0.73731
 C1312 C 0.73856 1.04641 0.73750
 H1313 H 0.71684 0.99219 0.75752
 H1314 H 0.75846 1.03373 0.75736
 H1315 H 0.77232 0.97819 0.77129
 H1316 H 0.75813 0.99179 0.71584
 H1317 H 0.73689 0.96423 0.71881
 H1318 H 0.76302 0.96534 0.71708
 H1319 H 0.74149 1.04148 0.77504
 H1320 H 0.75850 1.02495 0.79063
 H1321 H 0.70828 0.97383 0.72570
 H1322 H 0.72537 0.95586 0.77217
 H1323 H 0.77658 1.04079 0.74045
 H1324 H 0.79085 1.02570 0.75819
 H1325 H 0.72546 0.97261 0.79211
 H1326 H 0.71767 1.00975 0.78290
 H1327 H 0.79181 0.99236 0.72504
 H1328 H 0.77574 1.00893 0.70793
 O1329 O 0.70849 0.52022 0.24931
 O1330 O 0.71391 0.51798 0.27622
 O1331 O 0.74879 0.54147 0.23074
 O1332 O 0.77425 0.53693 0.23022
 O1333 O 0.72969 0.50097 0.20915
 O1334 O 0.73082 0.47407 0.21488
 O1335 O 0.78980 0.49956 0.27045
 O1336 O 0.78539 0.52593 0.26735
 O1337 O 0.75081 0.48016 0.29047
 O1338 O 0.72434 0.48248 0.28651
 O1339 O 0.76932 0.45991 0.25140
 O1340 O 0.76854 0.46526 0.22374
 O1341 O 0.78979 0.48084 0.25194
 O1342 O 0.78421 0.48241 0.22336
 O1343 O 0.75067 0.45974 0.26986
 O1344 O 0.72225 0.46582 0.26790
 O1345 O 0.76959 0.49854 0.29040
 O1346 O 0.76460 0.52642 0.28571
 O1347 O 0.70831 0.50129 0.23101
 O1348 O 0.71414 0.47389 0.23242
 O1349 O 0.74827 0.51957 0.20900
 O1350 O 0.77611 0.51718 0.21526
 O1351 O 0.72967 0.54141 0.24878
 O1352 O 0.73479 0.53554 0.27651
 Zr1353 Zr 0.73088 0.51920 0.25863
 O1354 O 0.74430 0.50527 0.27332
 Zr1355 Zr 0.75784 0.51892 0.23132
 O1356 O 0.77260 0.50553 0.24521
 Zr1357 Zr 0.73068 0.49182 0.23161
 O1358 O 0.74444 0.47702 0.24507
 Zr1359 Zr 0.76769 0.50913 0.26864
 O1360 O 0.75435 0.52418 0.25478
 Zr1361 Zr 0.74071 0.48184 0.26850
 O1362 O 0.72571 0.49564 0.25506
 Zr1363 Zr 0.76787 0.48203 0.24148
 O1364 O 0.75410 0.49541 0.22636
 O1365 O 0.73460 0.51515 0.23528
 O1366 O 0.76409 0.48565 0.26487
 C1367 C 0.70190 0.51221 0.23872
 C1368 C 0.73778 0.54794 0.23824
 C1369 C 0.73750 0.51169 0.20256
 C1370 C 0.79614 0.48845 0.26298
 C1371 C 0.76202 0.48751 0.29675
 C1372 C 0.76174 0.45345 0.26235
 H1373 H 0.74177 0.50763 0.28420
 H1374 H 0.74196 0.46618 0.24249
 H1375 H 0.72802 0.52171 0.22866
 H1376 H 0.78344 0.50816 0.24290
 H1377 H 0.78040 0.53571 0.26421
 H1378 H 0.78220 0.53462 0.23804
 H1379 H 0.72424 0.45843 0.25944
 H1380 H 0.70874 0.47489 0.24242
 H1381 H 0.77354 0.52600 0.29282
 H1382 H 0.72718 0.54402 0.27563
 H1383 H 0.75888 0.45922 0.22431
 H1384 H 0.74115 0.47429 0.21006
 H1385 H 0.70725 0.52727 0.27559
 H1386 H 0.71645 0.49009 0.28336
 H1387 H 0.77432 0.50764 0.20922
 H1388 H 0.79141 0.49106 0.22531
 O1389 O 0.54164 0.22914 0.74980
 O1390 O 0.53628 0.23147 0.77675
 O1391 O 0.50134 0.20802 0.73125
 O1392 O 0.47588 0.21258 0.73073
 O1393 O 0.52044 0.24856 0.70971
 O1394 O 0.51942 0.27542 0.71549
 O1395 O 0.46038 0.24997 0.77096
 O1396 O 0.46478 0.22359 0.76789
 O1397 O 0.49945 0.26931 0.79103
 O1398 O 0.52590 0.26696 0.78707
 O1399 O 0.48086 0.28955 0.75202
 O1400 O 0.48171 0.28426 0.72431
 O1401 O 0.46041 0.26866 0.75244
 O1402 O 0.46601 0.26713 0.72389
 O1403 O 0.49953 0.28970 0.77048
 O1404 O 0.52799 0.28362 0.76845
 O1405 O 0.48060 0.25100 0.79094
 O1406 O 0.48556 0.22309 0.78626
 O1407 O 0.54184 0.24807 0.73151
 O1408 O 0.53611 0.27552 0.73306
 O1409 O 0.50187 0.22995 0.70952
 O1410 O 0.47402 0.23234 0.71579
 O1411 O 0.52044 0.20803 0.74932
 O1412 O 0.51538 0.21391 0.77705
 Zr1413 Zr 0.51928 0.23025 0.75917
 O1414 O 0.50589 0.24419 0.77387
 Zr1415 Zr 0.49231 0.23058 0.73185
 O1416 O 0.47758 0.24397 0.74575
 Zr1417 Zr 0.51952 0.25764 0.73219
 O1418 O 0.50578 0.27246 0.74564
 Zr1419 Zr 0.48248 0.24037 0.76918
 O1420 O 0.49580 0.22531 0.75531
 Zr1421 Zr 0.50951 0.26762 0.76906
 O1422 O 0.52449 0.25380 0.75563
 Zr1423 Zr 0.48234 0.26747 0.74203
 O1424 O 0.49609 0.25408 0.72690
 O1425 O 0.51555 0.23431 0.73583
 O1426 O 0.48612 0.26383 0.76541
 C1427 C 0.54822 0.23710 0.73918
 C1428 C 0.51234 0.20153 0.73876
 C1429 C 0.51263 0.23784 0.70310
 C1430 C 0.45405 0.26107 0.76347
 C1431 C 0.48820 0.26201 0.79729
 C1432 C 0.48842 0.29598 0.76300
 H1433 H 0.50842 0.24182 0.78475
 H1434 H 0.50825 0.28330 0.74307
 H1435 H 0.52210 0.22775 0.72919
 H1436 H 0.46673 0.24136 0.74343
 H1437 H 0.46975 0.21380 0.76474
 H1438 H 0.46796 0.21488 0.73858
 H1439 H 0.52595 0.29106 0.76004
 H1440 H 0.54153 0.27445 0.74305
 H1441 H 0.47664 0.22354 0.79338
 H1442 H 0.52300 0.20544 0.77618
 H1443 H 0.49131 0.29038 0.72499
 H1444 H 0.50906 0.27529 0.71072
 H1445 H 0.54294 0.22219 0.77611
 H1446 H 0.53379 0.25936 0.78392
 H1447 H 0.47583 0.24187 0.70975
 H1448 H 0.45882 0.25847 0.72579
 O1449 O 0.27012 0.79177 0.49899
 O1450 O 0.26777 0.78641 0.52594
 O1451 O 0.29116 0.75140 0.48048
 O1452 O 0.28655 0.72586 0.47996
 O1453 O 0.25079 0.77056 0.45888
 O1454 O 0.22396 0.76945 0.46460
 O1455 O 0.24927 0.71029 0.52011
 O1456 O 0.27557 0.71475 0.51711
 O1457 O 0.22999 0.74947 0.54019
 O1458 O 0.23235 0.77599 0.53621
 O1459 O 0.20976 0.73083 0.50117
 O1460 O 0.21503 0.73165 0.47349
 O1461 O 0.23063 0.71030 0.50158
 O1462 O 0.23213 0.71597 0.47303
 O1463 O 0.20964 0.74955 0.51959
 O1464 O 0.21575 0.77806 0.51758
 O1465 O 0.24823 0.73059 0.54012
 O1466 O 0.27607 0.73558 0.53546
 O1467 O 0.25123 0.79197 0.48068
 O1468 O 0.22384 0.78619 0.48217
 O1469 O 0.26933 0.75195 0.45873
 O1470 O 0.26686 0.72402 0.46497
 O1471 O 0.29114 0.77055 0.49854
 O1472 O 0.28526 0.76547 0.52626
 Zr1473 Zr 0.26898 0.76936 0.50837
 O1474 O 0.25505 0.75593 0.52305
 Zr1475 Zr 0.26863 0.74233 0.48105
 O1476 O 0.25524 0.72756 0.49493
 Zr1477 Zr 0.24167 0.76958 0.48134
 O1478 O 0.22686 0.75580 0.49478
 Zr1479 Zr 0.25883 0.73248 0.51837
 O1480 O 0.27388 0.74583 0.50451
 Zr1481 Zr 0.23169 0.75955 0.51821
 O1482 O 0.24549 0.77457 0.50478
 Zr1483 Zr 0.23181 0.73230 0.49119
 O1484 O 0.24519 0.74610 0.47607
 O1485 O 0.26493 0.76562 0.48502
 O1486 O 0.23543 0.73610 0.51458
 C1487 C 0.26219 0.79837 0.48836
 C1488 C 0.29763 0.76243 0.48799
 C1489 C 0.26150 0.76276 0.45230
 C1490 C 0.23822 0.70393 0.51260
 C1491 C 0.23726 0.73822 0.54647
 C1492 C 0.20335 0.73842 0.51212
 H1493 H 0.25741 0.75848 0.53393
 H1494 H 0.21606 0.75828 0.49220
 H1495 H 0.27150 0.77219 0.47840
 H1496 H 0.25784 0.71669 0.49261
 H1497 H 0.28534 0.71975 0.51395
 H1498 H 0.28423 0.71791 0.48779
 H1499 H 0.20835 0.77604 0.50915
 H1500 H 0.22490 0.79163 0.49215
 H1501 H 0.27561 0.72663 0.54259
 H1502 H 0.29372 0.77311 0.52540
 H1503 H 0.20902 0.74132 0.47408
 H1504 H 0.22413 0.75907 0.45980
 H1505 H 0.27704 0.79309 0.52530
 H1506 H 0.23995 0.78390 0.53306
 H1507 H 0.25737 0.72585 0.45890
 H1508 H 0.24078 0.70878 0.47493
 O1509 O 0.29066 0.25091 0.97989
 O1510 O 0.28529 0.22392 0.98228
 O1511 O 0.25043 0.26936 0.95861
 O1512 O 0.22494 0.26985 0.96310
 O1513 O 0.26943 0.29110 0.99902
 O1514 O 0.26824 0.28544 1.02590
 O1515 O 0.20934 0.22965 1.00054
 O1516 O 0.21378 0.23268 0.97421
 O1517 O 0.24836 0.20967 1.01996
 O1518 O 0.27480 0.21371 1.01774
 O1519 O 0.22971 0.24885 1.04005
 O1520 O 0.23052 0.27655 1.03465
 O1521 O 0.20929 0.24827 1.01913
 O1522 O 0.21488 0.27689 1.01750
 O1523 O 0.24834 0.23037 1.04030
 O1524 O 0.27681 0.23240 1.03431
 O1525 O 0.22960 0.20967 1.00159
 O1526 O 0.23459 0.21434 0.97375
 O1527 O 0.29079 0.26929 0.99875
 O1528 O 0.28494 0.26787 1.02613
 O1529 O 0.25091 0.29118 0.98040
 O1530 O 0.22304 0.28490 0.98278
 O1531 O 0.26953 0.25129 0.95875
 O1532 O 0.26445 0.22354 0.96469
 Zr1533 Zr 0.26829 0.24150 0.98096
 O1534 O 0.25486 0.22681 0.99488
 Zr1535 Zr 0.24132 0.26882 0.98111
 O1536 O 0.22654 0.25493 0.99449
 Zr1537 Zr 0.26843 0.26863 1.00822
 O1538 O 0.25464 0.25519 1.02301
 Zr1539 Zr 0.23146 0.23145 0.99098
 O1540 O 0.24483 0.24532 0.97594
 Zr1541 Zr 0.25839 0.23171 1.01827
 O1542 O 0.27342 0.24514 1.00448
 Zr1543 Zr 0.23122 0.25875 1.01795
 O1544 O 0.24501 0.27387 1.00458
 O1545 O 0.26454 0.26488 0.98493
 O1546 O 0.23502 0.23531 1.01442
 C1547 C 0.29721 0.26158 0.98784
 C1548 C 0.26146 0.26184 0.95220
 C1549 C 0.26168 0.29765 0.98825
 C1550 C 0.20297 0.23717 1.01158
 C1551 C 0.23718 0.20334 1.01261
 C1552 C 0.23725 0.23789 1.04653
 H1553 H 0.25740 0.21591 0.99255
 H1554 H 0.25709 0.25780 1.03383
 H1555 H 0.27112 0.27150 0.97837
 H1556 H 0.21570 0.25723 0.99185
 H1557 H 0.21877 0.23583 0.96443
 H1558 H 0.21698 0.26203 0.96544
 H1559 H 0.27476 0.24086 1.04169
 H1560 H 0.29036 0.25787 1.02514
 H1561 H 0.22566 0.20719 0.97419
 H1562 H 0.27210 0.22439 0.95625
 H1563 H 0.24015 0.27599 1.04072
 H1564 H 0.25790 0.29026 1.02565
 H1565 H 0.29198 0.22454 0.97304
 H1566 H 0.28270 0.21684 1.01013
 H1567 H 0.22483 0.29100 0.99227
 H1568 H 0.20772 0.27492 1.00885
 C1569 C 0.27518 0.39480 0.76649
 C1570 C 0.29222 0.39090 0.77016
 C1571 C 0.28702 0.38324 0.78526
 C1572 C 0.27007 0.38690 0.78169
 C1573 C 0.27701 0.41010 0.77527
 C1574 C 0.27182 0.40244 0.79038
 C1575 C 0.29395 0.40643 0.77885
 C1576 C 0.28884 0.39856 0.79403
 C1577 C 0.29276 0.36844 0.79105
 C1578 C 0.29764 0.35641 0.79604
 C1579 C 0.27164 0.42522 0.76995
 C1580 C 0.26747 0.43784 0.76586
 H1581 H 0.26949 0.39343 0.75510
 H1582 H 0.30067 0.38599 0.76191
 H1583 H 0.26032 0.37869 0.78293
 H1584 H 0.26337 0.40735 0.79864
 H1585 H 0.30371 0.41464 0.77762
 H1586 H 0.29452 0.39995 0.80542
 C1587 C 0.28228 -0.09215 0.29222
 C1588 C 0.27269 -0.10722 0.29281
 C1589 C 0.28640 -0.11601 0.28587
 C1590 C 0.29607 -0.10114 0.28537
 C1591 C 0.27630 -0.08922 0.27580
 C1592 C 0.29002 -0.09800 0.26886
 C1593 C 0.26661 -0.10407 0.27630
 C1594 C 0.28043 -0.11310 0.26945
 C1595 C 0.29221 -0.13077 0.29169
 C1596 C 0.29717 -0.14277 0.29669
 C1597 C 0.27089 -0.07413 0.27043
 C1598 C 0.26670 -0.06153 0.26630
 H1599 H 0.28298 -0.08337 0.30152
 H1600 H 0.26563 -0.11118 0.30272
 H1601 H 0.30824 -0.10010 0.28916
 H1602 H 0.29708 -0.09404 0.25895
 H1603 H 0.25444 -0.10510 0.27251
 H1604 H 0.27974 -0.12189 0.26016
 C1605 C 0.78805 0.90559 0.78640
 C1606 C 0.77767 0.89334 0.79420
 C1607 C 0.78478 0.88091 0.78376
 C1608 C 0.79524 0.89296 0.77604
 C1609 C 0.77550 0.90818 0.77417
 C1610 C 0.78262 0.89577 0.76372
 C1611 C 0.76503 0.89614 0.78190
 C1612 C 0.77223 0.88346 0.77153
 C1613 C 0.79021 0.86592 0.78937
 C1614 C 0.79494 0.85379 0.79426
 C1615 C 0.77059 0.92356 0.76917
 C1616 C 0.76683 0.93642 0.76544
 H1617 H 0.79451 0.91486 0.79246
 H1618 H 0.77569 0.89218 0.80679
 H1619 H 0.80773 0.89149 0.77369
 H1620 H 0.78459 0.89694 0.75113
 H1621 H 0.75255 0.89762 0.78424
 H1622 H 0.76579 0.87418 0.76548
 C1623 C 0.45640 0.84288 0.28192
 C1624 C 0.46342 0.85197 0.29560
 C1625 C 0.46265 0.86680 0.28591
 C1626 C 0.45555 0.85793 0.27231
 C1627 C 0.47272 0.84006 0.27568
 C1628 C 0.47196 0.85488 0.26597
 C1629 C 0.47982 0.84893 0.28928
 C1630 C 0.47897 0.86400 0.27968
 C1631 C 0.45686 0.88153 0.29183
 C1632 C 0.45192 0.89349 0.29690
 C1633 C 0.47812 0.82500 0.27024
 C1634 C 0.48230 0.81241 0.26607
 H1635 H 0.44718 0.83403 0.28278
 H1636 H 0.45985 0.85092 0.30784
 H1637 H 0.44549 0.86179 0.26540
 H1638 H 0.47553 0.85590 0.25373
 H1639 H 0.48987 0.84506 0.29620
 H1640 H 0.48819 0.87286 0.27883
 C1641 C -0.01513 0.85630 0.77579
 C1642 C -0.02876 0.86559 0.76889
 C1643 C -0.03469 0.86866 0.78530
 C1644 C -0.02116 0.85962 0.79228
 C1645 C -0.02510 0.84165 0.77530
 C1646 C -0.03104 0.84474 0.79170
 C1647 C -0.03864 0.85068 0.76832
 C1648 C -0.04464 0.85399 0.78480
 C1649 C -0.04030 0.88350 0.79113
 C1650 C -0.04519 0.89551 0.79617
 C1651 C -0.02006 0.82638 0.77008
 C1652 C -0.01624 0.81359 0.76617
 H1653 H -0.00293 0.85708 0.77202
 H1654 H -0.02788 0.87435 0.75958
 H1655 H -0.01404 0.86346 0.80221
 H1656 H -0.03193 0.83600 0.80102
 H1657 H -0.04577 0.84684 0.75840
 H1658 H -0.05684 0.85318 0.78856
 C1659 C -0.03353 -0.09298 -0.04138
 C1660 C -0.02321 -0.10743 -0.04329
 C1661 C -0.03566 -0.11718 -0.03530
 C1662 C -0.04606 -0.10295 -0.03348
 C1663 C -0.02617 -0.09003 -0.02554
 C1664 C -0.03862 -0.09977 -0.01755
 C1665 C -0.01575 -0.10425 -0.02736
 C1666 C -0.02829 -0.11424 -0.01945
 C1667 C -0.04114 -0.13215 -0.04093
 C1668 C -0.04585 -0.14431 -0.04578
 C1669 C -0.02108 -0.07476 -0.02034
 C1670 C -0.01711 -0.06205 -0.01632
 H1671 H -0.03563 -0.08408 -0.05034
 H1672 H -0.01693 -0.11074 -0.05393
 H1673 H -0.05858 -0.10257 -0.03605
 H1674 H -0.04490 -0.09645 -0.00691
 H1675 H -0.00323 -0.10460 -0.02478
 H1676 H -0.02620 -0.12316 -0.01050
 C1677 C -0.02477 0.39513 0.48348
 C1678 C -0.04158 0.39127 0.47882
 C1679 C -0.03550 0.38299 0.46439
 C1680 C -0.01878 0.38661 0.46895
 C1681 C -0.02580 0.41011 0.47404
 C1682 C -0.01972 0.40183 0.45960
 C1683 C -0.04252 0.40647 0.46947
 C1684 C -0.03652 0.39797 0.45496
 C1685 C -0.04109 0.36803 0.45881
 C1686 C -0.04587 0.35587 0.45401
 C1687 C -0.02061 0.42536 0.47918
 C1688 C -0.01657 0.43807 0.48316
 H1689 H -0.01988 0.39414 0.49526
 H1690 H -0.05063 0.38675 0.48666
 H1691 H -0.00908 0.37827 0.46867
 H1692 H -0.01068 0.40634 0.45175
 H1693 H -0.05223 0.41481 0.46974
 H1694 H -0.04141 0.39899 0.44318
 C1695 C 0.48009 -0.10522 0.47915
 C1696 C 0.46339 -0.11136 0.48083
 C1697 C 0.46374 -0.11642 0.46385
 C1698 C 0.48034 -0.11053 0.46207
 C1699 C 0.47362 -0.08955 0.47398
 C1700 C 0.47396 -0.09462 0.45700
 C1701 C 0.45702 -0.09545 0.47574
 C1702 C 0.45728 -0.10074 0.45869
 C1703 C 0.45804 -0.13124 0.45801
 C1704 C 0.45316 -0.14327 0.45302
 C1705 C 0.47891 -0.07442 0.47937
 C1706 C 0.48303 -0.06180 0.48353
 H1707 H 0.48953 -0.10689 0.48762
 H1708 H 0.45898 -0.11842 0.49055
 H1709 H 0.48986 -0.11690 0.45639
 H1710 H 0.47836 -0.08756 0.44726
 H1711 H 0.44748 -0.08908 0.48142
 H1712 H 0.44784 -0.09905 0.45022
 C1713 C 0.46820 0.40714 -0.04234
 C1714 C 0.47741 0.39185 -0.04166
 C1715 C 0.46289 0.38357 -0.03580
 C1716 C 0.45361 0.39865 -0.03657
 C1717 C 0.47272 0.41040 -0.02552
 C1718 C 0.45820 0.40212 -0.01966
 C1719 C 0.48202 0.39534 -0.02475
 C1720 C 0.46741 0.38681 -0.01898
 C1721 C 0.45723 0.36877 -0.04172
 C1722 C 0.45237 0.35674 -0.04677
 C1723 C 0.47800 0.42551 -0.02006
 C1724 C 0.48211 0.43813 -0.01587
 H1725 H 0.46858 0.41567 -0.05189
 H1726 H 0.48524 0.38746 -0.05078
 H1727 H 0.44186 0.39985 -0.04149
 H1728 H 0.45036 0.40651 -0.01056
 H1729 H 0.49377 0.39415 -0.01982
 H1730 H 0.46701 0.37827 -0.00944
 C1731 C 0.76766 0.35136 0.46446
 C1732 C 0.77169 0.36545 0.47475
 C1733 C 0.78658 0.36773 0.46544
 C1734 C 0.78263 0.35389 0.45507
 C1735 C 0.77664 0.34090 0.47558
 C1736 C 0.79151 0.34321 0.46627
 C1737 C 0.78058 0.35472 0.48597
 C1738 C 0.79555 0.35726 0.47656
 C1739 C 0.79236 0.38246 0.45949
 C1740 C 0.79735 0.39437 0.45432
 C1741 C 0.77139 0.32571 0.48086
 C1742 C 0.76740 0.31298 0.48478
 H1743 H 0.75614 0.34877 0.45955
 H1744 H 0.76361 0.37477 0.47816
 H1745 H 0.78353 0.35370 0.44231
 H1746 H 0.79961 0.33391 0.46285
 H1747 H 0.77967 0.35488 0.49874
 H1748 H 0.80708 0.35984 0.48147
 C1749 C 0.76601 0.85605 -0.02586
 C1750 C 0.77960 0.86523 -0.01869
 C1751 C 0.78588 0.86825 -0.03497
 C1752 C 0.77240 0.85933 -0.04223
 C1753 C 0.77583 0.84132 -0.02520
 C1754 C 0.78212 0.84437 -0.04147
 C1755 C 0.78932 0.85024 -0.01794
 C1756 C 0.79567 0.85350 -0.03430
 C1757 C 0.79173 0.88305 -0.04070
 C1758 C 0.79677 0.89502 -0.04569
 C1759 C 0.77055 0.82609 -0.02007
 C1760 C 0.76658 0.81333 -0.01620
 H1761 H 0.75375 0.85693 -0.02233
 H1762 H 0.77863 0.87398 -0.00939
 H1763 H 0.76551 0.86324 -0.05228
 H1764 H 0.78310 0.83563 -0.05079
 H1765 H 0.79621 0.84633 -0.00789
 H1766 H 0.80793 0.85260 -0.03783
 C1767 C 0.78888 0.26806 0.40043
 C1768 C 0.77897 0.26837 0.38556
 C1769 C 0.78475 0.28482 0.38230
 C1770 C 0.79474 0.28458 0.39693
 C1771 C 0.77530 0.27502 0.40940
 C1772 C 0.78110 0.29147 0.40612
 C1773 C 0.76529 0.27525 0.39479
 C1774 C 0.77118 0.29178 0.39128
 C1775 C 0.79029 0.29053 0.36741
 C1776 C 0.79511 0.29548 0.35535
 C1777 C 0.77034 0.26989 0.42471
 C1778 C 0.76658 0.26603 0.43751
 H1779 H 0.79610 0.25824 0.40436
 H1780 H 0.77815 0.25893 0.37693
 H1781 H 0.80690 0.28849 0.39766
 H1782 H 0.78192 0.30091 0.41474
 H1783 H 0.75313 0.27134 0.39409
 H1784 H 0.76396 0.30160 0.38735
 C1785 C 0.78895 0.76937 -0.09967
 C1786 C 0.77991 0.76743 -0.11496
 C1787 C 0.78357 0.78432 -0.11900
 C1788 C 0.79268 0.78633 -0.10394
 C1789 C 0.77408 0.77486 -0.09179
 C1790 C 0.77775 0.79174 -0.09585
 C1791 C 0.76494 0.77284 -0.10683
 C1792 C 0.76870 0.78982 -0.11112
 C1793 C 0.78914 0.78984 -0.13395
 C1794 C 0.79400 0.79464 -0.14605
 C1795 C 0.76912 0.76990 -0.07643
 C1796 C 0.76540 0.76614 -0.06358
 H1797 H 0.79722 0.76091 -0.09479
 H1798 H 0.78086 0.75750 -0.12300
 H1799 H 0.80414 0.79193 -0.10290
 H1800 H 0.77680 0.80169 -0.08783
 H1801 H 0.75348 0.76724 -0.10784
 H1802 H 0.76043 0.79829 -0.11600
 C1803 C 0.26920 0.47794 0.85486
 C1804 C 0.27023 0.46078 0.85985
 C1805 C 0.28652 0.46380 0.86610
 C1806 C 0.28559 0.48086 0.86136
 C1807 C 0.27637 0.47360 0.83926
 C1808 C 0.29266 0.47661 0.84552
 C1809 C 0.27730 0.45654 0.84401
 C1810 C 0.29367 0.45947 0.85049
 C1811 C 0.29236 0.45814 0.88091
 C1812 C 0.29734 0.45327 0.89293
 C1813 C 0.27097 0.47885 0.82414
 C1814 C 0.26683 0.48293 0.81153
 H1815 H 0.25908 0.48559 0.85648
 H1816 H 0.26107 0.45420 0.86591
 H1817 H 0.28907 0.49080 0.86867
 H1818 H 0.30183 0.48318 0.83946
 H1819 H 0.27383 0.44659 0.83671
 H1820 H 0.30379 0.45182 0.84884
 C1821 C 0.28982 -0.03816 0.34066
 C1822 C 0.29712 -0.02781 0.35326
 C1823 C 0.28725 -0.03606 0.36543
 C1824 C 0.28004 -0.04650 0.35305
 C1825 C 0.27687 -0.02625 0.33869
 C1826 C 0.26699 -0.03450 0.35085
 C1827 C 0.28408 -0.01581 0.35106
 C1828 C 0.27429 -0.02415 0.36348
 C1829 C 0.29318 -0.04172 0.38020
 C1830 C 0.29821 -0.04657 0.39221
 C1831 C 0.27130 -0.02097 0.32364
 C1832 C 0.26698 -0.01683 0.31110
 H1833 H 0.29614 -0.04387 0.33110
 H1834 H 0.30958 -0.02513 0.35440
 H1835 H 0.27844 -0.05918 0.35402
 H1836 H 0.25454 -0.03719 0.34970
 H1837 H 0.28568 -0.00312 0.35008
 H1838 H 0.26798 -0.01845 0.37304
 C1839 C -0.01689 -0.03779 -0.10017
 C1840 C -0.03224 -0.04643 -0.10309
 C1841 C -0.03525 -0.03594 -0.11705
 C1842 C -0.01997 -0.02737 -0.11438
 C1843 C -0.02557 -0.02615 -0.09002
 C1844 C -0.02857 -0.01564 -0.10397
 C1845 C -0.04084 -0.03472 -0.09272
 C1846 C -0.04392 -0.02431 -0.10690
 C1847 C -0.04085 -0.04158 -0.13197
 C1848 C -0.04567 -0.04640 -0.14408
 C1849 C -0.02041 -0.02090 -0.07481
 C1850 C -0.01643 -0.01682 -0.06213
 H1851 H -0.00571 -0.04327 -0.09723
 H1852 H -0.03381 -0.05916 -0.10288
 H1853 H -0.01146 -0.02442 -0.12346
 H1854 H -0.02700 -0.00292 -0.10416
 H1855 H -0.04936 -0.03768 -0.08365
 H1856 H -0.05511 -0.01883 -0.10982
 C1857 C -0.02164 0.45802 0.40273
 C1858 C -0.03870 0.45448 0.39889
 C1859 C -0.03689 0.46328 0.38362
 C1860 C -0.01990 0.46675 0.38723
 C1861 C -0.02670 0.47317 0.41043
 C1862 C -0.02488 0.48199 0.39517
 C1863 C -0.04368 0.46970 0.40681
 C1864 C -0.04195 0.47843 0.39132
 C1865 C -0.04273 0.45761 0.36882
 C1866 C -0.04772 0.45278 0.35678
 C1867 C -0.02125 0.47850 0.42550
 C1868 C -0.01701 0.48269 0.43805
 H1869 H -0.01322 0.44969 0.40759
 H1870 H -0.04445 0.44310 0.40026
 H1871 H -0.01019 0.46547 0.37900
 H1872 H -0.01913 0.49336 0.39381
 H1873 H -0.05340 0.47096 0.41502
 H1874 H -0.05037 0.48675 0.38646
 C1875 C 0.47868 -0.04138 0.40293
 C1876 C 0.46156 -0.04467 0.39911
 C1877 C 0.46354 -0.03605 0.38375
 C1878 C 0.48058 -0.03284 0.38734
 C1879 C 0.47388 -0.02607 0.41047
 C1880 C 0.47586 -0.01743 0.39513
 C1881 C 0.45684 -0.02929 0.40687
 C1882 C 0.45873 -0.02074 0.39130
 C1883 C 0.45758 -0.04180 0.36903
 C1884 C 0.45248 -0.04674 0.35708
 C1885 C 0.47937 -0.02074 0.42553
 C1886 C 0.48357 -0.01662 0.43811
 H1887 H 0.48695 -0.04981 0.40787
 H1888 H 0.45562 -0.05592 0.40059
 H1889 H 0.49027 -0.03437 0.37913
 H1890 H 0.48181 -0.00618 0.39367
 H1891 H 0.44714 -0.02777 0.41506
 H1892 H 0.45046 -0.01232 0.38635
 C1893 C 0.47429 0.45654 -0.09427
 C1894 C 0.45741 0.45760 -0.09993
 C1895 C 0.46324 0.46322 -0.11568
 C1896 C 0.48004 0.46208 -0.11025
 C1897 C 0.47337 0.47345 -0.08898
 C1898 C 0.47922 0.47909 -0.10472
 C1899 C 0.45656 0.47458 -0.09443
 C1900 C 0.46231 0.48013 -0.11040
 C1901 C 0.45739 0.45732 -0.13039
 C1902 C 0.45239 0.45226 -0.14232
 C1903 C 0.47876 0.47890 -0.07394
 C1904 C 0.48290 0.48310 -0.06136
 H1905 H 0.47927 0.44690 -0.08747
 H1906 H 0.44837 0.44869 -0.09811
 H1907 H 0.48963 0.45687 -0.11692
 H1908 H 0.48825 0.48799 -0.10651
 H1909 H 0.44697 0.47978 -0.08775
 H1910 H 0.45731 0.48976 -0.11721
 C1911 C 0.48455 0.78142 0.35297
 C1912 C 0.47472 0.79613 0.35552
 C1913 C 0.46418 0.78692 0.36639
 C1914 C 0.47391 0.77229 0.36408
 C1915 C 0.47397 0.77692 0.33949
 C1916 C 0.46343 0.76770 0.35034
 C1917 C 0.46423 0.79154 0.34182
 C1918 C 0.45362 0.78242 0.35289
 C1919 C 0.45851 0.79267 0.38121
 C1920 C 0.45363 0.79759 0.39326
 C1921 C 0.47918 0.77158 0.32434
 C1922 C 0.48320 0.76744 0.31171
 H1923 H 0.49732 0.78095 0.35282
 H1924 H 0.47930 0.80788 0.35782
 H1925 H 0.47783 0.76444 0.37340
 H1926 H 0.45885 0.75596 0.34804
 H1927 H 0.46031 0.79940 0.33250
 H1928 H 0.44084 0.78289 0.35302
 C1929 C -0.01646 0.77221 0.85688
 C1930 C -0.01890 0.78935 0.86143
 C1931 C -0.03448 0.78499 0.86862
 C1932 C -0.03214 0.76794 0.86433
 C1933 C -0.02481 0.77531 0.84157
 C1934 C -0.04039 0.77095 0.84877
 C1935 C -0.02716 0.79235 0.84588
 C1936 C -0.04280 0.78807 0.85329
 C1937 C -0.04016 0.79064 0.88349
 C1938 C -0.04511 0.79554 0.89551
 C1939 C -0.01975 0.77021 0.82628
 C1940 C -0.01596 0.76636 0.81349
 H1941 H -0.00557 0.76563 0.85817
 H1942 H -0.01013 0.79699 0.86681
 H1943 H -0.03426 0.75797 0.87209
 H1944 H -0.04917 0.76333 0.84339
 H1945 H -0.02505 0.80234 0.83813
 H1946 H -0.05369 0.79465 0.85197
 C1947 C 0.39788 0.78390 0.26621
 C1948 C 0.38577 0.77408 0.27496
 C1949 C 0.38371 0.78737 0.28652
 C1950 C 0.39559 0.79726 0.27785
 C1951 C 0.41051 0.77723 0.27667
 C1952 C 0.40844 0.79051 0.28823
 C1953 C 0.39865 0.76732 0.28534
 C1954 C 0.39636 0.78070 0.29698
 C1955 C 0.36892 0.79319 0.29217
 C1956 C 0.35688 0.79815 0.29699
 C1957 C 0.42558 0.77180 0.27137
 C1958 C 0.43813 0.76759 0.26720
 H1959 H 0.39868 0.78514 0.25350
 H1960 H 0.37627 0.76739 0.26957
 H1961 H 0.39417 0.80964 0.27484
 H1962 H 0.41793 0.79721 0.29363
 H1963 H 0.40008 0.75495 0.28836
 H1964 H 0.39557 0.77945 0.30969
 C1965 C -0.10006 0.78853 0.76823
 C1966 C -0.11503 0.77878 0.76770
 C1967 C -0.11871 0.78397 0.78424
 C1968 C -0.10397 0.79380 0.78483
 C1969 C -0.09146 0.77455 0.77491
 C1970 C -0.09516 0.77975 0.79144
 C1971 C -0.10618 0.76470 0.77431
 C1972 C -0.11011 0.76999 0.79093
 C1973 C -0.13368 0.78950 0.78969
 C1974 C -0.14580 0.79434 0.79442
 C1975 C -0.07609 0.76962 0.77001
 C1976 C -0.06325 0.76590 0.76630
 H1977 H -0.09575 0.79610 0.75884
 H1978 H -0.12338 0.77844 0.75801
 H1979 H -0.10322 0.80582 0.78921
 H1980 H -0.08683 0.78009 0.80115
 H1981 H -0.10691 0.75268 0.76993
 H1982 H -0.11442 0.76243 0.80032
 C1983 C 0.85077 0.26784 0.46164
 C1984 C 0.85419 0.28451 0.45616
 C1985 C 0.86898 0.28448 0.46589
 C1986 C 0.86580 0.26789 0.47130
 C1987 C 0.84206 0.27446 0.47557
 C1988 C 0.85684 0.27442 0.48533
 C1989 C 0.84527 0.29105 0.47015
 C1990 C 0.86028 0.29110 0.47982
 C1991 C 0.88377 0.29034 0.46022
 C1992 C 0.89571 0.29541 0.45527
 C1993 C 0.82683 0.26924 0.48065
 C1994 C 0.81407 0.26536 0.48450
 H1995 H 0.84669 0.25822 0.45423
 H1996 H 0.85325 0.28872 0.44411
 H1997 H 0.87442 0.25843 0.47170
 H1998 H 0.85775 0.27020 0.49738
 H1999 H 0.83667 0.30052 0.46974
 H2000 H 0.86435 0.30073 0.48722
 C2001 C 0.84462 0.78001 -0.04194
 C2002 C 0.85356 0.79392 -0.03518
 C2003 C 0.86829 0.78411 -0.03507
 C2004 C 0.85957 0.77026 -0.04191
 C2005 C 0.84121 0.77445 -0.02547
 C2006 C 0.85593 0.76461 -0.02534
 C2007 C 0.84994 0.78830 -0.01863
 C2008 C 0.86491 0.77855 -0.01859
 C2009 C 0.88317 0.78979 -0.04067
 C2010 C 0.89520 0.79475 -0.04552
 C2011 C 0.82592 0.76943 -0.02040
 C2012 C 0.81312 0.76569 -0.01654
 H2013 H 0.83611 0.78056 -0.05149
 H2014 H 0.85274 0.80604 -0.03929
 H2015 H 0.86369 0.76291 -0.05155
 H2016 H 0.85672 0.75250 -0.02124
 H2017 H 0.84581 0.79566 -0.00901
 H2018 H 0.87343 0.77802 -0.00906
 C2019 C -0.10226 -0.01606 -0.03318
 C2020 C -0.10480 -0.02752 -0.04667
 C2021 C -0.11638 -0.03646 -0.03667
 C2022 C -0.11407 -0.02509 -0.02326
 C2023 C -0.08940 -0.02655 -0.02700
 C2024 C -0.10096 -0.03549 -0.01699
 C2025 C -0.09172 -0.03792 -0.04040
 C2026 C -0.10351 -0.04694 -0.03048
 C2027 C -0.13128 -0.04214 -0.04222
 C2028 C -0.14341 -0.04699 -0.04696
 C2029 C -0.07424 -0.02123 -0.02177
 C2030 C -0.06165 -0.01709 -0.01764
 H2031 H -0.10157 -0.00330 -0.03423
 H2032 H -0.10655 -0.02430 -0.05894
 H2033 H -0.12343 -0.01988 -0.01627
 H2034 H -0.09921 -0.03871 -0.00472
 H2035 H -0.08237 -0.04313 -0.04740
 H2036 H -0.10419 -0.05970 -0.02943
 C2037 C -0.10350 0.48468 0.47034
 C2038 C -0.10630 0.47649 0.45469
 C2039 C -0.11616 0.46434 0.46301
 C2040 C -0.11361 0.47242 0.47857
 C2041 C -0.08933 0.47438 0.47294
 C2042 C -0.09920 0.46222 0.48126
 C2043 C -0.09191 0.46629 0.45738
 C2044 C -0.10199 0.45405 0.46562
 C2045 C -0.13096 0.45853 0.45731
 C2046 C -0.14297 0.45353 0.45244
 C2047 C -0.07423 0.47972 0.47826
 C2048 C -0.06162 0.48383 0.48239
 H2049 H -0.10395 0.49733 0.47235
 H2050 H -0.10938 0.48229 0.44370
 H2051 H -0.12271 0.47488 0.48722
 H2052 H -0.09611 0.45642 0.49224
 H2053 H -0.08281 0.46382 0.44873
 H2054 H -0.10152 0.44140 0.46361
 C2055 C 0.40705 -0.04345 0.47020
 C2056 C 0.39134 -0.04059 0.47816
 C2057 C 0.38442 -0.03626 0.46244
 C2058 C 0.39991 -0.03921 0.45441
 C2059 C 0.41119 -0.02638 0.47268
 C2060 C 0.40427 -0.02206 0.45696
 C2061 C 0.39571 -0.02342 0.48073
 C2062 C 0.38855 -0.01918 0.46491
 C2063 C 0.36964 -0.04195 0.45659
 C2064 C 0.35761 -0.04683 0.45163
 C2065 C 0.42625 -0.02107 0.47819
 C2066 C 0.43879 -0.01693 0.48248
 H2067 H 0.41483 -0.05338 0.47244
 H2068 H 0.38586 -0.04827 0.48681
 H2069 H 0.40148 -0.04576 0.44352
 H2070 H 0.40976 -0.01438 0.44830
 H2071 H 0.39416 -0.01686 0.49162
 H2072 H 0.38077 -0.00927 0.46266
 C2073 C 0.39534 0.48291 -0.02617
 C2074 C 0.39185 0.47807 -0.04302
 C2075 C 0.38358 0.46360 -0.03696
 C2076 C 0.38682 0.46834 -0.02020
 C2077 C 0.41036 0.47356 -0.02682
 C2078 C 0.40209 0.45909 -0.02076
 C2079 C 0.40710 0.46881 -0.04357
 C2080 C 0.39861 0.45427 -0.03761
 C2081 C 0.36879 0.45786 -0.04276
 C2082 C 0.35676 0.45295 -0.04770
 C2083 C 0.42542 0.47890 -0.02136
 C2084 C 0.43797 0.48306 -0.01709
 H2085 H 0.39417 0.49474 -0.02140
 H2086 H 0.38748 0.48580 -0.05224
 H2087 H 0.37831 0.46808 -0.01065
 H2088 H 0.40646 0.45135 -0.01155
 H2089 H 0.41561 0.46906 -0.05313
 H2090 H 0.39980 0.44243 -0.04237
 C2091 C 0.34386 0.47254 0.79388
 C2092 C 0.35003 0.45593 0.79159
 C2093 C 0.36575 0.46266 0.78700
 C2094 C 0.35980 0.47920 0.78938
 C2095 C 0.33911 0.47290 0.77682
 C2096 C 0.35482 0.47965 0.77221
 C2097 C 0.34506 0.45637 0.77445
 C2098 C 0.36101 0.46302 0.76993
 C2099 C 0.38045 0.45679 0.79285
 C2100 C 0.39240 0.45180 0.79786
 C2101 C 0.32412 0.47839 0.77135
 C2102 C 0.31161 0.48264 0.76709
 H2103 H 0.33664 0.47651 0.80367
 H2104 H 0.34821 0.44611 0.79961
 H2105 H 0.36603 0.48851 0.79559
 H2106 H 0.35662 0.48947 0.76419
 H2107 H 0.33883 0.44704 0.76825
 H2108 H 0.36823 0.45903 0.76015
 C2109 C 0.34192 -0.03096 0.29291
 C2110 C 0.35079 -0.04494 0.28624
 C2111 C 0.36568 -0.03534 0.28658
 C2112 C 0.35703 -0.02143 0.29334
 C2113 C 0.33900 -0.02520 0.27641
 C2114 C 0.35387 -0.01557 0.27674
 C2115 C 0.34765 -0.03911 0.26966
 C2116 C 0.36277 -0.02958 0.27008
 C2117 C 0.38039 -0.04122 0.29241
 C2118 C 0.39232 -0.04627 0.29739
 C2119 C 0.32395 -0.01981 0.27098
 C2120 C 0.31138 -0.01569 0.26678
 H2121 H 0.33319 -0.03147 0.30224
 H2122 H 0.34968 -0.05708 0.29021
 H2123 H 0.36105 -0.01423 0.30314
 H2124 H 0.35496 -0.00344 0.27277
 H2125 H 0.34363 -0.04631 0.25986
 H2126 H 0.37152 -0.02909 0.26075
 C2127 C 0.14922 0.53736 0.73353
 C2128 C 0.14624 0.54519 0.71776
 C2129 C 0.13197 0.53491 0.71559
 C2130 C 0.13471 0.52715 0.73128
 C2131 C 0.15890 0.52499 0.72534
 C2132 C 0.14464 0.51468 0.72317
 C2133 C 0.15612 0.53275 0.70965
 C2134 C 0.14165 0.52254 0.70739
 C2135 C 0.11718 0.54069 0.70986
 C2136 C 0.10523 0.54570 0.70487
 C2137 C 0.17413 0.51979 0.73042
 C2138 C 0.18689 0.51589 0.73421
 H2139 H 0.15251 0.54339 0.74434
 H2140 H 0.14674 0.55779 0.71547
 H2141 H 0.12573 0.52493 0.74012
 H2142 H 0.14416 0.50208 0.72546
 H2143 H 0.16509 0.53499 0.70080
 H2144 H 0.13837 0.51651 0.69658
 C2145 C 0.15060 0.01970 0.20984
 C2146 C 0.13517 0.01776 0.21863
 C2147 C 0.13131 0.03471 0.21510
 C2148 C 0.14650 0.03672 0.20623
 C2149 C 0.15829 0.02499 0.22490
 C2150 C 0.15440 0.04193 0.22136
 C2151 C 0.14312 0.02297 0.23379
 C2152 C 0.13900 0.04001 0.23016
 C2153 C 0.11649 0.04040 0.20936
 C2154 C 0.10452 0.04535 0.20437
 C2155 C 0.17354 0.01991 0.23002
 C2156 C 0.18632 0.01611 0.23387
 H2157 H 0.15553 0.01129 0.20154
 H2158 H 0.12709 0.00789 0.21743
 H2159 H 0.14774 0.04243 0.19484
 H2160 H 0.16247 0.05182 0.22254
 H2161 H 0.14191 0.01725 0.24518
 H2162 H 0.13406 0.04842 0.23845
 C2163 C 0.59535 0.72406 0.20818
 C2164 C 0.61101 0.73179 0.21190
 C2165 C 0.61780 0.71578 0.21536
 C2166 C 0.60235 0.70798 0.21155
 C2167 C 0.59084 0.72545 0.22525
 C2168 C 0.59763 0.70944 0.22870
 C2169 C 0.60627 0.73327 0.22908
 C2170 C 0.61331 0.71715 0.23244
 C2171 C 0.63260 0.71012 0.20957
 C2172 C 0.64457 0.70520 0.20455
 C2173 C 0.57560 0.73053 0.23041
 C2174 C 0.56283 0.73437 0.23425
 H2175 H 0.58780 0.72695 0.19826
 H2176 H 0.61669 0.74091 0.20493
 H2177 H 0.60089 0.69753 0.20428
 H2178 H 0.59196 0.70030 0.23566
 H2179 H 0.60770 0.74372 0.23635
 H2180 H 0.62086 0.71425 0.24235
 C2181 C 0.10393 0.72230 0.73441
 C2182 C 0.10694 0.70616 0.72728
 C2183 C 0.11615 0.71388 0.71426
 C2184 C 0.11339 0.72993 0.72129
 C2185 C 0.08937 0.72373 0.72444
 C2186 C 0.09858 0.73145 0.71142
 C2187 C 0.09214 0.70769 0.71741
 C2188 C 0.10157 0.71532 0.70432
 C2189 C 0.13091 0.70820 0.70839
 C2190 C 0.14290 0.70333 0.70336
 C2191 C 0.07428 0.72901 0.72985
 C2192 C 0.06170 0.73312 0.73400
 H2193 H 0.10473 0.72524 0.74684
 H2194 H 0.11054 0.69570 0.73374
 H2195 H 0.12230 0.73901 0.72281
 H2196 H 0.09497 0.74190 0.70496
 H2197 H 0.08325 0.69860 0.71588
 H2198 H 0.10075 0.71239 0.69188
 C2199 C 0.65843 0.20820 0.53518
 C2200 C 0.64812 0.21687 0.54688
 C2201 C 0.63417 0.21403 0.53635
 C2202 C 0.64426 0.20528 0.52472
 C2203 C 0.66129 0.22351 0.52670
 C2204 C 0.64735 0.22067 0.51615
 C2205 C 0.65121 0.23227 0.53833
 C2206 C 0.63701 0.22935 0.52787
 C2207 C 0.61919 0.20858 0.54190
 C2208 C 0.60700 0.20391 0.54665
 C2209 C 0.67652 0.22863 0.52152
 C2210 C 0.68917 0.23266 0.51747
 H2211 H 0.66740 0.19956 0.53812
 H2212 H 0.64828 0.21525 0.55958
 H2213 H 0.64123 0.19412 0.51919
 H2214 H 0.64720 0.22229 0.50346
 H2215 H 0.65424 0.24342 0.54386
 H2216 H 0.62803 0.23798 0.52494
 C2217 C 0.65261 0.70930 0.02076
 C2218 C 0.64819 0.70653 0.03784
 C2219 C 0.63295 0.71509 0.03505
 C2220 C 0.63713 0.71778 0.01805
 C2221 C 0.66001 0.72474 0.02539
 C2222 C 0.64478 0.73332 0.02260
 C2223 C 0.65581 0.72204 0.04239
 C2224 C 0.64035 0.73054 0.03969
 C2225 C 0.61802 0.70952 0.04064
 C2226 C 0.60590 0.70474 0.04545
 C2227 C 0.67524 0.72988 0.02024
 C2228 C 0.68793 0.73387 0.01625
 H2229 H 0.65782 0.70062 0.01292
 H2230 H 0.64943 0.69546 0.04416
 H2231 H 0.62928 0.71596 0.00811
 H2232 H 0.64356 0.74439 0.01628
 H2233 H 0.66366 0.72385 0.05234
 H2234 H 0.63513 0.73921 0.04754
 C2235 C 0.10113 0.03715 0.01629
 C2236 C 0.10395 0.04550 0.03183
 C2237 C 0.11794 0.03503 0.03470
 C2238 C 0.11536 0.02675 0.01924
 C2239 C 0.09101 0.02529 0.02472
 C2240 C 0.10498 0.01479 0.02759
 C2241 C 0.09362 0.03358 0.04017
 C2242 C 0.10781 0.02317 0.04313
 C2243 C 0.13273 0.04072 0.04053
 C2244 C 0.14469 0.04567 0.04559
 C2245 C 0.07578 0.02017 0.01952
 C2246 C 0.06303 0.01630 0.01563
 H2247 H 0.09822 0.04283 0.00520
 H2248 H 0.10368 0.05819 0.03364
 H2249 H 0.12448 0.02400 0.01071
 H2250 H 0.10523 0.00211 0.02577
 H2251 H 0.08451 0.03633 0.04873
 H2252 H 0.11071 0.01749 0.05422
 C2253 C 0.09515 0.52949 0.54092
 C2254 C 0.11039 0.52030 0.53964
 C2255 C 0.11845 0.53497 0.53379
 C2256 C 0.10343 0.54423 0.53515
 C2257 C 0.09141 0.52525 0.52413
 C2258 C 0.09947 0.53991 0.51829
 C2259 C 0.10641 0.51596 0.52276
 C2260 C 0.11474 0.53073 0.51699
 C2261 C 0.13331 0.54065 0.53945
 C2262 C 0.14532 0.54557 0.54440
 C2263 C 0.07612 0.52015 0.51909
 C2264 C 0.06333 0.51631 0.51529
 H2265 H 0.08693 0.52893 0.55071
 H2266 H 0.11504 0.51230 0.54849
 H2267 H 0.10235 0.55591 0.54031
 H2268 H 0.09482 0.54792 0.50945
 H2269 H 0.10746 0.50428 0.51760
 H2270 H 0.12297 0.53131 0.50721
 C2271 C 0.59981 0.03980 0.51841
 C2272 C 0.60329 0.04495 0.53515
 C2273 C 0.61826 0.03551 0.53474
 C2274 C 0.61502 0.03044 0.51807
 C2275 C 0.59143 0.02552 0.52475
 C2276 C 0.60638 0.01605 0.52433
 C2277 C 0.59469 0.03060 0.54141
 C2278 C 0.60987 0.02123 0.54108
 C2279 C 0.63299 0.04133 0.54059
 C2280 C 0.64490 0.04636 0.54569
 C2281 C 0.57624 0.02028 0.51954
 C2282 C 0.56351 0.01634 0.51565
 H2283 H 0.59551 0.04738 0.50903
 H2284 H 0.60217 0.05690 0.53967
 H2285 H 0.62356 0.03044 0.50855
 H2286 H 0.60747 0.00411 0.51981
 H2287 H 0.58618 0.03062 0.55095
 H2288 H 0.61417 0.01366 0.55047
 C2289 C 0.59976 0.53854 0.01764
 C2290 C 0.60324 0.54480 0.03401
 C2291 C 0.61787 0.53485 0.03449
 C2292 C 0.61464 0.52867 0.01820
 C2293 C 0.59082 0.52506 0.02490
 C2294 C 0.60544 0.51509 0.02537
 C2295 C 0.59408 0.53125 0.04118
 C2296 C 0.60892 0.52137 0.04175
 C2297 C 0.63273 0.54056 0.04012
 C2298 C 0.64475 0.54551 0.04504
 C2299 C 0.57553 0.51994 0.01989
 C2300 C 0.56273 0.51608 0.01612
 H2301 H 0.59583 0.54555 0.00767
 H2302 H 0.60248 0.55708 0.03762
 H2303 H 0.62327 0.52767 0.00881
 H2304 H 0.60617 0.50281 0.02176
 H2305 H 0.58546 0.53226 0.05058
 H2306 H 0.61286 0.51437 0.05172
 C2307 C 0.02469 0.01525 0.10593
 C2308 C 0.04131 0.02074 0.10953
 C2309 C 0.03466 0.03477 0.11808
 C2310 C 0.01813 0.02939 0.11473
 C2311 C 0.02496 0.02491 0.09108
 C2312 C 0.01832 0.03895 0.09962
 C2313 C 0.04149 0.03031 0.09445
 C2314 C 0.03493 0.04441 0.10321
 C2315 C 0.04033 0.04054 0.13291
 C2316 C 0.04524 0.04555 0.14491
 C2317 C 0.01986 0.01977 0.07582
 C2318 C 0.01599 0.01592 0.06304
 H2319 H 0.02042 0.00320 0.10687
 H2320 H 0.05083 0.01331 0.11378
 H2321 H 0.00859 0.02908 0.12324
 H2322 H 0.00880 0.04638 0.09538
 H2323 H 0.05105 0.03063 0.08596
 H2324 H 0.03920 0.05646 0.10225
 C2325 C 0.03903 0.51777 0.59980
 C2326 C 0.04495 0.53430 0.60318
 C2327 C 0.03507 0.53464 0.61787
 C2328 C 0.02923 0.51818 0.61473
 C2329 C 0.02540 0.52472 0.59088
 C2330 C 0.01550 0.52504 0.60555
 C2331 C 0.03125 0.54117 0.59405
 C2332 C 0.02145 0.54158 0.60895
 C2333 C 0.04072 0.54044 0.63269
 C2334 C 0.04563 0.54548 0.64468
 C2335 C 0.02031 0.51955 0.57562
 C2336 C 0.01646 0.51570 0.56284
 H2337 H 0.04620 0.50792 0.59587
 H2338 H 0.05712 0.53818 0.60235
 H2339 H 0.02846 0.50879 0.62341
 H2340 H 0.00333 0.52117 0.60635
 H2341 H 0.03203 0.55057 0.58538
 H2342 H 0.01428 0.55144 0.61287
 C2343 C 0.54124 0.03318 0.59376
 C2344 C 0.53276 0.04489 0.60421
 C2345 C 0.53585 0.03437 0.61813
 C2346 C 0.54442 0.02273 0.60789
 C2347 C 0.52593 0.02465 0.59116
 C2348 C 0.52901 0.01411 0.60506
 C2349 C 0.51736 0.03630 0.60140
 C2350 C 0.52053 0.02585 0.61557
 C2351 C 0.54163 0.04006 0.63295
 C2352 C 0.54662 0.04502 0.64494
 C2353 C 0.52070 0.01959 0.57592
 C2354 C 0.51674 0.01579 0.56315
 H2355 H 0.54971 0.03614 0.58463
 H2356 H 0.53437 0.05761 0.60402
 H2357 H 0.55561 0.01721 0.61071
 H2358 H 0.52740 0.00139 0.60524
 H2359 H 0.50618 0.04182 0.59857
 H2360 H 0.51208 0.02290 0.62471
 C2361 C 0.53491 0.51505 0.10267
 C2362 C 0.54455 0.52981 0.10567
 C2363 C 0.53382 0.53386 0.11916
 C2364 C 0.52425 0.51918 0.11641
 C2365 C 0.52437 0.52440 0.09193
 C2366 C 0.51363 0.52845 0.10541
 C2367 C 0.53394 0.53908 0.09472
 C2368 C 0.52329 0.54321 0.10842
 C2369 C 0.53934 0.53941 0.13413
 C2370 C 0.54412 0.54426 0.14625
 C2371 C 0.51939 0.51946 0.07657
 C2372 C 0.51560 0.51574 0.06373
 H2373 H 0.53962 0.50341 0.10013
 H2374 H 0.55732 0.53043 0.10594
 H2375 H 0.52033 0.51107 0.12551
 H2376 H 0.50086 0.52783 0.10512
 H2377 H 0.53787 0.54721 0.08564
 H2378 H 0.51857 0.55485 0.11094
 C2379 C 0.23554 0.52814 0.64480
 C2380 C 0.22430 0.51933 0.63401
 C2381 C 0.21534 0.53440 0.63144
 C2382 C 0.22648 0.54329 0.64198
 C2383 C 0.22489 0.52455 0.65849
 C2384 C 0.21592 0.53962 0.65588
 C2385 C 0.21375 0.51565 0.64796
 C2386 C 0.20471 0.53081 0.64514
 C2387 C 0.20977 0.54017 0.61658
 C2388 C 0.20493 0.54519 0.60456
 C2389 C 0.22993 0.51942 0.67376
 C2390 C 0.23378 0.51559 0.68655
 H2391 H 0.24827 0.52698 0.64484
 H2392 H 0.22769 0.51106 0.62485
 H2393 H 0.23165 0.55473 0.63935
 H2394 H 0.21252 0.54790 0.66503
 H2395 H 0.20857 0.50423 0.65059
 H2396 H 0.19197 0.53196 0.64512
 C2397 C 0.20706 0.02868 0.15471
 C2398 C 0.21270 0.04352 0.14652
 C2399 C 0.21403 0.03439 0.13139
 C2400 C 0.20830 0.01962 0.13937
 C2401 C 0.22387 0.02451 0.15833
 C2402 C 0.22522 0.01535 0.14321
 C2403 C 0.22959 0.03928 0.15035
 C2404 C 0.23085 0.03022 0.13499
 C2405 C 0.20829 0.04019 0.11660
 C2406 C 0.20334 0.04525 0.10465
 C2407 C 0.22906 0.01937 0.17356
 C2408 C 0.23300 0.01556 0.18632
 H2409 H 0.19732 0.02799 0.16298
 H2410 H 0.20749 0.05516 0.14774
 H2411 H 0.19947 0.01160 0.13468
 H2412 H 0.23043 0.00371 0.14203
 H2413 H 0.23841 0.04730 0.15503
 H2414 H 0.24057 0.03093 0.12670
 C2415 C 0.73355 0.21351 0.60103
 C2416 C 0.72864 0.22385 0.61476
 C2417 C 0.71429 0.21368 0.61696
 C2418 C 0.71912 0.20326 0.60347
 C2419 C 0.72416 0.22385 0.59015
 C2420 C 0.70981 0.21368 0.59236
 C2421 C 0.71932 0.23428 0.60362
 C2422 C 0.70489 0.22402 0.60607
 C2423 C 0.70861 0.20782 0.63175
 C2424 C 0.70375 0.20279 0.64375
 C2425 C 0.72944 0.22926 0.57505
 C2426 C 0.73356 0.23342 0.56245
 H2427 H 0.74540 0.20925 0.59879
 H2428 H 0.73631 0.22796 0.62415
 H2429 H 0.71898 0.19044 0.60356
 H2430 H 0.70212 0.20956 0.58299
 H2431 H 0.71947 0.24710 0.60352
 H2432 H 0.69304 0.22828 0.60830
 C2433 C 0.72307 0.70730 0.09442
 C2434 C 0.72991 0.71227 0.11016
 C2435 C 0.71348 0.71462 0.11632
 C2436 C 0.70657 0.70956 0.10080
 C2437 C 0.72319 0.72427 0.08926
 C2438 C 0.70676 0.72661 0.09541
 C2439 C 0.73011 0.72934 0.10476
 C2440 C 0.71359 0.73160 0.11116
 C2441 C 0.70792 0.70907 0.13127
 C2442 C 0.70319 0.70430 0.14343
 C2443 C 0.72843 0.72944 0.07406
 C2444 C 0.73255 0.73349 0.06143
 H2445 H 0.72703 0.69736 0.08737
 H2446 H 0.73936 0.70632 0.11640
 H2447 H 0.69684 0.70137 0.09933
 H2448 H 0.69730 0.73256 0.08918
 H2449 H 0.73985 0.73753 0.10621
 H2450 H 0.70963 0.74152 0.11822
 C2451 C 0.51776 0.73050 0.14315
 C2452 C 0.53416 0.73326 0.13659
 C2453 C 0.53478 0.71624 0.13160
 C2454 C 0.51849 0.71339 0.13790
 C2455 C 0.52496 0.72582 0.15864
 C2456 C 0.52560 0.70881 0.15363
 C2457 C 0.54126 0.72866 0.15233
 C2458 C 0.54196 0.71159 0.14711
 C2459 C 0.54050 0.71062 0.11674
 C2460 C 0.54543 0.70570 0.10472
 C2461 C 0.51980 0.73083 0.17391
 C2462 C 0.51589 0.73460 0.18670
 H2463 H 0.50775 0.73833 0.14170
 H2464 H 0.53775 0.74324 0.12941
 H2465 H 0.50919 0.70705 0.13179
 H2466 H 0.52202 0.69882 0.16080
 H2467 H 0.55056 0.73500 0.15843
 H2468 H 0.55197 0.70375 0.14859
 C2469 C 0.01706 0.72574 0.64550
 C2470 C 0.03174 0.73165 0.63718
 C2471 C 0.03624 0.71484 0.63372
 C2472 C 0.02166 0.70886 0.64179
 C2473 C 0.02626 0.72472 0.66060
 C2474 C 0.03077 0.70792 0.65711
 C2475 C 0.04084 0.73071 0.65253
 C2476 C 0.04543 0.71383 0.64883
 C2477 C 0.04199 0.70913 0.61890
 C2478 C 0.04690 0.70422 0.60688
 C2479 C 0.02093 0.72997 0.67573
 C2480 C 0.01680 0.73401 0.68837
 H2481 H 0.00533 0.73071 0.64430
 H2482 H 0.03221 0.74133 0.62882
 H2483 H 0.01383 0.69980 0.63720
 H2484 H 0.03031 0.69823 0.66547
 H2485 H 0.04867 0.73975 0.65712
 H2486 H 0.05715 0.70887 0.65005
 C2487 C 0.52252 0.64403 0.23481
 C2488 C 0.51680 0.63553 0.22014
 C2489 C 0.53358 0.63164 0.21608
 C2490 C 0.53939 0.63988 0.23066
 C2491 C 0.52408 0.65894 0.22534
 C2492 C 0.54085 0.65503 0.22128
 C2493 C 0.51827 0.65070 0.21077
 C2494 C 0.53512 0.64658 0.20664
 C2495 C 0.53914 0.61663 0.21065
 C2496 C 0.54398 0.60449 0.20592
 C2497 C 0.51910 0.67434 0.23021
 C2498 C 0.51534 0.68721 0.23390
 H2499 H 0.51728 0.64316 0.24645
 H2500 H 0.50697 0.62733 0.21960
 H2501 H 0.54814 0.63527 0.23878
 H2502 H 0.55069 0.66322 0.22181
 H2503 H 0.50953 0.65532 0.20264
 H2504 H 0.54037 0.64747 0.19500
 C2505 C 0.02265 0.65402 0.70740
 C2506 C 0.03978 0.64928 0.70585
 C2507 C 0.03600 0.63381 0.71367
 C2508 C 0.01895 0.63832 0.71514
 C2509 C 0.02621 0.66085 0.72337
 C2510 C 0.02242 0.64540 0.73120
 C2511 C 0.04325 0.65633 0.72189
 C2512 C 0.03956 0.64064 0.72963
 C2513 C 0.04162 0.61886 0.70812
 C2514 C 0.04643 0.60670 0.70339
 C2515 C 0.02095 0.67604 0.72861
 C2516 C 0.01685 0.68866 0.73276
 H2517 H 0.01564 0.65970 0.69832
 H2518 H 0.04697 0.65071 0.69537
 H2519 H 0.00902 0.63075 0.71230
 H2520 H 0.01523 0.64398 0.74168
 H2521 H 0.05319 0.66390 0.72472
 H2522 H 0.04658 0.63496 0.73871
 C2523 C 0.03539 0.09332 0.03954
 C2524 C 0.04535 0.10475 0.03012
 C2525 C 0.03490 0.11801 0.03548
 C2526 C 0.02501 0.10679 0.04498
 C2527 C 0.02488 0.09115 0.02544
 C2528 C 0.01441 0.10440 0.03080
 C2529 C 0.03477 0.10237 0.01593
 C2530 C 0.02440 0.11588 0.02137
 C2531 C 0.04077 0.13276 0.04133
 C2532 C 0.04587 0.14467 0.04639
 C2533 C 0.01965 0.07595 0.02018
 C2534 C 0.01572 0.06320 0.01623
 H2535 H 0.03985 0.08388 0.04696
 H2536 H 0.05813 0.10504 0.02991
 H2537 H 0.02107 0.10876 0.05699
 H2538 H 0.00163 0.10409 0.03101
 H2539 H 0.03872 0.10038 0.00392
 H2540 H 0.01995 0.12533 0.01397
 C2541 C 0.03385 0.59371 0.54064
 C2542 C 0.04558 0.60415 0.53217
 C2543 C 0.03519 0.61814 0.53539
 C2544 C 0.02353 0.60790 0.54394
 C2545 C 0.02527 0.59126 0.52533
 C2546 C 0.01486 0.60523 0.52854
 C2547 C 0.03693 0.60150 0.51677
 C2548 C 0.02662 0.61573 0.52008
 C2549 C 0.04100 0.63291 0.54125
 C2550 C 0.04605 0.64485 0.54631
 C2551 C 0.02009 0.57606 0.52003
 C2552 C 0.01620 0.56331 0.51603
 H2553 H 0.03676 0.58449 0.54904
 H2554 H 0.05827 0.60386 0.53373
 H2555 H 0.01809 0.61069 0.55518
 H2556 H 0.00217 0.60550 0.52698
 H2557 H 0.04238 0.59870 0.50554
 H2558 H 0.02372 0.62496 0.51169
 C2559 C 0.53399 0.09402 0.54035
 C2560 C 0.54546 0.10452 0.53159
 C2561 C 0.53499 0.11843 0.53490
 C2562 C 0.52360 0.10814 0.54374
 C2563 C 0.52516 0.09138 0.52522
 C2564 C 0.51467 0.10527 0.52853
 C2565 C 0.53655 0.10167 0.51638
 C2566 C 0.52616 0.11582 0.51977
 C2567 C 0.54076 0.13328 0.54057
 C2568 C 0.54577 0.14528 0.54550
 C2569 C 0.52002 0.07609 0.52014
 C2570 C 0.51616 0.06329 0.51631
 H2571 H 0.53715 0.08490 0.54876
 H2572 H 0.55818 0.10437 0.53291
 H2573 H 0.51834 0.11096 0.55506
 H2574 H 0.50195 0.10540 0.52720
 H2575 H 0.54182 0.09883 0.50506
 H2576 H 0.52301 0.12496 0.51137
 C2577 C 0.51466 0.60608 0.02576
 C2578 C 0.52099 0.60963 0.04210
 C2579 C 0.53446 0.61850 0.03475
 C2580 C 0.52822 0.61520 0.01850
 C2581 C 0.52454 0.59137 0.02535
 C2582 C 0.53801 0.60024 0.01801
 C2583 C 0.53078 0.59470 0.04160
 C2584 C 0.54432 0.60378 0.03433
 C2585 C 0.54024 0.63341 0.04026
 C2586 C 0.54523 0.64547 0.04508
 C2587 C 0.51935 0.57606 0.02041
 C2588 C 0.51546 0.56324 0.01665
 H2589 H 0.50241 0.60684 0.02218
 H2590 H 0.51406 0.61366 0.05207
 H2591 H 0.52724 0.62380 0.00906
 H2592 H 0.54494 0.59621 0.00804
 H2593 H 0.53178 0.58611 0.05105
 H2594 H 0.55657 0.60299 0.03791
 C2595 C 0.71501 0.14874 0.51709
 C2596 C 0.72537 0.13531 0.52273
 C2597 C 0.71465 0.13313 0.53665
 C2598 C 0.70421 0.14632 0.53109
 C2599 C 0.72467 0.16004 0.52676
 C2600 C 0.71394 0.15783 0.54068
 C2601 C 0.73512 0.14686 0.53231
 C2602 C 0.72431 0.14443 0.54632
 C2603 C 0.70886 0.11830 0.54234
 C2604 C 0.70390 0.10625 0.54722
 C2605 C 0.73001 0.17519 0.52147
 C2606 C 0.73412 0.18783 0.51738
 H2607 H 0.71125 0.15069 0.50501
 H2608 H 0.73001 0.12588 0.51542
 H2609 H 0.69143 0.14594 0.53065
 H2610 H 0.70930 0.16726 0.54800
 H2611 H 0.74790 0.14725 0.53275
 H2612 H 0.72806 0.14249 0.55840
 C2613 C 0.72560 0.65459 0.04284
 C2614 C 0.70871 0.64889 0.04210
 C2615 C 0.71441 0.63332 0.03581
 C2616 C 0.73123 0.63880 0.03663
 C2617 C 0.72415 0.66042 0.02617
 C2618 C 0.72987 0.64487 0.01987
 C2619 C 0.70734 0.65494 0.02536
 C2620 C 0.71295 0.63915 0.01914
 C2621 C 0.70879 0.61837 0.04135
 C2622 C 0.70397 0.60621 0.04610
 C2623 C 0.72937 0.67566 0.02101
 C2624 C 0.73342 0.68834 0.01697
 H2625 H 0.73086 0.66112 0.05253
 H2626 H 0.69995 0.65039 0.05130
 H2627 H 0.74099 0.63199 0.04133
 H2628 H 0.73863 0.64340 0.01067
 H2629 H 0.69757 0.66174 0.02067
 H2630 H 0.70769 0.63263 0.00945
 C2631 C 0.23477 0.60277 0.71581
 C2632 C 0.22153 0.60505 0.70405
 C2633 C 0.21473 0.61767 0.71446
 C2634 C 0.22788 0.61565 0.72615
 C2635 C 0.22485 0.59083 0.72437
 C2636 C 0.21805 0.60344 0.73479
 C2637 C 0.21170 0.59289 0.71268
 C2638 C 0.20482 0.60572 0.72301
 C2639 C 0.20881 0.63241 0.70867
 C2640 C 0.20368 0.64432 0.70365
 C2641 C 0.23014 0.57564 0.72955
 C2642 C 0.23411 0.56290 0.73345
 H2643 H 0.24715 0.60139 0.71292
 H2644 H 0.22289 0.60586 0.69135
 H2645 H 0.23446 0.62519 0.73162
 H2646 H 0.21669 0.60261 0.74749
 H2647 H 0.20510 0.58337 0.70720
 H2648 H 0.19244 0.60709 0.72590
 C2649 C 0.20941 0.09924 0.22972
 C2650 C 0.21841 0.11467 0.23080
 C2651 C 0.21404 0.11815 0.21399
 C2652 C 0.20496 0.10295 0.21284
 C2653 C 0.22409 0.09127 0.22388
 C2654 C 0.21972 0.09478 0.20707
 C2655 C 0.23320 0.10644 0.22504
 C2656 C 0.22873 0.11018 0.20814
 C2657 C 0.20817 0.13291 0.20823
 C2658 C 0.20308 0.14484 0.20323
 C2659 C 0.22934 0.07607 0.22909
 C2660 C 0.23327 0.06334 0.23305
 H2661 H 0.20152 0.09457 0.23866
 H2662 H 0.21780 0.12302 0.24049
 H2663 H 0.19329 0.10167 0.20776
 H2664 H 0.22031 0.08643 0.19737
 H2665 H 0.24487 0.10770 0.23013
 H2666 H 0.23661 0.11485 0.19920
 C2667 C 0.72293 1.10388 0.73365
 C2668 C 0.73055 1.11361 0.72072
 C2669 C 0.71457 1.11630 0.71360
 C2670 C 0.70687 1.10682 0.72643
 C2671 C 0.72460 1.08943 0.72351
 C2672 C 0.70862 1.09214 0.71639
 C2673 C 0.73230 1.09890 0.71068
 C2674 C 0.71623 1.10184 0.70348
 C2675 C 0.70878 1.13112 0.70789
 C2676 C 0.70381 1.14316 0.70301
 C2677 C 0.72994 1.07429 0.72882
 C2678 C 0.73404 1.06166 0.73293
 H2679 H 0.72575 1.10454 0.74612
 H2680 H 0.73950 1.12261 0.72243
 H2681 H 0.69634 1.11024 0.73285
 H2682 H 0.69966 1.08315 0.71467
 H2683 H 0.74282 1.09548 0.70426
 H2684 H 0.71342 1.10115 0.69101
 C2685 C 0.71069 0.59996 0.23127
 C2686 C 0.72018 0.61512 0.23169
 C2687 C 0.71514 0.61848 0.21504
 C2688 C 0.70558 0.60355 0.21455
 C2689 C 0.72485 0.59146 0.22489
 C2690 C 0.71980 0.59485 0.20825
 C2691 C 0.73444 0.60637 0.22539
 C2692 C 0.72930 0.60999 0.20865
 C2693 C 0.70945 0.63332 0.20930
 C2694 C 0.70449 0.64532 0.20433
 C2695 C 0.72992 0.57620 0.23007
 C2696 C 0.73372 0.56341 0.23400
 H2697 H 0.70310 0.59566 0.24064
 H2698 H 0.72027 0.62363 0.24126
 H2699 H 0.69365 0.60255 0.21004
 H2700 H 0.71970 0.58635 0.19866
 H2701 H 0.74637 0.60736 0.22991
 H2702 H 0.73689 0.61428 0.19928
 C2703 C 0.53857 0.14888 0.73261
 C2704 C 0.52865 0.13403 0.73150
 C2705 C 0.53515 0.13114 0.71528
 C2706 C 0.54514 0.14575 0.71631
 C2707 C 0.52533 0.15807 0.72526
 C2708 C 0.53184 0.15515 0.70905
 C2709 C 0.51531 0.14347 0.72424
 C2710 C 0.52191 0.14033 0.70793
 C2711 C 0.54091 0.11635 0.70946
 C2712 C 0.54593 0.10441 0.70443
 C2713 C 0.52022 0.17330 0.73051
 C2714 C 0.51640 0.18607 0.73448
 H2715 H 0.54536 0.15257 0.74281
 H2716 H 0.52741 0.12517 0.74066
 H2717 H 0.55747 0.14654 0.71299
 H2718 H 0.53309 0.16400 0.69987
 H2719 H 0.50299 0.14271 0.72756
 H2720 H 0.51513 0.13664 0.69772
 C2721 C 1.02493 0.15499 0.20628
 C2722 C 1.04163 0.14893 0.20782
 C2723 C 1.03527 0.13335 0.21342
 C2724 C 1.01864 0.13918 0.21180
 C2725 C 1.02558 0.16042 0.22314
 C2726 C 1.01920 0.14485 0.22875
 C2727 C 1.04221 0.15457 0.22475
 C2728 C 1.03592 0.13877 0.23027
 C2729 C 1.04085 0.11840 0.20784
 C2730 C 1.04563 0.10624 0.20308
 C2731 C 1.02038 0.17562 0.22838
 C2732 C 1.01632 0.18827 0.23250
 H2733 H 1.02036 0.16184 0.19647
 H2734 H 1.05092 0.15045 0.19915
 H2735 H 1.00901 0.13268 0.20641
 H2736 H 1.00991 0.14335 0.23742
 H2737 H 1.05184 0.16107 0.23012
 H2738 H 1.04051 0.13192 0.24007
 C2739 C 0.23026 0.65254 0.54082
 C2740 C 0.21336 0.64850 0.54488
 C2741 C 0.21491 0.63346 0.53561
 C2742 C 0.23173 0.63727 0.53163
 C2743 C 0.22459 0.66063 0.52612
 C2744 C 0.22614 0.64561 0.51683
 C2745 C 0.20777 0.65681 0.53011
 C2746 C 0.20923 0.64156 0.52091
 C2747 C 0.20932 0.61847 0.54108
 C2748 C 0.20451 0.60629 0.54577
 C2749 C 0.22976 0.67591 0.52103
 C2750 C 0.23377 0.68862 0.51705
 H2751 H 0.23897 0.65723 0.54896
 H2752 H 0.20805 0.64954 0.55648
 H2753 H 0.24152 0.62906 0.53232
 H2754 H 0.23146 0.64460 0.50524
 H2755 H 0.19797 0.66502 0.52943
 H2756 H 0.20052 0.63687 0.51278
 C2757 C 0.21343 0.14912 1.01705
 C2758 C 0.22393 0.13564 1.02230
 C2759 C 0.21349 0.13325 1.03640
 C2760 C 0.20291 0.14649 1.03123
 C2761 C 0.22325 0.16031 1.02667
 C2762 C 0.21281 0.15790 1.04077
 C2763 C 0.23384 0.14708 1.03184
 C2764 C 0.22331 0.14444 1.04602
 C2765 C 0.20786 0.11831 1.04197
 C2766 C 0.20304 0.10615 1.04671
 C2767 C 0.22850 0.17550 1.02142
 C2768 C 0.23259 0.18814 1.01729
 H2769 H 0.20942 0.15122 1.00507
 H2770 H 0.22843 0.12632 1.01477
 H2771 H 0.19013 0.14609 1.03104
 H2772 H 0.20830 0.16722 1.04831
 H2773 H 0.24662 0.14749 1.03203
 H2774 H 0.22731 0.14235 1.05800
 C2775 C 0.22353 0.73347 0.60426
 C2776 C 0.20673 0.72853 0.60778
 C2777 C 0.21288 0.71413 0.61608
 C2778 C 0.22959 0.71897 0.61281
 C2779 C 0.22290 0.72407 0.58925
 C2780 C 0.22905 0.70967 0.59755
 C2781 C 0.20619 0.71923 0.59253
 C2782 C 0.21225 0.70475 0.60106
 C2783 C 0.20714 0.70840 0.63090
 C2784 C 0.20227 0.70349 0.64295
 C2785 C 0.22830 0.72940 0.57416
 C2786 C 0.23253 0.73356 0.56160
 H2787 H 0.22824 0.74534 0.60540
 H2788 H 0.19749 0.73622 0.61215
 H2789 H 0.23915 0.71879 0.62132
 H2790 H 0.23828 0.70197 0.59318
 H2791 H 0.19663 0.71939 0.58403
 H2792 H 0.20755 0.69288 0.59989
 C2793 C 0.23049 0.21091 1.09873
 C2794 C 0.22937 0.22085 1.11355
 C2795 C 0.21316 0.21433 1.11641
 C2796 C 0.21420 0.20431 1.10183
 C2797 C 0.22317 0.22418 1.08954
 C2798 C 0.20696 0.21765 1.09242
 C2799 C 0.22214 0.23422 1.10411
 C2800 C 0.20584 0.22759 1.10722
 C2801 C 0.20740 0.20862 1.13123
 C2802 C 0.20249 0.20368 1.14325
 C2803 C 0.22852 0.22942 1.07441
 C2804 C 0.23267 0.23345 1.06178
 H2805 H 0.24069 0.20412 1.09507
 H2806 H 0.23852 0.22211 1.12241
 H2807 H 0.21088 0.19195 1.10105
 H2808 H 0.19781 0.21639 1.08357
 H2809 H 0.22547 0.24657 1.10487
 H2810 H 0.19563 0.23439 1.11088
 C2811 C 0.70821 0.53075 0.15571
 C2812 C 0.71531 0.54440 0.14665
 C2813 C 0.71495 0.53451 0.13194
 C2814 C 0.70776 0.52093 0.14080
 C2815 C 0.72451 0.52468 0.15899
 C2816 C 0.72416 0.51477 0.14430
 C2817 C 0.73169 0.53826 0.15014
 C2818 C 0.73126 0.52845 0.13519
 C2819 C 0.70936 0.54027 0.11708
 C2820 C 0.70449 0.54527 0.10507
 C2821 C 0.72954 0.51955 0.17428
 C2822 C 0.73336 0.51573 0.18708
 H2823 H 0.69878 0.53164 0.16431
 H2824 H 0.71162 0.55664 0.14747
 H2825 H 0.69786 0.51388 0.13679
 H2826 H 0.72785 0.50253 0.14352
 H2827 H 0.74159 0.54532 0.15415
 H2828 H 0.74067 0.52757 0.12658
 C2829 C 0.73335 1.02444 0.64506
 C2830 C 0.71854 1.01886 0.63673
 C2831 C 0.71438 1.03576 0.63332
 C2832 C 0.72909 1.04143 0.64140
 C2833 C 0.72418 1.02560 0.66017
 C2834 C 0.72001 1.04250 0.65674
 C2835 C 0.70947 1.01994 0.65209
 C2836 C 0.70523 1.03692 0.64844
 C2837 C 0.70872 1.04162 0.61852
 C2838 C 0.70388 1.04664 0.60651
 C2839 C 0.72943 1.02020 0.67528
 C2840 C 0.73352 1.01605 0.68789
 H2841 H 0.74497 1.01924 0.64385
 H2842 H 0.71786 1.00921 0.62834
 H2843 H 0.73709 1.05033 0.63685
 H2844 H 0.72068 1.05216 0.66513
 H2845 H 0.70146 1.01105 0.65665
 H2846 H 0.69361 1.04212 0.64968
 C2847 C 0.54112 0.21683 0.65675
 C2848 C 0.53267 0.20504 0.64634
 C2849 C 0.53552 0.21564 0.63242
 C2850 C 0.54405 0.22736 0.64263
 C2851 C 0.52574 0.22516 0.65950
 C2852 C 0.52858 0.23578 0.64560
 C2853 C 0.51720 0.21343 0.64930
 C2854 C 0.52013 0.22396 0.63514
 C2855 C 0.54122 0.21004 0.61755
 C2856 C 0.54616 0.20514 0.60553
 C2857 C 0.52061 0.23013 0.67480
 C2858 C 0.51676 0.23385 0.68761
 H2859 H 0.54970 0.21396 0.66580
 H2860 H 0.53441 0.19234 0.64649
 H2861 H 0.55515 0.23302 0.63972
 H2862 H 0.52683 0.24847 0.64547
 H2863 H 0.50611 0.20776 0.65221
 H2864 H 0.51157 0.22682 0.62607
 C2865 C 1.02039 0.23029 0.14455
 C2866 C 1.03740 0.23078 0.13911
 C2867 C 1.03582 0.21406 0.13338
 C2868 C 1.01891 0.21348 0.13857
 C2869 C 1.02579 0.22401 0.16021
 C2870 C 1.02422 0.20729 0.15447
 C2871 C 1.04270 0.22458 0.15501
 C2872 C 1.04120 0.20780 0.14905
 C2873 C 1.04159 0.20831 0.11858
 C2874 C 1.04652 0.20337 0.10657
 C2875 C 1.02043 0.22931 0.17533
 C2876 C 1.01629 0.23340 0.18794
 H2877 H 1.01177 0.23960 0.14288
 H2878 H 1.04289 0.24037 0.13263
 H2879 H 1.00919 0.20885 0.13164
 H2880 H 1.01874 0.19770 0.16095
 H2881 H 1.05242 0.22921 0.16194
 H2882 H 1.04982 0.19849 0.15075
 C2883 C 0.59471 0.21883 0.70903
 C2884 C 0.60993 0.22815 0.70946
 C2885 C 0.61826 0.21377 0.71563
 C2886 C 0.60324 0.20438 0.71511
 C2887 C 0.59148 0.22372 0.72574
 C2888 C 0.59981 0.20934 0.73191
 C2889 C 0.60648 0.23314 0.72628
 C2890 C 0.61506 0.21866 0.73236
 C2891 C 0.63296 0.20797 0.70972
 C2892 C 0.64485 0.20296 0.70460
 C2893 C 0.57633 0.22895 0.73103
 C2894 C 0.56362 0.23288 0.73498
 H2895 H 0.58618 0.21895 0.69949
 H2896 H 0.61425 0.23582 0.70016
 H2897 H 0.60206 0.19249 0.71046
 H2898 H 0.59548 0.20167 0.74121
 H2899 H 0.60763 0.24503 0.73093
 H2900 H 0.62360 0.21853 0.74189
 C2901 C 1.09476 0.22533 0.20742
 C2902 C 1.11061 0.23059 0.21374
 C2903 C 1.11585 0.21365 0.21400
 C2904 C 1.10022 0.20832 0.20760
 C2905 C 1.08899 0.22342 0.22406
 C2906 C 1.09424 0.20648 0.22431
 C2907 C 1.10461 0.22877 0.23047
 C2908 C 1.11009 0.21174 0.23064
 C2909 C 1.13066 0.20802 0.20820
 C2910 C 1.14269 0.20319 0.20323
 C2911 C 1.07388 0.22866 0.22941
 C2912 C 1.06127 0.23275 0.23353
 H2913 H 1.08828 0.23098 0.19793
 H2914 H 1.11752 0.24044 0.20932
 H2915 H 1.09857 0.19985 0.19813
 H2916 H 1.08734 0.19663 0.22871
 H2917 H 1.10624 0.23724 0.23994
 H2918 H 1.11657 0.20608 0.24012
 C2919 C 0.15527 0.72494 0.54305
 C2920 C 0.13942 0.73131 0.53788
 C2921 C 0.13355 0.71466 0.53615
 C2922 C 0.14917 0.70822 0.54141
 C2923 C 0.16039 0.72451 0.52610
 C2924 C 0.15451 0.70786 0.52438
 C2925 C 0.14477 0.73097 0.52083
 C2926 C 0.13865 0.71422 0.51920
 C2927 C 0.11874 0.70897 0.54195
 C2928 C 0.10672 0.70409 0.54691
 C2929 C 0.17551 0.72978 0.52074
 C2930 C 0.18812 0.73387 0.51663
 H2931 H 0.16228 0.72940 0.55279
 H2932 H 0.13305 0.74089 0.54349
 H2933 H 0.15083 0.69880 0.54993
 H2934 H 0.16088 0.69827 0.51877
 H2935 H 0.14314 0.74039 0.51230
 H2936 H 0.13165 0.70974 0.50946
 C2937 C 0.15732 0.20752 1.03334
 C2938 C 0.14757 0.21559 1.04592
 C2939 C 0.13319 0.21350 1.03579
 C2940 C 0.14273 0.20534 1.02329
 C2941 C 0.16004 0.22327 1.02565
 C2942 C 0.14567 0.22119 1.01551
 C2943 C 0.15051 0.23143 1.03816
 C2944 C 0.13589 0.22926 1.02811
 C2945 C 0.11839 0.20786 1.04163
 C2946 C 0.10636 0.20302 1.04661
 C2947 C 0.17515 0.22851 1.02026
 C2948 C 0.18776 0.23260 1.01612
 H2949 H 0.16630 0.19864 1.03543
 H2950 H 0.14820 0.21323 1.05848
 H2951 H 0.13936 0.19456 1.01724
 H2952 H 0.14507 0.22355 1.00295
 H2953 H 0.15388 0.24221 1.04421
 H2954 H 0.12691 0.23813 1.02603
 C2955 C 0.64874 0.53768 0.23389
 C2956 C 0.64529 0.54472 0.21785
 C2957 C 0.63098 0.53433 0.21660
 C2958 C 0.63419 0.52736 0.23256
 C2959 C 0.65820 0.52493 0.22603
 C2960 C 0.64391 0.51452 0.22478
 C2961 C 0.65496 0.53190 0.21007
 C2962 C 0.64044 0.52159 0.20873
 C2963 C 0.61602 0.53984 0.21107
 C2964 C 0.60391 0.54462 0.20624
 C2965 C 0.67356 0.51998 0.23097
 C2966 C 0.68640 0.51625 0.23470
 H2967 H 0.65233 0.54423 0.24429
 H2968 H 0.64570 0.55720 0.21494
 H2969 H 0.62548 0.52556 0.24175
 H2970 H 0.64353 0.50204 0.22770
 H2971 H 0.66366 0.53372 0.20086
 H2972 H 0.63687 0.51503 0.19833
 C2973 C 0.65402 1.02150 0.70785
 C2974 C 0.63849 1.01866 0.71619
 C2975 C 0.63423 1.03567 0.71356
 C2976 C 0.64953 1.03859 0.70514
 C2977 C 0.66127 1.02610 0.72334
 C2978 C 0.65701 1.04311 0.72071
 C2979 C 0.64599 1.02318 0.73178
 C2980 C 0.64149 1.04028 0.72906
 C2981 C 0.61930 1.04116 0.70795
 C2982 C 0.60714 1.04587 0.70316
 C2983 C 0.67645 1.02094 0.72860
 C2984 C 0.68907 1.01687 0.73271
 H2985 H 0.65934 1.01372 0.69919
 H2986 H 0.63070 1.00866 0.71427
 H2987 H 0.65083 1.04498 0.69412
 H2988 H 0.66479 1.05312 0.72262
 H2989 H 0.64471 1.01678 0.74280
 H2990 H 0.63617 1.04807 0.73771
 C2991 C 0.84378 0.47383 0.29411
 C2992 C 0.85023 0.45737 0.29147
 C2993 C 0.86584 0.46447 0.28703
 C2994 C 0.85962 0.48084 0.28975
 C2995 C 0.83903 0.47447 0.27706
 C2996 C 0.85462 0.48158 0.27260
 C2997 C 0.84525 0.45809 0.27434
 C2998 C 0.86109 0.46510 0.26997
 C2999 C 0.88063 0.45869 0.29275
 C3000 C 0.89264 0.45373 0.29764
 C3001 C 0.82393 0.47980 0.27172
 C3002 C 0.81134 0.48391 0.26757
 H3003 H 0.83650 0.47747 0.30398
 H3004 H 0.84858 0.44736 0.29929
 H3005 H 0.86569 0.49013 0.29615
 H3006 H 0.85625 0.49159 0.26478
 H3007 H 0.83918 0.44879 0.26795
 H3008 H 0.86838 0.46145 0.26011
 C3009 C 0.84612 0.97333 0.79233
 C3010 C 0.85340 0.95751 0.78840
 C3011 C 0.86879 0.96566 0.78518
 C3012 C 0.86173 0.98142 0.78918
 C3013 C 0.84184 0.97537 0.77525
 C3014 C 0.85722 0.98355 0.77201
 C3015 C 0.84891 0.95961 0.77125
 C3016 C 0.86453 0.96769 0.76810
 C3017 C 0.88359 0.95996 0.79095
 C3018 C 0.89556 0.95499 0.79594
 C3019 C 0.82661 0.98044 0.77004
 C3020 C 0.81385 0.98423 0.76611
 H3021 H 0.83838 0.97571 0.80224
 H3022 H 0.85197 0.94674 0.79520
 H3023 H 0.86716 0.99033 0.79663
 H3024 H 0.85861 0.99432 0.76521
 H3025 H 0.84348 0.95070 0.76382
 H3026 H 0.87228 0.96531 0.75820
 C3027 C 0.40485 0.29149 0.77404
 C3028 C 0.38905 0.28434 0.76977
 C3029 C 0.38423 0.28538 0.78678
 C3030 C 0.39981 0.29262 0.79112
 C3031 C 0.41110 0.27520 0.77718
 C3032 C 0.40628 0.27625 0.79419
 C3033 C 0.39554 0.26794 0.77283
 C3034 C 0.39048 0.26909 0.78993
 C3035 C 0.36940 0.29125 0.79230
 C3036 C 0.35736 0.29627 0.79703
 C3037 C 0.42623 0.26978 0.77203
 C3038 C 0.43884 0.26562 0.76800
 H3039 H 0.41093 0.30064 0.76745
 H3040 H 0.38179 0.28773 0.75978
 H3041 H 0.40141 0.30283 0.79870
 H3042 H 0.41353 0.27287 0.80418
 H3043 H 0.39396 0.25774 0.76525
 H3044 H 0.38440 0.25995 0.79653
 C3045 C 0.90384 0.27640 0.29194
 C3046 C 0.89690 0.29247 0.28840
 C3047 C 0.88145 0.28468 0.28457
 C3048 C 0.88818 0.26868 0.28819
 C3049 C 0.90844 0.27487 0.27490
 C3050 C 0.89302 0.26706 0.27105
 C3051 C 0.90171 0.29087 0.27129
 C3052 C 0.88603 0.28316 0.26753
 C3053 C 0.86663 0.29041 0.29023
 C3054 C 0.85464 0.29538 0.29516
 C3055 C 0.92369 0.26973 0.26983
 C3056 C 0.93646 0.26587 0.26601
 H3057 H 0.91133 0.27357 0.30192
 H3058 H 0.89834 0.30298 0.29560
 H3059 H 0.88245 0.25962 0.29520
 H3060 H 0.89160 0.25655 0.26386
 H3061 H 0.90743 0.29994 0.26429
 H3062 H 0.87853 0.28601 0.25756
 C3063 C 0.35655 0.77092 0.48143
 C3064 C 0.36291 0.76859 0.46488
 C3065 C 0.36778 0.78565 0.46459
 C3066 C 0.36167 0.78807 0.48103
 C3067 C 0.34095 0.77565 0.47452
 C3068 C 0.34584 0.79270 0.47421
 C3069 C 0.34707 0.77323 0.45808
 C3070 C 0.35217 0.79036 0.45770
 C3071 C 0.38252 0.79151 0.45879
 C3072 C 0.39443 0.79659 0.45378
 C3073 C 0.32577 0.77043 0.47975
 C3074 C 0.31305 0.76654 0.48371
 H3075 H 0.35817 0.76286 0.49125
 H3076 H 0.37010 0.75875 0.46098
 H3077 H 0.36785 0.79425 0.49040
 H3078 H 0.33866 0.80256 0.47811
 H3079 H 0.34090 0.76707 0.44870
 H3080 H 0.35052 0.79842 0.44788
 C3081 C 0.34424 0.29217 0.97146
 C3082 C 0.35979 0.29009 0.97997
 C3083 C 0.36726 0.28529 0.96464
 C3084 C 0.35193 0.28746 0.95607
 C3085 C 0.34049 0.27510 0.97455
 C3086 C 0.34796 0.27031 0.95923
 C3087 C 0.35581 0.27292 0.98316
 C3088 C 0.36353 0.26822 0.96773
 C3089 C 0.38196 0.29125 0.95886
 C3090 C 0.39385 0.29641 0.95385
 C3091 C 0.32534 0.26978 0.97975
 C3092 C 0.31262 0.26580 0.98366
 H3093 H 0.33615 0.30195 0.97305
 H3094 H 0.36482 0.29829 0.98843
 H3095 H 0.35048 0.29350 0.94487
 H3096 H 0.34293 0.26212 0.95076
 H3097 H 0.35723 0.26688 0.99435
 H3098 H 0.37164 0.25845 0.96612
 C3099 C 0.79310 0.46827 0.34262
 C3100 C 0.79293 0.47773 0.35778
 C3101 C 0.78666 0.46350 0.36630
 C3102 C 0.78691 0.45396 0.35137
 C3103 C 0.77642 0.47333 0.33950
 C3104 C 0.77016 0.45910 0.34803
 C3105 C 0.77616 0.48288 0.35443
 C3106 C 0.76998 0.46856 0.36320
 C3107 C 0.79255 0.45787 0.38110
 C3108 C 0.79757 0.45306 0.39312
 C3109 C 0.77095 0.47863 0.32443
 C3110 C 0.76671 0.48279 0.31188
 H3111 H 0.80254 0.46820 0.33399
 H3112 H 0.80236 0.48532 0.36195
 H3113 H 0.79140 0.44201 0.35027
 H3114 H 0.76073 0.45150 0.34385
 H3115 H 0.77168 0.49483 0.35551
 H3116 H 0.76055 0.46861 0.37184
 C3117 C 0.79219 0.96958 0.84427
 C3118 C 0.79173 0.97905 0.85940
 C3119 C 0.78545 0.96479 0.86785
 C3120 C 0.78600 0.95524 0.85293
 C3121 C 0.77553 0.97450 0.84089
 C3122 C 0.76925 0.96023 0.84934
 C3123 C 0.77497 0.98407 0.85579
 C3124 C 0.76878 0.96970 0.86450
 C3125 C 0.79125 0.95911 0.88266
 C3126 C 0.79628 0.95417 0.89463
 C3127 C 0.77034 0.97960 0.82565
 C3128 C 0.76645 0.98345 0.81288
 H3129 H 0.80177 0.96958 0.83578
 H3130 H 0.80104 0.98673 0.86370
 H3131 H 0.79060 0.94332 0.85190
 H3132 H 0.75995 0.95255 0.84504
 H3133 H 0.77037 0.99599 0.85679
 H3134 H 0.75922 0.96969 0.87300
 C3135 C 0.26922 0.79118 0.40115
 C3136 C 0.28617 0.79531 0.39745
 C3137 C 0.28481 0.78636 0.38221
 C3138 C 0.26793 0.78230 0.38568
 C3139 C 0.27476 0.77627 0.40899
 C3140 C 0.27338 0.76729 0.39377
 C3141 C 0.29163 0.78034 0.40549
 C3142 C 0.29035 0.77146 0.39005
 C3143 C 0.29070 0.79225 0.36752
 C3144 C 0.29581 0.79733 0.35565
 C3145 C 0.26952 0.77098 0.42415
 C3146 C 0.26562 0.76700 0.43687
 H3147 H 0.26047 0.79922 0.40589
 H3148 H 0.29150 0.80689 0.39882
 H3149 H 0.25825 0.78318 0.37736
 H3150 H 0.26805 0.75571 0.39244
 H3151 H 0.30133 0.77947 0.41380
 H3152 H 0.29911 0.76342 0.38532
 C3153 C 0.28947 0.26931 0.90090
 C3154 C 0.28045 0.26839 0.88550
 C3155 C 0.28499 0.28520 0.88210
 C3156 C 0.29408 0.28620 0.89727
 C3157 C 0.27484 0.27527 0.90890
 C3158 C 0.27939 0.29208 0.90547
 C3159 C 0.26572 0.27427 0.89374
 C3160 C 0.27037 0.29117 0.89009
 C3161 C 0.29094 0.29098 0.86739
 C3162 C 0.29611 0.29598 0.85550
 C3163 C 0.26955 0.27005 0.92406
 C3164 C 0.26562 0.26610 0.93678
 H3165 H 0.29726 0.26027 0.90552
 H3166 H 0.28096 0.25872 0.87712
 H3167 H 0.30581 0.29116 0.89857
 H3168 H 0.27890 0.30177 0.91384
 H3169 H 0.25400 0.26930 0.89247
 H3170 H 0.26258 0.30022 0.88547
 C3171 C 0.45789 0.27315 0.84659
 C3172 C 0.46539 0.26966 0.86243
 C3173 C 0.46389 0.28682 0.86668
 C3174 C 0.45631 0.29038 0.85107
 C3175 C 0.47394 0.27659 0.83996
 C3176 C 0.47243 0.29374 0.84422
 C3177 C 0.48154 0.27302 0.85556
 C3178 C 0.47994 0.29027 0.86005
 C3179 C 0.45810 0.29267 0.88142
 C3180 C 0.45314 0.29764 0.89341
 C3181 C 0.47933 0.27108 0.82493
 C3182 C 0.48352 0.26679 0.81240
 H3183 H 0.44888 0.26605 0.84089
 H3184 H 0.46243 0.25983 0.87009
 H3185 H 0.44587 0.29759 0.84938
 H3186 H 0.47538 0.30358 0.83656
 H3187 H 0.49198 0.26581 0.85723
 H3188 H 0.48894 0.29738 0.86575
 C3189 C 0.95833 0.27477 0.34664
 C3190 C 0.96401 0.26857 0.36240
 C3191 C 0.96563 0.28529 0.36813
 C3192 C 0.95986 0.29155 0.35259
 C3193 C 0.97511 0.27544 0.34106
 C3194 C 0.97672 0.29216 0.34680
 C3195 C 0.98090 0.26916 0.35658
 C3196 C 0.98241 0.28598 0.36257
 C3197 C 0.96006 0.29101 0.38301
 C3198 C 0.95520 0.29595 0.39505
 C3199 C 0.98008 0.27026 0.32578
 C3200 C 0.98381 0.26633 0.31299
 H3201 H 0.94848 0.27010 0.33992
 H3202 H 0.95872 0.25894 0.36899
 H3203 H 0.95116 0.30081 0.35110
 H3204 H 0.98199 0.30180 0.34022
 H3205 H 0.98960 0.25990 0.35804
 H3206 H 0.99225 0.29066 0.36929
 C3207 C 0.45698 0.34343 0.77742
 C3208 C 0.45929 0.34980 0.79393
 C3209 C 0.46371 0.36554 0.78705
 C3210 C 0.46131 0.35939 0.77061
 C3211 C 0.47407 0.33884 0.77702
 C3212 C 0.47850 0.35456 0.77012
 C3213 C 0.47646 0.34499 0.79347
 C3214 C 0.48080 0.36096 0.78667
 C3215 C 0.45774 0.38025 0.79284
 C3216 C 0.45264 0.39218 0.79783
 C3217 C 0.47958 0.32378 0.77168
 C3218 C 0.48381 0.31120 0.76755
 H3219 H 0.44725 0.33605 0.77356
 H3220 H 0.45133 0.34799 0.80379
 H3221 H 0.45501 0.36548 0.76128
 H3222 H 0.48646 0.35634 0.76027
 H3223 H 0.48275 0.33891 0.80281
 H3224 H 0.49052 0.36834 0.79054
 C3225 C 0.98314 0.35644 0.27353
 C3226 C 0.96820 0.36460 0.26808
 C3227 C 0.96414 0.36799 0.28499
 C3228 C 0.97898 0.36008 0.29053
 C3229 C 0.97414 0.34121 0.27479
 C3230 C 0.97007 0.34463 0.29169
 C3231 C 0.95930 0.34912 0.26926
 C3232 C 0.95516 0.35275 0.28624
 C3233 C 0.95831 0.38269 0.29096
 C3234 C 0.95326 0.39456 0.29615
 C3235 C 0.97937 0.32604 0.26949
 C3236 C 0.98331 0.31330 0.26554
 H3237 H 0.99471 0.35777 0.26823
 H3238 H 0.96736 0.37299 0.25844
 H3239 H 0.98701 0.36475 0.29934
 H3240 H 0.97090 0.33625 0.30135
 H3241 H 0.95126 0.34445 0.26045
 H3242 H 0.94360 0.35138 0.29153
 C3243 C 0.29292 0.84578 0.47298
 C3244 C 0.28931 0.85269 0.45693
 C3245 C 0.28603 0.86833 0.46461
 C3246 C 0.28973 0.86164 0.48059
 C3247 C 0.27581 0.84163 0.47482
 C3248 C 0.27251 0.85725 0.48253
 C3249 C 0.27212 0.84833 0.45884
 C3250 C 0.26891 0.86420 0.46644
 C3251 C 0.29199 0.88298 0.45863
 C3252 C 0.29715 0.89481 0.45344
 C3253 C 0.27046 0.82650 0.48015
 C3254 C 0.26645 0.81379 0.48414
 H3255 H 0.30274 0.83805 0.47572
 H3256 H 0.29628 0.85096 0.44634
 H3257 H 0.29704 0.86728 0.48946
 H3258 H 0.26554 0.85894 0.49312
 H3259 H 0.26482 0.84269 0.44996
 H3260 H 0.25911 0.87194 0.46368
 C3261 C 0.29164 0.34386 0.96886
 C3262 C 0.28475 0.35297 0.95515
 C3263 C 0.28545 0.36778 0.96489
 C3264 C 0.29243 0.35887 0.97853
 C3265 C 0.27527 0.34100 0.97495
 C3266 C 0.27595 0.35578 0.98471
 C3267 C 0.26830 0.34990 0.96131
 C3268 C 0.26907 0.36494 0.97097
 C3269 C 0.29139 0.38248 0.95900
 C3270 C 0.29651 0.39435 0.95389
 C3271 C 0.26993 0.32583 0.98019
 C3272 C 0.26593 0.31310 0.98411
 H3273 H 0.30087 0.33503 0.96805
 H3274 H 0.28844 0.35197 0.94294
 H3275 H 0.30242 0.36273 0.98554
 H3276 H 0.27227 0.35676 0.99693
 H3277 H 0.25831 0.34604 0.95429
 H3278 H 0.25985 0.37379 0.97177
 C3279 C 0.76922 0.40187 0.29026
 C3280 C 0.76842 0.38666 0.28087
 C3281 C 0.78511 0.38312 0.28560
 C3282 C 0.78598 0.39809 0.29508
 C3283 C 0.77542 0.41021 0.27592
 C3284 C 0.79210 0.40665 0.28066
 C3285 C 0.77455 0.39525 0.26643
 C3286 C 0.79132 0.39146 0.27125
 C3287 C 0.79070 0.36818 0.29119
 C3288 C 0.79551 0.35605 0.29600
 C3289 C 0.77024 0.42545 0.27075
 C3290 C 0.76622 0.43815 0.26676
 H3291 H 0.76007 0.40632 0.29802
 H3292 H 0.75875 0.37827 0.28102
 H3293 H 0.79074 0.39910 0.30692
 H3294 H 0.80179 0.41504 0.28051
 H3295 H 0.76978 0.39426 0.25459
 H3296 H 0.80047 0.38702 0.26350
   
