data_POSCAR
  _audit_creation_date              2014-09-24
  _audit_creation_method            'ToBaCCo'
  _symmetry_space_group_name_H-M    'P1'
  _symmetry_Int_Tables_number       1
  _symmetry_cell_setting            triclinic
  loop_
  _symmetry_equiv_pos_as_xyz
 x,y,z
_cell_length_a 53.0515
_cell_length_b 53.0357
_cell_length_c 53.0005
_cell_angle_alpha 90.009900
_cell_angle_beta 89.982100
_cell_angle_gamma 89.976900
loop_
  _atom_site_label
  _atom_site_type_symbol
  _atom_site_fract_x
  _atom_site_fract_y
  _atom_site_fract_z
O1 O 0.87650 0.16022 0.81004
 O2 O 0.90385 0.12513 0.80253
 O3 O 0.81065 0.12429 0.84042
 O4 O 0.80147 0.09960 0.87330
 O5 O 0.84135 0.19108 0.87597
 O6 O 0.87665 0.19789 0.90341
 O7 O 0.87731 0.06021 0.90978
 O8 O 0.84737 0.05343 0.87722
 O9 O 0.94117 0.09000 0.87567
 O10 O 0.94867 0.12648 0.84677
 O11 O 0.91135 0.12413 0.94029
 O12 O 0.87544 0.15305 0.94817
 O13 O 0.87730 0.09026 0.94032
 O14 O 0.84861 0.12628 0.94823
 O15 O 0.94130 0.12425 0.90967
 O16 O 0.94945 0.15253 0.87404
 O17 O 0.91059 0.06015 0.87663
 O18 O 0.87599 0.05250 0.84713
 O19 O 0.87678 0.19080 0.84010
 O20 O 0.90451 0.19783 0.87522
 O21 O 0.81117 0.16068 0.87546
 O22 O 0.80519 0.12585 0.90505
 O23 O 0.84106 0.12502 0.81019
 O24 O 0.87592 0.09732 0.80271
 Zr25 Zr 0.87516 0.12618 0.83021
 O26 O 0.89875 0.10254 0.85154
 Zr27 Zr 0.83099 0.12640 0.87454
 O28 O 0.85260 0.10260 0.89797
 Zr29 Zr 0.87543 0.17060 0.87436
 O30 O 0.89901 0.14879 0.89781
 Zr31 Zr 0.87670 0.08041 0.87582
 O32 O 0.85279 0.10182 0.85217
 Zr33 Zr 0.92115 0.12444 0.87564
 O34 O 0.89971 0.14845 0.85201
 Zr35 Zr 0.87703 0.12456 0.92023
 O36 O 0.85324 0.14859 0.89884
 O37 O 0.85185 0.14977 0.85106
 O38 O 0.90050 0.10092 0.89939
 C39 C 0.87717 0.18344 0.81697
 C40 C 0.81789 0.12411 0.81723
 C41 C 0.81819 0.18385 0.87628
 C42 C 0.87760 0.06715 0.93298
 C43 C 0.93385 0.06686 0.87636
 C44 C 0.93444 0.12409 0.93290
 H45 H 0.90914 0.09219 0.84005
 H46 H 0.90950 0.16016 0.90819
 H47 H 0.84107 0.16051 0.84025
 H48 H 0.84134 0.09195 0.90832
 H49 H 0.83448 0.05884 0.86485
 H50 H 0.80683 0.08489 0.88342
 H51 H 0.94550 0.16535 0.88699
 H52 H 0.91778 0.19179 0.86356
 H53 H 0.88952 0.05625 0.83487
 H54 H 0.86452 0.08387 0.80884
 H55 H 0.88906 0.16528 0.94462
 H56 H 0.86517 0.19187 0.91685
 H57 H 0.91738 0.13651 0.80850
 H58 H 0.94555 0.11247 0.83485
 H59 H 0.81066 0.13904 0.91709
 H60 H 0.83628 0.11276 0.94467
 O61 O 0.83996 0.68994 0.37526
 O62 O 0.87486 0.69728 0.40304
 O63 O 0.87798 0.65989 0.30974
 O64 O 0.90199 0.62708 0.30003
 O65 O 0.81047 0.62383 0.33908
 O66 O 0.80338 0.59613 0.37420
 O67 O 0.94118 0.59045 0.37594
 O68 O 0.94782 0.62384 0.34660
 O69 O 0.91005 0.62391 0.44027
 O70 O 0.87363 0.65235 0.44778
 O71 O 0.87690 0.55972 0.40908
 O72 O 0.84848 0.55178 0.37295
 O73 O 0.91084 0.56025 0.37613
 O74 O 0.87552 0.55227 0.34639
 O75 O 0.87626 0.58959 0.43977
 O76 O 0.84714 0.62537 0.44744
 O77 O 0.94038 0.62339 0.41001
 O78 O 0.94849 0.65315 0.37601
 O79 O 0.81010 0.65921 0.37460
 O80 O 0.80279 0.62418 0.40210
 O81 O 0.84122 0.62500 0.30924
 O82 O 0.87641 0.59542 0.30363
 O83 O 0.87589 0.69034 0.33987
 O84 O 0.90309 0.69755 0.37531
 Zr85 Zr 0.87437 0.66997 0.37399
 O86 O 0.89787 0.64842 0.39771
 Zr87 Zr 0.87520 0.62577 0.32959
 O88 O 0.89891 0.60241 0.35121
 Zr89 Zr 0.83048 0.62533 0.37343
 O90 O 0.85202 0.60187 0.39715
 Zr91 Zr 0.92064 0.62444 0.37580
 O92 O 0.89927 0.64818 0.35188
 Zr93 Zr 0.87593 0.62394 0.41980
 O94 O 0.85210 0.64766 0.39817
 Zr95 Zr 0.87661 0.58001 0.37511
 O96 O 0.85277 0.60124 0.35120
 O97 O 0.85136 0.64900 0.35023
 O98 O 0.89985 0.60061 0.39911
 C99 C 0.81688 0.68245 0.37544
 C100 C 0.87775 0.68308 0.31678
 C101 C 0.81797 0.62390 0.31600
 C102 C 0.93398 0.56731 0.37642
 C103 C 0.93323 0.62336 0.43314
 C104 C 0.87683 0.56653 0.43233
 H105 H 0.90800 0.65986 0.40836
 H106 H 0.84060 0.59129 0.40738
 H107 H 0.84074 0.65983 0.33936
 H108 H 0.90973 0.59221 0.33997
 H109 H 0.94249 0.63654 0.33398
 H110 H 0.91711 0.61786 0.30582
 H111 H 0.83499 0.61173 0.44373
 H112 H 0.80869 0.63560 0.41565
 H113 H 0.94405 0.66558 0.38918
 H114 H 0.91672 0.69153 0.36406
 H115 H 0.83603 0.55508 0.38645
 H116 H 0.80953 0.58286 0.36259
 H117 H 0.86340 0.69104 0.41639
 H118 H 0.88721 0.66470 0.44453
 H119 H 0.86298 0.58345 0.30859
 H120 H 0.88950 0.55571 0.33454
 O121 O 0.37608 0.15977 0.31042
 O122 O 0.40411 0.12517 0.30319
 O123 O 0.31055 0.12271 0.34008
 O124 O 0.30142 0.09782 0.37282
 O125 O 0.33977 0.18990 0.37605
 O126 O 0.37456 0.19735 0.40381
 O127 O 0.37746 0.05957 0.41001
 O128 O 0.34808 0.05236 0.37710
 O129 O 0.44124 0.09068 0.37687
 O130 O 0.44850 0.12706 0.34801
 O131 O 0.41018 0.12387 0.44104
 O132 O 0.37381 0.15216 0.44872
 O133 O 0.37641 0.08944 0.44062
 O134 O 0.34723 0.12522 0.44825
 O135 O 0.44039 0.12490 0.41070
 O136 O 0.44828 0.15340 0.37505
 O137 O 0.41115 0.06022 0.37728
 O138 O 0.37700 0.05204 0.34732
 O139 O 0.37558 0.19031 0.34053
 O140 O 0.40284 0.19767 0.37609
 O141 O 0.31008 0.15903 0.37516
 O142 O 0.30437 0.12407 0.40465
 O143 O 0.34125 0.12396 0.31017
 O144 O 0.37666 0.09688 0.30302
 Zr145 Zr 0.37511 0.12569 0.33055
 O146 O 0.39886 0.10243 0.35211
 Zr147 Zr 0.33048 0.12509 0.37443
 O148 O 0.35221 0.10159 0.39803
 Zr149 Zr 0.37418 0.17002 0.37478
 O150 O 0.39782 0.14856 0.39849
 Zr151 Zr 0.37692 0.07986 0.37610
 O152 O 0.35292 0.10092 0.35224
 Zr153 Zr 0.42060 0.12470 0.37649
 O154 O 0.39904 0.14834 0.35263
 Zr155 Zr 0.37604 0.12386 0.42063
 O156 O 0.35212 0.14758 0.39900
 O157 O 0.35120 0.14884 0.35120
 O158 O 0.40013 0.10072 0.39997
 C159 C 0.37631 0.18299 0.31739
 C160 C 0.31804 0.12267 0.31697
 C161 C 0.31674 0.18231 0.37608
 C162 C 0.37717 0.06631 0.43330
 C163 C 0.43423 0.06747 0.37747
 C164 C 0.43334 0.12441 0.43386
 H165 H 0.40956 0.09228 0.34072
 H166 H 0.40799 0.16009 0.40901
 H167 H 0.34036 0.15942 0.34028
 H168 H 0.34101 0.09073 0.40822
 H169 H 0.33520 0.05761 0.36464
 H170 H 0.30691 0.08316 0.38295
 H171 H 0.44413 0.16599 0.38818
 H172 H 0.41623 0.19199 0.36437
 H173 H 0.39067 0.05600 0.33527
 H174 H 0.36543 0.08323 0.30901
 H175 H 0.38715 0.16471 0.44524
 H176 H 0.36324 0.19099 0.41723
 H177 H 0.41740 0.13673 0.30936
 H178 H 0.44566 0.11310 0.33598
 H179 H 0.30944 0.13738 0.41673
 H180 H 0.33516 0.11150 0.44455
 O181 O 0.12467 0.33941 0.30961
 O182 O 0.09730 0.37481 0.30230
 O183 O 0.19059 0.37537 0.34012
 O184 O 0.19983 0.40010 0.37286
 O185 O 0.15929 0.30909 0.37612
 O186 O 0.12406 0.30216 0.40320
 O187 O 0.12417 0.44016 0.40971
 O188 O 0.15406 0.44656 0.37684
 O189 O 0.06032 0.40986 0.37496
 O190 O 0.05223 0.37378 0.34687
 O191 O 0.08984 0.37609 0.43997
 O192 O 0.12586 0.34699 0.44778
 O193 O 0.12417 0.40970 0.43982
 O194 O 0.15238 0.37385 0.44807
 O195 O 0.05995 0.37677 0.40933
 O196 O 0.05212 0.34727 0.37369
 O197 O 0.09046 0.44023 0.37599
 O198 O 0.12528 0.44769 0.34686
 O199 O 0.12381 0.30939 0.34021
 O200 O 0.09636 0.30236 0.37536
 O201 O 0.19003 0.33892 0.37531
 O202 O 0.19595 0.37404 0.40479
 O203 O 0.16022 0.37464 0.30988
 O204 O 0.12559 0.40241 0.30225
 Zr205 Zr 0.12609 0.37364 0.32984
 O206 O 0.10262 0.39746 0.35121
 Zr207 Zr 0.17023 0.37341 0.37423
 O208 O 0.14863 0.39739 0.39758
 Zr209 Zr 0.12545 0.32957 0.37428
 O210 O 0.10200 0.35136 0.39770
 Zr211 Zr 0.12452 0.41982 0.37556
 O212 O 0.14839 0.39807 0.35191
 Zr213 Zr 0.08016 0.37564 0.37534
 O214 O 0.10141 0.35158 0.35170
 Zr215 Zr 0.12417 0.37551 0.41988
 O216 O 0.14787 0.35141 0.39861
 O217 O 0.14924 0.35004 0.35085
 O218 O 0.10074 0.39922 0.39910
 C219 C 0.12355 0.31632 0.31697
 C220 C 0.18336 0.37554 0.31694
 C221 C 0.18254 0.31588 0.37643
 C222 C 0.12409 0.43289 0.43286
 C223 C 0.06733 0.43302 0.37551
 C224 C 0.06678 0.37681 0.43255
 H225 H 0.09225 0.40775 0.33967
 H226 H 0.09146 0.34008 0.40812
 H227 H 0.15996 0.33917 0.34009
 H228 H 0.15995 0.40798 0.40793
 H229 H 0.16685 0.44106 0.36438
 H230 H 0.19447 0.41490 0.38287
 H231 H 0.05505 0.33545 0.38782
 H232 H 0.08292 0.30853 0.36397
 H233 H 0.11218 0.44354 0.33427
 H234 H 0.13691 0.41588 0.30845
 H235 H 0.11187 0.33508 0.44464
 H236 H 0.13533 0.30821 0.41680
 H237 H 0.08394 0.36314 0.30811
 H238 H 0.05609 0.38692 0.33420
 H239 H 0.19053 0.36079 0.41678
 H240 H 0.16506 0.38696 0.44421
 O241 O 0.62509 0.84014 0.31018
 O242 O 0.59789 0.87566 0.30298
 O243 O 0.69113 0.87578 0.34092
 O244 O 0.70024 0.90055 0.37376
 O245 O 0.65970 0.80948 0.37658
 O246 O 0.62443 0.80245 0.40361
 O247 O 0.62462 0.94036 0.41079
 O248 O 0.65461 0.94689 0.37800
 O249 O 0.56082 0.91034 0.37579
 O250 O 0.55271 0.87441 0.34752
 O251 O 0.59015 0.87624 0.44069
 O252 O 0.62619 0.84695 0.44832
 O253 O 0.62457 0.90975 0.44076
 O254 O 0.65265 0.87390 0.44892
 O255 O 0.56032 0.87710 0.41000
 O256 O 0.55255 0.84775 0.37418
 O257 O 0.59099 0.94068 0.37695
 O258 O 0.62582 0.94828 0.34802
 O259 O 0.62419 0.80998 0.34065
 O260 O 0.59678 0.80278 0.37574
 O261 O 0.69047 0.83929 0.37595
 O262 O 0.69640 0.87421 0.40558
 O263 O 0.66079 0.87522 0.31065
 O264 O 0.62624 0.90319 0.30314
 Zr265 Zr 0.62662 0.87427 0.33058
 O266 O 0.60314 0.89799 0.35204
 Zr267 Zr 0.67069 0.87378 0.37501
 O268 O 0.64906 0.89765 0.39847
 Zr269 Zr 0.62586 0.82999 0.37482
 O270 O 0.60237 0.85168 0.39830
 Zr271 Zr 0.62502 0.92021 0.37653
 O272 O 0.64890 0.89858 0.35279
 Zr273 Zr 0.58060 0.87609 0.37603
 O274 O 0.60188 0.85214 0.35230
 Zr275 Zr 0.62453 0.87569 0.42064
 O276 O 0.64827 0.85169 0.39927
 O277 O 0.64970 0.85054 0.35150
 O278 O 0.60117 0.89953 0.39994
 C279 C 0.62391 0.81702 0.31744
 C280 C 0.68394 0.87602 0.31773
 C281 C 0.68295 0.81625 0.37695
 C282 C 0.62451 0.93297 0.43390
 C283 C 0.56786 0.93350 0.37642
 C284 C 0.56710 0.87703 0.43325
 H285 H 0.59279 0.90836 0.34053
 H286 H 0.59180 0.84036 0.40866
 H287 H 0.66040 0.83969 0.34071
 H288 H 0.66037 0.90817 0.40889
 H289 H 0.66738 0.94146 0.36548
 H290 H 0.69494 0.91521 0.38400
 H291 H 0.55539 0.83591 0.38831
 H292 H 0.58331 0.80904 0.36443
 H293 H 0.61293 0.94405 0.33524
 H294 H 0.63767 0.91655 0.30938
 H295 H 0.61207 0.83518 0.44521
 H296 H 0.63569 0.80842 0.41724
 H297 H 0.58446 0.86404 0.30873
 H298 H 0.55659 0.88762 0.33493
 H299 H 0.69091 0.86097 0.41754
 H300 H 0.66544 0.88689 0.44504
 O301 O 0.62553 0.66008 0.19017
 O302 O 0.59832 0.62540 0.19814
 O303 O 0.69065 0.62333 0.15896
 O304 O 0.70038 0.60006 0.12579
 O305 O 0.65974 0.69063 0.12355
 O306 O 0.62455 0.69819 0.09725
 O307 O 0.62293 0.55988 0.09066
 O308 O 0.65269 0.55256 0.12289
 O309 O 0.55983 0.59091 0.12482
 O310 O 0.55167 0.62658 0.15243
 O311 O 0.59013 0.62344 0.06005
 O312 O 0.62548 0.65188 0.05128
 O313 O 0.62403 0.58972 0.06003
 O314 O 0.65315 0.62608 0.05246
 O315 O 0.55979 0.62445 0.09025
 O316 O 0.55307 0.65419 0.12665
 O317 O 0.58969 0.56022 0.12435
 O318 O 0.62494 0.55287 0.15377
 O319 O 0.62496 0.69063 0.16010
 O320 O 0.59649 0.69738 0.12495
 O321 O 0.69027 0.66056 0.12419
 O322 O 0.69533 0.62497 0.09409
 O323 O 0.66093 0.62470 0.18984
 O324 O 0.62563 0.59685 0.19710
 Zr325 Zr 0.62654 0.62606 0.16998
 O326 O 0.60236 0.60288 0.14873
 Zr327 Zr 0.67024 0.62616 0.12516
 O328 O 0.64841 0.60205 0.10230
 Zr329 Zr 0.62583 0.67039 0.12579
 O330 O 0.60240 0.64876 0.10212
 Zr331 Zr 0.62399 0.58020 0.12455
 O332 O 0.64850 0.60159 0.14770
 Zr333 Zr 0.58010 0.62489 0.12444
 O334 O 0.60178 0.64839 0.14836
 Zr335 Zr 0.62428 0.62414 0.07998
 O336 O 0.64791 0.64843 0.10111
 O337 O 0.64969 0.64958 0.14888
 O338 O 0.60048 0.60092 0.10087
 C339 C 0.62482 0.68329 0.18325
 C340 C 0.68392 0.62325 0.18227
 C341 C 0.68293 0.68367 0.12312
 C342 C 0.62319 0.56661 0.06736
 C343 C 0.56664 0.56767 0.12458
 C344 C 0.56698 0.62364 0.06710
 H345 H 0.59187 0.59276 0.16032
 H346 H 0.59202 0.66014 0.09163
 H347 H 0.66064 0.66025 0.15959
 H348 H 0.65959 0.59121 0.09203
 H349 H 0.66611 0.55805 0.13465
 H350 H 0.69426 0.58440 0.11775
 H351 H 0.55563 0.66550 0.11203
 H352 H 0.58377 0.69183 0.13744
 H353 H 0.61108 0.55648 0.16570
 H354 H 0.63759 0.58377 0.19124
 H355 H 0.61252 0.66471 0.05521
 H356 H 0.63484 0.69168 0.08309
 H357 H 0.58456 0.63646 0.19207
 H358 H 0.55619 0.61444 0.16584
 H359 H 0.69074 0.63910 0.08278
 H360 H 0.66476 0.61176 0.05532
 O361 O 0.37580 0.84090 0.69073
 O362 O 0.40334 0.87613 0.69750
 O363 O 0.30999 0.87779 0.66036
 O364 O 0.29993 0.90123 0.62729
 O365 O 0.34007 0.81011 0.62518
 O366 O 0.37493 0.80313 0.59721
 O367 O 0.37554 0.94097 0.58993
 O368 O 0.34597 0.94762 0.62324
 O369 O 0.43996 0.91091 0.62376
 O370 O 0.44816 0.87505 0.65215
 O371 O 0.40905 0.87635 0.55975
 O372 O 0.37326 0.84787 0.55213
 O373 O 0.37500 0.91032 0.55999
 O374 O 0.34632 0.87422 0.55260
 O375 O 0.43974 0.87696 0.58959
 O376 O 0.44761 0.84793 0.62579
 O377 O 0.40945 0.94095 0.62301
 O378 O 0.37543 0.94905 0.65252
 O379 O 0.37630 0.81070 0.66027
 O380 O 0.40308 0.80322 0.62482
 O381 O 0.30992 0.84055 0.62594
 O382 O 0.30379 0.87535 0.59591
 O383 O 0.34016 0.87639 0.69080
 O384 O 0.37526 0.90414 0.69754
 Zr385 Zr 0.37423 0.87504 0.67030
 O386 O 0.39763 0.89854 0.64838
 Zr387 Zr 0.32981 0.87481 0.62621
 O388 O 0.35108 0.89851 0.60250
 Zr389 Zr 0.37414 0.83060 0.62611
 O390 O 0.39747 0.85217 0.60228
 Zr391 Zr 0.37549 0.92081 0.62416
 O392 O 0.35186 0.89945 0.64826
 Zr393 Zr 0.41987 0.87660 0.62402
 O394 O 0.39862 0.85282 0.64813
 Zr395 Zr 0.37511 0.87625 0.58017
 O396 O 0.35160 0.85236 0.60182
 O397 O 0.35076 0.85146 0.64966
 O398 O 0.39893 0.90003 0.60041
 C399 C 0.37686 0.81776 0.68346
 C400 C 0.31705 0.87789 0.68357
 C401 C 0.31692 0.81736 0.62518
 C402 C 0.37528 0.93356 0.56683
 C403 C 0.43263 0.93401 0.62308
 C404 C 0.43230 0.87673 0.56651
 H405 H 0.40818 0.90891 0.65969
 H406 H 0.40780 0.84073 0.59180
 H407 H 0.34010 0.84082 0.66068
 H408 H 0.33966 0.90908 0.59224
 H409 H 0.33348 0.94235 0.63609
 H410 H 0.30554 0.91636 0.61795
 H411 H 0.44450 0.83605 0.61175
 H412 H 0.41675 0.80945 0.63589
 H413 H 0.38838 0.94470 0.66520
 H414 H 0.36374 0.91750 0.69145
 H415 H 0.38648 0.83527 0.55589
 H416 H 0.36314 0.80899 0.58398
 H417 H 0.41672 0.86464 0.69138
 H418 H 0.44437 0.88823 0.66480
 H419 H 0.30873 0.86167 0.58419
 H420 H 0.33409 0.88787 0.55610
 O421 O 0.87641 0.34062 0.69050
 O422 O 0.90394 0.37585 0.69709
 O423 O 0.81051 0.37744 0.66020
 O424 O 0.80030 0.40066 0.62704
 O425 O 0.84044 0.30958 0.62516
 O426 O 0.87526 0.30250 0.59712
 O427 O 0.87578 0.44025 0.58940
 O428 O 0.84637 0.44709 0.62279
 O429 O 0.94034 0.41037 0.62315
 O430 O 0.94856 0.37453 0.65171
 O431 O 0.90923 0.37555 0.55936
 O432 O 0.87340 0.34704 0.55196
 O433 O 0.87538 0.40951 0.55957
 O434 O 0.84651 0.37350 0.55237
 O435 O 0.94000 0.37636 0.58911
 O436 O 0.94807 0.34745 0.62531
 O437 O 0.90982 0.44040 0.62234
 O438 O 0.87588 0.44860 0.65198
 O439 O 0.87681 0.31031 0.66015
 O440 O 0.90342 0.30264 0.62467
 O441 O 0.81030 0.34003 0.62589
 O442 O 0.80411 0.37474 0.59577
 O443 O 0.84077 0.37612 0.69054
 O444 O 0.87588 0.40384 0.69712
 Zr445 Zr 0.87476 0.37466 0.66997
 O446 O 0.89810 0.39809 0.64793
 Zr447 Zr 0.83020 0.37428 0.62601
 O448 O 0.85141 0.39789 0.60217
 Zr449 Zr 0.87452 0.33007 0.62593
 O450 O 0.89780 0.35155 0.60200
 Zr451 Zr 0.87587 0.42026 0.62371
 O452 O 0.85231 0.39898 0.64792
 Zr453 Zr 0.92026 0.37605 0.62359
 O454 O 0.89907 0.35235 0.64781
 Zr455 Zr 0.87537 0.37554 0.57987
 O456 O 0.85191 0.35173 0.60164
 O457 O 0.85122 0.35101 0.64948
 O458 O 0.89924 0.39939 0.59997
 C459 C 0.87747 0.31746 0.68330
 C460 C 0.81766 0.37764 0.68337
 C461 C 0.81729 0.31683 0.62517
 C462 C 0.87562 0.43276 0.56633
 C463 C 0.93300 0.43347 0.62238
 C464 C 0.93249 0.37603 0.56607
 H465 H 0.90867 0.40851 0.65917
 H466 H 0.90810 0.34007 0.59153
 H467 H 0.84059 0.34040 0.66057
 H468 H 0.83997 0.40843 0.59190
 H469 H 0.83390 0.44185 0.63568
 H470 H 0.80591 0.41580 0.61773
 H471 H 0.94487 0.33548 0.61136
 H472 H 0.91718 0.30895 0.63559
 H473 H 0.88896 0.44436 0.66457
 H474 H 0.86438 0.41721 0.69099
 H475 H 0.88667 0.33448 0.55569
 H476 H 0.86340 0.30829 0.58392
 H477 H 0.91732 0.36436 0.69097
 H478 H 0.94493 0.38789 0.66422
 H479 H 0.80902 0.36103 0.58407
 H480 H 0.83435 0.38722 0.55582
 O481 O 0.81068 0.87689 0.16055
 O482 O 0.80290 0.90368 0.12528
 O483 O 0.83982 0.81016 0.12379
 O484 O 0.87224 0.80067 0.09875
 O485 O 0.87644 0.84017 0.19037
 O486 O 0.90431 0.87508 0.19707
 O487 O 0.90913 0.87663 0.05921
 O488 O 0.87627 0.84667 0.05274
 O489 O 0.87626 0.94039 0.08981
 O490 O 0.84781 0.94810 0.12664
 O491 O 0.94074 0.90969 0.12305
 O492 O 0.94862 0.87358 0.15147
 O493 O 0.93995 0.87569 0.08885
 O494 O 0.94783 0.84673 0.12478
 O495 O 0.91047 0.93997 0.12302
 O496 O 0.87550 0.94835 0.15243
 O497 O 0.87548 0.90998 0.05966
 O498 O 0.84655 0.87561 0.05205
 O499 O 0.84104 0.87595 0.19080
 O500 O 0.87651 0.90339 0.19737
 O501 O 0.87518 0.81013 0.15981
 O502 O 0.90432 0.80399 0.12460
 O503 O 0.80993 0.84084 0.12542
 O504 O 0.80248 0.87575 0.09768
 Zr505 Zr 0.83032 0.87477 0.12620
 O506 O 0.85164 0.89820 0.10240
 Zr507 Zr 0.87412 0.83012 0.12563
 O508 O 0.89749 0.85154 0.10161
 Zr509 Zr 0.87498 0.87436 0.17008
 O510 O 0.89846 0.89774 0.14808
 Zr511 Zr 0.87537 0.87599 0.07979
 O512 O 0.85171 0.85227 0.10142
 Zr513 Zr 0.87628 0.92021 0.12410
 O514 O 0.85267 0.89898 0.14829
 Zr515 Zr 0.92028 0.87559 0.12343
 O516 O 0.89891 0.85198 0.14765
 O517 O 0.85116 0.85113 0.14944
 O518 O 0.89946 0.89940 0.10013
 C519 C 0.81788 0.87722 0.18370
 C520 C 0.81673 0.81761 0.12411
 C521 C 0.87637 0.81705 0.18301
 C522 C 0.93246 0.87637 0.06576
 C523 C 0.87592 0.93314 0.06666
 C524 C 0.93359 0.93286 0.12269
 H525 H 0.84012 0.90876 0.09227
 H526 H 0.90911 0.90807 0.15934
 H527 H 0.84034 0.84049 0.16030
 H528 H 0.90757 0.84021 0.09076
 H529 H 0.86378 0.83391 0.05821
 H530 H 0.88226 0.80594 0.08392
 H531 H 0.88894 0.94444 0.16476
 H532 H 0.86500 0.91684 0.19145
 H533 H 0.83371 0.88827 0.05678
 H534 H 0.80810 0.86394 0.08434
 H535 H 0.94524 0.88699 0.16399
 H536 H 0.91755 0.86352 0.19079
 H537 H 0.80923 0.91735 0.13630
 H538 H 0.83582 0.94534 0.11262
 H539 H 0.91650 0.80919 0.13775
 H540 H 0.94407 0.83459 0.11113
 O541 O 0.37627 0.34023 0.19082
 O542 O 0.40375 0.37550 0.19771
 O543 O 0.31056 0.37698 0.16017
 O544 O 0.30050 0.40030 0.12704
 O545 O 0.34092 0.30934 0.12507
 O546 O 0.37593 0.30247 0.09728
 O547 O 0.37614 0.44032 0.09008
 O548 O 0.34651 0.44694 0.12331
 O549 O 0.44055 0.41039 0.12413
 O550 O 0.44860 0.37446 0.15274
 O551 O 0.41001 0.37648 0.06009
 O552 O 0.37461 0.34726 0.05224
 O553 O 0.37581 0.40969 0.06014
 O554 O 0.34732 0.37341 0.05264
 O555 O 0.44059 0.37634 0.09005
 O556 O 0.44846 0.34752 0.12620
 O557 O 0.40997 0.44036 0.12326
 O558 O 0.37577 0.44834 0.15275
 O559 O 0.37695 0.31002 0.16038
 O560 O 0.40396 0.30262 0.12503
 O561 O 0.31071 0.33971 0.12577
 O562 O 0.30463 0.37451 0.09568
 O563 O 0.34061 0.37566 0.19072
 O564 O 0.37561 0.40342 0.19767
 Zr565 Zr 0.37474 0.37435 0.17039
 O566 O 0.39817 0.39794 0.14861
 Zr567 Zr 0.33050 0.37402 0.12611
 O568 O 0.35180 0.39781 0.10253
 Zr569 Zr 0.37494 0.32992 0.12619
 O570 O 0.39832 0.35158 0.10249
 Zr571 Zr 0.37605 0.42016 0.12432
 O572 O 0.35238 0.39870 0.14828
 Zr573 Zr 0.42056 0.37602 0.12437
 O574 O 0.39927 0.35217 0.14834
 Zr575 Zr 0.37600 0.37563 0.08032
 O576 O 0.35246 0.35164 0.10182
 O577 O 0.35142 0.35072 0.14964
 O578 O 0.39965 0.39943 0.10070
 C579 C 0.37738 0.31710 0.18357
 C580 C 0.31754 0.37712 0.18339
 C581 C 0.31775 0.31653 0.12501
 C582 C 0.37604 0.43292 0.06697
 C583 C 0.43317 0.43348 0.12340
 C584 C 0.43322 0.37672 0.06696
 H585 H 0.40864 0.40833 0.15997
 H586 H 0.40875 0.34021 0.09203
 H587 H 0.34073 0.34005 0.16062
 H588 H 0.34039 0.40835 0.09222
 H589 H 0.33393 0.44159 0.13604
 H590 H 0.30614 0.41551 0.11784
 H591 H 0.44525 0.33544 0.11234
 H592 H 0.41752 0.30883 0.13625
 H593 H 0.38887 0.44415 0.16533
 H594 H 0.36415 0.41681 0.19150
 H595 H 0.38816 0.33497 0.05584
 H596 H 0.36441 0.30846 0.08388
 H597 H 0.41717 0.36402 0.19166
 H598 H 0.44493 0.38787 0.16518
 H599 H 0.30961 0.36079 0.08402
 H600 H 0.33505 0.38705 0.05604
 O601 O 0.37577 0.65998 0.80986
 O602 O 0.40366 0.62520 0.80264
 O603 O 0.31010 0.62319 0.83961
 O604 O 0.30089 0.59837 0.87239
 O605 O 0.33963 0.69030 0.87550
 O606 O 0.37456 0.69755 0.90327
 O607 O 0.37685 0.55981 0.90957
 O608 O 0.34725 0.55276 0.87671
 O609 O 0.44066 0.59048 0.87627
 O610 O 0.44799 0.62693 0.84727
 O611 O 0.40985 0.62415 0.94045
 O612 O 0.37353 0.65258 0.94804
 O613 O 0.37621 0.58983 0.94013
 O614 O 0.34697 0.62554 0.94776
 O615 O 0.44004 0.62479 0.91008
 O616 O 0.44816 0.65311 0.87446
 O617 O 0.41042 0.56018 0.87669
 O618 O 0.37618 0.55217 0.84689
 O619 O 0.37541 0.69051 0.83997
 O620 O 0.40273 0.69782 0.87540
 O621 O 0.30981 0.65956 0.87466
 O622 O 0.30400 0.62466 0.90420
 O623 O 0.34077 0.62430 0.80966
 O624 O 0.37603 0.59708 0.80246
 Zr625 Zr 0.37466 0.62589 0.83001
 O626 O 0.39831 0.60249 0.85155
 Zr627 Zr 0.33008 0.62552 0.87393
 O628 O 0.35174 0.60195 0.89755
 Zr629 Zr 0.37398 0.67025 0.87420
 O630 O 0.39758 0.64870 0.89786
 Zr631 Zr 0.37630 0.58005 0.87561
 O632 O 0.35238 0.60123 0.85175
 Zr633 Zr 0.42021 0.62466 0.87588
 O634 O 0.39872 0.64843 0.85206
 Zr635 Zr 0.37570 0.62416 0.92007
 O636 O 0.35184 0.64795 0.89846
 O637 O 0.35087 0.64916 0.85066
 O638 O 0.39964 0.60085 0.89941
 C639 C 0.37610 0.68320 0.81682
 C640 C 0.31756 0.62309 0.81649
 C641 C 0.31656 0.68281 0.87555
 C642 C 0.37685 0.56672 0.93279
 C643 C 0.43354 0.56730 0.87685
 C644 C 0.43300 0.62448 0.93325
 H645 H 0.40894 0.59228 0.84016
 H646 H 0.40783 0.66019 0.90835
 H647 H 0.34007 0.65978 0.83975
 H648 H 0.34051 0.59115 0.90778
 H649 H 0.33443 0.55804 0.86420
 H650 H 0.30631 0.58373 0.88259
 H651 H 0.44394 0.66588 0.88740
 H652 H 0.41613 0.69200 0.86378
 H653 H 0.38974 0.55613 0.83472
 H654 H 0.36477 0.58347 0.80849
 H655 H 0.38697 0.66502 0.94459
 H656 H 0.36307 0.69134 0.91661
 H657 H 0.41698 0.63674 0.80877
 H658 H 0.44520 0.61282 0.83538
 H659 H 0.30920 0.63790 0.91629
 H660 H 0.33488 0.61182 0.94412
 O661 O 0.12552 0.65944 0.69033
 O662 O 0.09815 0.62474 0.69793
 O663 O 0.19066 0.62258 0.65917
 O664 O 0.20043 0.59946 0.62587
 O665 O 0.16016 0.69020 0.62413
 O666 O 0.12506 0.69803 0.59760
 O667 O 0.12310 0.55978 0.59016
 O668 O 0.15277 0.55229 0.62248
 O669 O 0.05993 0.59075 0.62428
 O670 O 0.05182 0.62633 0.65217
 O671 O 0.09052 0.62453 0.55983
 O672 O 0.12635 0.65213 0.55142
 O673 O 0.12386 0.58990 0.55971
 O674 O 0.15357 0.62591 0.55245
 O675 O 0.06009 0.62440 0.58996
 O676 O 0.05323 0.65399 0.62641
 O677 O 0.08972 0.55999 0.62369
 O678 O 0.12478 0.55234 0.65317
 O679 O 0.12514 0.69012 0.66039
 O680 O 0.09696 0.69722 0.62522
 O681 O 0.19060 0.66004 0.62463
 O682 O 0.19563 0.62468 0.59431
 O683 O 0.16081 0.62390 0.68993
 O684 O 0.12544 0.59615 0.69690
 Zr685 Zr 0.12652 0.62550 0.66993
 O686 O 0.10240 0.60248 0.64844
 Zr687 Zr 0.17041 0.62572 0.62528
 O688 O 0.14858 0.60185 0.60215
 Zr689 Zr 0.12616 0.67008 0.62601
 O690 O 0.10272 0.64869 0.60215
 Zr691 Zr 0.12405 0.57991 0.62417
 O692 O 0.14849 0.60109 0.64758
 Zr693 Zr 0.08028 0.62469 0.62421
 O694 O 0.10192 0.64802 0.64833
 Zr695 Zr 0.12460 0.62418 0.57988
 O696 O 0.14827 0.64822 0.60128
 O697 O 0.14984 0.64906 0.64907
 O698 O 0.10068 0.60086 0.60053
 C699 C 0.12487 0.68268 0.68350
 C700 C 0.18383 0.62238 0.68245
 C701 C 0.18333 0.68318 0.62372
 C702 C 0.12310 0.56678 0.56696
 C703 C 0.06668 0.56749 0.62388
 C704 C 0.06734 0.62446 0.56682
 H705 H 0.09183 0.59231 0.65992
 H706 H 0.09244 0.66021 0.59172
 H707 H 0.16077 0.65962 0.65990
 H708 H 0.15974 0.59104 0.59183
 H709 H 0.16608 0.55765 0.63443
 H710 H 0.19432 0.58394 0.61755
 H711 H 0.05594 0.66542 0.61192
 H712 H 0.08406 0.69154 0.63745
 H713 H 0.11094 0.55597 0.66513
 H714 H 0.13730 0.58302 0.69095
 H715 H 0.11380 0.66527 0.55561
 H716 H 0.13582 0.69182 0.58365
 H717 H 0.08447 0.63590 0.69188
 H718 H 0.05615 0.61395 0.66543
 H719 H 0.19102 0.63880 0.58300
 H720 H 0.16497 0.61141 0.55522
 O721 O 0.12624 0.15889 0.19021
 O722 O 0.09887 0.12428 0.19798
 O723 O 0.19145 0.12181 0.15947
 O724 O 0.20138 0.09860 0.12631
 O725 O 0.16104 0.18926 0.12384
 O726 O 0.12605 0.19691 0.09724
 O727 O 0.12396 0.05863 0.09070
 O728 O 0.15360 0.05127 0.12310
 O729 O 0.06082 0.08982 0.12444
 O730 O 0.05260 0.12557 0.15203
 O731 O 0.09162 0.12234 0.05985
 O732 O 0.12716 0.15065 0.05136
 O733 O 0.12529 0.08847 0.06008
 O734 O 0.15469 0.12466 0.05268
 O735 O 0.06109 0.12339 0.08988
 O736 O 0.05415 0.15310 0.12619
 O737 O 0.09061 0.05905 0.12420
 O738 O 0.12564 0.05162 0.15382
 O739 O 0.12595 0.18940 0.16010
 O740 O 0.09782 0.19625 0.12475
 O741 O 0.19148 0.15911 0.12471
 O742 O 0.19660 0.12353 0.09460
 O743 O 0.16153 0.12336 0.19014
 O744 O 0.12611 0.09566 0.19718
 Zr745 Zr 0.12730 0.12484 0.17003
 O746 O 0.10321 0.10170 0.14863
 Zr747 Zr 0.17131 0.12478 0.12551
 O748 O 0.14956 0.10073 0.10250
 Zr749 Zr 0.12704 0.16915 0.12582
 O750 O 0.10368 0.14757 0.10202
 Zr751 Zr 0.12494 0.07896 0.12459
 O752 O 0.14934 0.10029 0.14792
 Zr753 Zr 0.08117 0.12377 0.12420
 O754 O 0.10276 0.14723 0.14823
 Zr755 Zr 0.12563 0.12289 0.08002
 O756 O 0.14922 0.14710 0.10130
 O757 O 0.15067 0.14827 0.14909
 O758 O 0.10164 0.09974 0.10077
 C759 C 0.12562 0.18209 0.18325
 C760 C 0.18456 0.12176 0.18272
 C761 C 0.18422 0.18224 0.12359
 C762 C 0.12429 0.06536 0.06741
 C763 C 0.06757 0.06655 0.12426
 C764 C 0.06842 0.12260 0.06677
 H765 H 0.09262 0.09161 0.16016
 H766 H 0.09341 0.15898 0.09146
 H767 H 0.16158 0.15891 0.15988
 H768 H 0.16076 0.08985 0.09230
 H769 H 0.16694 0.05671 0.13498
 H770 H 0.19526 0.08296 0.11822
 H771 H 0.05692 0.16446 0.11165
 H772 H 0.08495 0.19071 0.13708
 H773 H 0.11173 0.05529 0.16569
 H774 H 0.13804 0.08252 0.19139
 H775 H 0.11421 0.16351 0.05519
 H776 H 0.13650 0.19040 0.08319
 H777 H 0.08518 0.13538 0.19181
 H778 H 0.05692 0.11332 0.16541
 H779 H 0.19210 0.13767 0.08326
 H780 H 0.16620 0.11028 0.05562
 O781 O 0.69140 0.37668 0.84074
 O782 O 0.69829 0.40429 0.87593
 O783 O 0.66123 0.31091 0.87824
 O784 O 0.62827 0.30111 0.90202
 O785 O 0.62571 0.34043 0.81048
 O786 O 0.59790 0.37551 0.80333
 O787 O 0.59086 0.37701 0.94108
 O788 O 0.62424 0.34719 0.94778
 O789 O 0.62446 0.44111 0.91072
 O790 O 0.65322 0.44888 0.87461
 O791 O 0.56074 0.41003 0.87632
 O792 O 0.55325 0.37387 0.84790
 O793 O 0.56097 0.37625 0.91043
 O794 O 0.55339 0.34742 0.87475
 O795 O 0.59053 0.44074 0.87666
 O796 O 0.62649 0.44859 0.84780
 O797 O 0.62489 0.41074 0.94093
 O798 O 0.65317 0.37684 0.94944
 O799 O 0.66092 0.37608 0.81061
 O800 O 0.62591 0.40343 0.80308
 O801 O 0.62677 0.31051 0.84115
 O802 O 0.59688 0.30461 0.87598
 O803 O 0.69162 0.34107 0.87637
 O804 O 0.69850 0.37634 0.90397
 Zr805 Zr 0.67114 0.37515 0.87500
 O806 O 0.64928 0.39867 0.89845
 Zr807 Zr 0.62710 0.33070 0.87526
 O808 O 0.60341 0.35216 0.89881
 Zr809 Zr 0.62688 0.37469 0.83069
 O810 O 0.60317 0.39826 0.85215
 Zr811 Zr 0.62512 0.37669 0.92093
 O812 O 0.64920 0.35294 0.89967
 Zr813 Zr 0.62490 0.42082 0.87646
 O814 O 0.64891 0.39937 0.85268
 Zr815 Zr 0.58112 0.37607 0.87640
 O816 O 0.60268 0.35231 0.85267
 O817 O 0.65044 0.35148 0.85168
 O818 O 0.60134 0.40003 0.90008
 C819 C 0.68410 0.37695 0.81759
 C820 C 0.68441 0.31797 0.87811
 C821 C 0.62584 0.31733 0.81790
 C822 C 0.56778 0.37669 0.93366
 C823 C 0.62465 0.43389 0.93389
 C824 C 0.56748 0.43328 0.87654
 H825 H 0.66063 0.40925 0.90875
 H826 H 0.59269 0.40851 0.84065
 H827 H 0.66141 0.34070 0.84108
 H828 H 0.59315 0.34083 0.90947
 H829 H 0.63720 0.33477 0.94260
 H830 H 0.61864 0.30671 0.91698
 H831 H 0.61294 0.44494 0.83552
 H832 H 0.63710 0.41704 0.80922
 H833 H 0.66679 0.38838 0.94412
 H834 H 0.69276 0.36449 0.91721
 H835 H 0.55668 0.38734 0.83547
 H836 H 0.58472 0.36368 0.80921
 H837 H 0.69211 0.41766 0.86446
 H838 H 0.66548 0.44555 0.88826
 H839 H 0.58507 0.30954 0.86239
 H840 H 0.55712 0.33508 0.88823
 O841 O 0.12424 0.83992 0.80997
 O842 O 0.09678 0.87527 0.80272
 O843 O 0.19005 0.87609 0.84058
 O844 O 0.19904 0.90093 0.87340
 O845 O 0.15905 0.80963 0.87643
 O846 O 0.12382 0.80251 0.90351
 O847 O 0.12330 0.94042 0.91039
 O848 O 0.15311 0.94702 0.87752
 O849 O 0.05951 0.90998 0.87550
 O850 O 0.05161 0.87406 0.84722
 O851 O 0.08908 0.87632 0.94038
 O852 O 0.12520 0.84705 0.94805
 O853 O 0.12363 0.90984 0.94038
 O854 O 0.15152 0.87410 0.94867
 O855 O 0.05923 0.87585 0.90970
 O856 O 0.05160 0.84734 0.87359
 O857 O 0.08954 0.94048 0.87656
 O858 O 0.12429 0.94818 0.84760
 O859 O 0.12360 0.80984 0.84052
 O860 O 0.09621 0.80253 0.87559
 O861 O 0.18966 0.83959 0.87566
 O862 O 0.19538 0.87461 0.90524
 O863 O 0.15971 0.87530 0.81032
 O864 O 0.12498 0.90297 0.80276
 Zr865 Zr 0.12556 0.87412 0.83028
 O866 O 0.10194 0.89777 0.85171
 Zr867 Zr 0.16966 0.87399 0.87469
 O868 O 0.14788 0.89777 0.89810
 Zr869 Zr 0.12511 0.82995 0.87461
 O870 O 0.10147 0.85155 0.89802
 Zr871 Zr 0.12367 0.92017 0.87618
 O872 O 0.14768 0.89862 0.85246
 Zr873 Zr 0.07951 0.87579 0.87573
 O874 O 0.10095 0.85190 0.85206
 Zr875 Zr 0.12346 0.87575 0.92033
 O876 O 0.14737 0.85185 0.89902
 O877 O 0.14880 0.85059 0.85123
 O878 O 0.09990 0.89943 0.89963
 C879 C 0.12325 0.81681 0.81729
 C880 C 0.18286 0.87627 0.81739
 C881 C 0.18228 0.81651 0.87673
 C882 C 0.12349 0.93304 0.93351
 C883 C 0.06644 0.93319 0.87599
 C884 C 0.06600 0.87610 0.93295
 H885 H 0.09154 0.90806 0.84018
 H886 H 0.09099 0.84014 0.90836
 H887 H 0.15958 0.83979 0.84046
 H888 H 0.15915 0.90836 0.90850
 H889 H 0.16591 0.94162 0.86502
 H890 H 0.19364 0.91559 0.88360
 H891 H 0.05488 0.83506 0.88724
 H892 H 0.08283 0.80851 0.86403
 H893 H 0.11142 0.94386 0.83484
 H894 H 0.13627 0.91646 0.80901
 H895 H 0.11106 0.83528 0.94501
 H896 H 0.13506 0.80859 0.91712
 H897 H 0.08344 0.86357 0.80851
 H898 H 0.05547 0.88724 0.83460
 H899 H 0.19003 0.86130 0.91718
 H900 H 0.16445 0.88689 0.94459
 O901 O 0.69038 0.12358 0.66057
 O902 O 0.69787 0.09703 0.62541
 O903 O 0.66028 0.18997 0.62390
 O904 O 0.62729 0.20021 0.60059
 O905 O 0.62463 0.15981 0.69129
 O906 O 0.59768 0.12498 0.69894
 O907 O 0.59061 0.12344 0.56063
 O908 O 0.62330 0.15290 0.55335
 O909 O 0.62319 0.05987 0.59138
 O910 O 0.65171 0.05147 0.62709
 O911 O 0.55972 0.09113 0.62515
 O912 O 0.55177 0.12700 0.65300
 O913 O 0.56014 0.12456 0.59073
 O914 O 0.55317 0.15429 0.62680
 O915 O 0.58945 0.06033 0.62515
 O916 O 0.62558 0.05267 0.65446
 O917 O 0.62403 0.08975 0.56070
 O918 O 0.65355 0.12446 0.55319
 O919 O 0.66042 0.12445 0.69123
 O920 O 0.62504 0.09654 0.69813
 O921 O 0.62565 0.19029 0.66118
 O922 O 0.59560 0.19585 0.62579
 O923 O 0.69067 0.15978 0.62545
 O924 O 0.69721 0.12457 0.59722
 Zr925 Zr 0.67020 0.12569 0.62655
 O926 O 0.64846 0.10192 0.60336
 Zr927 Zr 0.62617 0.17017 0.62681
 O928 O 0.60282 0.14872 0.60282
 Zr929 Zr 0.62617 0.12582 0.67107
 O930 O 0.60211 0.10272 0.64953
 Zr931 Zr 0.62458 0.12400 0.58081
 O932 O 0.64825 0.14805 0.60214
 Zr933 Zr 0.62390 0.08007 0.62546
 O934 O 0.64819 0.10134 0.64894
 Zr935 Zr 0.58021 0.12496 0.62505
 O936 O 0.60183 0.14830 0.64921
 O937 O 0.64961 0.14922 0.65017
 O938 O 0.60060 0.10088 0.60164
 C939 C 0.68348 0.12325 0.68382
 C940 C 0.68346 0.18290 0.62392
 C941 C 0.62455 0.18301 0.68431
 C942 C 0.56742 0.12372 0.56761
 C943 C 0.62331 0.06670 0.56813
 C944 C 0.56642 0.06786 0.62505
 H945 H 0.65980 0.09123 0.59315
 H946 H 0.59153 0.09254 0.66100
 H947 H 0.66056 0.15993 0.66085
 H948 H 0.59269 0.16005 0.59203
 H949 H 0.63546 0.16599 0.55877
 H950 H 0.61876 0.19433 0.58509
 H951 H 0.61147 0.05589 0.66623
 H952 H 0.63708 0.08349 0.69236
 H953 H 0.66568 0.11087 0.55715
 H954 H 0.69153 0.13676 0.58426
 H955 H 0.55566 0.11423 0.66602
 H956 H 0.58389 0.13592 0.69272
 H957 H 0.69136 0.08302 0.63589
 H958 H 0.66428 0.05493 0.61375
 H959 H 0.58415 0.19130 0.63982
 H960 H 0.55613 0.16570 0.61234
 C961 C 0.37875 0.75915 0.73897
 C962 C 0.38476 0.75371 0.71373
 C963 C 0.38431 0.77288 0.69581
 C964 C 0.37827 0.79767 0.70283
 C965 C 0.37324 0.80256 0.72840
 N966 N 0.37351 0.78344 0.74555
 C967 C 0.37803 0.73917 0.75857
 N968 N 0.38040 0.74569 0.78333
 C969 C 0.37984 0.72832 0.80224
 C970 C 0.37673 0.70259 0.79668
 C971 C 0.37389 0.69557 0.77131
 C972 C 0.37436 0.71369 0.75232
 H973 H 0.38878 0.76825 0.67642
 H974 H 0.36864 0.82143 0.73469
 H975 H 0.38194 0.73463 0.82154
 H976 H 0.37100 0.67604 0.76607
 H977 H 0.39004 0.73496 0.70772
 H978 H 0.37137 0.70764 0.73308
 C979 C 0.37824 0.23879 0.25897
 C980 C 0.37444 0.21331 0.25282
 C981 C 0.37394 0.19525 0.27187
 C982 C 0.37689 0.20235 0.29721
 C983 C 0.38010 0.22807 0.30268
 N984 N 0.38069 0.24538 0.28370
 C985 C 0.37903 0.25868 0.23930
 N986 N 0.37388 0.28301 0.24578
 C987 C 0.37367 0.30206 0.22855
 C988 C 0.37869 0.29705 0.20300
 C989 C 0.38462 0.27221 0.19607
 C990 C 0.38500 0.25311 0.21408
 H991 H 0.37096 0.17572 0.26669
 H992 H 0.38228 0.23444 0.32196
 H993 H 0.36914 0.32097 0.23477
 H994 H 0.38908 0.26749 0.17670
 H995 H 0.37138 0.20720 0.23360
 H996 H 0.39021 0.23432 0.20814
 C997 C 0.62244 0.75872 0.26159
 C998 C 0.61674 0.75302 0.28684
 C999 C 0.61708 0.77208 0.30490
 C1000 C 0.62272 0.79698 0.29800
 C1001 C 0.62751 0.80210 0.27243
 N1002 N 0.62733 0.78311 0.25515
 C1003 C 0.62319 0.73891 0.24184
 N1004 N 0.62031 0.74555 0.21717
 C1005 C 0.62082 0.72831 0.19813
 C1006 C 0.62439 0.70260 0.20347
 C1007 C 0.62779 0.69547 0.22875
 C1008 C 0.62737 0.71346 0.24786
 H1009 H 0.61283 0.76726 0.32430
 H1010 H 0.63181 0.82106 0.26623
 H1011 H 0.61829 0.73470 0.17890
 H1012 H 0.63105 0.67596 0.23382
 H1013 H 0.61176 0.73417 0.29275
 H1014 H 0.63077 0.70735 0.26701
 C1015 C 0.12254 0.25774 0.26138
 C1016 C 0.11676 0.25214 0.28663
 C1017 C 0.11694 0.27128 0.30461
 C1018 C 0.12249 0.29618 0.29761
 C1019 C 0.12736 0.30120 0.27204
 N1020 N 0.12734 0.28212 0.25485
 C1021 C 0.12347 0.23786 0.24170
 N1022 N 0.12080 0.24443 0.21699
 C1023 C 0.12148 0.22713 0.19800
 C1024 C 0.12502 0.20144 0.20344
 C1025 C 0.12820 0.19438 0.22876
 C1026 C 0.12760 0.21242 0.24782
 H1027 H 0.11263 0.26654 0.32401
 H1028 H 0.13160 0.32015 0.26576
 H1029 H 0.11911 0.23348 0.17874
 H1030 H 0.13141 0.17488 0.23391
 H1031 H 0.11184 0.23329 0.29262
 H1032 H 0.13083 0.20636 0.26702
 C1033 C 0.12299 0.73834 0.74205
 C1034 C 0.12707 0.71288 0.74813
 C1035 C 0.12757 0.69485 0.72904
 C1036 C 0.12433 0.70196 0.70374
 C1037 C 0.12083 0.72767 0.69835
 N1038 N 0.12025 0.74494 0.71735
 C1039 C 0.12217 0.75822 0.76173
 N1040 N 0.12691 0.78260 0.75517
 C1041 C 0.12697 0.80169 0.77235
 C1042 C 0.12219 0.79668 0.79794
 C1043 C 0.11670 0.77177 0.80497
 C1044 C 0.11649 0.75261 0.78701
 H1045 H 0.13076 0.67534 0.73415
 H1046 H 0.11842 0.73406 0.67911
 H1047 H 0.13116 0.82064 0.76606
 H1048 H 0.11246 0.76702 0.82438
 H1049 H 0.13035 0.70678 0.76731
 H1050 H 0.11162 0.73376 0.79301
 C1051 C 0.87905 0.23923 0.75862
 C1052 C 0.87518 0.21376 0.75245
 C1053 C 0.87473 0.19569 0.77147
 C1054 C 0.87780 0.20277 0.79680
 C1055 C 0.88113 0.22848 0.80229
 N1056 N 0.88165 0.24579 0.78334
 C1057 C 0.87971 0.25912 0.73899
 N1058 N 0.87441 0.28341 0.74550
 C1059 C 0.87403 0.30246 0.72828
 C1060 C 0.87901 0.29747 0.70273
 C1061 C 0.88512 0.27268 0.69578
 C1062 C 0.88569 0.25359 0.71377
 H1063 H 0.87167 0.17618 0.76629
 H1064 H 0.88340 0.23482 0.82156
 H1065 H 0.86938 0.32133 0.73451
 H1066 H 0.88957 0.26799 0.67639
 H1067 H 0.87201 0.20770 0.73324
 H1068 H 0.89101 0.23483 0.70783
 C1069 C 0.75956 0.37993 0.73935
 C1070 C 0.75395 0.38608 0.71419
 C1071 C 0.77295 0.38551 0.69609
 C1072 C 0.79773 0.37922 0.70288
 C1073 C 0.80280 0.37408 0.72839
 N1074 N 0.78384 0.37446 0.74570
 C1075 C 0.73974 0.37920 0.75907
 N1076 N 0.74639 0.38157 0.78380
 C1077 C 0.72914 0.38093 0.80282
 C1078 C 0.70341 0.37770 0.79739
 C1079 C 0.69627 0.37485 0.77205
 C1080 C 0.71426 0.37544 0.75296
 H1081 H 0.76820 0.39006 0.67675
 H1082 H 0.82166 0.36929 0.73450
 H1083 H 0.73554 0.38302 0.82209
 H1084 H 0.67674 0.37190 0.76689
 H1085 H 0.73520 0.39154 0.70837
 H1086 H 0.70813 0.37243 0.73375
 C1087 C 0.26217 0.62062 0.75774
 C1088 C 0.28768 0.62434 0.75170
 C1089 C 0.30561 0.62494 0.77086
 C1090 C 0.29837 0.62214 0.79618
 C1091 C 0.27263 0.61887 0.80151
 N1092 N 0.25545 0.61824 0.78244
 C1093 C 0.24234 0.62003 0.73801
 N1094 N 0.21803 0.62513 0.74456
 C1095 C 0.19898 0.62557 0.72736
 C1096 C 0.20396 0.62084 0.70175
 C1097 C 0.22878 0.61499 0.69472
 C1098 C 0.24790 0.61438 0.71271
 H1099 H 0.32516 0.62791 0.76577
 H1100 H 0.26614 0.61681 0.82076
 H1101 H 0.18010 0.63003 0.73368
 H1102 H 0.23348 0.61081 0.67528
 H1103 H 0.29390 0.62733 0.73252
 H1104 H 0.26668 0.60926 0.70670
 C1105 C 0.26273 0.12011 0.25816
 C1106 C 0.28824 0.12385 0.25216
 C1107 C 0.30615 0.12447 0.27133
 C1108 C 0.29887 0.12167 0.29665
 C1109 C 0.27313 0.11839 0.30195
 N1110 N 0.25597 0.11773 0.28286
 C1111 C 0.24293 0.11950 0.23842
 N1112 N 0.21863 0.12469 0.24490
 C1113 C 0.19962 0.12510 0.22766
 C1114 C 0.20464 0.12027 0.20208
 C1115 C 0.22946 0.11432 0.19512
 C1116 C 0.24854 0.11373 0.21315
 H1117 H 0.32570 0.12746 0.26626
 H1118 H 0.26662 0.11633 0.32119
 H1119 H 0.18073 0.12964 0.23391
 H1120 H 0.23419 0.11004 0.17570
 H1121 H 0.29447 0.12684 0.23297
 H1122 H 0.26732 0.10854 0.20720
 C1123 C 0.76202 0.12207 0.75892
 C1124 C 0.78746 0.12606 0.75274
 C1125 C 0.80553 0.12655 0.77176
 C1126 C 0.79851 0.12339 0.79710
 C1127 C 0.77283 0.11995 0.80260
 N1128 N 0.75550 0.11939 0.78365
 C1129 C 0.74210 0.12138 0.73929
 N1130 N 0.71778 0.12636 0.74590
 C1131 C 0.69868 0.12666 0.72874
 C1132 C 0.70363 0.12192 0.70313
 C1133 C 0.72847 0.11618 0.69605
 C1134 C 0.74762 0.11570 0.71399
 H1135 H 0.82502 0.12970 0.76655
 H1136 H 0.76651 0.11763 0.82187
 H1137 H 0.67978 0.13102 0.73508
 H1138 H 0.73314 0.11195 0.67661
 H1139 H 0.79350 0.12930 0.73354
 H1140 H 0.76642 0.11065 0.70794
 C1141 C 0.73985 0.87817 0.25940
 C1142 C 0.71442 0.87416 0.25323
 C1143 C 0.69635 0.87359 0.27226
 C1144 C 0.70336 0.87670 0.29760
 C1145 C 0.72906 0.88012 0.30310
 N1146 N 0.74639 0.88076 0.28413
 C1147 C 0.75971 0.87902 0.23970
 N1148 N 0.78404 0.87378 0.24607
 C1149 C 0.80303 0.87354 0.22876
 C1150 C 0.79794 0.87861 0.20324
 C1151 C 0.77311 0.88467 0.19644
 C1152 C 0.75408 0.88509 0.21452
 H1153 H 0.67686 0.87045 0.26705
 H1154 H 0.73537 0.88240 0.32238
 H1155 H 0.82193 0.86894 0.23489
 H1156 H 0.76832 0.88917 0.17709
 H1157 H 0.70838 0.87097 0.23402
 H1158 H 0.73529 0.89037 0.20868
 C1159 C 0.75812 0.73781 0.37745
 C1160 C 0.75218 0.71234 0.37328
 C1161 C 0.77135 0.69442 0.37276
 C1162 C 0.79658 0.70164 0.37607
 C1163 C 0.80184 0.72735 0.37969
 N1164 N 0.78276 0.74451 0.38028
 C1165 C 0.73839 0.75761 0.37818
 N1166 N 0.74499 0.78203 0.37371
 C1167 C 0.72781 0.80110 0.37358
 C1168 C 0.70219 0.79604 0.37799
 C1169 C 0.69510 0.77109 0.38315
 C1170 C 0.71306 0.75194 0.38345
 H1171 H 0.76635 0.67489 0.36949
 H1172 H 0.82102 0.73382 0.38217
 H1173 H 0.73417 0.82008 0.36964
 H1174 H 0.67564 0.76632 0.38709
 H1175 H 0.73307 0.70615 0.36993
 H1176 H 0.70700 0.73304 0.38808
 C1177 C 0.75894 0.26104 0.62350
 C1178 C 0.75284 0.28646 0.62775
 C1179 C 0.77188 0.30450 0.62825
 C1180 C 0.79716 0.29745 0.62484
 C1181 C 0.80258 0.27176 0.62123
 N1182 N 0.78362 0.25447 0.62065
 C1183 C 0.73925 0.24120 0.62259
 N1184 N 0.74569 0.21681 0.62749
 C1185 C 0.72844 0.19780 0.62757
 C1186 C 0.70291 0.20291 0.62267
 C1187 C 0.69603 0.22782 0.61698
 C1188 C 0.71405 0.24688 0.61674
 H1189 H 0.76674 0.32400 0.63153
 H1190 H 0.82181 0.26543 0.61869
 H1191 H 0.73463 0.17885 0.63190
 H1192 H 0.67667 0.23264 0.61265
 H1193 H 0.73368 0.29252 0.63114
 H1194 H 0.70816 0.26575 0.61174
 C1195 C 0.73847 0.74220 0.12149
 C1196 C 0.71318 0.74783 0.11600
 C1197 C 0.69522 0.72870 0.11640
 C1198 C 0.70226 0.70379 0.12187
 C1199 C 0.72786 0.69875 0.12644
 N1200 N 0.74504 0.71781 0.12622
 C1201 C 0.75815 0.76206 0.12218
 N1202 N 0.78281 0.75542 0.11936
 C1203 C 0.80182 0.77265 0.11990
 C1204 C 0.79647 0.79837 0.12346
 C1205 C 0.77121 0.80551 0.12676
 C1206 C 0.75212 0.78752 0.12629
 H1207 H 0.67579 0.73346 0.11231
 H1208 H 0.73418 0.67979 0.13061
 H1209 H 0.82104 0.76623 0.11745
 H1210 H 0.76613 0.82503 0.12998
 H1211 H 0.70715 0.76668 0.11115
 H1212 H 0.73297 0.79366 0.12962
 C1213 C 0.25952 0.26059 0.12333
 C1214 C 0.25338 0.28600 0.12764
 C1215 C 0.27238 0.30409 0.12810
 C1216 C 0.29766 0.29710 0.12461
 C1217 C 0.30314 0.27143 0.12095
 N1218 N 0.28421 0.25409 0.12040
 C1219 C 0.23987 0.24071 0.12246
 N1220 N 0.24638 0.21631 0.12723
 C1221 C 0.22917 0.19726 0.12729
 C1222 C 0.20361 0.20233 0.12250
 C1223 C 0.19665 0.22725 0.11698
 C1224 C 0.21463 0.24636 0.11675
 H1225 H 0.26720 0.32356 0.13143
 H1226 H 0.32237 0.26514 0.11835
 H1227 H 0.23543 0.17829 0.13149
 H1228 H 0.17727 0.23203 0.11272
 H1229 H 0.23422 0.29201 0.13110
 H1230 H 0.20867 0.26522 0.11185
 C1231 C 0.25772 0.73819 0.87729
 C1232 C 0.25182 0.71270 0.87313
 C1233 C 0.27100 0.69478 0.87270
 C1234 C 0.29623 0.70202 0.87608
 C1235 C 0.30144 0.72774 0.87968
 N1236 N 0.28235 0.74490 0.88019
 C1237 C 0.23794 0.75798 0.87799
 N1238 N 0.24446 0.78243 0.87354
 C1239 C 0.22724 0.80146 0.87340
 C1240 C 0.20162 0.79635 0.87779
 C1241 C 0.19460 0.77137 0.88294
 C1242 C 0.21261 0.75226 0.88325
 H1243 H 0.26602 0.67525 0.86944
 H1244 H 0.32062 0.73422 0.88221
 H1245 H 0.23354 0.82047 0.86947
 H1246 H 0.17516 0.76654 0.88686
 H1247 H 0.23272 0.70649 0.86973
 H1248 H 0.20659 0.73335 0.88787
 C1249 C 0.25780 0.23750 0.37758
 C1250 C 0.25194 0.21199 0.37352
 C1251 C 0.27116 0.19412 0.37318
 C1252 C 0.29636 0.20143 0.37657
 C1253 C 0.30152 0.22716 0.38010
 N1254 N 0.28240 0.24428 0.38050
 C1255 C 0.23803 0.25728 0.37809
 N1256 N 0.24462 0.28169 0.37359
 C1257 C 0.22744 0.30075 0.37330
 C1258 C 0.20180 0.29568 0.37758
 C1259 C 0.19470 0.27073 0.38276
 C1260 C 0.21267 0.25159 0.38322
 H1261 H 0.26623 0.17456 0.36998
 H1262 H 0.32068 0.23370 0.38264
 H1263 H 0.23380 0.31973 0.36936
 H1264 H 0.17522 0.26595 0.38660
 H1265 H 0.23286 0.20574 0.37011
 H1266 H 0.20660 0.23271 0.38786
 C1267 C 0.51110 0.62270 1.00885
 C1268 C 0.53632 0.61700 1.00307
 C1269 C 0.55439 0.61726 1.02210
 C1270 C 0.54754 0.62283 1.04706
 C1271 C 0.52200 0.62761 1.05226
 N1272 N 0.50470 0.62750 1.03329
 C1273 C 0.49136 0.62350 0.98906
 N1274 N 0.46673 0.62032 0.99564
 C1275 C 0.44774 0.62073 0.97836
 C1276 C 0.45311 0.62451 0.95267
 C1277 C 0.47833 0.62825 0.94560
 C1278 C 0.49738 0.62793 0.96363
 H1279 H 0.57374 0.61294 1.01723
 H1280 H 0.51584 0.63177 1.07128
 H1281 H 0.42856 0.61789 0.98469
 H1282 H 0.48341 0.63163 0.92610
 H1283 H 0.54217 0.61205 0.98417
 H1284 H 0.51650 0.63156 0.95758
 C1285 C 0.49177 0.12358 0.48958
 C1286 C 0.49771 0.12826 0.46419
 C1287 C 0.47863 0.12854 0.44619
 C1288 C 0.45345 0.12449 0.45326
 C1289 C 0.44816 0.12047 0.47893
 N1290 N 0.46718 0.12011 0.49618
 C1291 C 0.51155 0.12283 0.50934
 N1292 N 0.50512 0.12738 0.53381
 C1293 C 0.52244 0.12749 0.55277
 C1294 C 0.54801 0.12297 0.54752
 C1295 C 0.55490 0.11768 0.52252
 C1296 C 0.53681 0.11741 0.50350
 H1297 H 0.48366 0.13212 0.42671
 H1298 H 0.42901 0.11739 0.48526
 H1299 H 0.51623 0.13144 0.57182
 H1300 H 0.57429 0.11356 0.51760
 H1301 H 0.51678 0.13212 0.45813
 H1302 H 0.54270 0.11267 0.48455
 C1303 C 0.50810 0.87841 0.48844
 C1304 C 0.50270 0.88403 0.46310
 C1305 C 0.52197 0.88363 0.44527
 C1306 C 0.54680 0.87799 0.45245
 C1307 C 0.55161 0.87326 0.47808
 N1308 N 0.53241 0.87351 0.49515
 C1309 C 0.48811 0.87786 0.50804
 N1310 N 0.49467 0.88041 0.53276
 C1311 C 0.47735 0.88004 0.55172
 C1312 C 0.45161 0.87693 0.54627
 C1313 C 0.44452 0.87394 0.52094
 C1314 C 0.46260 0.87424 0.50188
 H1315 H 0.51738 0.88791 0.42582
 H1316 H 0.57050 0.86902 0.48452
 H1317 H 0.48373 0.88232 0.57098
 H1318 H 0.42496 0.87115 0.51578
 H1319 H 0.48393 0.88904 0.45696
 H1320 H 0.45650 0.87117 0.48268
 C1321 C 1.00797 0.37805 0.48784
 C1322 C 1.00248 0.38371 0.46254
 C1323 C 1.02170 0.38338 0.44466
 C1324 C 1.04655 0.37776 0.45179
 C1325 C 1.05145 0.37301 0.47739
 N1326 N 1.03230 0.37319 0.49450
 C1327 C 0.98806 0.37740 0.50747
 N1328 N 0.99469 0.38001 0.53217
 C1329 C 0.97744 0.37954 0.55117
 C1330 C 0.95172 0.37627 0.54579
 C1331 C 0.94455 0.37321 0.52049
 C1332 C 0.96257 0.37360 0.50138
 H1333 H 1.01706 0.38767 0.42523
 H1334 H 1.07037 0.36879 0.48377
 H1335 H 0.98386 0.38188 0.57041
 H1336 H 0.92500 0.37029 0.51539
 H1337 H 0.98368 0.38869 0.45646
 H1338 H 0.95643 0.37048 0.48219
 C1339 C -0.01291 0.87693 1.00791
 C1340 C -0.03859 0.87923 1.00186
 C1341 C -0.05658 0.87897 1.02099
 C1342 C -0.04930 0.87686 1.04644
 C1343 C -0.02331 0.87536 1.05173
 N1344 N -0.00612 0.87535 1.03265
 C1345 C 0.00699 0.87642 0.98818
 N1346 N 0.03135 0.88132 0.99477
 C1347 C 0.05053 0.88119 0.97768
 C1348 C 0.04568 0.87598 0.95215
 C1349 C 0.02079 0.87054 0.94506
 C1350 C 0.00154 0.87054 0.96291
 H1351 H -0.07623 0.88064 1.01571
 H1352 H -0.01658 0.87393 1.07096
 H1353 H 0.06946 0.88540 0.98403
 H1354 H 0.01616 0.86599 0.92568
 H1355 H -0.04499 0.88157 0.98266
 H1356 H -0.01721 0.86551 0.95678
 C1357 C -0.00696 0.12260 -0.01153
 C1358 C -0.00095 0.12654 -0.03704
 C1359 C -0.02007 0.12699 -0.05501
 C1360 C -0.04533 0.12385 -0.04780
 C1361 C -0.05066 0.12049 -0.02205
 N1362 N -0.03162 0.11995 -0.00483
 C1363 C 0.01278 0.12181 0.00828
 N1364 N 0.00632 0.12668 0.03269
 C1365 C 0.02355 0.12676 0.05172
 C1366 C 0.04909 0.12187 0.04662
 C1367 C 0.05601 0.11625 0.02169
 C1368 C 0.03800 0.11603 0.00259
 H1369 H -0.01500 0.13001 -0.07458
 H1370 H -0.06987 0.11810 -0.01560
 H1371 H 0.01733 0.13097 0.07070
 H1372 H 0.07537 0.11185 0.01690
 H1373 H 0.01820 0.12972 -0.04323
 H1374 H 0.04392 0.11103 -0.01627
 C1375 C 0.12308 1.00791 1.01243
 C1376 C 0.12063 1.00175 1.03808
 C1377 C 0.12109 1.02076 1.05618
 C1378 C 0.12353 1.04619 1.04903
 C1379 C 0.12510 1.05162 1.02305
 N1380 N 0.12493 1.03264 1.00574
 C1381 C 0.12351 0.98826 0.99248
 N1382 N 0.11833 0.99483 0.96816
 C1383 C 0.11836 0.97775 0.94896
 C1384 C 0.12375 0.95227 0.95379
 C1385 C 0.12949 0.94521 0.97864
 C1386 C 0.12960 0.96305 0.99789
 H1387 H 0.11931 1.01538 1.07582
 H1388 H 0.12674 1.07085 1.01642
 H1389 H 0.11391 0.98405 0.93005
 H1390 H 0.13421 0.92588 0.98324
 H1391 H 0.11804 0.98255 1.04437
 H1392 H 0.13487 0.95698 1.01662
 C1393 C 0.12263 0.48860 0.49138
 C1394 C 0.12668 0.46314 0.49744
 C1395 C 0.12713 0.44513 0.47834
 C1396 C 0.12389 0.45225 0.45304
 C1397 C 0.12043 0.47796 0.44766
 N1398 N 0.11990 0.49523 0.46669
 C1399 C 0.12185 0.50843 0.51113
 N1400 N 0.12686 0.53280 0.50470
 C1401 C 0.12703 0.55180 0.52198
 C1402 C 0.12213 0.54670 0.54754
 C1403 C 0.11633 0.52182 0.55441
 C1404 C 0.11600 0.50276 0.53635
 H1405 H 0.13023 0.42560 0.48345
 H1406 H 0.11795 0.48434 0.42843
 H1407 H 0.13137 0.57075 0.51579
 H1408 H 0.11190 0.51704 0.57378
 H1409 H 0.12994 0.45702 0.51661
 H1410 H 0.11089 0.48393 0.54224
 C1411 C 0.37735 0.48844 1.00826
 C1412 C 0.37345 0.46293 1.00227
 C1413 C 0.37305 0.44498 1.02142
 C1414 C 0.37620 0.45219 1.04671
 C1415 C 0.37957 0.47794 1.05201
 N1416 N 0.38004 0.49514 1.03294
 C1417 C 0.37803 0.50824 0.98850
 N1418 N 0.37314 0.53263 0.99498
 C1419 C 0.37295 0.55166 0.97773
 C1420 C 0.37771 0.54658 0.95215
 C1421 C 0.38336 0.52168 0.94520
 C1422 C 0.38371 0.50259 0.96322
 H1423 H 0.37007 0.42542 1.01637
 H1424 H 0.38200 0.48439 1.07123
 H1425 H 0.36872 0.57062 0.98398
 H1426 H 0.38768 0.51691 0.92580
 H1427 H 0.37026 0.45673 0.98311
 H1428 H 0.38872 0.48374 0.95727
 C1429 C 0.87759 0.50793 0.48783
 C1430 C 0.88307 0.50225 0.46252
 C1431 C 0.88284 0.52138 0.44454
 C1432 C 0.87750 0.54633 0.45159
 C1433 C 0.87289 0.55140 0.47720
 N1434 N 0.87298 0.53235 0.49439
 C1435 C 0.87689 0.48815 0.50758
 N1436 N 0.87986 0.49485 0.53222
 C1437 C 0.87940 0.47768 0.55130
 C1438 C 0.87576 0.45197 0.54604
 C1439 C 0.87231 0.44475 0.52080
 C1440 C 0.87270 0.46268 0.50163
 H1441 H 0.88702 0.51661 0.42512
 H1442 H 0.86889 0.57039 0.48352
 H1443 H 0.88206 0.48413 0.57049
 H1444 H 0.86910 0.42521 0.51580
 H1445 H 0.88784 0.48337 0.45652
 H1446 H 0.86929 0.45651 0.48250
 C1447 C 0.87840 1.00870 -0.01141
 C1448 C 0.88404 1.00301 -0.03667
 C1449 C 0.88383 1.02210 -0.05467
 C1450 C 0.87838 1.04703 -0.04768
 C1451 C 0.87370 1.05215 -0.02210
 N1452 N 0.87374 1.03311 -0.00487
 C1453 C 0.87751 0.98887 0.00828
 N1454 N 0.88060 0.99543 0.03295
 C1455 C 0.88002 0.97815 0.05193
 C1456 C 0.87612 0.95251 0.04653
 C1457 C 0.87250 0.94547 0.02126
 C1458 C 0.87302 0.96350 0.00220
 H1459 H 0.88811 1.01732 -0.07408
 H1460 H 0.86963 1.07114 -0.01583
 H1461 H 0.88281 0.98446 0.07115
 H1462 H 0.86907 0.92600 0.01615
 H1463 H 0.88888 0.98412 -0.04263
 H1464 H 0.86947 0.95747 -0.01696
 C1465 C 0.62310 -0.01158 0.49266
 C1466 C 0.62729 -0.03705 0.49860
 C1467 C 0.62772 -0.05498 0.47942
 C1468 C 0.62432 -0.04777 0.45417
 C1469 C 0.62070 -0.02205 0.44891
 N1470 N 0.62019 -0.00488 0.46801
 C1471 C 0.62236 0.00820 0.51245
 N1472 N 0.62692 0.03262 0.50594
 C1473 C 0.62704 0.05165 0.52319
 C1474 C 0.62252 0.04652 0.54880
 C1475 C 0.61721 0.02157 0.55580
 C1476 C 0.61694 0.00247 0.53776
 H1477 H 0.63093 -0.07452 0.48443
 H1478 H 0.61809 -0.01561 0.42972
 H1479 H 0.63100 0.07065 0.51690
 H1480 H 0.61310 0.01676 0.57523
 H1481 H 0.63067 -0.04324 0.51773
 H1482 H 0.61219 -0.01642 0.54374
 C1483 C 0.49010 1.00933 0.37885
 C1484 C 0.46502 1.00373 0.38519
 C1485 C 0.44697 1.02276 0.38484
 C1486 C 0.45373 1.04755 0.37855
 C1487 C 0.47917 1.05263 0.37325
 N1488 N 0.49646 1.03363 0.37343
 C1489 C 0.50973 0.98947 0.37798
 N1490 N 0.53442 0.99598 0.38069
 C1491 C 0.55333 0.97862 0.38012
 C1492 C 0.54780 0.95294 0.37663
 C1493 C 0.52250 0.94594 0.37339
 C1494 C 0.50353 0.96405 0.37389
 H1495 H 0.42770 1.01802 0.38964
 H1496 H 0.48525 1.07152 0.36854
 H1497 H 0.57258 0.98490 0.38258
 H1498 H 0.51729 0.92645 0.37029
 H1499 H 0.45925 0.98497 0.39067
 H1500 H 0.48433 0.95806 0.37065
 C1501 C -0.01070 -0.00879 0.12183
 C1502 C -0.03591 -0.00308 0.11611
 C1503 C -0.05392 -0.02216 0.11629
 C1504 C -0.04699 -0.04710 0.12181
 C1505 C -0.02146 -0.05223 0.12657
 N1506 N -0.00423 -0.03321 0.12655
 C1507 C 0.00900 0.01103 0.12270
 N1508 N 0.03365 0.00438 0.11984
 C1509 C 0.05266 0.02160 0.12041
 C1510 C 0.04732 0.04731 0.12404
 C1511 C 0.02208 0.05447 0.12741
 C1512 C 0.00298 0.03648 0.12692
 H1513 H -0.07328 -0.01734 0.11197
 H1514 H -0.01524 -0.07123 0.13071
 H1515 H 0.07186 0.01519 0.11781
 H1516 H 0.01703 0.07399 0.13064
 H1517 H -0.04184 0.01580 0.11122
 H1518 H -0.01616 0.04261 0.13028
 C1519 C 0.50819 0.51202 0.12335
 C1520 C 0.50212 0.53747 0.12751
 C1521 C 0.52118 0.55550 0.12790
 C1522 C 0.54643 0.54838 0.12448
 C1523 C 0.55182 0.52268 0.12089
 N1524 N 0.53284 0.50542 0.12043
 C1525 C 0.48855 0.49215 0.12258
 N1526 N 0.49514 0.46777 0.12731
 C1527 C 0.47800 0.44867 0.12737
 C1528 C 0.45243 0.45367 0.12261
 C1529 C 0.44538 0.47858 0.11713
 C1530 C 0.46329 0.49775 0.11693
 H1531 H 0.51610 0.57502 0.13108
 H1532 H 0.57102 0.51630 0.11826
 H1533 H 0.48433 0.42971 0.13148
 H1534 H 0.42598 0.48330 0.11283
 H1535 H 0.48297 0.54356 0.13089
 H1536 H 0.45727 0.51660 0.11205
 C1537 C -0.01153 0.49207 0.62134
 C1538 C -0.03677 0.49767 0.61560
 C1539 C -0.05471 0.47852 0.61585
 C1540 C -0.04769 0.45363 0.62145
 C1541 C -0.02214 0.44861 0.62626
 N1542 N -0.00498 0.46770 0.62616
 C1543 C 0.00813 0.51193 0.62214
 N1544 N 0.03280 0.50529 0.61944
 C1545 C 0.05180 0.52253 0.62004
 C1546 C 0.04643 0.54824 0.62355
 C1547 C 0.02116 0.55541 0.62671
 C1548 C 0.00207 0.53741 0.62618
 H1549 H -0.07409 0.48325 0.61151
 H1550 H -0.01584 0.42966 0.63046
 H1551 H 0.07101 0.51611 0.61759
 H1552 H 0.01607 0.57494 0.62981
 H1553 H -0.04276 0.51651 0.61064
 H1554 H -0.01710 0.54354 0.62938
 C1555 C 0.48925 0.50885 0.87829
 C1556 C 0.46405 0.50328 0.88420
 C1557 C 0.44606 0.52238 0.88380
 C1558 C 0.45297 0.54723 0.87787
 C1559 C 0.47849 0.55225 0.87292
 N1560 N 0.49572 0.53319 0.87317
 C1561 C 0.50894 0.48897 0.87765
 N1562 N 0.53362 0.49561 0.88026
 C1563 C 0.55261 0.47833 0.87986
 C1564 C 0.54723 0.45257 0.87668
 C1565 C 0.52196 0.44542 0.87360
 C1566 C 0.50288 0.46345 0.87391
 H1567 H 0.42671 0.51766 0.88829
 H1568 H 0.48470 0.57117 0.86848
 H1569 H 0.57183 0.48475 0.88221
 H1570 H 0.51686 0.42585 0.87074
 H1571 H 0.45813 0.48449 0.88942
 H1572 H 0.48371 0.45731 0.87078
 C1573 C 0.62284 0.50909 1.01246
 C1574 C 0.62024 0.50295 1.03810
 C1575 C 0.62035 0.52198 1.05617
 C1576 C 0.62260 0.54742 1.04900
 C1577 C 0.62425 0.55283 1.02302
 N1578 N 0.62443 0.53383 1.00574
 C1579 C 0.62371 0.48939 0.99257
 N1580 N 0.61851 0.49578 0.96820
 C1581 C 0.61889 0.47861 0.94908
 C1582 C 0.62467 0.45324 0.95405
 C1583 C 0.63049 0.44640 0.97894
 C1584 C 0.63024 0.46432 0.99811
 H1585 H 0.61851 0.51661 1.07581
 H1586 H 0.62575 0.57208 1.01637
 H1587 H 0.61439 0.48475 0.93014
 H1588 H 0.63551 0.42717 0.98364
 H1589 H 0.61782 0.48372 1.04439
 H1590 H 0.63555 0.45843 1.01688
 C1591 C 0.37716 1.00866 0.48811
 C1592 C 0.37980 1.00256 0.46246
 C1593 C 0.37980 1.02164 0.44443
 C1594 C 0.37761 1.04709 0.45164
 C1595 C 0.37586 1.05244 0.47763
 N1596 N 0.37559 1.03340 0.49486
 C1597 C 0.37626 0.98893 0.50799
 N1598 N 0.38128 0.99537 0.53238
 C1599 C 0.38088 0.97823 0.55151
 C1600 C 0.37526 0.95282 0.54657
 C1601 C 0.36967 0.94589 0.52164
 C1602 C 0.36994 0.96380 0.50244
 H1603 H 0.38171 1.01629 0.42479
 H1604 H 0.37439 1.07168 0.48431
 H1605 H 0.38525 0.98443 0.57047
 H1606 H 0.36482 0.92662 0.51695
 H1607 H 0.38218 0.98334 0.45613
 H1608 H 0.36481 0.95785 0.48364
 C1609 C -0.00844 0.62250 0.48892
 C1610 C -0.00280 0.61655 0.46372
 C1611 C -0.02187 0.61676 0.44571
 C1612 C -0.04675 0.62252 0.45260
 C1613 C -0.05184 0.62752 0.47813
 N1614 N -0.03282 0.62747 0.49538
 C1615 C 0.01142 0.62334 0.50858
 N1616 N 0.00491 0.62041 0.53328
 C1617 C 0.02225 0.62086 0.55221
 C1618 C 0.04793 0.62442 0.54672
 C1619 C 0.05493 0.62790 0.52142
 C1620 C 0.03683 0.62755 0.50242
 H1621 H -0.01708 0.61224 0.42636
 H1622 H -0.07080 0.63185 0.48432
 H1623 H 0.01597 0.61822 0.57146
 H1624 H 0.07442 0.63109 0.51625
 H1625 H 0.01604 0.61144 0.45783
 H1626 H 0.04284 0.63097 0.48324
 C1627 C 0.48903 0.37814 1.00863
 C1628 C 0.46370 0.38330 1.00280
 C1629 C 0.44561 0.38283 1.02184
 C1630 C 0.45256 0.37759 1.04683
 C1631 C 0.47817 0.37330 1.05205
 N1632 N 0.49548 0.37360 1.03309
 C1633 C 0.50887 0.37763 0.98892
 N1634 N 0.53344 0.38080 0.99573
 C1635 C 0.55259 0.38048 0.97861
 C1636 C 0.54747 0.37679 0.95287
 C1637 C 0.52230 0.37314 0.94556
 C1638 C 0.50308 0.37338 0.96342
 H1639 H 0.42618 0.38677 1.01696
 H1640 H 0.48442 0.36938 1.07109
 H1641 H 0.57172 0.38328 0.98513
 H1642 H 0.51740 0.36985 0.92600
 H1643 H 0.45776 0.38802 0.98388
 H1644 H 0.48403 0.36978 0.95717
 C1645 C 0.48812 -0.00743 0.62239
 C1646 C 0.46290 -0.00179 0.61662
 C1647 C 0.44495 -0.02092 0.61676
 C1648 C 0.45194 -0.04584 0.62229
 C1649 C 0.47748 -0.05089 0.62714
 N1650 N 0.49465 -0.03183 0.62715
 C1651 C 0.50781 0.01240 0.62328
 N1652 N 0.53247 0.00572 0.62062
 C1653 C 0.55149 0.02293 0.62126
 C1654 C 0.54615 0.04865 0.62475
 C1655 C 0.52089 0.05585 0.62789
 C1656 C 0.50177 0.03788 0.62733
 H1657 H 0.42558 -0.01617 0.61238
 H1658 H 0.48375 -0.06986 0.63130
 H1659 H 0.57070 0.01648 0.61883
 H1660 H 0.51584 0.07539 0.63098
 H1661 H 0.45694 0.01707 0.61171
 H1662 H 0.48261 0.04404 0.63050
 C1663 C -0.01044 0.50886 0.37773
 C1664 C -0.03564 0.50328 0.38359
 C1665 C -0.05361 0.52238 0.38323
 C1666 C -0.04665 0.54724 0.37742
 C1667 C -0.02111 0.55227 0.37258
 N1668 N -0.00391 0.53321 0.37276
 C1669 C 0.00917 0.48897 0.37693
 N1670 N 0.03385 0.49546 0.37985
 C1671 C 0.05276 0.47811 0.37932
 C1672 C 0.04726 0.45245 0.37567
 C1673 C 0.02199 0.44546 0.37224
 C1674 C 0.00301 0.46356 0.37269
 H1675 H -0.07298 0.51766 0.38766
 H1676 H -0.01487 0.57121 0.36826
 H1677 H 0.07199 0.48438 0.38195
 H1678 H 0.01681 0.42597 0.36901
 H1679 H -0.04158 0.48446 0.38870
 H1680 H -0.01617 0.45757 0.36928
 C1681 C -0.01166 1.00892 0.87681
 C1682 C -0.03733 1.00298 0.87929
 C1683 C -0.05523 1.02216 0.87910
 C1684 C -0.04788 1.04757 0.87688
 C1685 C -0.02189 1.05277 0.87525
 N1686 N -0.00477 1.03361 0.87517
 C1687 C 0.00806 0.98904 0.87619
 N1688 N 0.03242 0.99529 0.88148
 C1689 C 0.05140 0.97798 0.88139
 C1690 C 0.04632 0.95258 0.87580
 C1691 C 0.02144 0.94584 0.86993
 C1692 C 0.00240 0.96392 0.86989
 H1693 H -0.07489 1.01692 0.88092
 H1694 H -0.01512 1.07196 0.87375
 H1695 H 0.07033 0.98405 0.88593
 H1696 H 0.01666 0.92659 0.86507
 H1697 H -0.04378 0.98382 0.88173
 H1698 H -0.01636 0.95811 0.86454
 C1699 C 0.76254 0.62200 0.25727
 C1700 C 0.78805 0.62580 0.25124
 C1701 C 0.80600 0.62627 0.27038
 C1702 C 0.79878 0.62326 0.29568
 C1703 C 0.77305 0.61996 0.30102
 N1704 N 0.75585 0.61944 0.28196
 C1705 C 0.74268 0.62140 0.23759
 N1706 N 0.71834 0.62623 0.24424
 C1707 C 0.69923 0.62653 0.22712
 C1708 C 0.70415 0.62192 0.20148
 C1709 C 0.72901 0.61638 0.19433
 C1710 C 0.74821 0.61591 0.21224
 H1711 H 0.82555 0.62926 0.26531
 H1712 H 0.76657 0.61773 0.32025
 H1713 H 0.68032 0.63078 0.23352
 H1714 H 0.73368 0.61229 0.17486
 H1715 H 0.79424 0.62891 0.23206
 H1716 H 0.76702 0.61101 0.20614
 C1717 C 0.25868 0.87966 0.73939
 C1718 C 0.25312 0.88573 0.71419
 C1719 C 0.27221 0.88533 0.69616
 C1720 C 0.29703 0.87930 0.70303
 C1721 C 0.30203 0.87422 0.72857
 N1722 N 0.28300 0.87443 0.74582
 C1723 C 0.23878 0.87877 0.75906
 N1724 N 0.24530 0.88120 0.78381
 C1725 C 0.22797 0.88047 0.80277
 C1726 C 0.20227 0.87709 0.79725
 C1727 C 0.19526 0.87418 0.77188
 C1728 C 0.21334 0.87485 0.75286
 H1729 H 0.26748 0.88983 0.67680
 H1730 H 0.32092 0.86961 0.73476
 H1731 H 0.23428 0.88261 0.82206
 H1732 H 0.17577 0.87110 0.76665
 H1733 H 0.23434 0.89099 0.70829
 H1734 H 0.20730 0.87180 0.73363
 C1735 C 0.23922 0.37799 0.25865
 C1736 C 0.21381 0.37393 0.25245
 C1737 C 0.19574 0.37326 0.27147
 C1738 C 0.20275 0.37631 0.29682
 C1739 C 0.22842 0.37980 0.30234
 N1740 N 0.24574 0.38053 0.28339
 C1741 C 0.25911 0.37886 0.23902
 N1742 N 0.28341 0.37368 0.24553
 C1743 C 0.30246 0.37348 0.22832
 C1744 C 0.29748 0.37852 0.20277
 C1745 C 0.27267 0.38450 0.19583
 C1746 C 0.25356 0.38488 0.21382
 H1747 H 0.17626 0.37009 0.26625
 H1748 H 0.23472 0.38205 0.32162
 H1749 H 0.32135 0.36891 0.23455
 H1750 H 0.26798 0.38895 0.17645
 H1751 H 0.20779 0.37078 0.23323
 H1752 H 0.23478 0.39010 0.20789
 C1753 C 0.87958 0.73887 0.25848
 C1754 C 0.88565 0.71370 0.25286
 C1755 C 0.88523 0.69566 0.27192
 C1756 C 0.87917 0.70251 0.29676
 C1757 C 0.87407 0.72802 0.30182
 N1758 N 0.87431 0.74528 0.28282
 C1759 C 0.87875 0.75856 0.23865
 N1760 N 0.88124 0.78325 0.24530
 C1761 C 0.88054 0.80226 0.22804
 C1762 C 0.87712 0.79685 0.20232
 C1763 C 0.87413 0.77154 0.19517
 C1764 C 0.87479 0.75246 0.21317
 H1765 H 0.88973 0.67631 0.26716
 H1766 H 0.86944 0.73419 0.32073
 H1767 H 0.88275 0.82150 0.23445
 H1768 H 0.87104 0.76640 0.17564
 H1769 H 0.89092 0.70784 0.23405
 H1770 H 0.87169 0.73327 0.20705
 C1771 C 0.62442 0.25860 0.76244
 C1772 C 0.62882 0.25270 0.78790
 C1773 C 0.62918 0.27185 0.80584
 C1774 C 0.62550 0.29706 0.79865
 C1775 C 0.62173 0.30230 0.77294
 N1776 N 0.62128 0.28321 0.75575
 C1777 C 0.62365 0.23881 0.74268
 N1778 N 0.62813 0.24527 0.71820
 C1779 C 0.62818 0.22799 0.69920
 C1780 C 0.62366 0.20241 0.70441
 C1781 C 0.61849 0.19548 0.72942
 C1782 C 0.61828 0.21353 0.74849
 H1783 H 0.63259 0.26687 0.82536
 H1784 H 0.61899 0.32146 0.76650
 H1785 H 0.63211 0.23422 0.68016
 H1786 H 0.61446 0.17606 0.73432
 H1787 H 0.63242 0.23361 0.79405
 H1788 H 0.61363 0.20759 0.76743
 C1789 C 0.75987 0.23973 0.87879
 C1790 C 0.75370 0.21428 0.87491
 C1791 C 0.77272 0.19621 0.87420
 C1792 C 0.79806 0.20326 0.87704
 C1793 C 0.80355 0.22897 0.88035
 N1794 N 0.78460 0.24629 0.88113
 C1795 C 0.74021 0.25962 0.87973
 N1796 N 0.74661 0.28394 0.87445
 C1797 C 0.72936 0.30297 0.87429
 C1798 C 0.70387 0.29795 0.87949
 C1799 C 0.69704 0.27314 0.88559
 C1800 C 0.71507 0.25405 0.88592
 H1801 H 0.76750 0.17670 0.87118
 H1802 H 0.82283 0.23531 0.88245
 H1803 H 0.73552 0.32186 0.86964
 H1804 H 0.67772 0.26840 0.89016
 H1805 H 0.73448 0.20821 0.87193
 H1806 H 0.70921 0.23527 0.89122
 C1807 C 0.25863 0.76151 0.62363
 C1808 C 0.25254 0.78690 0.62810
 C1809 C 0.27155 0.80496 0.62853
 C1810 C 0.29680 0.79797 0.62485
 C1811 C 0.30223 0.77231 0.62104
 N1812 N 0.28329 0.75499 0.62052
 C1813 C 0.23896 0.74165 0.62276
 N1814 N 0.24550 0.71721 0.62731
 C1815 C 0.22829 0.69816 0.62732
 C1816 C 0.20271 0.70327 0.62270
 C1817 C 0.19572 0.72823 0.61740
 C1818 C 0.21370 0.74734 0.61722
 H1819 H 0.26642 0.82443 0.63197
 H1820 H 0.32145 0.76601 0.61830
 H1821 H 0.23457 0.67916 0.63135
 H1822 H 0.17631 0.73305 0.61328
 H1823 H 0.23340 0.79291 0.63169
 H1824 H 0.20771 0.76624 0.61249
   
