data_POSCAR
  _audit_creation_date              2014-09-24
  _audit_creation_method            'ToBaCCo'
  _symmetry_space_group_name_H-M    'P1'
  _symmetry_Int_Tables_number       1
  _symmetry_cell_setting            triclinic
  loop_
  _symmetry_equiv_pos_as_xyz
 x,y,z
_cell_length_a 57.6382
_cell_length_b 56.9825
_cell_length_c 58.9261
_cell_angle_alpha 89.413000
_cell_angle_beta 91.021900
_cell_angle_gamma 89.365200
loop_
  _atom_site_label
  _atom_site_type_symbol
  _atom_site_fract_x
  _atom_site_fract_y
  _atom_site_fract_z
C1 C 0.71781 0.64697 0.97526
 H2 H 0.73466 0.64781 0.96752
 C3 C 0.69947 0.66099 0.96675
 H4 H 0.70264 0.67288 0.95277
 C5 C 0.69321 0.62972 1.00238
 H6 H 0.69044 0.61699 1.01569
 C7 C 0.67456 0.64353 0.99463
 H8 H 0.65777 0.64136 1.00231
 N9 N 0.71428 0.63146 0.99253
 C10 C 0.78012 0.60875 1.02335
 H11 H 0.77691 0.59008 1.02307
 C12 C 0.80103 0.61698 1.03213
 H13 H 0.81383 0.60449 1.03874
 C14 C 0.76752 0.64751 1.01428
 H15 H 0.75448 0.65924 1.00697
 C16 C 0.78834 0.65657 1.02294
 H17 H 0.79110 0.67528 1.02198
 Zn18 Zn 0.73809 0.60953 1.00055
 N19 N 0.76407 0.62393 1.01428
 C20 C 0.76989 0.59749 0.96679
 N21 N 0.74761 0.59490 0.97347
 C22 C 0.73196 0.58321 0.96044
 C23 C 0.73868 0.57312 0.94001
 C24 C 0.77732 0.58791 0.94648
 C25 C 0.72162 0.59563 1.04254
 C26 C 0.71204 0.58096 1.05888
 C27 C 0.71471 0.54886 1.03256
 C28 C 0.72411 0.56427 1.01664
 N29 N 0.72679 0.58732 1.02169
 H30 H 0.78203 0.60722 0.97708
 H31 H 0.71420 0.58178 0.96590
 H32 H 0.72593 0.56376 0.92996
 H33 H 0.79535 0.59000 0.94234
 H34 H 0.72457 0.61391 1.04632
 H35 H 0.70838 0.58844 1.07520
 H36 H 0.71233 0.53065 1.02801
 H37 H 0.72901 0.55780 1.00023
 C38 C 0.80553 0.64109 1.03177
 C39 C 0.67733 0.65889 0.97619
 C40 C 0.70787 0.55720 1.05383
 C41 C 0.76159 0.57557 0.93256
 C42 C 0.74058 0.35489 0.52961
 H43 H 0.75706 0.35244 0.53845
 C44 C 0.72059 0.34440 0.53806
 H45 H 0.72205 0.33362 0.55322
 C46 C 0.71880 0.37230 0.49929
 H47 H 0.71785 0.38362 0.48452
 C48 C 0.69856 0.36202 0.50695
 H49 H 0.68238 0.36546 0.49781
 N50 N 0.73930 0.36868 0.51063
 C51 C 0.80703 0.37455 0.47959
 H52 H 0.80767 0.39348 0.47813
 C53 C 0.82501 0.36086 0.47114
 H54 H 0.83923 0.36949 0.46284
 C55 C 0.78699 0.34056 0.49136
 H56 H 0.77202 0.33280 0.49914
 C57 C 0.80463 0.32613 0.48302
 H58 H 0.80321 0.30724 0.48451
 Zn59 Zn 0.76581 0.38507 0.50077
 N60 N 0.78872 0.36432 0.48980
 C61 C 0.80042 0.39846 0.53257
 N62 N 0.77802 0.40208 0.52570
 C63 C 0.76380 0.41679 0.53717
 C64 C 0.77217 0.42894 0.55606
 C65 C 0.80954 0.41025 0.55128
 C66 C 0.75188 0.39466 0.45639
 C67 C 0.74243 0.40747 0.43813
 C68 C 0.74483 0.44248 0.46077
 C69 C 0.75425 0.42891 0.47865
 N70 N 0.75686 0.40532 0.47637
 H71 H 0.81129 0.38611 0.52378
 H72 H 0.74588 0.41895 0.53172
 H73 H 0.76048 0.44058 0.56489
 H74 H 0.82731 0.40637 0.55621
 H75 H 0.75451 0.37591 0.45493
 H76 H 0.73874 0.39806 0.42271
 H77 H 0.74218 0.46114 0.46322
 H78 H 0.75874 0.43716 0.49453
 C79 C 0.82415 0.33630 0.47317
 C80 C 0.69914 0.34825 0.52677
 C81 C 0.73792 0.43171 0.44039
 C82 C 0.79540 0.42595 0.56336
 C83 C 0.23237 -0.16694 0.03662
 H84 H 0.24977 -0.16795 0.04377
 C85 C 0.21487 -0.18097 0.04559
 H86 H 0.21896 -0.19290 0.05955
 C87 C 0.20549 -0.14916 0.01069
 H88 H 0.20158 -0.13635 -0.00245
 C89 C 0.18764 -0.16295 0.01894
 H90 H 0.17053 -0.16102 0.01127
 N91 N 0.22728 -0.15106 0.01981
 C92 C 0.28999 -0.12581 -0.01206
 H93 H 0.28642 -0.10733 -0.00966
 C94 C 0.30969 -0.13278 -0.02356
 H95 H 0.32124 -0.11949 -0.02999
 C96 C 0.27912 -0.16541 -0.00638
 H97 H 0.26708 -0.17796 0.00044
 C98 C 0.29881 -0.17323 -0.01791
 H99 H 0.30182 -0.19189 -0.01957
 Zn100 Zn 0.24979 -0.12865 0.01151
 N101 N 0.27529 -0.14202 -0.00356
 C102 C 0.28340 -0.11655 0.04455
 N103 N 0.26064 -0.11409 0.03845
 C104 C 0.24553 -0.10251 0.05192
 C105 C 0.25334 -0.09215 0.07204
 C106 C 0.29195 -0.10660 0.06449
 C107 C 0.23082 -0.11486 -0.03006
 C108 C 0.22124 -0.10007 -0.04681
 C109 C 0.22400 -0.06790 -0.02056
 C110 C 0.23349 -0.08341 -0.00427
 N111 N 0.23644 -0.10648 -0.00921
 H112 H 0.29503 -0.12656 0.03414
 H113 H 0.22737 -0.10130 0.04701
 H114 H 0.24099 -0.08283 0.08237
 H115 H 0.31010 -0.10940 0.06849
 H116 H 0.23370 -0.13324 -0.03363
 H117 H 0.21680 -0.10787 -0.06288
 H118 H 0.22173 -0.04959 -0.01620
 H119 H 0.23859 -0.07693 0.01222
 C120 C 0.31439 -0.15669 -0.02664
 C121 C 0.19201 -0.17845 0.03726
 C122 C 0.21765 -0.07605 -0.04226
 C123 C 0.27692 -0.09388 0.07859
 C124 C 0.22648 0.15703 0.51461
 H125 H 0.23049 0.15805 0.53257
 C126 C 0.20877 0.17122 0.50510
 H127 H 0.19942 0.18330 0.51578
 C128 C 0.23257 0.13902 0.47914
 H129 H 0.24143 0.12616 0.46903
 C130 C 0.21516 0.15287 0.46898
 H131 H 0.21149 0.15086 0.45104
 N132 N 0.23761 0.14089 0.50169
 C133 C 0.30348 0.11807 0.53244
 H134 H 0.30272 0.09995 0.52726
 C135 C 0.32367 0.12637 0.54270
 H136 H 0.33816 0.11438 0.54560
 C137 C 0.28574 0.15564 0.53439
 H138 H 0.27096 0.16703 0.53101
 C139 C 0.30568 0.16473 0.54488
 H140 H 0.30566 0.18300 0.54956
 Zn141 Zn 0.25854 0.11834 0.51507
 N142 N 0.28490 0.13257 0.52870
 C143 C 0.28466 0.10761 0.47707
 N144 N 0.26952 0.09835 0.49204
 C145 C 0.26250 0.07574 0.49043
 C146 C 0.27051 0.06158 0.47292
 C147 C 0.29306 0.09416 0.45929
 C148 C 0.21998 0.10407 0.54119
 C149 C 0.20879 0.09198 0.55852
 C150 C 0.24478 0.07151 0.56726
 C151 C 0.25529 0.08416 0.54991
 N152 N 0.24296 0.10039 0.53749
 H153 H 0.29010 0.12561 0.47891
 H154 H 0.25045 0.06874 0.50254
 H155 H 0.26452 0.04366 0.47187
 H156 H 0.30524 0.10230 0.44807
 H157 H 0.21017 0.11640 0.53071
 H158 H 0.19051 0.09542 0.56066
 H159 H 0.25512 0.05888 0.57703
 H160 H 0.27339 0.08106 0.54648
 C161 C 0.32499 0.14990 0.54923
 C162 C 0.20240 0.16860 0.48219
 C163 C 0.22133 0.07563 0.57219
 C164 C 0.28579 0.07074 0.45678
 C165 C 0.14392 0.45673 0.22771
 H166 H 0.13250 0.44844 0.23961
 C167 C 0.15620 0.44282 0.21261
 H168 H 0.15385 0.42398 0.21292
 C169 C 0.16061 0.49113 0.21257
 H170 H 0.16232 0.50994 0.21252
 C171 C 0.17320 0.47786 0.19711
 H172 H 0.18466 0.48685 0.18569
 N173 N 0.14555 0.48054 0.22685
 C174 C 0.12569 0.53249 0.27666
 H175 H 0.10842 0.53591 0.26986
 C176 C 0.13367 0.54494 0.29533
 H177 H 0.12243 0.55806 0.30271
 C178 C 0.16084 0.51056 0.27560
 H179 H 0.17113 0.49690 0.26790
 C180 C 0.16950 0.52254 0.29458
 H181 H 0.18664 0.51805 0.30109
 Zn182 Zn 0.12425 0.49876 0.24392
 N183 N 0.13913 0.51554 0.26735
 C184 C 0.10323 0.47574 0.28047
 N185 N 0.10255 0.47818 0.25749
 C186 C 0.08838 0.46466 0.24449
 C187 C 0.07465 0.44749 0.25456
 C188 C 0.09004 0.45869 0.29120
 C189 C 0.12268 0.53992 0.21826
 C190 C 0.11317 0.55847 0.20551
 C191 C 0.07596 0.53948 0.20662
 C192 C 0.08630 0.52118 0.21937
 N193 N 0.10933 0.52162 0.22478
 H194 H 0.11463 0.48648 0.29061
 H195 H 0.08843 0.46654 0.22621
 H196 H 0.06391 0.43657 0.24381
 H197 H 0.09113 0.45760 0.30949
 H198 H 0.14064 0.54061 0.22373
 H199 H 0.12427 0.57289 0.20081
 H200 H 0.05757 0.53854 0.20304
 H201 H 0.07571 0.50697 0.22533
 C202 C 0.15560 0.53978 0.30486
 C203 C 0.17029 0.45340 0.19640
 C204 C 0.08948 0.55863 0.19953
 C205 C 0.07592 0.44372 0.27818
 C206 C -0.15107 0.02746 0.22070
 H207 H -0.16192 0.02573 0.23536
 C208 C -0.16006 0.03827 0.20089
 H209 H -0.17773 0.04474 0.20114
 C210 C -0.11497 0.02102 0.20320
 H211 H -0.09746 0.01403 0.20407
 C212 C -0.12315 0.03154 0.18315
 H213 H -0.11151 0.03263 0.16893
 N214 N -0.12877 0.01939 0.22157
 C215 C -0.13638 -0.02877 0.27506
 H216 H -0.12502 -0.04098 0.26668
 C217 C -0.14941 -0.03667 0.29329
 H218 H -0.14772 -0.05486 0.29854
 C219 C -0.15050 0.01004 0.27974
 H220 H -0.15011 0.02840 0.27496
 C221 C -0.16361 0.00293 0.29828
 H222 H -0.17355 0.01587 0.30745
 Zn223 Zn -0.11460 0.00518 0.24771
 N224 N -0.13675 -0.00569 0.26891
 C225 C -0.09617 0.03032 0.28505
 N226 N -0.09500 0.02737 0.26222
 C227 C -0.08016 0.04023 0.24958
 C228 C -0.06640 0.05736 0.25971
 C229 C -0.08288 0.04737 0.29588
 C230 C -0.10726 -0.03636 0.22405
 C231 C -0.09489 -0.05545 0.21560
 C232 C -0.06061 -0.04142 0.23513
 C233 C -0.07371 -0.02264 0.24327
 N234 N -0.09661 -0.02051 0.23765
 H235 H -0.10733 0.01937 0.29504
 H236 H -0.07907 0.03738 0.23156
 H237 H -0.05493 0.06753 0.24918
 H238 H -0.08429 0.04885 0.31405
 H239 H -0.12545 -0.03403 0.21964
 H240 H -0.10409 -0.06726 0.20453
 H241 H -0.04236 -0.04273 0.23980
 H242 H -0.06558 -0.00976 0.25404
 C243 C -0.16286 -0.02060 0.30549
 C244 C -0.14594 0.04059 0.18162
 C245 C -0.07110 -0.05831 0.22116
 C246 C -0.06794 0.06156 0.28310
 C247 C 0.33089 0.53728 0.72524
 H248 H 0.33327 0.54493 0.74184
 C249 C 0.31704 0.54883 0.70876
 H250 H 0.30866 0.56533 0.71281
 C251 C 0.34011 0.50728 0.69925
 H252 H 0.34950 0.49143 0.69529
 C253 C 0.32630 0.51805 0.68245
 H254 H 0.32476 0.50974 0.66607
 N255 N 0.34253 0.51720 0.72003
 C256 C 0.36725 0.47793 0.77938
 H257 H 0.38509 0.47612 0.77421
 C258 C 0.36034 0.46799 0.79976
 H259 H 0.37297 0.45839 0.81018
 C260 C 0.32942 0.49340 0.77227
 H261 H 0.31764 0.50366 0.76158
 C262 C 0.32170 0.48365 0.79269
 H263 H 0.30394 0.48672 0.79758
 Zn264 Zn 0.36520 0.50494 0.74068
 N265 N 0.35198 0.49067 0.76632
 C266 C 0.38559 0.53454 0.77313
 N267 N 0.38406 0.53005 0.75055
 C268 C 0.39481 0.54394 0.73517
 C269 C 0.40822 0.56286 0.74242
 C270 C 0.39880 0.55312 0.78113
 C271 C 0.37229 0.46084 0.72221
 C272 C 0.38428 0.44231 0.71236
 C273 C 0.41863 0.46622 0.71191
 C274 C 0.40590 0.48435 0.72179
 N275 N 0.38310 0.48143 0.72649
 H276 H 0.37626 0.52395 0.78511
 H277 H 0.39289 0.54036 0.71724
 H278 H 0.41668 0.57366 0.72986
 H279 H 0.39888 0.55614 0.79918
 H280 H 0.35425 0.45885 0.72653
 H281 H 0.37517 0.42612 0.70909
 H282 H 0.43673 0.46925 0.70868
 H283 H 0.41434 0.50063 0.72587
 C284 C 0.33743 0.47097 0.80680
 C285 C 0.31536 0.53964 0.68681
 C286 C 0.40777 0.44475 0.70693
 C287 C 0.41065 0.56758 0.76574
 C288 C 0.65402 0.97676 0.71800
 H289 H 0.66594 0.97883 0.73221
 C290 C 0.66208 0.96815 0.69734
 H291 H 0.68028 0.96377 0.69593
 C292 C 0.61593 0.98077 0.70253
 H293 H 0.59798 0.98590 0.70467
 C294 C 0.62320 0.97244 0.68170
 H295 H 0.61065 0.97110 0.66788
 N296 N 0.63125 0.98271 0.72017
 C297 C 0.64582 1.02731 0.77232
 H298 H 0.63745 1.04071 0.76193
 C299 C 0.65925 1.03398 0.79103
 H300 H 0.66066 1.05256 0.79410
 C301 C 0.65204 0.98714 0.78129
 H302 H 0.64853 0.96892 0.77773
 C303 C 0.66528 0.99299 0.80048
 H304 H 0.67212 0.97896 0.81132
 Zn305 Zn 0.61877 0.99568 0.74673
 N306 N 0.64207 1.00426 0.76806
 C307 C 0.59296 0.97801 0.78275
 N308 N 0.59941 0.97365 0.76112
 C309 C 0.59341 0.95341 0.75062
 C310 C 0.58029 0.93662 0.76188
 C311 C 0.58027 0.96149 0.79485
 C312 C 0.61186 1.03813 0.72368
 C313 C 0.59981 1.05780 0.71528
 C314 C 0.56591 1.04466 0.73510
 C315 C 0.57870 1.02525 0.74320
 N316 N 0.60130 1.02247 0.73749
 H317 H 0.59818 0.99414 0.79080
 H318 H 0.59911 0.95000 0.73360
 H319 H 0.57647 0.92054 0.75308
 H320 H 0.57570 0.96518 0.81222
 H321 H 0.62971 1.03513 0.71898
 H322 H 0.60892 1.06939 0.70401
 H323 H 0.54789 1.04648 0.73981
 H324 H 0.57050 1.01233 0.75384
 C325 C 0.66859 1.01671 0.80607
 C326 C 0.64647 0.96593 0.67884
 C327 C 0.57639 1.06140 0.72100
 C328 C 0.57364 0.94044 0.78447
 C329 C 0.03141 0.23081 -0.13021
 H330 H 0.04214 0.24249 -0.12040
 C331 C 0.04194 0.21323 -0.14294
 H332 H 0.06066 0.21189 -0.14268
 C333 C -0.00577 0.21951 -0.14349
 H334 H -0.02432 0.22213 -0.14395
 C335 C 0.00403 0.20173 -0.15649
 H336 H -0.00718 0.19066 -0.16660
 N337 N 0.00789 0.23331 -0.13025
 C338 C -0.03533 0.29515 -0.11991
 H339 H -0.03893 0.29308 -0.10205
 C340 C -0.04586 0.31337 -0.13244
 H341 H -0.05795 0.32482 -0.12399
 C342 C -0.01570 0.28187 -0.15244
 H343 H -0.00380 0.26960 -0.16008
 C344 C -0.02584 0.29990 -0.16563
 H345 H -0.02170 0.30135 -0.18344
 Zn346 Zn -0.00610 0.25646 -0.11157
 N347 N -0.02042 0.28000 -0.12997
 C348 C 0.02055 0.29384 -0.09384
 N349 N 0.01707 0.27030 -0.09269
 C350 C 0.03008 0.25638 -0.07842
 C351 C 0.04723 0.26606 -0.06448
 C352 C 0.03754 0.30428 -0.08022
 C353 C -0.04922 0.23530 -0.10380
 C354 C -0.06676 0.22479 -0.09132
 C355 C -0.04373 0.23047 -0.05726
 C356 C -0.02665 0.24082 -0.07042
 N357 N -0.02938 0.24258 -0.09336
 H358 H 0.01019 0.30464 -0.10537
 H359 H 0.02717 0.23766 -0.07795
 H360 H 0.05734 0.25452 -0.05330
 H361 H 0.03936 0.32306 -0.08162
 H362 H -0.05170 0.23806 -0.12184
 H363 H -0.08223 0.21957 -0.10044
 H364 H -0.04095 0.22909 -0.03906
 H365 H -0.01129 0.24746 -0.06214
 C366 C -0.04082 0.31619 -0.15558
 C367 C 0.02812 0.19803 -0.15591
 C368 C -0.06404 0.22190 -0.06762
 C369 C 0.05135 0.29032 -0.06525
 C370 C 0.46473 0.20285 0.11382
 H371 H 0.46248 0.20716 0.09599
 C372 C 0.45177 0.18499 0.12340
 H373 H 0.43959 0.17552 0.11280
 C374 C 0.48313 0.21035 0.14927
 H375 H 0.49512 0.22062 0.15927
 C376 C 0.47066 0.19225 0.15957
 H377 H 0.47311 0.18885 0.17754
 N378 N 0.48001 0.21512 0.12674
 C379 C 0.50485 0.28308 0.13103
 H380 H 0.48990 0.28941 0.12144
 C381 C 0.51836 0.29906 0.14299
 H382 H 0.51344 0.31744 0.14231
 C383 C 0.53049 0.25193 0.14163
 H384 H 0.53540 0.23360 0.14046
 C385 C 0.54469 0.26741 0.15366
 H386 H 0.56043 0.26088 0.16194
 Zn387 Zn 0.49475 0.23958 0.11087
 N388 N 0.51110 0.26001 0.13046
 C389 C 0.45302 0.26386 0.10839
 N390 N 0.47073 0.25638 0.09530
 C391 C 0.47016 0.25967 0.07241
 C392 C 0.45123 0.27120 0.06186
 C393 C 0.43388 0.27546 0.09864
 C394 C 0.52986 0.24130 0.07831
 C395 C 0.54781 0.23233 0.06518
 C396 C 0.53772 0.19326 0.07750
 C397 C 0.52001 0.20300 0.09036
 N398 N 0.51649 0.22662 0.09065
 H399 H 0.45377 0.26065 0.12652
 H400 H 0.48421 0.25310 0.06227
 H401 H 0.45135 0.27322 0.04363
 H402 H 0.42002 0.28120 0.10956
 H403 H 0.52698 0.26007 0.07916
 H404 H 0.55848 0.24445 0.05581
 H405 H 0.54013 0.17447 0.07841
 H406 H 0.50958 0.19163 0.10069
 C407 C 0.53870 0.29132 0.15436
 C408 C 0.45470 0.17938 0.14647
 C409 C 0.55222 0.20800 0.06479
 C410 C 0.43263 0.27932 0.07507
 C411 C 0.97235 0.73052 0.63567
 H412 H 0.95940 0.73922 0.62504
 C413 C 0.96622 0.71061 0.64805
 H414 H 0.94858 0.70442 0.64662
 C415 C 1.01139 0.72676 0.64855
 H416 H 1.02910 0.73281 0.64810
 C417 C 1.00604 0.70657 0.66104
 H418 H 1.01970 0.69726 0.67037
 N419 N 0.99464 0.73813 0.63599
 C420 C 1.01599 0.80870 0.61741
 H421 H 1.01187 0.80753 0.59947
 C422 C 1.02334 0.82989 0.62639
 H423 H 1.02486 0.84500 0.61524
 C424 C 1.01888 0.79030 0.65362
 H425 H 1.01685 0.77482 0.66413
 C426 C 1.02663 0.81123 0.66334
 H427 H 1.03029 0.81165 0.68139
 Zn428 Zn 1.00348 0.76239 0.61571
 N429 N 1.01399 0.78942 0.63096
 C430 C 0.96034 0.78346 0.60848
 N431 N 0.97768 0.77219 0.59753
 C432 C 0.97695 0.76961 0.57462
 C433 C 0.95794 0.77824 0.56188
 C434 C 0.94101 0.79223 0.59650
 C435 C 1.04850 0.76122 0.59751
 C436 C 1.06710 0.75143 0.58598
 C437 C 1.04260 0.71919 0.57500
 C438 C 1.02440 0.72973 0.58671
 N439 N 1.02766 0.75030 0.59773
 H440 H 0.96169 0.78580 0.62665
 H441 H 0.99119 0.76110 0.56617
 H442 H 0.95773 0.77600 0.54363
 H443 H 0.92801 0.80142 0.60603
 H444 H 1.05096 0.77731 0.60672
 H445 H 1.08358 0.76041 0.58632
 H446 H 1.03928 0.70265 0.56687
 H447 H 1.00774 0.72122 0.58747
 C448 C 1.02901 0.83134 0.64954
 C449 C 0.98325 0.69818 0.66076
 C450 C 1.06452 0.72999 0.57467
 C451 C 0.93945 0.78958 0.57274
 C452 C 0.53687 0.72548 0.34572
 H453 H 0.54218 0.74356 0.34406
 C454 C 0.54941 0.70774 0.33502
 H455 H 0.56423 0.71230 0.32489
 C456 C 0.51206 0.69739 0.36215
 H457 H 0.49810 0.69327 0.37343
 C458 C 0.52402 0.67916 0.35170
 H459 H 0.51894 0.66130 0.35526
 N460 N 0.51867 0.72002 0.35909
 C461 C 0.47464 0.78104 0.37008
 H462 H 0.47339 0.77900 0.38829
 C463 C 0.46158 0.79841 0.35883
 H464 H 0.45096 0.80960 0.36916
 C465 C 0.49131 0.76896 0.33563
 H466 H 0.50284 0.75732 0.32671
 C467 C 0.47885 0.78646 0.32364
 H468 H 0.48108 0.78804 0.30546
 Zn469 Zn 0.50504 0.74402 0.37658
 N470 N 0.48907 0.76673 0.35847
 C471 C 0.53271 0.78202 0.39065
 N472 N 0.52927 0.75858 0.39303
 C473 C 0.54401 0.74489 0.40577
 C474 C 0.56315 0.75475 0.41680
 C475 C 0.55159 0.79264 0.40138
 C476 C 0.46333 0.72261 0.38656
 C477 C 0.44537 0.71426 0.39985
 C478 C 0.46806 0.72371 0.43333
 C479 C 0.48559 0.73193 0.41932
 N480 N 0.48292 0.73120 0.39639
 H481 H 0.52109 0.79251 0.38003
 H482 H 0.54108 0.72621 0.40705
 H483 H 0.57475 0.74342 0.42673
 H484 H 0.55376 0.81121 0.39853
 H485 H 0.46161 0.72246 0.36824
 H486 H 0.43037 0.70735 0.39112
 H487 H 0.47052 0.72461 0.45158
 H488 H 0.50112 0.73921 0.42682
 C489 C 0.46342 0.80142 0.33511
 C490 C 0.54310 0.68423 0.33804
 C491 C 0.44740 0.71498 0.42373
 C492 C 0.56730 0.77895 0.41471
 C493 C 0.36307 -0.01502 0.23012
 C494 C 0.37143 -0.00222 0.24876
 C495 C 0.38264 0.01922 0.24498
 C496 C 0.38567 0.02784 0.22288
 C497 C 0.37767 0.01452 0.20442
 C498 C 0.36601 -0.00664 0.20786
 C499 C 0.36885 -0.01143 0.27218
 C500 C 0.37478 -0.03485 0.27746
 C501 C 0.37303 -0.04349 0.29980
 C502 C 0.36438 -0.02866 0.31663
 C503 C 0.35798 -0.00528 0.31153
 C504 C 0.36070 0.00327 0.28935
 H505 H 0.35461 -0.03161 0.23307
 H506 H 0.38928 0.02908 0.25928
 H507 H 0.38090 -0.04612 0.26413
 H508 H 0.35597 0.02132 0.28530
 H509 H 0.38072 0.02032 0.18719
 H510 H 0.36344 -0.03528 0.33386
 C511 C 0.13280 1.01933 0.73417
 C512 C 0.12464 1.00580 0.75235
 C513 C 0.11491 0.98376 0.74803
 C514 C 0.11294 0.97533 0.72581
 C515 C 0.12186 0.98880 0.70787
 C516 C 0.13201 1.01072 0.71196
 C517 C 0.12684 1.01439 0.77593
 C518 C 0.11973 1.03727 0.78140
 C519 C 0.12183 1.04531 0.80382
 C520 C 0.13181 1.03049 0.82057
 C521 C 0.13937 1.00766 0.81530
 C522 C 0.13644 0.99970 0.79300
 H523 H 0.14060 1.03621 0.73744
 H524 H 0.10839 0.97334 0.76199
 H525 H 0.11260 1.04865 0.76814
 H526 H 0.14221 0.98214 0.78873
 H527 H 0.12101 0.98224 0.69075
 H528 H 0.13304 1.03681 0.83777
 C529 C 0.63177 0.49294 0.21832
 C530 C 0.62423 0.48046 0.23732
 C531 C 0.61541 0.45783 0.23464
 C532 C 0.61387 0.44766 0.21308
 C533 C 0.62173 0.46033 0.19408
 C534 C 0.63093 0.48296 0.19668
 C535 C 0.62529 0.49131 0.25995
 C536 C 0.61433 0.51298 0.26357
 C537 C 0.61530 0.52353 0.28496
 C538 C 0.62769 0.51221 0.30283
 C539 C 0.63900 0.49055 0.29929
 C540 C 0.63736 0.48010 0.27787
 H541 H 0.63858 0.51045 0.22048
 H542 H 0.60919 0.44835 0.24934
 H543 H 0.60472 0.52149 0.24974
 H544 H 0.64586 0.46335 0.27499
 H545 H 0.61969 0.45314 0.17728
 H546 H 0.62767 0.51969 0.31961
 C547 C 0.87767 0.50054 0.71787
 C548 C 0.88233 0.51333 0.73762
 C549 C 0.89282 0.53538 0.73585
 C550 C 0.89926 0.54441 0.71467
 C551 C 0.89430 0.53147 0.69500
 C552 C 0.88305 0.50980 0.69641
 C553 C 0.87543 0.50402 0.76002
 C554 C 0.88179 0.48110 0.76692
 C555 C 0.87525 0.47239 0.78827
 C556 C 0.86158 0.48653 0.80221
 C557 C 0.85488 0.50935 0.79543
 C558 C 0.86224 0.51809 0.77449
 H559 H 0.86953 0.48357 0.71931
 H560 H 0.89630 0.54540 0.75106
 H561 H 0.89188 0.47034 0.75565
 H562 H 0.85728 0.53575 0.76920
 H563 H 0.89819 0.53867 0.67844
 H564 H 0.85699 0.47995 0.81882
 C565 C 0.21675 0.37086 -0.00802
 C566 C 0.23735 0.37824 0.00253
 C567 C 0.23692 0.38578 0.02509
 C568 C 0.21610 0.38626 0.03708
 C569 C 0.19553 0.37867 0.02627
 C570 C 0.19583 0.37080 0.00372
 C571 C 0.25907 0.37915 -0.01044
 C572 C 0.25913 0.39017 -0.03185
 C573 C 0.27972 0.39215 -0.04393
 C574 C 0.30025 0.38203 -0.03484
 C575 C 0.30040 0.37040 -0.01374
 C576 C 0.27977 0.36943 -0.00138
 H577 H 0.21704 0.36510 -0.02550
 H578 H 0.25273 0.39205 0.03308
 H579 H 0.24325 0.39794 -0.03879
 H580 H 0.27963 0.36125 0.01527
 H581 H 0.17917 0.38005 0.03487
 H582 H 0.31612 0.38260 -0.04439
 C583 C 0.71025 0.11960 1.00113
 C584 C 0.73135 0.11381 0.99091
 C585 C 0.73106 0.10345 0.96940
 C586 C 0.71006 0.09837 0.95830
 C587 C 0.68905 0.10435 0.96866
 C588 C 0.68900 0.11543 0.98983
 C589 C 0.75378 0.11901 1.00237
 C590 C 0.75777 0.11278 1.02522
 C591 C 0.77943 0.11661 1.03574
 C592 C 0.79692 0.12781 1.02333
 C593 C 0.79301 0.13449 1.00050
 C594 C 0.77150 0.12976 0.99019
 H595 H 0.71053 0.12759 1.01772
 H596 H 0.74729 0.09897 0.96139
 H597 H 0.74424 0.10411 1.03460
 H598 H 0.76839 0.13475 0.97258
 H599 H 0.67271 0.10136 0.95986
 H600 H 0.81350 0.13119 1.03131
 C601 C 0.21365 0.63588 0.50049
 C602 C 0.23394 0.62891 0.48948
 C603 C 0.23226 0.61774 0.46841
 C604 C 0.21058 0.61304 0.45846
 C605 C 0.19037 0.62059 0.46944
 C606 C 0.19174 0.63227 0.49028
 C607 C 0.25700 0.63315 0.49992
 C608 C 0.26222 0.62509 0.52203
 C609 C 0.28468 0.62765 0.53137
 C610 C 0.30166 0.63882 0.51844
 C611 C 0.29656 0.64734 0.49641
 C612 C 0.27421 0.64421 0.48727
 H613 H 0.21513 0.64415 0.51689
 H614 H 0.24794 0.61219 0.45999
 H615 H 0.24903 0.61582 0.53124
 H616 H 0.27014 0.65035 0.47017
 H617 H 0.17349 0.61818 0.46155
 H618 H 0.31907 0.63994 0.52545
 C619 C 0.71865 0.87465 0.48567
 C620 C 0.73824 0.88306 0.49740
 C621 C 0.73584 0.89157 0.51957
 C622 C 0.71408 0.89217 0.52986
 C623 C 0.69476 0.88327 0.51799
 C624 C 0.69689 0.87442 0.49602
 C625 C 0.76119 0.88303 0.48645
 C626 C 0.76346 0.89161 0.46418
 C627 C 0.78527 0.89239 0.45406
 C628 C 0.80483 0.88351 0.46604
 C629 C 0.80273 0.87398 0.48796
 C630 C 0.78089 0.87441 0.49827
 H631 H 0.72046 0.86831 0.46853
 H632 H 0.75085 0.89832 0.52861
 H633 H 0.74835 0.89840 0.45497
 H634 H 0.77900 0.86804 0.51548
 H635 H 0.67800 0.88252 0.52593
 H636 H 0.82162 0.88331 0.45805
 C637 C 0.00149 0.22036 0.37717
 C638 C 0.01645 0.23752 0.38577
 C639 C 0.03893 0.23108 0.39325
 C640 C 0.04641 0.20755 0.39229
 C641 C 0.03149 0.19076 0.38300
 C642 C 0.00907 0.19703 0.37519
 C643 C 0.00881 0.26233 0.38609
 C644 C -0.01146 0.26887 0.39743
 C645 C -0.01874 0.29251 0.39768
 C646 C -0.00586 0.30934 0.38598
 C647 C 0.01412 0.30293 0.37414
 C648 C 0.02166 0.27947 0.37474
 H649 H -0.01579 0.22538 0.37122
 H650 H 0.05047 0.24446 0.39959
 H651 H -0.02089 0.25562 0.40663
 H652 H 0.03721 0.27440 0.36584
 H653 H 0.03726 0.17262 0.38243
 H654 H -0.01124 0.32761 0.38647
 C655 C 1.00357 0.71387 0.11902
 C656 C 0.99120 0.73452 0.11331
 C657 C 0.96897 0.73300 0.10331
 C658 C 0.95925 0.71113 0.09853
 C659 C 0.97168 0.69060 0.10472
 C660 C 0.99363 0.69179 0.11525
 C661 C 1.00119 0.75774 0.11832
 C662 C 1.02336 0.76363 0.11072
 C663 C 1.03243 0.78607 0.11482
 C664 C 1.01917 0.80231 0.12704
 C665 C 0.99712 0.79648 0.13507
 C666 C 0.98820 0.77426 0.13035
 H667 H 1.02074 0.71519 0.12662
 H668 H 0.95939 0.74893 0.09889
 H669 H 1.03285 0.75097 0.10085
 H670 H 0.97110 0.76969 0.13624
 H671 H 0.96396 0.67356 0.10224
 H672 H 1.02584 0.81978 0.12953
 C673 C 0.51729 0.23633 0.64088
 C674 C 0.50521 0.25434 0.62921
 C675 C 0.48260 0.25033 0.62098
 C676 C 0.47205 0.22851 0.62429
 C677 C 0.48415 0.21090 0.63676
 C678 C 0.50697 0.21453 0.64473
 C679 C 0.51619 0.27746 0.62598
 C680 C 0.53881 0.27895 0.61766
 C681 C 0.54931 0.30081 0.61462
 C682 C 0.53727 0.32127 0.62091
 C683 C 0.51493 0.32002 0.62984
 C684 C 0.50425 0.29805 0.63180
 H685 H 0.53472 0.23943 0.64731
 H686 H 0.47335 0.26412 0.61165
 H687 H 0.54806 0.26307 0.61307
 H688 H 0.48677 0.29679 0.63807
 H689 H 0.47555 0.19475 0.64092
 H690 H 0.54551 0.33821 0.61967
 C691 C 0.49070 0.71726 0.85528
 C692 C 0.50079 0.73741 0.86449
 C693 C 0.52342 0.73618 0.87366
 C694 C 0.53560 0.71475 0.87453
 C695 C 0.52544 0.69477 0.86489
 C696 C 0.50316 0.69593 0.85497
 C697 C 0.48742 0.75962 0.86500
 C698 C 0.46575 0.76047 0.87549
 C699 C 0.45310 0.78159 0.87633
 C700 C 0.46170 0.80164 0.86534
 C701 C 0.48331 0.80099 0.85480
 C702 C 0.49626 0.77997 0.85495
 H703 H 0.47311 0.71832 0.84858
 H704 H 0.53112 0.75169 0.88101
 H705 H 0.45910 0.74484 0.88363
 H706 H 0.51277 0.77908 0.84648
 H707 H 0.53499 0.67829 0.86480
 H708 H 0.45166 0.81783 0.86500
 C709 C 0.45157 -0.18167 0.32325
 C710 C 0.43381 -0.16769 0.33220
 C711 C 0.42339 -0.14702 0.32034
 C712 C 0.40131 -0.13925 0.32677
 C713 C 0.39177 -0.11844 0.31783
 C714 C 0.40438 -0.10465 0.30254
 C715 C 0.42610 -0.11288 0.29542
 C716 C 0.43561 -0.13381 0.30430
 C717 C 0.39569 -0.08150 0.29418
 C718 C 0.38006 -0.06776 0.30637
 H719 H 0.42628 -0.17225 0.34828
 H720 H 0.39150 -0.14917 0.33902
 H721 H 0.37461 -0.11322 0.32308
 H722 H 0.43611 -0.10266 0.28356
 H723 H 0.45286 -0.13903 0.29927
 H724 H 0.40366 -0.07420 0.27925
 H725 H 0.45560 -0.17902 0.30551
 H726 H 0.37421 -0.07416 0.32261
 C727 C 0.94906 0.33560 0.83032
 C728 C 0.94076 0.35652 0.83956
 C729 C 0.93055 0.37633 0.82610
 C730 C 0.91744 0.39322 0.83753
 C731 C 0.90791 0.41261 0.82595
 C732 C 0.91127 0.41561 0.80252
 C733 C 0.92471 0.39895 0.79109
 C734 C 0.93420 0.37942 0.80270
 C735 C 0.90215 0.43660 0.79007
 C736 C 0.88253 0.44896 0.79714
 H737 H 0.94154 0.35869 0.85776
 H738 H 0.91465 0.39150 0.85561
 H739 H 0.89851 0.42552 0.83561
 H740 H 0.92793 0.40111 0.77313
 H741 H 0.94476 0.36722 0.79334
 H742 H 0.91157 0.44259 0.77545
 H743 H 0.94880 0.33339 0.81212
 H744 H 0.87282 0.44197 0.81118
 C745 C 0.03802 1.17830 0.83104
 C746 C 0.05955 1.16785 0.83631
 C747 C 0.06892 1.14657 0.82518
 C748 C 0.09220 1.14023 0.82953
 C749 C 0.10156 1.11959 0.82073
 C750 C 0.08771 1.10463 0.80751
 C751 C 0.06466 1.11127 0.80252
 C752 C 0.05526 1.13192 0.81136
 C753 C 0.09666 1.08193 0.79904
 C754 C 0.11416 1.06913 0.81046
 H755 H 0.07004 1.17508 0.84988
 H756 H 0.10319 1.15122 0.83996
 H757 H 0.11963 1.11548 0.82431
 H758 H 0.05368 1.10009 0.79229
 H759 H 0.03718 1.13578 0.80777
 H760 H 0.08760 1.07409 0.78482
 H761 H 0.02723 1.17113 0.81769
 H762 H 0.12117 1.07585 0.82624
 C763 C 0.55777 0.66540 0.32845
 C764 C 0.54982 0.64263 0.32490
 C765 C 0.56509 0.62275 0.31868
 C766 C 0.55508 0.60292 0.30876
 C767 C 0.56863 0.58317 0.30394
 C768 C 0.59255 0.58280 0.30911
 C769 C 0.60255 0.60252 0.31925
 C770 C 0.58901 0.62237 0.32391
 C771 C 0.60713 0.56171 0.30520
 C772 C 0.60193 0.54551 0.28830
 H773 H 0.53149 0.63916 0.32642
 H774 H 0.53662 0.60261 0.30495
 H775 H 0.56014 0.56801 0.29683
 H776 H 0.62087 0.60251 0.32370
 H777 H 0.59722 0.63701 0.33225
 H778 H 0.62288 0.55948 0.31531
 H779 H 0.57536 0.66972 0.32398
 H780 H 0.58794 0.54948 0.27631
 C781 C 0.55481 0.30812 0.16516
 C782 C 0.54739 0.32990 0.17312
 C783 C 0.56329 0.34900 0.17967
 C784 C 0.55474 0.36731 0.19299
 C785 C 0.56840 0.38680 0.19780
 C786 C 0.59096 0.38845 0.18925
 C787 C 0.59956 0.37011 0.17597
 C788 C 0.58594 0.35051 0.17128
 C789 C 0.60514 0.40971 0.19256
 C790 C 0.60220 0.42475 0.21088
 H791 H 0.52895 0.33330 0.17449
 H792 H 0.53722 0.36677 0.19933
 H793 H 0.56085 0.40090 0.20747
 H794 H 0.61676 0.37113 0.16891
 H795 H 0.59289 0.33709 0.16038
 H796 H 0.61854 0.41331 0.18041
 H797 H 0.57297 0.30320 0.16665
 H798 H 0.59105 0.41939 0.22455
 C799 C 0.03699 0.85422 0.65822
 C800 C 0.05063 0.85707 0.67782
 C801 C 0.06087 0.87999 0.68392
 C802 C 0.06678 0.88455 0.70665
 C803 C 0.07662 0.90601 0.71279
 C804 C 0.08097 0.92327 0.69615
 C805 C 0.07528 0.91852 0.67343
 C806 C 0.06555 0.89715 0.66732
 C807 C 0.09118 0.94643 0.70139
 C808 C 0.10210 0.95219 0.72193
 H809 H 0.05416 0.84222 0.68898
 H810 H 0.06353 0.87156 0.71973
 H811 H 0.08042 0.90895 0.73054
 H812 H 0.07863 0.93135 0.66022
 H813 H 0.06220 0.89405 0.64950
 H814 H 0.09017 0.95958 0.68802
 H815 H 0.03283 0.86947 0.64778
 H816 H 0.10241 0.93977 0.73592
 C817 C 0.97817 0.67538 0.67183
 C818 C 0.95585 0.66901 0.67822
 C819 C 0.94944 0.64476 0.68464
 C820 C 0.92916 0.64121 0.69700
 C821 C 0.92132 0.61852 0.70150
 C822 C 0.93355 0.59886 0.69352
 C823 C 0.95389 0.60240 0.68126
 C824 C 0.96185 0.62509 0.67694
 C825 C 0.92468 0.57470 0.69618
 C826 C 0.90976 0.56799 0.71344
 H827 H 0.94229 0.68232 0.67833
 H828 H 0.91908 0.65608 0.70280
 H829 H 0.90521 0.61654 0.71043
 H830 H 0.96345 0.58756 0.67467
 H831 H 0.97716 0.62710 0.66678
 H832 H 0.93060 0.56160 0.68436
 H833 H 0.99245 0.66314 0.67468
 H834 H 0.90627 0.58007 0.72706
 C835 C 0.44031 0.16045 0.15589
 C836 C 0.44646 0.14668 0.17486
 C837 C 0.43303 0.12570 0.18147
 C838 C 0.43403 0.11750 0.20402
 C839 C 0.42160 0.09761 0.21056
 C840 C 0.40808 0.08543 0.19450
 C841 C 0.40730 0.09355 0.17197
 C842 C 0.41976 0.11325 0.16544
 C843 C 0.39448 0.06430 0.20013
 C844 C 0.39811 0.05021 0.21945
 H845 H 0.46158 0.15108 0.18503
 H846 H 0.44427 0.12665 0.21665
 H847 H 0.42243 0.09215 0.22817
 H848 H 0.39724 0.08439 0.15919
 H849 H 0.41925 0.11826 0.14770
 H850 H 0.38140 0.05919 0.18781
 H851 H 0.42462 0.15641 0.14646
 H852 H 0.41028 0.05550 0.23255
 C853 C 0.33147 0.46178 -0.17052
 C854 C 0.30898 0.45865 -0.16277
 C855 C 0.30502 0.44933 -0.13966
 C856 C 0.28639 0.43428 -0.13577
 C857 C 0.28365 0.42375 -0.11442
 C858 C 0.29937 0.42847 -0.09650
 C859 C 0.31740 0.44428 -0.10025
 C860 C 0.32014 0.45472 -0.12152
 C861 C 0.29852 0.41649 -0.07414
 C862 C 0.27927 0.40454 -0.06612
 H863 H 0.29424 0.46110 -0.17421
 H864 H 0.27447 0.42998 -0.14949
 H865 H 0.26973 0.41140 -0.11236
 H866 H 0.32963 0.44838 -0.08673
 H867 H 0.33423 0.46688 -0.12376
 H868 H 0.31370 0.41779 -0.06315
 H869 H 0.34584 0.45633 -0.15952
 H870 H 0.26298 0.40548 -0.07549
 C871 C 0.82621 0.97269 0.32713
 C872 C 0.82069 0.94957 0.33277
 C873 C 0.81540 0.94196 0.35618
 C874 C 0.80210 0.92179 0.35957
 C875 C 0.79846 0.91308 0.38149
 C876 C 0.80842 0.92422 0.40043
 C877 C 0.82180 0.94431 0.39703
 C878 C 0.82515 0.95323 0.37516
 C879 C 0.80629 0.91457 0.42369
 C880 C 0.78706 0.90195 0.43074
 H881 H 0.82052 0.93640 0.31965
 H882 H 0.79477 0.91258 0.34519
 H883 H 0.78855 0.89719 0.38349
 H884 H 0.82988 0.95302 0.41135
 H885 H 0.83610 0.96838 0.37313
 H886 H 0.81976 0.91867 0.43604
 H887 H 0.82317 0.98638 0.33938
 H888 H 0.77213 0.90053 0.41943
 C889 C 0.84713 0.05114 1.16192
 C890 C 0.82511 0.06088 1.15705
 C891 C 0.81972 0.07269 1.13499
 C892 C 0.79705 0.07207 1.12594
 C893 C 0.79180 0.08218 1.10467
 C894 C 0.80915 0.09344 1.09217
 C895 C 0.83163 0.09460 1.10158
 C896 C 0.83685 0.08454 1.12279
 C897 C 0.80505 0.10316 1.06897
 C898 C 0.78313 0.10842 1.05956
 H899 H 0.81097 0.05879 1.16867
 H900 H 0.78352 0.06318 1.13508
 H901 H 0.77434 0.08047 1.09794
 H902 H 0.84529 0.10329 1.09243
 H903 H 0.85431 0.08621 1.12958
 H904 H 0.82026 0.10591 1.05885
 H905 H 0.85963 0.05195 1.14842
 H906 H 0.76786 0.10548 1.06954
 C907 C 0.30335 0.55334 0.66849
 C908 C 0.31040 0.55187 0.64596
 C909 C 0.30117 0.56657 0.62694
 C910 C 0.31394 0.56733 0.60691
 C911 C 0.30619 0.58069 0.58829
 C912 C 0.28541 0.59376 0.58926
 C913 C 0.27228 0.59262 0.60907
 C914 C 0.28010 0.57923 0.62783
 C915 C 0.27678 0.60767 0.56943
 C916 C 0.29189 0.61704 0.55349
 H917 H 0.32492 0.54045 0.64216
 H918 H 0.33003 0.55747 0.60560
 H919 H 0.31632 0.58030 0.57302
 H920 H 0.25598 0.60218 0.61005
 H921 H 0.26945 0.57860 0.64274
 H922 H 0.25829 0.61085 0.56774
 H923 H 0.29069 0.56646 0.67324
 H924 H 0.31034 0.61627 0.55728
 C925 C 0.16230 0.55220 0.32590
 C926 C 0.18099 0.54610 0.34025
 C927 C 0.18361 0.55674 0.36295
 C928 C 0.20581 0.56023 0.37237
 C929 C 0.20846 0.57054 0.39374
 C930 C 0.18884 0.57725 0.40614
 C931 C 0.16670 0.57291 0.39702
 C932 C 0.16407 0.56283 0.37568
 C933 C 0.19052 0.58832 0.42872
 C934 C 0.20974 0.60094 0.43631
 H935 H 0.19395 0.53351 0.33504
 H936 H 0.22110 0.55522 0.36308
 H937 H 0.22582 0.57284 0.40053
 H938 H 0.15132 0.57752 0.40638
 H939 H 0.14669 0.55950 0.36934
 H940 H 0.17549 0.58710 0.43938
 H941 H 0.15086 0.56626 0.33114
 H942 H 0.22496 0.60190 0.42588
 C943 C 0.67889 0.02194 0.82620
 C944 C 0.68375 0.04472 0.83358
 C945 C 0.68832 0.05045 0.85767
 C946 C 0.70031 0.07106 0.86287
 C947 C 0.70264 0.07844 0.88534
 C948 C 0.69278 0.06543 0.90306
 C949 C 0.68090 0.04475 0.89788
 C950 C 0.67879 0.03722 0.87543
 C951 C 0.69317 0.07388 0.92672
 C952 C 0.71063 0.08822 0.93532
 H953 H 0.68413 0.05920 0.82161
 H954 H 0.70743 0.08177 0.84945
 H955 H 0.71134 0.09482 0.88862
 H956 H 0.67290 0.03460 0.91121
 H957 H 0.66881 0.02164 0.87197
 H958 H 0.67961 0.06806 0.93788
 H959 H 0.68316 0.00764 0.83788
 H960 H 0.72582 0.09141 0.92522
 C961 C 0.65327 0.95744 0.65620
 C962 C 0.67405 0.94579 0.65139
 C963 C 0.67861 0.93628 0.62853
 C964 C 0.70154 0.93384 0.62117
 C965 C 0.70614 0.92544 0.59941
 C966 C 0.68778 0.91909 0.58471
 C967 C 0.66495 0.92109 0.59232
 C968 C 0.66038 0.92933 0.61399
 C969 C 0.69128 0.91082 0.56126
 C970 C 0.71210 0.90164 0.55312
 H971 H 0.68752 0.94388 0.66430
 H972 H 0.71589 0.93889 0.63212
 H973 H 0.72398 0.92448 0.59412
 H974 H 0.65049 0.91609 0.58146
 H975 H 0.64253 0.92993 0.61931
 H976 H 0.67626 0.91163 0.54999
 H977 H 0.64072 0.96026 0.64254
 H978 H 0.72753 0.90154 0.56382
 C979 C 0.18038 0.43851 0.17850
 C980 C 0.18689 0.44727 0.15733
 C981 C 0.19161 0.43222 0.13754
 C982 C 0.20409 0.44162 0.11943
 C983 C 0.20712 0.42886 0.09955
 C984 C 0.19759 0.40635 0.09733
 C985 C 0.18514 0.39691 0.11544
 C986 C 0.18220 0.40963 0.13538
 C987 C 0.19888 0.39314 0.07585
 C988 C 0.21619 0.39680 0.05996
 H989 H 0.18757 0.46602 0.15451
 H990 H 0.21114 0.45913 0.12048
 H991 H 0.21617 0.43709 0.08572
 H992 H 0.17731 0.37978 0.11400
 H993 H 0.17178 0.40205 0.14858
 H994 H 0.18597 0.37985 0.07274
 H995 H 0.18050 0.41973 0.18136
 H996 H 0.23075 0.40774 0.06451
 C997 C -0.15693 0.32118 0.46463
 C998 C -0.13402 0.32891 0.46407
 C999 C -0.11455 0.31607 0.45357
 C1000 C -0.09200 0.32436 0.45739
 C1001 C -0.07316 0.31440 0.44633
 C1002 C -0.07648 0.29598 0.43098
 C1003 C -0.09884 0.28694 0.42784
 C1004 C -0.11779 0.29699 0.43887
 C1005 C -0.05694 0.28639 0.41787
 C1006 C -0.03881 0.30067 0.41090
 H1007 H -0.12998 0.34553 0.47187
 H1008 H -0.08896 0.33890 0.46873
 H1009 H -0.05603 0.32126 0.44976
 H1010 H -0.10176 0.27263 0.41621
 H1011 H -0.13488 0.29023 0.43523
 H1012 H -0.05791 0.26845 0.41209
 H1013 H -0.16110 0.30350 0.45962
 H1014 H -0.03986 0.31928 0.41440
 C1015 C 0.33600 0.83693 0.96156
 C1016 C 0.34152 0.81469 0.95330
 C1017 C 0.36333 0.81034 0.94095
 C1018 C 0.36402 0.79312 0.92410
 C1019 C 0.38397 0.78991 0.91117
 C1020 C 0.40365 0.80380 0.91509
 C1021 C 0.40316 0.82044 0.93243
 C1022 C 0.38338 0.82352 0.94539
 C1023 C 0.42459 0.80231 0.90100
 C1024 C 0.43117 0.78241 0.88898
 H1025 H 0.32898 0.80075 0.95417
 H1026 H 0.34886 0.78264 0.92046
 H1027 H 0.38362 0.77712 0.89773
 H1028 H 0.41818 0.83117 0.93594
 H1029 H 0.38390 0.83628 0.95885
 H1030 H 0.43620 0.81713 0.90135
 H1031 H 0.34780 0.85114 0.95814
 H1032 H 0.42141 0.76640 0.89073
 C1033 C 1.17296 0.80878 0.04844
 C1034 C 1.15030 0.81788 0.04861
 C1035 C 1.13056 0.80735 0.06071
 C1036 C 1.11025 0.82094 0.06267
 C1037 C 1.09098 0.81213 0.07373
 C1038 C 1.09153 0.78943 0.08330
 C1039 C 1.11161 0.77554 0.08093
 C1040 C 1.13102 0.78440 0.06981
 C1041 C 1.07109 0.77968 0.09492
 C1042 C 1.05471 0.79410 0.10534
 H1043 H 1.14695 0.83472 0.04047
 H1044 H 1.10923 0.83853 0.05552
 H1045 H 1.07554 0.82305 0.07431
 H1046 H 1.11232 0.75783 0.08780
 H1047 H 1.14608 0.77312 0.06821
 H1048 H 1.06945 0.76082 0.09574
 H1049 H 1.17742 0.79328 0.05839
 H1050 H 1.05837 0.81263 0.10671
 C1051 C 0.67683 0.33926 0.53515
 C1052 C 0.67300 0.33206 0.55748
 C1053 C 0.64929 0.32849 0.56606
 C1054 C 0.64579 0.31286 0.58420
 C1055 C 0.62361 0.30991 0.59305
 C1056 C 0.60457 0.32281 0.58401
 C1057 C 0.60820 0.33873 0.56617
 C1058 C 0.63026 0.34155 0.55726
 C1059 C 0.58098 0.32115 0.59334
 C1060 C 0.57305 0.30175 0.60549
 H1061 H 0.68743 0.32956 0.56927
 H1062 H 0.66027 0.30296 0.59155
 H1063 H 0.62161 0.29800 0.60728
 H1064 H 0.59392 0.34917 0.55918
 H1065 H 0.63241 0.35449 0.54392
 H1066 H 0.56893 0.33536 0.58931
 H1067 H 0.66213 0.34021 0.52346
 H1068 H 0.58392 0.28619 0.60712
 C1069 C 0.34665 0.15763 0.56073
 C1070 C 0.35141 0.18055 0.56751
 C1071 C 0.37345 0.18654 0.57936
 C1072 C 0.38240 0.20924 0.57712
 C1073 C 0.40371 0.21497 0.58733
 C1074 C 0.41632 0.19806 0.60021
 C1075 C 0.40700 0.17560 0.60294
 C1076 C 0.38574 0.16994 0.59285
 C1077 C 0.43960 0.20251 0.61021
 C1078 C 0.44837 0.22480 0.61474
 H1079 H 0.33955 0.19474 0.56302
 H1080 H 0.37319 0.22239 0.56695
 H1081 H 0.41046 0.23235 0.58448
 H1082 H 0.41624 0.16232 0.61293
 H1083 H 0.37900 0.15256 0.59580
 H1084 H 0.45023 0.18720 0.61410
 H1085 H 0.35993 0.14430 0.56360
 H1086 H 0.43796 0.24019 0.61052
 C1087 C 0.82880 0.64880 0.03942
 C1088 C 0.83488 0.67197 0.04395
 C1089 C 0.85889 0.67801 0.05085
 C1090 C 0.86276 0.69635 0.06611
 C1091 C 0.88526 0.70125 0.07393
 C1092 C 0.90436 0.68809 0.06625
 C1093 C 0.90046 0.67037 0.05032
 C1094 C 0.87804 0.66544 0.04261
 C1095 C 0.92832 0.69111 0.07522
 C1096 C 0.93569 0.71016 0.08812
 H1097 H 0.82169 0.68561 0.04408
 H1098 H 0.84827 0.70636 0.07257
 H1099 H 0.88740 0.71483 0.08644
 H1100 H 0.91482 0.66006 0.04399
 H1101 H 0.87576 0.65173 0.03022
 H1102 H 0.94089 0.67761 0.07116
 H1103 H 0.84185 0.63519 0.04218
 H1104 H 0.92436 0.72523 0.09003
 C1105 C 0.65636 0.67092 0.96672
 C1106 C 0.65424 0.67934 0.94442
 C1107 C 0.63131 0.68424 0.93355
 C1108 C 0.62940 0.70049 0.91553
 C1109 C 0.60812 0.70419 0.90411
 C1110 C 0.58848 0.69136 0.91036
 C1111 C 0.59050 0.67497 0.92821
 C1112 C 0.61162 0.67147 0.93973
 C1113 C 0.56599 0.69347 0.89800
 C1114 C 0.55869 0.71346 0.88586
 H1115 H 0.66943 0.68122 0.93408
 H1116 H 0.64444 0.71019 0.91018
 H1117 H 0.60732 0.71650 0.89002
 H1118 H 0.57571 0.66463 0.93311
 H1119 H 0.61260 0.65812 0.95291
 H1120 H 0.55401 0.67909 0.89978
 H1121 H 0.64098 0.67068 0.97701
 H1122 H 0.56910 0.72915 0.88637
 C1123 C 0.18188 0.18144 0.47269
 C1124 C 0.16796 0.17168 0.45563
 C1125 C 0.14610 0.18227 0.44654
 C1126 C 0.13044 0.16760 0.43521
 C1127 C 0.10972 0.17656 0.42592
 C1128 C 0.10431 0.20063 0.42734
 C1129 C 0.11986 0.21533 0.43890
 C1130 C 0.14064 0.20629 0.44834
 C1131 C 0.08236 0.21064 0.41766
 C1132 C 0.06971 0.19970 0.40035
 H1133 H 0.17234 0.15431 0.44966
 H1134 H 0.13413 0.14900 0.43373
 H1135 H 0.09790 0.16436 0.41805
 H1136 H 0.11604 0.23390 0.44039
 H1137 H 0.15246 0.21822 0.45663
 H1138 H 0.07596 0.22691 0.42463
 H1139 H 0.17639 0.19743 0.48087
 H1140 H 0.07647 0.18376 0.39304
 C1141 C 0.56292 0.08050 0.71271
 C1142 C 0.57160 0.09936 0.70014
 C1143 C 0.55670 0.11815 0.68999
 C1144 C 0.56669 0.13983 0.68473
 C1145 C 0.55352 0.15770 0.67423
 C1146 C 0.52997 0.15420 0.66869
 C1147 C 0.52006 0.13240 0.67364
 C1148 C 0.53323 0.11454 0.68422
 C1149 C 0.51562 0.17234 0.65677
 C1150 C 0.52047 0.19631 0.65753
 H1151 H 0.59008 0.10136 0.69826
 H1152 H 0.58485 0.14289 0.68862
 H1153 H 0.56208 0.17390 0.66995
 H1154 H 0.50207 0.12914 0.66919
 H1155 H 0.52511 0.09780 0.68724
 H1156 H 0.50074 0.16632 0.64714
 H1157 H 0.54465 0.08082 0.71671
 H1158 H 0.53525 0.20214 0.66744
 C1159 C 1.08042 0.57831 0.18759
 C1160 C 1.05731 0.58132 0.18033
 C1161 C 1.04854 0.60349 0.16976
 C1162 C 1.02883 0.60295 0.15548
 C1163 C 1.01972 0.62363 0.14572
 C1164 C 1.03017 0.64538 0.15014
 C1165 C 1.04964 0.64593 0.16473
 C1166 C 1.05875 0.62527 0.17446
 C1167 C 1.02061 0.66791 0.14102
 C1168 C 1.00531 0.66958 0.12240
 H1169 H 1.04519 0.56707 0.18160
 H1170 H 1.02038 0.58647 0.15194
 H1171 H 1.00419 0.62241 0.13528
 H1172 H 1.05776 0.66247 0.16878
 H1173 H 1.07340 0.62659 0.18609
 H1174 H 1.02557 0.68374 0.14976
 H1175 H 1.09237 0.59226 0.18370
 H1176 H 1.00031 0.65386 0.11353
 C1177 C 0.94267 0.92312 0.21300
 C1178 C 0.93418 0.90409 0.20060
 C1179 C 0.94933 0.88569 0.19095
 C1180 C 0.93984 0.86370 0.18611
 C1181 C 0.95324 0.84615 0.17613
 C1182 C 0.97644 0.85039 0.17043
 C1183 C 0.98601 0.87231 0.17552
 C1184 C 0.97261 0.88985 0.18553
 C1185 C 0.99121 0.83261 0.15925
 C1186 C 0.98239 0.81350 0.14727
 H1187 H 0.91572 0.90161 0.19854
 H1188 H 0.92196 0.86004 0.19013
 H1189 H 0.94531 0.82934 0.17320
 H1190 H 1.00382 0.87606 0.17131
 H1191 H 0.98040 0.90676 0.18840
 H1192 H 1.00976 0.83523 0.15999
 H1193 H 0.96106 0.92333 0.21707
 H1194 H 0.96390 0.81059 0.14670
 C1195 C 0.41929 0.42548 0.69725
 C1196 C 0.44230 0.42532 0.69003
 C1197 C 0.45361 0.40403 0.68090
 C1198 C 0.47222 0.40655 0.66609
 C1199 C 0.48337 0.38683 0.65725
 C1200 C 0.47615 0.36408 0.66319
 C1201 C 0.45785 0.36163 0.67839
 C1202 C 0.44672 0.38132 0.68721
 C1203 C 0.48746 0.34246 0.65467
 C1204 C 0.50332 0.34193 0.63702
 H1205 H 0.45225 0.44126 0.68985
 H1206 H 0.47810 0.42386 0.66126
 H1207 H 0.49776 0.38970 0.64611
 H1208 H 0.45215 0.34435 0.68357
 H1209 H 0.43308 0.37860 0.69929
 H1210 H 0.48316 0.32613 0.66305
 H1211 H 0.40935 0.40966 0.69481
 H1212 H 0.50852 0.35803 0.62884
 C1213 C 0.42417 0.58676 0.77272
 C1214 C 0.43006 0.59146 0.79540
 C1215 C 0.44266 0.61260 0.80287
 C1216 C 0.45354 0.61219 0.82437
 C1217 C 0.46458 0.63206 0.83276
 C1218 C 0.46498 0.65288 0.81977
 C1219 C 0.45391 0.65341 0.79835
 C1220 C 0.44288 0.63347 0.78992
 C1221 C 0.47573 0.67454 0.82853
 C1222 C 0.49308 0.67434 0.84539
 H1223 H 0.42634 0.57877 0.80853
 H1224 H 0.45328 0.59647 0.83486
 H1225 H 0.47217 0.63115 0.84966
 H1226 H 0.45365 0.66935 0.78817
 H1227 H 0.43404 0.63474 0.77360
 H1228 H 0.47043 0.69107 0.82072
 H1229 H 0.43095 0.59817 0.75967
 H1230 H 0.50055 0.65773 0.85105
 C1231 C -0.05441 0.07949 0.29267
 C1232 C -0.05641 0.08763 0.31493
 C1233 C -0.04161 0.10641 0.32430
 C1234 C -0.05007 0.12026 0.34196
 C1235 C -0.03644 0.13790 0.35146
 C1236 C -0.01394 0.14191 0.34356
 C1237 C -0.00531 0.12773 0.32622
 C1238 C -0.01898 0.11019 0.31663
 C1239 C 0.00138 0.15985 0.35361
 C1240 C -0.00676 0.17950 0.36518
 H1241 H -0.07018 0.08147 0.32558
 H1242 H -0.06731 0.11743 0.34841
 H1243 H -0.04342 0.14794 0.36530
 H1244 H 0.01212 0.13019 0.32011
 H1245 H -0.01156 0.09932 0.30361
 H1246 H 0.01981 0.15810 0.35068
 H1247 H -0.04232 0.08832 0.28171
 H1248 H -0.02522 0.18308 0.36562
 C1249 C 0.06347 0.42506 0.28779
 C1250 C 0.06722 0.41647 0.30994
 C1251 C 0.05447 0.39642 0.31955
 C1252 C 0.06527 0.38267 0.33667
 C1253 C 0.05356 0.36405 0.34675
 C1254 C 0.03066 0.35897 0.34004
 C1255 C 0.01974 0.37291 0.32313
 C1256 C 0.03155 0.39140 0.31286
 C1257 C 0.01733 0.34028 0.35129
 C1258 C 0.02771 0.32060 0.36172
 H1259 H 0.08134 0.42309 0.32024
 H1260 H 0.08281 0.38640 0.34233
 H1261 H 0.06227 0.35414 0.36022
 H1262 H 0.00196 0.36956 0.31794
 H1263 H 0.02248 0.40208 0.30018
 H1264 H -0.00143 0.34170 0.35063
 H1265 H 0.05143 0.41575 0.27691
 H1266 H 0.04610 0.31733 0.35975
 C1267 C 0.56165 0.92369 0.79730
 C1268 C 0.55111 0.90379 0.78823
 C1269 C 0.54118 0.88531 0.80274
 C1270 C 0.52167 0.87308 0.79496
 C1271 C 0.51261 0.85475 0.80789
 C1272 C 0.52327 0.84805 0.82863
 C1273 C 0.54299 0.86004 0.83625
 C1274 C 0.55176 0.87869 0.82354
 C1275 C 0.51493 0.82780 0.84188
 C1276 C 0.49150 0.82211 0.84279
 H1277 H 0.54878 0.90204 0.77009
 H1278 H 0.51346 0.87768 0.77881
 H1279 H 0.49774 0.84540 0.80131
 H1280 H 0.55165 0.85493 0.85204
 H1281 H 0.56721 0.88742 0.82965
 H1282 H 0.52746 0.81772 0.85197
 H1283 H 0.56004 0.92657 0.81537
 H1284 H 0.47866 0.83405 0.83537
 C1285 C 0.69726 0.54163 0.06912
 C1286 C 0.68627 0.54864 0.08899
 C1287 C 0.67523 0.53223 0.10505
 C1288 C 0.65819 0.54110 0.11944
 C1289 C 0.64821 0.52674 0.13582
 C1290 C 0.65538 0.50319 0.13846
 C1291 C 0.67194 0.49407 0.12365
 C1292 C 0.68192 0.50847 0.10717
 C1293 C 0.64619 0.48804 0.15671
 C1294 C 0.63884 0.49728 0.17728
 H1295 H 0.68410 0.56708 0.09255
 H1296 H 0.65260 0.55928 0.11806
 H1297 H 0.63488 0.53419 0.14634
 H1298 H 0.67767 0.47595 0.12530
 H1299 H 0.69533 0.50110 0.09669
 H1300 H 0.64725 0.46920 0.15467
 H1301 H 0.69646 0.52329 0.06456
 H1302 H 0.64063 0.51592 0.18008
 C1303 C 0.21150 1.06318 0.59036
 C1304 C 0.18942 1.06757 0.59909
 C1305 C 0.18001 1.05401 0.61837
 C1306 C 0.16366 1.06471 0.63241
 C1307 C 0.15430 1.05238 0.65067
 C1308 C 0.16102 1.02896 0.65514
 C1309 C 0.17694 1.01809 0.64076
 C1310 C 0.18641 1.03046 0.62259
 C1311 C 0.15113 1.01505 0.67394
 C1312 C 0.14172 1.02503 0.69335
 H1313 H 0.17918 1.08240 0.59302
 H1314 H 0.15816 1.08271 0.62928
 H1315 H 0.14150 1.06112 0.66091
 H1316 H 0.18209 0.99994 0.64359
 H1317 H 0.19833 1.02136 0.61167
 H1318 H 0.15263 0.99614 0.67299
 H1319 H 0.22224 1.04996 0.59889
 H1320 H 0.14294 1.04377 0.69582
 C1321 C 0.20800 0.94002 0.94173
 C1322 C 0.20154 0.93447 0.91936
 C1323 C 0.19089 0.95145 0.90290
 C1324 C 0.19103 0.94591 0.87974
 C1325 C 0.18076 0.96099 0.86355
 C1326 C 0.16987 0.98194 0.87022
 C1327 C 0.16987 0.98763 0.89333
 C1328 C 0.18007 0.97249 0.90957
 C1329 C 0.15890 0.99846 0.85358
 C1330 C 0.15006 0.99144 0.83248
 H1331 H 0.20498 0.91717 0.91288
 H1332 H 0.19926 0.92986 0.87410
 H1333 H 0.18180 0.95631 0.84585
 H1334 H 0.16162 1.00369 0.89890
 H1335 H 0.17897 0.97722 0.92723
 H1336 H 0.15749 1.01659 0.85860
 H1337 H 0.20584 0.95800 0.94709
 H1338 H 0.15122 0.97310 0.82802
 C1339 C 0.72633 0.44535 0.42349
 C1340 C 0.71519 0.43601 0.40431
 C1341 C 0.70132 0.45016 0.38766
 C1342 C 0.68433 0.43877 0.37463
 C1343 C 0.67106 0.45109 0.35835
 C1344 C 0.67478 0.47513 0.35444
 C1345 C 0.69153 0.48667 0.36768
 C1346 C 0.70482 0.47431 0.38406
 C1347 C 0.66140 0.48849 0.33681
 C1348 C 0.65189 0.47777 0.31761
 H1349 H 0.71463 0.41725 0.40206
 H1350 H 0.68117 0.42022 0.37715
 H1351 H 0.65777 0.44172 0.34909
 H1352 H 0.69466 0.50520 0.36504
 H1353 H 0.71807 0.48362 0.39343
 H1354 H 0.66054 0.50740 0.33823
 H1355 H 0.72455 0.46401 0.42637
 H1356 H 0.65537 0.45931 0.31496
 C1357 C 0.80329 0.43823 0.58262
 C1358 C 0.82634 0.43832 0.59066
 C1359 C 0.83378 0.45030 0.61173
 C1360 C 0.85712 0.45670 0.61435
 C1361 C 0.86500 0.46750 0.63420
 C1362 C 0.84963 0.47205 0.65194
 C1363 C 0.82641 0.46520 0.64952
 C1364 C 0.81852 0.45447 0.62964
 C1365 C 0.85725 0.48322 0.67336
 C1366 C 0.87675 0.49749 0.67521
 H1367 H 0.83995 0.43042 0.58086
 H1368 H 0.86934 0.45330 0.60098
 H1369 H 0.88319 0.47179 0.63569
 H1370 H 0.81430 0.46816 0.66307
 H1371 H 0.80062 0.44902 0.62864
 H1372 H 0.84602 0.48151 0.68781
 H1373 H 0.79069 0.44876 0.59151
 H1374 H 0.88645 0.50169 0.66017
 C1375 C 0.28436 -0.08305 0.09885
 C1376 C 0.30749 -0.08236 0.10667
 C1377 C 0.31509 -0.07046 0.12774
 C1378 C 0.33847 -0.06410 0.12998
 C1379 C 0.34659 -0.05287 0.14946
 C1380 C 0.33146 -0.04773 0.16722
 C1381 C 0.30824 -0.05475 0.16536
 C1382 C 0.30007 -0.06597 0.14580
 C1383 C 0.33951 -0.03546 0.18791
 C1384 C 0.35804 -0.01985 0.18774
 H1385 H 0.32120 -0.08952 0.09653
 H1386 H 0.35053 -0.06776 0.11654
 H1387 H 0.36480 -0.04857 0.15062
 H1388 H 0.29634 -0.05137 0.17900
 H1389 H 0.28215 -0.07135 0.14513
 H1390 H 0.32948 -0.03743 0.20316
 H1391 H 0.27135 -0.07406 0.10865
 H1392 H 0.36604 -0.01571 0.17173
 C1393 C 0.29315 0.05618 0.43903
 C1394 C 0.30635 0.06366 0.42060
 C1395 C 0.31402 0.04784 0.40231
 C1396 C 0.31939 0.05764 0.38113
 C1397 C 0.32713 0.04349 0.36351
 C1398 C 0.33001 0.01912 0.36682
 C1399 C 0.32460 0.00933 0.38802
 C1400 C 0.31682 0.02350 0.40564
 C1401 C 0.33832 0.00327 0.34877
 C1402 C 0.34930 0.01091 0.32907
 H1403 H 0.31024 0.08201 0.41837
 H1404 H 0.31740 0.07635 0.37812
 H1405 H 0.33049 0.05182 0.34737
 H1406 H 0.32669 -0.00936 0.39109
 H1407 H 0.31352 0.01533 0.42189
 H1408 H 0.33585 -0.01534 0.35143
 H1409 H 0.28745 0.03814 0.43926
 H1410 H 0.35142 0.02946 0.32591
 C1411 C 0.76802 0.56529 0.91192
 C1412 C 0.78924 0.56913 0.90132
 C1413 C 0.79707 0.55621 0.88112
 C1414 C 0.81515 0.56559 0.86836
 C1415 C 0.82451 0.55312 0.85035
 C1416 C 0.81593 0.53088 0.84469
 C1417 C 0.79770 0.52158 0.85732
 C1418 C 0.78832 0.53407 0.87535
 C1419 C 0.82677 0.51613 0.82716
 C1420 C 0.84142 0.52483 0.81048
 H1421 H 0.80065 0.58268 0.90742
 H1422 H 0.82243 0.58246 0.87265
 H1423 H 0.83899 0.56065 0.84155
 H1424 H 0.79101 0.50433 0.85353
 H1425 H 0.77489 0.52589 0.88516
 H1426 H 0.82300 0.49756 0.82748
 H1427 H 0.75549 0.55420 0.90346
 H1428 H 0.84281 0.54358 0.80792
 C1429 C 0.08412 0.72015 0.56424
 C1430 C 0.08459 0.69895 0.55241
 C1431 C 0.10624 0.68888 0.54315
 C1432 C 0.10480 0.67372 0.52457
 C1433 C 0.12486 0.66392 0.51538
 C1434 C 0.14686 0.66882 0.52486
 C1435 C 0.14824 0.68378 0.54359
 C1436 C 0.12820 0.69358 0.55276
 C1437 C 0.16875 0.65945 0.51542
 C1438 C 0.16991 0.64036 0.50075
 H1439 H 0.06874 0.68965 0.54883
 H1440 H 0.08809 0.66975 0.51691
 H1441 H 0.12292 0.65298 0.50062
 H1442 H 0.16492 0.68780 0.55128
 H1443 H 0.13002 0.70450 0.56758
 H1444 H 0.18460 0.66827 0.52021
 H1445 H 0.10013 0.72986 0.56545
 H1446 H 0.15418 0.63152 0.49574
 C1447 C 0.57145 0.19964 1.05266
 C1448 C 0.57772 0.17591 1.05052
 C1449 C 0.59970 0.16788 1.04026
 C1450 C 0.60143 0.14466 1.03266
 C1451 C 0.62217 0.13603 1.02385
 C1452 C 0.64173 0.15050 1.02250
 C1453 C 0.64010 0.17360 1.03040
 C1454 C 0.61935 0.18224 1.03919
 C1455 C 0.66423 0.14202 1.01372
 C1456 C 0.66651 0.12269 0.99949
 H1457 H 0.56614 0.16233 1.05605
 H1458 H 0.58669 0.13308 1.03369
 H1459 H 0.62288 0.11790 1.01865
 H1460 H 0.65499 0.18502 1.02988
 H1461 H 0.61907 0.19994 1.04564
 H1462 H 0.67938 0.15247 1.01744
 H1463 H 0.58222 0.21256 1.04450
 H1464 H 0.65112 0.11384 0.99345
 C1465 C 0.91929 0.21117 0.94616
 C1466 C 0.89932 0.19995 0.93807
 C1467 C 0.88224 0.18882 0.95317
 C1468 C 0.86841 0.17077 0.94453
 C1469 C 0.85181 0.16004 0.95801
 C1470 C 0.84837 0.16747 0.98042
 C1471 C 0.86231 0.18541 0.98914
 C1472 C 0.87898 0.19613 0.97565
 C1473 C 0.83071 0.15670 0.99514
 C1474 C 0.81107 0.14552 0.98642
 H1475 H 0.89651 0.19766 0.92007
 H1476 H 0.87062 0.16477 0.92730
 H1477 H 0.84200 0.14575 0.95086
 H1478 H 0.86004 0.19144 1.00635
 H1479 H 0.88885 0.21040 0.98276
 H1480 H 0.83262 0.15905 1.01327
 H1481 H 0.92265 0.21083 0.96430
 H1482 H 0.80800 0.14581 0.96825
 C1483 C 0.42977 0.70746 0.43833
 C1484 C 0.40758 0.70052 0.43116
 C1485 C 0.38940 0.69252 0.44684
 C1486 C 0.36615 0.69342 0.43933
 C1487 C 0.34844 0.68542 0.45321
 C1488 C 0.35367 0.67602 0.47489
 C1489 C 0.37687 0.67538 0.48253
 C1490 C 0.39461 0.68335 0.46862
 C1491 C 0.33551 0.66682 0.48996
 C1492 C 0.31433 0.65820 0.48185
 H1493 H 0.40244 0.70207 0.41350
 H1494 H 0.36164 0.70046 0.42266
 H1495 H 0.33074 0.68695 0.44694
 H1496 H 0.38135 0.66822 0.49916
 H1497 H 0.41231 0.68174 0.47486
 H1498 H 0.33962 0.66602 0.50791
 H1499 H 0.43344 0.70792 0.45639
 H1500 H 0.31052 0.65900 0.46382
 C1501 C 0.58717 0.78821 0.42548
 C1502 C 0.59285 0.81206 0.42583
 C1503 C 0.61441 0.82093 0.43656
 C1504 C 0.61479 0.84417 0.44414
 C1505 C 0.63481 0.85331 0.45421
 C1506 C 0.65498 0.83935 0.45679
 C1507 C 0.65487 0.81635 0.44854
 C1508 C 0.63477 0.80715 0.43858
 C1509 C 0.67638 0.84845 0.46760
 C1510 C 0.67586 0.86568 0.48426
 H1511 H 0.58078 0.82515 0.41925
 H1512 H 0.59948 0.85530 0.44236
 H1513 H 0.63452 0.87140 0.45962
 H1514 H 0.67032 0.80540 0.44998
 H1515 H 0.63541 0.78944 0.43216
 H1516 H 0.69272 0.84004 0.46363
 H1517 H 0.59867 0.77602 0.43447
 H1518 H 0.65924 0.87180 0.49026
 C1519 C 0.06906 0.29941 -0.05117
 C1520 C 0.07638 0.32279 -0.05135
 C1521 C 0.09595 0.33113 -0.03706
 C1522 C 0.10890 0.35021 -0.04480
 C1523 C 0.12793 0.35819 -0.03220
 C1524 C 0.13431 0.34732 -0.01145
 C1525 C 0.12074 0.32893 -0.00319
 C1526 C 0.10178 0.32080 -0.01589
 C1527 C 0.15490 0.35490 0.00181
 C1528 C 0.17450 0.36381 -0.00869
 H1529 H 0.06913 0.33523 -0.06353
 H1530 H 0.10449 0.35876 -0.06083
 H1531 H 0.13749 0.37298 -0.03868
 H1532 H 0.12507 0.32057 0.01296
 H1533 H 0.09166 0.30663 -0.00899
 H1534 H 0.15535 0.35152 0.01993
 H1535 H 0.07832 0.28718 -0.04001
 H1536 H 0.17493 0.36422 -0.02705
 C1537 C 0.41267 0.29067 0.06595
 C1538 C 0.40877 0.29636 0.04302
 C1539 C 0.38688 0.30760 0.03467
 C1540 C 0.38709 0.32132 0.01478
 C1541 C 0.36678 0.33228 0.00650
 C1542 C 0.34572 0.32966 0.01799
 C1543 C 0.34541 0.31534 0.03749
 C1544 C 0.36571 0.30440 0.04576
 C1545 C 0.32367 0.34081 0.00991
 C1546 C 0.32252 0.35992 -0.00513
 H1547 H 0.42228 0.29379 0.03079
 H1548 H 0.40307 0.32367 0.00567
 H1549 H 0.36772 0.34238 -0.00906
 H1550 H 0.32937 0.31262 0.04642
 H1551 H 0.36459 0.29316 0.06059
 H1552 H 0.30773 0.33361 0.01629
 H1553 H 0.39939 0.29572 0.07778
 H1554 H 0.33834 0.36715 -0.01168
 C1555 C 0.92052 0.79819 0.55950
 C1556 C 0.89997 0.80734 0.56842
 C1557 C 0.88063 0.81705 0.55423
 C1558 C 0.88407 0.82709 0.53266
 C1559 C 0.86536 0.83688 0.52022
 C1560 C 0.84289 0.83689 0.52920
 C1561 C 0.83953 0.82669 0.55063
 C1562 C 0.85821 0.81710 0.56309
 C1563 C 0.82243 0.84682 0.51677
 C1564 C 0.82363 0.86396 0.49968
 H1565 H 0.89690 0.80616 0.58641
 H1566 H 0.90120 0.82781 0.52549
 H1567 H 0.86859 0.84413 0.50356
 H1568 H 0.82240 0.82638 0.55790
 H1569 H 0.85510 0.80959 0.57972
 H1570 H 0.80563 0.84058 0.52186
 H1571 H 0.92165 0.79694 0.54122
 H1572 H 0.84037 0.86997 0.49419
   
