data_POSCAR
  _audit_creation_date              2014-09-24
  _audit_creation_method            'ToBaCCo'
  _symmetry_space_group_name_H-M    'P1'
  _symmetry_Int_Tables_number       1
  _symmetry_cell_setting            triclinic
  loop_
  _symmetry_equiv_pos_as_xyz
 x,y,z
_cell_length_a 39.5135
_cell_length_b 39.4350
_cell_length_c 39.4842
_cell_angle_alpha 89.999600
_cell_angle_beta 89.984400
_cell_angle_gamma 89.968900
loop_
  _atom_site_label
  _atom_site_type_symbol
  _atom_site_fract_x
  _atom_site_fract_y
  _atom_site_fract_z
O1 O 0.22019 1.03071 0.46571
 O2 O 0.22042 0.96917 0.53548
 O3 O 0.22174 1.03450 0.53188
 O4 O 0.22017 0.96525 0.46942
 O5 O 0.27604 0.96424 0.46922
 O6 O 0.27749 1.03479 0.53039
 O7 O 0.27630 0.96844 0.53492
 O8 O 0.27609 1.03044 0.46508
 Cu9 Cu 0.21504 0.99997 0.50068
 Cu10 Cu 0.28210 0.99936 0.49985
 C11 C 0.24803 1.04111 0.45351
 C12 C 0.24832 0.95834 0.54718
 C13 C 0.24984 1.04666 0.54182
 C14 C 0.24786 0.95290 0.45866
 O15 O 0.72005 -0.03422 0.46740
 O16 O 0.72135 0.03871 0.52559
 O17 O 0.72170 0.03364 0.46279
 O18 O 0.72040 -0.02416 0.53588
 O19 O 0.77354 -0.03751 0.52562
 O20 O 0.77753 0.03102 0.46259
 O21 O 0.77657 0.03159 0.53056
 O22 O 0.77567 -0.03182 0.46231
 Cu23 Cu 0.71510 0.00231 0.49724
 Cu24 Cu 0.78157 -0.00112 0.49669
 C25 C 0.74740 -0.04427 0.45366
 C26 C 0.74948 0.04711 0.53855
 C27 C 0.75007 0.04312 0.45095
 C28 C 0.74650 -0.04174 0.54248
 O29 O 0.27317 0.46886 0.96183
 O30 O 0.27848 0.52807 1.03383
 O31 O 0.27590 0.45938 1.02462
 O32 O 0.27414 0.53164 0.96581
 O33 O 0.21852 0.53400 0.97129
 O34 O 0.22345 0.47089 1.03963
 O35 O 0.22290 0.53423 1.03384
 O36 O 0.21807 0.46553 0.97074
 Cu37 Cu 0.28122 0.49762 0.99754
 Cu38 Cu 0.21497 0.49985 1.00343
 C39 C 0.24444 0.45661 0.95451
 C40 C 0.25186 0.54240 1.04497
 C41 C 0.25025 0.45343 1.04308
 C42 C 0.24575 0.54445 0.95772
 O43 O 0.46864 0.22365 1.02669
 O44 O 0.53167 0.22511 0.95802
 O45 O 0.53466 0.22420 1.02334
 O46 O 0.46540 0.22289 0.96102
 O47 O 0.46425 0.27883 0.96095
 O48 O 0.53252 0.28004 1.02461
 O49 O 0.52998 0.28110 0.95806
 O50 O 0.46741 0.27963 1.02689
 Cu51 Cu 0.50018 0.21835 0.99217
 Cu52 Cu 0.49850 0.28552 0.99251
 C53 C 0.45740 0.25140 1.03861
 C54 C 0.54161 0.25344 0.94642
 C55 C 0.54524 0.25228 1.03503
 C56 C 0.45293 0.25059 0.95034
 O57 O 0.46808 0.72078 -0.03039
 O58 O 0.53388 0.71742 0.03508
 O59 O 0.46828 0.71892 0.03571
 O60 O 0.53335 0.72099 -0.03161
 O61 O 0.53549 0.77668 -0.02725
 O62 O 0.46832 0.77488 0.03692
 O63 O 0.53435 0.77339 0.03777
 O64 O 0.46900 0.77674 -0.02877
 Cu65 Cu 0.50092 0.71390 0.00201
 Cu66 Cu 0.50179 0.78104 0.00484
 C67 C 0.45737 0.74924 -0.04087
 C68 C 0.54521 0.74475 0.04770
 C69 C 0.45702 0.74670 0.04757
 C70 C 0.54583 0.74932 -0.04071
 O71 O 1.03480 0.46299 0.21703
 O72 O 0.96997 0.53020 0.21758
 O73 O 1.03536 0.52938 0.22009
 O74 O 0.96913 0.46377 0.21477
 O75 O 0.96648 0.46195 0.27059
 O76 O 1.03405 0.52599 0.27579
 O77 O 0.96769 0.52749 0.27343
 O78 O 1.03234 0.46059 0.27283
 Cu79 Cu 1.00250 0.49681 0.21175
 Cu80 Cu 0.99991 0.49382 0.27875
 C81 C 1.04466 0.45036 0.24494
 C82 C 0.95782 0.54025 0.24561
 C83 C 1.04628 0.53881 0.24889
 C84 C 0.95645 0.45172 0.24179
 O85 O -0.03750 0.47428 0.72655
 O86 O 0.02896 0.53945 0.72501
 O87 O 0.02846 0.47345 0.72542
 O88 O -0.03764 0.53944 0.72690
 O89 O -0.03435 0.54142 0.78261
 O90 O 0.02895 0.47301 0.78132
 O91 O 0.03076 0.53923 0.78091
 O92 O -0.03650 0.47469 0.78251
 Cu93 Cu -0.00444 0.50675 0.72034
 Cu94 Cu -0.00270 0.50709 0.78745
 C95 C -0.04833 0.46341 0.75479
 C96 C 0.04122 0.55045 0.75265
 C97 C 0.03961 0.46161 0.75319
 C98 C -0.04717 0.55193 0.75502
 O99 O 0.46845 0.96443 0.28638
 O100 O 0.53483 1.02966 0.27906
 O101 O 0.46978 1.03112 0.28206
 O102 O 0.53388 0.96342 0.28355
 O103 O 0.53198 0.96034 0.22773
 O104 O 0.46546 1.02579 0.22663
 O105 O 0.53205 1.02600 0.22328
 O106 O 0.46595 0.96069 0.23058
 Cu107 Cu 0.50195 0.99750 0.28837
 Cu108 Cu 0.49867 0.99292 0.22145
 C109 C 0.45600 0.95143 0.25971
 C110 C 0.54468 1.03894 0.24989
 C111 C 0.45638 1.03988 0.25414
 C112 C 0.54397 0.95044 0.25589
 O113 O 1.02992 0.21802 0.52680
 O114 O 0.96582 0.21670 0.45925
 O115 O 1.03105 0.21441 0.46040
 O116 O 0.96454 0.22026 0.52550
 O117 O 0.96649 0.27615 0.52257
 O118 O 1.03327 0.27037 0.45785
 O119 O 0.96701 0.27268 0.45699
 O120 O 1.03265 0.27389 0.52326
 Cu121 Cu 0.99765 0.21173 0.49330
 Cu122 Cu 1.00004 0.27890 0.48986
 C123 C 1.04221 0.24615 0.53648
 C124 C 0.95548 0.24446 0.44667
 C125 C 1.04340 0.24143 0.44804
 C126 C 0.95422 0.24920 0.53518
 O127 O -0.03095 0.78408 0.53616
 O128 O 0.03324 0.78041 0.46866
 O129 O -0.03237 0.78002 0.47000
 O130 O 0.03460 0.78319 0.53511
 O131 O 0.03485 0.72719 0.53727
 O132 O -0.03235 0.72412 0.47308
 O133 O 0.03389 0.72447 0.47204
 O134 O -0.03134 0.72814 0.53860
 Cu135 Cu 0.00117 0.78755 0.50218
 Cu136 Cu 0.00120 0.72038 0.50553
 C137 C -0.04220 0.75671 0.54880
 C138 C 0.04458 0.75187 0.45900
 C139 C -0.04383 0.75144 0.46052
 C140 C 0.04616 0.75563 0.54714
 O141 O 0.78004 0.46594 1.02661
 O142 O 0.77974 0.53538 0.96449
 O143 O 0.78128 0.53223 1.02991
 O144 O 0.77794 0.46907 0.96135
 O145 O 0.72207 0.47039 0.96296
 O146 O 0.72541 0.53349 1.03146
 O147 O 0.72382 0.53598 0.96523
 O148 O 0.72419 0.46794 1.02917
 Cu149 Cu 0.78537 0.50055 0.99542
 Cu150 Cu 0.71825 0.50208 0.99736
 C151 C 0.75220 0.45523 1.03854
 C152 C 0.75177 0.54739 0.95416
 C153 C 0.75390 0.54362 1.04237
 C154 C 0.74942 0.45892 0.95053
 O155 O 0.47006 1.04659 0.77418
 O156 O 0.52965 0.97530 0.77728
 O157 O 0.53308 1.03830 0.77480
 O158 O 0.46197 0.97803 0.77798
 O159 O 0.46542 0.97022 0.72270
 O160 O 0.52737 1.04002 0.71922
 O161 O 0.52836 0.97205 0.72146
 O162 O 0.45833 1.03380 0.72118
 Cu163 Cu 0.49746 1.00915 0.78179
 Cu164 Cu 0.49541 1.00514 0.71535
 C165 C 0.45300 1.05167 0.74742
 C166 C 0.54018 0.96229 0.74978
 C167 C 0.54201 1.04988 0.74620
 C168 C 0.45276 0.96261 0.75122
 C169 C 0.25001 0.21734 0.26818
 C170 C 0.22395 0.24166 0.26752
 C171 C 0.22396 0.26762 0.24277
 C172 C 0.25027 0.26910 0.21819
 C173 C 0.27659 0.24449 0.21921
 C174 C 0.27639 0.21877 0.24422
 C175 C 0.74938 0.76936 0.27933
 C176 C 0.72389 0.76841 0.25431
 C177 C 0.72480 0.74324 0.22894
 C178 C 0.75129 0.71923 0.22841
 C179 C 0.77649 0.71996 0.25375
 C180 C 0.77544 0.74488 0.27939
 C181 C 0.74937 0.23049 0.71622
 C182 C 0.77441 0.25601 0.71700
 C183 C 0.77371 0.28082 0.74274
 C184 C 0.74754 0.28066 0.76709
 C185 C 0.72248 0.25520 0.76615
 C186 C 0.72363 0.22984 0.74097
 C187 C 0.24739 0.78273 0.73315
 C188 C 0.22227 0.75732 0.73202
 C189 C 0.22169 0.73153 0.75682
 C190 C 0.24635 0.73110 0.78270
 C191 C 0.27201 0.75602 0.78332
 C192 C 0.27243 0.78188 0.75861
 C193 C 0.21903 0.25331 0.72057
 C194 C 0.24546 0.22901 0.71953
 C195 C 0.27020 0.22821 0.74579
 C196 C 0.26830 0.25235 0.77257
 C197 C 0.24250 0.27725 0.77253
 C198 C 0.21768 0.27745 0.74687
 C199 C 0.77358 0.75776 0.72668
 C200 C 0.74765 0.78283 0.72639
 C201 C 0.72231 0.78219 0.75203
 C202 C 0.72292 0.75673 0.77736
 C203 C 0.74851 0.73183 0.77713
 C204 C 0.77377 0.73226 0.75194
 C205 C 0.22840 0.74073 0.28207
 C206 C 0.22951 0.71545 0.25667
 C207 C 0.25535 0.71644 0.23184
 C208 C 0.28035 0.74206 0.23291
 C209 C 0.27963 0.76667 0.25889
 C210 C 0.25344 0.76629 0.28322
 C211 C 0.77634 0.24444 0.26466
 C212 C 0.75097 0.21922 0.26492
 C213 C 0.72514 0.21962 0.24015
 C214 C 0.72457 0.24534 0.21518
 C215 C 0.75030 0.27027 0.21479
 C216 C 0.77610 0.26990 0.23952
 C217 C 0.24662 0.11374 0.37239
 C218 C 0.27227 0.11497 0.39741
 C219 C 0.27313 0.09056 0.42327
 C220 C 0.24773 0.06590 0.42564
 C221 C 0.22156 0.06553 0.40171
 C222 C 0.22112 0.08893 0.37519
 C223 C 0.24720 0.13962 0.34464
 C224 C 0.22517 0.13843 0.31656
 C225 C 0.22657 0.16340 0.29155
 C226 C 0.24953 0.19024 0.29423
 C227 C 0.27159 0.19170 0.32190
 C228 C 0.27131 0.16609 0.34652
 C229 C 0.29630 0.14106 0.39703
 C230 C 0.29533 0.16654 0.37258
 H231 H 0.31572 0.14223 0.41638
 H232 H 0.31406 0.18657 0.37374
 H233 H 0.29296 0.09141 0.44224
 H234 H 0.20157 0.04681 0.40331
 H235 H 0.20952 0.16196 0.27012
 H236 H 0.28910 0.21272 0.32408
 H237 H 0.20033 0.08754 0.35756
 H238 H 0.20708 0.11824 0.31322
 C239 C 0.74869 0.87875 0.37701
 C240 C 0.72775 0.87497 0.40589
 C241 C 0.72621 0.90088 0.43029
 C242 C 0.74679 0.92962 0.42717
 C243 C 0.76841 0.93273 0.39927
 C244 C 0.76919 0.90782 0.37429
 C245 C 0.74909 0.85105 0.35116
 C246 C 0.76584 0.85424 0.31980
 C247 C 0.76572 0.82760 0.29664
 C248 C 0.74954 0.79711 0.30448
 C249 C 0.73239 0.79363 0.33529
 C250 C 0.73127 0.82074 0.35830
 C251 C 0.70948 0.84492 0.41075
 C252 C 0.71186 0.81805 0.38786
 H253 H 0.69375 0.84179 0.43302
 H254 H 0.69781 0.79504 0.39310
 H255 H 0.71014 0.89808 0.45238
 H256 H 0.78472 0.95467 0.39672
 H257 H 0.77838 0.83069 0.27250
 H258 H 0.71927 0.77014 0.34084
 H259 H 0.78657 0.91145 0.35354
 H260 H 0.77857 0.87725 0.31239
 C261 C 0.74942 0.12826 0.61102
 C262 C 0.77163 0.10035 0.61514
 C263 C 0.77256 0.07449 0.59069
 C264 C 0.75032 0.07517 0.56306
 C265 C 0.72763 0.10224 0.55959
 C266 C 0.72732 0.12863 0.58305
 C267 C 0.74948 0.15555 0.63733
 C268 C 0.73096 0.18593 0.63378
 C269 C 0.73134 0.21031 0.65934
 C270 C 0.74970 0.20471 0.68906
 C271 C 0.76856 0.17492 0.69282
 C272 C 0.76932 0.15073 0.66679
 C273 C 0.79187 0.09788 0.64417
 C274 C 0.79016 0.12216 0.66980
 H275 H 0.80866 0.07640 0.64752
 H276 H 0.80575 0.11873 0.69213
 H277 H 0.78960 0.05315 0.59383
 H278 H 0.71011 0.10305 0.53850
 H279 H 0.71709 0.23355 0.65610
 H280 H 0.78301 0.17093 0.71582
 H281 H 0.70909 0.14862 0.57921
 H282 H 0.71644 0.19156 0.61136
 C283 C 0.24642 0.88643 0.62905
 C284 C 0.27323 0.88601 0.60525
 C285 C 0.27425 0.91017 0.57912
 C286 C 0.24802 0.93383 0.57537
 C287 C 0.22093 0.93347 0.59827
 C288 C 0.22019 0.91029 0.62494
 C289 C 0.24657 0.86069 0.65694
 C290 C 0.22296 0.86104 0.68372
 C291 C 0.22376 0.83604 0.70870
 C292 C 0.24769 0.80994 0.70726
 C293 C 0.27169 0.80959 0.68118
 C294 C 0.27181 0.83519 0.65651
 C295 C 0.29829 0.86094 0.60710
 C296 C 0.29719 0.83564 0.63175
 H297 H 0.31867 0.86041 0.58872
 H298 H 0.31677 0.81638 0.63169
 H299 H 0.29491 0.90987 0.56103
 H300 H 0.20032 0.95141 0.59570
 H301 H 0.20549 0.83687 0.72913
 H302 H 0.29029 0.78940 0.68024
 H303 H 0.19859 0.91109 0.64162
 H304 H 0.20397 0.88054 0.68607
 C305 C 0.38365 0.25069 0.11874
 C306 C 0.38598 0.22311 0.09587
 C307 C 0.41072 0.22311 0.07038
 C308 C 0.43237 0.25093 0.06629
 C309 C 0.42944 0.27866 0.08832
 C310 C 0.40559 0.27851 0.11440
 C311 C 0.35712 0.24950 0.14584
 C312 C 0.35430 0.27424 0.17152
 C313 C 0.32855 0.27225 0.19571
 C314 C 0.30493 0.24585 0.19455
 C315 C 0.30758 0.22112 0.16927
 C316 C 0.33390 0.22220 0.14558
 C317 C 0.36305 0.19614 0.09793
 C318 C 0.33714 0.19603 0.12184
 H319 H 0.36468 0.17515 0.08029
 H320 H 0.31958 0.17492 0.12200
 H321 H 0.41243 0.20188 0.05300
 H322 H 0.44585 0.30048 0.08551
 H323 H 0.32674 0.29154 0.21516
 H324 H 0.28870 0.20130 0.16771
 H325 H 0.40438 0.30059 0.13046
 H326 H 0.37180 0.29512 0.17353
 C327 C 0.38018 0.74995 0.88238
 C328 C 0.38228 0.77683 0.90606
 C329 C 0.40817 0.77706 0.93047
 C330 C 0.43115 0.75003 0.93258
 C331 C 0.42835 0.72295 0.90977
 C332 C 0.40338 0.72294 0.88485
 C333 C 0.35270 0.75094 0.85630
 C334 C 0.35058 0.72730 0.82960
 C335 C 0.32440 0.72919 0.80603
 C336 C 0.29943 0.75416 0.80887
 C337 C 0.30141 0.77811 0.83497
 C338 C 0.32828 0.77716 0.85821
 C339 C 0.35804 0.80277 0.90580
 C340 C 0.33123 0.80257 0.88281
 H341 H 0.35943 0.82322 0.92409
 H342 H 0.31280 0.82290 0.88400
 H343 H 0.40978 0.79772 0.94852
 H344 H 0.44571 0.70172 0.91109
 H345 H 0.32370 0.71120 0.78532
 H346 H 0.28229 0.79774 0.83679
 H347 H 0.40235 0.70128 0.86822
 H348 H 0.36918 0.70760 0.82606
 C349 C 0.62045 0.74060 0.12595
 C350 C 0.62346 0.76426 0.09915
 C351 C 0.59832 0.76604 0.07410
 C352 C 0.57119 0.74319 0.07428
 C353 C 0.56919 0.71855 0.09972
 C354 C 0.59332 0.71742 0.12550
 C355 C 0.64684 0.74069 0.15312
 C356 C 0.64366 0.72174 0.18324
 C357 C 0.66890 0.72291 0.20791
 C358 C 0.69809 0.74223 0.20270
 C359 C 0.70156 0.76129 0.17303
 C360 C 0.67565 0.76158 0.14878
 C361 C 0.65191 0.78533 0.09705
 C362 C 0.67790 0.78335 0.12085
 H363 H 0.65446 0.80313 0.07629
 H364 H 0.69972 0.79971 0.11779
 H365 H 0.60034 0.78453 0.05386
 H366 H 0.54855 0.70048 0.09996
 H367 H 0.66578 0.70857 0.23111
 H368 H 0.72406 0.77658 0.16938
 H369 H 0.59061 0.69794 0.14450
 H370 H 0.62159 0.70654 0.18851
 C371 C 0.61624 0.25612 0.86735
 C372 C 0.61895 0.23235 0.89409
 C373 C 0.59390 0.23096 0.91926
 C374 C 0.56710 0.25424 0.91927
 C375 C 0.56526 0.27880 0.89373
 C376 C 0.58931 0.27958 0.86783
 C377 C 0.64284 0.25599 0.84034
 C378 C 0.64025 0.27551 0.81054
 C379 C 0.66595 0.27475 0.78630
 C380 C 0.69496 0.25514 0.79159
 C381 C 0.69766 0.23520 0.82076
 C382 C 0.67140 0.23472 0.84466
 C383 C 0.64712 0.21086 0.89609
 C384 C 0.67321 0.21264 0.87237
 H385 H 0.64942 0.19293 0.91677
 H386 H 0.69485 0.19601 0.87543
 H387 H 0.59583 0.21250 0.93953
 H388 H 0.54489 0.29720 0.89359
 H389 H 0.66336 0.28969 0.76344
 H390 H 0.72002 0.21969 0.82448
 H391 H 0.58676 0.29908 0.84884
 H392 H 0.61840 0.29104 0.80525
 C393 C 0.12118 0.37273 0.24683
 C394 C 0.10112 0.37741 0.21751
 C395 C 0.07658 0.40323 0.21669
 C396 C 0.07084 0.42365 0.24525
 C397 C 0.08994 0.41810 0.27462
 C398 C 0.11486 0.39311 0.27544
 C399 C 0.14779 0.34573 0.24643
 C400 C 0.17136 0.34172 0.27286
 C401 C 0.19577 0.31634 0.27137
 C402 C 0.19699 0.29389 0.24392
 C403 C 0.17398 0.29780 0.21718
 C404 C 0.14992 0.32407 0.21790
 C405 C 0.10522 0.35587 0.18957
 C406 C 0.12864 0.32936 0.19002
 H407 H 0.08968 0.35922 0.16720
 H408 H 0.13052 0.31310 0.16797
 H409 H 0.06141 0.40692 0.19410
 H410 H 0.08582 0.43336 0.29706
 H411 H 0.21432 0.31463 0.29146
 H412 H 0.17550 0.28095 0.19553
 H413 H 0.12851 0.38992 0.29886
 H414 H 0.17197 0.35838 0.29449
 C415 C 0.87668 0.38476 0.75341
 C416 C 0.87405 0.41276 0.73114
 C417 C 0.89884 0.43821 0.73156
 C418 C 0.92528 0.43715 0.75517
 C419 C 0.92670 0.41059 0.77865
 C420 C 0.90287 0.38446 0.77765
 C421 C 0.85095 0.35706 0.75066
 C422 C 0.85402 0.32599 0.76804
 C423 C 0.82927 0.30100 0.76468
 C424 C 0.80068 0.30676 0.74462
 C425 C 0.79753 0.33721 0.72675
 C426 C 0.82294 0.36195 0.72881
 C427 C 0.84642 0.41549 0.70908
 C428 C 0.82092 0.39107 0.70862
 H429 H 0.84414 0.43717 0.69236
 H430 H 0.79971 0.39463 0.69158
 H431 H 0.89726 0.45925 0.71393
 H432 H 0.94682 0.40959 0.79727
 H433 H 0.83213 0.27724 0.77815
 H434 H 0.77550 0.34134 0.71090
 H435 H 0.90517 0.36450 0.79619
 H436 H 0.87556 0.32033 0.78385
 C437 C 0.11928 0.62637 0.75108
 C438 C 0.09556 0.62529 0.77794
 C439 C 0.07058 0.60002 0.77858
 C440 C 0.06782 0.57662 0.75199
 C441 C 0.09033 0.57864 0.72465
 C442 C 0.11594 0.60302 0.72425
 C443 C 0.14636 0.65291 0.75202
 C444 C 0.17344 0.65367 0.72879
 C445 C 0.19798 0.67902 0.73071
 C446 C 0.19570 0.70448 0.75526
 C447 C 0.16925 0.70377 0.77882
 C448 C 0.14509 0.67773 0.77792
 C449 C 0.09645 0.64986 0.80355
 C450 C 0.12022 0.67597 0.80311
 H451 H 0.07807 0.64926 0.82392
 H452 H 0.11951 0.69471 0.82318
 H453 H 0.05269 0.59906 0.79940
 H454 H 0.08842 0.56097 0.70373
 H455 H 0.21890 0.67876 0.71298
 H456 H 0.16783 0.72328 0.79812
 H457 H 0.13253 0.60345 0.70256
 H458 H 0.17647 0.63463 0.70942
 C459 C 0.88284 0.61904 0.24730
 C460 C 0.87938 0.59019 0.26835
 C461 C 0.90442 0.56494 0.26823
 C462 C 0.93194 0.56704 0.24595
 C463 C 0.93443 0.59465 0.22381
 C464 C 0.91038 0.62059 0.22466
 C465 C 0.85636 0.64613 0.24928
 C466 C 0.85972 0.67775 0.23296
 C467 C 0.83404 0.70194 0.23517
 C468 C 0.80432 0.69486 0.25303
 C469 C 0.80091 0.66391 0.26999
 C470 C 0.82711 0.63992 0.26906
 C471 C 0.85055 0.58628 0.28863
 C472 C 0.82454 0.61019 0.28826
 H473 H 0.84768 0.56398 0.30442
 H474 H 0.80237 0.60565 0.30379
 H475 H 0.90202 0.54309 0.28475
 H476 H 0.95539 0.59644 0.20620
 H477 H 0.83709 0.72612 0.22250
 H478 H 0.77801 0.65882 0.28425
 H479 H 0.91347 0.64130 0.20707
 H480 H 0.88211 0.68440 0.21882
 C481 C 0.11530 0.24809 0.61686
 C482 C 0.12147 0.26599 0.58640
 C483 C 0.09708 0.26597 0.56051
 C484 C 0.06755 0.24658 0.56372
 C485 C 0.06237 0.22729 0.59302
 C486 C 0.08575 0.22826 0.61949
 C487 C 0.14113 0.25007 0.64452
 C488 C 0.13520 0.23746 0.67738
 C489 C 0.16030 0.23938 0.70213
 C490 C 0.19204 0.25309 0.69444
 C491 C 0.19798 0.26666 0.66222
 C492 C 0.17241 0.26612 0.63753
 C493 C 0.15228 0.28292 0.58165
 C494 C 0.17759 0.28214 0.60629
 H495 H 0.15725 0.29625 0.55817
 H496 H 0.20132 0.29490 0.60109
 H497 H 0.10149 0.28018 0.53740
 H498 H 0.03982 0.21189 0.59566
 H499 H 0.15528 0.22945 0.72721
 H500 H 0.22231 0.27811 0.65671
 H501 H 0.08055 0.21292 0.64151
 H502 H 0.11124 0.22648 0.68454
 C503 C 0.88122 0.76079 0.62630
 C504 C 0.88265 0.73315 0.60341
 C505 C 0.90820 0.73166 0.57877
 C506 C 0.93165 0.75809 0.57546
 C507 C 0.92953 0.78605 0.59728
 C508 C 0.90483 0.78732 0.62261
 C509 C 0.85407 0.76087 0.65287
 C510 C 0.85214 0.78542 0.67883
 C511 C 0.82623 0.78418 0.70296
 C512 C 0.80153 0.75881 0.70144
 C513 C 0.80300 0.73460 0.67555
 C514 C 0.82950 0.73479 0.65201
 C515 C 0.85814 0.70756 0.60471
 C516 C 0.83173 0.70874 0.62804
 H517 H 0.85904 0.68658 0.58700
 H518 H 0.81310 0.68858 0.62770
 H519 H 0.90926 0.71032 0.56147
 H520 H 0.94729 0.80684 0.59500
 H521 H 0.82531 0.80315 0.72278
 H522 H 0.78318 0.71578 0.67354
 H523 H 0.90437 0.80943 0.63868
 H524 H 0.87059 0.80541 0.68121
 C525 C 0.12024 0.74792 0.38106
 C526 C 0.12511 0.73041 0.41199
 C527 C 0.09978 0.73099 0.43694
 C528 C 0.07053 0.75054 0.43238
 C529 C 0.06650 0.76935 0.40260
 C530 C 0.09084 0.76780 0.37699
 C531 C 0.14722 0.74551 0.35452
 C532 C 0.14289 0.75797 0.32133
 C533 C 0.16905 0.75559 0.29769
 C534 C 0.20019 0.74141 0.30682
 C535 C 0.20466 0.72830 0.33945
 C536 C 0.17808 0.72932 0.36300
 C537 C 0.15560 0.71337 0.41821
 C538 C 0.18189 0.71366 0.39461
 H539 H 0.15955 0.70035 0.44205
 H540 H 0.20531 0.70083 0.40094
 H541 H 0.10327 0.71718 0.46044
 H542 H 0.04417 0.78489 0.39894
 H543 H 0.16527 0.76538 0.27234
 H544 H 0.22868 0.71681 0.34616
 H545 H 0.08654 0.78279 0.35454
 H546 H 0.11939 0.76920 0.31308
 C547 C 0.88129 0.24232 0.36725
 C548 C 0.87737 0.26463 0.39508
 C549 C 0.90224 0.26594 0.42046
 C550 C 0.92997 0.24380 0.41958
 C551 C 0.93293 0.22049 0.39300
 C552 C 0.90912 0.21995 0.36689
 C553 C 0.85497 0.24270 0.33996
 C554 C 0.85884 0.22516 0.30909
 C555 C 0.83345 0.22620 0.28454
 C556 C 0.80343 0.24399 0.29058
 C557 C 0.79939 0.26190 0.32091
 C558 C 0.82538 0.26230 0.34512
 C559 C 0.84822 0.28467 0.39789
 C560 C 0.82235 0.28282 0.37392
 H561 H 0.84497 0.30144 0.41940
 H562 H 0.79995 0.29825 0.37762
 H563 H 0.89950 0.28337 0.44154
 H564 H 0.95406 0.20298 0.39219
 H565 H 0.83705 0.21285 0.26084
 H566 H 0.77629 0.27613 0.32520
 H567 H 0.91257 0.20147 0.34703
 H568 H 0.88151 0.21108 0.30320
 C569 C 0.24202 0.38343 0.87414
 C570 C 0.22569 0.37644 0.90531
 C571 C 0.22500 0.40115 0.93100
 C572 C 0.24213 0.43195 0.92672
 C573 C 0.25927 0.43834 0.89636
 C574 C 0.25895 0.41462 0.87020
 C575 C 0.24181 0.35673 0.84719
 C576 C 0.25388 0.36266 0.81412
 C577 C 0.25375 0.33680 0.79007
 C578 C 0.24219 0.30438 0.79855
 C579 C 0.22945 0.29822 0.83107
 C580 C 0.22840 0.32441 0.85518
 C581 C 0.21140 0.34444 0.91107
 C582 C 0.21346 0.31873 0.88685
 H583 H 0.19923 0.33890 0.93504
 H584 H 0.20273 0.29416 0.89283
 H585 H 0.21255 0.39585 0.95491
 H586 H 0.27298 0.46189 0.89290
 H587 H 0.26303 0.34193 0.76476
 H588 H 0.21972 0.27326 0.83721
 H589 H 0.27287 0.42080 0.84753
 H590 H 0.26304 0.38716 0.80618
 C591 C 0.75317 0.37441 0.11127
 C592 C 0.73456 0.40443 0.11772
 C593 C 0.73350 0.43033 0.09334
 C594 C 0.75246 0.42763 0.06350
 C595 C 0.77233 0.39878 0.05790
 C596 C 0.77243 0.37223 0.08129
 C597 C 0.75243 0.34674 0.13722
 C598 C 0.76608 0.31423 0.13128
 C599 C 0.76486 0.28935 0.15639
 C600 C 0.75068 0.29656 0.18802
 C601 C 0.73675 0.32860 0.19420
 C602 C 0.73653 0.35334 0.16868
 C603 C 0.71802 0.40879 0.14880
 C604 C 0.71979 0.38417 0.17410
 H605 H 0.70416 0.43195 0.15395
 H606 H 0.70720 0.38904 0.19800
 H607 H 0.71886 0.45313 0.09804
 H608 H 0.78742 0.39658 0.03509
 H609 H 0.77533 0.26447 0.15131
 H610 H 0.72535 0.33383 0.21864
 H611 H 0.78819 0.35057 0.07578
 H612 H 0.77722 0.30739 0.10729
 C613 C 0.75234 0.62798 0.88100
 C614 C 0.72899 0.60092 0.87800
 C615 C 0.72825 0.57519 0.90258
 C616 C 0.75183 0.57497 0.92908
 C617 C 0.77602 0.60082 0.93110
 C618 C 0.77612 0.62725 0.90759
 C619 C 0.75148 0.65560 0.85501
 C620 C 0.77031 0.68579 0.85820
 C621 C 0.76886 0.71064 0.83309
 C622 C 0.74934 0.70557 0.80399
 C623 C 0.73008 0.67599 0.80070
 C624 C 0.73017 0.65150 0.82648
 C625 C 0.70731 0.59919 0.84998
 C626 C 0.70854 0.62346 0.82431
 H627 H 0.68970 0.57828 0.84743
 H628 H 0.69180 0.62060 0.80275
 H629 H 0.71009 0.55468 0.90049
 H630 H 0.79464 0.60080 0.95125
 H631 H 0.78319 0.73383 0.83620
 H632 H 0.71453 0.67247 0.77836
 H633 H 0.79535 0.64647 0.91027
 H634 H 0.78575 0.69093 0.88013
 C635 C 0.25477 0.61960 0.12144
 C636 C 0.27251 0.58876 0.12629
 C637 C 0.27293 0.56415 0.10050
 C638 C 0.25415 0.56909 0.07081
 C639 C 0.23559 0.59902 0.06660
 C640 C 0.23613 0.62419 0.09138
 C641 C 0.25533 0.64544 0.14920
 C642 C 0.24203 0.67837 0.14520
 C643 C 0.24245 0.70130 0.17205
 C644 C 0.25542 0.69174 0.20358
 C645 C 0.26956 0.65944 0.20775
 C646 C 0.27038 0.63654 0.18050
 C647 C 0.28849 0.58218 0.15729
 C648 C 0.28671 0.60520 0.18410
 H649 H 0.30177 0.55845 0.16120
 H650 H 0.29874 0.59857 0.20786
 H651 H 0.28651 0.54052 0.10413
 H652 H 0.22063 0.60295 0.04394
 H653 H 0.23224 0.72654 0.16841
 H654 H 0.28050 0.65256 0.23197
 H655 H 0.22109 0.64657 0.08691
 H656 H 0.23169 0.68706 0.12146
 C657 C 0.37843 0.12825 0.74659
 C658 C 0.37195 0.09663 0.73114
 C659 C 0.39784 0.07228 0.72910
 C660 C 0.42825 0.07700 0.74701
 C661 C 0.43286 0.10694 0.76576
 C662 C 0.40883 0.13288 0.76446
 C663 C 0.35147 0.15463 0.74554
 C664 C 0.35831 0.18924 0.75026
 C665 C 0.33218 0.21300 0.74857
 C666 C 0.29831 0.20257 0.74515
 C667 C 0.29160 0.16786 0.74019
 C668 C 0.31823 0.14447 0.73750
 C669 C 0.33909 0.08891 0.72008
 C670 C 0.31233 0.11164 0.72514
 H671 H 0.33364 0.06433 0.70909
 H672 H 0.28704 0.10404 0.71775
 H673 H 0.39321 0.04848 0.71612
 H674 H 0.45581 0.11096 0.78024
 H675 H 0.33844 0.23964 0.75043
 H676 H 0.26579 0.15920 0.73714
 H677 H 0.41365 0.15593 0.77848
 H678 H 0.38390 0.19825 0.75390
 C679 C 0.38153 0.87236 0.26443
 C680 C 0.37622 0.90115 0.24368
 C681 C 0.40083 0.92676 0.24207
 C682 C 0.42985 0.92505 0.26237
 C683 C 0.43408 0.89773 0.28459
 C684 C 0.41039 0.87143 0.28542
 C685 C 0.35583 0.84445 0.26352
 C686 C 0.36114 0.81266 0.27899
 C687 C 0.33655 0.78731 0.27695
 C688 C 0.30595 0.79340 0.26023
 C689 C 0.30035 0.82478 0.24468
 C690 C 0.32549 0.84988 0.24520
 C691 C 0.34617 0.90447 0.22515
 C692 C 0.32093 0.87981 0.22668
 H693 H 0.34184 0.92676 0.20969
 H694 H 0.29789 0.88380 0.21233
 H695 H 0.39719 0.94837 0.22548
 H696 H 0.45625 0.89628 0.30067
 H697 H 0.34121 0.76295 0.28875
 H698 H 0.27672 0.82920 0.23142
 H699 H 0.41491 0.85080 0.30279
 H700 H 0.38434 0.80669 0.29210
 C701 C 0.62260 0.11446 0.24224
 C702 C 0.59486 0.11928 0.26442
 C703 C 0.56989 0.09411 0.26734
 C704 C 0.57109 0.06505 0.24694
 C705 C 0.59746 0.06120 0.22356
 C706 C 0.62317 0.08541 0.22142
 C707 C 0.64967 0.14102 0.24125
 C708 C 0.68063 0.13635 0.22412
 C709 C 0.70514 0.16182 0.22415
 C710 C 0.69892 0.19277 0.24031
 C711 C 0.66851 0.19763 0.25782
 C712 C 0.64435 0.17158 0.25933
 C713 C 0.59179 0.14949 0.28284
 C714 C 0.61552 0.17547 0.27960
 H715 H 0.57031 0.15341 0.29947
 H716 H 0.61167 0.19864 0.29387
 H717 H 0.54897 0.09752 0.28479
 H718 H 0.59849 0.03906 0.20735
 H719 H 0.72898 0.15754 0.21128
 H720 H 0.66423 0.22133 0.27108
 H721 H 0.64294 0.08123 0.20304
 H722 H 0.68666 0.11296 0.21128
 C723 C 0.61789 0.88587 0.75377
 C724 C 0.59510 0.88682 0.72615
 C725 C 0.57009 0.91217 0.72459
 C726 C 0.56660 0.93582 0.75095
 C727 C 0.58834 0.93388 0.77891
 C728 C 0.61374 0.90938 0.78031
 C729 C 0.64506 0.85940 0.75392
 C730 C 0.67124 0.85900 0.77808
 C731 C 0.69607 0.83397 0.77718
 C732 C 0.69513 0.80828 0.75274
 C733 C 0.66971 0.80877 0.72799
 C734 C 0.64507 0.83454 0.72802
 C735 C 0.59706 0.86213 0.70067
 C736 C 0.62107 0.83616 0.70196
 H737 H 0.57942 0.86259 0.67967
 H738 H 0.62125 0.81741 0.68188
 H739 H 0.55287 0.91304 0.70323
 H740 H 0.58597 0.95167 0.79968
 H741 H 0.71674 0.83526 0.79507
 H742 H 0.66966 0.78953 0.70837
 H743 H 0.62953 0.90907 0.80258
 H744 H 0.67359 0.87827 0.79730
 C745 C 0.74490 0.88647 0.62157
 C746 C 0.75916 0.87794 0.58992
 C747 C 0.76183 0.90277 0.56456
 C748 C 0.74551 0.93423 0.56844
 C749 C 0.72745 0.94084 0.59838
 C750 C 0.72834 0.91780 0.62527
 C751 C 0.74596 0.86070 0.64913
 C752 C 0.74320 0.86939 0.68350
 C753 C 0.74547 0.84434 0.70841
 C754 C 0.74728 0.80983 0.69956
 C755 C 0.75004 0.80129 0.66506
 C756 C 0.75243 0.82668 0.64030
 C757 C 0.76857 0.84426 0.58333
 C758 C 0.76321 0.81874 0.60738
 H759 H 0.77854 0.83726 0.55873
 H760 H 0.76936 0.79279 0.60074
 H761 H 0.77417 0.89664 0.54078
 H762 H 0.71416 0.96466 0.60172
 H763 H 0.74571 0.85202 0.73468
 H764 H 0.75158 0.77497 0.65753
 H765 H 0.71518 0.92419 0.64843
 H766 H 0.74091 0.89556 0.69135
 C767 C 0.25235 0.37428 0.11490
 C768 C 0.23731 0.40568 0.12318
 C769 C 0.23463 0.43106 0.09837
 C770 C 0.25144 0.42750 0.06717
 C771 C 0.27008 0.39780 0.06082
 C772 C 0.26942 0.37090 0.08385
 C773 C 0.25145 0.34666 0.14062
 C774 C 0.25543 0.31234 0.13203
 C775 C 0.25340 0.28735 0.15700
 C776 C 0.25040 0.29614 0.19140
 C777 C 0.24654 0.33060 0.19988
 C778 C 0.24405 0.35533 0.17447
 C779 C 0.22705 0.41202 0.15661
 C780 C 0.23233 0.38801 0.18217
 H781 H 0.21640 0.43642 0.16341
 H782 H 0.22546 0.39449 0.20795
 H783 H 0.22175 0.45463 0.10433
 H784 H 0.28373 0.39464 0.03721
 H785 H 0.25443 0.26102 0.14939
 H786 H 0.24413 0.33809 0.22613
 H787 H 0.28313 0.34799 0.07765
 H788 H 0.25858 0.30453 0.10597
 C789 C 0.25098 0.12645 0.61392
 C790 C 0.22112 0.10754 0.60811
 C791 C 0.22063 0.08207 0.58331
 C792 C 0.25025 0.07316 0.56563
 C793 C 0.28033 0.09083 0.57285
 C794 C 0.28062 0.11741 0.59629
 C795 C 0.25004 0.15423 0.63980
 C796 C 0.27658 0.17772 0.64420
 C797 C 0.27459 0.20271 0.66927
 C798 C 0.24663 0.20415 0.69109
 C799 C 0.21997 0.18116 0.68653
 C800 C 0.22086 0.15726 0.66032
 C801 C 0.19230 0.11326 0.62796
 C802 C 0.19254 0.13683 0.65424
 H803 H 0.16953 0.09851 0.62384
 H804 H 0.16995 0.13963 0.66958
 H805 H 0.19734 0.06820 0.57887
 H806 H 0.30373 0.08452 0.56000
 H807 H 0.29525 0.22051 0.67220
 H808 H 0.19851 0.18180 0.70359
 H809 H 0.30440 0.13006 0.60085
 H810 H 0.29876 0.17744 0.62826
 C811 C 0.24638 0.87363 0.38370
 C812 C 0.27361 0.87608 0.40687
 C813 C 0.27418 0.90226 0.43100
 C814 C 0.24724 0.92533 0.43337
 C815 C 0.21960 0.92193 0.41139
 C816 C 0.21919 0.89658 0.38672
 C817 C 0.24744 0.84626 0.35738
 C818 C 0.22365 0.84402 0.33087
 C819 C 0.22588 0.81818 0.30685
 C820 C 0.25137 0.79363 0.30903
 C821 C 0.27533 0.79566 0.33508
 C822 C 0.27406 0.82223 0.35871
 C823 C 0.29977 0.85209 0.40619
 C824 C 0.29961 0.82534 0.38308
 H825 H 0.32045 0.85373 0.42414
 H826 H 0.32019 0.80717 0.38387
 H827 H 0.29530 0.90430 0.44841
 H828 H 0.19841 0.93931 0.41292
 H829 H 0.20770 0.81736 0.28634
 H830 H 0.29524 0.77680 0.33655
 H831 H 0.19725 0.89519 0.37054
 H832 H 0.20359 0.86231 0.32784
 C833 C 0.75319 0.11624 0.37001
 C834 C 0.72629 0.11658 0.39372
 C835 C 0.72510 0.09224 0.41968
 C836 C 0.75116 0.06835 0.42334
 C837 C 0.77843 0.06889 0.40066
 C838 C 0.77939 0.09234 0.37417
 C839 C 0.75299 0.14199 0.34208
 C840 C 0.77652 0.14162 0.31523
 C841 C 0.77544 0.16642 0.29002
 C842 C 0.75138 0.19242 0.29132
 C843 C 0.72750 0.19279 0.31752
 C844 C 0.72761 0.16736 0.34239
 C845 C 0.70120 0.14161 0.39184
 C846 C 0.70224 0.16688 0.36715
 H847 H 0.68076 0.14207 0.41015
 H848 H 0.68256 0.18603 0.36712
 H849 H 0.70428 0.09242 0.43759
 H850 H 0.79892 0.05080 0.40314
 H851 H 0.79350 0.16539 0.26941
 H852 H 0.70868 0.21279 0.31830
 H853 H 0.80105 0.09161 0.35755
 H854 H 0.79559 0.12218 0.31296
 C855 C 0.62229 0.75411 0.88424
 C856 C 0.60020 0.72597 0.88552
 C857 C 0.57602 0.72356 0.91157
 C858 C 0.57111 0.75064 0.93432
 C859 C 0.59145 0.77973 0.93101
 C860 C 0.61716 0.78116 0.90684
 C861 C 0.64907 0.75484 0.85755
 C862 C 0.67670 0.77731 0.85878
 C863 C 0.70093 0.77721 0.83309
 C864 C 0.69710 0.75621 0.80476
 C865 C 0.67038 0.73282 0.80391
 C866 C 0.64731 0.73094 0.83094
 C867 C 0.60140 0.70140 0.85984
 C868 C 0.62348 0.70465 0.83235
 H869 H 0.58409 0.68010 0.86030
 H870 H 0.62264 0.68571 0.81248
 H871 H 0.55971 0.70148 0.91282
 H872 H 0.58817 0.80123 0.94777
 H873 H 0.72277 0.79360 0.83531
 H874 H 0.66831 0.71542 0.78277
 H875 H 0.63217 0.80401 0.90550
 H876 H 0.68048 0.79425 0.87993
 C877 C 0.11899 0.23699 0.37016
 C878 C 0.12471 0.25611 0.39998
 C879 C 0.09961 0.25789 0.42509
 C880 C 0.06965 0.23926 0.42182
 C881 C 0.06481 0.21868 0.39335
 C882 C 0.08901 0.21779 0.36756
 C883 C 0.14549 0.23752 0.34302
 C884 C 0.14028 0.22359 0.31053
 C885 C 0.16567 0.22526 0.28595
 C886 C 0.19686 0.24019 0.29349
 C887 C 0.20244 0.25397 0.32566
 C888 C 0.17663 0.25381 0.35003
 C889 C 0.15565 0.27270 0.40486
 C890 C 0.18141 0.27078 0.38081
 H891 H 0.16025 0.28690 0.42791
 H892 H 0.20512 0.28358 0.38599
 H893 H 0.10365 0.27315 0.44759
 H894 H 0.04187 0.20387 0.39073
 H895 H 0.16111 0.21471 0.26104
 H896 H 0.22659 0.26578 0.33121
 H897 H 0.08401 0.20168 0.34605
 H898 H 0.11660 0.21200 0.30343
 C899 C 0.62042 0.25251 0.11166
 C900 C 0.61508 0.22325 0.09169
 C901 C 0.58961 0.22307 0.06688
 C902 C 0.57081 0.25258 0.05978
 C903 C 0.57807 0.28231 0.07806
 C904 C 0.60215 0.28218 0.10396
 C905 C 0.64627 0.25096 0.13932
 C906 C 0.64942 0.27632 0.16423
 C907 C 0.67414 0.27379 0.18935
 C908 C 0.69695 0.24657 0.18958
 C909 C 0.69361 0.22087 0.16531
 C910 C 0.66762 0.22220 0.14111
 C911 C 0.63584 0.19473 0.09594
 C912 C 0.66231 0.19468 0.11933
 H913 H 0.63217 0.17245 0.08029
 H914 H 0.67825 0.17237 0.12106
 H915 H 0.58526 0.20014 0.05236
 H916 H 0.56447 0.30564 0.07305
 H917 H 0.67568 0.29331 0.20856
 H918 H 0.71113 0.19973 0.16542
 H919 H 0.60654 0.30565 0.11732
 H920 H 0.63258 0.29787 0.16510
 C921 C 0.37146 0.24864 0.87763
 C922 C 0.39185 0.27794 0.88135
 C923 C 0.41796 0.27858 0.90548
 C924 C 0.42500 0.24997 0.92538
 C925 C 0.40535 0.22066 0.92107
 C926 C 0.37882 0.22000 0.89768
 C927 C 0.34358 0.24919 0.85180
 C928 C 0.32037 0.22233 0.84760
 C929 C 0.29546 0.22379 0.82250
 C930 C 0.29336 0.25181 0.80080
 C931 C 0.31591 0.27889 0.80514
 C932 C 0.34046 0.27809 0.83076
 C933 C 0.38657 0.30618 0.86049
 C934 C 0.36180 0.30603 0.83538
 H935 H 0.40228 0.32854 0.86319
 H936 H 0.35914 0.32828 0.81948
 H937 H 0.43333 0.30119 0.90823
 H938 H 0.41033 0.19820 0.93605
 H939 H 0.27809 0.20276 0.81958
 H940 H 0.31463 0.30040 0.78811
 H941 H 0.36469 0.19672 0.89541
 H942 H 0.32094 0.20007 0.86345
 C943 C 0.38043 0.74748 0.12522
 C944 C 0.40272 0.71952 0.12213
 C945 C 0.42709 0.71892 0.09617
 C946 C 0.43055 0.74652 0.07400
 C947 C 0.40913 0.77461 0.07781
 C948 C 0.38427 0.77508 0.10289
 C949 C 0.35428 0.74684 0.15272
 C950 C 0.32884 0.77173 0.15577
 C951 C 0.30504 0.77000 0.18180
 C952 C 0.30641 0.74393 0.20580
 C953 C 0.33129 0.71877 0.20287
 C954 C 0.35472 0.71962 0.17611
 C955 C 0.40107 0.69276 0.14543
 C956 C 0.37801 0.69312 0.17220
 H957 H 0.41829 0.67146 0.14328
 H958 H 0.37808 0.67206 0.18984
 H959 H 0.44403 0.69741 0.09382
 H960 H 0.41146 0.79630 0.06113
 H961 H 0.28520 0.78890 0.18303
 H962 H 0.33194 0.69824 0.22112
 H963 H 0.36872 0.79749 0.10468
 H964 H 0.32641 0.79231 0.13796
 C965 C 0.87855 0.62934 0.75670
 C966 C 0.88020 0.60642 0.72923
 C967 C 0.90595 0.58190 0.72802
 C968 C 0.92802 0.57741 0.75563
 C969 C 0.92425 0.59842 0.78418
 C970 C 0.90041 0.62457 0.78440
 C971 C 0.85233 0.65666 0.75586
 C972 C 0.85314 0.68494 0.77763
 C973 C 0.82811 0.70990 0.77559
 C974 C 0.80110 0.70638 0.75291
 C975 C 0.79994 0.67817 0.73139
 C976 C 0.82645 0.65453 0.73124
 C977 C 0.85520 0.60713 0.70405
 C978 C 0.82802 0.62970 0.70591
 H979 H 0.85594 0.58913 0.68333
 H980 H 0.80866 0.62855 0.68650
 H981 H 0.90751 0.56504 0.70637
 H982 H 0.94051 0.59539 0.80608
 H983 H 0.82956 0.73183 0.79202
 H984 H 0.77884 0.67517 0.71415
 H985 H 0.89876 0.64028 0.80676
 H986 H 0.87342 0.68858 0.79559
 C987 C 0.38194 0.11707 0.25240
 C988 C 0.38307 0.09244 0.22643
 C989 C 0.40885 0.06793 0.22627
 C990 C 0.43146 0.06523 0.25368
 C991 C 0.42818 0.08798 0.28092
 C992 C 0.40430 0.11407 0.27995
 C993 C 0.35568 0.14426 0.25034
 C994 C 0.35700 0.17393 0.27014
 C995 C 0.33179 0.19859 0.26719
 C996 C 0.30408 0.19337 0.24575
 C997 C 0.30264 0.16403 0.22581
 C998 C 0.32926 0.14051 0.22651
 C999 C 0.35757 0.09153 0.20177
 C1000 C 0.33037 0.11413 0.20276
 H1001 H 0.35792 0.07224 0.18222
 H1002 H 0.31059 0.11170 0.18391
 H1003 H 0.41003 0.04974 0.20570
 H1004 H 0.44486 0.08636 0.30265
 H1005 H 0.33357 0.22157 0.28211
 H1006 H 0.28127 0.16009 0.20907
 H1007 H 0.40303 0.13116 0.30129
 H1008 H 0.37776 0.17881 0.28724
 C1009 C 0.12461 0.61213 0.25520
 C1010 C 0.10657 0.60754 0.22462
 C1011 C 0.08137 0.58252 0.22237
 C1012 C 0.07199 0.56338 0.25099
 C1013 C 0.08863 0.56964 0.28186
 C1014 C 0.11485 0.59329 0.28386
 C1015 C 0.15248 0.63786 0.25604
 C1016 C 0.17538 0.64065 0.28324
 C1017 C 0.20077 0.66527 0.28288
 C1018 C 0.20330 0.68830 0.25597
 C1019 C 0.18089 0.68546 0.22860
 C1020 C 0.15647 0.65963 0.22784
 C1021 C 0.11302 0.62871 0.19684
 C1022 C 0.13667 0.65491 0.19880
 H1023 H 0.09889 0.62560 0.17352
 H1024 H 0.14011 0.67117 0.17694
 H1025 H 0.06823 0.57888 0.19854
 H1026 H 0.08189 0.55573 0.30455
 H1027 H 0.21843 0.66650 0.30380
 H1028 H 0.18265 0.70323 0.20776
 H1029 H 0.12675 0.59697 0.30819
 H1030 H 0.17452 0.62360 0.30460
 C1031 C 0.88035 0.37370 0.23690
 C1032 C 0.88132 0.39648 0.26460
 C1033 C 0.90643 0.42162 0.26618
 C1034 C 0.92993 0.42540 0.23982
 C1035 C 0.92802 0.40381 0.21168
 C1036 C 0.90372 0.37813 0.21027
 C1037 C 0.85402 0.34632 0.23690
 C1038 C 0.85309 0.32024 0.21248
 C1039 C 0.82804 0.29530 0.21369
 C1040 C 0.80309 0.29610 0.23884
 C1041 C 0.80378 0.32176 0.26332
 C1042 C 0.82950 0.34628 0.26307
 C1043 C 0.85693 0.39439 0.29027
 C1044 C 0.83117 0.37027 0.28916
 H1045 H 0.85746 0.41202 0.31132
 H1046 H 0.81263 0.37000 0.30939
 H1047 H 0.90730 0.43869 0.28769
 H1048 H 0.94577 0.40642 0.19094
 H1049 H 0.82804 0.27530 0.19489
 H1050 H 0.78439 0.32239 0.28273
 H1051 H 0.90346 0.36225 0.18803
 H1052 H 0.87173 0.31834 0.19262
 C1053 C 0.11324 0.38103 0.75269
 C1054 C 0.11099 0.40370 0.72497
 C1055 C 0.08652 0.42957 0.72497
 C1056 C 0.06503 0.43412 0.75290
 C1057 C 0.06811 0.41238 0.78082
 C1058 C 0.09171 0.38604 0.78070
 C1059 C 0.13913 0.35326 0.75137
 C1060 C 0.14127 0.32754 0.77607
 C1061 C 0.16629 0.30265 0.77406
 C1062 C 0.19005 0.30310 0.74776
 C1063 C 0.18776 0.32806 0.72262
 C1064 C 0.16209 0.35265 0.72384
 C1065 C 0.13366 0.40090 0.69782
 C1066 C 0.15908 0.37634 0.69758
 H1067 H 0.13215 0.41840 0.67670
 H1068 H 0.17639 0.37562 0.67630
 H1069 H 0.08473 0.44670 0.70356
 H1070 H 0.05191 0.41550 0.80274
 H1071 H 0.16733 0.28306 0.79325
 H1072 H 0.20605 0.32828 0.70215
 H1073 H 0.09300 0.37024 0.80296
 H1074 H 0.12370 0.32596 0.79691
 C1075 C 0.87763 0.74596 0.38507
 C1076 C 0.90041 0.77366 0.38547
 C1077 C 0.92550 0.77574 0.41062
 C1078 C 0.92919 0.74981 0.43467
 C1079 C 0.90734 0.72184 0.43351
 C1080 C 0.88175 0.71998 0.40923
 C1081 C 0.85067 0.74512 0.35837
 C1082 C 0.82484 0.72046 0.35771
 C1083 C 0.80041 0.72071 0.33220
 C1084 C 0.80145 0.74511 0.30651
 C1085 C 0.82675 0.76995 0.30698
 C1086 C 0.85085 0.77060 0.33309
 C1087 C 0.89851 0.79870 0.36037
 C1088 C 0.87468 0.79685 0.33438
 H1089 H 0.91611 0.81976 0.36047
 H1090 H 0.87458 0.81657 0.31526
 H1091 H 0.94276 0.79711 0.41094
 H1092 H 0.90984 0.70143 0.45170
 H1093 H 0.78054 0.70181 0.33249
 H1094 H 0.82738 0.78895 0.28714
 H1095 H 0.86581 0.69778 0.40953
 H1096 H 0.82273 0.70112 0.37690
 C1097 C 0.87711 0.25616 0.61188
 C1098 C 0.90023 0.22871 0.61180
 C1099 C 0.92484 0.22623 0.58625
 C1100 C 0.92780 0.25154 0.56149
 C1101 C 0.90581 0.27942 0.56240
 C1102 C 0.88059 0.28164 0.58709
 C1103 C 0.85040 0.25718 0.63883
 C1104 C 0.82393 0.28118 0.63898
 C1105 C 0.79940 0.28072 0.66442
 C1106 C 0.80110 0.25689 0.69060
 C1107 C 0.82728 0.23298 0.69086
 C1108 C 0.85133 0.23233 0.66471
 C1109 C 0.89910 0.20431 0.63756
 C1110 C 0.87562 0.20649 0.66384
 H1111 H 0.91701 0.18348 0.63771
 H1112 H 0.87606 0.18722 0.68342
 H1113 H 0.94230 0.20500 0.58614
 H1114 H 0.90785 0.29938 0.54366
 H1115 H 0.77883 0.29885 0.66355
 H1116 H 0.82841 0.21441 0.71107
 H1117 H 0.86443 0.30368 0.58659
 H1118 H 0.82126 0.29995 0.61930
 C1119 C 0.12395 0.75581 0.62304
 C1120 C 0.09552 0.77746 0.62627
 C1121 C 0.07084 0.77835 0.60065
 C1122 C 0.07306 0.75639 0.57284
 C1123 C 0.10040 0.73393 0.57039
 C1124 C 0.12579 0.73385 0.59495
 C1125 C 0.15018 0.75625 0.65041
 C1126 C 0.18135 0.73907 0.64754
 C1127 C 0.20475 0.73987 0.67397
 C1128 C 0.19731 0.75709 0.70402
 C1129 C 0.16678 0.77485 0.70702
 C1130 C 0.14361 0.77535 0.68006
 C1131 C 0.09132 0.79710 0.65555
 C1132 C 0.11440 0.79538 0.68225
 H1133 H 0.06938 0.81338 0.65825
 H1134 H 0.10960 0.81043 0.70471
 H1135 H 0.04917 0.79507 0.60300
 H1136 H 0.10222 0.71654 0.54922
 H1137 H 0.22870 0.72681 0.67112
 H1138 H 0.16150 0.78880 0.73009
 H1139 H 0.14617 0.71589 0.59190
 H1140 H 0.18834 0.72543 0.62492
 C1141 C 0.75677 0.61890 0.12109
 C1142 C 0.73054 0.59446 0.12029
 C1143 C 0.72951 0.57028 0.09423
 C1144 C 0.75514 0.56904 0.06970
 C1145 C 0.78198 0.59216 0.07146
 C1146 C 0.78273 0.61699 0.09666
 C1147 C 0.75606 0.64530 0.14836
 C1148 C 0.77846 0.67310 0.14899
 C1149 C 0.77661 0.69712 0.17486
 C1150 C 0.75293 0.69362 0.20097
 C1151 C 0.73035 0.66630 0.20055
 C1152 C 0.73113 0.64267 0.17400
 C1153 C 0.70592 0.59392 0.14582
 C1154 C 0.70667 0.61704 0.17252
 H1155 H 0.68607 0.57497 0.14544
 H1156 H 0.68734 0.61527 0.19193
 H1157 H 0.70911 0.55190 0.09342
 H1158 H 0.80217 0.59142 0.05290
 H1159 H 0.79366 0.71861 0.17451
 H1160 H 0.71183 0.66385 0.22067
 H1161 H 0.80398 0.63414 0.09680
 H1162 H 0.79709 0.67711 0.12942
 C1163 C 0.24273 0.62527 0.88472
 C1164 C 0.26396 0.59681 0.87947
 C1165 C 0.26534 0.57083 0.90377
 C1166 C 0.24443 0.57187 0.93243
 C1167 C 0.22210 0.59912 0.93672
 C1168 C 0.22143 0.62572 0.91337
 C1169 C 0.24329 0.65326 0.85904
 C1170 C 0.22670 0.68454 0.86404
 C1171 C 0.22815 0.70986 0.83937
 C1172 C 0.24550 0.70430 0.80899
 C1173 C 0.26227 0.67349 0.80373
 C1174 C 0.26216 0.64838 0.82893
 C1175 C 0.28305 0.59410 0.84969
 C1176 C 0.28149 0.61892 0.82457
 H1177 H 0.29896 0.57211 0.84543
 H1178 H 0.29627 0.61536 0.80172
 H1179 H 0.28202 0.54931 0.89998
 H1180 H 0.20555 0.60014 0.95859
 H1181 H 0.21547 0.73382 0.84380
 H1182 H 0.27600 0.66948 0.78029
 H1183 H 0.20380 0.64611 0.91792
 H1184 H 0.21305 0.69014 0.88703
 C1185 C 0.74527 0.38445 0.87114
 C1186 C 0.77118 0.38316 0.89588
 C1187 C 0.77285 0.40807 0.92121
 C1188 C 0.74804 0.43340 0.92334
 C1189 C 0.72154 0.43378 0.89978
 C1190 C 0.72027 0.40982 0.87379
 C1191 C 0.74515 0.35816 0.84376
 C1192 C 0.72307 0.35952 0.81574
 C1193 C 0.72408 0.33442 0.79085
 C1194 C 0.74652 0.30714 0.79370
 C1195 C 0.76874 0.30555 0.82124
 C1196 C 0.76889 0.33131 0.84573
 C1197 C 0.79474 0.35660 0.89567
 C1198 C 0.79312 0.33080 0.87159
 H1199 H 0.81434 0.35539 0.91482
 H1200 H 0.81156 0.31048 0.87284
 H1201 H 0.79292 0.40721 0.93993
 H1202 H 0.70197 0.45298 0.90122
 H1203 H 0.70735 0.33629 0.76921
 H1204 H 0.78634 0.28454 0.82315
 H1205 H 0.69928 0.41127 0.85639
 H1206 H 0.70539 0.38007 0.81224
 C1207 C 0.61869 0.87110 0.25778
 C1208 C 0.61786 0.89462 0.23069
 C1209 C 0.59294 0.92002 0.22986
 C1210 C 0.56977 0.92342 0.25655
 C1211 C 0.57156 0.90107 0.28407
 C1212 C 0.59551 0.87503 0.28463
 C1213 C 0.64493 0.84366 0.25714
 C1214 C 0.64550 0.81679 0.28069
 C1215 C 0.67077 0.79208 0.27922
 C1216 C 0.69630 0.79396 0.25475
 C1217 C 0.69580 0.82025 0.23093
 C1218 C 0.66981 0.84450 0.23134
 C1219 C 0.64237 0.89317 0.20510
 C1220 C 0.66827 0.86914 0.20585
 H1221 H 0.64197 0.91137 0.18453
 H1222 H 0.68703 0.86948 0.18583
 H1223 H 0.59214 0.93775 0.20888
 H1224 H 0.55403 0.90345 0.30504
 H1225 H 0.67058 0.77152 0.29741
 H1226 H 0.71560 0.82166 0.21199
 H1227 H 0.59577 0.85862 0.30648
 H1228 H 0.62645 0.81413 0.30007
 C1229 C 0.62251 0.12334 0.74414
 C1230 C 0.59674 0.12426 0.71921
 C1231 C 0.57104 0.09957 0.71921
 C1232 C 0.56978 0.07486 0.74473
 C1233 C 0.59480 0.07462 0.76988
 C1234 C 0.62094 0.09832 0.76953
 C1235 C 0.64967 0.14982 0.74313
 C1236 C 0.67799 0.14923 0.76484
 C1237 C 0.70211 0.17498 0.76356
 C1238 C 0.69834 0.20209 0.74106
 C1239 C 0.67087 0.20260 0.71867
 C1240 C 0.64687 0.17633 0.71910
 C1241 C 0.59625 0.15038 0.69515
 C1242 C 0.62039 0.17622 0.69552
 H1243 H 0.57643 0.15130 0.67620
 H1244 H 0.61847 0.19625 0.67682
 H1245 H 0.55138 0.10028 0.70007
 H1246 H 0.59424 0.05584 0.78991
 H1247 H 0.72375 0.17392 0.78037
 H1248 H 0.66835 0.22340 0.70090
 H1249 H 0.63924 0.09699 0.78975
 H1250 H 0.68218 0.12900 0.78273
 C1251 C 0.37885 0.88280 0.75457
 C1252 C 0.37501 0.91181 0.77538
 C1253 C 0.39982 0.93736 0.77514
 C1254 C 0.42747 0.93526 0.75299
 C1255 C 0.43050 0.90719 0.73147
 C1256 C 0.40672 0.88111 0.73240
 C1257 C 0.35233 0.85575 0.75606
 C1258 C 0.35582 0.82430 0.73944
 C1259 C 0.33003 0.80023 0.74091
 C1260 C 0.30007 0.80721 0.75839
 C1261 C 0.29652 0.83795 0.77575
 C1262 C 0.32281 0.86190 0.77544
 C1263 C 0.34593 0.91560 0.79536
 C1264 C 0.32001 0.89157 0.79474
 H1265 H 0.34276 0.93793 0.81104
 H1266 H 0.29765 0.89606 0.81000
 H1267 H 0.39700 0.95947 0.79124
 H1268 H 0.45157 0.90528 0.71401
 H1269 H 0.33322 0.77620 0.72800
 H1270 H 0.27347 0.84290 0.78983
 H1271 H 0.41024 0.86026 0.71507
 H1272 H 0.37838 0.81763 0.72556
   
