data_POSCAR
  _audit_creation_date              2014-09-24
  _audit_creation_method            'ToBaCCo'
  _symmetry_space_group_name_H-M    'P1'
  _symmetry_Int_Tables_number       1
  _symmetry_cell_setting            triclinic
  loop_
  _symmetry_equiv_pos_as_xyz
 x,y,z
_cell_length_a 40.9900
_cell_length_b 40.9479
_cell_length_c 40.8651
_cell_angle_alpha 89.940900
_cell_angle_beta 90.019500
_cell_angle_gamma 90.075800
loop_
  _atom_site_label
  _atom_site_type_symbol
  _atom_site_fract_x
  _atom_site_fract_y
  _atom_site_fract_z
O1 O 0.86860 0.17176 0.79014
 O2 O 0.90630 0.12890 0.78101
 O3 O 0.78645 0.11928 0.83048
 O4 O 0.77563 0.08827 0.87410
 O5 O 0.81944 0.20909 0.87244
 O6 O 0.86264 0.22125 0.91149
 O7 O 0.87752 0.04324 0.92060
 O8 O 0.84100 0.03140 0.87781
 O9 O 0.95788 0.08880 0.87646
 O10 O 0.96499 0.13628 0.84010
 O11 O 0.91509 0.13161 0.96040
 O12 O 0.86813 0.16171 0.97179
 O13 O 0.87559 0.08273 0.95968
 O14 O 0.83268 0.12748 0.96799
 O15 O 0.95444 0.13135 0.92122
 O16 O 0.96184 0.17068 0.87454
 O17 O 0.92212 0.04684 0.87727
 O18 O 0.87825 0.03332 0.83928
 O19 O 0.86899 0.21139 0.82920
 O20 O 0.89855 0.22525 0.87680
 O21 O 0.78356 0.16705 0.87641
 O22 O 0.77960 0.12018 0.91449
 O23 O 0.82518 0.12420 0.79085
 O24 O 0.87252 0.08995 0.78231
 Zr25 Zr 0.86929 0.12807 0.81702
 O26 O 0.90223 0.10037 0.84507
 Zr27 Zr 0.81235 0.12456 0.87464
 O28 O 0.84251 0.09581 0.90488
 Zr29 Zr 0.86533 0.18593 0.87385
 O30 O 0.89761 0.16040 0.90479
 Zr31 Zr 0.87599 0.06940 0.87646
 O32 O 0.84279 0.09461 0.84583
 Zr33 Zr 0.92871 0.13099 0.87659
 O34 O 0.89886 0.15940 0.84533
 Zr35 Zr 0.87143 0.12696 0.93374
 O36 O 0.83864 0.15581 0.90589
 O37 O 0.83698 0.15655 0.84376
 O38 O 0.90427 0.09852 0.90728
 C39 C 0.86977 0.20170 0.79929
 C40 C 0.79555 0.12033 0.80039
 C41 C 0.79027 0.19761 0.87423
 C42 C 0.87760 0.05282 0.95049
 C43 C 0.95144 0.05820 0.87761
 C44 C 0.94502 0.13214 0.95116
 H45 H 0.91684 0.08816 0.83029
 H46 H 0.90985 0.17621 0.91834
 H47 H 0.82241 0.16935 0.82930
 H48 H 0.82887 0.08099 0.91824
 H49 H 0.82395 0.03700 0.86157
 H50 H 0.78532 0.06822 0.88343
 H51 H 0.95868 0.18414 0.89439
 H52 H 0.91946 0.21689 0.86823
 H53 H 0.89478 0.04007 0.82301
 H54 H 0.85774 0.07238 0.78994
 H55 H 0.87585 0.18270 0.96268
 H56 H 0.84528 0.21399 0.92672
 H57 H 0.92314 0.14434 0.78893
 H58 H 0.96159 0.11885 0.82371
 H59 H 0.78392 0.13876 0.92937
 H60 H 0.82104 0.10636 0.96641
 O61 O 0.82837 0.70784 0.36787
 O62 O 0.87171 0.72029 0.40564
 O63 O 0.87935 0.66733 0.28612
 O64 O 0.91328 0.62592 0.27674
 O65 O 0.79395 0.61818 0.32495
 O66 O 0.78357 0.58608 0.37161
 O67 O 0.96364 0.58505 0.37491
 O68 O 0.97216 0.62846 0.33948
 O69 O 0.91866 0.63053 0.45879
 O70 O 0.87168 0.66313 0.46735
 O71 O 0.88108 0.54280 0.42102
 O72 O 0.84638 0.52890 0.37347
 O73 O 0.92665 0.54421 0.38007
 O74 O 0.88222 0.53023 0.33975
 O75 O 0.87698 0.58339 0.45861
 O76 O 0.83614 0.62969 0.46405
 O77 O 0.95924 0.62674 0.42108
 O78 O 0.96907 0.66676 0.37576
 O79 O 0.79070 0.66693 0.36841
 O80 O 0.78291 0.62208 0.40706
 O81 O 0.83411 0.62089 0.28659
 O82 O 0.88112 0.58350 0.28238
 O83 O 0.87786 0.70799 0.32410
 O84 O 0.90797 0.72194 0.37121
 Zr85 Zr 0.87349 0.68366 0.36923
 O86 O 0.90392 0.65836 0.40194
 Zr87 Zr 0.87753 0.62426 0.31404
 O88 O 0.90890 0.59661 0.34411
 Zr89 Zr 0.81864 0.62384 0.36977
 O90 O 0.84697 0.59544 0.40212
 Zr91 Zr 0.93517 0.62751 0.37553
 O92 O 0.90715 0.65559 0.34240
 Zr93 Zr 0.87574 0.62669 0.43093
 O94 O 0.84472 0.65527 0.40106
 Zr95 Zr 0.88088 0.56736 0.37575
 O96 O 0.84935 0.59245 0.34310
 O97 O 0.84521 0.65429 0.33895
 O98 O 0.90881 0.59674 0.40644
 C99 C 0.79889 0.69724 0.36795
 C100 C 0.87988 0.69753 0.29453
 C101 C 0.80408 0.61806 0.29519
 C102 C 0.95618 0.55491 0.37891
 C103 C 0.94883 0.62884 0.45062
 C104 C 0.87976 0.55321 0.45062
 H105 H 0.91608 0.67420 0.41549
 H106 H 0.83240 0.58162 0.41554
 H107 H 0.83143 0.66721 0.32384
 H108 H 0.92369 0.58352 0.33028
 H109 H 0.96420 0.64266 0.32154
 H110 H 0.93310 0.61522 0.28540
 H111 H 0.82295 0.60958 0.46171
 H112 H 0.78827 0.63974 0.42271
 H113 H 0.96569 0.67988 0.39578
 H114 H 0.92874 0.71255 0.36337
 H115 H 0.83023 0.53237 0.39111
 H116 H 0.79444 0.56649 0.36266
 H117 H 0.85506 0.71332 0.42176
 H118 H 0.88387 0.68246 0.45953
 H119 H 0.86414 0.56771 0.28925
 H120 H 0.90132 0.53430 0.32554
 O121 O 0.37227 0.16829 0.28783
 O122 O 0.41014 0.12528 0.27790
 O123 O 0.29008 0.11455 0.32654
 O124 O 0.27958 0.08203 0.36943
 O125 O 0.32274 0.20325 0.37107
 O126 O 0.36592 0.21458 0.41040
 O127 O 0.37905 0.03662 0.41594
 O128 O 0.34565 0.02504 0.37160
 O129 O 0.46154 0.08385 0.37056
 O130 O 0.46907 0.13219 0.33779
 O131 O 0.41804 0.12602 0.45730
 O132 O 0.36913 0.15462 0.46856
 O133 O 0.38188 0.07556 0.45522
 O134 O 0.33652 0.11785 0.46523
 O135 O 0.45755 0.12492 0.41832
 O136 O 0.46479 0.16590 0.37226
 O137 O 0.42600 0.04193 0.37663
 O138 O 0.38314 0.02952 0.33361
 O139 O 0.37250 0.20693 0.32787
 O140 O 0.40132 0.22002 0.37560
 O141 O 0.28682 0.16107 0.37371
 O142 O 0.28275 0.11355 0.41049
 O143 O 0.32902 0.12021 0.28720
 O144 O 0.37637 0.08649 0.27817
 Zr145 Zr 0.37295 0.12380 0.31371
 O146 O 0.40583 0.09554 0.34140
 Zr147 Zr 0.31580 0.11878 0.37100
 O148 O 0.34591 0.08962 0.40096
 Zr149 Zr 0.36864 0.18032 0.37179
 O150 O 0.40092 0.15437 0.40224
 Zr151 Zr 0.37969 0.06390 0.37233
 O152 O 0.34657 0.08959 0.34189
 Zr153 Zr 0.43217 0.12575 0.37342
 O154 O 0.40235 0.15466 0.34269
 Zr155 Zr 0.37475 0.12022 0.43044
 O156 O 0.34191 0.14940 0.40301
 O157 O 0.34044 0.15157 0.34094
 O158 O 0.40783 0.09267 0.40351
 C159 C 0.37350 0.19804 0.29773
 C160 C 0.29932 0.11618 0.29649
 C161 C 0.29363 0.19167 0.37253
 C162 C 0.38237 0.04555 0.44592
 C163 C 0.45514 0.05350 0.37474
 C164 C 0.44798 0.12600 0.44821
 H165 H 0.42049 0.08362 0.32642
 H166 H 0.41305 0.17007 0.41603
 H167 H 0.32589 0.16467 0.32672
 H168 H 0.33231 0.07450 0.41402
 H169 H 0.32838 0.03119 0.35581
 H170 H 0.28952 0.06193 0.37838
 H171 H 0.46230 0.17823 0.39292
 H172 H 0.42261 0.21182 0.36785
 H173 H 0.40394 0.03305 0.32186
 H174 H 0.36302 0.06803 0.28629
 H175 H 0.37973 0.17504 0.46119
 H176 H 0.34870 0.20680 0.42552
 H177 H 0.42634 0.14153 0.28550
 H178 H 0.46433 0.11701 0.31958
 H179 H 0.28803 0.13090 0.42649
 H180 H 0.32621 0.09605 0.46363
 O181 O 0.12401 0.32885 0.29340
 O182 O 0.08781 0.37684 0.28658
 O183 O 0.20907 0.36934 0.33692
 O184 O 0.22239 0.39743 0.38162
 O185 O 0.16149 0.28352 0.38081
 O186 O 0.11300 0.27668 0.41271
 O187 O 0.12583 0.45413 0.42787
 O188 O 0.16741 0.46153 0.38812
 O189 O 0.04352 0.42369 0.38293
 O190 O 0.03265 0.37896 0.33904
 O191 O 0.07591 0.37257 0.46281
 O192 O 0.12093 0.33083 0.47130
 O193 O 0.12327 0.41363 0.46595
 O194 O 0.15458 0.36651 0.47696
 O195 O 0.03780 0.37495 0.42243
 O196 O 0.02434 0.34642 0.37512
 O197 O 0.08561 0.45940 0.38051
 O198 O 0.13413 0.46650 0.34684
 O199 O 0.12007 0.28850 0.33159
 O200 O 0.08001 0.28046 0.37457
 O201 O 0.20375 0.31918 0.37822
 O202 O 0.21401 0.36086 0.42035
 O203 O 0.17087 0.37542 0.29687
 O204 O 0.12663 0.40797 0.28415
 Zr205 Zr 0.12580 0.37217 0.32132
 O206 O 0.09736 0.40442 0.34949
 Zr207 Zr 0.18160 0.36567 0.38024
 O208 O 0.15528 0.39743 0.41103
 Zr209 Zr 0.11994 0.31318 0.37673
 O210 O 0.09074 0.34248 0.40714
 Zr211 Zr 0.12715 0.42964 0.38272
 O212 O 0.15634 0.40054 0.35172
 Zr213 Zr 0.06543 0.37725 0.37909
 O214 O 0.09132 0.34480 0.34806
 Zr215 Zr 0.12082 0.37050 0.43803
 O216 O 0.15005 0.33815 0.41015
 O217 O 0.15309 0.33890 0.34810
 O218 O 0.09355 0.40446 0.41163
 C219 C 0.12185 0.29871 0.30193
 C220 C 0.20052 0.37391 0.30701
 C221 C 0.19203 0.28999 0.37911
 C222 C 0.12459 0.44383 0.45752
 C223 C 0.05512 0.45290 0.38251
 C224 C 0.04628 0.37326 0.45266
 H225 H 0.08551 0.41943 0.33475
 H226 H 0.07567 0.32808 0.41937
 H227 H 0.16686 0.32518 0.33388
 H228 H 0.17039 0.40952 0.42549
 H229 H 0.18488 0.45311 0.37368
 H230 H 0.21714 0.41557 0.39668
 H231 H 0.03227 0.32409 0.37955
 H232 H 0.06617 0.28742 0.35597
 H233 H 0.11610 0.46514 0.33080
 H234 H 0.13505 0.42804 0.29456
 H235 H 0.10054 0.31832 0.46794
 H236 H 0.12789 0.28204 0.43101
 H237 H 0.07144 0.35981 0.29178
 H238 H 0.03485 0.40054 0.32837
 H239 H 0.20602 0.34244 0.43390
 H240 H 0.17541 0.37587 0.46921
 O241 O 0.62775 0.83345 0.28772
 O242 O 0.59138 0.87932 0.28062
 O243 O 0.71303 0.87489 0.32906
 O244 O 0.72622 0.90545 0.37219
 O245 O 0.66979 0.78911 0.37001
 O246 O 0.62426 0.78004 0.40670
 O247 O 0.62932 0.95881 0.42179
 O248 O 0.66891 0.96761 0.38053
 O249 O 0.54634 0.92449 0.37910
 O250 O 0.53323 0.88081 0.33972
 O251 O 0.58398 0.87353 0.45922
 O252 O 0.62762 0.83937 0.47015
 O253 O 0.62946 0.91845 0.46008
 O254 O 0.66648 0.86821 0.46655
 O255 O 0.54451 0.87763 0.42031
 O256 O 0.53315 0.84332 0.37161
 O257 O 0.58699 0.96183 0.37586
 O258 O 0.63354 0.97112 0.34081
 O259 O 0.62432 0.79291 0.32571
 O260 O 0.58747 0.78397 0.37120
 O261 O 0.71069 0.82671 0.37194
 O262 O 0.72002 0.87001 0.41266
 O263 O 0.67375 0.88016 0.28995
 O264 O 0.62747 0.91427 0.28028
 Zr265 Zr 0.62924 0.87669 0.31566
 O266 O 0.60009 0.90726 0.34484
 Zr267 Zr 0.68669 0.87215 0.37308
 O268 O 0.66022 0.90323 0.40445
 Zr269 Zr 0.62691 0.81731 0.37091
 O270 O 0.59819 0.84545 0.40291
 Zr271 Zr 0.62987 0.93398 0.37688
 O272 O 0.65956 0.90609 0.34517
 Zr273 Zr 0.57030 0.87903 0.37577
 O274 O 0.59645 0.84820 0.34332
 Zr275 Zr 0.62799 0.87485 0.43265
 O276 O 0.65701 0.84319 0.40366
 O277 O 0.65830 0.84433 0.34158
 O278 O 0.59843 0.90759 0.40721
 C279 C 0.62611 0.80320 0.29606
 C280 C 0.70370 0.87857 0.29928
 C281 C 0.70007 0.79720 0.37044
 C282 C 0.62942 0.94864 0.45150
 C283 C 0.55681 0.95414 0.37840
 C284 C 0.55398 0.87473 0.45013
 H285 H 0.58712 0.92167 0.33046
 H286 H 0.58455 0.83049 0.41612
 H287 H 0.67188 0.83085 0.32685
 H288 H 0.67537 0.91608 0.41820
 H289 H 0.68603 0.96005 0.36522
 H290 H 0.72064 0.92386 0.38679
 H291 H 0.53720 0.82649 0.38850
 H292 H 0.57127 0.79230 0.35528
 H293 H 0.61583 0.96793 0.32468
 H294 H 0.64031 0.93256 0.28938
 H295 H 0.62197 0.81847 0.45952
 H296 H 0.64246 0.78377 0.42219
 H297 H 0.57393 0.86441 0.28826
 H298 H 0.53936 0.89768 0.32352
 H299 H 0.71345 0.85135 0.42662
 H300 H 0.68171 0.88676 0.46408
 O301 O 0.63006 0.67199 0.20782
 O302 O 0.59278 0.62672 0.21868
 O303 O 0.71211 0.62332 0.16561
 O304 O 0.72190 0.59132 0.12291
 O305 O 0.67131 0.71009 0.11837
 O306 O 0.62415 0.72093 0.08794
 O307 O 0.62110 0.54127 0.07843
 O308 O 0.66120 0.53198 0.11951
 O309 O 0.54119 0.58173 0.12889
 O310 O 0.53049 0.62682 0.16093
 O311 O 0.57684 0.62039 0.04134
 O312 O 0.62264 0.66279 0.03029
 O313 O 0.62682 0.58021 0.03931
 O314 O 0.65446 0.62786 0.02492
 O315 O 0.53974 0.62542 0.08216
 O316 O 0.53450 0.66482 0.13061
 O317 O 0.57940 0.54195 0.12320
 O318 O 0.62570 0.53156 0.16011
 O319 O 0.62872 0.71083 0.16795
 O320 O 0.58929 0.71905 0.12396
 O321 O 0.71048 0.67089 0.12122
 O322 O 0.71672 0.62539 0.08217
 O323 O 0.67432 0.62252 0.20638
 O324 O 0.62805 0.59184 0.21957
 Zr325 Zr 0.62929 0.62732 0.18209
 O326 O 0.59747 0.59698 0.15546
 Zr327 Zr 0.68423 0.62662 0.12249
 O328 O 0.65487 0.59612 0.09319
 Zr329 Zr 0.62732 0.68418 0.12407
 O330 O 0.59536 0.65631 0.09477
 Zr331 Zr 0.62395 0.56753 0.12269
 O332 O 0.65635 0.59507 0.15239
 Zr333 Zr 0.56767 0.62560 0.12517
 O334 O 0.59682 0.65632 0.15485
 Zr335 Zr 0.62242 0.62446 0.06516
 O336 O 0.65473 0.65530 0.09151
 O337 O 0.65877 0.65733 0.15370
 O338 O 0.59236 0.59446 0.09324
 C339 C 0.62953 0.70184 0.19804
 C340 C 0.70383 0.62126 0.19586
 C341 C 0.70120 0.70071 0.11840
 C342 C 0.62490 0.55021 0.04847
 C343 C 0.54989 0.55167 0.12689
 C344 C 0.54735 0.62189 0.05194
 H345 H 0.58438 0.58396 0.17105
 H346 H 0.58144 0.67100 0.08161
 H347 H 0.67365 0.67089 0.16711
 H348 H 0.66931 0.58254 0.07942
 H349 H 0.67857 0.53872 0.13496
 H350 H 0.71413 0.57220 0.11036
 H351 H 0.53532 0.67814 0.11041
 H352 H 0.57423 0.71299 0.14191
 H353 H 0.60707 0.53501 0.17509
 H354 H 0.63488 0.57115 0.20921
 H355 H 0.60097 0.67342 0.03056
 H356 H 0.63199 0.71087 0.06744
 H357 H 0.57761 0.64487 0.21374
 H358 H 0.54041 0.61900 0.18153
 H359 H 0.71238 0.64501 0.06868
 H360 H 0.67639 0.62285 0.03354
 O361 O 0.37402 0.82688 0.70534
 O362 O 0.40321 0.87393 0.71803
 O363 O 0.28782 0.87421 0.66120
 O364 O 0.27725 0.90458 0.61760
 O365 O 0.32868 0.78634 0.61942
 O366 O 0.37499 0.77715 0.58455
 O367 O 0.37876 0.95557 0.57487
 O368 O 0.33773 0.96460 0.61534
 O369 O 0.45840 0.91637 0.62071
 O370 O 0.46530 0.86926 0.66202
 O371 O 0.42310 0.87167 0.53786
 O372 O 0.37658 0.83478 0.52617
 O373 O 0.38161 0.91620 0.53587
 O374 O 0.34281 0.87078 0.52404
 O375 O 0.46051 0.86962 0.57892
 O376 O 0.47004 0.83689 0.62588
 O377 O 0.41942 0.95578 0.62225
 O378 O 0.37331 0.96627 0.65580
 O379 O 0.37249 0.78696 0.66666
 O380 O 0.40990 0.77693 0.62229
 O381 O 0.28990 0.82584 0.61513
 O382 O 0.28393 0.87211 0.57764
 O383 O 0.32448 0.86988 0.70265
 O384 O 0.36840 0.90944 0.71277
 Zr385 Zr 0.37002 0.87065 0.67865
 O386 O 0.40234 0.90065 0.65203
 Zr387 Zr 0.31580 0.87031 0.61832
 O388 O 0.34536 0.90094 0.58920
 Zr389 Zr 0.37273 0.81271 0.62196
 O390 O 0.40474 0.84039 0.59258
 Zr391 Zr 0.37547 0.92962 0.61922
 O392 O 0.34274 0.90221 0.64849
 Zr393 Zr 0.43244 0.87193 0.62209
 O394 O 0.40308 0.84147 0.65201
 Zr395 Zr 0.37790 0.87198 0.56208
 O396 O 0.34572 0.84110 0.58853
 O397 O 0.34097 0.84003 0.65045
 O398 O 0.40734 0.90257 0.59016
 C399 C 0.37436 0.79678 0.69646
 C400 C 0.29513 0.87199 0.69170
 C401 C 0.29897 0.79579 0.61628
 C402 C 0.38186 0.94623 0.54501
 C403 C 0.44923 0.94635 0.62113
 C404 C 0.45251 0.87031 0.54849
 H405 H 0.41538 0.91392 0.66742
 H406 H 0.41875 0.82533 0.57998
 H407 H 0.32658 0.82600 0.66394
 H408 H 0.33161 0.91481 0.57499
 H409 H 0.32062 0.95821 0.63123
 H410 H 0.28558 0.92454 0.60680
 H411 H 0.46180 0.81674 0.61549
 H412 H 0.42533 0.78304 0.63991
 H413 H 0.38668 0.95901 0.67457
 H414 H 0.35103 0.92452 0.70536
 H415 H 0.39353 0.81855 0.53185
 H416 H 0.36038 0.78475 0.56683
 H417 H 0.42459 0.86725 0.70914
 H418 H 0.46489 0.89048 0.67357
 H419 H 0.29367 0.85805 0.56062
 H420 H 0.32859 0.89014 0.52636
 O421 O 0.87018 0.33014 0.70875
 O422 O 0.90110 0.37599 0.72171
 O423 O 0.78332 0.37657 0.66870
 O424 O 0.77272 0.41168 0.62795
 O425 O 0.82276 0.29262 0.62303
 O426 O 0.86834 0.28330 0.58718
 O427 O 0.87162 0.46344 0.58324
 O428 O 0.83344 0.47140 0.62499
 O429 O 0.95347 0.42136 0.62376
 O430 O 0.96234 0.37439 0.66290
 O431 O 0.91530 0.37669 0.54147
 O432 O 0.86765 0.34676 0.52774
 O433 O 0.87543 0.42549 0.54302
 O434 O 0.83367 0.38084 0.53084
 O435 O 0.95396 0.37633 0.58135
 O436 O 0.96254 0.33988 0.62793
 O437 O 0.91490 0.46098 0.62852
 O438 O 0.86920 0.47005 0.66493
 O439 O 0.86804 0.29155 0.66874
 O440 O 0.90457 0.28331 0.62308
 O441 O 0.78412 0.33233 0.61979
 O442 O 0.77693 0.38030 0.58562
 O443 O 0.82161 0.37394 0.70897
 O444 O 0.86639 0.41243 0.71893
 Zr445 Zr 0.86635 0.37471 0.68361
 O446 O 0.89817 0.40517 0.65705
 Zr447 Zr 0.81030 0.37644 0.62492
 O448 O 0.83924 0.40808 0.59618
 Zr449 Zr 0.86702 0.31862 0.62491
 O450 O 0.89801 0.34704 0.59534
 Zr451 Zr 0.87046 0.43547 0.62630
 O452 O 0.83826 0.40724 0.65539
 Zr453 Zr 0.92703 0.37725 0.62513
 O454 O 0.89832 0.34623 0.65504
 Zr455 Zr 0.87075 0.38008 0.56696
 O456 O 0.83927 0.34819 0.59316
 O457 O 0.83637 0.34511 0.65523
 O458 O 0.90127 0.40937 0.59515
 C459 C 0.87027 0.30041 0.69880
 C460 C 0.79190 0.37472 0.69892
 C461 C 0.79309 0.30223 0.62012
 C462 C 0.87492 0.45521 0.55314
 C463 C 0.94454 0.45132 0.62592
 C464 C 0.94509 0.37538 0.55124
 H465 H 0.91181 0.41780 0.67244
 H466 H 0.91103 0.33205 0.58161
 H467 H 0.82234 0.33059 0.66856
 H468 H 0.82517 0.42256 0.58294
 H469 H 0.81619 0.46422 0.64039
 H470 H 0.78032 0.43138 0.61619
 H471 H 0.95737 0.32362 0.61080
 H472 H 0.92093 0.28972 0.63972
 H473 H 0.88528 0.46344 0.68170
 H474 H 0.84911 0.42804 0.71248
 H475 H 0.87324 0.32518 0.53692
 H476 H 0.85093 0.28904 0.57139
 H477 H 0.92197 0.36920 0.71173
 H478 H 0.96083 0.39445 0.67630
 H479 H 0.78625 0.36753 0.56739
 H480 H 0.82175 0.40176 0.53270
 O481 O 0.79302 0.87660 0.16876
 O482 O 0.78190 0.91046 0.12380
 O483 O 0.83100 0.79051 0.11907
 O484 O 0.87196 0.77993 0.08515
 O485 O 0.88022 0.82681 0.20545
 O486 O 0.91217 0.87203 0.21802
 O487 O 0.92133 0.88277 0.03801
 O488 O 0.87999 0.84256 0.02712
 O489 O 0.87942 0.96120 0.08090
 O490 O 0.84238 0.96993 0.12813
 O491 O 0.96157 0.91916 0.11936
 O492 O 0.97142 0.87154 0.15749
 O493 O 0.96061 0.87456 0.07616
 O494 O 0.97081 0.83782 0.12214
 O495 O 0.92306 0.95869 0.12505
 O496 O 0.87668 0.96741 0.16292
 O497 O 0.87603 0.92374 0.04006
 O498 O 0.83967 0.87814 0.02839
 O499 O 0.83239 0.87218 0.20780
 O500 O 0.87826 0.90904 0.21682
 O501 O 0.87658 0.78884 0.16497
 O502 O 0.91417 0.78276 0.11896
 O503 O 0.79211 0.83013 0.12015
 O504 O 0.78241 0.87812 0.08737
 Zr505 Zr 0.81848 0.87423 0.12406
 O506 O 0.84646 0.90595 0.09471
 Zr507 Zr 0.87512 0.81650 0.12157
 O508 O 0.90540 0.84528 0.09128
 Zr509 Zr 0.87624 0.87183 0.18101
 O510 O 0.90720 0.90275 0.15386
 Zr511 Zr 0.87719 0.87845 0.06418
 O512 O 0.84641 0.84646 0.09094
 Zr513 Zr 0.87851 0.93322 0.12413
 O514 O 0.84738 0.90461 0.15390
 Zr515 Zr 0.93506 0.87504 0.12080
 O516 O 0.90723 0.84370 0.15118
 O517 O 0.84525 0.84257 0.15334
 O518 O 0.90835 0.90740 0.09202
 C519 C 0.80259 0.87554 0.19871
 C520 C 0.80122 0.80015 0.11831
 C521 C 0.87976 0.79721 0.19507
 C522 C 0.95143 0.88043 0.04665
 C523 C 0.87826 0.95319 0.05056
 C524 C 0.95268 0.94915 0.12156
 H525 H 0.83162 0.92022 0.08210
 H526 H 0.92119 0.91539 0.16895
 H527 H 0.83127 0.82827 0.16699
 H528 H 0.91840 0.83115 0.07666
 H529 H 0.86463 0.82495 0.03339
 H530 H 0.88561 0.78700 0.06649
 H531 H 0.89449 0.96212 0.17838
 H532 H 0.86149 0.92537 0.21081
 H533 H 0.82429 0.89604 0.03340
 H534 H 0.79121 0.86668 0.06803
 H535 H 0.97021 0.89135 0.17128
 H536 H 0.93268 0.86539 0.20723
 H537 H 0.79232 0.93043 0.13246
 H538 H 0.82767 0.96807 0.10903
 H539 H 0.92960 0.78834 0.13675
 H540 H 0.96522 0.82172 0.10500
 O541 O 0.37700 0.33069 0.21173
 O542 O 0.41098 0.37678 0.22281
 O543 O 0.28971 0.38278 0.17776
 O544 O 0.27514 0.41353 0.13569
 O545 O 0.32550 0.29555 0.12802
 O546 O 0.36867 0.28755 0.08901
 O547 O 0.37450 0.46627 0.08764
 O548 O 0.33592 0.47279 0.13270
 O549 O 0.45704 0.42372 0.12616
 O550 O 0.46773 0.37541 0.16126
 O551 O 0.41343 0.38299 0.04302
 O552 O 0.36692 0.34927 0.03220
 O553 O 0.37002 0.42859 0.04701
 O554 O 0.33103 0.38185 0.03759
 O555 O 0.45416 0.38243 0.08066
 O556 O 0.46546 0.34225 0.12500
 O557 O 0.41881 0.46358 0.13141
 O558 O 0.37722 0.47436 0.16760
 O559 O 0.37265 0.29303 0.17101
 O560 O 0.40709 0.28574 0.12383
 O561 O 0.28725 0.33560 0.13127
 O562 O 0.27938 0.38315 0.09406
 O563 O 0.32982 0.37553 0.21561
 O564 O 0.37553 0.41189 0.22515
 Zr565 Zr 0.37309 0.37620 0.18782
 O566 O 0.40307 0.40737 0.15991
 Zr567 Zr 0.31385 0.37961 0.13252
 O568 O 0.34107 0.41133 0.10237
 Zr569 Zr 0.36998 0.32128 0.12813
 O570 O 0.39955 0.35013 0.09743
 Zr571 Zr 0.37419 0.43822 0.13077
 O572 O 0.34393 0.40972 0.16172
 Zr573 Zr 0.43010 0.37990 0.12602
 O574 O 0.40315 0.34818 0.15691
 Zr575 Zr 0.37043 0.38316 0.07109
 O576 O 0.34038 0.35136 0.09879
 O577 O 0.34130 0.34754 0.16071
 O578 O 0.40277 0.41220 0.09768
 C579 C 0.37600 0.30111 0.20118
 C580 C 0.29989 0.37983 0.20736
 C581 C 0.29582 0.30546 0.12988
 C582 C 0.37249 0.45805 0.05742
 C583 C 0.44844 0.45370 0.12916
 C584 C 0.44371 0.38364 0.05104
 H585 H 0.41730 0.41995 0.17483
 H586 H 0.41214 0.33575 0.08272
 H587 H 0.32783 0.33332 0.17491
 H588 H 0.32616 0.42595 0.09022
 H589 H 0.32132 0.46610 0.15084
 H590 H 0.28335 0.43450 0.12694
 H591 H 0.46027 0.32767 0.10642
 H592 H 0.42487 0.29257 0.13873
 H593 H 0.38333 0.46304 0.18801
 H594 H 0.35746 0.42744 0.22122
 H595 H 0.38107 0.33051 0.03769
 H596 H 0.35225 0.29576 0.07326
 H597 H 0.42992 0.36635 0.21215
 H598 H 0.46552 0.39364 0.17698
 H599 H 0.28395 0.36508 0.07865
 H600 H 0.31686 0.40085 0.04212
 O601 O 0.37240 0.67019 0.79152
 O602 O 0.40888 0.62564 0.78448
 O603 O 0.28751 0.62147 0.83110
 O604 O 0.27300 0.59456 0.87577
 O605 O 0.32440 0.71207 0.87261
 O606 O 0.36756 0.72263 0.91154
 O607 O 0.37288 0.54397 0.92496
 O608 O 0.33561 0.53342 0.88222
 O609 O 0.45584 0.58427 0.88186
 O610 O 0.46631 0.63078 0.84525
 O611 O 0.41263 0.63125 0.96400
 O612 O 0.36691 0.66417 0.97328
 O613 O 0.37075 0.58441 0.96306
 O614 O 0.33004 0.63173 0.96914
 O615 O 0.45282 0.62668 0.92635
 O616 O 0.46419 0.66568 0.87970
 O617 O 0.41742 0.54415 0.88230
 O618 O 0.37328 0.53270 0.84356
 O619 O 0.37366 0.71071 0.82962
 O620 O 0.40477 0.72311 0.87728
 O621 O 0.28596 0.67205 0.87410
 O622 O 0.27895 0.62690 0.91510
 O623 O 0.32726 0.62405 0.79228
 O624 O 0.37361 0.58814 0.78555
 Zr625 Zr 0.37090 0.62703 0.81943
 O626 O 0.40148 0.59818 0.84904
 Zr627 Zr 0.31236 0.62795 0.87558
 O628 O 0.33997 0.59813 0.90718
 Zr629 Zr 0.36877 0.68628 0.87483
 O630 O 0.39859 0.65964 0.90733
 Zr631 Zr 0.37273 0.56931 0.88028
 O632 O 0.34185 0.59571 0.84827
 Zr633 Zr 0.42881 0.62794 0.88073
 O634 O 0.40149 0.65725 0.84788
 Zr635 Zr 0.36970 0.62837 0.93614
 O636 O 0.33951 0.65847 0.90675
 O637 O 0.33953 0.65777 0.84467
 O638 O 0.40163 0.59760 0.91124
 C639 C 0.37431 0.70035 0.79990
 C640 C 0.29733 0.62115 0.80126
 C641 C 0.29464 0.70219 0.87256
 C642 C 0.37221 0.55425 0.95458
 C643 C 0.44714 0.55413 0.88276
 C644 C 0.44269 0.62811 0.95611
 H645 H 0.41575 0.58489 0.83487
 H646 H 0.41136 0.67496 0.92096
 H647 H 0.32590 0.67078 0.82950
 H648 H 0.32523 0.58433 0.92047
 H649 H 0.31910 0.53959 0.86564
 H650 H 0.28146 0.57375 0.88461
 H651 H 0.46133 0.67925 0.89951
 H652 H 0.42493 0.71323 0.86852
 H653 H 0.39109 0.53771 0.82803
 H654 H 0.35782 0.57139 0.79298
 H655 H 0.37862 0.68369 0.96517
 H656 H 0.35050 0.71599 0.92736
 H657 H 0.42599 0.64078 0.79239
 H658 H 0.46197 0.61377 0.82863
 H659 H 0.28316 0.64655 0.92856
 H660 H 0.31747 0.61112 0.96785
 O661 O 0.12173 0.67076 0.71115
 O662 O 0.08480 0.62588 0.72126
 O663 O 0.20602 0.62182 0.67230
 O664 O 0.21693 0.58811 0.63098
 O665 O 0.16797 0.70714 0.62187
 O666 O 0.12146 0.71793 0.59016
 O667 O 0.12131 0.53721 0.58531
 O668 O 0.15595 0.52886 0.63004
 O669 O 0.03607 0.57985 0.62745
 O670 O 0.02936 0.62906 0.66580
 O671 O 0.07546 0.62013 0.54345
 O672 O 0.12270 0.65606 0.53159
 O673 O 0.11929 0.57520 0.54468
 O674 O 0.15668 0.62114 0.53277
 O675 O 0.03662 0.62534 0.58284
 O676 O 0.02547 0.65883 0.62704
 O677 O 0.07446 0.53981 0.62572
 O678 O 0.11813 0.53021 0.66697
 O679 O 0.12405 0.70910 0.67081
 O680 O 0.08610 0.71748 0.62550
 O681 O 0.20659 0.66748 0.62574
 O682 O 0.21288 0.62105 0.58873
 O683 O 0.16690 0.62220 0.71188
 O684 O 0.12024 0.59093 0.72383
 Zr685 Zr 0.12255 0.62597 0.68599
 O686 O 0.09132 0.59519 0.65899
 Zr687 Zr 0.17962 0.62370 0.62829
 O688 O 0.15102 0.59249 0.59902
 Zr689 Zr 0.12347 0.68193 0.62711
 O690 O 0.09251 0.65358 0.59741
 Zr691 Zr 0.11914 0.56496 0.62836
 O692 O 0.15067 0.59313 0.65816
 Zr693 Zr 0.06306 0.62358 0.62692
 O694 O 0.09143 0.65488 0.65686
 Zr695 Zr 0.11998 0.62055 0.56922
 O696 O 0.15135 0.65204 0.59594
 O697 O 0.15346 0.65522 0.65813
 O698 O 0.08885 0.59137 0.59698
 C699 C 0.12247 0.70041 0.70097
 C700 C 0.19678 0.62078 0.70231
 C701 C 0.19774 0.69736 0.62213
 C702 C 0.12094 0.54559 0.55506
 C703 C 0.04481 0.54981 0.62625
 C704 C 0.04577 0.62343 0.55287
 H705 H 0.07749 0.58244 0.67413
 H706 H 0.07936 0.66843 0.58365
 H707 H 0.16802 0.66901 0.67162
 H708 H 0.16561 0.57830 0.58611
 H709 H 0.17295 0.53686 0.64530
 H710 H 0.20925 0.56864 0.61892
 H711 H 0.03494 0.67908 0.61794
 H712 H 0.07110 0.71274 0.64390
 H713 H 0.09785 0.53318 0.67971
 H714 H 0.12771 0.57020 0.71403
 H715 H 0.10424 0.67134 0.53442
 H716 H 0.12959 0.70729 0.57007
 H717 H 0.06841 0.64201 0.71386
 H718 H 0.03022 0.60910 0.67943
 H719 H 0.20627 0.63792 0.57268
 H720 H 0.17252 0.60371 0.53807
 O721 O 0.12369 0.16753 0.21151
 O722 O 0.08635 0.12102 0.21689
 O723 O 0.20748 0.12583 0.16751
 O724 O 0.21977 0.09779 0.12247
 O725 O 0.16488 0.21453 0.12816
 O726 O 0.11876 0.22478 0.09389
 O727 O 0.12387 0.04734 0.07199
 O728 O 0.16144 0.03614 0.11420
 O729 O 0.03920 0.08112 0.12166
 O730 O 0.03094 0.12703 0.16308
 O731 O 0.07584 0.13075 0.03976
 O732 O 0.11729 0.16819 0.02896
 O733 O 0.12356 0.08922 0.03610
 O734 O 0.15851 0.14192 0.03199
 O735 O 0.03725 0.12937 0.07977
 O736 O 0.02474 0.15896 0.12627
 O737 O 0.07925 0.04326 0.11534
 O738 O 0.12500 0.03146 0.15271
 O739 O 0.11990 0.20936 0.17493
 O740 O 0.08339 0.22130 0.13026
 O741 O 0.20528 0.17659 0.12670
 O742 O 0.21373 0.13475 0.08426
 O743 O 0.16876 0.12018 0.20706
 O744 O 0.12312 0.08693 0.21638
 Zr745 Zr 0.12416 0.12535 0.18193
 O746 O 0.09426 0.09586 0.15214
 Zr747 Zr 0.18062 0.13140 0.12393
 O748 O 0.15315 0.10196 0.09167
 Zr749 Zr 0.12170 0.18678 0.12882
 O750 O 0.09171 0.16007 0.09686
 Zr751 Zr 0.12287 0.07017 0.11817
 O752 O 0.15334 0.09665 0.15066
 Zr753 Zr 0.06418 0.12590 0.12345
 O754 O 0.09136 0.15549 0.15606
 Zr755 Zr 0.12046 0.13153 0.06534
 O756 O 0.15072 0.16159 0.09481
 O757 O 0.15325 0.15848 0.15681
 O758 O 0.09099 0.09814 0.09005
 C759 C 0.12145 0.19796 0.20415
 C760 C 0.19858 0.12109 0.19732
 C761 C 0.19508 0.20626 0.12804
 C762 C 0.12504 0.05859 0.04255
 C763 C 0.04921 0.05171 0.11792
 C764 C 0.04610 0.13077 0.04966
 H765 H 0.08137 0.08106 0.16622
 H766 H 0.07755 0.17536 0.08467
 H767 H 0.16727 0.17133 0.17171
 H768 H 0.16821 0.08986 0.07721
 H769 H 0.17839 0.04297 0.13007
 H770 H 0.21303 0.07940 0.10833
 H771 H 0.03309 0.18039 0.11898
 H772 H 0.06764 0.21355 0.14693
 H773 H 0.10576 0.03289 0.16723
 H774 H 0.13139 0.06750 0.20473
 H775 H 0.10505 0.18667 0.03849
 H776 H 0.13368 0.21875 0.07582
 H777 H 0.07049 0.13862 0.21219
 H778 H 0.03381 0.10669 0.17584
 H779 H 0.20771 0.15436 0.07143
 H780 H 0.17450 0.12393 0.03367
 O781 O 0.70095 0.37048 0.82795
 O782 O 0.71422 0.40497 0.87380
 O783 O 0.65710 0.28877 0.88167
 O784 O 0.61168 0.27707 0.90727
 O785 O 0.61443 0.32925 0.79031
 O786 O 0.57949 0.37565 0.78131
 O787 O 0.57420 0.38118 0.96045
 O788 O 0.61402 0.33970 0.96903
 O789 O 0.62370 0.45985 0.91919
 O790 O 0.65634 0.46932 0.87132
 O791 O 0.53544 0.42424 0.87595
 O792 O 0.52096 0.37959 0.84226
 O793 O 0.53451 0.38155 0.92158
 O794 O 0.52321 0.34217 0.87433
 O795 O 0.57652 0.46149 0.87794
 O796 O 0.62268 0.46783 0.83642
 O797 O 0.62100 0.42134 0.95918
 O798 O 0.65542 0.37438 0.96887
 O799 O 0.66112 0.37412 0.78934
 O800 O 0.61661 0.41101 0.78054
 O801 O 0.61541 0.29033 0.83016
 O802 O 0.57265 0.28714 0.87551
 O803 O 0.69858 0.32445 0.87346
 O804 O 0.71135 0.36963 0.91026
 Zr805 Zr 0.67562 0.37063 0.87295
 O806 O 0.65002 0.40332 0.90323
 Zr807 Zr 0.61494 0.31688 0.87445
 O808 O 0.58703 0.34674 0.90569
 Zr809 Zr 0.61747 0.37366 0.81627
 O810 O 0.58897 0.40581 0.84445
 Zr811 Zr 0.61770 0.37706 0.93344
 O812 O 0.64593 0.34391 0.90558
 Zr813 Zr 0.61950 0.43346 0.87506
 O814 O 0.64860 0.40378 0.84420
 Zr815 Zr 0.55946 0.37898 0.87674
 O816 O 0.58479 0.34665 0.84532
 O817 O 0.64631 0.34196 0.84342
 O818 O 0.58818 0.40868 0.90660
 C819 C 0.69114 0.37207 0.79807
 C820 C 0.68741 0.29532 0.87769
 C821 C 0.61493 0.29938 0.80002
 C822 C 0.54421 0.38290 0.95144
 C823 C 0.62371 0.45103 0.94943
 C824 C 0.54617 0.45363 0.87797
 H825 H 0.66597 0.41636 0.91583
 H826 H 0.57582 0.41977 0.82978
 H827 H 0.65986 0.32754 0.82974
 H828 H 0.57320 0.33304 0.92002
 H829 H 0.62874 0.32191 0.96193
 H830 H 0.60450 0.28602 0.92854
 H831 H 0.60208 0.46698 0.82383
 H832 H 0.63213 0.42797 0.78800
 H833 H 0.67316 0.38926 0.96202
 H834 H 0.70361 0.35382 0.92690
 H835 H 0.52872 0.39196 0.82297
 H836 H 0.56228 0.36047 0.78897
 H837 H 0.70945 0.42138 0.85664
 H838 H 0.67664 0.45896 0.87913
 H839 H 0.56029 0.29160 0.85517
 H840 H 0.52487 0.32875 0.89440
 O841 O 0.11965 0.83235 0.78701
 O842 O 0.08067 0.87645 0.77874
 O843 O 0.20420 0.87590 0.82008
 O844 O 0.21970 0.91051 0.86050
 O845 O 0.16395 0.79402 0.87286
 O846 O 0.11952 0.78769 0.90988
 O847 O 0.12766 0.96608 0.91256
 O848 O 0.16437 0.97064 0.86416
 O849 O 0.04069 0.92929 0.87577
 O850 O 0.02472 0.88567 0.84177
 O851 O 0.08221 0.88680 0.95737
 O852 O 0.12781 0.84768 0.96611
 O853 O 0.12915 0.92864 0.95337
 O854 O 0.16385 0.88067 0.96295
 O855 O 0.04119 0.88547 0.91996
 O856 O 0.02874 0.84682 0.87269
 O857 O 0.08115 0.96679 0.87105
 O858 O 0.12204 0.97580 0.83287
 O859 O 0.11762 0.79448 0.82785
 O860 O 0.08174 0.78879 0.87514
 O861 O 0.20476 0.83133 0.86750
 O862 O 0.21683 0.87775 0.90327
 O863 O 0.16284 0.88025 0.78353
 O864 O 0.11593 0.91323 0.77481
 Zr865 Zr 0.12029 0.87746 0.81189
 O866 O 0.09274 0.91004 0.84035
 Zr867 Zr 0.18078 0.87696 0.86614
 O868 O 0.15586 0.90984 0.89702
 Zr869 Zr 0.12101 0.82211 0.87133
 O870 O 0.09368 0.85238 0.90270
 Zr871 Zr 0.12401 0.93877 0.86914
 O872 O 0.15189 0.90881 0.83759
 Zr873 Zr 0.06472 0.88391 0.87442
 O874 O 0.08910 0.85086 0.84295
 Zr875 Zr 0.12508 0.88354 0.92884
 O876 O 0.15282 0.85037 0.90033
 O877 O 0.15074 0.84708 0.83870
 O878 O 0.09429 0.91440 0.90260
 C879 C 0.11862 0.80275 0.79749
 C880 C 0.19316 0.87762 0.79057
 C881 C 0.19420 0.80181 0.87017
 C882 C 0.12981 0.95829 0.94295
 C883 C 0.05108 0.95894 0.87488
 C884 C 0.05185 0.88724 0.94943
 H885 H 0.07879 0.92352 0.82598
 H886 H 0.08037 0.83855 0.91738
 H887 H 0.16396 0.83253 0.82487
 H888 H 0.17186 0.92344 0.90895
 H889 H 0.17801 0.96231 0.84598
 H890 H 0.21425 0.93018 0.87341
 H891 H 0.03178 0.83270 0.89210
 H892 H 0.06529 0.79554 0.85874
 H893 H 0.10736 0.96824 0.81524
 H894 H 0.13107 0.93113 0.78077
 H895 H 0.10886 0.83290 0.96361
 H896 H 0.13483 0.79571 0.92682
 H897 H 0.06517 0.85977 0.78695
 H898 H 0.03305 0.89386 0.82061
 H899 H 0.21027 0.86138 0.91987
 H900 H 0.18069 0.89663 0.95621
 O901 O 0.70469 0.12602 0.67142
 O902 O 0.71562 0.09095 0.62582
 O903 O 0.66393 0.21012 0.62243
 O904 O 0.61966 0.22211 0.59259
 O905 O 0.62000 0.16939 0.71032
 O906 O 0.58218 0.12347 0.71772
 O907 O 0.57625 0.12265 0.54016
 O908 O 0.61844 0.16144 0.53168
 O909 O 0.62516 0.04015 0.58006
 O910 O 0.65654 0.02890 0.62664
 O911 O 0.53717 0.07765 0.62275
 O912 O 0.52808 0.12526 0.66228
 O913 O 0.53673 0.12412 0.57925
 O914 O 0.52348 0.15598 0.62454
 O915 O 0.57721 0.03935 0.62124
 O916 O 0.62398 0.03154 0.66264
 O917 O 0.62101 0.07910 0.54054
 O918 O 0.65731 0.12448 0.53053
 O919 O 0.66506 0.12147 0.71017
 O920 O 0.61896 0.09001 0.72129
 O921 O 0.61902 0.20888 0.67109
 O922 O 0.58033 0.21569 0.62540
 O923 O 0.70411 0.17194 0.62536
 O924 O 0.71449 0.12688 0.58946
 Zr925 Zr 0.67889 0.12716 0.62689
 O926 O 0.65201 0.09592 0.59626
 Zr927 Zr 0.62042 0.18310 0.62653
 O928 O 0.59110 0.15437 0.59550
 Zr929 Zr 0.62108 0.12539 0.68376
 O930 O 0.59150 0.09407 0.65539
 Zr931 Zr 0.62021 0.12342 0.56673
 O932 O 0.64997 0.15526 0.59480
 Zr933 Zr 0.62097 0.06614 0.62419
 O934 O 0.65092 0.09455 0.65538
 Zr935 Zr 0.56251 0.12234 0.62378
 O936 O 0.58923 0.15386 0.65507
 O937 O 0.65107 0.15670 0.65719
 O938 O 0.58990 0.09212 0.59322
 C939 C 0.69510 0.12243 0.70113
 C940 C 0.69407 0.20152 0.62257
 C941 C 0.61888 0.19933 0.70102
 C942 C 0.54631 0.12391 0.54932
 C943 C 0.62415 0.04936 0.55004
 C944 C 0.54711 0.04799 0.62119
 H945 H 0.66750 0.08277 0.58330
 H946 H 0.57820 0.08011 0.66995
 H947 H 0.66504 0.17071 0.67105
 H948 H 0.57758 0.16894 0.58179
 H949 H 0.63447 0.17816 0.53868
 H950 H 0.61007 0.21365 0.57208
 H951 H 0.60266 0.03092 0.67397
 H952 H 0.62649 0.06939 0.71132
 H953 H 0.67441 0.10867 0.53681
 H954 H 0.70653 0.14183 0.57216
 H955 H 0.53015 0.10530 0.67577
 H956 H 0.56645 0.14062 0.71122
 H957 H 0.70943 0.07421 0.64219
 H958 H 0.67652 0.03771 0.61638
 H959 H 0.56612 0.21016 0.64421
 H960 H 0.53181 0.17653 0.61502
 C961 C 0.35236 0.72447 0.74901
 C962 C 0.35242 0.74760 0.72395
 C963 C 0.37661 0.77174 0.72245
 C964 C 0.40210 0.77163 0.74594
 C965 C 0.40199 0.74812 0.77151
 C966 C 0.37647 0.72480 0.77335
 C967 C 0.42822 0.74804 0.79371
 N968 N 0.45261 0.77021 0.79061
 N969 N 0.45276 0.79220 0.76660
 C970 C 0.42851 0.79353 0.74408
 H971 H 0.33290 0.70656 0.74983
 H972 H 0.33297 0.74712 0.70600
 H973 H 0.43000 0.73014 0.81301
 H974 H 0.43057 0.81114 0.72453
 C975 C 0.35234 0.25128 0.22571
 C976 C 0.35166 0.22637 0.24899
 C977 C 0.37618 0.22392 0.27271
 C978 C 0.40268 0.24620 0.27208
 C979 C 0.40338 0.27155 0.24840
 C980 C 0.37758 0.27444 0.22549
 C981 C 0.43062 0.29247 0.24773
 N982 N 0.45516 0.28843 0.26961
 N983 N 0.45449 0.26466 0.29184
 C984 C 0.42925 0.24332 0.29370
 H985 H 0.33259 0.25295 0.20814
 H986 H 0.33145 0.20930 0.24893
 H987 H 0.43304 0.31148 0.22960
 H988 H 0.43058 0.22391 0.31153
 C989 C 0.60623 0.72806 0.24704
 C990 C 0.60502 0.75292 0.27023
 C991 C 0.62807 0.77821 0.27007
 C992 C 0.65378 0.77763 0.24673
 C993 C 0.65491 0.75233 0.22305
 C994 C 0.63054 0.72774 0.22301
 C995 C 0.68129 0.75174 0.20099
 N996 N 0.70478 0.77500 0.20257
 N997 N 0.70387 0.79861 0.22490
 C998 C 0.67938 0.80061 0.24709
 H999 H 0.58767 0.70919 0.24749
 H1000 H 0.58571 0.75258 0.28835
 H1001 H 0.68392 0.73267 0.18295
 H1002 H 0.68071 0.81970 0.26514
 C1003 C 0.09377 0.23912 0.23813
 C1004 C 0.09404 0.26429 0.26107
 C1005 C 0.12317 0.27372 0.27620
 C1006 C 0.15264 0.25757 0.26811
 C1007 C 0.15203 0.23079 0.24623
 C1008 C 0.12238 0.22199 0.23077
 C1009 C 0.18146 0.21430 0.23983
 N1010 N 0.20970 0.22501 0.25342
 N1011 N 0.21045 0.25093 0.27305
 C1012 C 0.18294 0.26760 0.28079
 H1013 H 0.07106 0.23287 0.22607
 H1014 H 0.07140 0.27654 0.26702
 H1015 H 0.18239 0.19334 0.22385
 H1016 H 0.18506 0.28842 0.29679
 C1017 C 0.09303 0.75799 0.76608
 C1018 C 0.09398 0.73316 0.74275
 C1019 C 0.12283 0.72635 0.72574
 C1020 C 0.15155 0.74409 0.73292
 C1021 C 0.15071 0.76906 0.75685
 C1022 C 0.12094 0.77643 0.77303
 C1023 C 0.18008 0.78515 0.76442
 N1024 N 0.20808 0.77697 0.74879
 N1025 N 0.20873 0.75379 0.72600
 C1026 C 0.18145 0.73711 0.71748
 H1027 H 0.07029 0.76304 0.77860
 H1028 H 0.07196 0.71941 0.73763
 H1029 H 0.18119 0.80405 0.78264
 H1030 H 0.18352 0.71836 0.69903
 C1031 C 0.84740 0.25136 0.72533
 C1032 C 0.84713 0.22769 0.74982
 C1033 C 0.87184 0.22670 0.77347
 C1034 C 0.89814 0.24911 0.77157
 C1035 C 0.89843 0.27318 0.74663
 C1036 C 0.87242 0.27463 0.72383
 C1037 C 0.92545 0.29432 0.74468
 N1038 N 0.95018 0.29164 0.76656
 N1039 N 0.94989 0.26904 0.79000
 C1040 C 0.92486 0.24758 0.79313
 H1041 H 0.82751 0.25203 0.70788
 H1042 H 0.82712 0.21041 0.75073
 H1043 H 0.92754 0.31241 0.72557
 H1044 H 0.92647 0.22915 0.81195
 C1045 C 0.74369 0.39127 0.77549
 C1046 C 0.76798 0.39196 0.75168
 C1047 C 0.76583 0.37223 0.72379
 C1048 C 0.73916 0.35030 0.72052
 C1049 C 0.71391 0.35025 0.74430
 C1050 C 0.71622 0.37115 0.77199
 C1051 C 0.68786 0.32821 0.74005
 N1052 N 0.68751 0.30742 0.71428
 N1053 N 0.71161 0.30687 0.69252
 C1054 C 0.73747 0.32735 0.69490
 H1055 H 0.74605 0.40711 0.79658
 H1056 H 0.78846 0.40842 0.75485
 H1057 H 0.66808 0.32660 0.75721
 H1058 H 0.75674 0.32477 0.67722
 C1059 C 0.24695 0.64267 0.72749
 C1060 C 0.27145 0.64255 0.75112
 C1061 C 0.27224 0.61847 0.77548
 C1062 C 0.24851 0.59326 0.77525
 C1063 C 0.22357 0.59336 0.75114
 C1064 C 0.22252 0.61872 0.72751
 C1065 C 0.20117 0.56733 0.75083
 N1066 N 0.20340 0.54319 0.77345
 N1067 N 0.22674 0.54312 0.79610
 C1068 C 0.24946 0.56716 0.79766
 H1069 H 0.24667 0.66204 0.70940
 H1070 H 0.28946 0.66193 0.75091
 H1071 H 0.18237 0.56552 0.73245
 H1072 H 0.26840 0.56518 0.81593
 C1073 C 0.24850 0.14186 0.22418
 C1074 C 0.27280 0.14061 0.24804
 C1075 C 0.27389 0.11501 0.27081
 C1076 C 0.25059 0.08949 0.26867
 C1077 C 0.22594 0.09066 0.24424
 C1078 C 0.22456 0.11749 0.22226
 C1079 C 0.20417 0.06419 0.24191
 N1080 N 0.20661 0.03873 0.26299
 N1081 N 0.22959 0.03772 0.28599
 C1082 C 0.25176 0.06208 0.28943
 H1083 H 0.24797 0.16245 0.20750
 H1084 H 0.29048 0.16027 0.24922
 H1085 H 0.18578 0.06308 0.22307
 H1086 H 0.27044 0.05937 0.30787
 C1087 C 0.74432 0.14451 0.72802
 C1088 C 0.76868 0.14383 0.75179
 C1089 C 0.77000 0.11862 0.77496
 C1090 C 0.74678 0.09299 0.77349
 C1091 C 0.72202 0.09359 0.74916
 C1092 C 0.72053 0.11996 0.72666
 C1093 C 0.70034 0.06700 0.74744
 N1094 N 0.70297 0.04196 0.76901
 N1095 N 0.72607 0.04148 0.79191
 C1096 C 0.74816 0.06598 0.79476
 H1097 H 0.74372 0.16469 0.71085
 H1098 H 0.78630 0.16356 0.75252
 H1099 H 0.68182 0.06545 0.72876
 H1100 H 0.76695 0.06369 0.81315
 C1101 C 0.77471 0.85262 0.24721
 C1102 C 0.75090 0.85347 0.27155
 C1103 C 0.72925 0.87983 0.27387
 C1104 C 0.73247 0.90646 0.25195
 C1105 C 0.75676 0.90564 0.22723
 C1106 C 0.77755 0.87812 0.22452
 C1107 C 0.76018 0.93307 0.20676
 N1108 N 0.74026 0.95919 0.21058
 N1109 N 0.71744 0.95992 0.23373
 C1110 C 0.71301 0.93458 0.25464
 H1111 H 0.79067 0.83160 0.24569
 H1112 H 0.74889 0.83303 0.28831
 H1113 H 0.77894 0.93434 0.18830
 H1114 H 0.69488 0.93700 0.27360
 C1115 C 0.74940 0.77036 0.39176
 C1116 C 0.77320 0.74620 0.39117
 C1117 C 0.77279 0.72184 0.36715
 C1118 C 0.74845 0.72239 0.34253
 C1119 C 0.72425 0.74713 0.34303
 C1120 C 0.72453 0.77092 0.36831
 C1121 C 0.70143 0.74796 0.31732
 N1122 N 0.70254 0.72527 0.29321
 N1123 N 0.72515 0.70197 0.29283
 C1124 C 0.74822 0.69985 0.31651
 H1125 H 0.75023 0.78863 0.41091
 H1126 H 0.79197 0.74632 0.40985
 H1127 H 0.68317 0.76677 0.31571
 H1128 H 0.76642 0.68094 0.31436
 C1129 C 0.74324 0.22886 0.64422
 C1130 C 0.76710 0.25311 0.64354
 C1131 C 0.76752 0.27675 0.61872
 C1132 C 0.74383 0.27525 0.59347
 C1133 C 0.71953 0.25049 0.59411
 C1134 C 0.71904 0.22746 0.62006
 C1135 C 0.69727 0.24889 0.56792
 N1136 N 0.69905 0.27090 0.54318
 N1137 N 0.72180 0.29412 0.54262
 C1138 C 0.74433 0.29690 0.56675
 H1139 H 0.74337 0.21132 0.66409
 H1140 H 0.78511 0.25378 0.66294
 H1141 H 0.67894 0.22999 0.56643
 H1142 H 0.76280 0.31551 0.56437
 C1143 C 0.77478 0.75083 0.14074
 C1144 C 0.75070 0.72679 0.14072
 C1145 C 0.72679 0.72601 0.11623
 C1146 C 0.72790 0.74929 0.09056
 C1147 C 0.75246 0.77376 0.09058
 C1148 C 0.77567 0.77478 0.11627
 C1149 C 0.75367 0.79567 0.06411
 N1150 N 0.73148 0.79344 0.03960
 N1151 N 0.70842 0.77051 0.03959
 C1152 C 0.70600 0.74827 0.06407
 H1153 H 0.79253 0.75110 0.16038
 H1154 H 0.75032 0.70903 0.16040
 H1155 H 0.77245 0.81402 0.06226
 H1156 H 0.68749 0.72962 0.06215
 C1157 C 0.24702 0.23037 0.10919
 C1158 C 0.27140 0.25407 0.10969
 C1159 C 0.26981 0.28044 0.13140
 C1160 C 0.24357 0.28226 0.15402
 C1161 C 0.21819 0.25862 0.15289
 C1162 C 0.21998 0.23246 0.13006
 C1163 C 0.19256 0.26143 0.17566
 N1164 N 0.19262 0.28583 0.19802
 N1165 N 0.21684 0.30739 0.19967
 C1166 C 0.24242 0.30623 0.17874
 H1167 H 0.24902 0.21046 0.09185
 H1168 H 0.29149 0.25203 0.09259
 H1169 H 0.17279 0.24423 0.17663
 H1170 H 0.26185 0.32358 0.18233
 C1171 C 0.24713 0.77928 0.88833
 C1172 C 0.27147 0.75557 0.88871
 C1173 C 0.26860 0.72713 0.86991
 C1174 C 0.24095 0.72312 0.84932
 C1175 C 0.21551 0.74668 0.84986
 C1176 C 0.21875 0.77515 0.86962
 C1177 C 0.18831 0.74137 0.82949
 N1178 N 0.18714 0.71501 0.80950
 N1179 N 0.21148 0.69364 0.80814
 C1180 C 0.23839 0.69692 0.82708
 H1181 H 0.25026 0.80089 0.90329
 H1182 H 0.29258 0.75930 0.90423
 H1183 H 0.16821 0.75809 0.82846
 H1184 H 0.25775 0.67947 0.82375
 C1185 C 0.24611 0.26748 0.39247
 C1186 C 0.27072 0.24433 0.39045
 C1187 C 0.26627 0.21534 0.37289
 C1188 C 0.23605 0.20977 0.35672
 C1189 C 0.21011 0.23265 0.36019
 C1190 C 0.21565 0.26241 0.37767
 C1191 C 0.18012 0.22509 0.34490
 N1192 N 0.17697 0.19771 0.32659
 N1193 N 0.20176 0.17737 0.32198
 C1194 C 0.23119 0.18266 0.33599
 H1195 H 0.25097 0.28970 0.40602
 H1196 H 0.29356 0.24916 0.40291
 H1197 H 0.15910 0.24053 0.34627
 H1198 H 0.25051 0.16595 0.32993
 C1199 C 0.49895 0.63833 0.97536
 C1200 C 0.52448 0.63599 0.99766
 C1201 C 0.52024 0.62036 1.02781
 C1202 C 0.48958 0.60577 1.03502
 C1203 C 0.46274 0.60999 1.01329
 C1204 C 0.46775 0.62600 0.98256
 C1205 C 0.43232 0.59699 1.02310
 N1206 N 0.42966 0.57961 1.05120
 N1207 N 0.45529 0.57391 1.07026
 C1208 C 0.48511 0.58602 1.06292
 H1209 H 0.50359 0.65054 0.95229
 H1210 H 0.54768 0.64710 0.99146
 H1211 H 0.41050 0.59940 1.00893
 H1212 H 0.50511 0.57920 1.07850
 C1213 C 0.51717 0.09934 0.50250
 C1214 C 0.49335 0.09986 0.47816
 C1215 C 0.47315 0.12712 0.47398
 C1216 C 0.47705 0.15447 0.49476
 C1217 C 0.50121 0.15393 0.51962
 C1218 C 0.52116 0.12594 0.52360
 C1219 C 0.50513 0.18193 0.53913
 N1220 N 0.48579 0.20834 0.53428
 N1221 N 0.46299 0.20875 0.51108
 C1222 C 0.45803 0.18281 0.49108
 H1223 H 0.53220 0.07776 0.50529
 H1224 H 0.49002 0.07843 0.46306
 H1225 H 0.52366 0.18329 0.55784
 H1226 H 0.43957 0.18476 0.47231
 C1227 C 0.48007 0.89531 0.50084
 C1228 C 0.50457 0.89648 0.47720
 C1229 C 0.52848 0.87211 0.47563
 C1230 C 0.52691 0.84540 0.49776
 C1231 C 0.50217 0.84441 0.52206
 C1232 C 0.47888 0.86988 0.52382
 C1233 C 0.50073 0.81708 0.54289
 N1234 N 0.52271 0.79259 0.53965
 N1235 N 0.54573 0.79338 0.51672
 C1236 C 0.54841 0.81875 0.49555
 H1237 H 0.46217 0.91475 0.50159
 H1238 H 0.50509 0.91679 0.46018
 H1239 H 0.48196 0.81452 0.56120
 H1240 H 0.56674 0.81735 0.47672
 C1241 C 0.99832 0.39286 0.52857
 C1242 C 1.02236 0.39283 0.50451
 C1243 C 1.02028 0.37171 0.47766
 C1244 C 0.99432 0.34879 0.47614
 C1245 C 0.96960 0.34915 0.50047
 C1246 C 0.97103 0.37237 0.52620
 C1247 C 0.94526 0.32492 0.49920
 N1248 N 0.94535 0.30245 0.47488
 N1249 N 0.96847 0.30217 0.45204
 C1250 C 0.99307 0.32431 0.45203
 H1251 H 1.00091 0.40933 0.54903
 H1252 H 1.04260 0.40975 0.50669
 H1253 H 0.92690 0.32278 0.51790
 H1254 H 1.01188 0.32179 0.43383
 C1255 C 0.03011 0.86900 1.00304
 C1256 C 0.00537 0.86712 1.02637
 C1257 C -0.02392 0.88473 1.02276
 C1258 C -0.02633 0.90759 0.99636
 C1259 C -0.00053 0.91008 0.97322
 C1260 C 0.02704 0.88936 0.97573
 C1261 C -0.00218 0.93475 0.94924
 N1262 N -0.02804 0.95521 0.94807
 N1263 N -0.05213 0.95314 0.96973
 C1264 C -0.05194 0.93047 0.99389
 H1265 H 0.05135 0.85352 1.00578
 H1266 H 0.00861 0.85031 1.04662
 H1267 H 0.01750 0.93896 0.93236
 H1268 H -0.07097 0.93194 1.01169
 C1269 C 0.01703 0.10698 0.00242
 C1270 C -0.00760 0.10723 -0.02110
 C1271 C -0.02951 0.13337 -0.02332
 C1272 C -0.02644 0.15993 -0.00138
 C1273 C -0.00149 0.15962 0.02272
 C1274 C 0.02020 0.13273 0.02467
 C1275 C 0.00148 0.18682 0.04349
 N1276 N -0.01938 0.21231 0.04045
 N1277 N -0.04282 0.21257 0.01788
 C1278 C -0.04697 0.18736 -0.00321
 H1279 H 0.03335 0.08620 0.00368
 H1280 H -0.01014 0.08640 -0.03715
 H1281 H 0.02046 0.18832 0.06174
 H1282 H -0.06596 0.18924 -0.02143
 C1283 C 0.12045 0.97873 0.99936
 C1284 C 0.11944 1.00292 1.02316
 C1285 C 0.12804 1.03562 1.01640
 C1286 C 0.14052 1.04286 0.98420
 C1287 C 0.14414 1.01703 0.96084
 C1288 C 0.13204 0.98514 0.96781
 C1289 C 0.16129 1.02367 0.93168
 N1290 N 0.17136 1.05431 0.92468
 N1291 N 0.16631 1.07881 0.94526
 C1292 C 0.15169 1.07422 0.97460
 H1293 H 0.11156 0.95464 1.00581
 H1294 H 0.11041 0.99581 1.04704
 H1295 H 0.16833 1.00478 0.91494
 H1296 H 0.14996 1.09549 0.98950
 C1297 C 0.09716 0.51476 0.50889
 C1298 C 0.09763 0.48945 0.48613
 C1299 C 0.12461 0.46866 0.48362
 C1300 C 0.15139 0.47294 0.50506
 C1301 C 0.15066 0.49827 0.52873
 C1302 C 0.12320 0.51925 0.53058
 C1303 C 0.17805 0.50235 0.54910
 N1304 N 0.20408 0.48219 0.54603
 N1305 N 0.20472 0.45842 0.52384
 C1306 C 0.17936 0.45319 0.50318
 H1307 H 0.07609 0.53066 0.50991
 H1308 H 0.07662 0.48589 0.47049
 H1309 H 0.17926 0.52159 0.56711
 H1310 H 0.18144 0.43385 0.48535
 C1311 C 0.34434 0.51601 0.99199
 C1312 C 0.34437 0.49305 1.01722
 C1313 C 0.37354 0.48408 1.03262
 C1314 C 0.40333 0.49820 1.02219
 C1315 C 0.40346 0.52023 0.99542
 C1316 C 0.37360 0.52972 0.98086
 C1317 C 0.43364 0.53174 0.98385
 N1318 N 0.46164 0.52274 0.99909
 N1319 N 0.46145 0.50287 1.02492
 C1320 C 0.43327 0.49037 1.03706
 H1321 H 0.32137 0.52293 0.98085
 H1322 H 0.32147 0.48220 1.02483
 H1323 H 0.43512 0.54809 0.96312
 H1324 H 0.43456 0.47395 1.05775
 C1325 C 0.86134 0.47671 0.49833
 C1326 C 0.86270 0.49997 0.47353
 C1327 C 0.88091 0.52867 0.47730
 C1328 C 0.89915 0.53335 0.50650
 C1329 C 0.89704 0.51009 0.53228
 C1330 C 0.87778 0.48140 0.52808
 C1331 C 0.91540 0.51600 0.56082
 N1332 N 0.93482 0.54270 0.56304
 N1333 N 0.93747 0.56390 0.53854
 C1334 C 0.92055 0.55998 0.51037
 H1335 H 0.84669 0.45501 0.49444
 H1336 H 0.84886 0.49574 0.45133
 H1337 H 0.91539 0.49953 0.58116
 H1338 H 0.92478 0.57725 0.49105
 C1339 C 0.85702 0.97830 -0.00003
 C1340 C 0.85710 1.00203 -0.02444
 C1341 C 0.87976 1.02760 -0.02387
 C1342 C 0.90371 1.02859 0.00112
 C1343 C 0.90364 1.00445 0.02603
 C1344 C 0.87958 0.97944 0.02572
 C1345 C 0.92862 1.00548 0.04960
 N1346 N 0.95164 1.02925 0.04849
 N1347 N 0.95166 1.05188 0.02511
 C1348 C 0.92864 1.05223 0.00131
 H1349 H 0.83886 0.95907 -0.00102
 H1350 H 0.83889 1.00075 -0.04363
 H1351 H 0.93058 0.98731 0.06845
 H1352 H 0.93051 1.07052 -0.01757
 C1353 C 0.60035 0.01778 0.50442
 C1354 C 0.60125 -0.00738 0.48150
 C1355 C 0.62935 -0.02637 0.47744
 C1356 C 0.65699 -0.02018 0.49726
 C1357 C 0.65582 0.00491 0.52116
 C1358 C 0.62712 0.02385 0.52478
 C1359 C 0.68393 0.01083 0.54000
 N1360 N 0.71114 -0.00735 0.53524
 N1361 N 0.71222 -0.03087 0.51279
 C1362 C 0.68616 -0.03780 0.49356
 H1363 H 0.57826 0.03208 0.50685
 H1364 H 0.57967 -0.01232 0.46705
 H1365 H 0.68474 0.03003 0.55806
 H1366 H 0.68861 -0.05674 0.47537
 C1367 C 0.50131 0.97443 0.36641
 C1368 C 0.47722 0.99822 0.36525
 C1369 C 0.48282 1.02991 0.37693
 C1370 C 0.51394 1.03741 0.39086
 C1371 C 0.53857 1.01282 0.39242
 C1372 C 0.53224 0.98102 0.37947
 C1373 C 0.56830 1.02087 0.40795
 N1374 N 0.57334 1.05115 0.42014
 N1375 N 0.55062 1.07411 0.41833
 C1376 C 0.52127 1.06829 0.40438
 H1377 H 0.49570 0.95060 0.35636
 H1378 H 0.45391 0.99174 0.35453
 H1379 H 0.58753 1.00364 0.41165
 H1380 H 0.50419 1.08797 0.40508
 C1381 C 0.00290 0.02288 0.14343
 C1382 C -0.02006 -0.00220 0.14455
 C1383 C -0.02194 -0.02529 0.11938
 C1384 C -0.00103 -0.02218 0.09185
 C1385 C 0.02205 0.00357 0.09055
 C1386 C 0.02444 0.02570 0.11698
 C1387 C 0.04102 0.00719 0.06207
 N1388 N 0.03739 -0.01403 0.03690
 N1389 N 0.01584 -0.03833 0.03818
 C1390 C -0.00354 -0.04297 0.06466
 H1391 H 0.00421 0.03996 0.16363
 H1392 H -0.03628 -0.00383 0.16543
 H1393 H 0.05814 0.02707 0.05924
 H1394 H -0.02140 -0.06215 0.06385
 C1395 C 0.49630 0.48059 0.10395
 C1396 C 0.52076 0.50428 0.10338
 C1397 C 0.52417 0.52653 0.12919
 C1398 C 0.50319 0.52413 0.15665
 C1399 C 0.47829 0.50005 0.15722
 C1400 C 0.47452 0.47856 0.13030
 C1401 C 0.45876 0.49749 0.18541
 N1402 N 0.46362 0.51801 0.21097
 N1403 N 0.48696 0.54063 0.21042
 C1404 C 0.50701 0.54425 0.18429
 H1405 H 0.49399 0.46404 0.08340
 H1406 H 0.53681 0.50564 0.08236
 H1407 H 0.44019 0.47895 0.18775
 H1408 H 0.52614 0.56230 0.18575
 C1409 C 0.00164 0.51771 0.65335
 C1410 C -0.02256 0.49376 0.65330
 C1411 C -0.02992 0.47654 0.62465
 C1412 C -0.01334 0.48426 0.59524
 C1413 C 0.01124 0.50860 0.59530
 C1414 C 0.01897 0.52500 0.62474
 C1415 C 0.02676 0.51629 0.56558
 N1416 N 0.01789 0.50067 0.53770
 N1417 N -0.00536 0.47792 0.53760
 C1418 C -0.02125 0.46918 0.56538
 H1419 H 0.00716 0.53042 0.67594
 H1420 H -0.03543 0.48837 0.67583
 H1421 H 0.04549 0.53486 0.56419
 H1422 H -0.04031 0.45096 0.56376
 C1423 C 0.49534 0.47981 0.85894
 C1424 C 0.47137 0.50382 0.86034
 C1425 C 0.47305 0.52901 0.88345
 C1426 C 0.49896 0.52924 0.90652
 C1427 C 0.52314 0.50442 0.90542
 C1428 C 0.52170 0.48004 0.88075
 C1429 C 0.54713 0.50408 0.93009
 N1430 N 0.54741 0.52753 0.95348
 N1431 N 0.52510 0.55109 0.95416
 C1432 C 0.50087 0.55265 0.93163
 H1433 H 0.49347 0.46102 0.84038
 H1434 H 0.45158 0.50305 0.84277
 H1435 H 0.56517 0.48505 0.93158
 H1436 H 0.48299 0.57171 0.93414
 C1437 C 0.60680 0.47407 1.00286
 C1438 C 0.60754 0.49776 1.02733
 C1439 C 0.62733 0.52566 1.02439
 C1440 C 0.64932 0.52769 0.99738
 C1441 C 0.64899 0.50309 0.97279
 C1442 C 0.62658 0.47671 0.97499
 C1443 C 0.67265 0.50466 0.94786
 N1444 N 0.69475 0.52924 0.94730
 N1445 N 0.69544 0.55197 0.97047
 C1446 C 0.67396 0.55173 0.99564
 H1447 H 0.59003 0.45376 1.00544
 H1448 H 0.59112 0.49501 1.04794
 H1449 H 0.67490 0.48592 0.92963
 H1450 H 0.67767 0.56929 1.01481
 C1451 C 0.36956 0.96698 0.48933
 C1452 C 0.37018 0.99084 0.46500
 C1453 C 0.38601 1.02094 0.46995
 C1454 C 0.40486 1.02510 0.49909
 C1455 C 0.40478 1.00031 0.52354
 C1456 C 0.38556 0.97171 0.51925
 C1457 C 0.42550 1.00419 0.55075
 N1458 N 0.44458 1.03104 0.55360
 N1459 N 0.44491 1.05409 0.53071
 C1460 C 0.42614 1.05186 0.50353
 H1461 H 0.35552 0.94496 0.48505
 H1462 H 0.35635 0.98633 0.44284
 H1463 H 0.42786 0.98564 0.56912
 H1464 H 0.42944 1.07027 0.48515
 C1465 C 0.01492 0.59907 0.50707
 C1466 C -0.00856 0.60043 0.48244
 C1467 C -0.02674 0.62889 0.47708
 C1468 C -0.02136 0.65650 0.49715
 C1469 C 0.00241 0.65511 0.52235
 C1470 C 0.02051 0.62603 0.52733
 C1471 C 0.00789 0.68336 0.54113
 N1472 N -0.00965 0.71081 0.53526
 N1473 N -0.03208 0.71203 0.51172
 C1474 C -0.03845 0.68589 0.49240
 H1475 H 0.02853 0.57667 0.51062
 H1476 H -0.01309 0.57883 0.46788
 H1477 H 0.02618 0.68407 0.56009
 H1478 H -0.05653 0.68846 0.47332
 C1479 C 0.52136 0.36645 1.00500
 C1480 C 0.49680 0.36629 1.02851
 C1481 C 0.46858 0.38530 1.02469
 C1482 C 0.46587 0.40608 0.99686
 C1483 C 0.49163 0.40719 0.97366
 C1484 C 0.51891 0.38613 0.97710
 C1485 C 0.48979 0.43034 0.94827
 N1486 N 0.46312 0.44952 0.94503
 N1487 N 0.43834 0.44755 0.96591
 C1488 C 0.43890 0.42675 0.99172
 H1489 H 0.54214 0.35045 1.00829
 H1490 H 0.49955 0.35046 1.04960
 H1491 H 0.50966 0.43406 0.93157
 H1492 H 0.41851 0.42746 1.00812
 C1493 C 0.49775 0.02122 0.64326
 C1494 C 0.47432 -0.00347 0.64343
 C1495 C 0.47463 -0.02809 0.61966
 C1496 C 0.49822 -0.02692 0.59429
 C1497 C 0.52212 -0.00184 0.59417
 C1498 C 0.52218 0.02201 0.61930
 C1499 C 0.54441 -0.00073 0.56803
 N1500 N 0.54290 -0.02334 0.54388
 N1501 N 0.52038 -0.04677 0.54389
 C1502 C 0.49790 -0.04919 0.56809
 H1503 H 0.49718 0.03955 0.66236
 H1504 H 0.45603 -0.00364 0.66258
 H1505 H 0.56254 0.01827 0.56615
 H1506 H 0.47960 -0.06800 0.56614
 C1507 C 0.00047 0.47492 0.36997
 C1508 C -0.02309 0.49922 0.36904
 C1509 C -0.01692 0.53052 0.38142
 C1510 C 0.01419 0.53706 0.39580
 C1511 C 0.03844 0.51207 0.39678
 C1512 C 0.03146 0.48060 0.38335
 C1513 C 0.06841 0.51945 0.41220
 N1514 N 0.07380 0.54931 0.42524
 N1515 N 0.05126 0.57251 0.42434
 C1516 C 0.02180 0.56740 0.41034
 H1517 H -0.00562 0.45139 0.35949
 H1518 H -0.04640 0.49348 0.35793
 H1519 H 0.08761 0.50203 0.41514
 H1520 H 0.00480 0.58713 0.41176
 C1521 C -0.00511 0.97951 0.86688
 C1522 C -0.02908 1.00339 0.86791
 C1523 C -0.02243 1.03538 0.87876
 C1524 C 0.00979 1.04227 0.89100
 C1525 C 0.03349 1.01669 0.89220
 C1526 C 0.02650 0.98563 0.87816
 C1527 C 0.06297 1.02260 0.90899
 N1528 N 0.06969 1.05249 0.92122
 N1529 N 0.04861 1.07690 0.91856
 C1530 C 0.01910 1.07290 0.90423
 H1531 H -0.01145 0.95590 0.85673
 H1532 H -0.05294 0.99680 0.85855
 H1533 H 0.08030 1.00363 0.91387
 H1534 H 0.00361 1.09387 0.90472
 C1535 C 0.75457 0.64178 0.22136
 C1536 C 0.77880 0.64090 0.24529
 C1537 C 0.77931 0.61610 0.26896
 C1538 C 0.75571 0.59083 0.26750
 C1539 C 0.73109 0.59166 0.24307
 C1540 C 0.73013 0.61786 0.22037
 C1541 C 0.70884 0.56554 0.24155
 N1542 N 0.71089 0.54065 0.26335
 N1543 N 0.73391 0.53993 0.28633
 C1544 C 0.75647 0.56402 0.28902
 H1545 H 0.75436 0.66180 0.20401
 H1546 H 0.79676 0.66031 0.24595
 H1547 H 0.69037 0.56424 0.22278
 H1548 H 0.77517 0.56156 0.30744
 C1549 C 0.24845 0.88888 0.76926
 C1550 C 0.27311 0.88715 0.74598
 C1551 C 0.26801 0.87173 0.71586
 C1552 C 0.23712 0.85719 0.70942
 C1553 C 0.21103 0.86100 0.73216
 C1554 C 0.21720 0.87623 0.76313
 C1555 C 0.18024 0.84823 0.72310
 N1556 N 0.17666 0.83123 0.69492
 N1557 N 0.20164 0.82574 0.67500
 C1558 C 0.23170 0.83774 0.68146
 H1559 H 0.25386 0.90074 0.79233
 H1560 H 0.29648 0.89821 0.75159
 H1561 H 0.15884 0.85034 0.73794
 H1562 H 0.25106 0.83097 0.66507
 C1563 C 0.27309 0.35354 0.25464
 C1564 C 0.24902 0.35203 0.27868
 C1565 C 0.22662 0.37754 0.28244
 C1566 C 0.22937 0.40573 0.26245
 C1567 C 0.25365 0.40713 0.23778
 C1568 C 0.27529 0.38052 0.23362
 C1569 C 0.25609 0.43570 0.21875
 N1570 N 0.23549 0.46099 0.22419
 N1571 N 0.21289 0.45979 0.24755
 C1572 C 0.20926 0.43316 0.26696
 H1573 H 0.28960 0.33307 0.25181
 H1574 H 0.24736 0.33044 0.29397
 H1575 H 0.27451 0.43848 0.20004
 H1576 H 0.19126 0.43402 0.28619
 C1577 C 0.85758 0.74732 0.22068
 C1578 C 0.85761 0.72320 0.24473
 C1579 C 0.88235 0.72208 0.26833
 C1580 C 0.90844 0.74472 0.26674
 C1581 C 0.90849 0.76921 0.24220
 C1582 C 0.88231 0.77093 0.21960
 C1583 C 0.93538 0.79052 0.24051
 N1584 N 0.96014 0.78770 0.26233
 N1585 N 0.96001 0.76479 0.28547
 C1586 C 0.93513 0.74312 0.28831
 H1587 H 0.83761 0.74812 0.20333
 H1588 H 0.83768 0.70582 0.24551
 H1589 H 0.93736 0.80886 0.22163
 H1590 H 0.93682 0.72445 0.30690
 C1591 C 0.59061 0.24274 0.73179
 C1592 C 0.58966 0.26696 0.75575
 C1593 C 0.61720 0.27375 0.77482
 C1594 C 0.64662 0.25642 0.76901
 C1595 C 0.64745 0.23157 0.74492
 C1596 C 0.61907 0.22462 0.72649
 C1597 C 0.67707 0.21508 0.73944
 N1598 N 0.70409 0.22346 0.75662
 N1599 N 0.70345 0.24708 0.77895
 C1600 C 0.67571 0.26375 0.78573
 H1601 H 0.56890 0.23787 0.71746
 H1602 H 0.56722 0.28038 0.75959
 H1603 H 0.67915 0.19592 0.72144
 H1604 H 0.67678 0.28263 0.80401
 C1605 C 0.74270 0.27474 0.88975
 C1606 C 0.76759 0.25177 0.88830
 C1607 C 0.76267 0.22122 0.87374
 C1608 C 0.73154 0.21392 0.86006
 C1609 C 0.70527 0.23644 0.86369
 C1610 C 0.71138 0.26789 0.87772
 C1611 C 0.67432 0.22675 0.85187
 N1612 N 0.67064 0.19802 0.83589
 N1613 N 0.69569 0.17822 0.83050
 C1614 C 0.72596 0.18535 0.84159
 H1615 H 0.74804 0.29823 0.90072
 H1616 H 0.79105 0.25805 0.89881
 H1617 H 0.65286 0.24149 0.85405
 H1618 H 0.74530 0.16895 0.83483
 C1619 C 0.24748 0.72442 0.64314
 C1620 C 0.27193 0.74809 0.64162
 C1621 C 0.27333 0.77033 0.61555
 C1622 C 0.25014 0.76790 0.58994
 C1623 C 0.22529 0.74374 0.59143
 C1624 C 0.22368 0.72225 0.61863
 C1625 C 0.20355 0.74116 0.56492
 N1626 N 0.20627 0.76174 0.53905
 N1627 N 0.22951 0.78443 0.53770
 C1628 C 0.25162 0.78807 0.56211
 H1629 H 0.24676 0.70804 0.66397
 H1630 H 0.28954 0.74950 0.66134
 H1631 H 0.18492 0.72256 0.56412
 H1632 H 0.27053 0.80615 0.55915
   
