data_POSCAR
  _audit_creation_date              2014-09-24
  _audit_creation_method            'ToBaCCo'
  _symmetry_space_group_name_H-M    'P1'
  _symmetry_Int_Tables_number       1
  _symmetry_cell_setting            triclinic
  loop_
  _symmetry_equiv_pos_as_xyz
 x,y,z
_cell_length_a 48.3466
_cell_length_b 46.3908
_cell_length_c 46.9940
_cell_angle_alpha 89.592200
_cell_angle_beta 90.191000
_cell_angle_gamma 89.841800
loop_
  _atom_site_label
  _atom_site_type_symbol
  _atom_site_fract_x
  _atom_site_fract_y
  _atom_site_fract_z
C1 C 0.42043 0.29630 -0.02291
 C2 C 0.41881 0.29352 0.00610
 C3 C 0.39278 0.30323 0.01369
 N4 N 0.37837 0.31176 -0.00965
 C5 C 0.39516 0.30726 -0.03211
 C6 C 0.38191 0.30225 0.04151
 C7 C 0.35822 0.31819 0.04918
 C8 C 0.34326 0.31439 0.07405
 C9 C 0.32352 0.33579 0.07448
 C10 C 0.32688 0.35184 0.04974
 N11 N 0.34802 0.34101 0.03445
 C12 C 0.31193 0.37700 0.04268
 C13 C 0.31078 0.38840 0.01477
 C14 C 0.29987 0.41512 0.00755
 C15 C 0.30034 0.41690 -0.02157
 C16 C 0.31128 0.39107 -0.03120
 N17 N 0.31787 0.37375 -0.00890
 C18 C 0.31373 0.38311 -0.06014
 C19 C 0.33097 0.35988 -0.06845
 C20 C 0.32848 0.34501 -0.09385
 C21 C 0.34918 0.32477 -0.09413
 C22 C 0.36379 0.32765 -0.06885
 N23 N 0.35241 0.34894 -0.05314
 C24 C 0.38708 0.31079 -0.06095
 H25 H 0.43809 0.29058 -0.03581
 H26 H 0.43492 0.28527 0.02000
 H27 H 0.36031 0.35709 -0.03418
 H28 H 0.34644 0.29815 0.09039
 H29 H 0.30854 0.33927 0.09118
 H30 H 0.29222 0.43153 0.02178
 H31 H 0.29335 0.43511 -0.03421
 H32 H 0.35267 0.30925 -0.11083
 H33 H 0.35695 0.35076 0.01671
 H34 H 0.31300 0.34801 -0.11030
 C35 C 0.75707 0.64721 0.01596
 C36 C 0.75516 0.64665 -0.01318
 C37 C 0.72782 0.65276 -0.01996
 N38 N 0.71312 0.65749 0.00397
 C39 C 0.73091 0.65390 0.02595
 C40 C 0.71577 0.65013 -0.04725
 C41 C 0.68943 0.66210 -0.05334
 C42 C 0.67232 0.65399 -0.07559
 C43 C 0.64928 0.67145 -0.07446
 C44 C 0.65305 0.69000 -0.05171
 N45 N 0.67750 0.68396 -0.03884
 C46 C 0.63445 0.71213 -0.04338
 C47 C 0.63579 0.72412 -0.01569
 C48 C 0.62434 0.75035 -0.00782
 C49 C 0.62697 0.75217 0.02112
 C50 C 0.64072 0.72744 0.02996
 N51 N 0.64616 0.71031 0.00743
 C52 C 0.64550 0.71944 0.05859
 C53 C 0.66373 0.69685 0.06606
 C54 C 0.66464 0.68271 0.09210
 C55 C 0.68637 0.66345 0.09084
 C56 C 0.69850 0.66694 0.06430
 N57 N 0.68450 0.68730 0.04939
 C58 C 0.72282 0.65299 0.05480
 H59 H 0.77543 0.64256 0.02844
 H60 H 0.77177 0.64148 -0.02767
 H61 H 0.69050 0.69642 0.03006
 H62 H 0.67582 0.63696 -0.09079
 H63 H 0.63161 0.67027 -0.08858
 H64 H 0.61460 0.76632 -0.02146
 H65 H 0.61930 0.76962 0.03404
 H66 H 0.69259 0.64884 0.10774
 H67 H 0.68666 0.69578 -0.02255
 H68 H 0.65113 0.68589 0.11012
 C69 C 0.60582 0.26499 0.98746
 C70 C 0.60455 0.26714 1.01649
 C71 C 0.62902 0.27994 1.02511
 N72 N 0.64517 0.28574 1.00239
 C73 C 0.63103 0.27655 0.97935
 C74 C 0.63728 0.28367 1.05363
 C75 C 0.65975 0.30126 1.06140
 C76 C 0.67312 0.30022 1.08750
 C77 C 0.69261 0.32171 1.08713
 C78 C 0.69035 0.33554 1.06090
 N79 N 0.67036 0.32278 1.04527
 C80 C 0.70618 0.35967 1.05214
 C81 C 0.70875 0.36736 1.02298
 C82 C 0.71860 0.39357 1.01286
 C83 C 0.71981 0.39145 0.98385
 C84 C 0.71013 0.36427 0.97710
 N85 N 0.70333 0.34954 1.00101
 C86 C 0.70994 0.35269 0.94942
 C87 C 0.69504 0.32773 0.94212
 C88 C 0.69802 0.31254 0.91702
 C89 C 0.67864 0.29081 0.91762
 C90 C 0.66437 0.29349 0.94302
 N91 N 0.67442 0.31613 0.95772
 C92 C 0.64154 0.27651 0.95136
 H93 H 0.59005 0.25578 0.97391
 H94 H 0.58767 0.25985 1.02977
 H95 H 0.66575 0.32511 0.97586
 H96 H 0.66932 0.28541 1.10495
 H97 H 0.70692 0.32646 1.10421
 H98 H 0.72444 0.41228 1.02509
 H99 H 0.72700 0.40801 0.96934
 H100 H 0.67528 0.27503 0.90112
 H101 H 0.66244 0.33019 1.02591
 H102 H 0.71248 0.31681 0.89998
 C103 C 0.27578 0.60147 1.01294
 C104 C 0.27426 0.60319 0.98388
 C105 C 0.28418 0.63013 0.97635
 N106 N 0.29149 0.64511 0.99978
 C107 C 0.28598 0.62772 1.02226
 C108 C 0.28452 0.64125 0.94834
 C109 C 0.30192 0.66425 0.94020
 C110 C 0.30066 0.67902 0.91447
 C111 C 0.32255 0.69802 0.91426
 C112 C 0.33639 0.69434 0.93992
 N113 N 0.32377 0.67367 0.95550
 C114 C 0.36094 0.70858 0.94788
 C115 C 0.37100 0.70860 0.97613
 C116 C 0.39740 0.71697 0.98397
 C117 C 0.39822 0.71627 1.01311
 C118 C 0.37208 0.70805 1.02218
 N119 N 0.35554 0.70305 0.99947
 C120 C 0.36332 0.70654 1.05094
 C121 C 0.33907 0.69119 1.05865
 C122 C 0.32415 0.69533 1.08348
 C123 C 0.30320 0.67539 1.08357
 C124 C 0.30574 0.65964 1.05874
 N125 N 0.32742 0.66967 1.04344
 C126 C 0.28877 0.63603 1.05109
 H127 H 0.26999 0.58295 1.02569
 H128 H 0.26690 0.58644 0.96985
 H129 H 0.33545 0.66039 1.02508
 H130 H 0.28578 0.67615 0.89748
 H131 H 0.32780 0.71268 0.89710
 H132 H 0.41431 0.72294 0.97010
 H133 H 0.41606 0.72129 1.02610
 H134 H 0.28768 0.67295 1.09996
 H135 H 0.33138 0.66442 0.97420
 H136 H 0.32785 0.71122 1.09980
 C137 C -0.00598 0.38954 0.27000
 C138 C 0.02219 0.38693 0.26909
 C139 C 0.02853 0.36028 0.28090
 N140 N 0.00521 0.34640 0.28891
 C141 C -0.01598 0.36416 0.28190
 C142 C 0.05531 0.34819 0.28185
 C143 C 0.06228 0.32518 0.30025
 C144 C 0.08660 0.30933 0.29937
 C145 C 0.08594 0.29053 0.32222
 C146 C 0.06120 0.29551 0.33624
 N147 N 0.04702 0.31671 0.32280
 C148 C 0.05285 0.28210 0.36179
 C149 C 0.02536 0.28356 0.37175
 C150 C 0.01719 0.27619 0.39906
 C151 C -0.01107 0.27800 0.39937
 C152 C -0.01931 0.28610 0.37213
 N153 N 0.00305 0.28980 0.35530
 C154 C -0.04715 0.28770 0.36263
 C155 C -0.05472 0.30394 0.33806
 C156 C -0.07928 0.30097 0.32299
 C157 C -0.07855 0.32054 0.30089
 C158 C -0.05351 0.33492 0.30289
 N159 N -0.03909 0.32465 0.32559
 C160 C -0.04432 0.35670 0.28383
 H161 H -0.01783 0.40788 0.26238
 H162 H 0.03641 0.40276 0.26059
 H163 H -0.02046 0.33275 0.33330
 H164 H 0.10321 0.31134 0.28411
 H165 H 0.10191 0.27515 0.32797
 H166 H 0.03025 0.27001 0.41685
 H167 H -0.02414 0.27356 0.41753
 H168 H -0.09436 0.32326 0.28473
 H169 H 0.02941 0.32699 0.33041
 H170 H -0.09579 0.28580 0.32700
 C171 C 0.00441 0.75739 0.63271
 C172 C -0.02318 0.75214 0.62869
 C173 C -0.02869 0.72596 0.64185
 N174 N -0.00552 0.71525 0.65406
 C175 C 0.01479 0.73441 0.64853
 C176 C -0.05365 0.71055 0.63918
 C177 C -0.06018 0.68669 0.65674
 C178 C -0.08121 0.66722 0.65140
 C179 C -0.08158 0.64822 0.67398
 C180 C -0.06086 0.65670 0.69265
 N181 N -0.04778 0.68008 0.68186
 C182 C -0.05465 0.64320 0.71914
 C183 C -0.02765 0.64528 0.73116
 C184 C -0.02027 0.63747 0.75874
 C185 C 0.00795 0.63949 0.76050
 C186 C 0.01691 0.64997 0.73447
 N187 N -0.00485 0.65344 0.71653
 C188 C 0.04488 0.65408 0.72680
 C189 C 0.05309 0.67263 0.70440
 C190 C 0.08000 0.67576 0.69468
 C191 C 0.07957 0.69739 0.67454
 C192 C 0.05240 0.70680 0.67234
 N193 N 0.03652 0.69197 0.69101
 C194 C 0.04307 0.72940 0.65435
 H195 H 0.01555 0.77562 0.62409
 H196 H -0.03737 0.76558 0.61662
 H197 H 0.01616 0.69665 0.69635
 H198 H -0.09480 0.66664 0.63307
 H199 H -0.09533 0.62998 0.67619
 H200 H -0.03368 0.63073 0.77590
 H201 H 0.02020 0.63421 0.77910
 H202 H 0.09739 0.70543 0.66314
 H203 H -0.03300 0.69237 0.69240
 H204 H 0.09827 0.66426 0.70181
 C205 C 1.02502 0.62537 0.25348
 C206 C 0.99676 0.62356 0.25242
 C207 C 0.98748 0.62896 0.27969
 N208 N 1.00896 0.63377 0.29746
 C209 C 1.03200 0.63117 0.28155
 C210 C 0.95990 0.62608 0.28869
 C211 C 0.95004 0.64044 0.31303
 C212 C 0.92441 0.63633 0.32553
 C213 C 0.92204 0.65662 0.34659
 C214 C 0.94667 0.67190 0.34699
 N215 N 0.96347 0.66207 0.32633
 C216 C 0.95256 0.69559 0.36464
 C217 C 0.97985 0.70490 0.37058
 C218 C 0.98641 0.72783 0.38803
 C219 C 1.01463 0.72812 0.39054
 C220 C 1.02467 0.70551 0.37426
 N221 N 1.00322 0.69109 0.36247
 C222 C 1.05278 0.69641 0.37325
 C223 C 1.06197 0.67373 0.35540
 C224 C 1.08720 0.65942 0.35769
 C225 C 1.08890 0.64084 0.33517
 C226 C 1.06522 0.64494 0.31892
 N227 N 1.04886 0.66487 0.33152
 C228 C 1.05918 0.63093 0.29286
 H229 H 1.03892 0.62201 0.23579
 H230 H 0.98442 0.61849 0.23386
 H231 H 1.03119 0.67417 0.32262
 H232 H 0.90876 0.62077 0.31983
 H233 H 0.90413 0.65958 0.35995
 H234 H 0.97235 0.74222 0.39885
 H235 H 1.02615 0.74276 0.40386
 H236 H 1.10582 0.62609 0.33133
 H237 H 0.98168 0.67183 0.31958
 H238 H 1.10313 0.66196 0.37362
 C239 C 0.98304 0.27926 0.60157
 C240 C 1.01137 0.28016 0.60272
 C241 C 1.01832 0.29145 0.62901
 N242 N 0.99520 0.29749 0.64396
 C243 C 0.97359 0.28994 0.62724
 C244 C 1.04554 0.29318 0.63993
 C245 C 1.05240 0.30944 0.66431
 C246 C 1.07685 0.30676 0.67958
 C247 C 1.07585 0.32683 0.70098
 C248 C 1.05092 0.34152 0.69805
 N249 N 1.03674 0.33070 0.67562
 C250 C 1.04181 0.36443 0.71570
 C251 C 1.01352 0.37272 0.71645
 C252 C 1.00361 0.39868 0.72693
 C253 C 0.97536 0.39712 0.72628
 C254 C 0.96886 0.37060 0.71478
 N255 N 0.99216 0.35568 0.70866
 C256 C 0.94177 0.35961 0.71256
 C257 C 0.93485 0.33648 0.69462
 C258 C 0.90999 0.32170 0.69502
 C259 C 0.91104 0.30205 0.67319
 C260 C 0.93651 0.30550 0.66009
 N261 N 0.95079 0.32664 0.67320
 C262 C 0.94556 0.29029 0.63585
 H263 H 0.97082 0.27128 0.58398
 H264 H 1.02529 0.27293 0.58623
 H265 H 0.96914 0.33589 0.66618
 H266 H 1.09356 0.29169 0.67589
 H267 H 1.09158 0.32993 0.71710
 H268 H 1.01549 0.41686 0.73443
 H269 H 0.96117 0.41363 0.73342
 H270 H 0.89487 0.28702 0.66759
 H271 H 1.01852 0.33903 0.66697
 H272 H 0.89282 0.32485 0.70941
 C273 C 0.36748 -0.01072 0.26159
 C274 C 0.37010 0.01862 0.26344
 C275 C 0.36617 0.02550 0.29176
 N276 N 0.36141 0.00146 0.30736
 C277 C 0.36264 -0.02082 0.28900
 C278 C 0.37045 0.05306 0.30343
 C279 C 0.35815 0.06139 0.32937
 C280 C 0.36406 0.08632 0.34428
 C281 C 0.34579 0.08745 0.36665
 C282 C 0.32976 0.06274 0.36528
 N283 N 0.33726 0.04717 0.34234
 C284 C 0.30784 0.05575 0.38391
 C285 C 0.29731 0.02742 0.38675
 C286 C 0.27566 0.01964 0.40443
 C287 C 0.27353 -0.00974 0.40313
 C288 C 0.29394 -0.01913 0.38465
 N289 N 0.30864 0.00363 0.37488
 C290 C 0.30041 -0.04840 0.37946
 C291 C 0.32081 -0.05736 0.35986
 C292 C 0.33351 -0.08418 0.35995
 C293 C 0.35126 -0.08460 0.33717
 C294 C 0.34819 -0.05843 0.32296
 N295 N 0.32974 -0.04185 0.33720
 C296 C 0.36186 -0.05025 0.29734
 H297 H 0.36949 -0.02327 0.24238
 H298 H 0.37474 0.03323 0.24605
 H299 H 0.32164 -0.02214 0.33039
 H300 H 0.37961 0.10233 0.33945
 H301 H 0.34464 0.10456 0.38210
 H302 H 0.26320 0.03348 0.41770
 H303 H 0.25912 -0.02267 0.41525
 H304 H 0.36501 -0.10221 0.33203
 H305 H 0.32678 0.02946 0.33420
 H306 H 0.33073 -0.10163 0.37503
 C307 C 0.70784 -0.02173 0.57725
 C308 C 0.71021 0.00772 0.57838
 C309 C 0.69885 0.01607 0.60407
 N310 N 0.68971 -0.00720 0.61868
 C311 C 0.69524 -0.03032 0.60236
 C312 C 0.69884 0.04445 0.61472
 C313 C 0.68228 0.05264 0.63805
 C314 C 0.68484 0.07824 0.65289
 C315 C 0.66363 0.07887 0.67230
 C316 C 0.64893 0.05350 0.66895
 N317 N 0.66035 0.03766 0.64805
 C318 C 0.62452 0.04636 0.68364
 C319 C 0.61426 0.01794 0.68560
 C320 C 0.58845 0.01062 0.69608
 C321 C 0.58734 -0.01891 0.69650
 C322 C 0.61266 -0.02871 0.68658
 N323 N 0.62904 -0.00608 0.67975
 C324 C 0.62070 -0.05808 0.68459
 C325 C 0.64380 -0.06642 0.66795
 C326 C 0.65788 -0.09246 0.67058
 C327 C 0.67771 -0.09279 0.64973
 C328 C 0.67559 -0.06677 0.63525
 N329 N 0.65500 -0.05072 0.64650
 C330 C 0.69143 -0.05916 0.61119
 H331 H 0.71497 -0.03527 0.56010
 H332 H 0.71940 0.02138 0.56224
 H333 H 0.64719 -0.03156 0.63798
 H334 H 0.70019 0.09491 0.64987
 H335 H 0.65942 0.09609 0.68710
 H336 H 0.57211 0.02506 0.70271
 H337 H 0.56979 -0.03167 0.70318
 H338 H 0.69216 -0.11015 0.64579
 H339 H 0.65166 0.01932 0.63910
 H340 H 0.65431 -0.10951 0.68596
 C341 C 0.27596 0.98273 0.60976
 C342 C 0.27489 1.01220 0.61047
 C343 C 0.28352 1.02030 0.63747
 N344 N 0.29016 0.99671 0.65315
 C345 C 0.28541 0.97374 0.63623
 C346 C 0.28383 1.04904 0.64760
 C347 C 0.30049 1.05719 0.67115
 C348 C 0.29810 1.08280 0.68612
 C349 C 0.31855 1.08256 0.70660
 C350 C 0.33254 1.05664 0.70392
 N351 N 0.32156 1.04140 0.68222
 C352 C 0.35562 1.04813 0.72047
 C353 C 0.36511 1.01939 0.72203
 C354 C 0.39014 1.01079 0.73389
 C355 C 0.39020 0.98128 0.73399
 C356 C 0.36525 0.97286 0.72213
 N357 N 0.34992 0.99618 0.71481
 C358 C 0.35611 0.94410 0.72019
 C359 C 0.33346 0.93592 0.70315
 C360 C 0.32060 0.90925 0.70402
 C361 C 0.30107 0.90939 0.68262
 C362 C 0.30263 0.93615 0.66941
 N363 N 0.32241 0.95213 0.68199
 C364 C 0.28758 0.94466 0.64504
 H365 H 0.27043 0.96945 0.59179
 H366 H 0.26855 1.02611 0.59304
 H367 H 0.33013 0.97159 0.67431
 H368 H 0.28310 1.09986 0.68282
 H369 H 0.32249 1.09940 0.72190
 H370 H 0.40652 1.02437 0.74194
 H371 H 0.40666 0.96760 0.74206
 H372 H 0.28752 0.89171 0.67720
 H373 H 0.32968 1.02251 0.67377
 H374 H 0.32507 0.89144 0.71832
 C375 C 0.72199 1.01153 0.39682
 C376 C 0.72341 0.98211 0.39513
 C377 C 0.71274 0.97484 0.36878
 N378 N 0.70488 0.99882 0.35421
 C379 C 0.71087 1.02136 0.37124
 C380 C 0.71235 0.94662 0.35770
 C381 C 0.69546 0.93903 0.33444
 C382 C 0.69758 0.91378 0.31895
 C383 C 0.67602 0.91399 0.29969
 C384 C 0.66149 0.93937 0.30403
 N385 N 0.67338 0.95439 0.32529
 C386 C 0.63701 0.94753 0.28979
 C387 C 0.62604 0.97567 0.29115
 C388 C 0.59954 0.98324 0.28264
 C389 C 0.59795 1.01263 0.28444
 C390 C 0.62373 1.02211 0.29348
 N391 N 0.64081 0.99941 0.29791
 C392 C 0.63193 1.05139 0.29485
 C393 C 0.65542 1.05999 0.31087
 C394 C 0.66939 1.08584 0.30738
 C395 C 0.69103 1.08559 0.32644
 C396 C 0.68973 1.05963 0.34125
 N397 N 0.66800 1.04410 0.33153
 C398 C 0.70834 1.05078 0.36312
 H399 H 0.72861 1.02429 0.41478
 H400 H 0.73140 0.96771 0.41142
 H401 H 0.66100 1.02461 0.33994
 H402 H 0.71288 0.89686 0.32144
 H403 H 0.67141 0.89727 0.28444
 H404 H 0.58320 0.96906 0.27559
 H405 H 0.58001 1.02564 0.27915
 H406 H 0.70638 1.10237 0.32859
 H407 H 0.66516 0.97254 0.33508
 H408 H 0.66499 1.10284 0.29212
 O409 O 0.84664 0.79540 0.46277
 O410 O 0.81349 0.84160 0.51544
 O411 O 0.84840 0.79885 0.51756
 O412 O 0.80984 0.83639 0.46078
 O413 O 0.77686 0.80377 0.46384
 O414 O 0.81309 0.76943 0.52436
 O415 O 0.77827 0.81155 0.51826
 O416 O 0.81458 0.76223 0.46951
 Cu417 Cu 0.83298 0.82118 0.48863
 Cu418 Cu 0.79226 0.78346 0.49417
 C419 C 0.83697 0.77054 0.45796
 C420 C 0.78997 0.83494 0.52538
 C421 C 0.83716 0.77804 0.53087
 C422 C 0.78655 0.82668 0.45280
 O423 O 0.19131 0.15588 0.53824
 O424 O 0.15358 0.19384 0.48130
 O425 O 0.19079 0.15386 0.48284
 O426 O 0.15289 0.19537 0.53645
 O427 O 0.18462 0.22942 0.53489
 O428 O 0.22422 0.18623 0.48286
 O429 O 0.18625 0.22691 0.47963
 O430 O 0.22336 0.18960 0.53808
 Cu431 Cu 0.16896 0.17139 0.50992
 Cu432 Cu 0.20788 0.21140 0.50879
 C433 C 0.21382 0.16606 0.54786
 C434 C 0.16341 0.21686 0.47068
 C435 C 0.21397 0.16278 0.47384
 C436 C 0.16185 0.21973 0.54444
 O437 O 0.17214 0.86346 0.47544
 O438 O 0.13307 0.82265 0.52942
 O439 O 0.16903 0.86368 0.53080
 O440 O 0.13449 0.82398 0.47393
 O441 O 0.16733 0.79077 0.47533
 O442 O 0.20207 0.83080 0.53289
 O443 O 0.16579 0.78928 0.53011
 O444 O 0.20563 0.83102 0.47773
 Cu445 Cu 0.14889 0.84675 0.50222
 Cu446 Cu 0.18861 0.80720 0.50408
 C447 C 0.19570 0.85431 0.46764
 C448 C 0.14271 0.79885 0.53870
 C449 C 0.19131 0.85414 0.54168
 C450 C 0.14477 0.80054 0.46510
 O451 O 0.84126 0.19680 0.52389
 O452 O 0.80353 0.15900 0.46722
 O453 O 0.84291 0.19701 0.46868
 O454 O 0.80206 0.15807 0.52206
 O455 O 0.77056 0.19255 0.52093
 O456 O 0.81187 0.23190 0.46720
 O457 O 0.77214 0.19360 0.46605
 O458 O 0.81027 0.23175 0.52264
 Cu459 Cu 0.82560 0.17434 0.49565
 Cu460 Cu 0.78815 0.21603 0.49424
 C461 C 0.83252 0.22101 0.53264
 C462 C 0.78115 0.16949 0.45728
 C463 C 0.83459 0.22107 0.45882
 C464 C 0.77892 0.16812 0.53000
 O465 O 0.47157 0.84298 0.81012
 O466 O 0.52638 0.80575 0.85023
 O467 O 0.52486 0.84862 0.81327
 O468 O 0.47316 0.80361 0.84863
 O469 O 0.47742 0.77051 0.81544
 O470 O 0.52780 0.81762 0.77805
 O471 O 0.53167 0.77488 0.81508
 O472 O 0.47471 0.81055 0.77612
 Cu473 Cu 0.49890 0.82848 0.83396
 Cu474 Cu 0.50344 0.79007 0.79281
 C475 C 0.46358 0.83300 0.78637
 C476 C 0.53819 0.78385 0.83963
 C477 C 0.53454 0.84151 0.78925
 C478 C 0.46631 0.77949 0.83829
 O479 O 0.52654 0.19773 0.16159
 O480 O 0.47166 0.15966 0.19964
 O481 O 0.47318 0.19901 0.15909
 O482 O 0.52494 0.15904 0.20100
 O483 O 0.52405 0.19250 0.23409
 O484 O 0.47322 0.23369 0.19094
 O485 O 0.46978 0.19443 0.23146
 O486 O 0.52648 0.23193 0.19402
 Cu487 Cu 0.49890 0.17543 0.17711
 Cu488 Cu 0.49819 0.21650 0.21603
 C489 C 0.53591 0.22130 0.17115
 C490 C 0.46162 0.17026 0.22216
 C491 C 0.46505 0.22365 0.16726
 C492 C 0.53341 0.16877 0.22465
 O493 O 0.53035 0.13739 0.81171
 O494 O 0.47992 0.17801 0.85198
 O495 O 0.47653 0.14186 0.81055
 O496 O 0.53318 0.17887 0.84848
 O497 O 0.53316 0.21261 0.81515
 O498 O 0.47717 0.17594 0.77756
 O499 O 0.47973 0.21275 0.81968
 O500 O 0.53087 0.17073 0.77800
 Cu501 Cu 0.50504 0.15560 0.83382
 Cu502 Cu 0.50524 0.19635 0.79424
 C503 C 0.53933 0.14671 0.78814
 C504 C 0.47138 0.20235 0.84332
 C505 C 0.46720 0.15274 0.78747
 C506 C 0.54248 0.20246 0.83839
 O507 O 0.52858 0.85421 0.18579
 O508 O 0.47375 0.82496 0.14033
 O509 O 0.47651 0.86354 0.18143
 O510 O 0.52693 0.81602 0.14671
 O511 O 0.51820 0.78180 0.17833
 O512 O 0.46680 0.82941 0.21280
 O513 O 0.46544 0.79078 0.17196
 O514 O 0.51993 0.82099 0.21837
 Cu515 Cu 0.50194 0.84296 0.16016
 Cu516 Cu 0.49164 0.80234 0.19854
 C517 C 0.53355 0.84287 0.20992
 C518 C 0.46059 0.80256 0.14796
 C519 C 0.46370 0.85500 0.20347
 C520 C 0.53141 0.79095 0.15675
 O521 O 0.81041 0.46562 0.85712
 O522 O 0.85709 0.51965 0.82696
 O523 O 0.81772 0.51988 0.86626
 O524 O 0.84790 0.46585 0.81875
 O525 O 0.81702 0.47689 0.78572
 O526 O 0.78696 0.53184 0.83338
 O527 O 0.82597 0.53132 0.79433
 O528 O 0.77862 0.47679 0.82507
 Cu529 Cu 0.83641 0.49203 0.84566
 Cu530 Cu 0.79896 0.50545 0.80641
 C531 C 0.78665 0.46174 0.84631
 C532 C 0.85005 0.53389 0.80493
 C533 C 0.79683 0.53456 0.85830
 C534 C 0.83775 0.46212 0.79410
 O535 O 0.13812 0.51263 0.17813
 O536 O 0.17948 0.46464 0.13420
 O537 O 0.14676 0.45808 0.17719
 O538 O 0.17299 0.52004 0.13615
 O539 O 0.20819 0.52369 0.16586
 O540 O 0.18085 0.46309 0.20809
 O541 O 0.21437 0.46806 0.16435
 O542 O 0.17308 0.51848 0.20793
 Cu543 Cu 0.15590 0.48857 0.15334
 Cu544 Cu 0.19769 0.49376 0.18956
 C545 C 0.14812 0.52326 0.20069
 C546 C 0.20392 0.45801 0.14160
 C547 C 0.15894 0.45043 0.20003
 C548 C 0.19543 0.53209 0.14364
 O549 O 0.86149 0.46683 0.18021
 O550 O 0.82851 0.52226 0.13537
 O551 O 0.86348 0.52248 0.17835
 O552 O 0.82849 0.46699 0.13698
 O553 O 0.79294 0.46841 0.16625
 O554 O 0.82800 0.52509 0.20778
 O555 O 0.79340 0.52451 0.16532
 O556 O 0.82664 0.46873 0.21032
 Cu557 Cu 0.84910 0.49466 0.15485
 Cu558 Cu 0.80669 0.49680 0.19047
 C559 C 0.84983 0.45828 0.20292
 C560 C 0.80513 0.53240 0.14245
 C561 C 0.85198 0.53305 0.20014
 C562 C 0.80468 0.45832 0.14423
 O563 O 0.18447 0.53219 0.84797
 O564 O 0.14454 0.47538 0.81140
 O565 O 0.18167 0.47662 0.85214
 O566 O 0.14439 0.53167 0.81124
 O567 O 0.17516 0.52879 0.77673
 O568 O 0.21442 0.47509 0.81963
 O569 O 0.17702 0.47277 0.77869
 O570 O 0.21575 0.53049 0.81394
 Cu571 Cu 0.16055 0.50405 0.83395
 Cu572 Cu 0.19869 0.50149 0.79385
 C573 C 0.20714 0.54083 0.83723
 C574 C 0.15394 0.46453 0.78856
 C575 C 0.20481 0.46715 0.84363
 C576 C 0.15313 0.53953 0.78704
 C577 C 0.30891 0.40409 0.08848
 C578 C 0.29562 0.39129 0.06520
 C579 C 0.26675 0.39249 0.06297
 C580 C 0.25119 0.40716 0.08336
 C581 C 0.26465 0.42061 0.10650
 C582 C 0.29352 0.41866 0.10904
 C583 C 0.24906 0.43634 0.12625
 C584 C 0.22027 0.43910 0.12284
 C585 C 0.20714 0.42500 0.10011
 C586 C 0.22244 0.40911 0.08062
 H587 H 0.25653 0.38239 0.04505
 H588 H 0.30421 0.42877 0.12663
 H589 H 0.25942 0.44718 0.14363
 H590 H 0.21182 0.39882 0.06308
 H591 H 0.33123 0.40317 0.09043
 H592 H 0.18497 0.42661 0.09708
 C593 C 0.74840 0.64508 0.10123
 C594 C 0.73918 0.63457 0.07488
 C595 C 0.74548 0.60602 0.06739
 C596 C 0.76087 0.58825 0.08572
 C597 C 0.76921 0.59862 0.11264
 C598 C 0.76294 0.62713 0.12015
 C599 C 0.78369 0.58027 0.13143
 C600 C 0.79074 0.55223 0.12301
 C601 C 0.78321 0.54251 0.09592
 C602 C 0.76806 0.56025 0.07751
 H603 H 0.73839 0.59767 0.04714
 H604 H 0.76943 0.63558 0.14053
 H605 H 0.78972 0.58777 0.15235
 H606 H 0.76200 0.55208 0.05687
 H607 H 0.74412 0.66714 0.10724
 H608 H 0.78850 0.52086 0.08930
 C609 C 0.75650 0.36462 0.93057
 C610 C 0.72769 0.36678 0.92782
 C611 C 0.71614 0.38494 0.90688
 C612 C 0.73340 0.40213 0.88977
 C613 C 0.76240 0.40063 0.89354
 C614 C 0.77376 0.38129 0.91345
 C615 C 0.77958 0.41934 0.87825
 C616 C 0.76832 0.43989 0.85936
 C617 C 0.73959 0.44043 0.85475
 C618 C 0.72224 0.42169 0.86986
 H619 H 0.69384 0.38672 0.90498
 H620 H 0.79595 0.37984 0.91649
 H621 H 0.80175 0.41847 0.88177
 H622 H 0.70009 0.42307 0.86659
 H623 H 0.76555 0.35075 0.94676
 H624 H 0.73045 0.45603 0.84024
 C625 C 0.23717 0.62648 0.93268
 C626 C 0.26567 0.62792 0.92709
 C627 C 0.27630 0.61429 0.90288
 C628 C 0.25881 0.59814 0.88519
 C629 C 0.23038 0.59569 0.89179
 C630 C 0.21967 0.61048 0.91522
 C631 C 0.21332 0.57773 0.87546
 C632 C 0.22427 0.56219 0.85252
 C633 C 0.25230 0.56578 0.84539
 C634 C 0.26942 0.58352 0.86162
 H635 H 0.29830 0.61525 0.89858
 H636 H 0.19791 0.60903 0.92049
 H637 H 0.19170 0.57533 0.88105
 H638 H 0.29111 0.58525 0.85613
 H639 H 0.22867 0.63697 0.95123
 H640 H 0.26127 0.55408 0.82781
 C641 C 0.06843 0.23579 0.38421
 C642 C 0.07332 0.26510 0.37863
 C643 C 0.09667 0.27846 0.39050
 C644 C 0.11436 0.26291 0.40881
 C645 C 0.10863 0.23369 0.41512
 C646 C 0.08591 0.22020 0.40233
 C647 C 0.12525 0.21860 0.43469
 C648 C 0.14761 0.23226 0.44819
 C649 C 0.15374 0.26101 0.44105
 C650 C 0.13722 0.27624 0.42156
 H651 H 0.10045 0.30110 0.38622
 H652 H 0.08134 0.19777 0.40680
 H653 H 0.12043 0.19636 0.43980
 H654 H 0.14201 0.29857 0.41689
 H655 H 0.05059 0.22519 0.37504
 H656 H 0.17086 0.27201 0.45113
 C657 C 0.06809 0.77536 0.64292
 C658 C 0.06362 0.74601 0.63760
 C659 C 0.07700 0.73279 0.61468
 C660 C 0.09426 0.74884 0.59674
 C661 C 0.09760 0.77875 0.60131
 C662 C 0.08476 0.79171 0.62473
 C663 C 0.11344 0.79515 0.58219
 C664 C 0.12668 0.78178 0.55923
 C665 C 0.12422 0.75191 0.55558
 C666 C 0.10784 0.73559 0.57399
 H667 H 0.07349 0.71011 0.61057
 H668 H 0.08731 0.81453 0.62872
 H669 H 0.11564 0.81818 0.58522
 H670 H 0.10565 0.71267 0.57033
 H671 H 0.05783 0.78576 0.66056
 H672 H 0.13435 0.74135 0.53795
 C673 C 0.92340 0.73978 0.36733
 C674 C 0.92915 0.71179 0.37721
 C675 C 0.91343 0.70003 0.39952
 C676 C 0.89227 0.71632 0.41207
 C677 C 0.88753 0.74500 0.40281
 C678 C 0.90292 0.75638 0.38018
 C679 C 0.86816 0.76216 0.41696
 C680 C 0.85310 0.75095 0.43996
 C681 C 0.85662 0.72195 0.44793
 C682 C 0.87625 0.70479 0.43422
 H683 H 0.91797 0.67846 0.40727
 H684 H 0.89940 0.77824 0.37271
 H685 H 0.86541 0.78454 0.41071
 H686 H 0.87942 0.68279 0.44143
 H687 H 0.93536 0.74902 0.35009
 H688 H 0.84533 0.71308 0.46582
 C689 C 0.92946 0.24309 0.61613
 C690 C 0.92519 0.27284 0.61949
 C691 C 0.90202 0.28595 0.60663
 C692 C 0.88378 0.26967 0.58985
 C693 C 0.88886 0.23994 0.58581
 C694 C 0.91155 0.22681 0.59935
 C695 C 0.87152 0.22397 0.56784
 C696 C 0.84905 0.23723 0.55380
 C697 C 0.84364 0.26658 0.55874
 C698 C 0.86088 0.28266 0.57654
 H699 H 0.89859 0.30889 0.60925
 H700 H 0.91564 0.20401 0.59667
 H701 H 0.87587 0.20133 0.56438
 H702 H 0.85658 0.30537 0.57949
 H703 H 0.94704 0.23258 0.62616
 H704 H 0.82652 0.27736 0.54819
 C705 C 0.41664 0.06174 0.28146
 C706 C 0.39043 0.07253 0.28878
 C707 C 0.38359 0.10124 0.28176
 C708 C 0.40285 0.11890 0.26765
 C709 C 0.42870 0.10728 0.25953
 C710 C 0.43543 0.07879 0.26663
 C711 C 0.44751 0.12435 0.24447
 C712 C 0.44139 0.15324 0.23825
 C713 C 0.41622 0.16515 0.24723
 C714 C 0.39685 0.14795 0.26149
 H715 H 0.36341 0.10971 0.28726
 H716 H 0.45530 0.06971 0.26085
 H717 H 0.46718 0.11530 0.23789
 H718 H 0.37727 0.15734 0.26777
 H719 H 0.42245 0.03983 0.28699
 H720 H 0.41133 0.18750 0.24259
 C721 C 0.59682 0.09211 0.68398
 C722 C 0.60972 0.06949 0.69898
 C723 C 0.60810 0.06841 0.72870
 C724 C 0.59284 0.08914 0.74340
 C725 C 0.57920 0.11153 0.72824
 C726 C 0.58165 0.11304 0.69852
 C727 C 0.56270 0.13141 0.74301
 C728 C 0.55932 0.12866 0.77260
 C729 C 0.57371 0.10681 0.78741
 C730 C 0.59040 0.08733 0.77298
 H731 H 0.61828 0.05101 0.74023
 H732 H 0.57143 0.13004 0.68652
 H733 H 0.55161 0.14811 0.73140
 H734 H 0.60085 0.07040 0.78489
 H735 H 0.59809 0.09318 0.66099
 H736 H 0.57166 0.10442 0.81025
 C737 C 0.37225 0.92401 0.76678
 C738 C 0.37103 0.92182 0.73704
 C739 C 0.38605 0.90012 0.72326
 C740 C 0.40346 0.88172 0.73899
 C741 C 0.40561 0.88501 0.76881
 C742 C 0.38943 0.90574 0.78259
 C743 C 0.42463 0.86827 0.78427
 C744 C 0.44162 0.84824 0.77037
 C745 C 0.43847 0.84416 0.74093
 C746 C 0.41957 0.86083 0.72534
 H747 H 0.38509 0.89850 0.70027
 H748 H 0.39069 0.90839 0.80544
 H749 H 0.42667 0.87135 0.80703
 H750 H 0.41808 0.85790 0.70253
 H751 H 0.36064 0.94063 0.77761
 H752 H 0.45131 0.82878 0.72980
 C753 C 0.62284 0.93176 0.24144
 C754 C 0.62297 0.92668 0.27089
 C755 C 0.60766 0.90364 0.28224
 C756 C 0.59112 0.88669 0.26429
 C757 C 0.59037 0.89271 0.23475
 C758 C 0.60678 0.91483 0.22347
 C759 C 0.57242 0.87733 0.21707
 C760 C 0.55480 0.85613 0.22838
 C761 C 0.55644 0.84943 0.25756
 C762 C 0.57448 0.86458 0.27538
 H763 H 0.60768 0.89987 0.30503
 H764 H 0.60650 0.91964 0.20087
 H765 H 0.57158 0.88257 0.19456
 H766 H 0.57484 0.85956 0.29793
 H767 H 0.63457 0.94949 0.23251
 H768 H 0.54312 0.83316 0.26679
 C769 C 0.40964 0.30830 0.89222
 C770 C 0.40123 0.29506 0.91785
 C771 C 0.40673 0.26555 0.92197
 C772 C 0.42105 0.24977 0.90152
 C773 C 0.43032 0.26344 0.87634
 C774 C 0.42424 0.29269 0.87176
 C775 C 0.44593 0.24772 0.85654
 C776 C 0.45234 0.21858 0.86185
 C777 C 0.44200 0.20511 0.88653
 C778 C 0.42654 0.22054 0.90615
 H779 H 0.39946 0.25470 0.94105
 H780 H 0.43104 0.30356 0.85255
 H781 H 0.45373 0.25833 0.83758
 H782 H 0.41933 0.20970 0.92523
 H783 H 0.40569 0.33101 0.88843
 H784 H 0.44638 0.18264 0.89111
 C785 C 0.58650 0.72743 0.94771
 C786 C 0.61346 0.72200 0.93758
 C787 C 0.61914 0.72775 0.90862
 C788 C 0.59887 0.74025 0.89085
 C789 C 0.57267 0.74730 0.90214
 C790 C 0.56651 0.74024 0.93035
 C791 C 0.55308 0.76158 0.88514
 C792 C 0.55894 0.76823 0.85668
 C793 C 0.58444 0.76005 0.84505
 C794 C 0.60446 0.74646 0.86213
 H795 H 0.63968 0.72395 0.90025
 H796 H 0.54629 0.74487 0.93911
 H797 H 0.53316 0.76744 0.89398
 H798 H 0.62432 0.74102 0.85298
 H799 H 0.58087 0.72199 0.96939
 H800 H 0.58913 0.76492 0.82301
 C801 C 0.38465 0.70757 0.09863
 C802 C 0.37874 0.72109 0.07231
 C803 C 0.38883 0.74924 0.06757
 C804 C 0.40523 0.76304 0.08802
 C805 C 0.41149 0.74888 0.11396
 C806 C 0.40082 0.72129 0.11917
 C807 C 0.42878 0.76228 0.13397
 C808 C 0.44020 0.78959 0.12821
 C809 C 0.43329 0.80370 0.10256
 C810 C 0.41589 0.79061 0.08272
 H811 H 0.38377 0.76055 0.04795
 H812 H 0.40542 0.71007 0.13894
 H813 H 0.43395 0.75109 0.15361
 H814 H 0.41122 0.80184 0.06298
 H815 H 0.37761 0.68584 0.10296
 H816 H 0.44169 0.82474 0.09758
 C817 C 0.62064 0.23732 0.07484
 C818 C 0.62238 0.26747 0.07616
 C819 C 0.60898 0.28223 0.09819
 C820 C 0.59285 0.26706 0.11799
 C821 C 0.59020 0.23682 0.11565
 C822 C 0.60460 0.22209 0.09438
 C823 C 0.57248 0.22189 0.13400
 C824 C 0.55724 0.23671 0.15470
 C825 C 0.56097 0.26654 0.15781
 C826 C 0.57862 0.28164 0.13953
 H827 H 0.61043 0.30552 0.09929
 H828 H 0.60296 0.19889 0.09247
 H829 H 0.56996 0.19881 0.13163
 H830 H 0.58055 0.30478 0.14175
 H831 H 0.63120 0.22567 0.05816
 H832 H 0.54942 0.27839 0.17362
 C833 C 0.23900 0.06268 0.62706
 C834 C 0.26661 0.06968 0.63379
 C835 C 0.27704 0.09662 0.62481
 C836 C 0.26081 0.11514 0.60775
 C837 C 0.23360 0.10706 0.60024
 C838 C 0.22268 0.08116 0.61059
 C839 C 0.21802 0.12444 0.58166
 C840 C 0.22933 0.14974 0.56996
 C841 C 0.25607 0.15817 0.57827
 C842 C 0.27166 0.14105 0.59706
 H843 H 0.29831 0.10231 0.62943
 H844 H 0.20175 0.07479 0.60529
 H845 H 0.19738 0.11772 0.57561
 H846 H 0.29244 0.14769 0.60261
 H847 H 0.23010 0.04252 0.63432
 H848 H 0.26527 0.17760 0.56965
 C849 C 0.75385 0.06499 0.38170
 C850 C 0.72570 0.07137 0.37657
 C851 C 0.71519 0.09808 0.38599
 C852 C 0.73199 0.11703 0.40160
 C853 C 0.75976 0.10952 0.40755
 C854 C 0.77062 0.08376 0.39700
 C855 C 0.77605 0.12741 0.42468
 C856 C 0.76495 0.15275 0.43631
 C857 C 0.73761 0.16064 0.42941
 C858 C 0.72128 0.14294 0.41221
 H859 H 0.69358 0.10341 0.38260
 H860 H 0.79198 0.07785 0.40103
 H861 H 0.79714 0.12111 0.42966
 H862 H 0.70007 0.14917 0.40780
 H863 H 0.76297 0.04524 0.37384
 H864 H 0.72852 0.18004 0.43806
 C865 C 0.69095 0.89527 0.58298
 C866 C 0.70602 0.91762 0.59564
 C867 C 0.73494 0.91796 0.59343
 C868 C 0.74870 0.89668 0.57787
 C869 C 0.73339 0.87439 0.56487
 C870 C 0.70454 0.87373 0.56779
 C871 C 0.74712 0.85356 0.54864
 C872 C 0.77588 0.85512 0.54469
 C873 C 0.79091 0.87718 0.55799
 C874 C 0.77746 0.89766 0.57462
 H875 H 0.74660 0.93508 0.60345
 H876 H 0.69248 0.85682 0.55797
 H877 H 0.73531 0.83677 0.53829
 H878 H 0.78949 0.91458 0.58446
 H879 H 0.66862 0.89472 0.58467
 H880 H 0.81310 0.87876 0.55533
 C881 C 0.29886 0.91539 0.41933
 C882 C 0.28565 0.92936 0.39643
 C883 C 0.25752 0.92413 0.39113
 C884 C 0.24239 0.90593 0.40920
 C885 C 0.25590 0.89166 0.43205
 C886 C 0.28422 0.89625 0.43670
 C887 C 0.24065 0.87386 0.45043
 C888 C 0.21190 0.87122 0.44702
 C889 C 0.19861 0.88571 0.42449
 C890 C 0.21380 0.90258 0.40543
 H891 H 0.24723 0.93533 0.37372
 H892 H 0.29484 0.88573 0.45429
 H893 H 0.25090 0.86303 0.46808
 H894 H 0.20310 0.91352 0.38816
 H895 H 0.32042 0.91965 0.42394
 H896 H 0.17645 0.88384 0.42157
 C897 C 0.05414 0.38554 0.76197
 C898 C 0.06101 0.37903 0.73355
 C899 C 0.08675 0.38852 0.72303
 C900 C 0.10428 0.40559 0.73988
 C901 C 0.09633 0.41302 0.76780
 C902 C 0.07150 0.40237 0.77882
 C903 C 0.11299 0.43155 0.78401
 C904 C 0.13757 0.44289 0.77265
 C905 C 0.14572 0.43456 0.74517
 C906 C 0.12924 0.41614 0.72895
 H907 H 0.09246 0.38408 0.70120
 H908 H 0.06523 0.40745 0.80033
 H909 H 0.10648 0.43763 0.80520
 H910 H 0.13577 0.41061 0.70763
 H911 H 0.03506 0.37769 0.77121
 H912 H 0.16455 0.44288 0.73583
 C913 C 0.10690 0.62471 0.27478
 C914 C 0.07976 0.61439 0.27881
 C915 C 0.07299 0.58705 0.26798
 C916 C 0.09206 0.57113 0.25230
 C917 C 0.11914 0.58172 0.24820
 C918 C 0.12645 0.60842 0.25985
 C919 C 0.13809 0.56566 0.23202
 C920 C 0.12963 0.53988 0.21914
 C921 C 0.10265 0.52972 0.22337
 C922 C 0.08412 0.54499 0.24012
 H923 H 0.05261 0.57807 0.27168
 H924 H 0.14704 0.61704 0.25680
 H925 H 0.15889 0.57359 0.22862
 H926 H 0.06341 0.53664 0.24307
 H927 H 0.11277 0.64585 0.28230
 H928 H 0.09593 0.50974 0.21378
 C929 C 0.94352 0.37413 0.23606
 C930 C 0.93667 0.37044 0.26501
 C931 C 0.91148 0.38206 0.27488
 C932 C 0.89476 0.39900 0.25672
 C933 C 0.90286 0.40361 0.22819
 C934 C 0.92684 0.39047 0.21790
 C935 C 0.88743 0.42208 0.21056
 C936 C 0.86401 0.43648 0.22100
 C937 C 0.85543 0.43102 0.24908
 C938 C 0.87067 0.41240 0.26680
 H939 H 0.90584 0.37958 0.29708
 H940 H 0.93311 0.39344 0.19596
 H941 H 0.89417 0.42585 0.18887
 H942 H 0.86402 0.40909 0.28857
 H943 H 0.96217 0.36457 0.22749
 H944 H 0.83740 0.44178 0.25763
 C945 C 0.89680 0.63577 0.73369
 C946 C 0.92461 0.62636 0.73294
 C947 C 0.93121 0.59985 0.74626
 C948 C 0.91117 0.58407 0.76112
 C949 C 0.88343 0.59371 0.76147
 C950 C 0.87645 0.61951 0.74749
 C951 C 0.86326 0.57738 0.77582
 C952 C 0.87084 0.55214 0.79067
 C953 C 0.89863 0.54324 0.79076
 C954 C 0.91855 0.55882 0.77582
 H955 H 0.95199 0.59116 0.74483
 H956 H 0.85534 0.62740 0.74766
 H957 H 0.84185 0.58440 0.77572
 H958 H 0.93975 0.55119 0.77588
 H959 H 0.89081 0.65619 0.72416
 H960 H 0.90485 0.52368 0.80179
 C961 C 0.73332 0.64176 0.90283
 C962 C 0.72999 0.63194 0.93100
 C963 C 0.74043 0.60459 0.93860
 C964 C 0.75475 0.58777 0.91881
 C965 C 0.75750 0.59753 0.89039
 C966 C 0.74660 0.62455 0.88261
 C967 C 0.77119 0.58011 0.87041
 C968 C 0.78309 0.55370 0.87891
 C969 C 0.78094 0.54475 0.90742
 C970 C 0.76657 0.56141 0.92710
 H971 H 0.73766 0.59654 0.96012
 H972 H 0.74865 0.63254 0.86101
 H973 H 0.77293 0.58721 0.84846
 H974 H 0.76482 0.55372 0.94885
 H975 H 0.72561 0.66279 0.89650
 H976 H 0.78976 0.52437 0.91432
 C977 C 0.30915 0.40656 0.89286
 C978 C 0.29749 0.39762 0.91894
 C979 C 0.26917 0.40295 0.92364
 C980 C 0.25298 0.41717 0.90308
 C981 C 0.26507 0.42651 0.87729
 C982 C 0.29315 0.42094 0.87234
 C983 C 0.24900 0.44175 0.85719
 C984 C 0.22102 0.44793 0.86272
 C985 C 0.20911 0.43769 0.88812
 C986 C 0.22490 0.42244 0.90806
 H987 H 0.25953 0.39546 0.94314
 H988 H 0.30282 0.42794 0.85272
 H989 H 0.25850 0.44958 0.83777
 H990 H 0.21526 0.41525 0.92764
 H991 H 0.33091 0.40308 0.88864
 H992 H 0.18762 0.44204 0.89295
 C993 C 0.28718 0.61275 0.09828
 C994 C 0.27408 0.62072 0.07254
 C995 C 0.24641 0.61213 0.06814
 C996 C 0.23290 0.59434 0.08787
 C997 C 0.24679 0.58548 0.11293
 C998 C 0.27369 0.59533 0.11823
 C999 C 0.23392 0.56618 0.13178
 C1000 C 0.20744 0.55521 0.12568
 C1001 C 0.19346 0.56499 0.10116
 C1002 C 0.20602 0.58448 0.08250
 H1003 H 0.23547 0.61901 0.04907
 H1004 H 0.28463 0.58883 0.13739
 H1005 H 0.24497 0.55890 0.15062
 H1006 H 0.19501 0.59119 0.06344
 H1007 H 0.30845 0.61874 0.10240
 H1008 H 0.17303 0.55702 0.09600
 C1009 C 0.70748 0.38529 0.09781
 C1010 C 0.72069 0.37583 0.07284
 C1011 C 0.74865 0.38302 0.06862
 C1012 C 0.76280 0.40018 0.08819
 C1013 C 0.74908 0.41035 0.11266
 C1014 C 0.72151 0.40247 0.11745
 C1015 C 0.76302 0.42867 0.13155
 C1016 C 0.79047 0.43699 0.12611
 C1017 C 0.80406 0.42597 0.10208
 C1018 C 0.79038 0.40773 0.08334
 H1019 H 0.75948 0.37511 0.05005
 H1020 H 0.71064 0.40997 0.13613
 H1021 H 0.75231 0.43696 0.15001
 H1022 H 0.80124 0.39996 0.06475
 H1023 H 0.68593 0.38029 0.10163
 H1024 H 0.82523 0.43187 0.09739
 C1025 C 0.93782 0.71947 0.58738
 C1026 C 0.92752 0.71867 0.61531
 C1027 C 0.90018 0.72749 0.62048
 C1028 C 0.88377 0.73841 0.59812
 C1029 C 0.89506 0.74083 0.57045
 C1030 C 0.92185 0.73074 0.56519
 C1031 C 0.87956 0.75375 0.54859
 C1032 C 0.85261 0.76349 0.55374
 C1033 C 0.84091 0.75977 0.58078
 C1034 C 0.85652 0.74762 0.60297
 H1035 H 0.89211 0.72669 0.64196
 H1036 H 0.93064 0.73204 0.54404
 H1037 H 0.88839 0.75625 0.52752
 H1038 H 0.84742 0.74571 0.62393
 H1039 H 0.95872 0.71233 0.58300
 H1040 H 0.82003 0.76713 0.58493
 C1041 C 0.93837 0.24268 0.38571
 C1042 C 0.93259 0.27137 0.37745
 C1043 C 0.90685 0.28347 0.38506
 C1044 C 0.88805 0.26773 0.40182
 C1045 C 0.89474 0.23935 0.41056
 C1046 C 0.91969 0.22688 0.40199
 C1047 C 0.87673 0.22404 0.42835
 C1048 C 0.85209 0.23672 0.43802
 C1049 C 0.84521 0.26473 0.42871
 C1050 C 0.86302 0.28008 0.41071
 H1051 H 0.90207 0.30559 0.37924
 H1052 H 0.92499 0.20503 0.40827
 H1053 H 0.88232 0.20243 0.43521
 H1054 H 0.85746 0.30180 0.40421
 H1055 H 0.95751 0.23234 0.37945
 H1056 H 0.82634 0.27501 0.43578
 C1057 C 0.06387 0.24524 0.62476
 C1058 C 0.06729 0.27525 0.62620
 C1059 C 0.09044 0.28804 0.61327
 C1060 C 0.10935 0.27108 0.59795
 C1061 C 0.10503 0.24104 0.59571
 C1062 C 0.08252 0.22828 0.60961
 C1063 C 0.12282 0.22432 0.57900
 C1064 C 0.14501 0.23710 0.56435
 C1065 C 0.14978 0.26679 0.56757
 C1066 C 0.13207 0.28365 0.58417
 H1067 H 0.09317 0.31119 0.61440
 H1068 H 0.07901 0.20527 0.60828
 H1069 H 0.11900 0.20141 0.57692
 H1070 H 0.13582 0.30660 0.58573
 H1071 H 0.04627 0.23504 0.63483
 H1072 H 0.16671 0.27717 0.55652
 C1073 C 0.08527 0.69573 0.41342
 C1074 C 0.07220 0.71044 0.39079
 C1075 C 0.07782 0.73988 0.38649
 C1076 C 0.09573 0.75456 0.40481
 C1077 C 0.10901 0.73949 0.42731
 C1078 C 0.10380 0.71002 0.43127
 C1079 C 0.12642 0.75440 0.44606
 C1080 C 0.12971 0.78433 0.44327
 C1081 C 0.11645 0.79911 0.42090
 C1082 C 0.09993 0.78428 0.40153
 H1083 H 0.06778 0.75143 0.36914
 H1084 H 0.11350 0.69822 0.44862
 H1085 H 0.13624 0.74304 0.46366
 H1086 H 0.08982 0.79617 0.38449
 H1087 H 0.08067 0.67326 0.41765
 H1088 H 0.11874 0.82223 0.41857
 C1089 C 0.59817 0.89438 0.68699
 C1090 C 0.60582 0.92051 0.69999
 C1091 C 0.59857 0.92478 0.72870
 C1092 C 0.58388 0.90369 0.74393
 C1093 C 0.57609 0.87780 0.73047
 C1094 C 0.58345 0.87333 0.70202
 C1095 C 0.56075 0.85703 0.74556
 C1096 C 0.55293 0.86192 0.77395
 C1097 C 0.56135 0.88756 0.78722
 C1098 C 0.57669 0.90819 0.77240
 H1099 H 0.60489 0.94432 0.73943
 H1100 H 0.57761 0.85366 0.69128
 H1101 H 0.55436 0.83744 0.73499
 H1102 H 0.58259 0.92786 0.78311
 H1103 H 0.60296 0.89051 0.66484
 H1104 H 0.55569 0.89196 0.80905
 C1105 C 0.36584 0.90101 0.27604
 C1106 C 0.37641 0.92895 0.28072
 C1107 C 0.40219 0.93593 0.26839
 C1108 C 0.41669 0.91606 0.25175
 C1109 C 0.40627 0.88792 0.24812
 C1110 C 0.38076 0.88066 0.26033
 C1111 C 0.42157 0.86768 0.23233
 C1112 C 0.44654 0.87582 0.21927
 C1113 C 0.45612 0.90417 0.22230
 C1114 C 0.44157 0.92399 0.23870
 H1115 H 0.41146 0.95681 0.27223
 H1116 H 0.37214 0.85934 0.25741
 H1117 H 0.41399 0.84586 0.22993
 H1118 H 0.44976 0.94555 0.24112
 H1119 H 0.34568 0.89497 0.28405
 H1120 H 0.47542 0.91079 0.21261
 C1121 C 0.61065 0.06550 0.24947
 C1122 C 0.61727 0.07191 0.27799
 C1123 C 0.60800 0.09829 0.28939
 C1124 C 0.59087 0.11681 0.27319
 C1125 C 0.58368 0.10929 0.24504
 C1126 C 0.59414 0.08396 0.23322
 C1127 C 0.56557 0.12680 0.22927
 C1128 C 0.55404 0.15179 0.24118
 C1129 C 0.56175 0.15957 0.26897
 C1130 C 0.58005 0.14225 0.28482
 H1131 H 0.61274 0.10360 0.31130
 H1132 H 0.58909 0.07808 0.21154
 H1133 H 0.56002 0.12055 0.20781
 H1134 H 0.58531 0.14846 0.30635
 H1135 H 0.61825 0.04594 0.23970
 H1136 H 0.55325 0.17875 0.27864
 C1137 C 0.37187 0.06658 0.76746
 C1138 C 0.37046 0.06985 0.73775
 C1139 C 0.38623 0.09125 0.72430
 C1140 C 0.40474 0.10798 0.74019
 C1141 C 0.40725 0.10340 0.76990
 C1142 C 0.39015 0.08322 0.78343
 C1143 C 0.42741 0.11838 0.78540
 C1144 C 0.44492 0.13812 0.77164
 C1145 C 0.44146 0.14340 0.74233
 C1146 C 0.42164 0.12837 0.72672
 H1147 H 0.38519 0.09368 0.70135
 H1148 H 0.39160 0.07960 0.80619
 H1149 H 0.42969 0.11444 0.80805
 H1150 H 0.41992 0.13226 0.70401
 H1151 H 0.35977 0.05011 0.77805
 H1152 H 0.45466 0.15859 0.73128
 C1153 C 0.63694 0.76292 0.08841
 C1154 C 0.62978 0.73463 0.08109
 C1155 C 0.60594 0.72211 0.09283
 C1156 C 0.58863 0.73824 0.11071
 C1157 C 0.59510 0.76734 0.11648
 C1158 C 0.61963 0.77925 0.10579
 C1159 C 0.57655 0.78428 0.13211
 C1160 C 0.55195 0.77234 0.14270
 C1161 C 0.54642 0.74302 0.13830
 C1162 C 0.56449 0.72614 0.12216
 H1163 H 0.60042 0.70024 0.08718
 H1164 H 0.62505 0.80141 0.11025
 H1165 H 0.58104 0.80684 0.13577
 H1166 H 0.55931 0.70382 0.11818
 H1167 H 0.65528 0.77278 0.07949
 H1168 H 0.52754 0.73348 0.14633
 C1169 C 0.39926 0.25382 0.05773
 C1170 C 0.39550 0.28330 0.06318
 C1171 C 0.40484 0.29466 0.08914
 C1172 C 0.41812 0.27684 0.10927
 C1173 C 0.42238 0.24734 0.10326
 C1174 C 0.41268 0.23601 0.07752
 C1175 C 0.43676 0.22980 0.12280
 C1176 C 0.44706 0.24131 0.14835
 C1177 C 0.44192 0.27046 0.15450
 C1178 C 0.42762 0.28807 0.13513
 H1179 H 0.40201 0.31741 0.09345
 H1180 H 0.41564 0.21343 0.07261
 H1181 H 0.44049 0.20736 0.11776
 H1182 H 0.42442 0.31059 0.14017
 H1183 H 0.39195 0.24465 0.03796
 H1184 H 0.44965 0.27993 0.17395
 C1185 C 0.62559 0.22794 0.93526
 C1186 C 0.62788 0.25770 0.93009
 C1187 C 0.61519 0.26985 0.90595
 C1188 C 0.59912 0.25269 0.88788
 C1189 C 0.59573 0.22301 0.89404
 C1190 C 0.60956 0.21072 0.91742
 C1191 C 0.57790 0.20636 0.87726
 C1192 C 0.56348 0.21897 0.85432
 C1193 C 0.56799 0.24820 0.84766
 C1194 C 0.58558 0.26492 0.86433
 H1195 H 0.61694 0.29282 0.90195
 H1196 H 0.60742 0.18798 0.92234
 H1197 H 0.57476 0.18380 0.88246
 H1198 H 0.58806 0.28758 0.85920
 H1199 H 0.63545 0.21826 0.95374
 H1200 H 0.55717 0.25845 0.83007
 C1201 C 0.37784 0.75587 0.92974
 C1202 C 0.37617 0.72591 0.92639
 C1203 C 0.39086 0.71256 0.90429
 C1204 C 0.40814 0.72901 0.88647
 C1205 C 0.41036 0.75905 0.89075
 C1206 C 0.39473 0.77234 0.91204
 C1207 C 0.42879 0.77528 0.87430
 C1208 C 0.44533 0.76209 0.85354
 C1209 C 0.44235 0.73240 0.84865
 C1210 C 0.42393 0.71597 0.86503
 H1211 H 0.38964 0.68938 0.90179
 H1212 H 0.39612 0.79536 0.91548
 H1213 H 0.43061 0.79823 0.87808
 H1214 H 0.42245 0.69300 0.86133
 H1215 H 0.36660 0.76638 0.94669
 H1216 H 0.45481 0.72176 0.83273
 C1217 C 0.75920 0.92936 0.37314
 C1218 C 0.73063 0.92442 0.37099
 C1219 C 0.71939 0.89917 0.38286
 C1220 C 0.73638 0.87966 0.39785
 C1221 C 0.76493 0.88547 0.40090
 C1222 C 0.77622 0.91008 0.38800
 C1223 C 0.78153 0.86718 0.41766
 C1224 C 0.77000 0.84319 0.43167
 C1225 C 0.74186 0.83687 0.42743
 C1226 C 0.72519 0.85495 0.41067
 H1227 H 0.69733 0.89530 0.38125
 H1228 H 0.79808 0.91477 0.38997
 H1229 H 0.80323 0.87225 0.42060
 H1230 H 0.70340 0.85006 0.40842
 H1231 H 0.76819 0.94861 0.36388
 H1232 H 0.73243 0.81855 0.43796
 C1233 C 0.28792 0.90018 0.61499
 C1234 C 0.27304 0.92243 0.62810
 C1235 C 0.24444 0.92478 0.62353
 C1236 C 0.23099 0.90610 0.60480
 C1237 C 0.24617 0.88415 0.59105
 C1238 C 0.27454 0.88103 0.59671
 C1239 C 0.23290 0.86638 0.57119
 C1240 C 0.20484 0.87080 0.56444
 C1241 C 0.18991 0.89233 0.57871
 C1242 C 0.20281 0.90968 0.59885
 H1243 H 0.23293 0.94192 0.63374
 H1244 H 0.28652 0.86434 0.58640
 H1245 H 0.24464 0.84992 0.56023
 H1246 H 0.19090 0.92637 0.60925
 H1247 H 0.31002 0.89817 0.61832
 H1248 H 0.16822 0.89599 0.57406
 C1249 C 0.30997 0.08981 0.42531
 C1250 C 0.29557 0.07886 0.40177
 C1251 C 0.26851 0.08844 0.39622
 C1252 C 0.25555 0.10804 0.41450
 C1253 C 0.27025 0.11924 0.43803
 C1254 C 0.29758 0.11021 0.44304
 C1255 C 0.25699 0.13841 0.45667
 C1256 C 0.22893 0.14538 0.45273
 C1257 C 0.21451 0.13398 0.42944
 C1258 C 0.22781 0.11585 0.41020
 H1259 H 0.25724 0.07969 0.37827
 H1260 H 0.30910 0.11830 0.46110
 H1261 H 0.26804 0.14680 0.47493
 H1262 H 0.21620 0.10733 0.39240
 H1263 H 0.33071 0.08229 0.43010
 H1264 H 0.19285 0.13911 0.42619
 C1265 C 0.74626 0.06034 0.60017
 C1266 C 0.71776 0.06606 0.60164
 C1267 C 0.70740 0.09217 0.59050
 C1268 C 0.72528 0.11210 0.57752
 C1269 C 0.75380 0.10569 0.57541
 C1270 C 0.76412 0.07991 0.58706
 C1271 C 0.77144 0.12480 0.56106
 C1272 C 0.76103 0.15030 0.54863
 C1273 C 0.73284 0.15703 0.55183
 C1274 C 0.71511 0.13808 0.56611
 H1275 H 0.68542 0.09670 0.59163
 H1276 H 0.78594 0.07473 0.58577
 H1277 H 0.79315 0.11937 0.55887
 H1278 H 0.69334 0.14344 0.56768
 H1279 H 0.75463 0.04049 0.60895
 H1280 H 0.72425 0.17646 0.54239
 C1281 C 0.95171 0.57746 0.26797
 C1282 C 0.94188 0.60549 0.27309
 C1283 C 0.91549 0.61351 0.26304
 C1284 C 0.89912 0.59362 0.24818
 C1285 C 0.90980 0.56587 0.24235
 C1286 C 0.93602 0.55797 0.25243
 C1287 C 0.89412 0.54639 0.22652
 C1288 C 0.86748 0.55379 0.21725
 C1289 C 0.85639 0.58086 0.22393
 C1290 C 0.87229 0.60086 0.23898
 H1291 H 0.90780 0.63512 0.26678
 H1292 H 0.94433 0.53668 0.24840
 H1293 H 0.90249 0.52528 0.22162
 H1294 H 0.86363 0.62191 0.24345
 H1295 H 0.97184 0.57075 0.27583
 H1296 H 0.83577 0.58674 0.21684
 C1297 C 0.92322 0.36957 0.76084
 C1298 C 0.92034 0.37235 0.73123
 C1299 C 0.89915 0.38976 0.71986
 C1300 C 0.88193 0.40564 0.73808
 C1301 C 0.88584 0.40363 0.76787
 C1302 C 0.90604 0.38499 0.77904
 C1303 C 0.87035 0.42119 0.78602
 C1304 C 0.85107 0.44107 0.77493
 C1305 C 0.84637 0.44202 0.74540
 C1306 C 0.86169 0.42445 0.72711
 H1307 H 0.89706 0.39203 0.69698
 H1308 H 0.90921 0.38311 0.80182
 H1309 H 0.87400 0.42003 0.80878
 H1310 H 0.85829 0.42620 0.70436
 H1311 H 0.93952 0.35623 0.76981
 H1312 H 0.83160 0.45712 0.73633
 C1313 C 0.07394 0.64288 0.76997
 C1314 C 0.06647 0.63683 0.74177
 C1315 C 0.07958 0.61409 0.72747
 C1316 C 0.09949 0.59704 0.74142
 C1317 C 0.10571 0.60223 0.77035
 C1318 C 0.09311 0.62542 0.78432
 C1319 C 0.12404 0.58382 0.78491
 C1320 C 0.13680 0.56079 0.77074
 C1321 C 0.13173 0.55677 0.74164
 C1322 C 0.11297 0.57459 0.72712
 H1323 H 0.07412 0.60970 0.70553
 H1324 H 0.09797 0.62996 0.80636
 H1325 H 0.12811 0.58711 0.80736
 H1326 H 0.10864 0.57052 0.70488
 H1327 H 0.06447 0.66077 0.78101
 H1328 H 0.14131 0.53901 0.73048
 C1329 C 0.07148 0.35996 0.23280
 C1330 C 0.07642 0.36023 0.26225
 C1331 C 0.09955 0.37487 0.27297
 C1332 C 0.11653 0.39084 0.25452
 C1333 C 0.11040 0.39180 0.22507
 C1334 C 0.08836 0.37559 0.21432
 C1335 C 0.12548 0.41008 0.20706
 C1336 C 0.14651 0.42767 0.21805
 C1337 C 0.15354 0.42533 0.24704
 C1338 C 0.13865 0.40707 0.26514
 H1339 H 0.10330 0.37515 0.29573
 H1340 H 0.08351 0.37591 0.19180
 H1341 H 0.12003 0.41151 0.18469
 H1342 H 0.14378 0.40647 0.28760
 H1343 H 0.05374 0.34866 0.22429
 H1344 H 0.16970 0.43862 0.25601
   
