data_POSCAR
  _audit_creation_date              2014-09-24
  _audit_creation_method            'ToBaCCo'
  _symmetry_space_group_name_H-M    'P1'
  _symmetry_Int_Tables_number       1
  _symmetry_cell_setting            triclinic
  loop_
  _symmetry_equiv_pos_as_xyz
 x,y,z
_cell_length_a 33.8194
_cell_length_b 33.6275
_cell_length_c 33.3143
_cell_angle_alpha 90.193600
_cell_angle_beta 89.567800
_cell_angle_gamma 88.545800
loop_
  _atom_site_label
  _atom_site_type_symbol
  _atom_site_fract_x
  _atom_site_fract_y
  _atom_site_fract_z
C1 C 0.09667 0.00039 0.21950
 C2 C 0.12273 0.03628 0.22228
 C3 C 0.14714 0.03568 0.25428
 C4 C 0.14365 -0.00149 0.28088
 C5 C 0.12456 -0.03589 0.21985
 C6 C 0.14883 -0.03737 0.25226
 C7 C 0.07448 -0.00092 0.25955
 C8 C 0.09934 -0.00199 0.29178
 H9 H 0.12095 0.06087 0.20137
 H10 H 0.16362 -0.00220 0.30719
 H11 H 0.12269 -0.05992 0.19827
 H12 H 0.04256 -0.00120 0.26209
 C13 C 0.40929 -0.00900 0.71904
 C14 C 0.38031 -0.04267 0.72070
 C15 C 0.35490 -0.04076 0.75220
 C16 C 0.36062 -0.00441 0.77981
 C17 C 0.38404 0.02944 0.72009
 C18 C 0.35870 0.03217 0.75194
 C19 C 0.43034 -0.00992 0.75699
 C20 C 0.40471 -0.00636 0.79164
 H21 H 0.38177 -0.06759 0.70000
 H22 H 0.33981 -0.00273 0.80576
 H23 H 0.38804 0.05347 0.69900
 H24 H 0.46160 -0.00345 0.75867
 C25 C 0.90236 0.49697 0.21576
 C26 C 0.87084 0.46570 0.21212
 C27 C 0.84338 0.46706 0.24200
 C28 C 0.84934 0.50056 0.27274
 C29 C 0.88007 0.53705 0.21822
 C30 C 0.85253 0.53905 0.24818
 C31 C 0.91983 0.49100 0.25745
 C32 C 0.89180 0.49323 0.28742
 H33 H 0.87272 0.44176 0.19028
 H34 H 0.82683 0.50208 0.29718
 H35 H 0.88706 0.56214 0.19938
 H36 H 0.95124 0.48731 0.26279
 C37 C 0.60439 0.49877 0.70321
 C38 C 0.62996 0.53503 0.70811
 C39 C 0.65093 0.53487 0.74264
 C40 C 0.64437 0.49845 0.76937
 C41 C 0.63226 0.46253 0.70717
 C42 C 0.65305 0.46219 0.74217
 C43 C 0.57821 0.49806 0.74033
 C44 C 0.59898 0.49812 0.77480
 H45 H 0.63048 0.55925 0.68678
 H46 H 0.66134 0.49841 0.79778
 H47 H 0.63313 0.43813 0.68587
 H48 H 0.54619 0.49846 0.73952
 C49 C 0.20945 0.09462 1.00062
 C50 C 0.21283 0.11756 1.03970
 C51 C 0.24550 0.13992 1.04174
 C52 C 0.27219 0.13758 1.00414
 C53 C 0.21180 0.12545 0.96723
 C54 C 0.24490 0.14767 0.96880
 C55 C 0.24791 0.07003 0.99696
 C56 C 0.28074 0.09263 0.99847
 H57 H 0.19120 0.11609 1.06377
 H58 H 0.29888 0.15606 1.00575
 H59 H 0.19143 0.12656 0.94230
 H60 H 0.24911 0.03812 0.99248
 C61 C 0.72280 0.40893 0.99555
 C62 C 0.72033 0.37956 0.96450
 C63 C 0.75232 0.35122 0.96440
 C64 C 0.78140 0.35749 0.99919
 C65 C 0.72325 0.38864 1.03368
 C66 C 0.75509 0.36017 1.03711
 C67 C 0.76382 0.42730 0.99097
 C68 C 0.79484 0.40080 0.99382
 H69 H 0.69822 0.38128 0.94110
 H70 H 0.80606 0.33507 1.00057
 H71 H 0.70222 0.39524 1.05765
 H72 H 0.76789 0.45918 0.99398
 C73 C 0.21289 0.91653 0.48773
 C74 C 0.21914 0.89068 0.45065
 C75 C 0.25340 0.86889 0.45056
 C76 C 0.27914 0.87521 0.48811
 C77 C 0.21668 0.88805 0.52337
 C78 C 0.25140 0.86626 0.52395
 C79 C 0.24923 0.94238 0.49010
 C80 C 0.28391 0.92097 0.49041
 H81 H 0.19849 0.89046 0.42594
 H82 H 0.30731 0.85754 0.48806
 H83 H 0.19422 0.88632 0.54660
 H84 H 0.24770 0.97452 0.49221
 C85 C 0.71452 0.59360 0.50066
 C86 C 0.71922 0.61561 0.54008
 C87 C 0.75324 0.63609 0.54254
 C88 C 0.78010 0.63227 0.50470
 C89 C 0.71872 0.62474 0.46795
 C90 C 0.75315 0.64488 0.46966
 C91 C 0.75137 0.56671 0.49654
 C92 C 0.78577 0.58672 0.49808
 H93 H 0.69675 0.61616 0.56343
 H94 H 0.80798 0.64889 0.50646
 H95 H 0.69754 0.62847 0.44394
 H96 H 0.75036 0.53495 0.49137
 C97 C 0.00019 0.21962 0.10099
 C98 C 0.03534 0.21805 0.12892
 C99 C 0.03603 0.24856 0.15547
 C100 C 0.00082 0.27816 0.15222
 C101 C -0.03624 0.22198 0.12797
 C102 C -0.03634 0.25287 0.15436
 C103 C 0.00161 0.26040 0.08078
 C104 C 0.00181 0.29113 0.10806
 H105 H 0.05906 0.19593 0.12611
 H106 H 0.00111 0.30318 0.17405
 H107 H -0.06128 0.20294 0.12399
 H108 H 0.00145 0.26454 0.04858
 C109 C -0.00213 0.70238 0.40009
 C110 C -0.03692 0.70843 0.37551
 C111 C -0.03785 0.74529 0.35454
 C112 C -0.00060 0.77002 0.36281
 C113 C 0.03365 0.70629 0.37223
 C114 C 0.03467 0.74178 0.35265
 C115 C -0.00057 0.73812 0.42831
 C116 C 0.00072 0.77344 0.40915
 H117 H -0.06320 0.69083 0.37928
 H118 H 0.00006 0.79882 0.34664
 H119 H 0.05688 0.68364 0.36969
 H120 H -0.00007 0.73562 0.46071
 C121 C 0.50628 0.22154 0.91449
 C122 C 0.46866 0.22674 0.89067
 C123 C 0.46756 0.25906 0.86649
 C124 C 0.50552 0.28440 0.86908
 C125 C 0.53986 0.22166 0.88382
 C126 C 0.54001 0.25457 0.86011
 C127 C 0.51020 0.26004 0.93833
 C128 C 0.51065 0.29312 0.91481
 H129 H 0.44532 0.20528 0.89186
 H130 H 0.50517 0.31115 0.84965
 H131 H 0.56304 0.19884 0.88303
 H132 H 0.51440 0.26094 0.97050
 C133 C 0.49698 0.71465 0.60160
 C134 C 0.53267 0.71337 0.62909
 C135 C 0.53367 0.74391 0.65565
 C136 C 0.49813 0.77336 0.65290
 C137 C 0.46061 0.71698 0.62940
 C138 C 0.46076 0.74816 0.65597
 C139 C 0.49795 0.75559 0.58162
 C140 C 0.49855 0.78638 0.60868
 H141 H 0.55653 0.69145 0.62596
 H142 H 0.49885 0.79847 0.67460
 H143 H 0.43542 0.69813 0.62561
 H144 H 0.49805 0.75969 0.54941
 C145 C 0.89170 0.99636 0.79250
 C146 C 0.86862 1.03317 0.79056
 C147 C 0.84316 1.03610 0.75677
 C148 C 0.84358 0.99692 0.73212
 C149 C 0.86225 0.96312 0.79365
 C150 C 0.83742 0.96281 0.76207
 C151 C 0.91284 0.99191 0.75145
 C152 C 0.88708 0.99191 0.71982
 H153 H 0.87794 1.05968 0.80631
 H154 H 0.82272 0.99705 0.70652
 H155 H 0.86376 0.93932 0.81548
 H156 H 0.94467 0.98985 0.74789
 C157 C 0.40053 0.49531 0.27601
 C158 C 0.37117 0.53033 0.27395
 C159 C 0.34603 0.52869 0.24223
 C160 C 0.35179 0.49117 0.21602
 C161 C 0.37582 0.45834 0.27644
 C162 C 0.35045 0.45586 0.24536
 C163 C 0.42144 0.49483 0.23489
 C164 C 0.39561 0.49280 0.20332
 H165 H 0.37271 0.55591 0.29367
 H166 H 0.33095 0.48936 0.19052
 H167 H 0.37878 0.43561 0.29927
 H168 H 0.45308 0.49748 0.23118
 C169 C 0.60467 1.01460 0.28507
 C170 C 0.62930 0.97584 0.28518
 C171 C 0.65326 0.97110 0.25261
 C172 C 0.65101 1.00574 0.22298
 C173 C 0.63236 1.04666 0.28191
 C174 C 0.65807 1.04348 0.24799
 C175 C 0.58235 1.01373 0.24503
 C176 C 0.60700 1.00875 0.21249
 H177 H 0.62628 0.95321 0.30798
 H178 H 0.67100 1.00187 0.19655
 H179 H 0.62779 1.07462 0.29797
 H180 H 0.55046 1.01607 0.24284
 C181 C 0.10176 0.50425 0.78076
 C182 C 0.12767 0.46637 0.78123
 C183 C 0.15395 0.46373 0.75014
 C184 C 0.15236 0.49960 0.72162
 C185 C 0.13013 0.53847 0.77955
 C186 C 0.15652 0.53639 0.74877
 C187 C 0.08202 0.50410 0.73976
 C188 C 0.10871 0.50131 0.70869
 H189 H 0.12377 0.44277 0.80284
 H190 H 0.17382 0.49768 0.69625
 H191 H 0.12773 0.56370 0.79982
 H192 H 0.05027 0.50443 0.73583
 C193 C 0.78238 0.90854 0.00463
 C194 C 0.78012 0.88141 0.04109
 C195 C 0.74749 0.85853 0.04189
 C196 C 0.72021 0.86457 0.00523
 C197 C 0.77993 0.88155 -0.03185
 C198 C 0.74758 0.85847 -0.03206
 C199 C 0.74385 0.93281 0.00533
 C200 C 0.71126 0.91007 0.00602
 H201 H 0.80140 0.88200 0.06520
 H202 H 0.69363 0.84588 0.00547
 H203 H 0.80179 0.88124 -0.05579
 H204 H 0.74242 0.96499 0.00677
 C205 C 0.28907 0.40477 0.50298
 C206 C 0.28838 0.37648 0.53877
 C207 C 0.25628 0.35269 0.53942
 C208 C 0.22817 0.35901 0.50373
 C209 C 0.28627 0.37869 0.46590
 C210 C 0.25465 0.35478 0.46600
 C211 C 0.24978 0.42794 0.50530
 C212 C 0.21791 0.40403 0.50586
 H213 H 0.30983 0.37723 0.56271
 H214 H 0.20221 0.33947 0.50394
 H215 H 0.30735 0.37962 0.44129
 H216 H 0.24735 0.46006 0.50706
 C217 C 0.28556 0.59139 -0.00686
 C218 C 0.28743 0.61271 -0.04712
 C219 C 0.25861 0.64068 -0.05280
 C220 C 0.23011 0.64598 -0.01579
 C221 C 0.28598 0.62392 0.02482
 C222 C 0.25698 0.65221 0.02154
 C223 C 0.24399 0.57477 -0.00464
 C224 C 0.21470 0.60350 -0.00918
 H225 H 0.30822 0.60402 -0.07065
 H226 H 0.20637 0.66905 -0.01950
 H227 H 0.30549 0.62209 0.05043
 H228 H 0.23836 0.54366 0.00057
 C229 C 0.77899 0.09553 0.49822
 C230 C 0.77928 0.11758 0.46101
 C231 C 0.74978 0.14885 0.45958
 C232 C 0.72496 0.15260 0.49853
 C233 C 0.78459 0.12338 0.53039
 C234 C 0.75524 0.15443 0.53270
 C235 C 0.73930 0.08067 0.50285
 C236 C 0.70865 0.11069 0.50297
 H237 H 0.79801 0.10929 0.43564
 H238 H 0.70204 0.17686 0.49864
 H239 H 0.80650 0.11834 0.55357
 H240 H 0.73337 0.04916 0.50451
 C241 C 0.99352 0.78562 0.91071
 C242 C 1.02869 0.79134 0.88315
 C243 C 1.03305 0.76393 0.85410
 C244 C 1.00049 0.73219 0.85418
 C245 C 0.95772 0.78399 0.88382
 C246 C 0.96057 0.75610 0.85448
 C247 C 0.99919 0.74325 0.92717
 C248 C 1.00280 0.71502 0.89715
 H249 H 1.05113 0.81303 0.88907
 H250 H 1.00347 0.70950 0.82998
 H251 H 0.93140 0.80239 0.88901
 H252 H 0.99920 0.73623 0.95885
 C253 C 0.50129 0.28264 0.39879
 C254 C 0.53422 0.28096 0.36752
 C255 C 0.53322 0.24875 0.34279
 C256 C 0.49822 0.22161 0.35078
 C257 C 0.46308 0.28089 0.37550
 C258 C 0.46123 0.24916 0.35057
 C259 C 0.50472 0.24254 0.42090
 C260 C 0.50311 0.21049 0.39524
 H261 H 0.55859 0.30125 0.36787
 H262 H 0.49679 0.19566 0.33018
 H263 H 0.43908 0.30258 0.37922
 H264 H 0.50790 0.23985 0.45308
 C265 C 1.00403 0.27307 0.60020
 C266 C 0.96976 0.27452 0.63006
 C267 C 0.97095 0.24504 0.65782
 C268 C 1.00808 0.21735 0.65416
 C269 C 1.04135 0.27399 0.62511
 C270 C 1.04412 0.24508 0.65320
 C271 C 1.00332 0.23108 0.58212
 C272 C 1.00517 0.20172 0.61067
 H273 H 0.94437 0.29442 0.62636
 H274 H 1.00979 0.19357 0.67718
 H275 H 1.06423 0.29542 0.62006
 H276 H 0.99995 0.22523 0.55038
 C277 C 0.50211 0.78874 0.10420
 C278 C 0.46473 0.78653 0.12983
 C279 C 0.46541 0.75619 0.15665
 C280 C 0.50457 0.73148 0.15638
 C281 C 0.53628 0.79160 0.13335
 C282 C 0.53826 0.76151 0.16030
 C283 C 0.50685 0.74782 0.08491
 C284 C 0.50774 0.71770 0.11246
 H285 H 0.43852 0.80475 0.12413
 H286 H 0.50563 0.70683 0.17847
 H287 H 0.55906 0.81349 0.13039
 H288 H 0.50723 0.74306 0.05275
 O289 O 0.07228 1.08750 0.99368
 O290 O 0.03426 1.09463 0.93606
 O291 O -0.00997 1.08373 1.08980
 O292 O -0.06148 1.04880 1.10910
 O293 O 0.08385 0.99555 1.08129
 O294 O 0.09465 0.93730 1.04201
 O295 O -0.11580 0.97429 0.99493
 O296 O -0.12149 1.03626 1.02275
 O297 O -0.03793 0.98518 0.89501
 O298 O 0.02728 1.00459 0.88449
 O299 O -0.01915 0.88919 0.98205
 O300 O 0.00617 0.88599 1.04772
 O301 O -0.08166 0.91892 1.01552
 O302 O -0.03951 0.91078 1.07827
 O303 O -0.00427 0.92042 0.92371
 O304 O 0.05841 0.95980 0.90836
 O305 O -0.09234 1.00608 0.93034
 O306 O -0.09538 1.07097 0.96625
 O307 O 0.10641 1.03146 1.01245
 O308 O 0.11115 0.96382 0.98925
 O309 O 0.02960 1.01680 1.11670
 O310 O -0.03800 0.99244 1.12330
 O311 O 0.00863 1.11490 1.03248
 O312 O -0.02325 1.11497 0.96659
 Zr313 Zr 0.01371 1.06872 0.98999
 O314 O -0.02273 1.03355 0.95445
 Zr315 Zr -0.01501 1.02384 1.07369
 O316 O -0.05390 0.98810 1.04179
 Zr317 Zr 0.06313 0.98874 1.02260
 O318 O 0.02795 0.95007 0.98957
 Zr319 Zr -0.07167 1.01640 0.98864
 O320 O -0.03720 1.05480 1.02352
 Zr321 Zr 0.00637 0.97992 0.93872
 O322 O 0.04502 1.01743 0.96974
 Zr323 Zr -0.02299 0.93645 1.02283
 O324 O 0.01518 0.97055 1.05814
 O325 O 0.03464 1.04094 1.04172
 O326 O -0.04376 0.96327 0.97037
 C327 C 0.10444 1.06809 1.00158
 C328 C -0.00142 1.11483 1.06968
 C329 C 0.06589 1.00497 1.11409
 C330 C -0.11358 0.93759 1.00548
 C331 C -0.07460 0.99573 0.89766
 C332 C -0.01211 0.88938 0.94431
 H333 H -0.03082 1.04912 0.93061
 H334 H 0.04393 0.92600 0.98255
 H335 H 0.05192 1.05807 1.05783
 H336 H -0.07701 0.98223 1.05892
 H337 H -0.11401 1.06130 1.03610
 H338 H -0.08627 1.04368 1.09467
 H339 H 0.06679 0.93396 0.92005
 H340 H 0.11004 0.97607 0.96230
 H341 H -0.12250 1.06626 0.95649
 H342 H -0.00975 1.14069 0.96940
 H343 H 0.03252 0.88351 1.03474
 H344 H 0.07799 0.92473 1.06272
 H345 H 0.05279 1.07508 0.92328
 H346 H 0.01740 1.03251 0.88366
 H347 H -0.02191 0.96758 1.12583
 H348 H -0.06523 0.92282 1.08675
 O349 O 0.46978 0.48703 0.37941
 O350 O 0.52939 0.51157 0.37115
 O351 O 0.49240 0.38812 0.46440
 O352 O 0.51096 0.38028 0.52627
 O353 O 0.39036 0.47122 0.48469
 O354 O 0.38312 0.53682 0.50539
 O355 O 0.59260 0.49387 0.56454
 O356 O 0.59930 0.43629 0.52904
 O357 O 0.57644 0.58788 0.48770
 O358 O 0.53611 0.60240 0.42974
 O359 O 0.49632 0.57767 0.58120
 O360 O 0.44386 0.53911 0.59842
 O361 O 0.53847 0.51362 0.60117
 O362 O 0.46807 0.48565 0.60900
 O363 O 0.51080 0.61304 0.52532
 O364 O 0.48418 0.61631 0.45486
 O365 O 0.61149 0.53178 0.50405
 O366 O 0.61415 0.46872 0.46637
 O367 O 0.41517 0.50758 0.41482
 O368 O 0.40402 0.56687 0.45711
 O369 O 0.42546 0.41550 0.50201
 O370 O 0.46906 0.40889 0.56240
 O371 O 0.50767 0.42081 0.40695
 O372 O 0.56793 0.46346 0.39778
 Zr373 Zr 0.51284 0.48123 0.42398
 O374 O 0.54951 0.51895 0.45683
 Zr375 Zr 0.48401 0.43392 0.50621
 O376 O 0.52164 0.46739 0.54182
 Zr377 Zr 0.43386 0.51387 0.47500
 O378 O 0.46757 0.55097 0.51176
 Zr379 Zr 0.56917 0.48780 0.50743
 O380 O 0.53491 0.44892 0.47323
 Zr381 Zr 0.51789 0.56882 0.47992
 O382 O 0.48234 0.53408 0.44177
 Zr383 Zr 0.49089 0.51906 0.56073
 O384 O 0.45161 0.48388 0.52756
 O385 O 0.46302 0.46241 0.45497
 O386 O 0.54021 0.53909 0.52989
 C387 C 0.43329 0.49818 0.38184
 C388 C 0.50106 0.38892 0.42697
 C389 C 0.39296 0.43455 0.49527
 C390 C 0.57529 0.50327 0.59756
 C391 C 0.60885 0.56900 0.49617
 C392 C 0.50250 0.61046 0.56302
 H393 H 0.57203 0.52678 0.43975
 H394 H 0.45054 0.57374 0.52054
 H395 H 0.44608 0.44526 0.43849
 H396 H 0.53094 0.45072 0.56443
 H397 H 0.59387 0.41452 0.50991
 H398 H 0.53829 0.38667 0.53376
 H399 H 0.46081 0.62107 0.47243
 H400 H 0.41958 0.57804 0.43472
 H401 H 0.63999 0.46999 0.48014
 H402 H 0.56289 0.44742 0.37338
 H403 H 0.42492 0.55398 0.58127
 H404 H 0.38527 0.52758 0.53348
 H405 H 0.52269 0.54001 0.37595
 H406 H 0.55618 0.58627 0.41478
 H407 H 0.44471 0.42292 0.57211
 H408 H 0.48820 0.46508 0.61620
 O409 O 0.42126 -0.07972 0.48096
 O410 O 0.45564 -0.08072 0.42087
 O411 O 0.50525 -0.09494 0.57254
 O412 O 0.56116 -0.06732 0.59220
 O413 O 0.42032 0.00241 0.58130
 O414 O 0.41129 0.06395 0.55035
 O415 O 0.61830 0.01563 0.48798
 O416 O 0.61831 -0.04918 0.50516
 O417 O 0.53714 0.02829 0.39161
 O418 O 0.47160 0.01572 0.38039
 O419 O 0.52882 0.11144 0.49070
 O420 O 0.50725 0.10735 0.55893
 O421 O 0.59147 0.07226 0.51543
 O422 O 0.55254 0.07586 0.58167
 O423 O 0.50486 0.09190 0.43049
 O424 O 0.44113 0.05584 0.41370
 O425 O 0.59029 -0.00175 0.42120
 O426 O 0.58729 -0.07165 0.44528
 O427 O 0.39204 -0.02486 0.50968
 O428 O 0.39266 0.04678 0.49482
 O429 O 0.47356 -0.02731 0.61101
 O430 O 0.54294 -0.01165 0.61637
 O431 O 0.48320 -0.11545 0.51176
 O432 O 0.51317 -0.10866 0.44440
 Zr433 Zr 0.48051 -0.06389 0.47641
 O434 O 0.51840 -0.02708 0.44399
 Zr435 Zr 0.51553 -0.03375 0.56421
 O436 O 0.55662 0.00262 0.53516
 Zr437 Zr 0.43912 0.01399 0.52246
 O438 O 0.47698 0.05409 0.49369
 Zr439 Zr 0.56970 -0.01952 0.47760
 O440 O 0.53333 -0.05921 0.50885
 Zr441 Zr 0.49386 0.03055 0.43752
 O442 O 0.45312 -0.00808 0.46501
 Zr443 Zr 0.53077 0.05903 0.52480
 O444 O 0.49020 0.02360 0.55696
 O445 O 0.46356 -0.04216 0.53283
 O446 O 0.54676 0.03797 0.46801
 C447 C 0.39084 -0.05987 0.49365
 C448 C 0.49376 -0.12198 0.54805
 C449 C 0.43846 -0.01180 0.61191
 C450 C 0.62096 0.05095 0.50186
 C451 C 0.57294 0.01450 0.39120
 C452 C 0.51727 0.11860 0.45486
 H453 H 0.52448 -0.03962 0.41767
 H454 H 0.46268 0.07998 0.49141
 H455 H 0.44540 -0.05964 0.54761
 H456 H 0.58084 0.00401 0.55147
 H457 H 0.60863 -0.07498 0.51494
 H458 H 0.58588 -0.06155 0.57758
 H459 H 0.43354 0.07923 0.43041
 H460 H 0.38950 0.03540 0.46762
 H461 H 0.61448 -0.06800 0.43479
 H462 H 0.49800 -0.13354 0.44457
 H463 H 0.48079 0.11402 0.54804
 H464 H 0.43067 0.07451 0.56952
 H465 H 0.43873 -0.05807 0.41181
 H466 H 0.47617 -0.01324 0.37676
 H467 H 0.53106 0.01507 0.62166
 H468 H 0.57730 0.06043 0.58665
 O469 O 0.00247 0.40998 1.07298
 O470 O 0.06165 0.43606 1.08773
 O471 O -0.07565 0.51819 1.08205
 O472 O -0.08732 0.57391 1.04538
 O473 O -0.08648 0.42674 0.99019
 O474 O -0.05628 0.42285 0.92449
 O475 O 0.03423 0.61175 0.98455
 O476 O 0.01246 0.61230 1.04821
 O477 O 0.11711 0.51065 0.98068
 O478 O 0.11195 0.44058 0.99673
 O479 O 0.03381 0.52472 0.88708
 O480 O -0.03094 0.51631 0.87788
 O481 O 0.00565 0.59271 0.92611
 O482 O -0.06007 0.55881 0.91181
 O483 O 0.08514 0.49075 0.91576
 O484 O 0.08541 0.42324 0.94701
 O485 O 0.09512 0.56997 1.00608
 O486 O 0.06254 0.57014 1.07505
 O487 O -0.02167 0.38891 1.01304
 O488 O -0.00492 0.39149 0.94252
 O489 O -0.10895 0.48289 1.02182
 O490 O -0.10561 0.55262 0.99051
 O491 O -0.02736 0.47923 1.11000
 O492 O 0.04430 0.49594 1.11236
 Zr493 Zr 0.01474 0.47054 1.06281
 O494 O 0.05717 0.50267 1.03072
 Zr495 Zr -0.06025 0.52151 1.02172
 O496 O -0.02062 0.55754 0.99046
 Zr497 Zr -0.02692 0.43996 0.97741
 O498 O 0.01282 0.47244 0.94228
 Zr499 Zr 0.03452 0.56007 1.01925
 O500 O -0.00738 0.52904 1.05415
 Zr501 Zr 0.06604 0.47766 0.97367
 O502 O 0.02762 0.44235 1.00731
 Zr503 Zr -0.00776 0.53153 0.93443
 O504 O -0.05079 0.49681 0.96448
 O505 O -0.03859 0.46457 1.03373
 O506 O 0.04681 0.53612 0.96259
 C507 C -0.00971 0.38276 1.04895
 C508 C -0.06008 0.49977 1.11166
 C509 C -0.11313 0.44678 1.00981
 C510 C 0.02049 0.61915 0.94953
 C511 C 0.12269 0.54628 0.99245
 C512 C 0.06832 0.50770 0.88598
 H513 H 0.08199 0.50343 1.04620
 H514 H 0.01660 0.45879 0.91615
 H515 H -0.05544 0.44836 1.05131
 H516 H -0.03339 0.58420 0.98819
 H517 H -0.00271 0.60355 1.07199
 H518 H -0.06556 0.59139 1.05305
 H519 H 0.07154 0.42026 0.92117
 H520 H 0.02125 0.38389 0.95361
 H521 H 0.07859 0.59428 1.07234
 H522 H 0.03651 0.48196 1.13728
 H523 H -0.03625 0.48754 0.87903
 H524 H -0.07538 0.44464 0.91797
 H525 H 0.07450 0.42139 1.06517
 H526 H 0.11930 0.45121 1.02330
 H527 H -0.11461 0.53486 0.96883
 H528 H -0.06651 0.58222 0.92892
 O529 O 0.01207 0.37497 0.52801
 O530 O -0.00827 0.37114 0.46311
 O531 O 0.10908 0.45612 0.52298
 O532 O 0.12042 0.51868 0.51182
 O533 O 0.01287 0.47378 0.61434
 O534 O -0.05263 0.49601 0.61154
 O535 O 0.01765 0.56497 0.41164
 O536 O 0.07722 0.53074 0.41395
 O537 O -0.07333 0.48915 0.40818
 O538 O -0.09510 0.43384 0.44110
 O539 O -0.07650 0.57866 0.49841
 O540 O -0.04353 0.59058 0.55812
 O541 O -0.01062 0.59857 0.46430
 O542 O 0.01090 0.60295 0.53877
 O543 O -0.10813 0.52497 0.47417
 O544 O -0.11373 0.45187 0.49555
 O545 O -0.01306 0.50586 0.38374
 O546 O 0.04996 0.46887 0.39049
 O547 O -0.01684 0.40802 0.58068
 O548 O -0.07813 0.44921 0.58302
 O549 O 0.07255 0.49241 0.59020
 O550 O 0.08635 0.55339 0.54974
 O551 O 0.07982 0.40121 0.49814
 O552 O 0.04564 0.39692 0.43261
 Zr553 Zr 0.02119 0.42082 0.48670
 O554 O -0.01016 0.45680 0.44565
 Zr555 Zr 0.06355 0.49939 0.52806
 O556 O 0.03602 0.53805 0.48683
 Zr557 Zr -0.02211 0.46806 0.56310
 O558 O -0.05367 0.50735 0.52538
 Zr559 Zr 0.02300 0.50731 0.43398
 O560 O 0.05591 0.47016 0.47272
 Zr561 Zr -0.06376 0.47916 0.47017
 O562 O -0.03502 0.43824 0.50950
 Zr563 Zr -0.01925 0.55640 0.51011
 O564 O 0.00974 0.52020 0.55331
 O565 O 0.03273 0.44845 0.54136
 O566 O -0.03170 0.52909 0.45566
 C567 C -0.00339 0.37624 0.56329
 C568 C 0.11014 0.42000 0.51019
 C569 C 0.04871 0.48413 0.61904
 C570 C 0.00376 0.59666 0.42840
 C571 C -0.04951 0.49810 0.37938
 C572 C -0.10766 0.56135 0.48662
 H573 H -0.01453 0.44123 0.42090
 H574 H -0.07838 0.51534 0.53961
 H575 H 0.04775 0.43109 0.56011
 H576 H 0.05329 0.56068 0.48112
 H577 H 0.09829 0.51140 0.42185
 H578 H 0.11852 0.52790 0.48374
 H579 H -0.12302 0.46873 0.51831
 H580 H -0.08580 0.42723 0.56507
 H581 H 0.05269 0.48388 0.36508
 H582 H 0.05843 0.37068 0.43838
 H583 H -0.06272 0.57370 0.57216
 H584 H -0.04264 0.52337 0.61322
 H585 H -0.03639 0.37415 0.47128
 H586 H -0.07516 0.41441 0.43056
 H587 H 0.06828 0.56308 0.57136
 H588 H 0.03273 0.61111 0.52093
 O589 O 0.50634 0.88958 0.03090
 O590 O 0.48426 0.88769 -0.03573
 O591 O 0.60416 0.96720 0.02577
 O592 O 0.61632 1.03088 0.01513
 O593 O 0.50826 0.98634 0.11859
 O594 O 0.44251 1.01046 0.11492
 O595 O 0.51659 1.08408 -0.07827
 O596 O 0.57397 1.04467 -0.08090
 O597 O 0.42138 1.00812 -0.08716
 O598 O 0.40221 0.94884 -0.05687
 O599 O 0.41870 1.09228 0.00399
 O600 O 0.45410 1.09858 0.06974
 O601 O 0.48769 1.11574 -0.02469
 O602 O 0.50254 1.11997 0.04472
 O603 O 0.38807 1.03876 -0.02202
 O604 O 0.38204 0.96615 -0.00228
 O605 O 0.48017 1.03038 -0.11022
 O606 O 0.54177 0.98787 -0.10840
 O607 O 0.47806 0.92222 0.08425
 O608 O 0.41775 0.96233 0.08742
 O609 O 0.56852 1.00339 0.09463
 O610 O 0.58468 1.06389 0.05643
 O611 O 0.57327 0.91349 0.00038
 O612 O 0.54055 0.91206 -0.06490
 Zr613 Zr 0.51572 0.93543 -0.01075
 O614 O 0.48560 0.97298 -0.05160
 Zr615 Zr 0.55964 1.01194 0.03248
 O616 O 0.53173 1.05232 -0.00679
 Zr617 Zr 0.47337 0.98185 0.06705
 O618 O 0.44164 1.02120 0.02982
 Zr619 Zr 0.51843 1.02420 -0.06118
 O620 O 0.55086 0.98485 -0.02372
 Zr621 Zr 0.43229 0.99412 -0.02626
 O622 O 0.46011 0.95282 0.01292
 Zr623 Zr 0.47634 1.07057 0.01693
 O624 O 0.50629 1.03336 0.05850
 O625 O 0.52783 0.96163 0.04457
 O626 O 0.46398 1.04505 -0.03847
 C627 C 0.49138 0.89076 0.06653
 C628 C 0.60412 0.93113 0.01251
 C629 C 0.54444 0.99550 0.12347
 C630 C 0.50374 1.11539 -0.05975
 C631 C 0.44351 1.02281 -0.11469
 C632 C 0.38797 1.07468 -0.00885
 H633 H 0.48119 0.95881 -0.07718
 H634 H 0.41672 1.02856 0.04398
 H635 H 0.54278 0.94384 0.06296
 H636 H 0.54943 1.07488 -0.01122
 H637 H 0.59381 1.02359 -0.07423
 H638 H 0.61355 1.04197 -0.01217
 H639 H 0.37288 0.98200 0.02124
 H640 H 0.40917 0.94180 0.06822
 H641 H 0.54361 1.00450 -0.13284
 H642 H 0.55093 0.88466 -0.05994
 H643 H 0.42833 1.08680 0.07628
 H644 H 0.45420 1.03697 0.11805
 H645 H 0.45702 0.88945 -0.02467
 H646 H 0.42248 0.93097 -0.06934
 H647 H 0.56569 1.07473 0.07668
 H648 H 0.53056 1.12019 0.03604
 O649 O 0.48762 0.53217 0.10834
 O650 O 0.55260 0.51626 0.10981
 O651 O 0.48078 0.62437 0.01601
 O652 O 0.48862 0.63081 -0.04835
 O653 O 0.39622 0.52545 0.01382
 O654 O 0.40362 0.45688 -0.00246
 O655 O 0.59209 0.52880 -0.08997
 O656 O 0.58452 0.59156 -0.06292
 O657 O 0.60855 0.44719 -0.00289
 O658 O 0.57787 0.42492 0.05432
 O659 O 0.51265 0.43030 -0.08946
 O660 O 0.45231 0.45898 -0.10101
 O661 O 0.54118 0.49550 -0.11750
 O662 O 0.46503 0.51444 -0.11891
 O663 O 0.54220 0.40369 -0.03443
 O664 O 0.52677 0.40270 0.04104
 O665 O 0.62420 0.50722 -0.02903
 O666 O 0.61309 0.57144 0.00137
 O667 O 0.43627 0.49784 0.08307
 O668 O 0.43384 0.43608 0.04570
 O669 O 0.41791 0.58426 -0.00998
 O670 O 0.45028 0.59204 -0.07649
 O671 O 0.50939 0.60035 0.07279
 O672 O 0.57638 0.56933 0.07746
 Zr673 Zr 0.52439 0.54065 0.05860
 O674 O 0.56545 0.50867 0.02292
 Zr675 Zr 0.47750 0.57511 -0.02186
 O676 O 0.51758 0.54631 -0.06095
 Zr677 Zr 0.44975 0.49121 0.02077
 O678 O 0.48846 0.45800 -0.01765
 Zr679 Zr 0.57154 0.53854 -0.03182
 O680 O 0.53329 0.57246 0.00506
 Zr681 Zr 0.54552 0.45203 0.00726
 O682 O 0.50561 0.48231 0.04770
 Zr683 Zr 0.49835 0.48862 -0.07166
 O684 O 0.45531 0.51894 -0.03557
 O685 O 0.46850 0.54809 0.03358
 O686 O 0.55442 0.48083 -0.04693
 C687 C 0.45528 0.51357 0.11238
 C688 C 0.49440 0.62861 0.05142
 C689 C 0.39058 0.56134 0.00109
 C690 C 0.57547 0.51140 -0.11921
 C691 C 0.63358 0.47316 -0.01540
 C692 C 0.52722 0.40082 -0.06993
 H693 H 0.59057 0.50708 0.03789
 H694 H 0.47619 0.43204 -0.02236
 H695 H 0.45002 0.56340 0.05134
 H696 H 0.52052 0.56176 -0.08595
 H697 H 0.57656 0.61394 -0.04497
 H698 H 0.51393 0.62785 -0.06319
 H699 H 0.50360 0.39181 0.02722
 H700 H 0.45501 0.42836 0.06471
 H701 H 0.63658 0.57576 -0.01594
 H702 H 0.57059 0.58417 0.10272
 H703 H 0.43915 0.44260 -0.08051
 H704 H 0.39917 0.46617 -0.03026
 H705 H 0.54775 0.48736 0.10949
 H706 H 0.58814 0.44667 0.07104
 H707 H 0.42951 0.57259 -0.08205
 H708 H 0.48156 0.53428 -0.13247
 O709 O -0.12338 -0.00092 0.52911
 O710 O -0.12088 -0.06283 0.53163
 O711 O -0.02094 0.01290 0.61818
 O712 O 0.04317 0.00400 0.61469
 O713 O -0.04295 0.10268 0.52761
 O714 O -0.03395 0.10805 0.46153
 O715 O 0.07776 -0.08528 0.49721
 O716 O 0.05669 -0.09379 0.56069
 O717 O -0.01806 -0.09100 0.41892
 O718 O -0.08182 -0.06672 0.42081
 O719 O 0.05826 0.00000 0.40857
 O720 O 0.06951 0.05952 0.43671
 O721 O 0.09939 -0.02666 0.47252
 O722 O 0.09243 0.04829 0.49168
 O723 O 0.00147 -0.02719 0.38687
 O724 O -0.07099 -0.00853 0.39600
 O725 O 0.01511 -0.11866 0.47131
 O726 O -0.00441 -0.12166 0.54367
 O727 O -0.10904 0.05760 0.49925
 O728 O -0.07424 0.07448 0.43644
 O729 O -0.00129 0.08156 0.57664
 O730 O 0.06471 0.04538 0.57696
 O731 O -0.07752 -0.01673 0.59961
 O732 O -0.07595 -0.08599 0.56434
 Zr733 Zr -0.06908 -0.02949 0.53761
 O734 O -0.03818 -0.06415 0.49434
 Zr735 Zr 0.00940 0.02030 0.56401
 O736 O 0.04502 -0.01617 0.52605
 Zr737 Zr -0.04647 0.05333 0.48926
 O738 O -0.00964 0.02256 0.44750
 Zr739 Zr 0.01977 -0.07181 0.51430
 O740 O -0.01161 -0.03828 0.55900
 Zr741 Zr -0.03257 -0.03408 0.43937
 O742 O -0.06994 -0.00302 0.48000
 Zr743 Zr 0.04781 0.01110 0.46980
 O744 O 0.01313 0.04883 0.50825
 O745 O -0.04937 0.02818 0.54624
 O746 O 0.02530 -0.04481 0.45845
 C747 C -0.13357 0.03150 0.51191
 C748 C -0.05450 -0.00192 0.62616
 C749 C -0.02138 0.10892 0.55833
 C750 C 0.10493 -0.06306 0.48391
 C751 C -0.00056 -0.12025 0.43607
 C752 C 0.03614 -0.01376 0.38091
 H753 H -0.05134 -0.08987 0.49080
 H754 H -0.00868 0.03785 0.42223
 H755 H -0.06645 0.04439 0.56461
 H756 H 0.07122 -0.01955 0.53875
 H757 H 0.04320 -0.08678 0.58631
 H758 H 0.05046 -0.02445 0.61103
 H759 H -0.05749 0.01399 0.38327
 H760 H -0.09440 0.05502 0.42896
 H761 H 0.01303 -0.14519 0.53797
 H762 H -0.05919 -0.08689 0.58859
 H763 H 0.04638 0.07697 0.43064
 H764 H -0.00486 0.11045 0.46234
 H765 H -0.12049 -0.07367 0.50395
 H766 H -0.10369 -0.05933 0.43950
 H767 H 0.06705 0.06956 0.56034
 H768 H 0.10796 0.03288 0.51162
 O769 O 0.63724 0.23055 0.27475
 O770 O 0.63093 0.26563 0.21656
 O771 O 0.72516 0.13861 0.24784
 O772 O 0.78826 0.13279 0.23481
 O773 O 0.73429 0.21604 0.35851
 O774 O 0.75512 0.28110 0.36754
 O775 O 0.82775 0.25259 0.16085
 O776 O 0.79536 0.19597 0.14709
 O777 O 0.73742 0.34235 0.17281
 O778 O 0.67990 0.35216 0.21625
 O779 O 0.83050 0.33174 0.25579
 O780 O 0.84193 0.28864 0.31614
 O781 O 0.85881 0.27035 0.21829
 O782 O 0.86443 0.24242 0.28519
 O783 O 0.77439 0.36574 0.23839
 O784 O 0.70634 0.36792 0.26623
 O785 O 0.76595 0.29135 0.13721
 O786 O 0.73305 0.22648 0.13050
 O787 O 0.66763 0.25336 0.33075
 O788 O 0.70494 0.31075 0.34751
 O789 O 0.75906 0.16355 0.32248
 O790 O 0.81929 0.15850 0.27949
 O791 O 0.67052 0.17196 0.22527
 O792 O 0.65852 0.22068 0.17421
 Zr793 Zr 0.68288 0.23249 0.23158
 O794 O 0.71564 0.27242 0.19706
 Zr795 Zr 0.76408 0.18439 0.26295
 O796 O 0.79992 0.22168 0.22852
 Zr797 Zr 0.72714 0.26071 0.31511
 O798 O 0.76223 0.30151 0.28389
 Zr799 Zr 0.76907 0.24457 0.17888
 O800 O 0.73486 0.20326 0.21045
 Zr801 Zr 0.73257 0.32090 0.23207
 O802 O 0.69581 0.28329 0.26571
 Zr803 Zr 0.81373 0.27236 0.26217
 O804 O 0.78108 0.23290 0.29823
 O805 O 0.71116 0.21043 0.28274
 O806 O 0.78541 0.29466 0.21126
 C807 C 0.63705 0.24247 0.31145
 C808 C 0.69117 0.14002 0.23078
 C809 C 0.74872 0.18049 0.35572
 C810 C 0.85867 0.26124 0.18084
 C811 C 0.75071 0.32660 0.14002
 C812 C 0.81129 0.36387 0.24707
 H813 H 0.69959 0.28080 0.17374
 H814 H 0.76839 0.32395 0.30180
 H815 H 0.69502 0.19131 0.29788
 H816 H 0.82374 0.20613 0.21996
 H817 H 0.77820 0.17296 0.15161
 H818 H 0.79699 0.14101 0.20777
 H819 H 0.72207 0.37108 0.29089
 H820 H 0.68578 0.32468 0.32979
 H821 H 0.74772 0.23080 0.10506
 H822 H 0.63308 0.20687 0.17754
 H823 H 0.82786 0.31240 0.32727
 H824 H 0.78303 0.27166 0.36561
 H825 H 0.63122 0.29084 0.23196
 H826 H 0.66704 0.33676 0.19486
 H827 H 0.82840 0.17318 0.30337
 H828 H 0.86905 0.21805 0.26894
 O829 O 0.75573 0.65676 0.67965
 O830 O 0.81341 0.64937 0.71743
 O831 O 0.66195 0.67025 0.76226
 O832 O 0.64840 0.70687 0.81754
 O833 O 0.66995 0.74963 0.66696
 O834 O 0.70793 0.80729 0.65333
 O835 O 0.75887 0.78075 0.86791
 O836 O 0.73514 0.71985 0.87540
 O837 O 0.85853 0.76039 0.78350
 O838 O 0.86522 0.73815 0.71775
 O839 O 0.77283 0.86004 0.76427
 O840 O 0.70802 0.86560 0.74269
 O841 O 0.74117 0.83531 0.83138
 O842 O 0.67802 0.84380 0.78909
 O843 O 0.83000 0.82586 0.75002
 O844 O 0.84112 0.78275 0.68641
 O845 O 0.82476 0.74771 0.84108
 O846 O 0.78924 0.68305 0.84776
 O847 O 0.73929 0.71166 0.64296
 O848 O 0.75930 0.77914 0.63555
 O849 O 0.63598 0.73643 0.72432
 O850 O 0.63230 0.76359 0.79215
 O851 O 0.71823 0.63550 0.74539
 O852 O 0.78410 0.63432 0.77695
 Zr853 Zr 0.76123 0.67924 0.73825
 O854 O 0.79791 0.71527 0.77278
 Zr855 Zr 0.68019 0.72922 0.76799
 O856 O 0.71343 0.76595 0.80534
 Zr857 Zr 0.72862 0.75727 0.68605
 O858 O 0.76268 0.79679 0.71965
 Zr859 Zr 0.76617 0.73685 0.82301
 O860 O 0.73001 0.69774 0.79033
 Zr861 Zr 0.81328 0.76642 0.74087
 O862 O 0.78097 0.72768 0.70405
 Zr863 Zr 0.73199 0.81493 0.77206
 O864 O 0.69551 0.78004 0.73529
 O865 O 0.71017 0.70784 0.71735
 O866 O 0.78408 0.78750 0.79241
 C867 C 0.74863 0.67442 0.64623
 C868 C 0.68112 0.63782 0.75389
 C869 C 0.63778 0.74351 0.68652
 C870 C 0.74987 0.81798 0.86468
 C871 C 0.85686 0.75417 0.82142
 C872 C 0.81010 0.85820 0.75725
 H873 H 0.82144 0.69915 0.78070
 H874 H 0.76931 0.81967 0.70253
 H875 H 0.69392 0.69045 0.70044
 H876 H 0.69716 0.77396 0.82893
 H877 H 0.72066 0.69560 0.86837
 H878 H 0.66228 0.71553 0.84194
 H879 H 0.83045 0.80921 0.67845
 H880 H 0.78636 0.76731 0.63658
 H881 H 0.80124 0.68934 0.87402
 H882 H 0.78019 0.60792 0.76439
 H883 H 0.71663 0.86375 0.71429
 H884 H 0.68744 0.82079 0.67024
 H885 H 0.82549 0.66662 0.69694
 H886 H 0.86577 0.71060 0.72808
 H887 H 0.63014 0.78818 0.77599
 H888 H 0.67061 0.83433 0.81614
 O889 O 0.25065 0.16135 0.83148
 O890 O 0.19668 0.15123 0.79179
 O891 O 0.34535 0.17075 0.74488
 O892 O 0.36281 0.21080 0.69514
 O893 O 0.33379 0.25617 0.84355
 O894 O 0.29128 0.31230 0.85516
 O895 O 0.24280 0.28078 0.64159
 O896 O 0.27276 0.22074 0.63451
 O897 O 0.14561 0.26084 0.72413
 O898 O 0.13983 0.23807 0.79049
 O899 O 0.22352 0.36032 0.73995
 O900 O 0.28715 0.36820 0.76638
 O901 O 0.26317 0.33457 0.67665
 O902 O 0.32110 0.34609 0.72214
 O903 O 0.16985 0.32670 0.76108
 O904 O 0.15983 0.28286 0.82173
 O905 O 0.18051 0.24536 0.66744
 O906 O 0.22129 0.18207 0.66223
 O907 O 0.26829 0.21591 0.86710
 O908 O 0.24205 0.28233 0.87343
 O909 O 0.36961 0.23966 0.78777
 O910 O 0.37172 0.26583 0.71831
 O911 O 0.29244 0.13710 0.76800
 O912 O 0.22904 0.13541 0.73313
 Zr913 Zr 0.24761 0.18131 0.77216
 O914 O 0.20891 0.21587 0.73665
 Zr915 Zr 0.32620 0.23115 0.74296
 O916 O 0.29068 0.26658 0.70466
 Zr917 Zr 0.27507 0.26071 0.82346
 O918 O 0.23847 0.29871 0.78898
 Zr919 Zr 0.23970 0.23699 0.68651
 O920 O 0.27822 0.19925 0.72022
 Zr921 Zr 0.18991 0.26729 0.76772
 O922 O 0.22469 0.23019 0.80535
 Zr923 Zr 0.26856 0.31623 0.73675
 O924 O 0.30713 0.28267 0.77426
 O925 O 0.29709 0.21042 0.79350
 O926 O 0.21823 0.28797 0.71621
 C927 C 0.25736 0.17961 0.86446
 C928 C 0.32808 0.13846 0.75478
 C929 C 0.36674 0.24959 0.82506
 C930 C 0.25378 0.31706 0.64391
 C931 C 0.14786 0.25253 0.68653
 C932 C 0.18718 0.35873 0.75099
 H933 H 0.18655 0.19925 0.72865
 H934 H 0.23013 0.32184 0.80565
 H935 H 0.31430 0.19339 0.81060
 H936 H 0.30683 0.27404 0.68113
 H937 H 0.28865 0.19666 0.64151
 H938 H 0.34597 0.21091 0.67103
 H939 H 0.17112 0.30769 0.83210
 H940 H 0.21630 0.26902 0.87275
 H941 H 0.20966 0.18738 0.63548
 H942 H 0.23311 0.10927 0.74642
 H943 H 0.27554 0.36815 0.79371
 H944 H 0.30977 0.32662 0.83751
 H945 H 0.18191 0.16948 0.81021
 H946 H 0.13940 0.21145 0.77779
 H947 H 0.37355 0.28986 0.73537
 H948 H 0.33213 0.33410 0.69717
 O949 O 0.16154 0.82583 0.24214
 O950 O 0.15063 0.79151 0.18425
 O951 O 0.16865 0.72745 0.32878
 O952 O 0.21026 0.67792 0.34425
 O953 O 0.25472 0.82510 0.33184
 O954 O 0.31034 0.83951 0.29089
 O955 O 0.27787 0.63337 0.22225
 O956 O 0.21680 0.62731 0.24758
 O957 O 0.26260 0.72366 0.12902
 O958 O 0.24097 0.78933 0.12744
 O959 O 0.35971 0.73094 0.21518
 O960 O 0.36602 0.74863 0.28067
 O961 O 0.33179 0.66477 0.24596
 O962 O 0.34096 0.70438 0.31093
 O963 O 0.32784 0.75714 0.16124
 O964 O 0.28238 0.81912 0.15470
 O965 O 0.24609 0.66577 0.15892
 O966 O 0.18157 0.66019 0.19557
 O967 O 0.21527 0.85678 0.26703
 O968 O 0.28132 0.86254 0.24207
 O969 O 0.22902 0.76974 0.35959
 O970 O 0.26354 0.70232 0.35774
 O971 O 0.13578 0.75966 0.27883
 O972 O 0.13487 0.73155 0.20931
 Zr973 Zr 0.18026 0.76627 0.23421
 O974 O 0.21556 0.73328 0.19285
 Zr975 Zr 0.22839 0.72837 0.31203
 O976 O 0.26406 0.69243 0.27410
 Zr977 Zr 0.25922 0.81122 0.27007
 O978 O 0.29751 0.77890 0.23114
 Zr979 Zr 0.23546 0.68025 0.21981
 O980 O 0.19719 0.71155 0.26041
 Zr981 Zr 0.26757 0.76309 0.17851
 O982 O 0.22990 0.79867 0.21602
 Zr983 Zr 0.31400 0.72418 0.25717
 O984 O 0.28012 0.75917 0.29850
 O985 O 0.20853 0.78166 0.28705
 O986 O 0.28709 0.70911 0.20308
 C987 C 0.17963 0.85689 0.25382
 C988 C 0.13698 0.74166 0.31287
 C989 C 0.24159 0.80535 0.36188
 C990 C 0.31387 0.63359 0.23442
 C991 C 0.25448 0.68651 0.12779
 C992 C 0.35937 0.74565 0.17978
 H993 H 0.19974 0.72792 0.16866
 H994 H 0.32070 0.79536 0.22552
 H995 H 0.19092 0.79760 0.30513
 H996 H 0.27086 0.66767 0.28871
 H997 H 0.19272 0.63447 0.26337
 H998 H 0.21081 0.65556 0.32491
 H999 H 0.30722 0.82734 0.16745
 H1000 H 0.26784 0.86499 0.21590
 H1001 H 0.18706 0.63447 0.18171
 H1002 H 0.10879 0.74428 0.21578
 H1003 H 0.36509 0.77737 0.27446
 H1004 H 0.32404 0.82041 0.30893
 H1005 H 0.16978 0.80867 0.17046
 H1006 H 0.21345 0.78009 0.12641
 H1007 H 0.28476 0.72113 0.36378
 H1008 H 0.32963 0.67849 0.31812
 O1009 O 0.12535 0.72796 0.75382
 O1010 O 0.12576 0.75710 0.69098
 O1011 O 0.21850 0.64286 0.75514
 O1012 O 0.28317 0.63848 0.74574
 O1013 O 0.20924 0.73223 0.85194
 O1014 O 0.22384 0.79729 0.85745
 O1015 O 0.32479 0.75172 0.65968
 O1016 O 0.29672 0.69456 0.64765
 O1017 O 0.22970 0.83960 0.65693
 O1018 O 0.17034 0.85078 0.69125
 O1019 O 0.31438 0.84161 0.75142
 O1020 O 0.32757 0.80868 0.80745
 O1021 O 0.35070 0.77452 0.71796
 O1022 O 0.34486 0.75233 0.79276
 O1023 O 0.26083 0.86866 0.71998
 O1024 O 0.18894 0.86875 0.74568
 O1025 O 0.26327 0.78797 0.62717
 O1026 O 0.23538 0.71849 0.62412
 O1027 O 0.14575 0.75942 0.81031
 O1028 O 0.18045 0.82479 0.82334
 O1029 O 0.24523 0.67956 0.82733
 O1030 O 0.30992 0.67135 0.78756
 O1031 O 0.16407 0.66986 0.72507
 O1032 O 0.16340 0.70647 0.66078
 Zr1033 Zr 0.17613 0.73023 0.71820
 O1034 O 0.20945 0.76971 0.68381
 Zr1035 Zr 0.25491 0.69207 0.76475
 O1036 O 0.29180 0.72701 0.72838
 Zr1037 Zr 0.20715 0.77084 0.80273
 O1038 O 0.24569 0.80901 0.77205
 Zr1039 Zr 0.26536 0.74370 0.67344
 O1040 O 0.23141 0.70252 0.70665
 Zr1041 Zr 0.22069 0.82192 0.71616
 O1042 O 0.18107 0.78547 0.74783
 Zr1043 Zr 0.30073 0.78116 0.75787
 O1044 O 0.26482 0.74549 0.79558
 O1045 O 0.19904 0.71663 0.77473
 O1046 O 0.27659 0.79721 0.70259
 C1047 C 0.11910 0.74241 0.78885
 C1048 C 0.18394 0.64045 0.73960
 C1049 C 0.22742 0.69873 0.85645
 C1050 C 0.35403 0.76166 0.68135
 C1051 C 0.24656 0.82301 0.62652
 C1052 C 0.29537 0.87094 0.73532
 H1053 H 0.19538 0.77518 0.65841
 H1054 H 0.24935 0.83323 0.78837
 H1055 H 0.18252 0.69867 0.79086
 H1056 H 0.31669 0.71155 0.72375
 H1057 H 0.28243 0.67054 0.65580
 H1058 H 0.28914 0.64194 0.71688
 H1059 H 0.20583 0.87934 0.76713
 H1060 H 0.15800 0.83098 0.80531
 H1061 H 0.25088 0.72369 0.59939
 H1062 H 0.13820 0.69207 0.66257
 H1063 H 0.30592 0.81595 0.82642
 H1064 H 0.25259 0.79178 0.86007
 H1065 H 0.12077 0.78295 0.70466
 H1066 H 0.15741 0.83116 0.67387
 H1067 H 0.31469 0.68632 0.81263
 H1068 H 0.35786 0.73159 0.77573
 O1069 O 0.25257 0.15458 0.17979
 O1070 O 0.31085 0.14544 0.21636
 O1071 O 0.16124 0.17183 0.26451
 O1072 O 0.14829 0.21113 0.31817
 O1073 O 0.17150 0.25067 0.16683
 O1074 O 0.21147 0.30681 0.15299
 O1075 O 0.26112 0.27954 0.36633
 O1076 O 0.23515 0.21930 0.37428
 O1077 O 0.35960 0.25535 0.28308
 O1078 O 0.36600 0.23020 0.21721
 O1079 O 0.27986 0.35714 0.26091
 O1080 O 0.21348 0.36470 0.23984
 O1081 O 0.24734 0.33479 0.32918
 O1082 O 0.18503 0.34696 0.28825
 O1083 O 0.33527 0.32004 0.24669
 O1084 O 0.34473 0.27534 0.18511
 O1085 O 0.32529 0.24550 0.34094
 O1086 O 0.28919 0.18134 0.34756
 O1087 O 0.23848 0.21015 0.14319
 O1088 O 0.26109 0.27581 0.13444
 O1089 O 0.13722 0.23870 0.22428
 O1090 O 0.13417 0.26687 0.29118
 O1091 O 0.21621 0.13490 0.24781
 O1092 O 0.28259 0.13163 0.27650
 Zr1093 Zr 0.26006 0.17707 0.23816
 O1094 O 0.29818 0.21176 0.27233
 Zr1095 Zr 0.18107 0.23054 0.26796
 O1096 O 0.21584 0.26659 0.30432
 Zr1097 Zr 0.23018 0.25604 0.18572
 O1098 O 0.26633 0.29419 0.21820
 Zr1099 Zr 0.26716 0.23526 0.32215
 O1100 O 0.22968 0.19725 0.29015
 Zr1101 Zr 0.31549 0.26163 0.23959
 O1102 O 0.28136 0.22429 0.20335
 Zr1103 Zr 0.23662 0.31432 0.27036
 O1104 O 0.19824 0.28045 0.23476
 O1105 O 0.20987 0.20748 0.21744
 O1106 O 0.28734 0.28464 0.29085
 C1107 C 0.24606 0.17267 0.14648
 C1108 C 0.17948 0.13854 0.25738
 C1109 C 0.13928 0.24577 0.18653
 C1110 C 0.25450 0.31710 0.36261
 C1111 C 0.35746 0.25059 0.32117
 C1112 C 0.31694 0.35337 0.25302
 H1113 H 0.32112 0.19496 0.28060
 H1114 H 0.27391 0.31632 0.20051
 H1115 H 0.19268 0.19042 0.20116
 H1116 H 0.19987 0.27555 0.32778
 H1117 H 0.22058 0.19505 0.36743
 H1118 H 0.16287 0.21929 0.34231
 H1119 H 0.33404 0.30123 0.17551
 H1120 H 0.28790 0.26339 0.13562
 H1121 H 0.30077 0.18762 0.37403
 H1122 H 0.27780 0.10528 0.26417
 H1123 H 0.22403 0.36344 0.21208
 H1124 H 0.19135 0.32102 0.16980
 H1125 H 0.32333 0.16234 0.19581
 H1126 H 0.36597 0.20336 0.22929
 H1127 H 0.13422 0.29199 0.27578
 H1128 H 0.17614 0.33653 0.31445
 O1129 O 0.84257 0.67785 0.24882
 O1130 O 0.85374 0.71492 0.19507
 O1131 O 0.82986 0.77326 0.34221
 O1132 O 0.78505 0.81310 0.36602
 O1133 O 0.74786 0.66771 0.33448
 O1134 O 0.69374 0.65496 0.29320
 O1135 O 0.72020 0.86701 0.24220
 O1136 O 0.77907 0.87324 0.27275
 O1137 O 0.73689 0.78731 0.14508
 O1138 O 0.76313 0.72208 0.13678
 O1139 O 0.64102 0.76866 0.22868
 O1140 O 0.63397 0.74640 0.29229
 O1141 O 0.66691 0.83375 0.26534
 O1142 O 0.65801 0.78787 0.32701
 O1143 O 0.67493 0.75151 0.17187
 O1144 O 0.72005 0.68932 0.16061
 O1145 O 0.75700 0.84151 0.17944
 O1146 O 0.81867 0.84603 0.21990
 O1147 O 0.78846 0.64368 0.26808
 O1148 O 0.72323 0.63885 0.24138
 O1149 O 0.77010 0.72044 0.36975
 O1150 O 0.73249 0.78717 0.37324
 O1151 O 0.86549 0.74672 0.29020
 O1152 O 0.86546 0.77480 0.22087
 Zr1153 Zr 0.82176 0.73742 0.24546
 O1154 O 0.78578 0.77256 0.20705
 Zr1155 Zr 0.77057 0.76650 0.32648
 O1156 O 0.73471 0.80495 0.29181
 Zr1157 Zr 0.74354 0.68746 0.27526
 O1158 O 0.70421 0.72192 0.24020
 Zr1159 Zr 0.76417 0.82229 0.23915
 O1160 O 0.80208 0.78871 0.27688
 Zr1161 Zr 0.73449 0.74307 0.18971
 O1162 O 0.77332 0.70568 0.22328
 Zr1163 Zr 0.68587 0.77366 0.27148
 O1164 O 0.72022 0.73568 0.30892
 O1165 O 0.79314 0.71649 0.29641
 O1166 O 0.71355 0.79401 0.21951
 C1167 C 0.82462 0.64540 0.25638
 C1168 C 0.86273 0.76450 0.32454
 C1169 C 0.75797 0.68457 0.36718
 C1170 C 0.68418 0.86565 0.25437
 C1171 C 0.74715 0.82377 0.14695
 C1172 C 0.64274 0.76025 0.19114
 H1173 H 0.80169 0.78053 0.18351
 H1174 H 0.68151 0.70552 0.23285
 H1175 H 0.81124 0.70001 0.31312
 H1176 H 0.72690 0.82838 0.30834
 H1177 H 0.80156 0.86507 0.28997
 H1178 H 0.78419 0.83779 0.34994
 H1179 H 0.69434 0.68071 0.17144
 H1180 H 0.73770 0.63903 0.21545
 H1181 H 0.81315 0.87272 0.20832
 H1182 H 0.89214 0.76389 0.22756
 H1183 H 0.63632 0.71799 0.28463
 H1184 H 0.67847 0.67212 0.31226
 H1185 H 0.83426 0.70214 0.17752
 H1186 H 0.78967 0.73377 0.13601
 H1187 H 0.71289 0.76630 0.37806
 H1188 H 0.66725 0.81417 0.33577
 O1189 O 0.67310 0.23447 0.83657
 O1190 O 0.71084 0.17714 0.84459
 O1191 O 0.75475 0.32784 0.83467
 O1192 O 0.80998 0.34281 0.80094
 O1193 O 0.66660 0.32556 0.74255
 O1194 O 0.65320 0.28602 0.68788
 O1195 O 0.86608 0.23069 0.72435
 O1196 O 0.86816 0.25251 0.78865
 O1197 O 0.78317 0.13412 0.72783
 O1198 O 0.71803 0.12691 0.75051
 O1199 O 0.77091 0.22278 0.63674
 O1200 O 0.74909 0.28769 0.63236
 O1201 O 0.83426 0.25480 0.66927
 O1202 O 0.78957 0.31837 0.66122
 O1203 O 0.75171 0.16552 0.66623
 O1204 O 0.68689 0.15527 0.70696
 O1205 O 0.83866 0.16651 0.74515
 O1206 O 0.83984 0.19484 0.81684
 O1207 O 0.64051 0.26150 0.78321
 O1208 O 0.63818 0.23321 0.71443
 O1209 O 0.71972 0.35761 0.76689
 O1210 O 0.78936 0.36018 0.74428
 O1211 O 0.73532 0.27118 0.86531
 O1212 O 0.76878 0.20421 0.86335
 Zr1213 Zr 0.73238 0.22951 0.81796
 O1214 O 0.76853 0.19241 0.78113
 Zr1215 Zr 0.76333 0.31185 0.77426
 O1216 O 0.80295 0.27847 0.73770
 Zr1217 Zr 0.68516 0.26589 0.73849
 O1218 O 0.72114 0.23270 0.69812
 Zr1219 Zr 0.81877 0.22370 0.76435
 O1220 O 0.78414 0.26012 0.80401
 Zr1221 Zr 0.74023 0.18024 0.72676
 O1222 O 0.70168 0.21209 0.76623
 Zr1223 Zr 0.77364 0.26268 0.68503
 O1224 O 0.73455 0.29869 0.72023
 O1225 O 0.71279 0.28235 0.79114
 O1226 O 0.79182 0.20900 0.71047
 C1227 C 0.64160 0.24739 0.81912
 C1228 C 0.74428 0.30806 0.86566
 C1229 C 0.68446 0.35713 0.75260
 C1230 C 0.86572 0.24343 0.68813
 C1231 C 0.82058 0.13551 0.73302
 C1232 C 0.76250 0.18589 0.63572
 H1233 H 0.77581 0.16764 0.79555
 H1234 H 0.70589 0.22736 0.67356
 H1235 H 0.69517 0.29925 0.80830
 H1236 H 0.82650 0.29455 0.73245
 H1237 H 0.85927 0.26462 0.81441
 H1238 H 0.83399 0.32573 0.79744
 H1239 H 0.68034 0.16693 0.68052
 H1240 H 0.63572 0.20903 0.73104
 H1241 H 0.86599 0.18241 0.81023
 H1242 H 0.75552 0.20814 0.88980
 H1243 H 0.72120 0.27962 0.63138
 H1244 H 0.67158 0.30227 0.67198
 H1245 H 0.69457 0.16399 0.82411
 H1246 H 0.72819 0.12426 0.77816
 H1247 H 0.77399 0.36497 0.71953
 H1248 H 0.81551 0.32519 0.67254
 N1249 N 0.07171 1.00215 1.18431
 N1250 N 0.08816 1.00215 1.14986
 N1251 N 0.58148 0.49985 0.66679
 N1252 N 0.59839 0.50107 0.63276
 N1253 N 0.43430 -0.01193 0.68322
 N1254 N 0.41759 -0.00971 0.64913
 N1255 N -0.06925 0.49439 1.18266
 N1256 N -0.08246 0.50188 1.14786
 N1257 N -0.09854 0.49285 0.32908
 N1258 N -0.06308 0.49874 0.33917
 N1259 N 0.41574 1.01344 -0.17847
 N1260 N 0.42564 1.03584 -0.15117
 N1261 N 0.57903 0.49945 -0.18772
 N1262 N 0.59651 0.50989 -0.15610
 N1263 N 0.08573 -0.00398 0.33237
 N1264 N 0.05043 -0.01340 0.34061
 N1265 N 0.17381 1.07143 0.99961
 N1266 N 0.14020 1.08928 0.99943
 N1267 N 0.67775 0.57226 0.49856
 N1268 N 0.64444 0.59070 0.49694
 N1269 N 0.69502 0.43730 -0.00725
 N1270 N 0.67520 0.46795 -0.01156
 N1271 N 0.17524 -0.06125 0.48679
 N1272 N 0.14366 -0.08068 0.48342
 N1273 N 0.32093 -0.05970 0.49421
 N1274 N 0.35362 -0.07873 0.48991
 N1275 N -0.17353 0.41275 1.00879
 N1276 N -0.14503 0.42550 1.02716
 N1277 N -0.17706 0.56601 0.49208
 N1278 N -0.14425 0.58357 0.49037
 N1279 N 0.31928 1.07511 -0.00634
 N1280 N 0.35065 1.09516 -0.00543
 N1281 N 0.00025 1.18520 1.07450
 N1282 N -0.00245 1.15133 1.09106
 N1283 N 0.49771 0.68098 0.57347
 N1284 N 0.49985 0.64569 0.58726
 N1285 N -0.00232 0.66549 0.42246
 N1286 N 0.00440 0.63215 0.40550
 N1287 N 0.50579 1.18540 -0.06177
 N1288 N 0.50710 1.15213 -0.08010
 N1289 N 0.51778 0.33141 -0.06764
 N1290 N 0.52346 0.36245 -0.08843
 N1291 N 0.00276 -0.19027 0.43142
 N1292 N -0.00004 -0.15680 0.41416
 N1293 N 0.49912 -0.17259 0.59730
 N1294 N 0.49258 -0.16228 0.56122
 N1295 N 0.00075 0.33217 1.09707
 N1296 N -0.00940 0.34248 1.06194
 N1297 N 0.76332 0.33998 0.07132
 N1298 N 0.74573 0.34917 0.10413
 N1299 N 0.26163 0.84014 0.55691
 N1300 N 0.24332 0.84558 0.59014
 N1301 N 0.76088 0.66068 0.57679
 N1302 N 0.74794 0.65005 0.61106
 N1303 N 0.25361 0.16290 0.07667
 N1304 N 0.24471 0.14913 0.11103
 N1305 N 0.25733 0.17077 0.93528
 N1306 N 0.24999 0.15800 0.90023
 N1307 N 0.76516 0.67007 0.43739
 N1308 N 0.75292 0.66150 0.40249
 N1309 N 0.26392 0.84399 0.41695
 N1310 N 0.23650 0.82557 0.39930
 N1311 N 0.76020 0.32719 0.93237
 N1312 N 0.73813 0.33009 0.90168
 N1313 N 0.81845 0.43406 0.24900
 N1314 N 0.83349 0.39918 0.24493
 N1315 N 0.32926 0.92689 0.76044
 N1316 N 0.31529 0.90756 0.73100
 N1317 N 0.17115 0.92720 0.26199
 N1318 N 0.15863 0.89391 0.24971
 N1319 N 0.67537 0.42785 0.75515
 N1320 N 0.66364 0.39368 0.74490
 N1321 N 0.67394 0.56802 0.75383
 N1322 N 0.65874 0.60279 0.75014
 N1323 N 0.17098 0.06902 0.26302
 N1324 N 0.15646 0.10375 0.25676
 N1325 N 0.33720 0.06839 0.76153
 N1326 N 0.34975 0.10174 0.74922
 N1327 N 0.83167 0.57527 0.25857
 N1328 N 0.84605 0.60882 0.24972
 N1329 N 0.92861 0.26427 0.17610
 N1330 N 0.89544 0.25683 0.16032
 N1331 N 0.42584 0.76077 0.67830
 N1332 N 0.39212 0.75458 0.66300
 N1333 N 0.43444 0.26574 0.84001
 N1334 N 0.40166 0.24976 0.84914
 N1335 N 0.92925 0.76194 0.34714
 N1336 N 0.89728 0.77984 0.34322
 N1337 N 0.06817 0.75299 0.32879
 N1338 N 0.10131 0.73529 0.33486
 N1339 N 0.57320 0.26265 0.83445
 N1340 N 0.60595 0.24471 0.84193
 N1341 N 0.56812 0.75046 0.67926
 N1342 N 0.60210 0.74230 0.66408
 N1343 N 0.07011 0.25477 0.17939
 N1344 N 0.10379 0.24576 0.16418
 N1345 N -0.08220 0.99475 0.82709
 N1346 N -0.09750 0.99705 0.86208
 N1347 N 0.42628 0.49678 0.31095
 N1348 N 0.41064 0.49916 0.34588
 N1349 N 0.57925 0.01811 0.32047
 N1350 N 0.59512 0.01514 0.35485
 N1351 N 0.07486 0.50731 0.81496
 N1352 N 0.09026 0.50643 0.84960
 N1353 N 0.09722 0.49692 0.66776
 N1354 N 0.06214 0.48729 0.65928
 N1355 N 0.59376 1.00531 0.17196
 N1356 N 0.55809 0.99764 0.16386
 N1357 N 0.40750 0.49567 0.16194
 N1358 N 0.44062 0.51033 0.15264
 N1359 N -0.10133 -0.00944 0.67842
 N1360 N -0.06651 -0.00115 0.66735
 N1361 N -0.18265 0.93260 1.00406
 N1362 N -0.14879 0.91563 1.00640
 N1363 N 0.32367 0.42953 0.50136
 N1364 N 0.35773 0.41275 0.49919
 N1365 N 0.31876 0.56318 -0.00160
 N1366 N 0.35230 0.57934 -0.00136
 N1367 N -0.19462 0.06554 0.49956
 N1368 N -0.17465 0.03475 0.50288
 N1369 N 0.66955 0.10217 0.50356
 N1370 N 0.66005 0.06581 0.50239
 N1371 N 0.17331 0.59487 0.99257
 N1372 N 0.16268 0.55892 0.99048
 N1373 N 0.17886 0.42073 0.50919
 N1374 N 0.14789 0.40015 0.50760
 N1375 N 0.67299 0.92863 0.00975
 N1376 N 0.64102 0.90964 0.00960
 N1377 N -0.00996 0.81854 0.93903
 N1378 N -0.01153 0.85292 0.92307
 N1379 N 0.50229 0.31850 0.42339
 N1380 N 0.50255 0.35212 0.40573
 N1381 N 0.00220 0.30603 0.57190
 N1382 N -0.00377 0.34080 0.58635
 N1383 N 0.50089 0.82151 0.07602
 N1384 N 0.49147 0.85568 0.08981
 N1385 N 0.50685 0.67686 0.10113
 N1386 N 0.49410 0.66801 0.06660
 N1387 N 0.00119 0.16023 0.60150
 N1388 N -0.01861 0.14946 0.57115
 N1389 N 0.50534 0.16967 0.40758
 N1390 N 0.51687 0.15932 0.44234
 N1391 N 0.00646 0.67298 0.90465
 N1392 N 0.01941 0.66023 0.93811
 N1393 N 0.25478 0.65787 0.90764
 N1394 N 0.22797 0.68270 0.89671
 N1395 N 0.74058 0.16912 0.42560
 N1396 N 0.75536 0.15852 0.39179
 N1397 N 0.24664 0.32982 0.43234
 N1398 N 0.25677 0.34143 0.39747
 N1399 N 0.73993 0.83263 0.93454
 N1400 N 0.75175 0.84269 0.89962
 N1401 N 0.73785 0.83518 0.07652
 N1402 N 0.75064 0.84602 0.11067
 N1403 N 0.24689 0.32866 0.57350
 N1404 N 0.25840 0.33957 0.60803
 N1405 N 0.74869 0.17550 0.56695
 N1406 N 0.76706 0.16533 0.59869
 N1407 N 0.24811 0.67803 0.05548
 N1408 N 0.25747 0.66525 0.09041
 N1409 N 0.18050 0.56960 0.73968
 N1410 N 0.16391 0.60390 0.74199
 N1411 N 0.66887 0.07463 0.23098
 N1412 N 0.67691 0.10491 0.21240
 N1413 N 0.84171 0.06914 0.73911
 N1414 N 0.84416 0.10142 0.72200
 N1415 N 0.32245 0.56272 0.23064
 N1416 N 0.33533 0.59695 0.23913
 N1417 N 0.32658 0.42175 0.24028
 N1418 N 0.33989 0.38819 0.25251
 N1419 N 0.81515 0.92826 0.75359
 N1420 N 0.83132 0.89413 0.75942
 N1421 N 0.67487 0.93482 0.24464
 N1422 N 0.66216 0.90213 0.25817
 N1423 N 0.17701 0.42826 0.74219
 N1424 N 0.16463 0.39496 0.75450
 N1425 N 0.07017 0.76258 0.83360
 N1426 N 0.08000 0.73949 0.80498
 N1427 N 0.56703 0.23726 0.31906
 N1428 N 0.60062 0.24659 0.33257
 N1429 N 0.57305 0.75490 0.18401
 N1430 N 0.60687 0.76201 0.16875
 N1431 N 0.07901 0.24047 0.67743
 N1432 N 0.11210 0.25237 0.66378
 N1433 N 0.93612 0.23574 0.68061
 N1434 N 0.90249 0.24758 0.66742
 N1435 N 0.42982 0.74385 0.17621
 N1436 N 0.39640 0.75266 0.16054
 N1437 N 0.42636 0.24175 0.32830
 N1438 N 0.39300 0.25230 0.34334
 N1439 N 0.92705 0.74826 0.82968
 N1440 N 0.89251 0.75605 0.84392
   
