data_POSCAR
  _audit_creation_date              2014-09-24
  _audit_creation_method            'ToBaCCo'
  _symmetry_space_group_name_H-M    'P1'
  _symmetry_Int_Tables_number       1
  _symmetry_cell_setting            triclinic
  loop_
  _symmetry_equiv_pos_as_xyz
 x,y,z
_cell_length_a 28.2076
_cell_length_b 30.1270
_cell_length_c 47.7689
_cell_angle_alpha 89.867400
_cell_angle_beta 90.095300
_cell_angle_gamma 89.977900
loop_
  _atom_site_label
  _atom_site_type_symbol
  _atom_site_fract_x
  _atom_site_fract_y
  _atom_site_fract_z
B1 B 0.26411 0.23364 0.22354
 B2 B 0.28274 0.28550 0.22794
 B3 B 0.22523 0.27516 0.22354
 B4 B 0.21146 0.22696 0.23936
 B5 B 0.26281 0.20790 0.25448
 B6 B 0.30729 0.24454 0.24698
 B7 B 0.24070 0.28783 0.27785
 B8 B 0.22244 0.23582 0.27322
 B9 B 0.27974 0.24654 0.27789
 B10 B 0.29365 0.29466 0.26196
 B11 B 0.24238 0.31372 0.24687
 B12 B 0.19777 0.27692 0.25442
 B13 B 0.72053 0.76822 0.27655
 B14 B 0.77544 0.78312 0.26801
 B15 B 0.76347 0.73034 0.27537
 B16 B 0.70904 0.71768 0.26315
 B17 B 0.68763 0.76497 0.24755
 B18 B 0.72925 0.80592 0.25103
 B19 B 0.76790 0.73971 0.21996
 B20 B 0.71296 0.72469 0.22848
 B21 B 0.72500 0.77747 0.22129
 B22 B 0.77934 0.79011 0.23340
 B23 B 0.80086 0.74282 0.24900
 B24 B 0.75921 0.70181 0.24545
 B25 B 0.73637 0.21358 -0.21877
 B26 B 0.72623 0.26783 -0.22188
 B27 B 0.78135 0.24923 -0.21764
 B28 B 0.78776 0.20088 -0.23482
 B29 B 0.73420 0.19006 -0.25035
 B30 B 0.69564 0.23187 -0.24185
 B31 B 0.76832 0.26778 -0.27177
 B32 B 0.77857 0.21367 -0.26853
 B33 B 0.72332 0.23202 -0.27276
 B34 B 0.71695 0.28051 -0.25567
 B35 B 0.77061 0.29138 -0.24011
 B36 B 0.80911 0.24958 -0.24858
 B37 B 0.28939 0.74554 -0.28093
 B38 B 0.23148 0.75512 -0.27834
 B39 B 0.25159 0.70321 -0.27982
 B40 B 0.30355 0.69985 -0.26230
 B41 B 0.31460 0.75203 -0.24949
 B42 B 0.26960 0.78642 -0.25991
 B43 B 0.23186 0.72209 -0.22667
 B44 B 0.28997 0.71281 -0.22909
 B45 B 0.26946 0.76451 -0.22779
 B46 B 0.21778 0.76783 -0.24525
 B47 B 0.20665 0.71577 -0.25809
 B48 B 0.25177 0.68124 -0.24757
 B49 B 1.23402 1.27876 0.77609
 B50 B 1.29124 1.28906 0.77044
 B51 B 1.27247 1.23699 0.77367
 B52 B 1.21838 1.23205 0.75907
 B53 B 1.20401 1.28338 0.74607
 B54 B 1.24958 1.31917 0.75361
 B55 B 1.28352 1.25468 0.71933
 B56 B 1.22659 1.24390 0.72515
 B57 B 1.24501 1.29623 0.72191
 B58 B 1.29934 1.30121 0.73647
 B59 B 1.31369 1.24969 0.74939
 B60 B 1.26820 1.21405 0.74194
 B61 B 0.77677 0.74672 0.77913
 B62 B 0.71935 0.73727 0.77375
 B63 B 0.73907 0.78903 0.77724
 B64 B 0.79295 0.79343 0.76215
 B65 B 0.80592 0.74202 0.74875
 B66 B 0.75988 0.70695 0.75646
 B67 B 0.72597 0.77297 0.72308
 B68 B 0.78344 0.78232 0.72819
 B69 B 0.76364 0.73057 0.72486
 B70 B 0.70991 0.72627 0.73991
 B71 B 0.69699 0.77760 0.75335
 B72 B 0.74300 0.81266 0.74566
 B73 B 1.23593 0.71664 0.28064
 B74 B 1.21515 0.76820 0.27710
 B75 B 1.27276 0.75968 0.28232
 B76 B 1.28984 0.71319 0.26551
 B77 B 1.24024 0.69295 0.24915
 B78 B 1.19350 0.72731 0.25683
 B79 B 1.25894 0.77524 0.22786
 B80 B 1.27999 0.72394 0.23146
 B81 B 1.22215 0.73207 0.22638
 B82 B 1.20520 0.77874 0.24308
 B83 B 1.25488 0.79903 0.25942
 B84 B 1.30155 0.76477 0.25183
 B85 B 0.77491 1.26024 0.27375
 B86 B 0.79530 1.20877 0.26960
 B87 B 0.73750 1.21752 0.27426
 B88 B 0.72155 1.26517 0.25822
 B89 B 0.77177 1.28556 0.24264
 B90 B 0.81777 1.25030 0.25002
 B91 B 0.75180 1.20470 0.21973
 B92 B 0.73181 1.25632 0.22415
 B93 B 0.78941 1.24719 0.21924
 B94 B 0.80547 1.19962 0.23536
 B95 B 0.75529 1.17924 0.25094
 B96 B 0.70921 1.21466 0.24349
 O97 O 0.45982 1.07036 0.03646
 O98 O 0.50541 0.91690 0.03166
 O99 O 0.40042 0.97542 0.03388
 O100 O 0.56516 1.01215 0.03612
 O101 O 0.42558 0.91372 0.01789
 O102 O 0.54048 1.07637 0.02389
 O103 O 0.57137 0.93901 0.01623
 O104 O 0.39433 1.05122 0.01863
 C105 C 0.41658 1.06722 0.03866
 C106 C 0.54839 0.92001 0.03485
 C107 C 0.40573 0.93508 0.03699
 C108 C 0.56214 1.05220 0.04105
 O109 O 0.51371 1.07418 -0.03191
 O110 O 0.45368 0.92527 -0.03708
 O111 O 0.40350 1.02420 -0.03499
 O112 O 0.56411 0.97489 -0.03532
 O113 O 0.53323 0.91279 -0.02385
 O114 O 0.43397 1.08372 -0.01877
 O115 O 0.57688 1.04684 -0.01561
 O116 O 0.38956 0.94913 -0.01992
 Co117 Co 0.48664 1.06865 0.00219
 Co118 Co 0.47986 0.92465 -0.00261
 Co119 Co 0.40549 0.99965 -0.00055
 Co120 Co 0.56087 0.99352 0.00034
 O121 O 0.48322 0.99661 -0.00013
 C122 C 0.55634 1.06735 -0.03465
 C123 C 0.41073 0.93064 -0.03950
 C124 C 0.41263 1.06396 -0.03803
 C125 C 0.55660 0.93565 -0.04085
 O126 O 0.96328 0.57229 0.53675
 O127 O 1.01288 0.42005 0.53391
 O128 O 0.90582 0.47422 0.53505
 O129 O 1.06930 0.51654 0.53600
 O130 O 0.93286 0.41332 0.51919
 O131 O 1.04364 0.57994 0.52317
 O132 O 1.07749 0.44347 0.51749
 O133 O 0.89783 0.54982 0.52003
 C134 C 0.92019 0.56765 0.53947
 C135 C 1.05563 0.42595 0.53709
 C136 C 0.91251 0.43410 0.53829
 C137 C 1.06563 0.55654 0.54053
 O138 O 1.01528 0.57529 0.46774
 O139 O 0.96143 0.42397 0.46475
 O140 O 0.90654 0.52336 0.46606
 O141 O 1.06818 0.47690 0.46520
 O142 O 1.04096 0.41429 0.47838
 O143 O 0.93546 0.58354 0.48216
 O144 O 1.07945 0.54974 0.48379
 O145 O 0.89624 0.44768 0.48091
 Co146 Co 0.98937 0.57013 0.50226
 Co147 Co 0.98723 0.42547 0.49928
 Co148 Co 0.91007 0.49863 0.50053
 Co149 Co 1.06529 0.49676 0.50062
 O150 O 0.98793 0.49776 0.50067
 C151 C 1.05800 0.56912 0.46466
 C152 C 0.91846 0.42886 0.46180
 C153 C 0.91439 0.56338 0.46302
 C154 C 1.06242 0.43713 0.46057
 O155 O 1.00406 0.46880 0.05900
 O156 O 1.00859 0.55286 -0.05661
 O157 O 1.05897 0.43926 -0.02495
 O158 O 1.05280 0.56158 0.02704
 O159 O 1.01631 0.47123 -0.05789
 O160 O 1.00034 0.54832 0.05804
 O161 O 1.05630 0.56777 -0.02318
 O162 O 1.05700 0.45049 0.02831
 C163 C 1.04492 0.45507 0.05314
 C164 C 1.04790 0.56676 -0.04854
 C165 C 1.05138 0.44816 -0.05015
 C166 C 1.04136 0.56051 0.05196
 O167 O 0.91523 0.54402 0.03073
 O168 O 0.92657 0.46128 -0.04547
 O169 O 0.97060 0.41468 0.02830
 O170 O 0.96608 0.59871 -0.02435
 O171 O 0.91976 0.54575 -0.03805
 O172 O 0.91742 0.46404 0.03450
 O173 O 0.96409 0.59717 0.02649
 O174 O 0.97112 0.41233 -0.02370
 Co175 Co 0.96161 0.50648 0.04182
 Co176 Co 0.96941 0.50817 -0.04462
 Co177 Co 1.01207 0.43678 0.00216
 Co178 Co 1.00776 0.57505 0.00146
 O179 O 0.98806 0.50624 0.00002
 C180 C 0.92371 0.58397 0.03321
 C181 C 0.93756 0.42193 -0.04017
 C182 C 0.92985 0.42485 0.03618
 C183 C 0.92822 0.58603 -0.03578
 O184 O 0.51071 0.95683 0.55679
 O185 O 0.50708 1.03725 0.44088
 O186 O 0.55790 0.94826 0.47398
 O187 O 0.55477 1.07161 0.52592
 O188 O 0.50595 0.95739 0.44221
 O189 O 0.51194 1.03848 0.55807
 O190 O 0.55676 1.05990 0.47259
 O191 O 0.56035 0.94361 0.52406
 C192 C 0.55129 0.94565 0.54928
 C193 C 0.54681 1.05304 0.44758
 C194 C 0.54727 0.94720 0.44896
 C195 C 0.54613 1.06308 0.55100
 O196 O 0.42262 1.04245 0.54348
 O197 O 0.41985 0.95940 0.46790
 O198 O 0.47258 0.90734 0.52490
 O199 O 0.46897 1.09084 0.47040
 O200 O 0.41866 1.03929 0.46331
 O201 O 0.42213 0.95785 0.53663
 O202 O 0.46514 1.09376 0.52245
 O203 O 0.47090 0.90821 0.47403
 Co204 Co 0.46867 0.99846 0.54396
 Co205 Co 0.46509 0.99839 0.45739
 Co206 Co 0.51305 0.93294 0.49916
 Co207 Co 0.50944 1.07127 0.49772
 O208 O 0.48930 1.00060 0.49975
 C209 C 0.43110 1.08229 0.53808
 C210 C 0.43010 0.91963 0.46666
 C211 C 0.43348 0.91805 0.53556
 C212 C 0.42931 1.07890 0.46174
 O213 O 1.08119 1.04825 0.47394
 O214 O 0.91728 1.02677 0.52883
 O215 O 0.99417 1.05574 0.46062
 O216 O 1.06417 1.02254 0.55853
 O217 O 0.92540 1.04374 0.47749
 O218 O 1.08721 1.05533 0.52181
 O219 O 0.97838 1.04561 0.55512
 O220 O 1.05860 1.00794 0.44113
 C221 C 1.08377 1.03899 0.44878
 C222 C 0.93576 1.04986 0.54826
 C223 C 0.95222 1.06704 0.46259
 C224 C 1.08216 1.05537 0.54746
 O225 O 1.10222 0.96470 0.52818
 O226 O 0.93640 0.95593 0.46700
 O227 O 1.02248 0.93852 0.46182
 O228 O 0.95513 0.96342 0.55546
 O229 O 0.93020 0.93874 0.51619
 O230 O 1.09289 0.95627 0.47685
 O231 O 1.04111 0.94135 0.55265
 O232 O 0.97250 0.98833 0.43217
 Co233 Co 1.08476 1.00517 0.50047
 Co234 Co 0.93476 0.99230 0.49809
 Co235 Co 1.00700 0.99703 0.46299
 Co236 Co 1.00979 0.99383 0.55060
 O237 O 1.01099 0.99811 0.50474
 C238 C 1.08341 0.93761 0.54529
 C239 C 0.93668 0.96596 0.44117
 C240 C 1.06557 0.92949 0.46408
 C241 C 0.93377 0.93469 0.54195
 O242 O 0.58935 0.54312 -0.02946
 O243 O 0.41568 0.53999 0.03304
 O244 O 0.44382 0.52572 -0.05144
 O245 O 0.56197 0.52929 0.05519
 O246 O 0.42127 0.55667 -0.01480
 O247 O 0.58462 0.55962 0.01811
 O248 O 0.48294 0.56040 0.04998
 O249 O 0.52095 0.56068 -0.04614
 C250 C 0.56370 0.56875 -0.04385
 C251 C 0.43988 0.56672 0.04745
 C252 C 0.42513 0.55807 -0.04038
 C253 C 0.58018 0.56149 0.04359
 O254 O 0.59361 0.46866 0.03171
 O255 O 0.41599 0.46466 -0.02752
 O256 O 0.55983 0.48180 -0.05276
 O257 O 0.44843 0.47979 0.05641
 O258 O 0.42443 0.44884 0.01993
 O259 O 0.58565 0.45183 -0.01621
 O260 O 0.52756 0.44859 0.05046
 O261 O 0.48361 0.44694 -0.04487
 Co262 Co 0.58060 0.50560 0.00114
 Co263 Co 0.42690 0.50273 0.00259
 Co264 Co 0.50218 0.50382 -0.04361
 Co265 Co 0.50501 0.50449 0.04796
 O266 O 0.50367 0.50414 0.00206
 C267 C 0.57058 0.44243 0.04721
 C268 C 0.44108 0.43870 -0.04189
 C269 C 0.58130 0.45077 -0.04177
 C270 C 0.43037 0.44712 0.04534
 C271 C 0.35028 1.12124 0.10637
 C272 C 0.30793 1.14594 0.10306
 C273 C 0.28701 1.16697 0.12659
 C274 C 0.30892 1.16351 0.15316
 C275 C 0.35054 1.13777 0.15662
 C276 C 0.37126 1.11651 0.13314
 C277 C 0.41296 1.09103 0.13705
 C278 C 0.43358 1.08668 0.16344
 C279 C 0.41330 1.10747 0.18644
 C280 C 0.37228 1.13278 0.18320
 C281 C 0.24442 1.19111 0.12289
 C282 C 0.22324 1.19453 0.09659
 C283 C 0.24402 1.17446 0.07350
 C284 C 0.28585 1.15033 0.07657
 C285 C 0.29006 1.18766 0.17682
 C286 C 0.27679 1.20782 0.19703
 C287 C 0.37295 1.10156 0.08220
 C288 C 0.39255 1.08565 0.06225
 H289 H 0.42996 1.07410 0.11982
 H290 H 0.46542 1.06703 0.16606
 H291 H 0.42938 1.10393 0.20692
 H292 H 0.35775 1.14813 0.20176
 H293 H 0.22704 1.20742 0.14024
 H294 H 0.19064 1.21300 0.09405
 H295 H 0.22755 1.17747 0.05310
 H296 H 0.30053 1.13505 0.05803
 C297 C 0.85188 0.62256 0.60639
 C298 C 0.84880 0.59876 0.63192
 C299 C 0.82726 0.61876 0.65562
 C300 C 0.80873 0.66231 0.65359
 C301 C 0.81054 0.68560 0.62783
 C302 C 0.83237 0.66575 0.60419
 C303 C 0.83445 0.68998 0.57879
 C304 C 0.81522 0.73249 0.57678
 C305 C 0.79367 0.75180 0.59987
 C306 C 0.79138 0.72883 0.62518
 C307 C 0.82506 0.59454 0.68101
 C308 C 0.84343 0.55167 0.68289
 C309 C 0.86435 0.53204 0.65968
 C310 C 0.86716 0.55518 0.63444
 C311 C 0.79039 0.68419 0.67831
 C312 C 0.77705 0.70356 0.69885
 C313 C 0.87578 0.60288 0.58257
 C314 C 0.89598 0.58665 0.56289
 H315 H 0.85089 0.67635 0.56025
 H316 H 0.81721 0.75061 0.55722
 H317 H 0.77903 0.78494 0.59826
 H318 H 0.77482 0.74548 0.64266
 H319 H 0.80898 0.60837 0.69961
 H320 H 0.84136 0.53358 0.70246
 H321 H 0.87851 0.49871 0.66123
 H322 H 0.88375 0.53849 0.61697
 C323 C 0.61226 0.86394 0.10280
 C324 C 0.63953 0.82468 0.10051
 C325 C 0.66354 0.80773 0.12437
 C326 C 0.66027 0.83034 0.15022
 C327 C 0.63138 0.86852 0.15278
 C328 C 0.60714 0.88533 0.12897
 C329 C 0.57808 0.92336 0.13200
 C330 C 0.57310 0.94410 0.15787
 C331 C 0.59689 0.92765 0.18119
 C332 C 0.62586 0.89038 0.17879
 C333 C 0.69005 0.76807 0.12180
 C334 C 0.69284 0.74582 0.09632
 C335 C 0.66956 0.76256 0.07290
 C336 C 0.64320 0.80158 0.07484
 C337 C 0.68520 0.81348 0.17444
 C338 C 0.70439 0.79866 0.19487
 C339 C 0.58996 0.88287 0.07825
 C340 C 0.57125 0.89952 0.05820
 H341 H 0.55876 0.93737 0.11449
 H342 H 0.55071 0.97312 0.15982
 H343 H 0.59299 0.94392 0.20124
 H344 H 0.64366 0.87883 0.19753
 H345 H 0.70842 0.75355 0.13950
 H346 H 0.71305 0.71537 0.09477
 H347 H 0.67177 0.74513 0.05316
 H348 H 0.62545 0.81320 0.05611
 C349 C 1.12731 0.38671 0.60713
 C350 C 1.17095 0.40749 0.61373
 C351 C 1.19738 0.39313 0.63742
 C352 C 1.17982 0.35838 0.65438
 C353 C 1.13506 0.33908 0.64853
 C354 C 1.10906 0.35284 0.62459
 C355 C 1.06515 0.33210 0.61863
 C356 C 1.04727 0.29890 0.63600
 C357 C 1.07235 0.28587 0.65969
 C358 C 1.11561 0.30575 0.66605
 C359 C 1.24088 0.41425 0.64368
 C360 C 1.25762 0.44897 0.62709
 C361 C 1.23176 0.46311 0.60392
 C362 C 1.18899 0.44260 0.59715
 C363 C 1.20786 0.34090 0.67732
 C364 C 1.22769 0.32325 0.69669
 C365 C 1.10125 0.40007 0.58237
 C366 C 1.07995 0.41139 0.56171
 H367 H 1.04409 0.34139 0.60059
 H368 H 1.01359 0.28347 0.63118
 H369 H 1.05824 0.26024 0.67322
 H370 H 1.13356 0.29466 0.68482
 H371 H 1.26206 0.40444 0.66157
 H372 H 1.29079 0.46505 0.63228
 H373 H 1.24484 0.49019 0.59116
 H374 H 1.17005 0.45487 0.57899
 C375 C 0.62786 1.11833 -0.10167
 C376 C 0.60685 1.15275 -0.11764
 C377 C 0.63050 1.16949 -0.14167
 C378 C 0.67562 1.15252 -0.14910
 C379 C 0.69698 1.11868 -0.13286
 C380 C 0.67286 1.10127 -0.10916
 C381 C 0.69469 1.06710 -0.09336
 C382 C 0.73923 1.05083 -0.10067
 C383 C 0.76295 1.06811 -0.12373
 C384 C 0.74224 1.10167 -0.13973
 C385 C 0.60859 1.20369 -0.15748
 C386 C 0.56511 1.22145 -0.14941
 C387 C 0.54229 1.20545 -0.12570
 C388 C 0.56259 1.17130 -0.11002
 C389 C 0.70024 1.17111 -0.17299
 C390 C 0.71841 1.18852 -0.19295
 C391 C 0.60300 1.10034 -0.07766
 C392 C 0.58190 1.08535 -0.05789
 H393 H 0.67769 1.05272 -0.07519
 H394 H 0.75546 1.02474 -0.08832
 H395 H 0.79759 1.05543 -0.12928
 H396 H 0.76200 1.11408 -0.15750
 H397 H 0.62504 1.21748 -0.17600
 H398 H 0.54909 1.24783 -0.16161
 H399 H 0.50846 1.21928 -0.11954
 H400 H 0.54329 1.15975 -0.09185
 C401 C 1.12935 0.61853 0.39706
 C402 C 1.10903 0.65324 0.38105
 C403 C 1.13297 0.66944 0.35699
 C404 C 1.17801 0.65207 0.34973
 C405 C 1.19837 0.61745 0.36575
 C406 C 1.17384 0.60043 0.38943
 C407 C 1.19462 0.56541 0.40497
 C408 C 1.23835 0.54769 0.39730
 C409 C 1.26238 0.56447 0.37420
 C410 C 1.24282 0.59904 0.35855
 C411 C 1.11110 0.70310 0.34074
 C412 C 1.06774 0.72134 0.34858
 C413 C 1.04487 0.70619 0.37249
 C414 C 1.06494 0.67231 0.38851
 C415 C 1.20331 0.67104 0.32615
 C416 C 1.22096 0.68944 0.30635
 C417 C 1.10409 0.60112 0.42111
 C418 C 1.08288 0.58668 0.44101
 H419 H 1.17725 0.55124 0.42309
 H420 H 1.25364 0.52076 0.40934
 H421 H 1.29633 0.55059 0.36834
 H422 H 1.26270 0.61097 0.34070
 H423 H 1.12723 0.71573 0.32183
 H424 H 1.05183 0.74736 0.33603
 H425 H 1.01111 0.72035 0.37848
 H426 H 1.04549 0.66129 0.40674
 C427 C 0.34709 0.87451 -0.10762
 C428 C 0.29994 0.85830 -0.10764
 C429 C 0.28112 0.83807 -0.13212
 C430 C 0.30954 0.83434 -0.15637
 C431 C 0.35685 0.84996 -0.15624
 C432 C 0.37575 0.86994 -0.13176
 C433 C 0.42352 0.88444 -0.13196
 C434 C 0.45171 0.87917 -0.15562
 C435 C 0.43311 0.86004 -0.17966
 C436 C 0.38623 0.84560 -0.18011
 C437 C 0.23414 0.82160 -0.13163
 C438 C 0.20653 0.82491 -0.10756
 C439 C 0.22493 0.84466 -0.08361
 C440 C 0.27106 0.86131 -0.08354
 C441 C 0.29153 0.81225 -0.18106
 C442 C 0.27960 0.79257 -0.20177
 C443 C 0.36697 0.89502 -0.08277
 C444 C 0.38581 0.91172 -0.06273
 H445 H 0.43977 0.89965 -0.11383
 H446 H 0.48822 0.88987 -0.15526
 H447 H 0.45515 0.85623 -0.19803
 H448 H 0.37347 0.83081 -0.19932
 H449 H 0.21842 0.80575 -0.14972
 H450 H 0.17076 0.81189 -0.10747
 H451 H 0.20337 0.84702 -0.06494
 H452 H 0.28389 0.87632 -0.06442
 C453 C 0.85717 0.36789 0.39442
 C454 C 0.80747 0.36528 0.39051
 C455 C 0.78872 0.34401 0.36636
 C456 C 0.81976 0.32575 0.34620
 C457 C 0.86942 0.32727 0.35048
 C458 C 0.88820 0.34841 0.37464
 C459 C 0.93801 0.34954 0.37840
 C460 C 0.96836 0.33046 0.35883
 C461 C 0.94997 0.30991 0.33517
 C462 C 0.90113 0.30805 0.33100
 C463 C 0.73897 0.34136 0.36301
 C464 C 0.70854 0.35935 0.38294
 C465 C 0.72684 0.38043 0.40646
 C466 C 0.77573 0.38347 0.41031
 C467 C 0.80102 0.30483 0.32120
 C468 C 0.78766 0.28621 0.30034
 C469 C 0.87671 0.39044 0.41871
 C470 C 0.89468 0.40856 0.43856
 H471 H 0.95406 0.36513 0.39647
 H472 H 1.00636 0.33169 0.36202
 H473 H 0.97364 0.29540 0.31991
 H474 H 0.88862 0.29142 0.31234
 H475 H 0.72311 0.32517 0.34509
 H476 H 0.67054 0.35695 0.38011
 H477 H 0.70304 0.39445 0.42184
 H478 H 0.78833 0.40006 0.42896
 C479 C 1.11707 0.38967 0.11416
 C480 C 1.14179 0.41043 0.13631
 C481 C 1.16290 0.38408 0.15760
 C482 C 1.15826 0.33728 0.15682
 C483 C 1.13259 0.31659 0.13508
 C484 C 1.11235 0.34284 0.11344
 C485 C 1.08738 0.32137 0.09158
 C486 C 1.08234 0.27535 0.09128
 C487 C 1.10178 0.24975 0.11266
 C488 C 1.12674 0.26995 0.13435
 C489 C 1.18778 0.40546 0.17954
 C490 C 1.19075 0.45157 0.18068
 C491 C 1.16936 0.47736 0.16008
 C492 C 1.14548 0.45721 0.13793
 C493 C 1.17995 0.31092 0.17862
 C494 C 1.19929 0.29212 0.19764
 C495 C 1.09443 0.41622 0.09273
 C496 C 1.07335 0.43593 0.07471
 H497 H 1.07148 0.33981 0.07452
 H498 H 1.06318 0.25948 0.07440
 H499 H 1.09773 0.21403 0.11235
 H500 H 1.14150 0.24867 0.15044
 H501 H 1.20474 0.38691 0.19620
 H502 H 1.20947 0.46737 0.19776
 H503 H 1.17117 0.51316 0.16134
 H504 H 1.12963 0.47867 0.12230
 C505 C 0.63218 0.88481 0.60826
 C506 C 0.64650 0.84047 0.60338
 C507 C 0.66363 0.81419 0.62591
 C508 C 0.66750 0.83288 0.65290
 C509 C 0.65462 0.87770 0.65760
 C510 C 0.63698 0.90380 0.63514
 C511 C 0.62412 0.94849 0.64022
 C512 C 0.62856 0.96686 0.66684
 C513 C 0.64583 0.94133 0.68888
 C514 C 0.65873 0.89725 0.68445
 C515 C 0.67592 0.76940 0.62089
 C516 C 0.67250 0.75137 0.59413
 C517 C 0.65657 0.77733 0.57192
 C518 C 0.64343 0.82135 0.57640
 C519 C 0.68616 0.80696 0.67585
 C520 C 0.70270 0.78878 0.69600
 C521 C 0.60715 0.90887 0.58663
 C522 C 0.58325 0.92707 0.56924
 H523 H 0.61087 0.96975 0.62368
 H524 H 0.61870 1.00113 0.67035
 H525 H 0.64934 0.95577 0.70950
 H526 H 0.67203 0.87883 0.70228
 H527 H 0.68813 0.74790 0.63758
 H528 H 0.68242 0.71712 0.59060
 H529 H 0.65417 0.76324 0.55114
 H530 H 0.63113 0.84025 0.55852
 C531 C 1.12754 0.63284 -0.10647
 C532 C 1.11060 0.67491 -0.11526
 C533 C 1.13091 0.69603 -0.13901
 C534 C 1.16824 0.67509 -0.15362
 C535 C 1.18745 0.63460 -0.14359
 C536 C 1.16714 0.61353 -0.11984
 C537 C 1.18721 0.57341 -0.10997
 C538 C 1.22664 0.55491 -0.12304
 C539 C 1.24642 0.57534 -0.14635
 C540 C 1.22700 0.61457 -0.15673
 C541 C 1.11318 0.73781 -0.14762
 C542 C 1.07641 0.75828 -0.13308
 C543 C 1.05664 0.73775 -0.10977
 C544 C 1.07341 0.69654 -0.10086
 C545 C 1.18748 0.69488 -0.17883
 C546 C 1.20548 0.70888 -0.19989
 C547 C 1.10216 0.60832 -0.08502
 C548 C 1.07883 0.58849 -0.06798
 H549 H 1.17312 0.55635 -0.09184
 H550 H 1.24203 0.52467 -0.11498
 H551 H 1.27705 0.56078 -0.15642
 H552 H 1.24379 0.62929 -0.17485
 H553 H 1.12770 0.75514 -0.16554
 H554 H 1.06327 0.79029 -0.13991
 H555 H 1.02808 0.75378 -0.09855
 H556 H 1.05698 0.68189 -0.08258
 C557 C 0.62327 1.11250 0.38596
 C558 C 0.59738 1.14265 0.36899
 C559 C 0.62094 1.16690 0.34763
 C560 C 0.66998 1.16024 0.34307
 C561 C 0.69560 1.12943 0.35969
 C562 C 0.67234 1.10607 0.38155
 C563 C 0.69892 1.07643 0.39843
 C564 C 0.74712 1.06970 0.39362
 C565 C 0.76958 1.09156 0.37171
 C566 C 0.74421 1.12098 0.35482
 C567 C 0.59450 1.19709 0.33104
 C568 C 0.54603 1.20290 0.33532
 C569 C 0.52287 1.17900 0.35611
 C570 C 0.54805 1.14920 0.37283
 C571 C 0.69347 1.18333 0.32037
 C572 C 0.71278 1.20053 0.30071
 C573 C 0.59908 1.08867 0.40804
 C574 C 0.57669 1.07083 0.42626
 H575 H 0.68273 1.05808 0.41541
 H576 H 0.76695 1.04688 0.40669
 H577 H 0.80685 1.08571 0.36777
 H578 H 0.76303 1.13699 0.33791
 H579 H 0.61092 1.21644 0.31459
 H580 H 0.52633 1.22607 0.32242
 H581 H 0.48521 1.18359 0.35933
 H582 H 0.52837 1.13138 0.38869
 C583 C 0.85286 0.64987 0.09436
 C584 C 0.85304 0.62570 0.11988
 C585 C 0.83849 0.64651 0.14508
 C586 C 0.82230 0.69096 0.14456
 C587 C 0.82204 0.71516 0.11912
 C588 C 0.83698 0.69442 0.09388
 C589 C 0.83594 0.71908 0.06868
 C590 C 0.82093 0.76318 0.06841
 C591 C 0.80715 0.78370 0.09315
 C592 C 0.80776 0.76014 0.11830
 C593 C 0.84109 0.62225 0.17048
 C594 C 0.85713 0.57851 0.17091
 C595 C 0.87006 0.55773 0.14615
 C596 C 0.86807 0.58087 0.12090
 C597 C 0.80462 0.71080 0.17015
 C598 C 0.78927 0.72496 0.19189
 C599 C 0.87381 0.62976 0.06964
 C600 C 0.89464 0.61038 0.05132
 H601 H 0.84654 0.70448 0.04897
 H602 H 0.82014 0.78157 0.04892
 H603 H 0.79568 0.81799 0.09285
 H604 H 0.79683 0.77747 0.13703
 H605 H 0.83090 0.63675 0.19028
 H606 H 0.85882 0.56044 0.19050
 H607 H 0.88167 0.52350 0.14648
 H608 H 0.87828 0.56318 0.10223
 C609 C 0.36896 1.16103 0.59565
 C610 C 0.37125 1.13942 0.62204
 C611 C 0.35541 1.16168 0.64644
 C612 C 0.33735 1.20540 0.64437
 C613 C 0.33462 1.22689 0.61803
 C614 C 0.35040 1.20454 0.59354
 C615 C 0.34723 1.22648 0.56742
 C616 C 0.32912 1.26945 0.56554
 C617 C 0.31402 1.29144 0.58950
 C618 C 0.31652 1.27049 0.61552
 C619 C 0.35812 1.13941 0.67258
 C620 C 0.37604 1.09644 0.67454
 C621 C 0.39159 1.07465 0.65069
 C622 C 0.38930 1.09565 0.62472
 C623 C 0.32024 1.22701 0.66946
 C624 C 0.30528 1.24154 0.69116
 C625 C 0.38774 1.13819 0.57136
 C626 C 0.40608 1.11490 0.55401
 H627 H 0.35860 1.21060 0.54827
 H628 H 0.32684 1.28580 0.54537
 H629 H 0.30004 1.32482 0.58791
 H630 H 0.30406 1.28874 0.63357
 H631 H 0.34654 1.15488 0.69181
 H632 H 0.37790 1.08000 0.69469
 H633 H 0.40553 1.04128 0.65229
 H634 H 0.40177 1.07703 0.60687
 C635 C 0.88704 0.33497 -0.09766
 C636 C 0.85741 0.29755 -0.09396
 C637 C 0.84016 0.27418 -0.11775
 C638 C 0.85217 0.28885 -0.14499
 C639 C 0.88474 0.32410 -0.14859
 C640 C 0.90220 0.34727 -0.12488
 C641 C 0.93457 0.38264 -0.12907
 C642 C 0.94950 0.39443 -0.15585
 C643 C 0.93242 0.37171 -0.17904
 C644 C 0.90028 0.33704 -0.17559
 C645 C 0.81132 0.23637 -0.11363
 C646 C 0.80027 0.22175 -0.08670
 C647 C 0.81633 0.24513 -0.06347
 C648 C 0.84447 0.28276 -0.06694
 C649 C 0.82844 0.27069 -0.16938
 C650 C 0.80825 0.25906 -0.19036
 C651 C 0.90167 0.36196 -0.07401
 C652 C 0.91629 0.38774 -0.05678
 H653 H 0.94922 0.40122 -0.11175
 H654 H 0.97456 0.42129 -0.15861
 H655 H 0.94419 0.38092 -0.19981
 H656 H 0.88823 0.32019 -0.19427
 H657 H 0.79778 0.21737 -0.13112
 H658 H 0.77905 0.19217 -0.08384
 H659 H 0.80719 0.23387 -0.04263
 H660 H 0.85657 0.29972 -0.04830
 C661 C 0.35698 0.84977 0.40818
 C662 C 0.34900 0.80342 0.40744
 C663 C 0.33254 0.78312 0.38236
 C664 C 0.32413 0.80936 0.35823
 C665 C 0.32996 0.85601 0.35938
 C666 C 0.34626 0.87628 0.38443
 C667 C 0.35187 0.92302 0.38502
 C668 C 0.34187 0.94892 0.36154
 C669 C 0.32607 0.92906 0.33703
 C670 C 0.32010 0.88319 0.33584
 C671 C 0.32508 0.73670 0.38204
 C672 C 0.33324 0.71108 0.40590
 C673 C 0.34921 0.73095 0.43042
 C674 C 0.35724 0.77659 0.43127
 C675 C 0.30880 0.78895 0.33224
 C676 C 0.29471 0.77433 0.31029
 C677 C 0.38008 0.87037 0.43208
 C678 C 0.40165 0.89094 0.44960
 H679 H 0.36366 0.94014 0.40365
 H680 H 0.34634 0.98459 0.36240
 H681 H 0.31834 0.94931 0.31883
 H682 H 0.30760 0.86939 0.31628
 H683 H 0.31235 0.71986 0.36349
 H684 H 0.32688 0.67565 0.40538
 H685 H 0.35533 0.71089 0.44891
 H686 H 0.36946 0.79071 0.45081
 C687 C 1.13624 1.11744 0.38723
 C688 C 1.10482 1.14859 0.37497
 C689 C 1.11884 1.17231 0.35070
 C690 C 1.16411 1.16464 0.33902
 C691 C 1.19566 1.13370 0.35142
 C692 C 1.18177 1.11025 0.37580
 C693 C 1.21393 1.07984 0.38816
 C694 C 1.25844 1.07240 0.37647
 C695 C 1.27181 1.09484 0.35230
 C696 C 1.24104 1.12532 0.33989
 C697 C 1.08725 1.20369 0.33886
 C698 C 1.04292 1.21132 0.35074
 C699 C 1.02912 1.18812 0.37453
 C700 C 1.05953 1.15699 0.38658
 C701 C 1.17966 1.19011 0.31520
 C702 C 1.19582 1.21095 0.29608
 C703 C 1.12037 1.09067 0.41041
 C704 C 1.10517 1.06742 0.42869
 H705 H 1.20503 1.06154 0.40695
 H706 H 1.28256 1.04894 0.38613
 H707 H 1.30616 1.08851 0.34309
 H708 H 1.25311 1.14190 0.32110
 H709 H 1.09653 1.22269 0.32041
 H710 H 1.01918 1.23538 0.34145
 H711 H 0.99465 1.19426 0.38369
 H712 H 1.04725 1.13986 0.40514
 C713 C 0.61877 0.64213 -0.10711
 C714 C 0.60271 0.68468 -0.11545
 C715 C 0.61949 0.70376 -0.14081
 C716 C 0.65147 0.67974 -0.15783
 C717 C 0.66750 0.63720 -0.14950
 C718 C 0.65117 0.61835 -0.12404
 C719 C 0.66787 0.57576 -0.11609
 C720 C 0.69987 0.55262 -0.13277
 C721 C 0.71594 0.57115 -0.15766
 C722 C 0.70011 0.61294 -0.16602
 C723 C 0.60440 0.74701 -0.14828
 C724 C 0.57325 0.77062 -0.13127
 C725 C 0.55631 0.75169 -0.10666
 C726 C 0.57069 0.70916 -0.09876
 C727 C 0.67095 0.69984 -0.18281
 C728 C 0.69012 0.71617 -0.20278
 C729 C 0.60018 0.62103 -0.08217
 C730 C 0.58426 0.59944 -0.06316
 H731 H 0.65656 0.55986 -0.09691
 H732 H 0.71220 0.52011 -0.12637
 H733 H 0.74079 0.55305 -0.17057
 H734 H 0.71369 0.62589 -0.18557
 H735 H 0.61663 0.76306 -0.16723
 H736 H 0.56220 0.80375 -0.13722
 H737 H 0.53205 0.77013 -0.09355
 H738 H 0.55688 0.69587 -0.07935
 C739 C 0.86997 1.11565 0.61050
 C740 C 0.89289 1.10599 0.63628
 C741 C 0.87608 1.12535 0.66143
 C742 C 0.83693 1.15456 0.66060
 C743 C 0.81465 1.16493 0.63478
 C744 C 0.83065 1.14465 0.60970
 C745 C 0.80672 1.15397 0.58432
 C746 C 0.76812 1.18286 0.58370
 C747 C 0.75314 1.20354 0.60811
 C748 C 0.77639 1.19521 0.63335
 C749 C 0.89915 1.11502 0.68698
 C750 C 0.93791 1.08637 0.68765
 C751 C 0.95446 1.06741 0.66306
 C752 C 0.93245 1.07701 0.63763
 C753 C 0.81884 1.17323 0.68633
 C754 C 0.80251 1.18956 0.70712
 C755 C 0.88789 1.09556 0.58514
 C756 C 0.90713 1.07626 0.56632
 H757 H 0.81744 1.13887 0.56479
 H758 H 0.74992 1.18943 0.56416
 H759 H 0.72324 1.22601 0.60751
 H760 H 0.76403 1.21262 0.65168
 H761 H 0.88759 1.12901 0.70667
 H762 H 0.95517 1.07883 0.70736
 H763 H 0.98443 1.04502 0.66367
 H764 H 0.94681 1.06133 0.61915
 C765 C 0.38711 0.64654 0.10864
 C766 C 0.34151 0.66598 0.10908
 C767 C 0.32417 0.68528 0.13420
 C768 C 0.35132 0.68257 0.15914
 C769 C 0.39842 0.66655 0.15810
 C770 C 0.41661 0.64898 0.13267
 C771 C 0.46409 0.63376 0.13201
 C772 C 0.49278 0.63595 0.15575
 C773 C 0.47483 0.65284 0.18064
 C774 C 0.42811 0.66782 0.18196
 C775 C 0.27955 0.70665 0.13374
 C776 C 0.25179 0.70697 0.10957
 C777 C 0.26800 0.68664 0.08533
 C778 C 0.31250 0.66653 0.08491
 C779 C 0.32990 0.69466 0.18577
 C780 C 0.30982 0.70553 0.20700
 C781 C 0.40284 0.62137 0.08443
 C782 C 0.41798 0.59786 0.06608
 H783 H 0.47973 0.62060 0.11309
 H784 H 0.52913 0.62452 0.15481
 H785 H 0.49728 0.65447 0.19901
 H786 H 0.41574 0.68101 0.20170
 H787 H 0.26572 0.72319 0.15205
 H788 H 0.21728 0.72265 0.10975
 H789 H 0.24616 0.68677 0.06667
 H790 H 0.32409 0.65182 0.06544
 C791 C 1.15274 0.85367 0.59753
 C792 C 1.19126 0.87056 0.61318
 C793 C 1.20429 0.85003 0.63884
 C794 C 1.17877 0.81257 0.64858
 C795 C 1.14213 0.79407 0.63206
 C796 C 1.12957 0.81438 0.60622
 C797 C 1.09395 0.79467 0.58954
 C798 C 1.07164 0.75566 0.59803
 C799 C 1.08327 0.73618 0.62355
 C800 C 1.11790 0.75520 0.64057
 C801 C 1.24230 0.86819 0.65447
 C802 C 1.26654 0.90559 0.64497
 C803 C 1.25412 0.92533 0.61970
 C804 C 1.21685 0.90820 0.60391
 C805 C 1.19206 0.79213 0.67490
 C806 C 1.20637 0.77564 0.69626
 C807 C 1.13191 0.88074 0.57563
 C808 C 1.11156 0.90570 0.55999
 H809 H 1.08391 0.80862 0.56948
 H810 H 1.04550 0.74033 0.58460
 H811 H 1.06574 0.70593 0.63007
 H812 H 1.12621 0.73864 0.66010
 H813 H 1.25355 0.85391 0.67419
 H814 H 1.29507 0.91940 0.65732
 H815 H 1.27335 0.95416 0.61233
 H816 H 1.20848 0.92453 0.58430
 C817 C 0.63225 0.36363 0.10698
 C818 C 0.60599 0.32872 0.11945
 C819 C 0.62299 0.30770 0.14427
 C820 C 0.66660 0.32117 0.15629
 C821 C 0.69340 0.35540 0.14345
 C822 C 0.67626 0.37655 0.11874
 C823 C 0.70383 0.41053 0.10632
 C824 C 0.74692 0.42348 0.11802
 C825 C 0.76338 0.40321 0.14231
 C826 C 0.73725 0.36940 0.15488
 C827 C 0.59603 0.27297 0.15627
 C828 C 0.55362 0.25919 0.14408
 C829 C 0.53717 0.27951 0.11978
 C830 C 0.56290 0.31391 0.10753
 C831 C 0.68536 0.29849 0.18093
 C832 C 0.70348 0.27980 0.20064
 C833 C 0.61223 0.38878 0.08364
 C834 C 0.59431 0.41187 0.06576
 H835 H 0.69249 0.42731 0.08741
 H836 H 0.76761 0.44945 0.10822
 H837 H 0.79660 0.41381 0.15146
 H838 H 0.75171 0.35459 0.17371
 H839 H 0.60756 0.25601 0.17508
 H840 H 0.53345 0.23252 0.15351
 H841 H 0.50420 0.26867 0.11040
 H842 H 0.54875 0.32862 0.08859
 C843 C 0.86734 0.90452 0.37836
 C844 C 0.83448 0.86965 0.38192
 C845 C 0.82022 0.84437 0.35843
 C846 C 0.83767 0.85542 0.33152
 C847 C 0.86925 0.89128 0.32783
 C848 C 0.88428 0.91600 0.35140
 C849 C 0.91627 0.95171 0.34737
 C850 C 0.93279 0.96249 0.32073
 C851 C 0.91803 0.93816 0.29763
 C852 C 0.88658 0.90292 0.30101
 C853 C 0.78857 0.80845 0.36252
 C854 C 0.77013 0.79908 0.38892
 C855 C 0.78346 0.82447 0.41186
 C856 C 0.81561 0.85920 0.40856
 C857 C 0.82072 0.83129 0.30760
 C858 C 0.80338 0.81066 0.28884
 C859 C 0.88736 0.92601 0.40247
 C860 C 0.90774 0.94393 0.42128
 H861 H 0.92867 0.97176 0.36466
 H862 H 0.95727 0.98978 0.31798
 H863 H 0.93104 0.94661 0.27699
 H864 H 0.87619 0.88484 0.28243
 H865 H 0.77762 0.78739 0.34541
 H866 H 0.74521 0.77213 0.39158
 H867 H 0.76900 0.81711 0.43232
 H868 H 0.82513 0.87800 0.42701
 C869 C 0.39451 0.36022 -0.10483
 C870 C 0.35280 0.33437 -0.10598
 C871 C 0.33720 0.31699 -0.13203
 C872 C 0.36221 0.32747 -0.15691
 C873 C 0.40589 0.35027 -0.15542
 C874 C 0.42238 0.36634 -0.12923
 C875 C 0.46636 0.38898 -0.12819
 C876 C 0.49319 0.39544 -0.15234
 C877 C 0.47683 0.37991 -0.17798
 C878 C 0.43359 0.35767 -0.17964
 C879 C 0.29581 0.29049 -0.13263
 C880 C 0.26960 0.28291 -0.10838
 C881 C 0.28439 0.30070 -0.08301
 C882 C 0.32566 0.32602 -0.08167
 C883 C 0.34130 0.31707 -0.18388
 C884 C 0.32121 0.30723 -0.20526
 C885 C 0.40723 0.38385 -0.07950
 C886 C 0.42051 0.40704 -0.06055
 H887 H 0.48072 0.40151 -0.10873
 H888 H 0.52684 0.41258 -0.15115
 H889 H 0.49780 0.38502 -0.19667
 H890 H 0.42238 0.34587 -0.19999
 H891 H 0.28291 0.27601 -0.15186
 H892 H 0.23737 0.26352 -0.10933
 H893 H 0.26385 0.29476 -0.06426
 H894 H 0.33614 0.33888 -0.06145
 C895 C 1.12588 0.38137 -0.10964
 C896 C 1.17352 0.39048 -0.11676
 C897 C 1.19495 0.36774 -0.13946
 C898 C 1.16983 0.33364 -0.15346
 C899 C 1.12285 0.32318 -0.14553
 C900 C 1.10057 0.34745 -0.12374
 C901 C 1.05317 0.33697 -0.11652
 C902 C 1.02866 0.30336 -0.13036
 C903 C 1.05051 0.27961 -0.15165
 C904 C 1.09708 0.28925 -0.15923
 C905 C 1.24131 0.37995 -0.14766
 C906 C 1.26720 0.41107 -0.13247
 C907 C 1.24722 0.43131 -0.10920
 C908 C 1.20053 0.42201 -0.10170
 C909 C 1.19178 0.31059 -0.17667
 C910 C 1.21024 0.29388 -0.19674
 C911 C 1.10223 0.40743 -0.08838
 C912 C 1.08043 0.42759 -0.07089
 H913 H 1.03461 0.35444 -0.10008
 H914 H 0.99254 0.29561 -0.12450
 H915 H 1.03129 0.25358 -0.16235
 H916 H 1.11260 0.26985 -0.17591
 H917 H 1.25834 0.36500 -0.16557
 H918 H 1.30314 0.41909 -0.13858
 H919 H 1.26785 0.45467 -0.09707
 H920 H 1.18605 0.43935 -0.08384
 C921 C 0.62697 0.87849 0.39246
 C922 C 0.66028 0.89805 0.37410
 C923 C 0.68042 0.87240 0.35220
 C924 C 0.66721 0.82733 0.34888
 C925 C 0.63641 0.80702 0.36836
 C926 C 0.61614 0.83268 0.39021
 C927 C 0.58491 0.81171 0.40927
 C928 C 0.57420 0.76672 0.40684
 C929 C 0.59413 0.74168 0.38547
 C930 C 0.62490 0.76144 0.36637
 C931 C 0.71327 0.89278 0.33386
 C932 C 0.72629 0.93703 0.33726
 C933 C 0.70649 0.96211 0.35864
 C934 C 0.67373 0.94307 0.37689
 C935 C 0.68412 0.80276 0.32481
 C936 C 0.69909 0.78502 0.30406
 C937 C 0.60160 0.90560 0.41260
 C938 C 0.57812 0.92619 0.42918
 H939 H 0.56870 0.82972 0.42633
 H940 H 0.55036 0.75120 0.42165
 H941 H 0.58579 0.70673 0.38371
 H942 H 0.63976 0.74062 0.35016
 H943 H 0.72945 0.87472 0.31683
 H944 H 0.75177 0.95195 0.32317
 H945 H 0.71647 0.99654 0.36100
 H946 H 0.65934 0.96385 0.39326
 C947 C 0.86827 0.66438 -0.09489
 C948 C 0.89904 0.67091 -0.11799
 C949 C 0.88165 0.69117 -0.14282
 C950 C 0.83359 0.70428 -0.14451
 C951 C 0.80319 0.69873 -0.12119
 C952 C 0.82070 0.67890 -0.09622
 C953 C 0.78979 0.67360 -0.07317
 C954 C 0.74293 0.68805 -0.07462
 C955 C 0.72588 0.70762 -0.09899
 C956 C 0.75528 0.71241 -0.12222
 C957 C 0.91285 0.69713 -0.16572
 C958 C 0.95976 0.68283 -0.16428
 C959 C 0.97663 0.66240 -0.14015
 C960 C 0.94696 0.65676 -0.11712
 C961 C 0.81496 0.72094 -0.17077
 C962 C 0.79917 0.73327 -0.19287
 C963 C 0.88512 0.63940 -0.07093
 C964 C 0.90247 0.61622 -0.05313
 H965 H 0.80167 0.65872 -0.05374
 H966 H 0.71984 0.68431 -0.05670
 H967 H 0.68990 0.71984 -0.09972
 H968 H 0.74041 0.72789 -0.14070
 H969 H 0.90132 0.71273 -0.18499
 H970 H 0.98308 0.68746 -0.18202
 H971 H 1.01294 0.65088 -0.13928
 H972 H 0.96203 0.64110 -0.09875
 C973 C 0.37142 1.15326 0.39995
 C974 C 0.38772 1.13921 0.37335
 C975 C 0.37311 1.16227 0.34890
 C976 C 0.34225 1.19905 0.35121
 C977 C 0.32791 1.21444 0.37784
 C978 C 0.34200 1.19104 0.40232
 C979 C 0.32622 1.20621 0.42871
 C980 C 0.29798 1.24403 0.43086
 C981 C 0.28526 1.26761 0.40696
 C982 C 0.29979 1.25302 0.38066
 C983 C 0.38957 1.14759 0.32249
 C984 C 0.41965 1.11108 0.32033
 C985 C 0.43394 1.08841 0.34425
 C986 C 0.41831 1.10214 0.37049
 C987 C 0.32225 1.21836 0.32610
 C988 C 0.30450 1.23205 0.30490
 C989 C 0.38691 1.12929 0.42460
 C990 C 0.40371 1.10725 0.44313
 H991 H 0.33571 1.18913 0.44787
 H992 H 0.28620 1.25526 0.45120
 H993 H 0.26383 1.29729 0.40879
 H994 H 0.28928 1.27251 0.36262
 H995 H 0.37964 1.16430 0.30328
 H996 H 0.43196 1.10036 0.29999
 H997 H 0.45731 1.06005 0.34249
 H998 H 0.43062 1.08339 0.38841
 C999 C 1.11673 0.62677 0.11164
 C1000 C 1.09501 0.66594 0.12188
 C1001 C 1.11681 0.69025 0.14387
 C1002 C 1.15965 0.67483 0.15582
 C1003 C 1.18176 0.63605 0.14528
 C1004 C 1.16074 0.61254 0.12269
 C1005 C 1.18449 0.57509 0.11165
 C1006 C 1.22784 0.56122 0.12266
 C1007 C 1.24780 0.58349 0.14525
 C1008 C 1.22493 0.62020 0.15669
 C1009 C 1.09473 0.72948 0.15361
 C1010 C 1.05209 0.74414 0.14208
 C1011 C 1.03055 0.72023 0.12071
 C1012 C 1.05160 0.68159 0.11064
 C1013 C 1.18051 0.69813 0.17935
 C1014 C 1.19830 0.71546 0.19948
 C1015 C 1.09287 0.60086 0.09026
 C1016 C 1.07075 0.58100 0.07271
 H1017 H 1.16999 0.55638 0.09432
 H1018 H 1.24570 0.53267 0.11388
 H1019 H 1.28123 0.57233 0.15392
 H1020 H 1.24192 0.63649 0.17419
 H1021 H 1.11015 0.74920 0.17020
 H1022 H 1.03565 0.77419 0.14979
 H1023 H 0.99736 0.73170 0.11186
 H1024 H 1.03354 0.66430 0.09390
 C1025 C 0.61773 1.13195 0.61141
 C1026 C 0.60446 1.17677 0.61588
 C1027 C 0.62542 1.20133 0.63808
 C1028 C 0.65891 1.18074 0.65590
 C1029 C 0.67348 1.13646 0.65078
 C1030 C 0.65309 1.11217 0.62834
 C1031 C 0.66856 1.06823 0.62343
 C1032 C 0.70334 1.04889 0.64018
 C1033 C 0.72316 1.07241 0.66224
 C1034 C 0.70832 1.11561 0.66769
 C1035 C 0.61212 1.24614 0.64197
 C1036 C 0.57871 1.26615 0.62451
 C1037 C 0.55781 1.24207 0.60297
 C1038 C 0.57040 1.19788 0.59861
 C1039 C 0.67832 1.20423 0.67979
 C1040 C 0.69659 1.21993 0.70031
 C1041 C 0.59408 1.10592 0.58995
 C1042 C 0.57320 1.08516 0.57224
 H1043 H 0.65416 1.04843 0.60657
 H1044 H 0.71466 1.01536 0.63611
 H1045 H 0.75009 1.05710 0.67523
 H1046 H 0.72467 1.13244 0.68517
 H1047 H 0.62756 1.26616 0.65842
 H1048 H 0.56897 1.30052 0.62772
 H1049 H 0.53178 1.25774 0.58952
 H1050 H 0.55336 1.18059 0.58150
 C1051 C 0.87091 0.34905 0.09705
 C1052 C 0.84712 0.30795 0.09441
 C1053 C 0.83427 0.28369 0.11882
 C1054 C 0.84444 0.30117 0.14564
 C1055 C 0.86822 0.34227 0.14828
 C1056 C 0.88150 0.36630 0.12393
 C1057 C 0.90516 0.40749 0.12716
 C1058 C 0.91533 0.42434 0.15363
 C1059 C 0.90218 0.40086 0.17743
 C1060 C 0.87892 0.36029 0.17492
 C1061 C 0.81156 0.24217 0.11572
 C1062 C 0.80100 0.22543 0.08926
 C1063 C 0.81288 0.24951 0.06540
 C1064 C 0.83587 0.29027 0.06783
 C1065 C 0.82767 0.27882 0.17062
 C1066 C 0.81235 0.26299 0.19191
 C1067 C 0.88722 0.37300 0.07252
 C1068 C 0.90445 0.39539 0.05426
 H1069 H 0.91599 0.42722 0.10935
 H1070 H 0.93358 0.45576 0.15567
 H1071 H 0.91009 0.41412 0.19795
 H1072 H 0.86955 0.34326 0.19410
 H1073 H 0.80200 0.22217 0.13369
 H1074 H 0.78341 0.19366 0.08726
 H1075 H 0.80444 0.23643 0.04491
 H1076 H 0.84466 0.30779 0.04873
 C1077 C 0.37735 0.84047 0.59656
 C1078 C 0.36129 0.79608 0.59475
 C1079 C 0.34896 0.77252 0.61954
 C1080 C 0.35136 0.79394 0.64583
 C1081 C 0.36873 0.83787 0.64774
 C1082 C 0.38156 0.86127 0.62306
 C1083 C 0.39854 0.90535 0.62558
 C1084 C 0.40325 0.92542 0.65167
 C1085 C 0.39098 0.90238 0.67581
 C1086 C 0.37373 0.85918 0.67399
 C1087 C 0.33478 0.72769 0.61739
 C1088 C 0.33157 0.70697 0.59139
 C1089 C 0.34248 0.73033 0.56710
 C1090 C 0.35741 0.77437 0.56865
 C1091 C 0.33260 0.77273 0.67075
 C1092 C 0.31519 0.75850 0.69196
 C1093 C 0.39303 0.86435 0.57178
 C1094 C 0.40937 0.88725 0.55346
 H1095 H 0.40842 0.92480 0.60748
 H1096 H 0.41652 0.95902 0.65315
 H1097 H 0.39466 0.91812 0.69604
 H1098 H 0.36469 0.84266 0.69339
 H1099 H 0.32624 0.70821 0.63578
 H1100 H 0.32025 0.67271 0.59010
 H1101 H 0.33962 0.71416 0.54695
 H1102 H 0.36590 0.79119 0.54925
 C1103 C 0.35978 1.12894 -0.10665
 C1104 C 0.38905 1.13654 -0.13023
 C1105 C 0.36990 1.15710 -0.15457
 C1106 C 0.32146 1.16947 -0.15530
 C1107 C 0.29226 1.16212 -0.13169
 C1108 C 0.31153 1.14205 -0.10723
 C1109 C 0.28175 1.13550 -0.08376
 C1110 C 0.23427 1.14830 -0.08449
 C1111 C 0.21537 1.16764 -0.10848
 C1112 C 0.24385 1.17451 -0.13189
 C1113 C 0.39997 1.16474 -0.17779
 C1114 C 0.44746 1.15201 -0.17709
 C1115 C 0.46602 1.13141 -0.15343
 C1116 C 0.43741 1.12390 -0.13015
 C1117 C 0.30215 1.19083 -0.18007
 C1118 C 0.28753 1.20984 -0.20055
 C1119 C 0.37897 1.10674 -0.08208
 C1120 C 0.39462 1.08763 -0.06187
 H1121 H 0.29481 1.12057 -0.06462
 H1122 H 0.21202 1.14316 -0.06632
 H1123 H 0.17849 1.17756 -0.10893
 H1124 H 0.22762 1.18991 -0.15002
 H1125 H 0.38713 1.18047 -0.19673
 H1126 H 0.46995 1.15804 -0.19504
 H1127 H 0.50288 1.12138 -0.15306
 H1128 H 0.45361 1.10812 -0.11214
 C1129 C 0.85990 0.63046 0.39565
 C1130 C 0.81233 0.64558 0.39611
 C1131 C 0.79263 0.66670 0.37212
 C1132 C 0.82063 0.67269 0.34786
 C1133 C 0.86866 0.65894 0.34771
 C1134 C 0.88832 0.63764 0.37165
 C1135 C 0.93629 0.62383 0.37092
 C1136 C 0.96406 0.63093 0.34723
 C1137 C 0.94493 0.65203 0.32390
 C1138 C 0.89779 0.66589 0.32400
 C1139 C 0.74495 0.68132 0.37300
 C1140 C 0.71759 0.67546 0.39698
 C1141 C 0.73686 0.65490 0.42046
 C1142 C 0.78363 0.63998 0.42014
 C1143 C 0.79992 0.69238 0.32293
 C1144 C 0.78321 0.70872 0.30210
 C1145 C 0.87933 0.60687 0.41963
 C1146 C 0.89539 0.58702 0.43945
 H1147 H 0.95287 0.60752 0.38861
 H1148 H 1.00067 0.62015 0.34701
 H1149 H 0.96673 0.65765 0.30560
 H1150 H 0.88451 0.68215 0.30534
 H1151 H 0.72846 0.69774 0.35531
 H1152 H 0.68127 0.68701 0.39737
 H1153 H 0.71545 0.65048 0.43905
 H1154 H 0.79704 0.62419 0.43892
 C1155 C 0.64392 1.10500 0.10381
 C1156 C 0.65520 1.15081 0.10361
 C1157 C 0.68290 1.16923 0.12564
 C1158 C 0.69871 1.14191 0.14796
 C1159 C 0.68999 1.09566 0.14722
 C1160 C 0.66288 1.07709 0.12497
 C1161 C 0.65577 1.03061 0.12435
 C1162 C 0.67524 1.00325 0.14494
 C1163 C 0.70088 1.02147 0.16695
 C1164 C 0.70813 1.06717 0.16825
 C1165 C 0.69451 1.21485 0.12463
 C1166 C 0.68030 1.24130 0.10218
 C1167 C 0.65250 1.22358 0.08095
 C1168 C 0.63974 1.17891 0.08163
 C1169 C 0.72132 1.16181 0.17232
 C1170 C 0.73727 1.17948 0.19297
 C1171 C 0.61370 1.08652 0.08197
 C1172 C 0.58930 1.07112 0.06357
 H1173 H 0.63581 1.01487 0.10774
 H1174 H 0.67055 0.96768 0.14377
 H1175 H 0.71557 1.00005 0.18299
 H1176 H 0.72879 1.07981 0.18560
 H1177 H 0.71556 1.23030 0.14084
 H1178 H 0.69080 1.27581 0.10130
 H1179 H 0.64100 1.24449 0.06377
 H1180 H 0.61837 1.16653 0.06452
 C1181 C 1.14763 0.60553 0.60387
 C1182 C 1.16991 0.64748 0.60170
 C1183 C 1.19768 0.66369 0.62431
 C1184 C 1.20324 0.63774 0.64885
 C1185 C 1.18359 0.59459 0.65025
 C1186 C 1.15554 0.57846 0.62772
 C1187 C 1.13581 0.53536 0.62972
 C1188 C 1.14382 0.50889 0.65322
 C1189 C 1.17143 0.52462 0.67519
 C1190 C 1.19103 0.56705 0.67388
 C1191 C 1.21907 0.70597 0.62185
 C1192 C 1.21428 0.73103 0.59745
 C1193 C 1.18718 0.71517 0.57532
 C1194 C 1.16491 0.67400 0.57737
 C1195 C 1.22495 0.65721 0.67349
 C1196 C 1.23958 0.67562 0.69413
 C1197 C 1.11705 0.58991 0.58150
 C1198 C 1.09250 0.57576 0.56288
 H1199 H 1.11430 0.52154 0.61311
 H1200 H 1.12865 0.47593 0.65435
 H1201 H 1.17770 0.50384 0.69334
 H1202 H 1.21240 0.57785 0.69143
 H1203 H 1.23980 0.72003 0.63870
 H1204 H 1.23121 0.76319 0.59587
 H1205 H 1.18311 0.73500 0.55655
 H1206 H 1.14402 0.66312 0.55966
 C1207 C 0.63026 0.88650 -0.10751
 C1208 C 0.61781 0.89912 -0.13513
 C1209 C 0.64467 0.88313 -0.15814
 C1210 C 0.68449 0.85553 -0.15334
 C1211 C 0.69917 0.84591 -0.12568
 C1212 C 0.67147 0.86069 -0.10268
 C1213 C 0.68617 0.84959 -0.07520
 C1214 C 0.72782 0.82578 -0.07056
 C1215 C 0.75564 0.81256 -0.09303
 C1216 C 0.74139 0.82203 -0.12035
 C1217 C 0.63116 0.89561 -0.18561
 C1218 C 0.59289 0.92397 -0.19017
 C1219 C 0.56714 0.94026 -0.16764
 C1220 C 0.57901 0.92776 -0.14040
 C1221 C 0.70792 0.83457 -0.17687
 C1222 C 0.72424 0.81572 -0.19686
 C1223 C 0.60221 0.90197 -0.08401
 C1224 C 0.58021 0.91618 -0.06436
 H1225 H 0.66595 0.85957 -0.05704
 H1226 H 0.73872 0.81782 -0.04940
 H1227 H 0.78817 0.79439 -0.08930
 H1228 H 0.76404 0.81092 -0.13722
 H1229 H 0.65046 0.88421 -0.20379
 H1230 H 0.58331 0.93353 -0.21130
 H1231 H 0.53751 0.96238 -0.17129
 H1232 H 0.55763 0.94097 -0.12358
 C1233 C 1.13451 0.38352 0.39482
 C1234 C 1.15104 0.41199 0.37331
 C1235 C 1.17755 0.39422 0.35068
 C1236 C 1.18724 0.34816 0.34970
 C1237 C 1.17174 0.31992 0.37159
 C1238 C 1.14533 0.33767 0.39424
 C1239 C 1.13039 0.30885 0.41596
 C1240 C 1.14201 0.26391 0.41557
 C1241 C 1.16822 0.24666 0.39355
 C1242 C 1.18225 0.27400 0.37151
 C1243 C 1.19366 0.42322 0.32937
 C1244 C 1.18385 0.46854 0.33040
 C1245 C 1.15782 0.48592 0.35248
 C1246 C 1.14158 0.45816 0.37379
 C1247 C 1.21006 0.32924 0.32531
 C1248 C 1.22615 0.31223 0.30463
 C1249 C 1.10739 0.40157 0.41789
 C1250 C 1.08591 0.41714 0.43728
 H1251 H 1.11002 0.32078 0.43359
 H1252 H 1.13084 0.24241 0.43250
 H1253 H 1.17801 0.21196 0.39365
 H1254 H 1.20241 0.25897 0.35480
 H1255 H 1.21412 0.41122 0.31180
 H1256 H 1.19649 0.49027 0.31395
 H1257 H 1.15016 0.52111 0.35311
 H1258 H 1.12160 0.47328 0.39057
 C1259 C 0.34752 0.87580 0.10617
 C1260 C 0.30179 0.85637 0.10514
 C1261 C 0.28116 0.83845 0.12987
 C1262 C 0.30646 0.83977 0.15546
 C1263 C 0.35233 0.85885 0.15646
 C1264 C 0.37290 0.87692 0.13178
 C1265 C 0.41881 0.89576 0.13335
 C1266 C 0.44366 0.89671 0.15857
 C1267 C 0.42359 0.87905 0.18269
 C1268 C 0.37849 0.86028 0.18178
 C1269 C 0.23536 0.81946 0.12834
 C1270 C 0.21064 0.81808 0.10308
 C1271 C 0.23090 0.83529 0.07887
 C1272 C 0.27592 0.85431 0.07977
 C1273 C 0.28653 0.81975 0.18052
 C1274 C 0.27229 0.80168 0.20142
 C1275 C 0.36809 0.89564 0.08117
 C1276 C 0.38535 0.91305 0.06080
 H1277 H 0.43604 0.90985 0.11516
 H1278 H 0.47866 0.91124 0.15941
 H1279 H 0.44307 0.87991 0.20223
 H1280 H 0.36439 0.84703 0.20112
 H1281 H 0.21825 0.80539 0.14658
 H1282 H 0.17567 0.80332 0.10226
 H1283 H 0.21163 0.83392 0.05928
 H1284 H 0.29022 0.86726 0.06040
 C1285 C 0.85802 0.37078 0.60716
 C1286 C 0.81095 0.35431 0.60701
 C1287 C 0.79183 0.33425 0.63151
 C1288 C 0.81984 0.33070 0.65602
 C1289 C 0.86716 0.34646 0.65605
 C1290 C 0.88630 0.36651 0.63156
 C1291 C 0.93373 0.38187 0.63211
 C1292 C 0.96142 0.37761 0.65614
 C1293 C 0.94273 0.35800 0.68006
 C1294 C 0.89615 0.34260 0.68015
 C1295 C 0.74472 0.31812 0.63086
 C1296 C 0.71726 0.32164 0.60668
 C1297 C 0.73597 0.34109 0.58271
 C1298 C 0.78224 0.35735 0.58276
 C1299 C 0.80036 0.31021 0.68105
 C1300 C 0.78517 0.29248 0.70184
 C1301 C 0.87716 0.39272 0.58246
 C1302 C 0.89326 0.41137 0.56219
 H1303 H 0.94995 0.39715 0.61398
 H1304 H 0.99763 0.38949 0.65618
 H1305 H 0.96445 0.35468 0.69865
 H1306 H 0.88320 0.32762 0.69928
 H1307 H 0.72869 0.30248 0.64893
 H1308 H 0.68135 0.30899 0.60652
 H1309 H 0.71453 0.34358 0.56396
 H1310 H 0.79525 0.37216 0.56360
 C1311 C 1.12718 1.13935 0.60819
 C1312 C 1.14966 1.18110 0.60565
 C1313 C 1.16659 1.20315 0.62998
 C1314 C 1.15985 1.18383 0.65676
 C1315 C 1.13583 1.14286 0.65939
 C1316 C 1.11952 1.12048 0.63506
 C1317 C 1.09609 1.07918 0.63828
 C1318 C 1.08931 1.06050 0.66468
 C1319 C 1.10518 1.08248 0.68843
 C1320 C 1.12817 1.12321 0.68595
 C1321 C 1.19025 1.24422 0.62683
 C1322 C 1.19515 1.26393 0.60059
 C1323 C 1.17816 1.24258 0.57685
 C1324 C 1.15595 1.20141 0.57920
 C1325 C 1.17953 1.20497 0.68145
 C1326 C 1.19796 1.22208 0.70148
 C1327 C 1.11311 1.11441 0.58354
 C1328 C 1.10008 1.08973 0.56525
 H1329 H 1.08275 1.06080 0.62051
 H1330 H 1.07165 1.02877 0.66670
 H1331 H 1.09974 1.06786 0.70890
 H1332 H 1.13991 1.13902 0.70506
 H1333 H 1.20477 1.26168 0.64462
 H1334 H 1.21222 1.29596 0.59869
 H1335 H 1.18232 1.25794 0.55649
 H1336 H 1.14341 1.18588 0.56017
 C1337 C 0.63188 0.63902 0.10424
 C1338 C 0.60642 0.67449 0.11638
 C1339 C 0.61705 0.68797 0.14413
 C1340 C 0.65283 0.66561 0.15944
 C1341 C 0.67832 0.63019 0.14726
 C1342 C 0.66840 0.61738 0.11936
 C1343 C 0.69484 0.58224 0.10736
 C1344 C 0.72900 0.55955 0.12287
 C1345 C 0.73769 0.57129 0.15049
 C1346 C 0.71335 0.60665 0.16253
 C1347 C 0.59152 0.72379 0.15589
 C1348 C 0.55643 0.74565 0.14059
 C1349 C 0.54588 0.73228 0.11344
 C1350 C 0.57043 0.69701 0.10138
 C1351 C 0.66793 0.68250 0.18618
 C1352 C 0.68482 0.69886 0.20674
 C1353 C 0.61501 0.61865 0.07885
 C1354 C 0.59985 0.59557 0.06051
 H1355 H 0.68933 0.57187 0.08593
 H1356 H 0.74857 0.53253 0.11347
 H1357 H 0.76342 0.55290 0.16265
 H1358 H 0.72173 0.61478 0.18403
 H1359 H 0.59845 0.73525 0.17696
 H1360 H 0.53736 0.77313 0.14983
 H1361 H 0.51863 0.74939 0.10163
 H1362 H 0.56141 0.68794 0.08011
 C1363 C 1.11334 0.85394 0.39987
 C1364 C 1.09848 0.87280 0.37404
 C1365 C 1.11582 0.85551 0.34831
 C1366 C 1.14827 0.81970 0.34847
 C1367 C 1.16219 0.80015 0.37427
 C1368 C 1.14412 0.81690 0.39998
 C1369 C 1.15757 0.79612 0.42534
 C1370 C 1.18783 0.75954 0.42536
 C1371 C 1.20595 0.74348 0.40032
 C1372 C 1.19402 0.76390 0.37507
 C1373 C 1.10047 0.87496 0.32287
 C1374 C 1.06903 0.91066 0.32278
 C1375 C 1.05226 0.92776 0.34788
 C1376 C 1.06658 0.90915 0.37324
 C1377 C 1.16804 0.80334 0.32227
 C1378 C 1.18646 0.78887 0.30136
 C1379 C 1.09862 0.87480 0.42595
 C1380 C 1.08476 0.89681 0.44541
 H1381 H 1.14439 0.80760 0.44532
 H1382 H 1.19735 0.74361 0.44492
 H1383 H 1.22923 0.71494 0.40043
 H1384 H 1.20956 0.75065 0.35621
 H1385 H 1.11260 0.86283 0.30281
 H1386 H 1.05768 0.92519 0.30314
 H1387 H 1.02807 0.95564 0.34774
 H1388 H 1.05221 0.92355 0.39213
 C1389 C 0.63821 0.37503 -0.10271
 C1390 C 0.63861 0.39855 -0.12848
 C1391 C 0.65466 0.37724 -0.15320
 C1392 C 0.67087 0.33287 -0.15193
 C1393 C 0.67121 0.30969 -0.12607
 C1394 C 0.65403 0.33060 -0.10147
 C1395 C 0.65308 0.30633 -0.07609
 C1396 C 0.66870 0.26249 -0.07504
 C1397 C 0.68624 0.24228 -0.09898
 C1398 C 0.68826 0.26569 -0.12414
 C1399 C 0.65425 0.40112 -0.17876
 C1400 C 0.63859 0.44496 -0.17986
 C1401 C 0.62312 0.46596 -0.15568
 C1402 C 0.62308 0.44323 -0.13025
 C1403 C 0.68766 0.31124 -0.17712
 C1404 C 0.70298 0.29291 -0.19756
 C1405 C 0.62044 0.39694 -0.07791
 C1406 C 0.60380 0.41901 -0.05943
 H1407 H 0.64005 0.32090 -0.05690
 H1408 H 0.66741 0.24418 -0.05553
 H1409 H 0.69828 0.20823 -0.09807
 H1410 H 0.70298 0.24890 -0.14208
 H1411 H 0.66605 0.38624 -0.19813
 H1412 H 0.63854 0.46273 -0.19958
 H1413 H 0.61110 0.50007 -0.15662
 H1414 H 0.61070 0.46115 -0.11208
 C1415 C 0.90307 1.13699 0.39533
 C1416 C 0.92321 1.12114 0.37001
 C1417 C 0.90488 1.13549 0.34365
 C1418 C 0.86601 1.16518 0.34254
 C1419 C 0.84695 1.18220 0.36785
 C1420 C 0.86564 1.16822 0.39421
 C1421 C 0.84573 1.18553 0.41903
 C1422 C 0.80831 1.21571 0.41799
 C1423 C 0.78972 1.22901 0.39234
 C1424 C 0.80862 1.21249 0.36754
 C1425 C 0.92590 1.11930 0.31883
 C1426 C 0.96393 1.08980 0.31989
 C1427 C 0.98162 1.07555 0.34555
 C1428 C 0.96153 1.09076 0.37035
 C1429 C 0.84457 1.17741 0.31563
 C1430 C 0.82466 1.18897 0.29428
 C1431 C 0.91896 1.11830 0.42209
 C1432 C 0.93332 1.09819 0.44243
 H1433 H 0.85898 1.17601 0.43946
 H1434 H 0.79352 1.22869 0.43719
 H1435 H 0.76037 1.25214 0.39166
 H1436 H 0.79249 1.22330 0.34817
 H1437 H 0.91332 1.12942 0.29837
 H1438 H 0.97968 1.07783 0.30069
 H1439 H 1.01110 1.05254 0.34626
 H1440 H 0.97680 1.07882 0.38975
 C1441 C 0.38484 0.64491 -0.10063
 C1442 C 0.41622 0.64442 -0.12377
 C1443 C 0.40059 0.66016 -0.15029
 C1444 C 0.35418 0.67726 -0.15326
 C1445 C 0.32548 0.68340 -0.12925
 C1446 C 0.34032 0.66605 -0.10298
 C1447 C 0.30994 0.67011 -0.07962
 C1448 C 0.26658 0.69202 -0.08195
 C1449 C 0.25281 0.71045 -0.10739
 C1450 C 0.28180 0.70627 -0.13086
 C1451 C 0.43199 0.65830 -0.17330
 C1452 C 0.47796 0.64198 -0.17009
 C1453 C 0.49343 0.62686 -0.14411
 C1454 C 0.46298 0.62776 -0.12116
 C1455 C 0.33499 0.68691 -0.18087
 C1456 C 0.31690 0.69597 -0.20306
 C1457 C 0.39649 0.61898 -0.07593
 C1458 C 0.40799 0.59334 -0.05777
 H1459 H 0.31975 0.65701 -0.05930
 H1460 H 0.24377 0.69511 -0.06386
 H1461 H 0.21933 0.72779 -0.10900
 H1462 H 0.26991 0.72143 -0.15016
 H1463 H 0.42155 0.67003 -0.19384
 H1464 H 0.50175 0.64118 -0.18784
 H1465 H 0.52921 0.61436 -0.14171
 H1466 H 0.47667 0.61592 -0.10132
 C1467 C 0.86908 0.85691 0.59930
 C1468 C 0.88922 0.81814 0.61109
 C1469 C 0.87592 0.80434 0.63850
 C1470 C 0.84218 0.82922 0.65380
 C1471 C 0.81959 0.86615 0.64116
 C1472 C 0.83277 0.87973 0.61376
 C1473 C 0.80934 0.91645 0.60143
 C1474 C 0.77417 0.93932 0.61583
 C1475 C 0.76187 0.92653 0.64282
 C1476 C 0.78400 0.89029 0.65540
 C1477 C 0.89630 0.76527 0.64977
 C1478 C 0.92786 0.73988 0.63410
 C1479 C 0.94037 0.75315 0.60721
 C1480 C 0.92195 0.79222 0.59588
 C1481 C 0.82735 0.81482 0.68148
 C1482 C 0.81128 0.80200 0.70342
 C1483 C 0.89051 0.87802 0.57502
 C1484 C 0.90948 0.90107 0.55766
 H1485 H 0.81755 0.92752 0.58042
 H1486 H 0.75650 0.96710 0.60592
 H1487 H 0.73493 0.94462 0.65410
 H1488 H 0.77287 0.88150 0.67636
 H1489 H 0.88727 0.75346 0.67050
 H1490 H 0.94237 0.70954 0.64277
 H1491 H 0.96413 0.73283 0.59498
 H1492 H 0.93241 0.80124 0.57483
 C1493 C 0.38735 0.36037 0.10448
 C1494 C 0.41658 0.35987 0.12860
 C1495 C 0.39827 0.34393 0.15438
 C1496 C 0.35098 0.32861 0.15572
 C1497 C 0.32340 0.32526 0.13099
 C1498 C 0.34154 0.34166 0.10530
 C1499 C 0.31292 0.33961 0.08099
 C1500 C 0.26759 0.32141 0.08201
 C1501 C 0.25007 0.30475 0.10707
 C1502 C 0.27756 0.30634 0.13131
 C1503 C 0.42773 0.34425 0.17837
 C1504 C 0.47415 0.35993 0.17689
 C1505 C 0.49202 0.37586 0.15169
 C1506 C 0.46370 0.37596 0.12775
 C1507 C 0.33007 0.31717 0.18242
 C1508 C 0.31073 0.30589 0.20369
 C1509 C 0.40167 0.38616 0.08043
 C1510 C 0.41394 0.41180 0.06261
 H1511 H 0.32546 0.35167 0.06097
 H1512 H 0.24611 0.31991 0.06324
 H1513 H 0.21512 0.29021 0.10763
 H1514 H 0.26286 0.29210 0.15016
 H1515 H 0.41529 0.33215 0.19842
 H1516 H 0.49634 0.35974 0.19540
 H1517 H 0.52812 0.38795 0.15064
 H1518 H 0.47929 0.38821 0.10854
   
