data_POSCAR
  _audit_creation_date              2014-09-24
  _audit_creation_method            'ToBaCCo'
  _symmetry_space_group_name_H-M    'P1'
  _symmetry_Int_Tables_number       1
  _symmetry_cell_setting            triclinic
  loop_
  _symmetry_equiv_pos_as_xyz
 x,y,z
_cell_length_a 67.3939
_cell_length_b 67.4530
_cell_length_c 67.4999
_cell_angle_alpha 90.071900
_cell_angle_beta 89.951600
_cell_angle_gamma 90.015600
loop_
  _atom_site_label
  _atom_site_type_symbol
  _atom_site_fract_x
  _atom_site_fract_y
  _atom_site_fract_z
O1 O 0.34085 0.36707 0.02335
 O2 O 0.36759 0.34050 -0.01622
 O3 O 0.33984 0.36746 -0.01522
 O4 O 0.36852 0.34008 0.02225
 O5 O 0.34563 0.31662 0.02254
 O6 O 0.31698 0.34399 -0.01489
 O7 O 0.34469 0.31705 -0.01591
 O8 O 0.31800 0.34358 0.02364
 Cu9 Cu 0.35649 0.35615 0.00350
 Cu10 Cu 0.32902 0.32797 0.00387
 C11 C 0.32486 0.35984 0.03020
 C12 C 0.36075 0.32419 -0.02270
 C13 C 0.32348 0.36042 -0.02141
 C14 C 0.36199 0.32364 0.02869
 O15 O 0.65691 0.63067 0.01554
 O16 O 0.62945 0.65715 -0.02355
 O17 O 0.65715 0.63013 -0.02311
 O18 O 0.62932 0.65781 0.01501
 O19 O 0.65230 0.68117 0.01472
 O20 O 0.68005 0.65355 -0.02330
 O21 O 0.65243 0.68051 -0.02376
 O22 O 0.67984 0.65409 0.01527
 Cu23 Cu 0.64091 0.64157 -0.00400
 Cu24 Cu 0.66847 0.66965 -0.00429
 C25 C 0.67306 0.63789 0.02204
 C26 C 0.63625 0.67337 -0.03024
 C27 C 0.67336 0.63715 -0.02971
 C28 C 0.63606 0.67425 0.02128
 O29 O 0.63198 0.34242 1.01806
 O30 O 0.65901 0.36984 0.97925
 O31 O 0.63164 0.34246 0.97940
 O32 O 0.65920 0.36991 1.01773
 O33 O 0.68245 0.34685 1.01751
 O34 O 0.65491 0.31940 0.97922
 O35 O 0.68222 0.34672 0.97908
 O36 O 0.65529 0.31940 1.01782
 Cu37 Cu 0.64309 0.35845 0.99862
 Cu38 Cu 0.67102 0.33075 0.99838
 C39 C 0.63908 0.32625 1.02455
 C40 C 0.67529 0.36299 0.97267
 C41 C 0.63860 0.32626 0.97278
 C42 C 0.67559 0.36313 1.02407
 O43 O 0.36752 0.65712 1.02190
 O44 O 0.34131 0.63025 0.98221
 O45 O 0.36805 0.65821 0.98334
 O46 O 0.34052 0.62940 1.02076
 O47 O 0.31698 0.65217 1.02093
 O48 O 0.34442 0.68091 0.98361
 O49 O 0.31773 0.65300 0.98244
 O50 O 0.34393 0.67984 1.02212
 Cu51 Cu 0.35673 0.64146 1.00204
 Cu52 Cu 0.32840 0.66876 1.00230
 C53 C 0.36022 0.67308 1.02871
 C54 C 0.32503 0.63702 0.97562
 C55 C 0.36091 0.67450 0.97716
 C56 C 0.32400 0.63586 1.02718
 O57 O -0.02442 0.36976 0.34190
 O58 O 0.01407 0.34181 0.36882
 O59 O 0.01422 0.36950 0.34177
 O60 O -0.02456 0.34220 0.36893
 O61 O -0.02476 0.31929 0.34552
 O62 O 0.01397 0.34655 0.31840
 O63 O 0.01382 0.31891 0.34539
 O64 O -0.02461 0.34679 0.31854
 Cu65 Cu -0.00512 0.35812 0.35771
 Cu66 Cu -0.00540 0.33059 0.32962
 C67 C -0.03103 0.36301 0.32562
 C68 C 0.02042 0.32556 0.36172
 C69 C 0.02061 0.36272 0.32541
 C70 C -0.03126 0.32607 0.36186
 O71 O 0.02407 0.65875 0.63201
 O72 O -0.01517 0.63222 0.65925
 O73 O -0.01457 0.65962 0.63200
 O74 O 0.02338 0.63147 0.65936
 O75 O 0.02377 0.65465 0.68251
 O76 O -0.01412 0.68274 0.65519
 O77 O -0.01474 0.65539 0.68241
 O78 O 0.02448 0.68189 0.65519
 Cu79 Cu 0.00438 0.64320 0.64331
 Cu80 Cu 0.00489 0.67101 0.67114
 C81 C 0.03091 0.67486 0.63896
 C82 C -0.02154 0.63923 0.67552
 C83 C -0.02078 0.67602 0.63891
 C84 C 0.02993 0.63824 0.67566
 O85 O 0.97951 0.65832 0.36911
 O86 O 1.01927 0.63216 0.34228
 O87 O 1.01812 0.65941 0.36969
 O88 O 0.98065 0.63139 0.34134
 O89 O 0.98063 0.65481 0.31849
 O90 O 1.01798 0.68271 0.34674
 O91 O 1.01919 0.65552 0.31937
 O92 O 0.97943 0.68168 0.34620
 Cu93 Cu 0.99939 0.64297 0.35791
 Cu94 Cu 0.99929 0.67102 0.33040
 C95 C 0.97276 0.67449 0.36226
 C96 C 1.02597 0.63937 0.32625
 C97 C 1.02441 0.67588 0.36304
 C98 C 0.97432 0.63834 0.32505
 O99 O 0.98206 0.34184 0.62931
 O100 O 1.02029 0.36943 0.65710
 O101 O 1.02067 0.34231 0.62956
 O102 O 0.98159 0.36926 0.65666
 O103 O 0.98155 0.34602 0.67969
 O104 O 1.02060 0.31909 0.65260
 O105 O 1.02018 0.34615 0.68008
 O106 O 0.98206 0.31866 0.65240
 Cu107 Cu 1.00114 0.35806 0.64085
 Cu108 Cu 1.00108 0.33017 0.66851
 C109 C 0.97564 0.32549 0.63611
 C110 C 1.02675 0.36243 0.67332
 C111 C 1.02727 0.32607 0.63643
 C112 C 0.97495 0.36224 0.67281
 O113 O 0.37093 0.02103 0.34206
 O114 O 0.34338 -0.01814 0.36837
 O115 O 0.37119 -0.01754 0.34143
 O116 O 0.34300 0.02054 0.36879
 O117 O 0.32029 0.02057 0.34521
 O118 O 0.34839 -0.01741 0.31792
 O119 O 0.32065 -0.01803 0.34480
 O120 O 0.34816 0.02110 0.31853
 Cu121 Cu 0.35940 0.00145 0.35755
 Cu122 Cu 0.33207 0.00156 0.32927
 C123 C 0.36425 0.02768 0.32578
 C124 C 0.32732 -0.02473 0.36106
 C125 C 0.36460 -0.02388 0.32496
 C126 C 0.32685 0.02705 0.36161
 O127 O 0.65797 -0.02009 0.63252
 O128 O 0.63039 0.01881 0.65931
 O129 O 0.65805 0.01860 0.63225
 O130 O 0.63024 -0.01970 0.65950
 O131 O 0.65315 -0.01957 0.68291
 O132 O 0.68094 0.01868 0.65566
 O133 O 0.65333 0.01889 0.68268
 O134 O 0.68083 -0.01994 0.65597
 Cu135 Cu 0.64189 -0.00061 0.64351
 Cu136 Cu 0.66939 -0.00047 0.67162
 C137 C 0.67409 -0.02664 0.63972
 C138 C 0.63712 0.02537 0.67562
 C139 C 0.67422 0.02516 0.63934
 C140 C 0.63691 -0.02605 0.67590
 O141 O 0.36803 0.98304 0.65771
 O142 O 0.34100 1.02143 0.62975
 O143 O 0.36803 1.02173 0.65742
 O144 O 0.34115 0.98292 0.62994
 O145 O 0.31761 0.98306 0.65275
 O146 O 0.34448 1.02184 0.68021
 O147 O 0.31751 1.02152 0.65259
 O148 O 0.34446 0.98320 0.68048
 Cu149 Cu 0.35695 1.00228 0.64144
 Cu150 Cu 0.32868 1.00242 0.66882
 C151 C 0.36080 0.97658 0.67385
 C152 C 0.32458 1.02790 0.63637
 C153 C 0.36082 1.02839 0.67349
 C154 C 0.32475 0.97648 0.63662
 O155 O 0.63368 0.97749 0.34147
 O156 O 0.66042 1.01662 0.36871
 O157 O 0.63362 1.01610 0.34081
 O158 O 0.66047 0.97811 0.36932
 O159 O 0.68412 0.97779 0.34663
 O160 O 0.65730 1.01574 0.31815
 O161 O 0.68406 1.01626 0.34603
 O162 O 0.65736 0.97716 0.31882
 Cu163 Cu 0.64465 0.99713 0.35734
 Cu164 Cu 0.67307 0.99671 0.33012
 C165 C 0.64097 0.97070 0.32549
 C166 C 0.67687 1.02302 0.36209
 C167 C 0.64087 1.02234 0.32460
 C168 C 0.67692 0.97157 0.36286
 C169 C 0.81385 0.81100 0.51440
 C170 C 0.81320 0.81130 0.49421
 C171 C 0.82590 0.79809 0.48194
 C172 C 0.80034 0.82543 0.48330
 C173 C 0.80042 0.82352 0.52662
 C174 C 0.82860 0.79880 0.52526
 C175 C 0.83814 0.80633 0.46730
 C176 C 0.85045 0.79426 0.45585
 C177 C 0.85072 0.77361 0.45873
 C178 C 0.83815 0.76532 0.47317
 C179 C 0.82578 0.77744 0.48460
 C180 C 0.80199 0.84594 0.48640
 C181 C 0.79004 0.85911 0.47580
 C182 C 0.77636 0.85202 0.46174
 C183 C 0.77493 0.83145 0.45855
 C184 C 0.78686 0.81831 0.46917
 C185 C 0.77975 0.82277 0.52419
 C186 C 0.76741 0.83532 0.53517
 C187 C 0.77552 0.84873 0.54896
 C188 C 0.79620 0.84898 0.55175
 C189 C 0.80849 0.83648 0.54074
 C190 C 0.82218 0.78533 0.53971
 C191 C 0.83590 0.77378 0.55005
 C192 C 0.85635 0.77561 0.54625
 C193 C 0.86274 0.78938 0.53195
 C194 C 0.84900 0.80093 0.52164
 H195 H 0.83838 0.82221 0.46495
 H196 H 0.85987 0.80116 0.44485
 H197 H 0.83788 0.74947 0.47570
 H198 H 0.81616 0.77074 0.49557
 H199 H 0.81261 0.85174 0.49695
 H200 H 0.79163 0.87484 0.47856
 H201 H 0.78552 0.80253 0.46646
 H202 H 0.77319 0.81260 0.51363
 H203 H 0.75155 0.83461 0.53275
 H204 H 0.80297 0.85903 0.56228
 H205 H 0.82440 0.83722 0.54292
 H206 H 0.80651 0.78362 0.54282
 H207 H 0.83046 0.76340 0.56100
 H208 H 0.87836 0.79129 0.52873
 H209 H 0.85427 0.81157 0.51084
 H210 H 0.76462 0.82547 0.44779
 C211 C 0.18623 0.18818 0.50684
 C212 C 0.18563 0.18847 0.48665
 C213 C 0.17098 0.20075 0.47571
 C214 C 0.19912 0.17596 0.47449
 C215 C 0.19908 0.17405 0.51781
 C216 C 0.17359 0.20149 0.51905
 C217 C 0.15055 0.19883 0.47932
 C218 C 0.13692 0.21050 0.46898
 C219 C 0.14343 0.22418 0.45466
 C220 C 0.16390 0.22580 0.45086
 C221 C 0.17751 0.21414 0.46123
 C222 C 0.19114 0.16293 0.46040
 C223 C 0.20351 0.15039 0.44950
 C224 C 0.22418 0.15071 0.45238
 C225 C 0.23220 0.16421 0.46612
 C226 C 0.21979 0.17679 0.47700
 C227 C 0.21256 0.18118 0.53194
 C228 C 0.22461 0.16805 0.54248
 C229 C 0.22330 0.14749 0.53920
 C230 C 0.20959 0.14039 0.52517
 C231 C 0.19753 0.15354 0.51466
 C232 C 0.17382 0.22212 0.51631
 C233 C 0.16141 0.23435 0.52758
 C234 C 0.14867 0.22618 0.54195
 C235 C 0.14886 0.20554 0.54494
 C236 C 0.16122 0.19336 0.53365
 H237 H 0.14517 0.18826 0.49014
 H238 H 0.12127 0.20875 0.47220
 H239 H 0.16945 0.23611 0.43989
 H240 H 0.19320 0.21571 0.45812
 H241 H 0.17524 0.16214 0.45817
 H242 H 0.19681 0.14028 0.43899
 H243 H 0.22628 0.18702 0.48754
 H244 H 0.21384 0.19695 0.53469
 H245 H 0.23493 0.17405 0.55321
 H246 H 0.20809 0.12466 0.52235
 H247 H 0.18692 0.14771 0.50411
 H248 H 0.18354 0.22874 0.50538
 H249 H 0.16175 0.25018 0.52497
 H250 H 0.13932 0.19873 0.55590
 H251 H 0.16089 0.17749 0.53607
 H252 H 0.24805 0.16497 0.46861
 C253 C 0.18860 0.81285 0.48728
 C254 C 0.18933 0.81324 0.50747
 C255 C 0.17686 0.79990 0.51980
 C256 C 0.20202 0.82762 0.51831
 C257 C 0.20187 0.82543 0.47496
 C258 C 0.17395 0.80040 0.47653
 C259 C 0.16448 0.80802 0.53441
 C260 C 0.15228 0.79581 0.54582
 C261 C 0.15225 0.77515 0.54292
 C262 C 0.16499 0.76699 0.52853
 C263 C 0.17725 0.77925 0.51715
 C264 C 0.20013 0.84808 0.51510
 C265 C 0.21193 0.86148 0.52562
 C266 C 0.22569 0.85468 0.53972
 C267 C 0.22736 0.83416 0.54303
 C268 C 0.21558 0.82078 0.53248
 C269 C 0.22256 0.82495 0.47738
 C270 C 0.23474 0.83752 0.46625
 C271 C 0.22647 0.85066 0.45235
 C272 C 0.20578 0.85064 0.44958
 C273 C 0.19364 0.83813 0.46074
 C274 C 0.18046 0.78684 0.46219
 C275 C 0.16683 0.77497 0.45204
 C276 C 0.14638 0.77658 0.45595
 C277 C 0.13990 0.79045 0.47013
 C278 C 0.15355 0.80232 0.48024
 H279 H 0.16402 0.82390 0.53676
 H280 H 0.14273 0.80262 0.55679
 H281 H 0.16545 0.75115 0.52599
 H282 H 0.18698 0.77265 0.50620
 H283 H 0.18944 0.85367 0.50452
 H284 H 0.21015 0.87717 0.52277
 H285 H 0.21711 0.80505 0.53528
 H286 H 0.22925 0.81498 0.48801
 H287 H 0.25061 0.83703 0.46866
 H288 H 0.19888 0.86048 0.43896
 H289 H 0.17772 0.83865 0.45857
 H290 H 0.19614 0.78528 0.45901
 H291 H 0.17234 0.76453 0.44117
 H292 H 0.12427 0.79219 0.47343
 H293 H 0.14820 0.81301 0.49097
 H294 H 0.23774 0.82839 0.55382
 C295 C 0.81121 0.18621 0.49062
 C296 C 0.81202 0.18659 0.51081
 C297 C 0.82652 0.19924 0.52157
 C298 C 0.79890 0.17389 0.52315
 C299 C 0.79859 0.17177 0.47977
 C300 C 0.82351 0.19973 0.47831
 C301 C 0.84695 0.19767 0.51782
 C302 C 0.86043 0.20968 0.52799
 C303 C 0.85377 0.22337 0.54227
 C304 C 0.83330 0.22465 0.54619
 C305 C 0.81983 0.21265 0.53599
 C306 C 0.80729 0.16125 0.53733
 C307 C 0.79528 0.14869 0.54858
 C308 C 0.77458 0.14858 0.54595
 C309 C 0.76616 0.16165 0.53207
 C310 C 0.77820 0.17425 0.52085
 C311 C 0.78499 0.17853 0.46561
 C312 C 0.77327 0.16511 0.45504
 C313 C 0.77503 0.14459 0.45833
 C314 C 0.78883 0.13785 0.47243
 C315 C 0.80056 0.15130 0.48297
 C316 C 0.82286 0.22036 0.48101
 C317 C 0.83506 0.23278 0.46975
 C318 C 0.84799 0.22480 0.45544
 C319 C 0.84818 0.20416 0.45244
 C320 C 0.83603 0.19178 0.46373
 H321 H 0.85244 0.18711 0.50704
 H322 H 0.87608 0.20819 0.52468
 H323 H 0.82764 0.23495 0.55713
 H324 H 0.80414 0.21395 0.53919
 H325 H 0.82322 0.16082 0.53942
 H326 H 0.80229 0.13891 0.55918
 H327 H 0.77140 0.18418 0.51024
 H328 H 0.78338 0.19426 0.46282
 H329 H 0.76286 0.17083 0.44426
 H330 H 0.79068 0.12217 0.47527
 H331 H 0.81128 0.14575 0.49354
 H332 H 0.81301 0.22682 0.49194
 H333 H 0.83443 0.24861 0.47236
 H334 H 0.85787 0.19749 0.44151
 H335 H 0.83667 0.17591 0.46134
 H336 H 0.75027 0.16207 0.52976
 C337 C 0.50558 0.81358 0.81258
 C338 C 0.48535 0.81357 0.81327
 C339 C 0.47330 0.82634 0.79997
 C340 C 0.47430 0.80131 0.82784
 C341 C 0.51765 0.80001 0.82505
 C342 C 0.51674 0.82771 0.79990
 C343 C 0.45930 0.83939 0.80813
 C344 C 0.44844 0.85211 0.79595
 C345 C 0.45128 0.85198 0.77530
 C346 C 0.46495 0.83850 0.76710
 C347 C 0.47578 0.82573 0.77932
 C348 C 0.47800 0.80309 0.84823
 C349 C 0.46769 0.79132 0.86180
 C350 C 0.45332 0.77767 0.85526
 C351 C 0.44940 0.77623 0.83484
 C352 C 0.45974 0.78800 0.82129
 C353 C 0.51464 0.77941 0.82463
 C354 C 0.52582 0.76695 0.83684
 C355 C 0.54037 0.77484 0.84956
 C356 C 0.54360 0.79545 0.84957
 C357 C 0.53241 0.80787 0.83741
 C358 C 0.53081 0.82057 0.78636
 C359 C 0.54159 0.83371 0.77453
 C360 C 0.53862 0.85429 0.77613
 C361 C 0.52463 0.86140 0.78990
 C362 C 0.51387 0.84824 0.80174
 H363 H 0.45708 0.84003 0.82401
 H364 H 0.43799 0.86221 0.80279
 H365 H 0.46741 0.83788 0.75126
 H366 H 0.48625 0.81551 0.77269
 H367 H 0.48890 0.81359 0.85362
 H368 H 0.47101 0.79294 0.87741
 H369 H 0.45656 0.78654 0.80562
 H370 H 0.50358 0.77301 0.81491
 H371 H 0.52302 0.75115 0.83635
 H372 H 0.55470 0.80206 0.85911
 H373 H 0.53503 0.82370 0.83790
 H374 H 0.53334 0.80478 0.78486
 H375 H 0.55228 0.82770 0.76415
 H376 H 0.52204 0.87715 0.79163
 H377 H 0.50338 0.85407 0.81242
 H378 H 0.43838 0.76596 0.82927
 C379 C 0.51495 0.18662 0.18770
 C380 C 0.49473 0.18710 0.18763
 C381 C 0.48272 0.17436 0.20101
 C382 C 0.48352 0.19979 0.17359
 C383 C 0.52693 0.20008 0.17500
 C384 C 0.52611 0.17206 0.19985
 C385 C 0.46812 0.16191 0.19297
 C386 C 0.45696 0.14951 0.20520
 C387 C 0.46008 0.14936 0.22580
 C388 C 0.47447 0.16214 0.23389
 C389 C 0.48561 0.17460 0.22161
 C390 C 0.48643 0.19810 0.15306
 C391 C 0.47562 0.20995 0.13998
 C392 C 0.46153 0.22357 0.14718
 C393 C 0.45851 0.22503 0.16775
 C394 C 0.46935 0.21318 0.18081
 C395 C 0.52431 0.22072 0.17568
 C396 C 0.53508 0.23307 0.16298
 C397 C 0.54884 0.22502 0.14950
 C398 C 0.55182 0.20438 0.14931
 C399 C 0.54102 0.19207 0.16196
 C400 C 0.54062 0.17868 0.21318
 C401 C 0.55118 0.16514 0.22472
 C402 C 0.54754 0.14467 0.22304
 C403 C 0.53320 0.13807 0.20940
 C404 C 0.52266 0.15164 0.19785
 H405 H 0.46558 0.16157 0.17713
 H406 H 0.44598 0.13994 0.19845
 H407 H 0.47718 0.16250 0.24969
 H408 H 0.49656 0.18437 0.22815
 H409 H 0.49701 0.18754 0.14718
 H410 H 0.47825 0.20834 0.12424
 H411 H 0.46679 0.21456 0.19659
 H412 H 0.51377 0.22724 0.18591
 H413 H 0.53251 0.24890 0.16364
 H414 H 0.56234 0.19765 0.13921
 H415 H 0.54334 0.17619 0.16127
 H416 H 0.54360 0.19439 0.21479
 H417 H 0.56217 0.17075 0.23499
 H418 H 0.53010 0.12243 0.20761
 H419 H 0.51181 0.14621 0.18733
 H420 H 0.44774 0.23529 0.17381
 C421 C 0.48867 0.18913 0.81263
 C422 C 0.50889 0.18858 0.81217
 C423 C 0.51980 0.17420 0.79953
 C424 C 0.52116 0.20178 0.82487
 C425 C 0.47774 0.20164 0.82710
 C426 C 0.47642 0.17660 0.79926
 C427 C 0.51640 0.15375 0.80123
 C428 C 0.52685 0.14036 0.78935
 C429 C 0.54107 0.14716 0.77567
 C430 C 0.54461 0.16766 0.77423
 C431 C 0.53413 0.18103 0.78610
 C432 C 0.53549 0.19348 0.83742
 C433 C 0.54675 0.20555 0.84991
 C434 C 0.54399 0.22622 0.85005
 C435 C 0.52991 0.23455 0.83711
 C436 C 0.51868 0.22244 0.82457
 C437 C 0.46346 0.21515 0.82038
 C438 C 0.45290 0.22686 0.83383
 C439 C 0.45632 0.22515 0.85432
 C440 C 0.47051 0.21141 0.86101
 C441 C 0.48103 0.19970 0.84753
 C442 C 0.47902 0.17710 0.77863
 C443 C 0.46785 0.16465 0.76636
 C444 C 0.45374 0.15161 0.77449
 C445 C 0.45084 0.15157 0.79513
 C446 C 0.46203 0.16396 0.80736
 H447 H 0.50570 0.14816 0.81182
 H448 H 0.52383 0.12468 0.79096
 H449 H 0.55549 0.17343 0.76393
 H450 H 0.53707 0.19675 0.78471
 H451 H 0.53770 0.17758 0.83781
 H452 H 0.55748 0.19861 0.85960
 H453 H 0.50795 0.22917 0.81472
 H454 H 0.46059 0.21673 0.80467
 H455 H 0.44204 0.23722 0.82815
 H456 H 0.47344 0.20960 0.87667
 H457 H 0.49170 0.18904 0.85304
 H458 H 0.48980 0.18702 0.77205
 H459 H 0.47038 0.16518 0.75053
 H460 H 0.44006 0.14179 0.80192
 H461 H 0.45973 0.16341 0.82324
 H462 H 0.52749 0.25041 0.83673
 C463 C 0.49075 0.81203 0.18741
 C464 C 0.51097 0.81138 0.18659
 C465 C 0.52351 0.82376 0.19984
 C466 C 0.52156 0.79879 0.17192
 C467 C 0.47820 0.79873 0.17510
 C468 C 0.48015 0.82656 0.20015
 C469 C 0.53793 0.83630 0.19163
 C470 C 0.54938 0.84854 0.20378
 C471 C 0.54674 0.84842 0.22446
 C472 C 0.53260 0.83546 0.23269
 C473 C 0.52117 0.82318 0.22050
 C474 C 0.51778 0.80064 0.15155
 C475 C 0.52790 0.78878 0.13789
 C476 C 0.54216 0.77498 0.14430
 C477 C 0.54609 0.77340 0.16471
 C478 C 0.53595 0.78525 0.17835
 C479 C 0.48069 0.77806 0.17554
 C480 C 0.46918 0.76583 0.16337
 C481 C 0.45481 0.77403 0.15067
 C482 C 0.45203 0.79470 0.15069
 C483 C 0.46356 0.80689 0.16281
 C484 C 0.46595 0.81994 0.21382
 C485 C 0.45579 0.83345 0.22580
 C486 C 0.45951 0.85392 0.22423
 C487 C 0.47360 0.86052 0.21032
 C488 C 0.48373 0.84698 0.19833
 H489 H 0.54004 0.83690 0.17573
 H490 H 0.56016 0.85825 0.19691
 H491 H 0.53026 0.83488 0.24855
 H492 H 0.51038 0.81332 0.22717
 H493 H 0.50704 0.81132 0.14625
 H494 H 0.52458 0.79051 0.12230
 H495 H 0.53919 0.78373 0.19399
 H496 H 0.49164 0.77143 0.18521
 H497 H 0.47162 0.74998 0.16384
 H498 H 0.44107 0.80153 0.14118
 H499 H 0.46133 0.82278 0.16233
 H500 H 0.46287 0.80425 0.21532
 H501 H 0.44500 0.82784 0.23628
 H502 H 0.47675 0.87616 0.20861
 H503 H 0.49434 0.85243 0.18757
 H504 H 0.55702 0.76300 0.17018
 C505 C 0.81409 0.51118 0.81080
 C506 C 0.81379 0.49097 0.81116
 C507 C 0.80113 0.47987 0.82536
 C508 C 0.82664 0.47890 0.79789
 C509 C 0.82856 0.52232 0.79849
 C510 C 0.80050 0.52320 0.82335
 C511 C 0.80271 0.48313 0.84584
 C512 C 0.79070 0.47263 0.85905
 C513 C 0.77703 0.45850 0.85206
 C514 C 0.77574 0.45507 0.83153
 C515 C 0.78774 0.46560 0.81834
 C516 C 0.83921 0.46451 0.80606
 C517 C 0.85177 0.45338 0.79393
 C518 C 0.85195 0.45632 0.77330
 C519 C 0.83902 0.47046 0.76509
 C520 C 0.82641 0.48158 0.77727
 C521 C 0.82180 0.53670 0.78512
 C522 C 0.83525 0.54739 0.77355
 C523 C 0.85578 0.54403 0.77526
 C524 C 0.86252 0.52977 0.78889
 C525 C 0.84904 0.51911 0.80046
 C526 C 0.77985 0.52045 0.82265
 C527 C 0.76738 0.53132 0.83517
 C528 C 0.77530 0.54531 0.84848
 C529 C 0.79595 0.54838 0.84871
 C530 C 0.80838 0.53748 0.83624
 H531 H 0.81326 0.49379 0.85158
 H532 H 0.79220 0.47556 0.87475
 H533 H 0.76545 0.44425 0.82562
 H534 H 0.78645 0.46277 0.80259
 H535 H 0.83954 0.46213 0.82193
 H536 H 0.86145 0.44258 0.80078
 H537 H 0.81654 0.49235 0.77062
 H538 H 0.80606 0.53951 0.78353
 H539 H 0.82954 0.55830 0.76328
 H540 H 0.87821 0.52688 0.79070
 H541 H 0.85458 0.50838 0.81102
 H542 H 0.77344 0.50975 0.81254
 H543 H 0.75155 0.52867 0.83449
 H544 H 0.80258 0.55907 0.85868
 H545 H 0.82426 0.53990 0.83694
 H546 H 0.83867 0.47303 0.74927
 C547 C 0.18708 0.50933 0.18953
 C548 C 0.18637 0.48914 0.19027
 C549 C 0.19970 0.47661 0.17796
 C550 C 0.17170 0.47852 0.20282
 C551 C 0.17456 0.52189 0.20263
 C552 C 0.19988 0.51991 0.17505
 C553 C 0.19153 0.46217 0.16543
 C554 C 0.20375 0.45074 0.15323
 C555 C 0.22445 0.45345 0.15337
 C556 C 0.23265 0.46760 0.16633
 C557 C 0.22039 0.47900 0.17858
 C558 C 0.15128 0.48211 0.20083
 C559 C 0.13761 0.47184 0.21254
 C560 C 0.14408 0.45761 0.22632
 C561 C 0.16455 0.45390 0.22809
 C562 C 0.17819 0.46421 0.21639
 C563 C 0.17484 0.51954 0.22330
 C564 C 0.16247 0.53106 0.23533
 C565 C 0.14973 0.54528 0.22693
 C566 C 0.14991 0.54791 0.20626
 C567 C 0.16223 0.53637 0.19427
 C568 C 0.21348 0.53415 0.18172
 C569 C 0.22549 0.54432 0.16825
 C570 C 0.22401 0.54056 0.14780
 C571 C 0.21017 0.52642 0.14116
 C572 C 0.19815 0.51627 0.15464
 H573 H 0.17562 0.46002 0.16481
 H574 H 0.19691 0.43994 0.14352
 H575 H 0.24852 0.46998 0.16693
 H576 H 0.22702 0.48981 0.18844
 H577 H 0.14593 0.49280 0.19013
 H578 H 0.12197 0.47498 0.21069
 H579 H 0.19388 0.46111 0.21801
 H580 H 0.18453 0.50871 0.23008
 H581 H 0.16281 0.52873 0.25119
 H582 H 0.14038 0.55875 0.19927
 H583 H 0.16187 0.53848 0.17836
 H584 H 0.21490 0.53727 0.19740
 H585 H 0.23591 0.55515 0.17390
 H586 H 0.20852 0.52323 0.12552
 H587 H 0.18744 0.50563 0.14916
 H588 H 0.17006 0.44301 0.23848
 C589 C 0.81097 0.49275 0.18532
 C590 C 0.81153 0.51296 0.18548
 C591 C 0.79826 0.52503 0.17269
 C592 C 0.82597 0.52399 0.19792
 C593 C 0.82346 0.48069 0.19888
 C594 C 0.79846 0.48161 0.17103
 C595 C 0.80648 0.53920 0.15990
 C596 C 0.79435 0.55014 0.14721
 C597 C 0.77368 0.54721 0.14711
 C598 C 0.76541 0.53335 0.16032
 C599 C 0.77759 0.52244 0.17306
 C600 C 0.84642 0.52047 0.19620
 C601 C 0.85987 0.53076 0.20815
 C602 C 0.85313 0.54493 0.22190
 C603 C 0.83263 0.54868 0.22328
 C604 C 0.81921 0.53836 0.21134
 C605 C 0.82289 0.48356 0.21948
 C606 C 0.83521 0.47249 0.23193
 C607 C 0.84820 0.45818 0.22401
 C608 C 0.84835 0.45505 0.20341
 C609 C 0.83608 0.46615 0.19100
 C610 C 0.78495 0.46741 0.17796
 C611 C 0.77327 0.45664 0.16467
 C612 C 0.77500 0.45976 0.14414
 C613 C 0.78873 0.47387 0.13723
 C614 C 0.80042 0.48461 0.15055
 H615 H 0.82238 0.54150 0.15945
 H616 H 0.80123 0.56073 0.13732
 H617 H 0.74956 0.53081 0.16075
 H618 H 0.77090 0.51184 0.18309
 H619 H 0.85196 0.50972 0.18563
 H620 H 0.87554 0.52759 0.20658
 H621 H 0.80349 0.54139 0.21274
 H622 H 0.81298 0.49447 0.22589
 H623 H 0.83460 0.47520 0.24773
 H624 H 0.85809 0.44413 0.19678
 H625 H 0.83668 0.46363 0.17516
 H626 H 0.78336 0.46477 0.19371
 H627 H 0.76291 0.44585 0.17052
 H628 H 0.79055 0.47658 0.12153
 H629 H 0.81107 0.49521 0.14488
 H630 H 0.82692 0.55955 0.23362
 C631 C 0.18821 0.48682 0.81498
 C632 C 0.18811 0.50703 0.81458
 C633 C 0.20134 0.51903 0.82750
 C634 C 0.17419 0.51823 0.80174
 C635 C 0.17564 0.47488 0.80134
 C636 C 0.20025 0.47563 0.82960
 C637 C 0.19312 0.53362 0.83984
 C638 C 0.20521 0.54481 0.85236
 C639 C 0.22585 0.54173 0.85275
 C640 C 0.23412 0.52734 0.84009
 C641 C 0.22198 0.51616 0.82751
 C642 C 0.15362 0.51532 0.80316
 C643 C 0.14067 0.52603 0.79108
 C644 C 0.14804 0.54003 0.77750
 C645 C 0.16866 0.54308 0.77634
 C646 C 0.18159 0.53234 0.78841
 C647 C 0.17657 0.47753 0.78073
 C648 C 0.16396 0.46682 0.76821
 C649 C 0.15033 0.45311 0.77606
 C650 C 0.14989 0.45011 0.79668
 C651 C 0.16244 0.46084 0.80916
 C652 C 0.21363 0.46113 0.82305
 C653 C 0.22506 0.45051 0.83665
 C654 C 0.22319 0.45408 0.85711
 C655 C 0.20950 0.46843 0.86363
 C656 C 0.19807 0.47902 0.85001
 H657 H 0.17725 0.53613 0.84000
 H658 H 0.19832 0.55578 0.86185
 H659 H 0.24995 0.52465 0.83991
 H660 H 0.22867 0.50522 0.81783
 H661 H 0.14761 0.50478 0.81367
 H662 H 0.12489 0.52339 0.79247
 H663 H 0.19741 0.53490 0.78724
 H664 H 0.18692 0.48803 0.77437
 H665 H 0.16482 0.46941 0.75241
 H666 H 0.13966 0.43963 0.80326
 H667 H 0.16156 0.45850 0.82501
 H668 H 0.21538 0.45819 0.80737
 H669 H 0.23537 0.43952 0.83110
 H670 H 0.20757 0.47148 0.87926
 H671 H 0.18750 0.48986 0.85538
 H672 H 0.17485 0.55379 0.76612
 N673 N 0.28677 0.37287 0.06706
 C674 C 0.29358 0.39045 0.07404
 N675 N 0.31078 0.39791 0.06674
 N676 N 0.32085 0.38808 0.05286
 C677 C 0.31404 0.37049 0.04580
 N678 N 0.29683 0.36305 0.05318
 C679 C 0.28236 0.40127 0.08854
 C680 C 0.27258 0.41032 0.10046
 C681 C 0.26048 0.42102 0.11432
 N682 N 0.26863 0.43455 0.12675
 N683 N 0.25723 0.44475 0.13928
 C684 C 0.23727 0.44179 0.13982
 N685 N 0.22924 0.42815 0.12734
 N686 N 0.24062 0.41796 0.11482
 N687 N 0.68753 0.60025 0.05880
 C688 C 0.70484 0.60777 0.06578
 N689 N 0.71163 0.62520 0.05846
 N690 N 0.70144 0.63484 0.04457
 C691 C 0.68412 0.62735 0.03753
 N692 N 0.67733 0.60989 0.04491
 C693 C 0.71609 0.59725 0.08044
 C694 C 0.72586 0.58850 0.09258
 C695 C 0.73790 0.57820 0.10676
 N696 N 0.75773 0.58141 0.10740
 N697 N 0.76903 0.57167 0.12030
 C698 C 0.76094 0.55835 0.13307
 N699 N 0.74102 0.55522 0.13238
 N700 N 0.72970 0.56497 0.11947
 N701 N 0.69009 0.40209 0.93761
 C702 C 0.70765 0.39505 0.93075
 N703 N 0.71443 0.37738 0.93749
 N704 N 0.70400 0.36708 0.95072
 C705 C 0.68643 0.37410 0.95766
 N706 N 0.67965 0.39179 0.95085
 C707 C 0.71916 0.40630 0.91686
 C708 C 0.72906 0.41569 0.90532
 C709 C 0.74108 0.42677 0.89172
 N710 N 0.75411 0.44049 0.89850
 N711 N 0.76548 0.45060 0.88591
 C712 C 0.76427 0.44734 0.86607
 N713 N 0.75115 0.43356 0.85937
 N714 N 0.73977 0.42345 0.87196
 N715 N 0.28690 0.62297 0.93922
 C716 C 0.29418 0.60566 0.93202
 N717 N 0.31172 0.59875 0.93901
 N718 N 0.32166 0.60883 0.95280
 C719 C 0.31437 0.62615 0.96007
 N720 N 0.29683 0.63305 0.95300
 C721 C 0.28313 0.59455 0.91762
 C722 C 0.27347 0.58529 0.90577
 C723 C 0.26150 0.57437 0.89197
 N724 N 0.24169 0.57759 0.89110
 N725 N 0.23043 0.56729 0.87857
 C726 C 0.23854 0.55337 0.86644
 N727 N 0.25846 0.55023 0.86736
 N728 N 0.26974 0.56054 0.87991
 N729 N 0.05554 0.28607 0.37529
 C730 C 0.06257 0.29265 0.39292
 N731 N 0.05588 0.31015 0.40024
 N732 N 0.04252 0.32073 0.39024
 C733 C 0.03543 0.31415 0.37258
 N734 N 0.04219 0.29663 0.36529
 C735 C 0.07674 0.28109 0.40380
 C736 C 0.08855 0.27123 0.41288
 C737 C 0.10255 0.25936 0.42363
 N738 N 0.09621 0.24627 0.43748
 N739 N 0.10919 0.23512 0.44734
 C740 C 0.12898 0.23663 0.44371
 N741 N 0.13523 0.24980 0.42980
 N742 N 0.12226 0.26095 0.41994
 N743 N 0.06731 0.71304 0.62495
 C744 C 0.07411 0.70605 0.60736
 N745 N 0.06685 0.68871 0.60024
 N746 N 0.05319 0.67865 0.61039
 C747 C 0.04632 0.68564 0.62799
 N748 N 0.05366 0.70299 0.63509
 C749 C 0.08835 0.71724 0.59619
 C750 C 0.10007 0.72701 0.58688
 C751 C 0.11369 0.73912 0.57589
 N752 N 0.12585 0.73099 0.56209
 N753 N 0.13820 0.74240 0.55169
 C754 C 0.13883 0.76233 0.55471
 N755 N 0.12660 0.77033 0.56861
 N756 N 0.11427 0.75895 0.57900
 N757 N 0.93621 0.71251 0.37634
 C758 C 0.92919 0.70532 0.39373
 N759 N 0.93634 0.68787 0.40069
 N760 N 0.95011 0.67794 0.39056
 C761 C 0.95721 0.68513 0.37315
 N762 N 0.94998 0.70258 0.36621
 C763 C 0.91487 0.71639 0.40493
 C764 C 0.90309 0.72604 0.41430
 C765 C 0.88942 0.73799 0.42540
 N766 N 0.87744 0.72974 0.43927
 N767 N 0.86505 0.74101 0.44979
 C768 C 0.86421 0.76093 0.44683
 N769 N 0.87625 0.76907 0.43287
 N770 N 0.88862 0.75782 0.42236
 N771 N 0.94058 0.31036 0.59705
 C772 C 0.93384 0.29280 0.60412
 N773 N 0.94070 0.28609 0.62175
 N774 N 0.95393 0.29660 0.63199
 C775 C 0.96075 0.31418 0.62495
 N776 N 0.95382 0.32089 0.60729
 C777 C 0.91980 0.28127 0.59302
 C778 C 0.90809 0.27136 0.58382
 C779 C 0.89422 0.25935 0.57303
 N780 N 0.90071 0.24630 0.55917
 N781 N 0.88786 0.23492 0.54938
 C782 C 0.86806 0.23614 0.55308
 N783 N 0.86167 0.24927 0.56699
 N784 N 0.87451 0.26066 0.57679
 N785 N 0.37868 0.06382 0.28761
 C786 C 0.39611 0.07081 0.29482
 N787 N 0.40300 0.06375 0.31231
 N788 N 0.39277 0.05010 0.32228
 C789 C 0.37533 0.04304 0.31508
 N790 N 0.36846 0.05018 0.29758
 C791 C 0.40734 0.08507 0.28372
 C792 C 0.41665 0.09681 0.27399
 C793 C 0.42756 0.11047 0.26188
 N794 N 0.44139 0.12265 0.26994
 N795 N 0.45166 0.13508 0.25853
 C796 C 0.44849 0.13578 0.23864
 N797 N 0.43458 0.12354 0.23070
 N798 N 0.42432 0.11112 0.24209
 N799 N 0.59797 0.06065 0.68996
 C800 C 0.60485 0.06752 0.70756
 N801 N 0.62243 0.06070 0.71452
 N802 N 0.63279 0.04738 0.70424
 C803 C 0.62593 0.04044 0.68664
 N804 N 0.60834 0.04733 0.67967
 C805 C 0.59354 0.08154 0.71888
 C806 C 0.58409 0.09320 0.72860
 C807 C 0.57294 0.10698 0.74038
 N808 N 0.55911 0.10037 0.75338
 N809 N 0.54895 0.11313 0.76454
 C810 C 0.55226 0.13296 0.76313
 N811 N 0.56614 0.13948 0.75003
 N812 N 0.57630 0.12672 0.73887
 N813 N 0.37358 0.94050 0.71265
 C814 C 0.39113 0.93325 0.70601
 N815 N 0.39872 0.94019 0.68875
 N816 N 0.38903 0.95397 0.67843
 C817 C 0.37145 0.96128 0.68506
 N818 N 0.36390 0.95427 0.70235
 C819 C 0.40166 0.91865 0.71735
 C820 C 0.41037 0.90656 0.72720
 C821 C 0.42061 0.89240 0.73933
 N822 N 0.43363 0.87940 0.73120
 N823 N 0.44328 0.86647 0.74258
 C824 C 0.44026 0.86605 0.76250
 N825 N 0.42714 0.87910 0.77052
 N826 N 0.41749 0.89203 0.75915
 N827 N 0.60265 0.93460 0.31088
 C828 C 0.61014 0.92738 0.29367
 N829 N 0.62783 0.93428 0.28702
 N830 N 0.63772 0.94799 0.29725
 C831 C 0.63025 0.95528 0.31447
 N832 N 0.61254 0.94831 0.32112
 C833 C 0.59927 0.91303 0.28232
 C834 C 0.59016 0.90119 0.27248
 C835 C 0.57937 0.88740 0.26039
 N836 N 0.56587 0.87494 0.26855
 N837 N 0.55561 0.86244 0.25718
 C838 C 0.55845 0.86197 0.23724
 N839 N 0.57205 0.87449 0.22918
 N840 N 0.58231 0.88697 0.24054
 N841 N 0.39933 0.31011 0.94129
 C842 C 0.39242 0.29247 0.93454
 N843 N 0.37498 0.28540 0.94165
 N844 N 0.36479 0.29562 0.95514
 C845 C 0.37169 0.31326 0.96198
 N846 N 0.38913 0.32034 0.95479
 C847 C 0.40361 0.28120 0.92038
 C848 C 0.41302 0.27156 0.90863
 C849 C 0.42420 0.25991 0.89476
 N850 N 0.42094 0.26166 0.87504
 N851 N 0.43118 0.25066 0.86220
 C852 C 0.44504 0.23751 0.86861
 N853 N 0.44823 0.23585 0.88842
 N854 N 0.43800 0.24684 0.90126
 N855 N 0.62196 0.71175 0.93380
 C856 C 0.60441 0.70473 0.92696
 N857 N 0.59738 0.68727 0.93403
 N858 N 0.60761 0.67716 0.94756
 C859 C 0.62519 0.68419 0.95448
 N860 N 0.63219 0.70165 0.94732
 C861 C 0.59316 0.71600 0.91286
 C862 C 0.58385 0.72589 0.90128
 C863 C 0.57293 0.73820 0.88781
 N864 N 0.57632 0.75798 0.88730
 N865 N 0.56605 0.76956 0.87507
 C866 C 0.55198 0.76180 0.86290
 N867 N 0.54867 0.74192 0.86346
 N868 N 0.55895 0.73032 0.87570
 N869 N 0.39834 0.68748 0.06505
 C870 C 0.39088 0.70472 0.07225
 N871 N 0.37326 0.71144 0.06529
 N872 N 0.36340 0.70125 0.05153
 C873 C 0.37084 0.68401 0.04425
 N874 N 0.38847 0.67729 0.05129
 C875 C 0.40178 0.71607 0.08658
 C876 C 0.41093 0.72591 0.09837
 C877 C 0.42182 0.73802 0.11207
 N878 N 0.41875 0.75785 0.11266
 N879 N 0.42912 0.76923 0.12503
 C880 C 0.44297 0.76122 0.13726
 N881 N 0.44595 0.74129 0.13663
 N882 N 0.43557 0.72989 0.12425
 N883 N 0.62620 0.28774 0.06091
 C884 C 0.60876 0.29456 0.06826
 N885 N 0.60129 0.31186 0.06130
 N886 N 0.61097 0.32204 0.04740
 C887 C 0.62844 0.31522 0.04000
 N888 N 0.63588 0.29790 0.04703
 C889 C 0.59821 0.28332 0.08292
 C890 C 0.58951 0.27349 0.09504
 C891 C 0.57934 0.26129 0.10920
 N892 N 0.56620 0.26931 0.12214
 N893 N 0.55660 0.25783 0.13505
 C894 C 0.55980 0.23793 0.13548
 N895 N 0.57304 0.23003 0.12248
 N896 N 0.58263 0.24149 0.10958
 N897 N 0.28533 0.06264 0.62127
 C898 C 0.29228 0.06932 0.60365
 N899 N 0.30999 0.06258 0.59687
 N900 N 0.32040 0.04949 0.60738
 C901 C 0.31344 0.04273 0.62502
 N902 N 0.29573 0.04956 0.63177
 C903 C 0.28083 0.08309 0.59218
 C904 C 0.27099 0.09453 0.58262
 C905 C 0.25907 0.10805 0.57135
 N906 N 0.24604 0.10114 0.55769
 N907 N 0.23474 0.11367 0.54744
 C908 C 0.23603 0.13355 0.55047
 N909 N 0.24914 0.14037 0.56418
 N910 N 0.26045 0.12785 0.57444
 N911 N 0.71527 0.05754 0.37633
 C912 C 0.70807 0.06462 0.39371
 N913 N 0.69030 0.05797 0.40040
 N914 N 0.68008 0.04458 0.39005
 C915 C 0.68728 0.03738 0.37266
 N916 N 0.70506 0.04416 0.36598
 C917 C 0.71930 0.07870 0.40505
 C918 C 0.72889 0.09040 0.41458
 C919 C 0.74047 0.10423 0.42589
 N920 N 0.75356 0.09766 0.43963
 N921 N 0.76448 0.11048 0.44997
 C922 C 0.76272 0.13033 0.44696
 N923 N 0.74954 0.13680 0.43317
 N924 N 0.73861 0.12399 0.42282
 N925 N 0.71266 0.93689 0.62699
 C926 C 0.70594 0.92962 0.60951
 N927 N 0.68869 0.93667 0.60196
 N928 N 0.67846 0.95057 0.61162
 C929 C 0.68518 0.95789 0.62913
 N930 N 0.70244 0.95078 0.63665
 C931 C 0.71723 0.91498 0.59896
 C932 C 0.72709 0.90288 0.59023
 C933 C 0.73927 0.88876 0.57995
 N934 N 0.75912 0.88841 0.58309
 N935 N 0.77057 0.87559 0.57335
 C936 C 0.76262 0.86263 0.56012
 N937 N 0.74267 0.86303 0.55707
 N938 N 0.73120 0.87587 0.56681
 N939 N 0.28875 0.93873 0.37363
 C940 C 0.29544 0.93150 0.39113
 N941 N 0.31267 0.93858 0.39871
 N942 N 0.32290 0.95247 0.38909
 C943 C 0.31623 0.95976 0.37156
 N944 N 0.29898 0.95262 0.36401
 C945 C 0.28413 0.91687 0.40167
 C946 C 0.27434 0.90478 0.41046
 C947 C 0.26229 0.89066 0.42087
 N948 N 0.27049 0.87801 0.43414
 N949 N 0.25916 0.86519 0.44403
 C950 C 0.23921 0.86456 0.44102
 N951 N 0.23112 0.87726 0.42766
 N952 N 0.24244 0.89007 0.41777
 N953 N 0.06295 0.40062 0.68814
 C954 C 0.06987 0.39320 0.70548
 N955 N 0.06265 0.37568 0.71218
 N956 N 0.04895 0.36587 0.70187
 C957 C 0.04197 0.37325 0.68452
 N958 N 0.04924 0.39080 0.67782
 C959 C 0.08436 0.40385 0.71686
 C960 C 0.09634 0.41259 0.72685
 C961 C 0.11034 0.42277 0.73924
 N962 N 0.11046 0.41949 0.75903
 N963 N 0.12325 0.42904 0.77067
 C964 C 0.13641 0.44222 0.76296
 N965 N 0.13625 0.44541 0.74307
 N966 N 0.12345 0.43586 0.73141
 N967 N 0.06284 0.60157 0.31228
 C968 C 0.06997 0.60892 0.29500
 N969 N 0.06278 0.62635 0.28808
 N970 N 0.04884 0.63614 0.29813
 C971 C 0.04163 0.62880 0.31542
 N972 N 0.04890 0.61135 0.32233
 C973 C 0.08453 0.59812 0.28384
 C974 C 0.09652 0.58903 0.27418
 C975 C 0.11047 0.57819 0.26230
 N976 N 0.11125 0.58115 0.24247
 N977 N 0.12384 0.57080 0.23130
 C978 C 0.13610 0.55710 0.23952
 N979 N 0.13528 0.55424 0.25944
 N980 N 0.12268 0.56459 0.27064
 N981 N 0.93318 0.37736 0.28708
 C982 C 0.92631 0.39491 0.29408
 N983 N 0.93334 0.40194 0.31155
 N984 N 0.94686 0.39172 0.32170
 C985 C 0.95380 0.37415 0.31470
 N986 N 0.94669 0.36715 0.29722
 C987 C 0.91215 0.40609 0.28281
 C988 C 0.90049 0.41531 0.27291
 C989 C 0.88690 0.42609 0.26061
 N990 N 0.87449 0.43981 0.26851
 N991 N 0.86211 0.44994 0.25693
 C992 C 0.86169 0.44673 0.23704
 N993 N 0.87416 0.43292 0.22926
 N994 N 0.88653 0.42280 0.24082
 N995 N 0.94306 0.62535 0.71468
 C996 C 0.93593 0.60785 0.70782
 N997 N 0.94259 0.60077 0.69022
 N998 N 0.95603 0.61087 0.67982
 C999 C 0.96324 0.62838 0.68668
 N1000 N 0.95649 0.63545 0.70429
 C1001 C 0.92181 0.59677 0.71924
 C1002 C 0.91007 0.58743 0.72896
 C1003 C 0.89622 0.57629 0.74065
 N1004 N 0.90276 0.56249 0.75367
 N1005 N 0.88992 0.55223 0.76463
 C1006 C 0.87007 0.55539 0.76299
 N1007 N 0.86362 0.56926 0.74989
 N1008 N 0.87645 0.57952 0.73892
 N1009 N 0.68758 0.59917 0.93523
 C1010 C 0.70494 0.60653 0.92821
 N1011 N 0.71167 0.62413 0.93520
 N1012 N 0.70137 0.63408 0.94882
 C1013 C 0.68398 0.62677 0.95593
 N1014 N 0.67727 0.60912 0.94886
 C1015 C 0.71632 0.59570 0.91383
 C1016 C 0.72628 0.58679 0.90195
 C1017 C 0.73862 0.57637 0.88807
 N1018 N 0.73071 0.56301 0.87529
 N1019 N 0.74232 0.55323 0.86262
 C1020 C 0.76225 0.55644 0.86226
 N1021 N 0.77003 0.56989 0.87510
 N1022 N 0.75844 0.57967 0.88776
 N1023 N 0.28426 0.37373 0.94472
 C1024 C 0.29085 0.39138 0.93773
 N1025 N 0.30842 0.39863 0.94432
 N1026 N 0.31906 0.38854 0.95754
 C1027 C 0.31250 0.37086 0.96461
 N1028 N 0.29490 0.36364 0.95793
 C1029 C 0.27928 0.40232 0.92366
 C1030 C 0.26948 0.41149 0.91190
 C1031 C 0.25774 0.42239 0.89793
 N1032 N 0.24462 0.43624 0.90428
 N1033 N 0.23366 0.44630 0.89132
 C1034 C 0.23540 0.44288 0.87154
 N1035 N 0.24860 0.42897 0.86529
 N1036 N 0.25956 0.41890 0.87824
 N1037 N 0.28528 0.62107 0.06106
 C1038 C 0.29233 0.60352 0.06779
 N1039 N 0.31006 0.59681 0.06103
 N1040 N 0.32041 0.60734 0.04790
 C1041 C 0.31337 0.62494 0.04109
 N1042 N 0.29562 0.63160 0.04794
 C1043 C 0.28103 0.59214 0.08177
 C1044 C 0.27132 0.58273 0.09345
 C1045 C 0.25954 0.57172 0.10732
 N1046 N 0.26113 0.57523 0.12703
 N1047 N 0.24990 0.56528 0.13987
 C1048 C 0.23666 0.55146 0.13350
 N1049 N 0.23518 0.54800 0.11371
 N1050 N 0.24640 0.55795 0.10085
 N1051 N 0.71438 0.37725 0.05814
 C1052 C 0.70746 0.39482 0.06505
 N1053 N 0.68978 0.40169 0.05840
 N1054 N 0.67935 0.39133 0.04520
 C1055 C 0.68625 0.37374 0.03819
 N1056 N 0.70395 0.36688 0.04494
 C1057 C 0.71888 0.40614 0.07895
 C1058 C 0.72861 0.41568 0.09053
 C1059 C 0.74030 0.42701 0.10420
 N1060 N 0.73854 0.42404 0.12397
 N1061 N 0.74952 0.43448 0.13665
 C1062 C 0.76268 0.44825 0.13003
 N1063 N 0.76435 0.45115 0.11017
 N1064 N 0.75337 0.44072 0.09749
 N1065 N 0.94443 0.69051 0.60092
 C1066 C 0.93784 0.70811 0.60806
 N1067 N 0.94499 0.71491 0.62556
 N1068 N 0.95837 0.70444 0.63561
 C1069 C 0.96506 0.68681 0.62851
 N1070 N 0.95781 0.68003 0.61098
 C1071 C 0.92360 0.71953 0.59716
 C1072 C 0.91169 0.72924 0.58806
 C1073 C 0.89758 0.74093 0.57729
 N1074 N 0.87790 0.73909 0.58096
 N1075 N 0.86481 0.75008 0.57108
 C1076 C 0.87092 0.76333 0.55719
 N1077 N 0.89069 0.76508 0.55358
 N1078 N 0.90379 0.75409 0.56346
 N1079 N 0.93349 0.31218 0.39974
 C1080 C 0.92640 0.29485 0.39242
 N1081 N 0.93336 0.28805 0.37484
 N1082 N 0.94702 0.29825 0.36486
 C1083 C 0.95422 0.31561 0.37215
 N1084 N 0.94716 0.32240 0.38976
 C1085 C 0.91212 0.28351 0.40336
 C1086 C 0.90036 0.27360 0.41246
 C1087 C 0.88668 0.26133 0.42318
 N1088 N 0.88628 0.24151 0.41993
 N1089 N 0.87389 0.22997 0.43008
 C1090 C 0.86144 0.23780 0.44387
 N1091 N 0.86188 0.25771 0.44704
 N1092 N 0.87428 0.26927 0.43688
 N1093 N 0.06276 0.31263 0.59860
 C1094 C 0.06975 0.29517 0.60567
 N1095 N 0.06264 0.28814 0.62309
 N1096 N 0.04893 0.29824 0.63313
 C1097 C 0.04184 0.31572 0.62609
 N1098 N 0.04906 0.32275 0.60865
 C1099 C 0.08408 0.28396 0.59463
 C1100 C 0.09590 0.27419 0.58542
 C1101 C 0.10966 0.26212 0.57456
 N1102 N 0.12183 0.27024 0.56078
 N1103 N 0.13432 0.25887 0.55050
 C1104 C 0.13508 0.23897 0.55361
 N1105 N 0.12285 0.23095 0.56748
 N1106 N 0.11037 0.24231 0.57776
 N1107 N 0.05874 0.69027 0.40154
 C1108 C 0.06540 0.70791 0.39458
 N1109 N 0.05841 0.71476 0.37706
 N1110 N 0.04515 0.70432 0.36681
 C1111 C 0.03841 0.68664 0.37372
 N1112 N 0.04547 0.67980 0.39128
 C1113 C 0.07955 0.71931 0.40565
 C1114 C 0.09138 0.72910 0.41478
 C1115 C 0.10542 0.74098 0.42548
 N1116 N 0.12510 0.73935 0.42172
 N1117 N 0.13811 0.75062 0.43143
 C1118 C 0.13191 0.76395 0.44523
 N1119 N 0.11214 0.76548 0.44894
 N1120 N 0.09913 0.75421 0.43924
 N1121 N 0.59744 0.93916 0.69050
 C1122 C 0.60417 0.93251 0.70820
 N1123 N 0.62177 0.93930 0.71518
 N1124 N 0.63229 0.95239 0.70479
 C1125 C 0.62557 0.95912 0.68707
 N1126 N 0.60796 0.95225 0.68010
 C1127 C 0.59267 0.91874 0.71961
 C1128 C 0.58301 0.90729 0.72935
 C1129 C 0.57155 0.89377 0.74110
 N1130 N 0.57435 0.87395 0.73943
 N1131 N 0.56385 0.86141 0.75051
 C1132 C 0.55018 0.86824 0.76368
 N1133 N 0.54744 0.88815 0.76526
 N1134 N 0.55793 0.90068 0.75418
 N1135 N 0.37950 0.94125 0.28572
 C1136 C 0.39702 0.93431 0.29270
 N1137 N 0.40384 0.94100 0.31038
 N1138 N 0.39347 0.95426 0.32076
 C1139 C 0.37592 0.96126 0.31378
 N1140 N 0.36912 0.95450 0.29608
 C1141 C 0.40826 0.92023 0.28136
 C1142 C 0.41757 0.90848 0.27161
 C1143 C 0.42850 0.89456 0.25979
 N1144 N 0.44221 0.90098 0.24657
 N1145 N 0.45211 0.88807 0.23534
 C1146 C 0.44864 0.86827 0.23688
 N1147 N 0.43488 0.86195 0.25019
 N1148 N 0.42498 0.87485 0.26143
 N1149 N 0.60236 0.05763 0.30881
 C1150 C 0.60979 0.06424 0.29135
 N1151 N 0.62750 0.05721 0.28491
 N1152 N 0.63746 0.04392 0.29557
 C1153 C 0.63005 0.03724 0.31305
 N1154 N 0.61232 0.04434 0.31948
 C1155 C 0.59895 0.07833 0.27971
 C1156 C 0.58985 0.09009 0.26983
 C1157 C 0.57902 0.10401 0.25797
 N1158 N 0.56517 0.09760 0.24490
 N1159 N 0.55518 0.11051 0.23382
 C1160 C 0.55867 0.13030 0.23538
 N1161 N 0.57258 0.13662 0.24853
 N1162 N 0.58258 0.12371 0.25961
 N1163 N 0.39898 0.06468 0.68800
 C1164 C 0.39151 0.07182 0.70525
 N1165 N 0.37392 0.06477 0.71199
 N1166 N 0.36409 0.05099 0.70180
 C1167 C 0.37153 0.04378 0.68453
 N1168 N 0.38914 0.05090 0.67780
 C1169 C 0.40227 0.08630 0.71652
 C1170 C 0.41125 0.09824 0.72634
 C1171 C 0.42184 0.11216 0.73845
 N1172 N 0.43534 0.12467 0.73035
 N1173 N 0.44538 0.13731 0.74176
 C1174 C 0.44229 0.13790 0.76166
 N1175 N 0.42869 0.12534 0.76965
 N1176 N 0.41865 0.11271 0.75826
 N1177 N 0.62161 0.71363 0.05620
 C1178 C 0.60408 0.70675 0.06324
 N1179 N 0.59709 0.68909 0.05660
 N1180 N 0.60733 0.67865 0.04329
 C1181 C 0.62489 0.68553 0.03618
 N1182 N 0.63184 0.70320 0.04289
 C1183 C 0.59299 0.71814 0.07741
 C1184 C 0.58380 0.72789 0.08925
 C1185 C 0.57298 0.73968 0.10330
 N1186 N 0.57672 0.73804 0.12295
 N1187 N 0.56689 0.74921 0.13596
 C1188 C 0.55298 0.76243 0.12981
 N1189 N 0.54930 0.76398 0.11007
 N1190 N 0.55913 0.75281 0.09705
 N1191 N 0.40204 0.30909 0.06275
 C1192 C 0.39540 0.29137 0.06953
 N1193 N 0.37771 0.28436 0.06303
 N1194 N 0.36699 0.29473 0.05012
 C1195 C 0.37360 0.31247 0.04327
 N1196 N 0.39131 0.31947 0.04983
 C1197 C 0.40708 0.28001 0.08316
 C1198 C 0.41685 0.27031 0.09451
 C1199 C 0.42841 0.25859 0.10795
 N1200 N 0.42558 0.26013 0.12776
 N1201 N 0.43614 0.24906 0.14022
 C1202 C 0.44991 0.23603 0.13332
 N1203 N 0.45269 0.23459 0.11341
 N1204 N 0.44212 0.24567 0.10095
 N1205 N 0.60001 0.31203 0.93688
 C1206 C 0.60721 0.29465 0.92976
 N1207 N 0.62475 0.28772 0.93671
 N1208 N 0.63480 0.29786 0.95038
 C1209 C 0.62763 0.31525 0.95756
 N1210 N 0.61006 0.32217 0.95054
 C1211 C 0.59624 0.28347 0.91537
 C1212 C 0.58709 0.27377 0.90347
 C1213 C 0.57631 0.26180 0.88957
 N1214 N 0.57929 0.24195 0.88892
 N1215 N 0.56911 0.23071 0.87628
 C1216 C 0.55556 0.23888 0.86382
 N1217 N 0.55266 0.25882 0.86452
 N1218 N 0.56285 0.27008 0.87718
 N1219 N 0.39969 0.69061 0.94221
 C1220 C 0.39225 0.70808 0.93564
 N1221 N 0.37450 0.71444 0.94263
 N1222 N 0.36448 0.70368 0.95581
 C1223 C 0.37188 0.68618 0.96244
 N1224 N 0.38967 0.67983 0.95540
 C1225 C 0.40308 0.71982 0.92160
 C1226 C 0.41208 0.72984 0.90985
 C1227 C 0.42270 0.74191 0.89592
 N1228 N 0.41884 0.74051 0.87627
 N1229 N 0.42857 0.75186 0.86337
 C1230 C 0.44250 0.76504 0.86963
 N1231 N 0.44629 0.76635 0.88937
 N1232 N 0.43656 0.75500 0.90228
 N1233 N 0.69098 0.93713 0.40271
 C1234 C 0.70873 0.93027 0.39615
 N1235 N 0.71590 0.93682 0.37857
 N1236 N 0.70567 0.94988 0.36788
 C1237 C 0.68791 0.95681 0.37442
 N1238 N 0.68074 0.95019 0.39202
 C1239 C 0.71996 0.91652 0.40781
 C1240 C 0.72960 0.90507 0.41754
 C1241 C 0.74127 0.89154 0.42902
 N1242 N 0.75421 0.89843 0.44276
 N1243 N 0.76529 0.88587 0.45321
 C1244 C 0.76385 0.86598 0.45029
 N1245 N 0.75081 0.85918 0.43651
 N1246 N 0.73972 0.87173 0.42606
 N1247 N 0.31061 0.94111 0.59753
 C1248 C 0.29290 0.93435 0.60429
 N1249 N 0.28578 0.94127 0.62177
 N1250 N 0.29603 0.95459 0.63216
 C1251 C 0.31374 0.96142 0.62542
 N1252 N 0.32086 0.95443 0.60793
 C1253 C 0.28165 0.92033 0.59293
 C1254 C 0.27204 0.90867 0.58340
 C1255 C 0.26042 0.89490 0.57210
 N1256 N 0.26218 0.87513 0.57520
 N1257 N 0.25120 0.86236 0.56486
 C1258 C 0.23806 0.86889 0.55106
 N1259 N 0.23640 0.88873 0.54801
 N1260 N 0.24738 0.90151 0.55834
 N1261 N 0.31168 0.06311 0.39977
 C1262 C 0.29442 0.07011 0.39218
 N1263 N 0.28788 0.06299 0.37457
 N1264 N 0.29826 0.04930 0.36482
 C1265 C 0.31554 0.04224 0.37237
 N1266 N 0.32208 0.04940 0.39001
 C1267 C 0.28298 0.08461 0.40276
 C1268 C 0.27301 0.09662 0.41149
 C1269 C 0.26071 0.11067 0.42172
 N1270 N 0.26867 0.12368 0.43481
 N1271 N 0.25711 0.13651 0.44445
 C1272 C 0.23717 0.13679 0.44135
 N1273 N 0.22932 0.12371 0.42817
 N1274 N 0.24087 0.11090 0.41853
 N1275 N 0.68883 0.06118 0.60104
 C1276 C 0.70616 0.06826 0.60840
 N1277 N 0.71294 0.06123 0.62594
 N1278 N 0.70271 0.04754 0.63583
 C1279 C 0.68536 0.04040 0.62850
 N1280 N 0.67859 0.04748 0.61094
 C1281 C 0.71741 0.08273 0.59761
 C1282 C 0.72715 0.09471 0.58861
 C1283 C 0.73910 0.10872 0.57796
 N1284 N 0.75898 0.10932 0.58085
 N1285 N 0.77020 0.12207 0.57077
 C1286 C 0.76196 0.13471 0.55744
 N1287 N 0.74199 0.13406 0.55464
 N1288 N 0.73076 0.12130 0.56472
 N1289 N 0.93971 0.62424 0.28534
 C1290 C 0.93289 0.60648 0.29182
 N1291 N 0.93959 0.59922 0.30930
 N1292 N 0.95274 0.60941 0.31998
 C1293 C 0.95962 0.62719 0.31351
 N1294 N 0.95285 0.63442 0.29601
 C1295 C 0.91892 0.59547 0.28015
 C1296 C 0.90726 0.58635 0.27014
 C1297 C 0.89344 0.57563 0.25803
 N1298 N 0.89998 0.56192 0.24486
 N1299 N 0.88718 0.55216 0.23341
 C1300 C 0.86737 0.55576 0.23468
 N1301 N 0.86092 0.56953 0.24793
 N1302 N 0.87372 0.57930 0.25938
 N1303 N 0.93868 0.37583 0.71129
 C1304 C 0.93163 0.39333 0.70441
 N1305 N 0.93870 0.40057 0.68705
 N1306 N 0.95243 0.39060 0.67689
 C1307 C 0.95955 0.37307 0.68377
 N1308 N 0.95240 0.36586 0.70114
 C1309 C 0.91722 0.40427 0.71565
 C1310 C 0.90533 0.41339 0.72543
 C1311 C 0.89145 0.42414 0.73748
 N1312 N 0.87907 0.43769 0.72931
 N1313 N 0.86643 0.44784 0.74065
 C1314 C 0.86574 0.44482 0.76056
 N1315 N 0.87819 0.43118 0.76861
 N1316 N 0.89081 0.42104 0.75729
 N1317 N 0.06452 0.62314 0.71498
 C1318 C 0.07097 0.60533 0.70822
 N1319 N 0.06412 0.59843 0.69064
 N1320 N 0.05116 0.60901 0.68014
 C1321 C 0.04463 0.62683 0.68689
 N1322 N 0.05157 0.63371 0.70449
 C1323 C 0.08457 0.59379 0.71976
 C1324 C 0.09586 0.58413 0.72966
 C1325 C 0.10918 0.57271 0.74164
 N1326 N 0.10203 0.55909 0.75455
 N1327 N 0.11437 0.54867 0.76589
 C1328 C 0.13431 0.55150 0.76475
 N1329 N 0.14137 0.56518 0.75175
 N1330 N 0.12903 0.57560 0.74041
 N1331 N 0.05623 0.40153 0.31102
 C1332 C 0.06297 0.39460 0.29339
 N1333 N 0.05593 0.37712 0.28639
 N1334 N 0.04252 0.36689 0.29667
 C1335 C 0.03571 0.37379 0.31432
 N1336 N 0.04282 0.39129 0.32132
 C1337 C 0.07718 0.40575 0.28213
 C1338 C 0.08903 0.41506 0.27252
 C1339 C 0.10307 0.42607 0.26093
 N1340 N 0.09676 0.43993 0.24784
 N1341 N 0.10979 0.44998 0.23690
 C1342 C 0.12959 0.44655 0.23863
 N1343 N 0.13580 0.43265 0.25181
 N1344 N 0.12278 0.42259 0.26276
   
