data_POSCAR
  _audit_creation_date              2014-09-24
  _audit_creation_method            'ToBaCCo'
  _symmetry_space_group_name_H-M    'P1'
  _symmetry_Int_Tables_number       1
  _symmetry_cell_setting            triclinic
  loop_
  _symmetry_equiv_pos_as_xyz
 x,y,z
_cell_length_a 60.2743
_cell_length_b 59.9091
_cell_length_c 60.3937
_cell_angle_alpha 89.849500
_cell_angle_beta 90.220300
_cell_angle_gamma 90.059000
loop_
  _atom_site_label
  _atom_site_type_symbol
  _atom_site_fract_x
  _atom_site_fract_y
  _atom_site_fract_z
N1 N 0.36083 1.35171 0.30339
 N2 N 0.34621 1.36792 0.30462
 C3 C 0.35024 1.38309 0.28872
 C4 C 0.36811 1.37599 0.27636
 C5 C 0.37438 1.35583 0.28606
 H6 H 0.34040 1.39789 0.28596
 H7 H 0.38805 1.34526 0.28117
 Cu8 Cu 0.32254 1.36753 0.32609
 Cu9 Cu 0.36144 1.32750 0.32560
 Cu10 Cu 0.31985 1.32865 0.36567
 N11 N 0.29872 1.36744 0.34742
 N12 N 0.29835 1.35299 0.36380
 C13 C 0.28111 1.35777 0.37712
 C14 C 0.26989 1.37597 0.36830
 C15 C 0.28152 1.38156 0.34939
 H16 H 0.27685 1.34854 0.39193
 H17 H 0.27821 1.39533 0.33830
 N18 N 0.34297 1.30535 0.36468
 N19 N 0.35895 1.30487 0.34975
 C20 C 0.37218 1.28717 0.35408
 C21 C 0.36392 1.27586 0.37235
 C22 C 0.34543 1.28790 0.37857
 H23 H 0.38668 1.28267 0.34459
 H24 H 0.33473 1.28437 0.39246
 H25 H 0.32797 1.32766 0.33232
 H26 H 0.34606 1.34509 0.35039
 N27 N 0.36536 0.84429 0.81020
 N28 N 0.34909 0.85878 0.80808
 C29 C 0.35355 0.87232 0.79074
 C30 C 0.37374 0.86604 0.78172
 C31 C 0.38068 0.84820 0.79453
 H32 H 0.34302 0.88581 0.78512
 H33 H 0.39555 0.83840 0.79231
 Cu34 Cu 0.32385 0.85879 0.82851
 Cu35 Cu 0.36517 0.82045 0.83210
 Cu36 Cu 0.32220 0.82038 0.86945
 N37 N 0.30138 0.85973 0.85197
 N38 N 0.30132 0.84472 0.86787
 C39 C 0.28524 0.84944 0.88240
 C40 C 0.27439 0.86843 0.87540
 C41 C 0.28491 0.87451 0.85585
 H42 H 0.28166 0.83969 0.89704
 H43 H 0.28117 0.88887 0.84561
 N44 N 0.34478 0.79705 0.86887
 N45 N 0.36189 0.79755 0.85534
 C46 C 0.37530 0.78020 0.86014
 C47 C 0.36595 0.76817 0.87732
 C48 C 0.34663 0.77930 0.88241
 H49 H 0.39069 0.77648 0.85178
 H50 H 0.33517 0.77517 0.89551
 H51 H 0.33142 0.81949 0.83612
 H52 H 0.34748 0.83880 0.85460
 N53 N 0.86956 1.34729 0.80016
 N54 N 0.85238 1.36038 0.79697
 C55 C 0.85640 1.37368 0.77943
 C56 C 0.87732 1.36866 0.77137
 C57 C 0.88520 1.35188 0.78504
 H58 H 0.84498 1.38603 0.77299
 H59 H 0.90078 1.34310 0.78378
 Cu60 Cu 0.82649 1.35871 0.81599
 Cu61 Cu 0.86971 1.32415 0.82240
 Cu62 Cu 0.82833 1.32540 0.86161
 N63 N 0.80556 1.36178 0.84011
 N64 N 0.80659 1.34940 0.85811
 C65 C 0.79032 1.35571 0.87199
 C66 C 0.77842 1.37281 0.86205
 C67 C 0.78860 1.37624 0.84186
 H68 H 0.78714 1.34823 0.88799
 H69 H 0.78424 1.38855 0.82947
 N70 N 0.85202 1.30251 0.86144
 N71 N 0.86734 1.30200 0.84592
 C72 C 0.88043 1.28417 0.84905
 C73 C 0.87321 1.27286 0.86753
 C74 C 0.85524 1.28497 0.87519
 H75 H 0.89437 1.27983 0.83874
 H76 H 0.84505 1.28102 0.88937
 H77 H 0.83531 1.32134 0.82895
 H78 H 0.85074 1.34377 0.84432
 N79 N 0.86001 0.85518 0.29999
 N80 N 0.84482 0.87068 0.30234
 C81 C 0.84699 0.88589 0.28602
 C82 C 0.86454 0.87945 0.27271
 C83 C 0.87227 0.85981 0.28203
 H84 H 0.83663 0.90049 0.28410
 H85 H 0.88618 0.84993 0.27645
 Cu86 Cu 0.82427 0.86933 0.32689
 Cu87 Cu 0.86365 0.83096 0.32114
 Cu88 Cu 0.82401 0.82618 0.36271
 N89 N 0.80015 0.86511 0.34752
 N90 N 0.80030 0.84897 0.36234
 C91 C 0.78213 0.85112 0.37526
 C92 C 0.76990 0.86930 0.36770
 C93 C 0.78188 0.87764 0.35009
 H94 H 0.77797 0.84018 0.38890
 H95 H 0.77783 0.89214 0.34019
 N96 N 0.84956 0.80515 0.35952
 N97 N 0.86472 0.80762 0.34394
 C98 C 0.88038 0.79183 0.34635
 C99 C 0.87489 0.77849 0.36410
 C100 C 0.85514 0.78724 0.37204
 H101 H 0.89467 0.78993 0.33578
 H102 H 0.84581 0.78121 0.38610
 H103 H 0.83013 0.82928 0.32952
 H104 H 0.84853 0.84513 0.34872
 N105 N 0.64029 0.64975 0.30230
 N106 N 0.65750 0.63644 0.30421
 C107 C 0.65658 0.62088 0.28816
 C108 C 0.63765 0.62460 0.27572
 C109 C 0.62768 0.64298 0.28517
 H110 H 0.66843 0.60754 0.28602
 H111 H 0.61237 0.65083 0.27993
 Cu112 Cu 0.67880 0.63991 0.32812
 Cu113 Cu 0.63541 0.67469 0.32219
 Cu114 Cu 0.67244 0.68078 0.36584
 N115 N 0.69882 0.64313 0.35312
 N116 N 0.69678 0.65940 0.36753
 C117 C 0.71322 0.65779 0.38266
 C118 C 0.72601 0.63935 0.37749
 C119 C 0.71633 0.63043 0.35876
 H120 H 0.71546 0.66894 0.39654
 H121 H 0.72186 0.61585 0.34983
 N122 N 0.64674 0.70069 0.36114
 N123 N 0.63316 0.69886 0.34403
 C124 C 0.61765 0.71499 0.34518
 C125 C 0.62146 0.72734 0.36409
 C126 C 0.63993 0.71779 0.37386
 H127 H 0.60414 0.71717 0.33355
 H128 H 0.64780 0.72299 0.38913
 H129 H 0.66812 0.67898 0.33200
 H130 H 0.65077 0.65988 0.34927
 N131 N 0.62787 0.15060 0.80472
 N132 N 0.64541 0.13856 0.80007
 C133 C 0.64118 0.12640 0.78181
 C134 C 0.61976 0.13117 0.77476
 C135 C 0.61185 0.14659 0.78976
 H136 H 0.65277 0.11499 0.77422
 H137 H 0.59595 0.15488 0.78953
 Cu138 Cu 0.67177 0.14012 0.81853
 Cu139 Cu 0.62760 0.17238 0.82817
 Cu140 Cu 0.67581 0.17828 0.85919
 N141 N 0.69340 0.13709 0.84224
 N142 N 0.69562 0.15231 0.85775
 C143 C 0.71279 0.14659 0.87098
 C144 C 0.72148 0.12653 0.86353
 C145 C 0.70870 0.12102 0.84528
 H146 H 0.71845 0.15621 0.88505
 H147 H 0.71070 0.10669 0.83463
 N148 N 0.64917 0.19740 0.86327
 N149 N 0.63058 0.19386 0.85220
 C150 C 0.61526 0.20874 0.85846
 C151 C 0.62444 0.22253 0.87420
 C152 C 0.64608 0.21501 0.87687
 H153 H 0.59888 0.21021 0.85128
 H154 H 0.65858 0.22188 0.88781
 H155 H 0.66124 0.17868 0.82793
 H156 H 0.65159 0.15757 0.84849
 N157 N 1.13802 0.65186 0.80123
 N158 N 1.15412 0.63707 0.80055
 C159 C 1.15153 0.62404 0.78266
 C160 C 1.13268 0.63067 0.77147
 C161 C 1.12432 0.64832 0.78378
 H162 H 1.16221 0.61027 0.77832
 H163 H 1.10961 0.65800 0.78014
 Cu164 Cu 1.17619 0.63488 0.82375
 Cu165 Cu 1.13720 0.67491 0.82455
 Cu166 Cu 1.18136 0.67439 0.86218
 N167 N 1.19838 0.63251 0.84689
 N168 N 1.20075 0.64831 0.86176
 C169 C 1.21796 0.64312 0.87511
 C170 C 1.22654 0.62281 0.86839
 C171 C 1.21370 0.61657 0.85046
 H172 H 1.22379 0.65332 0.88869
 H173 H 1.21578 0.60181 0.84043
 N174 N 1.15685 0.69615 0.86364
 N175 N 1.14019 0.69672 0.84934
 C176 C 1.12670 0.71386 0.85478
 C177 C 1.13506 0.72419 0.87359
 C178 C 1.15413 0.71245 0.87870
 H179 H 1.11176 0.71841 0.84588
 H180 H 1.16540 0.71577 0.89227
 H181 H 1.17058 0.67494 0.82911
 H182 H 1.15439 0.65754 0.84894
 N183 N 1.13725 0.14625 0.30158
 N184 N 1.15001 0.12911 0.30622
 C185 C 1.14816 0.11376 0.29017
 C186 C 1.13335 0.12168 0.27457
 C187 C 1.12678 0.14240 0.28224
 H188 H 1.15696 0.09805 0.28998
 H189 H 1.11494 0.15358 0.27456
 Cu190 Cu 1.16755 0.12789 0.33282
 Cu191 Cu 1.13470 0.17144 0.32174
 Cu192 Cu 1.17612 0.17542 0.36137
 N193 N 1.19164 0.13084 0.35349
 N194 N 1.19574 0.14932 0.36448
 C195 C 1.21443 0.14630 0.37656
 C196 C 1.22212 0.12474 0.37286
 C197 C 1.20722 0.11559 0.35810
 H198 H 1.22192 0.15880 0.38711
 H199 H 1.20800 0.09928 0.35055
 N200 N 1.15152 0.19747 0.35879
 N201 N 1.13564 0.19547 0.34379
 C202 C 1.12044 0.21154 0.34687
 C203 C 1.12694 0.22445 0.36466
 C204 C 1.14683 0.21516 0.37177
 H205 H 1.10559 0.21353 0.33699
 H206 H 1.15670 0.22045 0.38581
 H207 H 1.16836 0.16792 0.32878
 H208 H 1.14879 0.15807 0.35103
 N209 N 0.63911 1.35084 0.69579
 N210 N 0.65446 1.36644 0.69523
 C211 C 0.65054 1.38153 0.71112
 C212 C 0.63188 1.37513 0.72256
 C213 C 0.62504 1.35541 0.71257
 H214 H 0.66074 1.39598 0.71448
 H215 H 0.61078 1.34539 0.71697
 Cu216 Cu 0.67858 1.36607 0.67435
 Cu217 Cu 0.63869 1.32654 0.67387
 Cu218 Cu 0.68164 1.32654 0.63550
 N219 N 0.70230 1.36575 0.65296
 N220 N 0.70311 1.35063 0.63728
 C221 C 0.72028 1.35523 0.62384
 C222 C 0.73085 1.37408 0.63175
 C223 C 0.71906 1.38032 0.65023
 H224 H 0.72468 1.34571 0.60931
 H225 H 0.72199 1.39485 0.66040
 N226 N 0.65849 1.30350 0.63620
 N227 N 0.64168 1.30364 0.65017
 C228 C 0.62826 1.28619 0.64535
 C229 C 0.63738 1.27447 0.62781
 C230 C 0.65648 1.28594 0.62252
 H231 H 0.61309 1.28217 0.65399
 H232 H 0.66779 1.28204 0.60925
 H233 H 0.67231 1.32624 0.66871
 H234 H 0.65529 1.34389 0.64967
 N235 N 0.63710 0.85266 1.20180
 N236 N 0.65315 0.86750 1.20130
 C237 C 0.65016 0.88232 1.21775
 C238 C 0.63130 0.87633 1.22924
 C239 C 0.62348 0.85736 1.21878
 H240 H 0.66102 0.89624 1.22131
 H241 H 0.60883 0.84787 1.22306
 Cu242 Cu 0.67651 0.86569 1.17946
 Cu243 Cu 0.63480 0.82895 1.17984
 Cu244 Cu 0.67605 0.82665 1.13963
 N245 N 0.69973 0.86435 1.15749
 N246 N 0.69929 0.84969 1.14132
 C247 C 0.71686 0.85343 1.12798
 C248 C 0.72900 0.87111 1.13660
 C249 C 0.71763 0.87755 1.15527
 H250 H 0.72067 0.84389 1.11330
 H251 H 0.72185 0.89128 1.16610
 N252 N 0.65102 0.80501 1.14115
 N253 N 0.63528 0.80626 1.15627
 C254 C 0.62042 0.78983 1.15281
 C255 C 0.62708 0.77746 1.13476
 C256 C 0.64663 0.78744 1.12783
 H257 H 0.60592 0.78689 1.16288
 H258 H 0.65672 0.78238 1.11396
 H259 H 0.66841 0.82640 1.17277
 H260 H 0.65175 0.84529 1.15468
 N261 N 1.14263 1.35544 1.19826
 N262 N 1.15895 1.36976 1.19561
 C263 C 1.15806 1.38513 1.21189
 C264 C 1.14033 1.37987 1.22547
 C265 C 1.13103 1.36094 1.21636
 H266 H 1.16951 1.39889 1.21388
 H267 H 1.11664 1.35200 1.22236
 Cu268 Cu 1.17962 1.36627 1.17115
 Cu269 Cu 1.13686 1.33108 1.17790
 Cu270 Cu 1.17359 1.32464 1.13436
 N271 N 1.20041 1.36229 1.14690
 N272 N 1.19758 1.34639 1.13217
 C273 C 1.21360 1.34793 1.11673
 C274 C 1.22731 1.36560 1.12225
 C275 C 1.21853 1.37424 1.14152
 H276 H 1.21532 1.33683 1.10275
 H277 H 1.22478 1.38841 1.15070
 N278 N 1.14818 1.30448 1.13951
 N279 N 1.13376 1.30744 1.15564
 C280 C 1.11790 1.29164 1.15427
 C281 C 1.12276 1.27794 1.13663
 C282 C 1.14209 1.28644 1.12771
 H283 H 1.10409 1.28991 1.16552
 H284 H 1.15085 1.28004 1.11349
 H285 H 1.16949 1.32701 1.16814
 H286 H 1.15173 1.34539 1.15046
 N287 N 1.13432 0.84896 0.69949
 N288 N 1.14957 0.86465 0.69868
 C289 C 1.14666 0.87841 0.71617
 C290 C 1.12896 0.87037 0.72855
 C291 C 1.12163 0.85180 0.71741
 H292 H 1.15688 0.89276 0.71995
 H293 H 1.10778 0.84126 0.72192
 Cu294 Cu 1.17232 0.86384 0.67544
 Cu295 Cu 1.13116 0.82604 0.67746
 Cu296 Cu 1.17119 0.82258 0.63707
 N297 N 1.19454 0.86193 0.65181
 N298 N 1.19442 0.84517 0.63776
 C299 C 1.21174 0.84718 0.62393
 C300 C 1.22340 0.86628 0.62938
 C301 C 1.21196 0.87532 0.64712
 H302 H 1.21528 0.83583 0.61051
 H303 H 1.21622 0.89037 0.65603
 N304 N 1.14600 0.80162 0.63914
 N305 N 1.13025 0.80379 0.65406
 C306 C 1.11458 0.78819 0.65065
 C307 C 1.12081 0.77543 0.63283
 C308 C 1.14088 0.78421 0.62595
 H309 H 1.09990 0.78597 0.66063
 H310 H 1.15074 0.77856 0.61214
 H311 H 1.16499 0.82418 0.67023
 H312 H 1.14779 0.84229 0.65157
 N313 N 0.36061 0.64417 0.69887
 N314 N 0.34333 0.63078 0.69811
 C315 C 0.34483 0.61592 0.71489
 C316 C 0.36420 0.62022 0.72657
 C317 C 0.37378 0.63819 0.71588
 H318 H 0.33289 0.60288 0.71824
 H319 H 0.38902 0.64655 0.72047
 Cu320 Cu 0.32097 0.63402 0.67487
 Cu321 Cu 0.36437 0.66922 0.67868
 Cu322 Cu 0.32297 0.67744 0.63957
 N323 N 0.29834 0.63836 0.65207
 N324 N 0.29888 0.65587 0.63891
 C325 C 0.28163 0.65499 0.62475
 C326 C 0.26969 0.63579 0.62908
 C327 C 0.28077 0.62558 0.64649
 H328 H 0.27849 0.66700 0.61172
 H329 H 0.27640 0.60995 0.65434
 N330 N 0.34879 0.69729 0.64264
 N331 N 0.36502 0.69373 0.65693
 C332 C 0.38067 0.70959 0.65422
 C333 C 0.37383 0.72380 0.63747
 C334 C 0.35357 0.71556 0.63058
 H335 H 0.39575 0.71087 0.66388
 H336 H 0.34327 0.72229 0.61749
 H337 H 0.33088 0.67340 0.67272
 H338 H 0.34656 0.65601 0.65247
 N339 N 0.36042 0.15841 1.20237
 N340 N 0.34718 0.14111 1.20006
 C341 C 0.35126 0.12666 1.21686
 C342 C 0.36763 0.13586 1.23034
 C343 C 0.37294 0.15588 1.22054
 H344 H 0.34306 0.11075 1.21912
 H345 H 0.38586 0.16729 1.22569
 Cu346 Cu 0.32614 0.14034 1.17514
 Cu347 Cu 0.36334 0.18174 1.18060
 Cu348 Cu 0.33045 0.17832 1.13389
 N349 N 0.30659 0.13952 1.14908
 N350 N 0.30915 0.15401 1.13287
 C351 C 0.29382 0.15027 1.11711
 C352 C 0.28068 0.13262 1.12371
 C353 C 0.28916 0.12620 1.14417
 H354 H 0.29177 0.16033 1.10235
 H355 H 0.28291 0.11302 1.15471
 N356 N 0.35280 0.20183 1.13831
 N357 N 0.36441 0.20368 1.15676
 C358 C 0.37805 0.22134 1.15517
 C359 C 0.37498 0.23102 1.13469
 C360 C 0.35890 0.21827 1.12435
 H361 H 0.39004 0.22622 1.16759
 H362 H 0.35230 0.22076 1.10785
 H363 H 0.33127 0.17999 1.16774
 H364 H 0.35281 0.16224 1.15414
 N365 N 0.86214 0.65231 1.19460
 N366 N 0.84534 0.63827 1.19432
 C367 C 0.84688 0.62440 1.21180
 C368 C 0.86580 0.62971 1.22359
 C369 C 0.87522 0.64743 1.21216
 H370 H 0.83539 0.61103 1.21542
 H371 H 0.89035 0.65618 1.21642
 Cu372 Cu 0.82319 0.63829 1.17096
 Cu373 Cu 0.86539 0.67590 1.17217
 Cu374 Cu 0.82417 0.67836 1.13223
 N375 N 0.80005 0.64095 1.14864
 N376 N 0.80010 0.65741 1.13426
 C377 C 0.78243 0.65556 1.12080
 C378 C 0.77079 0.63678 1.12692
 C379 C 0.78239 0.62778 1.14459
 H380 H 0.77893 0.66642 1.10690
 H381 H 0.77838 0.61267 1.15357
 N382 N 0.84957 0.69835 1.13233
 N383 N 0.86515 0.69828 1.14774
 C384 C 0.87983 0.71469 1.14297
 C385 C 0.87321 0.72493 1.12338
 C386 C 0.85405 0.71416 1.11724
 H387 H 0.89441 0.71863 1.15270
 H388 H 0.84391 0.71792 1.10291
 H389 H 0.83211 0.67760 1.16620
 H390 H 0.84895 0.65919 1.14779
 N391 N 0.86110 0.15030 0.69721
 N392 N 0.84569 0.13476 0.69790
 C393 C 0.84826 0.12235 0.71623
 C394 C 0.86645 0.13016 0.72768
 C395 C 0.87443 0.14786 0.71511
 H396 H 0.83781 0.10844 0.72085
 H397 H 0.88843 0.15848 0.71902
 Cu398 Cu 0.82379 0.13196 0.67485
 Cu399 Cu 0.86092 0.17344 0.67389
 Cu400 Cu 0.81668 0.17092 0.63629
 N401 N 0.79966 0.12979 0.65399
 N402 N 0.79636 0.14566 0.63930
 C403 C 0.77839 0.14047 0.62706
 C404 C 0.77027 0.12016 0.63441
 C405 C 0.78410 0.11388 0.65155
 H406 H 0.77198 0.15044 0.61352
 H407 H 0.78276 0.09899 0.66159
 N408 N 0.83924 0.19479 0.63586
 N409 N 0.85668 0.19523 0.64921
 C410 C 0.86967 0.21266 0.64339
 C411 C 0.85976 0.22376 0.62579
 C412 C 0.84054 0.21196 0.62151
 H413 H 0.88511 0.21711 0.65143
 H414 H 0.82872 0.21528 0.60843
 H415 H 0.82719 0.17198 0.66912
 H416 H 0.84459 0.15575 0.64955
 N417 N 1.34421 0.36967 0.69701
 N418 N 1.36034 0.35500 0.69891
 C419 C 1.37296 0.36028 0.71657
 C420 C 1.36449 0.37938 0.72612
 C421 C 1.34621 0.38494 0.71327
 H422 H 1.38739 0.35106 0.72203
 H423 H 1.33503 0.39882 0.71573
 Cu424 Cu 1.36342 0.33068 0.67787
 Cu425 Cu 1.32160 0.36735 0.67386
 Cu426 Cu 1.32651 0.32327 0.63685
 N427 N 1.36656 0.30635 0.65685
 N428 N 1.35149 0.30297 0.64141
 C429 C 1.35707 0.28477 0.62967
 C430 C 1.37694 0.27649 0.63792
 C431 C 1.38249 0.29068 0.65517
 H432 H 1.34765 0.27832 0.61579
 H433 H 1.39685 0.28958 0.66589
 N434 N 1.30246 0.34566 0.63498
 N435 N 1.30040 0.36214 0.64933
 C436 C 1.28233 0.37424 0.64396
 C437 C 1.27271 0.36520 0.62521
 C438 C 1.28589 0.34709 0.61994
 H439 H 1.27664 0.38879 0.65283
 H440 H 1.28344 0.33569 0.60630
 H441 H 1.32389 0.33326 0.66940
 H442 H 1.34109 0.35109 0.65084
 N443 N 1.35081 0.86065 1.19428
 N444 N 1.36448 0.84354 1.19422
 C445 C 1.37862 0.84526 1.21147
 C446 C 1.37378 0.86458 1.22307
 C447 C 1.35611 0.87403 1.21150
 H448 H 1.39157 0.83334 1.21518
 H449 H 1.34717 0.88902 1.21588
 Cu450 Cu 1.36310 0.82066 1.17142
 Cu451 Cu 1.32573 0.86281 1.17325
 Cu452 Cu 1.31996 0.81843 1.13667
 N453 N 1.36069 0.79737 1.14902
 N454 N 1.34281 0.79586 1.13667
 C455 C 1.34475 0.77847 1.12282
 C456 C 1.36522 0.76867 1.12627
 C457 C 1.37500 0.78116 1.14301
 H458 H 1.33261 0.77412 1.11036
 H459 H 1.39131 0.77865 1.15014
 N460 N 1.29856 0.84277 1.13846
 N461 N 1.30116 0.86062 1.15099
 C462 C 1.28449 0.87506 1.14629
 C463 C 1.27082 0.86547 1.13031
 C464 C 1.28035 0.84514 1.12586
 H465 H 1.28230 0.89118 1.15399
 H466 H 1.27481 0.83330 1.11356
 H467 H 1.32345 0.82920 1.16948
 H468 H 1.33977 0.84463 1.14827
 N469 N 0.85242 0.36316 1.19901
 N470 N 0.86582 0.34589 1.19975
 C471 C 0.87756 0.34607 1.21860
 C472 C 0.87211 0.36509 1.23014
 C473 C 0.85609 0.37572 1.21720
 H474 H 0.89068 0.33437 1.22242
 H475 H 0.84795 0.39142 1.22062
 Cu476 Cu 0.87122 0.32779 1.17427
 Cu477 Cu 0.83190 0.36696 1.17381
 Cu478 Cu 0.82787 0.31902 1.14131
 N479 N 0.87132 0.30412 1.15315
 N480 N 0.85414 0.30025 1.14032
 C481 C 0.85822 0.28197 1.12814
 C482 C 0.87915 0.27425 1.13371
 C483 C 0.88699 0.28869 1.14964
 H484 H 0.84681 0.27473 1.11628
 H485 H 0.90256 0.28771 1.15853
 N486 N 0.80573 0.34305 1.14055
 N487 N 0.80731 0.36154 1.15236
 C488 C 0.78997 0.37484 1.14722
 C489 C 0.77695 0.36408 1.13154
 C490 C 0.78750 0.34405 1.12771
 H491 H 0.78703 0.39113 1.15430
 H492 H 0.78263 0.33139 1.11594
 H493 H 0.83133 0.33328 1.17265
 H494 H 0.84570 0.34704 1.14904
 N495 N 0.85081 0.86112 0.69861
 N496 N 0.86652 0.84639 0.69481
 C497 C 0.88272 0.84887 0.71009
 C498 C 0.87675 0.86599 0.72426
 C499 C 0.85639 0.87328 0.71649
 H500 H 0.89759 0.83884 0.71103
 H501 H 0.84653 0.88671 0.72321
 Cu502 Cu 0.86348 0.82503 0.67063
 Cu503 Cu 0.82471 0.86431 0.67955
 Cu504 Cu 0.81986 0.82684 0.63612
 N505 N 0.86044 0.80378 0.64634
 N506 N 0.84280 0.80422 0.63345
 C507 C 0.84402 0.78750 0.61869
 C508 C 0.86356 0.77600 0.62235
 C509 C 0.87364 0.78684 0.63996
 H510 H 0.83178 0.78417 0.60600
 H511 H 0.88926 0.78243 0.64768
 N512 N 0.79831 0.85085 0.64140
 N513 N 0.79971 0.86482 0.65822
 C514 C 0.78258 0.87929 0.65705
 C515 C 0.77001 0.87422 0.63847
 C516 C 0.78049 0.85617 0.62900
 H517 H 0.77982 0.89288 0.66843
 H518 H 0.77548 0.84767 0.61402
 H519 H 0.82352 0.83147 0.66990
 H520 H 0.83899 0.85113 0.65157
 N521 N 0.64709 0.63660 0.69578
 N522 N 0.63184 0.65208 0.69322
 C523 C 0.61642 0.64978 0.70915
 C524 C 0.62249 0.63202 0.72249
 C525 C 0.64205 0.62409 0.71360
 H526 H 0.60223 0.66055 0.71131
 H527 H 0.65184 0.61024 0.71966
 Cu528 Cu 0.63461 0.67440 0.67011
 Cu529 Cu 0.67225 0.63366 0.67575
 Cu530 Cu 0.67769 0.67458 0.63521
 N531 N 0.63739 0.69697 0.64724
 N532 N 0.65474 0.69748 0.63413
 C533 C 0.65279 0.71489 0.62010
 C534 C 0.63306 0.72573 0.62465
 C535 C 0.62373 0.71390 0.64191
 H536 H 0.66454 0.71897 0.60723
 H537 H 0.60813 0.71747 0.64994
 N538 N 0.69889 0.64978 0.63894
 N539 N 0.69645 0.63379 0.65383
 C540 C 0.71250 0.61842 0.65093
 C541 C 0.72569 0.62516 0.63345
 C542 C 0.71667 0.64512 0.62636
 H543 H 0.71435 0.60338 0.66068
 H544 H 0.72228 0.65509 0.61251
 H545 H 0.67436 0.66722 0.66846
 H546 H 0.65820 0.64963 0.64870
 N547 N 0.64759 1.13287 1.19864
 N548 N 0.63059 1.14634 1.19594
 C549 C 0.61515 1.14195 1.21126
 C550 C 0.62274 1.12497 1.22476
 C551 C 0.64356 1.11959 1.21634
 H552 H 0.59990 1.15118 1.21300
 H553 H 0.65480 1.10695 1.22254
 Cu554 Cu 0.63054 1.16999 1.17432
 Cu555 Cu 0.67306 1.13401 1.17819
 Cu556 Cu 0.67296 1.17767 1.13983
 N557 N 0.63023 1.19373 1.15278
 N558 N 0.64737 1.19743 1.13994
 C559 C 0.64325 1.21549 1.12730
 C560 C 0.62233 1.22329 1.13248
 C561 C 0.61455 1.20915 1.14871
 H562 H 0.65446 1.22230 1.11508
 H563 H 0.59886 1.21032 1.15721
 N564 N 0.69711 1.15575 1.14205
 N565 N 0.69693 1.13853 1.15579
 C566 C 0.71462 1.12548 1.15122
 C567 C 0.72649 1.13518 1.13405
 C568 C 0.71489 1.15431 1.12877
 H569 H 0.71844 1.10991 1.15949
 H570 H 0.71856 1.16575 1.11541
 H571 H 0.67090 1.16773 1.17273
 H572 H 0.65703 1.14935 1.15203
 N573 N 0.15298 0.64080 1.19621
 N574 N 0.13744 0.65605 1.19362
 C575 C 0.12213 0.65359 1.20969
 C576 C 0.12844 0.63601 1.22338
 C577 C 0.14822 0.62842 1.21432
 H578 H 0.10756 0.66393 1.21132
 H579 H 0.15815 0.61458 1.22020
 Cu580 Cu 0.13863 0.67742 1.16912
 Cu581 Cu 0.17782 0.63759 1.17516
 Cu582 Cu 0.17810 0.67465 1.13089
 N583 N 0.13951 0.69874 1.14445
 N584 N 0.15417 0.69597 1.12866
 C585 C 0.15109 0.71137 1.11278
 C586 C 0.13383 0.72508 1.11903
 C587 C 0.12688 0.71666 1.13935
 H588 H 0.16146 0.71313 1.09833
 H589 H 0.11351 0.72298 1.14945
 N590 N 0.20121 0.65230 1.13544
 N591 N 0.20127 0.63758 1.15176
 C592 C 0.21955 0.62462 1.14962
 C593 C 0.23154 0.63214 1.13144
 C594 C 0.21938 0.64957 1.12300
 H595 H 0.22414 0.61118 1.16070
 H596 H 0.22356 0.65946 1.10861
 H597 H 0.17818 0.67018 1.16531
 H598 H 0.16084 0.65038 1.14891
 N599 N 0.15401 1.13375 0.69303
 N600 N 0.13944 1.14999 0.69492
 C601 C 0.12626 1.14566 0.71246
 C602 C 0.13278 1.12554 0.72198
 C603 C 0.15039 1.11846 0.70902
 H604 H 0.11311 1.15646 0.71814
 H605 H 0.16054 1.10381 0.71153
 Cu606 Cu 0.14013 1.17564 0.67465
 Cu607 Cu 0.17850 1.13461 0.67173
 Cu608 Cu 0.18212 1.18214 0.63923
 N609 N 0.14082 1.20083 0.65372
 N610 N 0.15859 1.20381 0.64154
 C611 C 0.15617 1.22209 0.62895
 C612 C 0.13554 1.23119 0.63292
 C613 C 0.12611 1.21720 0.64881
 H614 H 0.16807 1.22742 0.61673
 H615 H 0.10983 1.21881 0.65611
 N616 N 0.20420 1.15838 0.63851
 N617 N 0.20226 1.13943 0.64951
 C618 C 0.21903 1.12581 0.64344
 C619 C 0.23209 1.13701 0.62814
 C620 C 0.22216 1.15750 0.62547
 H621 H 0.22169 1.10911 0.64976
 H622 H 0.22722 1.17049 0.61412
 H623 H 0.17976 1.16857 0.67106
 H624 H 0.16305 1.15475 0.64887
 N625 N 1.34602 0.63401 0.29754
 N626 N 1.36182 0.64913 0.29722
 C627 C 1.37510 0.64515 0.27973
 C628 C 1.36681 0.62680 0.26847
 C629 C 1.34839 0.62022 0.28023
 H630 H 1.38967 0.65477 0.27547
 H631 H 1.33797 0.60591 0.27691
 Cu632 Cu 1.36289 0.67234 0.31985
 Cu633 Cu 1.32469 0.63181 0.32119
 Cu634 Cu 1.32638 0.67203 0.36227
 N635 N 1.36347 0.69526 0.34272
 N636 N 1.34962 0.69482 0.35950
 C637 C 1.35422 0.71210 0.37305
 C638 C 1.37171 0.72421 0.36416
 C639 C 1.37708 0.71298 0.34485
 H640 H 1.34534 0.71575 0.38815
 H641 H 1.39013 0.71714 0.33334
 N642 N 1.30429 0.64737 0.36175
 N643 N 1.30433 0.63188 0.34624
 C644 C 1.28846 0.61677 0.35057
 C645 C 1.27764 0.62298 0.36958
 C646 C 1.28789 0.64260 0.37623
 H647 H 1.28475 0.60239 0.34044
 H648 H 1.28392 0.65238 0.39071
 H649 H 1.32410 0.66575 0.32910
 H650 H 1.34345 0.64787 0.34560
 N651 N 1.34616 1.13934 0.80169
 N652 N 1.36281 1.15343 0.80335
 C653 C 1.37641 1.15026 0.78586
 C654 C 1.36726 1.13367 0.77260
 C655 C 1.34819 1.12723 0.78322
 H656 H 1.39160 1.15940 0.78287
 H657 H 1.33695 1.11410 0.77819
 Cu658 Cu 1.36419 1.17470 0.82810
 Cu659 Cu 1.32371 1.13603 0.82391
 Cu660 Cu 1.32099 1.17602 0.86428
 N661 N 1.36075 1.19853 0.85014
 N662 N 1.34333 1.19935 0.86319
 C663 C 1.34476 1.21744 0.87623
 C664 C 1.36419 1.22861 0.87138
 C665 C 1.37404 1.21611 0.85479
 H666 H 1.33289 1.22173 0.88890
 H667 H 1.38964 1.21963 0.84670
 N668 N 1.30023 1.15073 0.86262
 N669 N 1.30199 1.13499 0.84754
 C670 C 1.28644 1.11933 0.85107
 C671 C 1.27416 1.12558 0.86918
 C672 C 1.28319 1.14563 0.87608
 H673 H 1.28394 1.10467 0.84097
 H674 H 1.27789 1.15554 0.89003
 H675 H 1.32439 1.17035 0.83123
 H676 H 1.34007 1.15154 0.85077
 N677 N 0.85286 0.63862 0.79785
 N678 N 0.86968 0.65225 0.80082
 C679 C 0.88486 0.64872 0.78496
 C680 C 0.87709 0.63203 0.77128
 C681 C 0.85669 0.62604 0.77984
 H682 H 0.90025 0.65782 0.78327
 H683 H 0.84565 0.61326 0.77360
 Cu684 Cu 0.86976 0.67366 0.82465
 Cu685 Cu 0.82806 0.63754 0.81840
 Cu686 Cu 0.82873 0.67548 0.86211
 N687 N 0.87009 0.69514 0.84835
 N688 N 0.85378 0.69671 0.86266
 C689 C 0.85811 0.71399 0.87640
 C690 C 0.87838 0.72328 0.87041
 C691 C 0.88535 0.71091 0.85259
 H692 H 0.84749 0.71929 0.88979
 H693 H 0.90022 0.71367 0.84304
 N694 N 0.80512 0.65243 0.85813
 N695 N 0.80464 0.63880 0.84095
 C696 C 0.78695 0.62522 0.84263
 C697 C 0.77574 0.63020 0.86186
 C698 C 0.78775 0.64749 0.87139
 H699 H 0.78297 0.61198 0.83117
 H700 H 0.78413 0.65572 0.88687
 H701 H 0.82960 0.67064 0.82854
 H702 H 0.84482 0.65000 0.84599
 N703 N 0.84273 1.13184 0.30197
 N704 N 0.85903 1.14637 0.30318
 C705 C 0.87253 1.14329 0.28561
 C706 C 0.86374 1.12622 0.27274
 C707 C 0.84494 1.11943 0.28369
 H708 H 0.88739 1.15284 0.28227
 H709 H 0.83394 1.10599 0.27895
 Cu710 Cu 0.86021 1.16810 0.32749
 Cu711 Cu 0.82032 1.12884 0.32435
 Cu712 Cu 0.81761 1.16938 0.36438
 N713 N 0.85725 1.19184 0.34959
 N714 N 0.84021 1.19265 0.36313
 C715 C 0.84215 1.21071 0.37620
 C716 C 0.86149 1.22186 0.37076
 C717 C 0.87070 1.20937 0.35382
 H718 H 0.83064 1.21502 0.38919
 H719 H 0.88603 1.21288 0.34524
 N720 N 0.79661 1.14406 0.36286
 N721 N 0.79858 1.12805 0.34807
 C722 C 0.78311 1.11233 0.35178
 C723 C 0.77058 1.11880 0.36964
 C724 C 0.77941 1.13908 0.37624
 H725 H 0.78079 1.09746 0.34195
 H726 H 0.77395 1.14918 0.39000
 H727 H 0.82045 1.16324 0.33136
 H728 H 0.83666 1.14496 0.35086
 N729 N 0.65459 0.36777 0.30738
 N730 N 0.63960 0.35216 0.30427
 C731 C 0.62741 0.35732 0.28630
 C732 C 0.63499 0.37742 0.27788
 C733 C 0.65225 0.38365 0.29174
 H734 H 0.61392 0.34731 0.27982
 H735 H 0.66282 0.39815 0.29021
 Cu736 Cu 0.63717 0.32691 0.32426
 Cu737 Cu 0.67721 0.36526 0.33019
 Cu738 Cu 0.67576 0.31799 0.36361
 N739 N 0.63537 0.30145 0.34403
 N740 N 0.65101 0.29751 0.35875
 C741 C 0.64570 0.27902 0.37026
 C742 C 0.62547 0.27115 0.36258
 C743 C 0.61942 0.28580 0.34585
 H744 H 0.65542 0.27228 0.38381
 H745 H 0.60451 0.28528 0.33587
 N746 N 0.69904 0.34110 0.36595
 N747 N 0.69880 0.35952 0.35391
 C748 C 0.71592 0.37254 0.35997
 C749 C 0.72763 0.36181 0.37648
 C750 C 0.71654 0.34187 0.37992
 H751 H 0.71987 0.38857 0.35273
 H752 H 0.72067 0.32910 0.39192
 H753 H 0.67670 0.33066 0.33183
 H754 H 0.65926 0.34582 0.35237
 N755 N 0.65624 0.86725 0.80524
 N756 N 0.64020 0.85244 0.80366
 C757 C 0.62745 0.85743 0.78600
 C758 C 0.63576 0.87650 0.77612
 C759 C 0.65407 0.88233 0.78876
 H760 H 0.61298 0.84811 0.78079
 H761 H 0.66507 0.89633 0.78611
 Cu762 Cu 0.63708 0.82848 0.82520
 Cu763 Cu 0.67876 0.86567 0.82847
 Cu764 Cu 0.67406 0.82245 0.86655
 N765 N 0.63465 0.80425 0.84653
 N766 N 0.64953 0.80170 0.86229
 C767 C 0.64441 0.78351 0.87433
 C768 C 0.62515 0.77432 0.86585
 C769 C 0.61936 0.78790 0.84820
 H770 H 0.65383 0.77752 0.88842
 H771 H 0.60527 0.78582 0.83727
 N772 N 0.69770 0.84515 0.86804
 N773 N 0.69982 0.86122 0.85319
 C774 C 0.71775 0.87360 0.85836
 C775 C 0.72715 0.86514 0.87751
 C776 C 0.71403 0.84711 0.88323
 H777 H 0.72344 0.88798 0.84911
 H778 H 0.71637 0.83612 0.89726
 H779 H 0.67656 0.83161 0.83363
 H780 H 0.65919 0.84975 0.85169
 N781 N 0.15113 0.37094 0.80164
 N782 N 0.13490 0.35631 0.80157
 C783 C 0.12066 0.36149 0.78509
 C784 C 0.12832 0.38056 0.77468
 C785 C 0.14767 0.38610 0.78557
 H786 H 0.10576 0.35229 0.78104
 H787 H 0.15862 0.39988 0.78182
 Cu788 Cu 0.13401 0.33245 0.82343
 Cu789 Cu 0.17575 0.36912 0.82209
 Cu790 Cu 0.17469 0.32708 0.86173
 N791 N 0.13314 0.30912 0.84576
 N792 N 0.14928 0.30643 0.86025
 C793 C 0.14461 0.28848 0.87298
 C794 C 0.12426 0.27975 0.86634
 C795 C 0.11754 0.29337 0.84903
 H796 H 0.15499 0.28245 0.88636
 H797 H 0.10261 0.29175 0.83923
 N798 N 0.19874 0.34991 0.85992
 N799 N 0.19929 0.36504 0.84399
 C800 C 0.21752 0.37769 0.84625
 C801 C 0.22904 0.37060 0.86463
 C802 C 0.21665 0.35303 0.87315
 H803 H 0.22182 0.39167 0.83576
 H804 H 0.22048 0.34328 0.88776
 H805 H 0.17406 0.33487 0.82880
 H806 H 0.15848 0.35359 0.84784
 N807 N 0.14826 0.85984 0.30464
 N808 N 0.13389 0.84332 0.30570
 C809 C 0.11987 0.84468 0.28832
 C810 C 0.12554 0.86320 0.27584
 C811 C 0.14356 0.87250 0.28674
 H812 H 0.10629 0.83329 0.28524
 H813 H 0.15268 0.88725 0.28185
 Cu814 Cu 0.13385 0.82191 0.33002
 Cu815 Cu 0.17218 0.86347 0.32638
 Cu816 Cu 0.17767 0.82067 0.36427
 N817 N 0.13889 0.79732 0.35063
 N818 N 0.15736 0.79601 0.36216
 C819 C 0.15690 0.77777 0.37508
 C820 C 0.13670 0.76734 0.37209
 C821 C 0.12564 0.78014 0.35637
 H822 H 0.16945 0.77367 0.38724
 H823 H 0.10906 0.77743 0.35001
 N824 N 0.19665 0.84686 0.36450
 N825 N 0.19512 0.86331 0.35002
 C826 C 0.21027 0.87906 0.35539
 C827 C 0.22115 0.87220 0.37449
 C828 C 0.21215 0.85182 0.37970
 H829 H 0.21270 0.89461 0.34659
 H830 H 0.21658 0.84144 0.39370
 H831 H 0.17320 0.82989 0.33077
 H832 H 0.15741 0.84659 0.35173
 O833 O 0.97847 0.92262 0.88765
 O834 O 0.97843 0.89709 0.86143
 C835 C 0.97060 0.91491 0.86965
 C836 C 0.95174 0.92642 0.85857
 C837 C 0.94148 0.91709 0.83969
 H838 H 0.94770 0.90161 0.83288
 O839 O 1.02237 1.08821 0.89237
 O840 O 1.02090 1.11564 0.86799
 C841 C 1.02914 1.09725 0.87457
 C842 C 1.04727 1.08653 0.86187
 C843 C 1.05505 1.09596 0.84204
 H844 H 1.04637 1.11029 0.83555
 O845 O 0.89153 0.98235 0.91889
 O846 O 0.86614 0.98215 0.89251
 C847 C 0.87390 0.97433 0.91061
 C848 C 0.86283 0.95510 0.92157
 C849 C 0.84379 0.94570 0.91202
 H850 H 0.83635 0.95392 0.89788
 O851 O 1.10801 1.02804 0.91954
 O852 O 1.13390 1.02920 0.89386
 C853 C 1.12604 1.03601 0.91214
 C854 C 1.13755 1.05383 0.92466
 C855 C 1.15686 1.06389 0.91623
 H856 H 1.16376 1.05818 0.90070
 O857 O 0.92210 0.89263 0.97768
 O858 O 0.89674 0.86609 0.97787
 C859 C 0.91451 0.87436 0.97014
 C860 C 0.92552 0.86300 0.95140
 C861 C 0.91587 0.84372 0.94254
 H862 H 0.90174 0.83628 0.95077
 O863 O 1.08063 1.11478 0.98211
 O864 O 1.10663 1.14071 0.98278
 C865 C 1.08863 1.13306 0.97491
 C866 C 1.07755 1.14515 0.95653
 C867 C 1.08726 1.16451 0.94781
 H868 H 1.10144 1.17147 0.95630
 O869 O 0.92119 1.02696 0.88947
 O870 O 0.89602 1.02721 0.86289
 C871 C 0.91373 1.03502 0.87147
 C872 C 0.92552 1.05406 0.86094
 C873 C 0.91845 1.06284 0.84044
 H874 H 0.90464 1.05519 0.83178
 O875 O 1.07713 0.98589 0.88789
 O876 O 1.10296 0.98685 0.86215
 C877 C 1.08503 0.97873 0.86983
 C878 C 1.07390 0.96012 0.85807
 C879 C 1.08233 0.95266 0.83784
 H880 H 1.09649 0.96111 0.83068
 O881 O 1.02299 0.89240 0.91747
 O882 O 1.02265 0.86683 0.89131
 C883 C 1.03065 0.87449 0.90927
 C884 C 1.04964 0.86285 0.92007
 C885 C 1.05824 0.84334 0.91062
 H886 H 1.04952 0.83599 0.89677
 O887 O 0.97867 1.11480 0.92561
 O888 O 0.97726 1.14243 0.90148
 C889 C 0.96996 1.13287 0.91883
 C890 C 0.95053 1.14237 0.93063
 C891 C 0.94150 1.16289 0.92374
 H892 H 0.94939 1.17225 0.91056
 O893 O 0.88381 1.07690 0.97975
 O894 O 0.85835 1.10329 0.98036
 C895 C 0.86616 1.08554 0.97206
 C896 C 0.85541 1.07572 0.95234
 C897 C 0.83643 1.08563 0.94317
 H898 H 0.82837 1.09895 0.95211
 O899 O 1.11176 0.92325 0.97460
 O900 O 1.13820 0.89790 0.97370
 C901 C 1.12960 0.91587 0.96629
 C902 C 1.13984 0.92796 0.94731
 C903 C 1.15896 0.91958 0.93690
 H904 H 1.16665 0.90449 0.94316
 O905 O 0.97939 1.08663 0.89319
 O906 O 0.97797 1.11420 0.86895
 C907 C 0.97132 1.09523 0.87569
 C908 C 0.95375 1.08336 0.86320
 C909 C 0.94656 1.09171 0.84270
 H910 H 0.95416 1.10668 0.83611
 O911 O 1.02186 0.92367 0.88752
 O912 O 1.02202 0.89827 0.86120
 C913 C 1.02939 0.91645 0.86928
 C914 C 1.04719 0.92924 0.85782
 C915 C 1.05614 0.92189 0.83758
 H916 H 1.04967 0.90694 0.82981
 O917 O 1.10851 0.98449 0.91731
 O918 O 1.13432 0.98567 0.89156
 C919 C 1.12652 0.97716 0.90919
 C920 C 1.13821 0.95801 0.91971
 C921 C 1.15754 0.94957 0.90994
 H922 H 1.16453 0.95824 0.89588
 O923 O 0.88796 1.02565 0.91693
 O924 O 0.86278 1.02575 0.89036
 C925 C 0.86986 1.03304 0.90875
 C926 C 0.85743 1.05061 0.92071
 C927 C 0.83854 1.06104 0.91142
 H928 H 0.83243 1.05582 0.89536
 O929 O 0.91516 1.10668 0.98091
 O930 O 0.88957 1.13296 0.98145
 C931 C 0.90777 1.12532 0.97406
 C932 C 0.92014 1.13836 0.95721
 C933 C 0.91160 1.15895 0.95008
 H934 H 0.89616 1.16496 0.95692
 O935 O 1.08318 0.89100 0.97467
 O936 O 1.10936 0.86538 0.97413
 C937 C 1.09121 0.87316 0.96658
 C938 C 1.07956 0.86207 0.94770
 C939 C 1.08829 0.84279 0.93744
 H940 H 1.10348 0.83544 0.94372
 O941 O 1.07916 1.02979 0.88764
 O942 O 1.10496 1.03072 0.86189
 C943 C 1.08714 1.03833 0.87003
 C944 C 1.07584 1.05778 0.85956
 C945 C 1.08382 1.06776 0.83992
 H946 H 1.09819 1.06066 0.83186
 O947 O 0.92068 0.98301 0.88763
 O948 O 0.89542 0.98334 0.86113
 C949 C 0.91313 0.97543 0.86943
 C950 C 0.92420 0.95638 0.85834
 C951 C 0.91466 0.94713 0.83922
 H952 H 0.90064 0.95545 0.83164
 O953 O 1.02254 1.11751 0.92377
 O954 O 1.02124 1.14498 0.89946
 C955 C 1.02986 1.13606 0.91652
 C956 C 1.04917 1.14671 0.92765
 C957 C 1.05974 1.16568 0.91853
 H958 H 1.05324 1.17309 0.90348
 O959 O 0.97944 0.89190 0.91786
 O960 O 0.97891 0.86629 0.89173
 C961 C 0.97150 0.87398 0.90988
 C962 C 0.95291 0.86266 0.92157
 C963 C 0.94261 0.84345 0.91271
 H964 H 0.94873 0.83621 0.89750
 O965 O 1.10924 1.08250 0.98205
 O966 O 1.13509 1.10859 0.98251
 C967 C 1.12711 1.09065 0.97454
 C968 C 1.13819 1.08001 0.95557
 C969 C 1.15768 1.08940 0.94721
 H970 H 1.16558 1.10290 0.95614
 O971 O 0.89115 0.92260 0.97720
 O972 O 0.86587 0.89600 0.97641
 C973 C 0.87362 0.91425 0.96886
 C974 C 0.86270 0.92552 0.94970
 C975 C 0.84390 0.91605 0.93941
 H976 H 0.83695 0.90069 0.94588
 Cu977 Cu 1.00072 0.91015 0.90522
 Cu978 Cu 1.00059 0.87953 0.87385
 Cu979 Cu 1.00095 1.09919 0.91132
 Cu980 Cu 0.99911 1.13221 0.88220
 Cu981 Cu 0.90788 1.00469 0.90577
 Cu982 Cu 0.87766 1.00457 0.87407
 Cu983 Cu 1.09056 1.00705 0.90558
 Cu984 Cu 1.12158 1.00815 0.87479
 C985 C 0.94287 0.94603 0.86779
 H986 H 0.95014 0.95293 0.88271
 C987 C 0.92259 0.92709 0.83014
 C988 C 1.05758 1.06734 0.87025
 H989 H 1.05167 1.06011 0.88559
 C990 C 1.07364 1.08706 0.83092
 C991 C 0.87205 0.94504 0.94055
 H992 H 0.88689 0.95210 0.94789
 C993 C 0.83453 0.92581 0.92031
 C994 C 1.12833 1.06203 0.94438
 H995 H 1.11305 1.05493 0.95064
 C996 C 1.16675 1.08200 0.92723
 C997 C 0.94416 0.87226 0.94098
 H998 H 0.95143 0.88739 0.94761
 C999 C 0.92375 0.83417 0.92294
 C1000 C 1.05837 1.13655 0.94656
 H1001 H 1.05091 1.12153 0.95325
 C1002 C 1.07915 1.17455 0.92831
 C1003 C 0.94337 1.06435 0.87205
 H1004 H 0.94873 1.05802 0.88801
 C1005 C 0.92909 1.08154 0.83109
 C1006 C 1.05613 0.94852 0.86779
 H1007 H 1.04977 0.95408 0.88359
 C1008 C 1.07360 0.93369 0.82738
 C1009 C 1.06025 0.87192 0.93874
 H1010 H 1.05376 0.88709 0.94596
 C1011 C 1.07793 0.83347 0.91858
 C1012 C 0.93979 1.13025 0.94756
 H1013 H 0.94630 1.11421 0.95273
 C1014 C 0.92211 1.17132 0.93344
 C1015 C 0.86556 1.05806 0.94119
 H1016 H 0.88039 1.05060 0.94816
 C1017 C 0.82814 1.07893 0.92242
 C1018 C 1.12956 0.94720 0.93849
 H1019 H 1.11450 0.95350 0.94594
 C1020 C 1.16776 0.93008 0.91796
 O1021 O 1.02559 0.92095 1.11130
 O1022 O 1.02584 0.89388 1.13612
 C1023 C 1.03328 0.91234 1.12904
 C1024 C 1.05154 0.92378 1.14094
 C1025 C 1.05992 0.91583 1.16134
 H1026 H 1.05234 0.90143 1.16914
 O1027 O 0.97766 1.07964 1.11112
 O1028 O 0.97739 1.10547 1.13707
 C1029 C 0.97016 1.08721 1.12927
 C1030 C 0.95239 1.07519 1.14120
 C1031 C 0.94500 1.08323 1.16164
 H1032 H 0.95278 1.09790 1.16868
 O1033 O 0.88781 1.02055 1.08294
 O1034 O 0.86261 1.01921 1.10929
 C1035 C 0.86970 1.02733 1.09119
 C1036 C 0.85703 1.04515 1.07983
 C1037 C 0.83716 1.05310 1.08881
 H1038 H 0.83111 1.04584 1.10406
 O1039 O 1.11115 0.97947 1.07832
 O1040 O 1.13717 0.97941 1.10409
 C1041 C 1.12937 0.97206 1.08587
 C1042 C 1.14147 0.95443 1.07371
 C1043 C 1.16204 0.94701 1.08164
 H1044 H 1.16905 0.95455 1.09638
 O1045 O 1.08318 0.89158 1.01820
 O1046 O 1.10950 0.86607 1.01822
 C1047 C 1.09155 0.87384 1.02617
 C1048 C 1.08051 0.86288 1.04537
 C1049 C 1.08952 0.84362 1.05555
 H1050 H 1.10458 0.83629 1.04911
 O1051 O 0.91517 1.10535 1.02364
 O1052 O 0.88954 1.13161 1.02399
 C1053 C 0.90764 1.12354 1.03124
 C1054 C 0.91944 1.13527 1.04919
 C1055 C 0.91021 1.15471 1.05797
 H1056 H 0.89563 1.16183 1.05022
 O1057 O 0.92020 0.97742 1.11164
 O1058 O 0.89507 0.97591 1.13804
 C1059 C 0.91307 0.96902 1.12958
 C1060 C 0.92556 0.95067 1.14031
 C1061 C 0.91746 0.94040 1.15961
 H1062 H 0.90220 0.94643 1.16687
 O1063 O 1.08092 1.02224 1.10947
 O1064 O 1.10705 1.02272 1.13513
 C1065 C 1.08892 1.03023 1.12723
 C1066 C 1.07740 1.04901 1.13823
 C1067 C 1.08679 1.05948 1.15687
 H1068 H 1.10223 1.05332 1.16378
 O1069 O 0.98189 0.89291 1.07894
 O1070 O 0.98236 0.86591 1.10383
 C1071 C 0.97431 0.87457 1.08635
 C1072 C 0.95523 0.86354 1.07541
 C1073 C 0.94620 0.84437 1.08509
 H1074 H 0.95440 0.83690 1.09926
 O1075 O 1.02020 1.11238 1.08173
 O1076 O 1.01933 1.13824 1.10763
 C1077 C 1.02750 1.13055 1.08993
 C1078 C 1.04644 1.14209 1.07931
 C1079 C 1.05666 1.16077 1.08928
 H1080 H 1.05004 1.16756 1.10449
 O1081 O 0.89032 0.92221 1.02081
 O1082 O 0.86479 0.89584 1.01986
 C1083 C 0.87231 0.91385 1.02798
 C1084 C 0.86040 0.92448 1.04658
 C1085 C 0.84029 0.91547 1.05411
 H1086 H 0.83336 0.90113 1.04571
 O1087 O 1.11159 1.08421 1.02529
 O1088 O 1.13744 1.11028 1.02566
 C1089 C 1.12965 1.09211 1.03306
 C1090 C 1.14122 1.08024 1.05130
 C1091 C 1.16047 1.08916 1.06135
 H1092 H 1.16745 1.10469 1.05533
 O1093 O 1.02085 1.07943 1.10929
 O1094 O 1.02045 1.10527 1.13524
 C1095 C 1.02848 1.08743 1.12717
 C1096 C 1.04760 1.07664 1.13817
 C1097 C 1.05695 1.08650 1.15697
 H1098 H 1.04880 1.10072 1.16437
 O1099 O 0.98227 0.92239 1.11013
 O1100 O 0.98273 0.89526 1.13489
 C1101 C 0.97485 0.91359 1.12778
 C1102 C 0.95612 0.92405 1.13964
 C1103 C 0.94816 0.91443 1.15929
 H1104 H 0.95741 0.90084 1.16654
 O1105 O 1.11235 1.02298 1.08053
 O1106 O 1.13839 1.02259 1.10630
 C1107 C 1.13035 1.03060 1.08858
 C1108 C 1.14156 1.04971 1.07801
 C1109 C 1.16089 1.05851 1.08753
 H1110 H 1.16853 1.04984 1.10132
 O1111 O 0.88903 0.97735 1.08208
 O1112 O 0.86366 0.97572 1.10825
 C1113 C 0.87130 0.96899 1.08983
 C1114 C 0.85995 0.95100 1.07726
 C1115 C 0.83980 0.94169 1.08461
 H1116 H 0.83203 0.94812 1.09942
 O1117 O 1.07899 1.11252 1.02512
 O1118 O 1.10488 1.13856 1.02558
 C1119 C 1.08674 1.13058 1.03282
 C1120 C 1.07521 1.14194 1.05106
 C1121 C 1.08470 1.16087 1.06070
 H1122 H 1.09922 1.16823 1.05313
 O1123 O 0.92143 0.89237 1.02114
 O1124 O 0.89586 0.86604 1.02122
 C1125 C 0.91370 0.87428 1.02902
 C1126 C 0.92529 0.86326 1.04790
 C1127 C 0.91628 0.84414 1.05825
 H1128 H 0.90098 0.83690 1.05211
 O1129 O 1.08298 0.97869 1.11083
 O1130 O 1.10896 0.97909 1.13664
 C1131 C 1.09105 0.97122 1.12888
 C1132 C 1.07981 0.95281 1.14065
 C1133 C 1.08810 0.94473 1.16086
 H1134 H 1.10283 0.95235 1.16779
 O1135 O 0.91892 1.02092 1.11256
 O1136 O 0.89397 1.01978 1.13913
 C1137 C 0.91153 1.02808 1.13088
 C1138 C 0.92340 1.04662 1.14214
 C1139 C 0.91606 1.05514 1.16258
 H1140 H 0.90182 1.04774 1.17067
 O1141 O 0.97672 1.10923 1.07978
 O1142 O 0.97586 1.13494 1.10583
 C1143 C 0.96829 1.12675 1.08792
 C1144 C 0.94887 1.13704 1.07697
 C1145 C 0.93892 1.15617 1.08596
 H1146 H 0.94603 1.16393 1.10054
 O1147 O 1.02542 0.89350 1.07788
 O1148 O 1.02548 0.86658 1.10284
 C1149 C 1.03297 0.87507 1.08506
 C1150 C 1.05134 0.86360 1.07346
 C1151 C 1.05989 0.84390 1.08250
 H1152 H 1.05126 0.83624 1.09621
 O1153 O 1.11355 0.92198 1.01806
 O1154 O 1.14013 0.89676 1.01758
 C1155 C 1.13183 0.91448 1.02562
 C1156 C 1.14292 0.92615 1.04446
 C1157 C 1.16340 0.91864 1.05311
 H1158 H 1.17172 0.90454 1.04563
 O1159 O 0.88315 1.07650 1.02351
 O1160 O 0.85758 1.10278 1.02395
 C1161 C 0.86541 1.08464 1.03153
 C1162 C 0.85458 1.07324 1.05054
 C1163 C 0.83464 1.08117 1.05987
 H1164 H 0.82623 1.09532 1.05245
 Cu1165 Cu 1.00389 0.91022 1.09211
 Cu1166 Cu 1.00414 0.87762 1.12180
 Cu1167 Cu 0.99888 1.09272 1.09276
 Cu1168 Cu 0.99817 1.12356 1.12403
 Cu1169 Cu 0.90876 0.91013 0.99929
 Cu1170 Cu 0.87829 0.87836 0.99878
 Cu1171 Cu 1.09534 0.90939 0.99643
 Cu1172 Cu 1.12691 0.87900 0.99583
 Cu1173 Cu 0.90165 1.08843 1.00190
 Cu1174 Cu 0.87112 1.12022 1.00244
 Cu1175 Cu 1.09257 1.09584 1.00367
 Cu1176 Cu 1.12361 1.12711 1.00418
 Cu1177 Cu 0.90654 0.99920 1.09473
 Cu1178 Cu 0.87634 0.99752 1.12640
 Cu1179 Cu 1.09419 1.00077 1.09225
 Cu1180 Cu 1.12546 1.00084 1.12312
 C1181 C 1.06141 0.94245 1.13104
 H1182 H 1.05521 0.94852 1.11527
 C1183 C 1.07810 0.92648 1.17167
 C1184 C 0.94173 1.05671 1.13172
 H1185 H 0.94727 1.05065 1.11579
 C1186 C 0.92699 1.07334 1.17255
 C1187 C 0.86538 1.05505 1.06055
 H1188 H 0.88087 1.04907 1.05376
 C1189 C 0.82562 1.07093 1.07890
 C1190 C 1.13219 0.94417 1.05490
 H1191 H 1.11621 0.94978 1.04882
 C1192 C 1.17317 0.92924 1.07156
 C1193 C 1.06152 0.87285 1.05472
 H1194 H 1.05493 0.88815 1.04773
 C1195 C 1.07949 0.83429 1.07452
 C1196 C 0.93893 1.12661 1.05858
 H1197 H 0.94599 1.11142 1.05196
 C1198 C 0.91930 1.16481 1.07678
 C1199 C 0.94490 0.94235 1.13044
 H1200 H 0.95086 0.94968 1.11516
 C1201 C 0.92845 0.92201 1.16916
 C1202 C 1.05777 1.05776 1.12899
 H1203 H 1.05074 1.05026 1.11424
 C1204 C 1.07685 1.07853 1.16605
 C1205 C 0.94480 0.87285 1.05672
 H1206 H 0.95158 0.88788 1.04938
 C1207 C 0.92647 0.83494 1.07719
 C1208 C 1.05589 1.13286 1.06020
 H1209 H 1.04866 1.11805 1.05286
 C1210 C 1.07615 1.16996 1.08027
 C1211 C 0.86992 0.94242 1.05806
 H1212 H 0.88561 0.94917 1.05247
 C1213 C 0.82969 0.92402 1.07296
 C1214 C 1.13198 1.06049 1.05977
 H1215 H 1.11687 1.05384 1.05259
 C1216 C 1.17018 1.07853 1.07982
 O1217 O 0.98050 0.41840 0.38805
 O1218 O 0.98098 0.39328 0.36145
 C1219 C 0.97319 0.41119 0.36966
 C1220 C 0.95509 0.42364 0.35823
 C1221 C 0.94631 0.41630 0.33781
 H1222 H 0.95321 0.40170 0.32985
 O1223 O 1.02545 0.58026 0.38460
 O1224 O 1.02689 0.60652 0.35903
 C1225 C 1.03431 0.58846 0.36724
 C1226 C 1.05380 0.57701 0.35712
 C1227 C 1.06454 0.58563 0.33813
 H1228 H 1.05822 0.60068 0.33041
 O1229 O 0.89199 0.47968 0.41646
 O1230 O 0.86621 0.47944 0.39046
 C1231 C 0.87417 0.47167 0.40839
 C1232 C 0.86287 0.45265 0.41942
 C1233 C 0.84224 0.44518 0.41146
 H1234 H 0.83475 0.45370 0.39751
 O1235 O 1.11264 0.52153 0.42035
 O1236 O 1.13993 0.52064 0.39617
 C1237 C 1.13108 0.52898 0.41330
 C1238 C 1.14171 0.54805 0.42482
 C1239 C 1.16081 0.55854 0.41623
 H1240 H 1.16841 0.55218 0.40130
 O1241 O 0.92146 0.38330 0.47266
 O1242 O 0.89482 0.35810 0.47147
 C1243 C 0.91329 0.36553 0.46457
 C1244 C 0.92518 0.35413 0.44635
 C1245 C 0.91722 0.33411 0.43703
 H1246 H 0.90269 0.32615 0.44402
 O1247 O 1.07961 0.60922 0.47874
 O1248 O 1.10504 0.63570 0.47928
 C1249 C 1.08723 0.62756 0.47135
 C1250 C 1.07549 0.63908 0.45296
 C1251 C 1.08254 0.66018 0.44539
 H1252 H 1.09630 0.66852 0.45348
 O1253 O 0.92147 0.52334 0.38492
 O1254 O 0.89570 0.52293 0.35892
 C1255 C 0.91377 0.53060 0.36659
 C1256 C 0.92591 0.54844 0.35453
 C1257 C 0.91803 0.55735 0.33431
 H1258 H 0.90309 0.55065 0.32684
 O1259 O 1.08307 0.47751 0.38991
 O1260 O 1.11037 0.47623 0.36576
 C1261 C 1.09182 0.46909 0.37275
 C1262 C 1.08055 0.45038 0.36127
 C1263 C 1.09000 0.44061 0.34233
 H1264 H 1.10542 0.44711 0.33578
 O1265 O 1.02324 0.38737 0.41878
 O1266 O 1.02474 0.36218 0.39229
 C1267 C 1.03166 0.36975 0.41077
 C1268 C 1.05009 0.35854 0.42296
 C1269 C 1.06101 0.33980 0.41407
 H1270 H 1.05559 0.33301 0.39835
 O1271 O 0.97999 0.61032 0.41264
 O1272 O 0.98102 0.63648 0.38691
 C1273 C 0.97255 0.62849 0.40447
 C1274 C 0.95359 0.64000 0.41537
 C1275 C 0.94325 0.65884 0.40558
 H1276 H 0.94928 0.66540 0.38999
 O1277 O 0.89105 0.58378 0.47330
 O1278 O 0.86550 0.61009 0.47183
 C1279 C 0.87320 0.59157 0.46513
 C1280 C 0.86172 0.57914 0.44731
 C1281 C 0.84100 0.58622 0.43920
 H1282 H 0.83295 0.60046 0.44672
 O1283 O 1.10666 0.41875 0.48315
 O1284 O 1.13267 0.39294 0.48440
 C1285 C 1.12497 0.41100 0.47631
 C1286 C 1.13726 0.42254 0.45832
 C1287 C 1.15734 0.41353 0.45086
 H1288 H 1.16335 0.39840 0.45852
 O1289 O 0.98183 0.57822 0.38396
 O1290 O 0.98303 0.60443 0.35830
 C1291 C 0.97487 0.58638 0.36585
 C1292 C 0.95633 0.57537 0.35410
 C1293 C 0.94832 0.58405 0.33408
 H1294 H 0.95643 0.59851 0.32700
 O1295 O 1.02388 0.41841 0.38888
 O1296 O 1.02443 0.39328 0.36228
 C1297 C 1.03190 0.41111 0.37087
 C1298 C 1.05084 0.42262 0.36023
 C1299 C 1.06010 0.41368 0.34095
 H1300 H 1.05176 0.39990 0.33291
 O1301 O 1.11076 0.47787 0.42288
 O1302 O 1.13818 0.47680 0.39886
 C1303 C 1.12907 0.46966 0.41652
 C1304 C 1.13947 0.45110 0.42930
 C1305 C 1.15981 0.44194 0.42242
 H1306 H 1.16834 0.44923 0.40840
 O1307 O 0.89215 0.52374 0.41664
 O1308 O 0.86649 0.52312 0.39054
 C1309 C 0.87414 0.53111 0.40848
 C1310 C 0.86225 0.54954 0.41963
 C1311 C 0.84169 0.55703 0.41153
 H1312 H 0.83471 0.54900 0.39710
 O1313 O 0.92281 0.61280 0.47306
 O1314 O 0.89732 0.63913 0.47173
 C1315 C 0.91521 0.63062 0.46455
 C1316 C 0.92632 0.64108 0.44531
 C1317 C 0.91679 0.66000 0.43562
 H1318 H 0.90279 0.66787 0.44361
 O1319 O 1.07737 0.38728 0.48143
 O1320 O 1.10337 0.36145 0.48277
 C1321 C 1.08588 0.36941 0.47399
 C1322 C 1.07614 0.35834 0.45422
 C1323 C 1.08646 0.33945 0.44528
 H1324 H 1.10022 0.33199 0.45414
 O1325 O 1.08295 0.52123 0.38927
 O1326 O 1.11016 0.52008 0.36502
 C1327 C 1.09191 0.52838 0.37161
 C1328 C 1.08154 0.54722 0.35918
 C1329 C 1.09151 0.55562 0.33990
 H1330 H 1.10553 0.54668 0.33335
 O1331 O 0.92378 0.48000 0.38805
 O1332 O 0.89806 0.47963 0.36199
 C1333 C 0.91606 0.47211 0.37015
 C1334 C 0.92753 0.45361 0.35878
 C1335 C 0.91911 0.44599 0.33860
 H1336 H 0.90451 0.45393 0.33176
 O1337 O 1.02297 0.60788 0.41742
 O1338 O 1.02402 0.63443 0.39207
 C1339 C 1.03060 0.62629 0.41046
 C1340 C 1.04765 0.63823 0.42344
 C1341 C 1.05483 0.65920 0.41629
 H1342 H 1.04755 0.66633 0.40148
 O1343 O 0.97994 0.38583 0.41649
 O1344 O 0.98120 0.36057 0.39006
 C1345 C 0.97291 0.36776 0.40794
 C1346 C 0.95446 0.35539 0.41856
 C1347 C 0.94630 0.33547 0.40938
 H1348 H 0.95395 0.32904 0.39455
 O1349 O 1.11008 0.57868 0.47939
 O1350 O 1.13552 0.60515 0.48015
 C1351 C 1.12809 0.58699 0.47228
 C1352 C 1.14012 0.57613 0.45397
 C1353 C 1.15935 0.58606 0.44549
 H1354 H 1.16625 0.60049 0.45377
 O1355 O 0.89273 0.41557 0.47160
 O1356 O 0.86591 0.39053 0.47047
 C1357 C 0.87450 0.40866 0.46357
 C1358 C 0.86321 0.42173 0.44597
 C1359 C 0.84246 0.41477 0.43789
 H1360 H 0.83461 0.40014 0.44497
 Cu1361 Cu 1.00172 0.40497 0.40570
 Cu1362 Cu 1.00292 0.37483 0.37387
 Cu1363 Cu 1.00239 0.59151 0.40204
 Cu1364 Cu 1.00399 0.62302 0.37149
 Cu1365 Cu 0.90984 0.50197 0.40420
 Cu1366 Cu 0.87901 0.50119 0.37293
 Cu1367 Cu 1.09467 0.49965 0.40801
 Cu1368 Cu 1.12737 0.49827 0.37905
 C1369 C 0.94568 0.44254 0.36842
 H1370 H 0.95198 0.44822 0.38426
 C1371 C 0.92840 0.42762 0.32777
 C1372 C 1.06258 0.55786 0.36744
 H1373 H 1.05491 0.55147 0.38236
 C1374 C 1.08368 0.57522 0.32939
 C1375 C 0.87319 0.44090 0.43683
 H1376 H 0.88928 0.44629 0.44281
 C1377 C 0.83175 0.42639 0.42071
 C1378 C 1.13156 0.55702 0.44372
 H1379 H 1.11654 0.54950 0.45013
 C1380 C 1.16950 0.57787 0.42630
 C1381 C 0.94400 0.36433 0.43718
 H1382 H 0.95006 0.37987 0.44407
 C1383 C 0.92782 0.32444 0.41861
 C1384 C 1.05780 0.62837 0.44199
 H1385 H 1.05248 0.61195 0.44735
 C1386 C 1.07208 0.67043 0.42716
 C1387 C 0.94525 0.55739 0.36399
 H1388 H 0.95124 0.55090 0.37966
 C1389 C 0.92937 0.57505 0.32378
 C1390 C 1.06101 0.44117 0.37015
 H1391 H 1.05404 0.44801 0.38518
 C1392 C 1.08009 0.42194 0.33228
 C1393 C 1.05786 0.36763 0.44306
 H1394 H 1.05002 0.38239 0.44977
 C1395 C 1.07951 0.33035 0.42495
 C1396 C 0.94484 0.63125 0.43522
 H1397 H 0.95209 0.61642 0.44256
 C1398 C 0.92444 0.66857 0.41544
 C1399 C 0.87200 0.56056 0.43766
 H1400 H 0.88806 0.55511 0.44370
 C1401 C 0.83068 0.57518 0.42139
 C1402 C 1.12846 0.44143 0.44752
 H1403 H 1.11267 0.44813 0.45282
 C1404 C 1.16896 0.42312 0.43308
 O1405 O 1.01388 0.42046 0.60844
 O1406 O 1.01253 0.39542 0.63523
 C1407 C 1.02067 0.41315 0.62702
 C1408 C 1.03899 0.42450 0.63884
 C1409 C 1.04730 0.41512 0.65845
 H1410 H 1.03871 0.40109 0.66576
 O1411 O 0.97366 0.58069 0.60659
 O1412 O 0.97233 0.60661 0.63241
 C1413 C 0.96489 0.58867 0.62390
 C1414 C 0.94543 0.57722 0.63368
 C1415 C 0.93534 0.58540 0.65296
 H1416 H 0.94221 0.59995 0.66111
 O1417 O 0.88426 0.52361 0.57084
 O1418 O 0.85702 0.52312 0.59510
 C1419 C 0.86608 0.53147 0.57810
 C1420 C 0.85615 0.55132 0.56737
 C1421 C 0.83743 0.56183 0.57651
 H1422 H 0.82957 0.55461 0.59096
 O1423 O 1.10536 0.47869 0.58292
 O1424 O 1.13040 0.47835 0.60964
 C1425 C 1.12296 0.47070 0.59146
 C1426 C 1.13440 0.45166 0.58081
 C1427 C 1.15398 0.44314 0.59017
 H1428 H 1.16153 0.45205 0.60379
 O1429 O 1.07547 0.38678 0.52494
 O1430 O 1.10139 0.36089 0.52623
 C1431 C 1.08305 0.36870 0.53300
 C1432 C 1.07071 0.35733 0.55106
 C1433 C 1.07846 0.33736 0.56073
 H1434 H 1.09318 0.32944 0.55418
 O1435 O 0.92053 0.61504 0.51649
 O1436 O 0.89532 0.64165 0.51516
 C1437 C 0.91284 0.63342 0.52358
 C1438 C 0.92410 0.64468 0.54237
 C1439 C 0.91653 0.66529 0.55065
 H1440 H 0.90274 0.67371 0.54266
 O1441 O 0.91333 0.47964 0.60199
 O1442 O 0.88598 0.47946 0.62616
 C1443 C 0.90451 0.47207 0.61956
 C1444 C 0.91542 0.45399 0.63213
 C1445 C 0.90638 0.44670 0.65223
 H1446 H 0.89260 0.45581 0.65912
 O1447 O 1.07536 0.52281 0.61286
 O1448 O 1.10028 0.52228 0.63967
 C1449 C 1.08269 0.53026 0.63122
 C1450 C 1.07079 0.54879 0.64233
 C1451 C 1.07853 0.55803 0.66241
 H1452 H 1.09307 0.55108 0.67043
 O1453 O 0.97209 0.38790 0.57774
 O1454 O 0.97115 0.36296 0.60466
 C1455 C 0.96448 0.36990 0.58592
 C1456 C 0.94738 0.35710 0.57375
 C1457 C 0.93941 0.33686 0.58222
 H1458 H 0.94611 0.33061 0.59769
 O1459 O 1.01914 0.61034 0.57934
 O1460 O 1.01881 0.63624 0.60523
 C1461 C 1.02704 0.62810 0.58764
 C1462 C 1.04637 0.63883 0.57688
 C1463 C 1.05665 0.65775 0.58620
 H1464 H 1.05014 0.66500 0.60124
 O1465 O 0.89135 0.41588 0.51430
 O1466 O 0.86460 0.39074 0.51330
 C1467 C 0.87264 0.40883 0.52088
 C1468 C 0.86012 0.42152 0.53773
 C1469 C 0.83978 0.41322 0.54532
 H1470 H 0.83360 0.39759 0.53881
 O1471 O 1.10962 0.57916 0.52271
 O1472 O 1.13535 0.60534 0.52341
 C1473 C 1.12736 0.58720 0.53089
 C1474 C 1.13816 0.57559 0.54982
 C1475 C 1.15853 0.58303 0.55865
 H1476 H 1.16707 0.59694 0.55097
 O1477 O 1.01694 0.58051 0.61015
 O1478 O 1.01565 0.60633 0.63606
 C1479 C 1.02359 0.58827 0.62859
 C1480 C 1.04144 0.57682 0.64104
 C1481 C 1.04921 0.58567 0.66110
 H1482 H 1.04145 0.60051 0.66768
 O1483 O 0.97051 0.41976 0.60667
 O1484 O 0.96928 0.39479 0.63355
 C1485 C 0.96204 0.41252 0.62453
 C1486 C 0.94322 0.42461 0.63451
 C1487 C 0.93356 0.41709 0.65432
 H1488 H 0.94030 0.40249 0.66254
 O1489 O 1.10556 0.52229 0.58226
 O1490 O 1.13060 0.52186 0.60897
 C1491 C 1.12351 0.52954 0.59061
 C1492 C 1.13602 0.54738 0.57907
 C1493 C 1.15627 0.55501 0.58763
 H1494 H 1.16263 0.54762 0.60273
 O1495 O 0.88577 0.47955 0.56885
 O1496 O 0.85856 0.47921 0.59314
 C1497 C 0.86759 0.47150 0.57575
 C1498 C 0.85733 0.45229 0.56413
 C1499 C 0.83692 0.44367 0.57138
 H1500 H 0.82813 0.45189 0.58468
 O1501 O 1.07828 0.60857 0.52193
 O1502 O 1.10401 0.63477 0.52235
 C1503 C 1.08597 0.62670 0.52965
 C1504 C 1.07466 0.63812 0.54805
 C1505 C 1.08424 0.65728 0.55718
 H1506 H 1.09859 0.66461 0.54928
 O1507 O 0.91926 0.38321 0.51607
 O1508 O 0.89273 0.35789 0.51518
 C1509 C 0.91047 0.36550 0.52371
 C1510 C 0.92078 0.35456 0.54328
 C1511 C 0.91278 0.33423 0.55209
 H1512 H 0.89923 0.32560 0.54395
 O1513 O 1.07347 0.47923 0.61134
 O1514 O 1.09847 0.47849 0.63809
 C1515 C 1.08067 0.47109 0.62940
 C1516 C 1.06864 0.45232 0.63993
 C1517 C 1.07709 0.44216 0.65921
 H1518 H 1.09218 0.44852 0.66670
 O1519 O 0.91448 0.52288 0.60108
 O1520 O 0.88729 0.52256 0.62544
 C1521 C 0.90577 0.53023 0.61870
 C1522 C 0.91676 0.54844 0.63111
 C1523 C 0.90723 0.55655 0.65060
 H1524 H 0.89283 0.54817 0.65728
 O1525 O 0.97605 0.61209 0.57719
 O1526 O 0.97560 0.63808 0.60298
 C1527 C 0.96875 0.63051 0.58458
 C1528 C 0.95162 0.64301 0.57210
 C1529 C 0.94397 0.66354 0.58003
 H1530 H 0.95104 0.67022 0.59512
 O1531 O 1.01513 0.38850 0.57976
 O1532 O 1.01405 0.36351 0.60663
 C1533 C 1.02235 0.37070 0.58867
 C1534 C 1.04096 0.35858 0.57836
 C1535 C 1.04893 0.33876 0.58784
 H1536 H 1.04106 0.33243 0.60264
 O1537 O 1.10606 0.41742 0.52654
 O1538 O 1.13200 0.39153 0.52774
 C1539 C 1.12382 0.40960 0.53498
 C1540 C 1.13470 0.42141 0.55373
 C1541 C 1.15402 0.41274 0.56383
 H1542 H 1.16126 0.39745 0.55764
 O1543 O 0.89009 0.58441 0.51609
 O1544 O 0.86481 0.61097 0.51465
 C1545 C 0.87190 0.59271 0.52268
 C1546 C 0.85920 0.58138 0.54033
 C1547 C 0.84018 0.59137 0.54923
 H1548 H 0.83404 0.60651 0.54169
 Cu1549 Cu 0.99293 0.40672 0.59046
 Cu1550 Cu 0.99164 0.37673 0.62280
 Cu1551 Cu 0.99652 0.59328 0.59077
 Cu1552 Cu 0.99547 0.62439 0.62180
 Cu1553 Cu 0.90909 0.40177 0.49373
 Cu1554 Cu 0.87687 0.37173 0.49246
 Cu1555 Cu 1.08873 0.40507 0.50405
 Cu1556 Cu 1.11994 0.37413 0.50537
 Cu1557 Cu 0.90876 0.59644 0.49497
 Cu1558 Cu 0.87831 0.62826 0.49319
 Cu1559 Cu 1.09187 0.59122 0.50059
 Cu1560 Cu 1.12255 0.62289 0.50132
 Cu1561 Cu 0.90205 0.50139 0.58308
 Cu1562 Cu 0.86939 0.50102 0.61229
 Cu1563 Cu 1.08741 0.50092 0.59472
 Cu1564 Cu 1.11743 0.50023 0.62677
 C1565 C 1.04960 0.44327 0.62977
 H1566 H 1.04340 0.45043 0.61447
 C1567 C 1.06675 0.42326 0.66836
 C1568 C 0.93599 0.55871 0.62288
 H1569 H 0.94329 0.55261 0.60770
 C1570 C 0.91604 0.57533 0.66140
 C1571 C 0.86686 0.56124 0.54930
 H1572 H 0.88165 0.55359 0.54258
 C1573 C 0.82945 0.58213 0.56781
 C1574 C 1.12502 0.44084 0.56243
 H1575 H 1.10982 0.44727 0.55524
 C1576 C 1.16364 0.42331 0.58235
 C1577 C 1.05173 0.36754 0.55983
 H1578 H 1.04580 0.38306 0.55274
 C1579 C 1.06754 0.32780 0.57910
 C1580 C 0.94185 0.63388 0.55310
 H1581 H 0.94755 0.61784 0.54715
 C1582 C 0.92662 0.67500 0.56937
 C1583 C 0.93400 0.44308 0.62353
 H1584 H 0.94094 0.44863 0.60793
 C1585 C 0.91491 0.42788 0.66325
 C1586 C 1.05209 0.55820 0.63199
 H1587 H 1.04627 0.55154 0.61635
 C1588 C 1.06764 0.57640 0.67206
 C1589 C 0.93826 0.36558 0.55416
 H1590 H 0.94432 0.38136 0.54778
 C1591 C 0.92236 0.32504 0.57143
 C1592 C 1.05559 0.62911 0.55781
 H1593 H 1.04828 0.61415 0.55086
 C1594 C 1.07592 0.66677 0.57662
 C1595 C 0.86874 0.44122 0.54707
 H1596 H 0.88467 0.44747 0.54160
 C1597 C 0.82802 0.42416 0.56207
 C1598 C 1.12725 0.55756 0.56002
 H1599 H 1.11144 0.55189 0.55355
 C1600 C 1.16788 0.57261 0.57743
 O1601 O 0.46990 0.91642 0.38978
 O1602 O 0.46924 0.89023 0.36424
 C1603 C 0.46214 0.90867 0.37173
 C1604 C 0.44416 0.92111 0.36003
 C1605 C 0.43514 0.91374 0.33968
 H1606 H 0.44210 0.89915 0.33176
 O1607 O 0.52263 1.07748 0.38849
 O1608 O 0.52421 1.10260 0.36181
 C1609 C 0.53121 1.08461 0.37065
 C1610 C 0.54987 1.07205 0.36056
 C1611 C 0.56067 1.08008 0.34146
 H1612 H 0.55501 1.09539 0.33372
 O1613 O 0.38750 0.98174 0.42168
 O1614 O 0.36114 0.98329 0.39630
 C1615 C 0.36883 0.97535 0.41427
 C1616 C 0.35634 0.95755 0.42570
 C1617 C 0.33707 0.94914 0.41584
 H1618 H 0.33034 0.95737 0.40131
 O1619 O 0.60700 1.01561 0.42410
 O1620 O 0.63313 1.01519 0.39867
 C1621 C 0.62479 1.02357 0.41613
 C1622 C 0.63520 1.04339 0.42676
 C1623 C 0.65398 1.05369 0.41727
 H1624 H 0.66140 1.04671 0.40252
 O1625 O 0.41112 0.89084 0.48037
 O1626 O 0.38402 0.86611 0.48093
 C1627 C 0.40228 0.87303 0.47302
 C1628 C 0.41307 0.86059 0.45471
 C1629 C 0.40386 0.84056 0.44676
 H1630 H 0.38883 0.83448 0.45433
 O1631 O 0.57527 1.11015 0.47981
 O1632 O 0.60252 1.13473 0.47969
 C1633 C 0.58424 1.12762 0.47193
 C1634 C 0.57417 1.13911 0.45268
 C1635 C 0.58409 1.15843 0.44417
 H1636 H 0.59734 1.16614 0.45352
 O1637 O 0.42024 1.02168 0.38894
 O1638 O 0.39377 1.02270 0.36364
 C1639 C 0.41257 1.02908 0.37074
 C1640 C 0.42511 1.04590 0.35800
 C1641 C 0.41730 1.05290 0.33727
 H1642 H 0.40260 1.04517 0.33030
 O1643 O 0.57652 0.97152 0.39446
 O1644 O 0.60280 0.97018 0.36921
 C1645 C 0.58439 0.96317 0.37686
 C1646 C 0.57216 0.94484 0.36553
 C1647 C 0.58086 0.93480 0.34640
 H1648 H 0.59646 0.94070 0.33972
 O1649 O 0.51190 0.88525 0.42172
 O1650 O 0.51149 0.85882 0.39638
 C1651 C 0.51925 0.86685 0.41428
 C1652 C 0.53754 0.85524 0.42622
 C1653 C 0.54612 0.83486 0.41836
 H1654 H 0.53877 0.82703 0.40394
 O1655 O 0.47914 1.10968 0.41661
 O1656 O 0.48035 1.13502 0.39012
 C1657 C 0.47224 1.12786 0.40825
 C1658 C 0.45442 1.14057 0.41961
 C1659 C 0.44624 1.16050 0.41046
 H1660 H 0.45305 1.16637 0.39496
 O1661 O 0.39398 1.08461 0.47794
 O1662 O 0.36844 1.11094 0.47803
 C1663 C 0.37605 1.09281 0.47037
 C1664 C 0.36427 1.08193 0.45181
 C1665 C 0.34505 1.09186 0.44319
 H1666 H 0.33814 1.10633 0.45133
 O1667 O 0.60393 0.91333 0.48121
 O1668 O 0.62825 0.88586 0.48191
 C1669 C 0.62169 0.90443 0.47417
 C1670 C 0.63454 0.91560 0.45649
 C1671 C 0.65464 0.90655 0.44901
 H1672 H 0.66079 0.89134 0.45652
 O1673 O 0.47936 1.07915 0.38628
 O1674 O 0.48048 1.10416 0.35948
 C1675 C 0.47230 1.08649 0.36780
 C1676 C 0.45395 1.07451 0.35649
 C1677 C 0.44552 1.08172 0.33589
 H1678 H 0.45288 1.09596 0.32760
 O1679 O 0.51331 0.91667 0.39248
 O1680 O 0.51298 0.89040 0.36699
 C1681 C 0.52125 0.90825 0.37498
 C1682 C 0.54097 0.91857 0.36440
 C1683 C 0.54972 0.90922 0.34508
 H1684 H 0.54071 0.89586 0.33706
 O1685 O 0.60822 0.97164 0.42377
 O1686 O 0.63463 0.97102 0.39865
 C1687 C 0.62631 0.96360 0.41645
 C1688 C 0.63706 0.94475 0.42831
 C1689 C 0.65721 0.93545 0.42094
 H1690 H 0.66573 0.94291 0.40699
 O1691 O 0.38991 1.02530 0.41920
 O1692 O 0.36353 1.02668 0.39384
 C1693 C 0.37236 1.03419 0.41143
 C1694 C 0.36246 1.05374 0.42272
 C1695 C 0.34328 1.06417 0.41416
 H1696 H 0.33534 1.05763 0.39942
 O1697 O 0.42412 1.11525 0.47738
 O1698 O 0.39856 1.14153 0.47702
 C1699 C 0.41622 1.13314 0.46915
 C1700 C 0.42724 1.14352 0.44957
 C1701 C 0.41932 1.16356 0.44010
 H1702 H 0.40563 1.17224 0.44781
 O1703 O 0.57089 0.88544 0.48095
 O1704 O 0.59528 0.85805 0.48168
 C1705 C 0.57783 0.86687 0.47365
 C1706 C 0.56600 0.85553 0.45525
 C1707 C 0.57420 0.83529 0.44713
 H1708 H 0.58898 0.82826 0.45458
 O1709 O 0.57813 1.01516 0.39246
 O1710 O 0.60430 1.01371 0.36710
 C1711 C 0.58649 1.02216 0.37443
 C1712 C 0.57628 1.04111 0.36233
 C1713 C 0.58633 1.04904 0.34295
 H1714 H 0.59998 1.03975 0.33600
 O1715 O 0.41599 0.97830 0.38984
 O1716 O 0.38948 0.97965 0.36460
 C1717 C 0.40705 0.97079 0.37225
 C1718 C 0.41703 0.95139 0.36073
 C1719 C 0.40797 0.94356 0.34077
 H1720 H 0.39341 0.95184 0.33435
 O1721 O 0.52223 1.10960 0.41696
 O1722 O 0.52381 1.13494 0.39046
 C1723 C 0.53056 1.12735 0.40896
 C1724 C 0.54862 1.13874 0.42125
 C1725 C 0.55937 1.15766 0.41247
 H1726 H 0.55410 1.16435 0.39663
 O1727 O 0.46850 0.88736 0.42177
 O1728 O 0.46790 0.86091 0.39647
 C1729 C 0.46036 0.86934 0.41424
 C1730 C 0.44152 0.85862 0.42602
 C1731 C 0.43228 0.83840 0.41853
 H1732 H 0.43968 0.83007 0.40449
 O1733 O 0.60427 1.07815 0.48041
 O1734 O 0.63134 1.10293 0.48020
 C1735 C 0.62266 1.08509 0.47281
 C1736 C 0.63389 1.07308 0.45457
 C1737 C 0.65289 1.08255 0.44518
 H1738 H 0.66000 1.09736 0.45259
 O1739 O 0.38291 0.92343 0.48049
 O1740 O 0.35576 0.89874 0.48056
 C1741 C 0.36462 0.91632 0.47273
 C1742 C 0.35422 0.92821 0.45379
 C1743 C 0.33517 0.91961 0.44317
 H1744 H 0.32741 0.90451 0.44934
 Cu1745 Cu 0.49081 0.90401 0.40893
 Cu1746 Cu 0.49033 0.87251 0.37845
 Cu1747 Cu 0.50069 1.09144 0.40466
 Cu1748 Cu 0.50227 1.12167 0.37275
 Cu1749 Cu 0.40607 1.00169 0.40748
 Cu1750 Cu 0.37428 1.00324 0.37711
 Cu1751 Cu 0.58995 0.99346 0.41129
 Cu1752 Cu 0.62135 0.99237 0.38095
 C1753 C 0.43516 0.94017 0.37009
 H1754 H 0.44189 0.94597 0.38570
 C1755 C 0.41708 0.92504 0.32963
 C1756 C 0.55793 1.05256 0.37091
 H1757 H 0.55027 1.04658 0.38600
 C1758 C 0.57920 1.06883 0.33271
 C1759 C 0.36469 0.94721 0.44484
 H1760 H 0.37981 0.95351 0.45230
 C1761 C 0.32684 0.92978 0.42384
 C1762 C 0.62518 1.05338 0.44538
 H1763 H 0.61031 1.04614 0.45240
 C1764 C 0.66259 1.07359 0.42615
 C1765 C 0.43197 0.86933 0.44433
 H1766 H 0.43888 0.88497 0.45013
 C1767 C 0.41344 0.82903 0.42882
 C1768 C 0.55622 1.12960 0.44135
 H1769 H 0.54864 1.11455 0.44783
 C1770 C 0.57748 1.16743 0.42366
 C1771 C 0.44370 1.05641 0.36726
 H1772 H 0.44958 1.05112 0.38341
 C1773 C 0.42729 1.07076 0.32609
 C1774 C 0.55219 0.93654 0.37443
 H1775 H 0.54564 0.94371 0.38949
 C1776 C 0.56992 0.91675 0.33621
 C1777 C 0.54751 0.86531 0.44485
 H1778 H 0.54134 0.88115 0.45084
 C1779 C 0.56435 0.82464 0.42890
 C1780 C 0.44496 1.13238 0.43927
 H1781 H 0.45101 1.11685 0.44623
 C1782 C 0.42888 1.17237 0.42064
 C1783 C 0.37282 1.06279 0.44159
 H1784 H 0.38784 1.05524 0.44805
 C1785 C 0.33471 1.08350 0.42414
 C1786 C 0.62613 0.93484 0.44628
 H1787 H 0.61048 0.94167 0.45184
 C1788 C 0.66631 0.91643 0.43136
 O1789 O 0.51474 0.91892 0.61426
 O1790 O 0.51418 0.89255 0.63979
 C1791 C 0.52256 0.91036 0.63187
 C1792 C 0.54230 0.92056 0.64256
 C1793 C 0.55156 0.91096 0.66167
 H1794 H 0.54283 0.89737 0.66960
 O1795 O 0.47887 1.08139 0.61241
 O1796 O 0.48034 1.10672 0.63882
 C1797 C 0.47224 1.08888 0.63087
 C1798 C 0.45438 1.07729 0.64291
 C1799 C 0.44741 1.08536 0.66345
 H1800 H 0.45577 1.09962 0.67067
 O1801 O 0.39207 1.02454 0.58108
 O1802 O 0.36545 1.02663 0.60593
 C1803 C 0.37421 1.03325 0.58792
 C1804 C 0.36339 1.05145 0.57523
 C1805 C 0.34238 1.05872 0.58176
 H1806 H 0.33433 1.05073 0.59569
 O1807 O 0.60668 0.97327 0.58097
 O1808 O 0.63320 0.97330 0.60621
 C1809 C 0.62487 0.96559 0.58847
 C1810 C 0.63579 0.94687 0.57688
 C1811 C 0.65629 0.93836 0.58424
 H1812 H 0.66486 0.94641 0.59785
 O1813 O 0.57112 0.88534 0.52447
 O1814 O 0.59547 0.85791 0.52500
 C1815 C 0.57795 0.86692 0.53241
 C1816 C 0.56594 0.85618 0.55096
 C1817 C 0.57352 0.83578 0.55966
 H1818 H 0.58748 0.82748 0.55201
 O1819 O 0.42455 1.11537 0.52119
 O1820 O 0.39886 1.14153 0.52073
 C1821 C 0.41658 1.13341 0.52879
 C1822 C 0.42700 1.14433 0.54819
 C1823 C 0.41744 1.16356 0.55716
 H1824 H 0.40434 1.17172 0.54798
 O1825 O 0.41779 0.98010 0.61459
 O1826 O 0.39115 0.98231 0.63942
 C1827 C 0.40884 0.97332 0.63240
 C1828 C 0.41862 0.95412 0.64443
 C1829 C 0.40860 0.94554 0.66359
 H1830 H 0.39465 0.95435 0.67058
 O1831 O 0.57638 1.01698 0.61087
 O1832 O 0.60261 1.01651 0.63643
 C1833 C 0.58472 1.02460 0.62863
 C1834 C 0.57443 1.04394 0.63977
 C1835 C 0.58409 1.05223 0.65919
 H1836 H 0.59738 1.04293 0.66696
 O1837 O 0.46981 0.89054 0.58415
 O1838 O 0.46899 0.86406 0.60956
 C1839 C 0.46155 0.87258 0.59170
 C1840 C 0.44275 0.86188 0.57987
 C1841 C 0.43294 0.84232 0.58826
 H1842 H 0.43948 0.83478 0.60324
 O1843 O 0.52129 1.11240 0.58176
 O1844 O 0.52209 1.13808 0.60786
 C1845 C 0.52905 1.13046 0.58959
 C1846 C 0.54683 1.14231 0.57766
 C1847 C 0.55504 1.16266 0.58555
 H1848 H 0.54781 1.16981 0.60029
 O1849 O 0.38287 0.92306 0.52400
 O1850 O 0.35557 0.89856 0.52427
 C1851 C 0.36460 0.91610 0.53194
 C1852 C 0.35428 0.92809 0.55083
 C1853 C 0.33415 0.92061 0.56011
 H1854 H 0.32557 0.90652 0.55281
 O1855 O 0.60376 1.07817 0.52363
 O1856 O 0.63083 1.10294 0.52309
 C1857 C 0.62224 1.08523 0.53091
 C1858 C 0.63368 1.07353 0.54925
 C1859 C 0.65291 1.08297 0.55825
 H1860 H 0.66011 1.09750 0.55038
 O1861 O 0.52195 1.08072 0.61092
 O1862 O 0.52353 1.10625 0.63712
 C1863 C 0.53042 1.08807 0.62874
 C1864 C 0.54868 1.07546 0.63954
 C1865 C 0.55911 1.08382 0.65867
 H1866 H 0.55361 1.09948 0.66568
 O1867 O 0.47134 0.91930 0.61606
 O1868 O 0.47053 0.89296 0.64159
 C1869 C 0.46347 0.91139 0.63396
 C1870 C 0.44532 0.92353 0.64526
 C1871 C 0.43493 0.91492 0.66433
 H1872 H 0.44087 0.89947 0.67158
 O1873 O 0.60659 1.01703 0.58100
 O1874 O 0.63288 1.01713 0.60649
 C1875 C 0.62448 1.02507 0.58882
 C1876 C 0.63497 1.04450 0.57773
 C1877 C 0.65390 1.05478 0.58695
 H1878 H 0.66135 1.04806 0.60190
 O1879 O 0.38807 0.98105 0.58347
 O1880 O 0.36152 0.98340 0.60837
 C1881 C 0.36937 0.97471 0.59091
 C1882 C 0.35683 0.95668 0.57959
 C1883 C 0.33678 0.94893 0.58856
 H1884 H 0.33071 0.95638 0.60365
 O1885 O 0.57704 1.11228 0.52319
 O1886 O 0.60422 1.13693 0.52279
 C1887 C 0.58591 1.13012 0.53054
 C1888 C 0.57499 1.14236 0.54883
 C1889 C 0.58326 1.16284 0.55702
 H1890 H 0.59754 1.17057 0.54931
 O1891 O 0.41269 0.89206 0.52364
 O1892 O 0.38551 0.86740 0.52419
 C1893 C 0.40403 0.87448 0.53157
 C1894 C 0.41502 0.86268 0.55021
 C1895 C 0.40583 0.84289 0.55855
 H1896 H 0.39193 0.83546 0.54994
 O1897 O 0.57676 0.97336 0.61179
 O1898 O 0.60321 0.97283 0.63709
 C1899 C 0.58491 0.96544 0.62959
 C1900 C 0.57315 0.94708 0.64123
 C1901 C 0.58242 0.93689 0.66014
 H1902 H 0.59816 0.94283 0.66656
 O1903 O 0.41966 1.02367 0.61429
 O1904 O 0.39310 1.02587 0.63919
 C1905 C 0.41179 1.03218 0.63188
 C1906 C 0.42436 1.04998 0.64344
 C1907 C 0.41725 1.05862 0.66392
 H1908 H 0.40263 1.05181 0.67186
 O1909 O 0.47825 1.11280 0.58295
 O1910 O 0.47883 1.13825 0.60925
 C1911 C 0.47086 1.13080 0.59120
 C1912 C 0.45264 1.14272 0.57955
 C1913 C 0.44217 1.16155 0.58884
 H1914 H 0.44761 1.16774 0.60480
 O1915 O 0.51305 0.88835 0.58423
 O1916 O 0.51230 0.86190 0.60968
 C1917 C 0.52004 0.86982 0.59176
 C1918 C 0.53782 0.85764 0.57997
 C1919 C 0.54584 0.83735 0.58851
 H1920 H 0.53872 0.83076 0.60358
 O1921 O 0.60326 0.91420 0.52418
 O1922 O 0.62763 0.88677 0.52473
 C1923 C 0.62093 0.90551 0.53184
 C1924 C 0.63359 0.91718 0.54939
 C1925 C 0.65395 0.90874 0.55705
 H1926 H 0.66025 0.89350 0.54990
 O1927 O 0.39390 1.08488 0.52123
 O1928 O 0.36819 1.11102 0.52112
 C1929 C 0.37587 1.09276 0.52875
 C1930 C 0.36400 1.08073 0.54681
 C1931 C 0.34297 1.08798 0.55406
 H1932 H 0.33511 1.10226 0.54628
 Cu1933 Cu 0.49223 0.90697 0.59721
 Cu1934 Cu 0.49145 0.87524 0.62773
 Cu1935 Cu 0.49996 1.09430 0.59434
 Cu1936 Cu 0.50133 1.12487 0.62596
 Cu1937 Cu 0.40003 0.90986 0.50204
 Cu1938 Cu 0.36748 0.88027 0.50257
 Cu1939 Cu 0.58482 0.90231 0.50264
 Cu1940 Cu 0.61397 0.86928 0.50339
 Cu1941 Cu 0.41182 1.09752 0.49950
 Cu1942 Cu 0.38103 1.12894 0.49926
 Cu1943 Cu 0.58721 1.09233 0.50189
 Cu1944 Cu 0.61998 1.12179 0.50138
 Cu1945 Cu 0.40714 1.00212 0.59595
 Cu1946 Cu 0.37511 1.00487 0.62565
 Cu1947 Cu 0.58902 0.99501 0.59355
 Cu1948 Cu 0.62061 0.99488 0.62412
 C1949 C 0.55310 0.93876 0.63261
 H1950 H 0.54616 0.94609 0.61771
 C1951 C 0.57193 0.91856 0.67035
 C1952 C 0.44309 1.05934 0.63322
 H1953 H 0.44836 1.05324 0.61721
 C1954 C 0.42895 1.07618 0.67415
 C1955 C 0.37402 1.06229 0.55749
 H1956 H 0.39035 1.05680 0.55246
 C1957 C 0.33195 1.07677 0.57132
 C1958 C 0.62483 0.93638 0.55922
 H1959 H 0.60894 0.94272 0.55361
 C1960 C 0.66568 0.91936 0.57430
 C1961 C 0.54788 0.86687 0.56107
 H1962 H 0.54214 0.88276 0.55467
 C1963 C 0.56363 0.82620 0.57843
 C1964 C 0.44478 1.13425 0.55929
 H1965 H 0.45211 1.11932 0.55238
 C1966 C 0.42415 1.17188 0.57791
 C1967 C 0.43711 0.94321 0.63566
 H1968 H 0.44471 0.94968 0.62074
 C1969 C 0.41632 0.92569 0.67355
 C1970 C 0.55655 1.05550 0.63013
 H1971 H 0.54917 1.04927 0.61498
 C1972 C 0.57710 1.07247 0.66839
 C1973 C 0.43364 0.87194 0.56082
 H1974 H 0.44068 0.88736 0.55459
 C1975 C 0.41423 0.83287 0.57791
 C1976 C 0.55660 1.13254 0.55912
 H1977 H 0.55036 1.11666 0.55322
 C1978 C 0.57303 1.17333 0.57524
 C1979 C 0.36534 0.94629 0.56061
 H1980 H 0.38098 0.95197 0.55384
 C1981 C 0.32514 0.93104 0.57892
 C1982 C 0.62488 1.05414 0.55891
 H1983 H 0.60986 1.04690 0.55211
 C1984 C 0.66263 1.07437 0.57755
 O1985 O 0.48144 0.42084 0.89117
 O1986 O 0.48144 0.39420 0.86606
 C1987 C 0.47359 0.41238 0.87353
 C1988 C 0.45442 0.42309 0.86215
 C1989 C 0.44552 0.41357 0.84286
 H1990 H 0.45414 0.39970 0.83543
 O1991 O 0.52672 0.57685 0.88924
 O1992 O 0.52666 0.60347 0.86396
 C1993 C 0.53443 0.58525 0.87151
 C1994 C 0.55322 0.57414 0.86017
 C1995 C 0.56285 0.58358 0.84107
 H1996 H 0.55603 0.59877 0.83407
 O1997 O 0.38913 0.47884 0.91941
 O1998 O 0.36319 0.47937 0.89359
 C1999 C 0.37080 0.47167 0.91169
 C2000 C 0.35890 0.45372 0.92380
 C2001 C 0.33841 0.44511 0.91632
 H2002 H 0.33054 0.45214 0.90174
 O2003 O 0.61764 0.52018 0.91883
 O2004 O 0.64324 0.52052 0.89286
 C2005 C 0.63547 0.52814 0.91087
 C2006 C 0.64672 0.54672 0.92272
 C2007 C 0.66672 0.55609 0.91492
 H2008 H 0.67450 0.54933 0.90026
 O2009 O 0.41992 0.39078 0.97632
 O2010 O 0.39420 0.36458 0.97633
 C2011 C 0.41214 0.37261 0.96868
 C2012 C 0.42422 0.36097 0.95067
 C2013 C 0.41645 0.34064 0.94178
 H2014 H 0.40151 0.33307 0.94832
 O2015 O 0.58472 0.60656 0.97889
 O2016 O 0.61116 0.63202 0.97903
 C2017 C 0.59297 0.62447 0.97131
 C2018 C 0.58190 0.63609 0.95265
 C2019 C 0.59126 0.65554 0.94381
 H2020 H 0.60531 0.66298 0.95219
 O2021 O 0.42157 0.52101 0.88939
 O2022 O 0.39606 0.52160 0.86314
 C2023 C 0.41425 0.52876 0.87118
 C2024 C 0.42670 0.54676 0.85971
 C2025 C 0.41911 0.55549 0.83941
 H2026 H 0.40459 0.54826 0.83158
 O2027 O 0.58741 0.47578 0.88985
 O2028 O 0.61269 0.47542 0.86358
 C2029 C 0.59483 0.46781 0.87188
 C2030 C 0.58259 0.44924 0.86102
 C2031 C 0.59080 0.43880 0.84181
 H2032 H 0.60610 0.44461 0.83441
 O2033 O 0.52538 0.39095 0.92200
 O2034 O 0.52581 0.36462 0.89657
 C2035 C 0.53362 0.37308 0.91425
 C2036 C 0.55317 0.36271 0.92531
 C2037 C 0.56325 0.34350 0.91638
 H2038 H 0.55616 0.33554 0.90190
 O2039 O 0.48381 0.60624 0.92124
 O2040 O 0.48374 0.63285 0.89596
 C2041 C 0.47625 0.62459 0.91388
 C2042 C 0.45818 0.63630 0.92579
 C2043 C 0.45045 0.65683 0.91770
 H2044 H 0.45794 0.66387 0.90301
 O2045 O 0.39312 0.57873 0.98114
 O2046 O 0.36785 0.60531 0.98112
 C2047 C 0.37536 0.58713 0.97338
 C2048 C 0.36385 0.57645 0.95439
 C2049 C 0.34451 0.58617 0.94578
 H2050 H 0.33710 0.60004 0.95446
 O2051 O 0.61895 0.42276 0.98007
 O2052 O 0.64415 0.39610 0.98084
 C2053 C 0.63687 0.41429 0.97292
 C2054 C 0.64881 0.42512 0.95449
 C2055 C 0.66879 0.41622 0.94662
 H2056 H 0.67567 0.40168 0.95474
 O2057 O 0.48308 0.57725 0.88942
 O2058 O 0.48306 0.60380 0.86408
 C2059 C 0.47525 0.58563 0.87168
 C2060 C 0.45647 0.57455 0.86010
 C2061 C 0.44842 0.58319 0.83997
 H2062 H 0.45626 0.59787 0.83311
 O2063 O 0.52511 0.42071 0.89091
 O2064 O 0.52474 0.39423 0.86562
 C2065 C 0.53267 0.41231 0.87315
 C2066 C 0.55170 0.42273 0.86163
 C2067 C 0.55995 0.41285 0.84236
 H2068 H 0.55103 0.39902 0.83503
 O2069 O 0.61861 0.47695 0.91945
 O2070 O 0.64419 0.47685 0.89345
 C2071 C 0.63676 0.46958 0.91175
 C2072 C 0.64876 0.45198 0.92414
 C2073 C 0.66888 0.44301 0.91646
 H2074 H 0.67636 0.44971 0.90158
 O2075 O 0.39176 0.52222 0.92010
 O2076 O 0.36596 0.52321 0.89414
 C2077 C 0.37409 0.53060 0.91220
 C2078 C 0.36334 0.54942 0.92404
 C2079 C 0.34420 0.55982 0.91541
 H2080 H 0.33692 0.55380 0.90012
 O2081 O 0.42464 0.60793 0.98077
 O2082 O 0.39953 0.63467 0.98033
 C2083 C 0.41733 0.62614 0.97282
 C2084 C 0.42937 0.63715 0.95432
 C2085 C 0.42197 0.65775 0.94585
 H2086 H 0.40785 0.66594 0.95332
 O2087 O 0.58664 0.39428 0.97917
 O2088 O 0.61194 0.36770 0.97953
 C2089 C 0.59418 0.37606 0.97166
 C2090 C 0.58273 0.36460 0.95317
 C2091 C 0.59234 0.34549 0.94404
 H2092 H 0.60729 0.33867 0.95138
 O2093 O 0.58621 0.51918 0.88969
 O2094 O 0.61155 0.51927 0.86344
 C2095 C 0.59358 0.52676 0.87152
 C2096 C 0.58178 0.54520 0.86019
 C2097 C 0.59065 0.55442 0.84085
 H2098 H 0.60477 0.54640 0.83327
 O2099 O 0.42076 0.47747 0.89059
 O2100 O 0.39508 0.47762 0.86451
 C2101 C 0.41287 0.46959 0.87273
 C2102 C 0.42437 0.45059 0.86189
 C2103 C 0.41542 0.44040 0.84285
 H2104 H 0.40013 0.44674 0.83577
 O2105 O 0.52725 0.60730 0.91957
 O2106 O 0.52709 0.63386 0.89423
 C2107 C 0.53500 0.62550 0.91191
 C2108 C 0.55390 0.63654 0.92330
 C2109 C 0.56395 0.65576 0.91429
 H2110 H 0.55744 0.66298 0.89914
 O2111 O 0.48148 0.39018 0.92149
 O2112 O 0.48221 0.36364 0.89628
 C2113 C 0.47404 0.37189 0.91376
 C2114 C 0.45501 0.36051 0.92445
 C2115 C 0.44703 0.34029 0.91585
 H2116 H 0.45532 0.33299 0.90177
 O2117 O 0.61626 0.57719 0.97856
 O2118 O 0.64263 0.60270 0.97949
 C2119 C 0.63451 0.58502 0.97131
 C2120 C 0.64615 0.57412 0.95264
 C2121 C 0.66606 0.58317 0.94466
 H2122 H 0.67285 0.59785 0.95259
 O2123 O 0.38991 0.42188 0.97810
 O2124 O 0.36413 0.39574 0.97862
 C2125 C 0.37162 0.41405 0.97110
 C2126 C 0.35937 0.42585 0.95338
 C2127 C 0.33888 0.41773 0.94599
 H2128 H 0.33173 0.40324 0.95401
 Cu2129 Cu 0.50332 0.40827 0.90898
 Cu2130 Cu 0.50353 0.37653 0.87865
 Cu2131 Cu 0.50527 0.58922 0.90734
 Cu2132 Cu 0.50499 0.62113 0.87702
 Cu2133 Cu 0.40832 0.49980 0.90743
 Cu2134 Cu 0.37754 0.50055 0.87620
 Cu2135 Cu 0.59997 0.49793 0.90707
 Cu2136 Cu 0.63041 0.49803 0.87561
 C2137 C 0.44384 0.44173 0.87141
 H2138 H 0.45052 0.44902 0.88642
 C2139 C 0.42567 0.42160 0.83336
 C2140 C 0.56289 0.55496 0.86960
 H2141 H 0.55612 0.54801 0.88471
 C2142 C 0.58187 0.57402 0.83154
 C2143 C 0.36901 0.44408 0.94251
 H2144 H 0.38499 0.45018 0.94811
 C2145 C 0.32815 0.42723 0.92759
 C2146 C 0.63676 0.55578 0.94173
 H2147 H 0.62123 0.54898 0.94771
 C2148 C 0.67668 0.57426 0.92598
 C2149 C 0.44365 0.37059 0.94198
 H2150 H 0.44963 0.38634 0.94845
 C2151 C 0.42792 0.33002 0.92445
 C2152 C 0.56306 0.62685 0.94247
 H2153 H 0.55589 0.61168 0.94915
 C2154 C 0.58292 0.66518 0.92423
 C2155 C 0.44561 0.55621 0.86973
 H2156 H 0.45145 0.54977 0.88548
 C2157 C 0.42992 0.57364 0.82926
 C2158 C 0.56299 0.44102 0.87076
 H2159 H 0.55680 0.44846 0.88585
 C2160 C 0.57972 0.42027 0.83263
 C2161 C 0.56308 0.37311 0.94380
 H2162 H 0.55580 0.38812 0.95058
 C2163 C 0.58307 0.33509 0.92547
 C2164 C 0.44768 0.62664 0.94427
 H2165 H 0.45334 0.61061 0.95040
 C2166 C 0.43249 0.66777 0.92763
 C2167 C 0.37304 0.55795 0.94355
 H2168 H 0.38813 0.55055 0.95001
 C2169 C 0.33490 0.57849 0.92599
 C2170 C 0.63917 0.44318 0.94339
 H2171 H 0.62353 0.44978 0.94924
 C2172 C 0.67919 0.42519 0.92777
 O2173 O 0.52339 0.41790 1.11067
 O2174 O 0.52326 0.39039 1.13503
 C2175 C 0.53059 0.40913 1.12845
 C2176 C 0.54842 0.42028 1.14106
 C2177 C 0.55630 0.41091 1.16081
 H2178 H 0.54737 0.39693 1.16773
 O2179 O 0.48464 0.58014 1.10932
 O2180 O 0.48452 0.60636 1.13490
 C2181 C 0.47702 0.58808 1.12721
 C2182 C 0.45910 0.57621 1.13916
 C2183 C 0.45128 0.58475 1.15923
 H2184 H 0.45846 0.59997 1.16569
 O2185 O 0.39516 0.52051 1.08312
 O2186 O 0.36972 0.52076 1.10925
 C2187 C 0.37733 0.52833 1.09115
 C2188 C 0.36551 0.54671 1.07966
 C2189 C 0.34514 0.55424 1.08778
 H2190 H 0.33809 0.54627 1.10225
 O2191 O 0.61266 0.47598 1.08524
 O2192 O 0.63836 0.47625 1.11135
 C2193 C 0.63092 0.46887 1.09311
 C2194 C 0.64351 0.45166 1.08109
 C2195 C 0.66389 0.44410 1.08937
 H2196 H 0.67035 0.45113 1.10458
 O2197 O 0.58608 0.39320 1.02214
 O2198 O 0.61137 0.36661 1.02230
 C2199 C 0.59335 0.37471 1.02948
 C2200 C 0.58147 0.36272 1.04719
 C2201 C 0.59063 0.34305 1.05578
 H2202 H 0.60513 0.33595 1.04802
 O2203 O 0.42414 0.60990 1.02379
 O2204 O 0.39888 0.63649 1.02352
 C2205 C 0.41692 0.62848 1.03093
 C2206 C 0.42941 0.64048 1.04843
 C2207 C 0.42178 0.66097 1.05692
 H2208 H 0.40701 0.66856 1.04996
 O2209 O 0.42402 0.47575 1.11355
 O2210 O 0.39868 0.47613 1.13976
 C2211 C 0.41605 0.46777 1.13140
 C2212 C 0.42674 0.44797 1.14173
 C2213 C 0.41793 0.43750 1.16076
 H2214 H 0.40336 0.44446 1.16858
 O2215 O 0.58212 0.51896 1.11555
 O2216 O 0.60758 0.51892 1.14187
 C2217 C 0.58979 0.52663 1.13364
 C2218 C 0.57828 0.54534 1.14453
 C2219 C 0.58529 0.55344 1.16527
 H2220 H 0.59867 0.54518 1.17406
 O2221 O 0.48167 0.38823 1.07757
 O2222 O 0.48176 0.36061 1.10179
 C2223 C 0.47437 0.36946 1.08412
 C2224 C 0.45658 0.35819 1.07149
 C2225 C 0.44866 0.33720 1.07824
 H2226 H 0.45625 0.32877 1.09224
 O2227 O 0.52889 0.61074 1.08046
 O2228 O 0.52912 0.63683 1.10614
 C2229 C 0.53692 0.62865 1.08843
 C2230 C 0.55596 0.63948 1.07718
 C2231 C 0.56610 0.65883 1.08585
 H2232 H 0.55956 0.66637 1.10074
 O2233 O 0.39142 0.42007 1.02150
 O2234 O 0.36571 0.39387 1.02208
 C2235 C 0.37398 0.41173 1.02994
 C2236 C 0.36373 0.42266 1.04947
 C2237 C 0.34472 0.41356 1.05964
 H2238 H 0.33713 0.39866 1.05287
 O2239 O 0.61431 0.57531 1.02211
 O2240 O 0.64070 0.60083 1.02272
 C2241 C 0.63226 0.58285 1.03018
 C2242 C 0.64292 0.57111 1.04901
 C2243 C 0.66351 0.57836 1.05725
 H2244 H 0.67213 0.59198 1.04915
 O2245 O 0.52750 0.58011 1.11088
 O2246 O 0.52726 0.60627 1.13652
 C2247 C 0.53446 0.58784 1.12920
 C2248 C 0.55131 0.57547 1.14201
 C2249 C 0.55842 0.58337 1.16265
 H2250 H 0.55134 0.59863 1.16903
 O2251 O 0.48051 0.41692 1.10971
 O2252 O 0.48046 0.38929 1.13392
 C2253 C 0.47292 0.40788 1.12715
 C2254 C 0.45476 0.41878 1.13939
 C2255 C 0.44637 0.40902 1.15872
 H2256 H 0.45474 0.39454 1.16532
 O2257 O 0.61061 0.51890 1.08376
 O2258 O 0.63640 0.51922 1.10979
 C2259 C 0.62869 0.52643 1.09146
 C2260 C 0.64087 0.54383 1.07910
 C2261 C 0.66140 0.55131 1.08701
 H2262 H 0.66803 0.54432 1.10219
 O2263 O 0.39535 0.47708 1.08173
 O2264 O 0.36985 0.47732 1.10782
 C2265 C 0.37730 0.46969 1.08965
 C2266 C 0.36532 0.45135 1.07824
 C2267 C 0.34603 0.44246 1.08762
 H2268 H 0.33904 0.45058 1.10194
 O2269 O 0.58634 0.60824 1.02212
 O2270 O 0.61285 0.63364 1.02205
 C2271 C 0.59471 0.62624 1.02965
 C2272 C 0.58389 0.63827 1.04808
 C2273 C 0.59346 0.65783 1.05659
 H2274 H 0.60759 0.66498 1.04818
 O2275 O 0.42255 0.39062 1.01907
 O2276 O 0.39692 0.36429 1.01912
 C2277 C 0.41527 0.37206 1.02611
 C2278 C 0.42781 0.35955 1.04304
 C2279 C 0.42025 0.33854 1.04989
 H2280 H 0.40556 0.33150 1.04226
 O2281 O 0.58135 0.47537 1.11446
 O2282 O 0.60704 0.47506 1.14055
 C2283 C 0.58919 0.46734 1.13229
 C2284 C 0.57762 0.44837 1.14288
 C2285 C 0.58593 0.43823 1.16223
 H2286 H 0.60080 0.44482 1.16992
 O2287 O 0.42679 0.51972 1.11238
 O2288 O 0.40138 0.52022 1.13852
 C2289 C 0.41931 0.52774 1.13029
 C2290 C 0.43112 0.54663 1.14104
 C2291 C 0.42353 0.55554 1.16118
 H2292 H 0.40957 0.54789 1.16952
 O2293 O 0.48533 0.61092 1.07924
 O2294 O 0.48562 0.63716 1.10478
 C2295 C 0.47790 0.62913 1.08692
 C2296 C 0.45947 0.64072 1.07556
 C2297 C 0.45154 0.66096 1.08393
 H2298 H 0.45947 0.66792 1.09842
 O2299 O 0.52507 0.38923 1.07895
 O2300 O 0.52507 0.36175 1.10333
 C2301 C 0.53307 0.37100 1.08619
 C2302 C 0.55238 0.36086 1.07507
 C2303 C 0.56222 0.34145 1.08382
 H2304 H 0.55523 0.33354 1.09837
 O2305 O 0.61775 0.42239 1.02354
 O2306 O 0.64295 0.39572 1.02409
 C2307 C 0.63523 0.41380 1.03177
 C2308 C 0.64595 0.42466 1.05105
 C2309 C 0.66633 0.41702 1.05973
 H2310 H 0.67499 0.40343 1.05173
 O2311 O 0.39340 0.57933 1.02475
 O2312 O 0.36805 0.60580 1.02478
 C2313 C 0.37568 0.58760 1.03259
 C2314 C 0.36446 0.57599 1.05131
 C2315 C 0.34405 0.58353 1.05997
 H2316 H 0.33586 0.59785 1.05264
 Cu2317 Cu 0.50258 0.40579 1.09167
 Cu2318 Cu 0.50257 0.37265 1.12090
 Cu2319 Cu 0.50670 0.59297 1.09224
 Cu2320 Cu 0.50657 0.62438 1.12308
 Cu2321 Cu 0.40841 0.40857 0.99862
 Cu2322 Cu 0.37755 0.37707 0.99906
 Cu2323 Cu 0.59996 0.41104 1.00122
 Cu2324 Cu 0.63012 0.37884 1.00171
 Cu2325 Cu 0.41124 0.59125 1.00281
 Cu2326 Cu 0.38099 0.62315 1.00239
 Cu2327 Cu 0.59781 0.58924 1.00043
 Cu2328 Cu 0.62947 0.61978 1.00083
 Cu2329 Cu 0.41301 0.49827 1.09526
 Cu2330 Cu 0.38240 0.49869 1.12647
 Cu2331 Cu 0.59393 0.49722 1.09730
 Cu2332 Cu 0.62487 0.49746 1.12860
 C2333 C 0.55888 0.43922 1.13245
 H2334 H 0.55281 0.44642 1.11711
 C2335 C 0.57552 0.41920 1.17124
 C2336 C 0.44912 0.55699 1.13029
 H2337 H 0.45489 0.55053 1.11460
 C2338 C 0.43366 0.57451 1.17048
 C2339 C 0.37489 0.55745 1.06127
 H2340 H 0.39073 0.55171 1.05509
 C2341 C 0.33412 0.57242 1.07804
 C2342 C 0.63485 0.44212 1.06178
 H2343 H 0.61897 0.44783 1.05550
 C2344 C 0.67556 0.42694 1.07878
 C2345 C 0.56218 0.37147 1.05675
 H2346 H 0.55518 0.38683 1.05032
 C2347 C 0.58164 0.33273 1.07451
 C2348 C 0.44851 0.63073 1.05765
 H2349 H 0.45434 0.61483 1.05148
 C2350 C 0.43285 0.67145 1.07467
 C2351 C 0.44510 0.43835 1.13124
 H2352 H 0.45161 0.44584 1.11627
 C2353 C 0.42753 0.41773 1.16933
 C2354 C 0.56106 0.55628 1.13324
 H2355 H 0.55579 0.55036 1.11712
 C2356 C 0.57520 0.57235 1.17460
 C2357 C 0.44622 0.36914 1.05365
 H2358 H 0.45185 0.38557 1.04866
 C2359 C 0.43052 0.32727 1.06746
 C2360 C 0.56503 0.62940 1.05829
 H2361 H 0.55776 0.61420 1.05184
 C2362 C 0.58515 0.66801 1.07583
 C2363 C 0.37392 0.44152 1.05900
 H2364 H 0.38894 0.44824 1.05177
 C2365 C 0.33595 0.42315 1.07900
 C2366 C 0.63182 0.55360 1.05991
 H2367 H 0.61576 0.54811 1.05392
 C2368 C 0.67289 0.56845 1.07617
 C2369 C 1.10528 1.11188 1.22095
 C2370 C 1.10861 1.08892 1.21784
 N2371 N 1.12052 1.07716 1.23297
 C2372 C 1.12910 1.08731 1.25119
 C2373 C 1.12537 1.11024 1.25458
 N2374 N 1.11358 1.12196 1.23925
 N2375 N 1.09365 1.12373 1.20573
 C2376 C 1.08479 1.11358 1.18769
 C2377 C 1.08735 1.09035 1.18486
 N2378 N 1.09954 1.07868 1.19996
 H2379 H 1.13831 1.07742 1.26306
 H2380 H 1.07598 1.12368 1.17568
 C2381 C 1.09282 0.60923 0.72926
 C2382 C 1.10705 0.59795 0.71473
 N2383 N 1.12921 0.59806 0.71867
 C2384 C 1.13779 0.60879 0.73656
 C2385 C 1.12363 0.62012 0.75123
 N2386 N 1.10138 0.62012 0.74712
 N2387 N 1.07063 0.60879 0.72547
 C2388 C 1.06204 0.59789 0.70765
 C2389 C 1.07628 0.58699 0.69265
 N2390 N 1.09852 0.58720 0.69681
 H2391 H 1.15555 0.60853 0.73922
 H2392 H 1.04424 0.59770 0.70532
 C2393 C 0.60992 1.09973 0.72433
 C2394 C 0.58775 1.10506 0.71961
 N2395 N 0.57660 1.11912 0.73312
 C2396 C 0.58660 1.12806 0.75123
 C2397 C 0.60883 1.12254 0.75623
 N2398 N 0.61988 1.10846 0.74249
 N2399 N 0.62121 1.08605 0.71058
 C2400 C 0.61125 1.07719 0.69241
 C2401 C 0.58876 1.08201 0.68785
 N2402 N 0.57770 1.09608 0.70160
 H2403 H 0.57708 1.13917 0.76156
 H2404 H 0.62105 1.06686 0.68156
 C2405 C 0.59905 0.60243 1.23342
 C2406 C 0.61311 0.58933 1.22033
 N2407 N 0.63485 0.58734 1.22598
 C2408 C 0.64320 0.59805 1.24403
 C2409 C 0.62924 0.61170 1.25678
 N2410 N 0.60744 0.61342 1.25115
 N2411 N 0.57729 0.60420 1.22806
 C2412 C 0.56897 0.59392 1.20983
 C2413 C 0.58317 0.58162 1.19595
 N2414 N 0.60491 0.57936 1.20185
 H2415 H 0.66063 0.59637 1.24801
 H2416 H 0.55146 0.59553 1.20622
 C2417 C 0.89965 0.88995 1.22507
 C2418 C 0.89242 0.91103 1.21812
 N2419 N 0.87570 0.92125 1.22916
 C2420 C 0.86594 0.91133 1.24693
 C2421 C 0.87344 0.89025 1.25420
 N2422 N 0.89016 0.88017 1.24292
 N2423 N 0.91589 0.87942 1.21373
 C2424 C 0.92546 0.88909 1.19579
 C2425 C 0.91872 0.91062 1.18890
 N2426 N 0.90213 0.92087 1.20036
 H2427 H 0.85273 0.92002 1.25535
 H2428 H 0.93779 0.87962 1.18700
 C2429 C 0.88525 0.40162 0.72146
 C2430 C 0.90703 0.39607 0.71565
 N2431 N 0.91872 0.38164 0.72848
 C2432 C 0.90956 0.37242 0.74688
 C2433 C 0.88765 0.37801 0.75287
 N2434 N 0.87613 0.39262 0.73991
 N2435 N 0.87335 0.41550 0.70827
 C2436 C 0.88227 0.42425 0.68954
 C2437 C 0.90437 0.41908 0.68374
 N2438 N 0.91606 0.40494 0.69708
 H2439 H 0.91944 0.36098 0.75664
 H2440 H 0.87184 0.43461 0.67923
 C2441 C 0.38369 0.89802 0.72975
 C2442 C 0.40618 0.89364 0.72574
 N2443 N 0.41767 0.88043 0.74000
 C2444 C 0.40769 0.87136 0.75809
 C2445 C 0.38514 0.87580 0.76229
 N2446 N 0.37372 0.88912 0.74791
 N2447 N 0.37211 0.91087 0.71527
 C2448 C 0.38201 0.91979 0.69709
 C2449 C 0.40477 0.91593 0.69315
 N2450 N 0.41617 0.90267 0.70764
 H2451 H 0.41738 0.86099 0.76916
 H2452 H 0.37197 0.92944 0.68571
 C2453 C 0.40061 0.38549 1.22631
 C2454 C 0.39488 0.40754 1.22093
 N2455 N 0.38047 0.41873 1.23399
 C2456 C 0.37144 0.40887 1.25215
 C2457 C 0.37734 0.38676 1.25787
 N2458 N 0.39197 0.37571 1.24471
 N2459 N 0.41426 0.37400 1.21273
 C2460 C 0.42278 0.38362 1.19422
 C2461 C 0.41787 0.40617 1.18909
 N2462 N 0.40372 0.41738 1.20266
 H2463 H 0.36013 0.41852 1.26212
 H2464 H 0.43291 0.37339 1.18362
 C2465 C 0.90528 1.11190 0.77209
 C2466 C 0.89084 1.10066 0.78653
 N2467 N 0.86885 1.09990 0.78187
 C2468 C 0.86062 1.10969 0.76329
 C2469 C 0.87500 1.12088 0.74865
 N2470 N 0.89707 1.12182 0.75350
 N2471 N 0.92731 1.11236 0.77669
 C2472 C 0.93554 1.10234 0.79521
 C2473 C 0.92105 1.09141 0.81000
 N2474 N 0.89900 1.09077 0.80507
 H2475 H 0.84299 1.10875 0.76003
 H2476 H 0.95323 1.10283 0.79823
 C2477 C 0.90479 0.60705 0.26579
 C2478 C 0.89035 0.59580 0.28021
 N2479 N 0.86824 0.59584 0.27591
 C2480 C 0.85991 0.60662 0.25784
 C2481 C 0.87431 0.61818 0.24351
 N2482 N 0.89648 0.61809 0.24791
 N2483 N 0.92692 0.60658 0.26976
 C2484 C 0.93530 0.59577 0.28774
 C2485 C 0.92087 0.58517 0.30285
 N2486 N 0.89865 0.58527 0.29842
 H2487 H 0.84220 0.60637 0.25488
 H2488 H 0.95308 0.59552 0.29011
 C2489 C 0.39309 1.09560 0.26988
 C2490 C 0.40293 1.11014 0.28529
 N2491 N 0.40037 1.13247 0.28289
 C2492 C 0.38859 1.14099 0.26566
 C2493 C 0.37878 1.12656 0.25006
 N2494 N 0.38121 1.10409 0.25261
 N2495 N 0.39573 1.07325 0.27238
 C2496 C 0.40744 1.06478 0.28977
 C2497 C 0.41691 1.07932 0.30552
 N2498 N 0.41451 1.10171 0.30269
 H2499 H 0.38691 1.15891 0.26420
 H2500 H 0.40915 1.04687 0.29141
 C2501 C 0.40384 0.60223 0.77012
 C2502 C 0.39052 0.58894 0.78382
 N2503 N 0.36890 0.58556 0.77833
 C2504 C 0.35996 0.59501 0.75980
 C2505 C 0.37320 0.60873 0.74627
 N2506 N 0.39488 0.61191 0.75185
 N2507 N 0.42552 0.60529 0.77529
 C2508 C 0.43450 0.59597 0.79379
 C2509 C 0.42109 0.58319 0.80816
 N2510 N 0.39938 0.57985 0.80251
 H2511 H 0.34264 0.59220 0.75596
 H2512 H 0.45198 0.59845 0.79696
 C2513 C 1.10652 0.90969 0.77025
 C2514 C 1.09686 0.89488 0.78553
 N2515 N 1.09864 0.87258 0.78233
 C2516 C 1.10945 0.86438 0.76443
 C2517 C 1.11910 0.87912 0.74902
 N2518 N 1.11748 0.90152 0.75238
 N2519 N 1.10436 0.93200 0.77330
 C2520 C 1.09328 0.94018 0.79109
 C2521 C 1.08402 0.92540 0.80677
 N2522 N 1.08595 0.90303 0.80338
 H2523 H 1.11045 0.84649 0.76223
 H2524 H 1.09174 0.95807 0.79291
 C2525 C 1.10986 0.38966 0.27744
 C2526 C 1.11444 0.41216 0.28187
 N2527 N 1.12823 0.42367 0.26818
 C2528 C 1.13743 0.41368 0.25016
 C2529 C 1.13230 0.39128 0.24543
 N2530 N 1.11868 0.37988 0.25934
 N2531 N 1.09661 0.37790 0.29123
 C2532 C 1.08726 0.38768 0.30912
 C2533 C 1.09091 0.41058 0.31328
 N2534 N 1.10480 0.42216 0.29960
 H2535 H 1.14814 0.42327 0.23939
 H2536 H 1.07733 0.37745 0.32001
 C2537 C 0.59819 0.88543 0.27997
 C2538 C 0.60343 0.90759 0.28529
 N2539 N 0.61777 0.91916 0.27233
 C2540 C 0.62711 0.90953 0.25424
 C2541 C 0.62169 0.88737 0.24873
 N2542 N 0.60729 0.87589 0.26181
 N2543 N 0.58431 0.87368 0.29319
 C2544 C 0.57516 0.88314 0.31141
 C2545 C 0.57983 0.90563 0.31659
 N2546 N 0.59413 0.91718 0.30336
 H2547 H 0.63839 0.91921 0.24416
 H2548 H 0.56471 0.87293 0.32183
 C2549 C 0.60379 0.38605 0.77611
 C2550 C 0.60719 0.40913 0.77860
 N2551 N 0.61797 0.42064 0.76256
 C2552 C 0.62567 0.41012 0.74423
 C2553 C 0.62234 0.38699 0.74166
 N2554 N 0.61134 0.37551 0.75771
 N2555 N 0.59338 0.37448 0.79235
 C2556 C 0.58591 0.38495 0.81081
 C2557 C 0.58875 0.40822 0.81317
 N2558 N 0.59960 0.41966 0.79697
 H2559 H 0.63425 0.41979 0.73176
 H2560 H 0.57801 0.37508 0.82357
 C2561 C 1.22671 1.10450 1.11321
 C2562 C 1.22370 1.10811 1.09040
 N2563 N 1.23933 1.11956 1.07892
 C2564 C 1.25781 1.12756 1.08919
 C2565 C 1.26100 1.12379 1.11201
 N2566 N 1.24526 1.11228 1.12345
 N2567 N 1.21094 1.09344 1.12480
 C2568 C 1.19245 1.08546 1.11461
 C2569 C 1.18961 1.08833 1.09156
 N2570 N 1.20532 1.09993 1.08009
 H2571 H 1.26997 1.13657 1.07953
 H2572 H 1.18007 1.07707 1.12453
 C2573 C 1.22659 0.59692 0.60808
 C2574 C 1.21315 0.61111 0.59529
 N2575 N 1.21858 0.63303 0.59345
 C2576 C 1.23678 0.64142 0.60392
 C2577 C 1.25005 0.62731 0.61711
 N2578 N 1.24457 0.60533 0.61879
 N2579 N 1.22144 0.57495 0.60964
 C2580 C 1.20317 0.56655 0.59938
 C2581 C 1.18904 0.58084 0.58721
 N2582 N 1.19468 0.60282 0.58527
 H2583 H 1.24059 0.65899 0.60224
 H2584 H 1.19983 0.54887 0.60076
 C2585 C 0.71720 1.10875 0.60583
 C2586 C 0.71490 1.08559 0.60866
 N2587 N 0.73058 1.07414 0.62019
 C2588 C 0.74850 1.08482 0.62892
 C2589 C 0.75100 1.10797 0.62572
 N2590 N 0.73520 1.11933 0.61423
 N2591 N 0.70136 1.12035 0.59483
 C2592 C 0.68345 1.10981 0.58611
 C2593 C 0.68141 1.08641 0.58805
 N2594 N 0.69715 1.07493 0.59965
 H2595 H 0.76082 1.07526 0.63789
 H2596 H 0.67092 1.11976 0.57790
 C2597 C 0.72985 0.59560 1.10686
 C2598 C 0.71574 0.60898 1.09392
 N2599 N 0.71982 0.63116 1.09199
 C2600 C 0.73744 0.64060 1.10247
 C2601 C 0.75144 0.62727 1.11566
 N2602 N 0.74728 0.60504 1.11752
 N2603 N 0.72594 0.57338 1.10852
 C2604 C 0.70824 0.56397 1.09817
 C2605 C 0.69356 0.57746 1.08582
 N2606 N 0.69792 0.59966 1.08383
 H2607 H 0.74028 0.65834 1.10071
 H2608 H 0.70568 0.54616 1.09969
 C2609 C 1.22360 0.90212 0.88526
 C2610 C 1.21991 0.89830 0.90790
 N2611 N 1.23421 0.88529 0.91951
 C2612 C 1.25197 0.87576 0.90949
 C2613 C 1.25574 0.87945 0.88676
 N2614 N 1.24143 0.89271 0.87521
 N2615 N 1.20899 0.91473 0.87360
 C2616 C 1.19095 0.92387 0.88353
 C2617 C 1.18731 0.92042 0.90638
 N2618 N 1.20198 0.90750 0.91788
 H2619 H 1.26306 0.86551 0.91927
 H2620 H 1.17942 0.93327 0.87344
 C2621 C 1.22647 0.39180 0.40695
 C2622 C 1.21465 0.40771 0.39463
 N2623 N 1.22140 0.41298 0.37388
 C2624 C 1.23948 0.40305 0.36485
 C2625 C 1.25122 0.38668 0.37699
 N2626 N 1.24426 0.38149 0.39782
 N2627 N 1.22020 0.38716 0.42798
 C2628 C 1.20234 0.39736 0.43714
 C2629 C 1.18969 0.41270 0.42452
 N2630 N 1.19653 0.41757 0.40356
 H2631 H 1.24421 0.40766 0.34821
 H2632 H 1.19841 0.39351 0.45415
 C2633 C 0.72505 0.88597 0.40668
 C2634 C 0.71114 0.89858 0.39278
 N2635 N 0.71634 0.90091 0.37108
 C2636 C 0.73490 0.89135 0.36264
 C2637 C 0.74899 0.87871 0.37646
 N2638 N 0.74361 0.87625 0.39824
 N2639 N 0.71998 0.88401 0.42847
 C2640 C 0.70152 0.89384 0.43695
 C2641 C 0.68721 0.90618 0.42299
 N2642 N 0.69264 0.90830 0.40119
 H2643 H 0.73854 0.89354 0.34524
 H2644 H 0.69830 0.89220 0.45448
 C2645 C 0.73685 0.39401 0.90200
 C2646 C 0.72261 0.40633 0.88821
 N2647 N 0.72696 0.40776 0.86623
 C2648 C 0.74490 0.39736 0.85738
 C2649 C 0.75906 0.38470 0.87110
 N2650 N 0.75461 0.38339 0.89316
 N2651 N 0.73272 0.39289 0.92402
 C2652 C 0.71476 0.40320 0.93287
 C2653 C 0.69990 0.41500 0.91903
 N2654 N 0.70449 0.41641 0.89697
 H2655 H 0.74780 0.39871 0.83977
 H2656 H 0.71231 0.40221 0.95057
 C2657 C 0.77174 0.89196 1.09739
 C2658 C 0.78638 0.90313 1.11173
 N2659 N 0.78224 0.90330 1.13377
 C2660 C 0.76406 0.89290 1.14215
 C2661 C 0.74934 0.88162 1.12788
 N2662 N 0.75363 0.88137 1.10575
 N2663 N 0.77569 0.89220 1.07530
 C2664 C 0.79379 0.90279 1.06690
 C2665 C 0.80893 0.91351 1.08127
 N2666 N 0.80458 0.91351 1.10340
 H2667 H 0.76122 0.89335 1.15982
 H2668 H 0.79616 0.90290 1.04917
 C2669 C 0.77167 0.39306 0.59021
 C2670 C 0.78510 0.40744 0.60275
 N2671 N 0.78052 0.41082 0.62445
 C2672 C 0.76307 0.40040 0.63422
 C2673 C 0.74978 0.38572 0.62178
 N2674 N 0.75444 0.38243 0.60002
 N2675 N 0.77606 0.38996 0.56844
 C2676 C 0.79356 0.40029 0.55868
 C2677 C 0.80760 0.41414 0.57137
 N2678 N 0.80274 0.41751 0.59311
 H2679 H 0.75988 0.40331 0.65159
 H2680 H 0.79638 0.39765 0.54121
 C2681 C 0.26701 0.90580 0.61011
 C2682 C 0.28041 0.89193 0.59711
 N2683 N 0.27502 0.87006 0.59488
 C2684 C 0.25681 0.86141 0.60503
 C2685 C 0.24339 0.87519 0.61826
 N2686 N 0.24893 0.89714 0.62047
 N2687 N 0.27220 0.92774 0.61202
 C2688 C 0.29035 0.93642 0.60182
 C2689 C 0.30432 0.92247 0.58923
 N2690 N 0.29871 0.90051 0.58708
 H2691 H 0.25307 0.84388 0.60298
 H2692 H 0.29364 0.95408 0.60346
 C2693 C 0.28038 0.39483 1.11187
 C2694 C 0.28382 0.39093 1.08925
 N2695 N 0.26901 0.37825 1.07784
 C2696 C 0.25085 0.36943 1.08802
 C2697 C 0.24715 0.37381 1.11059
 N2698 N 0.26213 0.38640 1.12191
 N2699 N 0.29536 0.40693 1.12351
 C2700 C 0.31349 0.41575 1.11353
 C2701 C 0.31671 0.41278 1.09057
 N2702 N 0.30180 0.40006 1.07909
 H2703 H 0.23923 0.35955 1.07849
 H2704 H 0.32530 0.42472 1.12365
 C2705 C 0.77332 1.11401 0.89465
 C2706 C 0.77685 1.09143 0.88962
 N2707 N 0.76231 1.08073 0.87608
 C2708 C 0.74443 1.09156 0.86738
 C2709 C 0.74070 1.11415 0.87262
 N2710 N 0.75535 1.12478 0.88619
 N2711 N 0.78802 1.12490 0.90776
 C2712 C 0.80591 1.11419 0.91644
 C2713 C 0.80923 1.09127 0.91215
 N2714 N 0.79462 1.08056 0.89849
 H2715 H 0.73313 1.08252 0.85673
 H2716 H 0.81749 1.12366 0.92640
 C2717 C 0.77034 0.60017 0.39451
 C2718 C 0.78375 0.61355 0.40805
 N2719 N 0.77767 0.63498 0.41213
 C2720 C 0.75884 0.64368 0.40306
 C2721 C 0.74570 0.63044 0.38896
 N2722 N 0.75182 0.60894 0.38516
 N2723 N 0.77609 0.57865 0.39079
 C2724 C 0.79495 0.56994 0.39963
 C2725 C 0.80910 0.58351 0.41252
 N2726 N 0.80282 0.60500 0.41660
 H2727 H 0.75452 0.66087 0.40636
 H2728 H 0.79858 0.55256 0.39662
 C2729 C 0.27735 1.11605 0.39910
 C2730 C 0.27995 1.09284 0.39713
 N2731 N 0.26366 1.08056 0.38758
 C2732 C 0.24490 1.09041 0.37984
 C2733 C 0.24216 1.11369 0.38174
 N2734 N 0.25854 1.12596 0.39143
 N2735 N 0.29376 1.12831 0.40852
 C2736 C 0.31251 1.11840 0.41632
 C2737 C 0.31499 1.09502 0.41482
 N2738 N 0.29860 1.08290 0.40500
 H2739 H 0.23224 1.08001 0.37243
 H2740 H 0.32538 1.12876 0.42345
 C2741 C 0.27896 0.61201 0.89888
 C2742 C 0.28245 0.58923 0.89480
 N2743 N 0.26765 0.57781 0.88218
 C2744 C 0.24952 0.58814 0.87345
 C2745 C 0.24587 0.61094 0.87769
 N2746 N 0.26076 0.62228 0.89038
 N2747 N 0.29395 0.62358 0.91106
 C2748 C 0.31215 0.61337 0.91966
 C2749 C 0.31550 0.59032 0.91622
 N2750 N 0.30054 0.57891 0.90357
 H2751 H 0.23799 0.57855 0.86353
 H2752 H 0.32398 0.62336 0.92879
 C2753 C 1.11087 1.22407 1.10937
 C2754 C 1.08790 1.22178 1.11243
 N2755 N 1.07679 1.23754 1.12410
 C2756 C 1.08760 1.25558 1.13263
 C2757 C 1.11049 1.25820 1.12891
 N2758 N 1.12153 1.24224 1.11742
 N2759 N 1.12220 1.20816 1.09830
 C2760 C 1.11155 1.19029 1.08956
 C2761 C 1.08828 1.18840 1.09143
 N2762 N 1.07707 1.20410 1.10328
 H2763 H 1.07832 1.26799 1.14169
 H2764 H 1.12130 1.17772 1.08126
 C2765 C 1.10984 0.72207 0.60421
 C2766 C 1.08682 0.71968 0.60686
 N2767 N 1.07532 0.73552 0.61797
 C2768 C 1.08582 0.75365 0.62654
 C2769 C 1.10885 0.75620 0.62364
 N2770 N 1.12028 0.74028 0.61250
 N2771 N 1.12146 0.70604 0.59361
 C2772 C 1.11107 0.68787 0.58512
 C2773 C 1.08783 0.68573 0.58696
 N2774 N 1.07632 0.70166 0.59812
 H2775 H 1.07623 0.76606 0.63526
 H2776 H 1.12099 0.67520 0.57716
 C2777 C 0.59796 1.23212 0.60574
 C2778 C 0.61226 1.21750 0.59457
 N2779 N 0.63437 1.22175 0.59446
 C2780 C 0.64284 1.23993 0.60500
 C2781 C 0.62860 1.25446 0.61649
 N2782 N 0.60642 1.25012 0.61655
 N2783 N 0.57583 1.22812 0.60553
 C2784 C 0.56735 1.20993 0.59509
 C2785 C 0.58166 1.19464 0.58459
 N2786 N 0.60385 1.19909 0.58439
 H2787 H 0.66055 1.24280 0.60464
 H2788 H 0.54957 1.20744 0.59512
 C2789 C 0.61747 0.72491 1.10340
 C2790 C 0.59495 0.72070 1.10755
 N2791 N 0.58337 0.73500 1.12049
 C2792 C 0.59327 0.75331 1.12948
 C2793 C 0.61581 0.75772 1.12519
 N2794 N 0.62734 0.74331 1.11216
 N2795 N 0.62919 0.71036 1.09092
 C2796 C 0.61941 0.69193 1.08212
 C2797 C 0.59659 0.68783 1.08565
 N2798 N 0.58505 0.70239 1.09858
 H2799 H 0.58351 0.76440 1.13963
 H2800 H 0.62960 0.68051 1.07282
 C2801 C 0.89100 1.22928 0.90761
 C2802 C 0.90369 1.21524 0.89406
 N2803 N 0.90570 1.21992 0.87221
 C2804 C 0.89575 1.23815 0.86326
 C2805 C 0.88311 1.25239 0.87676
 N2806 N 0.88093 1.24750 0.89868
 N2807 N 0.88922 1.22461 0.92952
 C2808 C 0.89937 1.20640 0.93846
 C2809 C 0.91183 1.19207 0.92483
 N2810 N 0.91372 1.19706 0.90293
 H2811 H 0.89763 1.24137 0.84574
 H2812 H 0.89781 1.20330 0.95604
 C2813 C 0.88816 0.72350 0.38952
 C2814 C 0.91127 0.72228 0.38669
 N2815 N 0.92199 0.73937 0.37653
 C2816 C 0.91069 0.75759 0.36911
 C2817 C 0.88758 0.75904 0.37228
 N2818 N 0.87690 0.74185 0.38245
 N2819 N 0.87731 0.70628 0.39921
 C2820 C 0.88853 0.68811 0.40669
 C2821 C 0.91186 0.68715 0.40487
 N2822 N 0.92264 0.70424 0.39452
 H2823 H 0.91973 0.77095 0.36111
 H2824 H 0.87925 0.67462 0.41420
 C2825 C 0.40326 1.23121 0.39004
 C2826 C 0.38988 1.21795 0.40377
 N2827 N 0.36838 1.22377 0.40698
 C2828 C 0.35965 1.24226 0.39713
 C2829 C 0.37295 1.25555 0.38318
 N2830 N 0.39452 1.24958 0.37999
 N2831 N 0.42485 1.22561 0.38715
 C2832 C 0.43362 1.20719 0.39707
 C2833 C 0.42015 1.19337 0.41042
 N2834 N 0.39855 1.19939 0.41354
 H2835 H 0.34242 1.24632 0.39997
 H2836 H 0.45102 1.20363 0.39466
 C2837 C 0.40627 0.72605 0.89743
 C2838 C 0.39263 0.71157 0.90961
 N2839 N 0.37060 0.71585 0.91112
 C2840 C 0.36156 0.73397 0.90096
 C2841 C 0.37514 0.74838 0.88851
 N2842 N 0.39723 0.74400 0.88707
 N2843 N 0.42835 0.72197 0.89622
 C2844 C 0.43739 0.70382 0.90631
 C2845 C 0.42367 0.68876 0.91794
 N2846 N 0.40158 0.69329 0.91945
 H2847 H 0.34391 0.73688 0.90237
 H2848 H 0.45511 0.70129 0.90523
 C2849 C 1.10450 0.77695 0.88490
 C2850 C 1.10944 0.78070 0.90732
 N2851 N 1.12267 0.76600 0.91829
 C2852 C 1.13116 0.74778 0.90787
 C2853 C 1.12598 0.74379 0.88545
 N2854 N 1.11269 0.75860 0.87455
 N2855 N 1.09187 0.79192 0.87372
 C2856 C 1.08360 0.81028 0.88394
 C2857 C 1.08772 0.81386 0.90672
 N2858 N 1.10090 0.79893 0.91774
 H2859 H 1.14160 0.73638 0.91711
 H2860 H 1.07418 0.82203 0.87410
 C2861 C 1.11466 0.27582 0.39685
 C2862 C 1.09205 0.27908 0.39226
 N2863 N 1.08127 0.26455 0.37880
 C2864 C 1.09207 0.24691 0.36969
 C2865 C 1.11475 0.24347 0.37434
 N2866 N 1.12546 0.25810 0.38792
 N2867 N 1.12553 0.29057 0.40997
 C2868 C 1.11480 0.30828 0.41897
 C2869 C 1.09191 0.31141 0.41492
 N2870 N 1.08121 0.29669 0.40138
 H2871 H 1.08290 0.23558 0.35917
 H2872 H 1.12425 0.31993 0.42888
 C2873 C 0.59666 0.76737 0.40349
 C2874 C 0.58450 0.78149 0.38940
 N2875 N 0.58413 0.77732 0.36730
 C2876 C 0.59552 0.75978 0.35867
 C2877 C 0.60823 0.74601 0.37273
 N2878 N 0.60837 0.75018 0.39486
 N2879 N 0.59668 0.77113 0.42559
 C2880 C 0.58557 0.78873 0.43427
 C2881 C 0.57424 0.80372 0.42016
 N2882 N 0.57373 0.79941 0.39799
 H2883 H 0.59507 0.75694 0.34099
 H2884 H 0.58579 0.79100 0.45202
 C2885 C 0.61561 0.27812 0.89980
 C2886 C 0.59232 0.27943 0.90008
 N2887 N 0.58011 0.26199 0.89260
 C2888 C 0.59009 0.24336 0.88467
 C2889 C 0.61342 0.24200 0.88420
 N2890 N 0.62564 0.25946 0.89191
 N2891 N 0.62779 0.29565 0.90713
 C2892 C 0.61778 0.31432 0.91499
 C2893 C 0.59441 0.31555 0.91571
 N2894 N 0.58228 0.29803 0.90799
 H2895 H 0.57984 0.22976 0.87883
 H2896 H 0.62799 0.32808 0.92055
 C2897 C 0.90112 0.77891 1.11192
 C2898 C 0.89887 0.78054 1.08878
 N2899 N 0.88896 0.76374 1.07746
 C2900 C 0.88106 0.74546 1.08821
 C2901 C 0.88330 0.74375 1.11137
 N2902 N 0.89339 0.76056 1.12268
 N2903 N 0.91056 0.79592 1.12330
 C2904 C 0.91821 0.81432 1.11260
 C2905 C 0.91663 0.81580 1.08931
 N2906 N 0.90670 0.79885 1.07801
 H2907 H 0.87310 0.73238 1.07875
 H2908 H 0.92542 0.82770 1.12226
 C2909 C 0.89836 0.26650 0.60318
 C2910 C 0.88397 0.28017 0.59083
 N2911 N 0.86204 0.27510 0.58997
 C2912 C 0.85383 0.25702 0.60093
 C2913 C 0.86815 0.24347 0.61362
 N2914 N 0.89015 0.24862 0.61438
 N2915 N 0.92032 0.27133 0.60381
 C2916 C 0.92853 0.28946 0.59304
 C2917 C 0.91410 0.30381 0.58129
 N2918 N 0.89210 0.29853 0.58027
 H2919 H 0.83624 0.25353 0.60001
 H2920 H 0.94619 0.29265 0.59379
 C2921 C 0.38297 0.77613 0.60623
 C2922 C 0.40543 0.78059 0.61037
 N2923 N 0.41724 0.76661 0.62366
 C2924 C 0.40757 0.74829 0.63291
 C2925 C 0.38509 0.74365 0.62850
 N2926 N 0.37341 0.75779 0.61524
 N2927 N 0.37098 0.79025 0.59338
 C2928 C 0.38048 0.80860 0.58420
 C2929 C 0.40322 0.81298 0.58775
 N2930 N 0.41505 0.79883 0.60103
 H2931 H 0.41741 0.73738 0.64331
 H2932 H 0.37011 0.81974 0.57463
 C2933 C 0.39855 0.27046 1.09390
 C2934 C 0.41037 0.28521 1.10760
 N2935 N 0.41052 0.28197 1.12982
 C2936 C 0.39933 0.26462 1.13902
 C2937 C 0.38725 0.24995 1.12536
 N2938 N 0.38720 0.25326 1.10308
 N2939 N 0.39850 0.27368 1.07168
 C2940 C 0.40939 0.29127 1.06253
 C2941 C 0.42065 0.30653 1.07628
 N2942 N 0.42102 0.30287 1.09852
 H2943 H 0.39964 0.26257 1.15681
 H2944 H 0.40907 0.29335 1.04473
 C2945 C 1.09973 1.11702 0.77201
 C2946 C 1.10686 1.09594 0.77910
 N2947 N 1.12247 1.08498 0.76718
 C2948 C 1.13128 1.09415 0.74851
 C2949 C 1.12403 1.11533 0.74111
 N2950 N 1.10829 1.12614 0.75323
 N2951 N 1.08460 1.12824 0.78421
 C2952 C 1.07607 1.11933 0.80309
 C2953 C 1.08270 1.09780 0.81024
 N2954 N 1.09819 1.08682 0.79787
 H2955 H 1.14365 1.08480 0.73955
 H2956 H 1.06458 1.12939 0.81233
 C2957 C 1.11705 0.60268 0.27298
 C2958 C 1.09576 0.60992 0.27878
 N2959 N 1.08575 0.62593 0.26632
 C2960 C 1.09602 0.63497 0.24832
 C2961 C 1.11732 0.62745 0.24211
 N2962 N 1.12721 0.61139 0.25481
 N2963 N 1.12741 0.58728 0.28580
 C2964 C 1.11740 0.57847 0.30398
 C2965 C 1.09557 0.58498 0.30967
 N2966 N 1.08549 0.60087 0.29681
 H2967 H 1.08736 0.64761 0.23887
 H2968 H 1.12685 0.56685 0.31387
 C2969 C 0.61260 1.09403 0.27593
 C2970 C 0.59045 1.09967 0.28029
 N2971 N 0.57943 1.11333 0.26619
 C2972 C 0.58953 1.12176 0.24795
 C2973 C 0.61180 1.11610 0.24329
 N2974 N 0.62272 1.10218 0.25751
 N2975 N 0.62376 1.08085 0.29045
 C2976 C 0.61370 1.07279 0.30893
 C2977 C 0.59117 1.07782 0.31306
 N2978 N 0.58028 1.09141 0.29856
 H2979 H 0.57993 1.13246 0.23717
 H2980 H 0.62344 1.06289 0.32034
 C2981 C 0.61351 0.60285 0.77572
 C2982 C 0.59084 0.60644 0.77950
 N2983 N 0.57894 0.61885 0.76484
 C2984 C 0.58869 0.62768 0.74649
 C2985 C 0.61130 0.62360 0.74244
 N2986 N 0.62312 0.61130 0.75728
 N2987 N 0.62562 0.59100 0.79055
 C2988 C 0.61602 0.58210 0.80883
 C2989 C 0.59302 0.58471 0.81232
 N2990 N 0.58108 0.59721 0.79761
 H2991 H 0.57878 0.63737 0.73500
 H2992 H 0.62644 0.57326 0.82051
 C2993 C 0.88846 0.89724 0.77596
 C2994 C 0.91113 0.89321 0.77935
 N2995 N 0.92218 0.87988 0.76494
 C2996 C 0.91160 0.87054 0.74725
 C2997 C 0.88893 0.87494 0.74360
 N2998 N 0.87798 0.88820 0.75820
 N2999 N 0.87720 0.91011 0.79049
 C3000 C 0.88763 0.91951 0.80811
 C3001 C 0.91063 0.91629 0.81131
 N3002 N 0.92172 0.90284 0.79686
 H3003 H 0.92089 0.86014 0.73599
 H3004 H 0.87783 0.92914 0.81959
 C3005 C 0.89399 0.40335 0.27145
 C3006 C 0.90665 0.38893 0.28481
 N3007 N 0.90721 0.36686 0.28008
 C3008 C 0.89585 0.35855 0.26248
 C3009 C 0.88286 0.37291 0.24914
 N3010 N 0.88214 0.39502 0.25419
 N3011 N 0.89426 0.42556 0.27555
 C3012 C 0.90615 0.43395 0.29276
 C3013 C 0.91789 0.41942 0.30705
 N3014 N 0.91805 0.39720 0.30239
 H3015 H 0.89672 0.34082 0.25928
 H3016 H 0.90624 0.45182 0.29523
 C3017 C 0.38824 0.90137 0.26923
 C3018 C 0.40328 0.88822 0.28126
 N3019 N 0.40860 0.86764 0.27363
 C3020 C 0.39954 0.85958 0.25456
 C3021 C 0.38397 0.87252 0.24258
 N3022 N 0.37878 0.89320 0.25042
 N3023 N 0.38356 0.92225 0.27637
 C3024 C 0.39287 0.93049 0.29520
 C3025 C 0.40735 0.91707 0.30807
 N3026 N 0.41231 0.89623 0.30038
 H3027 H 0.40419 0.84304 0.24922
 H3028 H 0.38903 0.94748 0.29962
 C3029 C 0.39671 0.38932 0.77755
 C3030 C 0.39147 0.41154 0.78251
 N3031 N 0.37706 0.42282 0.76924
 C3032 C 0.36777 0.41289 0.75117
 C3033 C 0.37337 0.39073 0.74593
 N3034 N 0.38773 0.37954 0.75938
 N3035 N 0.41060 0.37780 0.79104
 C3036 C 0.41986 0.38754 0.80913
 C3037 C 0.41538 0.41016 0.81391
 N3038 N 0.40096 0.42146 0.80045
 H3039 H 0.35646 0.42234 0.74082
 H3040 H 0.43027 0.37744 0.81973
 C3041 C 1.10674 0.90196 1.23148
 C3042 C 1.09440 0.88780 1.21764
 N3043 N 1.09216 0.86593 1.22319
 C3044 C 1.10177 0.85758 1.24190
 C3045 C 1.11451 0.87166 1.25559
 N3046 N 1.11663 0.89358 1.24995
 N3047 N 1.10856 0.92389 1.22629
 C3048 C 1.09900 0.93231 1.20765
 C3049 C 1.08731 0.91807 1.19310
 N3050 N 1.08509 0.89610 1.19876
 H3051 H 1.09980 0.84006 1.24581
 H3052 H 1.10050 0.95000 1.20442
 C3053 C 1.09532 0.39061 0.72393
 C3054 C 1.09961 0.41324 0.71969
 N3055 N 1.11325 0.42480 0.73343
 C3056 C 1.12278 0.41472 0.75126
 C3057 C 1.11829 0.39210 0.75567
 N3058 N 1.10459 0.38061 0.74186
 N3059 N 1.08227 0.37886 0.70986
 C3060 C 1.07301 0.38877 0.69184
 C3061 C 1.07668 0.41171 0.68778
 N3062 N 1.09016 0.42325 0.70184
 H3063 H 1.13353 0.42436 0.76198
 H3064 H 1.06332 0.37857 0.68068
 C3065 C 0.60211 0.88640 0.72561
 C3066 C 0.60753 0.90849 0.72017
 N3067 N 0.62253 0.91970 0.73279
 C3068 C 0.63225 0.90981 0.75070
 C3069 C 0.62650 0.88777 0.75642
 N3070 N 0.61155 0.87665 0.74360
 N3071 N 0.58755 0.87496 0.71280
 C3072 C 0.57783 0.88468 0.69491
 C3073 C 0.58257 0.90716 0.68963
 N3074 N 0.59762 0.91838 0.70242
 H3075 H 0.64400 0.91921 0.76054
 H3076 H 0.56686 0.87467 0.68483
 C3077 C 0.60281 0.38733 1.22802
 C3078 C 0.60939 0.40894 1.22206
 N3079 N 0.62481 0.41972 1.23453
 C3080 C 0.63384 0.40985 1.25279
 C3081 C 0.62681 0.38831 1.25909
 N3082 N 0.61144 0.37768 1.24638
 N3083 N 0.58812 0.37614 1.21521
 C3084 C 0.57931 0.38569 1.19680
 C3085 C 0.58510 0.40783 1.19105
 N3086 N 0.60032 0.41874 1.20387
 H3087 H 0.64602 0.41897 1.26237
 H3088 H 0.56832 0.37569 1.18679
 C3089 C 0.90289 1.10499 1.23039
 C3090 C 0.88833 1.09449 1.21546
 N3091 N 0.86618 1.09515 1.21917
 C3092 C 0.85792 1.10567 1.23722
 C3093 C 0.87242 1.11618 1.25228
 N3094 N 0.89465 1.11565 1.24841
 N3095 N 0.92506 1.10404 1.22678
 C3096 C 0.93332 1.09338 1.20876
 C3097 C 0.91874 1.08328 1.19342
 N3098 N 0.89654 1.08398 1.19737
 H3099 H 0.84016 1.10585 1.23974
 H3100 H 0.95110 1.09283 1.20648
 C3101 C 0.88517 0.60208 0.71844
 C3102 C 0.90787 0.60534 0.71456
 N3103 N 0.92015 0.61728 0.72921
 C3104 C 0.91072 0.62614 0.74760
 C3105 C 0.88797 0.62276 0.75161
 N3106 N 0.87578 0.61073 0.73687
 N3107 N 0.87279 0.59056 0.70358
 C3108 C 0.88213 0.58190 0.68507
 C3109 C 0.90507 0.58465 0.68128
 N3110 N 0.91727 0.59655 0.69619
 H3111 H 0.92097 0.63548 0.75902
 H3112 H 0.87153 0.57337 0.67336
 C3113 C 0.40588 1.10960 0.73132
 C3114 C 0.39094 1.10037 0.71591
 N3115 N 0.36884 1.10300 0.71886
 C3116 C 0.36094 1.11425 0.73663
 C3117 C 0.37579 1.12343 0.75220
 N3118 N 0.39801 1.12095 0.74909
 N3119 N 0.42799 1.10671 0.72842
 C3120 C 0.43585 1.09533 0.71066
 C3121 C 0.42095 1.08649 0.69489
 N3122 N 0.39878 1.08913 0.69811
 H3123 H 0.34318 1.11594 0.73862
 H3124 H 0.45359 1.09331 0.70884
 C3125 C 0.40728 0.60638 1.22716
 C3126 C 0.39370 0.59353 1.21318
 N3127 N 0.37169 0.59191 1.21741
 C3128 C 0.36261 0.60253 1.23504
 C3129 C 0.37612 0.61560 1.24896
 N3130 N 0.39820 0.61722 1.24463
 N3131 N 0.42936 0.60765 1.22314
 C3132 C 0.43844 0.59701 1.20553
 C3133 C 0.42478 0.58470 1.19098
 N3134 N 0.40270 0.58312 1.19544
 H3135 H 0.34498 0.60095 1.23797
 H3136 H 0.45616 0.59819 1.20302
 C3137 C 1.11307 1.22999 0.89950
 C3138 C 1.09116 1.22495 0.89345
 N3139 N 1.08069 1.23793 0.87824
 C3140 C 1.09110 1.25577 0.86887
 C3141 C 1.11301 1.26125 0.87527
 N3142 N 1.12337 1.24804 0.89052
 N3143 N 1.12387 1.21656 0.91400
 C3144 C 1.11367 1.19854 0.92313
 C3145 C 1.09122 1.19381 0.91798
 N3146 N 1.08070 1.20718 0.90289
 H3147 H 1.08206 1.26567 0.85688
 H3148 H 1.12338 1.18801 0.93395
 C3149 C 1.09743 0.72762 0.39498
 C3150 C 1.11127 0.71409 0.40805
 N3151 N 1.13329 0.71857 0.40914
 C3152 C 1.14213 0.73595 0.39769
 C3153 C 1.12837 0.74923 0.38404
 N3154 N 1.10629 0.74462 0.38310
 N3155 N 1.07532 0.72360 0.39440
 C3156 C 1.06649 0.70618 0.40576
 C3157 C 1.08049 0.69165 0.41780
 N3158 N 1.10257 0.69631 0.41893
 H3159 H 1.15979 0.73890 0.39893
 H3160 H 1.04875 0.70357 0.40503
 C3161 C 0.61269 1.22188 0.39534
 C3162 C 0.59092 1.21706 0.38867
 N3163 N 0.58106 1.22998 0.37298
 C3164 C 0.59197 1.24759 0.36376
 C3165 C 0.61371 1.25280 0.37083
 N3166 N 0.62344 1.23962 0.38647
 N3167 N 0.62288 1.20866 0.41045
 C3168 C 0.61217 1.19096 0.41955
 C3169 C 0.58992 1.18640 0.41362
 N3170 N 0.58000 1.19956 0.39800
 H3171 H 0.58350 1.25754 0.35141
 H3172 H 0.62129 1.18049 0.43095
 C3173 C 0.61531 0.72134 0.89587
 C3174 C 0.59284 0.71716 0.89143
 N3175 N 0.58135 0.73143 0.87816
 C3176 C 0.59133 0.74979 0.86928
 C3177 C 0.61375 0.75424 0.87417
 N3178 N 0.62515 0.73978 0.88734
 N3179 N 0.62702 0.70689 0.90860
 C3180 C 0.61721 0.68859 0.91751
 C3181 C 0.59437 0.68464 0.91394
 N3182 N 0.58285 0.69901 0.90062
 H3183 H 0.58173 0.76097 0.85893
 H3184 H 0.62738 0.67720 0.92702
 C3185 C 0.88765 1.22067 1.10519
 C3186 C 0.91059 1.21746 1.10767
 N3187 N 0.92283 1.23263 1.11901
 C3188 C 0.91315 1.25100 1.12787
 C3189 C 0.89023 1.25444 1.12500
 N3190 N 0.87805 1.23909 1.11376
 N3191 N 0.87530 1.20532 1.09428
 C3192 C 0.88492 1.18702 1.08533
 C3193 C 0.90809 1.18407 1.08704
 N3194 N 0.92028 1.19933 1.09849
 H3195 H 0.92335 1.26290 1.13671
 H3196 H 0.87443 1.17486 1.07723
 C3197 C 0.90235 0.73373 0.59995
 C3198 C 0.88804 0.71978 0.58788
 N3199 N 0.86607 0.72463 0.58695
 C3200 C 0.85774 0.74275 0.59763
 C3201 C 0.87199 0.75652 0.61010
 N3202 N 0.89402 0.75161 0.61088
 N3203 N 0.92435 0.72913 0.60065
 C3204 C 0.93268 0.71094 0.59024
 C3205 C 0.91833 0.69629 0.57882
 N3206 N 0.89629 0.70135 0.57771
 H3207 H 0.84012 0.74606 0.59672
 H3208 H 0.95036 0.70794 0.59100
 C3209 C 0.38939 1.22668 0.60600
 C3210 C 0.41102 1.22160 0.61296
 N3211 N 0.42087 1.23453 0.62861
 C3212 C 0.41012 1.25239 0.63748
 C3213 C 0.38857 1.25791 0.63001
 N3214 N 0.37885 1.24470 0.61444
 N3215 N 0.37911 1.21341 0.59105
 C3216 C 0.38961 1.19550 0.58228
 C3217 C 0.41183 1.19079 0.58825
 N3218 N 0.42182 1.20392 0.60385
 H3219 H 0.41857 1.26234 0.64981
 H3220 H 0.38038 1.18503 0.57101
 C3221 C 0.40568 0.72835 1.10642
 C3222 C 0.39264 0.71500 1.09246
 N3223 N 0.37085 0.71986 1.08965
 C3224 C 0.36146 0.73744 1.10024
 C3225 C 0.37435 0.75061 1.11478
 N3226 N 0.39624 0.74561 1.11744
 N3227 N 0.42762 0.72396 1.10862
 C3228 C 0.43705 0.70647 1.09792
 C3229 C 0.42381 0.69220 1.08475
 N3230 N 0.40189 0.69719 1.08216
 H3231 H 0.34400 0.74062 1.09764
 H3232 H 0.45469 0.70394 1.09980
 C3233 C 0.88936 0.77780 0.89763
 C3234 C 0.91248 0.77977 0.89527
 N3235 N 0.92395 0.76315 0.88533
 C3236 C 0.91337 0.74472 0.87754
 C3237 C 0.89021 0.74263 0.87989
 N3238 N 0.87876 0.75930 0.88999
 N3239 N 0.87786 0.79458 0.90723
 C3240 C 0.88841 0.81307 0.91491
 C3241 C 0.91171 0.81488 0.91321
 N3242 N 0.92311 0.79816 0.90312
 H3243 H 0.92302 0.73178 0.86968
 H3244 H 0.87863 0.82625 0.92222
 C3245 C 0.90150 0.26579 0.38851
 C3246 C 0.88806 0.27977 0.40133
 N3247 N 0.86628 0.27467 0.40394
 C3248 C 0.85732 0.25620 0.39433
 C3249 C 0.87069 0.24217 0.38131
 N3250 N 0.89255 0.24743 0.37872
 N3251 N 0.92335 0.27069 0.38623
 C3252 C 0.93235 0.28908 0.39594
 C3253 C 0.91885 0.30358 0.40842
 N3254 N 0.89697 0.29827 0.41089
 H3255 H 0.83989 0.25270 0.39668
 H3256 H 0.94993 0.29207 0.39406
 C3257 C 0.38471 0.76951 0.40249
 C3258 C 0.40059 0.78163 0.39060
 N3259 N 0.40687 0.77441 0.37029
 C3260 C 0.39795 0.75563 0.36128
 C3261 C 0.38163 0.74351 0.37298
 N3262 N 0.37549 0.75092 0.39340
 N3263 N 0.37890 0.77640 0.42303
 C3264 C 0.38799 0.79505 0.43214
 C3265 C 0.40351 0.80785 0.42002
 N3266 N 0.40947 0.80046 0.39952
 H3267 H 0.40339 0.75056 0.34503
 H3268 H 0.38318 0.79942 0.44876
 C3269 C 0.40333 0.27133 0.89327
 C3270 C 0.38890 0.28612 0.90401
 N3271 N 0.36677 0.28193 0.90384
 C3272 C 0.35842 0.26362 0.89345
 C3273 C 0.37279 0.24885 0.88245
 N3274 N 0.39499 0.25316 0.88265
 N3275 N 0.42547 0.27526 0.89382
 C3276 C 0.43386 0.29351 0.90425
 C3277 C 0.41944 0.30892 0.91444
 N3278 N 0.39722 0.30455 0.91422
 H3279 H 0.34069 0.26079 0.89359
 H3280 H 0.45165 0.29582 0.90460
 C3281 C 1.10504 0.77738 1.10817
 C3282 C 1.11053 0.78151 1.08596
 N3283 N 1.12384 0.76695 1.07516
 C3284 C 1.13187 0.74845 1.08554
 C3285 C 1.12591 0.74392 1.10772
 N3286 N 1.11253 0.75863 1.11838
 N3287 N 1.09269 0.79241 1.11935
 C3288 C 1.08505 0.81113 1.10922
 C3289 C 1.08932 0.81483 1.08648
 N3290 N 1.10240 0.79995 1.07555
 H3291 H 1.14234 0.73723 1.07628
 H3292 H 1.07590 0.82297 1.11906
 C3293 C 1.09474 0.27170 0.61291
 C3294 C 1.10791 0.28534 0.59934
 N3295 N 1.12983 0.28099 0.59736
 C3296 C 1.13926 0.26353 0.60820
 C3297 C 1.12622 0.24971 0.62202
 N3298 N 1.10416 0.25434 0.62407
 N3299 N 1.07269 0.27587 0.61441
 C3300 C 1.06329 0.29327 0.60329
 C3301 C 1.07662 0.30752 0.59022
 N3302 N 1.09865 0.30288 0.58850
 H3303 H 1.15685 0.26089 0.60618
 H3304 H 1.04559 0.29573 0.60463
 C3305 C 0.59184 0.76815 0.60740
 C3306 C 0.60442 0.78211 0.59366
 N3307 N 0.62609 0.77729 0.58993
 C3308 C 0.63579 0.75911 0.59942
 C3309 C 0.62328 0.74526 0.61348
 N3310 N 0.60155 0.75018 0.61705
 N3311 N 0.57012 0.77276 0.61088
 C3312 C 0.56041 0.79096 0.60151
 C3313 C 0.57309 0.80547 0.58817
 N3314 N 0.59483 0.80041 0.58448
 H3315 H 0.65312 0.75578 0.59627
 H3316 H 0.54296 0.79381 0.60437
 C3317 C 0.61345 0.27661 1.10299
 C3318 C 0.59045 0.27959 1.10505
 N3319 N 0.57825 0.26421 1.11616
 C3320 C 0.58804 0.24593 1.12529
 C3321 C 0.61106 0.24281 1.12301
 N3322 N 0.62318 0.25830 1.11188
 N3323 N 0.62574 0.29216 1.09231
 C3324 C 0.61605 0.31048 1.08326
 C3325 C 0.59285 0.31327 1.08466
 N3326 N 0.58069 0.29776 1.09582
 H3327 H 0.57787 0.23389 1.13394
 H3328 H 0.62650 0.32280 1.07536
 C3329 C 1.22241 1.11511 0.90005
 C3330 C 1.21873 1.09233 0.89603
 N3331 N 1.23324 1.08078 0.88335
 C3332 C 1.25128 1.09102 0.87448
 C3333 C 1.25506 1.11382 0.87863
 N3334 N 1.24049 1.12528 0.89139
 N3335 N 1.20770 1.12680 0.91229
 C3336 C 1.18957 1.11668 0.92100
 C3337 C 1.18607 1.09366 0.91756
 N3338 N 1.20073 1.08213 0.90488
 H3339 H 1.26261 1.08137 0.86450
 H3340 H 1.17791 1.12670 0.93021
 C3341 C 1.22523 0.61205 0.39981
 C3342 C 1.22265 0.58893 0.39687
 N3343 N 1.23824 0.57738 0.38554
 C3344 C 1.25621 0.58792 0.37689
 C3345 C 1.25889 0.61108 0.37982
 N3346 N 1.24329 0.62258 0.39134
 N3347 N 1.20937 0.62367 0.41063
 C3348 C 1.19120 0.61323 0.41896
 C3349 C 1.18878 0.58990 0.41664
 N3350 N 1.20460 0.57840 0.40537
 H3351 H 1.26835 0.57826 0.36790
 H3352 H 1.17869 0.62321 0.42702
 C3353 C 0.71730 1.10780 0.39797
 C3354 C 0.71536 1.08451 0.39605
 N3355 N 0.73147 1.07287 0.38553
 C3356 C 0.74942 1.08348 0.37686
 C3357 C 0.75153 1.10678 0.37907
 N3358 N 0.73534 1.11836 0.38962
 N3359 N 0.70098 1.11953 0.40793
 C3360 C 0.68299 1.10904 0.41651
 C3361 C 0.68133 1.08555 0.41549
 N3362 N 0.69753 1.07390 0.40492
 H3363 H 0.76202 1.07377 0.36860
 H3364 H 0.67011 1.11906 0.42393
 C3365 C 0.73401 0.60731 0.90119
 C3366 C 0.71973 0.59561 0.88692
 N3367 N 0.72391 0.59549 0.86487
 C3368 C 0.74173 0.60651 0.85642
 C3369 C 0.75599 0.61849 0.87062
 N3370 N 0.75170 0.61857 0.89276
 N3371 N 0.73007 0.60707 0.92327
 C3372 C 0.71229 0.59603 0.93174
 C3373 C 0.69737 0.58486 0.91746
 N3374 N 0.70176 0.58478 0.89531
 H3375 H 0.74455 0.60611 0.83876
 H3376 H 0.70995 0.59599 0.94948
 C3377 C 1.23035 0.90511 1.10499
 C3378 C 1.21492 0.89033 1.09548
 N3379 N 1.21766 0.86805 1.09811
 C3380 C 1.23522 0.85980 1.10964
 C3381 C 1.25086 0.87447 1.11913
 N3382 N 1.24796 0.89690 1.11662
 N3383 N 1.22752 0.92742 1.10230
 C3384 C 1.20979 0.93561 1.09088
 C3385 C 1.19400 0.92085 1.08173
 N3386 N 1.19716 0.89848 1.08416
 H3387 H 1.23685 0.84191 1.11142
 H3388 H 1.20794 0.95349 1.08913
 C3389 C 1.22026 0.39587 0.61482
 C3390 C 1.21550 0.39048 0.59273
 N3391 N 1.22926 0.37646 0.58167
 C3392 C 1.24761 0.36772 0.59171
 C3393 C 1.25262 0.37348 0.61375
 N3394 N 1.23869 0.38745 0.62471
 N3395 N 1.20632 0.40934 0.62613
 C3396 C 1.18796 0.41803 0.61631
 C3397 C 1.18335 0.41343 0.59381
 N3398 N 1.19727 0.39942 0.58270
 H3399 H 1.25833 0.35674 0.58243
 H3400 H 1.17702 0.42811 0.62625
 C3401 C 0.72543 0.89132 0.59956
 C3402 C 0.71236 0.90532 0.61270
 N3403 N 0.71862 0.90947 0.63394
 C3404 C 0.73729 0.90009 0.64267
 C3405 C 0.75016 0.88563 0.62965
 N3406 N 0.74384 0.88172 0.60833
 N3407 N 0.71948 0.88746 0.57824
 C3408 C 0.70078 0.89662 0.56951
 C3409 C 0.68702 0.91008 0.58280
 N3410 N 0.69347 0.91426 0.60410
 H3411 H 0.74176 0.90355 0.65968
 H3412 H 0.69693 0.89347 0.55231
 C3413 C 0.73402 0.40290 1.10988
 C3414 C 0.71974 0.38831 1.09852
 N3415 N 0.72425 0.36614 1.09833
 C3416 C 0.74244 0.35789 1.10889
 C3417 C 0.75679 0.37245 1.12035
 N3418 N 0.75212 0.39467 1.12057
 N3419 N 0.72961 0.42508 1.10997
 C3420 C 0.71137 0.43333 1.09950
 C3421 C 0.69663 0.41872 1.08855
 N3422 N 0.70140 0.39650 1.08819
 H3423 H 0.74548 0.34012 1.10848
 H3424 H 0.70842 0.45113 1.09981
 C3425 C 0.76853 1.09576 1.11179
 C3426 C 0.78227 1.11010 1.09953
 N3427 N 0.77768 1.13225 1.09892
 C3428 C 0.75996 1.14073 1.10995
 C3429 C 0.74622 1.12645 1.12243
 N3430 N 0.75093 1.10422 1.12302
 N3431 N 0.77291 1.07357 1.11214
 C3432 C 0.79062 1.06509 1.10114
 C3433 C 0.80497 1.07946 1.08937
 N3434 N 0.80016 1.10169 1.08871
 H3435 H 0.75681 1.15848 1.10913
 H3436 H 0.79342 1.04727 1.10163
 C3437 C 0.77563 0.61503 0.59938
 C3438 C 0.77972 0.59231 0.60312
 N3439 N 0.76641 0.58071 0.61716
 C3440 C 0.74911 0.59084 0.62752
 C3441 C 0.74475 0.61356 0.62346
 N3442 N 0.75824 0.62505 0.60945
 N3443 N 0.78919 0.62678 0.58583
 C3444 C 0.80657 0.61684 0.57558
 C3445 C 0.81053 0.59380 0.57869
 N3446 N 0.79694 0.58224 0.59268
 H3447 H 0.73868 0.58112 0.63845
 H3448 H 0.81727 0.62715 0.56556
 C3449 C 0.27303 1.09921 0.60186
 C3450 C 0.28843 1.11450 0.59315
 N3451 N 0.28515 1.13668 0.59606
 C3452 C 0.26721 1.14429 0.60727
 C3453 C 0.25187 1.12903 0.61627
 N3454 N 0.25520 1.10677 0.61330
 N3455 N 0.27625 1.07704 0.59883
 C3456 C 0.29443 1.06943 0.58798
 C3457 C 0.31040 1.08465 0.58000
 N3458 N 0.30676 1.10692 0.58257
 H3459 H 0.26515 1.16209 0.60937
 H3460 H 0.29659 1.05162 0.58597
 C3461 C 0.27529 0.59443 1.10970
 C3462 C 0.29025 0.60983 1.10042
 N3463 N 0.28618 0.63199 1.10231
 C3464 C 0.26776 0.63946 1.11286
 C3465 C 0.25269 0.62413 1.12215
 N3466 N 0.25690 0.60188 1.12040
 N3467 N 0.27917 0.57227 1.10743
 C3468 C 0.29747 0.56479 1.09665
 C3469 C 0.31287 0.58015 1.08781
 N3470 N 0.30866 0.60239 1.08979
 H3471 H 0.26484 0.65725 1.11388
 H3472 H 0.30000 0.54699 1.09508
 C3473 C 0.77935 0.89620 0.88760
 C3474 C 0.78346 0.89190 0.91008
 N3475 N 0.76941 0.87840 0.92148
 C3476 C 0.75136 0.86914 0.91141
 C3477 C 0.74696 0.87388 0.88898
 N3478 N 0.76120 0.88730 0.87767
 N3479 N 0.79359 0.90917 0.87599
 C3480 C 0.81159 0.91847 0.88590
 C3481 C 0.81544 0.91506 0.90874
 N3482 N 0.80129 0.90148 0.92016
 H3483 H 0.74035 0.85861 0.92095
 H3484 H 0.82282 0.92817 0.87581
 C3485 C 0.77148 0.40118 0.39415
 C3486 C 0.78590 0.38733 0.40613
 N3487 N 0.78078 0.36541 0.40886
 C3488 C 0.76189 0.35668 0.39995
 C3489 C 0.74765 0.37047 0.38752
 N3490 N 0.75285 0.39244 0.38504
 N3491 N 0.77636 0.42314 0.39170
 C3492 C 0.79528 0.43188 0.40038
 C3493 C 0.81030 0.41793 0.41184
 N3494 N 0.80494 0.39596 0.41457
 H3495 H 0.75834 0.33912 0.40218
 H3496 H 0.79830 0.44955 0.39844
 C3497 C 0.27276 0.90298 0.38757
 C3498 C 0.27373 0.90092 0.41076
 N3499 N 0.25713 0.89029 0.42160
 C3500 C 0.23971 0.88144 0.41029
 C3501 C 0.23872 0.88347 0.38709
 N3502 N 0.25527 0.89432 0.37627
 N3503 N 0.28967 0.91297 0.37667
 C3504 C 0.30737 0.92132 0.38787
 C3505 C 0.30817 0.91990 0.41120
 N3506 N 0.29132 0.90945 0.42203
 H3507 H 0.22679 0.87283 0.41932
 H3508 H 0.32078 0.92875 0.37855
 C3509 C 0.27067 0.39413 0.90366
 C3510 C 0.28581 0.40408 0.88898
 N3511 N 0.28249 0.40227 0.86685
 C3512 C 0.26463 0.39110 0.85870
 C3513 C 0.24942 0.38107 0.87331
 N3514 N 0.25287 0.38279 0.89553
 N3515 N 0.27385 0.39628 0.92579
 C3516 C 0.29167 0.40757 0.93393
 C3517 C 0.30728 0.41703 0.91929
 N3518 N 0.30374 0.41518 0.89708
 H3519 H 0.26233 0.39006 0.84096
 H3520 H 0.29366 0.40903 0.95167
   
