data_POSCAR
  _audit_creation_date              2014-09-24
  _audit_creation_method            'ToBaCCo'
  _symmetry_space_group_name_H-M    'P1'
  _symmetry_Int_Tables_number       1
  _symmetry_cell_setting            triclinic
  loop_
  _symmetry_equiv_pos_as_xyz
 x,y,z
_cell_length_a 51.4511
_cell_length_b 54.2052
_cell_length_c 52.8527
_cell_angle_alpha 90.094300
_cell_angle_beta 89.990400
_cell_angle_gamma 90.002700
loop_
  _atom_site_label
  _atom_site_type_symbol
  _atom_site_fract_x
  _atom_site_fract_y
  _atom_site_fract_z
O1 O 0.35585 0.31920 -0.02496
 O2 O 0.32215 0.35575 0.02326
 O3 O 0.35480 0.31962 0.02410
 O4 O 0.32365 0.35542 -0.02599
 O5 O 0.29010 0.33015 -0.02594
 O6 O 0.32280 0.29248 0.02316
 O7 O 0.28944 0.32940 0.02317
 O8 O 0.32325 0.29271 -0.02598
 Cu9 Cu 0.34232 0.34012 -0.00082
 Cu10 Cu 0.30307 0.30850 -0.00150
 C11 C 0.34548 0.29971 -0.03365
 C12 C 0.30010 0.34895 0.03147
 C13 C 0.34446 0.29982 0.03198
 C14 C 0.30144 0.34932 -0.03440
 O15 O 0.67935 0.64663 0.02447
 O16 O 0.64490 0.68257 -0.02349
 O17 O 0.67779 0.64697 -0.02464
 O18 O 0.64622 0.68248 0.02560
 O19 O 0.67779 0.71006 0.02452
 O20 O 0.71093 0.67274 -0.02459
 O21 O 0.67707 0.70953 -0.02467
 O22 O 0.71166 0.67344 0.02428
 Cu23 Cu 0.65886 0.66202 0.00061
 Cu24 Cu 0.69761 0.69422 -0.00019
 C25 C 0.70143 0.65364 0.03242
 C26 C 0.65496 0.70212 -0.03229
 C27 C 0.69994 0.65334 -0.03297
 C28 C 0.65627 0.70247 0.03340
 O29 O 0.67917 0.35363 0.97477
 O30 O 0.64485 0.31765 1.02281
 O31 O 0.67771 0.35327 1.02387
 O32 O 0.64599 0.31781 0.97371
 O33 O 0.67755 0.29022 0.97467
 O34 O 0.71085 0.32750 1.02371
 O35 O 0.67703 0.29069 1.02387
 O36 O 0.71147 0.32681 0.97484
 Cu37 Cu 0.65873 0.33823 0.99868
 Cu38 Cu 0.69747 0.30603 0.99934
 C39 C 0.70123 0.34662 0.96676
 C40 C 0.65494 0.29809 1.03156
 C41 C 0.69988 0.34690 1.03214
 C42 C 0.65601 0.29783 0.96586
 O43 O 0.35599 0.68080 1.02564
 O44 O 0.32223 0.64418 0.97753
 O45 O 0.35486 0.68031 0.97658
 O46 O 0.32375 0.64457 1.02678
 O47 O 0.29021 0.66985 1.02672
 O48 O 0.32286 0.70744 0.97751
 O49 O 0.28952 0.67053 0.97761
 O50 O 0.32339 0.70729 1.02665
 Cu51 Cu 0.34241 0.65983 1.00156
 Cu52 Cu 0.30317 0.69146 1.00224
 C53 C 0.34564 0.70031 1.03428
 C54 C 0.30018 0.65097 0.96932
 C55 C 0.34450 0.70008 0.96867
 C56 C 0.30154 0.65068 1.03519
 O57 O 0.02427 0.32492 0.35945
 O58 O -0.02604 0.35859 0.32456
 O59 O -0.02640 0.32538 0.35950
 O60 O 0.02439 0.35853 0.32505
 O61 O 0.02389 0.33030 0.29488
 O62 O -0.02536 0.29532 0.33140
 O63 O -0.02664 0.32946 0.29533
 O64 O 0.02491 0.29608 0.32991
 Cu65 Cu -0.00100 0.34471 0.34506
 Cu66 Cu -0.00093 0.30986 0.30987
 C67 C 0.03326 0.30482 0.35070
 C68 C -0.03480 0.34997 0.30392
 C69 C -0.03423 0.30444 0.35187
 C70 C 0.03268 0.35034 0.30405
 O71 O 0.02534 0.67481 0.64031
 O72 O -0.02511 0.64118 0.67507
 O73 O -0.02531 0.67433 0.64006
 O74 O 0.02533 0.64127 0.67479
 O75 O 0.02467 0.66956 0.70491
 O76 O -0.02436 0.70446 0.66809
 O77 O -0.02587 0.67038 0.70422
 O78 O 0.02586 0.70369 0.66981
 Cu79 Cu 0.00002 0.65503 0.65465
 Cu80 Cu -0.00008 0.68995 0.68976
 C81 C 0.03428 0.69493 0.64905
 C82 C -0.03398 0.64986 0.69564
 C83 C -0.03313 0.69530 0.64759
 C84 C 0.03352 0.64951 0.69581
 O85 O 1.02460 0.64640 0.32281
 O86 O 0.96877 0.68006 0.34902
 O87 O 0.97261 0.64602 0.31817
 O88 O 1.01542 0.68321 0.35725
 O89 O 1.02676 0.70600 0.32455
 O90 O 0.97662 0.67285 0.28701
 O91 O 0.97550 0.70948 0.32087
 O92 O 1.02641 0.67168 0.29022
 Cu93 Cu 0.99628 0.66056 0.33933
 Cu94 Cu 1.00153 0.69301 0.30263
 C95 C 1.03426 0.65248 0.30158
 C96 C 0.96331 0.70112 0.34001
 C97 C 0.96647 0.65341 0.29623
 C98 C 1.02807 0.70118 0.34807
 O99 O 0.96957 0.32010 0.65068
 O100 O 1.02520 0.35392 0.67712
 O101 O 1.01621 0.31716 0.64257
 O102 O 0.97315 0.35414 0.68159
 O103 O 0.97715 0.32728 0.71271
 O104 O 1.02749 0.29430 0.67523
 O105 O 1.02699 0.32858 0.70965
 O106 O 0.97632 0.29068 0.67882
 Cu107 Cu 0.99696 0.33972 0.66050
 Cu108 Cu 1.00221 0.30722 0.69716
 C109 C 0.96419 0.29900 0.65964
 C110 C 1.03483 0.34781 0.69835
 C111 C 1.02882 0.29917 0.65173
 C112 C 0.96696 0.34669 0.70349
 O113 O 0.31560 -0.02389 0.35183
 O114 O 0.35211 0.02342 0.31746
 O115 O 0.31791 0.02389 0.35308
 O116 O 0.35072 -0.02445 0.31701
 O117 O 0.32018 -0.02314 0.28769
 O118 O 0.28668 0.02571 0.32451
 O119 O 0.32159 0.02476 0.28811
 O120 O 0.28418 -0.02217 0.32342
 Cu121 Cu 0.33715 -0.00043 0.33770
 Cu122 Cu 0.30000 0.00140 0.30299
 C123 C 0.29359 -0.03093 0.34374
 C124 C 0.34326 0.03206 0.29688
 C125 C 0.29673 0.03304 0.34520
 C126 C 0.34136 -0.03196 0.29619
 O127 O 0.64748 0.02199 0.68200
 O128 O 0.68203 -0.02633 0.64723
 O129 O 0.64727 -0.02587 0.68229
 O130 O 0.68250 0.02158 0.64701
 O131 O 0.71374 0.02154 0.67566
 O132 O 0.67766 -0.02587 0.71180
 O133 O 0.71322 -0.02646 0.67592
 O134 O 0.67787 0.02203 0.71149
 Cu135 Cu 0.66178 -0.00213 0.66175
 Cu136 Cu 0.69878 -0.00216 0.69666
 C137 C 0.65648 0.03012 0.70275
 C138 C 0.70348 -0.03463 0.65544
 C139 C 0.65623 -0.03389 0.70308
 C140 C 0.70417 0.02954 0.65507
 O141 O 0.31560 1.02398 0.64753
 O142 O 0.35193 0.97666 0.68207
 O143 O 0.31788 0.97621 0.64632
 O144 O 0.35059 1.02454 0.68247
 O145 O 0.31994 1.02327 0.71169
 O146 O 0.28654 0.97442 0.67479
 O147 O 0.32130 0.97537 0.71131
 O148 O 0.28407 1.02230 0.67584
 Cu149 Cu 0.33708 1.00052 0.66176
 Cu150 Cu 0.29979 0.99873 0.69634
 C151 C 0.29356 1.03104 0.65555
 C152 C 0.34299 0.96803 0.70262
 C153 C 0.29666 0.96708 0.65413
 C154 C 0.34115 1.03208 0.70326
 O155 O 0.67919 1.02679 0.35492
 O156 O 0.64602 0.97819 0.31937
 O157 O 0.67996 0.97877 0.35539
 O158 O 0.64574 1.02605 0.31890
 O159 O 0.67742 1.02651 0.29071
 O160 O 0.71174 0.97832 0.32732
 O161 O 0.67706 0.97852 0.29053
 O162 O 0.71185 1.02614 0.32795
 Cu163 Cu 0.65960 1.00241 0.33994
 Cu164 Cu 0.69773 1.00239 0.30625
 C165 C 0.70130 1.03464 0.34793
 C166 C 0.65553 0.97026 0.29876
 C167 C 0.70169 0.97052 0.34777
 C168 C 0.65559 1.03435 0.29863
 C169 C 0.86738 0.79211 0.47281
 C170 C 0.87668 0.78184 0.49525
 C171 C 0.86763 0.78945 0.51900
 C172 C 0.84885 0.80856 0.52038
 C173 C 0.83974 0.81972 0.49770
 C174 C 0.84888 0.81132 0.47383
 C175 C 0.83862 0.82168 0.45163
 C176 C 0.81993 0.84018 0.45274
 C177 C 0.81089 0.84918 0.47608
 C178 C 0.82071 0.83870 0.49882
 C179 C 0.83814 0.81615 0.54361
 C180 C 0.81970 0.83492 0.54472
 C181 C 0.81091 0.84661 0.52262
 C182 C 0.79178 0.86532 0.52353
 C183 C 0.78261 0.87558 0.50101
 C184 C 0.79159 0.86773 0.47738
 H185 H 0.84470 0.81536 0.43313
 H186 H 0.81240 0.84711 0.43502
 H187 H 0.84352 0.80741 0.56120
 H188 H 0.81204 0.83987 0.56311
 H189 H 0.89109 0.76725 0.49413
 H190 H 0.76798 0.88998 0.50188
 C191 C 0.13804 0.21315 0.47683
 C192 C 0.12661 0.22073 0.49948
 C193 C 0.13039 0.20808 0.52229
 C194 C 0.14771 0.18770 0.52272
 C195 C 0.16044 0.18038 0.49998
 C196 C 0.15533 0.19295 0.47693
 C197 C 0.16809 0.18538 0.45474
 C198 C 0.18519 0.16553 0.45494
 C199 C 0.19044 0.15267 0.47741
 C200 C 0.17820 0.16031 0.50022
 C201 C 0.15247 0.17417 0.54494
 C202 C 0.17099 0.15546 0.54545
 C203 C 0.18418 0.14832 0.52336
 C204 C 0.20342 0.12971 0.52371
 C205 C 0.21473 0.12198 0.50100
 C206 C 0.20825 0.13282 0.47788
 H207 H 0.16526 0.19498 0.43702
 H208 H 0.19471 0.16072 0.43735
 H209 H 0.14211 0.17790 0.56228
 H210 H 0.17461 0.14641 0.56333
 H211 H 0.11361 0.23648 0.49909
 H212 H 0.22905 0.10729 0.50139
 C213 C 0.13040 0.79199 0.47713
 C214 C 0.12676 0.77929 0.49994
 C215 C 0.13829 0.78686 0.52254
 C216 C 0.15553 0.80710 0.52240
 C217 C 0.16050 0.81971 0.49934
 C218 C 0.14770 0.81240 0.47665
 C219 C 0.15234 0.82595 0.45443
 C220 C 0.17084 0.84470 0.45386
 C221 C 0.18410 0.85183 0.47590
 C222 C 0.17823 0.83981 0.49906
 C223 C 0.16836 0.81467 0.54455
 C224 C 0.18539 0.83457 0.54430
 C225 C 0.19052 0.84747 0.52183
 C226 C 0.20827 0.86736 0.52131
 C227 C 0.21466 0.87822 0.49818
 C228 C 0.20332 0.87047 0.47550
 H229 H 0.14192 0.82223 0.43712
 H230 H 0.17437 0.85377 0.43598
 H231 H 0.16563 0.80504 0.56227
 H232 H 0.19497 0.83938 0.56186
 H233 H 0.11379 0.76352 0.50036
 H234 H 0.22896 0.89294 0.49775
 C235 C 0.79461 0.13009 0.52427
 C236 C 0.78509 0.12205 0.50095
 C237 C 0.79290 0.13279 0.47813
 C238 C 0.81162 0.15194 0.47850
 C239 C 0.82224 0.15979 0.50202
 C240 C 0.81352 0.14898 0.52501
 C241 C 0.82318 0.15799 0.54810
 C242 C 0.84139 0.17692 0.54871
 C243 C 0.85063 0.18763 0.52626
 C244 C 0.84086 0.17916 0.50264
 C245 C 0.81914 0.16419 0.45627
 C246 C 0.83737 0.18318 0.45689
 C247 C 0.84890 0.19066 0.47976
 C248 C 0.86741 0.21003 0.48064
 C249 C 0.87706 0.21774 0.50413
 C250 C 0.86867 0.20725 0.52681
 H251 H 0.81652 0.15071 0.56600
 H252 H 0.84794 0.18326 0.56705
 H253 H 0.81067 0.15954 0.43815
 H254 H 0.84190 0.19223 0.43922
 H255 H 0.77077 0.10734 0.50062
 H256 H 0.89122 0.23256 0.50488
 C257 C 0.52196 0.79337 0.86896
 C258 C 0.49815 0.78434 0.87767
 C259 C 0.47449 0.79339 0.86862
 C260 C 0.47443 0.81250 0.85045
 C261 C 0.49845 0.82213 0.84158
 C262 C 0.52232 0.81244 0.85075
 C263 C 0.54581 0.82138 0.84076
 C264 C 0.54597 0.83972 0.82238
 C265 C 0.52266 0.84984 0.81327
 C266 C 0.49862 0.84086 0.82281
 C267 C 0.45111 0.82156 0.84023
 C268 C 0.45127 0.83991 0.82183
 C269 C 0.47476 0.84994 0.81298
 C270 C 0.47515 0.86815 0.79385
 C271 C 0.49898 0.87697 0.78498
 C272 C 0.52262 0.86803 0.79414
 H273 H 0.56435 0.81400 0.84675
 H274 H 0.56462 0.84561 0.81511
 H275 H 0.43248 0.81429 0.84607
 H276 H 0.43275 0.84586 0.81433
 H277 H 0.49804 0.76970 0.89165
 H278 H 0.49914 0.89102 0.77036
 C279 C 0.52340 0.13207 0.20575
 C280 C 0.49979 0.12303 0.21489
 C281 C 0.47594 0.13173 0.20598
 C282 C 0.47548 0.14993 0.18684
 C283 C 0.49932 0.15907 0.17699
 C284 C 0.52338 0.15020 0.18656
 C285 C 0.54667 0.16035 0.17740
 C286 C 0.54644 0.17867 0.15899
 C287 C 0.52292 0.18754 0.14901
 C288 C 0.49909 0.17779 0.15821
 C289 C 0.45197 0.15989 0.17800
 C290 C 0.45174 0.17823 0.15960
 C291 C 0.47503 0.18735 0.14936
 C292 C 0.47502 0.20647 0.13119
 C293 C 0.49866 0.21556 0.12212
 C294 C 0.52250 0.20660 0.13079
 H295 H 0.56533 0.15451 0.18466
 H296 H 0.56496 0.18608 0.15297
 H297 H 0.43346 0.15390 0.18551
 H298 H 0.43309 0.18546 0.15377
 H299 H 0.49999 0.10902 0.22955
 H300 H 0.49849 0.23021 0.10813
 C301 C 0.52285 0.12851 0.79423
 C302 C 0.49894 0.11971 0.78548
 C303 C 0.47538 0.12889 0.79466
 C304 C 0.47549 0.14737 0.81355
 C305 C 0.49959 0.15639 0.82289
 C306 C 0.52338 0.14702 0.81313
 C307 C 0.54693 0.15708 0.82178
 C308 C 0.54724 0.17577 0.83986
 C309 C 0.52400 0.18515 0.84999
 C310 C 0.49990 0.17549 0.84134
 C311 C 0.45224 0.15773 0.82261
 C312 C 0.45254 0.17646 0.84065
 C313 C 0.47610 0.18551 0.85039
 C314 C 0.47662 0.20499 0.86822
 C315 C 0.50052 0.21400 0.87674
 C316 C 0.52410 0.20461 0.86783
 H317 H 0.56541 0.15089 0.81434
 H318 H 0.56593 0.18306 0.84551
 H319 H 0.43355 0.15174 0.81554
 H320 H 0.43406 0.18403 0.84657
 H321 H 0.49866 0.10555 0.77095
 H322 H 0.50077 0.22891 0.89047
 C323 C 0.52475 0.79591 0.13169
 C324 C 0.50116 0.78648 0.12283
 C325 C 0.47726 0.79547 0.13136
 C326 C 0.47674 0.81498 0.14916
 C327 C 0.50054 0.82504 0.15817
 C328 C 0.52464 0.81540 0.14950
 C329 C 0.54788 0.82483 0.15958
 C330 C 0.54757 0.84352 0.17767
 C331 C 0.52401 0.85353 0.18636
 C332 C 0.50022 0.84415 0.17660
 C333 C 0.45318 0.82402 0.15891
 C334 C 0.45288 0.84277 0.17692
 C335 C 0.47612 0.85315 0.18595
 C336 C 0.47600 0.87164 0.20485
 C337 C 0.49956 0.88080 0.21404
 C338 C 0.52347 0.87199 0.20530
 H339 H 0.56658 0.81757 0.15390
 H340 H 0.56604 0.84977 0.18506
 H341 H 0.43471 0.81642 0.15303
 H342 H 0.43418 0.84875 0.18401
 H343 H 0.50142 0.77154 0.10913
 H344 H 0.49928 0.89493 0.22861
 C345 C 0.79108 0.47880 0.86934
 C346 C 0.78142 0.50137 0.87795
 C347 C 0.78964 0.52386 0.86773
 C348 C 0.80878 0.52387 0.84846
 C349 C 0.81947 0.50110 0.84005
 C350 C 0.81042 0.47847 0.85037
 C351 C 0.82024 0.45614 0.84077
 C352 C 0.83901 0.45595 0.82185
 C353 C 0.84858 0.47806 0.81165
 C354 C 0.83854 0.50088 0.82060
 C355 C 0.81675 0.54583 0.83664
 C356 C 0.83549 0.54561 0.81765
 C357 C 0.84690 0.52341 0.80956
 C358 C 0.86568 0.52296 0.78999
 C359 C 0.87554 0.50032 0.78167
 C360 C 0.86722 0.47798 0.79202
 H361 H 0.81329 0.43852 0.84755
 H362 H 0.84564 0.43820 0.81504
 H363 H 0.80826 0.56343 0.84161
 H364 H 0.84059 0.56305 0.80906
 H365 H 0.76683 0.50139 0.89278
 H366 H 0.88995 0.50004 0.76668
 C367 C 0.13991 0.47697 0.21682
 C368 C 0.13148 0.49944 0.22690
 C369 C 0.14098 0.52204 0.21817
 C370 C 0.15967 0.52231 0.19850
 C371 C 0.16800 0.49967 0.18757
 C372 C 0.15827 0.47690 0.19692
 C373 C 0.16779 0.45473 0.18670
 C374 C 0.18599 0.45482 0.16722
 C375 C 0.19538 0.47709 0.15718
 C376 C 0.18657 0.49978 0.16764
 C377 C 0.17093 0.54445 0.19009
 C378 C 0.18920 0.54455 0.17066
 C379 C 0.19689 0.52253 0.15877
 C380 C 0.21538 0.52243 0.13891
 C381 C 0.22330 0.49990 0.12854
 C382 C 0.21403 0.47735 0.13755
 H383 H 0.16151 0.43702 0.19387
 H384 H 0.19282 0.43718 0.16030
 H385 H 0.16608 0.56195 0.19874
 H386 H 0.19749 0.56213 0.16535
 H387 H 0.11692 0.49931 0.24176
 H388 H 0.23732 0.49986 0.11319
 C389 C 0.86558 0.47710 0.20922
 C390 C 0.87543 0.49972 0.21759
 C391 C 0.86718 0.52208 0.20725
 C392 C 0.84862 0.52204 0.18755
 C393 C 0.83859 0.49924 0.17854
 C394 C 0.84688 0.47668 0.18958
 C395 C 0.83548 0.45450 0.18143
 C396 C 0.81680 0.45433 0.16238
 C397 C 0.80889 0.47630 0.15058
 C398 C 0.81958 0.49906 0.15904
 C399 C 0.83910 0.54417 0.17734
 C400 C 0.82040 0.54402 0.15837
 C401 C 0.81059 0.52171 0.14873
 C402 C 0.79129 0.52142 0.12971
 C403 C 0.78164 0.49886 0.12105
 C404 C 0.78981 0.47636 0.13126
 H405 H 0.84053 0.43705 0.19002
 H406 H 0.80832 0.43674 0.15737
 H407 H 0.84572 0.56191 0.18420
 H408 H 0.81350 0.56165 0.15158
 H409 H 0.88979 0.49997 0.23264
 H410 H 0.76707 0.49887 0.10620
 C411 C 0.14146 0.47801 0.78221
 C412 C 0.13202 0.50063 0.77345
 C413 C 0.14042 0.52308 0.78357
 C414 C 0.15868 0.52314 0.80356
 C415 C 0.16835 0.50036 0.81294
 C416 C 0.16005 0.47773 0.80196
 C417 C 0.17125 0.45558 0.81041
 C418 C 0.18942 0.45546 0.82991
 C419 C 0.19708 0.47748 0.84184
 C420 C 0.18682 0.50023 0.83294
 C421 C 0.16816 0.54530 0.81383
 C422 C 0.18627 0.54519 0.83338
 C423 C 0.19559 0.52291 0.84344
 C424 C 0.21417 0.52264 0.86314
 C425 C 0.22339 0.50008 0.87217
 C426 C 0.21549 0.47755 0.86176
 H427 H 0.16642 0.43809 0.80173
 H428 H 0.19767 0.43788 0.83526
 H429 H 0.16192 0.56301 0.80664
 H430 H 0.19308 0.56282 0.84034
 H431 H 0.11753 0.50077 0.75853
 H432 H 0.23735 0.50010 0.88756
 C433 C 0.26216 0.39790 0.08306
 C434 C 0.24701 0.38249 0.06756
 C435 C 0.25945 0.36548 0.05152
 C436 C 0.28679 0.36445 0.05047
 C437 C 0.30160 0.37970 0.06652
 C438 C 0.28941 0.39640 0.08290
 C439 C 0.24934 0.41672 0.09893
 C440 C 0.26463 0.43254 0.11383
 C441 C 0.25256 0.45135 0.12766
 C442 C 0.22550 0.45474 0.12630
 C443 C 0.21030 0.43847 0.11172
 C444 C 0.22218 0.41930 0.09800
 C445 C 0.30397 0.41214 0.09855
 C446 C 0.29178 0.42987 0.11383
 C447 C 0.21982 0.38506 0.06779
 C448 C 0.20762 0.40321 0.08266
 H449 H 0.32500 0.41104 0.09867
 H450 H 0.30374 0.44196 0.12529
 H451 H 0.20789 0.37329 0.05595
 H452 H 0.18666 0.40492 0.08184
 H453 H 0.24797 0.35391 0.03905
 H454 H 0.32265 0.37888 0.06590
 H455 H 0.26426 0.46407 0.13869
 H456 H 0.18950 0.44136 0.11034
 C457 C 0.74125 0.60292 0.08038
 C458 C 0.71406 0.60478 0.08172
 C459 C 0.70126 0.62224 0.06675
 C460 C 0.71543 0.63788 0.05061
 C461 C 0.74277 0.63655 0.05025
 C462 C 0.75579 0.61878 0.06485
 C463 C 0.75459 0.58326 0.09460
 C464 C 0.78163 0.58040 0.09212
 C465 C 0.79394 0.56061 0.10438
 C466 C 0.77933 0.54405 0.11914
 C467 C 0.75241 0.54760 0.12193
 C468 C 0.73988 0.56703 0.10953
 C469 C 0.78290 0.61586 0.06350
 C470 C 0.79559 0.59694 0.07682
 C471 C 0.70011 0.58855 0.09734
 C472 C 0.71282 0.57004 0.11109
 H473 H 0.79436 0.62796 0.05161
 H474 H 0.81645 0.59501 0.07483
 H475 H 0.67913 0.58990 0.09861
 H476 H 0.70131 0.55764 0.12261
 H477 H 0.68022 0.62327 0.06715
 H478 H 0.75374 0.64838 0.03763
 H479 H 0.81463 0.55763 0.10193
 H480 H 0.74116 0.53467 0.13312
 C481 C 0.74101 0.39735 0.91877
 C482 C 0.71381 0.39552 0.91747
 C483 C 0.70102 0.37805 0.93246
 C484 C 0.71521 0.36239 0.94856
 C485 C 0.74255 0.36370 0.94887
 C486 C 0.75555 0.38147 0.93426
 C487 C 0.75435 0.41700 0.90453
 C488 C 0.78139 0.41984 0.90697
 C489 C 0.79371 0.43962 0.89469
 C490 C 0.77910 0.45619 0.87994
 C491 C 0.75217 0.45267 0.87720
 C492 C 0.73964 0.43324 0.88962
 C493 C 0.78268 0.38437 0.93557
 C494 C 0.79536 0.40329 0.92224
 C495 C 0.69985 0.41176 0.90187
 C496 C 0.71257 0.43026 0.88810
 H497 H 0.79413 0.37226 0.94744
 H498 H 0.81622 0.40520 0.92420
 H499 H 0.67888 0.41042 0.90064
 H500 H 0.70106 0.44267 0.87661
 H501 H 0.67997 0.37704 0.93209
 H502 H 0.75352 0.35186 0.96146
 H503 H 0.81440 0.44259 0.89711
 H504 H 0.74092 0.46559 0.86603
 C505 C 0.26227 0.60203 0.91771
 C506 C 0.24711 0.61744 0.93321
 C507 C 0.25954 0.63444 0.94926
 C508 C 0.28688 0.63546 0.95033
 C509 C 0.30170 0.62021 0.93429
 C510 C 0.28951 0.60353 0.91789
 C511 C 0.24946 0.58322 0.90182
 C512 C 0.26476 0.56741 0.88692
 C513 C 0.25270 0.54861 0.87308
 C514 C 0.22563 0.54523 0.87441
 C515 C 0.21041 0.56150 0.88899
 C516 C 0.22229 0.58066 0.90272
 C517 C 0.30409 0.58778 0.90224
 C518 C 0.29190 0.57007 0.88695
 C519 C 0.21991 0.61489 0.93295
 C520 C 0.20772 0.59674 0.91806
 H521 H 0.32512 0.58888 0.90214
 H522 H 0.30387 0.55798 0.87549
 H523 H 0.20798 0.62665 0.94479
 H524 H 0.18676 0.59505 0.91887
 H525 H 0.24804 0.64601 0.96172
 H526 H 0.32275 0.62103 0.93491
 H527 H 0.26440 0.53589 0.86205
 H528 H 0.18961 0.55862 0.89034
 C529 C 0.08693 0.26551 0.39728
 C530 C 0.07158 0.25241 0.37985
 C531 C 0.05498 0.26547 0.36360
 C532 C 0.05312 0.29134 0.36534
 C533 C 0.06908 0.30420 0.38251
 C534 C 0.08609 0.29138 0.39848
 C535 C 0.10307 0.25185 0.41557
 C536 C 0.11758 0.26498 0.43363
 C537 C 0.13107 0.25196 0.45235
 C538 C 0.12953 0.22606 0.45351
 C539 C 0.11567 0.21310 0.43475
 C540 C 0.10241 0.22594 0.41566
 C541 C 0.10156 0.30387 0.41625
 C542 C 0.11712 0.29089 0.43349
 C543 C 0.07235 0.22649 0.37979
 C544 C 0.08740 0.21348 0.39748
 H545 H 0.10120 0.32384 0.41723
 H546 H 0.12827 0.30121 0.44730
 H547 H 0.06065 0.21616 0.36642
 H548 H 0.08682 0.19350 0.39727
 H549 H 0.04259 0.25547 0.35054
 H550 H 0.06785 0.32413 0.38380
 H551 H 0.14146 0.26195 0.46698
 H552 H 0.11397 0.19320 0.43595
 C553 C 0.08774 0.73435 0.60235
 C554 C 0.08696 0.70848 0.60115
 C555 C 0.07006 0.69562 0.61718
 C556 C 0.05412 0.70843 0.63441
 C557 C 0.05593 0.73431 0.63616
 C558 C 0.07244 0.74741 0.61984
 C559 C 0.10374 0.74805 0.58397
 C560 C 0.10300 0.77396 0.58388
 C561 C 0.11611 0.78683 0.56472
 C562 C 0.12991 0.77391 0.54589
 C563 C 0.13153 0.74802 0.54703
 C564 C 0.11818 0.73496 0.56583
 C565 C 0.07313 0.77333 0.61991
 C566 C 0.08805 0.78638 0.60215
 C567 C 0.10238 0.69603 0.58329
 C568 C 0.11780 0.70905 0.56597
 H569 H 0.06146 0.78363 0.63334
 H570 H 0.08741 0.80636 0.60235
 H571 H 0.10207 0.67606 0.58231
 H572 H 0.12891 0.69877 0.55209
 H573 H 0.06886 0.67568 0.61588
 H574 H 0.04356 0.74427 0.64926
 H575 H 0.11435 0.80673 0.56354
 H576 H 0.14187 0.73806 0.53234
 C577 C 0.91355 0.74313 0.38773
 C578 C 0.90896 0.71778 0.38455
 C579 C 0.92409 0.70447 0.36726
 C580 C 0.94379 0.71626 0.35333
 C581 C 0.94719 0.74195 0.35562
 C582 C 0.93234 0.75545 0.37316
 C583 C 0.89964 0.75663 0.40786
 C584 C 0.90548 0.78160 0.41230
 C585 C 0.89380 0.79375 0.43288
 C586 C 0.87658 0.78094 0.44884
 C587 C 0.87031 0.75622 0.44364
 C588 C 0.88190 0.74390 0.42327
 C589 C 0.93689 0.78068 0.37749
 C590 C 0.92372 0.79352 0.39675
 C591 C 0.89034 0.70594 0.39970
 C592 C 0.87699 0.71880 0.41871
 H593 H 0.95129 0.79043 0.36637
 H594 H 0.92833 0.81279 0.39988
 H595 H 0.88656 0.68641 0.39730
 H596 H 0.86326 0.70884 0.43042
 H597 H 0.92144 0.68469 0.36555
 H598 H 0.96261 0.75103 0.34521
 H599 H 0.89883 0.81273 0.43716
 H600 H 0.85722 0.74637 0.45614
 C601 C 0.91508 0.25669 0.61157
 C602 C 0.93401 0.24452 0.62608
 C603 C 0.94865 0.25810 0.64372
 C604 C 0.94490 0.28373 0.64617
 C605 C 0.92509 0.29538 0.63225
 C606 C 0.91015 0.28198 0.61488
 C607 C 0.90132 0.24311 0.59140
 C608 C 0.88335 0.25568 0.57612
 C609 C 0.87176 0.24326 0.55582
 C610 C 0.87826 0.21860 0.55055
 C611 C 0.89581 0.20599 0.56632
 C612 C 0.90746 0.21823 0.58685
 C613 C 0.89136 0.29366 0.59981
 C614 C 0.87813 0.28071 0.58078
 C615 C 0.93890 0.21937 0.62162
 C616 C 0.92589 0.20646 0.60231
 H617 H 0.88733 0.31313 0.60230
 H618 H 0.86423 0.29054 0.56916
 H619 H 0.95343 0.20975 0.63268
 H620 H 0.93074 0.18726 0.59910
 H621 H 0.96417 0.24915 0.65411
 H622 H 0.92219 0.31512 0.63407
 H623 H 0.85840 0.25297 0.54347
 H624 H 0.90102 0.18707 0.56199
 C625 C 0.39321 0.08137 0.25700
 C626 C 0.39268 0.08184 0.28357
 C627 C 0.37555 0.06622 0.29645
 C628 C 0.35888 0.05037 0.28298
 C629 C 0.35882 0.05082 0.25634
 C630 C 0.37632 0.06604 0.24322
 C631 C 0.41267 0.09631 0.24345
 C632 C 0.41444 0.09463 0.21696
 C633 C 0.43441 0.10734 0.20438
 C634 C 0.45226 0.12170 0.21820
 C635 C 0.44957 0.12390 0.24459
 C636 C 0.43002 0.11103 0.25736
 C637 C 0.37801 0.06556 0.21668
 C638 C 0.39683 0.07951 0.20378
 C639 C 0.40989 0.09731 0.29676
 C640 C 0.42819 0.11175 0.28386
 H641 H 0.36510 0.05383 0.20581
 H642 H 0.39790 0.07813 0.18335
 H643 H 0.40954 0.09792 0.31725
 H644 H 0.44146 0.12308 0.29476
 H645 H 0.37554 0.06601 0.31697
 H646 H 0.34617 0.03844 0.24593
 H647 H 0.43677 0.10532 0.18410
 H648 H 0.46351 0.13478 0.25523
 C649 C 0.60642 0.07911 0.74308
 C650 C 0.62327 0.06369 0.75675
 C651 C 0.64098 0.04870 0.74353
 C652 C 0.64120 0.04861 0.71688
 C653 C 0.62466 0.06467 0.70356
 C654 C 0.60727 0.07999 0.71654
 C655 C 0.58661 0.09366 0.75669
 C656 C 0.56924 0.10839 0.74285
 C657 C 0.54939 0.12090 0.75563
 C658 C 0.54652 0.11844 0.78197
 C659 C 0.56437 0.10406 0.79572
 C660 C 0.58457 0.09163 0.78312
 C661 C 0.59004 0.09548 0.70344
 C662 C 0.57139 0.10951 0.71639
 C663 C 0.62126 0.06282 0.78327
 C664 C 0.60218 0.07648 0.79621
 H665 H 0.59064 0.09640 0.68297
 H666 H 0.55812 0.12086 0.70555
 H667 H 0.63412 0.05103 0.79406
 H668 H 0.60091 0.07481 0.81660
 H669 H 0.65349 0.03616 0.75385
 H670 H 0.62484 0.06472 0.68304
 H671 H 0.53547 0.13180 0.74504
 H672 H 0.56189 0.10186 0.81596
 C673 C 0.39262 0.91855 0.74264
 C674 C 0.37574 0.93393 0.75638
 C675 C 0.35835 0.94922 0.74320
 C676 C 0.35851 0.94968 0.71656
 C677 C 0.37518 0.93378 0.70314
 C678 C 0.39219 0.91810 0.71607
 C679 C 0.41199 0.90355 0.75625
 C680 C 0.42934 0.88879 0.74238
 C681 C 0.44883 0.87588 0.75520
 C682 C 0.45146 0.87810 0.78160
 C683 C 0.43359 0.89247 0.79538
 C684 C 0.41367 0.90522 0.78274
 C685 C 0.40940 0.90258 0.70293
 C686 C 0.42761 0.88808 0.71588
 C687 C 0.37734 0.93440 0.78293
 C688 C 0.39607 0.92038 0.79588
 H689 H 0.40912 0.90198 0.68244
 H690 H 0.44088 0.87672 0.70502
 H691 H 0.36444 0.94616 0.79376
 H692 H 0.39707 0.92176 0.81631
 H693 H 0.34570 0.96162 0.75359
 H694 H 0.37524 0.93401 0.68263
 H695 H 0.46279 0.86500 0.74460
 H696 H 0.43591 0.89451 0.81566
 C697 C 0.60648 0.92118 0.25742
 C698 C 0.60722 0.91991 0.28394
 C699 C 0.62432 0.93526 0.29724
 C700 C 0.64068 0.95175 0.28424
 C701 C 0.64061 0.95204 0.25760
 C702 C 0.62317 0.93702 0.24406
 C703 C 0.58690 0.90662 0.24351
 C704 C 0.58493 0.90905 0.21711
 C705 C 0.56488 0.89664 0.20424
 C706 C 0.54711 0.88192 0.21772
 C707 C 0.54995 0.87904 0.24401
 C708 C 0.56964 0.89151 0.25705
 C709 C 0.62126 0.93826 0.21755
 C710 C 0.60240 0.92459 0.20432
 C711 C 0.59014 0.90403 0.29673
 C712 C 0.57170 0.89000 0.28349
 H713 H 0.63401 0.95037 0.20700
 H714 H 0.60119 0.92656 0.18396
 H715 H 0.59066 0.90281 0.31718
 H716 H 0.55852 0.87836 0.29411
 H717 H 0.62440 0.93492 0.31775
 H718 H 0.65298 0.96491 0.24754
 H719 H 0.56242 0.89914 0.18404
 H720 H 0.53607 0.86789 0.25438
 C721 C 0.39394 0.25778 0.91699
 C722 C 0.39352 0.28361 0.91505
 C723 C 0.37662 0.29713 0.93052
 C724 C 0.36009 0.28502 0.94767
 C725 C 0.35980 0.25906 0.94859
 C726 C 0.37709 0.24532 0.93354
 C727 C 0.41337 0.24366 0.90242
 C728 C 0.41511 0.21797 0.90564
 C729 C 0.43508 0.20494 0.89334
 C730 C 0.45298 0.21752 0.87787
 C731 C 0.45032 0.24308 0.87414
 C732 C 0.43075 0.25630 0.88657
 C733 C 0.37873 0.21950 0.93551
 C734 C 0.39749 0.20608 0.92189
 C735 C 0.41073 0.29550 0.89843
 C736 C 0.42897 0.28205 0.88435
 H737 H 0.36586 0.20965 0.94819
 H738 H 0.39852 0.18628 0.92447
 H739 H 0.41045 0.31541 0.89669
 H740 H 0.44226 0.29196 0.87213
 H741 H 0.37681 0.31712 0.92974
 H742 H 0.34730 0.24972 0.96203
 H743 H 0.43740 0.18531 0.89654
 H744 H 0.46428 0.25277 0.86242
 C745 C 0.60566 0.74260 0.91808
 C746 C 0.62233 0.75556 0.93444
 C747 C 0.63993 0.74231 0.94957
 C748 C 0.64011 0.71635 0.94891
 C749 C 0.62378 0.70374 0.93191
 C750 C 0.60657 0.71675 0.91640
 C751 C 0.58589 0.75618 0.90348
 C752 C 0.56867 0.74303 0.88786
 C753 C 0.54880 0.75574 0.87539
 C754 C 0.54573 0.78130 0.87883
 C755 C 0.56345 0.79440 0.89406
 C756 C 0.58370 0.78187 0.90643
 C757 C 0.58952 0.70435 0.90000
 C758 C 0.57093 0.71729 0.88589
 C759 C 0.62022 0.78137 0.93614
 C760 C 0.60116 0.79429 0.92245
 H761 H 0.59018 0.68442 0.89846
 H762 H 0.55777 0.70698 0.87384
 H763 H 0.63296 0.79161 0.94866
 H764 H 0.59977 0.81410 0.92482
 H765 H 0.65228 0.75203 0.96288
 H766 H 0.62398 0.68374 0.93134
 H767 H 0.53497 0.74567 0.86384
 H768 H 0.56081 0.81403 0.89701
 C769 C 0.39437 0.74245 0.08320
 C770 C 0.39395 0.71662 0.08526
 C771 C 0.37696 0.70304 0.06996
 C772 C 0.36032 0.71507 0.05285
 C773 C 0.36004 0.74103 0.05181
 C774 C 0.37742 0.75483 0.06669
 C775 C 0.41389 0.75663 0.09759
 C776 C 0.41561 0.78230 0.09424
 C777 C 0.43565 0.79539 0.10637
 C778 C 0.45362 0.78288 0.12181
 C779 C 0.45100 0.75733 0.12565
 C780 C 0.43137 0.74406 0.11338
 C781 C 0.37905 0.78064 0.06460
 C782 C 0.39790 0.79412 0.07804
 C783 C 0.41126 0.70480 0.10183
 C784 C 0.42960 0.71831 0.11574
 H785 H 0.36610 0.79044 0.05195
 H786 H 0.39891 0.81391 0.07537
 H787 H 0.41099 0.68490 0.10366
 H788 H 0.44296 0.70845 0.12792
 H789 H 0.37715 0.68305 0.07082
 H790 H 0.34746 0.75031 0.03840
 H791 H 0.43794 0.81500 0.10309
 H792 H 0.46502 0.74769 0.13735
 C793 C 0.60590 0.25754 0.08139
 C794 C 0.62257 0.24461 0.06500
 C795 C 0.64007 0.25788 0.04979
 C796 C 0.64017 0.28385 0.05041
 C797 C 0.62385 0.29643 0.06744
 C798 C 0.60673 0.28339 0.08303
 C799 C 0.58623 0.24391 0.09609
 C800 C 0.56901 0.25704 0.11173
 C801 C 0.54922 0.24428 0.12428
 C802 C 0.54622 0.21871 0.12088
 C803 C 0.56394 0.20565 0.10562
 C804 C 0.58412 0.21822 0.09318
 C805 C 0.58969 0.29577 0.09948
 C806 C 0.57120 0.28279 0.11367
 C807 C 0.62054 0.21879 0.06334
 C808 C 0.60157 0.20583 0.07711
 H809 H 0.59029 0.31570 0.10098
 H810 H 0.55804 0.29306 0.12574
 H811 H 0.63327 0.20857 0.05080
 H812 H 0.60023 0.18601 0.07478
 H813 H 0.65241 0.24818 0.03646
 H814 H 0.62398 0.31644 0.06799
 H815 H 0.53539 0.25433 0.13586
 H816 H 0.56135 0.18600 0.10270
 C817 C 0.25235 0.07946 0.60632
 C818 C 0.27924 0.08252 0.60972
 C819 C 0.29240 0.06720 0.62673
 C820 C 0.27885 0.04911 0.64048
 C821 C 0.25171 0.04697 0.63777
 C822 C 0.23839 0.06187 0.62031
 C823 C 0.23886 0.09410 0.58684
 C824 C 0.21233 0.08990 0.58213
 C825 C 0.20013 0.10249 0.56214
 C826 C 0.21437 0.11923 0.54727
 C827 C 0.24064 0.12382 0.55284
 C828 C 0.25309 0.11112 0.57240
 C829 C 0.21166 0.05884 0.61574
 C830 C 0.19888 0.07253 0.59689
 C831 C 0.29263 0.10020 0.59536
 C832 C 0.27973 0.11435 0.57707
 H833 H 0.20065 0.04535 0.62638
 H834 H 0.17840 0.06918 0.59356
 H835 H 0.31334 0.10280 0.59794
 H836 H 0.29086 0.12748 0.56605
 H837 H 0.31328 0.06892 0.62886
 H838 H 0.24130 0.03283 0.64813
 H839 H 0.17999 0.09867 0.55753
 H840 H 0.25163 0.13650 0.54112
 C841 C 0.73989 0.08389 0.39683
 C842 C 0.71290 0.08077 0.39884
 C843 C 0.70020 0.06480 0.38213
 C844 C 0.71408 0.05231 0.36294
 C845 C 0.74100 0.05682 0.36025
 C846 C 0.75411 0.07206 0.37765
 C847 C 0.75362 0.09888 0.41593
 C848 C 0.78088 0.10033 0.41534
 C849 C 0.79396 0.11263 0.43505
 C850 C 0.77978 0.12378 0.45482
 C851 C 0.75244 0.12322 0.45428
 C852 C 0.73928 0.11038 0.43523
 C853 C 0.78128 0.07490 0.37696
 C854 C 0.79445 0.08858 0.39562
 C855 C 0.69919 0.09307 0.41807
 C856 C 0.71214 0.10780 0.43585
 H857 H 0.79254 0.06587 0.36231
 H858 H 0.81546 0.08966 0.39481
 H859 H 0.67831 0.09095 0.41965
 H860 H 0.70091 0.11662 0.45066
 H861 H 0.67945 0.06198 0.38427
 H862 H 0.75203 0.04733 0.34570
 H863 H 0.81502 0.11265 0.43564
 H864 H 0.74150 0.13164 0.46957
 C865 C 0.74250 0.91480 0.60647
 C866 C 0.71523 0.91479 0.60763
 C867 C 0.70270 0.93066 0.62460
 C868 C 0.71717 0.94645 0.64039
 C869 C 0.74452 0.94547 0.63986
 C870 C 0.75732 0.92990 0.62259
 C871 C 0.75567 0.89973 0.58706
 C872 C 0.78284 0.90096 0.58468
 C873 C 0.79502 0.88830 0.56470
 C874 C 0.78009 0.87461 0.54734
 C875 C 0.75304 0.87277 0.55064
 C876 C 0.74068 0.88548 0.57031
 C877 C 0.78454 0.92988 0.62030
 C878 C 0.79708 0.91573 0.60162
 C879 C 0.70099 0.89965 0.59110
 C880 C 0.71351 0.88518 0.57278
 H881 H 0.79623 0.94139 0.63263
 H882 H 0.81805 0.91677 0.60007
 H883 H 0.67995 0.89940 0.59195
 H884 H 0.70178 0.87419 0.56000
 H885 H 0.68163 0.93124 0.62505
 H886 H 0.75573 0.95776 0.65184
 H887 H 0.81581 0.89002 0.56188
 H888 H 0.74156 0.86242 0.53707
 C889 C 0.25225 0.92062 0.39284
 C890 C 0.27912 0.91748 0.38939
 C891 C 0.29231 0.93281 0.37241
 C892 C 0.27882 0.95098 0.35874
 C893 C 0.25170 0.95321 0.36149
 C894 C 0.23834 0.93830 0.37893
 C895 C 0.23873 0.90599 0.41232
 C896 C 0.21223 0.91028 0.41710
 C897 C 0.20002 0.89771 0.43709
 C898 C 0.21423 0.88090 0.45191
 C899 C 0.24047 0.87622 0.44626
 C900 C 0.25292 0.88889 0.42669
 C901 C 0.21163 0.94141 0.38356
 C902 C 0.19882 0.92773 0.40240
 C903 C 0.29246 0.89972 0.40368
 C904 C 0.27955 0.88557 0.42195
 H905 H 0.20066 0.95497 0.37297
 H906 H 0.17837 0.93115 0.40578
 H907 H 0.31316 0.89705 0.40105
 H908 H 0.29064 0.87239 0.43292
 H909 H 0.31319 0.93103 0.37024
 H910 H 0.24133 0.96741 0.35119
 H911 H 0.17992 0.90160 0.44176
 H912 H 0.25143 0.86349 0.45794
 C913 C 0.08741 0.39795 0.73416
 C914 C 0.08581 0.39746 0.70762
 C915 C 0.06919 0.38043 0.69588
 C916 C 0.05445 0.36383 0.71048
 C917 C 0.05704 0.36395 0.73703
 C918 C 0.07320 0.38125 0.74899
 C919 C 0.10335 0.41702 0.74666
 C920 C 0.10361 0.41854 0.77321
 C921 C 0.11716 0.43790 0.78495
 C922 C 0.13066 0.45538 0.77029
 C923 C 0.13092 0.45305 0.74375
 C924 C 0.11703 0.43409 0.73181
 C925 C 0.07468 0.38279 0.77550
 C926 C 0.08951 0.40120 0.78741
 C927 C 0.10026 0.41452 0.69341
 C928 C 0.11571 0.43246 0.70531
 H929 H 0.06380 0.37000 0.78716
 H930 H 0.08963 0.40210 0.80789
 H931 H 0.09931 0.41425 0.67294
 H932 H 0.12621 0.44552 0.69366
 H933 H 0.06733 0.38038 0.67544
 H934 H 0.04555 0.35141 0.74842
 H935 H 0.11643 0.43997 0.80534
 H936 H 0.14107 0.46665 0.73242
 C937 C 0.08691 0.60226 0.26597
 C938 C 0.07277 0.61896 0.25108
 C939 C 0.05661 0.63629 0.26298
 C940 C 0.05394 0.63646 0.28952
 C941 C 0.06861 0.61986 0.30418
 C942 C 0.08524 0.60279 0.29250
 C943 C 0.10284 0.58313 0.25354
 C944 C 0.11645 0.56606 0.26845
 C945 C 0.13033 0.54706 0.25658
 C946 C 0.13015 0.54470 0.23004
 C947 C 0.11674 0.56218 0.21532
 C948 C 0.10318 0.58158 0.22699
 C949 C 0.09961 0.58572 0.30677
 C950 C 0.11504 0.56773 0.29495
 C951 C 0.07433 0.61738 0.22457
 C952 C 0.08916 0.59892 0.21273
 H953 H 0.09860 0.58602 0.32725
 H954 H 0.12548 0.55466 0.30664
 H955 H 0.06352 0.63016 0.21287
 H956 H 0.08935 0.59799 0.19226
 H957 H 0.04517 0.64884 0.25154
 H958 H 0.06669 0.61994 0.32461
 H959 H 0.14041 0.53345 0.26795
 H960 H 0.11608 0.56009 0.19492
 C961 C 0.91482 0.39773 0.26260
 C962 C 0.91411 0.39785 0.28917
 C963 C 0.92981 0.38130 0.30255
 C964 C 0.94606 0.36463 0.28959
 C965 C 0.94570 0.36396 0.26295
 C966 C 0.93038 0.38079 0.24932
 C967 C 0.90004 0.41655 0.24851
 C968 C 0.90206 0.41754 0.22201
 C969 C 0.88963 0.43673 0.20889
 C970 C 0.87521 0.45462 0.22218
 C971 C 0.87266 0.45282 0.24861
 C972 C 0.88524 0.43398 0.26191
 C973 C 0.93113 0.38178 0.22275
 C974 C 0.91731 0.39990 0.20934
 C975 C 0.89848 0.41514 0.30185
 C976 C 0.88421 0.43286 0.28844
 H977 H 0.94303 0.36882 0.21227
 H978 H 0.91895 0.40038 0.18891
 H979 H 0.89768 0.41530 0.32233
 H980 H 0.87280 0.44619 0.29896
 H981 H 0.92996 0.38182 0.32306
 H982 H 0.95839 0.35134 0.25289
 H983 H 0.89196 0.43837 0.18857
 H984 H 0.86176 0.46675 0.25885
 C985 C 0.91533 0.60221 0.73677
 C986 C 0.91476 0.60208 0.71020
 C987 C 0.93057 0.61859 0.69688
 C988 C 0.94677 0.63523 0.70990
 C989 C 0.94627 0.63594 0.73654
 C990 C 0.93085 0.61914 0.75011
 C991 C 0.90044 0.58343 0.75081
 C992 C 0.90232 0.58246 0.77732
 C993 C 0.88978 0.56330 0.79040
 C994 C 0.87540 0.54542 0.77706
 C995 C 0.87299 0.54720 0.75061
 C996 C 0.88568 0.56601 0.73735
 C997 C 0.93146 0.61817 0.77668
 C998 C 0.91753 0.60009 0.79005
 C999 C 0.89916 0.58480 0.69746
 C1000 C 0.88479 0.56711 0.71082
 H1001 H 0.94333 0.63112 0.78721
 H1002 H 0.91906 0.59962 0.81048
 H1003 H 0.89847 0.58462 0.67697
 H1004 H 0.87341 0.55379 0.70026
 H1005 H 0.93082 0.61805 0.67637
 H1006 H 0.95893 0.64854 0.74664
 H1007 H 0.89201 0.56167 0.81073
 H1008 H 0.86212 0.53328 0.74034
 C1009 C 0.73771 0.60415 0.91756
 C1010 C 0.71067 0.60270 0.92066
 C1011 C 0.69820 0.61954 0.93665
 C1012 C 0.71239 0.63826 0.94911
 C1013 C 0.73937 0.64035 0.94453
 C1014 C 0.75222 0.62285 0.92935
 C1015 C 0.75117 0.58502 0.90263
 C1016 C 0.77844 0.58513 0.90125
 C1017 C 0.79121 0.56559 0.88893
 C1018 C 0.77676 0.54651 0.87749
 C1019 C 0.74942 0.54738 0.87809
 C1020 C 0.73654 0.56627 0.89106
 C1021 C 0.77941 0.62300 0.92659
 C1022 C 0.79231 0.60433 0.91301
 C1023 C 0.69668 0.58395 0.90836
 C1024 C 0.70939 0.56615 0.89361
 H1025 H 0.79089 0.63728 0.93562
 H1026 H 0.81334 0.60476 0.91197
 H1027 H 0.67576 0.58280 0.91046
 H1028 H 0.69793 0.55176 0.88475
 H1029 H 0.67741 0.61785 0.93954
 H1030 H 0.75063 0.65451 0.95401
 H1031 H 0.81226 0.56473 0.88896
 H1032 H 0.73826 0.53264 0.86945
 C1033 C 0.26527 0.39802 0.91457
 C1034 C 0.29221 0.39938 0.91840
 C1035 C 0.30409 0.38277 0.93499
 C1036 C 0.28944 0.36437 0.94739
 C1037 C 0.26257 0.36242 0.94219
 C1038 C 0.25028 0.37968 0.92633
 C1039 C 0.25241 0.41687 0.89883
 C1040 C 0.22520 0.41685 0.89661
 C1041 C 0.21295 0.43616 0.88346
 C1042 C 0.22788 0.45494 0.87213
 C1043 C 0.25518 0.45394 0.87359
 C1044 C 0.26751 0.43528 0.88731
 C1045 C 0.22319 0.37961 0.92277
 C1046 C 0.21084 0.39801 0.90837
 C1047 C 0.30670 0.41777 0.90613
 C1048 C 0.29458 0.43531 0.89067
 H1049 H 0.21134 0.36560 0.93174
 H1050 H 0.18986 0.39765 0.90670
 H1051 H 0.32755 0.41884 0.90879
 H1052 H 0.30640 0.44943 0.88186
 H1053 H 0.32482 0.38437 0.93833
 H1054 H 0.25095 0.34849 0.95160
 H1055 H 0.19192 0.43712 0.88281
 H1056 H 0.26671 0.46846 0.86505
 C1057 C 0.26529 0.60197 0.08618
 C1058 C 0.29224 0.60061 0.08238
 C1059 C 0.30415 0.61722 0.06580
 C1060 C 0.28953 0.63564 0.05340
 C1061 C 0.26265 0.63759 0.05857
 C1062 C 0.25033 0.62033 0.07441
 C1063 C 0.25240 0.58311 0.10189
 C1064 C 0.22519 0.58315 0.10408
 C1065 C 0.21290 0.56383 0.11721
 C1066 C 0.22781 0.54504 0.12855
 C1067 C 0.25510 0.54604 0.12712
 C1068 C 0.26747 0.56470 0.11341
 C1069 C 0.22323 0.62040 0.07795
 C1070 C 0.21085 0.60200 0.09231
 C1071 C 0.30670 0.58220 0.09465
 C1072 C 0.29454 0.56466 0.11008
 H1073 H 0.21140 0.63442 0.06897
 H1074 H 0.18987 0.60236 0.09396
 H1075 H 0.32755 0.58112 0.09200
 H1076 H 0.30635 0.55052 0.11890
 H1077 H 0.32489 0.61562 0.06247
 H1078 H 0.25105 0.65153 0.04917
 H1079 H 0.19187 0.56288 0.11783
 H1080 H 0.26661 0.53151 0.13566
 C1081 C 0.73776 0.39609 0.08151
 C1082 C 0.71072 0.39754 0.07846
 C1083 C 0.69822 0.38070 0.06252
 C1084 C 0.71238 0.36198 0.05003
 C1085 C 0.73936 0.35989 0.05455
 C1086 C 0.75225 0.37739 0.06969
 C1087 C 0.75125 0.41523 0.09640
 C1088 C 0.77852 0.41510 0.09773
 C1089 C 0.79133 0.43465 0.11003
 C1090 C 0.77690 0.45373 0.12149
 C1091 C 0.74956 0.45288 0.12092
 C1092 C 0.73666 0.43399 0.10799
 C1093 C 0.77944 0.37723 0.07240
 C1094 C 0.79237 0.39590 0.08595
 C1095 C 0.69675 0.41630 0.09078
 C1096 C 0.70949 0.43411 0.10549
 H1097 H 0.79090 0.36294 0.06336
 H1098 H 0.81340 0.39547 0.08695
 H1099 H 0.67583 0.41746 0.08873
 H1100 H 0.69806 0.44851 0.11437
 H1101 H 0.67742 0.38239 0.05967
 H1102 H 0.75060 0.34571 0.04504
 H1103 H 0.81237 0.43549 0.10998
 H1104 H 0.73842 0.46763 0.12958
 C1105 C 0.91797 0.73513 0.59857
 C1106 C 0.91991 0.70943 0.59609
 C1107 C 0.93575 0.69629 0.61284
 C1108 C 0.94912 0.70848 0.63258
 C1109 C 0.94566 0.73418 0.63569
 C1110 C 0.93075 0.74769 0.61822
 C1111 C 0.90317 0.74924 0.57955
 C1112 C 0.90299 0.77513 0.58066
 C1113 C 0.89067 0.78848 0.56126
 C1114 C 0.87788 0.77599 0.54142
 C1115 C 0.87739 0.75001 0.54131
 C1116 C 0.89044 0.73657 0.55996
 C1117 C 0.92919 0.77357 0.61934
 C1118 C 0.91581 0.78707 0.60073
 C1119 C 0.90657 0.69739 0.57645
 C1120 C 0.89186 0.71072 0.55882
 H1121 H 0.93900 0.78354 0.63434
 H1122 H 0.91570 0.80702 0.60195
 H1123 H 0.90777 0.67752 0.57449
 H1124 H 0.88212 0.70076 0.54377
 H1125 H 0.93777 0.67652 0.61034
 H1126 H 0.95588 0.74391 0.65062
 H1127 H 0.89163 0.80846 0.56116
 H1128 H 0.86773 0.74031 0.52601
 C1129 C 0.91660 0.26455 0.40063
 C1130 C 0.92934 0.25205 0.38092
 C1131 C 0.94435 0.26558 0.36353
 C1132 C 0.94790 0.29125 0.36677
 C1133 C 0.93453 0.30340 0.38653
 C1134 C 0.91863 0.29024 0.40322
 C1135 C 0.90181 0.25040 0.41963
 C1136 C 0.88922 0.26302 0.43934
 C1137 C 0.87636 0.24953 0.45808
 C1138 C 0.87694 0.22355 0.45794
 C1139 C 0.88943 0.21111 0.43789
 C1140 C 0.90159 0.22451 0.41843
 C1141 C 0.90535 0.30223 0.42293
 C1142 C 0.89068 0.28886 0.44056
 C1143 C 0.92770 0.22617 0.37968
 C1144 C 0.91431 0.21263 0.39826
 H1145 H 0.90661 0.32209 0.42497
 H1146 H 0.88104 0.29878 0.45570
 H1147 H 0.93746 0.21624 0.36462
 H1148 H 0.91417 0.19268 0.39698
 H1149 H 0.95456 0.25588 0.34857
 H1150 H 0.93662 0.32316 0.38913
 H1151 H 0.86691 0.25919 0.47354
 H1152 H 0.89043 0.19113 0.43795
 C1153 C 0.07048 0.25505 0.60055
 C1154 C 0.08118 0.25954 0.62458
 C1155 C 0.06663 0.27302 0.64246
 C1156 C 0.04297 0.28413 0.63525
 C1157 C 0.03307 0.27999 0.61075
 C1158 C 0.04612 0.26459 0.59381
 C1159 C 0.08536 0.24079 0.58174
 C1160 C 0.07387 0.23517 0.55838
 C1161 C 0.08818 0.22212 0.54036
 C1162 C 0.11467 0.21675 0.54436
 C1163 C 0.12608 0.22284 0.56786
 C1164 C 0.11111 0.23398 0.58704
 C1165 C 0.03531 0.25868 0.57018
 C1166 C 0.04874 0.24372 0.55296
 C1167 C 0.10650 0.25115 0.62978
 C1168 C 0.12144 0.23915 0.61112
 H1169 H 0.01631 0.26565 0.56497
 H1170 H 0.03977 0.23959 0.53489
 H1171 H 0.11516 0.25463 0.64812
 H1172 H 0.14120 0.23380 0.61561
 H1173 H 0.07451 0.27631 0.66119
 H1174 H 0.01452 0.28786 0.60525
 H1175 H 0.07916 0.21753 0.52241
 H1176 H 0.14662 0.21961 0.57097
 C1177 C 0.07001 0.74518 0.39912
 C1178 C 0.04568 0.73564 0.40598
 C1179 C 0.03252 0.72030 0.38907
 C1180 C 0.04229 0.71620 0.36450
 C1181 C 0.06592 0.72731 0.35719
 C1182 C 0.08058 0.74075 0.37502
 C1183 C 0.08502 0.75940 0.41788
 C1184 C 0.11074 0.76621 0.41245
 C1185 C 0.12583 0.77731 0.43155
 C1186 C 0.11456 0.78336 0.45514
 C1187 C 0.08809 0.77797 0.45929
 C1188 C 0.07367 0.76497 0.44132
 C1189 C 0.10587 0.74913 0.36969
 C1190 C 0.12093 0.76109 0.38829
 C1191 C 0.03502 0.74149 0.42969
 C1192 C 0.04856 0.75640 0.44686
 H1193 H 0.11442 0.74569 0.35129
 H1194 H 0.14066 0.76645 0.38370
 H1195 H 0.01605 0.73452 0.43499
 H1196 H 0.03970 0.76050 0.46499
 H1197 H 0.01400 0.71242 0.39466
 H1198 H 0.07370 0.72405 0.33841
 H1199 H 0.14634 0.78054 0.42833
 H1200 H 0.07918 0.78252 0.47730
 C1201 C 0.60640 0.91708 0.74341
 C1202 C 0.62295 0.93284 0.75708
 C1203 C 0.64055 0.94790 0.74387
 C1204 C 0.64093 0.94773 0.71723
 C1205 C 0.62469 0.93137 0.70391
 C1206 C 0.60744 0.91595 0.71688
 C1207 C 0.58669 0.90245 0.75698
 C1208 C 0.56960 0.88740 0.74313
 C1209 C 0.54974 0.87490 0.75585
 C1210 C 0.54655 0.87773 0.78212
 C1211 C 0.56417 0.89236 0.79591
 C1212 C 0.58440 0.90477 0.78338
 C1213 C 0.59052 0.90012 0.70378
 C1214 C 0.57196 0.88601 0.71670
 C1215 C 0.62074 0.93396 0.78358
 C1216 C 0.60172 0.92025 0.79649
 H1217 H 0.59128 0.89901 0.68332
 H1218 H 0.55891 0.87441 0.70585
 H1219 H 0.63338 0.94601 0.79437
 H1220 H 0.60026 0.92213 0.81685
 H1221 H 0.65286 0.96067 0.75418
 H1222 H 0.62504 0.93111 0.68339
 H1223 H 0.53597 0.86381 0.74524
 H1224 H 0.56143 0.89485 0.81610
 C1225 C 0.39099 0.91925 0.25532
 C1226 C 0.37474 0.93536 0.24179
 C1227 C 0.35695 0.95020 0.25511
 C1228 C 0.35610 0.94943 0.28173
 C1229 C 0.37190 0.93257 0.29485
 C1230 C 0.38938 0.91744 0.28177
 C1231 C 0.41110 0.90505 0.24174
 C1232 C 0.42801 0.88979 0.25551
 C1233 C 0.44827 0.87776 0.24286
 C1234 C 0.45194 0.88119 0.21675
 C1235 C 0.43449 0.89601 0.20300
 C1236 C 0.41394 0.90803 0.21547
 C1237 C 0.40608 0.90135 0.29476
 C1238 C 0.42504 0.88770 0.28183
 C1239 C 0.37752 0.93713 0.21539
 C1240 C 0.39683 0.92376 0.20247
 H1241 H 0.40489 0.89973 0.31516
 H1242 H 0.43794 0.87592 0.29260
 H1243 H 0.36510 0.94945 0.20471
 H1244 H 0.39872 0.92615 0.18220
 H1245 H 0.34501 0.96337 0.24497
 H1246 H 0.37122 0.93187 0.31535
 H1247 H 0.46190 0.86651 0.25342
 H1248 H 0.43760 0.89890 0.18294
 C1249 C 0.60687 0.08357 0.25741
 C1250 C 0.60771 0.08497 0.28393
 C1251 C 0.62469 0.06953 0.29719
 C1252 C 0.64086 0.05288 0.28416
 C1253 C 0.64075 0.05248 0.25752
 C1254 C 0.62339 0.06755 0.24402
 C1255 C 0.58732 0.09815 0.24354
 C1256 C 0.58516 0.09551 0.21717
 C1257 C 0.56502 0.10781 0.20439
 C1258 C 0.54734 0.12261 0.21793
 C1259 C 0.55044 0.12579 0.24416
 C1260 C 0.57021 0.11341 0.25713
 C1261 C 0.62135 0.06616 0.21752
 C1262 C 0.60249 0.07982 0.20434
 C1263 C 0.59080 0.10103 0.29675
 C1264 C 0.57241 0.11509 0.28355
 H1265 H 0.63397 0.05391 0.20695
 H1266 H 0.60113 0.07769 0.18400
 H1267 H 0.59141 0.10235 0.31720
 H1268 H 0.55934 0.12686 0.29419
 H1269 H 0.62483 0.06994 0.31770
 H1270 H 0.65299 0.03947 0.24746
 H1271 H 0.56235 0.10507 0.18423
 H1272 H 0.53662 0.13701 0.25458
 C1273 C 0.39056 0.08106 0.74415
 C1274 C 0.38899 0.08283 0.71769
 C1275 C 0.37159 0.06763 0.70460
 C1276 C 0.35582 0.05074 0.71772
 C1277 C 0.35662 0.05000 0.74434
 C1278 C 0.37434 0.06491 0.75767
 C1279 C 0.41059 0.09533 0.75774
 C1280 C 0.41340 0.09238 0.78402
 C1281 C 0.43390 0.10447 0.79650
 C1282 C 0.45133 0.11932 0.78276
 C1283 C 0.44768 0.12273 0.75664
 C1284 C 0.42748 0.11063 0.74398
 C1285 C 0.37707 0.06317 0.78408
 C1286 C 0.39632 0.07662 0.79701
 C1287 C 0.40566 0.09896 0.70471
 C1288 C 0.42455 0.11269 0.71766
 H1289 H 0.36468 0.05083 0.79476
 H1290 H 0.39819 0.07425 0.81728
 H1291 H 0.40450 0.10056 0.68431
 H1292 H 0.43743 0.12450 0.70688
 H1293 H 0.37095 0.06831 0.68410
 H1294 H 0.34471 0.03681 0.75448
 H1295 H 0.43699 0.10160 0.81657
 H1296 H 0.46129 0.13400 0.74608
 C1297 C 0.60828 0.74416 0.08339
 C1298 C 0.62460 0.75670 0.06641
 C1299 C 0.64183 0.74306 0.05119
 C1300 C 0.64199 0.71711 0.05238
 C1301 C 0.62607 0.70494 0.07004
 C1302 C 0.60922 0.71836 0.08563
 C1303 C 0.58877 0.75812 0.09802
 C1304 C 0.57179 0.74536 0.11418
 C1305 C 0.55200 0.75836 0.12652
 C1306 C 0.54875 0.78379 0.12240
 C1307 C 0.56631 0.79653 0.10672
 C1308 C 0.58647 0.78372 0.09446
 C1309 C 0.59248 0.70638 0.10263
 C1310 C 0.57413 0.71968 0.11674
 C1311 C 0.62245 0.78246 0.06415
 C1312 C 0.60364 0.79572 0.07785
 H1313 H 0.59316 0.68650 0.10461
 H1314 H 0.56116 0.70968 0.12922
 H1315 H 0.63493 0.79237 0.05115
 H1316 H 0.60217 0.81546 0.07502
 H1317 H 0.65385 0.75245 0.03738
 H1318 H 0.62623 0.68496 0.07103
 H1319 H 0.53828 0.74855 0.13840
 H1320 H 0.56352 0.81605 0.10324
 C1321 C 0.39194 0.25819 0.08234
 C1322 C 0.39111 0.28401 0.08449
 C1323 C 0.37440 0.29739 0.06876
 C1324 C 0.35853 0.28519 0.05105
 C1325 C 0.35858 0.25923 0.04994
 C1326 C 0.37565 0.24562 0.06531
 C1327 C 0.41131 0.24425 0.09712
 C1328 C 0.41351 0.21862 0.09368
 C1329 C 0.43354 0.20581 0.10610
 C1330 C 0.45109 0.21859 0.12178
 C1331 C 0.44795 0.24407 0.12577
 C1332 C 0.42827 0.25705 0.11330
 C1333 C 0.37770 0.21983 0.06316
 C1334 C 0.39636 0.20658 0.07703
 C1335 C 0.40781 0.29603 0.10152
 C1336 C 0.42603 0.28276 0.11576
 H1337 H 0.36525 0.20988 0.05014
 H1338 H 0.39775 0.18681 0.07428
 H1339 H 0.40720 0.31593 0.10343
 H1340 H 0.43898 0.29279 0.12825
 H1341 H 0.37433 0.31738 0.06970
 H1342 H 0.34660 0.24980 0.03610
 H1343 H 0.43625 0.18624 0.10273
 H1344 H 0.46167 0.25390 0.13766
 C1345 C 0.60780 0.25625 0.91599
 C1346 C 0.62418 0.24367 0.93290
 C1347 C 0.64147 0.25727 0.94807
 C1348 C 0.64167 0.28322 0.94691
 C1349 C 0.62569 0.29543 0.92933
 C1350 C 0.60876 0.28205 0.91378
 C1351 C 0.58822 0.24233 0.90142
 C1352 C 0.57120 0.25512 0.88534
 C1353 C 0.55136 0.24216 0.87305
 C1354 C 0.54811 0.21672 0.87713
 C1355 C 0.56571 0.20395 0.89273
 C1356 C 0.58591 0.21672 0.90495
 C1357 C 0.59197 0.29406 0.89686
 C1358 C 0.57355 0.28081 0.88281
 C1359 C 0.62201 0.21791 0.93513
 C1360 C 0.60313 0.20468 0.92147
 H1361 H 0.59267 0.31395 0.89491
 H1362 H 0.56055 0.29083 0.87040
 H1363 H 0.63452 0.20797 0.94806
 H1364 H 0.60165 0.18494 0.92428
 H1365 H 0.65353 0.24785 0.96182
 H1366 H 0.62587 0.31541 0.92835
 H1367 H 0.53761 0.25199 0.86122
 H1368 H 0.56292 0.18441 0.89618
 C1369 C 0.39174 0.74163 0.91799
 C1370 C 0.37547 0.75424 0.93502
 C1371 C 0.35850 0.74064 0.95051
 C1372 C 0.35852 0.71468 0.94952
 C1373 C 0.37438 0.70244 0.93181
 C1374 C 0.39099 0.71581 0.91597
 C1375 C 0.41099 0.75557 0.90306
 C1376 C 0.42793 0.74275 0.88687
 C1377 C 0.44751 0.75575 0.87425
 C1378 C 0.45060 0.78125 0.87812
 C1379 C 0.43305 0.79404 0.89381
 C1380 C 0.41311 0.78123 0.90637
 C1381 C 0.40766 0.70376 0.89892
 C1382 C 0.42578 0.71703 0.88454
 C1383 C 0.37743 0.78004 0.93703
 C1384 C 0.39599 0.79329 0.92303
 H1385 H 0.40712 0.68385 0.89711
 H1386 H 0.43871 0.70698 0.87205
 H1387 H 0.36499 0.79001 0.95006
 H1388 H 0.39732 0.81307 0.92567
 H1389 H 0.34652 0.75009 0.96434
 H1390 H 0.37437 0.68245 0.93096
 H1391 H 0.46123 0.74590 0.86237
 H1392 H 0.43572 0.81363 0.89709
 C1393 C 0.74104 0.92085 0.39736
 C1394 C 0.71376 0.92076 0.39635
 C1395 C 0.70107 0.93651 0.37941
 C1396 C 0.71542 0.95213 0.36339
 C1397 C 0.74279 0.95135 0.36392
 C1398 C 0.75572 0.93597 0.38120
 C1399 C 0.75440 0.90561 0.41645
 C1400 C 0.78160 0.90676 0.41854
 C1401 C 0.79403 0.89351 0.43790
 C1402 C 0.77936 0.87906 0.45479
 C1403 C 0.75222 0.87757 0.45193
 C1404 C 0.73960 0.89099 0.43296
 C1405 C 0.78296 0.93602 0.38331
 C1406 C 0.79567 0.92176 0.40173
 C1407 C 0.69968 0.90547 0.41283
 C1408 C 0.71240 0.89075 0.43078
 H1409 H 0.79452 0.94759 0.37097
 H1410 H 0.81666 0.92275 0.40306
 H1411 H 0.67864 0.90516 0.41212
 H1412 H 0.70080 0.87951 0.44341
 H1413 H 0.68000 0.93696 0.37898
 H1414 H 0.75391 0.96352 0.35179
 H1415 H 0.81488 0.89500 0.44039
 H1416 H 0.74091 0.86664 0.46512
 C1417 C 0.25889 0.91721 0.60349
 C1418 C 0.24391 0.92996 0.62150
 C1419 C 0.25643 0.94528 0.63917
 C1420 C 0.28361 0.94829 0.63836
 C1421 C 0.29832 0.93476 0.62066
 C1422 C 0.28608 0.91924 0.60316
 C1423 C 0.24581 0.90242 0.58381
 C1424 C 0.26083 0.89050 0.56525
 C1425 C 0.24832 0.87786 0.54561
 C1426 C 0.22103 0.87737 0.54427
 C1427 C 0.20619 0.88886 0.56331
 C1428 C 0.21853 0.90147 0.58319
 C1429 C 0.30046 0.90643 0.58476
 C1430 C 0.28804 0.89226 0.56613
 C1431 C 0.21669 0.92788 0.62078
 C1432 C 0.20421 0.91392 0.60192
 H1433 H 0.32147 0.90779 0.58443
 H1434 H 0.29981 0.88308 0.55195
 H1435 H 0.20489 0.93757 0.63457
 H1436 H 0.18317 0.91326 0.60171
 H1437 H 0.24500 0.95579 0.65263
 H1438 H 0.31927 0.93686 0.62003
 H1439 H 0.25970 0.86916 0.53081
 H1440 H 0.18516 0.88878 0.56203
 C1441 C 0.25889 0.08299 0.39572
 C1442 C 0.24393 0.07015 0.37776
 C1443 C 0.25647 0.05480 0.36012
 C1444 C 0.28366 0.05185 0.36092
 C1445 C 0.29835 0.06546 0.37856
 C1446 C 0.28609 0.08102 0.39602
 C1447 C 0.24580 0.09780 0.41538
 C1448 C 0.26081 0.10980 0.43388
 C1449 C 0.24829 0.12244 0.45351
 C1450 C 0.22100 0.12286 0.45490
 C1451 C 0.20617 0.11129 0.43591
 C1452 C 0.21852 0.09868 0.41603
 C1453 C 0.30046 0.09390 0.41436
 C1454 C 0.28802 0.10809 0.43297
 C1455 C 0.21670 0.07217 0.37851
 C1456 C 0.20421 0.08614 0.39736
 H1457 H 0.32147 0.09259 0.41467
 H1458 H 0.29978 0.11734 0.44710
 H1459 H 0.20492 0.06242 0.36477
 H1460 H 0.18316 0.08675 0.39759
 H1461 H 0.24505 0.04423 0.34670
 H1462 H 0.31930 0.06340 0.37917
 H1463 H 0.25966 0.13120 0.46828
 H1464 H 0.18514 0.11131 0.43723
 C1465 C 0.74432 0.07860 0.60552
 C1466 C 0.71710 0.07964 0.60718
 C1467 C 0.70422 0.06417 0.62425
 C1468 C 0.71832 0.04786 0.63972
 C1469 C 0.74568 0.04773 0.63864
 C1470 C 0.75879 0.06285 0.62121
 C1471 C 0.75777 0.09346 0.58617
 C1472 C 0.78485 0.09136 0.58338
 C1473 C 0.79727 0.10422 0.56371
 C1474 C 0.78269 0.11915 0.54720
 C1475 C 0.75573 0.12160 0.55078
 C1476 C 0.74312 0.10863 0.57007
 C1477 C 0.78595 0.06187 0.61844
 C1478 C 0.79874 0.07579 0.59978
 C1479 C 0.70321 0.09551 0.59115
 C1480 C 0.71602 0.10984 0.57295
 H1481 H 0.79736 0.04981 0.63041
 H1482 H 0.81963 0.07406 0.59792
 H1483 H 0.68221 0.09654 0.59237
 H1484 H 0.70455 0.12153 0.56064
 H1485 H 0.68316 0.06440 0.62512
 H1486 H 0.75658 0.03500 0.65035
 H1487 H 0.81798 0.10205 0.56069
 H1488 H 0.74451 0.13292 0.53788
 C1489 C 0.91706 0.60420 0.25568
 C1490 C 0.93501 0.61860 0.24213
 C1491 C 0.95009 0.63613 0.25517
 C1492 C 0.94770 0.63862 0.28158
 C1493 C 0.92899 0.62463 0.29465
 C1494 C 0.91365 0.60739 0.28183
 C1495 C 0.90256 0.58452 0.24254
 C1496 C 0.88544 0.56955 0.25640
 C1497 C 0.87299 0.54988 0.24426
 C1498 C 0.87778 0.54496 0.21858
 C1499 C 0.89456 0.56037 0.20471
 C1500 C 0.90705 0.58028 0.21667
 C1501 C 0.89575 0.59254 0.29487
 C1502 C 0.88183 0.57396 0.28235
 C1503 C 0.93830 0.61436 0.21607
 C1504 C 0.92461 0.59549 0.20357
 H1505 H 0.89289 0.59495 0.31504
 H1506 H 0.86860 0.56256 0.29318
 H1507 H 0.95204 0.62533 0.20537
 H1508 H 0.92817 0.59248 0.18360
 H1509 H 0.96467 0.64670 0.24510
 H1510 H 0.92702 0.62660 0.31499
 H1511 H 0.86021 0.53783 0.25492
 H1512 H 0.89846 0.55631 0.18498
 C1513 C 0.91729 0.39580 0.74388
 C1514 C 0.91393 0.39255 0.71773
 C1515 C 0.92934 0.37531 0.70497
 C1516 C 0.94808 0.36140 0.71809
 C1517 C 0.95040 0.36395 0.74451
 C1518 C 0.93524 0.38147 0.75749
 C1519 C 0.90273 0.41548 0.75695
 C1520 C 0.90716 0.41980 0.78282
 C1521 C 0.89461 0.43972 0.79470
 C1522 C 0.87786 0.45508 0.78077
 C1523 C 0.87312 0.45009 0.75509
 C1524 C 0.88561 0.43040 0.74302
 C1525 C 0.93848 0.38577 0.78354
 C1526 C 0.92472 0.40465 0.79597
 C1527 C 0.89603 0.40733 0.70463
 C1528 C 0.88205 0.42592 0.71709
 H1529 H 0.95222 0.37486 0.79428
 H1530 H 0.92823 0.40770 0.81594
 H1531 H 0.89322 0.40487 0.68447
 H1532 H 0.86882 0.43727 0.70620
 H1533 H 0.92742 0.37331 0.68464
 H1534 H 0.96500 0.35344 0.75462
 H1535 H 0.89848 0.44383 0.81443
 H1536 H 0.86035 0.46210 0.74439
 C1537 C 0.08630 0.60245 0.73504
 C1538 C 0.08768 0.60431 0.70857
 C1539 C 0.07100 0.62059 0.69602
 C1540 C 0.05315 0.63507 0.70969
 C1541 C 0.05274 0.63384 0.73630
 C1542 C 0.06905 0.61719 0.74908
 C1543 C 0.10226 0.58381 0.74811
 C1544 C 0.09967 0.58073 0.77439
 C1545 C 0.11332 0.56158 0.78638
 C1546 C 0.12950 0.54582 0.77219
 C1547 C 0.13257 0.54976 0.74607
 C1548 C 0.11881 0.56856 0.73387
 C1549 C 0.06772 0.61421 0.77547
 C1550 C 0.08268 0.59622 0.78789
 C1551 C 0.10502 0.58921 0.69509
 C1552 C 0.12040 0.57167 0.70755
 H1553 H 0.05452 0.62546 0.78654
 H1554 H 0.08057 0.59412 0.80817
 H1555 H 0.10633 0.59061 0.67468
 H1556 H 0.13314 0.56003 0.69640
 H1557 H 0.07145 0.62159 0.67553
 H1558 H 0.03882 0.64479 0.74685
 H1559 H 0.11060 0.55825 0.80642
 H1560 H 0.14481 0.53742 0.73513
 C1561 C 0.08556 0.39755 0.26509
 C1562 C 0.08680 0.39567 0.29156
 C1563 C 0.07010 0.37935 0.30403
 C1564 C 0.05235 0.36484 0.29027
 C1565 C 0.05209 0.36608 0.26366
 C1566 C 0.06842 0.38277 0.25096
 C1567 C 0.10157 0.41622 0.25210
 C1568 C 0.09912 0.41930 0.22582
 C1569 C 0.11283 0.43846 0.21389
 C1570 C 0.12890 0.45425 0.22816
 C1571 C 0.13182 0.45031 0.25430
 C1572 C 0.11801 0.43150 0.26643
 C1573 C 0.06724 0.38576 0.22457
 C1574 C 0.08224 0.40378 0.21223
 C1575 C 0.10404 0.41081 0.30513
 C1576 C 0.11945 0.42838 0.29276
 H1577 H 0.05413 0.37449 0.21342
 H1578 H 0.08024 0.40588 0.19194
 H1579 H 0.10524 0.40940 0.32555
 H1580 H 0.13211 0.44004 0.30397
 H1581 H 0.07043 0.37834 0.32452
 H1582 H 0.03825 0.35510 0.25303
 H1583 H 0.11022 0.44178 0.19383
 H1584 H 0.14398 0.46266 0.26530
   
