data_POSCAR
  _audit_creation_date              2014-09-24
  _audit_creation_method            'ToBaCCo'
  _symmetry_space_group_name_H-M    'P1'
  _symmetry_Int_Tables_number       1
  _symmetry_cell_setting            triclinic
  loop_
  _symmetry_equiv_pos_as_xyz
 x,y,z
_cell_length_a 59.3004
_cell_length_b 59.3094
_cell_length_c 59.2224
_cell_angle_alpha 89.197700
_cell_angle_beta 89.200900
_cell_angle_gamma 89.333500
loop_
  _atom_site_label
  _atom_site_type_symbol
  _atom_site_fract_x
  _atom_site_fract_y
  _atom_site_fract_z
C1 C 0.74744 0.61426 1.02904
 C2 C 0.75855 0.62337 1.00998
 C3 C 0.78014 0.63252 1.01224
 C4 C 0.79039 0.63277 1.03343
 C5 C 0.77926 0.62344 1.05234
 C6 C 0.75784 0.61409 1.05012
 C7 C 0.74758 0.62313 0.98775
 C8 C 0.72577 0.63223 0.98518
 C9 C 0.71523 0.63170 0.96419
 C10 C 0.72629 0.62170 0.94577
 C11 C 0.74795 0.61242 0.94826
 C12 C 0.75867 0.61336 0.96915
 H13 H 0.73086 0.60698 1.02732
 H14 H 0.78872 0.63975 0.99760
 H15 H 0.71714 0.63993 0.99944
 H16 H 0.77539 0.60604 0.97106
 H17 H 0.78723 0.62350 1.06874
 H18 H 0.71805 0.62109 0.92955
 C19 C 0.74446 0.39125 0.46990
 C20 C 0.75542 0.38187 0.48874
 C21 C 0.77724 0.37267 0.48611
 C22 C 0.78785 0.37267 0.46483
 C23 C 0.77688 0.38225 0.44617
 C24 C 0.75524 0.39162 0.44871
 C25 C 0.74410 0.38174 0.51113
 C26 C 0.72230 0.37295 0.51380
 C27 C 0.71168 0.37272 0.53507
 C28 C 0.72262 0.38167 0.55369
 C29 C 0.74425 0.39064 0.55109
 C30 C 0.75504 0.39048 0.52992
 H31 H 0.72770 0.39855 0.47180
 H32 H 0.78573 0.36515 0.50051
 H33 H 0.71383 0.36593 0.49944
 H34 H 0.77178 0.39747 0.52797
 H35 H 0.78512 0.38231 0.42970
 H36 H 0.71436 0.38158 0.57015
 C37 C 0.24399 -0.11041 -0.02967
 C38 C 0.25501 -0.11989 -0.01091
 C39 C 0.27685 -0.12899 -0.01363
 C40 C 0.28746 -0.12880 -0.03494
 C41 C 0.27641 -0.11910 -0.05352
 C42 C 0.25473 -0.10983 -0.05087
 C43 C 0.24374 -0.12014 0.01150
 C44 C 0.22194 -0.12895 0.01419
 C45 C 0.21134 -0.12922 0.03550
 C46 C 0.22233 -0.12028 0.05411
 C47 C 0.24395 -0.11131 0.05148
 C48 C 0.25470 -0.11143 0.03028
 H49 H 0.22721 -0.10317 -0.02769
 H50 H 0.28536 -0.13656 0.00075
 H51 H 0.21348 -0.13591 -0.00021
 H52 H 0.27142 -0.10441 0.02831
 H53 H 0.28459 -0.11883 -0.07003
 H54 H 0.21414 -0.12036 0.07061
 C55 C 0.24722 0.11286 0.52861
 C56 C 0.25836 0.12197 0.50956
 C57 C 0.27995 0.13111 0.51186
 C58 C 0.29015 0.13134 0.53306
 C59 C 0.27901 0.12202 0.55193
 C60 C 0.25761 0.11268 0.54969
 C61 C 0.24741 0.12179 0.48732
 C62 C 0.22557 0.13083 0.48477
 C63 C 0.21508 0.13041 0.46374
 C64 C 0.22622 0.12058 0.44527
 C65 C 0.24790 0.11137 0.44775
 C66 C 0.25857 0.11218 0.46867
 H67 H 0.23065 0.10557 0.52693
 H68 H 0.28858 0.13837 0.49728
 H69 H 0.21689 0.13841 0.49905
 H70 H 0.27531 0.10492 0.47057
 H71 H 0.28695 0.12208 0.56832
 H72 H 0.21803 0.12008 0.42903
 C73 C 0.11227 0.52948 0.24701
 C74 C 0.12156 0.51056 0.25812
 C75 C 0.13067 0.51293 0.27972
 C76 C 0.13069 0.53408 0.28997
 C77 C 0.12119 0.55284 0.27888
 C78 C 0.11188 0.55053 0.25744
 C79 C 0.12155 0.48835 0.24716
 C80 C 0.13069 0.48584 0.22531
 C81 C 0.13042 0.46483 0.21483
 C82 C 0.12062 0.44633 0.22598
 C83 C 0.11129 0.44876 0.24766
 C84 C 0.11197 0.46966 0.25833
 H85 H 0.10502 0.52768 0.23042
 H86 H 0.13805 0.49844 0.28834
 H87 H 0.13824 0.50015 0.21662
 H88 H 0.10462 0.47152 0.27508
 H89 H 0.12110 0.56917 0.28692
 H90 H 0.12022 0.43010 0.21779
 C91 C -0.10949 -0.02975 0.24385
 C92 C -0.11903 -0.01106 0.25489
 C93 C -0.12804 -0.01378 0.27682
 C94 C -0.12771 -0.03503 0.28750
 C95 C -0.11795 -0.05354 0.27643
 C96 C -0.10876 -0.05088 0.25466
 C97 C -0.11946 0.01127 0.24352
 C98 C -0.12856 0.01383 0.22184
 C99 C -0.12893 0.03505 0.21110
 C100 C -0.11981 0.05369 0.22185
 C101 C -0.11053 0.05119 0.24336
 C102 C -0.11056 0.03009 0.25426
 H103 H -0.10233 -0.02775 0.22700
 H104 H -0.13565 0.00055 0.28534
 H105 H -0.13565 -0.00061 0.21356
 H106 H -0.10329 0.02821 0.27089
 H107 H -0.11757 -0.07000 0.28465
 H108 H -0.11993 0.07012 0.21355
 C109 C 0.39070 0.47002 0.74414
 C110 C 0.38124 0.48871 0.75523
 C111 C 0.37211 0.48595 0.77711
 C112 C 0.37227 0.46465 0.78769
 C113 C 0.38195 0.44613 0.77657
 C114 C 0.39125 0.44884 0.75486
 C115 C 0.38102 0.51111 0.74399
 C116 C 0.37210 0.51384 0.72225
 C117 C 0.37187 0.53512 0.71167
 C118 C 0.38093 0.55367 0.72260
 C119 C 0.39003 0.55100 0.74418
 C120 C 0.38987 0.52983 0.75492
 H121 H 0.39796 0.47205 0.72734
 H122 H 0.36456 0.50028 0.78567
 H123 H 0.36502 0.49953 0.71377
 H124 H 0.39698 0.52782 0.77161
 H125 H 0.38220 0.42963 0.78472
 H126 H 0.38086 0.57012 0.71438
 C127 C 0.61382 1.02880 0.74769
 C128 C 0.62299 1.00981 0.75878
 C129 C 0.63208 1.01209 0.78040
 C130 C 0.63220 1.03323 0.79071
 C131 C 0.62280 1.05206 0.77959
 C132 C 0.61352 1.04981 0.75815
 C133 C 0.62283 0.98763 0.74778
 C134 C 0.63203 0.98509 0.72595
 C135 C 0.63157 0.96412 0.71541
 C136 C 0.62155 0.94569 0.72647
 C137 C 0.61217 0.94816 0.74813
 C138 C 0.61303 0.96901 0.75886
 H139 H 0.60656 1.02712 0.73110
 H140 H 0.63934 0.99750 0.78897
 H141 H 0.63974 0.99935 0.71733
 H142 H 0.60564 0.97091 0.77559
 H143 H 0.62271 1.06843 0.78756
 H144 H 0.62101 0.92949 0.71823
 C145 C -0.03008 0.24372 -0.10986
 C146 C -0.01130 0.25483 -0.11922
 C147 C -0.01398 0.27670 -0.12833
 C148 C -0.03527 0.28724 -0.12824
 C149 C -0.05387 0.27609 -0.11866
 C150 C -0.05125 0.25439 -0.10939
 C151 C 0.01109 0.24363 -0.11935
 C152 C 0.01384 0.22185 -0.12813
 C153 C 0.03512 0.21130 -0.12825
 C154 C 0.05364 0.22232 -0.11921
 C155 C 0.05096 0.24393 -0.11027
 C156 C 0.02980 0.25463 -0.11054
 H157 H -0.02812 0.22693 -0.10261
 H158 H 0.00041 0.28528 -0.13580
 H159 H -0.00050 0.21336 -0.13517
 H160 H 0.02779 0.27134 -0.10354
 H161 H -0.07037 0.28421 -0.11847
 H162 H 0.07013 0.21418 -0.11916
 C163 C 0.52887 0.24799 0.11246
 C164 C 0.50979 0.25889 0.12168
 C165 C 0.51195 0.28045 0.13091
 C166 C 0.53304 0.29085 0.13110
 C167 C 0.55194 0.27995 0.12167
 C168 C 0.54984 0.25858 0.11225
 C169 C 0.48766 0.24774 0.12151
 C170 C 0.48525 0.22584 0.13052
 C171 C 0.46431 0.21519 0.13012
 C172 C 0.44579 0.22622 0.12035
 C173 C 0.44811 0.24796 0.11116
 C174 C 0.46894 0.25879 0.11195
 H175 H 0.52729 0.23145 0.10511
 H176 H 0.49735 0.28890 0.13825
 H177 H 0.49958 0.21725 0.13806
 H178 H 0.47072 0.27559 0.10473
 H179 H 0.56824 0.28805 0.12169
 H180 H 0.42961 0.21790 0.11987
 C181 C 1.02940 0.74822 0.61469
 C182 C 1.01024 0.75902 0.62384
 C183 C 1.01224 0.78057 0.63311
 C184 C 1.03329 0.79110 0.63342
 C185 C 1.05229 0.78028 0.62404
 C186 C 1.05031 0.75891 0.61458
 C187 C 0.98815 0.74779 0.62347
 C188 C 0.98573 0.72591 0.63250
 C189 C 0.96484 0.71518 0.63188
 C190 C 0.94639 0.72611 0.62184
 C191 C 0.94875 0.74783 0.61262
 C192 C 0.96952 0.75875 0.61365
 H193 H 1.02793 0.73169 0.60729
 H194 H 0.99752 0.78891 0.64036
 H195 H 1.00000 0.71739 0.64023
 H196 H 0.97133 0.77552 0.60639
 H197 H 1.06858 0.78842 0.62410
 H198 H 0.93026 0.71773 0.62118
 C199 C 0.47057 0.74403 0.39123
 C200 C 0.48944 0.75507 0.38195
 C201 C 0.48687 0.77694 0.37282
 C202 C 0.46563 0.78753 0.37279
 C203 C 0.44695 0.77648 0.38227
 C204 C 0.44944 0.75478 0.39158
 C205 C 0.51178 0.74379 0.38189
 C206 C 0.51449 0.72206 0.37300
 C207 C 0.53572 0.71145 0.37289
 C208 C 0.55425 0.72234 0.38205
 C209 C 0.55162 0.74390 0.39112
 C210 C 0.53049 0.75467 0.39084
 H211 H 0.47243 0.72723 0.39848
 H212 H 0.50129 0.78550 0.36539
 H213 H 0.50019 0.71362 0.36583
 H214 H 0.52851 0.77135 0.39793
 H215 H 0.43052 0.78470 0.38233
 H216 H 0.57067 0.71410 0.38206
 C217 C 0.40854 -0.01856 0.27756
 H218 H 0.40944 -0.00117 0.28270
 C219 C 0.42036 -0.03534 0.28949
 H220 H 0.43052 -0.03086 0.30377
 C221 C 0.39321 -0.04594 0.25351
 H222 H 0.38209 -0.05019 0.23998
 C223 C 0.40475 -0.06316 0.26491
 H224 H 0.40265 -0.08050 0.25992
 N225 N 0.39520 -0.02413 0.26000
 C226 C 0.38200 0.03633 0.21930
 H227 H 0.36387 0.03483 0.21837
 C228 C 0.39282 0.05411 0.20820
 H229 H 0.38301 0.06638 0.19867
 C230 C 0.41689 0.02225 0.23307
 H231 H 0.42615 0.00975 0.24275
 C232 C 0.42842 0.03988 0.22219
 H233 H 0.44656 0.04102 0.22360
 Zn234 Zn 0.37681 -0.00151 0.24648
 N235 N 0.39403 0.02105 0.23169
 C236 C 0.36038 0.03417 0.27367
 N237 N 0.35906 0.01166 0.26976
 C238 C 0.34610 -0.00199 0.28315
 C239 C 0.33353 0.00701 0.30110
 C240 C 0.34810 0.04382 0.29139
 C241 C 0.36915 -0.02253 0.20564
 C242 C 0.35689 -0.03235 0.18849
 C243 C 0.32262 -0.02479 0.20977
 C244 C 0.33554 -0.01509 0.22657
 N245 N 0.35841 -0.01441 0.22433
 H246 H 0.37120 0.04467 0.26329
 H247 H 0.34569 -0.01990 0.27995
 H248 H 0.32330 -0.00395 0.31172
 H249 H 0.34933 0.06174 0.29442
 H250 H 0.38732 -0.02149 0.20418
 H251 H 0.36562 -0.03895 0.17376
 H252 H 0.30445 -0.02543 0.21169
 H253 H 0.32728 -0.00812 0.24131
 C254 C 0.41619 0.05602 0.20978
 C255 C 0.41825 -0.05786 0.28320
 C256 C 0.33344 -0.03358 0.19062
 C257 C 0.33458 0.03013 0.30523
 C258 C 0.09113 1.01835 0.78055
 H259 H 0.08995 1.00095 0.78610
 C260 C 0.07947 1.03523 0.79236
 H261 H 0.06915 1.03082 0.80696
 C262 C 0.10699 1.04564 0.75554
 H263 H 0.11825 1.04981 0.74167
 C264 C 0.09562 1.06295 0.76680
 H265 H 0.09799 1.08030 0.76137
 N266 N 0.10464 1.02383 0.76256
 C267 C 0.11707 0.96325 0.72313
 H268 H 0.13525 0.96429 0.72193
 C269 C 0.10594 0.94590 0.71244
 H270 H 0.11557 0.93349 0.70298
 C271 C 0.08233 0.97816 0.73699
 H272 H 0.07325 0.99087 0.74648
 C273 C 0.07049 0.96099 0.72651
 H274 H 0.05228 0.96039 0.72805
 Zn275 Zn 0.12277 1.00102 0.74912
 N276 N 0.10525 0.97876 0.73534
 C277 C 0.13905 0.96513 0.77675
 N278 N 0.14042 0.98765 0.77222
 C279 C 0.15352 1.00122 0.78479
 C280 C 0.16624 0.99214 0.80249
 C281 C 0.15148 0.95539 0.79427
 C282 C 0.13070 1.02219 0.70757
 C283 C 0.14310 1.03200 0.68990
 C284 C 0.17726 1.02382 0.71040
 C285 C 0.16420 1.01413 0.72774
 N286 N 0.14132 1.01379 0.72614
 H287 H 0.12813 0.95470 0.76702
 H288 H 0.15398 1.01913 0.78110
 H289 H 0.17663 1.00304 0.81242
 H290 H 0.15026 0.93746 0.79778
 H291 H 0.11252 1.02140 0.70663
 H292 H 0.13447 1.03884 0.67528
 H293 H 0.19544 1.02421 0.71182
 H294 H 0.17237 1.00694 0.74239
 C295 C 0.08247 0.94467 0.71423
 C296 C 0.08193 1.05775 0.78551
 C297 C 0.16657 1.03292 0.69139
 C298 C 0.16520 0.96900 0.80723
 C299 C 0.59220 0.51838 0.27935
 H300 H 0.59113 0.50094 0.28481
 C301 C 0.58050 0.53512 0.29130
 H302 H 0.57027 0.53058 0.30592
 C303 C 0.60783 0.54589 0.25444
 H304 H 0.61902 0.55018 0.24056
 C305 C 0.59641 0.56308 0.26584
 H306 H 0.59868 0.58046 0.26050
 N307 N 0.60562 0.52403 0.26135
 C308 C 0.61821 0.46364 0.22166
 H309 H 0.63639 0.46469 0.22046
 C310 C 0.60708 0.44633 0.21090
 H311 H 0.61670 0.43395 0.20140
 C312 C 0.58347 0.47851 0.23556
 H313 H 0.57438 0.49118 0.24509
 C314 C 0.57163 0.46138 0.22502
 H315 H 0.55342 0.46078 0.22656
 Zn316 Zn 0.62384 0.50137 0.24778
 N317 N 0.60638 0.47911 0.23391
 C318 C 0.64031 0.46546 0.27529
 N319 N 0.64155 0.48800 0.27083
 C320 C 0.65451 0.50163 0.28348
 C321 C 0.66721 0.49259 0.30121
 C322 C 0.65273 0.45576 0.29284
 C323 C 0.63169 0.52280 0.20634
 C324 C 0.64406 0.53280 0.18875
 C325 C 0.67823 0.52467 0.20925
 C326 C 0.66521 0.51479 0.22650
 N327 N 0.64234 0.51433 0.22487
 H328 H 0.62949 0.45498 0.26549
 H329 H 0.65485 0.51955 0.27985
 H330 H 0.67747 0.50354 0.31122
 H331 H 0.65160 0.43782 0.29631
 H332 H 0.61352 0.52192 0.20537
 H333 H 0.63541 0.53971 0.17417
 H334 H 0.69641 0.52516 0.21070
 H335 H 0.67339 0.50754 0.24111
 C336 C 0.58361 0.44510 0.21268
 C337 C 0.58283 0.55769 0.28457
 C338 C 0.66752 0.53385 0.19029
 C339 C 0.66629 0.46944 0.30590
 C340 C 0.90825 0.48093 0.77856
 H341 H 0.90929 0.49827 0.78382
 C342 C 0.91995 0.46398 0.79037
 H343 H 0.93015 0.46826 0.80469
 C344 C 0.89273 0.45386 0.75429
 H345 H 0.88158 0.44980 0.74073
 C346 C 0.90414 0.43647 0.76557
 H347 H 0.90191 0.41918 0.76044
 N348 N 0.89489 0.47560 0.76094
 C349 C 0.88214 0.53640 0.72062
 H350 H 0.86401 0.53500 0.71963
 C351 C 0.89306 0.55419 0.70963
 H352 H 0.88333 0.56656 0.70015
 C353 C 0.91694 0.52209 0.73439
 H354 H 0.92612 0.50949 0.74402
 C355 C 0.92858 0.53972 0.72362
 H356 H 0.94672 0.54077 0.72508
 Zn357 Zn 0.87668 0.49845 0.74753
 N358 N 0.89408 0.52100 0.73295
 C359 C 0.86044 0.53405 0.77490
 N360 N 0.85893 0.51158 0.77084
 C361 C 0.84578 0.49796 0.78407
 C362 C 0.83319 0.50696 0.80201
 C363 C 0.84814 0.54369 0.79263
 C364 C 0.86907 0.47780 0.70650
 C365 C 0.85684 0.46822 0.68920
 C366 C 0.82251 0.47583 0.71036
 C367 C 0.83540 0.48529 0.72732
 N368 N 0.85828 0.48583 0.72521
 H369 H 0.87141 0.54451 0.76466
 H370 H 0.84522 0.48009 0.78075
 H371 H 0.82279 0.49603 0.81250
 H372 H 0.84952 0.56158 0.79578
 H373 H 0.88725 0.47873 0.70515
 H374 H 0.86560 0.46170 0.67445
 H375 H 0.80431 0.47531 0.71216
 H376 H 0.82711 0.49219 0.74207
 C377 C 0.91645 0.55598 0.71128
 C378 C 0.91768 0.44152 0.78391
 C379 C 0.83337 0.46714 0.69119
 C380 C 0.83442 0.53004 0.80630
 C381 C 0.27788 0.40800 -0.01884
 H382 H 0.28308 0.40896 -0.00145
 C383 C 0.28981 0.41970 -0.03576
 H384 H 0.30415 0.42984 -0.03141
 C385 C 0.25368 0.39262 -0.04607
 H386 H 0.24010 0.38153 -0.05020
 C387 C 0.26508 0.40405 -0.06343
 H388 H 0.26003 0.40188 -0.08077
 N389 N 0.26025 0.39470 -0.02427
 C390 C 0.21979 0.38183 0.03652
 H391 H 0.21878 0.36370 0.03515
 C392 C 0.20877 0.39274 0.05427
 H393 H 0.19925 0.38300 0.06665
 C394 C 0.23362 0.41664 0.02214
 H395 H 0.24329 0.42583 0.00953
 C396 C 0.22283 0.42827 0.03974
 H397 H 0.22429 0.44641 0.04075
 Zn398 Zn 0.24674 0.37643 -0.00144
 N399 N 0.23216 0.39378 0.02110
 C400 C 0.27397 0.36009 0.03427
 N401 N 0.26995 0.35866 0.01175
 C402 C 0.28318 0.34560 -0.00188
 C403 C 0.30109 0.33302 0.00713
 C404 C 0.29166 0.34781 0.04394
 C405 C 0.20581 0.36887 -0.02225
 C406 C 0.18853 0.35665 -0.03188
 C407 C 0.20958 0.32232 -0.02418
 C408 C 0.22651 0.33520 -0.01467
 N409 N 0.22445 0.35808 -0.01415
 H410 H 0.26372 0.37099 0.04475
 H411 H 0.27989 0.34510 -0.01979
 H412 H 0.31159 0.32271 -0.00381
 H413 H 0.29479 0.34913 0.06185
 H414 H 0.20449 0.38704 -0.02132
 H415 H 0.17384 0.36541 -0.03845
 H416 H 0.21135 0.30413 -0.02469
 H417 H 0.24122 0.32691 -0.00772
 C418 C 0.21043 0.41612 0.05601
 C419 C 0.28344 0.41751 -0.05828
 C420 C 0.19048 0.33318 -0.03294
 C421 C 0.30535 0.33419 0.03026
 C422 C 0.77891 0.09080 1.01840
 H423 H 0.78443 0.08958 1.00096
 C424 C 0.79059 0.07904 1.03531
 H425 H 0.80507 0.06861 1.03092
 C426 C 0.75412 0.10685 1.04570
 H427 H 0.74040 0.11823 1.04984
 C428 C 0.76526 0.09538 1.06306
 H429 H 0.75987 0.09781 1.08042
 N430 N 0.76110 0.10446 1.02386
 C431 C 0.72196 0.11735 0.96310
 H432 H 0.72099 0.13554 0.96410
 C433 C 0.71116 0.10634 0.94574
 H434 H 0.70187 0.11607 0.93326
 C435 C 0.73531 0.08247 0.97816
 H436 H 0.74465 0.07329 0.99092
 C437 C 0.72472 0.07075 0.96097
 H438 H 0.72603 0.05253 0.96041
 Zn439 Zn 0.74794 0.12274 1.00097
 N440 N 0.73396 0.10540 0.97869
 C441 C 0.77580 0.13878 0.96503
 N442 N 0.77128 0.14012 0.98758
 C443 C 0.78400 0.15303 1.00119
 C444 C 0.80182 0.16562 0.99212
 C445 C 0.79344 0.15108 0.95529
 C446 C 0.70654 0.13126 1.02215
 C447 C 0.68909 0.14394 1.03188
 C448 C 0.71011 0.17777 1.02343
 C449 C 0.72722 0.16444 1.01384
 N450 N 0.72526 0.14159 1.01367
 H451 H 0.76593 0.12801 0.95456
 H452 H 0.78031 0.15347 1.01913
 H453 H 0.81186 0.17587 1.00305
 H454 H 0.79693 0.14990 0.93734
 H455 H 0.70531 0.11310 1.02150
 H456 H 0.67434 0.13556 1.03878
 H457 H 0.71182 0.19593 1.02368
 H458 H 0.74197 0.17237 1.00657
 C459 C 0.71265 0.08286 0.94456
 C460 C 0.78379 0.08155 1.05787
 C461 C 0.69095 0.16739 1.03262
 C462 C 0.80654 0.16462 0.96895
 C463 C 0.27876 0.59191 0.51819
 H464 H 0.28420 0.59079 0.50073
 C465 C 0.29055 0.58010 0.53500
 H466 H 0.30502 0.56972 0.53048
 C467 C 0.25408 0.60781 0.54569
 H468 H 0.24037 0.61915 0.54996
 C469 C 0.26533 0.59628 0.56294
 H470 H 0.26003 0.59862 0.58035
 N471 N 0.26096 0.60553 0.52381
 C472 C 0.22155 0.61872 0.46328
 H473 H 0.22060 0.63690 0.46434
 C474 C 0.21068 0.60777 0.44591
 H475 H 0.20134 0.61754 0.43351
 C476 C 0.23495 0.58379 0.47815
 H477 H 0.24434 0.57456 0.49084
 C478 C 0.22430 0.57213 0.46097
 H479 H 0.22560 0.55391 0.46035
 Zn480 Zn 0.24770 0.62393 0.50108
 N481 N 0.23361 0.60671 0.47878
 C482 C 0.27544 0.64016 0.46512
 N483 N 0.27100 0.64136 0.48769
 C484 C 0.28382 0.65412 0.50136
 C485 C 0.30168 0.66667 0.49232
 C486 C 0.29312 0.65243 0.45542
 C487 C 0.20642 0.63236 0.52252
 C488 C 0.18907 0.64499 0.53252
 C489 C 0.21012 0.67884 0.52423
 C490 C 0.22711 0.66556 0.51437
 N491 N 0.22510 0.64272 0.51400
 H492 H 0.26549 0.62950 0.45461
 H493 H 0.28019 0.65444 0.51931
 H494 H 0.31181 0.67679 0.50330
 H495 H 0.29656 0.65135 0.43745
 H496 H 0.20514 0.61421 0.52172
 H497 H 0.17437 0.63657 0.53948
 H498 H 0.21188 0.69699 0.52466
 H499 H 0.24184 0.67353 0.50708
 C500 C 0.21216 0.58430 0.44465
 C501 C 0.28386 0.58251 0.55760
 C502 C 0.19101 0.66841 0.53348
 C503 C 0.30633 0.66580 0.46913
 C504 C 0.77898 0.90795 0.48138
 H505 H 0.78424 0.90895 0.49875
 C506 C 0.79079 0.91971 0.46441
 H507 H 0.80510 0.92992 0.46870
 C508 C 0.75475 0.89246 0.45426
 H509 H 0.74119 0.88130 0.45019
 C510 C 0.76602 0.90394 0.43685
 H511 H 0.76090 0.90174 0.41953
 N512 N 0.76139 0.89457 0.47603
 C513 C 0.72121 0.88155 0.53697
 H514 H 0.72027 0.86341 0.53559
 C515 C 0.71021 0.89239 0.55477
 H516 H 0.70077 0.88260 0.56716
 C517 C 0.73486 0.91643 0.52258
 H518 H 0.74445 0.92567 0.50995
 C519 C 0.72408 0.92799 0.54023
 H520 H 0.72547 0.94614 0.54125
 Zn521 Zn 0.74803 0.87627 0.49891
 N522 N 0.73349 0.89356 0.52152
 C523 C 0.77543 0.85999 0.53451
 N524 N 0.77133 0.85855 0.51201
 C525 C 0.78450 0.84546 0.49834
 C526 C 0.80242 0.83288 0.50730
 C527 C 0.79315 0.84770 0.54412
 C528 C 0.70702 0.86860 0.47829
 C529 C 0.68969 0.85633 0.46882
 C530 C 0.71082 0.82204 0.47652
 C531 C 0.72780 0.83498 0.48586
 N532 N 0.72572 0.85786 0.48632
 H533 H 0.76522 0.87090 0.54502
 H534 H 0.78113 0.84496 0.48045
 H535 H 0.81287 0.82254 0.49632
 H536 H 0.79633 0.84902 0.56202
 H537 H 0.70569 0.88678 0.47917
 H538 H 0.67494 0.86505 0.46233
 H539 H 0.71259 0.80385 0.47608
 H540 H 0.74255 0.82672 0.49277
 C541 C 0.71178 0.91578 0.55653
 C542 C 0.78434 0.91748 0.44191
 C543 C 0.69164 0.83286 0.46786
 C544 C 0.80676 0.83404 0.53041
 C545 C -0.01844 0.27731 0.40771
 H546 H -0.00106 0.28251 0.40866
 C547 C -0.03528 0.28914 0.41955
 H548 H -0.03086 0.30339 0.42978
 C549 C -0.04573 0.25327 0.39222
 H550 H -0.04991 0.23979 0.38102
 C551 C -0.06301 0.26456 0.40378
 H552 H -0.08035 0.25953 0.40161
 N553 N -0.02394 0.25981 0.39428
 C554 C 0.03672 0.21961 0.38091
 H555 H 0.03532 0.21880 0.36275
 C556 C 0.05448 0.20854 0.39172
 H557 H 0.06684 0.19917 0.38186
 C558 C 0.02242 0.23302 0.41592
 H559 H 0.00983 0.24255 0.42522
 C560 C 0.04002 0.22217 0.42744
 H561 H 0.04106 0.22345 0.44562
 Zn562 Zn -0.00121 0.24654 0.37581
 N563 N 0.02134 0.23181 0.39301
 C564 C 0.03443 0.27401 0.35956
 N565 N 0.01193 0.26997 0.35819
 C566 C -0.00174 0.28332 0.34530
 C567 C 0.00721 0.30141 0.33286
 C568 C 0.04403 0.29187 0.34741
 C569 C -0.02211 0.20569 0.36785
 C570 C -0.03176 0.18857 0.35543
 C571 C -0.02399 0.21004 0.32126
 C572 C -0.01446 0.22680 0.33435
 N573 N -0.01396 0.22446 0.35724
 H574 H 0.04495 0.26364 0.37032
 H575 H -0.01963 0.28001 0.34486
 H576 H -0.00377 0.31202 0.32269
 H577 H 0.06193 0.29502 0.34868
 H578 H -0.02120 0.20414 0.38604
 H579 H -0.03836 0.17377 0.36404
 H580 H -0.02447 0.21204 0.30306
 H581 H -0.00747 0.24160 0.32619
 C582 C 0.05627 0.20997 0.41515
 C583 C -0.05779 0.28280 0.41736
 C584 C -0.03279 0.19081 0.33194
 C585 C 0.03031 0.30570 0.33397
 C586 C 1.01814 0.77948 0.09141
 H587 H 1.00077 0.78510 0.09029
 C588 C 1.03509 0.79121 0.07969
 H589 H 1.03076 0.80582 0.06938
 C590 C 1.04529 0.75439 0.10719
 H591 H 1.04938 0.74053 0.11845
 C592 C 1.06267 0.76557 0.09575
 H593 H 1.07998 0.76008 0.09808
 N594 N 1.02352 0.76150 0.10493
 C595 C 0.96259 0.72257 0.11781
 H596 H 0.96361 0.72148 0.13602
 C597 C 0.94517 0.71189 0.10677
 H598 H 0.93268 0.70258 0.11649
 C599 C 0.97764 0.73609 0.08291
 H600 H 0.99042 0.74543 0.07373
 C601 C 0.96040 0.72563 0.07115
 H602 H 0.95983 0.72704 0.05291
 Zn603 Zn 1.00065 0.74827 0.12324
 N604 N 0.97821 0.73458 0.10586
 C605 C 0.96506 0.77619 0.13964
 N606 N 0.98754 0.77150 0.14088
 C607 C 1.00131 0.78403 0.15381
 C608 C 0.99249 0.80187 0.16647
 C609 C 0.95556 0.79386 0.15201
 C610 C 1.02149 0.70670 0.13125
 C611 C 1.03119 0.68905 0.14370
 C612 C 1.02326 0.70972 0.17785
 C613 C 1.01369 0.72703 0.16474
 N614 N 1.01327 0.72534 0.14185
 H615 H 0.95446 0.76648 0.12885
 H616 H 1.01919 0.78021 0.15416
 H617 H 1.00355 0.81179 0.17669
 H618 H 0.93767 0.79752 0.15087
 H619 H 1.02064 0.70568 0.11306
 H620 H 1.03788 0.67437 0.13510
 H621 H 1.02372 0.71122 0.19605
 H622 H 1.00664 0.74173 0.17289
 C623 C 0.94397 0.71352 0.08326
 C624 C 1.05757 0.78428 0.08209
 C625 C 1.03218 0.69063 0.16719
 C626 C 0.96939 0.80680 0.16553
 C627 C 0.51813 0.27954 0.59160
 H628 H 0.50071 0.28502 0.59055
 C629 C 0.53494 0.29142 0.57983
 H630 H 0.53047 0.30601 0.56956
 C631 C 0.54553 0.25465 0.60726
 H632 H 0.54976 0.24081 0.61850
 C633 C 0.56278 0.26599 0.59578
 H634 H 0.58014 0.26063 0.59804
 N635 N 0.52370 0.26160 0.60508
 C636 C 0.46309 0.22220 0.61804
 H637 H 0.46414 0.22110 0.63625
 C638 C 0.44574 0.21141 0.60700
 H639 H 0.43332 0.20200 0.61672
 C640 C 0.47802 0.23585 0.58314
 H641 H 0.49074 0.24528 0.57395
 C642 C 0.46084 0.22528 0.57138
 H643 H 0.46026 0.22670 0.55315
 Zn644 Zn 0.50098 0.24818 0.62343
 N645 N 0.47862 0.23433 0.60609
 C646 C 0.46523 0.27584 0.63992
 N647 N 0.48774 0.27130 0.64111
 C648 C 0.50147 0.28394 0.65399
 C649 C 0.49255 0.30174 0.66664
 C650 C 0.45565 0.29347 0.65230
 C651 C 0.52216 0.20676 0.63139
 C652 C 0.53201 0.18918 0.64382
 C653 C 0.52396 0.20978 0.67799
 C654 C 0.51425 0.22702 0.66490
 N655 N 0.51381 0.22533 0.64200
 H656 H 0.45467 0.26604 0.62917
 H657 H 0.51937 0.28024 0.65430
 H658 H 0.50358 0.31175 0.67682
 H659 H 0.43773 0.29701 0.65120
 H660 H 0.52130 0.20575 0.61320
 H661 H 0.53880 0.17455 0.63520
 H662 H 0.52442 0.21127 0.69618
 H663 H 0.50709 0.24167 0.67306
 C664 C 0.44451 0.21305 0.58349
 C665 C 0.55749 0.28467 0.58215
 C666 C 0.53301 0.19076 0.66731
 C667 C 0.46943 0.30652 0.66576
 C668 C 0.48091 0.77787 0.90842
 H669 H 0.49827 0.78316 0.90939
 C670 C 0.46398 0.78966 0.92018
 H671 H 0.46830 0.80397 0.93036
 C672 C 0.45379 0.75361 0.89298
 H673 H 0.44970 0.74006 0.88183
 C674 C 0.43643 0.76486 0.90445
 H675 H 0.41912 0.75972 0.90227
 N676 N 0.47555 0.76028 0.89506
 C677 C 0.53632 0.72018 0.88190
 H678 H 0.53486 0.71924 0.86375
 C679 C 0.55415 0.70923 0.89271
 H680 H 0.56648 0.69982 0.88288
 C681 C 0.52212 0.73383 0.91685
 H682 H 0.50956 0.74341 0.92613
 C683 C 0.53980 0.72310 0.92838
 H684 H 0.54091 0.72452 0.94655
 Zn685 Zn 0.49836 0.74699 0.87669
 N686 N 0.52096 0.73244 0.89397
 C687 C 0.53392 0.77446 0.86035
 N688 N 0.51145 0.77035 0.85893
 C689 C 0.49779 0.78357 0.84588
 C690 C 0.50675 0.80158 0.83333
 C691 C 0.54353 0.79225 0.84810
 C692 C 0.47770 0.70599 0.86904
 C693 C 0.46815 0.68870 0.85678
 C694 C 0.47571 0.70996 0.82243
 C695 C 0.48515 0.72689 0.83536
 N696 N 0.48570 0.72473 0.85827
 H697 H 0.54442 0.76421 0.87124
 H698 H 0.47992 0.78020 0.84539
 H699 H 0.49579 0.81208 0.82304
 H700 H 0.56141 0.79545 0.84942
 H701 H 0.47865 0.70459 0.88724
 H702 H 0.46166 0.67393 0.86552
 H703 H 0.47518 0.71181 0.80422
 H704 H 0.49202 0.74167 0.82708
 C705 C 0.55602 0.71083 0.91612
 C706 C 0.44151 0.78319 0.91797
 C707 C 0.46706 0.69075 0.83328
 C708 C 0.52983 0.80594 0.83450
 C709 C 0.46276 -0.19054 0.36242
 C710 C 0.45982 -0.17240 0.35343
 C711 C 0.45560 -0.15104 0.34234
 C712 C 0.44298 -0.13428 0.35338
 C713 C 0.43722 -0.11428 0.34194
 C714 C 0.44405 -0.11096 0.31940
 C715 C 0.45711 -0.12750 0.30852
 C716 C 0.46288 -0.14750 0.31997
 C717 C 0.43609 -0.09152 0.30692
 C718 C 0.42850 -0.07581 0.29622
 H719 H 0.43715 -0.13689 0.37063
 H720 H 0.42695 -0.10170 0.35045
 H721 H 0.46232 -0.12520 0.29104
 H722 H 0.47253 -0.16040 0.31122
 C723 C 0.96191 0.30802 0.86202
 C724 C 0.95894 0.32622 0.85314
 C725 C 0.95471 0.34765 0.84221
 C726 C 0.96194 0.35135 0.81985
 C727 C 0.95621 0.37145 0.80857
 C728 C 0.94323 0.38795 0.81961
 C729 C 0.93643 0.38447 0.84214
 C730 C 0.94216 0.36436 0.85341
 C731 C 0.93535 0.40755 0.80732
 C732 C 0.92783 0.42340 0.79676
 H733 H 0.97153 0.33849 0.81098
 H734 H 0.96139 0.37388 0.79110
 H735 H 0.92623 0.39702 0.85078
 H736 H 0.93637 0.36163 0.87065
 C737 C 0.03798 1.19061 0.86234
 C738 C 0.04095 1.17248 0.85374
 C739 C 0.04516 1.15114 0.84310
 C740 C 0.03777 1.14759 0.82107
 C741 C 0.04345 1.12758 0.81002
 C742 C 0.05652 1.11102 0.82095
 C743 C 0.06348 1.11435 0.84316
 C744 C 0.05780 1.13436 0.85422
 C745 C 0.06435 1.09153 0.80879
 C746 C 0.07183 1.07577 0.79832
 H747 H 0.02810 1.16050 0.81227
 H748 H 0.03816 1.12528 0.79277
 H749 H 0.07375 1.10175 0.85171
 H750 H 0.06370 1.13698 0.87120
 C751 C 0.53873 0.68967 0.36278
 C752 C 0.54171 0.67165 0.35400
 C753 C 0.54594 0.65043 0.34313
 C754 C 0.53857 0.64712 0.32105
 C755 C 0.54428 0.62724 0.30978
 C756 C 0.55736 0.61057 0.32055
 C757 C 0.56430 0.61366 0.34280
 C758 C 0.55860 0.63355 0.35407
 C759 C 0.56521 0.59122 0.30818
 C760 C 0.57270 0.57558 0.29754
 H761 H 0.52890 0.66011 0.31238
 H762 H 0.53900 0.62511 0.29251
 H763 H 0.57459 0.60098 0.35122
 H764 H 0.56449 0.63598 0.37109
 C765 C 0.53557 0.31248 0.14143
 C766 C 0.53838 0.33041 0.15026
 C767 C 0.54265 0.35155 0.16097
 C768 C 0.54141 0.35308 0.18454
 C769 C 0.54761 0.37298 0.19510
 C770 C 0.55506 0.39145 0.18213
 C771 C 0.55577 0.39010 0.15852
 C772 C 0.54957 0.37020 0.14796
 C773 C 0.56383 0.41096 0.19304
 C774 C 0.57224 0.42682 0.20208
 H775 H 0.53623 0.33871 0.19477
 H776 H 0.54719 0.37375 0.21337
 H777 H 0.56170 0.40420 0.14833
 H778 H 0.55075 0.36916 0.12973
 C779 C 0.03551 0.81159 0.64322
 C780 C 0.03811 0.82956 0.65204
 C781 C 0.04214 0.85076 0.66272
 C782 C 0.04099 0.85227 0.68630
 C783 C 0.04699 0.87225 0.69683
 C784 C 0.05414 0.89082 0.68383
 C785 C 0.05475 0.88949 0.66022
 C786 C 0.04876 0.86950 0.64969
 C787 C 0.06278 0.91041 0.69470
 C788 C 0.07113 0.92634 0.70370
 H789 H 0.03605 0.83783 0.69655
 H790 H 0.04666 0.87302 0.71510
 H791 H 0.06046 0.90366 0.65001
 H792 H 0.04986 0.86847 0.63145
 C793 C 0.96214 0.69307 0.64182
 C794 C 0.95938 0.67469 0.65030
 C795 C 0.95534 0.65296 0.66059
 C796 C 0.94846 0.63496 0.64735
 C797 C 0.94272 0.61437 0.65758
 C798 C 0.94386 0.61169 0.68109
 C799 C 0.95125 0.62952 0.69427
 C800 C 0.95699 0.65011 0.68404
 C801 C 0.93557 0.59142 0.69179
 C802 C 0.92750 0.57494 0.70072
 H803 H 0.94700 0.63701 0.62922
 H804 H 0.93682 0.60077 0.64724
 H805 H 0.95199 0.62771 0.71247
 H806 H 0.96217 0.66395 0.69445
 C807 C 0.46165 0.19307 0.14005
 C808 C 0.45890 0.17469 0.14853
 C809 C 0.45487 0.15296 0.15882
 C810 C 0.44770 0.13503 0.14563
 C811 C 0.44197 0.11446 0.15589
 C812 C 0.44340 0.11171 0.17937
 C813 C 0.45107 0.12947 0.19249
 C814 C 0.45680 0.15004 0.18223
 C815 C 0.43516 0.09146 0.19013
 C816 C 0.42715 0.07498 0.19913
 H817 H 0.44602 0.13714 0.12753
 H818 H 0.43586 0.10092 0.14560
 H819 H 0.45204 0.12760 0.21068
 H820 H 0.46221 0.16383 0.19260
 C821 C 0.36246 0.46174 -0.19154
 C822 C 0.35351 0.45873 -0.17335
 C823 C 0.34246 0.45446 -0.15195
 C824 C 0.35338 0.44159 -0.13527
 C825 C 0.34197 0.43586 -0.11520
 C826 C 0.31960 0.44299 -0.11172
 C827 C 0.30885 0.45628 -0.12819
 C828 C 0.32026 0.46202 -0.14825
 C829 C 0.30713 0.43513 -0.09218
 C830 C 0.29645 0.42763 -0.07637
 H831 H 0.37050 0.43554 -0.13800
 H832 H 0.35039 0.42540 -0.10268
 H833 H 0.29149 0.46172 -0.12576
 H834 H 0.31161 0.47187 -0.16108
 C835 C 0.86258 0.96209 0.30832
 C836 C 0.85372 0.95907 0.32655
 C837 C 0.84278 0.95477 0.34801
 C838 C 0.85386 0.94203 0.36468
 C839 C 0.84256 0.93624 0.38479
 C840 C 0.82013 0.94318 0.38833
 C841 C 0.80922 0.95634 0.37187
 C842 C 0.82052 0.96214 0.35176
 C843 C 0.80779 0.93524 0.40792
 C844 C 0.79722 0.92768 0.42378
 H845 H 0.87102 0.93613 0.36190
 H846 H 0.85110 0.92589 0.39731
 H847 H 0.79182 0.96163 0.37433
 H848 H 0.81174 0.97188 0.33893
 C849 C 0.86138 0.03774 1.19050
 C850 C 0.85255 0.04059 1.17244
 C851 C 0.84167 0.04470 1.15117
 C852 C 0.85295 0.05654 1.13386
 C853 C 0.84175 0.06219 1.11390
 C854 C 0.81922 0.05601 1.11116
 C855 C 0.80810 0.04374 1.12827
 C856 C 0.81931 0.03809 1.14823
 C857 C 0.80700 0.06387 1.09168
 C858 C 0.79653 0.07138 1.07592
 H859 H 0.87020 0.06186 1.13600
 H860 H 0.85044 0.07185 1.10086
 H861 H 0.79063 0.03905 1.12642
 H862 H 0.81039 0.02904 1.16156
 C863 C 0.36175 0.53814 0.68986
 C864 C 0.35297 0.54114 0.67181
 C865 C 0.34211 0.54539 0.65056
 C866 C 0.31996 0.53823 0.64735
 C867 C 0.30872 0.54396 0.62743
 C868 C 0.31959 0.55686 0.61062
 C869 C 0.34192 0.56358 0.61362
 C870 C 0.35315 0.55785 0.63354
 C871 C 0.30729 0.56475 0.59123
 C872 C 0.29673 0.57230 0.57554
 H873 H 0.31121 0.52869 0.66045
 H874 H 0.29140 0.53884 0.62538
 H875 H 0.35042 0.57372 0.60083
 H876 H 0.37023 0.56358 0.63590
 C877 C 0.14092 0.53678 0.31166
 C878 C 0.14967 0.53968 0.32962
 C879 C 0.16031 0.54398 0.35081
 C880 C 0.18381 0.54227 0.35254
 C881 C 0.19435 0.54840 0.37249
 C882 C 0.18142 0.55623 0.39081
 C883 C 0.15788 0.55743 0.38927
 C884 C 0.14734 0.55131 0.36931
 C885 C 0.19237 0.56485 0.41039
 C886 C 0.20146 0.57312 0.42631
 H887 H 0.19401 0.53676 0.33829
 H888 H 0.21257 0.54760 0.37342
 H889 H 0.14773 0.56366 0.40325
 H890 H 0.12917 0.55283 0.36812
 C891 C 0.64184 0.03571 0.81126
 C892 C 0.65055 0.03848 0.82928
 C893 C 0.66112 0.04266 0.85052
 C894 C 0.64809 0.04989 0.86903
 C895 C 0.65857 0.05593 0.88904
 C896 C 0.68211 0.05475 0.89064
 C897 C 0.69509 0.04700 0.87232
 C898 C 0.68462 0.04096 0.85231
 C899 C 0.69300 0.06335 0.91026
 C900 C 0.70203 0.07163 0.92621
 H901 H 0.62993 0.05140 0.86779
 H902 H 0.64838 0.06210 0.90302
 H903 H 0.71332 0.04622 0.87329
 H904 H 0.69486 0.03552 0.83806
 C905 C 0.64165 0.96133 0.69336
 C906 C 0.65024 0.95853 0.67502
 C907 C 0.66065 0.95447 0.65334
 C908 C 0.64754 0.94756 0.63525
 C909 C 0.65787 0.94184 0.61471
 C910 C 0.68136 0.94302 0.61215
 C911 C 0.69442 0.95042 0.63008
 C912 C 0.68409 0.95614 0.65062
 C913 C 0.69216 0.93479 0.59193
 C914 C 0.70116 0.92677 0.57547
 H915 H 0.62942 0.94608 0.63720
 H916 H 0.64763 0.93593 0.60103
 H917 H 0.71261 0.95119 0.62837
 H918 H 0.69440 0.96135 0.66454
 C919 C 0.14046 0.46207 0.19276
 C920 C 0.14902 0.45926 0.17442
 C921 C 0.15940 0.45516 0.15272
 C922 C 0.14626 0.44817 0.13468
 C923 C 0.15657 0.44238 0.11415
 C924 C 0.18005 0.44358 0.11155
 C925 C 0.19313 0.45107 0.12942
 C926 C 0.18283 0.45686 0.14996
 C927 C 0.19083 0.43526 0.09135
 C928 C 0.19982 0.42718 0.07492
 H929 H 0.12815 0.44667 0.13667
 H930 H 0.14631 0.43640 0.10052
 H931 H 0.21132 0.45185 0.12768
 H932 H 0.19316 0.46213 0.16384
 C933 C -0.19029 0.36220 0.46189
 C934 C -0.17221 0.35314 0.45891
 C935 C -0.15092 0.34196 0.45466
 C936 C -0.13398 0.35299 0.44219
 C937 C -0.11404 0.34149 0.43642
 C938 C -0.11094 0.31892 0.44311
 C939 C -0.12767 0.30805 0.45600
 C940 C -0.14761 0.31955 0.46178
 C941 C -0.09151 0.30643 0.43517
 C942 C -0.07579 0.29575 0.42759
 H943 H -0.13642 0.37027 0.43648
 H944 H -0.10131 0.35000 0.42627
 H945 H -0.12555 0.29054 0.46109
 H946 H -0.16065 0.31081 0.47131
 C947 C 0.30821 0.86145 0.96220
 C948 C 0.32638 0.85256 0.95923
 C949 C 0.34779 0.84160 0.95498
 C950 C 0.36454 0.85271 0.94233
 C951 C 0.38461 0.84141 0.93661
 C952 C 0.38803 0.81895 0.94352
 C953 C 0.37148 0.80800 0.95660
 C954 C 0.35141 0.81930 0.96233
 C955 C 0.40759 0.80662 0.93565
 C956 C 0.42341 0.79605 0.92813
 H957 H 0.36186 0.86990 0.93645
 H958 H 0.39719 0.84998 0.92632
 H959 H 0.37385 0.79058 0.96187
 H960 H 0.33852 0.81050 0.97201
 C961 C 1.19064 0.86132 0.03832
 C962 C 1.17251 0.85266 0.04125
 C963 C 1.15116 0.84196 0.04541
 C964 C 1.14771 0.81991 0.03810
 C965 C 1.12768 0.80881 0.04375
 C966 C 1.11100 0.81972 0.05671
 C967 C 1.11424 0.84194 0.06359
 C968 C 1.13427 0.85304 0.05794
 C969 C 1.09147 0.80753 0.06451
 C970 C 1.07567 0.79706 0.07198
 H971 H 1.16070 0.81113 0.02852
 H972 H 1.12544 0.79156 0.03851
 H973 H 1.10155 0.85047 0.07378
 H974 H 1.13681 0.87004 0.06379
 C975 C 0.68984 0.36267 0.53804
 C976 C 0.67176 0.35393 0.54100
 C977 C 0.65049 0.34309 0.54521
 C978 C 0.64715 0.32104 0.53783
 C979 C 0.62722 0.30979 0.54353
 C980 C 0.61053 0.32055 0.55661
 C981 C 0.61366 0.34277 0.56355
 C982 C 0.63359 0.35402 0.55785
 C983 C 0.59113 0.30820 0.56446
 C984 C 0.57544 0.29759 0.57198
 H985 H 0.66015 0.31238 0.52815
 H986 H 0.62507 0.29255 0.53824
 H987 H 0.60096 0.35118 0.57383
 H988 H 0.63605 0.37101 0.56375
 C989 C 0.31180 0.14163 0.53570
 C990 C 0.32974 0.15044 0.53857
 C991 C 0.35089 0.16113 0.54287
 C992 C 0.35256 0.18465 0.54127
 C993 C 0.37247 0.19523 0.54743
 C994 C 0.39081 0.18234 0.55519
 C995 C 0.38932 0.15878 0.55627
 C996 C 0.36941 0.14820 0.55012
 C997 C 0.41033 0.19331 0.56388
 C998 C 0.42621 0.20240 0.57222
 H999 H 0.33829 0.19483 0.53583
 H1000 H 0.37335 0.21347 0.54672
 H1001 H 0.40332 0.14866 0.56245
 H1002 H 0.36826 0.13002 0.55156
 C1003 C 0.81089 0.64250 0.03589
 C1004 C 0.82887 0.65129 0.03866
 C1005 C 0.85006 0.66195 0.04286
 C1006 C 0.86865 0.64896 0.04983
 C1007 C 0.88861 0.65949 0.05591
 C1008 C 0.89008 0.68305 0.05503
 C1009 C 0.87168 0.69601 0.04754
 C1010 C 0.85171 0.68548 0.04146
 C1011 C 0.90967 0.69394 0.06367
 C1012 C 0.92561 0.70296 0.07199
 H1013 H 0.86751 0.63076 0.05112
 H1014 H 0.90266 0.64931 0.06187
 H1015 H 0.87255 0.71424 0.04700
 H1016 H 0.83739 0.69570 0.03624
 C1017 C 0.69317 0.64164 0.96139
 C1018 C 0.67482 0.65010 0.95859
 C1019 C 0.65310 0.66035 0.95455
 C1020 C 0.65026 0.68376 0.95624
 C1021 C 0.62967 0.69395 0.95056
 C1022 C 0.61182 0.68076 0.94320
 C1023 C 0.61450 0.65730 0.94200
 C1024 C 0.63509 0.64712 0.94767
 C1025 C 0.59154 0.69142 0.93502
 C1026 C 0.57502 0.70032 0.92706
 H1027 H 0.66411 0.69417 0.96142
 H1028 H 0.62787 0.71212 0.95135
 H1029 H 0.60089 0.64696 0.93612
 H1030 H 0.63713 0.62902 0.94619
 C1031 C 0.19302 0.14034 0.46093
 C1032 C 0.17468 0.14881 0.45808
 C1033 C 0.15299 0.15909 0.45396
 C1034 C 0.15010 0.18246 0.45593
 C1035 C 0.12957 0.19270 0.45015
 C1036 C 0.11184 0.17960 0.44239
 C1037 C 0.11456 0.15617 0.44091
 C1038 C 0.13509 0.14593 0.44669
 C1039 C 0.09163 0.19034 0.43413
 C1040 C 0.07519 0.19933 0.42611
 H1041 H 0.16387 0.19282 0.46142
 H1042 H 0.12773 0.21086 0.45116
 H1043 H 0.10103 0.14590 0.43473
 H1044 H 0.13717 0.12786 0.44499
 C1045 C 0.60333 0.06895 0.74694
 C1046 C 0.59454 0.08474 0.73736
 C1047 C 0.58380 0.10329 0.72568
 C1048 C 0.57244 0.09948 0.70553
 C1049 C 0.56195 0.11741 0.69409
 C1050 C 0.56275 0.13924 0.70275
 C1051 C 0.57408 0.14307 0.72293
 C1052 C 0.58459 0.12511 0.73438
 C1053 C 0.55216 0.15765 0.69073
 C1054 C 0.54336 0.17286 0.68027
 H1055 H 0.57172 0.08266 0.69867
 H1056 H 0.55326 0.11427 0.67849
 H1057 H 0.57483 0.15989 0.72975
 H1058 H 0.59332 0.12823 0.74996
 C1059 C 1.10216 0.56861 0.24682
 C1060 C 1.09335 0.58440 0.23725
 C1061 C 1.08261 0.60296 0.22560
 C1062 C 1.08382 0.62485 0.23407
 C1063 C 1.07335 0.64283 0.22263
 C1064 C 1.06163 0.63897 0.20269
 C1065 C 1.06040 0.61708 0.19426
 C1066 C 1.07085 0.59912 0.20569
 C1067 C 1.05113 0.65742 0.19065
 C1068 C 1.04241 0.67268 0.18018
 H1069 H 1.09285 0.62800 0.24947
 H1070 H 1.07444 0.65971 0.22927
 H1071 H 1.05141 0.61391 0.17884
 H1072 H 1.06980 0.58226 0.19900
 C1073 C 0.90161 0.93022 0.24344
 C1074 C 0.91043 0.91452 0.23394
 C1075 C 0.92104 0.89590 0.22246
 C1076 C 0.92984 0.89896 0.20057
 C1077 C 0.94005 0.88088 0.18932
 C1078 C 0.94153 0.85966 0.19992
 C1079 C 0.93280 0.85660 0.22184
 C1080 C 0.92257 0.87469 0.23309
 C1081 C 0.95164 0.84098 0.18811
 C1082 C 0.95989 0.82537 0.17797
 H1083 H 0.92874 0.91529 0.19220
 H1084 H 0.94671 0.88342 0.17235
 H1085 H 0.93381 0.84024 0.23016
 H1086 H 0.91583 0.87215 0.25002
 C1087 C 0.40156 0.42993 0.74360
 C1088 C 0.41034 0.41421 0.73409
 C1089 C 0.42092 0.39559 0.72260
 C1090 C 0.42948 0.39858 0.70061
 C1091 C 0.43970 0.38049 0.68937
 C1092 C 0.44141 0.35933 0.70007
 C1093 C 0.43290 0.35635 0.72209
 C1094 C 0.42268 0.37445 0.73334
 C1095 C 0.45156 0.34066 0.68829
 C1096 C 0.45985 0.32507 0.67817
 H1097 H 0.42822 0.41485 0.69216
 H1098 H 0.44618 0.38297 0.67233
 H1099 H 0.43409 0.34005 0.73050
 H1100 H 0.41611 0.37196 0.75034
 C1101 C 0.39980 0.56992 0.75524
 C1102 C 0.40820 0.58556 0.76465
 C1103 C 0.41842 0.60399 0.77610
 C1104 C 0.41907 0.62548 0.76598
 C1105 C 0.42910 0.64332 0.77718
 C1106 C 0.43852 0.63971 0.79851
 C1107 C 0.43786 0.61822 0.80860
 C1108 C 0.42784 0.60040 0.79742
 C1109 C 0.44867 0.65801 0.81024
 C1110 C 0.45711 0.67308 0.82049
 H1111 H 0.41184 0.62843 0.74948
 H1112 H 0.42949 0.65988 0.76924
 H1113 H 0.44506 0.61525 0.82511
 H1114 H 0.42744 0.58385 0.80539
 C1115 C -0.10065 0.07021 0.25416
 C1116 C -0.09215 0.08600 0.26324
 C1117 C -0.08180 0.10466 0.27419
 C1118 C -0.09512 0.12252 0.28236
 C1119 C -0.08506 0.14040 0.29345
 C1120 C -0.06165 0.14050 0.29639
 C1121 C -0.04833 0.12271 0.28809
 C1122 C -0.05839 0.10484 0.27701
 C1123 C -0.05139 0.15848 0.30849
 C1124 C -0.04285 0.17334 0.31897
 H1125 H -0.11324 0.12254 0.28030
 H1126 H -0.09552 0.15404 0.29987
 H1127 H -0.03023 0.12258 0.29034
 H1128 H -0.04794 0.09110 0.27078
 C1129 C 0.10058 0.42992 0.25879
 C1130 C 0.09142 0.41421 0.26804
 C1131 C 0.08036 0.39553 0.27908
 C1132 C 0.07917 0.37471 0.26830
 C1133 C 0.06848 0.35653 0.27908
 C1134 C 0.05892 0.35912 0.30068
 C1135 C 0.06005 0.37997 0.31142
 C1136 C 0.07073 0.39814 0.30064
 C1137 C 0.04844 0.34030 0.31205
 C1138 C 0.03996 0.32453 0.32186
 H1139 H 0.08654 0.37251 0.25162
 H1140 H 0.06776 0.34046 0.27066
 H1141 H 0.05278 0.38214 0.32814
 H1142 H 0.07155 0.41417 0.30911
 C1143 C 0.60121 0.92941 0.75917
 C1144 C 0.59183 0.91381 0.76838
 C1145 C 0.58052 0.89526 0.77939
 C1146 C 0.57914 0.87444 0.76864
 C1147 C 0.56825 0.85639 0.77942
 C1148 C 0.55868 0.85910 0.80099
 C1149 C 0.55998 0.87995 0.81170
 C1150 C 0.57087 0.89800 0.80092
 C1151 C 0.54806 0.84038 0.81241
 C1152 C 0.53951 0.82468 0.82228
 H1153 H 0.58654 0.87215 0.75198
 H1154 H 0.56740 0.84031 0.77103
 H1155 H 0.55271 0.88221 0.82841
 H1156 H 0.57183 0.91403 0.80938
 C1157 C 0.74717 0.60458 0.06834
 C1158 C 0.73754 0.59595 0.08424
 C1159 C 0.72577 0.58545 0.10293
 C1160 C 0.73764 0.57769 0.12186
 C1161 C 0.72614 0.56716 0.13982
 C1162 C 0.70274 0.56435 0.13889
 C1163 C 0.69089 0.57216 0.11999
 C1164 C 0.70238 0.58268 0.10205
 C1165 C 0.69081 0.55346 0.15725
 C1166 C 0.68041 0.54444 0.17242
 H1167 H 0.75575 0.57971 0.12269
 H1168 H 0.73546 0.56118 0.15437
 H1169 H 0.67280 0.57008 0.11910
 H1170 H 0.69305 0.58858 0.08747
 C1171 C 0.24631 1.10266 0.56893
 C1172 C 0.23667 1.09403 0.58482
 C1173 C 0.22490 1.08355 0.60351
 C1174 C 0.23612 1.07875 0.62371
 C1175 C 0.22462 1.06835 0.64176
 C1176 C 0.20188 1.06271 0.63964
 C1177 C 0.19067 1.06754 0.61944
 C1178 C 0.20215 1.07792 0.60142
 C1179 C 0.18991 1.05208 0.65812
 C1180 C 0.17950 1.04326 0.67340
 H1181 H 0.25372 1.08301 0.62549
 H1182 H 0.23344 1.06471 0.65731
 H1183 H 0.17308 1.06326 0.61763
 H1184 H 0.19332 1.08153 0.58586
 C1185 C 0.24353 0.90045 0.93014
 C1186 C 0.23408 0.90918 0.91433
 C1187 C 0.22269 0.91966 0.89556
 C1188 C 0.22539 0.94272 0.89095
 C1189 C 0.21405 0.95295 0.87289
 C1190 C 0.19998 0.94016 0.85937
 C1191 C 0.19734 0.91709 0.86395
 C1192 C 0.20867 0.90686 0.88200
 C1193 C 0.18802 0.95067 0.84098
 C1194 C 0.17776 0.95921 0.82559
 H1195 H 0.23617 0.95277 0.90135
 H1196 H 0.21619 0.97081 0.86951
 H1197 H 0.18647 0.90705 0.85362
 H1198 H 0.20644 0.88903 0.88544
 C1199 C 0.74410 0.40177 0.42961
 C1200 C 0.73471 0.41037 0.41370
 C1201 C 0.72340 0.42069 0.39480
 C1202 C 0.72584 0.44379 0.39023
 C1203 C 0.71459 0.45388 0.37203
 C1204 C 0.70087 0.44090 0.35834
 C1205 C 0.69850 0.41779 0.36286
 C1206 C 0.70974 0.40771 0.38106
 C1207 C 0.68899 0.45127 0.33982
 C1208 C 0.67879 0.45971 0.32434
 H1209 H 0.73635 0.45399 0.40077
 H1210 H 0.71652 0.47177 0.36870
 H1211 H 0.68791 0.40761 0.35240
 H1212 H 0.70772 0.38984 0.38445
 C1213 C 0.75535 0.40021 0.57010
 C1214 C 0.76478 0.40839 0.58586
 C1215 C 0.77624 0.41831 0.60445
 C1216 C 0.76389 0.42790 0.62231
 C1217 C 0.77512 0.43783 0.64019
 C1218 C 0.79874 0.43820 0.64026
 C1219 C 0.81107 0.42856 0.62243
 C1220 C 0.79986 0.41864 0.60457
 C1221 C 0.81041 0.44853 0.65849
 C1222 C 0.82062 0.45709 0.67354
 H1223 H 0.74562 0.42777 0.62236
 H1224 H 0.76542 0.44525 0.65389
 H1225 H 0.82934 0.42876 0.62232
 H1226 H 0.80957 0.41131 0.59083
 C1227 C 0.25507 -0.10170 0.07045
 C1228 C 0.26453 -0.09346 0.08617
 C1229 C 0.27604 -0.08345 0.10469
 C1230 C 0.29962 -0.08446 0.10551
 C1231 C 0.31090 -0.07437 0.12324
 C1232 C 0.29865 -0.06323 0.14023
 C1233 C 0.27505 -0.06229 0.13946
 C1234 C 0.26376 -0.07239 0.12171
 C1235 C 0.31041 -0.05266 0.15827
 C1236 C 0.32066 -0.04389 0.17315
 H1237 H 0.30927 -0.09293 0.09241
 H1238 H 0.32915 -0.07518 0.12367
 H1239 H 0.26542 -0.05371 0.15250
 H1240 H 0.24552 -0.07148 0.12121
 C1241 C 0.25901 0.10064 0.42893
 C1242 C 0.26822 0.09149 0.41321
 C1243 C 0.27917 0.08046 0.39448
 C1244 C 0.27968 0.09094 0.37314
 C1245 C 0.29045 0.08028 0.35497
 C1246 C 0.30073 0.05909 0.35806
 C1247 C 0.30015 0.04857 0.37938
 C1248 C 0.28937 0.05923 0.39756
 C1249 C 0.31232 0.04845 0.33948
 C1250 C 0.32229 0.03986 0.32388
 H1251 H 0.27183 0.10735 0.37057
 H1252 H 0.29086 0.08860 0.33856
 H1253 H 0.30810 0.03222 0.38198
 H1254 H 0.28907 0.05097 0.41400
 C1255 C 0.75897 0.60148 0.92952
 C1256 C 0.76813 0.59212 0.91389
 C1257 C 0.77905 0.58084 0.89530
 C1258 C 0.79480 0.56353 0.89942
 C1259 C 0.80555 0.55267 0.88136
 C1260 C 0.80056 0.55905 0.85910
 C1261 C 0.78473 0.57629 0.85498
 C1262 C 0.77398 0.58715 0.87304
 C1263 C 0.81213 0.54837 0.84052
 C1264 C 0.82211 0.53978 0.82494
 H1265 H 0.79883 0.55851 0.91657
 H1266 H 0.81782 0.53941 0.88474
 H1267 H 0.78081 0.58141 0.83783
 H1268 H 0.76182 0.60050 0.86966
 C1269 C 0.06966 0.74802 0.60442
 C1270 C 0.08567 0.73879 0.59567
 C1271 C 0.10455 0.72758 0.58501
 C1272 C 0.10821 0.73000 0.56168
 C1273 C 0.12616 0.71857 0.55118
 C1274 C 0.14052 0.70467 0.56397
 C1275 C 0.13696 0.70239 0.58733
 C1276 C 0.11902 0.71382 0.59783
 C1277 C 0.15851 0.69229 0.55309
 C1278 C 0.17342 0.68160 0.54406
 H1279 H 0.09709 0.74056 0.55160
 H1280 H 0.12872 0.72040 0.53310
 H1281 H 0.14793 0.69163 0.59737
 H1282 H 0.11631 0.71179 0.61587
 C1283 C 0.56910 0.24758 1.10207
 C1284 C 0.58506 0.23825 1.09331
 C1285 C 0.60388 0.22693 1.08266
 C1286 C 0.60354 0.22267 1.05945
 C1287 C 0.62156 0.21118 1.04915
 C1288 C 0.63998 0.20391 1.06200
 C1289 C 0.64040 0.20830 1.08518
 C1290 C 0.62237 0.21980 1.09549
 C1291 C 0.65815 0.19142 1.05153
 C1292 C 0.67320 0.18065 1.04284
 H1293 H 0.58930 0.22808 1.04939
 H1294 H 0.62104 0.20781 1.03123
 H1295 H 0.65453 0.20269 1.09528
 H1296 H 0.62278 0.22298 1.11345
 C1297 C 0.92974 0.24310 0.90080
 C1298 C 0.91391 0.23359 0.90946
 C1299 C 0.89512 0.22213 0.91987
 C1300 C 0.89098 0.22403 0.94312
 C1301 C 0.87288 0.21265 0.95328
 C1302 C 0.85887 0.19933 0.94022
 C1303 C 0.86298 0.19749 0.91696
 C1304 C 0.88107 0.20886 0.90680
 C1305 C 0.84042 0.18735 0.95066
 C1306 C 0.82498 0.17712 0.95916
 H1307 H 0.90176 0.23422 0.95338
 H1308 H 0.86987 0.21416 0.97129
 H1309 H 0.85227 0.18720 0.90672
 H1310 H 0.88414 0.20725 0.88882
 C1311 C 0.43032 0.74358 0.40166
 C1312 C 0.41440 0.73414 0.41022
 C1313 C 0.39548 0.72280 0.42051
 C1314 C 0.39130 0.72460 0.44377
 C1315 C 0.37307 0.71334 0.45382
 C1316 C 0.35896 0.70023 0.44065
 C1317 C 0.36311 0.69849 0.41739
 C1318 C 0.38133 0.70975 0.40734
 C1319 C 0.34039 0.68836 0.45097
 C1320 C 0.32486 0.67821 0.45941
 H1321 H 0.40216 0.73463 0.45412
 H1322 H 0.37003 0.71478 0.47183
 H1323 H 0.35232 0.68837 0.40705
 H1324 H 0.38443 0.70822 0.38935
 C1325 C 0.57052 0.75491 0.40096
 C1326 C 0.58618 0.76427 0.40942
 C1327 C 0.60463 0.77563 0.41969
 C1328 C 0.62673 0.76735 0.41712
 C1329 C 0.64462 0.77852 0.42710
 C1330 C 0.64045 0.79799 0.43970
 C1331 C 0.61834 0.80622 0.44230
 C1332 C 0.60047 0.79506 0.43233
 C1333 C 0.65879 0.80977 0.44970
 C1334 C 0.67391 0.82005 0.45803
 H1335 H 0.63013 0.75233 0.40738
 H1336 H 0.66166 0.77204 0.42494
 H1337 H 0.61493 0.82128 0.45197
 H1338 H 0.58345 0.80160 0.43443
 C1339 C 0.06985 0.25508 -0.10055
 C1340 C 0.08549 0.26455 -0.09220
 C1341 C 0.10392 0.27606 -0.08204
 C1342 C 0.12420 0.26456 -0.07763
 C1343 C 0.14200 0.27579 -0.06757
 C1344 C 0.13957 0.29855 -0.06188
 C1345 C 0.11930 0.31003 -0.06632
 C1346 C 0.10152 0.29882 -0.07637
 C1347 C 0.15780 0.31024 -0.05157
 C1348 C 0.17284 0.32045 -0.04301
 H1349 H 0.12623 0.24695 -0.08193
 H1350 H 0.15761 0.26676 -0.06422
 H1351 H 0.11724 0.32764 -0.06200
 H1352 H 0.08590 0.30786 -0.07968
 C1353 C 0.42923 0.25897 0.10051
 C1354 C 0.41345 0.26811 0.09142
 C1355 C 0.39465 0.27899 0.08049
 C1356 C 0.37464 0.28321 0.09264
 C1357 C 0.35643 0.29393 0.08205
 C1358 C 0.35814 0.30046 0.05927
 C1359 C 0.37812 0.29617 0.04709
 C1360 C 0.39634 0.28544 0.05768
 C1361 C 0.33956 0.31199 0.04859
 C1362 C 0.32398 0.32193 0.04000
 H1363 H 0.37316 0.27829 0.11028
 H1364 H 0.34108 0.29723 0.09164
 H1365 H 0.37964 0.30121 0.02948
 H1366 H 0.41174 0.28226 0.04813
 C1367 C 0.92999 0.75876 0.60166
 C1368 C 0.91435 0.76786 0.59230
 C1369 C 0.89577 0.77874 0.58101
 C1370 C 0.89984 0.79567 0.56477
 C1371 C 0.88179 0.80640 0.55392
 C1372 C 0.85959 0.80023 0.55926
 C1373 C 0.85552 0.78323 0.57543
 C1374 C 0.87358 0.77250 0.58627
 C1375 C 0.84099 0.81178 0.54865
 C1376 C 0.82540 0.82174 0.54009
 H1377 H 0.91694 0.80062 0.56057
 H1378 H 0.88512 0.81958 0.54151
 H1379 H 0.83842 0.77839 0.57974
 H1380 H 0.87024 0.75943 0.59880
   
