data_POSCAR
  _audit_creation_date              2014-09-24
  _audit_creation_method            'ToBaCCo'
  _symmetry_space_group_name_H-M    'P1'
  _symmetry_Int_Tables_number       1
  _symmetry_cell_setting            triclinic
  loop_
  _symmetry_equiv_pos_as_xyz
 x,y,z
_cell_length_a 73.8674
_cell_length_b 74.2225
_cell_length_c 72.7442
_cell_angle_alpha 90.762700
_cell_angle_beta 89.377900
_cell_angle_gamma 89.686500
loop_
  _atom_site_label
  _atom_site_type_symbol
  _atom_site_fract_x
  _atom_site_fract_y
  _atom_site_fract_z
C1 C 0.21229 0.19479 0.22750
 C2 C 0.19772 0.19730 0.23981
 C3 C 0.18525 0.21146 0.23745
 C4 C 0.18754 0.22316 0.22256
 C5 C 0.20204 0.22081 0.21014
 C6 C 0.21446 0.20657 0.21260
 C7 C 0.22470 0.18066 0.22985
 C8 C 0.23930 0.17811 0.21749
 C9 C 0.24136 0.18992 0.20266
 C10 C 0.22906 0.20411 0.20014
 C11 C 0.23112 0.21586 0.18533
 C12 C 0.21879 0.23009 0.18278
 C13 C 0.20428 0.23247 0.19527
 H14 H 0.19593 0.18806 0.25109
 H15 H 0.17815 0.23425 0.22077
 H16 H 0.22313 0.17177 0.24146
 H17 H 0.25240 0.18790 0.19290
 H18 H 0.24249 0.21407 0.17592
 H19 H 0.19456 0.24324 0.19327
 C20 C 0.70988 0.69796 0.71475
 C21 C 0.69556 0.70107 0.72721
 C22 C 0.68358 0.71565 0.72492
 C23 C 0.68608 0.72714 0.70989
 C24 C 0.70036 0.72419 0.69729
 C25 C 0.71231 0.70955 0.69973
 C26 C 0.72180 0.68342 0.71709
 C27 C 0.73617 0.68026 0.70460
 C28 C 0.73852 0.69188 0.68966
 C29 C 0.72669 0.70647 0.68714
 C30 C 0.72902 0.71803 0.67223
 C31 C 0.71717 0.73266 0.66967
 C32 C 0.70287 0.73565 0.68230
 H33 H 0.69358 0.69196 0.73857
 H34 H 0.67704 0.73853 0.70812
 H35 H 0.72003 0.67469 0.72879
 H36 H 0.74941 0.68942 0.67983
 H37 H 0.74024 0.71578 0.66273
 H38 H 0.69354 0.74676 0.68031
 C39 C 0.29161 0.80455 0.72189
 C40 C 0.30590 0.80179 0.73412
 C41 C 0.31771 0.78698 0.73184
 C42 C 0.31509 0.77489 0.71707
 C43 C 0.30088 0.77748 0.70473
 C44 C 0.28904 0.79232 0.70719
 C45 C 0.27987 0.81934 0.72420
 C46 C 0.26534 0.82226 0.71205
 C47 C 0.26297 0.80975 0.69742
 C48 C 0.27466 0.79494 0.69494
 C49 C 0.27227 0.78278 0.68023
 C50 C 0.28407 0.76800 0.67762
 C51 C 0.29832 0.76544 0.68998
 H52 H 0.30799 0.81134 0.74529
 H53 H 0.32398 0.76332 0.71531
 H54 H 0.28177 0.82810 0.73603
 H55 H 0.25252 0.81180 0.68734
 H56 H 0.26138 0.78495 0.67063
 H57 H 0.30732 0.75394 0.68822
 C58 C 0.79779 0.30568 0.22088
 C59 C 0.81187 0.30307 0.23338
 C60 C 0.82364 0.28800 0.23182
 C61 C 0.82082 0.27560 0.21720
 C62 C 0.80684 0.27811 0.20458
 C63 C 0.79525 0.29316 0.20643
 C64 C 0.78611 0.32059 0.22272
 C65 C 0.77197 0.32325 0.21023
 C66 C 0.76960 0.31072 0.19578
 C67 C 0.78110 0.29570 0.19382
 C68 C 0.77871 0.28321 0.17942
 C69 C 0.79030 0.26821 0.17741
 C70 C 0.80433 0.26577 0.19006
 H71 H 0.81304 0.31252 0.24475
 H72 H 0.82992 0.26429 0.21499
 H73 H 0.78789 0.33002 0.23405
 H74 H 0.75892 0.31278 0.18591
 H75 H 0.76798 0.28528 0.16961
 H76 H 0.81316 0.25410 0.18874
 C77 C 0.78996 0.68841 0.27690
 C78 C 0.80518 0.69100 0.26557
 C79 C 0.81698 0.70572 0.26840
 C80 C 0.81290 0.71784 0.28309
 C81 C 0.79763 0.71546 0.29443
 C82 C 0.78610 0.70071 0.29133
 C83 C 0.77849 0.67368 0.27393
 C84 C 0.76318 0.67107 0.28520
 C85 C 0.75931 0.68348 0.29949
 C86 C 0.77072 0.69823 0.30269
 C87 C 0.76704 0.71049 0.31711
 C88 C 0.77856 0.72519 0.32041
 C89 C 0.79383 0.72755 0.30898
 H90 H 0.80723 0.68178 0.25409
 H91 H 0.82189 0.72885 0.28635
 H92 H 0.78139 0.66428 0.26274
 H93 H 0.74761 0.68145 0.30833
 H94 H 0.75511 0.70867 0.32568
 H95 H 0.80291 0.73870 0.31156
 C96 C 0.29048 0.20692 -0.22419
 C97 C 0.30441 0.21026 -0.23697
 C98 C 0.31635 0.22494 -0.23459
 C99 C 0.31396 0.23609 -0.21881
 C100 C 0.30019 0.23283 -0.20591
 C101 C 0.28836 0.21825 -0.20860
 C102 C 0.27851 0.19250 -0.22685
 C103 C 0.26449 0.18921 -0.21408
 C104 C 0.26261 0.20052 -0.19850
 C105 C 0.27439 0.21500 -0.19570
 C106 C 0.27245 0.22627 -0.18016
 C107 C 0.28430 0.24078 -0.17731
 C108 C 0.29813 0.24395 -0.19027
 H109 H 0.30531 0.20175 -0.24915
 H110 H 0.32326 0.24697 -0.21597
 H111 H 0.27995 0.18397 -0.23899
 H112 H 0.25206 0.19792 -0.18842
 H113 H 0.26185 0.22363 -0.17015
 H114 H 0.30714 0.25528 -0.18831
 C115 C 0.70045 0.30346 -0.21443
 C116 C 0.68519 0.30102 -0.22549
 C117 C 0.67271 0.28700 -0.22213
 C118 C 0.67606 0.27549 -0.20716
 C119 C 0.69125 0.27781 -0.19599
 C120 C 0.70348 0.29184 -0.19962
 C121 C 0.71274 0.31740 -0.21798
 C122 C 0.72807 0.31983 -0.20694
 C123 C 0.73094 0.30819 -0.19215
 C124 C 0.71880 0.29423 -0.18845
 C125 C 0.72178 0.28259 -0.17378
 C126 C 0.70968 0.26851 -0.17006
 C127 C 0.69445 0.26621 -0.18126
 H128 H 0.68284 0.31065 -0.23625
 H129 H 0.66736 0.26412 -0.20449
 H130 H 0.71052 0.32619 -0.22954
 H131 H 0.74254 0.31012 -0.18335
 H132 H 0.73372 0.28430 -0.16541
 H133 H 0.68494 0.25551 -0.17836
 C134 C 0.20324 0.80706 0.27351
 C135 C 0.18789 0.80440 0.26263
 C136 C 0.17609 0.78998 0.26597
 C137 C 0.17980 0.77815 0.28041
 C138 C 0.19509 0.78064 0.29140
 C139 C 0.20690 0.79511 0.28789
 C140 C 0.21501 0.82141 0.27008
 C141 C 0.23063 0.82420 0.28082
 C142 C 0.23405 0.81202 0.29520
 C143 C 0.22237 0.79762 0.29876
 C144 C 0.22586 0.78575 0.31317
 C145 C 0.21414 0.77134 0.31683
 C146 C 0.19877 0.76888 0.30584
 H147 H 0.18525 0.81343 0.25137
 H148 H 0.17065 0.76713 0.28322
 H149 H 0.21222 0.82989 0.25845
 H150 H 0.24541 0.81402 0.30426
 H151 H 0.23761 0.78787 0.32172
 H152 H 0.18979 0.75766 0.30840
 C153 C 0.44235 0.45655 0.47539
 C154 C 0.44511 0.44170 0.48676
 C155 C 0.45956 0.42964 0.48336
 C156 C 0.47133 0.43264 0.46838
 C157 C 0.46874 0.44744 0.45688
 C158 C 0.45420 0.45945 0.46039
 C159 C 0.42791 0.46854 0.47876
 C160 C 0.42506 0.48336 0.46728
 C161 C 0.43694 0.48616 0.45237
 C162 C 0.45149 0.47434 0.44887
 C163 C 0.46334 0.47718 0.43403
 C164 C 0.47790 0.46530 0.43045
 C165 C 0.48047 0.45042 0.44193
 H166 H 0.43612 0.43963 0.49841
 H167 H 0.48236 0.42329 0.46551
 H168 H 0.41868 0.46617 0.49016
 H169 H 0.43498 0.49769 0.44360
 H170 H 0.46110 0.48852 0.42508
 H171 H 0.49176 0.44131 0.43938
 C172 C -0.04845 -0.04604 0.97762
 C173 C -0.04692 -0.06148 0.98843
 C174 C -0.03295 -0.07409 0.98513
 C175 C -0.02048 -0.07114 0.97076
 C176 C -0.02192 -0.05582 0.95975
 C177 C -0.03595 -0.04320 0.96322
 C178 C -0.06237 -0.03348 0.98101
 C179 C -0.06415 -0.01781 0.97027
 C180 C -0.05143 -0.01524 0.95586
 C181 C -0.03747 -0.02776 0.95229
 C182 C -0.02498 -0.02504 0.93792
 C183 C -0.01103 -0.03760 0.93427
 C184 C -0.00958 -0.05294 0.94532
 H185 H -0.05643 -0.06354 0.99964
 H186 H -0.00979 -0.08090 0.96798
 H187 H -0.07221 -0.03650 0.99164
 H188 H -0.05175 -0.00316 0.94771
 H189 H -0.02631 -0.01329 0.92934
 H190 H 0.00128 -0.06257 0.94279
 C191 C 1.04623 0.53724 0.97583
 C192 C 1.04215 0.55145 0.98813
 C193 C 1.02723 0.56310 0.98531
 C194 C 1.01633 0.55982 0.96975
 C195 C 1.02017 0.54555 0.95746
 C196 C 1.03521 0.53426 0.96047
 C197 C 1.06113 0.52587 0.97883
 C198 C 1.06539 0.51141 0.96663
 C199 C 1.05415 0.50873 0.95122
 C200 C 1.03922 0.51999 0.94810
 C201 C 1.02826 0.51721 0.93269
 C202 C 1.01321 0.52837 0.92962
 C203 C 1.00924 0.54251 0.94208
 H204 H 1.05041 0.55286 1.00025
 H205 H 1.00520 0.56873 0.96654
 H206 H 1.06891 0.52801 0.99118
 H207 H 1.05729 0.49835 0.94108
 H208 H 1.03126 0.50615 0.92323
 H209 H 0.99775 0.55128 0.93965
 C210 C 0.55766 0.04509 0.47492
 C211 C 0.55544 0.05966 0.48727
 C212 C 0.54048 0.07138 0.48597
 C213 C 0.52770 0.06835 0.47209
 C214 C 0.52977 0.05390 0.45964
 C215 C 0.54477 0.04219 0.46108
 C216 C 0.57253 0.03336 0.47630
 C217 C 0.57484 0.01851 0.46406
 C218 C 0.56174 0.01592 0.45023
 C219 C 0.54686 0.02758 0.44868
 C220 C 0.53407 0.02488 0.43481
 C221 C 0.51912 0.03655 0.43320
 C222 C 0.51706 0.05101 0.44574
 H223 H 0.56549 0.06202 0.49776
 H224 H 0.51596 0.07710 0.47113
 H225 H 0.58181 0.03551 0.48751
 H226 H 0.56335 0.00526 0.44004
 H227 H 0.53562 0.01353 0.42537
 H228 H 0.50572 0.06022 0.44448
 C229 C -0.04688 0.04291 0.52651
 C230 C -0.04456 0.05685 0.51390
 C231 C -0.03028 0.06917 0.51580
 C232 C -0.01821 0.06732 0.53048
 C233 C -0.02040 0.05348 0.54325
 C234 C -0.03483 0.04125 0.54131
 C235 C -0.06112 0.03064 0.52459
 C236 C -0.06354 0.01671 0.53729
 C237 C -0.05157 0.01523 0.55210
 C238 C -0.03721 0.02738 0.55417
 C239 C -0.02518 0.02585 0.56887
 C240 C -0.01067 0.03791 0.57086
 C241 C -0.00838 0.05166 0.55791
 H242 H -0.05406 0.05829 0.50276
 H243 H -0.00701 0.07659 0.53190
 H244 H -0.07046 0.03203 0.51330
 H245 H -0.05324 0.00443 0.56185
 H246 H -0.02727 0.01537 0.57890
 H247 H 0.00290 0.06086 0.55910
 C248 C 0.44559 0.54860 0.02234
 C249 C 0.44895 0.56213 0.00948
 C250 C 0.46422 0.57347 0.01095
 C251 C 0.47614 0.57067 0.02576
 C252 C 0.47294 0.55715 0.03868
 C253 C 0.45759 0.54610 0.03700
 C254 C 0.43029 0.53757 0.02077
 C255 C 0.42683 0.52403 0.03366
 C256 C 0.43889 0.52164 0.04826
 C257 C 0.45424 0.53254 0.04999
 C258 C 0.46628 0.53010 0.06453
 C259 C 0.48175 0.54093 0.06624
 C260 C 0.48496 0.55443 0.05322
 H261 H 0.43907 0.56420 -0.00116
 H262 H 0.48840 0.57849 0.02702
 H263 H 0.42120 0.53935 0.00933
 H264 H 0.43622 0.51140 0.05842
 H265 H 0.46349 0.51985 0.07464
 H266 H 0.49696 0.56271 0.05426
 C267 C 0.55627 -0.04661 0.02414
 C268 C 0.55420 -0.06067 0.01126
 C269 C 0.53958 -0.07265 0.01265
 C270 C 0.52697 -0.07043 0.02714
 C271 C 0.52885 -0.05645 0.04011
 C272 C 0.54355 -0.04448 0.03862
 C273 C 0.57081 -0.03461 0.02272
 C274 C 0.57286 -0.02049 0.03561
 C275 C 0.56014 -0.01851 0.05004
 C276 C 0.54552 -0.03038 0.05162
 C277 C 0.53284 -0.02835 0.06599
 C278 C 0.51816 -0.04025 0.06760
 C279 C 0.51629 -0.05428 0.05458
 H280 H 0.56386 -0.06215 0.00000
 H281 H 0.51580 -0.07976 0.02845
 H282 H 0.58041 -0.03611 0.01142
 H283 H 0.56175 -0.00785 0.06021
 H284 H 0.53426 -0.01735 0.07581
 H285 H 0.50517 -0.06366 0.05584
 C286 C 1.05519 0.45541 0.52896
 C287 C 1.05297 0.44077 0.51680
 C288 C 1.03950 0.42762 0.51988
 C289 C 1.02826 0.42971 0.53565
 C290 C 1.03024 0.44437 0.54782
 C291 C 1.04376 0.45725 0.54450
 C292 C 1.06862 0.46833 0.52572
 C293 C 1.07085 0.48303 0.53787
 C294 C 1.05937 0.48475 0.55335
 C295 C 1.04585 0.47199 0.55673
 C296 C 1.03437 0.47377 0.57213
 C297 C 1.02080 0.46099 0.57553
 C298 C 1.01889 0.44628 0.56333
 H299 H 1.06142 0.44022 0.50457
 H300 H 1.01829 0.41964 0.53909
 H301 H 1.07725 0.46704 0.51362
 H302 H 1.06113 0.49589 0.56294
 H303 H 1.03580 0.48528 0.58131
 H304 H 1.00864 0.43622 0.56600
 C305 C 0.40566 0.00684 0.22809
 H306 H 0.40631 0.01870 0.23687
 C307 C 0.41768 0.00484 0.21327
 H308 H 0.42740 0.01536 0.21055
 C309 C 0.39219 -0.02130 0.22110
 H310 H 0.38251 -0.03163 0.22442
 C311 C 0.40392 -0.02383 0.20609
 H312 H 0.40311 -0.03613 0.19798
 N313 N 0.39317 -0.00607 0.23166
 C314 C 0.35001 0.02084 0.26303
 H315 H 0.34943 0.01236 0.27500
 C316 C 0.33789 0.03522 0.26142
 H317 H 0.32814 0.03788 0.27236
 C318 C 0.36352 0.02764 0.23427
 H319 H 0.37329 0.02445 0.22356
 C320 C 0.35170 0.04219 0.23213
 H321 H 0.35253 0.05007 0.21973
 Zn322 Zn 0.37817 -0.00261 0.25267
 N323 N 0.36260 0.01743 0.24964
 C324 C 0.39235 0.01626 0.28364
 N325 N 0.39366 0.00118 0.27287
 C326 C 0.40671 -0.01144 0.27570
 C327 C 0.41894 -0.00932 0.29004
 C328 C 0.40428 0.01890 0.29819
 C329 C 0.35077 -0.02708 0.24384
 C330 C 0.33927 -0.04174 0.24629
 C331 C 0.35382 -0.04756 0.27522
 C332 C 0.36504 -0.03279 0.27221
 N333 N 0.36346 -0.02301 0.25663
 H334 H 0.38218 0.02635 0.28091
 H335 H 0.40757 -0.02319 0.26677
 H336 H 0.42907 -0.01965 0.29222
 H337 H 0.40316 0.03106 0.30652
 H338 H 0.34963 -0.01891 0.23170
 H339 H 0.32945 -0.04493 0.23582
 H340 H 0.35515 -0.05504 0.28782
 H341 H 0.37485 -0.02907 0.28246
 C342 C 0.33868 0.04614 0.24582
 C343 C 0.41692 -0.01068 0.20205
 C344 C 0.34074 -0.05222 0.26215
 C345 C 0.41781 0.00601 0.30152
 C346 C 0.10242 -0.00539 0.72843
 H347 H 0.10266 -0.01742 0.73666
 C348 C 0.09033 -0.00403 0.71389
 H349 H 0.08155 -0.01529 0.71084
 C350 C 0.11386 0.02372 0.72241
 H351 H 0.12283 0.03463 0.72597
 C352 C 0.10187 0.02572 0.70784
 H353 H 0.10176 0.03824 0.70039
 N354 N 0.11405 0.00826 0.73223
 C355 C 0.15789 -0.01809 0.76156
 H356 H 0.15838 -0.00965 0.77379
 C357 C 0.16991 -0.03257 0.75943
 H358 H 0.17945 -0.03534 0.77023
 C359 C 0.14468 -0.02473 0.73274
 H360 H 0.13510 -0.02143 0.72218
 C361 C 0.15646 -0.03933 0.73003
 H362 H 0.15575 -0.04713 0.71738
 Zn363 Zn 0.12977 0.00543 0.75239
 N364 N 0.14542 -0.01461 0.74844
 C365 C 0.11628 -0.01322 0.78358
 N366 N 0.11503 0.00205 0.77352
 C367 C 0.10250 0.01500 0.77772
 C368 C 0.09081 0.01302 0.79277
 C369 C 0.10484 -0.01576 0.79873
 C370 C 0.15661 0.02946 0.74146
 C371 C 0.16834 0.04409 0.74281
 C372 C 0.15531 0.05125 0.77265
 C373 C 0.14387 0.03643 0.77074
 N374 N 0.14460 0.02599 0.75524
 H375 H 0.12599 -0.02357 0.77980
 H376 H 0.10154 0.02683 0.76926
 H377 H 0.08080 0.02339 0.79574
 H378 H 0.10619 -0.02791 0.80668
 H379 H 0.15705 0.02080 0.72937
 H380 H 0.17763 0.04676 0.73157
 H381 H 0.15466 0.05930 0.78516
 H382 H 0.13457 0.03320 0.78176
 C383 C 0.16924 -0.04347 0.74352
 C384 C 0.08993 0.01169 0.70334
 C385 C 0.16777 0.05523 0.75857
 C386 C 0.09188 -0.00253 0.80350
 C387 C 0.59263 0.48586 0.22148
 H388 H 0.59293 0.47311 0.22851
 C389 C 0.58066 0.48844 0.20702
 H390 H 0.57201 0.47744 0.20280
 C391 C 0.60375 0.51556 0.21844
 H392 H 0.61248 0.52623 0.22315
 C393 C 0.59192 0.51875 0.20397
 H394 H 0.59175 0.53190 0.19773
 N395 N 0.60407 0.49922 0.22670
 C396 C 0.64848 0.47112 0.25353
 H397 H 0.64903 0.47876 0.26628
 C398 C 0.66053 0.45683 0.25034
 H399 H 0.67020 0.45341 0.26083
 C400 C 0.63495 0.46621 0.22452
 H401 H 0.62519 0.47007 0.21435
 C402 C 0.64670 0.45178 0.22079
 H403 H 0.64580 0.44465 0.20775
 Zn404 Zn 0.61977 0.49468 0.24658
 N405 N 0.63581 0.47534 0.24083
 C406 C 0.60678 0.47300 0.27590
 N407 N 0.60503 0.48899 0.26714
 C408 C 0.59224 0.50128 0.27247
 C409 C 0.58087 0.49792 0.28748
 C410 C 0.59567 0.46908 0.29097
 C411 C 0.64555 0.52105 0.23850
 C412 C 0.65644 0.53608 0.24163
 C413 C 0.64406 0.53835 0.27245
 C414 C 0.63332 0.52336 0.26868
 N415 N 0.63407 0.51518 0.25184
 H416 H 0.61674 0.46323 0.27123
 H417 H 0.59094 0.51374 0.26505
 H418 H 0.57071 0.50785 0.29144
 H419 H 0.59750 0.45643 0.29797
 H420 H 0.64607 0.51414 0.22531
 H421 H 0.66512 0.54079 0.23063
 H422 H 0.64340 0.54451 0.28601
 H423 H 0.62453 0.51818 0.27931
 C424 C 0.65961 0.44684 0.23385
 C425 C 0.58023 0.50505 0.19799
 C426 C 0.65576 0.54499 0.25880
 C427 C 0.58255 0.48167 0.29700
 C428 C 0.89687 0.50431 0.72616
 H429 H 0.89785 0.51647 0.73446
 C430 C 0.90887 0.50138 0.71145
 H431 H 0.91893 0.51148 0.70835
 C432 C 0.88238 0.47649 0.72008
 H433 H 0.87224 0.46668 0.72366
 C434 C 0.89406 0.47304 0.70522
 H435 H 0.89276 0.46055 0.69749
 N436 N 0.88382 0.49204 0.73005
 C437 C 0.84085 0.52207 0.75843
 H438 H 0.83961 0.51428 0.77085
 C439 C 0.82931 0.53671 0.75565
 H440 H 0.81935 0.54027 0.76613
 C441 C 0.85542 0.52684 0.72974
 H442 H 0.86536 0.52274 0.71951
 C443 C 0.84418 0.54161 0.72641
 H444 H 0.84563 0.54875 0.71360
 Zn445 Zn 0.86820 0.49706 0.75028
 N446 N 0.85367 0.51752 0.74563
 C447 C 0.88227 0.51734 0.78019
 N448 N 0.88288 0.50123 0.77106
 C449 C 0.89453 0.48798 0.77609
 C450 C 0.90577 0.49044 0.79122
 C451 C 0.89336 0.52042 0.79532
 C452 C 0.83988 0.47398 0.74106
 C453 C 0.82753 0.45998 0.74323
 C454 C 0.84071 0.45372 0.77273
 C455 C 0.85274 0.46791 0.77005
 N456 N 0.85228 0.47755 0.75428
 H457 H 0.87334 0.52792 0.77567
 H458 H 0.89497 0.47542 0.76838
 H459 H 0.91459 0.47952 0.79525
 H460 H 0.89282 0.53343 0.80223
 H461 H 0.83964 0.48204 0.72878
 H462 H 0.81794 0.45716 0.73242
 H463 H 0.84120 0.44624 0.78540
 H464 H 0.86231 0.47126 0.78065
 C465 C 0.83091 0.54670 0.73946
 C466 C 0.90748 0.48561 0.70070
 C467 C 0.82792 0.44958 0.75920
 C468 C 0.90526 0.50684 0.80111
 C469 C 0.22550 0.40784 0.01865
 H470 H 0.23391 0.40874 0.03071
 C471 C 0.21087 0.41964 0.01671
 H472 H 0.20795 0.42945 0.02750
 C473 C 0.21907 0.39379 -0.00997
 H474 H 0.22248 0.38392 -0.02050
 C475 C 0.20435 0.40532 -0.01247
 H476 H 0.19658 0.40417 -0.02497
 N477 N 0.22916 0.39507 0.00553
 C478 C 0.25822 0.35206 0.03313
 H479 H 0.26997 0.35077 0.02419
 C480 C 0.25615 0.34055 0.04801
 H481 H 0.26653 0.33057 0.05060
 C482 C 0.23046 0.36672 0.04055
 H483 H 0.22030 0.37669 0.03741
 C484 C 0.22788 0.35552 0.05562
 H485 H 0.21571 0.35703 0.06394
 Zn486 Zn 0.24925 0.37957 0.00897
 N487 N 0.24556 0.36494 0.02979
 C488 C 0.28036 0.39287 0.02730
 N489 N 0.26995 0.39420 0.01206
 C490 C 0.27373 0.40644 -0.00116
 C491 C 0.28876 0.41766 0.00042
 C492 C 0.29555 0.40379 0.02941
 C493 C 0.23911 0.35153 -0.01464
 C494 C 0.24053 0.33944 -0.02945
 C495 C 0.26928 0.35272 -0.03751
 C496 C 0.26731 0.36456 -0.02253
 N497 N 0.25229 0.36390 -0.01159
 H498 H 0.27689 0.38342 0.03791
 H499 H 0.26508 0.40738 -0.01303
 H500 H 0.29173 0.42708 -0.01043
 H501 H 0.30362 0.40259 0.04168
 H502 H 0.22746 0.35109 -0.00551
 H503 H 0.22995 0.32961 -0.03154
 H504 H 0.28118 0.35369 -0.04626
 H505 H 0.27781 0.37423 -0.01968
 C506 C 0.24083 0.34223 0.05952
 C507 C 0.20001 0.41841 0.00102
 C508 C 0.25575 0.33998 -0.04118
 C509 C 0.29995 0.41634 0.01583
 C510 C 0.73088 0.08959 -0.00734
 H511 H 0.73918 0.08917 -0.01969
 C512 C 0.71716 0.07695 -0.00492
 H513 H 0.71484 0.06694 -0.01558
 C514 C 0.72370 0.10341 0.02139
 H515 H 0.72642 0.11359 0.03172
 C516 C 0.70979 0.09108 0.02435
 H517 H 0.70193 0.09190 0.03699
 N518 N 0.73371 0.10263 0.00559
 C519 C 0.75759 0.14753 -0.02374
 H520 H 0.76985 0.14945 -0.01596
 C521 C 0.75351 0.15912 -0.03809
 H522 H 0.76283 0.16982 -0.04145
 C523 C 0.73054 0.13124 -0.02870
 H524 H 0.72142 0.12061 -0.02476
 C525 C 0.72596 0.14247 -0.04319
 H526 H 0.71332 0.14033 -0.05029
 Zn527 Zn 0.75233 0.11941 0.00087
 N528 N 0.74621 0.13386 -0.01940
 C529 C 0.78241 0.10749 -0.02077
 N530 N 0.77380 0.10613 -0.00423
 C531 C 0.77975 0.09453 0.00872
 C532 C 0.79519 0.08398 0.00543
 C533 C 0.79783 0.09710 -0.02469
 C534 C 0.74148 0.14665 0.02549
 C535 C 0.74298 0.15906 0.03997
 C536 C 0.77321 0.14791 0.04537
 C537 C 0.77114 0.13571 0.03076
 N538 N 0.75538 0.13519 0.02127
 H539 H 0.77726 0.11647 -0.03106
 H540 H 0.77242 0.09343 0.02161
 H541 H 0.79965 0.07472 0.01585
 H542 H 0.80459 0.09845 -0.03788
 H543 H 0.72924 0.14620 0.01747
 H544 H 0.73183 0.16822 0.04292
 H545 H 0.78577 0.14794 0.05292
 H546 H 0.78220 0.12680 0.02697
 C547 C 0.73749 0.15666 -0.04802
 C548 C 0.70630 0.07770 0.01104
 C549 C 0.75901 0.15981 0.05015
 C550 C 0.80441 0.08516 -0.01149
 C551 C 0.22318 0.59795 0.48589
 H552 H 0.23163 0.59745 0.47365
 C553 C 0.20937 0.58539 0.48818
 H554 H 0.20712 0.57537 0.47751
 C555 C 0.21586 0.61174 0.51460
 H556 H 0.21862 0.62183 0.52501
 C557 C 0.20187 0.59948 0.51743
 H558 H 0.19398 0.60027 0.53006
 N559 N 0.22605 0.61089 0.49892
 C560 C 0.25219 0.65526 0.47052
 H561 H 0.26422 0.65687 0.47872
 C562 C 0.24895 0.66687 0.45596
 H563 H 0.25853 0.67748 0.45309
 C564 C 0.22479 0.63982 0.46479
 H565 H 0.21529 0.62941 0.46840
 C566 C 0.22101 0.65112 0.45012
 H567 H 0.20877 0.64902 0.44236
 Zn568 Zn 0.24533 0.62708 0.49482
 N569 N 0.24027 0.64195 0.47453
 C570 C 0.27621 0.61483 0.47442
 N571 N 0.26640 0.61303 0.49021
 C572 C 0.27084 0.60043 0.50282
 C573 C 0.28581 0.58915 0.49989
 C574 C 0.29131 0.60386 0.47095
 C575 C 0.23505 0.65444 0.51963
 C576 C 0.23668 0.66635 0.53452
 C577 C 0.26608 0.65347 0.54062
 C578 C 0.26390 0.64181 0.52559
 N579 N 0.24848 0.64238 0.51556
 H580 H 0.27229 0.62466 0.46439
 H581 H 0.26260 0.59906 0.51510
 H582 H 0.28893 0.57903 0.50998
 H583 H 0.29907 0.60567 0.45841
 H584 H 0.22307 0.65482 0.51121
 H585 H 0.22592 0.67597 0.53740
 H586 H 0.27833 0.65261 0.54862
 H587 H 0.27456 0.63238 0.52195
 C588 C 0.23318 0.66486 0.44552
 C589 C 0.19846 0.58609 0.50411
 C590 C 0.25235 0.66594 0.54529
 C591 C 0.29627 0.59076 0.48376
 C592 C 0.73366 0.90879 0.50512
 H593 H 0.74228 0.90929 0.51705
 C594 C 0.71955 0.92122 0.50343
 H595 H 0.71724 0.93111 0.51429
 C596 C 0.72619 0.89507 0.47662
 H597 H 0.72898 0.88504 0.46606
 C598 C 0.71192 0.90725 0.47437
 H599 H 0.70387 0.90644 0.46204
 N600 N 0.73656 0.89591 0.49193
 C601 C 0.76376 0.85183 0.51970
 H602 H 0.77566 0.85016 0.51104
 C603 C 0.76101 0.84047 0.53461
 H604 H 0.77100 0.83019 0.53749
 C605 C 0.73632 0.86737 0.52646
 H606 H 0.72655 0.87763 0.52306
 C607 C 0.73307 0.85636 0.54153
 H608 H 0.72079 0.85830 0.54959
 Zn609 Zn 0.75610 0.87974 0.49538
 N610 N 0.75159 0.86509 0.51604
 C611 C 0.78717 0.89228 0.51444
 N612 N 0.77708 0.89383 0.49900
 C613 C 0.78120 0.90617 0.48598
 C614 C 0.79616 0.91739 0.48806
 C615 C 0.80227 0.90322 0.51707
 C616 C 0.74570 0.85224 0.47105
 C617 C 0.74736 0.84015 0.45624
 C618 C 0.77668 0.85276 0.44927
 C619 C 0.77449 0.86458 0.46424
 N620 N 0.75910 0.86423 0.47466
 H621 H 0.78349 0.88266 0.52481
 H622 H 0.77273 0.90736 0.47401
 H623 H 0.79905 0.92728 0.47764
 H624 H 0.81027 0.90162 0.52933
 H625 H 0.73371 0.85209 0.47971
 H626 H 0.73644 0.83087 0.45344
 H627 H 0.78910 0.85311 0.44125
 H628 H 0.78519 0.87387 0.46759
 C629 C 0.74552 0.84272 0.54580
 C630 C 0.70840 0.92050 0.48793
 C631 C 0.76300 0.84033 0.44510
 C632 C 0.80695 0.91599 0.50378
 C633 C 0.00992 0.22699 0.40408
 H634 H 0.02146 0.23587 0.40473
 C635 C 0.00841 0.21275 0.41633
 H636 H 0.01900 0.21062 0.42625
 C637 C -0.01784 0.21900 0.39020
 H638 H -0.02819 0.22165 0.38021
 C639 C -0.01986 0.20456 0.40216
 H640 H -0.03181 0.19623 0.40124
 N641 N -0.00301 0.22974 0.39123
 C642 C 0.02399 0.25859 0.34705
 H643 H 0.01526 0.27029 0.34615
 C644 C 0.03869 0.25654 0.33496
 H645 H 0.04134 0.26686 0.32492
 C646 C 0.03112 0.23098 0.36134
 H647 H 0.02794 0.22088 0.37141
 C648 C 0.04600 0.22841 0.34958
 H649 H 0.05414 0.21631 0.35074
 Zn650 Zn 0.00011 0.24961 0.37550
 N651 N 0.02058 0.24598 0.36001
 C652 C 0.01876 0.28005 0.38974
 N653 N 0.00327 0.27025 0.39067
 C654 C -0.01000 0.27440 0.40314
 C655 C -0.00820 0.28921 0.41500
 C656 C 0.02119 0.29488 0.40144
 C657 C -0.02343 0.23922 0.34749
 C658 C -0.03787 0.24073 0.33537
 C659 C -0.04529 0.26964 0.34921
 C660 C -0.03068 0.26759 0.36104
 N661 N -0.02021 0.25246 0.36011
 H662 H 0.02935 0.27630 0.38005
 H663 H -0.02201 0.26614 0.40386
 H664 H -0.01887 0.29226 0.42490
 H665 H 0.03353 0.30262 0.40041
 H666 H -0.01466 0.22750 0.34679
 H667 H -0.04004 0.23013 0.32528
 H668 H -0.05362 0.28165 0.35038
 H669 H -0.02769 0.27817 0.37085
 C670 C 0.04995 0.24130 0.33618
 C671 C -0.00662 0.20128 0.41544
 C672 C -0.04905 0.25610 0.33614
 C673 C 0.00757 0.29965 0.41424
 C674 C -0.01120 0.72038 0.09939
 H675 H -0.02366 0.72801 0.09841
 C676 C -0.00822 0.70537 0.08796
 H677 H -0.01844 0.70151 0.07813
 C678 C 0.01753 0.71650 0.11304
 H679 H 0.02765 0.72103 0.12262
 C680 C 0.02113 0.70152 0.10176
 H681 H 0.03390 0.69443 0.10305
 N682 N 0.00151 0.72550 0.11177
 C683 C -0.02914 0.75712 0.15265
 H684 H -0.02143 0.76947 0.15270
 C685 C -0.04407 0.75540 0.16442
 H686 H -0.04779 0.76649 0.17354
 C687 C -0.03318 0.72739 0.14120
 H688 H -0.02871 0.71638 0.13239
 C689 C -0.04810 0.72503 0.15286
 H690 H -0.05520 0.71231 0.15262
 Zn691 Zn -0.00316 0.74636 0.12637
 N692 N -0.02413 0.74331 0.14119
 C693 C -0.02126 0.77614 0.11002
 N694 N -0.00595 0.76586 0.11010
 C695 C 0.00787 0.76886 0.09805
 C696 C 0.00686 0.78298 0.08562
 C697 C -0.02283 0.79043 0.09783
 C698 C 0.01949 0.73802 0.15551
 C699 C 0.03364 0.74022 0.16788
 C700 C 0.04075 0.76857 0.15362
 C701 C 0.02646 0.76582 0.14151
 N702 N 0.01633 0.75060 0.14250
 H703 H -0.03229 0.77330 0.11938
 H704 H 0.01974 0.76025 0.09817
 H705 H 0.01800 0.78506 0.07609
 H706 H -0.03495 0.79870 0.09825
 H707 H 0.01102 0.72620 0.15619
 H708 H 0.03587 0.73008 0.17818
 H709 H 0.04889 0.78059 0.15237
 H710 H 0.02350 0.77585 0.13134
 C711 C -0.05372 0.73916 0.16465
 C712 C 0.00815 0.69576 0.08905
 C713 C 0.04456 0.75562 0.16698
 C714 C -0.00859 0.79408 0.08548
 C715 C 0.49388 0.21986 0.60997
 H716 H 0.48214 0.21947 0.61891
 C717 C 0.49727 0.20557 0.59771
 H718 H 0.48802 0.19431 0.59739
 C719 C 0.51961 0.23539 0.59881
 H720 H 0.52819 0.24715 0.59931
 C721 C 0.52355 0.22137 0.58641
 H722 H 0.53539 0.22235 0.57759
 N723 N 0.50515 0.23429 0.61046
 C724 C 0.46511 0.26103 0.64044
 H725 H 0.46523 0.27245 0.63141
 C726 C 0.44983 0.25780 0.65136
 H727 H 0.43818 0.26664 0.65034
 C728 C 0.48011 0.23574 0.65288
 H729 H 0.49208 0.22730 0.65347
 C730 C 0.46511 0.23198 0.66398
 H731 H 0.46568 0.22068 0.67322
 Zn732 Zn 0.50075 0.25401 0.62671
 N733 N 0.47978 0.24991 0.64123
 C734 C 0.48462 0.27415 0.59905
 N735 N 0.49773 0.27468 0.61202
 C736 C 0.50881 0.28917 0.61377
 C737 C 0.50663 0.30407 0.60246
 C738 C 0.48197 0.28875 0.58745
 C739 C 0.53495 0.24570 0.64215
 C740 C 0.54949 0.24823 0.65399
 C741 C 0.53367 0.27369 0.66772
 C742 C 0.51940 0.27063 0.65566
 N743 N 0.52043 0.25705 0.64295
 H744 H 0.47625 0.26230 0.59769
 H745 H 0.51945 0.28920 0.62381
 H746 H 0.51540 0.31558 0.60427
 H747 H 0.47157 0.28797 0.57710
 H748 H 0.53529 0.23460 0.63241
 H749 H 0.56088 0.23901 0.65317
 H750 H 0.53280 0.28492 0.67735
 H751 H 0.50756 0.27927 0.65620
 C752 C 0.44967 0.24306 0.66327
 C753 C 0.51234 0.20615 0.58578
 C754 C 0.54907 0.26250 0.66687
 C755 C 0.49305 0.30400 0.58908
 C756 C 0.51199 0.72615 0.89522
 H757 H 0.52369 0.73486 0.89542
 C758 C 0.51076 0.71190 0.90750
 H759 H 0.52174 0.70955 0.91692
 C760 C 0.48350 0.71873 0.88262
 H761 H 0.47274 0.72166 0.87316
 C762 C 0.48170 0.70434 0.89467
 H763 H 0.46950 0.69634 0.89433
 N764 N 0.49855 0.72921 0.88301
 C765 C 0.52353 0.75916 0.83830
 H766 H 0.51439 0.77058 0.83779
 C767 C 0.53792 0.75769 0.82575
 H768 H 0.53991 0.76818 0.81573
 C769 C 0.53203 0.73169 0.85211
 H770 H 0.52951 0.72142 0.86218
 C771 C 0.54663 0.72972 0.83988
 H772 H 0.55523 0.71790 0.84069
 Zn773 Zn 0.50094 0.74935 0.86749
 N774 N 0.52097 0.74637 0.85126
 C775 C 0.51902 0.78044 0.88116
 N776 N 0.50416 0.76983 0.88287
 C777 C 0.49148 0.77308 0.89620
 C778 C 0.49327 0.78771 0.90828
 C779 C 0.52136 0.79523 0.89296
 C780 C 0.47664 0.73909 0.84011
 C781 C 0.46188 0.74071 0.82841
 C782 C 0.45457 0.76930 0.84301
 C783 C 0.46951 0.76715 0.85440
 N784 N 0.48011 0.75215 0.85285
 H785 H 0.52915 0.77745 0.87074
 H786 H 0.47997 0.76421 0.89747
 H787 H 0.48311 0.78995 0.91892
 H788 H 0.53314 0.80367 0.89122
 H789 H 0.48544 0.72741 0.83901
 H790 H 0.45923 0.73007 0.81849
 H791 H 0.44644 0.78145 0.84427
 H792 H 0.47273 0.77762 0.86426
 C793 C 0.54974 0.74285 0.82650
 C794 C 0.49544 0.70077 0.90734
 C795 C 0.45062 0.75599 0.82977
 C796 C 0.50837 0.79904 0.90674
 C797 C 0.17218 0.21177 0.26948
 C798 C 0.15762 0.21412 0.28173
 C799 C 0.14043 0.21894 0.27533
 C800 C 0.13798 0.22097 0.25631
 C801 C 0.15253 0.21857 0.24406
 C802 C 0.16980 0.21400 0.25050
 C803 C 0.12536 0.22113 0.28883
 C804 C 0.11075 0.23150 0.28591
 C805 C 0.09550 0.23377 0.29923
 C806 C 0.07897 0.24053 0.29282
 C807 C 0.06420 0.24298 0.30478
 C808 C 0.06565 0.23879 0.32348
 C809 C 0.08224 0.23223 0.32998
 C810 C 0.09703 0.22981 0.31804
 H811 H 0.18535 0.20841 0.27490
 H812 H 0.15984 0.21236 0.29629
 H813 H 0.12482 0.22399 0.25073
 H814 H 0.15017 0.21996 0.22948
 H815 H 0.12671 0.21408 0.30165
 H816 H 0.10966 0.23862 0.27308
 H817 H 0.07742 0.24379 0.27845
 H818 H 0.05156 0.24792 0.29932
 H819 H 0.08387 0.22924 0.34440
 H820 H 0.10963 0.22519 0.32377
 C821 C 0.67108 0.71641 0.75715
 C822 C 0.65674 0.71881 0.76962
 C823 C 0.63949 0.72380 0.76354
 C824 C 0.63681 0.72616 0.74459
 C825 C 0.65116 0.72371 0.73209
 C826 C 0.66845 0.71875 0.73822
 C827 C 0.62461 0.72563 0.77730
 C828 C 0.60969 0.73567 0.77477
 C829 C 0.59467 0.73736 0.78844
 C830 C 0.57773 0.74348 0.78247
 C831 C 0.56316 0.74528 0.79478
 C832 C 0.56522 0.74105 0.81341
 C833 C 0.58221 0.73517 0.81948
 C834 C 0.59681 0.73343 0.80719
 H835 H 0.68428 0.71280 0.76234
 H836 H 0.65916 0.71684 0.78412
 H837 H 0.62360 0.72939 0.73925
 H838 H 0.64862 0.72524 0.71756
 H839 H 0.62631 0.71846 0.79001
 H840 H 0.60813 0.74286 0.76204
 H841 H 0.57571 0.74671 0.76815
 H842 H 0.55019 0.74972 0.78966
 H843 H 0.58430 0.73220 0.83384
 H844 H 0.60973 0.72933 0.81262
 C845 C 0.33026 0.78717 0.76380
 C846 C 0.34450 0.78456 0.77600
 C847 C 0.36155 0.77871 0.76957
 C848 C 0.36419 0.77590 0.75055
 C849 C 0.34996 0.77855 0.73835
 C850 C 0.33282 0.78416 0.74483
 C851 C 0.37631 0.77636 0.78300
 C852 C 0.39056 0.76535 0.78007
 C853 C 0.40557 0.76306 0.79328
 C854 C 0.42204 0.75579 0.78675
 C855 C 0.43662 0.75343 0.79857
 C856 C 0.43503 0.75821 0.81727
 C857 C 0.41847 0.76522 0.82391
 C858 C 0.40386 0.76755 0.81210
 H859 H 0.31718 0.79134 0.76926
 H860 H 0.34213 0.78695 0.79055
 H861 H 0.37729 0.77207 0.74493
 H862 H 0.35248 0.77653 0.72377
 H863 H 0.37507 0.78390 0.79577
 H864 H 0.39159 0.75776 0.76730
 H865 H 0.42371 0.75211 0.77237
 H866 H 0.44925 0.74814 0.79299
 H867 H 0.41672 0.76866 0.83834
 H868 H 0.39126 0.77257 0.81792
 C869 C -0.15416 0.30011 0.25391
 C870 C -0.14002 0.29751 0.26622
 C871 C -0.13328 0.28020 0.26968
 C872 C -0.14124 0.26542 0.26064
 C873 C -0.15532 0.26798 0.24824
 C874 C -0.16209 0.28539 0.24454
 C875 C -0.11815 0.27840 0.28288
 C876 C -0.10870 0.26315 0.28555
 C877 C -0.09356 0.26187 0.29870
 C878 C -0.08938 0.24504 0.30616
 C879 C -0.07505 0.24317 0.31838
 C880 C -0.06441 0.25809 0.32327
 C881 C -0.06844 0.27492 0.31561
 C882 C -0.08282 0.27680 0.30343
 H883 H -0.15819 0.31385 0.25128
 H884 H -0.13415 0.30919 0.27291
 H885 H -0.13702 0.25174 0.26318
 H886 H -0.16133 0.25606 0.24224
 H887 H -0.11469 0.29034 0.29075
 H888 H -0.11217 0.25091 0.27826
 H889 H -0.09736 0.23330 0.30265
 H890 H -0.07242 0.23006 0.32417
 H891 H -0.06024 0.28659 0.31872
 H892 H -0.08515 0.28986 0.29744
 C893 C -0.15937 0.69360 0.24722
 C894 C -0.14438 0.69612 0.23569
 C895 C -0.13699 0.71327 0.23325
 C896 C -0.14478 0.72792 0.24297
 C897 C -0.15984 0.72547 0.25446
 C898 C -0.16757 0.70825 0.25682
 C899 C -0.12098 0.71504 0.22085
 C900 C -0.11503 0.73075 0.21418
 C901 C -0.09917 0.73236 0.20156
 C902 C -0.09703 0.74838 0.19171
 C903 C -0.08230 0.75061 0.17975
 C904 C -0.06935 0.73684 0.17735
 C905 C -0.07132 0.72088 0.18731
 C906 C -0.08597 0.71869 0.19939
 H907 H -0.16392 0.67992 0.24901
 H908 H -0.13847 0.68450 0.22868
 H909 H -0.13935 0.74136 0.24193
 H910 H -0.16569 0.73740 0.26087
 H911 H -0.11442 0.70263 0.21651
 H912 H -0.12242 0.74303 0.21733
 H913 H -0.10688 0.75919 0.19318
 H914 H -0.08116 0.76303 0.17218
 H915 H -0.06132 0.71021 0.18603
 H916 H -0.08660 0.70640 0.20715
 C917 C 0.33719 0.24602 0.75007
 C918 C 0.35127 0.24941 0.73765
 C919 C 0.35926 0.23538 0.72733
 C920 C 0.35243 0.21786 0.72920
 C921 C 0.33822 0.21443 0.74152
 C922 C 0.33043 0.22841 0.75243
 C923 C 0.37441 0.23971 0.71462
 C924 C 0.38730 0.22780 0.70950
 C925 C 0.40297 0.23227 0.69746
 C926 C 0.41255 0.21812 0.68873
 C927 C 0.42763 0.22160 0.67758
 C928 C 0.43356 0.23935 0.67499
 C929 C 0.42409 0.25352 0.68382
 C930 C 0.40903 0.25005 0.69499
 H931 H 0.33128 0.25750 0.75726
 H932 H 0.35604 0.26311 0.73621
 H933 H 0.35789 0.20674 0.72111
 H934 H 0.33401 0.20059 0.74292
 H935 H 0.37509 0.25344 0.70989
 H936 H 0.38655 0.21410 0.71434
 H937 H 0.40829 0.20429 0.69046
 H938 H 0.43456 0.21039 0.67085
 H939 H 0.42857 0.26731 0.68240
 H940 H 0.40255 0.26134 0.70196
 C941 C 0.64150 0.27598 0.77320
 C942 C 0.62648 0.27338 0.76198
 C943 C 0.62667 0.27904 0.74369
 C944 C 0.64213 0.28784 0.73695
 C945 C 0.65719 0.29044 0.74812
 C946 C 0.65729 0.28450 0.76651
 C947 C 0.61036 0.27594 0.73234
 C948 C 0.61069 0.27553 0.71388
 C949 C 0.59454 0.27212 0.70240
 C950 C 0.59723 0.26676 0.68399
 C951 C 0.58251 0.26359 0.67252
 C952 C 0.56469 0.26578 0.67917
 C953 C 0.56196 0.27131 0.69755
 C954 C 0.57670 0.27453 0.70903
 H955 H 0.64025 0.27185 0.78735
 H956 H 0.61461 0.26688 0.76766
 H957 H 0.64271 0.29290 0.72310
 H958 H 0.66894 0.29655 0.74186
 H959 H 0.59791 0.27299 0.73962
 H960 H 0.62349 0.27688 0.70668
 H961 H 0.61080 0.26501 0.67843
 H962 H 0.58511 0.25969 0.65834
 H963 H 0.54840 0.27305 0.70313
 H964 H 0.57395 0.27915 0.72294
 C965 C 0.14931 0.80198 0.24898
 C966 C 0.13431 0.79942 0.23772
 C967 C 0.12953 0.78210 0.23159
 C968 C 0.14028 0.76733 0.23682
 C969 C 0.15526 0.76989 0.24811
 C970 C 0.15996 0.78724 0.25429
 C971 C 0.11373 0.78021 0.21930
 C972 C 0.10480 0.76472 0.21657
 C973 C 0.08925 0.76290 0.20396
 C974 C 0.08530 0.74581 0.19664
 C975 C 0.07084 0.74344 0.18465
 C976 C 0.05986 0.75813 0.17983
 C977 C 0.06361 0.77521 0.18740
 C978 C 0.07809 0.77758 0.19938
 H979 H 0.15249 0.81549 0.25366
 H980 H 0.12636 0.81105 0.23384
 H981 H 0.13753 0.75382 0.23192
 H982 H 0.16345 0.75832 0.25166
 H983 H 0.10937 0.79223 0.21230
 H984 H 0.10913 0.75264 0.22345
 H985 H 0.09360 0.73426 0.20002
 H986 H 0.06842 0.73014 0.17892
 H987 H 0.05514 0.78670 0.18430
 H988 H 0.08022 0.79085 0.20526
 C989 C 0.27100 0.16567 0.21702
 C990 C 0.28326 0.15150 0.21926
 C991 C 0.27725 0.13448 0.22476
 C992 C 0.25859 0.13181 0.22764
 C993 C 0.24631 0.14598 0.22534
 C994 C 0.25237 0.16308 0.22004
 C995 C 0.29076 0.11979 0.22668
 C996 C 0.28823 0.10551 0.23754
 C997 C 0.30158 0.09064 0.23947
 C998 C 0.29560 0.07423 0.24667
 C999 C 0.30761 0.05981 0.24876
 C1000 C 0.32594 0.06150 0.24377
 C1001 C 0.33202 0.07798 0.23679
 C1002 C 0.32003 0.09243 0.23475
 H1003 H 0.27612 0.17873 0.21310
 H1004 H 0.29754 0.15388 0.21685
 H1005 H 0.25331 0.11874 0.23121
 H1006 H 0.23201 0.14345 0.22736
 H1007 H 0.30325 0.12111 0.21896
 H1008 H 0.27572 0.10440 0.24531
 H1009 H 0.28152 0.07249 0.25053
 H1010 H 0.30248 0.04723 0.25404
 H1011 H 0.34615 0.07980 0.23320
 H1012 H 0.32544 0.10498 0.22979
 C1013 C 0.76743 0.66676 0.70421
 C1014 C 0.77922 0.65225 0.70684
 C1015 C 0.77262 0.63557 0.71270
 C1016 C 0.75385 0.63353 0.71540
 C1017 C 0.74206 0.64802 0.71273
 C1018 C 0.74872 0.66483 0.70721
 C1019 C 0.78563 0.62057 0.71534
 C1020 C 0.78250 0.60688 0.72680
 C1021 C 0.79533 0.59174 0.72967
 C1022 C 0.78870 0.57592 0.73762
 C1023 C 0.80021 0.56132 0.74077
 C1024 C 0.81868 0.56223 0.73613
 C1025 C 0.82540 0.57810 0.72834
 C1026 C 0.81390 0.59274 0.72521
 H1027 H 0.77300 0.67957 0.70009
 H1028 H 0.79360 0.65414 0.70453
 H1029 H 0.74813 0.62071 0.71920
 H1030 H 0.72767 0.64599 0.71471
 H1031 H 0.79827 0.62121 0.70776
 H1032 H 0.76987 0.60651 0.73446
 H1033 H 0.77450 0.57480 0.74128
 H1034 H 0.79458 0.54921 0.74663
 H1035 H 0.83966 0.57932 0.72497
 H1036 H 0.81978 0.60483 0.71967
 C1037 C 0.75985 0.33147 0.79092
 C1038 C 0.77216 0.34535 0.78785
 C1039 C 0.76611 0.36250 0.78275
 C1040 C 0.74739 0.36557 0.78100
 C1041 C 0.73506 0.35168 0.78416
 C1042 C 0.74115 0.33449 0.78921
 C1043 C 0.77968 0.37692 0.78022
 C1044 C 0.77705 0.39128 0.76953
 C1045 C 0.79053 0.40587 0.76702
 C1046 C 0.78468 0.42224 0.75959
 C1047 C 0.79678 0.43641 0.75700
 C1048 C 0.81506 0.43452 0.76176
 C1049 C 0.82101 0.41808 0.76896
 C1050 C 0.80895 0.40387 0.77147
 H1051 H 0.76501 0.31832 0.79456
 H1052 H 0.78649 0.34265 0.78936
 H1053 H 0.74213 0.37876 0.77771
 H1054 H 0.72072 0.35454 0.78310
 H1055 H 0.79232 0.37527 0.78736
 H1056 H 0.76438 0.39265 0.76234
 H1057 H 0.77063 0.42415 0.75593
 H1058 H 0.79178 0.44897 0.75153
 H1059 H 0.83511 0.41611 0.77238
 H1060 H 0.81430 0.39136 0.77659
 C1061 C 0.23630 -0.14529 0.26886
 C1062 C 0.24800 -0.13096 0.26547
 C1063 C 0.26625 -0.13190 0.27041
 C1064 C 0.27270 -0.14774 0.27852
 C1065 C 0.26103 -0.16209 0.28197
 C1066 C 0.24253 -0.16120 0.27727
 C1067 C 0.27807 -0.11630 0.26643
 C1068 C 0.29367 -0.11305 0.27514
 C1069 C 0.30538 -0.09735 0.27127
 C1070 C 0.32374 -0.09832 0.27594
 C1071 C 0.33524 -0.08376 0.27286
 C1072 C 0.32858 -0.06780 0.26517
 C1073 C 0.31016 -0.06674 0.26064
 C1074 C 0.29866 -0.08131 0.26371
 H1075 H 0.22221 -0.14337 0.26551
 H1076 H 0.24266 -0.11892 0.25919
 H1077 H 0.28684 -0.14939 0.28182
 H1078 H 0.26692 -0.17417 0.28758
 H1079 H 0.27345 -0.10708 0.25607
 H1080 H 0.29834 -0.12227 0.28547
 H1081 H 0.32925 -0.11046 0.28188
 H1082 H 0.34939 -0.08506 0.27634
 H1083 H 0.30454 -0.05449 0.25509
 H1084 H 0.28448 -0.07972 0.26055
 C1085 C 0.23549 -0.16312 0.70805
 C1086 C 0.22388 -0.14834 0.71050
 C1087 C 0.22972 -0.13264 0.71950
 C1088 C 0.24765 -0.13191 0.72573
 C1089 C 0.25928 -0.14669 0.72334
 C1090 C 0.25348 -0.16268 0.71448
 C1091 C 0.21683 -0.11730 0.72161
 C1092 C 0.21867 -0.10392 0.73403
 C1093 C 0.20570 -0.08866 0.73607
 C1094 C 0.21172 -0.07250 0.74409
 C1095 C 0.19995 -0.05783 0.74645
 C1096 C 0.18180 -0.05904 0.74097
 C1097 C 0.17570 -0.07529 0.73316
 C1098 C 0.18747 -0.08997 0.73078
 H1099 H 0.22990 -0.17510 0.70174
 H1100 H 0.21013 -0.14928 0.70555
 H1101 H 0.25301 -0.11983 0.73203
 H1102 H 0.27311 -0.14506 0.72778
 H1103 H 0.20529 -0.11730 0.71258
 H1104 H 0.23021 -0.10379 0.74304
 H1105 H 0.22564 -0.07117 0.74840
 H1106 H 0.20513 -0.04545 0.75235
 H1107 H 0.16169 -0.07680 0.72920
 H1108 H 0.18208 -0.10237 0.72519
 C1109 C 0.76647 0.35606 0.21733
 C1110 C 0.75487 0.37088 0.21949
 C1111 C 0.73616 0.36912 0.21680
 C1112 C 0.72935 0.35215 0.21149
 C1113 C 0.74097 0.33731 0.20937
 C1114 C 0.75965 0.33907 0.21233
 C1115 C 0.72448 0.38535 0.21939
 C1116 C 0.70641 0.38483 0.22154
 C1117 C 0.69497 0.40114 0.22441
 C1118 C 0.67664 0.40035 0.21961
 C1119 C 0.66524 0.41523 0.22246
 C1120 C 0.67187 0.43120 0.23041
 C1121 C 0.69019 0.43198 0.23537
 C1122 C 0.70163 0.41712 0.23243
 H1123 H 0.78084 0.35794 0.21938
 H1124 H 0.76054 0.38379 0.22338
 H1125 H 0.71516 0.35016 0.20873
 H1126 H 0.73528 0.32439 0.20559
 H1127 H 0.73124 0.39824 0.21972
 H1128 H 0.69943 0.37209 0.22103
 H1129 H 0.67111 0.38816 0.21361
 H1130 H 0.65112 0.41412 0.21878
 H1131 H 0.69570 0.44412 0.24148
 H1132 H 0.71552 0.41811 0.23686
 C1133 C 0.75890 0.63814 0.27875
 C1134 C 0.74780 0.62328 0.27558
 C1135 C 0.72886 0.62515 0.27560
 C1136 C 0.72127 0.64240 0.27884
 C1137 C 0.73241 0.65725 0.28215
 C1138 C 0.75133 0.65528 0.28206
 C1139 C 0.71784 0.60883 0.27174
 C1140 C 0.69974 0.60804 0.27357
 C1141 C 0.68897 0.59160 0.26959
 C1142 C 0.67123 0.59066 0.27663
 C1143 C 0.66048 0.57558 0.27315
 C1144 C 0.66720 0.56105 0.26247
 C1145 C 0.68489 0.56205 0.25526
 C1146 C 0.69562 0.57716 0.25865
 H1147 H 0.77344 0.63621 0.27877
 H1148 H 0.75407 0.61023 0.27309
 H1149 H 0.70684 0.64473 0.27857
 H1150 H 0.72624 0.67037 0.28440
 H1151 H 0.72526 0.59680 0.26770
 H1152 H 0.69231 0.61960 0.27882
 H1153 H 0.66565 0.60164 0.28489
 H1154 H 0.64680 0.57544 0.27862
 H1155 H 0.69055 0.55106 0.24707
 H1156 H 0.70895 0.57747 0.25242
 C1157 C 0.23324 0.17611 0.78705
 C1158 C 0.22134 0.16170 0.78482
 C1159 C 0.22762 0.14488 0.77834
 C1160 C 0.24621 0.14271 0.77433
 C1161 C 0.25813 0.15713 0.77661
 C1162 C 0.25179 0.17398 0.78304
 C1163 C 0.21450 0.12990 0.77672
 C1164 C 0.21697 0.11552 0.76556
 C1165 C 0.20394 0.10040 0.76402
 C1166 C 0.21007 0.08396 0.75641
 C1167 C 0.19837 0.06932 0.75464
 C1168 C 0.18019 0.07080 0.76037
 C1169 C 0.17396 0.08730 0.76778
 C1170 C 0.18564 0.10197 0.76951
 H1171 H 0.22788 0.18897 0.79182
 H1172 H 0.20712 0.16373 0.78808
 H1173 H 0.25174 0.12983 0.76992
 H1174 H 0.27240 0.15497 0.77377
 H1175 H 0.20231 0.13106 0.78501
 H1176 H 0.22917 0.11450 0.75725
 H1177 H 0.22404 0.08237 0.75197
 H1178 H 0.20363 0.05673 0.74901
 H1179 H 0.15992 0.08897 0.77196
 H1180 H 0.18009 0.11452 0.77482
 C1181 C 0.22611 0.23573 0.14958
 C1182 C 0.22830 0.24736 0.13479
 C1183 C 0.22564 0.26600 0.13710
 C1184 C 0.22035 0.27273 0.15455
 C1185 C 0.21816 0.26109 0.16934
 C1186 C 0.22107 0.24246 0.16704
 C1187 C 0.22809 0.27771 0.12088
 C1188 C 0.23087 0.29555 0.12199
 C1189 C 0.23340 0.30707 0.10567
 C1190 C 0.22936 0.32552 0.10729
 C1191 C 0.23168 0.33692 0.09232
 C1192 C 0.23832 0.33013 0.07542
 C1193 C 0.24263 0.31170 0.07384
 C1194 C 0.24025 0.30029 0.08880
 H1195 H 0.22814 0.22141 0.14728
 H1196 H 0.23218 0.24177 0.12148
 H1197 H 0.21759 0.28690 0.15689
 H1198 H 0.21434 0.26669 0.18266
 H1199 H 0.22776 0.27116 0.10752
 H1200 H 0.23109 0.30225 0.13526
 H1201 H 0.22428 0.33114 0.12019
 H1202 H 0.22852 0.35111 0.09405
 H1203 H 0.24771 0.30606 0.06098
 H1204 H 0.24410 0.28629 0.08711
 C1205 C 0.72452 0.73775 0.63638
 C1206 C 0.72729 0.74918 0.62152
 C1207 C 0.72554 0.76793 0.62372
 C1208 C 0.72049 0.77500 0.64111
 C1209 C 0.71772 0.76355 0.65598
 C1210 C 0.71981 0.74481 0.65381
 C1211 C 0.72875 0.77942 0.60746
 C1212 C 0.73246 0.79709 0.60850
 C1213 C 0.73582 0.80834 0.59214
 C1214 C 0.73253 0.82695 0.59352
 C1215 C 0.73562 0.83809 0.57849
 C1216 C 0.74229 0.83088 0.56177
 C1217 C 0.74589 0.81229 0.56046
 C1218 C 0.74272 0.80113 0.57547
 H1219 H 0.72591 0.72335 0.63419
 H1220 H 0.73095 0.74334 0.60826
 H1221 H 0.71842 0.78928 0.64336
 H1222 H 0.71415 0.76940 0.66925
 H1223 H 0.72824 0.77283 0.59412
 H1224 H 0.73285 0.80385 0.62174
 H1225 H 0.72744 0.83288 0.60626
 H1226 H 0.73301 0.85240 0.58001
 H1227 H 0.75099 0.80634 0.54775
 H1228 H 0.74600 0.78696 0.57401
 C1229 C 0.76866 0.73178 0.35298
 C1230 C 0.76536 0.74384 0.36756
 C1231 C 0.76822 0.76238 0.36544
 C1232 C 0.77398 0.76869 0.34819
 C1233 C 0.77725 0.75663 0.33359
 C1234 C 0.77475 0.73803 0.33584
 C1235 C 0.76466 0.77464 0.38137
 C1236 C 0.77273 0.79070 0.38347
 C1237 C 0.76963 0.80305 0.39946
 C1238 C 0.77504 0.82108 0.39792
 C1239 C 0.77280 0.83319 0.41265
 C1240 C 0.76515 0.82753 0.42935
 C1241 C 0.75979 0.80948 0.43097
 C1242 C 0.76206 0.79734 0.41625
 H1243 H 0.76675 0.71752 0.35521
 H1244 H 0.76080 0.73864 0.38066
 H1245 H 0.77567 0.78293 0.34575
 H1246 H 0.78150 0.76190 0.32044
 H1247 H 0.75538 0.76988 0.39178
 H1248 H 0.78214 0.79520 0.37302
 H1249 H 0.78098 0.82585 0.38522
 H1250 H 0.77692 0.84704 0.41091
 H1251 H 0.75419 0.80463 0.44380
 H1252 H 0.75823 0.78349 0.41836
 C1253 C 0.29744 0.25842 -0.15105
 C1254 C 0.29549 0.26980 -0.13570
 C1255 C 0.27828 0.27564 -0.12971
 C1256 C 0.26299 0.27000 -0.13963
 C1257 C 0.26496 0.25858 -0.15498
 C1258 C 0.28220 0.25268 -0.16086
 C1259 C 0.27704 0.28799 -0.11351
 C1260 C 0.26184 0.29091 -0.10362
 C1261 C 0.26079 0.30346 -0.08760
 C1262 C 0.24394 0.31101 -0.08269
 C1263 C 0.24230 0.32288 -0.06769
 C1264 C 0.25749 0.32733 -0.05711
 C1265 C 0.27432 0.31955 -0.06183
 C1266 C 0.27597 0.30770 -0.07686
 H1267 H 0.31089 0.25397 -0.15516
 H1268 H 0.30749 0.27398 -0.12840
 H1269 H 0.24952 0.27461 -0.13597
 H1270 H 0.25300 0.25467 -0.16249
 H1271 H 0.28934 0.29486 -0.10964
 H1272 H 0.24944 0.28424 -0.10744
 H1273 H 0.23202 0.30788 -0.09065
 H1274 H 0.22917 0.32877 -0.06453
 H1275 H 0.28619 0.32237 -0.05369
 H1276 H 0.28907 0.30165 -0.07973
 C1277 C 0.71948 0.26295 -0.13770
 C1278 C 0.72328 0.25132 -0.12329
 C1279 C 0.72064 0.23270 -0.12529
 C1280 C 0.71423 0.22589 -0.14215
 C1281 C 0.71045 0.23753 -0.15659
 C1282 C 0.71310 0.25619 -0.15454
 C1283 C 0.72547 0.22091 -0.10976
 C1284 C 0.71868 0.20436 -0.10737
 C1285 C 0.72369 0.19255 -0.09190
 C1286 C 0.72073 0.17394 -0.09368
 C1287 C 0.72522 0.16228 -0.07949
 C1288 C 0.73271 0.16900 -0.06312
 C1289 C 0.73546 0.18764 -0.06120
 C1290 C 0.73092 0.19931 -0.07536
 H1291 H 0.72146 0.27728 -0.13562
 H1292 H 0.72827 0.25692 -0.11050
 H1293 H 0.71259 0.21158 -0.14451
 H1294 H 0.70590 0.23189 -0.16953
 H1295 H 0.73493 0.22635 -0.09994
 H1296 H 0.70922 0.19895 -0.11723
 H1297 H 0.71507 0.16838 -0.10619
 H1298 H 0.72304 0.14797 -0.08141
 H1299 H 0.74080 0.19325 -0.04857
 H1300 H 0.73278 0.21359 -0.07304
 C1301 C 0.23563 0.75282 0.33538
 C1302 C 0.23918 0.74121 0.34988
 C1303 C 0.22513 0.73531 0.36142
 C1304 C 0.20740 0.74155 0.35832
 C1305 C 0.20385 0.75316 0.34380
 C1306 C 0.21791 0.75890 0.33215
 C1307 C 0.22967 0.72316 0.37677
 C1308 C 0.21759 0.71247 0.38511
 C1309 C 0.22214 0.70042 0.40051
 C1310 C 0.20815 0.69487 0.41232
 C1311 C 0.21172 0.68341 0.42694
 C1312 C 0.22939 0.67710 0.43001
 C1313 C 0.24338 0.68246 0.41807
 C1314 C 0.23982 0.69394 0.40344
 H1315 H 0.24673 0.75689 0.32655
 H1316 H 0.25297 0.73671 0.35201
 H1317 H 0.19625 0.73792 0.36725
 H1318 H 0.19013 0.75793 0.34190
 H1319 H 0.24363 0.72303 0.38112
 H1320 H 0.20363 0.71260 0.38079
 H1321 H 0.19441 0.69957 0.41032
 H1322 H 0.20067 0.67968 0.43599
 H1323 H 0.25706 0.67751 0.41983
 H1324 H 0.25088 0.69731 0.39430
 C1325 C 0.29653 0.74901 0.65160
 C1326 C 0.29418 0.73708 0.63681
 C1327 C 0.27683 0.73120 0.63193
 C1328 C 0.26182 0.73734 0.64243
 C1329 C 0.26419 0.74931 0.65720
 C1330 C 0.28156 0.75530 0.66193
 C1331 C 0.27518 0.71844 0.61614
 C1332 C 0.25968 0.71523 0.60722
 C1333 C 0.25833 0.70251 0.59140
 C1334 C 0.24150 0.69472 0.58758
 C1335 C 0.23957 0.68280 0.57270
 C1336 C 0.25442 0.67854 0.56117
 C1337 C 0.27123 0.68653 0.56485
 C1338 C 0.27318 0.69842 0.57975
 H1339 H 0.31007 0.75351 0.65481
 H1340 H 0.30598 0.73253 0.62906
 H1341 H 0.24827 0.73275 0.63964
 H1342 H 0.25244 0.75365 0.66515
 H1343 H 0.28743 0.71154 0.61167
 H1344 H 0.24730 0.72187 0.61165
 H1345 H 0.22983 0.69773 0.59625
 H1346 H 0.22647 0.67675 0.57036
 H1347 H 0.28283 0.68387 0.55597
 H1348 H 0.28621 0.70465 0.58178
 C1349 C 0.80274 0.24821 0.15218
 C1350 C 0.80037 0.23571 0.13789
 C1351 C 0.78300 0.22974 0.13315
 C1352 C 0.76798 0.23650 0.14324
 C1353 C 0.77037 0.24907 0.15749
 C1354 C 0.78776 0.25504 0.16212
 C1355 C 0.78140 0.21627 0.11795
 C1356 C 0.76581 0.21197 0.10968
 C1357 C 0.76463 0.19848 0.09451
 C1358 C 0.74812 0.18967 0.09165
 C1359 C 0.74632 0.17704 0.07737
 C1360 C 0.76098 0.17307 0.06549
 C1361 C 0.77746 0.18204 0.06821
 C1362 C 0.77927 0.19465 0.08252
 H1363 H 0.81630 0.25268 0.15532
 H1364 H 0.81220 0.23073 0.13044
 H1365 H 0.75438 0.23201 0.14054
 H1366 H 0.75861 0.25386 0.16516
 H1367 H 0.79379 0.20966 0.11342
 H1368 H 0.75324 0.21816 0.11421
 H1369 H 0.73660 0.19246 0.10060
 H1370 H 0.73349 0.17025 0.07577
 H1371 H 0.78887 0.17962 0.05903
 H1372 H 0.79202 0.20163 0.08381
 C1373 C 0.44749 0.40380 0.50164
 C1374 C 0.45007 0.38905 0.51307
 C1375 C 0.46750 0.38411 0.51871
 C1376 C 0.48241 0.39408 0.51230
 C1377 C 0.47982 0.40884 0.50086
 C1378 C 0.46233 0.41391 0.49545
 C1379 C 0.46946 0.36827 0.53081
 C1380 C 0.48400 0.36519 0.54126
 C1381 C 0.48580 0.34937 0.55337
 C1382 C 0.50322 0.34367 0.55828
 C1383 C 0.50559 0.32894 0.56979
 C1384 C 0.49055 0.31965 0.57682
 C1385 C 0.47309 0.32550 0.57211
 C1386 C 0.47072 0.34022 0.56057
 H1387 H 0.43388 0.40717 0.49746
 H1388 H 0.43837 0.38150 0.51761
 H1389 H 0.49613 0.39046 0.51579
 H1390 H 0.49152 0.41640 0.49637
 H1391 H 0.45825 0.35896 0.53117
 H1392 H 0.49529 0.37440 0.54090
 H1393 H 0.51506 0.35053 0.55303
 H1394 H 0.51922 0.32467 0.57299
 H1395 H 0.46123 0.31889 0.57764
 H1396 H 0.45705 0.34457 0.55772
 C1397 C -0.04680 0.90001 0.00195
 C1398 C -0.04533 0.88501 0.01325
 C1399 C -0.02839 0.87931 0.01962
 C1400 C -0.01289 0.88912 0.01453
 C1401 C -0.01437 0.90410 0.00317
 C1402 C -0.03134 0.90974 -0.00319
 C1403 C -0.02771 0.86356 0.03199
 C1404 C -0.01259 0.85418 0.03555
 C1405 C -0.01209 0.83872 0.04826
 C1406 C 0.00434 0.83441 0.05669
 C1407 C 0.00547 0.81999 0.06878
 C1408 C -0.00981 0.80939 0.07257
 C1409 C -0.02621 0.81352 0.06391
 C1410 C -0.02735 0.82799 0.05185
 H1411 H -0.06005 0.90394 -0.00288
 H1412 H -0.05750 0.87780 0.01700
 H1413 H 0.00038 0.88567 0.01954
 H1414 H -0.00226 0.91156 -0.00027
 H1415 H -0.04035 0.85964 0.03840
 H1416 H 0.00015 0.85805 0.02936
 H1417 H 0.01631 0.84239 0.05409
 H1418 H 0.01826 0.81730 0.07536
 H1419 H -0.03811 0.80536 0.06621
 H1420 H -0.04009 0.83042 0.04511
 C1421 C 0.00569 0.58503 -0.00052
 C1422 C 0.00201 0.59954 0.01140
 C1423 C 0.01575 0.60737 0.02189
 C1424 C 0.03330 0.60002 0.02053
 C1425 C 0.03706 0.58556 0.00856
 C1426 C 0.02336 0.57774 -0.00233
 C1427 C 0.01105 0.62280 0.03431
 C1428 C 0.02330 0.63421 0.04134
 C1429 C 0.01876 0.64984 0.05355
 C1430 C 0.03218 0.66281 0.05674
 C1431 C 0.02875 0.67768 0.06824
 C1432 C 0.01177 0.67996 0.07685
 C1433 C -0.00167 0.66699 0.07379
 C1434 C 0.00179 0.65202 0.06239
 H1435 H -0.00566 0.57924 -0.00770
 H1436 H -0.01173 0.60468 0.01242
 H1437 H 0.04427 0.60522 0.02870
 H1438 H 0.05100 0.58113 0.00752
 H1439 H -0.00319 0.62514 0.03697
 H1440 H 0.03740 0.63263 0.03747
 H1441 H 0.04539 0.66148 0.05023
 H1442 H 0.03933 0.68755 0.07023
 H1443 H -0.01478 0.66826 0.08052
 H1444 H -0.00882 0.64217 0.06089
 C1445 C 0.54194 0.08471 0.51786
 C1446 C 0.53924 0.09904 0.53027
 C1447 C 0.53269 0.11573 0.52429
 C1448 C 0.52876 0.11774 0.50552
 C1449 C 0.53156 0.10344 0.49310
 C1450 C 0.53809 0.08673 0.49912
 C1451 C 0.52947 0.13032 0.53815
 C1452 C 0.52733 0.14776 0.53393
 C1453 C 0.52369 0.16230 0.54772
 C1454 C 0.52641 0.18024 0.54253
 C1455 C 0.52278 0.19444 0.55485
 C1456 C 0.51627 0.19104 0.57269
 C1457 C 0.51342 0.17309 0.57787
 C1458 C 0.51697 0.15888 0.56553
 H1459 H 0.54670 0.07193 0.52301
 H1460 H 0.54219 0.09702 0.54466
 H1461 H 0.52320 0.13012 0.50029
 H1462 H 0.52859 0.10550 0.47873
 H1463 H 0.52946 0.12641 0.55241
 H1464 H 0.52889 0.15188 0.51981
 H1465 H 0.53134 0.18330 0.52885
 H1466 H 0.52481 0.20811 0.55028
 H1467 H 0.50852 0.16999 0.59154
 H1468 H 0.51412 0.14536 0.57000
 C1469 C -0.03081 0.08111 0.48365
 C1470 C -0.02908 0.09523 0.47124
 C1471 C -0.02444 0.11258 0.47737
 C1472 C -0.02185 0.11561 0.49631
 C1473 C -0.02361 0.10150 0.50872
 C1474 C -0.02811 0.08408 0.50254
 C1475 C -0.02311 0.12720 0.46372
 C1476 C -0.01321 0.14213 0.46630
 C1477 C -0.01188 0.15696 0.45285
 C1478 C -0.00555 0.17377 0.45900
 C1479 C -0.00390 0.18815 0.44691
 C1480 C -0.00847 0.18603 0.42831
 C1481 C -0.01467 0.16919 0.42207
 C1482 C -0.01628 0.15477 0.43416
 H1483 H -0.03413 0.06781 0.47843
 H1484 H -0.03126 0.09254 0.45676
 H1485 H -0.01893 0.12891 0.50172
 H1486 H -0.02186 0.10431 0.52324
 H1487 H -0.03046 0.12529 0.45109
 H1488 H -0.00578 0.14382 0.47894
 H1489 H -0.00199 0.17584 0.47328
 H1490 H 0.00075 0.20101 0.45217
 H1491 H -0.01793 0.16705 0.40774
 H1492 H -0.02061 0.14195 0.42861
 C1493 C 0.46073 0.58608 0.97988
 C1494 C 0.46363 0.59984 0.96728
 C1495 C 0.47334 0.61529 0.97220
 C1496 C 0.48001 0.61677 0.99019
 C1497 C 0.47718 0.60300 1.00281
 C1498 C 0.46741 0.58734 0.99798
 C1499 C 0.47557 0.62968 0.95837
 C1500 C 0.48800 0.64277 0.95945
 C1501 C 0.48976 0.65728 0.94573
 C1502 C 0.49758 0.67366 0.95118
 C1503 C 0.49942 0.68776 0.93876
 C1504 C 0.49366 0.68571 0.92050
 C1505 C 0.48613 0.66919 0.91493
 C1506 C 0.48425 0.65510 0.92737
 H1507 H 0.45377 0.57420 0.97498
 H1508 H 0.45836 0.59830 0.95351
 H1509 H 0.48696 0.62872 0.99487
 H1510 H 0.48196 0.60525 1.01665
 H1511 H 0.46646 0.62933 0.94682
 H1512 H 0.49708 0.64333 0.97099
 H1513 H 0.50204 0.67566 0.96519
 H1514 H 0.50510 0.70036 0.94355
 H1515 H 0.48195 0.66705 0.90086
 H1516 H 0.47880 0.64247 0.92241
 C1517 C 0.55251 0.90233 0.99291
 C1518 C 0.55043 0.88818 0.98025
 C1519 C 0.53326 0.88377 0.97349
 C1520 C 0.51821 0.89418 0.97932
 C1521 C 0.52030 0.90832 0.99199
 C1522 C 0.53745 0.91249 0.99900
 C1523 C 0.53176 0.86856 0.96016
 C1524 C 0.51636 0.85951 0.95717
 C1525 C 0.51490 0.84414 0.94403
 C1526 C 0.49777 0.83977 0.93715
 C1527 C 0.49566 0.82522 0.92498
 C1528 C 0.51064 0.81461 0.91953
 C1529 C 0.52777 0.81887 0.92654
 C1530 C 0.52989 0.83342 0.93871
 H1531 H 0.56588 0.90514 0.99815
 H1532 H 0.56226 0.88049 0.97590
 H1533 H 0.50485 0.89175 0.97395
 H1534 H 0.50851 0.91618 0.99611
 H1535 H 0.54400 0.86459 0.95284
 H1536 H 0.50411 0.86346 0.96447
 H1537 H 0.48599 0.84772 0.94111
 H1538 H 0.48231 0.82241 0.91969
 H1539 H 0.53949 0.81069 0.92294
 H1540 H 0.54320 0.83588 0.94419
 C1541 C 0.05184 0.40640 0.49631
 C1542 C 0.04967 0.39181 0.48420
 C1543 C 0.03298 0.38306 0.48272
 C1544 C 0.01848 0.38909 0.49392
 C1545 C 0.02058 0.40372 0.50598
 C1546 C 0.03733 0.41275 0.50749
 C1547 C 0.03154 0.36745 0.46982
 C1548 C 0.01577 0.36069 0.46392
 C1549 C 0.01431 0.34504 0.45108
 C1550 C -0.00229 0.34202 0.44235
 C1551 C -0.00448 0.32733 0.43039
 C1552 C 0.00990 0.31529 0.42688
 C1553 C 0.02649 0.31818 0.43567
 C1554 C 0.02866 0.33280 0.44774
 H1555 H 0.06525 0.41206 0.49728
 H1556 H 0.06119 0.38728 0.47600
 H1557 H 0.00546 0.38254 0.49365
 H1558 H 0.00870 0.40817 0.51359
 H1559 H 0.04413 0.36187 0.46453
 H1560 H 0.00322 0.36721 0.46802
 H1561 H -0.01361 0.35112 0.44474
 H1562 H -0.01739 0.32550 0.42371
 H1563 H 0.03769 0.30889 0.43351
 H1564 H 0.04149 0.33414 0.45461
 C1565 C 0.40524 0.50168 0.48875
 C1566 C 0.39074 0.51352 0.49199
 C1567 C 0.38035 0.51991 0.47738
 C1568 C 0.38460 0.51388 0.45939
 C1569 C 0.39913 0.50208 0.45616
 C1570 C 0.40964 0.49589 0.47078
 C1571 C 0.36499 0.53234 0.48160
 C1572 C 0.35729 0.54306 0.46914
 C1573 C 0.34180 0.55526 0.47341
 C1574 C 0.33042 0.56037 0.45905
 C1575 C 0.31566 0.57185 0.46239
 C1576 C 0.31206 0.57866 0.48018
 C1577 C 0.32363 0.57379 0.49453
 C1578 C 0.33837 0.56225 0.49120
 H1579 H 0.41317 0.49724 0.50029
 H1580 H 0.38771 0.51782 0.50599
 H1581 H 0.37660 0.51786 0.44776
 H1582 H 0.40195 0.49753 0.44221
 H1583 H 0.36000 0.53263 0.49564
 H1584 H 0.36214 0.54280 0.45507
 H1585 H 0.33282 0.55526 0.44521
 H1586 H 0.30691 0.57516 0.45107
 H1587 H 0.32146 0.57913 0.50831
 H1588 H 0.34719 0.55920 0.50252
 C1589 C 0.91353 -0.00344 -0.00850
 C1590 C 0.89936 0.00872 -0.00508
 C1591 C 0.89270 0.01963 -0.01907
 C1592 C 0.90092 0.01844 -0.03657
 C1593 C 0.91507 0.00624 -0.04007
 C1594 C 0.92164 -0.00512 -0.02615
 C1595 C 0.87747 0.03217 -0.01464
 C1596 C 0.86683 0.03966 -0.02732
 C1597 C 0.85114 0.05158 -0.02279
 C1598 C 0.83796 0.05426 -0.03627
 C1599 C 0.82286 0.06522 -0.03265
 C1600 C 0.82060 0.07380 -0.01544
 C1601 C 0.83389 0.07138 -0.00203
 C1602 C 0.84906 0.06051 -0.00567
 H1603 H 0.91841 -0.01098 0.00306
 H1604 H 0.89355 0.00959 0.00865
 H1605 H 0.89660 0.02691 -0.04769
 H1606 H 0.92024 0.00539 -0.05401
 H1607 H 0.87442 0.03441 -0.00021
 H1608 H 0.86893 0.03624 -0.04168
 H1609 H 0.83924 0.04769 -0.04961
 H1610 H 0.81277 0.06673 -0.04322
 H1611 H 0.83268 0.07813 0.01123
 H1612 H 0.85916 0.05942 0.00490
 C1613 C 0.58569 0.01073 0.03750
 C1614 C 0.60018 0.02266 0.03613
 C1615 C 0.61752 0.01643 0.03108
 C1616 C 0.62017 -0.00213 0.02776
 C1617 C 0.60567 -0.01408 0.02918
 C1618 C 0.58826 -0.00779 0.03402
 C1619 C 0.63247 0.02964 0.02994
 C1620 C 0.64738 0.02709 0.01948
 C1621 C 0.66227 0.04038 0.01794
 C1622 C 0.67906 0.03450 0.01082
 C1623 C 0.69340 0.04654 0.00871
 C1624 C 0.69124 0.06479 0.01363
 C1625 C 0.67444 0.07074 0.02069
 C1626 C 0.66008 0.05872 0.02274
 H1627 H 0.57241 0.01603 0.04108
 H1628 H 0.59779 0.03687 0.03885
 H1629 H 0.63343 -0.00758 0.02449
 H1630 H 0.60816 -0.02832 0.02682
 H1631 H 0.63073 0.04200 0.03779
 H1632 H 0.64893 0.01471 0.01159
 H1633 H 0.68113 0.02050 0.00691
 H1634 H 0.70623 0.04153 0.00336
 H1635 H 0.67225 0.08481 0.02422
 H1636 H 0.64726 0.06406 0.02767
 C1637 C 0.08186 0.51498 0.53758
 C1638 C 0.09550 0.52763 0.53469
 C1639 C 0.11275 0.52219 0.52848
 C1640 C 0.11620 0.50370 0.52550
 C1641 C 0.10256 0.49104 0.52842
 C1642 C 0.08524 0.49653 0.53449
 C1643 C 0.12687 0.53610 0.52598
 C1644 C 0.14125 0.53397 0.51469
 C1645 C 0.15556 0.54773 0.51224
 C1646 C 0.17231 0.54224 0.50469
 C1647 C 0.18622 0.55465 0.50206
 C1648 C 0.18368 0.57290 0.50685
 C1649 C 0.16686 0.57847 0.51420
 C1650 C 0.15292 0.56607 0.51679
 H1651 H 0.06861 0.51966 0.54209
 H1652 H 0.09251 0.54177 0.53720
 H1653 H 0.12948 0.49886 0.52137
 H1654 H 0.10570 0.47689 0.52633
 H1655 H 0.12505 0.54855 0.53367
 H1656 H 0.14289 0.52150 0.50696
 H1657 H 0.17471 0.52825 0.50096
 H1658 H 0.19908 0.54992 0.49650
 H1659 H 0.16438 0.59251 0.51764
 H1660 H 0.14007 0.57108 0.52201
 C1661 C 0.08095 0.48199 -0.03701
 C1662 C 0.09582 0.47076 -0.03395
 C1663 C 0.11074 0.47693 -0.02400
 C1664 C 0.11059 0.49480 -0.01735
 C1665 C 0.09571 0.50606 -0.02034
 C1666 C 0.08052 0.49993 -0.03024
 C1667 C 0.12623 0.46441 -0.02140
 C1668 C 0.13905 0.46673 -0.00865
 C1669 C 0.15440 0.45403 -0.00633
 C1670 C 0.17044 0.46044 0.00152
 C1671 C 0.18524 0.44892 0.00392
 C1672 C 0.18426 0.43066 -0.00133
 C1673 C 0.16807 0.42416 -0.00885
 C1674 C 0.15328 0.43567 -0.01128
 H1675 H 0.06956 0.47616 -0.04409
 H1676 H 0.09554 0.45704 -0.03923
 H1677 H 0.12206 0.50041 -0.01025
 H1678 H 0.09668 0.51987 -0.01553
 H1679 H 0.12690 0.45272 -0.03043
 H1680 H 0.13867 0.47845 0.00032
 H1681 H 0.17160 0.47447 0.00558
 H1682 H 0.19756 0.45439 0.00962
 H1683 H 0.16672 0.41007 -0.01260
 H1684 H 0.14094 0.43002 -0.01668
 C1685 C 0.58888 0.98848 0.45925
 C1686 C 0.60362 0.97674 0.46075
 C1687 C 0.61981 0.98250 0.46871
 C1688 C 0.62106 1.00046 0.47490
 C1689 C 0.60632 1.01224 0.47345
 C1690 C 0.58986 1.00653 0.46560
 C1691 C 0.63505 0.96945 0.46981
 C1692 C 0.64896 0.97125 0.48140
 C1693 C 0.66399 0.95798 0.48255
 C1694 C 0.68061 0.96369 0.48967
 C1695 C 0.69506 0.95160 0.49129
 C1696 C 0.69315 0.93344 0.48597
 C1697 C 0.67645 0.92766 0.47901
 C1698 C 0.66200 0.93975 0.47737
 H1699 H 0.57653 0.98295 0.45376
 H1700 H 0.60225 0.96296 0.45588
 H1701 H 0.63351 1.00573 0.48044
 H1702 H 0.60833 1.02607 0.47779
 H1703 H 0.63448 0.95777 0.46078
 H1704 H 0.64967 0.98294 0.49038
 H1705 H 0.68248 0.97761 0.49386
 H1706 H 0.70779 0.95652 0.49655
 H1707 H 0.67442 0.91367 0.47519
 H1708 H 0.64924 0.93461 0.47249
 C1709 C 0.91100 0.99829 0.55017
 C1710 C 0.89670 0.98623 0.54787
 C1711 C 0.89245 0.97937 0.53037
 C1712 C 0.90317 0.98450 0.51521
 C1713 C 0.91744 0.99658 0.51751
 C1714 C 0.92144 1.00369 0.53498
 C1715 C 0.87704 0.96671 0.52866
 C1716 C 0.86833 0.96350 0.51285
 C1717 C 0.85278 0.95104 0.51116
 C1718 C 0.84881 0.94379 0.49376
 C1719 C 0.83407 0.93231 0.49139
 C1720 C 0.82282 0.92794 0.50637
 C1721 C 0.82671 0.93529 0.52378
 C1722 C 0.84148 0.94675 0.52617
 H1723 H 0.91370 1.00362 0.56379
 H1724 H 0.88877 0.98242 0.55981
 H1725 H 0.90090 0.97903 0.50159
 H1726 H 0.92553 1.00018 0.50562
 H1727 H 0.87265 0.96007 0.54106
 H1728 H 0.87269 0.97009 0.50042
 H1729 H 0.85722 0.94694 0.48196
 H1730 H 0.83156 0.92673 0.47783
 H1731 H 0.81807 0.93252 0.53551
 H1732 H 0.84364 0.95255 0.53968
 C1733 C 0.39391 0.51964 0.02667
 C1734 C 0.37874 0.50861 0.02485
 C1735 C 0.37996 0.49003 0.02799
 C1736 C 0.39670 0.48274 0.03340
 C1737 C 0.41187 0.49377 0.03520
 C1738 C 0.41067 0.51233 0.03181
 C1739 C 0.36340 0.47896 0.02594
 C1740 C 0.36359 0.46099 0.02353
 C1741 C 0.34698 0.45003 0.02154
 C1742 C 0.34772 0.43172 0.02607
 C1743 C 0.33246 0.42083 0.02430
 C1744 C 0.31614 0.42796 0.01774
 C1745 C 0.31544 0.44623 0.01294
 C1746 C 0.33069 0.45716 0.01478
 H1747 H 0.39247 0.53394 0.02426
 H1748 H 0.36600 0.51464 0.02088
 H1749 H 0.39820 0.46863 0.03654
 H1750 H 0.42461 0.48772 0.03911
 H1751 H 0.35058 0.48609 0.02628
 H1752 H 0.37633 0.45375 0.02326
 H1753 H 0.36015 0.42584 0.03109
 H1754 H 0.33351 0.40673 0.02782
 H1755 H 0.30304 0.45212 0.00789
 H1756 H 0.32969 0.47104 0.01058
 C1757 C 0.49637 0.48594 0.41079
 C1758 C 0.50793 0.48897 0.39584
 C1759 C 0.51387 0.47464 0.38448
 C1760 C 0.50777 0.45711 0.38833
 C1761 C 0.49623 0.45408 0.40332
 C1762 C 0.49038 0.46846 0.41470
 C1763 C 0.52587 0.47874 0.36858
 C1764 C 0.53610 0.46642 0.35957
 C1765 C 0.54795 0.47079 0.34367
 C1766 C 0.55255 0.45703 0.33101
 C1767 C 0.56372 0.46053 0.31586
 C1768 C 0.57069 0.47788 0.31310
 C1769 C 0.56634 0.49160 0.32593
 C1770 C 0.55516 0.48811 0.34108
 H1771 H 0.49225 0.49727 0.41941
 H1772 H 0.51232 0.50261 0.39318
 H1773 H 0.51147 0.44572 0.37965
 H1774 H 0.49155 0.44052 0.40579
 H1775 H 0.52625 0.49263 0.36430
 H1776 H 0.53569 0.45246 0.36360
 H1777 H 0.54729 0.44355 0.33274
 H1778 H 0.56668 0.44971 0.30615
 H1779 H 0.57186 0.50500 0.32444
 H1780 H 0.55256 0.49893 0.35087
 C1781 C 0.00736 -0.04930 0.90741
 C1782 C 0.01951 -0.04666 0.89285
 C1783 C 0.02643 -0.02948 0.88925
 C1784 C 0.02119 -0.01496 0.90083
 C1785 C 0.00902 -0.01761 0.91540
 C1786 C 0.00194 -0.03479 0.91883
 C1787 C 0.03935 -0.02748 0.87363
 C1788 C 0.04274 -0.01178 0.86535
 C1789 C 0.05548 -0.00996 0.84956
 C1790 C 0.06289 0.00703 0.84599
 C1791 C 0.07475 0.00945 0.83113
 C1792 C 0.07937 -0.00509 0.81939
 C1793 C 0.07180 -0.02206 0.82281
 C1794 C 0.05994 -0.02448 0.83767
 H1795 H 0.00201 -0.06267 0.90958
 H1796 H 0.02338 -0.05810 0.88423
 H1797 H 0.02665 -0.00162 0.89900
 H1798 H 0.00540 -0.00625 0.92421
 H1799 H 0.04605 -0.03964 0.86871
 H1800 H 0.03613 0.00042 0.87027
 H1801 H 0.05960 0.01847 0.85484
 H1802 H 0.08046 0.02266 0.82896
 H1803 H 0.07475 -0.03342 0.81376
 H1804 H 0.05402 -0.03764 0.83944
 C1805 C 0.00908 0.05151 0.59529
 C1806 C 0.02126 0.04983 0.60974
 C1807 C 0.02651 0.03278 0.61589
 C1808 C 0.01965 0.01736 0.60701
 C1809 C 0.00760 0.01903 0.59243
 C1810 C 0.00212 0.03613 0.58641
 C1811 C 0.03961 0.03155 0.63109
 C1812 C 0.03989 0.01781 0.64286
 C1813 C 0.05283 0.01671 0.65822
 C1814 C 0.04773 0.00751 0.67415
 C1815 C 0.05966 0.00603 0.68884
 C1816 C 0.07712 0.01346 0.68779
 C1817 C 0.08230 0.02246 0.67168
 C1818 C 0.07029 0.02409 0.65707
 H1819 H 0.00498 0.06488 0.59119
 H1820 H 0.02643 0.06191 0.61631
 H1821 H 0.02387 0.00400 0.61099
 H1822 H 0.00286 0.00691 0.58563
 H1823 H 0.04861 0.04285 0.63321
 H1824 H 0.02967 0.00744 0.64190
 H1825 H 0.03438 0.00164 0.67533
 H1826 H 0.05511 -0.00077 0.70111
 H1827 H 0.09577 0.02796 0.67021
 H1828 H 0.07488 0.03076 0.64474
 C1829 C 0.50258 0.55282 0.09064
 C1830 C 0.51458 0.55010 0.10508
 C1831 C 0.51865 0.53263 0.11097
 C1832 C 0.51081 0.51785 0.10180
 C1833 C 0.49889 0.52057 0.08729
 C1834 C 0.49455 0.53808 0.08159
 C1835 C 0.53152 0.53029 0.12625
 C1836 C 0.53112 0.51611 0.13749
 C1837 C 0.54385 0.51380 0.15290
 C1838 C 0.53845 0.50350 0.16800
 C1839 C 0.55016 0.50077 0.18268
 C1840 C 0.56767 0.50810 0.18247
 C1841 C 0.57316 0.51824 0.16721
 C1842 C 0.56141 0.52106 0.15258
 H1843 H 0.49940 0.56649 0.08672
 H1844 H 0.52054 0.56169 0.11183
 H1845 H 0.51412 0.50417 0.10552
 H1846 H 0.49330 0.50891 0.08033
 H1847 H 0.54096 0.54112 0.12885
 H1848 H 0.52051 0.50621 0.13602
 H1849 H 0.52504 0.49768 0.16853
 H1850 H 0.54540 0.49308 0.19430
 H1851 H 0.58670 0.52372 0.16640
 H1852 H 0.56628 0.52855 0.14089
 C1853 C 0.48621 -0.04036 0.07979
 C1854 C 0.47366 -0.03817 0.09417
 C1855 C 0.47936 -0.03337 0.11189
 C1856 C 0.49800 -0.03126 0.11508
 C1857 C 0.51055 -0.03350 0.10071
 C1858 C 0.50480 -0.03800 0.08288
 C1859 C 0.46559 -0.03125 0.12675
 C1860 C 0.46797 -0.02069 0.14164
 C1861 C 0.45444 -0.01841 0.15676
 C1862 C 0.46023 -0.01107 0.17357
 C1863 C 0.44808 -0.00856 0.18824
 C1864 C 0.42979 -0.01326 0.18641
 C1865 C 0.42390 -0.02044 0.16956
 C1866 C 0.43604 -0.02291 0.15485
 H1867 H 0.48133 -0.04367 0.06618
 H1868 H 0.45941 -0.04001 0.09138
 H1869 H 0.50302 -0.02826 0.12868
 H1870 H 0.52481 -0.03202 0.10362
 H1871 H 0.45305 -0.03847 0.12498
 H1872 H 0.48051 -0.01336 0.14307
 H1873 H 0.47427 -0.00740 0.17542
 H1874 H 0.45308 -0.00317 0.20111
 H1875 H 0.40981 -0.02385 0.16764
 H1876 H 0.43078 -0.02804 0.14202
 C1877 C 1.01517 0.46888 0.60879
 C1878 C 1.00352 0.47117 0.62391
 C1879 C 0.98490 0.46790 0.62229
 C1880 C 0.97823 0.46182 0.60525
 C1881 C 0.98990 0.45955 0.59013
 C1882 C 1.00848 0.46314 0.59170
 C1883 C 0.97309 0.47067 0.63874
 C1884 C 0.95512 0.47324 0.63796
 C1885 C 0.94341 0.47624 0.65442
 C1886 C 0.92492 0.47221 0.65320
 C1887 C 0.91330 0.47511 0.66824
 C1888 C 0.91989 0.48231 0.68481
 C1889 C 0.93837 0.48655 0.68600
 C1890 C 0.95001 0.48359 0.67097
 H1891 H 1.02947 0.47146 0.61052
 H1892 H 1.00906 0.47565 0.63691
 H1893 H 0.96412 0.45856 0.60347
 H1894 H 0.98431 0.45517 0.57712
 H1895 H 0.97969 0.47086 0.65195
 H1896 H 0.94843 0.47300 0.62481
 H1897 H 0.91945 0.46675 0.64056
 H1898 H 0.89908 0.47199 0.66681
 H1899 H 0.94385 0.49207 0.69860
 H1900 H 0.96404 0.48742 0.67232
 C1901 C 1.00932 0.52185 0.89600
 C1902 C 0.99833 0.51886 0.88075
 C1903 C 0.97938 0.51913 0.88255
 C1904 C 0.97164 0.52225 0.90012
 C1905 C 0.98265 0.52539 0.91532
 C1906 C 1.00158 0.52522 0.91342
 C1907 C 0.96840 0.51564 0.86586
 C1908 C 0.95054 0.51896 0.86481
 C1909 C 0.93949 0.51558 0.84815
 C1910 C 0.92174 0.52246 0.84791
 C1911 C 0.91066 0.51961 0.83273
 C1912 C 0.91705 0.50979 0.81731
 C1913 C 0.93476 0.50278 0.81754
 C1914 C 0.94582 0.50553 0.83279
 H1915 H 1.02388 0.52174 0.89413
 H1916 H 1.00470 0.51639 0.86747
 H1917 H 0.95718 0.52199 0.90241
 H1918 H 0.97635 0.52761 0.92869
 H1919 H 0.97570 0.51071 0.85386
 H1920 H 0.94353 0.52502 0.87646
 H1921 H 0.91638 0.53008 0.85957
 H1922 H 0.89698 0.52491 0.83318
 H1923 H 0.94018 0.49529 0.80583
 H1924 H 0.95918 0.49955 0.83236
 C1925 C 0.48713 0.03606 0.42187
 C1926 C 0.47458 0.03359 0.40784
 C1927 C 0.48032 0.02854 0.39004
 C1928 C 0.49898 0.02636 0.38646
 C1929 C 0.51152 0.02887 0.40049
 C1930 C 0.50575 0.03372 0.41836
 C1931 C 0.46654 0.02633 0.37553
 C1932 C 0.46905 0.01585 0.36053
 C1933 C 0.45549 0.01362 0.34577
 C1934 C 0.46136 0.00676 0.32863
 C1935 C 0.44917 0.00432 0.31428
 C1936 C 0.43076 0.00861 0.31677
 C1937 C 0.42479 0.01530 0.33396
 C1938 C 0.43698 0.01771 0.34834
 H1939 H 0.48224 0.03964 0.43553
 H1940 H 0.46031 0.03547 0.41093
 H1941 H 0.50403 0.02316 0.37279
 H1942 H 0.52580 0.02738 0.39726
 H1943 H 0.45388 0.03348 0.37762
 H1944 H 0.48171 0.00862 0.35870
 H1945 H 0.47550 0.00342 0.32627
 H1946 H 0.45421 -0.00071 0.30114
 H1947 H 0.41061 0.01837 0.33639
 H1948 H 0.43168 0.02243 0.36145
   
