data_POSCAR
  _audit_creation_date              2014-09-24
  _audit_creation_method            'ToBaCCo'
  _symmetry_space_group_name_H-M    'P1'
  _symmetry_Int_Tables_number       1
  _symmetry_cell_setting            triclinic
  loop_
  _symmetry_equiv_pos_as_xyz
 x,y,z
_cell_length_a 46.5335
_cell_length_b 46.5540
_cell_length_c 46.6167
_cell_angle_alpha 90.032300
_cell_angle_beta 89.919700
_cell_angle_gamma 90.128400
loop_
  _atom_site_label
  _atom_site_type_symbol
  _atom_site_fract_x
  _atom_site_fract_y
  _atom_site_fract_z
O1 O 0.86847 0.15563 0.80017
 O2 O 0.89520 0.11465 0.79044
 O3 O 0.79116 0.12130 0.83787
 O4 O 0.77819 0.09601 0.87511
 O5 O 0.83393 0.19444 0.87650
 O6 O 0.87478 0.20039 0.90509
 O7 O 0.86238 0.04147 0.91247
 O8 O 0.82925 0.03589 0.87639
 O9 O 0.93784 0.07187 0.87588
 O10 O 0.95183 0.10914 0.84602
 O11 O 0.90542 0.11298 0.94946
 O12 O 0.86839 0.14489 0.96021
 O13 O 0.86618 0.07495 0.94776
 O14 O 0.83331 0.11935 0.95607
 O15 O 0.94042 0.11149 0.91553
 O16 O 0.94974 0.14441 0.87164
 O17 O 0.90097 0.03983 0.87511
 O18 O 0.85989 0.03586 0.84045
 O19 O 0.87202 0.19056 0.83409
 O20 O 0.90677 0.19507 0.87415
 O21 O 0.79639 0.16313 0.87749
 O22 O 0.78776 0.12197 0.91157
 O23 O 0.82451 0.11884 0.80223
 O24 O 0.86333 0.08337 0.79390
 Zr25 Zr 0.86452 0.11756 0.82378
 O26 O 0.89053 0.08955 0.84783
 Zr27 Zr 0.81547 0.12204 0.87548
 O28 O 0.83799 0.09211 0.90065
 Zr29 Zr 0.87020 0.16800 0.87363
 O30 O 0.89431 0.14130 0.90106
 Zr31 Zr 0.86375 0.06549 0.87486
 O32 O 0.83735 0.09207 0.84933
 Zr33 Zr 0.91778 0.11227 0.87593
 O34 O 0.89526 0.14047 0.84809
 Zr35 Zr 0.86726 0.11494 0.92611
 O36 O 0.84325 0.14532 0.90230
 O37 O 0.84075 0.14651 0.84798
 O38 O 0.89229 0.08662 0.90225
 C39 C 0.87122 0.18197 0.80779
 C40 C 0.79837 0.12002 0.81136
 C41 C 0.80700 0.18867 0.87804
 C42 C 0.86414 0.04882 0.93886
 C43 C 0.92791 0.04608 0.87553
 C44 C 0.93184 0.11203 0.94184
 H45 H 0.90173 0.07728 0.83465
 H46 H 0.90687 0.15351 0.91307
 H47 H 0.82913 0.15962 0.83599
 H48 H 0.82433 0.08063 0.91221
 H49 H 0.81388 0.04378 0.86403
 H50 H 0.78408 0.07676 0.88179
 H51 H 0.94922 0.15643 0.88915
 H52 H 0.91924 0.18895 0.85806
 H53 H 0.87739 0.03710 0.82845
 H54 H 0.84694 0.07092 0.79939
 H55 H 0.88025 0.16130 0.95371
 H56 H 0.86278 0.19438 0.92159
 H57 H 0.91251 0.12499 0.79726
 H58 H 0.94347 0.10181 0.82795
 H59 H 0.79321 0.13859 0.92367
 H60 H 0.82176 0.10148 0.95571
 O61 O 0.83862 0.69796 0.37731
 O62 O 0.87960 0.70519 0.40588
 O63 O 0.87283 0.65515 0.30305
 O64 O 0.90000 0.61377 0.29574
 O65 O 0.79596 0.62459 0.34250
 O66 O 0.78547 0.59667 0.38346
 O67 O 0.94183 0.57470 0.38226
 O68 O 0.95569 0.61113 0.34967
 O69 O 0.91136 0.62008 0.45393
 O70 O 0.87421 0.65294 0.46330
 O71 O 0.86671 0.54731 0.42101
 O72 O 0.83371 0.53901 0.38287
 O73 O 0.90439 0.54326 0.38269
 O74 O 0.86146 0.53820 0.34966
 O75 O 0.87266 0.58202 0.45474
 O76 O 0.83920 0.62671 0.46129
 O77 O 0.94580 0.61639 0.41958
 O78 O 0.95523 0.64646 0.37457
 O79 O 0.80107 0.66673 0.38049
 O80 O 0.79063 0.62860 0.41460
 O81 O 0.82911 0.61918 0.30699
 O82 O 0.86733 0.58306 0.30024
 O83 O 0.87761 0.69165 0.33513
 O84 O 0.91151 0.69865 0.37524
 Zr85 Zr 0.87511 0.67138 0.37594
 O86 O 0.89953 0.64589 0.40430
 Zr87 Zr 0.86901 0.61852 0.32858
 O88 O 0.89470 0.59140 0.35381
 Zr89 Zr 0.82024 0.62580 0.38026
 O90 O 0.84274 0.59743 0.40717
 Zr91 Zr 0.92247 0.61539 0.38039
 O92 O 0.89989 0.64252 0.35161
 Zr93 Zr 0.87274 0.62100 0.43107
 O94 O 0.84841 0.65006 0.40590
 Zr95 Zr 0.86768 0.56932 0.38224
 O96 O 0.84163 0.59465 0.35535
 O97 O 0.84555 0.64874 0.35150
 O98 O 0.89700 0.59128 0.40817
 C99 C 0.81165 0.69225 0.37934
 C100 C 0.87625 0.68173 0.30929
 C101 C 0.80308 0.62162 0.31606
 C102 C 0.93133 0.54916 0.38276
 C103 C 0.93767 0.61833 0.44596
 C104 C 0.86994 0.55557 0.44696
 H105 H 0.91235 0.65858 0.41551
 H106 H 0.82908 0.58698 0.41963
 H107 H 0.83406 0.66143 0.33895
 H108 H 0.90543 0.57818 0.34114
 H109 H 0.94770 0.60031 0.33326
 H110 H 0.91723 0.62453 0.30211
 H111 H 0.82811 0.60859 0.46244
 H112 H 0.79846 0.64292 0.42822
 H113 H 0.95420 0.66008 0.39084
 H114 H 0.92449 0.69118 0.36016
 H115 H 0.81875 0.54636 0.39603
 H116 H 0.79064 0.57979 0.37162
 H117 H 0.86743 0.70003 0.42254
 H118 H 0.88640 0.66872 0.45592
 H119 H 0.85078 0.57109 0.30625
 H120 H 0.87868 0.53822 0.33719
 O121 O 0.37043 0.15904 0.29740
 O122 O 0.39709 0.11760 0.28778
 O123 O 0.29398 0.12421 0.33751
 O124 O 0.28216 0.09987 0.37555
 O125 O 0.33691 0.19885 0.37288
 O126 O 0.37817 0.20536 0.40155
 O127 O 0.36884 0.04748 0.41254
 O128 O 0.33337 0.04073 0.37764
 O129 O 0.44193 0.07681 0.37311
 O130 O 0.45482 0.11371 0.34180
 O131 O 0.41058 0.11937 0.44632
 O132 O 0.37352 0.15233 0.45669
 O133 O 0.37236 0.08192 0.44685
 O134 O 0.33887 0.12558 0.45462
 O135 O 0.44493 0.11742 0.41171
 O136 O 0.45338 0.14931 0.36692
 O137 O 0.40508 0.04469 0.37334
 O138 O 0.36316 0.03924 0.34090
 O139 O 0.37493 0.19457 0.33057
 O140 O 0.40958 0.20038 0.36984
 O141 O 0.29981 0.16703 0.37516
 O142 O 0.29247 0.12712 0.41115
 O143 O 0.32646 0.12210 0.30106
 O144 O 0.36506 0.08664 0.29225
 Zr145 Zr 0.36706 0.12120 0.32164
 O146 O 0.39373 0.09377 0.34569
 Zr147 Zr 0.31922 0.12621 0.37435
 O148 O 0.34248 0.09714 0.39979
 Zr149 Zr 0.37348 0.17270 0.37038
 O150 O 0.39854 0.14675 0.39762
 Zr151 Zr 0.36783 0.07019 0.37400
 O152 O 0.34076 0.09593 0.34834
 Zr153 Zr 0.42158 0.11723 0.37256
 O154 O 0.39817 0.14480 0.34481
 Zr155 Zr 0.37208 0.12099 0.42385
 O156 O 0.34722 0.15049 0.39998
 O157 O 0.34369 0.15038 0.34582
 O158 O 0.39678 0.09226 0.40009
 C159 C 0.37354 0.18552 0.30449
 C160 C 0.30053 0.12297 0.31085
 C161 C 0.31006 0.19269 0.37468
 C162 C 0.37128 0.05551 0.43875
 C163 C 0.43197 0.05102 0.37328
 C164 C 0.43678 0.11823 0.43815
 H165 H 0.40464 0.08124 0.33250
 H166 H 0.41135 0.15927 0.40903
 H167 H 0.33182 0.16313 0.33368
 H168 H 0.32929 0.08579 0.41200
 H169 H 0.31778 0.04798 0.36517
 H170 H 0.28821 0.08104 0.38320
 H171 H 0.45317 0.16173 0.38415
 H172 H 0.42234 0.19358 0.35424
 H173 H 0.37941 0.04139 0.32737
 H174 H 0.34920 0.07399 0.29869
 H175 H 0.38638 0.16790 0.45002
 H176 H 0.36583 0.19979 0.41795
 H177 H 0.41444 0.12825 0.29399
 H178 H 0.44617 0.10535 0.32432
 H179 H 0.29794 0.14429 0.42244
 H180 H 0.32748 0.10762 0.45488
 O181 O 0.11677 0.33178 0.29894
 O182 O 0.08605 0.37345 0.29299
 O183 O 0.19367 0.36908 0.33305
 O184 O 0.20694 0.39396 0.37148
 O185 O 0.15400 0.29325 0.37318
 O186 O 0.11373 0.28710 0.40441
 O187 O 0.12465 0.44334 0.41624
 O188 O 0.15884 0.44915 0.37807
 O189 O 0.04899 0.41509 0.37786
 O190 O 0.03622 0.37596 0.34463
 O191 O 0.08122 0.37179 0.44956
 O192 O 0.12068 0.33575 0.45599
 O193 O 0.12237 0.40780 0.44956
 O194 O 0.15224 0.36518 0.45725
 O195 O 0.04660 0.37535 0.41546
 O196 O 0.03475 0.34441 0.37377
 O197 O 0.08604 0.44698 0.37863
 O198 O 0.12497 0.45433 0.34543
 O199 O 0.11398 0.29701 0.33307
 O200 O 0.08194 0.29006 0.37282
 O201 O 0.19102 0.32522 0.37207
 O202 O 0.20137 0.36340 0.40628
 O203 O 0.15823 0.37114 0.29957
 O204 O 0.11961 0.40361 0.29240
 Zr205 Zr 0.11983 0.37021 0.32310
 O206 O 0.09563 0.39836 0.34891
 Zr207 Zr 0.17118 0.36580 0.37241
 O208 O 0.14895 0.39351 0.40053
 Zr209 Zr 0.11704 0.31898 0.37228
 O210 O 0.09239 0.34456 0.40020
 Zr211 Zr 0.12286 0.42133 0.37675
 O212 O 0.14751 0.39584 0.34831
 Zr213 Zr 0.06882 0.37453 0.37623
 O214 O 0.09064 0.34631 0.34802
 Zr215 Zr 0.11984 0.36964 0.42574
 O216 O 0.14467 0.34150 0.40001
 O217 O 0.14516 0.34138 0.34567
 O218 O 0.09462 0.39898 0.40344
 C219 C 0.11452 0.30535 0.30681
 C220 C 0.18481 0.37118 0.30696
 C221 C 0.18087 0.29954 0.37310
 C222 C 0.12400 0.43436 0.44232
 C223 C 0.05919 0.44075 0.37880
 C224 C 0.05484 0.37407 0.44171
 H225 H 0.08440 0.41129 0.33644
 H226 H 0.07981 0.33206 0.41189
 H227 H 0.15666 0.32891 0.33285
 H228 H 0.16280 0.40441 0.41237
 H229 H 0.17228 0.44262 0.36291
 H230 H 0.20207 0.41086 0.38337
 H231 H 0.03797 0.32968 0.38870
 H232 H 0.06718 0.29821 0.35992
 H233 H 0.10997 0.45063 0.33089
 H234 H 0.13308 0.41847 0.29953
 H235 H 0.10340 0.32373 0.45289
 H236 H 0.12749 0.29252 0.41966
 H237 H 0.07074 0.36016 0.29949
 H238 H 0.04189 0.39046 0.33019
 H239 H 0.19411 0.34884 0.41998
 H240 H 0.16770 0.37908 0.45273
 O241 O 0.62186 0.83090 0.30105
 O242 O 0.59126 0.87299 0.29263
 O243 O 0.69774 0.86907 0.33656
 O244 O 0.70914 0.89593 0.37450
 O245 O 0.65662 0.79492 0.37700
 O246 O 0.61483 0.79033 0.40787
 O247 O 0.62515 0.94562 0.41556
 O248 O 0.66130 0.95067 0.37803
 O249 O 0.55122 0.91705 0.37366
 O250 O 0.54103 0.87643 0.34013
 O251 O 0.58057 0.87583 0.44756
 O252 O 0.61959 0.83870 0.45639
 O253 O 0.62213 0.91060 0.44935
 O254 O 0.65054 0.86896 0.45948
 O255 O 0.54734 0.87872 0.41199
 O256 O 0.53663 0.84694 0.37153
 O257 O 0.58816 0.94898 0.37585
 O258 O 0.62474 0.95580 0.34468
 O259 O 0.61771 0.79721 0.33611
 O260 O 0.58494 0.79110 0.37435
 O261 O 0.69370 0.82684 0.37637
 O262 O 0.70261 0.86629 0.40996
 O263 O 0.66354 0.87007 0.30183
 O264 O 0.62434 0.90136 0.29055
 Zr265 Zr 0.62423 0.87032 0.32368
 O266 O 0.59938 0.89959 0.34755
 Zr267 Zr 0.67366 0.86743 0.37496
 O268 O 0.65026 0.89577 0.40149
 Zr269 Zr 0.61959 0.82054 0.37433
 O270 O 0.59355 0.84699 0.39995
 Zr271 Zr 0.62511 0.92313 0.37618
 O272 O 0.65087 0.89693 0.34915
 Zr273 Zr 0.57123 0.87644 0.37405
 O274 O 0.59417 0.84706 0.34807
 Zr275 Zr 0.62016 0.87241 0.42591
 O276 O 0.64628 0.84378 0.40227
 O277 O 0.64861 0.84218 0.34808
 O278 O 0.59586 0.90129 0.40197
 C279 C 0.61920 0.80475 0.30970
 C280 C 0.68980 0.87018 0.31015
 C281 C 0.68354 0.80115 0.37754
 C282 C 0.62374 0.93699 0.44176
 C283 C 0.56126 0.94278 0.37469
 C284 C 0.55463 0.87827 0.43850
 H285 H 0.58917 0.91259 0.33426
 H286 H 0.58037 0.83489 0.41140
 H287 H 0.66052 0.82930 0.33609
 H288 H 0.66362 0.90687 0.41371
 H289 H 0.67425 0.94488 0.36219
 H290 H 0.70340 0.91335 0.38518
 H291 H 0.53970 0.83203 0.38630
 H292 H 0.57005 0.79932 0.36164
 H293 H 0.63637 0.94865 0.32846
 H294 H 0.63970 0.91536 0.29505
 H295 H 0.60149 0.82779 0.45388
 H296 H 0.62929 0.79532 0.42262
 H297 H 0.57626 0.85897 0.29829
 H298 H 0.54642 0.89196 0.32669
 H299 H 0.69523 0.85170 0.42357
 H300 H 0.66719 0.88117 0.45438
 O301 O 0.63316 0.67078 0.19287
 O302 O 0.60121 0.63332 0.20714
 O303 O 0.70425 0.61868 0.15875
 O304 O 0.71069 0.58804 0.12261
 O305 O 0.67439 0.69503 0.11609
 O306 O 0.63498 0.70285 0.08312
 O307 O 0.62051 0.54657 0.09106
 O308 O 0.65376 0.54018 0.12969
 O309 O 0.55076 0.59137 0.12835
 O310 O 0.54774 0.63502 0.15897
 O311 O 0.58425 0.61950 0.05173
 O312 O 0.62503 0.64630 0.03628
 O313 O 0.62105 0.57763 0.05352
 O314 O 0.65652 0.61679 0.04004
 O315 O 0.55227 0.62642 0.08796
 O316 O 0.54888 0.66329 0.12622
 O317 O 0.58176 0.55377 0.12753
 O318 O 0.61602 0.54470 0.16188
 O319 O 0.63454 0.70199 0.15534
 O320 O 0.60349 0.70886 0.11518
 O321 O 0.70570 0.65762 0.11712
 O322 O 0.70648 0.61420 0.08548
 O323 O 0.67242 0.62760 0.19471
 O324 O 0.62971 0.60078 0.20914
 Zr325 Zr 0.63213 0.62958 0.17409
 O326 O 0.60176 0.60301 0.15358
 Zr327 Zr 0.67940 0.62085 0.12140
 O328 O 0.65115 0.59365 0.09873
 Zr329 Zr 0.63372 0.67526 0.11912
 O330 O 0.60344 0.65069 0.09622
 Zr331 Zr 0.62269 0.57321 0.12719
 O332 O 0.65353 0.59737 0.15054
 Zr333 Zr 0.57729 0.62784 0.12514
 O334 O 0.60538 0.65507 0.14815
 Zr335 Zr 0.62456 0.61873 0.07233
 O336 O 0.65525 0.64579 0.09256
 O337 O 0.65951 0.65171 0.14676
 O338 O 0.59675 0.59669 0.09953
 C339 C 0.63354 0.69628 0.18225
 C340 C 0.69787 0.62236 0.18529
 C341 C 0.69996 0.68461 0.11586
 C342 C 0.62012 0.55211 0.06409
 C343 C 0.55627 0.56436 0.12800
 C344 C 0.55858 0.62279 0.06144
 H345 H 0.58972 0.59308 0.16802
 H346 H 0.59205 0.66354 0.08379
 H347 H 0.67308 0.66385 0.15776
 H348 H 0.66261 0.57957 0.08773
 H349 H 0.66720 0.54550 0.14527
 H350 H 0.70063 0.56981 0.11836
 H351 H 0.55239 0.67496 0.10883
 H352 H 0.58812 0.70487 0.12934
 H353 H 0.62759 0.55213 0.17798
 H354 H 0.64478 0.58608 0.20631
 H355 H 0.61633 0.66470 0.04229
 H356 H 0.64823 0.69397 0.06906
 H357 H 0.58587 0.64595 0.19964
 H358 H 0.55023 0.61954 0.17327
 H359 H 0.70262 0.62997 0.07178
 H360 H 0.66850 0.59969 0.04385
 O361 O 0.37045 0.83444 0.69704
 O362 O 0.40120 0.87293 0.71287
 O363 O 0.29989 0.88506 0.65983
 O364 O 0.29468 0.91619 0.62429
 O365 O 0.33414 0.81034 0.61740
 O366 O 0.37617 0.80370 0.58713
 O367 O 0.38356 0.96012 0.59623
 O368 O 0.34954 0.96517 0.63490
 O369 O 0.45414 0.91752 0.63519
 O370 O 0.45689 0.87431 0.66735
 O371 O 0.42444 0.88785 0.55875
 O372 O 0.38449 0.85973 0.54169
 O373 O 0.38687 0.92861 0.55909
 O374 O 0.35356 0.88939 0.54342
 O375 O 0.45551 0.88125 0.59576
 O376 O 0.45822 0.84549 0.63484
 O377 O 0.42205 0.95413 0.63310
 O378 O 0.38696 0.96188 0.66724
 O379 O 0.37113 0.80373 0.65906
 O380 O 0.40515 0.79796 0.62148
 O381 O 0.30176 0.84686 0.61788
 O382 O 0.30121 0.89057 0.58699
 O383 O 0.33002 0.87676 0.69727
 O384 O 0.37109 0.90452 0.71411
 Zr385 Zr 0.37160 0.87608 0.67869
 O386 O 0.40219 0.90383 0.65959
 Zr387 Zr 0.32676 0.88412 0.62397
 O388 O 0.35515 0.91208 0.60271
 Zr389 Zr 0.37401 0.83091 0.62341
 O390 O 0.40464 0.85637 0.60211
 Zr391 Zr 0.38176 0.93326 0.63238
 O392 O 0.35064 0.90801 0.65437
 Zr393 Zr 0.42883 0.88001 0.63208
 O394 O 0.40042 0.85175 0.65373
 Zr395 Zr 0.38346 0.88762 0.57754
 O396 O 0.35270 0.85978 0.59618
 O397 O 0.34620 0.85353 0.64993
 O398 O 0.40947 0.91050 0.60574
 C399 C 0.37058 0.80899 0.68605
 C400 C 0.30489 0.88119 0.68656
 C401 C 0.30836 0.82012 0.61610
 C402 C 0.38565 0.95416 0.56942
 C403 C 0.44787 0.94439 0.63403
 C404 C 0.44981 0.88469 0.56906
 H405 H 0.41328 0.91407 0.67451
 H406 H 0.41690 0.84379 0.59019
 H407 H 0.33235 0.84091 0.66001
 H408 H 0.34367 0.92576 0.59128
 H409 H 0.33619 0.95938 0.65044
 H410 H 0.30457 0.93473 0.62115
 H411 H 0.45525 0.83309 0.61787
 H412 H 0.41952 0.80236 0.63650
 H413 H 0.37675 0.95316 0.68364
 H414 H 0.35625 0.91919 0.71019
 H415 H 0.39590 0.84269 0.54712
 H416 H 0.36350 0.81221 0.57237
 H417 H 0.41728 0.86099 0.70576
 H418 H 0.45393 0.89043 0.68085
 H419 H 0.30619 0.87517 0.57321
 H420 H 0.34046 0.90568 0.54716
 O421 O 0.87359 0.34078 0.71099
 O422 O 0.90482 0.37763 0.72308
 O423 O 0.80448 0.38808 0.66957
 O424 O 0.79916 0.41633 0.63216
 O425 O 0.83553 0.30946 0.63226
 O426 O 0.87645 0.29694 0.60524
 O427 O 0.89159 0.45578 0.60082
 O428 O 0.85966 0.46670 0.63613
 O429 O 0.95988 0.41198 0.64096
 O430 O 0.96230 0.37079 0.67413
 O431 O 0.92685 0.37997 0.56609
 O432 O 0.88768 0.35329 0.55124
 O433 O 0.89021 0.42241 0.56517
 O434 O 0.85447 0.38116 0.55406
 O435 O 0.95861 0.37424 0.60261
 O436 O 0.95992 0.33961 0.64408
 O437 O 0.92917 0.44969 0.63754
 O438 O 0.88797 0.45981 0.67352
 O439 O 0.87324 0.30601 0.67671
 O440 O 0.90688 0.29558 0.63765
 O441 O 0.80464 0.34714 0.62981
 O442 O 0.80541 0.38885 0.59612
 O443 O 0.83499 0.38240 0.70721
 O444 O 0.87745 0.41305 0.71838
 Zr445 Zr 0.87614 0.37929 0.68803
 O446 O 0.90819 0.40296 0.66638
 Zr447 Zr 0.83075 0.38381 0.63348
 O448 O 0.85976 0.40939 0.61022
 Zr449 Zr 0.87612 0.32894 0.63741
 O450 O 0.90666 0.35147 0.61253
 Zr451 Zr 0.88788 0.43121 0.63802
 O452 O 0.85562 0.40933 0.66144
 Zr453 Zr 0.93284 0.37586 0.63994
 O454 O 0.90373 0.35153 0.66514
 Zr455 Zr 0.88652 0.38221 0.58621
 O456 O 0.85570 0.35637 0.60773
 O457 O 0.84946 0.35491 0.66183
 O458 O 0.91410 0.40561 0.61234
 C459 C 0.87304 0.31439 0.70310
 C460 C 0.80975 0.38601 0.69646
 C461 C 0.81025 0.32016 0.62939
 C462 C 0.89162 0.44851 0.57432
 C463 C 0.95452 0.43890 0.63871
 C464 C 0.95242 0.37664 0.57583
 H465 H 0.92034 0.41329 0.68037
 H466 H 0.91794 0.33765 0.60103
 H467 H 0.83529 0.34350 0.67288
 H468 H 0.84870 0.42286 0.59815
 H469 H 0.84250 0.46147 0.64758
 H470 H 0.80904 0.43424 0.62641
 H471 H 0.95704 0.32729 0.62702
 H472 H 0.92067 0.30015 0.65315
 H473 H 0.90683 0.45870 0.68321
 H474 H 0.86348 0.42769 0.71194
 H475 H 0.89361 0.33445 0.55896
 H476 H 0.86645 0.30524 0.58846
 H477 H 0.92163 0.36646 0.71641
 H478 H 0.95910 0.38661 0.68793
 H479 H 0.80868 0.37174 0.58393
 H480 H 0.84411 0.39969 0.55473
 O481 O 0.81033 0.87689 0.18030
 O482 O 0.79833 0.90970 0.14336
 O483 O 0.83518 0.80205 0.13204
 O484 O 0.87052 0.78739 0.10487
 O485 O 0.88683 0.83476 0.20567
 O486 O 0.92020 0.87190 0.21041
 O487 O 0.90746 0.87510 0.05198
 O488 O 0.86841 0.84528 0.04808
 O489 O 0.87951 0.94951 0.09446
 O490 O 0.85508 0.96057 0.13692
 O491 O 0.95514 0.90890 0.12165
 O492 O 0.96690 0.86780 0.14890
 O493 O 0.94641 0.87263 0.08111
 O494 O 0.95726 0.83579 0.12120
 O495 O 0.92332 0.94548 0.12690
 O496 O 0.88628 0.95446 0.16653
 O497 O 0.87276 0.91644 0.05922
 O498 O 0.83490 0.87722 0.05559
 O499 O 0.84856 0.87539 0.21062
 O500 O 0.89144 0.90666 0.21236
 O501 O 0.87918 0.79995 0.17235
 O502 O 0.90926 0.79299 0.12659
 O503 O 0.80309 0.83830 0.13824
 O504 O 0.79358 0.88063 0.11015
 Zr505 Zr 0.82826 0.87588 0.13901
 O506 O 0.85075 0.90238 0.11021
 Zr507 Zr 0.87550 0.82277 0.13284
 O508 O 0.89903 0.84642 0.10191
 Zr509 Zr 0.88429 0.87298 0.18271
 O510 O 0.91004 0.89769 0.15496
 Zr511 Zr 0.87285 0.87647 0.08076
 O512 O 0.84838 0.84961 0.10821
 Zr513 Zr 0.88314 0.92523 0.13185
 O514 O 0.85748 0.90220 0.16143
 Zr515 Zr 0.92955 0.87175 0.12342
 O516 O 0.90749 0.84636 0.15433
 O517 O 0.85347 0.84762 0.16246
 O518 O 0.90450 0.90097 0.10082
 C519 C 0.82142 0.87665 0.20552
 C520 C 0.80940 0.81172 0.13431
 C521 C 0.88402 0.80843 0.19830
 C522 C 0.93470 0.87395 0.05607
 C523 C 0.87556 0.94245 0.06821
 C524 C 0.94886 0.93568 0.12342
 H525 H 0.83704 0.91546 0.10071
 H526 H 0.92441 0.90829 0.16645
 H527 H 0.84182 0.83559 0.17560
 H528 H 0.90798 0.83315 0.08795
 H529 H 0.85686 0.82944 0.05635
 H530 H 0.87304 0.79493 0.08521
 H531 H 0.90508 0.95146 0.17594
 H532 H 0.87583 0.92079 0.20958
 H533 H 0.82474 0.89549 0.05931
 H534 H 0.79698 0.86698 0.09423
 H535 H 0.96370 0.87923 0.16650
 H536 H 0.93448 0.85909 0.20125
 H537 H 0.80754 0.92442 0.15566
 H538 H 0.83634 0.95496 0.12864
 H539 H 0.92305 0.79581 0.14251
 H540 H 0.95302 0.82530 0.10324
 O541 O 0.37920 0.34269 0.20366
 O542 O 0.41363 0.38135 0.20579
 O543 O 0.30357 0.38459 0.17423
 O544 O 0.29251 0.41452 0.13806
 O545 O 0.32886 0.30666 0.13320
 O546 O 0.36614 0.29263 0.10187
 O547 O 0.37691 0.44853 0.08146
 O548 O 0.34666 0.46155 0.12204
 O549 O 0.45018 0.41150 0.11761
 O550 O 0.46039 0.37207 0.14798
 O551 O 0.40399 0.37129 0.04880
 O552 O 0.36027 0.34056 0.04779
 O553 O 0.36915 0.41175 0.05033
 O554 O 0.33233 0.37350 0.04878
 O555 O 0.44220 0.37353 0.07901
 O556 O 0.45230 0.33886 0.12127
 O557 O 0.41869 0.44874 0.11849
 O558 O 0.38405 0.46348 0.15119
 O559 O 0.37261 0.30609 0.17198
 O560 O 0.40038 0.29350 0.13010
 O561 O 0.29699 0.34363 0.13501
 O562 O 0.28941 0.38307 0.10241
 O563 O 0.34131 0.38406 0.20518
 O564 O 0.38334 0.41497 0.20671
 Zr565 Zr 0.37759 0.38004 0.17825
 O566 O 0.40359 0.40293 0.14910
 Zr567 Zr 0.32258 0.38080 0.13342
 O568 O 0.34596 0.40416 0.10239
 Zr569 Zr 0.36943 0.32664 0.13175
 O570 O 0.39459 0.34739 0.10034
 Zr571 Zr 0.37810 0.42880 0.12233
 O572 O 0.35208 0.40841 0.15395
 Zr573 Zr 0.42424 0.37462 0.12064
 O574 O 0.40119 0.35138 0.15236
 Zr575 Zr 0.36851 0.37508 0.07624
 O576 O 0.34277 0.35170 0.10530
 O577 O 0.34703 0.35378 0.15904
 O578 O 0.39989 0.40143 0.09454
 C579 C 0.37673 0.31587 0.19749
 C580 C 0.31425 0.38513 0.19967
 C581 C 0.30319 0.31680 0.13366
 C582 C 0.37305 0.43840 0.05601
 C583 C 0.44430 0.43844 0.11744
 C584 C 0.43104 0.37212 0.05379
 H585 H 0.41759 0.41439 0.16023
 H586 H 0.40419 0.33295 0.08813
 H587 H 0.33516 0.34275 0.17282
 H588 H 0.33282 0.41649 0.09122
 H589 H 0.33408 0.45821 0.13888
 H590 H 0.29798 0.42980 0.12436
 H591 H 0.44894 0.32745 0.10368
 H592 H 0.41712 0.30029 0.14131
 H593 H 0.39467 0.45605 0.16794
 H594 H 0.36876 0.42954 0.20155
 H595 H 0.37612 0.32656 0.04966
 H596 H 0.35348 0.29954 0.08630
 H597 H 0.42688 0.36611 0.19915
 H598 H 0.45687 0.38524 0.16426
 H599 H 0.29297 0.36752 0.08836
 H600 H 0.32073 0.39096 0.05220
 O601 O 0.37271 0.66951 0.80216
 O602 O 0.40283 0.62595 0.79252
 O603 O 0.29889 0.63085 0.84312
 O604 O 0.29018 0.60436 0.88199
 O605 O 0.34243 0.70555 0.87940
 O606 O 0.38619 0.70970 0.90856
 O607 O 0.37501 0.55520 0.91819
 O608 O 0.33700 0.55026 0.88231
 O609 O 0.44712 0.58235 0.87085
 O610 O 0.45464 0.62267 0.83519
 O611 O 0.42348 0.62545 0.94538
 O612 O 0.38472 0.66301 0.95636
 O613 O 0.38174 0.59079 0.95087
 O614 O 0.35514 0.63184 0.96308
 O615 O 0.45431 0.62191 0.90769
 O616 O 0.46235 0.65208 0.86625
 O617 O 0.41004 0.55097 0.87614
 O618 O 0.37184 0.54379 0.84759
 O619 O 0.37917 0.70296 0.83709
 O620 O 0.41371 0.70937 0.87282
 O621 O 0.30550 0.67351 0.88138
 O622 O 0.29865 0.63519 0.91635
 O623 O 0.33037 0.62910 0.80580
 O624 O 0.36837 0.59962 0.79116
 Zr625 Zr 0.37126 0.62976 0.82498
 O626 O 0.39725 0.60022 0.84750
 Zr627 Zr 0.32546 0.63303 0.87965
 O628 O 0.35041 0.60509 0.90498
 Zr629 Zr 0.37933 0.67972 0.87513
 O630 O 0.40720 0.65335 0.89873
 Zr631 Zr 0.37349 0.57718 0.87833
 O632 O 0.34643 0.60333 0.85258
 Zr633 Zr 0.42749 0.62330 0.87167
 O634 O 0.40295 0.65288 0.84735
 Zr635 Zr 0.38234 0.62851 0.92683
 O636 O 0.35451 0.65685 0.90497
 O637 O 0.34866 0.65803 0.85086
 O638 O 0.40470 0.59904 0.90166
 C639 C 0.37622 0.69568 0.81079
 C640 C 0.30479 0.62911 0.81621
 C641 C 0.31557 0.69924 0.88129
 C642 C 0.37858 0.56432 0.94408
 C643 C 0.43688 0.55674 0.87315
 C644 C 0.44881 0.62302 0.93463
 H645 H 0.40639 0.58689 0.83373
 H646 H 0.42122 0.66554 0.90901
 H647 H 0.33610 0.67075 0.83941
 H648 H 0.33781 0.59437 0.91831
 H649 H 0.32339 0.55603 0.86705
 H650 H 0.29636 0.58748 0.89325
 H651 H 0.45982 0.66793 0.88014
 H652 H 0.42805 0.70093 0.85959
 H653 H 0.36003 0.55100 0.83157
 H654 H 0.35579 0.58390 0.79796
 H655 H 0.40299 0.67337 0.95293
 H656 H 0.37157 0.70572 0.92349
 H657 H 0.41752 0.64088 0.79638
 H658 H 0.44920 0.60591 0.82330
 H659 H 0.30693 0.64998 0.92920
 H660 H 0.33704 0.62173 0.95838
 O661 O 0.13372 0.65878 0.69677
 O662 O 0.10181 0.61961 0.70155
 O663 O 0.20781 0.61923 0.65874
 O664 O 0.21751 0.59290 0.62025
 O665 O 0.17672 0.69873 0.62398
 O666 O 0.13775 0.71216 0.59555
 O667 O 0.12854 0.55522 0.57374
 O668 O 0.16143 0.54241 0.61004
 O669 O 0.05754 0.59076 0.61542
 O670 O 0.04905 0.62957 0.64773
 O671 O 0.09604 0.63172 0.54385
 O672 O 0.13771 0.66330 0.53806
 O673 O 0.13236 0.59209 0.54201
 O674 O 0.16819 0.63263 0.53799
 O675 O 0.06060 0.62937 0.57729
 O676 O 0.05393 0.66321 0.62079
 O677 O 0.08984 0.55425 0.61358
 O678 O 0.12903 0.54087 0.64429
 O679 O 0.13503 0.69650 0.66580
 O680 O 0.10459 0.70921 0.62513
 O681 O 0.20953 0.66265 0.62148
 O682 O 0.21462 0.62430 0.58566
 O683 O 0.17342 0.61922 0.69343
 O684 O 0.13231 0.58640 0.69754
 Zr685 Zr 0.13455 0.62257 0.67019
 O686 O 0.10623 0.59990 0.64325
 Zr687 Zr 0.18508 0.62467 0.62028
 O688 O 0.15963 0.60067 0.59157
 Zr689 Zr 0.13681 0.67727 0.62450
 O690 O 0.10979 0.65622 0.59473
 Zr691 Zr 0.13013 0.57503 0.61422
 O692 O 0.15870 0.59569 0.64308
 Zr693 Zr 0.08259 0.62812 0.61708
 O694 O 0.10784 0.65109 0.64726
 Zr695 Zr 0.13404 0.62919 0.56786
 O696 O 0.16143 0.65345 0.59485
 O697 O 0.16239 0.65028 0.64894
 O698 O 0.10519 0.60196 0.58874
 C699 C 0.13362 0.68576 0.69129
 C700 C 0.19979 0.61813 0.68511
 C701 C 0.20264 0.68935 0.62224
 C702 C 0.12997 0.56528 0.54812
 C703 C 0.06405 0.56403 0.61457
 C704 C 0.06947 0.63061 0.55112
 H705 H 0.09347 0.58807 0.65543
 H706 H 0.09881 0.67051 0.58359
 H707 H 0.17497 0.66127 0.66210
 H708 H 0.17208 0.58877 0.57915
 H709 H 0.17662 0.54664 0.62429
 H710 H 0.21045 0.57671 0.60845
 H711 H 0.05548 0.67493 0.60316
 H712 H 0.08931 0.70220 0.63817
 H713 H 0.11571 0.54626 0.65992
 H714 H 0.14712 0.57270 0.69082
 H715 H 0.12330 0.67801 0.54322
 H716 H 0.14802 0.70525 0.57828
 H717 H 0.08668 0.63334 0.69577
 H718 H 0.05385 0.61566 0.66300
 H719 H 0.21024 0.64116 0.57351
 H720 H 0.17983 0.61492 0.53928
 O721 O 0.12617 0.17475 0.18649
 O722 O 0.09499 0.13837 0.20006
 O723 O 0.19975 0.12471 0.15626
 O724 O 0.21007 0.09456 0.12188
 O725 O 0.17010 0.19931 0.11130
 O726 O 0.13263 0.20647 0.07682
 O727 O 0.12064 0.04828 0.08792
 O728 O 0.15144 0.04273 0.12609
 O729 O 0.04886 0.09287 0.11851
 O730 O 0.04093 0.13697 0.14412
 O731 O 0.08869 0.12000 0.04181
 O732 O 0.12859 0.14545 0.02882
 O733 O 0.12341 0.07807 0.04943
 O734 O 0.16148 0.11775 0.03770
 O735 O 0.05300 0.12551 0.07461
 O736 O 0.04657 0.16541 0.11213
 O737 O 0.08084 0.05627 0.12261
 O738 O 0.11943 0.05059 0.16006
 O739 O 0.12787 0.20563 0.14871
 O740 O 0.09840 0.21043 0.10596
 O741 O 0.20223 0.16271 0.11422
 O742 O 0.20546 0.11827 0.08320
 O743 O 0.16606 0.13204 0.19086
 O744 O 0.12240 0.10346 0.20149
 Zr745 Zr 0.12663 0.13366 0.16787
 O746 O 0.09755 0.10677 0.14590
 Zr747 Zr 0.17701 0.12539 0.11798
 O748 O 0.15116 0.09633 0.09516
 Zr749 Zr 0.12994 0.17846 0.11242
 O750 O 0.10261 0.15240 0.08732
 Zr751 Zr 0.12128 0.07647 0.12262
 O752 O 0.15043 0.10192 0.14631
 Zr753 Zr 0.07463 0.12975 0.11448
 O754 O 0.10043 0.15765 0.13970
 Zr755 Zr 0.12621 0.12009 0.06634
 O756 O 0.15402 0.14925 0.08758
 O757 O 0.15489 0.15608 0.14175
 O758 O 0.09688 0.09817 0.09205
 C759 C 0.12618 0.20015 0.17573
 C760 C 0.19219 0.12796 0.18245
 C761 C 0.19586 0.18946 0.11230
 C762 C 0.12156 0.05294 0.06087
 C763 C 0.05515 0.06614 0.12097
 C764 C 0.06212 0.12202 0.04872
 H765 H 0.08441 0.09764 0.15985
 H766 H 0.09215 0.16455 0.07345
 H767 H 0.16752 0.16867 0.15333
 H768 H 0.16347 0.08202 0.08544
 H769 H 0.16712 0.04982 0.13858
 H770 H 0.20149 0.07571 0.11716
 H771 H 0.04952 0.17481 0.09332
 H772 H 0.08295 0.20669 0.12010
 H773 H 0.10162 0.05518 0.17070
 H774 H 0.13646 0.08801 0.19761
 H775 H 0.12247 0.16502 0.03430
 H776 H 0.14650 0.19775 0.06326
 H777 H 0.07876 0.14860 0.19096
 H778 H 0.04532 0.12580 0.16160
 H779 H 0.20345 0.13472 0.06991
 H780 H 0.17071 0.09880 0.04024
 O781 O 0.69880 0.36438 0.84193
 O782 O 0.70912 0.39499 0.87951
 O783 O 0.65431 0.29459 0.88385
 O784 O 0.61444 0.28887 0.90982
 O785 O 0.62353 0.32884 0.80433
 O786 O 0.59548 0.36942 0.79224
 O787 O 0.58211 0.38149 0.94989
 O788 O 0.61529 0.34592 0.96087
 O789 O 0.62659 0.44895 0.91170
 O790 O 0.66162 0.45266 0.87244
 O791 O 0.55232 0.41894 0.87404
 O792 O 0.53887 0.38044 0.84496
 O793 O 0.54791 0.38120 0.91516
 O794 O 0.53905 0.34644 0.87272
 O795 O 0.59008 0.44991 0.87215
 O796 O 0.63319 0.45205 0.83981
 O797 O 0.62178 0.41716 0.94838
 O798 O 0.65303 0.37983 0.95967
 O799 O 0.66682 0.36782 0.80524
 O800 O 0.62761 0.40052 0.79340
 O801 O 0.61760 0.29646 0.84038
 O802 O 0.58063 0.29611 0.87970
 O803 O 0.69233 0.32530 0.88205
 O804 O 0.70281 0.36813 0.91375
 Zr805 Zr 0.67372 0.36648 0.87888
 O806 O 0.65103 0.39759 0.90229
 Zr807 Zr 0.61852 0.32134 0.87839
 O808 O 0.59385 0.34989 0.90350
 Zr809 Zr 0.62605 0.36870 0.82572
 O810 O 0.60024 0.39875 0.84781
 Zr811 Zr 0.62066 0.37677 0.92795
 O812 O 0.64527 0.34500 0.90662
 Zr813 Zr 0.62667 0.42354 0.87460
 O814 O 0.65283 0.39515 0.85073
 Zr815 Zr 0.57164 0.37802 0.87622
 O816 O 0.59449 0.34770 0.85070
 O817 O 0.64876 0.34100 0.85208
 O818 O 0.59691 0.40431 0.90201
 C819 C 0.69259 0.36614 0.81525
 C820 C 0.68138 0.30000 0.88408
 C821 C 0.62005 0.30305 0.81365
 C822 C 0.55595 0.38251 0.94160
 C823 C 0.62406 0.44283 0.93841
 C824 C 0.56301 0.44441 0.87258
 H825 H 0.66456 0.40892 0.91412
 H826 H 0.58979 0.41074 0.83380
 H827 H 0.66061 0.32727 0.84100
 H828 H 0.58071 0.33869 0.91592
 H829 H 0.62912 0.33029 0.95692
 H830 H 0.60751 0.29830 0.92751
 H831 H 0.61666 0.45011 0.82663
 H832 H 0.64251 0.41452 0.79929
 H833 H 0.66620 0.36350 0.95666
 H834 H 0.69989 0.35058 0.92538
 H835 H 0.54820 0.38611 0.82676
 H836 H 0.57875 0.35814 0.79905
 H837 H 0.70344 0.41181 0.86785
 H838 H 0.67479 0.44821 0.88847
 H839 H 0.56959 0.30052 0.86211
 H840 H 0.53891 0.33525 0.89076
 O841 O 0.12171 0.83604 0.79836
 O842 O 0.09437 0.87566 0.78855
 O843 O 0.19771 0.87229 0.83671
 O844 O 0.20997 0.89744 0.87414
 O845 O 0.15780 0.79740 0.87447
 O846 O 0.11685 0.78932 0.90229
 O847 O 0.12382 0.94891 0.91092
 O848 O 0.15609 0.95640 0.87498
 O849 O 0.04915 0.91615 0.87507
 O850 O 0.03645 0.87830 0.84541
 O851 O 0.08378 0.87610 0.94827
 O852 O 0.12120 0.84588 0.95901
 O853 O 0.12178 0.91563 0.94647
 O854 O 0.15613 0.87175 0.95406
 O855 O 0.04824 0.87674 0.91503
 O856 O 0.04033 0.84286 0.87099
 O857 O 0.08508 0.94928 0.87427
 O858 O 0.12593 0.95462 0.83895
 O859 O 0.11983 0.80032 0.83152
 O860 O 0.08462 0.79450 0.87174
 O861 O 0.19407 0.83016 0.87552
 O862 O 0.20096 0.87139 0.91020
 O863 O 0.16483 0.87396 0.80073
 O864 O 0.12422 0.90860 0.79329
 Zr865 Zr 0.12452 0.87371 0.82234
 O866 O 0.09712 0.90022 0.84668
 Zr867 Zr 0.17343 0.87040 0.87406
 O868 O 0.14995 0.89951 0.89922
 Zr869 Zr 0.12048 0.82250 0.87157
 O870 O 0.09560 0.84818 0.89960
 Zr871 Zr 0.12316 0.92506 0.87350
 O872 O 0.15079 0.89980 0.84802
 Zr873 Zr 0.07078 0.87647 0.87500
 O874 O 0.09447 0.84956 0.84656
 Zr875 Zr 0.12170 0.87551 0.92466
 O876 O 0.14651 0.84588 0.90060
 O877 O 0.14919 0.84533 0.84622
 O878 O 0.09554 0.90295 0.90112
 C879 C 0.12015 0.80950 0.80537
 C880 C 0.19090 0.87351 0.81016
 C881 C 0.18451 0.80424 0.87597
 C882 C 0.12278 0.94176 0.93734
 C883 C 0.05839 0.94218 0.87483
 C884 C 0.05723 0.87646 0.94125
 H885 H 0.08541 0.91212 0.83362
 H886 H 0.08357 0.83551 0.91171
 H887 H 0.16132 0.83275 0.83411
 H888 H 0.16325 0.91146 0.91071
 H889 H 0.17209 0.94904 0.86307
 H890 H 0.20322 0.91679 0.87965
 H891 H 0.04092 0.83139 0.88883
 H892 H 0.07234 0.80011 0.85535
 H893 H 0.10800 0.95350 0.82765
 H894 H 0.14100 0.92082 0.79801
 H895 H 0.11146 0.82837 0.95193
 H896 H 0.12810 0.79565 0.91916
 H897 H 0.07687 0.86576 0.79557
 H898 H 0.04456 0.88550 0.82716
 H899 H 0.19671 0.85407 0.92178
 H900 H 0.16667 0.89023 0.95431
 O901 O 0.70193 0.12619 0.65364
 O902 O 0.70864 0.09558 0.61411
 O903 O 0.67399 0.20447 0.61482
 O904 O 0.63845 0.21817 0.58527
 O905 O 0.62872 0.17247 0.68881
 O906 O 0.59547 0.13417 0.69608
 O907 O 0.59199 0.13614 0.53780
 O908 O 0.63084 0.16690 0.53182
 O909 O 0.62198 0.06029 0.57209
 O910 O 0.65423 0.04875 0.61479
 O911 O 0.55120 0.09913 0.61230
 O912 O 0.54392 0.14084 0.64162
 O913 O 0.55616 0.13535 0.57096
 O914 O 0.54896 0.17168 0.61192
 O915 O 0.58278 0.06201 0.61260
 O916 O 0.62168 0.04881 0.64274
 O917 O 0.62628 0.09542 0.53849
 O918 O 0.66358 0.13246 0.53233
 O919 O 0.66761 0.12917 0.68828
 O920 O 0.62471 0.10019 0.69553
 O921 O 0.63227 0.20698 0.65451
 O922 O 0.60097 0.21651 0.61397
 O923 O 0.70553 0.16718 0.61509
 O924 O 0.71071 0.12717 0.58230
 Zr925 Zr 0.67950 0.13033 0.61518
 O926 O 0.65368 0.10552 0.58783
 Zr927 Zr 0.63325 0.18453 0.61536
 O928 O 0.60548 0.16230 0.58726
 Zr929 Zr 0.62868 0.13363 0.66510
 O930 O 0.60022 0.10935 0.63941
 Zr931 Zr 0.62923 0.13332 0.56234
 O932 O 0.65743 0.15828 0.58754
 Zr933 Zr 0.62349 0.08210 0.61191
 O934 O 0.65196 0.10416 0.63985
 Zr935 Zr 0.57736 0.13619 0.61119
 O936 O 0.60317 0.16093 0.63965
 O937 O 0.65758 0.15852 0.64207
 O938 O 0.59947 0.10797 0.58457
 C939 C 0.69387 0.12622 0.67992
 C940 C 0.69962 0.19411 0.61486
 C941 C 0.62993 0.19892 0.68078
 C942 C 0.56542 0.13563 0.54489
 C943 C 0.62360 0.06907 0.54593
 C944 C 0.55712 0.07217 0.61312
 H945 H 0.66604 0.09275 0.57626
 H946 H 0.58723 0.09848 0.65224
 H947 H 0.67043 0.16972 0.65478
 H948 H 0.59504 0.17603 0.57494
 H949 H 0.64563 0.18068 0.53850
 H950 H 0.62674 0.21329 0.56825
 H951 H 0.61002 0.05591 0.65901
 H952 H 0.63788 0.08472 0.68928
 H953 H 0.67523 0.11508 0.53582
 H954 H 0.70619 0.14227 0.56807
 H955 H 0.54824 0.12775 0.65775
 H956 H 0.58103 0.14813 0.68918
 H957 H 0.69987 0.08003 0.62567
 H958 H 0.66696 0.05001 0.59782
 H959 H 0.58586 0.21069 0.62777
 H960 H 0.55187 0.18281 0.59409
 C961 C 0.37457 0.76587 0.75285
 C962 C 0.37120 0.73765 0.74261
 N963 N 0.36728 0.73327 0.71409
 C964 C 0.36669 0.75576 0.69542
 C965 C 0.37012 0.78408 0.70568
 N966 N 0.37391 0.78829 0.73429
 N967 N 0.37868 0.77047 0.78119
 C968 C 0.37954 0.74822 0.79989
 C969 C 0.37608 0.71974 0.78996
 N970 N 0.37195 0.71517 0.76134
 H971 H 0.36363 0.75152 0.67279
 H972 H 0.38280 0.75289 0.82240
 C973 C 0.37792 0.25534 0.26550
 C974 C 0.37546 0.24642 0.23684
 N975 N 0.37289 0.21804 0.23078
 C976 C 0.37255 0.19811 0.25207
 C977 C 0.37477 0.20686 0.28095
 N978 N 0.37747 0.23544 0.28688
 N979 N 0.38044 0.28379 0.27146
 C980 C 0.38049 0.30372 0.25009
 C981 C 0.37779 0.29488 0.22129
 N982 N 0.37538 0.26628 0.21550
 H983 H 0.37035 0.17567 0.24642
 H984 H 0.38237 0.32623 0.25559
 C985 C 0.62772 0.76537 0.24085
 C986 C 0.62341 0.73686 0.24972
 N987 N 0.61683 0.73120 0.27745
 C988 C 0.61459 0.75275 0.29690
 C989 C 0.61927 0.78142 0.28832
 N990 N 0.62565 0.78701 0.26033
 N991 N 0.63421 0.77086 0.21298
 C992 C 0.63652 0.74912 0.19358
 C993 C 0.63230 0.72051 0.20250
 N994 N 0.62584 0.71521 0.23046
 H995 H 0.60953 0.74742 0.31893
 H996 H 0.64159 0.75414 0.17148
 C997 C 0.12026 0.26809 0.23611
 C998 C 0.11668 0.23931 0.24431
 N999 N 0.11143 0.23278 0.27214
 C1000 C 0.10986 0.25370 0.29236
 C1001 C 0.11389 0.28267 0.28453
 N1002 N 0.11889 0.28915 0.25638
 N1003 N 0.12551 0.27436 0.20810
 C1004 C 0.12742 0.25315 0.18798
 C1005 C 0.12413 0.22424 0.19628
 N1006 N 0.11877 0.21823 0.22436
 H1007 H 0.10588 0.24762 0.31442
 H1008 H 0.13167 0.25879 0.16586
 C1009 C 0.12375 0.75214 0.73472
 C1010 C 0.12724 0.74185 0.76286
 N1011 N 0.13291 0.71360 0.76705
 C1012 C 0.13520 0.69520 0.74446
 C1013 C 0.13185 0.70546 0.71618
 N1014 N 0.12618 0.73384 0.71213
 N1015 N 0.11802 0.78031 0.73042
 C1016 C 0.11593 0.79878 0.75286
 C1017 C 0.11988 0.78881 0.78118
 N1018 N 0.12533 0.76036 0.78545
 H1019 H 0.13971 0.67278 0.74860
 H1020 H 0.11153 0.82117 0.74850
 C1021 C 0.87168 0.25237 0.76982
 C1022 C 0.87310 0.24381 0.74094
 N1023 N 0.87431 0.21543 0.73448
 C1024 C 0.87406 0.19522 0.75553
 C1025 C 0.87257 0.20365 0.78457
 N1026 N 0.87145 0.23220 0.79091
 N1027 N 0.87038 0.28072 0.77629
 C1028 C 0.87053 0.30095 0.75528
 C1029 C 0.87207 0.29256 0.72622
 N1030 N 0.87329 0.26401 0.71983
 H1031 H 0.87495 0.17276 0.74957
 H1032 H 0.86954 0.32338 0.76130
 C1033 C 0.76463 0.37230 0.76044
 C1034 C 0.73722 0.38036 0.75072
 N1035 N 0.73424 0.39123 0.72391
 C1036 C 0.75736 0.39416 0.70629
 C1037 C 0.78484 0.38591 0.71591
 N1038 N 0.78770 0.37522 0.74289
 N1039 N 0.76770 0.36132 0.78714
 C1040 C 0.74467 0.35832 0.80477
 C1041 C 0.71716 0.36670 0.79533
 N1042 N 0.71412 0.37745 0.76835
 H1043 H 0.75424 0.40255 0.68487
 H1044 H 0.74792 0.34971 0.82608
 C1045 C 0.26600 0.62004 0.74731
 C1046 C 0.23715 0.62281 0.75562
 N1047 N 0.23075 0.62742 0.78371
 C1048 C 0.25190 0.62946 0.80381
 C1049 C 0.28089 0.62696 0.79546
 N1050 N 0.28705 0.62223 0.76728
 N1051 N 0.27258 0.61551 0.71934
 C1052 C 0.25164 0.61393 0.69913
 C1053 C 0.22262 0.61715 0.70714
 N1054 N 0.21611 0.62140 0.73540
 H1055 H 0.24613 0.63318 0.82600
 H1056 H 0.25772 0.61061 0.67696
 C1057 C 0.26035 0.12491 0.24229
 C1058 C 0.23166 0.12577 0.25178
 N1059 N 0.22601 0.12534 0.28031
 C1060 C 0.24771 0.12416 0.29976
 C1061 C 0.27651 0.12338 0.29030
 N1062 N 0.28202 0.12378 0.26166
 N1063 N 0.26612 0.12534 0.21385
 C1064 C 0.24455 0.12648 0.19437
 C1065 C 0.21567 0.12724 0.20366
 N1066 N 0.20996 0.12694 0.23231
 H1067 H 0.24246 0.12396 0.32239
 H1068 H 0.25003 0.12681 0.17180
 C1069 C 0.76018 0.12025 0.74158
 C1070 C 0.73136 0.12303 0.75020
 N1071 N 0.72494 0.12438 0.77855
 C1072 C 0.74601 0.12317 0.79867
 C1073 C 0.77497 0.12060 0.79010
 N1074 N 0.78125 0.11915 0.76163
 N1075 N 0.76668 0.11894 0.71329
 C1076 C 0.74571 0.12044 0.69315
 C1077 C 0.71676 0.12351 0.70160
 N1078 N 0.71032 0.12466 0.73009
 H1079 H 0.74015 0.12442 0.82111
 H1080 H 0.75173 0.11946 0.67074
 C1081 C 0.76085 0.87382 0.27326
 C1082 C 0.75232 0.87476 0.24443
 N1083 N 0.72407 0.87406 0.23765
 C1084 C 0.70374 0.87246 0.25841
 C1085 C 0.71195 0.87152 0.28748
 N1086 N 0.74050 0.87224 0.29422
 N1087 N 0.78935 0.87437 0.27970
 C1088 C 0.80963 0.87571 0.25857
 C1089 C 0.80097 0.87655 0.22965
 N1090 N 0.77243 0.87608 0.22352
 H1091 H 0.68136 0.87198 0.25215
 H1092 H 0.83217 0.87588 0.26428
 C1093 C 0.74299 0.73257 0.38018
 C1094 C 0.75250 0.76116 0.37893
 N1095 N 0.78111 0.76683 0.37816
 C1096 C 0.80069 0.74518 0.37849
 C1097 C 0.79125 0.71644 0.37962
 N1098 N 0.76249 0.71095 0.38048
 N1099 N 0.71440 0.72685 0.38083
 C1100 C 0.69481 0.74844 0.38021
 C1101 C 0.70420 0.77720 0.37885
 N1102 N 0.73296 0.78277 0.37828
 H1103 H 0.82336 0.75039 0.37776
 H1104 H 0.67216 0.74315 0.38067
 C1105 C 0.76918 0.25235 0.62083
 C1106 C 0.74073 0.26228 0.62002
 N1107 N 0.73547 0.29086 0.62202
 C1108 C 0.75739 0.30999 0.62487
 C1109 C 0.78596 0.30011 0.62591
 N1110 N 0.79107 0.27140 0.62380
 N1111 N 0.77446 0.22378 0.61889
 C1112 C 0.75254 0.20462 0.61638
 C1113 C 0.72393 0.21443 0.61588
 N1114 N 0.71880 0.24316 0.61765
 H1115 H 0.75248 0.33265 0.62650
 H1116 H 0.75748 0.18194 0.61511
 C1117 C 0.74052 0.75275 0.12487
 C1118 C 0.76911 0.74355 0.12242
 N1119 N 0.77465 0.71548 0.11679
 C1120 C 0.75289 0.69611 0.11373
 C1121 C 0.72416 0.70521 0.11636
 N1122 N 0.71881 0.73346 0.12182
 N1123 N 0.73492 0.78071 0.13078
 C1124 C 0.75660 0.80001 0.13428
 C1125 C 0.78538 0.79099 0.13177
 N1126 N 0.79085 0.76282 0.12585
 H1127 H 0.75801 0.67382 0.10963
 H1128 H 0.75135 0.82218 0.13883
 C1129 C 0.26379 0.24881 0.12148
 C1130 C 0.23507 0.25775 0.12333
 N1131 N 0.22905 0.28559 0.12944
 C1132 C 0.25050 0.30500 0.13360
 C1133 C 0.27934 0.29616 0.13157
 N1134 N 0.28519 0.26815 0.12558
 N1135 N 0.26983 0.22095 0.11550
 C1136 C 0.24840 0.20150 0.11152
 C1137 C 0.21956 0.21031 0.11358
 N1138 N 0.21366 0.23835 0.11938
 H1139 H 0.24504 0.32713 0.13814
 H1140 H 0.25387 0.17933 0.10716
 C1141 C 0.24583 0.73750 0.88065
 C1142 C 0.25450 0.76637 0.88034
 N1143 N 0.28293 0.77293 0.88110
 C1144 C 0.30315 0.75187 0.88198
 C1145 C 0.29455 0.72286 0.88205
 N1146 N 0.26596 0.71650 0.88146
 N1147 N 0.21745 0.73088 0.87968
 C1148 C 0.19723 0.75186 0.87833
 C1149 C 0.20578 0.78089 0.87784
 N1150 N 0.23434 0.78736 0.87893
 H1151 H 0.32566 0.75776 0.88231
 H1152 H 0.17476 0.74587 0.87752
 C1153 C 0.24094 0.23179 0.37495
 C1154 C 0.25006 0.26053 0.37458
 N1155 N 0.27857 0.26669 0.37466
 C1156 C 0.29845 0.24535 0.37501
 C1157 C 0.28938 0.21649 0.37525
 N1158 N 0.26074 0.21050 0.37526
 N1159 N 0.21244 0.22561 0.37477
 C1160 C 0.19256 0.24693 0.37421
 C1161 C 0.20162 0.27580 0.37377
 N1162 N 0.23026 0.28182 0.37399
 H1163 H 0.32104 0.25092 0.37494
 H1164 H 0.16998 0.24134 0.37405
 C1165 C 0.51812 0.62034 0.99296
 C1166 C 0.48965 0.62286 1.00263
 N1167 N 0.48419 0.62494 1.03110
 C1168 C 0.50595 0.62476 1.05045
 C1169 C 0.53460 0.62247 1.04091
 N1170 N 0.53994 0.62021 1.01226
 N1171 N 0.52349 0.61833 0.96441
 C1172 C 0.50165 0.61888 0.94506
 C1173 C 0.47309 0.62164 0.95472
 N1174 N 0.46790 0.62347 0.98338
 H1175 H 0.50084 0.62650 1.07305
 H1176 H 0.50660 0.61733 0.92242
 C1177 C 0.50581 0.12847 0.47685
 C1178 C 0.49727 0.12393 0.50544
 N1179 N 0.46975 0.11646 0.51126
 C1180 C 0.45021 0.11365 0.48986
 C1181 C 0.45847 0.11864 0.46116
 N1182 N 0.48627 0.12579 0.45536
 N1183 N 0.53343 0.13586 0.47111
 C1184 C 0.55290 0.13883 0.49262
 C1185 C 0.54441 0.13432 0.52132
 N1186 N 0.51667 0.12696 0.52694
 H1187 H 0.42834 0.10786 0.49531
 H1188 H 0.57483 0.14454 0.48730
 C1189 C 0.51715 0.88164 0.50855
 C1190 C 0.48844 0.88483 0.49995
 N1191 N 0.48189 0.88612 0.47168
 C1192 C 0.50279 0.88421 0.45146
 C1193 C 0.53161 0.88076 0.45990
 N1194 N 0.53807 0.87967 0.48837
 N1195 N 0.52354 0.88020 0.53691
 C1196 C 0.50245 0.88159 0.55709
 C1197 C 0.47363 0.88446 0.54844
 N1198 N 0.46748 0.88613 0.52000
 H1199 H 0.49685 0.88529 0.42904
 H1200 H 0.50811 0.88020 0.57956
 C1201 C 1.01872 0.37397 0.51328
 C1202 C 0.98980 0.37715 0.50546
 N1203 N 0.98269 0.37940 0.47737
 C1204 C 1.00317 0.37855 0.45660
 C1205 C 1.03229 0.37527 0.46415
 N1206 N 1.03933 0.37309 0.49251
 N1207 N 1.02563 0.37173 0.54152
 C1208 C 1.00494 0.37249 0.56225
 C1209 C 0.97589 0.37562 0.55442
 N1210 N 0.96922 0.37790 0.52607
 H1211 H 0.99667 0.38040 0.43440
 H1212 H 1.01112 0.37069 0.58454
 C1213 C 0.00005 0.87488 1.01256
 C1214 C -0.01094 0.87583 0.98452
 N1215 N -0.03987 0.87610 0.98072
 C1216 C -0.05821 0.87547 1.00356
 C1217 C -0.04721 0.87440 1.03183
 N1218 N -0.01816 0.87414 1.03535
 N1219 N 0.02881 0.87476 1.01666
 C1220 C 0.04722 0.87547 0.99409
 C1221 C 0.03657 0.87625 0.96571
 N1222 N 0.00749 0.87644 0.96166
 H1223 H -0.08112 0.87577 0.99960
 H1224 H 0.07005 0.87530 0.99845
 C1225 C 0.00176 0.11578 -0.01922
 C1226 C -0.00736 0.11586 0.00954
 N1227 N -0.03578 0.11384 0.01558
 C1228 C -0.05556 0.11199 -0.00577
 C1229 C -0.04665 0.11230 -0.03473
 N1230 N -0.01801 0.11410 -0.04067
 N1231 N 0.03022 0.11770 -0.02521
 C1232 C 0.04997 0.11973 -0.00382
 C1233 C 0.04095 0.12003 0.02510
 N1234 N 0.01233 0.11804 0.03097
 H1235 H -0.07807 0.11059 -0.00007
 H1236 H 0.07250 0.12122 -0.00941
 C1237 C 0.12219 1.01144 0.99517
 C1238 C 0.12062 0.98312 1.00549
 N1239 N 0.11897 0.97845 1.03416
 C1240 C 0.11897 1.00081 1.05296
 C1241 C 0.12079 1.02927 1.04258
 N1242 N 0.12226 1.03366 1.01382
 N1243 N 0.12385 1.01637 0.96666
 C1244 C 0.12407 0.99426 0.94782
 C1245 C 0.12262 0.96572 0.95791
 N1246 N 0.12087 0.96083 0.98665
 H1247 H 0.11771 0.99631 1.07571
 H1248 H 0.12539 0.99909 0.92515
 C1249 C 0.12719 0.50455 0.48047
 C1250 C 0.12652 0.49581 0.50927
 N1251 N 0.12509 0.46745 0.51568
 C1252 C 0.12433 0.44731 0.49460
 C1253 C 0.12503 0.45586 0.46562
 N1254 N 0.12643 0.48444 0.45931
 N1255 N 0.12862 0.53300 0.47417
 C1256 C 0.12947 0.55310 0.49538
 C1257 C 0.12886 0.54439 0.52431
 N1258 N 0.12736 0.51582 0.53040
 H1259 H 0.12315 0.42486 0.50050
 H1260 H 0.13061 0.57561 0.48968
 C1261 C 0.37878 0.50584 1.01374
 C1262 C 0.37384 0.49606 0.98563
 N1263 N 0.36879 0.46772 0.98104
 C1264 C 0.36840 0.44876 1.00323
 C1265 C 0.37323 0.45851 1.03148
 N1266 N 0.37835 0.48695 1.03592
 N1267 N 0.38387 0.53410 1.01843
 C1268 C 0.38413 0.55311 0.99637
 C1269 C 0.37900 0.54355 0.96809
 N1270 N 0.37403 0.51506 0.96345
 H1271 H 0.36432 0.42630 0.99879
 H1272 H 0.38824 0.57553 1.00101
 C1273 C 0.88541 0.51647 0.51471
 C1274 C 0.87835 0.48814 0.50695
 N1275 N 0.86784 0.48264 0.48045
 C1276 C 0.86423 0.50413 0.46119
 C1277 C 0.87148 0.53260 0.46865
 N1278 N 0.88191 0.53807 0.49540
 N1279 N 0.89569 0.52185 0.54141
 C1280 C 0.89889 0.50024 0.56078
 C1281 C 0.89154 0.47188 0.55310
 N1282 N 0.88156 0.46661 0.52622
 H1283 H 0.85597 0.49890 0.44012
 H1284 H 0.90676 0.50524 0.58205
 C1285 C 0.87080 1.01010 0.00801
 C1286 C 0.86707 0.98140 -0.00060
 N1287 N 0.86193 0.97533 -0.02855
 C1288 C 0.86047 0.99664 -0.04836
 C1289 C 0.86435 1.02546 -0.03987
 N1290 N 0.86938 1.03144 -0.01175
 N1291 N 0.87606 1.01616 0.03596
 C1292 C 0.87775 0.99482 0.05573
 C1293 C 0.87403 0.96598 0.04720
 N1294 N 0.86876 0.96005 0.01912
 H1295 H 0.85649 0.99103 -0.07054
 H1296 H 0.88197 1.00039 0.07787
 C1297 C 0.62305 0.00734 0.47933
 C1298 C 0.62280 -0.00116 0.50825
 N1299 N 0.62295 -0.02949 0.51489
 C1300 C 0.62335 -0.04977 0.49394
 C1301 C 0.62368 -0.04139 0.46487
 N1302 N 0.62349 -0.01289 0.45834
 N1303 N 0.62292 0.03569 0.47271
 C1304 C 0.62272 0.05596 0.49369
 C1305 C 0.62271 0.04756 0.52274
 N1306 N 0.62266 0.01906 0.52923
 H1307 H 0.62341 -0.07221 0.50000
 H1308 H 0.62272 0.07841 0.48766
 C1309 C 0.50130 1.01127 0.37424
 C1310 C 0.49199 0.98259 0.37394
 N1311 N 0.46342 0.97671 0.37350
 C1312 C 0.44368 0.99822 0.37330
 C1313 C 0.45285 1.02709 0.37349
 N1314 N 0.48161 1.03280 0.37399
 N1315 N 0.52988 1.01714 0.37477
 C1316 C 0.54962 0.99562 0.37497
 C1317 C 0.54043 0.96676 0.37457
 N1318 N 0.51168 0.96106 0.37409
 H1319 H 0.42106 0.99277 0.37297
 H1320 H 0.57224 1.00105 0.37540
 C1321 C -0.01245 0.00536 0.12228
 C1322 C 0.01632 -0.00344 0.12074
 N1323 N 0.02260 -0.03187 0.11954
 C1324 C 0.00137 -0.05197 0.11996
 C1325 C -0.02753 -0.04326 0.12182
 N1326 N -0.03365 -0.01467 0.12287
 N1327 N -0.01872 0.03380 0.12332
 C1328 C 0.00253 0.05390 0.12294
 C1329 C 0.03144 0.04516 0.12161
 N1330 N 0.03754 0.01657 0.12051
 H1331 H 0.00706 -0.07448 0.11913
 H1332 H -0.00314 0.07642 0.12378
 C1333 C 0.51436 0.49666 0.12060
 C1334 C 0.48598 0.50649 0.12312
 N1335 N 0.48103 0.53486 0.12757
 C1336 C 0.50317 0.55390 0.12958
 C1337 C 0.53172 0.54415 0.12714
 N1338 N 0.53650 0.51562 0.12266
 N1339 N 0.51933 0.46830 0.11613
 C1340 C 0.49722 0.44923 0.11431
 C1341 C 0.46867 0.45889 0.11716
 N1342 N 0.46385 0.48745 0.12141
 H1343 H 0.49847 0.57640 0.13296
 H1344 H 0.50196 0.42672 0.11099
 C1345 C -0.00464 0.50557 0.62439
 C1346 C 0.02392 0.49630 0.62691
 N1347 N 0.02939 0.46853 0.63387
 C1348 C 0.00755 0.44957 0.63834
 C1349 C -0.02112 0.45885 0.63587
 N1350 N -0.02639 0.48672 0.62889
 N1351 N -0.01022 0.53327 0.61747
 C1352 C 0.01152 0.55232 0.61327
 C1353 C 0.04022 0.54328 0.61619
 N1354 N 0.04569 0.51532 0.62282
 H1355 H 0.01255 0.42750 0.64359
 H1356 H 0.00636 0.57437 0.60808
 C1357 C 0.50511 0.51483 0.87101
 C1358 C 0.49495 0.48647 0.87272
 N1359 N 0.46624 0.48155 0.87428
 C1360 C 0.44719 0.50367 0.87427
 C1361 C 0.45720 0.53224 0.87263
 N1362 N 0.48610 0.53702 0.87100
 N1363 N 0.53385 0.51971 0.86959
 C1364 C 0.55290 0.49755 0.86986
 C1365 C 0.54285 0.46902 0.87163
 N1366 N 0.51394 0.46430 0.87300
 H1367 H 0.42445 0.49893 0.87562
 H1368 H 0.57567 0.50224 0.86880
 C1369 C 0.62132 0.51216 0.99699
 C1370 C 0.62022 0.48366 1.00674
 N1371 N 0.61842 0.47836 1.03529
 C1372 C 0.61790 0.50025 1.05460
 C1373 C 0.61928 0.52897 1.04495
 N1374 N 0.62080 0.53404 1.01620
 N1375 N 0.62330 0.51752 0.96847
 C1376 C 0.62432 0.49565 0.94920
 C1377 C 0.62333 0.46698 0.95885
 N1378 N 0.62120 0.46176 0.98752
 H1379 H 0.61664 0.49517 1.07723
 H1380 H 0.62583 0.50068 0.92658
 C1381 C 0.37997 1.02057 0.50813
 C1382 C 0.37972 0.99155 0.50005
 N1383 N 0.37636 0.98428 0.47215
 C1384 C 0.37323 1.00474 0.45174
 C1385 C 0.37351 1.03405 0.45954
 N1386 N 0.37692 1.04117 0.48774
 N1387 N 0.38305 1.02760 0.53626
 C1388 C 0.38565 1.00684 0.55667
 C1389 C 0.38518 0.97773 0.54851
 N1390 N 0.38232 0.97098 0.52030
 H1391 H 0.37074 0.99801 0.42964
 H1392 H 0.38775 1.01299 0.57897
 C1393 C 0.00806 0.62545 0.48387
 C1394 C -0.00043 0.62329 0.51273
 N1395 N -0.02852 0.61893 0.51913
 C1396 C -0.04860 0.61683 0.49807
 C1397 C -0.04035 0.61916 0.46902
 N1398 N -0.01201 0.62334 0.46269
 N1399 N 0.03620 0.62981 0.47755
 C1400 C 0.05625 0.63202 0.49869
 C1401 C 0.04789 0.62980 0.52771
 N1402 N 0.01957 0.62545 0.53390
 H1403 H -0.07083 0.61346 0.50405
 H1404 H 0.07853 0.63529 0.49282
 C1405 C 0.49681 0.38298 1.01040
 C1406 C 0.48759 0.37548 0.98268
 N1407 N 0.45998 0.36688 0.97867
 C1408 C 0.44125 0.36539 1.00111
 C1409 C 0.45064 0.37252 1.02896
 N1410 N 0.47826 0.38122 1.03276
 N1411 N 0.52419 0.39179 1.01461
 C1412 C 0.54307 0.39296 0.99249
 C1413 C 0.53436 0.38465 0.96472
 N1414 N 0.50658 0.37633 0.96042
 H1415 H 0.41934 0.35858 0.99725
 H1416 H 0.56489 0.39985 0.99673
 C1417 C 0.48808 0.01303 0.62334
 C1418 C 0.51673 0.00385 0.62493
 N1419 N 0.52241 -0.02422 0.63032
 C1420 C 0.50077 -0.04362 0.63402
 C1421 C 0.47192 -0.03463 0.63228
 N1422 N 0.46640 -0.00634 0.62696
 N1423 N 0.48243 0.04112 0.61793
 C1424 C 0.50409 0.06049 0.61416
 C1425 C 0.53293 0.05145 0.61578
 N1426 N 0.53841 0.02316 0.62114
 H1427 H 0.50610 -0.06588 0.63797
 H1428 H 0.49881 0.08273 0.61004
 C1429 C -0.00008 0.50916 0.38207
 C1430 C -0.00957 0.48052 0.38208
 N1431 N -0.03815 0.47474 0.38284
 C1432 C -0.05773 0.49635 0.38342
 C1433 C -0.04829 0.52511 0.38311
 N1434 N -0.01958 0.53072 0.38253
 N1435 N 0.02847 0.51498 0.38129
 C1436 C 0.04805 0.49341 0.38041
 C1437 C 0.03864 0.46464 0.38017
 N1438 N 0.00994 0.45896 0.38110
 H1439 H -0.08039 0.49108 0.38390
 H1440 H 0.07069 0.49875 0.37975
 C1441 C -0.00330 1.00890 0.87580
 C1442 C -0.01191 0.98001 0.87544
 N1443 N -0.04035 0.97347 0.87525
 C1444 C -0.06063 0.99450 0.87534
 C1445 C -0.05210 1.02362 0.87561
 N1446 N -0.02346 1.02989 0.87588
 N1447 N 0.02510 1.01552 0.87598
 C1448 C 0.04537 0.99455 0.87574
 C1449 C 0.03691 0.96548 0.87527
 N1450 N 0.00831 0.95900 0.87518
 H1451 H -0.08311 0.98846 0.87518
 H1452 H 0.06785 1.00057 0.87589
 C1453 C 0.76492 0.61931 0.24626
 C1454 C 0.73624 0.62307 0.25483
 N1455 N 0.72987 0.62598 0.28306
 C1456 C 0.75092 0.62537 0.30319
 C1457 C 0.77977 0.62175 0.29474
 N1458 N 0.78601 0.61878 0.26634
 N1459 N 0.77122 0.61640 0.21798
 C1460 C 0.75012 0.61712 0.19785
 C1461 C 0.72133 0.62101 0.20637
 N1462 N 0.71519 0.62387 0.23478
 H1463 H 0.74511 0.62784 0.32554
 H1464 H 0.75583 0.61482 0.17546
 C1465 C 0.26148 0.87537 0.75295
 C1466 C 0.23339 0.87947 0.74269
 N1467 N 0.22919 0.88433 0.71431
 C1468 C 0.25177 0.88523 0.69577
 C1469 C 0.27996 0.88107 0.70605
 N1470 N 0.28399 0.87622 0.73449
 N1471 N 0.26586 0.87053 0.78121
 C1472 C 0.24347 0.86970 0.79980
 C1473 C 0.21518 0.87390 0.78977
 N1474 N 0.21084 0.87863 0.76127
 H1475 H 0.24769 0.88904 0.67325
 H1476 H 0.24785 0.86575 0.82225
 C1477 C 0.25458 0.37982 0.26827
 C1478 C 0.24547 0.37999 0.23959
 N1479 N 0.21716 0.37711 0.23347
 C1480 C 0.19741 0.37410 0.25472
 C1481 C 0.20627 0.37386 0.28363
 N1482 N 0.23484 0.37676 0.28967
 N1483 N 0.28306 0.38252 0.27418
 C1484 C 0.30281 0.38513 0.25270
 C1485 C 0.29370 0.38501 0.22388
 N1486 N 0.26511 0.38250 0.21822
 H1487 H 0.17499 0.37189 0.24898
 H1488 H 0.32536 0.38683 0.25808
 C1489 C 0.88485 0.74919 0.26735
 C1490 C 0.87951 0.73972 0.23920
 N1491 N 0.87368 0.71157 0.23447
 C1492 C 0.87284 0.69251 0.25655
 C1493 C 0.87786 0.70197 0.28489
 N1494 N 0.88381 0.73023 0.28948
 N1495 N 0.89072 0.77727 0.27216
 C1496 C 0.89124 0.79641 0.25022
 C1497 C 0.88541 0.78722 0.22193
 N1498 N 0.87978 0.75889 0.21715
 H1499 H 0.86798 0.67023 0.25198
 H1500 H 0.89582 0.81871 0.25499
 C1501 C 0.62590 0.26502 0.74360
 C1502 C 0.62282 0.23612 0.75160
 N1503 N 0.61839 0.22953 0.77966
 C1504 C 0.61699 0.25049 0.80006
 C1505 C 0.62018 0.27954 0.79213
 N1506 N 0.62455 0.28593 0.76392
 N1507 N 0.63037 0.27175 0.71565
 C1508 C 0.63188 0.25095 0.69524
 C1509 C 0.62881 0.22182 0.70298
 N1510 N 0.62434 0.21518 0.73118
 H1511 H 0.61363 0.24449 0.82224
 H1512 H 0.63544 0.25720 0.67316
 C1513 C 0.73914 0.23004 0.88396
 C1514 C 0.74919 0.25846 0.88280
 N1515 N 0.77779 0.26361 0.88047
 C1516 C 0.79687 0.24161 0.87914
 C1517 C 0.78691 0.21302 0.88003
 N1518 N 0.75815 0.20801 0.88250
 N1519 N 0.71050 0.22494 0.88613
 C1520 C 0.69139 0.24700 0.88696
 C1521 C 0.70137 0.27554 0.88540
 N1522 N 0.73016 0.28047 0.88346
 H1523 H 0.81954 0.24645 0.87720
 H1524 H 0.66866 0.24223 0.88838
 C1525 C 0.26983 0.75046 0.61772
 C1526 C 0.24099 0.75912 0.61667
 N1527 N 0.23464 0.78745 0.61419
 C1528 C 0.25584 0.80757 0.61301
 C1529 C 0.28480 0.79900 0.61446
 N1530 N 0.29098 0.77051 0.61668
 N1531 N 0.27625 0.72218 0.62033
 C1532 C 0.25509 0.70208 0.62195
 C1533 C 0.22609 0.71063 0.62104
 N1534 N 0.21982 0.73908 0.61838
 H1535 H 0.25008 0.83003 0.61144
 H1536 H 0.26093 0.67968 0.62398
   
