data_POSCAR
  _audit_creation_date              2014-09-24
  _audit_creation_method            'ToBaCCo'
  _symmetry_space_group_name_H-M    'P1'
  _symmetry_Int_Tables_number       1
  _symmetry_cell_setting            triclinic
  loop_
  _symmetry_equiv_pos_as_xyz
 x,y,z
_cell_length_a 51.3757
_cell_length_b 51.2594
_cell_length_c 51.3880
_cell_angle_alpha 89.986100
_cell_angle_beta 89.997700
_cell_angle_gamma 89.918100
loop_
  _atom_site_label
  _atom_site_type_symbol
  _atom_site_fract_x
  _atom_site_fract_y
  _atom_site_fract_z
O1 O 0.27350 1.02416 0.47676
 O2 O 0.27322 0.97439 0.52847
 O3 O 0.27384 0.97321 0.47787
 O4 O 0.27292 1.02531 0.52727
 O5 O 0.23003 1.02507 0.52673
 O6 O 0.23090 0.97298 0.47748
 O7 O 0.23029 0.97438 0.52815
 O8 O 0.23056 1.02361 0.47599
 Cu9 Cu 0.27767 0.99928 0.50264
 Cu10 Cu 0.22616 0.99900 0.50205
 C11 C 0.25207 1.03237 0.46750
 C12 C 0.25170 0.96588 0.53718
 C13 C 0.25250 0.96416 0.46923
 C14 C 0.25130 1.03418 0.53549
 O15 O 0.77136 -0.02450 0.47503
 O16 O 0.76847 0.02820 0.52355
 O17 O 0.76947 -0.02259 0.52556
 O18 O 0.77023 0.02656 0.47335
 O19 O 0.72727 0.02597 0.47216
 O20 O 0.72670 -0.02458 0.52309
 O21 O 0.72554 0.02627 0.52309
 O22 O 0.72845 -0.02439 0.47242
 Cu23 Cu 0.77420 0.00197 0.49952
 Cu24 Cu 0.72267 0.00075 0.49761
 C25 C 0.75041 -0.03320 0.46523
 C26 C 0.74652 0.03612 0.53171
 C27 C 0.74798 -0.03223 0.53317
 C28 C 0.74887 0.03476 0.46395
 O29 O 0.22701 0.47316 0.97729
 O30 O 0.22843 0.52312 1.02869
 O31 O 0.22765 0.52369 0.97776
 O32 O 0.22794 0.47264 1.02823
 O33 O 0.27081 0.47151 1.02693
 O34 O 0.27063 0.52355 0.97749
 O35 O 0.27140 0.52266 1.02791
 O36 O 0.26999 0.47251 0.97666
 Cu37 Cu 0.22345 0.49821 1.00306
 Cu38 Cu 0.27501 0.49753 1.00219
 C39 C 0.24826 0.46427 0.96826
 C40 C 0.25015 0.53143 1.03705
 C41 C 0.24910 0.53240 0.96909
 C42 C 0.24941 0.46315 1.03614
 O43 O 0.47404 0.27146 1.02431
 O44 O 0.52393 0.27262 0.97297
 O45 O 0.47334 0.27195 0.97359
 O46 O 0.52453 0.27187 1.02389
 O47 O 0.52537 0.22890 1.02301
 O48 O 0.47386 0.22893 0.97314
 O49 O 0.52466 0.22957 0.97262
 O50 O 0.47454 0.22843 1.02377
 Cu51 Cu 0.49893 0.27629 0.99873
 Cu52 Cu 0.49963 0.22465 0.99808
 C53 C 0.46574 0.24975 1.03283
 C54 C 0.53286 0.25130 0.96406
 C55 C 0.46480 0.25044 0.96479
 C56 C 0.53380 0.25036 1.03208
 O57 O 0.47583 0.77192 -0.02252
 O58 O 0.52685 0.77236 0.02774
 O59 O 0.52660 0.77268 -0.02281
 O60 O 0.47608 0.77162 0.02813
 O61 O 0.47682 0.72860 0.02793
 O62 O 0.52711 0.72970 -0.02320
 O63 O 0.52742 0.72933 0.02755
 O64 O 0.47653 0.72890 -0.02284
 Cu65 Cu 0.50125 0.77645 0.00266
 Cu66 Cu 0.50203 0.72483 0.00233
 C67 C 0.46747 0.75034 -0.03132
 C68 C 0.53587 0.75091 0.03625
 C69 C 0.53556 0.75136 -0.03179
 C70 C 0.46783 0.74992 0.03680
 O71 O 1.02542 0.47082 0.26886
 O72 O 0.97620 0.52305 0.26866
 O73 O 0.97495 0.47259 0.26761
 O74 O 1.02705 0.52187 0.26972
 O75 O 1.02721 0.52365 0.22688
 O76 O 0.97708 0.47234 0.22472
 O77 O 0.97672 0.52342 0.22573
 O78 O 1.02790 0.47301 0.22601
 Cu79 Cu 1.00088 0.49704 0.27302
 Cu80 Cu 1.00229 0.49815 0.22153
 C81 C 1.03517 0.46314 0.24748
 C82 C 0.96785 0.53200 0.24717
 C83 C 0.96726 0.46388 0.24580
 C84 C 1.03591 0.53146 0.24868
 O85 O -0.02945 0.47764 0.77308
 O86 O 0.02208 0.52744 0.77416
 O87 O -0.02842 0.52830 0.77316
 O88 O 0.02135 0.47649 0.77397
 O89 O 0.02289 0.47738 0.73108
 O90 O -0.02843 0.52752 0.73029
 O91 O 0.02237 0.52799 0.73124
 O92 O -0.02751 0.47662 0.73016
 Cu93 Cu -0.00366 0.50243 0.77791
 Cu94 Cu -0.00262 0.50244 0.72639
 C95 C -0.03709 0.46847 0.75143
 C96 C 0.03091 0.53638 0.75286
 C97 C -0.03713 0.53671 0.75157
 C98 C 0.03076 0.46817 0.75265
 O99 O 0.47574 0.97072 0.23335
 O100 O 0.52543 1.02234 0.23073
 O101 O 0.52586 0.97140 0.23256
 O102 O 0.47445 1.02153 0.23147
 O103 O 0.47551 1.02369 0.27428
 O104 O 0.52690 0.97350 0.27547
 O105 O 0.52592 1.02417 0.27362
 O106 O 0.47584 0.97290 0.27626
 Cu107 Cu 0.50032 0.99645 0.22772
 Cu108 Cu 0.50109 0.99867 0.27921
 C109 C 0.46736 0.96296 0.25526
 C110 C 0.53422 1.03207 0.25171
 C111 C 0.53506 0.96383 0.25422
 C112 C 0.46613 1.03127 0.25267
 O113 O 1.02384 0.27114 0.52323
 O114 O 0.97387 0.27054 0.47184
 O115 O 0.97301 0.27138 0.52247
 O116 O 1.02459 0.27046 0.47277
 O117 O 1.02457 0.22743 0.47348
 O118 O 0.97276 0.22835 0.52299
 O119 O 0.97397 0.22751 0.47225
 O120 O 1.02330 0.22810 0.52428
 Cu121 Cu 0.99881 0.27519 0.49752
 Cu122 Cu 0.99864 0.22354 0.49831
 C123 C 1.03208 0.24972 0.53257
 C124 C 0.96544 0.24893 0.46316
 C125 C 0.96404 0.25003 0.53125
 C126 C 1.03344 0.24880 0.46464
 O127 O -0.02430 0.77233 0.52789
 O128 O 0.02701 0.77143 0.47780
 O129 O -0.02352 0.77198 0.47709
 O130 O 0.02620 0.77196 0.52868
 O131 O 0.02593 0.72890 0.52899
 O132 O -0.02372 0.72894 0.47734
 O133 O 0.02703 0.72838 0.47855
 O134 O -0.02496 0.72928 0.52787
 Cu135 Cu 0.00139 0.77624 0.50283
 Cu136 Cu 0.00102 0.72456 0.50325
 C137 C -0.03347 0.75095 0.53637
 C138 C 0.03582 0.74974 0.46966
 C139 C -0.03211 0.75046 0.46836
 C140 C 0.03457 0.75043 0.53765
 O141 O 0.73026 0.47658 1.02387
 O142 O 0.72985 0.52757 0.97354
 O143 O 0.72988 0.47696 0.97323
 O144 O 0.73037 0.52723 1.02437
 O145 O 0.77332 0.52725 1.02389
 O146 O 0.77281 0.47688 0.97280
 O147 O 0.77281 0.52782 0.97343
 O148 O 0.77319 0.47633 1.02338
 Cu149 Cu 0.72578 0.50212 0.99879
 Cu150 Cu 0.77735 0.50205 0.99834
 C151 C 0.75178 0.46766 1.03219
 C152 C 0.75124 0.53645 0.96491
 C153 C 0.75125 0.46828 0.96427
 C154 C 0.75193 0.53585 1.03287
 O155 O 0.47024 1.02623 0.72743
 O156 O 0.52330 0.97789 0.72787
 O157 O 0.47269 0.97552 0.72826
 O158 O 0.52099 1.02852 0.72698
 O159 O 0.52290 1.02762 0.76986
 O160 O 0.47112 0.97814 0.77110
 O161 O 0.52174 0.97678 0.77079
 O162 O 0.47249 1.02896 0.77016
 Cu163 Cu 0.49676 1.00197 0.72331
 Cu164 Cu 0.49709 1.00292 0.77480
 C165 C 0.46259 1.03630 0.74871
 C166 C 0.53126 0.96876 0.74943
 C167 C 0.46336 0.96804 0.74991
 C168 C 0.53051 1.03687 0.74822
 C169 C 0.25068 0.22729 0.26900
 C170 C 0.23165 0.24718 0.26951
 C171 C 0.23190 0.26701 0.25041
 C172 C 0.25118 0.26688 0.23074
 C173 C 0.27011 0.24686 0.23024
 C174 C 0.26986 0.22709 0.24937
 C175 C 0.75497 0.77078 0.26907
 C176 C 0.77390 0.75075 0.26912
 C177 C 0.77314 0.73104 0.24998
 C178 C 0.75351 0.73128 0.23082
 C179 C 0.73446 0.75115 0.23083
 C180 C 0.73514 0.77092 0.24997
 C181 C 0.74572 0.23430 0.72635
 C182 C 0.72643 0.23454 0.74601
 C183 C 0.72707 0.25376 0.76568
 C184 C 0.74687 0.27283 0.76581
 C185 C 0.76613 0.27276 0.74612
 C186 C 0.76561 0.25343 0.72642
 C187 C 0.24945 0.76975 0.73502
 C188 C 0.22983 0.75053 0.73519
 C189 C 0.22968 0.73104 0.75466
 C190 C 0.24932 0.73069 0.77401
 C191 C 0.26899 0.75002 0.77380
 C192 C 0.26896 0.76953 0.75435
 C193 C 0.22705 0.25070 0.73065
 C194 C 0.24686 0.23156 0.73013
 C195 C 0.26632 0.23133 0.74966
 C196 C 0.26598 0.25043 0.76961
 C197 C 0.24611 0.26964 0.77004
 C198 C 0.22662 0.26970 0.75056
 C199 C 0.76766 0.75345 0.73046
 C200 C 0.74809 0.77287 0.73041
 C201 C 0.72877 0.77301 0.75010
 C202 C 0.72911 0.75364 0.76977
 C203 C 0.74866 0.73420 0.76961
 C204 C 0.76792 0.73411 0.75001
 C205 C 0.23349 0.74526 0.27437
 C206 C 0.23332 0.72614 0.25456
 C207 C 0.25293 0.72624 0.23517
 C208 C 0.27261 0.74562 0.23560
 C209 C 0.27272 0.76475 0.25551
 C210 C 0.25315 0.76450 0.27491
 C211 C 0.77088 0.24765 0.26404
 C212 C 0.75112 0.22838 0.26446
 C213 C 0.73141 0.22857 0.24517
 C214 C 0.73148 0.24795 0.22560
 C215 C 0.75113 0.26715 0.22526
 C216 C 0.77080 0.26702 0.24444
 C217 C 0.25216 0.09062 0.40719
 C218 C 0.23001 0.07517 0.41157
 C219 C 0.22993 0.05636 0.43127
 C220 C 0.25214 0.05231 0.44671
 C221 C 0.27438 0.06757 0.44216
 C222 C 0.27431 0.08667 0.42275
 C223 C 0.25211 0.11079 0.38657
 N224 N 0.26963 0.13060 0.38696
 N225 N 0.26946 0.14886 0.36851
 C226 C 0.25187 0.14796 0.34880
 N227 N 0.23442 0.12808 0.34834
 N228 N 0.23447 0.10993 0.36689
 C229 C 0.25166 0.16824 0.32830
 C230 C 0.23945 0.16354 0.30426
 C231 C 0.23933 0.18267 0.28490
 C232 C 0.25098 0.20693 0.28944
 C233 C 0.26310 0.21180 0.31336
 C234 C 0.26361 0.19253 0.33259
 H235 H 0.21261 0.07781 0.39998
 H236 H 0.21254 0.04483 0.43428
 H237 H 0.29175 0.06493 0.45382
 H238 H 0.29171 0.09820 0.41977
 H239 H 0.23023 0.14497 0.30032
 H240 H 0.23002 0.17868 0.26641
 H241 H 0.27223 0.23047 0.31702
 H242 H 0.27309 0.19677 0.35093
 C243 C 0.75334 0.90720 0.40679
 C244 C 0.73446 0.92698 0.40556
 C245 C 0.73330 0.94616 0.42483
 C246 C 0.75150 0.94632 0.44518
 C247 C 0.77065 0.92679 0.44623
 C248 C 0.77131 0.90711 0.42739
 C249 C 0.75427 0.88682 0.38660
 N250 N 0.76062 0.86185 0.39277
 N251 N 0.76104 0.84339 0.37452
 C252 C 0.75549 0.84932 0.34936
 N253 N 0.74935 0.87433 0.34317
 N254 N 0.74858 0.89269 0.36148
 C255 C 0.75595 0.82902 0.32909
 C256 C 0.76459 0.83506 0.30389
 C257 C 0.76478 0.81596 0.28453
 C258 C 0.75533 0.79088 0.28980
 C259 C 0.74691 0.78469 0.31501
 C260 C 0.74749 0.80357 0.33463
 H261 H 0.72035 0.92735 0.38990
 H262 H 0.71843 0.96111 0.42361
 H263 H 0.78481 0.92651 0.46184
 H264 H 0.78610 0.89209 0.42864
 H265 H 0.77159 0.85445 0.29930
 H266 H 0.77228 0.82073 0.26544
 H267 H 0.73993 0.76526 0.31942
 H268 H 0.74077 0.79848 0.35395
 C269 C 0.74401 0.09676 0.58923
 C270 C 0.76420 0.09592 0.57084
 C271 C 0.76511 0.07603 0.55229
 C272 C 0.74547 0.05704 0.55136
 C273 C 0.72500 0.05813 0.56943
 C274 C 0.72447 0.07763 0.58845
 C275 C 0.74356 0.11733 0.60930
 N276 N 0.73343 0.11253 0.63323
 N277 N 0.73360 0.13092 0.65155
 C278 C 0.74361 0.15491 0.64653
 N279 N 0.75353 0.15978 0.62253
 N280 N 0.75365 0.14129 0.60432
 C281 C 0.74400 0.17519 0.66688
 C282 C 0.74210 0.20169 0.66017
 C283 C 0.74229 0.22086 0.67949
 C284 C 0.74515 0.21388 0.70576
 C285 C 0.74746 0.18742 0.71242
 C286 C 0.74650 0.16821 0.69318
 H287 H 0.77956 0.11037 0.57112
 H288 H 0.78103 0.07564 0.53846
 H289 H 0.70968 0.04364 0.56913
 H290 H 0.70865 0.07793 0.60238
 H291 H 0.74003 0.20754 0.64002
 H292 H 0.74027 0.24116 0.67399
 H293 H 0.75000 0.18168 0.73254
 H294 H 0.74823 0.14793 0.69882
 C295 C 0.25117 0.90729 0.59728
 C296 C 0.27446 0.91394 0.58456
 C297 C 0.27468 0.93310 0.56519
 C298 C 0.25156 0.94586 0.55794
 C299 C 0.22827 0.93919 0.57062
 C300 C 0.22809 0.92021 0.59015
 C301 C 0.25093 0.88694 0.61778
 N302 N 0.22970 0.88353 0.63316
 N303 N 0.22947 0.86522 0.65156
 C304 C 0.25041 0.84946 0.65528
 N305 N 0.27163 0.85284 0.63988
 N306 N 0.27190 0.87122 0.62156
 C307 C 0.25012 0.82901 0.67567
 C308 C 0.26960 0.80970 0.67639
 C309 C 0.26925 0.79037 0.69555
 C310 C 0.24962 0.79016 0.71450
 C311 C 0.23022 0.80940 0.71396
 C312 C 0.23037 0.82858 0.69464
 H313 H 0.29260 0.90444 0.58962
 H314 H 0.29293 0.93776 0.55575
 H315 H 0.21014 0.94870 0.56552
 H316 H 0.20980 0.91551 0.59950
 H317 H 0.28501 0.80938 0.66203
 H318 H 0.28428 0.77553 0.69564
 H319 H 0.21503 0.80957 0.72856
 H320 H 0.21515 0.84321 0.69472
 C321 C 0.40726 0.24865 0.09278
 C322 C 0.41354 0.22577 0.07905
 C323 C 0.43265 0.22608 0.05970
 C324 C 0.44569 0.24933 0.05347
 C325 C 0.43935 0.27222 0.06711
 C326 C 0.42044 0.27186 0.08665
 C327 C 0.38703 0.24833 0.11330
 N328 N 0.38447 0.26865 0.13008
 N329 N 0.36624 0.26838 0.14851
 C330 C 0.34973 0.24785 0.15085
 N331 N 0.35227 0.22755 0.13404
 N332 N 0.37057 0.22777 0.11569
 C333 C 0.32937 0.24760 0.17122
 C334 C 0.30891 0.22942 0.17014
 C335 C 0.28961 0.22928 0.18926
 C336 C 0.29064 0.24699 0.20999
 C337 C 0.31093 0.26518 0.21118
 C338 C 0.33010 0.26557 0.19190
 H339 H 0.40381 0.20755 0.08335
 H340 H 0.43708 0.20813 0.04949
 H341 H 0.44910 0.29043 0.06280
 H342 H 0.41601 0.28984 0.09680
 H343 H 0.30763 0.21549 0.15436
 H344 H 0.27375 0.21546 0.18783
 H345 H 0.31184 0.27907 0.22703
 H346 H 0.34559 0.27980 0.19332
 C347 C 0.40798 0.74997 0.90965
 C348 C 0.41488 0.77328 0.92229
 C349 C 0.43425 0.77341 0.94137
 C350 C 0.44703 0.75020 0.94839
 C351 C 0.44009 0.72688 0.93583
 C352 C 0.42086 0.72678 0.91660
 C353 C 0.38746 0.74988 0.88940
 N354 N 0.38337 0.72847 0.87438
 N355 N 0.36490 0.72842 0.85618
 C356 C 0.34968 0.74976 0.85230
 N357 N 0.35375 0.77115 0.86734
 N358 N 0.37227 0.77123 0.88547
 C359 C 0.32905 0.74974 0.83216
 C360 C 0.31068 0.77009 0.83111
 C361 C 0.29115 0.77006 0.81224
 C362 C 0.28977 0.74988 0.79389
 C363 C 0.30805 0.72958 0.79477
 C364 C 0.32747 0.72943 0.81382
 H365 H 0.40540 0.79151 0.91738
 H366 H 0.43912 0.79170 0.95072
 H367 H 0.44962 0.70868 0.94077
 H368 H 0.41599 0.70847 0.90730
 H369 H 0.31123 0.78594 0.84501
 H370 H 0.27700 0.78574 0.81198
 H371 H 0.30724 0.71387 0.78070
 H372 H 0.34133 0.71350 0.81405
 C373 C 0.59561 0.75133 0.09498
 C374 C 0.58272 0.72806 0.08845
 C375 C 0.56342 0.72791 0.06929
 C376 C 0.55639 0.75106 0.05644
 C377 C 0.56918 0.77435 0.06304
 C378 C 0.58867 0.77446 0.08201
 C379 C 0.61617 0.75145 0.11519
 N380 N 0.63202 0.77241 0.11822
 N381 N 0.65055 0.77246 0.13635
 C382 C 0.65392 0.75159 0.15229
 N383 N 0.63803 0.73065 0.14930
 N384 N 0.61958 0.73056 0.13110
 C385 C 0.67450 0.75160 0.17247
 C386 C 0.67469 0.73248 0.19211
 C387 C 0.69407 0.73247 0.21115
 C388 C 0.71380 0.75131 0.21068
 C389 C 0.71371 0.77044 0.19121
 C390 C 0.69416 0.77067 0.17231
 H391 H 0.58765 0.70989 0.09800
 H392 H 0.55389 0.70966 0.06467
 H393 H 0.56424 0.79250 0.05344
 H394 H 0.59816 0.79273 0.08664
 H395 H 0.65973 0.71765 0.19293
 H396 H 0.69367 0.71782 0.22633
 H397 H 0.72882 0.78515 0.19067
 H398 H 0.69461 0.78564 0.15744
 C399 C 0.59150 0.25255 0.90442
 C400 C 0.58834 0.23046 0.92030
 C401 C 0.56911 0.22998 0.93951
 C402 C 0.55300 0.25176 0.94357
 C403 C 0.55631 0.27394 0.92788
 C404 C 0.57521 0.27424 0.90832
 C405 C 0.61165 0.25292 0.88391
 N406 N 0.60952 0.26924 0.86320
 N407 N 0.62760 0.26943 0.84463
 C408 C 0.64866 0.25345 0.84614
 N409 N 0.65086 0.23722 0.86691
 N410 N 0.63267 0.23688 0.88537
 C411 C 0.66876 0.25367 0.82557
 C412 C 0.69412 0.24481 0.83088
 C413 C 0.71314 0.24511 0.81146
 C414 C 0.70696 0.25381 0.78636
 C415 C 0.68168 0.26249 0.78090
 C416 C 0.66276 0.26265 0.80042
 H417 H 0.60053 0.21341 0.91766
 H418 H 0.56704 0.21265 0.95140
 H419 H 0.54409 0.29097 0.93053
 H420 H 0.57728 0.29157 0.89644
 H421 H 0.69933 0.23791 0.85010
 H422 H 0.73263 0.23836 0.81589
 H423 H 0.67670 0.26926 0.76156
 H424 H 0.64335 0.26946 0.79574
 C425 C 0.09351 0.40318 0.24800
 C426 C 0.07290 0.40254 0.26593
 C427 C 0.05410 0.42228 0.26600
 C428 C 0.05516 0.44251 0.24761
 C429 C 0.07549 0.44289 0.22937
 C430 C 0.09475 0.42360 0.22983
 C431 C 0.11377 0.38279 0.24841
 N432 N 0.13894 0.38885 0.24313
 N433 N 0.15734 0.37053 0.24381
 C434 C 0.15121 0.34540 0.24944
 N435 N 0.12601 0.33928 0.25451
 N436 N 0.10766 0.35768 0.25419
 C437 C 0.17163 0.32518 0.25009
 C438 C 0.16645 0.29978 0.24127
 C439 C 0.18617 0.28094 0.24111
 C440 C 0.21110 0.28711 0.25032
 C441 C 0.21598 0.31215 0.26013
 C442 C 0.19655 0.33121 0.25951
 H443 H 0.07163 0.38704 0.28020
 H444 H 0.03851 0.42156 0.28018
 H445 H 0.07673 0.45837 0.21507
 H446 H 0.11042 0.42443 0.21575
 H447 H 0.14734 0.29469 0.23398
 H448 H 0.18203 0.26154 0.23387
 H449 H 0.23481 0.31690 0.26827
 H450 H 0.20084 0.35054 0.26684
 C451 C 0.90407 0.40919 0.74993
 C452 C 0.90443 0.42783 0.76995
 C453 C 0.92382 0.44691 0.77066
 C454 C 0.94271 0.44810 0.75096
 C455 C 0.94217 0.42966 0.73077
 C456 C 0.92321 0.41015 0.73045
 C457 C 0.88375 0.38890 0.74930
 N458 N 0.88877 0.36506 0.73891
 N459 N 0.87043 0.34673 0.73839
 C460 C 0.84628 0.35166 0.74795
 N461 N 0.84122 0.37554 0.75821
 N462 N 0.85965 0.39376 0.75901
 C463 C 0.82589 0.33147 0.74719
 C464 C 0.79961 0.33858 0.74472
 C465 C 0.78029 0.31948 0.74385
 C466 C 0.78686 0.29300 0.74621
 C467 C 0.81310 0.28588 0.74892
 C468 C 0.83251 0.30494 0.74903
 H469 H 0.88994 0.42741 0.78526
 H470 H 0.92381 0.46099 0.78637
 H471 H 0.95662 0.43012 0.71544
 H472 H 0.92326 0.39606 0.71474
 H473 H 0.79404 0.35890 0.74307
 H474 H 0.76016 0.32533 0.74149
 H475 H 0.81852 0.26556 0.75100
 H476 H 0.85264 0.29899 0.75111
 C477 C 0.09037 0.59546 0.75381
 C478 C 0.07762 0.58821 0.77690
 C479 C 0.05838 0.56896 0.77663
 C480 C 0.05132 0.55670 0.75322
 C481 C 0.06396 0.56404 0.73011
 C482 C 0.08333 0.58312 0.73042
 C483 C 0.11093 0.61568 0.75407
 N484 N 0.12610 0.61971 0.73281
 N485 N 0.14466 0.63780 0.73302
 C486 C 0.14879 0.65271 0.75446
 N487 N 0.13359 0.64873 0.77572
 N488 N 0.11507 0.63056 0.77554
 C489 C 0.16947 0.67280 0.75462
 C490 C 0.17101 0.69119 0.77488
 C491 C 0.19047 0.71020 0.77484
 C492 C 0.20885 0.71100 0.75469
 C493 C 0.20753 0.69258 0.73457
 C494 C 0.18795 0.67375 0.73444
 H495 H 0.08261 0.59727 0.79526
 H496 H 0.04895 0.56377 0.79475
 H497 H 0.05899 0.55492 0.71176
 H498 H 0.09270 0.58828 0.71226
 H499 H 0.15706 0.69103 0.79068
 H500 H 0.19126 0.72432 0.79050
 H501 H 0.22178 0.69275 0.71904
 H502 H 0.18744 0.65980 0.71863
 C503 C 0.90898 0.59182 0.24736
 C504 C 0.91368 0.57676 0.26973
 C505 C 0.93291 0.55747 0.26970
 C506 C 0.94761 0.55254 0.24718
 C507 C 0.94280 0.56743 0.22472
 C508 C 0.92382 0.58701 0.22487
 C509 C 0.88875 0.61241 0.24753
 N510 N 0.88857 0.63146 0.22914
 N511 N 0.87044 0.65007 0.22944
 C512 C 0.85166 0.65032 0.24804
 N513 N 0.85179 0.63122 0.26636
 N514 N 0.87000 0.61271 0.26616
 C515 C 0.83150 0.67098 0.24841
 C516 C 0.80838 0.66750 0.26266
 C517 C 0.78934 0.68698 0.26301
 C518 C 0.79331 0.71039 0.24954
 C519 C 0.81626 0.71401 0.23531
 C520 C 0.83517 0.69439 0.23461
 H521 H 0.90266 0.58005 0.28740
 H522 H 0.93612 0.54625 0.28728
 H523 H 0.95388 0.56412 0.20710
 H524 H 0.92060 0.59821 0.20729
 H525 H 0.80488 0.64963 0.27332
 H526 H 0.77153 0.68387 0.27385
 H527 H 0.81944 0.73198 0.22470
 H528 H 0.85278 0.69767 0.22350
 C529 C 0.09050 0.25036 0.59256
 C530 C 0.07434 0.22853 0.58919
 C531 C 0.05550 0.22822 0.56955
 C532 C 0.05210 0.24995 0.55323
 C533 C 0.06806 0.27190 0.55678
 C534 C 0.08724 0.27200 0.57608
 C535 C 0.11068 0.25055 0.61311
 N536 N 0.13159 0.26663 0.61132
 N537 N 0.14984 0.26669 0.62973
 C538 C 0.14781 0.25084 0.65082
 N539 N 0.12684 0.23485 0.65268
 N540 N 0.10870 0.23463 0.63415
 C541 C 0.16806 0.25094 0.67129
 C542 C 0.16229 0.24215 0.69657
 C543 C 0.18140 0.24236 0.71592
 C544 C 0.20666 0.25088 0.71019
 C545 C 0.21257 0.25949 0.68499
 C546 C 0.19337 0.25974 0.66574
 H547 H 0.07647 0.21152 0.60152
 H548 H 0.04341 0.21108 0.56731
 H549 H 0.06593 0.28888 0.54442
 H550 H 0.09932 0.28915 0.57829
 H551 H 0.14294 0.23539 0.70145
 H552 H 0.17660 0.23566 0.73533
 H553 H 0.23203 0.26613 0.68033
 H554 H 0.19841 0.26650 0.64642
 C555 C 0.90619 0.75200 0.59441
 C556 C 0.92265 0.77362 0.59111
 C557 C 0.94208 0.77338 0.57207
 C558 C 0.94579 0.75130 0.55630
 C559 C 0.92951 0.72959 0.55975
 C560 C 0.90973 0.73003 0.57844
 C561 C 0.88552 0.75234 0.61446
 N562 N 0.86452 0.73639 0.61247
 N563 N 0.84590 0.73674 0.63052
 C564 C 0.84763 0.75289 0.65140
 N565 N 0.86867 0.76877 0.65342
 N566 N 0.88718 0.76858 0.63527
 C567 C 0.82709 0.75311 0.67158
 C568 C 0.83260 0.76207 0.69684
 C569 C 0.81331 0.76200 0.71600
 C570 C 0.78810 0.75343 0.71008
 C571 C 0.78241 0.74472 0.68488
 C572 C 0.80182 0.74433 0.66581
 H573 H 0.92032 0.79087 0.60306
 H574 H 0.95442 0.79036 0.56990
 H575 H 0.93187 0.71235 0.54779
 H576 H 0.89743 0.71303 0.58062
 H577 H 0.85191 0.76882 0.70189
 H578 H 0.81793 0.76875 0.73543
 H579 H 0.76300 0.73803 0.68009
 H580 H 0.79698 0.73743 0.64650
 C581 C 0.09558 0.74834 0.41103
 C582 C 0.09181 0.72679 0.42751
 C583 C 0.07227 0.72719 0.44643
 C584 C 0.05645 0.74933 0.44961
 C585 C 0.06042 0.77100 0.43336
 C586 C 0.07962 0.77041 0.41408
 C587 C 0.11600 0.74775 0.39073
 N588 N 0.11440 0.76352 0.36954
 N589 N 0.13271 0.76287 0.35119
 C590 C 0.15348 0.74659 0.35339
 N591 N 0.15514 0.73091 0.37464
 N592 N 0.13672 0.73139 0.39288
 C593 C 0.17390 0.74602 0.33310
 C594 C 0.19909 0.73702 0.33899
 C595 C 0.21848 0.73688 0.31992
 C596 C 0.21286 0.74528 0.29458
 C597 C 0.18771 0.75396 0.28851
 C598 C 0.16842 0.75455 0.30768
 H599 H 0.10374 0.70947 0.42554
 H600 H 0.06970 0.71024 0.45876
 H601 H 0.04844 0.78829 0.43531
 H602 H 0.08215 0.78735 0.40174
 H603 H 0.20391 0.73045 0.35843
 H604 H 0.23786 0.73016 0.32484
 H605 H 0.18315 0.76052 0.26899
 H606 H 0.14917 0.76145 0.30254
 C607 C 0.90755 0.24839 0.40246
 C608 C 0.91437 0.27179 0.41499
 C609 C 0.93323 0.27197 0.43460
 C610 C 0.94555 0.24873 0.44230
 C611 C 0.93869 0.22531 0.42985
 C612 C 0.91999 0.22516 0.41008
 C613 C 0.88753 0.24824 0.38167
 N614 N 0.88357 0.22668 0.36682
 N615 N 0.86553 0.22658 0.34819
 C616 C 0.85061 0.24802 0.34368
 N617 N 0.85456 0.26956 0.35854
 N618 N 0.87266 0.26969 0.37710
 C619 C 0.83035 0.24792 0.32312
 C620 C 0.81212 0.26835 0.32152
 C621 C 0.79285 0.26819 0.30237
 C622 C 0.79158 0.24778 0.28425
 C623 C 0.80976 0.22740 0.28565
 C624 C 0.82892 0.22739 0.30499
 H625 H 0.90524 0.29005 0.40957
 H626 H 0.93804 0.29033 0.44383
 H627 H 0.94787 0.20708 0.43529
 H628 H 0.91516 0.20678 0.40090
 H629 H 0.81254 0.28437 0.33524
 H630 H 0.77874 0.28390 0.30178
 H631 H 0.80903 0.21149 0.27181
 H632 H 0.84268 0.21139 0.30563
 C633 C 0.24670 0.40544 0.90889
 C634 C 0.26708 0.40615 0.92708
 C635 C 0.26777 0.42554 0.94617
 C636 C 0.24771 0.44409 0.94785
 C637 C 0.22713 0.44317 0.92990
 C638 C 0.22682 0.42421 0.91035
 C639 C 0.24623 0.38525 0.88844
 N640 N 0.23567 0.39038 0.86476
 N641 N 0.23554 0.37225 0.84620
 C642 C 0.24567 0.34819 0.85071
 N643 N 0.25605 0.34299 0.87445
 N644 N 0.25647 0.36122 0.89291
 C645 C 0.24557 0.32814 0.83014
 C646 C 0.24353 0.30159 0.83659
 C647 C 0.24325 0.28264 0.81706
 C648 C 0.24579 0.28986 0.79083
 C649 C 0.24818 0.31637 0.78442
 C650 C 0.24767 0.33538 0.80387
 H651 H 0.28269 0.39195 0.92627
 H652 H 0.28378 0.42581 0.95988
 H653 H 0.21150 0.45735 0.93076
 H654 H 0.21084 0.42400 0.89660
 H655 H 0.24172 0.29555 0.85670
 H656 H 0.24117 0.26230 0.82238
 H657 H 0.25047 0.32231 0.76432
 H658 H 0.24948 0.35571 0.79843
 C659 C 0.75177 0.40720 0.09032
 C660 C 0.72871 0.42060 0.08408
 C661 C 0.72873 0.44018 0.06518
 C662 C 0.75184 0.44697 0.05225
 C663 C 0.77494 0.43371 0.05859
 C664 C 0.77489 0.41395 0.07733
 C665 C 0.75167 0.38631 0.11023
 N666 N 0.77248 0.37019 0.11314
 N667 N 0.77231 0.35136 0.13100
 C668 C 0.75137 0.34792 0.14677
 N669 N 0.73060 0.36407 0.14389
 N670 N 0.73072 0.38283 0.12597
 C671 C 0.75121 0.32708 0.16673
 C672 C 0.73191 0.32666 0.18614
 C673 C 0.73192 0.30719 0.20514
 C674 C 0.75101 0.28764 0.20489
 C675 C 0.77019 0.28783 0.18550
 C676 C 0.77039 0.30746 0.16664
 H677 H 0.71056 0.41584 0.09366
 H678 H 0.71062 0.45007 0.06077
 H679 H 0.79306 0.43847 0.04893
 H680 H 0.79300 0.40407 0.08173
 H681 H 0.71695 0.34154 0.18685
 H682 H 0.71714 0.30742 0.22016
 H683 H 0.78502 0.27280 0.18506
 H684 H 0.78546 0.30715 0.15192
 C685 C 0.75055 0.59624 0.90628
 C686 C 0.72887 0.57992 0.90974
 C687 C 0.72901 0.56065 0.92897
 C688 C 0.75102 0.55699 0.94477
 C689 C 0.77279 0.57314 0.94116
 C690 C 0.77246 0.59275 0.92227
 C691 C 0.75029 0.61675 0.88607
 N692 N 0.76620 0.63781 0.88794
 N693 N 0.76589 0.65633 0.86976
 C694 C 0.74981 0.65443 0.84887
 N695 N 0.73398 0.63332 0.84695
 N696 N 0.73414 0.61491 0.86524
 C697 C 0.74955 0.67488 0.82860
 C698 C 0.74072 0.66916 0.80335
 C699 C 0.74066 0.68842 0.78413
 C700 C 0.74895 0.71377 0.78999
 C701 C 0.75758 0.71965 0.81518
 C702 C 0.75810 0.70029 0.83430
 H703 H 0.71167 0.58224 0.89778
 H704 H 0.71200 0.54841 0.93128
 H705 H 0.78998 0.57079 0.95315
 H706 H 0.78948 0.60497 0.91996
 H707 H 0.73416 0.64973 0.79837
 H708 H 0.73398 0.68367 0.76471
 H709 H 0.76405 0.73919 0.81990
 H710 H 0.76488 0.70527 0.85362
 C711 C 0.25146 0.59000 0.09671
 C712 C 0.23119 0.57168 0.09571
 C713 C 0.23061 0.55281 0.07609
 C714 C 0.25067 0.55149 0.05758
 C715 C 0.27115 0.56956 0.05880
 C716 C 0.27135 0.58889 0.07799
 C717 C 0.25182 0.61017 0.11718
 N718 N 0.26231 0.63402 0.11250
 N719 N 0.26242 0.65230 0.13092
 C720 C 0.25233 0.64732 0.15484
 N721 N 0.24200 0.62342 0.15957
 N722 N 0.24160 0.60525 0.14105
 C723 C 0.25257 0.66749 0.17530
 C724 C 0.25473 0.66037 0.20160
 C725 C 0.25526 0.67947 0.22097
 C726 C 0.25286 0.70596 0.21444
 C727 C 0.25032 0.71306 0.18817
 C728 C 0.25058 0.69401 0.16873
 H729 H 0.21557 0.57221 0.10985
 H730 H 0.21466 0.53902 0.07559
 H731 H 0.28677 0.56898 0.04465
 H732 H 0.28725 0.60274 0.07843
 H733 H 0.25646 0.64006 0.20714
 H734 H 0.25747 0.67362 0.24110
 H735 H 0.24819 0.73337 0.18276
 H736 H 0.24871 0.69997 0.14859
 C737 C 0.40431 0.09466 0.74822
 C738 C 0.40983 0.08048 0.72555
 C739 C 0.42936 0.06147 0.72556
 C740 C 0.44318 0.05563 0.74853
 C741 C 0.43717 0.06967 0.77135
 C742 C 0.41825 0.08926 0.77105
 C743 C 0.38404 0.11499 0.74811
 N744 N 0.38749 0.13755 0.76149
 N745 N 0.36917 0.15596 0.76139
 C746 C 0.34656 0.15231 0.74822
 N747 N 0.34304 0.12968 0.73497
 N748 N 0.36153 0.11143 0.73475
 C749 C 0.32614 0.17247 0.74847
 C750 C 0.29984 0.16533 0.75014
 C751 C 0.28047 0.18446 0.75099
 C752 C 0.28705 0.21098 0.74923
 C753 C 0.31335 0.21807 0.74707
 C754 C 0.33278 0.19898 0.74716
 H755 H 0.39933 0.08444 0.70770
 H756 H 0.43331 0.05110 0.70761
 H757 H 0.44738 0.06587 0.78941
 H758 H 0.41417 0.09991 0.78879
 H759 H 0.29432 0.14498 0.75137
 H760 H 0.26033 0.17860 0.75296
 H761 H 0.31881 0.23840 0.74541
 H762 H 0.35296 0.20488 0.74570
 C763 C 0.40972 0.90243 0.25750
 C764 C 0.41038 0.92163 0.27699
 C765 C 0.42942 0.94110 0.27656
 C766 C 0.44765 0.94210 0.25622
 C767 C 0.44684 0.92304 0.23662
 C768 C 0.42826 0.90318 0.23744
 C769 C 0.38965 0.88185 0.25787
 N770 N 0.39469 0.85789 0.24776
 N771 N 0.37650 0.83940 0.24780
 C772 C 0.35245 0.84426 0.25764
 N773 N 0.34737 0.86825 0.26767
 N774 N 0.36567 0.88664 0.26792
 C775 C 0.33212 0.82394 0.25719
 C776 C 0.30579 0.83089 0.25476
 C777 C 0.28658 0.81166 0.25379
 C778 C 0.29330 0.78520 0.25602
 C779 C 0.31959 0.77825 0.25877
 C780 C 0.33888 0.79744 0.25898
 H781 H 0.39634 0.92141 0.29272
 H782 H 0.42963 0.95565 0.29184
 H783 H 0.46078 0.92333 0.22081
 H784 H 0.42809 0.88867 0.22212
 H785 H 0.30010 0.85118 0.25312
 H786 H 0.26644 0.81740 0.25133
 H787 H 0.32514 0.75795 0.26071
 H788 H 0.35905 0.79160 0.26099
 C789 C 0.59264 0.09225 0.24908
 C790 C 0.58027 0.08582 0.27262
 C791 C 0.56138 0.06625 0.27345
 C792 C 0.55425 0.05279 0.25073
 C793 C 0.56647 0.05930 0.22714
 C794 C 0.58553 0.07874 0.22635
 C795 C 0.61289 0.11281 0.24831
 N796 N 0.62782 0.11629 0.22677
 N797 N 0.64619 0.13459 0.22620
 C798 C 0.65036 0.15027 0.24709
 N799 N 0.63537 0.14685 0.26860
 N800 N 0.61706 0.12849 0.26920
 C801 C 0.67095 0.17050 0.24651
 C802 C 0.67262 0.18935 0.26635
 C803 C 0.69211 0.20833 0.26580
 C804 C 0.71040 0.20867 0.24556
 C805 C 0.70890 0.18987 0.22582
 C806 C 0.68927 0.17105 0.22619
 H807 H 0.58531 0.09576 0.29050
 H808 H 0.55230 0.06174 0.29193
 H809 H 0.56143 0.04926 0.20931
 H810 H 0.59462 0.08323 0.20788
 H811 H 0.65880 0.18952 0.28226
 H812 H 0.69302 0.22274 0.28119
 H813 H 0.72307 0.18968 0.21022
 H814 H 0.68866 0.15676 0.21069
 C815 C 0.59086 0.91001 0.74995
 C816 C 0.59002 0.92877 0.73004
 C817 C 0.57042 0.94770 0.72970
 C818 C 0.55176 0.94862 0.74964
 C819 C 0.55281 0.93010 0.76975
 C820 C 0.57199 0.91074 0.76971
 C821 C 0.61129 0.88976 0.75006
 N822 N 0.60653 0.86580 0.76027
 N823 N 0.62491 0.84745 0.76018
 C824 C 0.64885 0.85245 0.75016
 N825 N 0.65365 0.87646 0.74009
 N826 N 0.63517 0.89471 0.73990
 C827 C 0.66924 0.83217 0.75018
 C828 C 0.69560 0.83912 0.75214
 C829 C 0.71488 0.81990 0.75251
 C830 C 0.70819 0.79347 0.75014
 C831 C 0.68187 0.78654 0.74781
 C832 C 0.66253 0.80570 0.74821
 H833 H 0.60428 0.92854 0.71452
 H834 H 0.57005 0.96184 0.71404
 H835 H 0.53856 0.93037 0.78529
 H836 H 0.57230 0.89655 0.78534
 H837 H 0.70125 0.85940 0.75388
 H838 H 0.73506 0.82561 0.75460
 H839 H 0.67634 0.76627 0.74572
 H840 H 0.64235 0.79987 0.74649
 C841 C 0.74755 0.90971 0.59194
 C842 C 0.77097 0.92146 0.58413
 C843 C 0.77113 0.94055 0.56472
 C844 C 0.74780 0.94858 0.55273
 C845 C 0.72432 0.93687 0.56072
 C846 C 0.72423 0.91760 0.57998
 C847 C 0.74748 0.88935 0.61243
 N848 N 0.72595 0.87468 0.61694
 N849 N 0.72597 0.85633 0.63531
 C850 C 0.74751 0.85196 0.65003
 N851 N 0.76902 0.86667 0.64555
 N852 N 0.76902 0.88493 0.62712
 C853 C 0.74759 0.83165 0.67055
 C854 C 0.76796 0.83048 0.68880
 C855 C 0.76802 0.81147 0.70825
 C856 C 0.74792 0.79306 0.70965
 C857 C 0.72760 0.79404 0.69146
 C858 C 0.72735 0.81325 0.67215
 H859 H 0.78929 0.91578 0.59289
 H860 H 0.78963 0.94902 0.55921
 H861 H 0.70592 0.94244 0.55203
 H862 H 0.70583 0.90901 0.58561
 H863 H 0.78376 0.84442 0.68824
 H864 H 0.78369 0.81116 0.72234
 H865 H 0.71194 0.77994 0.69229
 H866 H 0.71141 0.81356 0.65837
 C867 C 0.24969 0.40361 0.09320
 C868 C 0.22677 0.41743 0.08775
 C869 C 0.22652 0.43676 0.06855
 C870 C 0.24950 0.44336 0.05509
 C871 C 0.27257 0.42966 0.06103
 C872 C 0.27251 0.40966 0.07955
 C873 C 0.24985 0.38313 0.11327
 N874 N 0.26137 0.35972 0.10865
 N875 N 0.26148 0.34119 0.12685
 C876 C 0.25045 0.34557 0.15046
 N877 N 0.23910 0.36905 0.15514
 N878 N 0.23862 0.38741 0.13679
 C879 C 0.25097 0.32536 0.17078
 C880 C 0.25835 0.33183 0.19624
 C881 C 0.25900 0.31268 0.21558
 C882 C 0.25107 0.28712 0.21003
 C883 C 0.24377 0.28061 0.18453
 C884 C 0.24408 0.29954 0.16493
 H885 H 0.20894 0.41296 0.09808
 H886 H 0.20840 0.44685 0.06467
 H887 H 0.29063 0.43402 0.05108
 H888 H 0.29042 0.39926 0.08360
 H889 H 0.26414 0.35156 0.20101
 H890 H 0.26576 0.31779 0.23484
 H891 H 0.23794 0.26086 0.17986
 H892 H 0.23840 0.29419 0.14535
 C893 C 0.25000 0.09416 0.59229
 C894 C 0.22672 0.08300 0.58329
 C895 C 0.22713 0.06335 0.56445
 C896 C 0.25090 0.05411 0.55430
 C897 C 0.27421 0.06530 0.56343
 C898 C 0.27374 0.08516 0.58208
 C899 C 0.24948 0.11495 0.61233
 N900 N 0.27103 0.12939 0.61748
 N901 N 0.27053 0.14799 0.63558
 C902 C 0.24849 0.15285 0.64938
 N903 N 0.22697 0.13840 0.64423
 N904 N 0.22743 0.11989 0.62606
 C905 C 0.24797 0.17327 0.66977
 C906 C 0.22741 0.17429 0.68781
 C907 C 0.22710 0.19320 0.70736
 C908 C 0.24712 0.21168 0.70905
 C909 C 0.26755 0.21093 0.69096
 C910 C 0.26807 0.19179 0.67158
 H911 H 0.20809 0.08955 0.59068
 H912 H 0.20874 0.05532 0.55800
 H913 H 0.29292 0.05883 0.55615
 H914 H 0.29203 0.09329 0.58866
 H915 H 0.21171 0.16024 0.68707
 H916 H 0.21134 0.19330 0.72135
 H917 H 0.28315 0.22509 0.69198
 H918 H 0.28414 0.19161 0.65795
 C919 C 0.25298 0.90314 0.41158
 C920 C 0.27614 0.91054 0.42415
 C921 C 0.27603 0.93042 0.44278
 C922 C 0.25274 0.94320 0.44942
 C923 C 0.22958 0.93571 0.43696
 C924 C 0.22972 0.91600 0.41819
 C925 C 0.25304 0.88226 0.39162
 N926 N 0.23174 0.87804 0.37655
 N927 N 0.23176 0.85941 0.35851
 C928 C 0.25304 0.84410 0.35482
 N929 N 0.27433 0.84825 0.36993
 N930 N 0.27434 0.86697 0.38793
 C931 C 0.25302 0.82348 0.33459
 C932 C 0.27312 0.80483 0.33347
 C933 C 0.27303 0.78549 0.31428
 C934 C 0.25301 0.78462 0.29576
 C935 C 0.23300 0.80321 0.29676
 C936 C 0.23290 0.82236 0.31606
 H937 H 0.29441 0.90109 0.41948
 H938 H 0.29419 0.93570 0.45208
 H939 H 0.21131 0.94519 0.44160
 H940 H 0.21151 0.91077 0.40896
 H941 H 0.28886 0.80510 0.34747
 H942 H 0.28862 0.77126 0.31377
 H943 H 0.21756 0.80300 0.28241
 H944 H 0.21721 0.83648 0.31626
 C945 C 0.74967 0.09289 0.40379
 C946 C 0.72966 0.07428 0.40482
 C947 C 0.72921 0.05557 0.42461
 C948 C 0.74914 0.05472 0.44328
 C949 C 0.76935 0.07309 0.44205
 C950 C 0.76942 0.09224 0.42268
 C951 C 0.74993 0.11291 0.38314
 N952 N 0.76029 0.13684 0.38764
 N953 N 0.76037 0.15497 0.36906
 C954 C 0.75037 0.14977 0.34516
 N955 N 0.74015 0.12578 0.34061
 N956 N 0.73979 0.10775 0.35928
 C957 C 0.75057 0.16982 0.32455
 C958 C 0.75253 0.16257 0.29827
 C959 C 0.75310 0.18159 0.27880
 C960 C 0.75095 0.20812 0.28523
 C961 C 0.74857 0.21534 0.31147
 C962 C 0.74877 0.19638 0.33100
 H963 H 0.71415 0.07445 0.39054
 H964 H 0.71348 0.04153 0.42511
 H965 H 0.78488 0.07288 0.45630
 H966 H 0.78512 0.10631 0.42223
 H967 H 0.75411 0.14222 0.29282
 H968 H 0.75519 0.17564 0.25869
 H969 H 0.74657 0.23568 0.31680
 H970 H 0.74702 0.20245 0.35111
 C971 C 0.59357 0.75243 0.90943
 C972 C 0.58313 0.72870 0.91827
 C973 C 0.56413 0.72833 0.93774
 C974 C 0.55482 0.75173 0.94873
 C975 C 0.56527 0.77550 0.93975
 C976 C 0.58448 0.77581 0.92046
 C977 C 0.61376 0.75275 0.88879
 N978 N 0.62756 0.77475 0.88365
 N979 N 0.64570 0.77498 0.86511
 C980 C 0.65072 0.75324 0.85083
 N981 N 0.63689 0.73127 0.85595
 N982 N 0.61885 0.73100 0.87456
 C983 C 0.67080 0.75346 0.83009
 C984 C 0.67217 0.73299 0.81191
 C985 C 0.69097 0.73319 0.79228
 C986 C 0.70901 0.75362 0.79064
 C987 C 0.70781 0.77405 0.80875
 C988 C 0.68878 0.77406 0.82822
 H989 H 0.58977 0.71032 0.91027
 H990 H 0.55667 0.70961 0.94403
 H991 H 0.55872 0.79396 0.94766
 H992 H 0.59204 0.79444 0.91404
 H993 H 0.65853 0.71693 0.81266
 H994 H 0.69141 0.71743 0.77826
 H995 H 0.72161 0.78997 0.80778
 H996 H 0.68831 0.79008 0.84194
 C997 C 0.09379 0.24797 0.40647
 C998 C 0.08059 0.22490 0.41312
 C999 C 0.06111 0.22513 0.43212
 C1000 C 0.05423 0.24847 0.44470
 C1001 C 0.06737 0.27155 0.43802
 C1002 C 0.08701 0.27128 0.41921
 C1003 C 0.11442 0.24775 0.38632
 N1004 N 0.13040 0.26860 0.38314
 N1005 N 0.14890 0.26844 0.36498
 C1006 C 0.15213 0.24746 0.34916
 N1007 N 0.13613 0.22662 0.35232
 N1008 N 0.11771 0.22674 0.37055
 C1009 C 0.17258 0.24734 0.32883
 C1010 C 0.17261 0.22818 0.30924
 C1011 C 0.19174 0.22822 0.28993
 C1012 C 0.21136 0.24718 0.29005
 C1013 C 0.21153 0.26625 0.30957
 C1014 C 0.19223 0.26643 0.32874
 H1015 H 0.08538 0.20660 0.40375
 H1016 H 0.05132 0.20704 0.43681
 H1017 H 0.06256 0.28984 0.44741
 H1018 H 0.09674 0.28940 0.41451
 H1019 H 0.15768 0.21330 0.30864
 H1020 H 0.19121 0.21353 0.27480
 H1021 H 0.22661 0.28099 0.30993
 H1022 H 0.19283 0.28141 0.34358
 C1023 C 0.59281 0.24999 0.08975
 C1024 C 0.58535 0.22675 0.07741
 C1025 C 0.56569 0.22681 0.05860
 C1026 C 0.55339 0.25027 0.05121
 C1027 C 0.56119 0.27360 0.06345
 C1028 C 0.58043 0.27338 0.08270
 C1029 C 0.61339 0.24979 0.10987
 N1030 N 0.61378 0.26813 0.12894
 N1031 N 0.63222 0.26780 0.14718
 C1032 C 0.65117 0.24930 0.14691
 N1033 N 0.65087 0.23105 0.12775
 N1034 N 0.63227 0.23121 0.10968
 C1035 C 0.67172 0.24899 0.16706
 C1036 C 0.69633 0.23827 0.16161
 C1037 C 0.71583 0.23820 0.18057
 C1038 C 0.71083 0.24826 0.20543
 C1039 C 0.68625 0.25873 0.21106
 C1040 C 0.66692 0.25937 0.19192
 H1041 H 0.59448 0.20840 0.08256
 H1042 H 0.56037 0.20843 0.04968
 H1043 H 0.55223 0.29207 0.05841
 H1044 H 0.58589 0.29161 0.09183
 H1045 H 0.70060 0.23028 0.14258
 H1046 H 0.73477 0.23011 0.17599
 H1047 H 0.68217 0.26657 0.23020
 H1048 H 0.64810 0.26762 0.19668
 C1049 C 0.40470 0.25042 0.90619
 C1050 C 0.41692 0.27381 0.91360
 C1051 C 0.43633 0.27383 0.93268
 C1052 C 0.44414 0.25044 0.94465
 C1053 C 0.43201 0.22704 0.93720
 C1054 C 0.41245 0.22705 0.91827
 C1055 C 0.38405 0.25042 0.88600
 N1056 N 0.36964 0.22870 0.88140
 N1057 N 0.35110 0.22871 0.86327
 C1058 C 0.34621 0.25042 0.84890
 N1059 N 0.36064 0.27213 0.85348
 N1060 N 0.37912 0.27215 0.87166
 C1061 C 0.32563 0.25042 0.82865
 C1062 C 0.32330 0.27141 0.81114
 C1063 C 0.30403 0.27133 0.79194
 C1064 C 0.28654 0.25042 0.79003
 C1065 C 0.28868 0.22952 0.80753
 C1066 C 0.30811 0.22945 0.82657
 H1067 H 0.41140 0.29218 0.90477
 H1068 H 0.44532 0.29218 0.93794
 H1069 H 0.43754 0.20869 0.94608
 H1070 H 0.40352 0.20867 0.91301
 H1071 H 0.33649 0.28782 0.81210
 H1072 H 0.30275 0.28756 0.77850
 H1073 H 0.27527 0.21328 0.80640
 H1074 H 0.30927 0.21303 0.83977
 C1075 C 0.40908 0.74862 0.09674
 C1076 C 0.41594 0.77215 0.08448
 C1077 C 0.43505 0.77259 0.06510
 C1078 C 0.44762 0.74948 0.05738
 C1079 C 0.44069 0.72593 0.06956
 C1080 C 0.42172 0.72552 0.08907
 C1081 C 0.38887 0.74816 0.11739
 N1082 N 0.38472 0.72631 0.13178
 N1083 N 0.36661 0.72592 0.15033
 C1084 C 0.35180 0.74734 0.15527
 N1085 N 0.35593 0.76917 0.14086
 N1086 N 0.37409 0.76959 0.12236
 C1087 C 0.33157 0.74689 0.17588
 C1088 C 0.31372 0.76758 0.17834
 C1089 C 0.29455 0.76709 0.19763
 C1090 C 0.29301 0.74604 0.21502
 C1091 C 0.31085 0.72542 0.21275
 C1092 C 0.32987 0.72577 0.19329
 H1093 H 0.40665 0.79032 0.08993
 H1094 H 0.43990 0.79105 0.05608
 H1095 H 0.45003 0.70779 0.06410
 H1096 H 0.41689 0.70703 0.09804
 H1097 H 0.31439 0.78410 0.16522
 H1098 H 0.28085 0.78310 0.19902
 H1099 H 0.31001 0.70908 0.22608
 H1100 H 0.34334 0.70956 0.19203
 C1101 C 0.90488 0.59563 0.75074
 C1102 C 0.91569 0.58703 0.77434
 C1103 C 0.93468 0.56749 0.77464
 C1104 C 0.94360 0.55622 0.75127
 C1105 C 0.93279 0.56498 0.72762
 C1106 C 0.91358 0.58432 0.72739
 C1107 C 0.88466 0.61627 0.75050
 N1108 N 0.87017 0.62079 0.72885
 N1109 N 0.85192 0.63928 0.72871
 C1110 C 0.84748 0.65412 0.75016
 N1111 N 0.86202 0.64964 0.77178
 N1112 N 0.88018 0.63106 0.77197
 C1113 C 0.82720 0.67468 0.75003
 C1114 C 0.82645 0.69367 0.76978
 C1115 C 0.80733 0.71308 0.76963
 C1116 C 0.78844 0.71365 0.74996
 C1117 C 0.78902 0.69472 0.73029
 C1118 C 0.80833 0.67549 0.73021
 H1119 H 0.90935 0.59526 0.79268
 H1120 H 0.94245 0.56138 0.79327
 H1121 H 0.93905 0.55685 0.70919
 H1122 H 0.90570 0.59057 0.70887
 H1123 H 0.84076 0.69368 0.78524
 H1124 H 0.80724 0.72768 0.78486
 H1125 H 0.77445 0.69481 0.71506
 H1126 H 0.80828 0.66110 0.71480
 C1127 C 0.40734 0.08939 0.25152
 C1128 C 0.41511 0.07701 0.22840
 C1129 C 0.43463 0.05797 0.22871
 C1130 C 0.44656 0.05049 0.25226
 C1131 C 0.43849 0.06280 0.27542
 C1132 C 0.41930 0.08214 0.27500
 C1133 C 0.38691 0.10979 0.25117
 N1134 N 0.38475 0.12713 0.27105
 N1135 N 0.36644 0.14555 0.27072
 C1136 C 0.34939 0.14728 0.25060
 N1137 N 0.35148 0.12990 0.23076
 N1138 N 0.36992 0.11159 0.23099
 C1139 C 0.32899 0.16770 0.25029
 C1140 C 0.30673 0.16486 0.23462
 C1141 C 0.28740 0.18408 0.23448
 C1142 C 0.29030 0.20666 0.24954
 C1143 C 0.31241 0.20962 0.26520
 C1144 C 0.33154 0.19022 0.26572
 H1145 H 0.40633 0.08227 0.20997
 H1146 H 0.44020 0.04901 0.21044
 H1147 H 0.44714 0.05770 0.29397
 H1148 H 0.41364 0.09123 0.29316
 H1149 H 0.30409 0.14764 0.22273
 H1150 H 0.27019 0.18137 0.22263
 H1151 H 0.31475 0.22692 0.27707
 H1152 H 0.34847 0.19299 0.27796
 C1153 C 0.09434 0.58984 0.25083
 C1154 C 0.08540 0.57823 0.27393
 C1155 C 0.06606 0.55906 0.27329
 C1156 C 0.05533 0.55079 0.24944
 C1157 C 0.06447 0.56238 0.22632
 C1158 C 0.08361 0.58172 0.22703
 C1159 C 0.11476 0.61026 0.25149
 N1160 N 0.11994 0.62492 0.23008
 N1161 N 0.13831 0.64323 0.23063
 C1162 C 0.15238 0.64759 0.25258
 N1163 N 0.14722 0.63291 0.27398
 N1164 N 0.12876 0.61468 0.27347
 C1165 C 0.17298 0.66782 0.25313
 C1166 C 0.19099 0.66871 0.27372
 C1167 C 0.21060 0.68757 0.27410
 C1168 C 0.21239 0.70610 0.25410
 C1169 C 0.19438 0.70542 0.23360
 C1170 C 0.17494 0.68636 0.23303
 H1171 H 0.09321 0.58409 0.29261
 H1172 H 0.05963 0.55068 0.29154
 H1173 H 0.05679 0.55665 0.20754
 H1174 H 0.09012 0.59017 0.20885
 H1175 H 0.19015 0.65465 0.28942
 H1176 H 0.22451 0.68763 0.28993
 H1177 H 0.19545 0.71963 0.21804
 H1178 H 0.16135 0.68629 0.21693
 C1179 C 0.90770 0.40495 0.24406
 C1180 C 0.91060 0.42124 0.26586
 C1181 C 0.93005 0.44025 0.26644
 C1182 C 0.94671 0.44373 0.24504
 C1183 C 0.94363 0.42768 0.22310
 C1184 C 0.92447 0.40831 0.22271
 C1185 C 0.88731 0.38457 0.24371
 N1186 N 0.88938 0.36354 0.22776
 N1187 N 0.87116 0.34505 0.22775
 C1188 C 0.85003 0.34696 0.24353
 N1189 N 0.84790 0.36806 0.25937
 N1190 N 0.86622 0.38642 0.25954
 C1191 C 0.82975 0.32648 0.24358
 C1192 C 0.80450 0.33209 0.25255
 C1193 C 0.78532 0.31280 0.25261
 C1194 C 0.79119 0.28748 0.24415
 C1195 C 0.81635 0.28170 0.23531
 C1196 C 0.83545 0.30111 0.23481
 H1197 H 0.89805 0.41906 0.28264
 H1198 H 0.93191 0.45240 0.28358
 H1199 H 0.95626 0.42988 0.20637
 H1200 H 0.92263 0.39612 0.20560
 H1201 H 0.79949 0.35147 0.25929
 H1202 H 0.76593 0.31751 0.25943
 H1203 H 0.82110 0.26221 0.22868
 H1204 H 0.85475 0.29618 0.22791
 C1205 C 0.08942 0.40803 0.75272
 C1206 C 0.08300 0.42134 0.72967
 C1207 C 0.06396 0.44080 0.72969
 C1208 C 0.05099 0.44758 0.75280
 C1209 C 0.05747 0.43440 0.77590
 C1210 C 0.07640 0.41476 0.77584
 C1211 C 0.10958 0.38731 0.75253
 N1212 N 0.11328 0.37166 0.77356
 N1213 N 0.13138 0.35302 0.77327
 C1214 C 0.14661 0.34930 0.75196
 N1215 N 0.14292 0.36497 0.73097
 N1216 N 0.12477 0.38353 0.73124
 C1217 C 0.16689 0.32871 0.75159
 C1218 C 0.18528 0.32780 0.73132
 C1219 C 0.20460 0.30863 0.73103
 C1220 C 0.20577 0.28983 0.75082
 C1221 C 0.18740 0.29051 0.77099
 C1222 C 0.16819 0.30986 0.77145
 H1223 H 0.09258 0.41662 0.71150
 H1224 H 0.05947 0.45061 0.71157
 H1225 H 0.04779 0.43915 0.79402
 H1226 H 0.08091 0.40495 0.79395
 H1227 H 0.18495 0.34207 0.71579
 H1228 H 0.21882 0.30856 0.71547
 H1229 H 0.18805 0.27611 0.78640
 H1230 H 0.15431 0.30995 0.78730
 C1231 C 0.91000 0.75043 0.40777
 C1232 C 0.92321 0.77350 0.41433
 C1233 C 0.94190 0.77355 0.43409
 C1234 C 0.94799 0.75046 0.44755
 C1235 C 0.93490 0.72736 0.44090
 C1236 C 0.91602 0.72737 0.42132
 C1237 C 0.89002 0.75040 0.38698
 N1238 N 0.87374 0.72977 0.38398
 N1239 N 0.85567 0.72978 0.36540
 C1240 C 0.85319 0.75037 0.34894
 N1241 N 0.86952 0.77098 0.35188
 N1242 N 0.88752 0.77102 0.37055
 C1243 C 0.83303 0.75038 0.32834
 C1244 C 0.83365 0.76894 0.30817
 C1245 C 0.81459 0.76888 0.28877
 C1246 C 0.79450 0.75043 0.28934
 C1247 C 0.79365 0.73204 0.30948
 C1248 C 0.81284 0.73187 0.32872
 H1249 H 0.91898 0.79162 0.40433
 H1250 H 0.95170 0.79165 0.43872
 H1251 H 0.93912 0.70927 0.45094
 H1252 H 0.90627 0.70924 0.41671
 H1253 H 0.84894 0.78342 0.30728
 H1254 H 0.81542 0.78325 0.27334
 H1255 H 0.77799 0.71795 0.31039
 H1256 H 0.81166 0.71744 0.34406
 C1257 C 0.90384 0.25107 0.58960
 C1258 C 0.91614 0.22757 0.58266
 C1259 C 0.93558 0.22722 0.56364
 C1260 C 0.94331 0.25039 0.55126
 C1261 C 0.93107 0.27391 0.55823
 C1262 C 0.91149 0.27423 0.57711
 C1263 C 0.88322 0.25142 0.60979
 N1264 N 0.86878 0.27323 0.61405
 N1265 N 0.85028 0.27353 0.63221
 C1266 C 0.84547 0.25206 0.64694
 N1267 N 0.85993 0.23026 0.64269
 N1268 N 0.87837 0.22994 0.62448
 C1269 C 0.82497 0.25241 0.66723
 C1270 C 0.82271 0.23168 0.68504
 C1271 C 0.80352 0.23209 0.70428
 C1272 C 0.78606 0.25308 0.70594
 C1273 C 0.78812 0.27373 0.68815
 C1274 C 0.80747 0.27347 0.66905
 H1275 H 0.91069 0.20936 0.59183
 H1276 H 0.94466 0.20878 0.55874
 H1277 H 0.93655 0.29210 0.54902
 H1278 H 0.90247 0.29269 0.58203
 H1279 H 0.83591 0.21521 0.68427
 H1280 H 0.80227 0.21606 0.71796
 H1281 H 0.77471 0.29002 0.68910
 H1282 H 0.80860 0.28969 0.65561
 C1283 C 0.09300 0.75046 0.59756
 C1284 C 0.08951 0.72847 0.58162
 C1285 C 0.07031 0.72836 0.56235
 C1286 C 0.05458 0.75042 0.55829
 C1287 C 0.05819 0.77248 0.57408
 C1288 C 0.07704 0.77241 0.59370
 C1289 C 0.11323 0.75052 0.61803
 N1290 N 0.11143 0.76690 0.63873
 N1291 N 0.12964 0.76690 0.65719
 C1292 C 0.15051 0.75069 0.65557
 N1293 N 0.15236 0.73438 0.63482
 N1294 N 0.13404 0.73423 0.61648
 C1295 C 0.17082 0.75078 0.67595
 C1296 C 0.19605 0.74167 0.67041
 C1297 C 0.21529 0.74188 0.68961
 C1298 C 0.20947 0.75071 0.71475
 C1299 C 0.18433 0.75966 0.72045
 C1300 C 0.16519 0.75992 0.70113
 H1301 H 0.10144 0.71123 0.58422
 H1302 H 0.06800 0.71112 0.55039
 H1303 H 0.04626 0.78972 0.57143
 H1304 H 0.07936 0.78967 0.60561
 H1305 H 0.20099 0.73466 0.65116
 H1306 H 0.23467 0.73494 0.68499
 H1307 H 0.17963 0.76654 0.73982
 H1308 H 0.14590 0.76693 0.70598
 C1309 C 0.75253 0.59471 0.09257
 C1310 C 0.73012 0.57968 0.08809
 C1311 C 0.72985 0.56070 0.06856
 C1312 C 0.75213 0.55607 0.05338
 C1313 C 0.77461 0.57095 0.05799
 C1314 C 0.77474 0.59021 0.07724
 C1315 C 0.75274 0.61495 0.11312
 N1316 N 0.77086 0.63422 0.11294
 N1317 N 0.77100 0.65248 0.13138
 C1318 C 0.75313 0.65213 0.15086
 N1319 N 0.73507 0.63280 0.15109
 N1320 N 0.73483 0.61464 0.13255
 C1321 C 0.75331 0.67238 0.17139
 C1322 C 0.74046 0.66811 0.19518
 C1323 C 0.74072 0.68719 0.21458
 C1324 C 0.75337 0.71099 0.21032
 C1325 C 0.76618 0.71541 0.18668
 C1326 C 0.76631 0.69618 0.16740
 H1327 H 0.71266 0.58275 0.09951
 H1328 H 0.71227 0.54948 0.06550
 H1329 H 0.79204 0.56787 0.04654
 H1330 H 0.79234 0.60140 0.08029
 H1331 H 0.73045 0.64991 0.19891
 H1332 H 0.73094 0.68349 0.23289
 H1333 H 0.77613 0.73370 0.18325
 H1334 H 0.77632 0.70008 0.14927
 C1335 C 0.24895 0.59230 0.91062
 C1336 C 0.22877 0.57387 0.91165
 C1337 C 0.22861 0.55461 0.93093
 C1338 C 0.24902 0.55301 0.94904
 C1339 C 0.26938 0.57122 0.94780
 C1340 C 0.26915 0.59092 0.92898
 C1341 C 0.24896 0.61282 0.89044
 N1342 N 0.25953 0.63659 0.89532
 N1343 N 0.25944 0.65514 0.87715
 C1344 C 0.24907 0.65052 0.85328
 N1345 N 0.23864 0.62670 0.84835
 N1346 N 0.23844 0.60826 0.86663
 C1347 C 0.24916 0.67099 0.83306
 C1348 C 0.25103 0.66426 0.80664
 C1349 C 0.25149 0.68365 0.78753
 C1350 C 0.24930 0.71006 0.79444
 C1351 C 0.24706 0.71677 0.82084
 C1352 C 0.24739 0.69743 0.84001
 H1353 H 0.21291 0.57459 0.89778
 H1354 H 0.21276 0.54072 0.93144
 H1355 H 0.28527 0.57043 0.96163
 H1356 H 0.28499 0.60483 0.92852
 H1357 H 0.25261 0.64402 0.80080
 H1358 H 0.25352 0.67807 0.76731
 H1359 H 0.24509 0.73700 0.82657
 H1360 H 0.24576 0.70311 0.86025
 C1361 C 0.75032 0.40912 0.90475
 C1362 C 0.72725 0.42194 0.91212
 C1363 C 0.72757 0.44107 0.93148
 C1364 C 0.75098 0.44799 0.94378
 C1365 C 0.77408 0.43528 0.93636
 C1366 C 0.77373 0.41598 0.91714
 C1367 C 0.74990 0.38877 0.88426
 N1368 N 0.77102 0.37342 0.87987
 N1369 N 0.77057 0.35512 0.86147
 C1370 C 0.74901 0.35146 0.84662
 N1371 N 0.72791 0.36684 0.85099
 N1372 N 0.72833 0.38506 0.86945
 C1373 C 0.74849 0.33122 0.82603
 C1374 C 0.72802 0.33053 0.80786
 C1375 C 0.72758 0.31162 0.78832
 C1376 C 0.74740 0.29286 0.78673
 C1377 C 0.76778 0.29335 0.80485
 C1378 C 0.76841 0.31243 0.82427
 H1379 H 0.70887 0.41710 0.90303
 H1380 H 0.70945 0.45053 0.93672
 H1381 H 0.79243 0.44013 0.94552
 H1382 H 0.79185 0.40654 0.91189
 H1383 H 0.71245 0.34476 0.80855
 H1384 H 0.71184 0.31168 0.77430
 H1385 H 0.78322 0.27896 0.80390
 H1386 H 0.78441 0.31236 0.83798
 C1387 C 0.59445 0.90486 0.25475
 C1388 C 0.59483 0.92508 0.27320
 C1389 C 0.57521 0.94402 0.27337
 C1390 C 0.55538 0.94350 0.25459
 C1391 C 0.55515 0.92345 0.23598
 C1392 C 0.57431 0.90407 0.23631
 C1393 C 0.61513 0.88486 0.25449
 N1394 N 0.60968 0.85983 0.24777
 N1395 N 0.62840 0.84182 0.24732
 C1396 C 0.65335 0.84825 0.25321
 N1397 N 0.65882 0.87330 0.25981
 N1398 N 0.64003 0.89123 0.26061
 C1399 C 0.67418 0.82844 0.25226
 C1400 C 0.69925 0.83528 0.24382
 C1401 C 0.71894 0.81649 0.24262
 C1402 C 0.71415 0.79086 0.25083
 C1403 C 0.68910 0.78395 0.25918
 C1404 C 0.66916 0.80254 0.25961
 H1405 H 0.61014 0.92602 0.28766
 H1406 H 0.57579 0.95937 0.28785
 H1407 H 0.53996 0.92261 0.22139
 H1408 H 0.57368 0.88874 0.22182
 H1409 H 0.70345 0.85503 0.23763
 H1410 H 0.73787 0.82191 0.23515
 H1411 H 0.68503 0.76414 0.26526
 H1412 H 0.64996 0.79681 0.26613
 C1413 C 0.58888 0.09706 0.74720
 C1414 C 0.58275 0.08393 0.77042
 C1415 C 0.56376 0.06446 0.77074
 C1416 C 0.55059 0.05753 0.74781
 C1417 C 0.55675 0.07057 0.72456
 C1418 C 0.57562 0.09020 0.72428
 C1419 C 0.60904 0.11770 0.74695
 N1420 N 0.61248 0.13312 0.72573
 N1421 N 0.63065 0.15165 0.72557
 C1422 C 0.64620 0.15547 0.74661
 N1423 N 0.64276 0.14003 0.76781
 N1424 N 0.62455 0.12158 0.76799
 C1425 C 0.66657 0.17589 0.74645
 C1426 C 0.68531 0.17683 0.76638
 C1427 C 0.70470 0.19586 0.76617
 C1428 C 0.70558 0.21449 0.74622
 C1429 C 0.68688 0.21377 0.72637
 C1430 C 0.66759 0.19456 0.72640
 H1431 H 0.59254 0.08876 0.78845
 H1432 H 0.55949 0.05476 0.78897
 H1433 H 0.54690 0.06571 0.70658
 H1434 H 0.57991 0.09987 0.70605
 H1435 H 0.68519 0.16269 0.78203
 H1436 H 0.71919 0.19597 0.78148
 H1437 H 0.68731 0.22805 0.71083
 H1438 H 0.65343 0.19444 0.71081
 C1439 C 0.40513 0.90790 0.75158
 C1440 C 0.40800 0.92507 0.77269
 C1441 C 0.42708 0.94448 0.77224
 C1442 C 0.44333 0.94741 0.75046
 C1443 C 0.44031 0.93040 0.72924
 C1444 C 0.42156 0.91069 0.72990
 C1445 C 0.38507 0.88726 0.75216
 N1446 N 0.38719 0.86586 0.73671
 N1447 N 0.36913 0.84725 0.73727
 C1448 C 0.34810 0.84939 0.75314
 N1449 N 0.34593 0.87082 0.76853
 N1450 N 0.36410 0.88932 0.76812
 C1451 C 0.32791 0.82887 0.75359
 C1452 C 0.30266 0.83455 0.76250
 C1453 C 0.28348 0.81527 0.76260
 C1454 C 0.28937 0.78993 0.75424
 C1455 C 0.31457 0.78406 0.74558
 C1456 C 0.33366 0.80344 0.74505
 H1457 H 0.39570 0.92333 0.78971
 H1458 H 0.42892 0.95737 0.78883
 H1459 H 0.45265 0.93216 0.71224
 H1460 H 0.41972 0.89781 0.71330
 H1461 H 0.29762 0.85398 0.76907
 H1462 H 0.26405 0.82002 0.76930
 H1463 H 0.31932 0.76453 0.73906
 H1464 H 0.35297 0.79847 0.73820
   
