data_POSCAR
  _audit_creation_date              2014-09-24
  _audit_creation_method            'ToBaCCo'
  _symmetry_space_group_name_H-M    'P1'
  _symmetry_Int_Tables_number       1
  _symmetry_cell_setting            triclinic
  loop_
  _symmetry_equiv_pos_as_xyz
 x,y,z
_cell_length_a 78.4054
_cell_length_b 80.7100
_cell_length_c 80.2550
_cell_angle_alpha 90.006500
_cell_angle_beta 89.721800
_cell_angle_gamma 89.710700
loop_
  _atom_site_label
  _atom_site_type_symbol
  _atom_site_fract_x
  _atom_site_fract_y
  _atom_site_fract_z
N1 N 0.35286 0.30941 0.32317
 N2 N 0.35395 0.32283 0.31395
 C3 C 0.36845 0.32230 0.30499
 C4 C 0.37696 0.30771 0.30868
 C5 C 0.36661 0.29975 0.32022
 H6 H 0.37240 0.33183 0.29634
 H7 H 0.36905 0.28803 0.32632
 Cu8 Cu 0.33646 0.33990 0.31420
 Cu9 Cu 0.33368 0.30600 0.33846
 Cu10 Cu 0.31589 0.34353 0.35050
 N11 N 0.32240 0.35913 0.31917
 N12 N 0.31477 0.36061 0.33369
 C13 C 0.30656 0.37522 0.33442
 C14 C 0.30902 0.38336 0.31945
 C15 C 0.31916 0.37275 0.31001
 H16 H 0.29906 0.37938 0.34497
 H17 H 0.32404 0.37487 0.29758
 N18 N 0.31190 0.32273 0.36244
 N19 N 0.31845 0.30828 0.35800
 C20 C 0.31218 0.29646 0.36819
 C21 C 0.30086 0.30394 0.37920
 C22 C 0.30106 0.32053 0.37520
 H23 H 0.31508 0.28337 0.36723
 H24 H 0.29353 0.33026 0.38093
 H25 H 0.31661 0.32537 0.33248
 H26 H 0.33733 0.32993 0.34289
 N27 N 0.36018 0.81571 -0.17172
 N28 N 0.35924 0.82503 -0.18513
 C29 C 0.37368 0.82294 -0.19417
 C30 C 0.38432 0.81189 -0.18580
 C31 C 0.37526 0.80779 -0.17153
 H32 H 0.37614 0.82890 -0.20600
 H33 H 0.37871 0.79868 -0.16226
 Cu34 Cu 0.33879 0.83841 -0.18941
 Cu35 Cu 0.34092 0.81164 -0.15693
 Cu36 Cu 0.30401 0.83330 -0.16549
 N37 N 0.31842 0.85237 -0.19230
 N38 N 0.30473 0.84926 -0.18338
 C39 C 0.29230 0.85990 -0.18742
 C40 C 0.29830 0.87068 -0.19947
 C41 C 0.31512 0.86553 -0.20227
 H42 H 0.28010 0.86030 -0.18116
 H43 H 0.32423 0.87092 -0.21081
 N44 N 0.30554 0.81687 -0.14771
 N45 N 0.31977 0.80903 -0.14386
 C46 C 0.31669 0.79898 -0.13077
 C47 C 0.29968 0.80061 -0.12626
 C48 C 0.29308 0.81209 -0.13725
 H49 H 0.32604 0.79087 -0.12513
 H50 H 0.28020 0.81687 -0.13741
 H51 H 0.32293 0.81717 -0.17439
 H52 H 0.33001 0.83447 -0.16054
 N53 N 0.85533 0.31763 -0.17703
 N54 N 0.85582 0.33101 -0.18636
 C55 C 0.86969 0.33030 -0.19630
 C56 C 0.87841 0.31565 -0.19308
 C57 C 0.86885 0.30792 -0.18076
 H58 H 0.87302 0.33968 -0.20534
 H59 H 0.87165 0.29626 -0.17472
 Cu60 Cu 0.83829 0.34819 -0.18493
 Cu61 Cu 0.83776 0.31452 -0.16001
 Cu62 Cu 0.80185 0.33899 -0.16475
 N63 N 0.81748 0.36111 -0.18825
 N64 N 0.80318 0.35689 -0.18086
 C65 C 0.79073 0.36738 -0.18544
 C66 C 0.79746 0.37906 -0.19631
 C67 C 0.81461 0.37462 -0.19776
 H68 H 0.77784 0.36676 -0.18070
 H69 H 0.82427 0.38056 -0.20529
 N70 N 0.80300 0.32046 -0.14888
 N71 N 0.81676 0.31126 -0.14669
 C72 C 0.81383 0.30056 -0.13407
 C73 C 0.79740 0.30318 -0.12813
 C74 C 0.79097 0.31585 -0.13785
 H75 H 0.82300 0.29165 -0.12943
 H76 H 0.77866 0.32179 -0.13646
 H77 H 0.82081 0.32492 -0.17623
 H78 H 0.82721 0.33808 -0.15818
 N79 N 0.86483 0.82237 0.32176
 N80 N 0.86374 0.83485 0.31132
 C81 C 0.87681 0.83411 0.30044
 C82 C 0.88665 0.82038 0.30424
 C83 C 0.87862 0.81314 0.31780
 H84 H 0.87903 0.84294 0.29055
 H85 H 0.88285 0.80234 0.32463
 Cu86 Cu 0.84581 0.85122 0.31328
 Cu87 Cu 0.84901 0.82007 0.34041
 Cu88 Cu 0.81460 0.84750 0.34191
 N89 N 0.82497 0.86394 0.31183
 N90 N 0.81329 0.86356 0.32360
 C91 C 0.80124 0.87505 0.32015
 C92 C 0.80549 0.88275 0.30516
 C93 C 0.82059 0.87517 0.30027
 H94 H 0.79011 0.87737 0.32782
 H95 H 0.82839 0.87815 0.28956
 N96 N 0.81854 0.83006 0.35893
 N97 N 0.83174 0.81982 0.35829
 C98 C 0.83156 0.81007 0.37186
 C99 C 0.81755 0.81417 0.38149
 C100 C 0.80946 0.82682 0.37289
 H101 H 0.84102 0.80069 0.37464
 H102 H 0.79814 0.83350 0.37680
 H103 H 0.82861 0.83090 0.32790
 H104 H 0.84068 0.84444 0.34249
 N105 N 0.64303 0.68624 0.32499
 N106 N 0.64587 0.67672 0.31197
 C107 C 0.63593 0.68194 0.29929
 C108 C 0.62669 0.69562 0.30473
 C109 C 0.63148 0.69792 0.32108
 H110 H 0.63568 0.67645 0.28700
 H111 H 0.62679 0.70732 0.32958
 Cu112 Cu 0.66268 0.65878 0.31309
 Cu113 Cu 0.65413 0.68262 0.34624
 Cu114 Cu 0.69349 0.66388 0.34181
 N115 N 0.68254 0.64412 0.31402
 N116 N 0.69451 0.64629 0.32521
 C117 C 0.70688 0.63491 0.32292
 C118 C 0.70248 0.62493 0.30958
 C119 C 0.68689 0.63118 0.30424
 H120 H 0.71812 0.63390 0.33061
 H121 H 0.67936 0.62679 0.29391
 N122 N 0.68709 0.67737 0.36139
 N123 N 0.67172 0.68379 0.36336
 C124 C 0.67097 0.69196 0.37793
 C125 C 0.68670 0.69072 0.38557
 C126 C 0.69661 0.68133 0.37472
 H127 H 0.65995 0.69884 0.38230
 H128 H 0.70974 0.67757 0.37645
 H129 H 0.67494 0.67942 0.33172
 H130 H 0.66807 0.66037 0.34307
 N131 N 0.64071 0.18356 -0.17508
 N132 N 0.64182 0.16973 -0.18367
 C133 C 0.62872 0.16892 -0.19438
 C134 C 0.61879 0.18302 -0.19250
 C135 C 0.62684 0.19210 -0.18016
 H136 H 0.62664 0.15883 -0.20299
 H137 H 0.62265 0.20381 -0.17496
 Cu138 Cu 0.66007 0.15385 -0.18020
 Cu139 Cu 0.65689 0.18867 -0.15733
 Cu140 Cu 0.69264 0.16331 -0.15496
 N141 N 0.68157 0.14194 -0.18129
 N142 N 0.69434 0.14559 -0.17146
 C143 C 0.70743 0.13518 -0.17470
 C144 C 0.70261 0.12434 -0.18733
 C145 C 0.68604 0.12917 -0.19116
 H146 H 0.71944 0.13546 -0.16818
 H147 H 0.67766 0.12383 -0.20032
 N148 N 0.68842 0.18186 -0.13943
 N149 N 0.67478 0.19149 -0.14026
 C150 C 0.67507 0.20228 -0.12745
 C151 C 0.68960 0.19934 -0.11809
 C152 C 0.69775 0.18632 -0.12613
 H153 H 0.66527 0.21142 -0.12498
 H154 H 0.70930 0.18011 -0.12221
 H155 H 0.67654 0.17709 -0.17007
 H156 H 0.66627 0.16512 -0.15277
 N157 N 0.14827 0.69429 -0.18281
 N158 N 0.14597 0.68150 -0.19262
 C159 C 0.13422 0.68545 -0.20415
 C160 C 0.12891 0.70164 -0.20138
 C161 C 0.13818 0.70684 -0.18775
 H162 H 0.12959 0.67702 -0.21355
 H163 H 0.13694 0.71854 -0.18129
 Cu164 Cu 0.15768 0.66058 -0.18872
 Cu165 Cu 0.16238 0.69304 -0.16315
 Cu166 Cu 0.18830 0.65865 -0.15898
 N167 N 0.17445 0.64282 -0.18800
 N168 N 0.18665 0.64227 -0.17683
 C169 C 0.19631 0.62866 -0.17955
 C170 C 0.18969 0.62021 -0.19307
 C171 C 0.17584 0.62959 -0.19810
 H172 H 0.20704 0.62496 -0.17197
 H173 H 0.16745 0.62704 -0.20843
 N174 N 0.18757 0.67676 -0.14237
 N175 N 0.17735 0.68968 -0.14405
 C176 C 0.17831 0.69919 -0.13039
 C177 C 0.18973 0.69205 -0.11952
 C178 C 0.19554 0.67787 -0.12753
 H179 H 0.17102 0.71042 -0.12832
 H180 H 0.20429 0.66873 -0.12260
 H181 H 0.17945 0.67647 -0.17480
 H182 H 0.16373 0.66716 -0.15980
 N183 N 0.14680 0.18211 0.32650
 N184 N 0.14612 0.16912 0.31662
 C185 C 0.13138 0.16949 0.30814
 C186 C 0.12235 0.18348 0.31280
 C187 C 0.13254 0.19129 0.32444
 H188 H 0.12763 0.16048 0.29890
 H189 H 0.12969 0.20265 0.33105
 Cu190 Cu 0.16471 0.15323 0.31477
 Cu191 Cu 0.16590 0.18564 0.34163
 Cu192 Cu 0.19977 0.15817 0.33799
 N193 N 0.18447 0.13877 0.31228
 N194 N 0.19820 0.14089 0.32130
 C195 C 0.20999 0.12952 0.31694
 C196 C 0.20335 0.11968 0.30444
 C197 C 0.18707 0.12593 0.30181
 H198 H 0.22243 0.12842 0.32258
 H199 H 0.17792 0.12163 0.29279
 N200 N 0.19928 0.17631 0.35422
 N201 N 0.18647 0.18685 0.35580
 C202 C 0.18990 0.19733 0.36847
 C203 C 0.20570 0.19317 0.37507
 C204 C 0.21115 0.17977 0.36569
 H205 H 0.18146 0.20711 0.37269
 H206 H 0.22269 0.17265 0.36745
 H207 H 0.18324 0.17464 0.32592
 H208 H 0.17366 0.16142 0.34261
 N209 N 0.63950 0.31515 0.67387
 N210 N 0.63950 0.32671 0.68540
 C211 C 0.62470 0.32632 0.69389
 C212 C 0.61494 0.31365 0.68754
 C213 C 0.62473 0.30672 0.67488
 H214 H 0.62147 0.33436 0.70423
 H215 H 0.62128 0.29647 0.66691
 Cu216 Cu 0.65902 0.34067 0.68880
 Cu217 Cu 0.65850 0.31265 0.65816
 Cu218 Cu 0.69082 0.34202 0.66085
 N219 N 0.67501 0.35869 0.68854
 N220 N 0.68772 0.35925 0.67783
 C221 C 0.69658 0.37329 0.68042
 C222 C 0.68880 0.38200 0.69335
 C223 C 0.67519 0.37228 0.69816
 H224 H 0.70752 0.37712 0.67315
 H225 H 0.66602 0.37489 0.70793
 N226 N 0.69122 0.32352 0.64461
 N227 N 0.67884 0.31253 0.64350
 C228 C 0.68240 0.30205 0.63088
 C229 C 0.69776 0.30658 0.62369
 C230 C 0.70302 0.32022 0.63278
 H231 H 0.67436 0.29188 0.62715
 H232 H 0.71435 0.32749 0.63060
 H233 H 0.67780 0.32288 0.67227
 H234 H 0.66496 0.33744 0.65929
 N235 N 0.64549 0.81789 1.17891
 N236 N 0.64581 0.83052 1.18923
 C237 C 0.63205 0.82993 1.19926
 C238 C 0.62249 0.81620 1.19506
 C239 C 0.63147 0.80879 1.18208
 H240 H 0.62930 0.83876 1.20902
 H241 H 0.62802 0.79768 1.17538
 Cu242 Cu 0.66416 0.84653 1.18866
 Cu243 Cu 0.66338 0.81431 1.16217
 Cu244 Cu 0.69621 0.84317 1.16130
 N245 N 0.68240 0.86270 1.18805
 N246 N 0.69481 0.86147 1.17707
 C247 C 0.70544 0.87439 1.17888
 C248 C 0.69944 0.88418 1.19182
 C249 C 0.68481 0.87635 1.19737
 H250 H 0.71679 0.87641 1.17146
 H251 H 0.67634 0.88052 1.20719
 N252 N 0.69539 0.82386 1.14636
 N253 N 0.68278 0.81306 1.14632
 C254 C 0.68581 0.80173 1.13428
 C255 C 0.70115 0.80552 1.12657
 C256 C 0.70681 0.81959 1.13456
 H257 H 0.67760 0.79140 1.13143
 H258 H 0.71827 0.82644 1.13169
 H259 H 0.68244 0.82597 1.17516
 H260 H 0.67022 0.83872 1.15992
 N261 N 0.14469 0.31811 1.17621
 N262 N 0.14388 0.33222 1.18437
 C263 C 0.12976 0.33240 1.19394
 C264 C 0.12125 0.31761 1.19175
 C265 C 0.13113 0.30879 1.18043
 H266 H 0.12607 0.34245 1.20213
 H267 H 0.12848 0.29664 1.17540
 Cu268 Cu 0.16138 0.34903 1.18234
 Cu269 Cu 0.16285 0.31331 1.16022
 Cu270 Cu 0.19350 0.34370 1.15504
 N271 N 0.18114 0.36350 1.18210
 N272 N 0.19349 0.36150 1.17117
 C273 C 0.20486 0.37378 1.17287
 C274 C 0.19944 0.38400 1.18569
 C275 C 0.18436 0.37706 1.19133
 H276 H 0.21619 0.37520 1.16528
 H277 H 0.17608 0.38187 1.20103
 N278 N 0.19411 0.32253 1.14311
 N279 N 0.18227 0.31106 1.14461
 C280 C 0.18594 0.29857 1.13398
 C281 C 0.20099 0.30229 1.12575
 C282 C 0.20582 0.31751 1.13189
 H283 H 0.17825 0.28762 1.13229
 H284 H 0.21679 0.32463 1.12803
 H285 H 0.18097 0.32812 1.17154
 H286 H 0.16755 0.33736 1.15473
 N287 N 0.13785 0.81799 0.67911
 N288 N 0.14105 0.82900 0.69073
 C289 C 0.12866 0.82825 0.70245
 C290 C 0.11726 0.81598 0.69790
 C291 C 0.12351 0.80984 0.68300
 H292 H 0.12816 0.83575 0.71360
 H293 H 0.11803 0.80015 0.67548
 Cu294 Cu 0.16148 0.84260 0.68940
 Cu295 Cu 0.15252 0.81449 0.65995
 Cu296 Cu 0.18871 0.83865 0.65689
 N297 N 0.18153 0.85658 0.68709
 N298 N 0.19213 0.85491 0.67446
 C299 C 0.20462 0.86619 0.67580
 C300 C 0.20175 0.87552 0.69004
 C301 C 0.18694 0.86901 0.69689
 H302 H 0.21483 0.86769 0.66683
 H303 H 0.18051 0.87303 0.70812
 N304 N 0.18283 0.82152 0.64040
 N305 N 0.16881 0.81262 0.64145
 C306 C 0.16805 0.80235 0.62828
 C307 C 0.18232 0.80481 0.61848
 C308 C 0.19147 0.81702 0.62655
 H309 H 0.15799 0.79352 0.62610
 H310 H 0.20338 0.82240 0.62248
 H311 H 0.17495 0.82221 0.67110
 H312 H 0.16260 0.83825 0.65938
 N313 N 0.35945 0.68559 0.68146
 N314 N 0.35787 0.67372 0.69254
 C315 C 0.36910 0.67626 0.70493
 C316 C 0.37829 0.69047 0.70137
 C317 C 0.37177 0.69604 0.68635
 H318 H 0.37063 0.66821 0.71559
 H319 H 0.37554 0.70698 0.67953
 Cu320 Cu 0.34158 0.65589 0.68954
 Cu321 Cu 0.34523 0.68677 0.66169
 Cu322 Cu 0.31183 0.65896 0.65942
 N323 N 0.32164 0.64170 0.68922
 N324 N 0.30981 0.64313 0.67775
 C325 C 0.29767 0.63168 0.68056
 C326 C 0.30221 0.62251 0.69448
 C327 C 0.31750 0.62928 0.69964
 H328 H 0.28662 0.62983 0.67277
 H329 H 0.32504 0.62548 0.71023
 N330 N 0.31631 0.67585 0.64210
 N331 N 0.32940 0.68604 0.64277
 C332 C 0.32959 0.69548 0.62894
 C333 C 0.31591 0.69114 0.61909
 C334 C 0.30772 0.67867 0.62785
 H335 H 0.33887 0.70500 0.62632
 H336 H 0.29655 0.67194 0.62394
 H337 H 0.32474 0.67582 0.67389
 H338 H 0.33784 0.66207 0.66002
 N339 N 0.35261 0.19011 1.17496
 N340 N 0.35387 0.17796 1.18577
 C341 C 0.36500 0.18225 1.19771
 C342 C 0.37104 0.19798 1.19419
 C343 C 0.36282 0.20260 1.17967
 H344 H 0.36874 0.17434 1.20795
 H345 H 0.36484 0.21380 1.17255
 Cu346 Cu 0.34191 0.15722 1.18242
 Cu347 Cu 0.33974 0.18768 1.15452
 Cu348 Cu 0.31017 0.15576 1.15403
 N349 N 0.32503 0.13977 1.18260
 N350 N 0.31241 0.13924 1.17189
 C351 C 0.30302 0.12558 1.17502
 C352 C 0.31027 0.11712 1.18834
 C353 C 0.32415 0.12662 1.19281
 H354 H 0.29209 0.12181 1.16780
 H355 H 0.33300 0.12417 1.20280
 N356 N 0.31066 0.17374 1.13704
 N357 N 0.32227 0.18553 1.13727
 C358 C 0.32051 0.19510 1.12370
 C359 C 0.30720 0.18914 1.11429
 C360 C 0.30108 0.17564 1.12318
 H361 H 0.32849 0.20557 1.12074
 H362 H 0.29097 0.16740 1.11941
 H363 H 0.32154 0.17451 1.16756
 H364 H 0.33517 0.16212 1.15303
 N365 N 0.86096 0.68371 1.17703
 N366 N 0.85954 0.67069 1.18679
 C367 C 0.87275 0.67046 1.19749
 C368 C 0.88285 0.68417 1.19436
 C369 C 0.87494 0.69227 1.18130
 H370 H 0.87477 0.66119 1.20701
 H371 H 0.87924 0.70341 1.17514
 Cu372 Cu 0.84025 0.65565 1.18478
 Cu373 Cu 0.84504 0.68841 1.15908
 Cu374 Cu 0.81083 0.66182 1.15512
 N375 N 0.82074 0.64089 1.18237
 N376 N 0.80928 0.64360 1.17079
 C377 C 0.79717 0.63192 1.17171
 C378 C 0.80114 0.62115 1.18456
 C379 C 0.81625 0.62729 1.19108
 H380 H 0.78625 0.63139 1.16358
 H381 H 0.82349 0.62220 1.20131
 N382 N 0.81446 0.68088 1.14035
 N383 N 0.82754 0.69100 1.14169
 C384 C 0.82674 0.70228 1.12932
 C385 C 0.81242 0.69912 1.11980
 C386 C 0.80499 0.68546 1.12721
 H387 H 0.83596 0.71200 1.12731
 H388 H 0.79379 0.67898 1.12301
 H389 H 0.82446 0.67752 1.17054
 H390 H 0.83717 0.66434 1.15586
 N391 N 0.85422 0.18929 0.67238
 N392 N 0.85240 0.17871 0.68472
 C393 C 0.86276 0.18324 0.69730
 C394 C 0.87123 0.19756 0.69258
 C395 C 0.86552 0.20096 0.67670
 H396 H 0.86391 0.17675 0.70904
 H397 H 0.86954 0.21101 0.66870
 Cu398 Cu 0.83643 0.16024 0.68285
 Cu399 Cu 0.84259 0.18674 0.65125
 Cu400 Cu 0.80465 0.16567 0.65518
 N401 N 0.81747 0.14466 0.68135
 N402 N 0.80512 0.14709 0.67060
 C403 C 0.79342 0.13512 0.67234
 C404 C 0.79863 0.12437 0.68481
 C405 C 0.81404 0.13089 0.69027
 H406 H 0.78193 0.13447 0.66501
 H407 H 0.82212 0.12604 0.70001
 N408 N 0.80972 0.18057 0.63635
 N409 N 0.82450 0.18808 0.63456
 C410 C 0.82438 0.19689 0.62033
 C411 C 0.80872 0.19483 0.61269
 C412 C 0.79977 0.18435 0.62326
 H413 H 0.83487 0.20446 0.61608
 H414 H 0.78704 0.17961 0.62149
 H415 H 0.82243 0.18144 0.66596
 H416 H 0.83024 0.16358 0.65316
 N417 N 0.31019 0.36050 0.67665
 N418 N 0.32086 0.35951 0.68918
 C419 C 0.31942 0.37333 0.69851
 C420 C 0.30726 0.38357 0.69131
 C421 C 0.30172 0.37499 0.67746
 H422 H 0.32672 0.37578 0.70964
 H423 H 0.29185 0.37879 0.66888
 Cu424 Cu 0.33541 0.34014 0.69193
 Cu425 Cu 0.30711 0.34244 0.66104
 Cu426 Cu 0.33587 0.30981 0.66265
 N427 N 0.35371 0.32392 0.69051
 N428 N 0.35382 0.31187 0.67947
 C429 C 0.36805 0.30263 0.68162
 C430 C 0.37740 0.30944 0.69455
 C431 C 0.36785 0.32291 0.69985
 H432 H 0.37158 0.29206 0.67405
 H433 H 0.37096 0.33139 0.70980
 N434 N 0.31660 0.31061 0.64667
 N435 N 0.30576 0.32317 0.64630
 C436 C 0.29391 0.32033 0.63465
 C437 C 0.29731 0.30529 0.62715
 C438 C 0.31192 0.29945 0.63499
 H439 H 0.28359 0.32872 0.63168
 H440 H 0.31847 0.28788 0.63253
 H441 H 0.31712 0.32267 0.67496
 H442 H 0.33273 0.33492 0.66232
 N443 N 0.31777 0.85902 0.16777
 N444 N 0.32666 0.85869 0.18163
 C445 C 0.32392 0.87301 0.18998
 C446 C 0.31291 0.88281 0.18067
 C447 C 0.30932 0.87348 0.16671
 H448 H 0.32955 0.87613 0.20183
 H449 H 0.30084 0.87683 0.15667
 Cu450 Cu 0.34087 0.83941 0.18706
 Cu451 Cu 0.31707 0.84073 0.15206
 Cu452 Cu 0.34215 0.80674 0.16108
 N453 N 0.35572 0.82028 0.19140
 N454 N 0.35531 0.80740 0.18137
 C455 C 0.36588 0.79561 0.18703
 C456 C 0.37357 0.80126 0.20131
 C457 C 0.36698 0.81710 0.20374
 H458 H 0.36824 0.78388 0.18090
 H459 H 0.37004 0.82552 0.21376
 N460 N 0.32805 0.80817 0.14106
 N461 N 0.31813 0.82097 0.13770
 C462 C 0.31010 0.81816 0.12315
 C463 C 0.31546 0.80297 0.11704
 C464 C 0.32680 0.79700 0.12871
 H465 H 0.30137 0.82669 0.11720
 H466 H 0.33360 0.78533 0.12821
 H467 H 0.32288 0.82260 0.16906
 H468 H 0.34113 0.83222 0.15757
 N469 N 0.81667 0.36193 0.17379
 N470 N 0.82845 0.36221 0.18539
 C471 C 0.82812 0.37690 0.19319
 C472 C 0.81522 0.38637 0.18642
 C473 C 0.80802 0.37646 0.17419
 H474 H 0.83644 0.38033 0.20332
 H475 H 0.79756 0.37967 0.16605
 Cu476 Cu 0.84281 0.34332 0.18993
 Cu477 Cu 0.81441 0.34261 0.15900
 Cu478 Cu 0.84907 0.31520 0.16024
 N479 N 0.86203 0.32839 0.19080
 N480 N 0.86438 0.31706 0.17927
 C481 C 0.87883 0.30861 0.18261
 C482 C 0.88598 0.31527 0.19686
 C483 C 0.87496 0.32781 0.20170
 H484 H 0.88410 0.29882 0.17493
 H485 H 0.87634 0.33601 0.21227
 N486 N 0.83209 0.31530 0.14220
 N487 N 0.81865 0.32525 0.14183
 C488 C 0.80973 0.32212 0.12783
 C489 C 0.81813 0.30978 0.11893
 C490 C 0.83217 0.30578 0.12846
 H491 H 0.79833 0.32871 0.12408
 H492 H 0.84177 0.29656 0.12552
 H493 H 0.82734 0.32404 0.17171
 H494 H 0.84014 0.33962 0.16016
 N495 N 0.81160 0.86337 0.66932
 N496 N 0.82078 0.86357 0.68298
 C497 C 0.81665 0.87714 0.69193
 C498 C 0.80433 0.88597 0.68334
 C499 C 0.80143 0.87684 0.66905
 H500 H 0.82259 0.88063 0.70354
 H501 H 0.79264 0.87982 0.65914
 Cu502 Cu 0.83794 0.84672 0.68756
 Cu503 Cu 0.81380 0.84598 0.65269
 Cu504 Cu 0.84659 0.81788 0.65821
 N505 N 0.85745 0.83182 0.68927
 N506 N 0.86055 0.82051 0.67787
 C507 C 0.87442 0.81172 0.68222
 C508 C 0.88045 0.81785 0.69714
 C509 C 0.86941 0.83070 0.70124
 H510 H 0.87984 0.80172 0.67493
 H511 H 0.86992 0.83846 0.71221
 N512 N 0.83111 0.81710 0.63910
 N513 N 0.81822 0.82749 0.63723
 C514 C 0.80989 0.82365 0.62312
 C515 C 0.81809 0.81033 0.61568
 C516 C 0.83148 0.80652 0.62614
 H517 H 0.79897 0.83031 0.61833
 H518 H 0.84073 0.79668 0.62446
 H519 H 0.82425 0.82799 0.66784
 H520 H 0.83942 0.84269 0.65753
 N521 N 0.69571 0.65011 0.67560
 N522 N 0.68289 0.64726 0.68583
 C523 C 0.68680 0.63415 0.69553
 C524 C 0.70303 0.62861 0.69124
 C525 C 0.70827 0.63912 0.67860
 H526 H 0.67850 0.62909 0.70503
 H527 H 0.72013 0.63852 0.67167
 Cu528 Cu 0.66249 0.66129 0.68556
 Cu529 Cu 0.69481 0.66733 0.65850
 Cu530 Cu 0.65325 0.67692 0.64817
 N531 N 0.64122 0.67351 0.68183
 N532 N 0.63778 0.67924 0.66690
 C533 C 0.62247 0.68668 0.66704
 C534 C 0.61579 0.68579 0.68298
 C535 C 0.62810 0.67735 0.69215
 H536 H 0.61686 0.69270 0.65634
 H537 H 0.62749 0.67413 0.70521
 N538 N 0.67264 0.68116 0.63330
 N539 N 0.68864 0.67826 0.63737
 C540 C 0.69882 0.68345 0.62483
 C541 C 0.68863 0.68997 0.61228
 C542 C 0.67212 0.68832 0.61823
 H543 H 0.71257 0.68239 0.62483
 H544 H 0.66051 0.69246 0.61231
 H545 H 0.67257 0.68087 0.66445
 H546 H 0.67094 0.65930 0.65628
 N547 N 0.69409 0.14342 0.17431
 N548 N 0.68230 0.14172 0.18587
 C549 C 0.68648 0.12903 0.19586
 C550 C 0.70168 0.12223 0.19036
 C551 C 0.70629 0.13177 0.17667
 H552 H 0.67897 0.12496 0.20640
 H553 H 0.71736 0.13005 0.16877
 Cu554 Cu 0.66215 0.15560 0.18676
 Cu555 Cu 0.69177 0.16015 0.15675
 Cu556 Cu 0.65544 0.18520 0.15833
 N557 N 0.64193 0.16942 0.18743
 N558 N 0.63952 0.18145 0.17666
 C559 C 0.62463 0.18914 0.18021
 C560 C 0.61728 0.18128 0.19378
 C561 C 0.62860 0.16885 0.19801
 H562 H 0.61932 0.19937 0.17321
 H563 H 0.62721 0.16013 0.20814
 N564 N 0.67297 0.18705 0.14075
 N565 N 0.68689 0.17776 0.14022
 C566 C 0.69602 0.18187 0.12656
 C567 C 0.68733 0.19419 0.11802
 C568 C 0.67281 0.19715 0.12741
 H569 H 0.70784 0.17600 0.12280
 H570 H 0.66283 0.20600 0.12466
 H571 H 0.67704 0.17649 0.17036
 H572 H 0.66544 0.16131 0.15713
 N573 N 0.19879 0.64337 0.17853
 N574 N 0.18620 0.64157 0.18919
 C575 C 0.19006 0.62913 0.19973
 C576 C 0.20600 0.62288 0.19540
 C577 C 0.21107 0.63224 0.18185
 H578 H 0.18192 0.62508 0.20983
 H579 H 0.22275 0.63098 0.17476
 Cu580 Cu 0.16613 0.65572 0.18817
 Cu581 Cu 0.19860 0.66004 0.16128
 Cu582 Cu 0.16508 0.68798 0.16104
 N583 N 0.14933 0.67334 0.18993
 N584 N 0.14855 0.68553 0.17908
 C585 C 0.13573 0.69583 0.18340
 C586 C 0.12819 0.68986 0.19782
 C587 C 0.13717 0.67556 0.20160
 H588 H 0.13250 0.70712 0.17686
 H589 H 0.13501 0.66737 0.21205
 N590 N 0.18354 0.68817 0.14422
 N591 N 0.19643 0.67762 0.14471
 C592 C 0.20780 0.68159 0.13286
 C593 C 0.20191 0.69532 0.12446
 C594 C 0.18637 0.69914 0.13181
 H595 H 0.21971 0.67514 0.13064
 H596 H 0.17820 0.70956 0.12888
 H597 H 0.18358 0.67680 0.17500
 H598 H 0.17220 0.66366 0.15940
 N599 N 0.19328 0.14233 0.68032
 N600 N 0.18019 0.13991 0.69026
 C601 C 0.18370 0.12700 0.70038
 C602 C 0.19994 0.12117 0.69655
 C603 C 0.20552 0.13118 0.68371
 H604 H 0.17529 0.12245 0.71004
 H605 H 0.21763 0.13046 0.67726
 Cu606 Cu 0.16047 0.15461 0.68904
 Cu607 Cu 0.19404 0.16013 0.66423
 Cu608 Cu 0.15936 0.18694 0.66221
 N609 N 0.14079 0.16924 0.68770
 N610 N 0.14052 0.18219 0.67772
 C611 C 0.12570 0.19048 0.68006
 C612 C 0.11616 0.18212 0.69197
 C613 C 0.12616 0.16874 0.69649
 H614 H 0.12204 0.20163 0.67348
 H615 H 0.12314 0.15956 0.70584
 N616 N 0.17989 0.18914 0.64768
 N617 N 0.19286 0.17871 0.64870
 C618 C 0.20489 0.18299 0.63764
 C619 C 0.19951 0.19684 0.62909
 C620 C 0.18345 0.20040 0.63566
 H621 H 0.21666 0.17626 0.63567
 H622 H 0.17507 0.21043 0.63201
 H623 H 0.17770 0.17656 0.67685
 H624 H 0.16767 0.16306 0.66080
 N625 N 0.30632 0.64641 0.32567
 N626 N 0.31723 0.64456 0.31333
 C627 C 0.31235 0.63165 0.30386
 C628 C 0.29753 0.62510 0.31063
 C629 C 0.29411 0.63483 0.32446
 H630 H 0.31907 0.62733 0.29290
 H631 H 0.28377 0.63335 0.33328
 Cu632 Cu 0.33689 0.65905 0.31105
 Cu633 Cu 0.30912 0.66313 0.34284
 Cu634 Cu 0.34449 0.68852 0.33977
 N635 N 0.35686 0.67323 0.30968
 N636 N 0.35962 0.68483 0.32082
 C637 C 0.37409 0.69286 0.31689
 C638 C 0.38085 0.68589 0.30253
 C639 C 0.36956 0.67343 0.29832
 H640 H 0.37941 0.70286 0.32411
 H641 H 0.37045 0.66523 0.28770
 N642 N 0.32767 0.69028 0.35801
 N643 N 0.31412 0.68071 0.35903
 C644 C 0.30520 0.68474 0.37282
 C645 C 0.31353 0.69745 0.38094
 C646 C 0.32775 0.70063 0.37118
 H647 H 0.29371 0.67859 0.37688
 H648 H 0.33743 0.70983 0.37350
 H649 H 0.32276 0.67980 0.32848
 H650 H 0.33544 0.66455 0.34088
 N651 N 0.31525 0.13740 0.82217
 N652 N 0.32866 0.13901 0.81246
 C653 C 0.32902 0.12651 0.80136
 C654 C 0.31506 0.11643 0.80427
 C655 C 0.30661 0.12378 0.81761
 H656 H 0.33871 0.12497 0.79186
 H657 H 0.29516 0.11949 0.82375
 Cu658 Cu 0.34452 0.15709 0.81533
 Cu659 Cu 0.31030 0.15289 0.84017
 Cu660 Cu 0.33505 0.18830 0.84180
 N661 N 0.35614 0.17817 0.81429
 N662 N 0.35250 0.19042 0.82450
 C663 C 0.36291 0.20325 0.82111
 C664 C 0.37368 0.19870 0.80811
 C665 C 0.36890 0.18271 0.80409
 H666 H 0.36296 0.21482 0.82790
 H667 H 0.37430 0.17489 0.79447
 N668 N 0.31674 0.18355 0.85809
 N669 N 0.30739 0.17002 0.85742
 C670 C 0.29650 0.16994 0.87042
 C671 C 0.29907 0.18409 0.87981
 C672 C 0.31199 0.19246 0.87156
 H673 H 0.28743 0.16021 0.87289
 H674 H 0.31784 0.20396 0.87532
 H675 H 0.32083 0.17265 0.82715
 H676 H 0.33448 0.16282 0.84352
 N677 N 0.81262 0.64068 0.82092
 N678 N 0.82420 0.64400 0.80954
 C679 C 0.82426 0.63192 0.79801
 C680 C 0.81199 0.62045 0.80231
 C681 C 0.80477 0.62643 0.81691
 H682 H 0.83254 0.63150 0.78723
 H683 H 0.79487 0.62063 0.82427
 Cu684 Cu 0.83822 0.66364 0.81092
 Cu685 Cu 0.80932 0.65472 0.84043
 Cu686 Cu 0.83443 0.69001 0.84313
 N687 N 0.85210 0.68333 0.81250
 N688 N 0.85067 0.69371 0.82503
 C689 C 0.86235 0.70580 0.82322
 C690 C 0.87165 0.70268 0.80882
 C691 C 0.86469 0.68838 0.80235
 H692 H 0.86434 0.71575 0.83203
 H693 H 0.86865 0.68200 0.79115
 N694 N 0.81726 0.68397 0.86013
 N695 N 0.80790 0.67045 0.85918
 C696 C 0.79792 0.66948 0.87284
 C697 C 0.80107 0.68305 0.88285
 C698 C 0.81338 0.69200 0.87438
 H699 H 0.78894 0.65966 0.87527
 H700 H 0.81932 0.70334 0.87846
 H701 H 0.81723 0.67655 0.82936
 H702 H 0.83373 0.66451 0.84099
 N703 N 0.81280 0.14189 0.32766
 N704 N 0.82558 0.14051 0.31707
 C705 C 0.82380 0.12656 0.30814
 C706 C 0.80906 0.11873 0.31324
 C707 C 0.80229 0.12885 0.32562
 H708 H 0.83262 0.12230 0.29865
 H709 H 0.79096 0.12655 0.33300
 Cu710 Cu 0.84361 0.15679 0.31627
 Cu711 Cu 0.81189 0.15982 0.34416
 Cu712 Cu 0.84519 0.18836 0.34303
 N713 N 0.86239 0.17225 0.31577
 N714 N 0.86272 0.18502 0.32592
 C715 C 0.87697 0.19383 0.32292
 C716 C 0.88612 0.18598 0.31037
 C717 C 0.87649 0.17233 0.30616
 H718 H 0.88066 0.20483 0.32969
 H719 H 0.87953 0.16321 0.29673
 N720 N 0.82629 0.18949 0.35937
 N721 N 0.81356 0.17883 0.35975
 C722 C 0.80328 0.18258 0.37275
 C723 C 0.80992 0.19615 0.38103
 C724 C 0.82447 0.20019 0.37213
 H725 H 0.79215 0.17556 0.37635
 H726 H 0.83324 0.21008 0.37491
 H727 H 0.82548 0.17694 0.33059
 H728 H 0.83790 0.16377 0.34527
 N729 N 0.68356 0.36135 0.32015
 N730 N 0.67009 0.36140 0.31046
 C731 C 0.66958 0.37556 0.30171
 C732 C 0.68359 0.38492 0.30594
 C733 C 0.69229 0.37550 0.31764
 H734 H 0.65984 0.37873 0.29274
 H735 H 0.70383 0.37888 0.32411
 Cu736 Cu 0.65463 0.34293 0.30987
 Cu737 Cu 0.68774 0.34334 0.33603
 Cu738 Cu 0.65646 0.31281 0.33830
 N739 N 0.63600 0.32768 0.31272
 N740 N 0.63697 0.31536 0.32337
 C741 C 0.62273 0.30616 0.32217
 C742 C 0.61224 0.31333 0.31029
 C743 C 0.62107 0.32698 0.30461
 H744 H 0.62010 0.29521 0.32949
 H745 H 0.61711 0.33552 0.29497
 N746 N 0.67716 0.31268 0.35226
 N747 N 0.68916 0.32408 0.35127
 C748 C 0.70122 0.32072 0.36273
 C749 C 0.69652 0.30663 0.37143
 C750 C 0.68123 0.30187 0.36441
 H751 H 0.71227 0.32833 0.36503
 H752 H 0.67352 0.29140 0.36802
 H753 H 0.67477 0.32465 0.32407
 H754 H 0.66218 0.33785 0.33872
 N755 N 0.68549 0.86675 0.82796
 N756 N 0.67550 0.86463 0.81503
 C757 C 0.67654 0.87816 0.80515
 C758 C 0.68756 0.88934 0.81256
 C759 C 0.69296 0.88163 0.82694
 H760 H 0.66945 0.87995 0.79375
 H761 H 0.70182 0.88650 0.83596
 Cu762 Cu 0.66131 0.84481 0.81316
 Cu763 Cu 0.68855 0.85025 0.84521
 Cu764 Cu 0.66104 0.81733 0.84519
 N765 N 0.64372 0.82780 0.81542
 N766 N 0.64361 0.81754 0.82814
 C767 C 0.62961 0.80805 0.82745
 C768 C 0.62042 0.81243 0.81349
 C769 C 0.62979 0.82496 0.80602
 H770 H 0.62624 0.79872 0.83653
 H771 H 0.62637 0.83191 0.79499
 N772 N 0.67955 0.81948 0.86142
 N773 N 0.68987 0.83231 0.86162
 C774 C 0.70033 0.83100 0.87480
 C775 C 0.69643 0.81661 0.88332
 C776 C 0.68324 0.80956 0.87442
 H777 H 0.70995 0.83995 0.87809
 H778 H 0.67636 0.79842 0.87760
 H779 H 0.67989 0.82963 0.83218
 H780 H 0.66337 0.84260 0.84322
 N781 N 0.18775 0.35869 0.82280
 N782 N 0.17505 0.36035 0.81228
 C783 C 0.17876 0.37231 0.80122
 C784 C 0.19457 0.37875 0.80504
 C785 C 0.19992 0.36986 0.81891
 H786 H 0.17036 0.37636 0.79135
 H787 H 0.21179 0.37130 0.82556
 Cu788 Cu 0.15430 0.34752 0.81445
 Cu789 Cu 0.18692 0.34219 0.84079
 Cu790 Cu 0.15546 0.31224 0.83635
 N791 N 0.13672 0.33088 0.81202
 N792 N 0.13747 0.31687 0.82030
 C793 C 0.12396 0.30751 0.81623
 C794 C 0.11418 0.31612 0.80475
 C795 C 0.12271 0.33095 0.80239
 H796 H 0.12123 0.29550 0.82154
 H797 H 0.11912 0.34095 0.79414
 N798 N 0.17458 0.31002 0.85207
 N799 N 0.18632 0.32150 0.85421
 C800 C 0.19691 0.31655 0.86652
 C801 C 0.19155 0.30121 0.87227
 C802 C 0.17739 0.29753 0.86282
 H803 H 0.20772 0.32353 0.87091
 H804 H 0.16938 0.28675 0.86412
 H805 H 0.17413 0.32681 0.82502
 H806 H 0.16120 0.33628 0.84208
 N807 N 0.19028 0.85882 0.32451
 N808 N 0.17809 0.85814 0.31333
 C809 C 0.17899 0.87180 0.30362
 C810 C 0.19226 0.88155 0.30930
 C811 C 0.19909 0.87292 0.32253
 H812 H 0.17025 0.87481 0.29367
 H813 H 0.20965 0.87673 0.33023
 Cu814 Cu 0.16135 0.84021 0.31395
 Cu815 Cu 0.19392 0.84174 0.34116
 Cu816 Cu 0.16448 0.81013 0.34298
 N817 N 0.14492 0.82204 0.31509
 N818 N 0.14609 0.81073 0.32683
 C819 C 0.13290 0.80025 0.32561
 C820 C 0.12281 0.80512 0.31240
 C821 C 0.13088 0.81899 0.30591
 H822 H 0.13082 0.78977 0.33375
 H823 H 0.12654 0.82654 0.29562
 N824 N 0.18405 0.81155 0.35820
 N825 N 0.19555 0.82338 0.35717
 C826 C 0.20757 0.82076 0.36883
 C827 C 0.20335 0.80668 0.37773
 C828 C 0.18834 0.80119 0.37067
 H829 H 0.21841 0.82869 0.37096
 H830 H 0.18121 0.79032 0.37425
 H831 H 0.18191 0.82274 0.32849
 H832 H 0.16849 0.83535 0.34312
 C833 C 0.24804 1.01293 0.23129
 C834 C 0.23382 1.01206 0.24218
 C835 C 0.22828 0.99658 0.24793
 C836 C 0.23697 0.98197 0.24362
 C837 C 0.25201 0.98292 0.23385
 C838 C 0.25717 0.99836 0.22752
 H839 H 0.26837 0.99905 0.21958
 H840 H 0.21712 0.99590 0.25594
 C841 C 0.26964 0.51540 0.75671
 C842 C 0.25711 0.51700 0.76932
 C843 C 0.25019 0.50270 0.77663
 C844 C 0.25562 0.48679 0.77178
 C845 C 0.26806 0.48521 0.75902
 C846 C 0.27483 0.49953 0.75163
 H847 H 0.28453 0.49831 0.74202
 H848 H 0.24069 0.50398 0.78642
 C849 C 0.74130 -0.01132 0.27412
 C850 C 0.73030 -0.01274 0.26032
 C851 C 0.72434 0.00160 0.25242
 C852 C 0.72904 0.01738 0.25802
 C853 C 0.74014 0.01886 0.27176
 C854 C 0.74615 0.00444 0.27965
 H855 H 0.75466 0.00548 0.29021
 H856 H 0.71573 0.00048 0.24195
 C857 C 0.76157 0.48798 0.74816
 C858 C 0.74816 0.48686 0.73649
 C859 C 0.73874 0.50114 0.73242
 C860 C 0.74247 0.51654 0.73961
 C861 C 0.75586 0.51760 0.75131
 C862 C 0.76537 0.50338 0.75526
 H863 H 0.77539 0.50417 0.76449
 H864 H 0.72864 0.50033 0.72327
 C865 C 0.25877 0.48421 0.25904
 C866 C 0.24284 0.48448 0.25101
 C867 C 0.23484 0.49964 0.24775
 C868 C 0.24256 0.51464 0.25217
 C869 C 0.25869 0.51441 0.26003
 C870 C 0.26652 0.49915 0.26350
 H871 H 0.27877 0.49888 0.26972
 H872 H 0.22266 0.49976 0.24141
 C873 C 0.75711 1.01863 0.74419
 C874 C 0.74099 1.01904 0.75213
 C875 C 0.73265 1.00411 0.75575
 C876 C 0.74001 0.98877 0.75158
 C877 C 0.75617 0.98841 0.74369
 C878 C 0.76451 1.00332 0.74005
 H879 H 0.77684 1.00300 0.73387
 H880 H 0.72031 1.00442 0.76191
 C881 C 0.75541 0.51642 0.24226
 C882 C 0.74190 0.51603 0.25394
 C883 C 0.73599 0.50068 0.25968
 C884 C 0.74274 0.48579 0.25339
 C885 C 0.75454 0.48627 0.23999
 C886 C 0.76123 0.50161 0.23502
 H887 H 0.77083 0.50209 0.22527
 H888 H 0.72635 0.50037 0.26940
 C889 C 0.25841 -0.01723 0.75534
 C890 C 0.24232 -0.01783 0.74740
 C891 C 0.23326 -0.00313 0.74456
 C892 C 0.23939 0.01212 0.75010
 C893 C 0.25488 0.01268 0.75902
 C894 C 0.26453 -0.00189 0.76101
 H895 H 0.27636 -0.00146 0.76793
 H896 H 0.22127 -0.00361 0.73789
 C897 C 0.23201 0.24999 1.01339
 C898 C 0.24417 0.23699 1.01270
 C899 C 0.25231 0.23348 0.99747
 C900 C 0.24875 0.24270 0.98303
 C901 C 0.23670 0.25580 0.98380
 C902 C 0.22843 0.25919 0.99898
 H903 H 0.21921 0.26923 0.99962
 H904 H 0.26165 0.22354 0.99689
 C905 C 0.24151 0.75103 0.51747
 C906 C 0.25316 0.73764 0.51672
 C907 C 0.25821 0.73137 0.50115
 C908 C 0.25098 0.73753 0.48640
 C909 C 0.23850 0.75021 0.48728
 C910 C 0.23410 0.75697 0.50278
 H911 H 0.22496 0.76708 0.50338
 H912 H 0.26716 0.72110 0.50054
 C913 C 0.26123 0.75030 -0.01506
 C914 C 0.24750 0.73899 -0.01545
 C915 C 0.23752 0.73674 -0.00108
 C916 C 0.24111 0.74523 0.01371
 C917 C 0.25499 0.75633 0.01414
 C918 C 0.26489 0.75867 -0.00022
 H919 H 0.27525 0.76752 0.00002
 H920 H 0.22719 0.72786 -0.00124
 C921 C 0.25673 0.25169 0.48716
 C922 C 0.23985 0.24552 0.48713
 C923 C 0.23139 0.24318 0.50239
 C924 C 0.23933 0.24658 0.51767
 C925 C 0.25631 0.25267 0.51764
 C926 C 0.26470 0.25509 0.50236
 H927 H 0.27749 0.26015 0.50226
 H928 H 0.21866 0.23800 0.50238
 C929 C 0.73194 0.74854 1.01583
 C930 C 0.74618 0.73770 1.01649
 C931 C 0.75476 0.73339 1.00172
 C932 C 0.74925 0.73944 0.98630
 C933 C 0.73466 0.74972 0.98558
 C934 C 0.72626 0.75431 1.00032
 H935 H 0.71529 0.76251 0.99972
 H936 H 0.76579 0.72524 1.00224
 C937 C 0.72572 0.24873 0.51235
 C938 C 0.73946 0.23729 0.51238
 C939 C 0.74645 0.23192 0.49713
 C940 C 0.73954 0.23717 0.48188
 C941 C 0.72575 0.24852 0.48190
 C942 C 0.71908 0.25420 0.49711
 H943 H 0.70861 0.26303 0.49709
 H944 H 0.75668 0.22284 0.49713
 C945 C 0.76428 0.25494 -0.01370
 C946 C 0.75204 0.24209 -0.01397
 C947 C 0.74495 0.23648 0.00110
 C948 C 0.74979 0.24342 0.01638
 C949 C 0.76103 0.25706 0.01656
 C950 C 0.76837 0.26245 0.00154
 H951 H 0.77720 0.27275 0.00167
 H952 H 0.73625 0.22607 0.00097
 C953 C 0.75894 0.76073 0.48289
 C954 C 0.74973 0.74571 0.48296
 C955 C 0.74542 0.73830 0.49822
 C956 C 0.75025 0.74545 0.51341
 C957 C 0.75941 0.76048 0.51328
 C958 C 0.76386 0.76783 0.49806
 H959 H 0.77070 0.77947 0.49804
 H960 H 0.73859 0.72665 0.49826
 C961 C 1.02107 0.24622 0.26144
 C962 C 1.02126 0.25589 0.24673
 C963 C 1.00577 0.26071 0.23948
 C964 C 0.99015 0.25585 0.24640
 C965 C 0.98994 0.24624 0.26108
 C966 C 1.00539 0.24140 0.26836
 H967 H 1.00520 0.23421 0.27978
 H968 H 1.00587 0.26790 0.22806
 C969 C 0.51532 0.23760 0.75028
 C970 C 0.51445 0.24856 0.73657
 C971 C 0.49849 0.25316 0.73016
 C972 C 0.48337 0.24625 0.73647
 C973 C 0.48436 0.23447 0.74947
 C974 C 0.50027 0.23048 0.75636
 H975 H 0.50088 0.22190 0.76674
 H976 H 0.49786 0.26163 0.71969
 C977 C -0.01917 0.24845 0.76165
 C978 C -0.01893 0.23569 0.74955
 C979 C -0.00344 0.23129 0.74184
 C980 C 0.01192 0.23888 0.74633
 C981 C 0.01188 0.25063 0.75941
 C982 C -0.00370 0.25570 0.76650
 H983 H -0.00372 0.26483 0.77642
 H984 H -0.00343 0.22206 0.73202
 C985 C 0.48140 0.24277 0.26570
 C986 C 0.48208 0.23099 0.25267
 C987 C 0.49782 0.22707 0.24528
 C988 C 0.51293 0.23442 0.25079
 C989 C 0.51240 0.24537 0.26450
 C990 C 0.49661 0.24977 0.27152
 H991 H 0.49619 0.25828 0.28196
 H992 H 0.49824 0.21852 0.23486
 C993 C 1.01386 0.73525 0.74827
 C994 C 1.01353 0.74960 0.73815
 C995 C 0.99784 0.75695 0.73411
 C996 C 0.98245 0.74985 0.73942
 C997 C 0.98282 0.73567 0.74970
 C998 C 0.99849 0.72863 0.75411
 H999 H 0.99871 0.71777 0.76207
 H1000 H 0.99757 0.76755 0.72580
 C1001 C 0.51741 0.73918 0.25073
 C1002 C 0.51811 0.75342 0.24047
 C1003 C 0.50335 0.76309 0.23832
 C1004 C 0.48787 0.75892 0.24608
 C1005 C 0.48723 0.74466 0.25636
 C1006 C 0.50193 0.73490 0.25837
 H1007 H 0.50148 0.72419 0.26652
 H1008 H 0.50381 0.77377 0.23014
 C1009 C -0.01184 0.75724 0.25313
 C1010 C -0.01291 0.74668 0.23915
 C1011 C 0.00203 0.74204 0.23071
 C1012 C 0.01797 0.74811 0.23563
 C1013 C 0.01902 0.75915 0.24929
 C1014 C 0.00407 0.76339 0.25801
 H1015 H 0.00476 0.77181 0.26852
 H1016 H 0.00122 0.73382 0.22005
 C1017 C 0.48678 0.76419 0.75062
 C1018 C 0.48663 0.75050 0.73970
 C1019 C 0.50190 0.74214 0.73604
 C1020 C 0.51758 0.74760 0.74238
 C1021 C 0.51785 0.76204 0.75242
 C1022 C 0.50241 0.76977 0.75692
 H1023 H 0.50260 0.78070 0.76477
 H1024 H 0.50151 0.73127 0.72813
 C1025 C 0.39831 0.28531 0.30217
 C1026 C 0.41391 0.28007 0.29521
 C1027 C 0.42499 0.29185 0.28795
 C1028 C 0.42034 0.30861 0.28779
 C1029 C 0.40478 0.31369 0.29461
 C1030 C 0.39359 0.30214 0.30181
 C1031 C 0.44051 0.28671 0.28090
 C1032 C 0.44509 0.26991 0.28092
 C1033 C 0.43406 0.25808 0.28816
 C1034 C 0.41854 0.26324 0.29529
 C1035 C 0.43875 0.24129 0.28811
 C1036 C 0.45419 0.23626 0.28091
 C1037 C 0.46511 0.24793 0.27356
 C1038 C 0.46054 0.26475 0.27372
 H1039 H 0.38976 0.27625 0.30756
 H1040 H 0.42871 0.31780 0.28234
 H1041 H 0.40163 0.32676 0.29436
 H1042 H 0.44898 0.29576 0.27533
 H1043 H 0.41006 0.25418 0.30082
 H1044 H 0.43049 0.23205 0.29365
 H1045 H 0.45767 0.22326 0.28109
 H1046 H 0.46897 0.27377 0.26805
 C1047 C 0.40602 0.80649 0.79250
 C1048 C 0.42110 0.79837 0.78733
 C1049 C 0.43081 0.78930 0.79904
 C1050 C 0.42532 0.78839 0.81560
 C1051 C 0.41015 0.79603 0.82053
 C1052 C 0.40014 0.80508 0.80910
 C1053 C 0.44575 0.78106 0.79404
 C1054 C 0.45100 0.78143 0.77735
 C1055 C 0.44125 0.79026 0.76549
 C1056 C 0.42645 0.79882 0.77058
 C1057 C 0.44647 0.79030 0.74873
 C1058 C 0.46120 0.78170 0.74381
 C1059 C 0.47094 0.77298 0.75557
 C1060 C 0.46583 0.77296 0.77233
 H1061 H 0.39859 0.81324 0.78338
 H1062 H 0.43265 0.78155 0.82474
 H1063 H 0.40649 0.79492 0.83349
 H1064 H 0.45317 0.77418 0.80310
 H1065 H 0.41899 0.80564 0.76150
 H1066 H 0.43918 0.79698 0.73944
 H1067 H 0.46513 0.78199 0.73086
 H1068 H 0.47336 0.76623 0.78141
 C1069 C -0.10055 0.29296 0.80003
 C1070 C -0.08540 0.28737 0.79238
 C1071 C -0.07494 0.29873 0.78370
 C1072 C -0.07980 0.31543 0.78282
 C1073 C -0.09492 0.32086 0.79037
 C1074 C -0.10548 0.30973 0.79902
 C1075 C -0.05983 0.29322 0.77601
 C1076 C -0.05503 0.27647 0.77683
 C1077 C -0.06549 0.26508 0.78547
 C1078 C -0.08059 0.27060 0.79321
 C1079 C -0.06064 0.24834 0.78623
 C1080 C -0.04559 0.24292 0.77852
 C1081 C -0.03519 0.25412 0.76983
 C1082 C -0.03993 0.27091 0.76912
 H1083 H -0.10857 0.28418 0.80655
 H1084 H -0.07190 0.32432 0.77629
 H1085 H -0.09820 0.33387 0.78954
 H1086 H -0.05183 0.30196 0.76936
 H1087 H -0.08858 0.26186 0.79985
 H1088 H -0.06846 0.23944 0.79284
 H1089 H -0.04200 0.22998 0.77941
 H1090 H -0.03191 0.27959 0.76242
 C1091 C -0.09215 0.79847 0.29620
 C1092 C -0.07702 0.79353 0.28816
 C1093 C -0.06674 0.80552 0.28014
 C1094 C -0.07183 0.82218 0.28017
 C1095 C -0.08702 0.82693 0.28796
 C1096 C -0.09729 0.81517 0.29605
 C1097 C -0.05161 0.80068 0.27211
 C1098 C -0.04676 0.78396 0.27174
 C1099 C -0.05711 0.77191 0.27957
 C1100 C -0.07211 0.77679 0.28785
 C1101 C -0.05233 0.75515 0.27885
 C1102 C -0.03752 0.75038 0.27033
 C1103 C -0.02723 0.76229 0.26256
 C1104 C -0.03180 0.77907 0.26343
 H1105 H -0.10007 0.78929 0.30226
 H1106 H -0.06410 0.83152 0.27410
 H1107 H -0.09060 0.83990 0.28783
 H1108 H -0.04373 0.80990 0.26601
 H1109 H -0.08003 0.76757 0.29388
 H1110 H -0.06010 0.74574 0.28475
 H1111 H -0.03407 0.73737 0.26978
 H1112 H -0.02389 0.78824 0.25730
 C1113 C 0.60177 0.69842 0.28553
 C1114 C 0.58848 0.70808 0.27882
 C1115 C 0.58817 0.72540 0.28162
 C1116 C 0.60113 0.73278 0.29094
 C1117 C 0.61389 0.72303 0.29806
 C1118 C 0.61422 0.70581 0.29557
 C1119 C 0.57460 0.73501 0.27559
 C1120 C 0.56099 0.72748 0.26732
 C1121 C 0.56125 0.71018 0.26447
 C1122 C 0.57514 0.70063 0.26999
 C1123 C 0.54736 0.70268 0.25657
 C1124 C 0.53318 0.71215 0.25191
 C1125 C 0.53282 0.72930 0.25479
 C1126 C 0.54683 0.73692 0.26237
 H1127 H 0.60188 0.68510 0.28376
 H1128 H 0.60109 0.74602 0.29319
 H1129 H 0.62346 0.72893 0.30570
 H1130 H 0.57434 0.74826 0.27786
 H1131 H 0.57526 0.68734 0.26794
 H1132 H 0.54730 0.68944 0.25430
 H1133 H 0.52244 0.70611 0.24609
 H1134 H 0.54646 0.75013 0.26485
 C1135 C 0.59736 0.20348 0.79644
 C1136 C 0.58231 0.20709 0.78764
 C1137 C 0.57239 0.19400 0.78118
 C1138 C 0.57776 0.17758 0.78345
 C1139 C 0.59283 0.17412 0.79198
 C1140 C 0.60277 0.18698 0.79858
 C1141 C 0.55729 0.19749 0.77253
 C1142 C 0.55202 0.21392 0.77006
 C1143 C 0.56204 0.22706 0.77627
 C1144 C 0.57707 0.22356 0.78509
 C1145 C 0.55681 0.24348 0.77360
 C1146 C 0.54175 0.24686 0.76497
 C1147 C 0.53164 0.23390 0.75888
 C1148 C 0.53685 0.21744 0.76148
 H1149 H 0.60500 0.21351 0.80133
 H1150 H 0.57032 0.16740 0.77860
 H1151 H 0.59658 0.16130 0.79359
 H1152 H 0.54966 0.18741 0.76769
 H1153 H 0.58470 0.23364 0.78993
 H1154 H 0.56431 0.25371 0.77825
 H1155 H 0.53782 0.25963 0.76325
 H1156 H 0.52911 0.20740 0.75676
 C1157 C 1.10214 0.70221 0.78175
 C1158 C 1.08783 0.71064 0.77557
 C1159 C 1.08629 0.72796 0.77792
 C1160 C 1.09929 0.73658 0.78602
 C1161 C 1.11340 0.72806 0.79229
 C1162 C 1.11483 0.71078 0.79047
 C1163 C 1.07162 0.73630 0.77248
 C1164 C 1.05837 0.72750 0.76492
 C1165 C 1.06005 0.71023 0.76229
 C1166 C 1.07481 0.70194 0.76755
 C1167 C 1.04679 0.70148 0.75472
 C1168 C 1.03187 0.70970 0.75005
 C1169 C 1.02999 0.72679 0.75282
 C1170 C 1.04331 0.73565 0.76023
 H1171 H 1.10298 0.68888 0.78033
 H1172 H 1.09839 0.74987 0.78782
 H1173 H 1.12311 0.73503 0.79873
 H1174 H 1.07036 0.74955 0.77443
 H1175 H 1.07600 0.68866 0.76572
 H1176 H 1.04788 0.68827 0.75256
 H1177 H 1.02174 0.70272 0.74424
 H1178 H 1.04181 0.74880 0.76260
 C1179 C 1.10153 0.20568 0.30455
 C1180 C 1.08612 0.21056 0.29708
 C1181 C 1.07448 0.19836 0.29169
 C1182 C 1.07841 0.18156 0.29382
 C1183 C 1.09390 0.17682 0.30090
 C1184 C 1.10561 0.18879 0.30624
 C1185 C 1.05921 0.20310 0.28400
 C1186 C 1.05554 0.21989 0.28130
 C1187 C 1.06719 0.23213 0.28656
 C1188 C 1.08234 0.22739 0.29456
 C1189 C 1.06354 0.24890 0.28360
 C1190 C 1.04854 0.25349 0.27542
 C1191 C 1.03697 0.24139 0.27011
 C1192 C 1.04046 0.22462 0.27322
 H1193 H 1.11060 0.21498 0.30848
 H1194 H 1.06962 0.17206 0.28979
 H1195 H 1.09670 0.16374 0.30221
 H1196 H 1.05030 0.19372 0.27989
 H1197 H 1.09128 0.23678 0.29859
 H1198 H 1.07229 0.25846 0.28755
 H1199 H 1.04591 0.26650 0.27328
 H1200 H 1.03153 0.21527 0.26909
 C1201 C 0.59388 0.29148 0.69421
 C1202 C 0.57856 0.28634 0.70167
 C1203 C 0.56708 0.29827 0.70824
 C1204 C 0.57115 0.31513 0.70729
 C1205 C 0.58663 0.32010 0.70030
 C1206 C 0.59812 0.30834 0.69378
 C1207 C 0.55191 0.29317 0.71596
 C1208 C 0.54826 0.27626 0.71758
 C1209 C 0.55983 0.26432 0.71115
 C1210 C 0.57479 0.26943 0.70307
 C1211 C 0.55633 0.24742 0.71307
 C1212 C 0.54158 0.24238 0.72140
 C1213 C 0.53006 0.25414 0.72785
 C1214 C 0.53335 0.27108 0.72575
 H1215 H 0.60281 0.28234 0.68940
 H1216 H 0.56252 0.32445 0.71226
 H1217 H 0.58965 0.33318 0.69999
 H1218 H 0.54312 0.30234 0.72099
 H1219 H 0.58365 0.26027 0.69816
 H1220 H 0.56503 0.23810 0.70823
 H1221 H 0.53908 0.22926 0.72275
 H1222 H 0.52445 0.28015 0.73075
 C1223 C 0.60029 0.79453 0.20101
 C1224 C 0.58517 0.78947 0.20896
 C1225 C 0.57591 0.80086 0.21894
 C1226 C 0.58183 0.81708 0.22073
 C1227 C 0.59685 0.82200 0.21285
 C1228 C 0.60631 0.81082 0.20299
 C1229 C 0.56091 0.79590 0.22701
 C1230 C 0.55498 0.77966 0.22527
 C1231 C 0.56414 0.76821 0.21528
 C1232 C 0.57919 0.77318 0.20718
 C1233 C 0.55805 0.75199 0.21355
 C1234 C 0.54306 0.74717 0.22166
 C1235 C 0.53399 0.75844 0.23174
 C1236 C 0.54000 0.77470 0.23341
 H1237 H 0.60745 0.78573 0.19353
 H1238 H 0.57484 0.82598 0.22827
 H1239 H 0.60094 0.83468 0.21445
 H1240 H 0.55386 0.80467 0.23467
 H1241 H 0.58624 0.76440 0.19954
 H1242 H 0.56485 0.74305 0.20590
 H1243 H 0.53847 0.73464 0.22002
 H1244 H 0.53306 0.78343 0.24120
 C1245 C 1.10128 0.29570 0.20218
 C1246 C 1.08618 0.29100 0.21037
 C1247 C 1.07460 0.30331 0.21599
 C1248 C 1.07834 0.32007 0.21342
 C1249 C 1.09348 0.32463 0.20550
 C1250 C 1.10509 0.31254 0.19982
 C1251 C 1.05952 0.29872 0.22417
 C1252 C 1.05592 0.28196 0.22701
 C1253 C 1.06755 0.26962 0.22157
 C1254 C 1.08257 0.27421 0.21320
 C1255 C 1.06395 0.25287 0.22461
 C1256 C 1.04896 0.24841 0.23292
 C1257 C 1.03735 0.26061 0.23829
 C1258 C 1.04086 0.27736 0.23524
 H1259 H 1.11021 0.28627 0.19799
 H1260 H 1.06960 0.32965 0.21762
 H1261 H 1.09601 0.33768 0.20368
 H1262 H 1.05063 0.30818 0.22841
 H1263 H 1.09146 0.26474 0.20898
 H1264 H 1.07270 0.24324 0.22053
 H1265 H 1.04631 0.23542 0.23502
 H1266 H 1.03190 0.28678 0.23942
 C1267 C 1.09568 0.79415 0.70370
 C1268 C 1.08075 0.78854 0.71141
 C1269 C 1.07184 0.79897 0.72264
 C1270 C 1.07827 0.81480 0.72612
 C1271 C 1.09323 0.82031 0.71834
 C1272 C 1.10192 0.81011 0.70690
 C1273 C 1.05665 0.79341 0.73007
 C1274 C 1.05036 0.77756 0.72640
 C1275 C 1.05950 0.76711 0.71531
 C1276 C 1.07460 0.77267 0.70791
 C1277 C 1.05337 0.75124 0.71172
 C1278 C 1.03833 0.74570 0.71909
 C1279 C 1.02919 0.75591 0.73013
 C1280 C 1.03513 0.77190 0.73366
 H1281 H 1.10243 0.78598 0.69521
 H1282 H 1.07164 0.82296 0.73473
 H1283 H 1.09777 0.83267 0.72101
 H1284 H 1.04973 0.80141 0.73864
 H1285 H 1.08153 0.76467 0.69933
 H1286 H 1.06022 0.74311 0.70325
 H1287 H 1.03378 0.73337 0.71622
 H1288 H 1.02805 0.77975 0.74224
 C1289 C 0.40366 0.70911 0.70366
 C1290 C 0.41719 0.71592 0.71271
 C1291 C 0.41938 0.71168 0.72966
 C1292 C 0.40792 0.70068 0.73724
 C1293 C 0.39455 0.69382 0.72807
 C1294 C 0.39230 0.69793 0.71119
 C1295 C 0.43309 0.71830 0.73865
 C1296 C 0.44481 0.72889 0.73080
 C1297 C 0.44257 0.73308 0.71381
 C1298 C 0.42872 0.72670 0.70495
 C1299 C 0.45444 0.74334 0.70583
 C1300 C 0.46860 0.74913 0.71446
 C1301 C 0.47095 0.74504 0.73126
 C1302 C 0.45896 0.73506 0.73949
 H1303 H 0.40226 0.71228 0.69062
 H1304 H 0.40935 0.69729 0.75022
 H1305 H 0.38593 0.68538 0.73427
 H1306 H 0.43480 0.71500 0.75164
 H1307 H 0.42708 0.72990 0.69192
 H1308 H 0.45293 0.74663 0.69283
 H1309 H 0.47784 0.75676 0.70801
 H1310 H 0.46093 0.73180 0.75245
 C1311 C 0.39729 0.19831 0.21176
 C1312 C 0.41106 0.20668 0.21895
 C1313 C 0.41219 0.22410 0.21752
 C1314 C 0.39949 0.23283 0.20889
 C1315 C 0.38600 0.22435 0.20147
 C1316 C 0.38480 0.20704 0.20279
 C1317 C 0.42614 0.23245 0.22444
 C1318 C 0.43915 0.22353 0.23244
 C1319 C 0.43802 0.20608 0.23377
 C1320 C 0.42391 0.19781 0.22719
 C1321 C 0.45118 0.19713 0.24143
 C1322 C 0.46545 0.20534 0.24755
 C1323 C 0.46667 0.22263 0.24636
 C1324 C 0.45346 0.23172 0.23885
 H1325 H 0.39667 0.18493 0.21266
 H1326 H 0.40014 0.24619 0.20765
 H1327 H 0.37648 0.23137 0.19471
 H1328 H 0.42702 0.24581 0.22333
 H1329 H 0.42309 0.18443 0.22819
 H1330 H 0.45053 0.18377 0.24251
 H1331 H 0.47557 0.19821 0.25332
 H1332 H 0.45451 0.24507 0.23779
 C1333 C -0.09637 0.70584 0.20318
 C1334 C -0.08106 0.71062 0.21074
 C1335 C -0.07030 0.69848 0.21791
 C1336 C -0.07530 0.68182 0.21778
 C1337 C -0.09070 0.67719 0.21041
 C1338 C -0.10125 0.68911 0.20286
 C1339 C -0.05472 0.70320 0.22501
 C1340 C -0.04986 0.71993 0.22518
 C1341 C -0.06089 0.73209 0.21839
 C1342 C -0.07635 0.72735 0.21116
 C1343 C -0.05622 0.74883 0.21885
 C1344 C -0.04069 0.75349 0.22580
 C1345 C -0.02954 0.74151 0.23231
 C1346 C -0.03415 0.72473 0.23197
 H1347 H -0.10453 0.71519 0.19764
 H1348 H -0.06727 0.67235 0.22328
 H1349 H -0.09415 0.66422 0.21027
 H1350 H -0.04637 0.69387 0.23035
 H1351 H -0.08469 0.73668 0.20580
 H1352 H -0.06454 0.75830 0.21377
 H1353 H -0.03723 0.76647 0.22593
 H1354 H -0.02554 0.71550 0.23707
 C1355 C -0.10367 0.19908 0.71176
 C1356 C -0.09022 0.20812 0.71884
 C1357 C -0.08941 0.22548 0.71650
 C1358 C -0.10208 0.23351 0.70723
 C1359 C -0.11507 0.22439 0.69980
 C1360 C -0.11589 0.20712 0.70185
 C1361 C -0.07569 0.23448 0.72300
 C1362 C -0.06243 0.22628 0.73133
 C1363 C -0.06322 0.20892 0.73368
 C1364 C -0.07723 0.20000 0.72766
 C1365 C -0.04973 0.20070 0.74163
 C1366 C -0.03545 0.20951 0.74687
 C1367 C -0.03452 0.22672 0.74453
 C1368 C -0.04814 0.23509 0.73691
 H1369 H -0.10414 0.18574 0.71324
 H1370 H -0.10169 0.24680 0.70533
 H1371 H -0.12445 0.23083 0.69232
 H1372 H -0.07507 0.24777 0.72110
 H1373 H -0.07774 0.18668 0.72938
 H1374 H -0.05009 0.18741 0.74352
 H1375 H -0.02503 0.20290 0.75275
 H1376 H -0.04736 0.24836 0.73496
 C1377 C 0.30036 0.40403 0.29778
 C1378 C 0.29293 0.41921 0.29327
 C1379 C 0.28719 0.43026 0.30580
 C1380 C 0.28903 0.42599 0.32260
 C1381 C 0.29630 0.41082 0.32698
 C1382 C 0.30195 0.39966 0.31465
 C1383 C 0.27957 0.44533 0.30138
 C1384 C 0.27750 0.44948 0.28458
 C1385 C 0.28322 0.43847 0.27199
 C1386 C 0.29096 0.42342 0.27642
 C1387 C 0.28104 0.44271 0.25518
 C1388 C 0.27316 0.45766 0.25090
 C1389 C 0.26734 0.46851 0.26337
 C1390 C 0.26965 0.46444 0.28016
 H1391 H 0.30451 0.39549 0.28815
 H1392 H 0.28474 0.43433 0.33236
 H1393 H 0.29756 0.40789 0.34008
 H1394 H 0.27514 0.45378 0.31101
 H1395 H 0.29533 0.41495 0.26679
 H1396 H 0.28539 0.43446 0.24537
 H1397 H 0.27164 0.46081 0.23788
 H1398 H 0.26513 0.47288 0.28975
 C1399 C 0.29733 -0.10312 0.78458
 C1400 C 0.28818 -0.08885 0.77966
 C1401 C 0.27067 -0.08737 0.78378
 C1402 C 0.26246 -0.10017 0.79220
 C1403 C 0.27155 -0.11411 0.79716
 C1404 C 0.28920 -0.11570 0.79390
 C1405 C 0.26156 -0.07303 0.77966
 C1406 C 0.26966 -0.05999 0.77145
 C1407 C 0.28705 -0.06140 0.76691
 C1408 C 0.29624 -0.07585 0.77105
 C1409 C 0.29491 -0.04821 0.75849
 C1410 C 0.28560 -0.03386 0.75465
 C1411 C 0.26832 -0.03246 0.75919
 C1412 C 0.26055 -0.04550 0.76784
 H1413 H 0.31082 -0.10402 0.78175
 H1414 H 0.24898 -0.09932 0.79518
 H1415 H 0.26444 -0.12361 0.80358
 H1416 H 0.24817 -0.07195 0.78301
 H1417 H 0.30964 -0.07687 0.76777
 H1418 H 0.30823 -0.04899 0.75489
 H1419 H 0.29185 -0.02385 0.74807
 H1420 H 0.24740 -0.04430 0.77189
 C1421 C 0.79756 0.40495 0.78736
 C1422 C 0.78878 0.41869 0.78070
 C1423 C 0.77089 0.41989 0.78261
 C1424 C 0.76208 0.40747 0.79113
 C1425 C 0.77086 0.39404 0.79794
 C1426 C 0.78874 0.39254 0.79629
 C1427 C 0.76205 0.43358 0.77616
 C1428 C 0.77089 0.44630 0.76803
 C1429 C 0.78881 0.44524 0.76619
 C1430 C 0.79763 0.43138 0.77241
 C1431 C 0.79760 0.45820 0.75832
 C1432 C 0.78874 0.47209 0.75245
 C1433 C 0.77094 0.47313 0.75412
 C1434 C 0.76208 0.46019 0.76193
 H1435 H 0.81127 0.40427 0.78590
 H1436 H 0.74836 0.40819 0.79267
 H1437 H 0.76338 0.38481 0.80437
 H1438 H 0.74831 0.43444 0.77765
 H1439 H 0.81138 0.43057 0.77100
 H1440 H 0.81134 0.45766 0.75684
 H1441 H 0.79574 0.48202 0.74650
 H1442 H 0.74835 0.46109 0.76345
 C1443 C 0.78499 -0.09410 0.30524
 C1444 C 0.77798 -0.08008 0.29735
 C1445 C 0.78248 -0.07650 0.28065
 C1446 C 0.79397 -0.08681 0.27219
 C1447 C 0.80138 -0.10029 0.28027
 C1448 C 0.79715 -0.10411 0.29694
 C1449 C 0.77573 -0.06247 0.27274
 C1450 C 0.76498 -0.05160 0.28148
 C1451 C 0.76066 -0.05493 0.29828
 C1452 C 0.76698 -0.06930 0.30604
 C1453 C 0.75027 -0.04371 0.30708
 C1454 C 0.74423 -0.02934 0.29930
 C1455 C 0.74826 -0.02615 0.28256
 C1456 C 0.75866 -0.03729 0.27372
 H1457 H 0.78162 -0.09662 0.31809
 H1458 H 0.79750 -0.08426 0.25937
 H1459 H 0.81028 -0.10782 0.27322
 H1460 H 0.77914 -0.05983 0.25990
 H1461 H 0.76364 -0.07188 0.31890
 H1462 H 0.74688 -0.04601 0.31998
 H1463 H 0.73617 -0.02083 0.30624
 H1464 H 0.76186 -0.03473 0.26081
 C1465 C 0.30220 0.59648 0.71147
 C1466 C 0.29382 0.58287 0.71861
 C1467 C 0.27606 0.58097 0.71642
 C1468 C 0.26706 0.59265 0.70689
 C1469 C 0.27556 0.60607 0.69964
 C1470 C 0.29317 0.60819 0.70195
 C1471 C 0.26766 0.56741 0.72372
 C1472 C 0.27687 0.55561 0.73295
 C1473 C 0.29469 0.55744 0.73487
 C1474 C 0.30301 0.57110 0.72781
 C1475 C 0.30398 0.54553 0.74378
 C1476 C 0.29573 0.53188 0.75072
 C1477 C 0.27805 0.52999 0.74909
 C1478 C 0.26862 0.54191 0.74019
 H1479 H 0.31583 0.59778 0.71314
 H1480 H 0.25345 0.59139 0.70503
 H1481 H 0.26828 0.61493 0.69241
 H1482 H 0.25402 0.56599 0.72211
 H1483 H 0.31666 0.57250 0.72937
 H1484 H 0.31764 0.54673 0.74532
 H1485 H 0.30314 0.52281 0.75756
 H1486 H 0.25497 0.54039 0.73879
 C1487 C 0.28840 1.09500 0.19418
 C1488 C 0.28364 1.07994 0.20172
 C1489 C 0.29579 1.07077 0.21093
 C1490 C 0.31241 1.07680 0.21251
 C1491 C 0.31699 1.09178 0.20512
 C1492 C 0.30509 1.10109 0.19590
 C1493 C 0.29118 1.05573 0.21845
 C1494 C 0.27452 1.04972 0.21699
 C1495 C 0.26229 1.05892 0.20791
 C1496 C 0.26693 1.07394 0.20030
 C1497 C 0.24559 1.05293 0.20659
 C1498 C 0.24105 1.03799 0.21417
 C1499 C 0.25309 1.02876 0.22323
 C1500 C 0.26986 1.03465 0.22451
 H1501 H 0.27905 1.10207 0.18721
 H1502 H 0.32189 1.06993 0.21950
 H1503 H 0.32999 1.09596 0.20651
 H1504 H 0.30056 1.04873 0.22547
 H1505 H 0.25754 1.08095 0.19332
 H1506 H 0.23604 1.05979 0.19968
 H1507 H 0.22811 1.03356 0.21290
 H1508 H 0.27918 1.02761 0.23155
 C1509 C 0.79574 0.59762 0.20446
 C1510 C 0.78647 0.58359 0.20942
 C1511 C 0.77253 0.57818 0.19976
 C1512 C 0.76811 0.58688 0.18532
 C1513 C 0.77741 0.60077 0.18044
 C1514 C 0.79133 0.60634 0.18991
 C1515 C 0.76331 0.56411 0.20460
 C1516 C 0.76795 0.55526 0.21892
 C1517 C 0.78191 0.56067 0.22860
 C1518 C 0.79101 0.57483 0.22384
 C1519 C 0.78669 0.55168 0.24278
 C1520 C 0.77786 0.53736 0.24722
 C1521 C 0.76399 0.53198 0.23773
 C1522 C 0.75901 0.54094 0.22360
 H1523 H 0.80634 0.60169 0.21200
 H1524 H 0.75750 0.58289 0.17773
 H1525 H 0.77366 0.60702 0.16912
 H1526 H 0.75265 0.55996 0.19714
 H1527 H 0.80172 0.57893 0.23126
 H1528 H 0.79737 0.55560 0.25031
 H1529 H 0.78189 0.53039 0.25806
 H1530 H 0.74838 0.53662 0.21621
 C1531 C 0.79549 1.10009 0.70451
 C1532 C 0.78659 1.08601 0.71012
 C1533 C 0.77143 1.08120 0.70201
 C1534 C 0.76550 1.09036 0.68842
 C1535 C 0.77441 1.10423 0.68288
 C1536 C 0.78946 1.10937 0.69085
 C1537 C 0.76244 1.06724 0.70752
 C1538 C 0.76850 1.05785 0.72093
 C1539 C 0.78374 1.06250 0.72901
 C1540 C 0.79263 1.07663 0.72363
 C1541 C 0.78993 1.05280 0.74220
 C1542 C 0.78122 1.03853 0.74718
 C1543 C 0.76605 1.03396 0.73927
 C1544 C 0.75966 1.04370 0.72623
 H1545 H 0.80704 1.10376 0.71082
 H1546 H 0.75397 1.08677 0.68200
 H1547 H 0.76939 1.11084 0.67227
 H1548 H 0.75081 1.06360 0.70125
 H1549 H 0.80429 1.08022 0.72986
 H1550 H 0.80159 1.05614 0.74854
 H1551 H 0.78626 1.03107 0.75725
 H1552 H 0.74801 1.04004 0.72005
 C1553 C 0.70453 0.59906 0.29215
 C1554 C 0.71368 0.58521 0.28625
 C1555 C 0.73089 0.58288 0.29094
 C1556 C 0.73868 0.59452 0.30133
 C1557 C 0.72949 0.60821 0.30721
 C1558 C 0.71229 0.61060 0.30281
 C1559 C 0.73998 0.56892 0.28530
 C1560 C 0.73207 0.55718 0.27506
 C1561 C 0.71488 0.55957 0.27028
 C1562 C 0.70581 0.57356 0.27587
 C1563 C 0.70695 0.54781 0.26011
 C1564 C 0.71592 0.53376 0.25481
 C1565 C 0.73296 0.53127 0.25949
 C1566 C 0.74100 0.54300 0.26965
 H1567 H 0.69130 0.60062 0.28868
 H1568 H 0.75188 0.59299 0.30500
 H1569 H 0.73595 0.61695 0.31517
 H1570 H 0.75316 0.56713 0.28898
 H1571 H 0.69261 0.57530 0.27226
 H1572 H 0.69380 0.54941 0.25633
 H1573 H 0.70955 0.52478 0.24701
 H1574 H 0.75405 0.54095 0.27354
 C1575 C 0.70505 1.10106 0.79306
 C1576 C 0.71415 1.08752 0.78649
 C1577 C 0.73071 1.08393 0.79233
 C1578 C 0.73797 1.09408 0.80452
 C1579 C 0.72880 1.10749 0.81110
 C1580 C 0.71212 1.11113 0.80562
 C1581 C 0.73964 1.07012 0.78607
 C1582 C 0.73207 1.05974 0.77421
 C1583 C 0.71553 1.06345 0.76827
 C1584 C 0.70674 1.07737 0.77434
 C1585 C 0.70787 1.05295 0.75660
 C1586 C 0.71634 1.03867 0.75115
 C1587 C 0.73267 1.03480 0.75710
 C1588 C 0.74058 1.04546 0.76850
 H1589 H 0.69236 1.10344 0.78842
 H1590 H 0.75069 1.09154 0.80912
 H1591 H 0.73489 1.11484 0.82061
 H1592 H 0.75232 1.06729 0.79065
 H1593 H 0.69401 1.08012 0.76985
 H1594 H 0.69521 1.05561 0.75191
 H1595 H 0.71010 1.03054 0.74237
 H1596 H 0.75310 1.04235 0.77328
 C1597 C 0.21275 0.59928 0.80123
 C1598 C 0.21834 0.58420 0.79429
 C1599 C 0.20659 0.57390 0.78595
 C1600 C 0.18956 0.57898 0.78442
 C1601 C 0.18417 0.59408 0.79115
 C1602 C 0.19565 0.60432 0.79969
 C1603 C 0.21202 0.55868 0.77930
 C1604 C 0.22909 0.55367 0.78075
 C1605 C 0.24095 0.56411 0.78877
 C1606 C 0.23548 0.57928 0.79554
 C1607 C 0.25806 0.55914 0.78997
 C1608 C 0.26335 0.54389 0.78347
 C1609 C 0.25161 0.53338 0.77569
 C1610 C 0.23449 0.53832 0.77435
 H1611 H 0.22176 0.60717 0.80761
 H1612 H 0.18040 0.57126 0.77805
 H1613 H 0.17090 0.59760 0.78989
 H1614 H 0.20295 0.55074 0.77304
 H1615 H 0.24455 0.58722 0.80181
 H1616 H 0.26733 0.56699 0.79603
 H1617 H 0.27657 0.54016 0.78467
 H1618 H 0.22545 0.53021 0.76829
 C1619 C 0.20235 1.09406 0.28668
 C1620 C 0.21042 1.08052 0.27892
 C1621 C 0.22830 1.07854 0.28025
 C1622 C 0.23778 1.09014 0.28922
 C1623 C 0.22965 1.10351 0.29696
 C1624 C 0.21188 1.10561 0.29586
 C1625 C 0.23640 1.06491 0.27275
 C1626 C 0.22684 1.05312 0.26408
 C1627 C 0.20896 1.05507 0.26270
 C1628 C 0.20088 1.06881 0.27006
 C1629 C 0.19946 1.04310 0.25417
 C1630 C 0.20756 1.02920 0.24731
 C1631 C 0.22528 1.02717 0.24869
 C1632 C 0.23486 1.03922 0.25703
 H1633 H 0.18863 1.09540 0.28580
 H1634 H 0.25149 1.08882 0.29033
 H1635 H 0.23739 1.11226 0.30374
 H1636 H 0.25010 1.06339 0.27383
 H1637 H 0.18716 1.07028 0.26906
 H1638 H 0.18576 1.04439 0.25298
 H1639 H 0.20000 1.02000 0.24092
 H1640 H 0.24852 1.03754 0.25834
 C1641 C 0.71013 0.40443 0.69899
 C1642 C 0.71447 0.41965 0.70633
 C1643 C 0.70188 0.42893 0.71498
 C1644 C 0.68522 0.42290 0.71613
 C1645 C 0.68105 0.40775 0.70895
 C1646 C 0.69342 0.39831 0.70040
 C1647 C 0.70611 0.44404 0.72243
 C1648 C 0.72282 0.45001 0.72146
 C1649 C 0.73548 0.44078 0.71286
 C1650 C 0.73122 0.42567 0.70532
 C1651 C 0.75220 0.44683 0.71201
 C1652 C 0.75632 0.46185 0.71961
 C1653 C 0.74382 0.47101 0.72825
 C1654 C 0.72707 0.46507 0.72904
 H1655 H 0.71980 0.39723 0.69253
 H1656 H 0.67541 0.42988 0.72266
 H1657 H 0.66803 0.40350 0.71004
 H1658 H 0.69642 0.45111 0.72906
 H1659 H 0.74092 0.41858 0.69874
 H1660 H 0.76207 0.43996 0.70546
 H1661 H 0.76927 0.46638 0.71873
 H1662 H 0.71742 0.47209 0.73575
 C1663 C 0.70327 -0.09503 0.21458
 C1664 C 0.70974 -0.08002 0.22057
 C1665 C 0.71978 -0.06994 0.21000
 C1666 C 0.72345 -0.07525 0.19374
 C1667 C 0.71708 -0.09031 0.18792
 C1668 C 0.70678 -0.10023 0.19820
 C1669 C 0.72587 -0.05470 0.21583
 C1670 C 0.72215 -0.04947 0.23213
 C1671 C 0.71240 -0.05973 0.24280
 C1672 C 0.70623 -0.07491 0.23693
 C1673 C 0.70886 -0.05458 0.25914
 C1674 C 0.71480 -0.03933 0.26485
 C1675 C 0.72432 -0.02902 0.25431
 C1676 C 0.72796 -0.03412 0.23795
 H1677 H 0.69559 -0.10271 0.22272
 H1678 H 0.73116 -0.06771 0.18548
 H1679 H 0.71991 -0.09400 0.17523
 H1680 H 0.73344 -0.04689 0.20768
 H1681 H 0.69863 -0.08270 0.24507
 H1682 H 0.70144 -0.06230 0.26748
 H1683 H 0.71182 -0.03549 0.27747
 H1684 H 0.73538 -0.02615 0.22984
 C1685 C 0.20524 0.40499 0.20786
 C1686 C 0.21295 0.41969 0.21327
 C1687 C 0.22276 0.42915 0.20194
 C1688 C 0.22497 0.42361 0.18552
 C1689 C 0.21751 0.40884 0.18034
 C1690 C 0.20752 0.39946 0.19140
 C1691 C 0.23026 0.44397 0.20718
 C1692 C 0.22834 0.44931 0.22370
 C1693 C 0.21887 0.43968 0.23517
 C1694 C 0.21110 0.42500 0.22984
 C1695 C 0.21740 0.44489 0.25181
 C1696 C 0.22527 0.45949 0.25701
 C1697 C 0.23446 0.46913 0.24561
 C1698 C 0.23590 0.46408 0.22897
 H1699 H 0.19772 0.39773 0.21653
 H1700 H 0.23248 0.43069 0.17670
 H1701 H 0.21933 0.40491 0.16755
 H1702 H 0.23768 0.45128 0.19845
 H1703 H 0.20372 0.41767 0.23858
 H1704 H 0.21027 0.43763 0.26078
 H1705 H 0.22416 0.46332 0.26991
 H1706 H 0.24314 0.47156 0.22025
 C1707 C 0.20552 -0.10026 0.70924
 C1708 C 0.21469 -0.08649 0.71483
 C1709 C 0.23057 -0.08260 0.70745
 C1710 C 0.23703 -0.09266 0.69463
 C1711 C 0.22775 -0.10632 0.68906
 C1712 C 0.21186 -0.11024 0.69623
 C1713 C 0.23960 -0.06861 0.71285
 C1714 C 0.23277 -0.05835 0.72536
 C1715 C 0.21686 -0.06234 0.73273
 C1716 C 0.20803 -0.07643 0.72752
 C1717 C 0.20985 -0.05200 0.74501
 C1718 C 0.21833 -0.03765 0.74975
 C1719 C 0.23406 -0.03351 0.74251
 C1720 C 0.24136 -0.04397 0.73042
 H1721 H 0.19328 -0.10292 0.71490
 H1722 H 0.24918 -0.08988 0.68881
 H1723 H 0.23310 -0.11377 0.67911
 H1724 H 0.25175 -0.06557 0.70714
 H1725 H 0.19581 -0.07941 0.73316
 H1726 H 0.19770 -0.05489 0.75077
 H1727 H 0.21261 -0.02969 0.75913
 H1728 H 0.25347 -0.04069 0.72476
 C1729 C 0.29646 0.28398 0.40267
 C1730 C 0.28679 0.27862 0.41643
 C1731 C 0.27026 0.28527 0.41915
 C1732 C 0.26357 0.29691 0.40801
 C1733 C 0.27345 0.30252 0.39471
 C1734 C 0.29000 0.29632 0.39208
 C1735 C 0.26087 0.28064 0.43327
 C1736 C 0.26795 0.26981 0.44499
 C1737 C 0.28439 0.26300 0.44226
 C1738 C 0.29363 0.26729 0.42789
 C1739 C 0.29146 0.25231 0.45419
 C1740 C 0.28244 0.24863 0.46877
 C1741 C 0.26615 0.25543 0.47157
 C1742 C 0.25897 0.26600 0.45962
 H1743 H 0.30930 0.27928 0.40074
 H1744 H 0.25092 0.30208 0.40988
 H1745 H 0.26821 0.31193 0.38655
 H1746 H 0.24826 0.28585 0.43538
 H1747 H 0.30631 0.26221 0.42588
 H1748 H 0.30403 0.24696 0.45232
 H1749 H 0.28812 0.24040 0.47787
 H1750 H 0.24649 0.27144 0.46186
 C1751 C 0.29910 0.78521 -0.09910
 C1752 C 0.29006 0.77838 -0.08563
 C1753 C 0.27201 0.77852 -0.08575
 C1754 C 0.26333 0.78516 -0.09941
 C1755 C 0.27239 0.79201 -0.11267
 C1756 C 0.29033 0.79232 -0.11257
 C1757 C 0.26289 0.77230 -0.07212
 C1758 C 0.27155 0.76611 -0.05823
 C1759 C 0.28959 0.76571 -0.05813
 C1760 C 0.29874 0.77177 -0.07188
 C1761 C 0.29815 0.75957 -0.04410
 C1762 C 0.28891 0.75422 -0.03019
 C1763 C 0.27101 0.75479 -0.03018
 C1764 C 0.26241 0.76069 -0.04426
 H1765 H 0.31291 0.78542 -0.09881
 H1766 H 0.24951 0.78527 -0.09974
 H1767 H 0.26526 0.79709 -0.12299
 H1768 H 0.24905 0.77257 -0.07218
 H1769 H 0.31258 0.77164 -0.07174
 H1770 H 0.31196 0.75915 -0.04378
 H1771 H 0.29571 0.74973 -0.01936
 H1772 H 0.24860 0.76146 -0.04415
 C1773 C 0.79806 0.28889 -0.10029
 C1774 C 0.78961 0.28283 -0.08605
 C1775 C 0.77156 0.28292 -0.08542
 C1776 C 0.76230 0.28895 -0.09902
 C1777 C 0.77078 0.29516 -0.11299
 C1778 C 0.78869 0.29535 -0.11373
 C1779 C 0.76305 0.27725 -0.07112
 C1780 C 0.77232 0.27165 -0.05732
 C1781 C 0.79036 0.27149 -0.05793
 C1782 C 0.79888 0.27702 -0.07231
 C1783 C 0.79957 0.26595 -0.04406
 C1784 C 0.79101 0.26064 -0.02973
 C1785 C 0.77311 0.26071 -0.02902
 C1786 C 0.76382 0.26633 -0.04285
 H1787 H 0.81187 0.28912 -0.10065
 H1788 H 0.74848 0.28909 -0.09876
 H1789 H 0.76325 0.29988 -0.12324
 H1790 H 0.74922 0.27738 -0.07067
 H1791 H 0.81272 0.27698 -0.07272
 H1792 H 0.81339 0.26574 -0.04428
 H1793 H 0.79837 0.25632 -0.01918
 H1794 H 0.75001 0.26665 -0.04227
 C1795 C 0.79587 0.80521 0.40277
 C1796 C 0.79176 0.79731 0.41789
 C1797 C 0.80498 0.79150 0.42835
 C1798 C 0.82202 0.79355 0.42352
 C1799 C 0.82597 0.80104 0.40834
 C1800 C 0.81300 0.80689 0.39782
 C1801 C 0.80101 0.78352 0.44338
 C1802 C 0.78398 0.78093 0.44798
 C1803 C 0.77071 0.78651 0.43745
 C1804 C 0.77467 0.79482 0.42256
 C1805 C 0.75368 0.78355 0.44198
 C1806 C 0.74986 0.77512 0.45673
 C1807 C 0.76298 0.76962 0.46724
 C1808 C 0.78001 0.77267 0.46287
 H1809 H 0.78579 0.80956 0.39465
 H1810 H 0.83230 0.78918 0.43138
 H1811 H 0.83926 0.80235 0.40487
 H1812 H 0.81119 0.77913 0.45139
 H1813 H 0.76450 0.79913 0.41452
 H1814 H 0.74334 0.78770 0.43408
 H1815 H 0.73665 0.77293 0.46002
 H1816 H 0.79014 0.76835 0.47096
 C1817 C 0.69672 0.28968 0.59749
 C1818 C 0.70451 0.28289 0.58325
 C1819 C 0.72215 0.28523 0.58046
 C1820 C 0.73166 0.29437 0.59198
 C1821 C 0.72375 0.30127 0.60603
 C1822 C 0.70622 0.29902 0.60894
 C1823 C 0.72994 0.27857 0.56612
 C1824 C 0.72022 0.26983 0.55441
 C1825 C 0.70255 0.26759 0.55720
 C1826 C 0.69485 0.27401 0.57165
 C1827 C 0.69279 0.25911 0.54539
 C1828 C 0.70040 0.25304 0.53085
 C1829 C 0.71792 0.25513 0.52797
 C1830 C 0.72782 0.26349 0.53983
 H1831 H 0.68316 0.28800 0.59942
 H1832 H 0.74520 0.29629 0.59006
 H1833 H 0.73142 0.30828 0.61470
 H1834 H 0.74347 0.28037 0.56398
 H1835 H 0.68130 0.27227 0.57375
 H1836 H 0.67924 0.25729 0.54733
 H1837 H 0.69262 0.24657 0.52185
 H1838 H 0.74133 0.26524 0.53755
 C1839 C 0.70020 0.78803 1.10071
 C1840 C 0.70830 0.78104 1.08669
 C1841 C 0.72617 0.78265 1.08471
 C1842 C 0.73562 0.79104 1.09679
 C1843 C 0.72744 0.79819 1.11049
 C1844 C 0.70968 0.79691 1.11252
 C1845 C 0.73428 0.77614 1.07055
 C1846 C 0.72475 0.76829 1.05815
 C1847 C 0.70691 0.76656 1.06010
 C1848 C 0.69881 0.77284 1.07443
 C1849 C 0.69746 0.75880 1.04754
 C1850 C 0.70560 0.75293 1.03315
 C1851 C 0.72331 0.75460 1.03116
 C1852 C 0.73280 0.76236 1.04369
 H1853 H 0.68648 0.78707 1.10210
 H1854 H 0.74931 0.79231 1.09550
 H1855 H 0.73507 0.80476 1.11953
 H1856 H 0.74797 0.77745 1.06904
 H1857 H 0.68511 0.77161 1.07589
 H1858 H 0.68379 0.75738 1.04880
 H1859 H 0.69810 0.74698 1.02358
 H1860 H 0.74643 0.76394 1.04206
 C1861 C 0.20012 0.28486 1.10001
 C1862 C 0.20832 0.27796 1.08602
 C1863 C 0.22632 0.27866 1.08468
 C1864 C 0.23578 0.28615 1.09735
 C1865 C 0.22748 0.29346 1.11092
 C1866 C 0.20963 0.29302 1.11228
 C1867 C 0.23453 0.27238 1.07045
 C1868 C 0.22497 0.26593 1.05728
 C1869 C 0.20699 0.26521 1.05858
 C1870 C 0.19880 0.27099 1.07305
 C1871 C 0.19746 0.25913 1.04517
 C1872 C 0.20565 0.25411 1.03051
 C1873 C 0.22347 0.25482 1.02914
 C1874 C 0.23310 0.26063 1.04260
 H1875 H 0.18632 0.28469 1.10090
 H1876 H 0.24956 0.28680 1.09653
 H1877 H 0.23502 0.29963 1.12032
 H1878 H 0.24832 0.27301 1.06942
 H1879 H 0.18500 0.27054 1.07400
 H1880 H 0.18368 0.25851 1.04593
 H1881 H 0.19810 0.24964 1.02019
 H1882 H 0.24686 0.26134 1.04145
 C1883 C 0.20380 0.79468 0.59765
 C1884 C 0.20799 0.78614 0.58295
 C1885 C 0.19489 0.77916 0.57317
 C1886 C 0.17787 0.78067 0.57835
 C1887 C 0.17384 0.78901 0.59309
 C1888 C 0.18672 0.79612 0.60283
 C1889 C 0.19900 0.77077 0.55839
 C1890 C 0.21604 0.76917 0.55331
 C1891 C 0.22918 0.77593 0.56321
 C1892 C 0.22506 0.78441 0.57794
 C1893 C 0.24623 0.77415 0.55815
 C1894 C 0.25022 0.76589 0.54335
 C1895 C 0.23723 0.75929 0.53341
 C1896 C 0.22017 0.76095 0.53844
 H1897 H 0.21385 0.79993 0.60518
 H1898 H 0.16768 0.77538 0.57102
 H1899 H 0.16057 0.79006 0.59673
 H1900 H 0.18893 0.76551 0.55085
 H1901 H 0.23512 0.78968 0.58549
 H1902 H 0.25645 0.77924 0.56558
 H1903 H 0.26344 0.76482 0.53952
 H1904 H 0.21015 0.75579 0.53078
 C1905 C 0.29416 0.69800 0.59730
 C1906 C 0.28956 0.70538 0.58211
 C1907 C 0.30216 0.71300 0.57207
 C1908 C 0.31913 0.71319 0.57748
 C1909 C 0.32355 0.70606 0.59273
 C1910 C 0.31115 0.69840 0.60279
 C1911 C 0.29759 0.72042 0.55690
 C1912 C 0.28050 0.72059 0.55176
 C1913 C 0.26788 0.71312 0.56193
 C1914 C 0.27251 0.70546 0.57693
 C1915 C 0.25078 0.71357 0.55699
 C1916 C 0.24616 0.72147 0.54222
 C1917 C 0.25855 0.72893 0.53206
 C1918 C 0.27576 0.72830 0.53675
 H1919 H 0.28445 0.69231 0.60502
 H1920 H 0.32896 0.71897 0.56997
 H1921 H 0.33676 0.70641 0.59658
 H1922 H 0.30727 0.72624 0.54921
 H1923 H 0.26281 0.69973 0.58467
 H1924 H 0.24095 0.70795 0.56462
 H1925 H 0.23284 0.72182 0.53869
 H1926 H 0.28531 0.73413 0.52893
 C1927 C 0.28492 0.19477 1.09236
 C1928 C 0.28010 0.20218 1.07716
 C1929 C 0.29260 0.21003 1.06715
 C1930 C 0.30960 0.21023 1.07233
 C1931 C 0.31420 0.20314 1.08749
 C1932 C 0.30196 0.19552 1.09775
 C1933 C 0.28792 0.21782 1.05225
 C1934 C 0.27085 0.21813 1.04722
 C1935 C 0.25829 0.21025 1.05708
 C1936 C 0.26300 0.20223 1.07195
 C1937 C 0.24120 0.21071 1.05195
 C1938 C 0.23660 0.21914 1.03738
 C1939 C 0.24899 0.22727 1.02771
 C1940 C 0.26614 0.22649 1.03260
 H1941 H 0.27538 0.18898 1.10022
 H1942 H 0.31933 0.21611 1.06477
 H1943 H 0.32745 0.20364 1.09117
 H1944 H 0.29755 0.22389 1.04468
 H1945 H 0.25335 0.19627 1.07956
 H1946 H 0.23138 0.20470 1.05927
 H1947 H 0.22333 0.21941 1.03369
 H1948 H 0.27574 0.23278 1.02521
 C1949 C 0.78986 0.70538 1.09876
 C1950 C 0.78444 0.71258 1.08380
 C1951 C 0.79584 0.72239 1.07439
 C1952 C 0.81241 0.72504 1.08031
 C1953 C 0.81774 0.71776 1.09524
 C1954 C 0.80659 0.70769 1.10450
 C1955 C 0.79053 0.72926 1.05920
 C1956 C 0.77397 0.72640 1.05332
 C1957 C 0.76252 0.71675 1.06289
 C1958 C 0.76782 0.70992 1.07805
 C1959 C 0.74593 0.71400 1.05709
 C1960 C 0.74071 0.72075 1.04194
 C1961 C 0.75197 0.73033 1.03237
 C1962 C 0.76863 0.73304 1.03804
 H1963 H 0.78098 0.69793 1.10586
 H1964 H 0.82132 0.73257 1.07331
 H1965 H 0.83070 0.71974 1.09931
 H1966 H 0.79930 0.73673 1.05192
 H1967 H 0.75907 0.70243 1.08532
 H1968 H 0.73701 0.70664 1.06427
 H1969 H 0.72785 0.71850 1.03765
 H1970 H 0.77728 0.74052 1.03066
 C1971 C 0.78551 0.20160 0.59225
 C1972 C 0.77987 0.20873 0.57729
 C1973 C 0.79163 0.21675 0.56665
 C1974 C 0.80886 0.21745 0.57115
 C1975 C 0.81438 0.21032 0.58606
 C1976 C 0.80280 0.20232 0.59680
 C1977 C 0.78600 0.22392 0.55170
 C1978 C 0.76873 0.22317 0.54726
 C1979 C 0.75698 0.21510 0.55792
 C1980 C 0.76261 0.20796 0.57285
 C1981 C 0.73975 0.21427 0.55346
 C1982 C 0.73416 0.22141 0.53862
 C1983 C 0.74565 0.22965 0.52805
 C1984 C 0.76297 0.23036 0.53235
 H1985 H 0.77634 0.19564 0.60037
 H1986 H 0.81808 0.22350 0.56314
 H1987 H 0.82779 0.21100 0.58906
 H1988 H 0.79504 0.23008 0.54355
 H1989 H 0.75357 0.20180 0.58101
 H1990 H 0.73060 0.20805 0.56143
 H1991 H 0.72082 0.22046 0.53533
 H1992 H 0.77188 0.23664 0.52416
 C1993 C 0.70910 0.70156 0.40488
 C1994 C 0.71387 0.70940 0.41976
 C1995 C 0.70121 0.71398 0.43153
 C1996 C 0.68404 0.71069 0.42821
 C1997 C 0.67939 0.70305 0.41332
 C1998 C 0.69183 0.69842 0.40151
 C1999 C 0.70589 0.72188 0.44637
 C2000 C 0.72305 0.72543 0.44953
 C2001 C 0.73572 0.72093 0.43773
 C2002 C 0.73106 0.71288 0.42296
 C2003 C 0.75286 0.72462 0.44091
 C2004 C 0.75741 0.73270 0.45560
 C2005 C 0.74489 0.73724 0.46734
 C2006 C 0.72774 0.73348 0.46429
 H2007 H 0.71880 0.69827 0.39579
 H2008 H 0.67417 0.71411 0.43710
 H2009 H 0.66602 0.70067 0.41113
 H2010 H 0.69616 0.72536 0.45539
 H2011 H 0.74078 0.70942 0.41393
 H2012 H 0.76275 0.72124 0.43204
 H2013 H 0.77072 0.73534 0.45790
 H2014 H 0.71807 0.73700 0.47334
 C2015 C 0.71154 0.20596 -0.09633
 C2016 C 0.71631 0.21332 -0.08118
 C2017 C 0.70412 0.22238 -0.07182
 C2018 C 0.68745 0.22408 -0.07785
 C2019 C 0.68283 0.21677 -0.09295
 C2020 C 0.69475 0.20754 -0.10231
 C2021 C 0.70876 0.22958 -0.05658
 C2022 C 0.72547 0.22793 -0.05062
 C2023 C 0.73773 0.21902 -0.06007
 C2024 C 0.73306 0.21173 -0.07525
 C2025 C 0.75449 0.21757 -0.05417
 C2026 C 0.75910 0.22495 -0.03910
 C2027 C 0.74702 0.23383 -0.02968
 C2028 C 0.73018 0.23515 -0.03540
 H2029 H 0.72096 0.19907 -0.10345
 H2030 H 0.67795 0.23099 -0.07085
 H2031 H 0.66980 0.21813 -0.09710
 H2032 H 0.69937 0.23648 -0.04939
 H2033 H 0.74245 0.20484 -0.08245
 H2034 H 0.76405 0.21080 -0.06124
 H2035 H 0.77212 0.22380 -0.03479
 H2036 H 0.72088 0.24208 -0.02814
 C2037 C 0.21025 0.69652 -0.09608
 C2038 C 0.21433 0.70410 -0.08084
 C2039 C 0.20161 0.71303 -0.07199
 C2040 C 0.18506 0.71408 -0.07834
 C2041 C 0.18123 0.70685 -0.09361
 C2042 C 0.19379 0.69823 -0.10271
 C2043 C 0.20566 0.72112 -0.05712
 C2044 C 0.22236 0.72069 -0.05106
 C2045 C 0.23512 0.71169 -0.05976
 C2046 C 0.23100 0.70334 -0.07455
 C2047 C 0.25183 0.71141 -0.05359
 C2048 C 0.25587 0.72012 -0.03908
 C2049 C 0.24329 0.72932 -0.03059
 C2050 C 0.22652 0.72938 -0.03656
 H2051 H 0.22001 0.68995 -0.10310
 H2052 H 0.17516 0.72080 -0.07167
 H2053 H 0.16839 0.70811 -0.09836
 H2054 H 0.19589 0.72803 -0.05043
 H2055 H 0.24080 0.69654 -0.08129
 H2056 H 0.26178 0.70455 -0.06002
 H2057 H 0.26883 0.71973 -0.03450
 H2058 H 0.21678 0.73649 -0.03006
 C2059 C 0.20613 0.21070 0.40112
 C2060 C 0.21452 0.21631 0.41552
 C2061 C 0.23169 0.21165 0.41832
 C2062 C 0.24035 0.20202 0.40650
 C2063 C 0.23198 0.19653 0.39228
 C2064 C 0.21470 0.20044 0.38957
 C2065 C 0.23991 0.21649 0.43297
 C2066 C 0.23127 0.22608 0.44487
 C2067 C 0.21430 0.23125 0.44193
 C2068 C 0.20598 0.22627 0.42729
 C2069 C 0.20591 0.24119 0.45377
 C2070 C 0.21425 0.24591 0.46838
 C2071 C 0.23106 0.24064 0.47149
 C2072 C 0.23937 0.23051 0.45973
 H2073 H 0.19286 0.21393 0.39921
 H2074 H 0.25359 0.19856 0.40833
 H2075 H 0.23914 0.18908 0.38347
 H2076 H 0.25301 0.21271 0.43515
 H2077 H 0.19288 0.23002 0.42514
 H2078 H 0.19293 0.24535 0.45172
 H2079 H 0.20761 0.25375 0.47726
 H2080 H 0.25218 0.22604 0.46218
 C2081 C 0.30180 0.40413 0.71421
 C2082 C 0.29494 0.41924 0.71989
 C2083 C 0.28730 0.43028 0.70842
 C2084 C 0.28662 0.42604 0.69151
 C2085 C 0.29327 0.41093 0.68601
 C2086 C 0.30086 0.39981 0.69727
 C2087 C 0.28040 0.44535 0.71400
 C2088 C 0.28096 0.44953 0.73093
 C2089 C 0.28850 0.43848 0.74246
 C2090 C 0.29547 0.42341 0.73686
 C2091 C 0.28902 0.44276 0.75939
 C2092 C 0.28225 0.45789 0.76483
 C2093 C 0.27472 0.46889 0.75345
 C2094 C 0.27413 0.46464 0.73651
 H2095 H 0.30747 0.39559 0.72303
 H2096 H 0.28085 0.43438 0.68255
 H2097 H 0.29255 0.40800 0.67287
 H2098 H 0.27458 0.45381 0.70516
 H2099 H 0.30127 0.41495 0.74570
 H2100 H 0.29479 0.43448 0.76840
 H2101 H 0.28308 0.46111 0.77790
 H2102 H 0.26837 0.47315 0.72770
 C2103 C 0.30308 0.90451 0.20112
 C2104 C 0.29470 0.91962 0.20453
 C2105 C 0.28936 0.92985 0.19120
 C2106 C 0.29266 0.92497 0.17476
 C2107 C 0.30069 0.90987 0.17148
 C2108 C 0.30578 0.89939 0.18456
 C2109 C 0.28048 0.94463 0.19445
 C2110 C 0.27660 0.94925 0.21087
 C2111 C 0.28204 0.93913 0.22425
 C2112 C 0.29117 0.92444 0.22100
 C2113 C 0.27805 0.94379 0.24065
 C2114 C 0.26850 0.95813 0.24374
 C2115 C 0.26273 0.96806 0.23050
 C2116 C 0.26707 0.96368 0.21409
 H2117 H 0.30686 0.89648 0.21129
 H2118 H 0.28873 0.93270 0.16441
 H2119 H 0.30284 0.90634 0.15863
 H2120 H 0.27631 0.95238 0.18419
 H2121 H 0.29522 0.91664 0.23126
 H2122 H 0.28218 0.93626 0.25107
 H2123 H 0.26552 0.96148 0.25650
 H2124 H 0.26266 0.97131 0.20385
 C2125 C 0.79320 0.40790 0.19362
 C2126 C 0.78883 0.42305 0.20128
 C2127 C 0.80187 0.43381 0.20676
 C2128 C 0.81898 0.42937 0.20433
 C2129 C 0.82319 0.41415 0.19715
 C2130 C 0.81039 0.40321 0.19195
 C2131 C 0.79764 0.44861 0.21500
 C2132 C 0.78054 0.45270 0.21814
 C2133 C 0.76748 0.44202 0.21259
 C2134 C 0.77169 0.42735 0.20408
 C2135 C 0.75039 0.44612 0.21584
 C2136 C 0.74629 0.46052 0.22465
 C2137 C 0.75917 0.47108 0.23047
 C2138 C 0.77630 0.46719 0.22698
 H2139 H 0.78328 0.39942 0.18980
 H2140 H 0.82913 0.43747 0.20841
 H2141 H 0.83652 0.41079 0.19587
 H2142 H 0.80767 0.45675 0.21928
 H2143 H 0.76166 0.41911 0.19996
 H2144 H 0.74020 0.43815 0.21163
 H2145 H 0.73299 0.46347 0.22693
 H2146 H 0.78629 0.47528 0.23142
 C2147 C 0.79557 0.90686 0.70486
 C2148 C 0.78824 0.92215 0.70934
 C2149 C 0.78201 0.93287 0.69680
 C2150 C 0.78295 0.92800 0.68006
 C2151 C 0.79004 0.91268 0.67574
 C2152 C 0.79651 0.90203 0.68805
 C2153 C 0.77490 0.94824 0.70118
 C2154 C 0.77368 0.95294 0.71796
 C2155 C 0.77959 0.94209 0.73055
 C2156 C 0.78696 0.92682 0.72614
 C2157 C 0.77792 0.94667 0.74734
 C2158 C 0.77037 0.96181 0.75163
 C2159 C 0.76461 0.97264 0.73918
 C2160 C 0.76643 0.96824 0.72237
 H2161 H 0.80032 0.89865 0.71448
 H2162 H 0.77820 0.93605 0.67029
 H2163 H 0.79072 0.90932 0.66269
 H2164 H 0.77022 0.95649 0.69154
 H2165 H 0.79159 0.91854 0.73578
 H2166 H 0.78231 0.93849 0.75715
 H2167 H 0.76898 0.96510 0.76465
 H2168 H 0.76181 0.97660 0.71280
 C2169 C 0.70410 0.60093 0.70567
 C2170 C 0.71329 0.58706 0.71144
 C2171 C 0.73127 0.58671 0.70993
 C2172 C 0.73974 0.60017 0.70269
 C2173 C 0.73052 0.61377 0.69678
 C2174 C 0.71264 0.61430 0.69814
 C2175 C 0.74051 0.57286 0.71550
 C2176 C 0.73200 0.55920 0.72233
 C2177 C 0.71401 0.55947 0.72379
 C2178 C 0.70478 0.57344 0.71844
 C2179 C 0.70556 0.54566 0.73044
 C2180 C 0.71483 0.53170 0.73553
 C2181 C 0.73269 0.53139 0.73422
 C2182 C 0.74120 0.54519 0.72757
 H2183 H 0.69032 0.60110 0.70665
 H2184 H 0.75351 0.60011 0.70145
 H2185 H 0.73745 0.62395 0.69121
 H2186 H 0.75430 0.57264 0.71433
 H2187 H 0.69099 0.57362 0.71953
 H2188 H 0.69179 0.54562 0.73165
 H2189 H 0.70807 0.52117 0.74063
 H2190 H 0.75497 0.54490 0.72634
 C2191 C 0.70062 0.09617 0.20691
 C2192 C 0.70843 0.08284 0.21501
 C2193 C 0.72627 0.08058 0.21381
 C2194 C 0.73592 0.09169 0.20416
 C2195 C 0.72797 0.10507 0.19610
 C2196 C 0.71029 0.10756 0.19766
 C2197 C 0.73407 0.06734 0.22233
 C2198 C 0.72415 0.05634 0.23188
 C2199 C 0.70625 0.05861 0.23278
 C2200 C 0.69855 0.07183 0.22440
 C2201 C 0.69624 0.04757 0.24202
 C2202 C 0.70383 0.03428 0.25024
 C2203 C 0.72154 0.03193 0.24958
 C2204 C 0.73172 0.04301 0.24044
 H2205 H 0.68692 0.09765 0.20788
 H2206 H 0.74961 0.09015 0.20301
 H2207 H 0.73569 0.11367 0.18901
 H2208 H 0.74777 0.06560 0.22152
 H2209 H 0.68484 0.07357 0.22521
 H2210 H 0.68253 0.04915 0.24278
 H2211 H 0.69587 0.02578 0.25722
 H2212 H 0.74541 0.04106 0.23981
 C2213 C 0.20742 0.59803 0.21413
 C2214 C 0.21626 0.58432 0.22058
 C2215 C 0.23350 0.58160 0.21601
 C2216 C 0.24170 0.59278 0.20539
 C2217 C 0.23282 0.60634 0.19900
 C2218 C 0.21555 0.60899 0.20308
 C2219 C 0.24219 0.56760 0.22187
 C2220 C 0.23383 0.55618 0.23214
 C2221 C 0.21670 0.55902 0.23701
 C2222 C 0.20803 0.57312 0.23125
 C2223 C 0.20842 0.54752 0.24730
 C2224 C 0.21696 0.53320 0.25245
 C2225 C 0.23389 0.53024 0.24747
 C2226 C 0.24227 0.54178 0.23733
 H2227 H 0.19413 0.59984 0.21739
 H2228 H 0.25494 0.59094 0.20187
 H2229 H 0.23958 0.61467 0.19078
 H2230 H 0.25535 0.56544 0.21820
 H2231 H 0.19483 0.57521 0.23481
 H2232 H 0.19532 0.54950 0.25118
 H2233 H 0.21034 0.52436 0.26027
 H2234 H 0.25523 0.53936 0.23322
 C2235 C 0.20125 0.09516 0.71372
 C2236 C 0.21047 0.08173 0.72031
 C2237 C 0.22830 0.08069 0.71767
 C2238 C 0.23664 0.09316 0.70876
 C2239 C 0.22740 0.10639 0.70218
 C2240 C 0.20962 0.10745 0.70439
 C2241 C 0.23750 0.06707 0.72370
 C2242 C 0.22910 0.05433 0.73219
 C2243 C 0.21132 0.05540 0.73508
 C2244 C 0.20212 0.06915 0.72920
 C2245 C 0.20301 0.04251 0.74352
 C2246 C 0.21218 0.02855 0.74870
 C2247 C 0.22980 0.02734 0.74564
 C2248 C 0.23819 0.04034 0.73748
 H2249 H 0.18755 0.09578 0.71548
 H2250 H 0.25031 0.09260 0.70672
 H2251 H 0.23429 0.11579 0.69535
 H2252 H 0.25115 0.06624 0.72152
 H2253 H 0.18845 0.06991 0.73127
 H2254 H 0.18941 0.04311 0.74589
 H2255 H 0.20553 0.01863 0.75503
 H2256 H 0.25174 0.03932 0.73486
 C2257 C 0.29537 0.59891 0.29393
 C2258 C 0.28642 0.58476 0.28893
 C2259 C 0.26960 0.58216 0.29477
 C2260 C 0.26201 0.59381 0.30545
 C2261 C 0.27105 0.60780 0.31047
 C2262 C 0.28783 0.61048 0.30485
 C2263 C 0.26072 0.56790 0.28999
 C2264 C 0.26851 0.55610 0.27958
 C2265 C 0.28532 0.55873 0.27370
 C2266 C 0.29414 0.57306 0.27835
 C2267 C 0.29313 0.54687 0.26339
 C2268 C 0.28441 0.53250 0.25901
 C2269 C 0.26772 0.52978 0.26476
 C2270 C 0.25982 0.54163 0.27508
 H2271 H 0.30834 0.60067 0.28960
 H2272 H 0.24912 0.59205 0.31002
 H2273 H 0.26481 0.61655 0.31873
 H2274 H 0.24782 0.56590 0.29450
 H2275 H 0.30705 0.57503 0.27388
 H2276 H 0.30599 0.54868 0.25876
 H2277 H 0.29064 0.52350 0.25099
 H2278 H 0.24700 0.53947 0.27969
 C2279 C 0.29425 0.09380 0.79793
 C2280 C 0.28976 0.07914 0.78969
 C2281 C 0.30144 0.07153 0.77858
 C2282 C 0.31741 0.07879 0.77586
 C2283 C 0.32181 0.09339 0.78414
 C2284 C 0.31032 0.10104 0.79530
 C2285 C 0.29696 0.05681 0.77040
 C2286 C 0.28094 0.04962 0.77322
 C2287 C 0.26927 0.05732 0.78432
 C2288 C 0.27375 0.07200 0.79247
 C2289 C 0.25326 0.05021 0.78713
 C2290 C 0.24878 0.03564 0.77897
 C2291 C 0.26016 0.02795 0.76780
 C2292 C 0.27633 0.03489 0.76508
 H2293 H 0.28513 0.09954 0.80631
 H2294 H 0.32654 0.07315 0.76739
 H2295 H 0.33430 0.09855 0.78187
 H2296 H 0.30593 0.05096 0.76188
 H2297 H 0.26478 0.07786 0.80098
 H2298 H 0.24420 0.05593 0.79563
 H2299 H 0.23634 0.03033 0.78136
 H2300 H 0.28513 0.02897 0.75646
 C2301 C 0.79152 0.59806 0.79457
 C2302 C 0.78753 0.58357 0.78575
 C2303 C 0.80017 0.57579 0.77578
 C2304 C 0.81648 0.58272 0.77465
 C2305 C 0.82025 0.59725 0.78327
 C2306 C 0.80786 0.60503 0.79332
 C2307 C 0.79632 0.56126 0.76706
 C2308 C 0.77994 0.55447 0.76804
 C2309 C 0.76720 0.56235 0.77780
 C2310 C 0.77110 0.57681 0.78666
 C2311 C 0.75077 0.55559 0.77856
 C2312 C 0.74705 0.54110 0.76983
 C2313 C 0.75967 0.53318 0.76021
 C2314 C 0.77610 0.53988 0.75939
 H2315 H 0.78181 0.60406 0.80214
 H2316 H 0.82631 0.57692 0.76707
 H2317 H 0.83298 0.60226 0.78222
 H2318 H 0.80607 0.55525 0.75950
 H2319 H 0.76137 0.58281 0.79422
 H2320 H 0.74085 0.56146 0.78596
 H2321 H 0.73435 0.53595 0.77068
 H2322 H 0.78584 0.53377 0.75192
 C2323 C 0.78526 0.09907 0.30660
 C2324 C 0.77954 0.08400 0.29986
 C2325 C 0.79157 0.07222 0.29397
 C2326 C 0.80901 0.07568 0.29481
 C2327 C 0.81455 0.09075 0.30122
 C2328 C 0.80280 0.10259 0.30713
 C2329 C 0.78603 0.05718 0.28724
 C2330 C 0.76858 0.05376 0.28613
 C2331 C 0.75647 0.06555 0.29180
 C2332 C 0.76203 0.08058 0.29870
 C2333 C 0.73902 0.06202 0.29053
 C2334 C 0.73364 0.04693 0.28384
 C2335 C 0.74563 0.03516 0.27826
 C2336 C 0.76308 0.03867 0.27944
 H2337 H 0.77611 0.10821 0.31100
 H2338 H 0.81838 0.06678 0.29038
 H2339 H 0.82813 0.09308 0.30167
 H2340 H 0.79530 0.04815 0.28281
 H2341 H 0.75275 0.08961 0.30310
 H2342 H 0.72954 0.07088 0.29481
 H2343 H 0.72013 0.04432 0.28324
 H2344 H 0.77236 0.02960 0.27513
 C2345 C 0.70515 0.40606 0.29723
 C2346 C 0.70927 0.42111 0.28941
 C2347 C 0.69607 0.43174 0.28381
 C2348 C 0.67902 0.42716 0.28612
 C2349 C 0.67505 0.41203 0.29356
 C2350 C 0.68804 0.40132 0.29907
 C2351 C 0.70009 0.44665 0.27578
 C2352 C 0.71715 0.45098 0.27301
 C2353 C 0.73036 0.44033 0.27851
 C2354 C 0.72634 0.42553 0.28678
 C2355 C 0.74741 0.44464 0.27558
 C2356 C 0.75133 0.45935 0.26730
 C2357 C 0.73830 0.46999 0.26177
 C2358 C 0.72121 0.46578 0.26474
 H2359 H 0.71523 0.39779 0.30130
 H2360 H 0.66875 0.43515 0.28195
 H2361 H 0.66177 0.40872 0.29501
 H2362 H 0.68995 0.45477 0.27151
 H2363 H 0.73649 0.41738 0.29100
 H2364 H 0.75770 0.43665 0.27972
 H2365 H 0.76459 0.46253 0.26535
 H2366 H 0.71113 0.47395 0.26046
 C2367 C 0.69543 0.90973 0.79012
 C2368 C 0.70236 0.92513 0.78541
 C2369 C 0.70599 0.93709 0.79779
 C2370 C 0.70246 0.93364 0.81453
 C2371 C 0.69598 0.91825 0.81911
 C2372 C 0.69264 0.90609 0.80705
 C2373 C 0.71350 0.95218 0.79334
 C2374 C 0.71774 0.95544 0.77670
 C2375 C 0.71401 0.94361 0.76424
 C2376 C 0.70621 0.92857 0.76866
 C2377 C 0.71838 0.94697 0.74760
 C2378 C 0.72661 0.96174 0.74342
 C2379 C 0.73068 0.97337 0.75580
 C2380 C 0.72596 0.97024 0.77238
 H2381 H 0.69300 0.90036 0.78077
 H2382 H 0.70509 0.94269 0.82414
 H2383 H 0.69373 0.91578 0.83220
 H2384 H 0.71638 0.96125 0.80288
 H2385 H 0.70349 0.91944 0.75913
 H2386 H 0.71555 0.93812 0.73786
 H2387 H 0.72987 0.96410 0.73052
 H2388 H 0.72908 0.97919 0.78196
 C2389 C 0.21289 0.40424 0.80505
 C2390 C 0.21982 0.41806 0.79675
 C2391 C 0.21753 0.41984 0.77936
 C2392 C 0.20821 0.40792 0.77062
 C2393 C 0.20099 0.39450 0.77902
 C2394 C 0.20322 0.39252 0.79627
 C2395 C 0.22436 0.43359 0.77100
 C2396 C 0.23315 0.44584 0.77983
 C2397 C 0.23520 0.44426 0.79726
 C2398 C 0.22867 0.43031 0.80558
 C2399 C 0.24364 0.45673 0.80611
 C2400 C 0.25006 0.47060 0.79779
 C2401 C 0.24833 0.47217 0.78045
 C2402 C 0.23979 0.45976 0.77153
 H2403 H 0.21448 0.40291 0.81839
 H2404 H 0.20628 0.40911 0.75731
 H2405 H 0.19364 0.38562 0.77198
 H2406 H 0.22265 0.43486 0.75765
 H2407 H 0.23029 0.42911 0.81895
 H2408 H 0.24526 0.45579 0.81948
 H2409 H 0.25661 0.48004 0.80485
 H2410 H 0.23828 0.46102 0.75817
 C2411 C 0.19903 0.90172 0.28644
 C2412 C 0.20568 0.91704 0.28117
 C2413 C 0.21036 0.92903 0.29317
 C2414 C 0.20850 0.92547 0.31016
 C2415 C 0.20241 0.91007 0.31527
 C2416 C 0.19766 0.89809 0.30351
 C2417 C 0.21710 0.94427 0.28805
 C2418 C 0.21966 0.94759 0.27108
 C2419 C 0.21526 0.93554 0.25906
 C2420 C 0.20812 0.92042 0.26417
 C2421 C 0.21821 0.93879 0.24212
 C2422 C 0.22540 0.95383 0.23715
 C2423 C 0.22970 0.96588 0.24900
 C2424 C 0.22670 0.96273 0.26596
 H2425 H 0.19557 0.89242 0.27733
 H2426 H 0.21205 0.93449 0.31951
 H2427 H 0.20138 0.90751 0.32848
 H2428 H 0.22060 0.95345 0.29728
 H2429 H 0.20471 0.91121 0.25494
 H2430 H 0.21496 0.92972 0.23272
 H2431 H 0.22750 0.95614 0.22400
 H2432 H 0.23007 0.97200 0.27514
 C2433 C 0.39949 0.28741 0.70025
 C2434 C 0.41511 0.28240 0.70729
 C2435 C 0.42565 0.29429 0.71504
 C2436 C 0.42041 0.31088 0.71571
 C2437 C 0.40480 0.31569 0.70894
 C2438 C 0.39416 0.30407 0.70119
 C2439 C 0.44120 0.28942 0.72212
 C2440 C 0.44634 0.27277 0.72176
 C2441 C 0.43578 0.26081 0.71416
 C2442 C 0.42028 0.26571 0.70690
 C2443 C 0.44094 0.24413 0.71400
 C2444 C 0.45638 0.23937 0.72128
 C2445 C 0.46691 0.25118 0.72885
 C2446 C 0.46185 0.26789 0.72895
 H2447 H 0.39133 0.27832 0.69442
 H2448 H 0.42834 0.32015 0.72158
 H2449 H 0.40114 0.32862 0.70967
 H2450 H 0.44926 0.29859 0.72801
 H2451 H 0.41221 0.25654 0.70105
 H2452 H 0.43305 0.23478 0.70823
 H2453 H 0.46020 0.22646 0.72091
 H2454 H 0.46997 0.27703 0.73479
 C2455 C 0.40088 0.79996 0.21762
 C2456 C 0.41464 0.79052 0.22378
 C2457 C 0.41380 0.77300 0.22345
 C2458 C 0.39908 0.76522 0.21765
 C2459 C 0.38568 0.77462 0.21130
 C2460 C 0.38661 0.79200 0.21080
 C2461 C 0.42787 0.76346 0.22835
 C2462 C 0.44292 0.77116 0.23342
 C2463 C 0.44370 0.78863 0.23433
 C2464 C 0.42952 0.79823 0.22957
 C2465 C 0.45882 0.79618 0.23962
 C2466 C 0.47307 0.78652 0.24369
 C2467 C 0.47248 0.76915 0.24249
 C2468 C 0.45734 0.76159 0.23725
 H2469 H 0.40171 0.81336 0.21719
 H2470 H 0.39817 0.75182 0.21747
 H2471 H 0.37470 0.76824 0.20634
 H2472 H 0.42725 0.75005 0.22780
 H2473 H 0.43022 0.81164 0.22993
 H2474 H 0.45967 0.80955 0.24048
 H2475 H 0.48462 0.79260 0.24772
 H2476 H 0.45688 0.74824 0.23586
 C2477 C 0.90802 0.29418 0.20461
 C2478 C 0.92331 0.28979 0.21256
 C2479 C 0.93319 0.30218 0.22034
 C2480 C 0.92748 0.31865 0.22031
 C2481 C 0.91207 0.32283 0.21274
 C2482 C 0.90227 0.31068 0.20478
 C2483 C 0.94854 0.29790 0.22817
 C2484 C 0.95395 0.28133 0.22866
 C2485 C 0.94389 0.26887 0.22121
 C2486 C 0.92873 0.27321 0.21304
 C2487 C 0.94914 0.25226 0.22215
 C2488 C 0.96417 0.24803 0.23043
 C2489 C 0.97426 0.26036 0.23768
 C2490 C 0.96919 0.27700 0.23667
 H2491 H 0.90040 0.28472 0.19865
 H2492 H 0.93487 0.32829 0.22625
 H2493 H 0.90792 0.33565 0.21290
 H2494 H 0.95616 0.30743 0.23403
 H2495 H 0.92108 0.26367 0.20724
 H2496 H 0.94157 0.24254 0.21657
 H2497 H 0.96801 0.23514 0.23112
 H2498 H 0.97698 0.28648 0.24239
 C2499 C 0.90109 0.79536 0.70412
 C2500 C 0.91569 0.78949 0.71223
 C2501 C 0.92488 0.80012 0.72288
 C2502 C 0.91901 0.81638 0.72548
 C2503 C 0.90435 0.82212 0.71738
 C2504 C 0.89542 0.81172 0.70647
 C2505 C 0.93980 0.79435 0.73060
 C2506 C 0.94558 0.77808 0.72779
 C2507 C 0.93611 0.76741 0.71737
 C2508 C 0.92126 0.77318 0.70967
 C2509 C 0.94175 0.75114 0.71464
 C2510 C 0.95674 0.74550 0.72200
 C2511 C 0.96631 0.75600 0.73223
 C2512 C 0.96073 0.77230 0.73510
 H2513 H 0.89414 0.78711 0.69598
 H2514 H 0.92585 0.82471 0.73363
 H2515 H 0.90025 0.83480 0.71936
 H2516 H 0.94697 0.80253 0.73865
 H2517 H 0.91413 0.76502 0.70155
 H2518 H 0.93465 0.74282 0.70669
 H2519 H 0.96104 0.73295 0.71954
 H2520 H 0.96816 0.78039 0.74300
 C2521 C 0.59196 0.29047 0.30362
 C2522 C 0.57664 0.28489 0.29663
 C2523 C 0.56457 0.29651 0.29063
 C2524 C 0.56806 0.31349 0.29166
 C2525 C 0.58350 0.31891 0.29825
 C2526 C 0.59558 0.30748 0.30423
 C2527 C 0.54934 0.29099 0.28346
 C2528 C 0.54617 0.27398 0.28190
 C2529 C 0.55833 0.26236 0.28775
 C2530 C 0.57340 0.26789 0.29521
 C2531 C 0.55526 0.24537 0.28592
 C2532 C 0.54034 0.23993 0.27830
 C2533 C 0.52822 0.25137 0.27245
 C2534 C 0.53111 0.26839 0.27441
 H2535 H 0.60132 0.28158 0.30801
 H2536 H 0.55897 0.32256 0.28713
 H2537 H 0.58599 0.33208 0.29871
 H2538 H 0.54009 0.29991 0.27889
 H2539 H 0.58269 0.25896 0.29970
 H2540 H 0.56442 0.23629 0.29032
 H2541 H 0.53817 0.22674 0.27705
 H2542 H 0.52176 0.27723 0.26987
 C2543 C 0.59949 0.80378 0.79162
 C2544 C 0.58402 0.79628 0.78709
 C2545 C 0.57251 0.79100 0.79962
 C2546 C 0.57669 0.79314 0.81642
 C2547 C 0.59222 0.80023 0.82081
 C2548 C 0.60375 0.80558 0.80850
 C2549 C 0.55710 0.78347 0.79521
 C2550 C 0.55313 0.78086 0.77841
 C2551 C 0.56472 0.78590 0.76585
 C2552 C 0.58002 0.79371 0.77026
 C2553 C 0.56084 0.78299 0.74907
 C2554 C 0.54564 0.77515 0.74478
 C2555 C 0.53405 0.77014 0.75716
 C2556 C 0.53780 0.77313 0.77397
 H2557 H 0.60841 0.80772 0.78207
 H2558 H 0.56804 0.78917 0.82618
 H2559 H 0.59518 0.80162 0.83390
 H2560 H 0.54828 0.77949 0.80485
 H2561 H 0.58887 0.79762 0.76062
 H2562 H 0.56956 0.78675 0.73928
 H2563 H 0.54283 0.77306 0.73174
 H2564 H 0.52887 0.76924 0.78354
 C2565 C 0.09377 0.29384 0.79635
 C2566 C 0.07839 0.28868 0.78917
 C2567 C 0.06696 0.30058 0.78260
 C2568 C 0.07125 0.31741 0.78313
 C2569 C 0.08666 0.32243 0.79018
 C2570 C 0.09801 0.31073 0.79696
 C2571 C 0.05147 0.29546 0.77561
 C2572 C 0.04733 0.27857 0.77495
 C2573 C 0.05891 0.26667 0.78133
 C2574 C 0.07430 0.27180 0.78845
 C2575 C 0.05490 0.24980 0.78048
 C2576 C 0.03961 0.24472 0.77334
 C2577 C 0.02802 0.25640 0.76697
 C2578 C 0.03186 0.27335 0.76793
 H2579 H 0.10250 0.28464 0.80130
 H2580 H 0.06267 0.32671 0.77813
 H2581 H 0.08953 0.33552 0.79054
 H2582 H 0.04267 0.30461 0.77065
 H2583 H 0.08311 0.26266 0.79341
 H2584 H 0.06360 0.24052 0.78532
 H2585 H 0.03675 0.23161 0.77283
 H2586 H 0.02293 0.28238 0.76301
 C2587 C 0.10098 0.79859 0.29047
 C2588 C 0.08597 0.79053 0.28542
 C2589 C 0.07643 0.78130 0.29717
 C2590 C 0.08203 0.78021 0.31366
 C2591 C 0.09703 0.78805 0.31851
 C2592 C 0.10668 0.79728 0.30701
 C2593 C 0.06146 0.77323 0.29226
 C2594 C 0.05592 0.77414 0.27571
 C2595 C 0.06549 0.78323 0.26389
 C2596 C 0.08043 0.79141 0.26883
 C2597 C 0.05990 0.78405 0.24733
 C2598 C 0.04492 0.77605 0.24257
 C2599 C 0.03531 0.76703 0.25423
 C2600 C 0.04089 0.76614 0.27081
 H2601 H 0.10837 0.80556 0.28146
 H2602 H 0.07486 0.77323 0.32283
 H2603 H 0.10096 0.78699 0.33137
 H2604 H 0.05415 0.76622 0.30133
 H2605 H 0.08773 0.79842 0.25976
 H2606 H 0.06703 0.79098 0.23810
 H2607 H 0.04066 0.77713 0.22979
 H2608 H 0.03350 0.75920 0.27986
 C2609 C 0.59624 0.69753 0.70516
 C2610 C 0.58104 0.70582 0.70966
 C2611 C 0.56869 0.70933 0.69734
 C2612 C 0.57143 0.70414 0.68092
 C2613 C 0.58652 0.69605 0.67655
 C2614 C 0.59923 0.69294 0.68847
 C2615 C 0.55385 0.71816 0.70149
 C2616 C 0.55108 0.72355 0.71786
 C2617 C 0.56314 0.71978 0.73035
 C2618 C 0.57809 0.71096 0.72617
 C2619 C 0.56003 0.72494 0.74678
 C2620 C 0.54518 0.73381 0.75074
 C2621 C 0.53335 0.73802 0.73829
 C2622 C 0.53639 0.73272 0.72187
 H2623 H 0.60592 0.69520 0.71447
 H2624 H 0.56200 0.70655 0.67138
 H2625 H 0.58825 0.69234 0.66369
 H2626 H 0.54451 0.72095 0.69194
 H2627 H 0.58745 0.70823 0.73571
 H2628 H 0.56903 0.72205 0.75657
 H2629 H 0.54290 0.73736 0.76357
 H2630 H 0.52737 0.73590 0.71216
 C2631 C 0.59474 0.20127 0.20329
 C2632 C 0.57965 0.20472 0.21218
 C2633 C 0.57036 0.19158 0.21950
 C2634 C 0.57637 0.17529 0.21796
 C2635 C 0.59156 0.17202 0.20946
 C2636 C 0.60087 0.18493 0.20209
 C2637 C 0.55532 0.19492 0.22839
 C2638 C 0.54956 0.21126 0.23035
 C2639 C 0.55895 0.22446 0.22328
 C2640 C 0.57387 0.22109 0.21412
 C2641 C 0.55327 0.24081 0.22553
 C2642 C 0.53839 0.24403 0.23464
 C2643 C 0.52895 0.23097 0.24157
 C2644 C 0.53457 0.21461 0.23934
 H2645 H 0.60197 0.21130 0.19778
 H2646 H 0.56942 0.16509 0.22351
 H2647 H 0.59599 0.15932 0.20857
 H2648 H 0.54819 0.18482 0.23393
 H2649 H 0.58103 0.23120 0.20864
 H2650 H 0.56030 0.25108 0.22024
 H2651 H 0.53411 0.25673 0.23614
 H2652 H 0.52731 0.20453 0.24475
 C2653 C 0.10196 0.70754 0.19932
 C2654 C 0.08814 0.71430 0.20821
 C2655 C 0.08641 0.71103 0.22545
 C2656 C 0.09847 0.70097 0.23346
 C2657 C 0.11203 0.69407 0.22445
 C2658 C 0.11390 0.69729 0.20733
 C2659 C 0.07256 0.71766 0.23436
 C2660 C 0.06019 0.72720 0.22616
 C2661 C 0.06182 0.73034 0.20888
 C2662 C 0.07589 0.72402 0.20006
 C2663 C 0.04919 0.73953 0.20064
 C2664 C 0.03495 0.74536 0.20940
 C2665 C 0.03331 0.74236 0.22654
 C2666 C 0.04600 0.73338 0.23491
 H2667 H 0.10317 0.70995 0.18608
 H2668 H 0.09735 0.69833 0.24665
 H2669 H 0.12115 0.68634 0.23094
 H2670 H 0.07124 0.71517 0.24758
 H2671 H 0.07714 0.72644 0.18681
 H2672 H 0.05021 0.74201 0.18741
 H2673 H 0.02520 0.75227 0.20283
 H2674 H 0.04460 0.73092 0.24813
 C2675 C 0.09373 0.20296 0.70029
 C2676 C 0.07824 0.20688 0.70836
 C2677 C 0.06795 0.19402 0.71484
 C2678 C 0.07321 0.17751 0.71304
 C2679 C 0.08871 0.17375 0.70530
 C2680 C 0.09920 0.18639 0.69900
 C2681 C 0.05271 0.19783 0.72325
 C2682 C 0.04767 0.21436 0.72551
 C2683 C 0.05789 0.22726 0.71902
 C2684 C 0.07306 0.22344 0.71040
 C2685 C 0.05283 0.24378 0.72137
 C2686 C 0.03787 0.24749 0.73017
 C2687 C 0.02774 0.23478 0.73686
 C2688 C 0.03264 0.21821 0.73432
 H2689 H 0.10178 0.21280 0.69558
 H2690 H 0.06546 0.16750 0.71787
 H2691 H 0.09252 0.16088 0.70428
 H2692 H 0.04488 0.18793 0.72823
 H2693 H 0.08092 0.23334 0.70550
 H2694 H 0.06044 0.25383 0.71644
 H2695 H 0.03415 0.26034 0.73173
 H2696 H 0.02489 0.20834 0.73946
 C2697 C 0.40412 0.70626 0.29643
 C2698 C 0.41917 0.71081 0.28812
 C2699 C 0.42705 0.69956 0.27694
 C2700 C 0.41967 0.68403 0.27419
 C2701 C 0.40464 0.67964 0.28245
 C2702 C 0.39673 0.69066 0.29368
 C2703 C 0.44215 0.70401 0.26869
 C2704 C 0.44943 0.71962 0.27139
 C2705 C 0.44148 0.73093 0.28246
 C2706 C 0.42643 0.72644 0.29079
 C2707 C 0.44873 0.74658 0.28501
 C2708 C 0.46367 0.75101 0.27661
 C2709 C 0.47158 0.73987 0.26555
 C2710 C 0.46449 0.72413 0.26310
 H2711 H 0.39808 0.71499 0.30488
 H2712 H 0.42554 0.67525 0.26567
 H2713 H 0.39935 0.66749 0.28017
 H2714 H 0.44821 0.69536 0.26014
 H2715 H 0.42036 0.73510 0.29931
 H2716 H 0.44282 0.75540 0.29345
 H2717 H 0.46908 0.76315 0.27871
 H2718 H 0.47057 0.71555 0.25450
 C2719 C 0.40082 0.19992 0.79177
 C2720 C 0.41442 0.20864 0.78468
 C2721 C 0.41516 0.22606 0.78630
 C2722 C 0.40222 0.23440 0.79512
 C2723 C 0.38872 0.22556 0.80228
 C2724 C 0.38787 0.20825 0.80062
 C2725 C 0.42888 0.23476 0.77923
 C2726 C 0.44195 0.22618 0.77078
 C2727 C 0.44115 0.20872 0.76928
 C2728 C 0.42736 0.20011 0.77613
 C2729 C 0.45428 0.20008 0.76113
 C2730 C 0.46823 0.20860 0.75465
 C2731 C 0.46916 0.22588 0.75602
 C2732 C 0.45596 0.23468 0.76401
 H2733 H 0.40057 0.18656 0.79060
 H2734 H 0.40256 0.24775 0.79652
 H2735 H 0.37888 0.23230 0.80897
 H2736 H 0.42949 0.24812 0.78046
 H2737 H 0.42679 0.18673 0.77497
 H2738 H 0.45386 0.18672 0.75991
 H2739 H 0.47835 0.20170 0.74852
 H2740 H 0.45679 0.24804 0.76518
 C2741 C 0.89796 0.70366 0.79130
 C2742 C 0.91214 0.71192 0.78479
 C2743 C 0.91508 0.72863 0.78910
 C2744 C 0.90373 0.73673 0.80000
 C2745 C 0.88962 0.72832 0.80654
 C2746 C 0.88657 0.71174 0.80217
 C2747 C 0.92937 0.73685 0.78257
 C2748 C 0.94083 0.72843 0.77201
 C2749 C 0.93785 0.71165 0.76784
 C2750 C 0.92348 0.70357 0.77415
 C2751 C 0.94943 0.70312 0.75758
 C2752 C 0.96399 0.71103 0.75166
 C2753 C 0.96706 0.72765 0.75570
 C2754 C 0.95540 0.73638 0.76576
 H2755 H 0.89605 0.69079 0.78805
 H2756 H 0.90578 0.74954 0.80349
 H2757 H 0.88101 0.73486 0.81487
 H2758 H 0.93167 0.74969 0.78585
 H2759 H 0.92122 0.69071 0.77093
 H2760 H 0.94731 0.69027 0.75429
 H2761 H 0.97289 0.70422 0.74386
 H2762 H 0.95788 0.74920 0.76895
 C2763 C 0.90753 0.20744 0.30213
 C2764 C 0.92303 0.21191 0.29456
 C2765 C 0.93407 0.19944 0.28828
 C2766 C 0.92935 0.18277 0.28952
 C2767 C 0.91378 0.17847 0.29675
 C2768 C 0.90275 0.19072 0.30311
 C2769 C 0.94957 0.20381 0.28073
 C2770 C 0.95406 0.22052 0.27910
 C2771 C 0.94293 0.23302 0.28514
 C2772 C 0.92755 0.22864 0.29295
 C2773 C 0.94735 0.24973 0.28319
 C2774 C 0.96263 0.25400 0.27532
 C2775 C 0.97375 0.24165 0.26937
 C2776 C 0.96948 0.22493 0.27138
 H2777 H 0.89900 0.21698 0.30685
 H2778 H 0.93765 0.17306 0.28477
 H2779 H 0.91043 0.16549 0.29750
 H2780 H 0.95804 0.19423 0.27599
 H2781 H 0.91905 0.23822 0.29764
 H2782 H 0.93898 0.25948 0.28772
 H2783 H 0.96585 0.26697 0.27394
 H2784 H 0.97806 0.21541 0.26671
 C2785 C 0.29473 0.28670 0.60205
 C2786 C 0.28541 0.28114 0.58818
 C2787 C 0.26837 0.28656 0.58596
 C2788 C 0.26078 0.29698 0.59780
 C2789 C 0.27011 0.30253 0.61141
 C2790 C 0.28726 0.29777 0.61352
 C2791 C 0.25926 0.28177 0.57179
 C2792 C 0.26693 0.27165 0.55970
 C2793 C 0.28380 0.26584 0.56206
 C2794 C 0.29294 0.27061 0.57628
 C2795 C 0.29132 0.25553 0.55001
 C2796 C 0.28228 0.25116 0.53571
 C2797 C 0.26560 0.25707 0.53314
 C2798 C 0.25804 0.26742 0.54519
 H2799 H 0.30792 0.28294 0.60353
 H2800 H 0.24768 0.30109 0.59639
 H2801 H 0.26387 0.31071 0.62023
 H2802 H 0.24627 0.28612 0.57005
 H2803 H 0.30596 0.26634 0.57796
 H2804 H 0.30419 0.25088 0.55160
 H2805 H 0.28832 0.24311 0.52661
 H2806 H 0.24529 0.27224 0.54319
 C2807 C 0.29444 0.79749 0.09433
 C2808 C 0.28974 0.78922 0.07967
 C2809 C 0.30156 0.77850 0.07170
 C2810 C 0.31777 0.77611 0.07856
 C2811 C 0.32222 0.78413 0.09328
 C2812 C 0.31064 0.79486 0.10128
 C2813 C 0.29699 0.77021 0.05708
 C2814 C 0.28065 0.77228 0.05042
 C2815 C 0.26870 0.78281 0.05844
 C2816 C 0.27336 0.79131 0.07297
 C2817 C 0.25226 0.78458 0.05180
 C2818 C 0.24774 0.77598 0.03737
 C2819 C 0.25960 0.76557 0.02937
 C2820 C 0.27605 0.76384 0.03590
 H2821 H 0.28538 0.80562 0.10053
 H2822 H 0.32697 0.76795 0.07261
 H2823 H 0.33483 0.78205 0.09832
 H2824 H 0.30610 0.76205 0.05097
 H2825 H 0.26422 0.79943 0.07911
 H2826 H 0.24291 0.79256 0.05778
 H2827 H 0.23501 0.77748 0.03240
 H2828 H 0.28517 0.75571 0.02977
 C2829 C 0.79681 0.30116 0.09728
 C2830 C 0.79296 0.29334 0.08207
 C2831 C 0.80635 0.28733 0.07180
 C2832 C 0.82329 0.28921 0.07685
 C2833 C 0.82698 0.29668 0.09207
 C2834 C 0.81384 0.30264 0.10248
 C2835 C 0.80264 0.27933 0.05674
 C2836 C 0.78569 0.27702 0.05186
 C2837 C 0.77225 0.28295 0.06211
 C2838 C 0.77597 0.29117 0.07709
 C2839 C 0.75531 0.28046 0.05723
 C2840 C 0.75172 0.27209 0.04242
 C2841 C 0.76498 0.26605 0.03222
 C2842 C 0.78196 0.26869 0.03696
 H2843 H 0.78659 0.30560 0.10527
 H2844 H 0.83370 0.28473 0.06912
 H2845 H 0.84021 0.29786 0.09567
 H2846 H 0.81295 0.27474 0.04892
 H2847 H 0.76565 0.29569 0.08495
 H2848 H 0.74483 0.28495 0.06487
 H2849 H 0.73854 0.27037 0.03885
 H2850 H 0.79224 0.26401 0.02915
 C2851 C 0.79685 0.80179 0.59424
 C2852 C 0.79274 0.79397 0.57918
 C2853 C 0.80583 0.78676 0.56934
 C2854 C 0.82274 0.78723 0.57489
 C2855 C 0.82667 0.79476 0.59004
 C2856 C 0.81380 0.80220 0.59977
 C2857 C 0.80181 0.77914 0.55416
 C2858 C 0.78483 0.77833 0.54886
 C2859 C 0.77168 0.78519 0.55889
 C2860 C 0.77574 0.79311 0.57390
 C2861 C 0.75466 0.78392 0.55378
 C2862 C 0.75069 0.77587 0.53890
 C2863 C 0.76369 0.76920 0.52885
 C2864 C 0.78075 0.77058 0.53377
 H2865 H 0.78682 0.80730 0.60179
 H2866 H 0.83292 0.78172 0.56753
 H2867 H 0.83984 0.79501 0.59401
 H2868 H 0.81187 0.77372 0.54657
 H2869 H 0.76567 0.79847 0.58153
 H2870 H 0.74442 0.78904 0.56133
 H2871 H 0.73748 0.77484 0.53518
 H2872 H 0.79074 0.76528 0.52602
 C2873 C 0.29166 0.70401 0.40282
 C2874 C 0.28687 0.71105 0.41811
 C2875 C 0.29905 0.71969 0.42766
 C2876 C 0.31577 0.72128 0.42162
 C2877 C 0.32043 0.71423 0.40634
 C2878 C 0.30848 0.70542 0.39686
 C2879 C 0.29434 0.72651 0.44310
 C2880 C 0.27759 0.72482 0.44907
 C2881 C 0.26537 0.71633 0.43941
 C2882 C 0.27009 0.70950 0.42401
 C2883 C 0.24860 0.71477 0.44534
 C2884 C 0.24397 0.72157 0.46070
 C2885 C 0.25601 0.73001 0.47034
 C2886 C 0.27283 0.73153 0.46454
 H2887 H 0.28222 0.69749 0.39556
 H2888 H 0.32527 0.72787 0.42875
 H2889 H 0.33350 0.71545 0.40214
 H2890 H 0.30369 0.73309 0.45046
 H2891 H 0.26073 0.70292 0.41665
 H2892 H 0.23909 0.70831 0.43810
 H2893 H 0.23096 0.72027 0.46511
 H2894 H 0.28209 0.73812 0.47200
 C2895 C 0.29125 0.20505 0.90181
 C2896 C 0.28282 0.20944 0.91667
 C2897 C 0.27328 0.19739 0.92542
 C2898 C 0.27236 0.18122 0.91921
 C2899 C 0.28074 0.17697 0.90444
 C2900 C 0.29025 0.18879 0.89554
 C2901 C 0.26481 0.20167 0.94023
 C2902 C 0.26570 0.21786 0.94643
 C2903 C 0.27522 0.22996 0.93773
 C2904 C 0.28373 0.22567 0.92290
 C2905 C 0.27608 0.24614 0.94405
 C2906 C 0.26755 0.25030 0.95882
 C2907 C 0.25793 0.23839 0.96742
 C2908 C 0.25716 0.22216 0.96122
 H2909 H 0.29842 0.21436 0.89508
 H2910 H 0.26515 0.17182 0.92579
 H2911 H 0.27986 0.16431 0.90013
 H2912 H 0.25750 0.19239 0.94692
 H2913 H 0.29103 0.23494 0.91622
 H2914 H 0.28338 0.25556 0.93761
 H2915 H 0.26850 0.26281 0.96358
 H2916 H 0.24976 0.21293 0.96785
 C2917 C 0.79294 0.70338 0.90516
 C2918 C 0.78503 0.70723 0.92041
 C2919 C 0.77732 0.69451 0.92989
 C2920 C 0.77763 0.67819 0.92395
 C2921 C 0.78537 0.67450 0.90868
 C2922 C 0.79307 0.68703 0.89913
 C2923 C 0.76928 0.69833 0.94508
 C2924 C 0.76863 0.71474 0.95078
 C2925 C 0.77628 0.72748 0.94126
 C2926 C 0.78453 0.72362 0.92620
 C2927 C 0.77538 0.74391 0.94687
 C2928 C 0.76678 0.74773 0.96166
 C2929 C 0.75904 0.73518 0.97109
 C2930 C 0.76018 0.71868 0.96574
 H2931 H 0.79866 0.71319 0.89785
 H2932 H 0.77181 0.66829 0.93107
 H2933 H 0.78544 0.66177 0.90445
 H2934 H 0.76336 0.68857 0.95235
 H2935 H 0.79038 0.73339 0.91890
 H2936 H 0.78118 0.75382 0.93974
 H2937 H 0.76605 0.76051 0.96572
 H2938 H 0.75412 0.70902 0.97301
 C2939 C 0.78648 0.20204 0.40174
 C2940 C 0.78053 0.20938 0.41657
 C2941 C 0.79181 0.21871 0.42651
 C2942 C 0.80878 0.22068 0.42138
 C2943 C 0.81456 0.21345 0.40657
 C2944 C 0.80354 0.20401 0.39661
 C2945 C 0.78597 0.22593 0.44142
 C2946 C 0.76894 0.22403 0.44647
 C2947 C 0.75760 0.21483 0.43643
 C2948 C 0.76348 0.20753 0.42159
 C2949 C 0.74055 0.21307 0.44143
 C2950 C 0.73476 0.22035 0.45620
 C2951 C 0.74589 0.22951 0.46624
 C2952 C 0.76302 0.23121 0.46139
 H2953 H 0.77778 0.19495 0.39413
 H2954 H 0.81761 0.22778 0.42884
 H2955 H 0.82780 0.21507 0.40308
 H2956 H 0.79466 0.23303 0.44906
 H2957 H 0.75478 0.20044 0.41395
 H2958 H 0.73169 0.20605 0.43392
 H2959 H 0.72156 0.21877 0.45988
 H2960 H 0.77162 0.23828 0.46914
 C2961 C 0.69599 0.28927 0.39730
 C2962 C 0.70396 0.28246 0.41136
 C2963 C 0.72154 0.28514 0.41399
 C2964 C 0.73082 0.29466 0.40250
 C2965 C 0.72272 0.30160 0.38864
 C2966 C 0.70524 0.29899 0.38591
 C2967 C 0.72948 0.27848 0.42817
 C2968 C 0.71996 0.26943 0.43988
 C2969 C 0.70234 0.26685 0.43723
 C2970 C 0.69451 0.27324 0.42293
 C2971 C 0.69274 0.25811 0.44907
 C2972 C 0.70045 0.25214 0.46352
 C2973 C 0.71791 0.25460 0.46627
 C2974 C 0.72766 0.26317 0.45436
 H2975 H 0.68246 0.28734 0.39552
 H2976 H 0.74431 0.29685 0.40430
 H2977 H 0.73018 0.30893 0.38001
 H2978 H 0.74297 0.28054 0.43020
 H2979 H 0.68099 0.27126 0.42095
 H2980 H 0.67924 0.25604 0.44724
 H2981 H 0.69280 0.24553 0.47259
 H2982 H 0.74113 0.26521 0.45656
 C2983 C 0.70288 0.79390 0.90363
 C2984 C 0.70949 0.78837 0.91888
 C2985 C 0.71702 0.79984 0.92992
 C2986 C 0.71812 0.81655 0.92536
 C2987 C 0.71166 0.82192 0.91010
 C2988 C 0.70385 0.81070 0.89917
 C2989 C 0.72327 0.79445 0.94534
 C2990 C 0.72225 0.77769 0.94980
 C2991 C 0.71507 0.76614 0.93861
 C2992 C 0.70865 0.77157 0.92326
 C2993 C 0.71444 0.74933 0.94297
 C2994 C 0.72082 0.74402 0.95828
 C2995 C 0.72775 0.75545 0.96950
 C2996 C 0.72838 0.77228 0.96527
 H2997 H 0.69708 0.78509 0.89521
 H2998 H 0.72390 0.82550 0.93364
 H2999 H 0.71247 0.83495 0.90705
 H3000 H 0.72892 0.80328 0.95384
 H3001 H 0.70301 0.76273 0.91474
 H3002 H 0.70906 0.74029 0.93452
 H3003 H 0.72033 0.73098 0.96145
 H3004 H 0.73390 0.78105 0.97392
 C3005 C 0.20669 0.29821 0.89975
 C3006 C 0.21186 0.28840 0.91336
 C3007 C 0.20936 0.27105 0.91292
 C3008 C 0.20179 0.26382 0.89895
 C3009 C 0.19637 0.27366 0.88568
 C3010 C 0.19861 0.29093 0.88596
 C3011 C 0.21420 0.26121 0.92654
 C3012 C 0.22123 0.26849 0.94079
 C3013 C 0.22365 0.28584 0.94133
 C3014 C 0.21908 0.29567 0.92757
 C3015 C 0.23039 0.29309 0.95574
 C3016 C 0.23460 0.28328 0.96949
 C3017 C 0.23233 0.26604 0.96903
 C3018 C 0.22565 0.25870 0.95462
 H3019 H 0.20835 0.31153 0.90015
 H3020 H 0.19977 0.25055 0.89841
 H3021 H 0.19035 0.26771 0.87516
 H3022 H 0.21225 0.24792 0.92615
 H3023 H 0.22089 0.30897 0.92803
 H3024 H 0.23229 0.30636 0.95641
 H3025 H 0.23976 0.28913 0.98051
 H3026 H 0.22370 0.24542 0.95430
 C3027 C 0.20395 0.79005 0.40404
 C3028 C 0.21264 0.78351 0.41782
 C3029 C 0.23041 0.78598 0.41936
 C3030 C 0.23913 0.79508 0.40715
 C3031 C 0.23032 0.80182 0.39364
 C3032 C 0.21268 0.79935 0.39194
 C3033 C 0.23913 0.77948 0.43315
 C3034 C 0.23022 0.77087 0.44561
 C3035 C 0.21240 0.76859 0.44415
 C3036 C 0.20377 0.77477 0.43019
 C3037 C 0.20344 0.76033 0.45679
 C3038 C 0.21202 0.75446 0.47081
 C3039 C 0.22970 0.75652 0.47229
 C3040 C 0.23878 0.76469 0.45965
 H3041 H 0.19031 0.78825 0.40298
 H3042 H 0.25274 0.79712 0.40813
 H3043 H 0.23735 0.80883 0.38442
 H3044 H 0.25276 0.78134 0.43431
 H3045 H 0.19012 0.77298 0.42907
 H3046 H 0.18979 0.75853 0.45589
 H3047 H 0.20489 0.74817 0.48049
 H3048 H 0.25243 0.76639 0.46089
 C3049 C 0.71099 0.70145 0.59281
 C3050 C 0.71563 0.70899 0.57766
 C3051 C 0.70297 0.71254 0.56567
 C3052 C 0.68599 0.70832 0.56888
 C3053 C 0.68150 0.70084 0.58391
 C3054 C 0.69385 0.69744 0.59613
 C3055 C 0.70740 0.72033 0.55067
 C3056 C 0.72438 0.72459 0.54742
 C3057 C 0.73714 0.72088 0.55926
 C3058 C 0.73269 0.71312 0.57432
 C3059 C 0.75415 0.72502 0.55582
 C3060 C 0.75843 0.73285 0.54086
 C3061 C 0.74577 0.73687 0.52918
 C3062 C 0.72878 0.73256 0.53248
 H3063 H 0.72069 0.69896 0.60205
 H3064 H 0.67615 0.71084 0.55977
 H3065 H 0.66825 0.69772 0.58584
 H3066 H 0.69762 0.72313 0.54156
 H3067 H 0.74247 0.71034 0.58344
 H3068 H 0.76413 0.72217 0.56467
 H3069 H 0.77167 0.73575 0.53836
 H3070 H 0.71898 0.73560 0.52348
 C3071 C 0.70928 0.20285 0.09698
 C3072 C 0.71384 0.21052 0.08190
 C3073 C 0.70103 0.21730 0.07154
 C3074 C 0.68391 0.21646 0.07656
 C3075 C 0.67951 0.20902 0.09169
 C3076 C 0.69212 0.20210 0.10202
 C3077 C 0.70553 0.22487 0.05641
 C3078 C 0.72272 0.22596 0.05159
 C3079 C 0.73554 0.21938 0.06210
 C3080 C 0.73101 0.21162 0.07710
 C3081 C 0.75272 0.22073 0.05745
 C3082 C 0.75721 0.22857 0.04259
 C3083 C 0.74462 0.23510 0.03206
 C3084 C 0.72735 0.23364 0.03651
 H3085 H 0.71914 0.19773 0.10491
 H3086 H 0.67392 0.22159 0.06881
 H3087 H 0.66618 0.20848 0.09519
 H3088 H 0.69569 0.23000 0.04844
 H3089 H 0.74085 0.20652 0.08508
 H3090 H 0.76269 0.21578 0.06535
 H3091 H 0.77057 0.22949 0.03923
 H3092 H 0.71764 0.23873 0.02839
 C3093 C 0.20245 0.71194 0.09808
 C3094 C 0.21160 0.71872 0.08463
 C3095 C 0.22965 0.71813 0.08467
 C3096 C 0.23826 0.71112 0.09818
 C3097 C 0.22910 0.70413 0.11127
 C3098 C 0.21118 0.70422 0.11122
 C3099 C 0.23888 0.72408 0.07100
 C3100 C 0.23033 0.73029 0.05708
 C3101 C 0.21231 0.73118 0.05702
 C3102 C 0.20304 0.72553 0.07089
 C3103 C 0.20390 0.73731 0.04289
 C3104 C 0.21327 0.74216 0.02886
 C3105 C 0.23115 0.74109 0.02883
 C3106 C 0.23959 0.73518 0.04300
 H3107 H 0.18862 0.71198 0.09796
 H3108 H 0.25207 0.71067 0.09843
 H3109 H 0.23609 0.69850 0.12142
 H3110 H 0.25271 0.72345 0.07101
 H3111 H 0.18921 0.72599 0.07080
 H3112 H 0.19011 0.73810 0.04259
 H3113 H 0.20659 0.74665 0.01796
 H3114 H 0.25337 0.73399 0.04288
 C3115 C 0.20101 0.21458 0.60320
 C3116 C 0.21026 0.22032 0.58927
 C3117 C 0.22783 0.21644 0.58774
 C3118 C 0.23606 0.20775 0.60044
 C3119 C 0.22688 0.20220 0.61418
 C3120 C 0.20918 0.20502 0.61549
 C3121 C 0.23690 0.22100 0.57343
 C3122 C 0.22874 0.22960 0.56060
 C3123 C 0.21142 0.23426 0.56235
 C3124 C 0.20223 0.22950 0.57664
 C3125 C 0.20357 0.24340 0.54963
 C3126 C 0.21275 0.24768 0.53529
 C3127 C 0.22986 0.24269 0.53328
 C3128 C 0.23767 0.23346 0.54597
 H3129 H 0.18742 0.21696 0.60410
 H3130 H 0.24958 0.20496 0.59960
 H3131 H 0.23371 0.19541 0.62367
 H3132 H 0.25028 0.21769 0.57219
 H3133 H 0.18883 0.23272 0.57781
 H3134 H 0.19035 0.24723 0.55076
 H3135 H 0.20647 0.25486 0.52569
 H3136 H 0.25070 0.22915 0.54439
   
