data_POSCAR
  _audit_creation_date              2014-09-24
  _audit_creation_method            'ToBaCCo'
  _symmetry_space_group_name_H-M    'P1'
  _symmetry_Int_Tables_number       1
  _symmetry_cell_setting            triclinic
  loop_
  _symmetry_equiv_pos_as_xyz
 x,y,z
_cell_length_a 65.3963
_cell_length_b 64.8444
_cell_length_c 65.2020
_cell_angle_alpha 91.023200
_cell_angle_beta 89.806800
_cell_angle_gamma 89.980200
loop_
  _atom_site_label
  _atom_site_type_symbol
  _atom_site_fract_x
  _atom_site_fract_y
  _atom_site_fract_z
C1 C 0.20094 0.19004 0.22119
 C2 C 0.18344 0.19242 0.23352
 C3 C 0.16888 0.20780 0.22941
 C4 C 0.17189 0.22053 0.21239
 C5 C 0.18944 0.21853 0.20011
 C6 C 0.20414 0.20335 0.20463
 C7 C 0.21534 0.17460 0.22523
 C8 C 0.23315 0.17246 0.21317
 C9 C 0.23648 0.18626 0.19705
 C10 C 0.22206 0.20156 0.19263
 C11 C 0.22528 0.21508 0.17637
 C12 C 0.21059 0.23007 0.17167
 C13 C 0.19264 0.23161 0.18350
 H14 H 0.18147 0.18262 0.24667
 H15 H 0.16058 0.23209 0.20870
 H16 H 0.21244 0.16401 0.23757
 H17 H 0.25034 0.18517 0.18796
 H18 H 0.23906 0.21379 0.16714
 H19 H 0.18140 0.24332 0.18001
 C20 C 0.70133 0.68628 0.72285
 C21 C 0.68451 0.68894 0.73605
 C22 C 0.67077 0.70534 0.73337
 C23 C 0.67404 0.71921 0.71737
 C24 C 0.69088 0.71687 0.70416
 C25 C 0.70457 0.70033 0.70687
 C26 C 0.71499 0.66985 0.72540
 C27 C 0.73199 0.66740 0.71234
 C28 C 0.73517 0.68148 0.69650
 C29 C 0.72154 0.69788 0.69364
 C30 C 0.72461 0.71184 0.67774
 C31 C 0.71112 0.72849 0.67500
 C32 C 0.69431 0.73087 0.68837
 H33 H 0.68194 0.67812 0.74828
 H34 H 0.66359 0.73201 0.71540
 H35 H 0.71260 0.65913 0.73776
 H36 H 0.74817 0.67952 0.68628
 H37 H 0.73742 0.70958 0.66735
 H38 H 0.68400 0.74382 0.68671
 C39 C 0.29532 0.80478 0.72565
 C40 C 0.31017 0.80016 0.74038
 C41 C 0.32370 0.78348 0.73735
 C42 C 0.32183 0.77108 0.71951
 C43 C 0.30691 0.77536 0.70480
 C44 C 0.29378 0.79244 0.70775
 C45 C 0.28193 0.82150 0.72867
 C46 C 0.26708 0.82661 0.71381
 C47 C 0.26615 0.81417 0.69575
 C48 C 0.27910 0.79714 0.69279
 C49 C 0.27751 0.78465 0.67507
 C50 C 0.29015 0.76730 0.67230
 C51 C 0.30491 0.76282 0.68717
 H52 H 0.31118 0.80955 0.75426
 H53 H 0.33226 0.75832 0.71685
 H54 H 0.28284 0.82990 0.74310
 H55 H 0.25585 0.81788 0.68342
 H56 H 0.26601 0.78805 0.66367
 H57 H 0.31488 0.74959 0.68495
 C58 C 0.79206 0.30362 0.22839
 C59 C 0.80744 0.29916 0.24258
 C60 C 0.82075 0.28214 0.23958
 C61 C 0.81764 0.26931 0.22207
 C62 C 0.80222 0.27354 0.20784
 C63 C 0.78960 0.29094 0.21081
 C64 C 0.77908 0.32064 0.23152
 C65 C 0.76412 0.32544 0.21698
 C66 C 0.76198 0.31301 0.19927
 C67 C 0.77447 0.29563 0.19620
 C68 C 0.77194 0.28277 0.17888
 C69 C 0.78418 0.26513 0.17607
 C70 C 0.79937 0.26069 0.19054
 H71 H 0.80847 0.30878 0.25627
 H72 H 0.82775 0.25648 0.21871
 H73 H 0.78078 0.33039 0.24509
 H74 H 0.75033 0.31669 0.18812
 H75 H 0.76013 0.28619 0.16782
 H76 H 0.80905 0.24726 0.18823
 C77 C 0.79631 0.70005 0.27312
 C78 C 0.81161 0.70456 0.25876
 C79 C 0.82568 0.72083 0.26220
 C80 C 0.82337 0.73298 0.28033
 C81 C 0.80801 0.72872 0.29472
 C82 C 0.79465 0.71200 0.29127
 C83 C 0.78258 0.68376 0.26951
 C84 C 0.76756 0.67875 0.28413
 C85 C 0.76636 0.69054 0.30245
 C86 C 0.77958 0.70724 0.30598
 C87 C 0.77786 0.71936 0.32393
 C88 C 0.79081 0.73637 0.32724
 C89 C 0.80593 0.74088 0.31263
 H90 H 0.81202 0.69557 0.24462
 H91 H 0.83405 0.74521 0.28400
 H92 H 0.78353 0.67511 0.25517
 H93 H 0.75522 0.68668 0.31410
 H94 H 0.76608 0.71592 0.33510
 H95 H 0.81613 0.75382 0.31530
 C96 C 0.29279 0.20236 -0.23072
 C97 C 0.30876 0.20642 -0.24447
 C98 C 0.32139 0.22401 -0.24195
 C99 C 0.31729 0.23757 -0.22518
 C100 C 0.30140 0.23362 -0.21128
 C101 C 0.28914 0.21593 -0.21402
 C102 C 0.28041 0.18485 -0.23345
 C103 C 0.26427 0.18075 -0.21976
 C104 C 0.26085 0.19437 -0.20305
 C105 C 0.27325 0.21177 -0.20001
 C106 C 0.27001 0.22508 -0.18313
 C107 C 0.28229 0.24263 -0.18021
 C108 C 0.29781 0.24695 -0.19444
 H109 H 0.31069 0.19612 -0.25757
 H110 H 0.32699 0.25078 -0.22214
 H111 H 0.28352 0.17427 -0.24612
 H112 H 0.24832 0.19162 -0.19253
 H113 H 0.25788 0.22186 -0.17227
 H114 H 0.30734 0.26047 -0.19212
 C115 C 0.70798 0.30252 -0.22580
 C116 C 0.69075 0.30027 -0.23840
 C117 C 0.67603 0.28471 -0.23489
 C118 C 0.67898 0.27177 -0.21789
 C119 C 0.69622 0.27379 -0.20527
 C120 C 0.71088 0.28907 -0.20936
 C121 C 0.72241 0.31804 -0.22949
 C122 C 0.73988 0.32019 -0.21709
 C123 C 0.74288 0.30633 -0.20100
 C124 C 0.72844 0.29092 -0.19697
 C125 C 0.73128 0.27738 -0.18069
 C126 C 0.71650 0.26232 -0.17615
 C127 C 0.69894 0.26077 -0.18853
 H128 H 0.68956 0.31016 -0.25152
 H129 H 0.66762 0.26038 -0.21390
 H130 H 0.71978 0.32874 -0.24178
 H131 H 0.75647 0.30753 -0.19159
 H132 H 0.74511 0.27855 -0.17164
 H133 H 0.68721 0.24956 -0.18508
 C134 C 0.20700 0.80698 0.27492
 C135 C 0.19030 0.80413 0.26172
 C136 C 0.17641 0.78793 0.26473
 C137 C 0.17944 0.77440 0.28102
 C138 C 0.19615 0.77696 0.29424
 C139 C 0.20992 0.79339 0.29126
 C140 C 0.22070 0.82332 0.27207
 C141 C 0.23765 0.82644 0.28523
 C142 C 0.24026 0.81257 0.30155
 C143 C 0.22658 0.79622 0.30462
 C144 C 0.22942 0.78258 0.32085
 C145 C 0.21593 0.76596 0.32382
 C146 C 0.19933 0.76329 0.31034
 H147 H 0.18790 0.81467 0.24922
 H148 H 0.16886 0.76175 0.28324
 H149 H 0.21744 0.83400 0.25995
 H150 H 0.25340 0.81373 0.31153
 H151 H 0.24203 0.78510 0.33134
 H152 H 0.18900 0.75039 0.31216
 C153 C 0.44725 0.45745 0.47617
 C154 C 0.45056 0.44118 0.48965
 C155 C 0.46800 0.42860 0.48763
 C156 C 0.48221 0.43251 0.47194
 C157 C 0.47910 0.44870 0.45832
 C158 C 0.46157 0.46124 0.46044
 C159 C 0.42987 0.47001 0.47818
 C160 C 0.42682 0.48652 0.46489
 C161 C 0.44107 0.49020 0.44922
 C162 C 0.45834 0.47756 0.44680
 C163 C 0.47238 0.48094 0.43092
 C164 C 0.48992 0.46849 0.42862
 C165 C 0.49322 0.45252 0.44260
 H166 H 0.43941 0.43811 0.50155
 H167 H 0.49580 0.42302 0.47044
 H168 H 0.41890 0.46724 0.49034
 H169 H 0.43858 0.50283 0.43884
 H170 H 0.46939 0.49308 0.42012
 H171 H 0.50685 0.44308 0.44134
 C172 C -0.05210 -0.03955 0.97362
 C173 C -0.04866 -0.05564 0.98730
 C174 C -0.03203 -0.06919 0.98451
 C175 C -0.01868 -0.06628 0.96784
 C176 C -0.02184 -0.05015 0.95415
 C177 C -0.03868 -0.03680 0.95698
 C178 C -0.06885 -0.02628 0.97636
 C179 C -0.07258 -0.00992 0.96276
 C180 C -0.05887 -0.00747 0.94612
 C181 C -0.04211 -0.02074 0.94317
 C182 C -0.02865 -0.01809 0.92661
 C183 C -0.01165 -0.03118 0.92374
 C184 C -0.00839 -0.04718 0.93767
 H185 H -0.05883 -0.05741 1.00031
 H186 H -0.00599 -0.07677 0.96528
 H187 H -0.07937 -0.02948 0.98873
 H188 H -0.06051 0.00526 0.93576
 H189 H -0.03160 -0.00596 0.91579
 H190 H 0.00480 -0.05717 0.93591
 C191 C 1.05413 0.54966 0.97372
 C192 C 1.05094 0.56679 0.98679
 C193 C 1.03467 0.58076 0.98355
 C194 C 1.02157 0.57682 0.96669
 C195 C 1.02458 0.55970 0.95356
 C196 C 1.04097 0.54613 0.95704
 C197 C 1.07034 0.53600 0.97722
 C198 C 1.07377 0.51855 0.96431
 C199 C 1.06039 0.51541 0.94752
 C200 C 1.04418 0.52901 0.94383
 C201 C 1.03103 0.52563 0.92715
 C202 C 1.01452 0.53901 0.92356
 C203 C 1.01143 0.55602 0.93692
 H204 H 1.06079 0.56854 0.99999
 H205 H 1.00941 0.58743 0.96303
 H206 H 1.08069 0.53966 0.98967
 H207 H 1.06180 0.50190 0.93765
 H208 H 1.03385 0.51268 0.91679
 H209 H 0.99858 0.56626 0.93459
 C210 C 0.55546 0.04318 0.47729
 C211 C 0.55281 0.06053 0.49020
 C212 C 0.53670 0.07442 0.48693
 C213 C 0.52348 0.07112 0.47026
 C214 C 0.52612 0.05402 0.45706
 C215 C 0.54203 0.03984 0.46072
 C216 C 0.57137 0.02916 0.48073
 C217 C 0.57420 0.01151 0.46794
 C218 C 0.56038 0.00835 0.45151
 C219 C 0.54449 0.02233 0.44783
 C220 C 0.53096 0.01906 0.43141
 C221 C 0.51542 0.03337 0.42746
 C222 C 0.51308 0.05083 0.44028
 H223 H 0.56297 0.06301 0.50311
 H224 H 0.51120 0.08196 0.46753
 H225 H 0.58198 0.03272 0.49299
 H226 H 0.56135 -0.00535 0.44184
 H227 H 0.53272 0.00563 0.42142
 H228 H 0.50095 0.06175 0.43726
 C229 C -0.05943 0.04674 0.52966
 C230 C -0.05585 0.06275 0.51592
 C231 C -0.03887 0.07582 0.51839
 C232 C -0.02536 0.07272 0.53477
 C233 C -0.02863 0.05666 0.54853
 C234 C -0.04576 0.04365 0.54602
 C235 C -0.07646 0.03379 0.52731
 C236 C -0.07994 0.01752 0.54091
 C237 C -0.06616 0.01454 0.55713
 C238 C -0.04919 0.02752 0.55982
 C239 C -0.03556 0.02455 0.57606
 C240 C -0.01831 0.03732 0.57862
 C241 C -0.01498 0.05334 0.56469
 H242 H -0.06638 0.06521 0.50339
 H243 H -0.01214 0.08267 0.53659
 H244 H -0.08712 0.03652 0.51496
 H245 H -0.06840 0.00186 0.56750
 H246 H -0.03856 0.01240 0.58687
 H247 H -0.00159 0.06307 0.56621
 C248 C 0.44383 0.54028 0.02799
 C249 C 0.44768 0.55593 0.01390
 C250 C 0.46373 0.57022 0.01707
 C251 C 0.47628 0.56793 0.03449
 C252 C 0.47287 0.55205 0.04843
 C253 C 0.45643 0.53834 0.04533
 C254 C 0.42739 0.52665 0.02508
 C255 C 0.42328 0.51114 0.03934
 C256 C 0.43600 0.50928 0.05656
 C257 C 0.45258 0.52270 0.05959
 C258 C 0.46533 0.52074 0.07670
 C259 C 0.48221 0.53394 0.07962
 C260 C 0.48578 0.54961 0.06536
 H261 H 0.43737 0.55752 0.00107
 H262 H 0.48927 0.57802 0.03695
 H263 H 0.41785 0.52802 0.01161
 H264 H 0.43283 0.49754 0.06776
 H265 H 0.46201 0.50895 0.08779
 H266 H 0.49884 0.55975 0.06719
 C267 C 0.55785 -0.05074 0.02618
 C268 C 0.55438 -0.06767 0.01296
 C269 C 0.53770 -0.08098 0.01612
 C270 C 0.52446 -0.07706 0.03281
 C271 C 0.52762 -0.06007 0.04604
 C272 C 0.54440 -0.04687 0.04274
 C273 C 0.57454 -0.03757 0.02302
 C274 C 0.57787 -0.02033 0.03602
 C275 C 0.56427 -0.01657 0.05247
 C276 C 0.54768 -0.02977 0.05598
 C277 C 0.53430 -0.02608 0.07250
 C278 C 0.51744 -0.03911 0.07590
 C279 C 0.51423 -0.05605 0.06248
 H280 H 0.56450 -0.07025 -0.00003
 H281 H 0.51177 -0.08736 0.03569
 H282 H 0.58507 -0.04093 0.01054
 H283 H 0.56636 -0.00316 0.06239
 H284 H 0.53722 -0.01319 0.08288
 H285 H 0.50111 -0.06599 0.06462
 C286 C 1.05763 0.45416 0.52179
 C287 C 1.05337 0.43832 0.50751
 C288 C 1.03712 0.42428 0.51065
 C289 C 1.02488 0.42710 0.52844
 C290 C 1.02892 0.44296 0.54277
 C291 C 1.04552 0.45635 0.53962
 C292 C 1.07383 0.46793 0.51850
 C293 C 1.07841 0.48338 0.53311
 C294 C 1.06660 0.48522 0.55105
 C295 C 1.04998 0.47199 0.55426
 C296 C 1.03763 0.47429 0.57178
 C297 C 1.02065 0.46135 0.57479
 C298 C 1.01655 0.44560 0.56025
 H299 H 1.06249 0.43752 0.49364
 H300 H 1.01270 0.41644 0.53193
 H301 H 1.08310 0.46649 0.50472
 H302 H 1.07011 0.49726 0.56224
 H303 H 1.04125 0.48620 0.58306
 H304 H 1.00340 0.43566 0.56227
 C305 C 0.40650 0.01128 0.22098
 H306 H 0.40585 0.02625 0.22855
 C307 C 0.41977 0.00801 0.20440
 H308 H 0.42932 0.02053 0.19922
 C309 C 0.39521 -0.02342 0.21884
 H310 H 0.38586 -0.03572 0.22471
 C311 C 0.40853 -0.02746 0.20248
 H312 H 0.40905 -0.04278 0.19561
 N313 N 0.39429 -0.00424 0.22761
 C314 C 0.34589 0.02928 0.26065
 H315 H 0.34598 0.02130 0.27509
 C316 C 0.33234 0.04561 0.25778
 H317 H 0.32246 0.05038 0.27034
 C318 C 0.35883 0.03264 0.22693
 H319 H 0.36880 0.02724 0.21474
 C320 C 0.34532 0.04884 0.22328
 H321 H 0.34515 0.05564 0.20824
 Zn322 Zn 0.37703 0.00104 0.25053
 N323 N 0.35914 0.02344 0.24551
 C324 C 0.39191 0.02350 0.28570
 N325 N 0.39423 0.00655 0.27333
 C326 C 0.40944 -0.00728 0.27658
 C327 C 0.42294 -0.00450 0.29293
 C328 C 0.40478 0.02664 0.30253
 C329 C 0.34725 -0.02826 0.24066
 C330 C 0.33413 -0.04490 0.24367
 C331 C 0.34802 -0.04848 0.27771
 C332 C 0.36102 -0.03185 0.27398
 N333 N 0.36045 -0.02218 0.25565
 H334 H 0.38005 0.03459 0.28271
 H335 H 0.41114 -0.02048 0.26633
 H336 H 0.43518 -0.01553 0.29481
 H337 H 0.40211 0.03988 0.31251
 H338 H 0.34700 -0.02015 0.22631
 H339 H 0.32406 -0.04970 0.23134
 H340 H 0.34843 -0.05568 0.29255
 H341 H 0.37131 -0.02649 0.28585
 C342 C 0.33193 0.05572 0.23888
 C343 C 0.42090 -0.01158 0.19501
 C344 C 0.33431 -0.05522 0.26244
 C345 C 0.42063 0.01255 0.30638
 C346 C 0.09576 -0.00834 0.72018
 H347 H 0.09640 -0.02301 0.72781
 C348 C 0.08189 -0.00546 0.70425
 H349 H 0.07192 -0.01801 0.69957
 C350 C 0.10753 0.02606 0.71743
 H351 H 0.11723 0.03845 0.72285
 C352 C 0.09363 0.02972 0.70169
 H353 H 0.09308 0.04479 0.69481
 N354 N 0.10858 0.00716 0.72611
 C355 C 0.15893 -0.02450 0.75617
 H356 H 0.16012 -0.01475 0.76975
 C357 C 0.17261 -0.04080 0.75313
 H358 H 0.18428 -0.04366 0.76447
 C359 C 0.14233 -0.03254 0.72476
 H360 H 0.13088 -0.02901 0.71348
 C361 C 0.15545 -0.04927 0.72131
 H362 H 0.15385 -0.05862 0.70748
 Zn363 Zn 0.12690 0.00215 0.74795
 N364 N 0.14410 -0.02074 0.74214
 C365 C 0.11067 -0.02171 0.78030
 N366 N 0.11076 -0.00289 0.77141
 C367 C 0.09846 0.01264 0.77841
 C368 C 0.08577 0.00973 0.79536
 C369 C 0.09793 -0.02541 0.79708
 C370 C 0.15573 0.03184 0.73666
 C371 C 0.16894 0.04857 0.73927
 C372 C 0.15914 0.05051 0.77501
 C373 C 0.14588 0.03393 0.77162
 N374 N 0.14422 0.02514 0.75261
 H375 H 0.12024 -0.03397 0.77421
 H376 H 0.09856 0.02732 0.77078
 H377 H 0.07606 0.02223 0.80076
 H378 H 0.09796 -0.04045 0.80403
 H379 H 0.15443 0.02428 0.72179
 H380 H 0.17741 0.05402 0.72615
 H381 H 0.16047 0.05697 0.79036
 H382 H 0.13723 0.02788 0.78430
 C383 C 0.17082 -0.05348 0.73559
 C384 C 0.08076 0.01376 0.69481
 C385 C 0.17080 0.05820 0.75867
 C386 C 0.08536 -0.00952 0.80483
 C387 C 0.59401 0.49311 0.22430
 H388 H 0.59361 0.47915 0.23313
 C389 C 0.58031 0.49568 0.20818
 H390 H 0.56942 0.48360 0.20452
 C391 C 0.60837 0.52610 0.21862
 H392 H 0.61925 0.53795 0.22284
 C393 C 0.59465 0.52949 0.20266
 H394 H 0.59518 0.54388 0.19449
 N395 N 0.60793 0.50804 0.22894
 C396 C 0.65907 0.47803 0.25897
 H397 H 0.66125 0.48879 0.27165
 C398 C 0.67269 0.46166 0.25600
 H399 H 0.68549 0.46023 0.26635
 C400 C 0.64021 0.46767 0.22962
 H401 H 0.62774 0.47017 0.21917
 C402 C 0.65320 0.45084 0.22632
 H403 H 0.65006 0.44035 0.21363
 Zn404 Zn 0.62589 0.50371 0.25114
 N405 N 0.64317 0.48071 0.24591
 C406 C 0.61122 0.48093 0.28482
 N407 N 0.60961 0.49898 0.27462
 C408 C 0.59566 0.51356 0.28036
 C409 C 0.58317 0.51061 0.29747
 C410 C 0.59873 0.47716 0.30175
 C411 C 0.65816 0.52986 0.24113
 C412 C 0.67187 0.54623 0.24344
 C413 C 0.65380 0.55689 0.27423
 C414 C 0.64074 0.54003 0.27162
 N415 N 0.64298 0.52704 0.25513
 H416 H 0.62206 0.46933 0.27973
 H417 H 0.59428 0.52753 0.27164
 H418 H 0.57221 0.52240 0.30196
 H419 H 0.60018 0.46275 0.30977
 H420 H 0.65971 0.51920 0.22826
 H421 H 0.68398 0.54825 0.23228
 H422 H 0.65186 0.56716 0.28738
 H423 H 0.62895 0.53735 0.28286
 C424 C 0.66980 0.44762 0.23956
 C425 C 0.58055 0.51407 0.19719
 C426 C 0.66963 0.56000 0.26010
 C427 C 0.58463 0.49220 0.30831
 C428 C 0.90665 0.50752 0.71838
 H429 H 0.90501 0.52267 0.72541
 C430 C 0.92034 0.50446 0.70214
 H431 H 0.92925 0.51735 0.69671
 C432 C 0.89742 0.47217 0.71735
 H433 H 0.88876 0.45954 0.72357
 C434 C 0.91115 0.46837 0.70125
 H435 H 0.91259 0.45289 0.69490
 N436 N 0.89525 0.49156 0.72539
 C437 C 0.84739 0.52608 0.75770
 H438 H 0.84856 0.51923 0.77266
 C439 C 0.83353 0.54208 0.75456
 H440 H 0.82441 0.54769 0.76737
 C441 C 0.85819 0.52710 0.72302
 H442 H 0.86747 0.52088 0.71066
 C443 C 0.84436 0.54298 0.71913
 H444 H 0.84324 0.54880 0.70372
 Zn445 Zn 0.87747 0.49701 0.74780
 N446 N 0.85959 0.51915 0.74213
 C447 C 0.89512 0.52290 0.77874
 N448 N 0.89424 0.50345 0.77063
 C449 C 0.90624 0.48813 0.77792
 C450 C 0.91923 0.49186 0.79450
 C451 C 0.90815 0.52740 0.79516
 C452 C 0.84952 0.46614 0.73723
 C453 C 0.83675 0.44917 0.74002
 C454 C 0.84666 0.44888 0.77567
 C455 C 0.85942 0.46573 0.77213
 N456 N 0.86081 0.47382 0.75307
 H457 H 0.88605 0.53506 0.77224
 H458 H 0.90554 0.47289 0.77092
 H459 H 0.92812 0.47921 0.80040
 H460 H 0.90888 0.54308 0.80108
 H461 H 0.85063 0.47311 0.72231
 H462 H 0.82840 0.44298 0.72700
 H463 H 0.84553 0.44293 0.79103
 H464 H 0.86790 0.47253 0.78472
 C465 C 0.83183 0.55077 0.73504
 C466 C 0.92270 0.48468 0.69338
 C467 C 0.83517 0.44027 0.75946
 C468 C 0.92037 0.51175 0.80338
 C469 C 0.21624 0.40719 0.01298
 H470 H 0.22458 0.40787 0.02727
 C471 C 0.19991 0.42066 0.00993
 H472 H 0.19543 0.43114 0.02224
 C473 C 0.21229 0.39298 -0.02047
 H474 H 0.21740 0.38254 -0.03250
 C475 C 0.19599 0.40628 -0.02424
 H476 H 0.18882 0.40583 -0.03918
 N477 N 0.22194 0.39348 -0.00202
 C478 C 0.25125 0.34036 0.02531
 H479 H 0.26273 0.33748 0.01364
 C480 C 0.24827 0.32606 0.04079
 H481 H 0.25745 0.31216 0.04067
 C482 C 0.22474 0.36146 0.03883
 H483 H 0.21535 0.37507 0.03798
 C484 C 0.22147 0.34774 0.05478
 H485 H 0.20992 0.35142 0.06619
 Zn486 Zn 0.24476 0.37591 0.00260
 N487 N 0.23962 0.35773 0.02462
 C488 C 0.28507 0.38378 0.01659
 N489 N 0.26798 0.39246 0.00859
 C490 C 0.26731 0.41291 0.00434
 C491 C 0.28411 0.42554 0.00843
 C492 C 0.30230 0.39586 0.02083
 C493 C 0.23562 0.34555 -0.02711
 C494 C 0.23882 0.33302 -0.04445
 C495 C 0.27192 0.34892 -0.04878
 C496 C 0.26794 0.36138 -0.03154
 N497 N 0.25001 0.35951 -0.02113
 H498 H 0.28537 0.36747 0.01966
 H499 H 0.25382 0.41945 -0.00252
 H500 H 0.28332 0.44173 0.00470
 H501 H 0.31570 0.38875 0.02738
 H502 H 0.22154 0.34432 -0.01846
 H503 H 0.22687 0.32246 -0.04920
 H504 H 0.28650 0.35038 -0.05653
 H505 H 0.27925 0.37246 -0.02642
 C506 C 0.23328 0.32968 0.05594
 C507 C 0.18952 0.42034 -0.00891
 C508 C 0.25723 0.33452 -0.05555
 C509 C 0.30190 0.41707 0.01682
 C510 C 0.72121 0.09220 -0.01104
 H511 H 0.72916 0.09234 -0.02562
 C512 C 0.70526 0.07826 -0.00798
 H513 H 0.70087 0.06776 -0.02029
 C514 C 0.71765 0.10529 0.02295
 H515 H 0.72271 0.11559 0.03509
 C516 C 0.70190 0.09132 0.02680
 H517 H 0.69468 0.09126 0.04178
 N518 N 0.72673 0.10572 0.00415
 C519 C 0.75605 0.15703 -0.02691
 H520 H 0.76912 0.15902 -0.01694
 C521 C 0.75299 0.17053 -0.04304
 H522 H 0.76375 0.18293 -0.04555
 C523 C 0.72598 0.13853 -0.03574
 H524 H 0.71523 0.12636 -0.03264
 C525 C 0.72262 0.15137 -0.05237
 H526 H 0.70941 0.14888 -0.06208
 Zn527 Zn 0.74853 0.12418 -0.00115
 N528 N 0.74270 0.14134 -0.02362
 C529 C 0.78159 0.10877 -0.02538
 N530 N 0.77190 0.10794 -0.00693
 C531 C 0.77816 0.09479 0.00778
 C532 C 0.79508 0.08207 0.00440
 C533 C 0.79849 0.09615 -0.02950
 C534 C 0.73788 0.15407 0.02868
 C535 C 0.74082 0.16755 0.04535
 C536 C 0.77591 0.15612 0.04714
 C537 C 0.77223 0.14271 0.03058
 N538 N 0.75338 0.14174 0.02186
 H539 H 0.77609 0.11902 -0.03703
 H540 H 0.77002 0.09432 0.02224
 H541 H 0.80006 0.07211 0.01656
 H542 H 0.80576 0.09678 -0.04442
 H543 H 0.72314 0.15328 0.02122
 H544 H 0.72809 0.17680 0.05085
 H545 H 0.79113 0.15686 0.05357
 H546 H 0.78458 0.13336 0.02449
 C547 C 0.73622 0.16758 -0.05608
 C548 C 0.69541 0.07777 0.01114
 C549 C 0.76006 0.16870 0.05486
 C550 C 0.80549 0.08257 -0.01448
 C551 C 0.22417 0.59358 0.48848
 H552 H 0.23384 0.59169 0.47509
 C553 C 0.20798 0.57998 0.49165
 H554 H 0.20564 0.56749 0.48069
 C555 C 0.21648 0.61159 0.51946
 H556 H 0.22003 0.62364 0.53050
 C557 C 0.19983 0.59861 0.52302
 H558 H 0.19049 0.60139 0.53651
 N559 N 0.22810 0.60903 0.50227
 C560 C 0.26134 0.65383 0.46604
 H561 H 0.27610 0.65346 0.47346
 C562 C 0.25825 0.66659 0.44932
 H563 H 0.27070 0.67607 0.44388
 C564 C 0.22696 0.64230 0.46447
 H565 H 0.21478 0.63296 0.47060
 C566 C 0.22310 0.65514 0.44795
 H567 H 0.20798 0.65543 0.44124
 Zn568 Zn 0.25105 0.62575 0.49637
 N569 N 0.24587 0.64186 0.47310
 C570 C 0.28178 0.60558 0.47235
 N571 N 0.27330 0.60763 0.49137
 C572 C 0.27991 0.59607 0.50725
 C573 C 0.29635 0.58256 0.50460
 C574 C 0.29801 0.59192 0.46892
 C575 C 0.24242 0.65787 0.52463
 C576 C 0.24615 0.67173 0.54084
 C577 C 0.28056 0.65844 0.54292
 C578 C 0.27608 0.64468 0.52686
 N579 N 0.25712 0.64431 0.51834
 H580 H 0.27587 0.61436 0.45976
 H581 H 0.27254 0.59760 0.52208
 H582 H 0.30167 0.57368 0.51745
 H583 H 0.30476 0.59057 0.45377
 H584 H 0.22767 0.65775 0.51717
 H585 H 0.23394 0.68183 0.54604
 H586 H 0.29583 0.65857 0.54927
 H587 H 0.28792 0.63453 0.52105
 C588 C 0.23890 0.66742 0.44017
 C589 C 0.19538 0.58243 0.50905
 C590 C 0.26541 0.67205 0.55035
 C591 C 0.30561 0.58044 0.48525
 C592 C 0.71812 0.90213 0.51548
 H593 H 0.72539 0.90194 0.53036
 C594 C 0.70151 0.91514 0.51219
 H595 H 0.69589 0.92471 0.52477
 C596 C 0.71668 0.88968 0.48113
 H597 H 0.72296 0.88013 0.46892
 C598 C 0.70006 0.90254 0.47714
 H599 H 0.69368 0.90264 0.46184
 N600 N 0.72521 0.88956 0.50013
 C601 C 0.75851 0.84470 0.53618
 H602 H 0.77361 0.84616 0.52954
 C603 C 0.75529 0.83133 0.55242
 H604 H 0.76799 0.82249 0.55826
 C605 C 0.72345 0.85402 0.53623
 H606 H 0.71103 0.86263 0.52963
 C607 C 0.71949 0.84058 0.55226
 H608 H 0.70406 0.83922 0.55817
 Zn609 Zn 0.74828 0.87313 0.50616
 N610 N 0.74276 0.85595 0.52865
 C611 C 0.77784 0.89353 0.53141
 N612 N 0.76996 0.89158 0.51220
 C613 C 0.77671 0.90356 0.49669
 C614 C 0.79258 0.91760 0.49995
 C615 C 0.79356 0.90761 0.53545
 C616 C 0.74050 0.84274 0.47619
 C617 C 0.74470 0.82940 0.45967
 C618 C 0.77949 0.84188 0.45952
 C619 C 0.77455 0.85515 0.47590
 N620 N 0.75523 0.85558 0.48367
 H621 H 0.77174 0.88444 0.54373
 H622 H 0.76991 0.90197 0.48164
 H623 H 0.79813 0.92642 0.48714
 H624 H 0.79936 0.90912 0.55092
 H625 H 0.72537 0.84307 0.48294
 H626 H 0.73252 0.81983 0.45357
 H627 H 0.79504 0.84162 0.45377
 H628 H 0.78629 0.86484 0.48258
 C629 C 0.73556 0.82912 0.56060
 C630 C 0.69224 0.91550 0.49280
 C631 C 0.76442 0.82888 0.45102
 C632 C 0.80128 0.91980 0.51956
 C633 C 0.00824 0.21615 0.40294
 H634 H 0.02319 0.22308 0.40136
 C635 C 0.00534 0.20002 0.41655
 H636 H 0.01832 0.19440 0.42506
 C637 C -0.02668 0.21505 0.39345
 H638 H -0.03922 0.22127 0.38478
 C639 C -0.03033 0.19909 0.40709
 H640 H -0.04575 0.19326 0.40869
 N641 N -0.00758 0.22309 0.39149
 C642 C 0.02547 0.25455 0.34288
 H643 H 0.01812 0.26949 0.34381
 C644 C 0.04145 0.25115 0.32899
 H645 H 0.04639 0.26355 0.31924
 C646 C 0.02765 0.22009 0.35419
 H647 H 0.02201 0.20793 0.36381
 C648 C 0.04348 0.21592 0.34028
 H649 H 0.05022 0.20066 0.33959
 Zn650 Zn -0.00258 0.24539 0.37381
 N651 N 0.01920 0.23926 0.35545
 C652 C 0.02245 0.27775 0.39020
 N653 N 0.00372 0.26862 0.39069
 C654 C -0.01108 0.27541 0.40386
 C655 C -0.00764 0.29254 0.41664
 C656 C 0.02661 0.29484 0.40286
 C657 C -0.03285 0.23495 0.34541
 C658 C -0.04985 0.23775 0.33288
 C659 C -0.05186 0.27310 0.34508
 C660 C -0.03487 0.26958 0.35745
 N661 N -0.02589 0.25065 0.35758
 H662 H 0.03425 0.27176 0.38013
 H663 H -0.02567 0.26757 0.40428
 H664 H -0.01963 0.29776 0.42698
 H665 H 0.04148 0.30212 0.40206
 H666 H -0.02523 0.22014 0.34559
 H667 H -0.05540 0.22489 0.32368
 H668 H -0.05861 0.28834 0.34499
 H669 H -0.02872 0.28208 0.36668
 C670 C 0.05070 0.23164 0.32764
 C671 C -0.01419 0.19125 0.41882
 C672 C -0.05964 0.25704 0.33262
 C673 C 0.01139 0.30255 0.41616
 C674 C -0.00903 0.72894 0.09404
 H675 H -0.02350 0.73702 0.09454
 C676 C -0.00621 0.71239 0.08034
 H677 H -0.01859 0.70782 0.07026
 C678 C 0.02487 0.72548 0.10627
 H679 H 0.03706 0.73084 0.11613
 C680 C 0.02841 0.70898 0.09265
 H681 H 0.04321 0.70147 0.09250
 N682 N 0.00626 0.73488 0.10694
 C683 C -0.02878 0.76766 0.15431
 H684 H -0.02089 0.78232 0.15447
 C685 C -0.04561 0.76472 0.16715
 H686 H -0.05055 0.77717 0.17728
 C687 C -0.03148 0.73341 0.14130
 H688 H -0.02572 0.72113 0.13148
 C689 C -0.04829 0.72975 0.15399
 H690 H -0.05559 0.71477 0.15345
 Zn691 Zn 0.00087 0.75751 0.12489
 N692 N -0.02225 0.75221 0.14152
 C693 C -0.02268 0.78925 0.10682
 N694 N -0.00382 0.78056 0.10817
 C695 C 0.01207 0.78732 0.09661
 C696 C 0.00951 0.80389 0.08351
 C697 C -0.02601 0.80567 0.09367
 C698 C 0.02960 0.74652 0.15444
 C699 C 0.04601 0.74911 0.16787
 C700 C 0.04818 0.78477 0.15798
 C701 C 0.03189 0.78140 0.14453
 N702 N 0.02317 0.76242 0.14277
 H703 H -0.03529 0.78317 0.11558
 H704 H 0.02683 0.77987 0.09770
 H705 H 0.02256 0.80934 0.07492
 H706 H -0.04126 0.81201 0.09251
 H707 H 0.02212 0.73168 0.15306
 H708 H 0.05127 0.73601 0.17644
 H709 H 0.05467 0.80008 0.15932
 H710 H 0.02606 0.79407 0.13575
 C711 C -0.05561 0.74556 0.16707
 C712 C 0.01268 0.70214 0.07960
 C713 C 0.05561 0.76845 0.16976
 C714 C -0.00977 0.81330 0.08181
 C715 C 0.49149 0.21441 0.60781
 H716 H 0.47715 0.21598 0.61591
 C717 C 0.49481 0.19715 0.59511
 H718 H 0.48295 0.18558 0.59358
 C719 C 0.52444 0.22733 0.59996
 H720 H 0.53582 0.23932 0.60181
 C721 C 0.52850 0.21019 0.58733
 H722 H 0.54304 0.20908 0.57937
 N723 N 0.50608 0.22926 0.60968
 C724 C 0.47926 0.25070 0.66290
 H725 H 0.49403 0.25197 0.67014
 C726 C 0.46180 0.24883 0.67509
 H727 H 0.46345 0.24827 0.69159
 C728 C 0.45916 0.24984 0.63274
 H729 H 0.45829 0.25049 0.61619
 C730 C 0.44129 0.24791 0.64435
 H731 H 0.42668 0.24714 0.63662
 Zn732 Zn 0.50144 0.25356 0.62562
 N733 N 0.47769 0.25087 0.64211
 C734 C 0.49133 0.29451 0.61654
 N735 N 0.49737 0.27615 0.60811
 C736 C 0.49976 0.27370 0.58749
 C737 C 0.49638 0.29021 0.57449
 C738 C 0.48776 0.31144 0.60410
 C739 C 0.53121 0.24210 0.65399
 C740 C 0.54792 0.24462 0.66706
 C741 C 0.55110 0.27979 0.65584
 C742 C 0.53438 0.27656 0.64290
 N743 N 0.52461 0.25804 0.64246
 H744 H 0.48921 0.29594 0.63297
 H745 H 0.50427 0.25894 0.58102
 H746 H 0.49872 0.28800 0.55815
 H747 H 0.48277 0.32587 0.61107
 H748 H 0.52326 0.22748 0.65320
 H749 H 0.55266 0.23189 0.67646
 H750 H 0.55867 0.29464 0.65603
 H751 H 0.52920 0.28892 0.63333
 C752 C 0.44250 0.24730 0.66583
 C753 C 0.51345 0.19499 0.58458
 C754 C 0.55797 0.26373 0.66823
 C755 C 0.49029 0.30941 0.58275
 C756 C 0.50832 0.71164 0.90290
 H757 H 0.52348 0.71779 0.90039
 C758 C 0.50558 0.69519 0.91613
 H759 H 0.51889 0.68853 0.92325
 C760 C 0.47279 0.71283 0.89614
 H761 H 0.46001 0.72006 0.88866
 C762 C 0.46928 0.69668 0.90962
 H763 H 0.45370 0.69178 0.91233
 N764 N 0.49211 0.71980 0.89288
 C765 C 0.52663 0.75201 0.84593
 H766 H 0.52028 0.76733 0.84786
 C767 C 0.54277 0.74860 0.83221
 H768 H 0.54897 0.76154 0.82398
 C769 C 0.52633 0.71672 0.85467
 H770 H 0.51955 0.70423 0.86306
 C771 C 0.54232 0.71257 0.84095
 H772 H 0.54767 0.69685 0.83904
 Zn773 Zn 0.49724 0.74231 0.87550
 N774 N 0.51908 0.73627 0.85717
 C775 C 0.52303 0.77271 0.89413
 N776 N 0.50366 0.76515 0.89282
 C777 C 0.48832 0.77305 0.90470
 C778 C 0.49194 0.78982 0.91790
 C779 C 0.52741 0.78928 0.90740
 C780 C 0.46578 0.73214 0.84821
 C781 C 0.44893 0.73540 0.83558
 C782 C 0.44987 0.77154 0.84515
 C783 C 0.46660 0.76754 0.85775
 N784 N 0.47405 0.74804 0.85922
 H785 H 0.53518 0.76576 0.88512
 H786 H 0.47318 0.76638 0.90378
 H787 H 0.47952 0.79604 0.92713
 H788 H 0.54285 0.79526 0.90819
 H789 H 0.47224 0.71685 0.84936
 H790 H 0.44232 0.72239 0.82737
 H791 H 0.44445 0.78724 0.84393
 H792 H 0.47385 0.78013 0.86600
 C793 C 0.55093 0.72866 0.82961
 C794 C 0.48582 0.68747 0.91976
 C795 C 0.44073 0.75534 0.83388
 C796 C 0.51169 0.79814 0.91932
 C797 C 0.11762 0.21740 0.27054
 C798 C 0.12718 0.23415 0.26102
 C799 C 0.14368 0.23100 0.24768
 C800 C 0.15091 0.21099 0.24322
 C801 C 0.14113 0.19419 0.25244
 C802 C 0.12477 0.19736 0.26601
 C803 C 0.10045 0.22089 0.28529
 C804 C 0.08410 0.20684 0.28644
 C805 C 0.06804 0.21020 0.30033
 C806 C 0.06783 0.22782 0.31315
 C807 C 0.08409 0.24188 0.31203
 C808 C 0.10028 0.23839 0.29838
 H809 H 0.15098 0.24435 0.24114
 H810 H 0.14607 0.17854 0.24916
 H811 H 0.05556 0.19924 0.30077
 H812 H 0.08441 0.25544 0.32198
 H813 H 0.11797 0.18409 0.27320
 H814 H 0.08352 0.19339 0.27639
 H815 H 0.12189 0.24977 0.26382
 H816 H 0.11279 0.24930 0.29831
 C817 C 0.61933 0.71408 0.77408
 C818 C 0.61680 0.71483 0.75268
 C819 C 0.63349 0.71199 0.73949
 C820 C 0.65304 0.70810 0.74737
 C821 C 0.65559 0.70709 0.76869
 C822 C 0.63896 0.71016 0.78191
 C823 C 0.60164 0.71758 0.78817
 C824 C 0.59991 0.70663 0.80652
 C825 C 0.58351 0.71021 0.81991
 C826 C 0.56828 0.72469 0.81522
 C827 C 0.56989 0.73547 0.79677
 C828 C 0.58640 0.73204 0.78347
 H829 H 0.63108 0.71258 0.72308
 H830 H 0.67057 0.70436 0.77515
 H831 H 0.58293 0.70180 0.83409
 H832 H 0.55832 0.74651 0.79248
 H833 H 0.64157 0.70986 0.79829
 H834 H 0.61119 0.69517 0.81052
 H835 H 0.60187 0.71740 0.74608
 H836 H 0.58734 0.74097 0.76963
 C837 C 0.37219 0.77115 0.78017
 C838 C 0.36151 0.75484 0.77063
 C839 C 0.34555 0.75882 0.75706
 C840 C 0.34004 0.77921 0.75255
 C841 C 0.35063 0.79551 0.76228
 C842 C 0.36646 0.79152 0.77600
 C843 C 0.38953 0.76693 0.79408
 C844 C 0.39152 0.77779 0.81279
 C845 C 0.40801 0.77393 0.82577
 C846 C 0.42300 0.75926 0.82023
 C847 C 0.42096 0.74844 0.80145
 C848 C 0.40437 0.75216 0.78858
 H849 H 0.33747 0.74590 0.75016
 H850 H 0.34704 0.81139 0.75891
 H851 H 0.40888 0.78229 0.84026
 H852 H 0.43238 0.73734 0.79647
 H853 H 0.37460 0.80438 0.78296
 H854 H 0.38017 0.78909 0.81750
 H855 H 0.36543 0.73899 0.77380
 H856 H 0.40336 0.74379 0.77410
 C857 C -0.12971 0.27082 0.28036
 C858 C -0.13826 0.25466 0.26868
 C859 C -0.15466 0.25826 0.25554
 C860 C -0.16303 0.27824 0.25353
 C861 C -0.15440 0.29433 0.26563
 C862 C -0.13805 0.29064 0.27882
 C863 C -0.11192 0.26708 0.29387
 C864 C -0.11098 0.27617 0.31357
 C865 C -0.09408 0.27284 0.32617
 C866 C -0.07770 0.26044 0.31931
 C867 C -0.07868 0.25136 0.29959
 C868 C -0.09562 0.25460 0.28704
 H869 H -0.16108 0.24503 0.24757
 H870 H -0.15939 0.31014 0.26433
 H871 H -0.09398 0.27978 0.34139
 H872 H -0.06618 0.24202 0.29368
 H873 H -0.13152 0.30348 0.28738
 H874 H -0.12344 0.28564 0.31934
 H875 H -0.13241 0.23910 0.26992
 H876 H -0.09579 0.24766 0.27181
 C877 C -0.12494 0.73174 0.22073
 C878 C -0.13411 0.71223 0.22170
 C879 C -0.15039 0.70870 0.23511
 C880 C -0.15813 0.72462 0.24807
 C881 C -0.14894 0.74430 0.24670
 C882 C -0.13262 0.74775 0.23329
 C883 C -0.10724 0.73527 0.20686
 C884 C -0.10537 0.75382 0.19616
 C885 C -0.08861 0.75717 0.18327
 C886 C -0.07341 0.74201 0.18072
 C887 C -0.07530 0.72345 0.19135
 C888 C -0.09199 0.72014 0.20430
 H889 H -0.15610 0.69309 0.23579
 H890 H -0.15457 0.75742 0.25547
 H891 H -0.08770 0.77151 0.17506
 H892 H -0.06366 0.71162 0.18993
 H893 H -0.12586 0.76298 0.23297
 H894 H -0.11700 0.76566 0.19754
 H895 H -0.12867 0.69959 0.21208
 H896 H -0.09276 0.70585 0.21261
 C897 C 0.37122 0.23521 0.71727
 C898 C 0.36389 0.21513 0.72007
 C899 C 0.34750 0.21146 0.73330
 C900 C 0.33784 0.22780 0.74425
 C901 C 0.34529 0.24799 0.74115
 C902 C 0.36169 0.25159 0.72789
 C903 C 0.38905 0.23893 0.70366
 C904 C 0.40439 0.25298 0.70959
 C905 C 0.42157 0.25589 0.69719
 C906 C 0.42382 0.24486 0.67857
 C907 C 0.40831 0.23107 0.67247
 C908 C 0.39114 0.22812 0.68489
 H909 H 0.34324 0.19555 0.73555
 H910 H 0.33809 0.26131 0.74828
 H911 H 0.43314 0.26681 0.70219
 H912 H 0.40968 0.22221 0.65829
 H913 H 0.36674 0.26731 0.72571
 H914 H 0.40332 0.26140 0.72404
 H915 H 0.37122 0.20211 0.71245
 H916 H 0.37947 0.21737 0.67980
 C917 C 0.62554 0.27613 0.72444
 C918 C 0.63495 0.29548 0.72660
 C919 C 0.65134 0.29838 0.74004
 C920 C 0.65897 0.28196 0.75180
 C921 C 0.64921 0.26259 0.74959
 C922 C 0.63280 0.25977 0.73617
 C923 C 0.60826 0.27300 0.70996
 C924 C 0.60669 0.25468 0.69818
 C925 C 0.59041 0.25168 0.68463
 C926 C 0.57538 0.26697 0.68247
 C927 C 0.57698 0.28532 0.69414
 C928 C 0.59321 0.28828 0.70776
 H929 H 0.65745 0.31382 0.74153
 H930 H 0.65463 0.24913 0.75747
 H931 H 0.58972 0.23751 0.67562
 H932 H 0.56546 0.29724 0.69302
 H933 H 0.62577 0.24468 0.73500
 H934 H 0.61822 0.24276 0.69923
 H935 H 0.62977 0.30843 0.71773
 H936 H 0.59378 0.30241 0.71684
 C937 C 0.12485 0.77995 0.22444
 C938 C 0.14465 0.78275 0.21644
 C939 C 0.16136 0.78547 0.22952
 C940 C 0.15869 0.78518 0.25087
 C941 C 0.13900 0.78227 0.25893
 C942 C 0.12224 0.77982 0.24588
 C943 C 0.10703 0.77713 0.21051
 C944 C 0.09093 0.76380 0.21567
 C945 C 0.07421 0.76114 0.20259
 C946 C 0.07325 0.77155 0.18388
 C947 C 0.08937 0.78486 0.17871
 C948 C 0.10597 0.78770 0.19189
 H949 H 0.17645 0.78746 0.22295
 H950 H 0.13654 0.78224 0.27537
 H951 H 0.06196 0.75102 0.20727
 H952 H 0.08933 0.79292 0.16432
 H953 H 0.10720 0.77812 0.25261
 H954 H 0.09131 0.75518 0.22972
 H955 H 0.14734 0.78253 0.20005
 H956 H 0.11791 0.79833 0.18753
 C957 C 0.27594 0.12331 0.22467
 C958 C 0.27221 0.12969 0.20457
 C959 C 0.25834 0.14557 0.20086
 C960 C 0.24811 0.15568 0.21720
 C961 C 0.25210 0.14939 0.23735
 C962 C 0.26574 0.13327 0.24102
 C963 C 0.29033 0.10618 0.22852
 C964 C 0.28466 0.08995 0.24129
 C965 C 0.29807 0.07354 0.24457
 C966 C 0.31759 0.07317 0.23539
 C967 C 0.32327 0.08963 0.22278
 C968 C 0.30973 0.10586 0.21926
 H969 H 0.25537 0.14965 0.18512
 H970 H 0.24484 0.15705 0.25034
 H971 H 0.29296 0.06099 0.25403
 H972 H 0.33829 0.09015 0.21579
 H973 H 0.26855 0.12876 0.25668
 H974 H 0.26967 0.08974 0.24840
 H975 H 0.27972 0.12206 0.19169
 H976 H 0.31452 0.11834 0.20952
 C977 C 0.77434 0.61745 0.72125
 C978 C 0.78145 0.63768 0.71838
 C979 C 0.76770 0.65384 0.71533
 C980 C 0.74655 0.65020 0.71532
 C981 C 0.73938 0.63006 0.71825
 C982 C 0.75312 0.61384 0.72106
 C983 C 0.78899 0.60024 0.72458
 C984 C 0.78418 0.58431 0.73813
 C985 C 0.79796 0.56823 0.74136
 C986 C 0.81702 0.56774 0.73131
 C987 C 0.82183 0.58367 0.71775
 C988 C 0.80796 0.59965 0.71436
 H989 H 0.77360 0.66929 0.71336
 H990 H 0.72314 0.62682 0.71806
 H991 H 0.79356 0.55608 0.75166
 H992 H 0.83644 0.58396 0.70992
 H993 H 0.74710 0.59843 0.72282
 H994 H 0.76985 0.58437 0.74649
 H995 H 0.79763 0.64113 0.71883
 H996 H 0.81208 0.61148 0.70359
 C997 C 0.78183 0.37033 0.77265
 C998 C 0.77276 0.35983 0.75601
 C999 C 0.75945 0.34336 0.75930
 C1000 C 0.75472 0.33716 0.77933
 C1001 C 0.76394 0.34764 0.79597
 C1002 C 0.77743 0.36396 0.79265
 C1003 C 0.79557 0.38810 0.76918
 C1004 C 0.81419 0.38986 0.77972
 C1005 C 0.82708 0.40669 0.77650
 C1006 C 0.82152 0.42227 0.76282
 C1007 C 0.80279 0.42048 0.75238
 C1008 C 0.79003 0.40353 0.75544
 H1009 H 0.75295 0.33539 0.74612
 H1010 H 0.76037 0.34356 0.81160
 H1011 H 0.84154 0.40734 0.78452
 H1012 H 0.79779 0.43235 0.74207
 H1013 H 0.78404 0.37197 0.80576
 H1014 H 0.81891 0.37804 0.79024
 H1015 H 0.77612 0.36428 0.74042
 H1016 H 0.77561 0.40268 0.74735
 C1017 C 0.27909 -0.12365 0.27593
 C1018 C 0.27705 -0.13242 0.29531
 C1019 C 0.26349 -0.14874 0.29842
 C1020 C 0.25159 -0.15698 0.28212
 C1021 C 0.25404 -0.14808 0.26260
 C1022 C 0.26748 -0.13166 0.25962
 C1023 C 0.29319 -0.10609 0.27270
 C1024 C 0.28691 -0.08908 0.26128
 C1025 C 0.30017 -0.07255 0.25810
 C1026 C 0.32012 -0.07273 0.26610
 C1027 C 0.32637 -0.08978 0.27757
 C1028 C 0.31302 -0.10624 0.28090
 H1029 H 0.26187 -0.15412 0.31393
 H1030 H 0.24628 -0.15415 0.24919
 H1031 H 0.29467 -0.05950 0.24958
 H1032 H 0.34171 -0.09060 0.28369
 H1033 H 0.26909 -0.12545 0.24439
 H1034 H 0.27159 -0.08843 0.25505
 H1035 H 0.28559 -0.12629 0.30825
 H1036 H 0.31832 -0.11928 0.28957
 C1037 C 0.22624 -0.12237 0.72302
 C1038 C 0.24475 -0.12341 0.73379
 C1039 C 0.25818 -0.13995 0.73069
 C1040 C 0.25347 -0.15636 0.71690
 C1041 C 0.23465 -0.15520 0.70631
 C1042 C 0.22144 -0.13845 0.70918
 C1043 C 0.21199 -0.10462 0.72619
 C1044 C 0.19066 -0.10746 0.72503
 C1045 C 0.17732 -0.09080 0.72782
 C1046 C 0.18496 -0.07101 0.73223
 C1047 C 0.20617 -0.06810 0.73359
 C1048 C 0.21955 -0.08467 0.73041
 H1049 H 0.27255 -0.13920 0.73878
 H1050 H 0.22943 -0.16746 0.69620
 H1051 H 0.16099 -0.09342 0.72693
 H1052 H 0.21238 -0.05290 0.73678
 H1053 H 0.20744 -0.13816 0.70039
 H1054 H 0.18420 -0.12261 0.72228
 H1055 H 0.24893 -0.11144 0.74478
 H1056 H 0.23582 -0.08173 0.73099
 C1057 C 0.72451 0.37771 0.22668
 C1058 C 0.73671 0.37597 0.20888
 C1059 C 0.74943 0.35889 0.20565
 C1060 C 0.75060 0.34343 0.22034
 C1061 C 0.73874 0.34515 0.23823
 C1062 C 0.72566 0.36199 0.24128
 C1063 C 0.71062 0.39573 0.22997
 C1064 C 0.70660 0.40354 0.24985
 C1065 C 0.69330 0.42018 0.25296
 C1066 C 0.68395 0.42981 0.23625
 C1067 C 0.68820 0.42219 0.21635
 C1068 C 0.70116 0.40527 0.21327
 H1069 H 0.75863 0.35789 0.19182
 H1070 H 0.73931 0.33324 0.24966
 H1071 H 0.69021 0.42531 0.26854
 H1072 H 0.68164 0.42935 0.20302
 H1073 H 0.71623 0.36246 0.25494
 H1074 H 0.71383 0.39691 0.26311
 H1075 H 0.73665 0.38791 0.19750
 H1076 H 0.70355 0.39957 0.19775
 C1077 C 0.72570 0.62809 0.27300
 C1078 C 0.71946 0.64575 0.28422
 C1079 C 0.73289 0.66219 0.28760
 C1080 C 0.75314 0.66130 0.28027
 C1081 C 0.75945 0.64356 0.26922
 C1082 C 0.74587 0.62731 0.26545
 C1083 C 0.71129 0.61058 0.26932
 C1084 C 0.71850 0.59011 0.26807
 C1085 C 0.70499 0.57372 0.26468
 C1086 C 0.68395 0.57737 0.26295
 C1087 C 0.67661 0.59766 0.26429
 C1088 C 0.69015 0.61411 0.26718
 H1089 H 0.72729 0.67568 0.29585
 H1090 H 0.77498 0.64208 0.26360
 H1091 H 0.71089 0.55811 0.26388
 H1092 H 0.66041 0.60076 0.26283
 H1093 H 0.75123 0.61420 0.25644
 H1094 H 0.73454 0.58663 0.27007
 H1095 H 0.70421 0.64686 0.29064
 H1096 H 0.68400 0.62961 0.26755
 C1097 C 0.22513 0.12787 0.77105
 C1098 C 0.23045 0.13447 0.79093
 C1099 C 0.24336 0.15142 0.79391
 C1100 C 0.25096 0.16235 0.77706
 C1101 C 0.24556 0.15566 0.75714
 C1102 C 0.23290 0.13851 0.75418
 C1103 C 0.21133 0.11002 0.76793
 C1104 C 0.21641 0.09420 0.75386
 C1105 C 0.20339 0.07732 0.75098
 C1106 C 0.18482 0.07605 0.76188
 C1107 C 0.17974 0.09205 0.77587
 C1108 C 0.19293 0.10876 0.77897
 H1109 H 0.24752 0.15582 0.80943
 H1110 H 0.25079 0.16390 0.74382
 H1111 H 0.20804 0.06514 0.74041
 H1112 H 0.16542 0.09186 0.78423
 H1113 H 0.22882 0.13381 0.73871
 H1114 H 0.23064 0.09475 0.74534
 H1115 H 0.22482 0.12633 0.80417
 H1116 H 0.18857 0.12092 0.78972
 C1117 C 0.22043 0.27181 0.12196
 C1118 C 0.20214 0.26046 0.12338
 C1119 C 0.19892 0.24699 0.13957
 C1120 C 0.21404 0.24426 0.15449
 C1121 C 0.23241 0.25531 0.15301
 C1122 C 0.23551 0.26907 0.13704
 C1123 C 0.22371 0.28652 0.10493
 C1124 C 0.24332 0.28953 0.09658
 C1125 C 0.24643 0.30356 0.08084
 C1126 C 0.22997 0.31474 0.07276
 C1127 C 0.21032 0.31156 0.08097
 C1128 C 0.20726 0.29778 0.09693
 H1129 H 0.18471 0.23844 0.14030
 H1130 H 0.24420 0.25360 0.16449
 H1131 H 0.26184 0.30577 0.07518
 H1132 H 0.19718 0.31959 0.07497
 H1133 H 0.24960 0.27780 0.13675
 H1134 H 0.25633 0.28094 0.10207
 H1135 H 0.19035 0.26179 0.11187
 H1136 H 0.19199 0.29617 0.10313
 C1137 C 0.72129 0.77181 0.62637
 C1138 C 0.70134 0.76602 0.63196
 C1139 C 0.69805 0.75191 0.64758
 C1140 C 0.71462 0.74341 0.65823
 C1141 C 0.73456 0.74930 0.65273
 C1142 C 0.73786 0.76321 0.63693
 C1143 C 0.72481 0.78670 0.60957
 C1144 C 0.74109 0.80088 0.61063
 C1145 C 0.74459 0.81460 0.59471
 C1146 C 0.73173 0.81468 0.57753
 C1147 C 0.71534 0.80075 0.57650
 C1148 C 0.71200 0.78681 0.59227
 H1149 H 0.68250 0.74753 0.65118
 H1150 H 0.74769 0.74332 0.66077
 H1151 H 0.75720 0.82538 0.59595
 H1152 H 0.70537 0.80034 0.56327
 H1153 H 0.75345 0.76703 0.63288
 H1154 H 0.75101 0.80157 0.62387
 H1155 H 0.68818 0.77253 0.62439
 H1156 H 0.69958 0.77588 0.59070
 C1157 C 0.78166 0.77535 0.38068
 C1158 C 0.78265 0.75377 0.38247
 C1159 C 0.78573 0.74111 0.36516
 C1160 C 0.78814 0.74975 0.34571
 C1161 C 0.78749 0.77128 0.34390
 C1162 C 0.78417 0.78393 0.36116
 C1163 C 0.77767 0.78883 0.39897
 C1164 C 0.78700 0.80830 0.40091
 C1165 C 0.78275 0.82122 0.41777
 C1166 C 0.76921 0.81495 0.43325
 C1167 C 0.76011 0.79535 0.43147
 C1168 C 0.76421 0.78251 0.41451
 H1169 H 0.78640 0.72456 0.36697
 H1170 H 0.78902 0.77829 0.32902
 H1171 H 0.78985 0.83629 0.41847
 H1172 H 0.74986 0.78985 0.44323
 H1173 H 0.78311 0.80042 0.35910
 H1174 H 0.79768 0.81357 0.38942
 H1175 H 0.78117 0.74664 0.39729
 H1176 H 0.75653 0.76775 0.41342
 C1177 C 0.27227 0.28204 -0.12729
 C1178 C 0.27486 0.26063 -0.12519
 C1179 C 0.27802 0.24788 -0.14240
 C1180 C 0.27904 0.25625 -0.16206
 C1181 C 0.27681 0.27761 -0.16425
 C1182 C 0.27329 0.29036 -0.14708
 C1183 C 0.26841 0.29554 -0.10895
 C1184 C 0.27619 0.31575 -0.10788
 C1185 C 0.27246 0.32841 -0.09069
 C1186 C 0.26109 0.32111 -0.07397
 C1187 C 0.25342 0.30086 -0.07499
 C1188 C 0.25688 0.28832 -0.09230
 H1189 H 0.27997 0.23145 -0.14034
 H1190 H 0.27737 0.28437 -0.17932
 H1191 H 0.27836 0.34400 -0.09064
 H1192 H 0.24488 0.29453 -0.06233
 H1193 H 0.27101 0.30669 -0.14938
 H1194 H 0.28537 0.32179 -0.12024
 H1195 H 0.27467 0.25368 -0.11022
 H1196 H 0.25033 0.27300 -0.09266
 C1197 C 0.72462 0.22173 -0.12478
 C1198 C 0.71449 0.21487 -0.14264
 C1199 C 0.71211 0.22788 -0.15932
 C1200 C 0.71935 0.24830 -0.15847
 C1201 C 0.72928 0.25523 -0.14053
 C1202 C 0.73208 0.24208 -0.12403
 C1203 C 0.72741 0.20775 -0.10706
 C1204 C 0.72771 0.21568 -0.08679
 C1205 C 0.73073 0.20263 -0.07024
 C1206 C 0.73300 0.18134 -0.07354
 C1207 C 0.73241 0.17326 -0.09360
 C1208 C 0.72989 0.18634 -0.11021
 H1209 H 0.70470 0.22179 -0.17295
 H1210 H 0.73478 0.27093 -0.13907
 H1211 H 0.73099 0.20910 -0.05481
 H1212 H 0.73434 0.15686 -0.09642
 H1213 H 0.74029 0.24790 -0.11076
 H1214 H 0.72538 0.23194 -0.08361
 H1215 H 0.70819 0.19947 -0.14376
 H1216 H 0.73024 0.17963 -0.12552
 C1217 C 0.22537 0.72343 0.37326
 C1218 C 0.20550 0.72891 0.36721
 C1219 C 0.20246 0.74281 0.35137
 C1220 C 0.21918 0.75138 0.34092
 C1221 C 0.23905 0.74580 0.34688
 C1222 C 0.24210 0.73215 0.36293
 C1223 C 0.22864 0.70877 0.39030
 C1224 C 0.24530 0.69501 0.38988
 C1225 C 0.24862 0.68159 0.40607
 C1226 C 0.23516 0.68136 0.42287
 C1227 C 0.21835 0.69480 0.42323
 C1228 C 0.21521 0.70848 0.40722
 H1229 H 0.18694 0.74696 0.34746
 H1230 H 0.25231 0.75181 0.33902
 H1231 H 0.26158 0.67119 0.40537
 H1232 H 0.20791 0.69506 0.43617
 H1233 H 0.25763 0.72860 0.36734
 H1234 H 0.25571 0.69443 0.37694
 H1235 H 0.19222 0.72233 0.37456
 H1236 H 0.20246 0.71909 0.40833
 C1237 C 0.28113 0.72713 0.61979
 C1238 C 0.28273 0.74861 0.61741
 C1239 C 0.28574 0.76165 0.63444
 C1240 C 0.28748 0.75351 0.65416
 C1241 C 0.28615 0.73209 0.65656
 C1242 C 0.28289 0.71906 0.63959
 C1243 C 0.27741 0.71322 0.60177
 C1244 C 0.28633 0.69349 0.60068
 C1245 C 0.28242 0.68020 0.58406
 C1246 C 0.26969 0.68635 0.56794
 C1247 C 0.26098 0.70618 0.56889
 C1248 C 0.26471 0.71940 0.58564
 H1249 H 0.28691 0.77812 0.63218
 H1250 H 0.28715 0.72546 0.67165
 H1251 H 0.28917 0.66496 0.58403
 H1252 H 0.25134 0.71159 0.55664
 H1253 H 0.28132 0.70267 0.64210
 H1254 H 0.29644 0.68830 0.61264
 H1255 H 0.28183 0.75535 0.60238
 H1256 H 0.25736 0.73436 0.58605
 C1257 C 0.77413 0.22426 0.12427
 C1258 C 0.77535 0.24572 0.12162
 C1259 C 0.77857 0.25900 0.13843
 C1260 C 0.78087 0.25111 0.15820
 C1261 C 0.77978 0.22970 0.16087
 C1262 C 0.77634 0.21644 0.14413
 C1263 C 0.77056 0.21008 0.10643
 C1264 C 0.78013 0.19067 0.10532
 C1265 C 0.77664 0.17726 0.08870
 C1266 C 0.76364 0.18297 0.07262
 C1267 C 0.75415 0.20243 0.07367
 C1268 C 0.75751 0.21578 0.09040
 H1269 H 0.77956 0.27544 0.13594
 H1270 H 0.78120 0.22326 0.17601
 H1271 H 0.78399 0.16230 0.08857
 H1272 H 0.74428 0.20748 0.06146
 H1273 H 0.77509 0.20006 0.14682
 H1274 H 0.79050 0.18586 0.11722
 H1275 H 0.77409 0.25226 0.10652
 H1276 H 0.74967 0.23049 0.09085
 C1277 C 0.47720 0.37810 0.52867
 C1278 C 0.48093 0.37560 0.50753
 C1279 C 0.47803 0.39200 0.49425
 C1280 C 0.47127 0.41126 0.50180
 C1281 C 0.46755 0.41379 0.52294
 C1282 C 0.47054 0.39740 0.53624
 C1283 C 0.48023 0.36062 0.54272
 C1284 C 0.48960 0.36371 0.56189
 C1285 C 0.49276 0.34714 0.57494
 C1286 C 0.48657 0.32713 0.56911
 C1287 C 0.47700 0.32410 0.55002
 C1288 C 0.47389 0.34065 0.53697
 H1289 H 0.48082 0.38954 0.47801
 H1290 H 0.46251 0.42851 0.52921
 H1291 H 0.50043 0.34993 0.58942
 H1292 H 0.47170 0.30895 0.54525
 H1293 H 0.46738 0.39974 0.55243
 H1294 H 0.49488 0.37889 0.56663
 H1295 H 0.48629 0.36098 0.50127
 H1296 H 0.46630 0.33785 0.52245
 C1297 C -0.02239 0.88092 0.02632
 C1298 C -0.00567 0.89134 0.01782
 C1299 C -0.00877 0.90761 0.00441
 C1300 C -0.02869 0.91360 -0.00104
 C1301 C -0.04539 0.90300 0.00742
 C1302 C -0.04227 0.88694 0.02107
 C1303 C -0.01910 0.86372 0.04055
 C1304 C -0.02989 0.86296 0.05916
 C1305 C -0.02675 0.84674 0.07261
 C1306 C -0.01297 0.83073 0.06760
 C1307 C -0.00231 0.83150 0.04883
 C1308 C -0.00523 0.84789 0.03554
 H1309 H 0.00445 0.91566 -0.00147
 H1310 H -0.06092 0.90687 0.00327
 H1311 H -0.03494 0.84690 0.08707
 H1312 H 0.00808 0.81927 0.04421
 H1313 H -0.05540 0.87895 0.02724
 H1314 H -0.04051 0.87513 0.06344
 H1315 H 0.00982 0.88709 0.02183
 H1316 H 0.00307 0.84802 0.02114
 C1317 C 0.02537 0.63270 0.02379
 C1318 C 0.04477 0.62367 0.02165
 C1319 C 0.04786 0.60678 0.00841
 C1320 C 0.03158 0.59816 -0.00311
 C1321 C 0.01211 0.60746 -0.00084
 C1322 C 0.00911 0.62443 0.01233
 C1323 C 0.02209 0.65059 0.03802
 C1324 C 0.00399 0.65232 0.04964
 C1325 C 0.00092 0.66909 0.06305
 C1326 C 0.01594 0.68444 0.06527
 C1327 C 0.03406 0.68273 0.05375
 C1328 C 0.03707 0.66605 0.04021
 H1329 H 0.06334 0.60111 0.00686
 H1330 H -0.00124 0.60131 -0.00852
 H1331 H -0.01307 0.66989 0.07196
 H1332 H 0.04576 0.69449 0.05497
 H1333 H -0.00603 0.63112 0.01347
 H1334 H -0.00769 0.64052 0.04865
 H1335 H 0.05764 0.62956 0.03035
 H1336 H 0.05102 0.66541 0.03123
 C1337 C 0.52706 0.12579 0.52865
 C1338 C 0.54663 0.12165 0.52051
 C1339 C 0.54979 0.10493 0.50703
 C1340 C 0.53342 0.09216 0.50118
 C1341 C 0.51387 0.09629 0.50917
 C1342 C 0.51074 0.11282 0.52285
 C1343 C 0.52363 0.14356 0.54305
 C1344 C 0.50526 0.15485 0.54253
 C1345 C 0.50192 0.17139 0.55615
 C1346 C 0.51696 0.17722 0.57042
 C1347 C 0.53538 0.16613 0.57089
 C1348 C 0.53863 0.14939 0.55745
 H1349 H 0.56498 0.10216 0.50091
 H1350 H 0.50105 0.08647 0.50511
 H1351 H 0.48770 0.17990 0.55527
 H1352 H 0.54714 0.17022 0.58189
 H1353 H 0.49556 0.11524 0.52911
 H1354 H 0.49354 0.15112 0.53139
 H1355 H 0.55948 0.13150 0.52431
 H1356 H 0.55280 0.14086 0.55857
 C1357 C -0.02825 0.12489 0.47598
 C1358 C -0.02756 0.12868 0.49730
 C1359 C -0.03086 0.11272 0.51105
 C1360 C -0.03521 0.09269 0.50382
 C1361 C -0.03604 0.08886 0.48259
 C1362 C -0.03246 0.10474 0.46882
 C1363 C -0.02461 0.14187 0.46132
 C1364 C -0.03537 0.14259 0.44270
 C1365 C -0.03189 0.15847 0.42891
 C1366 C -0.01773 0.17421 0.43344
 C1367 C -0.00705 0.17355 0.45210
 C1368 C -0.01034 0.15753 0.46579
 H1369 H -0.03038 0.11609 0.52737
 H1370 H -0.03913 0.07347 0.47665
 H1371 H -0.04021 0.15828 0.41458
 H1372 H 0.00375 0.18553 0.45630
 H1373 H -0.03272 0.10113 0.45255
 H1374 H -0.04668 0.13099 0.43884
 H1375 H -0.02477 0.14404 0.50341
 H1376 H -0.00154 0.15736 0.47982
 C1377 C 0.47318 0.61963 0.97575
 C1378 C 0.46542 0.60058 0.96871
 C1379 C 0.46216 0.58442 0.98225
 C1380 C 0.46702 0.58658 1.00326
 C1381 C 0.47506 0.60567 1.01016
 C1382 C 0.47783 0.62195 0.99670
 C1383 C 0.47639 0.63700 0.96137
 C1384 C 0.49242 0.65116 0.96449
 C1385 C 0.49529 0.66759 0.95121
 C1386 C 0.48251 0.67010 0.93412
 C1387 C 0.46659 0.65583 0.93087
 C1388 C 0.46346 0.63964 0.94441
 H1389 H 0.45668 0.56992 0.97589
 H1390 H 0.47831 0.60856 1.02622
 H1391 H 0.50747 0.67841 0.95454
 H1392 H 0.45660 0.65698 0.91775
 H1393 H 0.48325 0.63654 1.00289
 H1394 H 0.50295 0.64952 0.97712
 H1395 H 0.46218 0.59792 0.95262
 H1396 H 0.45073 0.62932 0.94162
 C1397 C 0.52698 0.86736 0.97468
 C1398 C 0.51053 0.87846 0.98339
 C1399 C 0.51400 0.89521 0.99670
 C1400 C 0.53403 0.90115 1.00192
 C1401 C 0.55048 0.88994 0.99337
 C1402 C 0.54701 0.87335 0.97984
 C1403 C 0.52324 0.84965 0.96029
 C1404 C 0.53617 0.83228 0.96012
 C1405 C 0.53258 0.81567 0.94664
 C1406 C 0.51582 0.81592 0.93326
 C1407 C 0.50287 0.83318 0.93339
 C1408 C 0.50662 0.84992 0.94663
 H1409 H 0.50095 0.90363 1.00272
 H1410 H 0.56611 0.89385 0.99725
 H1411 H 0.54265 0.80242 0.94697
 H1412 H 0.48999 0.83383 0.92303
 H1413 H 0.56008 0.86538 0.97325
 H1414 H 0.54888 0.83132 0.97064
 H1415 H 0.49489 0.87413 0.98007
 H1416 H 0.49660 0.86318 0.94597
 C1417 C 0.02618 0.37368 0.46921
 C1418 C 0.01034 0.38177 0.48148
 C1419 C 0.01381 0.39848 0.49484
 C1420 C 0.03336 0.40768 0.49652
 C1421 C 0.04914 0.39952 0.48388
 C1422 C 0.04557 0.38285 0.47048
 C1423 C 0.02253 0.35561 0.45533
 C1424 C 0.03746 0.34012 0.45286
 C1425 C 0.03391 0.32299 0.44006
 C1426 C 0.01531 0.32087 0.42953
 C1427 C 0.00040 0.33634 0.43192
 C1428 C 0.00399 0.35354 0.44462
 H1429 H 0.00078 0.40442 0.50330
 H1430 H 0.06464 0.40522 0.48479
 H1431 H 0.04557 0.31117 0.43871
 H1432 H -0.01396 0.33526 0.42375
 H1433 H 0.05811 0.37712 0.46109
 H1434 H 0.05175 0.34104 0.46115
 H1435 H -0.00480 0.37503 0.48096
 H1436 H -0.00768 0.36534 0.44586
 C1437 C 0.37481 0.52628 0.47312
 C1438 C 0.37216 0.50483 0.47128
 C1439 C 0.38909 0.49186 0.46874
 C1440 C 0.40887 0.50017 0.46756
 C1441 C 0.41149 0.52163 0.46912
 C1442 C 0.39461 0.53456 0.47207
 C1443 C 0.35699 0.54000 0.47627
 C1444 C 0.35691 0.55466 0.49238
 C1445 C 0.34007 0.56763 0.49543
 C1446 C 0.32322 0.56643 0.48218
 C1447 C 0.32336 0.55188 0.46597
 C1448 C 0.34004 0.53861 0.46317
 H1449 H 0.38676 0.47535 0.46749
 H1450 H 0.42663 0.52833 0.46837
 H1451 H 0.34032 0.57882 0.50796
 H1452 H 0.31047 0.55064 0.45564
 H1453 H 0.39697 0.55107 0.47335
 H1454 H 0.36980 0.55590 0.50272
 H1455 H 0.35702 0.49813 0.47214
 H1456 H 0.33985 0.52747 0.45059
 C1457 C 0.87596 0.02984 -0.02833
 C1458 C 0.88432 0.01921 -0.01184
 C1459 C 0.90128 0.00639 -0.01468
 C1460 C 0.91037 0.00355 -0.03427
 C1461 C 0.90181 0.01451 -0.05075
 C1462 C 0.88495 0.02751 -0.04777
 C1463 C 0.85781 0.04322 -0.02521
 C1464 C 0.85716 0.06306 -0.03348
 C1465 C 0.84020 0.07582 -0.03005
 C1466 C 0.82344 0.06893 -0.01845
 C1467 C 0.82403 0.04892 -0.01048
 C1468 C 0.84106 0.03627 -0.01373
 H1469 H 0.90756 -0.00057 -0.00115
 H1470 H 0.90735 0.01254 -0.06629
 H1471 H 0.84042 0.09124 -0.03615
 H1472 H 0.81123 0.04291 -0.00188
 H1473 H 0.87858 0.03533 -0.06082
 H1474 H 0.86997 0.06885 -0.04223
 H1475 H 0.87792 0.02111 0.00342
 H1476 H 0.84105 0.02092 -0.00745
 C1477 C 0.62855 0.02104 0.02534
 C1478 C 0.61830 0.01141 0.00883
 C1479 C 0.60187 -0.00187 0.01228
 C1480 C 0.59543 -0.00618 0.03235
 C1481 C 0.60583 0.00325 0.04887
 C1482 C 0.62205 0.01680 0.04541
 C1483 C 0.64583 0.03553 0.02164
 C1484 C 0.66238 0.03683 0.03536
 C1485 C 0.67841 0.05064 0.03202
 C1486 C 0.67844 0.06318 0.01471
 C1487 C 0.66211 0.06180 0.00086
 C1488 C 0.64589 0.04827 0.00437
 H1489 H 0.59408 -0.00855 -0.00086
 H1490 H 0.60156 0.00008 0.06456
 H1491 H 0.69097 0.05131 0.04280
 H1492 H 0.66172 0.07151 -0.01248
 H1493 H 0.62930 0.02412 0.05853
 H1494 H 0.66313 0.02700 0.04857
 H1495 H 0.62304 0.01399 -0.00684
 H1496 H 0.63326 0.04808 -0.00631
 C1497 C 0.12791 0.52567 0.52294
 C1498 C 0.11141 0.52431 0.50914
 C1499 C 0.09550 0.51034 0.51230
 C1500 C 0.09547 0.49778 0.52957
 C1501 C 0.11168 0.49918 0.54352
 C1502 C 0.12786 0.51279 0.54013
 C1503 C 0.14508 0.54038 0.51941
 C1504 C 0.15555 0.54961 0.53601
 C1505 C 0.17186 0.56309 0.53268
 C1506 C 0.17792 0.56810 0.51265
 C1507 C 0.16722 0.55913 0.49607
 C1508 C 0.15122 0.54531 0.49939
 H1509 H 0.08297 0.50959 0.50148
 H1510 H 0.11195 0.48947 0.55687
 H1511 H 0.17985 0.56935 0.54590
 H1512 H 0.17109 0.56283 0.48041
 H1513 H 0.14043 0.51298 0.55087
 H1514 H 0.15111 0.54657 0.55167
 H1515 H 0.11058 0.53423 0.49600
 H1516 H 0.14384 0.53832 0.48616
 C1517 C 0.12274 0.47676 -0.02420
 C1518 C 0.11457 0.47838 -0.04394
 C1519 C 0.09862 0.49211 -0.04777
 C1520 C 0.09013 0.50460 -0.03187
 C1521 C 0.09850 0.50266 -0.01200
 C1522 C 0.11457 0.48905 -0.00829
 C1523 C 0.13976 0.46229 -0.02020
 C1524 C 0.15655 0.46862 -0.00829
 C1525 C 0.17268 0.45505 -0.00465
 C1526 C 0.17230 0.43477 -0.01268
 C1527 C 0.15538 0.42844 -0.02449
 C1528 C 0.13934 0.44209 -0.02828
 H1529 H 0.09370 0.49336 -0.06351
 H1530 H 0.09224 0.51092 0.00112
 H1531 H 0.18563 0.46058 0.00416
 H1532 H 0.15439 0.41284 -0.03060
 H1533 H 0.12035 0.48779 0.00719
 H1534 H 0.15737 0.48421 -0.00210
 H1535 H 0.12087 0.46933 -0.05658
 H1536 H 0.12644 0.43674 -0.03729
 C1537 C 0.62369 0.97002 0.47831
 C1538 C 0.61506 0.97161 0.45875
 C1539 C 0.59878 0.98509 0.45533
 C1540 C 0.59053 0.99745 0.47144
 C1541 C 0.59924 0.99546 0.49114
 C1542 C 0.61554 0.98202 0.49447
 C1543 C 0.64127 0.95606 0.48186
 C1544 C 0.65768 0.96256 0.49422
 C1545 C 0.67423 0.94946 0.49767
 C1546 C 0.67472 0.92949 0.48890
 C1547 C 0.65832 0.92302 0.47646
 C1548 C 0.64179 0.93617 0.47296
 H1549 H 0.59349 0.98636 0.43972
 H1550 H 0.59311 1.00362 0.50440
 H1551 H 0.68678 0.95508 0.50698
 H1552 H 0.65808 0.90764 0.46973
 H1553 H 0.62157 0.98075 0.50984
 H1554 H 0.65787 0.97793 0.50100
 H1555 H 0.62127 0.96281 0.44590
 H1556 H 0.62924 0.93065 0.46356
 C1557 C 0.86858 0.97662 0.53260
 C1558 C 0.87516 0.98223 0.55239
 C1559 C 0.89168 0.99567 0.55510
 C1560 C 0.90219 1.00353 0.53806
 C1561 C 0.89558 0.99778 0.51825
 C1562 C 0.87887 0.98459 0.51557
 C1563 C 0.85113 0.96235 0.52968
 C1564 C 0.83547 0.96702 0.51586
 C1565 C 0.81915 0.95341 0.51284
 C1566 C 0.81829 0.93464 0.52334
 C1567 C 0.83401 0.93007 0.53725
 C1568 C 0.85016 0.94384 0.54048
 H1569 H 0.89606 1.00006 0.57056
 H1570 H 0.90352 1.00316 0.50478
 H1571 H 0.80714 0.95770 0.50237
 H1572 H 0.83408 0.91564 0.54534
 H1573 H 0.87423 0.98027 0.50015
 H1574 H 0.83575 0.98133 0.50755
 H1575 H 0.86731 0.97645 0.56576
 H1576 H 0.86219 0.93981 0.55107
 C1577 C 0.37182 0.47032 0.03080
 C1578 C 0.39061 0.46272 0.03784
 C1579 C 0.40731 0.47592 0.04059
 C1580 C 0.40560 0.49704 0.03634
 C1581 C 0.38681 0.50462 0.02928
 C1582 C 0.37014 0.49142 0.02651
 C1583 C 0.35401 0.45635 0.02784
 C1584 C 0.33419 0.46303 0.03306
 C1585 C 0.31735 0.45019 0.02970
 C1586 C 0.31992 0.43033 0.02110
 C1587 C 0.33976 0.42348 0.01622
 C1588 C 0.35663 0.43636 0.01952
 H1589 H 0.42164 0.46957 0.04584
 H1590 H 0.38492 0.52084 0.02609
 H1591 H 0.30228 0.45576 0.03395
 H1592 H 0.34219 0.40835 0.00934
 H1593 H 0.35597 0.49773 0.02080
 H1594 H 0.33169 0.47817 0.03989
 H1595 H 0.39235 0.44658 0.04147
 H1596 H 0.37166 0.43085 0.01508
 C1597 C 0.53163 0.47853 0.37815
 C1598 C 0.52169 0.49523 0.38800
 C1599 C 0.50851 0.49203 0.40454
 C1600 C 0.50458 0.47199 0.41148
 C1601 C 0.51452 0.45529 0.40164
 C1602 C 0.52800 0.45853 0.38534
 C1603 C 0.54549 0.48193 0.36032
 C1604 C 0.54678 0.46727 0.34417
 C1605 C 0.55970 0.47049 0.32742
 C1606 C 0.57131 0.48861 0.32624
 C1607 C 0.57003 0.50334 0.34221
 C1608 C 0.55743 0.49995 0.35917
 H1609 H 0.50145 0.50532 0.41192
 H1610 H 0.51169 0.43961 0.40630
 H1611 H 0.56032 0.45902 0.31515
 H1612 H 0.57904 0.51733 0.34168
 H1613 H 0.53561 0.44530 0.37844
 H1614 H 0.53754 0.45343 0.34423
 H1615 H 0.52382 0.51083 0.38277
 H1616 H 0.55723 0.51139 0.37145
 C1617 C 0.03020 -0.02230 0.87318
 C1618 C 0.02097 -0.00531 0.88325
 C1619 C 0.00753 -0.00818 0.89965
 C1620 C 0.00271 -0.02813 0.90627
 C1621 C 0.01180 -0.04512 0.89609
 C1622 C 0.02547 -0.04224 0.87988
 C1623 C 0.04463 -0.01921 0.85577
 C1624 C 0.04535 -0.03336 0.83915
 C1625 C 0.05881 -0.03039 0.82277
 C1626 C 0.07162 -0.01304 0.82248
 C1627 C 0.07096 0.00113 0.83899
 C1628 C 0.05775 -0.00201 0.85553
 H1629 H 0.00109 0.00530 0.90728
 H1630 H 0.00824 -0.06072 0.90052
 H1631 H 0.05889 -0.04139 0.81008
 H1632 H 0.08087 0.01451 0.83919
 H1633 H 0.03247 -0.05569 0.87273
 H1634 H 0.03524 -0.04657 0.83856
 H1635 H 0.02395 0.01026 0.87835
 H1636 H 0.05799 0.00898 0.86822
 C1637 C 0.02390 0.02727 0.62836
 C1638 C 0.01428 0.01054 0.61833
 C1639 C 0.00076 0.01378 0.60216
 C1640 C -0.00376 0.03387 0.59576
 C1641 C 0.00573 0.05061 0.60589
 C1642 C 0.01949 0.04735 0.62186
 C1643 C 0.03848 0.02378 0.64548
 C1644 C 0.03968 0.03783 0.66215
 C1645 C 0.05349 0.03464 0.67809
 C1646 C 0.06618 0.01718 0.67790
 C1647 C 0.06492 0.00303 0.66143
 C1648 C 0.05135 0.00637 0.64531
 H1649 H -0.00599 0.00048 0.59455
 H1650 H 0.00242 0.06631 0.60161
 H1651 H 0.05404 0.04565 0.69077
 H1652 H 0.07473 -0.01043 0.66084
 H1653 H 0.02680 0.06061 0.62898
 H1654 H 0.02975 0.05117 0.66306
 H1655 H 0.01703 -0.00513 0.62307
 H1656 H 0.05120 -0.00456 0.63257
 C1657 C 0.52367 0.52572 0.13041
 C1658 C 0.51402 0.50867 0.12095
 C1659 C 0.50067 0.51134 0.10452
 C1660 C 0.49626 0.53117 0.09733
 C1661 C 0.50562 0.54825 0.10702
 C1662 C 0.51927 0.54555 0.12320
 C1663 C 0.53833 0.52279 0.14760
 C1664 C 0.53998 0.53759 0.16358
 C1665 C 0.55387 0.53488 0.17956
 C1666 C 0.56611 0.51714 0.18014
 C1667 C 0.56443 0.50226 0.16436
 C1668 C 0.55086 0.50514 0.14816
 H1669 H 0.49405 0.49777 0.09730
 H1670 H 0.50237 0.56379 0.10218
 H1671 H 0.55480 0.54646 0.19171
 H1672 H 0.57390 0.48855 0.16442
 H1673 H 0.52658 0.55905 0.12985
 H1674 H 0.53034 0.55116 0.16396
 H1675 H 0.51666 0.49319 0.12626
 H1676 H 0.55043 0.49362 0.13595
 C1677 C 0.47621 -0.02724 0.12679
 C1678 C 0.48093 -0.04756 0.12050
 C1679 C 0.49436 -0.05140 0.10416
 C1680 C 0.50322 -0.03501 0.09342
 C1681 C 0.49838 -0.01469 0.09959
 C1682 C 0.48519 -0.01086 0.11614
 C1683 C 0.46203 -0.02316 0.14436
 C1684 C 0.44882 -0.00601 0.14442
 C1685 C 0.43562 -0.00215 0.16096
 C1686 C 0.43507 -0.01552 0.17763
 C1687 C 0.44811 -0.03271 0.17759
 C1688 C 0.46156 -0.03640 0.16124
 H1689 H 0.49793 -0.06725 0.10008
 H1690 H 0.50463 -0.00167 0.09153
 H1691 H 0.42553 0.01109 0.16056
 H1692 H 0.44812 -0.04310 0.19042
 H1693 H 0.48220 0.00499 0.12068
 H1694 H 0.44841 0.00430 0.13156
 H1695 H 0.47410 -0.06060 0.12808
 H1696 H 0.47178 -0.04949 0.16199
 C1697 C 0.97972 0.47104 0.62623
 C1698 C 0.98454 0.45096 0.61926
 C1699 C 0.99803 0.44779 0.60282
 C1700 C 1.00691 0.46462 0.59281
 C1701 C 1.00218 0.48469 0.59986
 C1702 C 0.98887 0.48785 0.61642
 C1703 C 0.96508 0.47447 0.64349
 C1704 C 0.95148 0.49130 0.64343
 C1705 C 0.93781 0.49463 0.65966
 C1706 C 0.93722 0.48109 0.67620
 C1707 C 0.95064 0.46418 0.67626
 C1708 C 0.96449 0.46097 0.66014
 H1709 H 1.00153 0.43212 0.59799
 H1710 H 1.00850 0.49803 0.59237
 H1711 H 0.92743 0.50763 0.65912
 H1712 H 0.95066 0.45366 0.68897
 H1713 H 0.98579 0.50351 0.62156
 H1714 H 0.95117 0.50176 0.63068
 H1715 H 0.97762 0.43765 0.62627
 H1716 H 0.97496 0.44807 0.66089
 C1717 C 0.97421 0.52786 0.87227
 C1718 C 0.98246 0.51131 0.88309
 C1719 C 0.99534 0.51492 0.89982
 C1720 C 1.00053 0.53518 0.90591
 C1721 C 0.99228 0.55173 0.89496
 C1722 C 0.97913 0.54810 0.87842
 C1723 C 0.96055 0.52397 0.85457
 C1724 C 0.94187 0.53447 0.85300
 C1725 C 0.92882 0.53048 0.83647
 C1726 C 0.93431 0.51611 0.82096
 C1727 C 0.95320 0.50585 0.82248
 C1728 C 0.96609 0.50962 0.83918
 H1729 H 1.00102 0.50182 0.90813
 H1730 H 0.99621 0.56750 0.89893
 H1731 H 0.91426 0.53841 0.83605
 H1732 H 0.95820 0.49505 0.81065
 H1733 H 0.97311 0.56110 0.87016
 H1734 H 0.93719 0.54546 0.86481
 H1735 H 0.97867 0.49557 0.87878
 H1736 H 0.98055 0.50153 0.83993
 C1737 C 0.47524 0.02438 0.37601
 C1738 C 0.47595 0.00991 0.39187
 C1739 C 0.48922 0.01269 0.40845
 C1740 C 0.50169 0.03021 0.40979
 C1741 C 0.50097 0.04480 0.39421
 C1742 C 0.48807 0.04181 0.37738
 C1743 C 0.46122 0.02135 0.35818
 C1744 C 0.45254 0.03836 0.34831
 C1745 C 0.43963 0.03554 0.33146
 C1746 C 0.43462 0.01560 0.32423
 C1747 C 0.44311 -0.00141 0.33426
 C1748 C 0.45638 0.00142 0.35082
 H1749 H 0.48949 0.00135 0.42046
 H1750 H 0.51064 0.05834 0.39494
 H1751 H 0.43375 0.04908 0.32401
 H1752 H 0.43940 -0.01703 0.32948
 H1753 H 0.48840 0.05306 0.36533
 H1754 H 0.45553 0.05395 0.35367
 H1755 H 0.46605 -0.00346 0.39169
 H1756 H 0.46298 -0.01209 0.35771
   
