data_POSCAR
  _audit_creation_date              2014-09-24
  _audit_creation_method            'ToBaCCo'
  _symmetry_space_group_name_H-M    'P1'
  _symmetry_Int_Tables_number       1
  _symmetry_cell_setting            triclinic
  loop_
  _symmetry_equiv_pos_as_xyz
 x,y,z
_cell_length_a 64.5201
_cell_length_b 65.9084
_cell_length_c 63.5717
_cell_angle_alpha 89.677300
_cell_angle_beta 87.628800
_cell_angle_gamma 88.461300
loop_
  _atom_site_label
  _atom_site_type_symbol
  _atom_site_fract_x
  _atom_site_fract_y
  _atom_site_fract_z
C1 C 0.75468 0.61881 1.00130
 C2 C 0.74642 0.37709 0.50481
 C3 C 0.24589 -0.12361 0.00673
 C4 C 0.25285 0.11542 0.50561
 C5 C 0.11398 0.49976 0.25312
 C6 C -0.11093 0.01110 0.24683
 C7 C 0.38717 0.50873 0.74555
 C8 C 0.61178 1.00198 0.75603
 C9 C 0.00523 0.25148 -0.12380
 C10 C 0.49703 0.25227 0.12119
 C11 C 0.99396 0.75449 0.61543
 C12 C 0.50276 0.75031 0.37322
 C13 C 0.41629 -0.01849 0.27132
 H14 H 0.41582 -0.00397 0.27919
 C15 C 0.42892 -0.03435 0.27865
 H16 H 0.43841 -0.03179 0.29198
 C17 C 0.40404 -0.03959 0.24472
 H18 H 0.39388 -0.04182 0.23191
 C19 C 0.41642 -0.05582 0.25151
 H20 H 0.41558 -0.07035 0.24377
 N21 N 0.40415 -0.02137 0.25466
 C22 C 0.38751 0.03809 0.22900
 H23 H 0.37095 0.03616 0.22828
 C24 C 0.39627 0.05608 0.22184
 H25 H 0.38629 0.06802 0.21579
 C26 C 0.42044 0.02490 0.23828
 H27 H 0.42979 0.01264 0.24456
 C28 C 0.42988 0.04273 0.23133
 H29 H 0.44651 0.04399 0.23223
 Zn30 Zn 0.38543 -0.00021 0.24698
 N31 N 0.39955 0.02306 0.23726
 C32 C 0.36805 0.02583 0.27863
 N33 N 0.36856 0.00651 0.27119
 C34 C 0.35801 -0.00842 0.28148
 C35 C 0.34610 -0.00408 0.29987
 C36 C 0.35630 0.03085 0.29684
 C37 C 0.37920 -0.01223 0.20585
 C38 C 0.36832 -0.01851 0.18863
 C39 C 0.33676 -0.01713 0.21045
 C40 C 0.34827 -0.01084 0.22728
 N41 N 0.36914 -0.00878 0.22475
 H42 H 0.37700 0.03739 0.27067
 H43 H 0.35895 -0.02375 0.27543
 H44 H 0.33767 -0.01609 0.30779
 H45 H 0.35635 0.04627 0.30263
 H46 H 0.39579 -0.01025 0.20423
 H47 H 0.37674 -0.02164 0.17387
 H48 H 0.32015 -0.01863 0.21271
 H49 H 0.34048 -0.00758 0.24229
 C50 C 0.41772 0.05864 0.22304
 C51 C 0.42894 -0.05341 0.26883
 C52 C 0.34681 -0.02113 0.19082
 C53 C 0.34510 0.01582 0.30772
 C54 C 0.08192 1.01383 0.77716
 H55 H 0.07962 0.99941 0.78502
 C56 C 0.07080 1.03114 0.78423
 H57 H 0.05969 1.02985 0.79738
 C58 C 0.09958 1.03306 0.75077
 H59 H 0.11123 1.03393 0.73814
 C60 C 0.08881 1.05070 0.75731
 H61 H 0.09237 1.06493 0.74956
 N62 N 0.09601 1.01508 0.76072
 C63 C 0.10664 0.95407 0.73579
 H64 H 0.12340 0.95344 0.73602
 C65 C 0.09613 0.93796 0.72748
 H66 H 0.10493 0.92482 0.72160
 C67 C 0.07493 0.97207 0.74330
 H68 H 0.06679 0.98556 0.74915
 C69 C 0.06374 0.95622 0.73514
 H70 H 0.04700 0.95767 0.73478
 Zn71 Zn 0.11240 0.99175 0.75324
 N72 N 0.09599 0.97065 0.74355
 C73 C 0.12311 0.96428 0.78565
 N74 N 0.12637 0.98310 0.77748
 C75 C 0.13856 0.99642 0.78715
 C76 C 0.14828 0.99088 0.80566
 C77 C 0.13246 0.95814 0.80412
 C78 C 0.12274 1.00246 0.71203
 C79 C 0.13526 1.00745 0.69447
 C80 C 0.16536 1.00302 0.71558
 C81 C 0.15222 0.99802 0.73278
 N82 N 0.13131 0.99813 0.73077
 H83 H 0.11301 0.95405 0.77807
 H84 H 0.14055 1.01145 0.78057
 H85 H 0.15772 1.00176 0.81328
 H86 H 0.12981 0.94302 0.81022
 H87 H 0.10607 1.00225 0.71084
 H88 H 0.12804 1.01135 0.67986
 H89 H 0.18197 1.00293 0.71742
 H90 H 0.15876 0.99411 0.74769
 C91 C 0.07439 0.93894 0.72697
 C92 C 0.07433 1.04994 0.77437
 C93 C 0.15687 1.00789 0.69612
 C94 C 0.14518 0.97153 0.81443
 C95 C 0.58600 0.51515 0.27348
 H96 H 0.58409 0.50070 0.28139
 C97 C 0.57424 0.53214 0.28035
 H98 H 0.56304 0.53057 0.29338
 C99 C 0.60331 0.53481 0.24723
 H100 H 0.61508 0.53599 0.23474
 C101 C 0.59190 0.55216 0.25357
 H102 H 0.59509 0.56647 0.24581
 N103 N 0.60023 0.51677 0.25722
 C104 C 0.61333 0.45592 0.23268
 H105 H 0.63009 0.45596 0.23281
 C106 C 0.60344 0.43910 0.22504
 H107 H 0.61274 0.42613 0.21951
 C108 C 0.58097 0.47276 0.24014
 H109 H 0.57230 0.48601 0.24583
 C110 C 0.57040 0.45618 0.23265
 H111 H 0.55362 0.45686 0.23260
 Zn112 Zn 0.61751 0.49392 0.25018
 N113 N 0.60206 0.47221 0.24022
 C114 C 0.62809 0.46681 0.28291
 N115 N 0.63100 0.48574 0.27488
 C116 C 0.64241 0.49943 0.28499
 C117 C 0.65170 0.49415 0.30381
 C118 C 0.63703 0.46093 0.30167
 C119 C 0.62890 0.50486 0.20921
 C120 C 0.64184 0.51044 0.19217
 C121 C 0.67116 0.50720 0.21451
 C122 C 0.65763 0.50158 0.23115
 N123 N 0.63688 0.50084 0.22829
 H124 H 0.61859 0.45627 0.27498
 H125 H 0.64410 0.51454 0.27852
 H126 H 0.66054 0.50531 0.31177
 H127 H 0.63468 0.44572 0.30765
 H128 H 0.61236 0.50399 0.20735
 H129 H 0.63506 0.51411 0.17728
 H130 H 0.68763 0.50782 0.21703
 H131 H 0.66372 0.49791 0.24632
 C132 C 0.58169 0.43905 0.22499
 C133 C 0.57728 0.55103 0.27048
 C134 C 0.66327 0.51182 0.19472
 C135 C 0.64896 0.47469 0.31243
 C136 C 0.92032 0.48096 0.76869
 H137 H 0.92028 0.49580 0.77587
 C138 C 0.93269 0.46517 0.77657
 H139 H 0.94239 0.46807 0.78966
 C140 C 0.90737 0.45908 0.74317
 H141 H 0.89706 0.45656 0.73055
 C142 C 0.91947 0.44290 0.75053
 H143 H 0.91828 0.42811 0.74343
 N144 N 0.90800 0.47767 0.75226
 C145 C 0.89359 0.53626 0.72351
 H146 H 0.87693 0.53495 0.72303
 C147 C 0.90310 0.55336 0.71502
 H148 H 0.89360 0.56528 0.70823
 C149 C 0.92605 0.52232 0.73332
 H150 H 0.93493 0.51007 0.74026
 C151 C 0.93623 0.53926 0.72507
 H152 H 0.95295 0.53989 0.72570
 Zn153 Zn 0.89003 0.49902 0.74349
 N154 N 0.90505 0.52128 0.73261
 C155 C 0.87319 0.52700 0.77364
 N156 N 0.87321 0.50736 0.76719
 C157 C 0.86194 0.49325 0.77798
 C158 C 0.84971 0.49880 0.79580
 C159 C 0.86116 0.53320 0.79129
 C160 C 0.88353 0.48535 0.70297
 C161 C 0.87246 0.47887 0.68598
 C162 C 0.84083 0.48253 0.70749
 C163 C 0.85254 0.48897 0.72410
 N164 N 0.87353 0.49002 0.72163
 H165 H 0.88268 0.53789 0.76529
 H166 H 0.86247 0.47766 0.77270
 H167 H 0.84065 0.48743 0.80405
 H168 H 0.86157 0.54886 0.79628
 H169 H 0.90022 0.48656 0.70138
 H170 H 0.88080 0.47481 0.67142
 H171 H 0.82413 0.48189 0.70969
 H172 H 0.84481 0.49322 0.73887
 C173 C 0.92470 0.55506 0.71577
 C174 C 0.93225 0.44577 0.76756
 C175 C 0.85080 0.47733 0.68813
 C176 C 0.84916 0.51906 0.80260
 C177 C 0.27655 0.40511 -0.02395
 H178 H 0.28396 0.40552 -0.00900
 C179 C 0.28507 0.41552 -0.04132
 H180 H 0.29910 0.42390 -0.03960
 C181 C 0.24995 0.39266 -0.04458
 H182 H 0.23655 0.38338 -0.04598
 C183 C 0.25792 0.40282 -0.06231
 H184 H 0.25022 0.40159 -0.07705
 N185 N 0.25932 0.39394 -0.02588
 C186 C 0.23184 0.38460 0.03710
 H187 H 0.23026 0.36832 0.03644
 C188 C 0.22490 0.39519 0.05505
 H189 H 0.21776 0.38695 0.06811
 C190 C 0.24266 0.41507 0.02054
 H191 H 0.24950 0.42272 0.00699
 C192 C 0.23584 0.42631 0.03823
 H193 H 0.23773 0.44259 0.03824
 Zn194 Zn 0.24989 0.37815 -0.00262
 N195 N 0.24081 0.39455 0.02045
 C196 C 0.27939 0.36199 0.02505
 N197 N 0.27236 0.36102 0.00522
 C198 C 0.28203 0.34888 -0.00961
 C199 C 0.29942 0.33694 -0.00464
 C200 C 0.29658 0.35026 0.03071
 C201 C 0.20921 0.37363 -0.01394
 C202 C 0.19152 0.36370 -0.01970
 C203 C 0.21043 0.33171 -0.01693
 C204 C 0.22780 0.34229 -0.01118
 N205 N 0.22695 0.36290 -0.01010
 H206 H 0.27198 0.37216 0.03646
 H207 H 0.27635 0.34866 -0.02538
 H208 H 0.30693 0.32733 -0.01660
 H209 H 0.30213 0.35156 0.04648
 H210 H 0.20893 0.39000 -0.01276
 H211 H 0.17773 0.37259 -0.02322
 H212 H 0.21135 0.31530 -0.01774
 H213 H 0.24192 0.33402 -0.00763
 C214 C 0.22701 0.41631 0.05586
 C215 C 0.27585 0.41426 -0.06089
 C216 C 0.19201 0.34246 -0.02138
 C217 C 0.30688 0.33757 0.01578
 C218 C 0.77877 0.09477 1.01383
 H219 H 0.78642 0.09385 0.99838
 C220 C 0.78757 0.08488 1.03093
 H221 H 0.80183 0.07603 1.02843
 C222 C 0.75124 0.10803 1.03592
 H223 H 0.73749 0.11762 1.03799
 C224 C 0.75948 0.09839 1.05343
 H225 H 0.75186 0.10067 1.06876
 N226 N 0.76101 0.10618 1.01663
 C227 C 0.73617 0.11578 0.95451
 H228 H 0.73447 0.13215 0.95499
 C229 C 0.72989 0.10524 0.93705
 H230 H 0.72317 0.11362 0.92420
 C231 C 0.74636 0.08505 0.97117
 H232 H 0.75261 0.07728 0.98461
 C233 C 0.74016 0.07384 0.95400
 H234 H 0.74195 0.05746 0.95424
 Zn235 Zn 0.75184 0.12196 0.99370
 N236 N 0.74442 0.10566 0.97100
 C237 C 0.78240 0.13762 0.96523
 N238 N 0.77397 0.13878 0.98517
 C239 C 0.78215 0.15083 0.99984
 C240 C 0.79944 0.16245 0.99463
 C241 C 0.79960 0.14901 0.95934
 C242 C 0.71056 0.12701 1.00697
 C243 C 0.69215 0.13718 1.01326
 C244 C 0.70958 0.16901 1.00867
 C245 C 0.72772 0.15818 1.00246
 N246 N 0.72793 0.13754 1.00202
 H247 H 0.77614 0.12750 0.95396
 H248 H 0.77537 0.15118 1.01569
 H249 H 0.80573 0.17198 1.00648
 H250 H 0.80634 0.14753 0.94351
 H251 H 0.71111 0.11061 1.00610
 H252 H 0.67849 0.12848 1.01708
 H253 H 0.70976 0.18541 1.00937
 H254 H 0.74158 0.16628 0.99806
 C255 C 0.73190 0.08398 0.93660
 C256 C 0.77806 0.08689 1.05112
 C257 C 0.69153 0.15846 1.01435
 C258 C 0.80841 0.16156 0.97414
 C259 C 0.27673 0.59231 0.51330
 H260 H 0.28453 0.59113 0.49795
 C261 C 0.28517 0.58245 0.53060
 H262 H 0.29932 0.57338 0.52836
 C263 C 0.24912 0.60611 0.53493
 H264 H 0.23547 0.61588 0.53673
 C265 C 0.25701 0.59652 0.55264
 H266 H 0.24923 0.59903 0.56786
 N267 N 0.25908 0.60394 0.51577
 C268 C 0.23475 0.61261 0.45332
 H269 H 0.23307 0.62899 0.45349
 C270 C 0.22868 0.60178 0.43596
 H271 H 0.22213 0.60994 0.42288
 C272 C 0.24476 0.58216 0.47061
 H273 H 0.25087 0.57460 0.48424
 C274 C 0.23877 0.57067 0.45355
 H275 H 0.24058 0.55430 0.45408
 Zn276 Zn 0.25024 0.61942 0.49250
 N277 N 0.24284 0.60276 0.47006
 C278 C 0.28107 0.63429 0.46385
 N279 N 0.27259 0.63591 0.48373
 C280 C 0.28080 0.64823 0.49815
 C281 C 0.29814 0.65969 0.49269
 C282 C 0.29832 0.64552 0.45772
 C283 C 0.20888 0.62504 0.50537
 C284 C 0.19052 0.63550 0.51131
 C285 C 0.20838 0.66705 0.50641
 C286 C 0.22644 0.65595 0.50052
 N287 N 0.22640 0.63531 0.50038
 H288 H 0.27480 0.62397 0.45280
 H289 H 0.27398 0.64895 0.51397
 H290 H 0.30444 0.66948 0.50433
 H291 H 0.30506 0.64371 0.44194
 H292 H 0.20927 0.60862 0.50491
 H293 H 0.17688 0.62698 0.51572
 H294 H 0.20863 0.68347 0.50640
 H295 H 0.24041 0.66384 0.49603
 C296 C 0.23073 0.58052 0.43587
 C297 C 0.27543 0.58473 0.55066
 C298 C 0.19012 0.65680 0.51198
 C299 C 0.30713 0.65839 0.47223
 C300 C 0.76898 0.91210 0.47463
 H301 H 0.77586 0.91285 0.48983
 C302 C 0.77776 0.92260 0.45746
 H303 H 0.79142 0.93142 0.45959
 C304 C 0.74365 0.89855 0.45313
 H305 H 0.73069 0.88878 0.45132
 C306 C 0.75189 0.90880 0.43558
 H307 H 0.74481 0.90714 0.42056
 N308 N 0.75230 0.90029 0.47216
 C309 C 0.72289 0.88934 0.53390
 H310 H 0.72194 0.87302 0.53280
 C311 C 0.71473 0.89934 0.55174
 H312 H 0.70768 0.89055 0.56443
 C313 C 0.73375 0.92044 0.51874
 H314 H 0.74106 0.92857 0.50576
 C315 C 0.72584 0.93110 0.53643
 H316 H 0.72706 0.94744 0.53689
 Zn317 Zn 0.74298 0.88404 0.49511
 N318 N 0.73234 0.89990 0.51796
 C319 C 0.77271 0.87042 0.52363
 N320 N 0.76607 0.86823 0.50376
 C321 C 0.77678 0.85627 0.48947
 C322 C 0.79501 0.84595 0.49499
 C323 C 0.79080 0.86044 0.52977
 C324 C 0.70308 0.87763 0.48265
 C325 C 0.68596 0.86693 0.47668
 C326 C 0.70614 0.83573 0.47989
 C327 C 0.72293 0.84706 0.48587
 N328 N 0.72115 0.86765 0.48689
 H329 H 0.76432 0.88031 0.53465
 H330 H 0.77141 0.85513 0.47364
 H331 H 0.80360 0.83684 0.48331
 H332 H 0.79579 0.86241 0.54567
 H333 H 0.70207 0.89400 0.48380
 H334 H 0.67188 0.87524 0.47294
 H335 H 0.70775 0.81935 0.47919
 H336 H 0.73730 0.83940 0.48973
 C337 C 0.71620 0.92049 0.55322
 C338 C 0.76937 0.92079 0.43753
 C339 C 0.68735 0.84570 0.47518
 C340 C 0.80236 0.84822 0.51531
 C341 C -0.01508 0.27326 0.41444
 H342 H -0.00034 0.28065 0.41503
 C343 C -0.03222 0.28074 0.42642
 H344 H -0.03045 0.29371 0.43651
 C345 C -0.03535 0.24769 0.40012
 H346 H -0.03671 0.23521 0.38938
 C347 C -0.05287 0.25466 0.41181
 H348 H -0.06752 0.24739 0.40989
 N349 N -0.01693 0.25705 0.40158
 C350 C 0.04592 0.23322 0.38793
 H351 H 0.04569 0.23290 0.37092
 C352 C 0.06355 0.22633 0.39806
 H353 H 0.07678 0.22052 0.38871
 C354 C 0.02858 0.24067 0.42068
 H355 H 0.01486 0.24612 0.42941
 C356 C 0.04591 0.23386 0.43148
 H357 H 0.04544 0.23442 0.44851
 Zn358 Zn 0.00611 0.24940 0.38366
 N359 N 0.02901 0.24044 0.39926
 C360 C 0.03223 0.28075 0.36893
 N361 N 0.01318 0.27263 0.36750
 C362 C -0.00167 0.28183 0.35592
 C363 C 0.00241 0.29991 0.34511
 C364 C 0.03695 0.29878 0.35844
 C365 C -0.00474 0.20970 0.37625
 C366 C -0.01053 0.19290 0.36486
 C367 C -0.00758 0.21297 0.33300
 C368 C -0.00183 0.22944 0.34504
 N369 N -0.00089 0.22760 0.36631
 H370 H 0.04369 0.27354 0.37859
 H371 H -0.01685 0.27529 0.35542
 H372 H -0.00973 0.30723 0.33630
 H373 H 0.05222 0.30496 0.35976
 H374 H -0.00353 0.20859 0.39314
 H375 H -0.01358 0.17881 0.37311
 H376 H -0.00880 0.21483 0.31616
 H377 H 0.00167 0.24368 0.33739
 C378 C 0.06375 0.22668 0.42013
 C379 C -0.05152 0.27155 0.42500
 C380 C -0.01227 0.19446 0.34296
 C381 C 0.02189 0.30872 0.34648
 C382 C 1.01497 0.77217 0.10049
 H383 H 1.00029 0.78047 0.10011
 C384 C 1.03221 0.77913 0.08881
 H385 H 1.03065 0.79286 0.07953
 C386 C 1.03507 0.74495 0.11421
 H387 H 1.03631 0.73193 0.12451
 C388 C 1.05267 0.75133 0.10277
 H389 H 1.06714 0.74281 0.10407
 N390 N 1.01672 0.75544 0.11298
 C391 C 0.95422 0.73396 0.12656
 H392 H 0.95453 0.73354 0.14356
 C393 C 0.93685 0.72732 0.11653
 H394 H 0.92390 0.72161 0.12597
 C395 C 0.97122 0.74120 0.09371
 H396 H 0.98476 0.74641 0.08492
 C397 C 0.95413 0.73461 0.08300
 H398 H 0.95456 0.73511 0.06596
 Zn399 Zn 0.99366 0.74857 0.13077
 N400 N 0.97087 0.74086 0.11512
 C401 C 0.96719 0.78074 0.14557
 N402 N 0.98630 0.77178 0.14715
 C403 C 1.00093 0.78014 0.15898
 C404 C 0.99657 0.79829 0.16979
 C405 C 0.96220 0.79885 0.15607
 C406 C 1.00407 0.70812 0.13766
 C407 C 1.00884 0.69049 0.14886
 C408 C 1.00605 0.70989 0.18105
 C409 C 1.00125 0.72720 0.16919
 N410 N 1.00058 0.72603 0.14787
 H411 H 0.95591 0.77418 0.13575
 H412 H 1.01615 0.77293 0.15962
 H413 H 1.00855 0.80498 0.17873
 H414 H 0.94691 0.80574 0.15456
 H415 H 1.00320 0.70760 0.12072
 H416 H 1.01197 0.67649 0.14035
 H417 H 1.00645 0.71102 0.19801
 H418 H 0.99798 0.74149 0.17704
 C419 C 0.93663 0.72758 0.09446
 C420 C 1.05148 0.76883 0.09012
 C421 C 1.00991 0.69122 0.17086
 C422 C 0.97706 0.80801 0.16816
 C423 C 0.51415 0.27252 0.59517
 H424 H 0.49938 0.28065 0.59478
 C425 C 0.53135 0.27973 0.58359
 H426 H 0.52966 0.29349 0.57437
 C427 C 0.53455 0.24551 0.60887
 H428 H 0.53595 0.23250 0.61916
 C429 C 0.55209 0.25213 0.59753
 H430 H 0.56666 0.24378 0.59887
 N431 N 0.51608 0.25579 0.60763
 C432 C 0.45401 0.23342 0.62158
 H433 H 0.45438 0.23320 0.63858
 C434 C 0.43685 0.22613 0.61171
 H435 H 0.42390 0.22059 0.62127
 C436 C 0.47059 0.24094 0.58860
 H437 H 0.48396 0.24640 0.57970
 C438 C 0.45366 0.23378 0.57803
 H439 H 0.45417 0.23376 0.56099
 Zn440 Zn 0.49319 0.24863 0.62551
 N441 N 0.47041 0.24065 0.61001
 C442 C 0.46650 0.28044 0.64087
 N443 N 0.48574 0.27168 0.64206
 C444 C 0.50047 0.28011 0.65370
 C445 C 0.49608 0.29810 0.66474
 C446 C 0.46147 0.29841 0.65161
 C447 C 0.50435 0.20833 0.63220
 C448 C 0.50990 0.19084 0.64326
 C449 C 0.50688 0.21007 0.67554
 C450 C 0.50138 0.22727 0.66381
 N451 N 0.50054 0.22614 0.64250
 H452 H 0.45513 0.27380 0.63119
 H453 H 0.51579 0.27305 0.65403
 H454 H 0.50813 0.30485 0.67354
 H455 H 0.44606 0.30514 0.65043
 H456 H 0.50316 0.20779 0.61529
 H457 H 0.51284 0.17682 0.63472
 H458 H 0.50793 0.21130 0.69243
 H459 H 0.49787 0.24148 0.67175
 C460 C 0.43657 0.22608 0.58964
 C461 C 0.55074 0.26968 0.58497
 C462 C 0.51143 0.19159 0.66520
 C463 C 0.47642 0.30761 0.66355
 C464 C 0.48304 0.77209 0.91244
 H465 H 0.49800 0.77908 0.91284
 C466 C 0.46642 0.77953 0.92521
 H467 H 0.46882 0.79205 0.93570
 C468 C 0.46164 0.74765 0.89777
 H469 H 0.45961 0.73568 0.88657
 C470 C 0.44464 0.75459 0.91024
 H471 H 0.42972 0.74779 0.90846
 N472 N 0.48037 0.75648 0.89900
 C473 C 0.54194 0.73149 0.88150
 H474 H 0.54083 0.73200 0.86457
 C475 C 0.55976 0.72334 0.89032
 H476 H 0.57244 0.71783 0.88002
 C477 C 0.52670 0.73832 0.91537
 H478 H 0.51364 0.74392 0.92504
 C479 C 0.54431 0.73030 0.92489
 H480 H 0.54461 0.72975 0.94190
 Zn481 Zn 0.50255 0.74902 0.87989
 N482 N 0.52594 0.73890 0.89402
 C483 C 0.52885 0.78027 0.86555
 N484 N 0.50957 0.77262 0.86435
 C485 C 0.49455 0.78260 0.85364
 C486 C 0.49867 0.80107 0.84360
 C487 C 0.53361 0.79866 0.85580
 C488 C 0.49063 0.70992 0.87179
 C489 C 0.48441 0.69343 0.86021
 C490 C 0.48664 0.71417 0.82876
 C491 C 0.49282 0.73034 0.84101
 N492 N 0.49438 0.72799 0.86217
 H493 H 0.54046 0.77242 0.87451
 H494 H 0.47920 0.77640 0.85331
 H495 H 0.48640 0.80903 0.83554
 H496 H 0.54906 0.80448 0.85698
 H497 H 0.49237 0.70840 0.88858
 H498 H 0.48153 0.67918 0.86821
 H499 H 0.48504 0.71637 0.81201
 H500 H 0.49627 0.74472 0.83361
 C501 C 0.56112 0.72263 0.91230
 C502 C 0.44681 0.77092 0.92400
 C503 C 0.48214 0.69547 0.83842
 C504 C 0.51836 0.80945 0.84486
 C505 C 0.50702 -0.20619 0.33240
 C506 C 0.48961 -0.19396 0.33789
 C507 C 0.47631 -0.19967 0.35463
 C508 C 0.48018 -0.21759 0.36574
 C509 C 0.49719 -0.23068 0.35995
 C510 C 0.51094 -0.22419 0.34351
 C511 C 0.48539 -0.17522 0.32691
 C512 C 0.48096 -0.15939 0.31840
 C513 C 0.47476 -0.14080 0.30913
 C514 C 0.46866 -0.12496 0.30173
 C515 C 0.46040 -0.10619 0.29341
 C516 C 0.45122 -0.09171 0.30713
 C517 C 0.44154 -0.07425 0.29915
 C518 C 0.44087 -0.07103 0.27729
 C519 C 0.45064 -0.08542 0.26363
 C520 C 0.46032 -0.10289 0.27165
 H521 H 0.51769 -0.20170 0.31972
 H522 H 0.46307 -0.19006 0.35937
 H523 H 0.47002 -0.22074 0.37923
 H524 H 0.52484 -0.23309 0.33934
 H525 H 0.45106 -0.09418 0.32400
 H526 H 0.43391 -0.06365 0.31009
 H527 H 0.45061 -0.08326 0.24673
 H528 H 0.46735 -0.11401 0.26088
 C529 C 1.00996 0.29439 0.83476
 C530 C 0.99271 0.30688 0.84011
 C531 C 0.97943 0.30159 0.85703
 C532 C 0.98313 0.28380 0.86841
 C533 C 0.99993 0.27042 0.86273
 C534 C 1.01372 0.27651 0.84615
 C535 C 0.98858 0.32541 0.82875
 C536 C 0.98418 0.34106 0.81989
 C537 C 0.97801 0.35944 0.81018
 C538 C 0.97191 0.37509 0.80237
 C539 C 0.96365 0.39362 0.79354
 C540 C 0.95478 0.40860 0.80686
 C541 C 0.94510 0.42586 0.79841
 C542 C 0.94411 0.42833 0.77647
 C543 C 0.95356 0.41343 0.76320
 C544 C 0.96323 0.39618 0.77170
 H545 H 1.02062 0.29855 0.82194
 H546 H 0.96631 0.31141 0.86167
 H547 H 0.97298 0.28096 0.88200
 H548 H 1.02748 0.26739 0.84206
 H549 H 0.95487 0.40671 0.82380
 H550 H 0.93773 0.43688 0.80906
 H551 H 0.95328 0.41502 0.74625
 H552 H 0.97002 0.38466 0.76124
 C553 C 0.01060 1.21207 0.83093
 C554 C 0.01968 1.19553 0.84130
 C555 C 0.02400 1.19709 0.86256
 C556 C 0.01953 1.21513 0.87335
 C557 C 0.01113 1.23235 0.86304
 C558 C 0.00609 1.23023 0.84173
 C559 C 0.02443 1.17675 0.83046
 C560 C 0.02885 1.16074 0.82212
 C561 C 0.03459 1.14178 0.81311
 C562 C 0.04000 1.12549 0.80596
 C563 C 0.04714 1.10603 0.79795
 C564 C 0.05315 1.09071 0.81194
 C565 C 0.06146 1.07225 0.80428
 C566 C 0.06392 1.06888 0.78247
 C567 C 0.05737 1.08421 0.76853
 C568 C 0.04906 1.10267 0.77623
 H569 H 0.00675 1.21086 0.81456
 H570 H 0.03071 1.18428 0.87087
 H571 H 0.02268 1.21572 0.88994
 H572 H -0.00180 1.24229 0.83340
 H573 H 0.05183 1.09319 0.82878
 H574 H 0.06661 1.06091 0.81543
 H575 H 0.05883 1.08198 0.75167
 H576 H 0.04446 1.11442 0.76525
 C577 C 0.50886 0.71147 0.32744
 C578 C 0.51811 0.69492 0.33766
 C579 C 0.52222 0.69627 0.35898
 C580 C 0.51741 0.71412 0.37000
 C581 C 0.50887 0.73136 0.35984
 C582 C 0.50401 0.72943 0.33846
 C583 C 0.52334 0.67637 0.32658
 C584 C 0.52821 0.66053 0.31809
 C585 C 0.53451 0.64177 0.30896
 C586 C 0.54044 0.62565 0.30177
 C587 C 0.54821 0.60638 0.29379
 C588 C 0.55450 0.59123 0.30784
 C589 C 0.56342 0.57300 0.30026
 C590 C 0.56623 0.56969 0.27847
 C591 C 0.55941 0.58484 0.26445
 C592 C 0.55048 0.60308 0.27208
 H593 H 0.50519 0.71041 0.31101
 H594 H 0.52907 0.68345 0.36717
 H595 H 0.52045 0.71456 0.38661
 H596 H 0.49604 0.74151 0.33023
 H597 H 0.55292 0.59367 0.32468
 H598 H 0.56878 0.56181 0.31146
 H599 H 0.56114 0.58266 0.24760
 H600 H 0.54567 0.61470 0.26106
 C601 C 0.53121 0.28893 0.15131
 C602 C 0.51615 0.30163 0.16120
 C603 C 0.49516 0.29737 0.15972
 C604 C 0.48925 0.28111 0.14748
 C605 C 0.50419 0.26933 0.13567
 C606 C 0.52535 0.27272 0.13903
 C607 C 0.52238 0.31952 0.17191
 C608 C 0.52818 0.33472 0.18003
 C609 C 0.53569 0.35266 0.18865
 C610 C 0.54273 0.36799 0.19533
 C611 C 0.55193 0.38620 0.20258
 C612 C 0.54360 0.39645 0.22036
 C613 C 0.55305 0.41386 0.22750
 C614 C 0.57099 0.42116 0.21697
 C615 C 0.57904 0.41089 0.19896
 C616 C 0.56957 0.39355 0.19185
 H617 H 0.54755 0.29172 0.15285
 H618 H 0.48334 0.30685 0.16769
 H619 H 0.47289 0.27819 0.14649
 H620 H 0.53754 0.26299 0.13218
 H621 H 0.52996 0.39088 0.22880
 H622 H 0.54662 0.42133 0.24153
 H623 H 0.59263 0.41630 0.19033
 H624 H 0.57610 0.38579 0.17802
 C625 C -0.00247 0.79141 0.66258
 C626 C 0.00704 0.80793 0.65267
 C627 C 0.01156 0.80744 0.63101
 C628 C 0.00716 0.79032 0.61938
 C629 C -0.00134 0.77297 0.62923
 C630 C -0.00694 0.77420 0.65094
 C631 C 0.01273 0.82530 0.66456
 C632 C 0.01832 0.83996 0.67382
 C633 C 0.02584 0.85717 0.68386
 C634 C 0.03311 0.87181 0.69177
 C635 C 0.04282 0.88912 0.70043
 C636 C 0.06106 0.89624 0.69065
 C637 C 0.07112 0.91259 0.69915
 C638 C 0.06310 0.92209 0.71762
 C639 C 0.04456 0.91507 0.72719
 C640 C 0.03450 0.89863 0.71865
 H641 H -0.00645 0.79182 0.67930
 H642 H 0.01866 0.82026 0.62309
 H643 H 0.01078 0.79043 0.60260
 H644 H -0.01498 0.76210 0.65907
 H645 H 0.06759 0.88905 0.67650
 H646 H 0.08516 0.91785 0.69122
 H647 H 0.03811 0.92198 0.74151
 H648 H 0.02041 0.89322 0.72637
 C649 C 0.99723 0.70976 0.65474
 C650 C 0.98023 0.69832 0.64965
 C651 C 0.96738 0.70503 0.63375
 C652 C 0.97135 0.72313 0.62303
 C653 C 0.98801 0.73538 0.62839
 C654 C 1.00125 0.72793 0.64403
 C655 C 0.97612 0.67932 0.66007
 C656 C 0.97191 0.66328 0.66814
 C657 C 0.96609 0.64443 0.67687
 C658 C 0.96031 0.62838 0.68376
 C659 C 0.95242 0.60936 0.69137
 C660 C 0.93716 0.59984 0.68025
 C661 C 0.92849 0.58197 0.68798
 C662 C 0.93494 0.57333 0.70698
 C663 C 0.95063 0.58273 0.71784
 C664 C 0.95928 0.60069 0.71008
 H665 H 1.00756 0.70450 0.66675
 H666 H 0.95446 0.69603 0.62931
 H667 H 0.96161 0.72701 0.61010
 H668 H 1.01487 0.73619 0.64785
 H669 H 0.93177 0.60639 0.66573
 H670 H 0.91667 0.57492 0.67911
 H671 H 0.95577 0.57653 0.73260
 H672 H 0.97104 0.60797 0.71885
 C673 C 0.49725 0.20838 0.16152
 C674 C 0.47628 0.20358 0.16336
 C675 C 0.46156 0.21586 0.15349
 C676 C 0.46785 0.23207 0.14071
 C677 C 0.48916 0.23580 0.13683
 C678 C 0.50357 0.22461 0.14878
 C679 C 0.46998 0.18528 0.17399
 C680 C 0.46447 0.16955 0.18189
 C681 C 0.45768 0.15081 0.19010
 C682 C 0.45150 0.13466 0.19632
 C683 C 0.44357 0.11533 0.20292
 C684 C 0.42856 0.10623 0.19111
 C685 C 0.42042 0.08766 0.19748
 C686 C 0.42716 0.07789 0.21581
 C687 C 0.44249 0.08700 0.22744
 C688 C 0.45061 0.10564 0.22103
 H689 H 0.50878 0.19922 0.16941
 H690 H 0.44520 0.21263 0.15529
 H691 H 0.45591 0.24137 0.13371
 H692 H 0.51994 0.22779 0.14733
 H693 H 0.42308 0.11354 0.17700
 H694 H 0.40887 0.08090 0.18803
 H695 H 0.44782 0.07995 0.24173
 H696 H 0.46223 0.11255 0.23029
 C697 C 0.34800 0.47754 -0.22105
 C698 C 0.35196 0.48345 -0.20056
 C699 C 0.36727 0.49752 -0.19724
 C700 C 0.37843 0.50589 -0.21430
 C701 C 0.37409 0.50083 -0.23526
 C702 C 0.35914 0.48590 -0.23818
 C703 C 0.34091 0.47463 -0.18278
 C704 C 0.33200 0.46734 -0.16764
 C705 C 0.32191 0.45880 -0.14971
 C706 C 0.31352 0.45140 -0.13432
 C707 C 0.30371 0.44235 -0.11595
 C708 C 0.30289 0.45257 -0.09667
 C709 C 0.29374 0.44352 -0.07875
 C710 C 0.28528 0.42412 -0.07991
 C711 C 0.28614 0.41402 -0.09939
 C712 C 0.29529 0.42308 -0.11727
 H713 H 0.33648 0.46631 -0.22379
 H714 H 0.37086 0.50179 -0.18139
 H715 H 0.39081 0.51589 -0.21079
 H716 H 0.35610 0.48069 -0.25385
 H717 H 0.30937 0.46750 -0.09549
 H718 H 0.29314 0.45176 -0.06404
 H719 H 0.28009 0.39894 -0.10074
 H720 H 0.29595 0.41499 -0.13208
 C721 C 0.84817 0.98118 0.27934
 C722 C 0.85165 0.98718 0.29992
 C723 C 0.86727 1.00081 0.30360
 C724 C 0.87919 1.00870 0.28680
 C725 C 0.87533 1.00360 0.26574
 C726 C 0.86007 0.98906 0.26248
 C727 C 0.83973 0.97891 0.31742
 C728 C 0.83006 0.97204 0.33232
 C729 C 0.81905 0.96397 0.34995
 C730 C 0.80989 0.95692 0.36508
 C731 C 0.79921 0.94821 0.38314
 C732 C 0.79724 0.95887 0.40213
 C733 C 0.78738 0.95008 0.41982
 C734 C 0.77934 0.93049 0.41869
 C735 C 0.78130 0.91998 0.39947
 C736 C 0.79116 0.92878 0.38184
 H737 H 0.83640 0.97027 0.27633
 H738 H 0.87050 1.00512 0.31954
 H739 H 0.89174 1.01838 0.29061
 H740 H 0.85734 0.98382 0.24675
 H741 H 0.80342 0.97393 0.40331
 H742 H 0.78593 0.95862 0.43432
 H743 H 0.77561 0.90475 0.39817
 H744 H 0.79270 0.92035 0.36725
 C745 C 0.87617 0.03131 1.19184
 C746 C 0.85468 0.03446 1.19354
 C747 C 0.84407 0.03113 1.21282
 C748 C 0.85481 0.02398 1.23017
 C749 C 0.87635 0.01939 1.22835
 C750 C 0.88692 0.02418 1.20911
 C751 C 0.84362 0.04097 1.17539
 C752 C 0.83472 0.04621 1.15989
 C753 C 0.82467 0.05227 1.14149
 C754 C 0.81639 0.05750 1.12562
 C755 C 0.80680 0.06399 1.10659
 C756 C 0.78535 0.06259 1.10473
 C757 C 0.77601 0.06961 1.08650
 C758 C 0.78804 0.07814 1.06989
 C759 C 0.80964 0.07916 1.07180
 C760 C 0.81893 0.07214 1.09003
 H761 H 0.88463 0.03421 1.17710
 H762 H 0.82748 0.03405 1.21446
 H763 H 0.84609 0.02229 1.24492
 H764 H 0.90358 0.02184 1.20733
 H765 H 0.77582 0.05625 1.11743
 H766 H 0.75939 0.06842 1.08541
 H767 H 0.81929 0.08593 1.05946
 H768 H 0.83554 0.07335 1.09133
 C769 C 0.34096 0.52783 0.71264
 C770 C 0.35112 0.53155 0.69320
 C771 C 0.37264 0.52886 0.69103
 C772 C 0.38389 0.52184 0.70799
 C773 C 0.37383 0.51674 0.72741
 C774 C 0.35221 0.52079 0.72970
 C775 C 0.33964 0.53807 0.67534
 C776 C 0.33055 0.54337 0.65998
 C777 C 0.32048 0.54954 0.64163
 C778 C 0.31232 0.55489 0.62574
 C779 C 0.30305 0.56154 0.60660
 C780 C 0.31552 0.56943 0.59016
 C781 C 0.30659 0.57657 0.57180
 C782 C 0.28500 0.57592 0.56962
 C783 C 0.27261 0.56767 0.58612
 C784 C 0.28160 0.56053 0.60449
 H785 H 0.32434 0.53038 0.71463
 H786 H 0.38074 0.53206 0.67616
 H787 H 0.40056 0.51990 0.70585
 H788 H 0.34384 0.51880 0.74460
 H789 H 0.33214 0.57034 0.59166
 H790 H 0.31651 0.58312 0.55955
 H791 H 0.25598 0.56678 0.58483
 H792 H 0.27180 0.55440 0.61710
 C793 C 0.15526 0.52672 0.28414
 C794 C 0.15746 0.51405 0.30164
 C795 C 0.14678 0.49590 0.30298
 C796 C 0.13321 0.49086 0.28737
 C797 C 0.12942 0.50431 0.27044
 C798 C 0.14172 0.52172 0.26851
 C799 C 0.16986 0.52016 0.31869
 C800 C 0.17962 0.52578 0.33322
 C801 C 0.19034 0.53301 0.35044
 C802 C 0.19893 0.53982 0.36522
 C803 C 0.20853 0.54879 0.38282
 C804 C 0.20484 0.54119 0.40321
 C805 C 0.21261 0.55113 0.42049
 C806 C 0.22404 0.56888 0.41755
 C807 C 0.22815 0.57604 0.39694
 C808 C 0.22042 0.56607 0.37972
 H809 H 0.16375 0.54066 0.28274
 H810 H 0.14879 0.48571 0.31621
 H811 H 0.12585 0.47636 0.28875
 H812 H 0.14026 0.53184 0.25515
 H813 H 0.19553 0.52790 0.40580
 H814 H 0.20902 0.54538 0.43617
 H815 H 0.23716 0.58949 0.39417
 H816 H 0.22334 0.57210 0.36402
 C817 C 0.65291 -0.00035 0.79839
 C818 C 0.65535 0.02013 0.80297
 C819 C 0.64482 0.03501 0.79151
 C820 C 0.63116 0.02947 0.77618
 C821 C 0.62713 0.00883 0.77253
 C822 C 0.63928 -0.00593 0.78304
 C823 C 0.66813 0.02598 0.81982
 C824 C 0.67824 0.03133 0.83421
 C825 C 0.68940 0.03821 0.85129
 C826 C 0.69838 0.04470 0.86597
 C827 C 0.70845 0.05327 0.88351
 C828 C 0.72044 0.07049 0.88046
 C829 C 0.72860 0.08011 0.89768
 C830 C 0.72484 0.07265 0.91823
 C831 C 0.71333 0.05494 0.92109
 C832 C 0.70513 0.04536 0.90382
 H833 H 0.66133 -0.01202 0.80685
 H834 H 0.64706 0.05096 0.79451
 H835 H 0.62394 0.04151 0.76722
 H836 H 0.63772 -0.02191 0.77976
 H837 H 0.72309 0.07677 0.86482
 H838 H 0.73765 0.09354 0.89496
 H839 H 0.71000 0.04896 0.93673
 H840 H 0.69575 0.03210 0.90637
 C841 C 0.64230 0.96777 0.71529
 C842 C 0.65175 0.98232 0.70231
 C843 C 0.64983 1.00283 0.70766
 C844 C 0.63759 1.00884 0.72529
 C845 C 0.62627 0.99454 0.73744
 C846 C 0.63002 0.97374 0.73291
 C847 C 0.66244 0.97622 0.68297
 C848 C 0.67058 0.97080 0.66647
 C849 C 0.67923 0.96399 0.64694
 C850 C 0.68595 0.95762 0.63021
 C851 C 0.69322 0.94925 0.61031
 C852 C 0.71193 0.95538 0.60063
 C853 C 0.71922 0.94642 0.58172
 C854 C 0.70788 0.93116 0.57238
 C855 C 0.68889 0.92546 0.58202
 C856 C 0.68164 0.93445 0.60084
 H857 H 0.64416 0.95177 0.71162
 H858 H 0.65743 1.01422 0.69796
 H859 H 0.63623 1.02485 0.72898
 H860 H 0.62347 0.96195 0.74279
 H861 H 0.72103 0.96682 0.60784
 H862 H 0.73398 0.95097 0.57475
 H863 H 0.67968 0.91398 0.57504
 H864 H 0.66710 0.92965 0.60815
 C865 C 0.14376 0.50228 0.19879
 C866 C 0.15469 0.48370 0.19860
 C867 C 0.15354 0.47105 0.21630
 C868 C 0.14082 0.47657 0.23376
 C869 C 0.12832 0.49452 0.23362
 C870 C 0.13101 0.50784 0.21623
 C871 C 0.16644 0.47723 0.17999
 C872 C 0.17575 0.47135 0.16427
 C873 C 0.18608 0.46385 0.14580
 C874 C 0.19446 0.45683 0.13008
 C875 C 0.20397 0.44764 0.11147
 C876 C 0.21543 0.42943 0.11319
 C877 C 0.22333 0.41952 0.09511
 C878 C 0.21983 0.42766 0.07502
 C879 C 0.20877 0.44625 0.07345
 C880 C 0.20083 0.45615 0.09159
 H881 H 0.14497 0.51245 0.18537
 H882 H 0.16225 0.45677 0.21650
 H883 H 0.14022 0.46648 0.24726
 H884 H 0.12347 0.52266 0.21592
 H885 H 0.21795 0.42271 0.12849
 H886 H 0.23206 0.40539 0.09684
 H887 H 0.20567 0.45279 0.05819
 H888 H 0.19187 0.47019 0.09008
 C889 C -0.19878 0.36263 0.48271
 C890 C -0.19692 0.34202 0.48767
 C891 C -0.21331 0.33241 0.49841
 C892 C -0.23165 0.34332 0.50387
 C893 C -0.23417 0.36398 0.49813
 C894 C -0.21703 0.37353 0.48813
 C895 C -0.17803 0.33097 0.48181
 C896 C -0.16200 0.32232 0.47642
 C897 C -0.14306 0.31283 0.46953
 C898 C -0.12681 0.30523 0.46314
 C899 C -0.10741 0.29669 0.45485
 C900 C -0.10401 0.27563 0.45430
 C901 C -0.08562 0.26742 0.44505
 C902 C -0.07040 0.28019 0.43620
 C903 C -0.07382 0.30134 0.43721
 C904 C -0.09220 0.30951 0.44646
 H905 H -0.18607 0.37033 0.47472
 H906 H -0.21183 0.31654 0.50276
 H907 H -0.24354 0.33554 0.51297
 H908 H -0.21785 0.38958 0.48439
 H909 H -0.11568 0.26556 0.46075
 H910 H -0.08334 0.25108 0.44473
 H911 H -0.06259 0.31158 0.43026
 H912 H -0.09472 0.32583 0.44669
 C913 C 0.30074 0.86238 0.98443
 C914 C 0.30287 0.84182 0.98953
 C915 C 0.28667 0.83212 1.00047
 C916 C 0.26825 0.84286 1.00599
 C917 C 0.26544 0.86346 1.00010
 C918 C 0.28241 0.87313 0.98990
 C919 C 0.32180 0.83089 0.98352
 C920 C 0.33782 0.82229 0.97797
 C921 C 0.35669 0.81280 0.97087
 C922 C 0.37282 0.80512 0.96425
 C923 C 0.39203 0.79642 0.95564
 C924 C 0.39494 0.77533 0.95440
 C925 C 0.41302 0.76698 0.94465
 C926 C 0.42842 0.77964 0.93595
 C927 C 0.42554 0.80081 0.93773
 C928 C 0.40746 0.80912 0.94748
 H929 H 0.31330 0.87016 0.97626
 H930 H 0.28835 0.81629 1.00492
 H931 H 0.25651 0.83502 1.01523
 H932 H 0.28136 0.88914 0.98603
 H933 H 0.38309 0.76535 0.96066
 H934 H 0.41488 0.75063 0.94375
 H935 H 0.43691 0.81099 0.93092
 H936 H 0.40532 0.82546 0.94823
 C937 C 1.19666 0.85780 0.03723
 C938 C 1.19101 0.84164 0.02475
 C939 C 1.20293 0.83671 0.00654
 C940 C 1.22060 0.84773 0.00103
 C941 C 1.22714 0.86352 0.01397
 C942 C 1.21428 0.86882 0.03178
 C943 C 1.17276 0.83050 0.03066
 C944 C 1.15742 0.82157 0.03630
 C945 C 1.13946 0.81153 0.04371
 C946 C 1.12420 0.80327 0.05073
 C947 C 1.10614 0.79375 0.05996
 C948 C 1.08746 0.79401 0.04949
 C949 C 1.06971 0.78563 0.05910
 C950 C 1.07044 0.77691 0.07934
 C951 C 1.08938 0.77655 0.08959
 C952 C 1.10706 0.78491 0.07997
 H953 H 1.18725 0.86209 0.05109
 H954 H 1.19848 0.82447 -0.00350
 H955 H 1.22926 0.84391 -0.01342
 H956 H 1.21739 0.88178 0.04138
 H957 H 1.08656 0.80085 0.03401
 H958 H 1.05544 0.78597 0.05072
 H959 H 1.09041 0.77030 0.10531
 H960 H 1.12138 0.78476 0.08829
 C961 C 0.69663 0.35883 0.53453
 C962 C 0.69089 0.34293 0.52177
 C963 C 0.70293 0.33804 0.50363
 C964 C 0.72082 0.34885 0.49847
 C965 C 0.72744 0.36439 0.51170
 C966 C 0.71447 0.36965 0.52944
 C967 C 0.67242 0.33197 0.52730
 C968 C 0.65693 0.32315 0.53264
 C969 C 0.63882 0.31317 0.53972
 C970 C 0.62347 0.30491 0.54650
 C971 C 0.60537 0.29530 0.55552
 C972 C 0.58680 0.29545 0.54485
 C973 C 0.56905 0.28688 0.55424
 C974 C 0.56967 0.27807 0.57444
 C975 C 0.58848 0.27787 0.58491
 C976 C 0.60616 0.28641 0.57551
 H977 H 0.68713 0.36309 0.54835
 H978 H 0.69842 0.32600 0.49338
 H979 H 0.72958 0.34509 0.48407
 H980 H 0.71768 0.38243 0.53925
 H981 H 0.58600 0.30233 0.52938
 H982 H 0.55487 0.28712 0.54571
 H983 H 0.58942 0.27157 0.60061
 H984 H 0.62040 0.28635 0.58398
 C985 C 0.30386 0.14555 0.50301
 C986 C 0.30221 0.15605 0.52206
 C987 C 0.28420 0.15461 0.53490
 C988 C 0.26833 0.14198 0.52919
 C989 C 0.27046 0.12987 0.51090
 C990 C 0.28801 0.13290 0.49726
 C991 C 0.31940 0.16745 0.52891
 C992 C 0.33406 0.17631 0.53509
 C993 C 0.35144 0.18591 0.54292
 C994 C 0.36637 0.19345 0.55019
 C995 C 0.38420 0.20166 0.55964
 C996 C 0.39345 0.21917 0.55148
 C997 C 0.41065 0.22708 0.56106
 C998 C 0.41871 0.21757 0.57896
 C999 C 0.40940 0.19987 0.58686
 C1000 C 0.39229 0.19201 0.57728
 H1001 H 0.31752 0.14697 0.49266
 H1002 H 0.28256 0.16296 0.54954
 H1003 H 0.25457 0.14109 0.53947
 H1004 H 0.28971 0.12563 0.48208
 H1005 H 0.38732 0.22677 0.53783
 H1006 H 0.41738 0.24081 0.55473
 H1007 H 0.41545 0.19199 0.60038
 H1008 H 0.38533 0.17839 0.58366
 C1009 C 0.80929 0.63881 0.01175
 C1010 C 0.80445 0.65469 0.02569
 C1011 C 0.78375 0.65889 0.03191
 C1012 C 0.76794 0.64745 0.02391
 C1013 C 0.77241 0.63195 0.00897
 C1014 C 0.79354 0.62736 0.00374
 C1015 C 0.82090 0.66612 0.03408
 C1016 C 0.83503 0.67527 0.04099
 C1017 C 0.85189 0.68552 0.04908
 C1018 C 0.86645 0.69388 0.05613
 C1019 C 0.88396 0.70341 0.06486
 C1020 C 0.88106 0.71602 0.08242
 C1021 C 0.89816 0.72428 0.09174
 C1022 C 0.91843 0.71999 0.08363
 C1023 C 0.92116 0.70767 0.06567
 C1024 C 0.90402 0.69941 0.05638
 H1025 H 0.82532 0.63503 0.00729
 H1026 H 0.77984 0.67086 0.04311
 H1027 H 0.75208 0.65073 0.02934
 H1028 H 0.79819 0.61463 -0.00617
 H1029 H 0.86561 0.71924 0.08910
 H1030 H 0.89553 0.73393 0.10537
 H1031 H 0.93656 0.70390 0.05921
 H1032 H 0.90645 0.68960 0.04284
 C1033 C 0.72008 0.66294 0.98004
 C1034 C 0.70168 0.65289 0.97679
 C1035 C 0.70064 0.63210 0.98085
 C1036 C 0.71771 0.62147 0.98859
 C1037 C 0.73611 0.63149 0.99309
 C1038 C 0.73725 0.65233 0.98781
 C1039 C 0.68386 0.66368 0.96899
 C1040 C 0.66863 0.67217 0.96243
 C1041 C 0.65054 0.68151 0.95464
 C1042 C 0.63496 0.68901 0.94776
 C1043 C 0.61629 0.69744 0.93916
 C1044 C 0.60787 0.68818 0.92183
 C1045 C 0.58985 0.69626 0.91325
 C1046 C 0.57995 0.71378 0.92188
 C1047 C 0.58841 0.72290 0.93944
 C1048 C 0.60649 0.71477 0.94801
 H1049 H 0.72124 0.67896 0.97639
 H1050 H 0.68661 0.62405 0.97800
 H1051 H 0.71650 0.60532 0.99139
 H1052 H 0.75140 0.66051 0.98925
 H1053 H 0.61526 0.67469 0.91493
 H1054 H 0.58355 0.68871 0.89994
 H1055 H 0.58127 0.73651 0.94630
 H1056 H 0.61288 0.72207 0.96143
 C1057 C 0.21986 0.15464 0.47546
 C1058 C 0.20172 0.15631 0.48819
 C1059 C 0.20048 0.14602 0.50745
 C1060 C 0.21689 0.13333 0.51353
 C1061 C 0.23465 0.13005 0.50004
 C1062 C 0.23630 0.14198 0.48151
 C1063 C 0.18404 0.16780 0.48105
 C1064 C 0.16902 0.17682 0.47471
 C1065 C 0.15127 0.18674 0.46683
 C1066 C 0.13606 0.19474 0.45969
 C1067 C 0.11792 0.20378 0.45061
 C1068 C 0.09811 0.19960 0.45910
 C1069 C 0.08046 0.20736 0.44945
 C1070 C 0.08242 0.21934 0.43111
 C1071 C 0.10241 0.22375 0.42295
 C1072 C 0.12002 0.21601 0.43263
 H1073 H 0.22117 0.16284 0.46067
 H1074 H 0.18670 0.14763 0.51771
 H1075 H 0.21546 0.12619 0.52884
 H1076 H 0.25013 0.14088 0.47130
 H1077 H 0.09630 0.19005 0.47294
 H1078 H 0.06530 0.20351 0.45597
 H1079 H 0.10444 0.23317 0.40904
 H1080 H 0.13527 0.21933 0.42592
 C1081 C 0.57941 0.03940 0.72248
 C1082 C 0.57022 0.05203 0.73798
 C1083 C 0.57279 0.04745 0.75922
 C1084 C 0.58549 0.03093 0.76487
 C1085 C 0.59667 0.01928 0.74936
 C1086 C 0.59216 0.02298 0.72807
 C1087 C 0.55931 0.07029 0.73179
 C1088 C 0.55121 0.08578 0.72564
 C1089 C 0.54287 0.10399 0.71734
 C1090 C 0.53664 0.11948 0.70933
 C1091 C 0.53024 0.13777 0.69867
 C1092 C 0.51448 0.15056 0.70734
 C1093 C 0.50841 0.16822 0.69660
 C1094 C 0.51803 0.17320 0.67703
 C1095 C 0.53396 0.16031 0.66861
 C1096 C 0.53999 0.14275 0.67934
 H1097 H 0.57705 0.04247 0.70598
 H1098 H 0.56538 0.05688 0.77140
 H1099 H 0.58735 0.02774 0.78142
 H1100 H 0.59853 0.01337 0.71556
 H1101 H 0.50683 0.14685 0.72231
 H1102 H 0.49598 0.17775 0.70339
 H1103 H 0.54190 0.16390 0.65376
 H1104 H 0.55228 0.13302 0.67254
 C1105 C 1.08346 0.55126 0.25784
 C1106 C 1.07240 0.55123 0.23942
 C1107 C 1.07331 0.53407 0.22657
 C1108 C 1.08610 0.51744 0.23154
 C1109 C 1.09895 0.51795 0.24900
 C1110 C 1.09628 0.53465 0.26284
 C1111 C 1.06119 0.56925 0.23303
 C1112 C 1.05258 0.58459 0.22717
 C1113 C 1.04335 0.60273 0.21966
 C1114 C 1.03609 0.61827 0.21266
 C1115 C 1.02812 0.63678 0.20354
 C1116 C 1.01383 0.63597 0.18763
 C1117 C 1.00747 0.65375 0.17739
 C1118 C 1.01539 0.67260 0.18289
 C1119 C 1.02930 0.67334 0.19932
 C1120 C 1.03566 0.65552 0.20953
 H1121 H 1.08244 0.56427 0.26821
 H1122 H 1.06451 0.53372 0.21243
 H1123 H 1.08669 0.50442 0.22120
 H1124 H 1.10409 0.53514 0.27753
 H1125 H 1.00792 0.62155 0.18284
 H1126 H 0.99651 0.65273 0.16501
 H1127 H 1.03583 0.68759 0.20376
 H1128 H 1.04685 0.65630 0.22173
 C1129 C 0.90890 0.96226 0.21797
 C1130 C 0.92406 0.95495 0.23132
 C1131 C 0.92817 0.96577 0.24946
 C1132 C 0.91723 0.98395 0.25409
 C1133 C 0.90233 0.99200 0.24036
 C1134 C 0.89796 0.98032 0.22254
 C1135 C 0.93453 0.93588 0.22649
 C1136 C 0.94235 0.91975 0.22136
 C1137 C 0.95042 0.90081 0.21414
 C1138 C 0.95640 0.88469 0.20699
 C1139 C 0.96244 0.86563 0.19730
 C1140 C 0.97357 0.85071 0.20825
 C1141 C 0.97857 0.83198 0.19876
 C1142 C 0.97237 0.82796 0.17826
 C1143 C 0.96143 0.84317 0.16735
 C1144 C 0.95651 0.86182 0.17682
 H1145 H 0.90518 0.95371 0.20417
 H1146 H 0.93958 0.96003 0.26019
 H1147 H 0.92026 0.99174 0.26854
 H1148 H 0.88560 0.98458 0.21230
 H1149 H 0.97818 0.85348 0.22416
 H1150 H 0.98689 0.82051 0.20758
 H1151 H 0.95677 0.84068 0.15142
 H1152 H 0.94793 0.87326 0.16818
 C1153 C 0.40745 0.46037 0.71616
 C1154 C 0.42315 0.45344 0.72905
 C1155 C 0.42754 0.46440 0.74702
 C1156 C 0.41629 0.48234 0.75195
 C1157 C 0.40079 0.49000 0.73869
 C1158 C 0.39620 0.47819 0.72103
 C1159 C 0.43387 0.43456 0.72395
 C1160 C 0.44180 0.41856 0.71855
 C1161 C 0.44991 0.39975 0.71101
 C1162 C 0.45586 0.38374 0.70358
 C1163 C 0.46183 0.36481 0.69359
 C1164 C 0.47332 0.34988 0.70414
 C1165 C 0.47828 0.33128 0.69436
 C1166 C 0.47167 0.32740 0.67397
 C1167 C 0.46036 0.34262 0.66347
 C1168 C 0.45548 0.36115 0.67322
 H1169 H 0.40354 0.45171 0.70250
 H1170 H 0.43938 0.45893 0.75740
 H1171 H 0.41954 0.49023 0.76629
 H1172 H 0.38345 0.48214 0.71117
 H1173 H 0.47825 0.35253 0.71995
 H1174 H 0.48690 0.31980 0.70287
 H1175 H 0.45538 0.34025 0.64763
 H1176 H 0.44661 0.37260 0.66490
 C1177 C 0.39961 0.56177 0.76559
 C1178 C 0.42102 0.56271 0.76177
 C1179 C 0.43182 0.54646 0.75192
 C1180 C 0.42130 0.52907 0.74641
 C1181 C 0.39982 0.52740 0.75128
 C1182 C 0.38910 0.54449 0.76016
 C1183 C 0.43169 0.58024 0.76860
 C1184 C 0.43975 0.59507 0.77523
 C1185 C 0.44822 0.61247 0.78401
 C1186 C 0.45469 0.62724 0.79240
 C1187 C 0.46153 0.64466 0.80349
 C1188 C 0.47719 0.65684 0.79483
 C1189 C 0.48381 0.67355 0.80603
 C1190 C 0.47487 0.67819 0.82607
 C1191 C 0.45900 0.66595 0.83447
 C1192 C 0.45241 0.64933 0.82327
 H1193 H 0.39102 0.57437 0.77296
 H1194 H 0.44837 0.54721 0.74850
 H1195 H 0.43009 0.51719 0.73816
 H1196 H 0.37248 0.54423 0.76329
 H1197 H 0.48436 0.65335 0.77952
 H1198 H 0.49617 0.68260 0.79924
 H1199 H 0.45156 0.66931 0.84969
 H1200 H 0.44021 0.64007 0.83008
 C1201 C -0.09734 0.06367 0.26731
 C1202 C -0.07580 0.06388 0.26425
 C1203 C -0.06527 0.04735 0.25461
 C1204 C -0.07621 0.03039 0.24863
 C1205 C -0.09787 0.02940 0.25283
 C1206 C -0.10827 0.04681 0.26141
 C1207 C -0.06470 0.08090 0.27170
 C1208 C -0.05625 0.09529 0.27880
 C1209 C -0.04731 0.11220 0.28806
 C1210 C -0.04045 0.12661 0.29677
 C1211 C -0.03315 0.14368 0.30810
 C1212 C -0.01721 0.15559 0.29957
 C1213 C -0.01038 0.17217 0.31083
 C1214 C -0.01942 0.17699 0.33078
 C1215 C -0.03548 0.16495 0.33912
 C1216 C -0.04227 0.14844 0.32786
 H1217 H -0.10571 0.07650 0.27450
 H1218 H -0.04861 0.04754 0.25175
 H1219 H -0.06758 0.01827 0.24059
 H1220 H -0.12497 0.04709 0.26402
 H1221 H -0.01003 0.15203 0.28428
 H1222 H 0.00214 0.18105 0.30408
 H1223 H -0.04301 0.16845 0.35425
 H1224 H -0.05470 0.13940 0.33457
 C1225 C 0.07542 0.46727 0.28562
 C1226 C 0.07395 0.45009 0.27306
 C1227 C 0.08378 0.44956 0.25307
 C1228 C 0.09603 0.46564 0.24612
 C1229 C 0.09937 0.48227 0.25944
 C1230 C 0.08765 0.48337 0.27870
 C1231 C 0.06364 0.43245 0.28126
 C1232 C 0.05597 0.41735 0.28856
 C1233 C 0.04803 0.39941 0.29761
 C1234 C 0.04212 0.38395 0.30580
 C1235 C 0.03606 0.36543 0.31615
 C1236 C 0.02473 0.35104 0.30569
 C1237 C 0.01986 0.33265 0.31560
 C1238 C 0.02639 0.32842 0.33605
 C1239 C 0.03751 0.34312 0.34650
 C1240 C 0.04231 0.36146 0.33661
 H1241 H 0.06758 0.46802 0.30101
 H1242 H 0.08231 0.43653 0.24297
 H1243 H 0.10290 0.46477 0.23036
 H1244 H 0.08875 0.49640 0.28886
 H1245 H 0.01991 0.35392 0.28980
 H1246 H 0.01142 0.32156 0.30711
 H1247 H 0.04244 0.34047 0.36238
 H1248 H 0.05108 0.37249 0.34485
 C1249 C 0.58162 0.96548 0.79349
 C1250 C 0.57151 0.95365 0.77913
 C1251 C 0.57285 0.95852 0.75771
 C1252 C 0.58519 0.97448 0.75058
 C1253 C 0.59720 0.98530 0.76463
 C1254 C 0.59399 0.98139 0.78640
 C1255 C 0.56091 0.93581 0.78636
 C1256 C 0.55302 0.92049 0.79280
 C1257 C 0.54487 0.90222 0.80084
 C1258 C 0.53883 0.88644 0.80818
 C1259 C 0.53268 0.86749 0.81755
 C1260 C 0.52083 0.85391 0.80656
 C1261 C 0.51590 0.83509 0.81550
 C1262 C 0.52291 0.82961 0.83548
 C1263 C 0.53454 0.84351 0.84648
 C1264 C 0.53939 0.86228 0.83756
 H1265 H 0.58023 0.96218 0.81020
 H1266 H 0.56476 0.94972 0.74645
 H1267 H 0.58608 0.97786 0.73389
 H1268 H 0.60109 0.99043 0.79812
 H1269 H 0.51565 0.85776 0.79101
 H1270 H 0.50705 0.82464 0.80660
 H1271 H 0.53983 0.83989 0.86203
 H1272 H 0.54856 0.87267 0.84621
 C1273 C 0.72531 0.59962 0.05169
 C1274 C 0.73847 0.58380 0.05809
 C1275 C 0.75699 0.57955 0.04659
 C1276 C 0.76206 0.59081 0.02844
 C1277 C 0.74835 0.60607 0.02099
 C1278 C 0.73031 0.61084 0.03360
 C1279 C 0.73267 0.57213 0.07652
 C1280 C 0.72680 0.56280 0.09190
 C1281 C 0.71879 0.55238 0.10978
 C1282 C 0.71103 0.54391 0.12488
 C1283 C 0.70066 0.53433 0.14264
 C1284 C 0.70431 0.54053 0.16316
 C1285 C 0.69263 0.53270 0.18022
 C1286 C 0.67705 0.51865 0.17693
 C1287 C 0.67396 0.51206 0.15631
 C1288 C 0.68567 0.51987 0.13930
 H1289 H 0.71118 0.60340 0.06080
 H1290 H 0.76753 0.56760 0.05164
 H1291 H 0.77667 0.58745 0.02002
 H1292 H 0.72006 0.62348 0.02988
 H1293 H 0.71577 0.55183 0.16592
 H1294 H 0.69522 0.53822 0.19588
 H1295 H 0.66229 0.50105 0.15331
 H1296 H 0.68268 0.51500 0.12349
 C1297 C 0.25335 1.08522 0.55829
 C1298 C 0.23477 1.07488 0.55758
 C1299 C 0.22297 1.07645 0.53967
 C1300 C 0.22923 1.08903 0.52297
 C1301 C 0.24702 1.10097 0.52412
 C1302 C 0.25965 1.09782 0.54160
 C1303 C 0.22728 1.06347 0.57557
 C1304 C 0.22045 1.05452 0.59082
 C1305 C 0.21177 1.04471 0.60877
 C1306 C 0.20374 1.03687 0.62411
 C1307 C 0.19337 1.02812 0.64234
 C1308 C 0.17743 1.01448 0.63979
 C1309 C 0.16597 1.00741 0.65734
 C1310 C 0.17026 1.01395 0.67771
 C1311 C 0.18673 1.02718 0.68017
 C1312 C 0.19817 1.03426 0.66257
 H1313 H 0.26290 1.08370 0.57186
 H1314 H 0.20872 1.06822 0.53876
 H1315 H 0.21973 1.09003 0.50933
 H1316 H 0.27444 1.10498 0.54258
 H1317 H 0.17355 1.00964 0.62421
 H1318 H 0.15358 0.99701 0.65497
 H1319 H 0.19027 1.03266 0.69561
 H1320 H 0.21039 1.04493 0.66471
 C1321 C 0.23323 0.89435 0.95043
 C1322 C 0.21889 0.91020 0.95464
 C1323 C 0.21339 0.91525 0.97550
 C1324 C 0.22238 0.90461 0.99206
 C1325 C 0.23753 0.88904 0.98815
 C1326 C 0.24221 0.88369 0.96692
 C1327 C 0.20919 0.92052 0.93745
 C1328 C 0.20114 0.92861 0.92270
 C1329 C 0.19171 0.93744 0.90508
 C1330 C 0.18360 0.94445 0.88981
 C1331 C 0.17375 0.95216 0.87137
 C1332 C 0.15315 0.94746 0.86796
 C1333 C 0.14379 0.95398 0.84959
 C1334 C 0.15494 0.96530 0.83431
 C1335 C 0.17556 0.97025 0.83802
 C1336 C 0.18490 0.96367 0.85642
 H1337 H 0.23717 0.88992 0.93434
 H1338 H 0.20193 0.92721 0.97897
 H1339 H 0.21741 0.90847 1.00805
 H1340 H 0.25237 0.87088 0.96283
 H1341 H 0.14436 0.93856 0.87942
 H1342 H 0.12780 0.95021 0.84736
 H1343 H 0.18460 0.97876 0.82647
 H1344 H 0.20090 0.96731 0.85885
 C1345 C 0.71479 0.41694 0.47398
 C1346 C 0.72034 0.41211 0.45308
 C1347 C 0.73439 0.39606 0.44871
 C1348 C 0.74307 0.38499 0.46508
 C1349 C 0.73836 0.39011 0.48637
 C1350 C 0.72347 0.40589 0.49043
 C1351 C 0.71095 0.42288 0.43600
 C1352 C 0.70314 0.43131 0.42131
 C1353 C 0.69399 0.44049 0.40373
 C1354 C 0.68608 0.44772 0.38846
 C1355 C 0.67647 0.45559 0.36996
 C1356 C 0.68769 0.46750 0.35543
 C1357 C 0.67865 0.47406 0.33686
 C1358 C 0.65829 0.46868 0.33257
 C1359 C 0.64704 0.45703 0.34748
 C1360 C 0.65609 0.45053 0.36602
 H1361 H 0.70353 0.42905 0.47757
 H1362 H 0.73835 0.39181 0.43256
 H1363 H 0.75301 0.37206 0.46087
 H1364 H 0.71848 0.40960 0.50645
 H1365 H 0.70353 0.47142 0.35827
 H1366 H 0.68775 0.48285 0.32560
 H1367 H 0.63123 0.45292 0.34480
 H1368 H 0.64726 0.44132 0.37716
 C1369 C 0.76693 0.39074 0.55878
 C1370 C 0.77167 0.41117 0.55627
 C1371 C 0.76819 0.42097 0.53712
 C1372 C 0.75980 0.41041 0.52058
 C1373 C 0.75419 0.38990 0.52308
 C1374 C 0.75858 0.38016 0.54232
 C1375 C 0.78088 0.42173 0.57314
 C1376 C 0.78882 0.43007 0.58746
 C1377 C 0.79838 0.43929 0.60440
 C1378 C 0.80678 0.44675 0.61895
 C1379 C 0.81714 0.45520 0.63637
 C1380 C 0.83317 0.46881 0.63270
 C1381 C 0.84393 0.47625 0.64954
 C1382 C 0.83880 0.47013 0.67032
 C1383 C 0.82244 0.45667 0.67387
 C1384 C 0.81172 0.44924 0.65699
 H1385 H 0.76996 0.38286 0.57339
 H1386 H 0.77232 0.43667 0.53483
 H1387 H 0.75834 0.41829 0.50574
 H1388 H 0.75555 0.36420 0.54456
 H1389 H 0.83750 0.47353 0.61680
 H1390 H 0.85624 0.48681 0.64632
 H1391 H 0.81829 0.45148 0.68964
 H1392 H 0.79940 0.43862 0.66001
 C1393 C 0.26647 -0.10899 0.06039
 C1394 C 0.27065 -0.08844 0.05771
 C1395 C 0.26687 -0.07890 0.03849
 C1396 C 0.25869 -0.08981 0.02207
 C1397 C 0.25360 -0.11044 0.02477
 C1398 C 0.25833 -0.11991 0.04406
 C1399 C 0.27951 -0.07750 0.07454
 C1400 C 0.28711 -0.06892 0.08891
 C1401 C 0.29623 -0.05948 0.10599
 C1402 C 0.30426 -0.05189 0.12071
 C1403 C 0.31415 -0.04335 0.13839
 C1404 C 0.32939 -0.02882 0.13515
 C1405 C 0.33978 -0.02133 0.15223
 C1406 C 0.33507 -0.02831 0.17280
 C1407 C 0.31948 -0.04268 0.17592
 C1408 C 0.30912 -0.05015 0.15882
 H1409 H 0.26972 -0.11666 0.07505
 H1410 H 0.27056 -0.06310 0.03606
 H1411 H 0.25694 -0.08210 0.00718
 H1412 H 0.25568 -0.13593 0.04646
 H1413 H 0.33341 -0.02344 0.11941
 H1414 H 0.35150 -0.01008 0.14934
 H1415 H 0.31568 -0.04854 0.19151
 H1416 H 0.29742 -0.06148 0.16149
 C1417 C 0.25336 0.08491 0.45348
 C1418 C 0.27246 0.07449 0.45413
 C1419 C 0.28433 0.07600 0.47193
 C1420 C 0.27759 0.08866 0.48853
 C1421 C 0.25923 0.10077 0.48733
 C1422 C 0.24659 0.09760 0.47004
 C1423 C 0.28040 0.06331 0.43602
 C1424 C 0.28729 0.05484 0.42039
 C1425 C 0.29566 0.04596 0.40164
 C1426 C 0.30308 0.03928 0.38531
 C1427 C 0.31230 0.03243 0.36551
 C1428 C 0.32334 0.01388 0.36410
 C1429 C 0.33356 0.00813 0.34512
 C1430 C 0.33294 0.02098 0.32738
 C1431 C 0.32136 0.03934 0.32885
 C1432 C 0.31114 0.04501 0.34778
 H1433 H 0.24378 0.08345 0.43999
 H1434 H 0.29901 0.06772 0.47279
 H1435 H 0.28713 0.08966 0.50209
 H1436 H 0.23145 0.10485 0.46908
 H1437 H 0.32443 0.00407 0.37777
 H1438 H 0.34252 -0.00600 0.34451
 H1439 H 0.32036 0.04941 0.31538
 H1440 H 0.30264 0.05941 0.34869
 C1441 C 0.77728 0.60437 0.94628
 C1442 C 0.77431 0.58348 0.94554
 C1443 C 0.76430 0.57374 0.96255
 C1444 C 0.75779 0.58477 0.98050
 C1445 C 0.76177 0.60571 0.98203
 C1446 C 0.77082 0.61539 0.96414
 C1447 C 0.78174 0.57225 0.92726
 C1448 C 0.78852 0.56353 0.91173
 C1449 C 0.79706 0.55415 0.89332
 C1450 C 0.80483 0.54686 0.87743
 C1451 C 0.81465 0.53904 0.85830
 C1452 C 0.82509 0.52014 0.85814
 C1453 C 0.83592 0.51335 0.83987
 C1454 C 0.83652 0.52548 0.82157
 C1455 C 0.82557 0.54423 0.82177
 C1456 C 0.81474 0.55095 0.84001
 H1457 H 0.78468 0.61216 0.93305
 H1458 H 0.76146 0.55764 0.96192
 H1459 H 0.74939 0.57680 0.99291
 H1460 H 0.77320 0.63159 0.96419
 H1461 H 0.82523 0.51085 0.87225
 H1462 H 0.84436 0.49895 0.84026
 H1463 H 0.82550 0.55377 0.80785
 H1464 H 0.80673 0.56561 0.83995
 C1465 C 0.05089 0.74409 0.59566
 C1466 C 0.04828 0.73040 0.57936
 C1467 C 0.02833 0.72466 0.57455
 C1468 C 0.01105 0.73273 0.58592
 C1469 C 0.01327 0.74718 0.60198
 C1470 C 0.03367 0.75216 0.60705
 C1471 C 0.06621 0.72156 0.56835
 C1472 C 0.08151 0.71413 0.55967
 C1473 C 0.09967 0.70533 0.55008
 C1474 C 0.11533 0.69764 0.54237
 C1475 C 0.13412 0.68818 0.53372
 C1476 C 0.13315 0.67176 0.51999
 C1477 C 0.15138 0.66179 0.51257
 C1478 C 0.17084 0.66812 0.51884
 C1479 C 0.17168 0.68491 0.53232
 C1480 C 0.15342 0.69484 0.53973
 H1481 H 0.06631 0.74819 0.59990
 H1482 H 0.02614 0.71370 0.56226
 H1483 H -0.00419 0.72760 0.58225
 H1484 H 0.03660 0.76181 0.62022
 H1485 H 0.11829 0.66648 0.51524
 H1486 H 0.15025 0.64910 0.50198
 H1487 H 0.18640 0.68998 0.53762
 H1488 H 0.15434 0.70748 0.55045
 C1489 C 0.53520 0.21630 1.08959
 C1490 C 0.54787 0.23020 1.07898
 C1491 C 0.54316 0.25097 1.08055
 C1492 C 0.52646 0.25783 1.09356
 C1493 C 0.51471 0.24410 1.10604
 C1494 C 0.51856 0.22312 1.10265
 C1495 C 0.56627 0.22302 1.06750
 C1496 C 0.58194 0.21637 1.05883
 C1497 C 0.60047 0.20786 1.04972
 C1498 C 0.61634 0.19997 1.04278
 C1499 C 0.63525 0.18978 1.03544
 C1500 C 0.64732 0.19770 1.01869
 C1501 C 0.66572 0.18760 1.01182
 C1502 C 0.67220 0.16945 1.02164
 C1503 C 0.65998 0.16172 1.03852
 C1504 C 0.64165 0.17182 1.04535
 H1505 H 0.53836 0.20014 1.08802
 H1506 H 0.55262 0.26188 1.07204
 H1507 H 0.52317 0.27400 1.09457
 H1508 H 0.50886 0.21179 1.11004
 H1509 H 0.64249 0.21160 1.01091
 H1510 H 0.67469 0.19381 0.99866
 H1511 H 0.66471 0.14798 1.04663
 H1512 H 0.63249 0.16562 1.05841
 C1513 C 0.95015 0.23421 0.89139
 C1514 C 0.95134 0.22974 0.91279
 C1515 C 0.97006 0.23204 0.92274
 C1516 C 0.98746 0.23913 0.91136
 C1517 C 0.98628 0.24459 0.88988
 C1518 C 0.96744 0.24126 0.88001
 C1519 C 0.93340 0.22216 0.92414
 C1520 C 0.91794 0.21569 0.93275
 C1521 C 0.89947 0.20789 0.94180
 C1522 C 0.88346 0.20098 0.94866
 C1523 C 0.86416 0.19236 0.95583
 C1524 C 0.86214 0.18341 0.97580
 C1525 C 0.84377 0.17384 0.98203
 C1526 C 0.82727 0.17304 0.96828
 C1527 C 0.82931 0.18249 0.94844
 C1528 C 0.84764 0.19206 0.94227
 H1529 H 0.93585 0.23208 0.88340
 H1530 H 0.97130 0.22808 0.93921
 H1531 H 1.00186 0.23981 0.91940
 H1532 H 0.96613 0.24425 0.86334
 H1533 H 0.87488 0.18347 0.98637
 H1534 H 0.84274 0.16649 0.99730
 H1535 H 0.81677 0.18234 0.93764
 H1536 H 0.84904 0.19895 0.92678
 C1537 C 0.44798 0.73217 0.38838
 C1538 C 0.44927 0.72763 0.40977
 C1539 C 0.46795 0.73017 0.41970
 C1540 C 0.48523 0.73756 0.40834
 C1541 C 0.48394 0.74308 0.38688
 C1542 C 0.46515 0.73951 0.37702
 C1543 C 0.43145 0.71977 0.42111
 C1544 C 0.41611 0.71307 0.42976
 C1545 C 0.39778 0.70505 0.43890
 C1546 C 0.38187 0.69798 0.44586
 C1547 C 0.36269 0.68921 0.45318
 C1548 C 0.36073 0.68065 0.47335
 C1549 C 0.34244 0.67105 0.47980
 C1550 C 0.32595 0.66982 0.46608
 C1551 C 0.32794 0.67885 0.44602
 C1552 C 0.34619 0.68846 0.43964
 H1553 H 0.43371 0.72987 0.38041
 H1554 H 0.46926 0.72617 0.43615
 H1555 H 0.49961 0.73842 0.41637
 H1556 H 0.46377 0.74256 0.36037
 H1557 H 0.37346 0.68107 0.48392
 H1558 H 0.34145 0.66404 0.49524
 H1559 H 0.31541 0.67837 0.43523
 H1560 H 0.34754 0.69504 0.42400
 C1561 C 0.55810 0.75983 0.39180
 C1562 C 0.55398 0.77346 0.40828
 C1563 C 0.53350 0.77952 0.41353
 C1564 C 0.51719 0.77179 0.40247
 C1565 C 0.52094 0.75735 0.38630
 C1566 C 0.54186 0.75210 0.38072
 C1567 C 0.57092 0.78186 0.41905
 C1568 C 0.58539 0.78894 0.42760
 C1569 C 0.60255 0.79739 0.43707
 C1570 C 0.61731 0.80484 0.44475
 C1571 C 0.63495 0.81413 0.45345
 C1572 C 0.63199 0.82987 0.46802
 C1573 C 0.64906 0.83983 0.47546
 C1574 C 0.66935 0.83419 0.46838
 C1575 C 0.67219 0.81803 0.45409
 C1576 C 0.65508 0.80810 0.44665
 H1577 H 0.57395 0.75548 0.38721
 H1578 H 0.53015 0.79045 0.42595
 H1579 H 0.50153 0.77717 0.40648
 H1580 H 0.54593 0.74244 0.36742
 H1581 H 0.61648 0.83466 0.47340
 H1582 H 0.64639 0.85201 0.48668
 H1583 H 0.68759 0.81349 0.44818
 H1584 H 0.65754 0.79599 0.43529
 C1585 C 0.06060 0.26057 -0.10509
 C1586 C 0.05656 0.27426 -0.08866
 C1587 C 0.03613 0.28057 -0.08353
 C1588 C 0.01978 0.27298 -0.09463
 C1589 C 0.02344 0.25844 -0.11072
 C1590 C 0.04432 0.25297 -0.11622
 C1591 C 0.07355 0.28244 -0.07778
 C1592 C 0.08809 0.28927 -0.06915
 C1593 C 0.10539 0.29733 -0.05959
 C1594 C 0.12034 0.30437 -0.05187
 C1595 C 0.13832 0.31306 -0.04320
 C1596 C 0.13598 0.32880 -0.02856
 C1597 C 0.15344 0.33808 -0.02110
 C1598 C 0.17351 0.33174 -0.02823
 C1599 C 0.17572 0.31561 -0.04262
 C1600 C 0.15822 0.30636 -0.05007
 H1601 H 0.07643 0.25603 -0.10960
 H1602 H 0.03285 0.29155 -0.07114
 H1603 H 0.00416 0.27852 -0.09069
 H1604 H 0.04832 0.24323 -0.12947
 H1605 H 0.12065 0.33409 -0.02313
 H1606 H 0.15125 0.35027 -0.00981
 H1607 H 0.19093 0.31055 -0.04860
 H1608 H 0.16021 0.29424 -0.06148
 C1609 C 0.45348 0.25154 0.08143
 C1610 C 0.44868 0.27216 0.07879
 C1611 C 0.46044 0.28662 0.08854
 C1612 C 0.47627 0.28052 0.10172
 C1613 C 0.48014 0.25973 0.10610
 C1614 C 0.46933 0.24540 0.09457
 C1615 C 0.43104 0.27856 0.06706
 C1616 C 0.41583 0.28425 0.05811
 C1617 C 0.39759 0.29136 0.04866
 C1618 C 0.38172 0.29786 0.04149
 C1619 C 0.36251 0.30619 0.03406
 C1620 C 0.34477 0.30643 0.04749
 C1621 C 0.32649 0.31609 0.04127
 C1622 C 0.32570 0.32569 0.02149
 C1623 C 0.34340 0.32482 0.00779
 C1624 C 0.36173 0.31517 0.01409
 H1625 H 0.44474 0.24018 0.07363
 H1626 H 0.45721 0.30267 0.08616
 H1627 H 0.48535 0.29224 0.10836
 H1628 H 0.47271 0.22931 0.09636
 H1629 H 0.34520 0.29953 0.06299
 H1630 H 0.31303 0.31629 0.05203
 H1631 H 0.34330 0.33225 -0.00744
 H1632 H 0.37541 0.31517 0.00362
 C1633 C 0.96190 0.77560 0.56933
 C1634 C 0.94245 0.77877 0.57948
 C1635 C 0.93981 0.77450 0.60094
 C1636 C 0.95639 0.76673 0.61215
 C1637 C 0.97594 0.76246 0.60205
 C1638 C 0.97857 0.76780 0.58053
 C1639 C 0.92525 0.78696 0.56817
 C1640 C 0.91051 0.79400 0.55935
 C1641 C 0.89292 0.80253 0.54981
 C1642 C 0.87768 0.81018 0.54240
 C1643 C 0.85931 0.81985 0.53449
 C1644 C 0.85440 0.83998 0.53996
 C1645 C 0.83603 0.84924 0.53345
 C1646 C 0.82224 0.83847 0.52138
 C1647 C 0.82748 0.81836 0.51557
 C1648 C 0.84590 0.80908 0.52216
 H1649 H 0.96426 0.77940 0.55282
 H1650 H 0.92492 0.77729 0.60908
 H1651 H 0.95396 0.76382 0.62885
 H1652 H 0.99352 0.76644 0.57228
 H1653 H 0.86467 0.84846 0.54947
 H1654 H 0.83261 0.86486 0.53785
 H1655 H 0.81710 0.80966 0.50641
 H1656 H 0.84952 0.79344 0.51792
   
