data_POSCAR
  _audit_creation_date              2014-09-24
  _audit_creation_method            'ToBaCCo'
  _symmetry_space_group_name_H-M    'P1'
  _symmetry_Int_Tables_number       1
  _symmetry_cell_setting            triclinic
  loop_
  _symmetry_equiv_pos_as_xyz
 x,y,z
_cell_length_a 51.7566
_cell_length_b 52.1838
_cell_length_c 52.2567
_cell_angle_alpha 88.663600
_cell_angle_beta 87.869800
_cell_angle_gamma 88.248100
loop_
  _atom_site_label
  _atom_site_type_symbol
  _atom_site_fract_x
  _atom_site_fract_y
  _atom_site_fract_z
C1 C 0.79612 0.64093 1.00383
 C2 C 0.79919 0.61954 0.98415
 C3 C 0.77712 0.60684 0.98027
 C4 C 0.75383 0.61653 0.99686
 C5 C 0.77384 0.65808 0.99354
 C6 C 0.75163 0.64533 0.99002
 C7 C 0.78471 0.62801 1.02805
 C8 C 0.76257 0.61542 1.02463
 H9 H 0.81617 0.61745 0.97154
 H10 H 0.73602 0.60582 0.99401
 H11 H 0.77580 0.67815 0.98846
 H12 H 0.79311 0.62958 1.04662
 C13 C 0.79524 0.35732 0.47448
 C14 C 0.79909 0.37653 0.49574
 C15 C 0.77770 0.39127 0.50199
 C16 C 0.75400 0.38533 0.48634
 C17 C 0.77194 0.34183 0.48392
 C18 C 0.75028 0.35625 0.49003
 C19 C 0.78519 0.37414 0.45233
 C20 C 0.76342 0.38843 0.45817
 H21 H 0.81712 0.37883 0.50501
 H22 H 0.73647 0.39724 0.49117
 H23 H 0.77277 0.32111 0.48572
 H24 H 0.79473 0.37466 0.43353
 C25 C 0.29543 -0.13517 -0.03282
 C26 C 0.30083 -0.11786 -0.01228
 C27 C 0.27878 -0.10292 -0.00313
 C28 C 0.25542 -0.10774 -0.01726
 C29 C 0.27377 -0.15024 -0.02323
 C30 C 0.25145 -0.13544 -0.01440
 C31 C 0.28500 -0.11798 -0.05257
 C32 C 0.26264 -0.10291 -0.04444
 H33 H 0.31979 -0.11644 -0.00453
 H34 H 0.23914 -0.09536 -0.01057
 H35 H 0.27414 -0.17093 -0.02444
 H36 H 0.29380 -0.11626 -0.07155
 C37 C 0.28700 0.13574 0.50739
 C38 C 0.29098 0.11634 0.48586
 C39 C 0.26944 0.10338 0.48059
 C40 C 0.24568 0.11090 0.49761
 C41 C 0.26419 0.15306 0.49842
 C42 C 0.24252 0.14009 0.49306
 C43 C 0.27591 0.12032 0.53020
 C44 C 0.25433 0.10745 0.52534
 H45 H 0.30849 0.11531 0.47386
 H46 H 0.22858 0.09957 0.49366
 H47 H 0.26563 0.17340 0.49474
 H48 H 0.28370 0.12090 0.54914
 C49 C 0.14296 0.49380 0.28627
 C50 C 0.12049 0.47531 0.28922
 C51 C 0.10769 0.47191 0.26730
 C52 C 0.11838 0.48773 0.24428
 C53 C 0.15994 0.48246 0.26425
 C54 C 0.14717 0.47939 0.24216
 C55 C 0.13115 0.51854 0.27505
 C56 C 0.11849 0.51560 0.25308
 H57 H 0.11783 0.46273 0.30582
 H58 H 0.10750 0.48532 0.22666
 H59 H 0.18011 0.47702 0.26619
 H60 H 0.13349 0.53709 0.28344
 C61 C -0.14149 -0.03707 0.29655
 C62 C -0.12522 -0.01396 0.30225
 C63 C -0.10904 -0.00642 0.28255
 C64 C -0.11048 -0.02305 0.25871
 C65 C -0.15558 -0.02854 0.27213
 C66 C -0.13932 -0.02112 0.25235
 C67 C -0.12304 -0.05685 0.28834
 C68 C -0.10607 -0.04974 0.26726
 H69 H -0.12749 -0.00360 0.31996
 H70 H -0.09786 -0.01647 0.24247
 H71 H -0.17630 -0.02576 0.27117
 H72 H -0.12187 -0.07526 0.29826
 C73 C 0.36723 0.48140 0.78089
 C74 C 0.38298 0.50545 0.78412
 C75 C 0.39730 0.51252 0.76293
 C76 C 0.39443 0.49504 0.74001
 C77 C 0.35093 0.48821 0.75753
 C78 C 0.36501 0.49562 0.73613
 C79 C 0.38684 0.46094 0.77151
 C80 C 0.40106 0.46777 0.75018
 H81 H 0.38207 0.51656 0.80140
 H82 H 0.40628 0.50108 0.72291
 H83 H 0.33005 0.48903 0.75834
 H84 H 0.38816 0.44197 0.78032
 C85 C 0.64743 1.01062 0.79811
 C86 C 0.62751 0.98970 0.80280
 C87 C 0.61331 0.98495 0.78212
 C88 C 0.62029 1.00192 0.75850
 C89 C 0.66369 1.00103 0.77469
 C90 C 0.64949 0.99642 0.75388
 C91 C 0.63285 1.03282 0.78881
 C92 C 0.61781 1.02854 0.76690
 H93 H 0.62701 0.97758 0.81993
 H94 H 0.60843 0.99719 0.74221
 H95 H 0.68414 0.99637 0.77499
 H96 H 0.63581 1.05162 0.79626
 C97 C -0.03326 0.29846 -0.13498
 C98 C -0.00930 0.30553 -0.12059
 C99 C 0.00156 0.28587 -0.10672
 C100 C -0.01278 0.26055 -0.10841
 C101 C -0.02446 0.27527 -0.15095
 C102 C -0.01390 0.25528 -0.13722
 C103 C -0.05141 0.28748 -0.11372
 C104 C -0.04083 0.26750 -0.10016
 H105 H -0.00172 0.32465 -0.12121
 H106 H -0.00451 0.24460 -0.09663
 H107 H -0.02650 0.27498 -0.17148
 H108 H -0.07098 0.29441 -0.10965
 C109 C 0.50268 0.29113 0.14895
 C110 C 0.48476 0.29427 0.12633
 C111 C 0.48094 0.27221 0.11384
 C112 C 0.49610 0.24891 0.12457
 C113 C 0.49080 0.26946 0.16580
 C114 C 0.48731 0.24736 0.15299
 C115 C 0.52770 0.27878 0.13773
 C116 C 0.52442 0.25685 0.12490
 H117 H 0.47339 0.31169 0.12280
 H118 H 0.49322 0.23126 0.11375
 H119 H 0.48663 0.27073 0.18613
 H120 H 0.54655 0.28664 0.14019
 C121 C 1.00278 0.79293 0.65121
 C122 C 0.98554 0.79982 0.63047
 C123 C 0.97927 0.77873 0.61487
 C124 C 0.99327 0.75492 0.62216
 C125 C 0.99091 0.77139 0.66494
 C126 C 0.98569 0.75006 0.64915
 C127 C 1.02566 0.78213 0.63787
 C128 C 1.02082 0.76093 0.62202
 H129 H 0.97684 0.81875 0.62806
 H130 H 0.98936 0.73921 0.60935
 H131 H 0.98811 0.77100 0.68558
 H132 H 1.04391 0.79177 0.63655
 C133 C 0.47014 0.79467 0.35775
 C134 C 0.49121 0.80102 0.37622
 C135 C 0.49870 0.78110 0.39169
 C136 C 0.48459 0.75620 0.38717
 C137 C 0.48179 0.77154 0.34308
 C138 C 0.48905 0.75112 0.35834
 C139 C 0.44832 0.78362 0.37476
 C140 C 0.45564 0.76353 0.39018
 H141 H 0.50033 0.81943 0.37619
 H142 H 0.49061 0.74039 0.40032
 H143 H 0.48575 0.77193 0.32265
 H144 H 0.42841 0.79033 0.37336
 C145 C 0.37206 -0.00807 0.26822
 H146 H 0.36836 0.00920 0.27899
 C147 C 0.38586 -0.02871 0.27911
 H148 H 0.39261 -0.02716 0.29835
 C149 C 0.36635 -0.03147 0.23063
 H150 H 0.35836 -0.03268 0.21193
 C151 C 0.38012 -0.05253 0.24075
 H152 H 0.38299 -0.06956 0.22941
 N153 N 0.36264 -0.00977 0.24440
 C154 C 0.35204 0.06610 0.20960
 H155 H 0.33261 0.06453 0.20297
 C156 C 0.36607 0.08794 0.20335
 H157 H 0.35734 0.10288 0.19151
 C158 C 0.38712 0.04798 0.23238
 H159 H 0.39530 0.03236 0.24363
 C160 C 0.40174 0.06961 0.22683
 H161 H 0.42091 0.07044 0.23429
 Zn162 Zn 0.34200 0.01804 0.23190
 N163 N 0.36264 0.04675 0.22398
 C164 C 0.31566 0.05100 0.26669
 N165 N 0.31741 0.02651 0.25831
 C166 C 0.30518 0.00720 0.27129
 C167 C 0.29174 0.01196 0.29450
 C168 C 0.30226 0.05663 0.28961
 C169 C 0.34246 0.00678 0.18046
 C170 C 0.33323 -0.00109 0.15731
 C171 C 0.29078 -0.00483 0.17766
 C172 C 0.30086 0.00326 0.20054
 N173 N 0.32638 0.00852 0.20154
 H174 H 0.32587 0.06600 0.25643
 H175 H 0.30726 -0.01218 0.26445
 H176 H 0.28307 -0.00380 0.30518
 H177 H 0.30240 0.07599 0.29661
 H178 H 0.36267 0.01106 0.18183
 H179 H 0.34664 -0.00310 0.14103
 H180 H 0.27050 -0.00920 0.17717
 H181 H 0.28843 0.00494 0.21755
 C182 C 0.39124 0.09003 0.21214
 C183 C 0.38991 -0.05141 0.26539
 C184 C 0.30712 -0.00722 0.15568
 C185 C 0.29082 0.03684 0.30428
 C186 C 0.06695 1.04544 0.78584
 H187 H 0.06401 1.02660 0.79420
 C188 C 0.05220 1.06630 0.79514
 H189 H 0.03824 1.06323 0.81077
 C190 C 0.08770 1.07208 0.75465
 H191 H 0.10139 1.07441 0.73879
 C192 C 0.07349 1.09349 0.76345
 H193 H 0.07703 1.11205 0.75453
 N194 N 0.08487 1.04873 0.76641
 C195 C 0.09987 0.96856 0.74950
 H196 H 0.12033 0.96747 0.75307
 C197 C 0.08704 0.94644 0.74378
 H198 H 0.09790 0.92841 0.74274
 C199 C 0.06132 0.99378 0.74532
 H200 H 0.05154 1.01239 0.74561
 C201 C 0.04769 0.97207 0.73943
 H202 H 0.02733 0.97409 0.73553
 Zn203 Zn 0.10684 1.02032 0.75656
 N204 N 0.08696 0.99162 0.75006
 C205 C 0.11806 1.00329 0.80666
 N206 N 0.12902 1.01066 0.78369
 C207 C 0.15515 1.00936 0.77957
 C208 C 0.17124 1.00049 0.79895
 C209 C 0.13343 0.99445 0.82660
 C210 C 0.12341 1.01559 0.70459
 C211 C 0.13754 1.02152 0.68205
 C212 C 0.15852 1.05458 0.70444
 C213 C 0.14412 1.04789 0.72661
 N214 N 0.12685 1.02877 0.72631
 H215 H 0.09732 1.00344 0.80937
 H216 H 0.16362 1.01447 0.76105
 H217 H 0.19197 0.99946 0.79524
 H218 H 0.12424 0.98809 0.84449
 H219 H 0.10962 1.00047 0.70462
 H220 H 0.13468 1.01052 0.66513
 H221 H 0.17167 1.07027 0.70504
 H222 H 0.14656 1.05812 0.74408
 C223 C 0.06064 0.94801 0.73847
 C224 C 0.05583 1.09088 0.78433
 C225 C 0.15530 1.04136 0.68170
 C226 C 0.16039 0.99274 0.82280
 C227 C 0.57294 0.54526 0.27309
 H228 H 0.56304 0.52739 0.27208
 C229 C 0.55984 0.56689 0.28297
 H230 H 0.53987 0.56543 0.28960
 C231 C 0.61132 0.56859 0.26666
 H232 H 0.63145 0.56899 0.26033
 C233 C 0.59900 0.59063 0.27635
 H234 H 0.60973 0.60806 0.27708
 N235 N 0.59825 0.54650 0.26531
 C236 C 0.59624 0.46760 0.25518
 H237 H 0.61028 0.46355 0.26956
 C238 C 0.58124 0.44776 0.24710
 H239 H 0.58474 0.42865 0.25494
 C240 C 0.57546 0.49704 0.22700
 H241 H 0.57316 0.51629 0.21927
 C242 C 0.55970 0.47785 0.21869
 H243 H 0.54536 0.48277 0.20471
 Zn244 Zn 0.61698 0.51748 0.25288
 N245 N 0.59376 0.49154 0.24450
 C246 C 0.63804 0.51616 0.30208
 N247 N 0.63946 0.50492 0.27879
 C248 C 0.65551 0.48421 0.27442
 C249 C 0.67056 0.47380 0.29396
 C250 C 0.65276 0.50638 0.32213
 C251 C 0.62268 0.54211 0.20495
 C252 C 0.63512 0.55079 0.18238
 C253 C 0.67478 0.53044 0.19647
 C254 C 0.66163 0.52237 0.21895
 N255 N 0.63591 0.52799 0.22265
 H256 H 0.62507 0.53244 0.30539
 H257 H 0.65600 0.47522 0.25596
 H258 H 0.68255 0.45683 0.29026
 H259 H 0.65125 0.51560 0.34050
 H260 H 0.60249 0.54710 0.20855
 H261 H 0.62420 0.56195 0.16853
 H262 H 0.69527 0.52595 0.19391
 H263 H 0.67214 0.51183 0.23340
 C264 C 0.56294 0.45259 0.22823
 C265 C 0.57296 0.58993 0.28485
 C266 C 0.66150 0.54490 0.17787
 C267 C 0.66910 0.48474 0.31831
 C268 C 0.87694 0.49448 0.76607
 H269 H 0.87476 0.51234 0.77614
 C270 C 0.89035 0.47365 0.77710
 H271 H 0.89839 0.47566 0.79575
 C272 C 0.86752 0.46978 0.73028
 H273 H 0.85815 0.46815 0.71229
 C274 C 0.88078 0.44849 0.74059
 H275 H 0.88187 0.43081 0.73012
 N276 N 0.86573 0.49216 0.74314
 C277 C 0.85299 0.56862 0.70981
 H278 H 0.83266 0.56773 0.70589
 C279 C 0.86664 0.59045 0.70267
 H280 H 0.85670 0.60622 0.69298
 C281 C 0.89067 0.54872 0.72663
 H282 H 0.89998 0.53237 0.73585
 C283 C 0.90508 0.57020 0.71981
 H284 H 0.92535 0.57027 0.72423
 Zn285 Zn 0.84471 0.51988 0.73113
 N286 N 0.86502 0.54847 0.72186
 C287 C 0.82019 0.55285 0.76728
 N288 N 0.82117 0.52851 0.75847
 C289 C 0.80882 0.50928 0.77147
 C290 C 0.79588 0.51397 0.79496
 C291 C 0.80729 0.55842 0.79047
 C292 C 0.84327 0.50845 0.67992
 C293 C 0.83332 0.50038 0.65717
 C294 C 0.79170 0.49588 0.67908
 C295 C 0.80246 0.50430 0.70150
 N296 N 0.82793 0.51002 0.70154
 H297 H 0.83060 0.56778 0.75714
 H298 H 0.81032 0.48998 0.76432
 H299 H 0.78703 0.49826 0.80557
 H300 H 0.80796 0.57765 0.79772
 H301 H 0.86347 0.51305 0.68055
 H302 H 0.84613 0.49858 0.64040
 H303 H 0.77150 0.49105 0.67933
 H304 H 0.79062 0.50581 0.71892
 C305 C 0.89302 0.59152 0.70781
 C306 C 0.89210 0.45014 0.76449
 C307 C 0.80728 0.49374 0.65655
 C308 C 0.79557 0.53872 0.80502
 C309 C 0.28000 0.38919 -0.01590
 H310 H 0.28967 0.38685 0.00204
 C311 C 0.29101 0.40417 -0.03566
 H312 H 0.30884 0.41378 -0.03256
 C313 C 0.24572 0.37853 -0.04215
 H314 H 0.22849 0.36794 -0.04495
 C315 C 0.25602 0.39337 -0.06238
 H316 H 0.24653 0.39398 -0.08051
 N317 N 0.25791 0.37645 -0.01953
 C318 C 0.22236 0.35760 0.05515
 H319 H 0.21649 0.33836 0.05155
 C320 C 0.21405 0.36940 0.07781
 H321 H 0.20189 0.35893 0.09145
 C322 C 0.24341 0.39518 0.04069
 H323 H 0.25429 0.40549 0.02603
 C324 C 0.23578 0.40762 0.06323
 H325 H 0.24160 0.42712 0.06577
 Zn326 Zn 0.24543 0.35313 0.00629
 N327 N 0.23687 0.37048 0.03716
 C328 C 0.26922 0.31073 0.03264
 N329 N 0.27160 0.32742 0.01236
 C330 C 0.29389 0.32804 -0.00225
 C331 C 0.31573 0.31377 0.00498
 C332 C 0.29051 0.29564 0.04028
 C333 C 0.19396 0.35576 -0.00490
 C334 C 0.17053 0.34827 -0.01408
 C335 C 0.18974 0.30626 -0.02199
 C336 C 0.21296 0.31459 -0.01251
 N337 N 0.21465 0.33912 -0.00463
 H338 H 0.25119 0.30991 0.04365
 H339 H 0.29530 0.34058 -0.01890
 H340 H 0.33365 0.31647 -0.00592
 H341 H 0.28829 0.28306 0.05691
 H342 H 0.19588 0.37511 0.00162
 H343 H 0.15436 0.36193 -0.01419
 H344 H 0.18882 0.28696 -0.02898
 H345 H 0.22976 0.30175 -0.01209
 C346 C 0.22076 0.39477 0.08215
 C347 C 0.27920 0.40604 -0.05941
 C348 C 0.16829 0.32341 -0.02326
 C349 C 0.31460 0.29798 0.02714
 C350 C 0.78790 0.07729 1.05067
 H351 H 0.79566 0.07431 1.03143
 C352 C 0.79789 0.06297 1.07117
 H353 H 0.81332 0.04888 1.06761
 C354 C 0.75924 0.10021 1.07890
 H355 H 0.74467 0.11520 1.08195
 C356 C 0.76887 0.08657 1.09994
 H357 H 0.76116 0.09080 1.11898
 N358 N 0.76879 0.09535 1.05484
 C359 C 0.73966 0.11091 0.97885
 H360 H 0.74007 0.13160 0.97942
 C361 C 0.73132 0.09917 0.95713
 H362 H 0.72504 0.11102 0.94112
 C363 C 0.74660 0.07054 0.99961
 H364 H 0.75227 0.05954 1.01637
 C365 C 0.73825 0.05792 0.97819
 H366 H 0.73793 0.03718 0.97846
 Zn367 Zn 0.75764 0.11610 1.02697
 N368 N 0.74734 0.09658 0.99938
 C369 C 0.79930 0.12967 0.99392
 N370 N 0.78585 0.13633 1.01576
 C371 C 0.79327 0.15608 1.03009
 C372 C 0.81414 0.17094 1.02179
 C373 C 0.82062 0.14357 0.98529
 C374 C 0.70740 0.12307 1.04625
 C375 C 0.68452 0.13600 1.05388
 C376 C 0.70412 0.17597 1.04118
 C377 C 0.72672 0.16225 1.03388
 N378 N 0.72809 0.13629 1.03696
 H379 H 0.79369 0.11336 0.98328
 H380 H 0.78283 0.16044 1.04785
 H381 H 0.81957 0.18698 1.03300
 H382 H 0.83099 0.13821 0.96774
 H383 H 0.70885 0.10238 1.04800
 H384 H 0.66863 0.12508 1.06198
 H385 H 0.70334 0.19660 1.03848
 H386 H 0.74293 0.17235 1.02545
 C387 C 0.73063 0.07234 0.95653
 C388 C 0.78852 0.06778 1.09621
 C389 C 0.68268 0.16284 1.05154
 C390 C 0.82801 0.16464 0.99913
 C391 C 0.27893 0.58238 0.53431
 H392 H 0.28749 0.58096 0.51517
 C393 C 0.29100 0.57008 0.55491
 H394 H 0.30888 0.55920 0.55144
 C395 C 0.24612 0.59973 0.56222
 H396 H 0.22909 0.61186 0.56522
 C397 C 0.25747 0.58772 0.58329
 H398 H 0.24848 0.59021 0.60215
 N399 N 0.25692 0.59688 0.53829
 C400 C 0.21926 0.60671 0.46549
 H401 H 0.21562 0.62721 0.46624
 C402 C 0.21128 0.59320 0.44471
 H403 H 0.20111 0.60340 0.42967
 C404 C 0.23678 0.56864 0.48449
 H405 H 0.24676 0.55922 0.50006
 C406 C 0.22907 0.55428 0.46396
 H407 H 0.23343 0.53386 0.46374
 Zn408 Zn 0.24341 0.61590 0.51026
 N409 N 0.23221 0.59446 0.48456
 C410 C 0.28303 0.65127 0.51281
 N411 N 0.27029 0.63651 0.49659
 C412 C 0.27774 0.63506 0.47143
 C413 C 0.29864 0.64889 0.46165
 C414 C 0.30433 0.66518 0.50389
 C415 C 0.19339 0.62404 0.53090
 C416 C 0.17134 0.63795 0.53923
 C417 C 0.19227 0.67695 0.52552
 C418 C 0.21413 0.66227 0.51788
 N419 N 0.21440 0.63634 0.52102
 H420 H 0.27696 0.65176 0.53283
 H421 H 0.26776 0.62292 0.45887
 H422 H 0.30386 0.64772 0.44145
 H423 H 0.31463 0.67622 0.51728
 H424 H 0.19398 0.60333 0.53273
 H425 H 0.15536 0.62770 0.54804
 H426 H 0.19240 0.69753 0.52252
 H427 H 0.23078 0.67160 0.50928
 C428 C 0.21654 0.56671 0.44352
 C429 C 0.28041 0.57294 0.57986
 C430 C 0.17054 0.66485 0.53671
 C431 C 0.31252 0.66397 0.47797
 C432 C 0.76557 0.87780 0.49834
 H433 H 0.77655 0.87491 0.51545
 C434 C 0.77648 0.89062 0.47703
 H435 H 0.79597 0.89745 0.47788
 C436 C 0.72741 0.87100 0.47605
 H437 H 0.70840 0.86307 0.47562
 C438 C 0.73754 0.88375 0.45434
 H439 H 0.72599 0.88580 0.43752
 N440 N 0.74154 0.86812 0.49742
 C441 C 0.70551 0.85923 0.57337
 H442 H 0.69902 0.83979 0.57224
 C443 C 0.69883 0.87364 0.59488
 H444 H 0.68687 0.86519 0.61007
 C445 C 0.72834 0.89392 0.55443
 H446 H 0.73979 0.90178 0.53862
 C447 C 0.72225 0.90899 0.57570
 H448 H 0.72946 0.92822 0.57611
 Zn449 Zn 0.72877 0.84820 0.52556
 N450 N 0.72020 0.86941 0.55380
 C451 C 0.76091 0.82126 0.55985
 N452 N 0.75538 0.82428 0.53471
 C453 C 0.77186 0.81503 0.51597
 C454 C 0.79595 0.80415 0.52218
 C455 C 0.78460 0.81041 0.56688
 C456 C 0.67626 0.84690 0.51826
 C457 C 0.65352 0.83884 0.50806
 C458 C 0.67652 0.80067 0.49323
 C459 C 0.69898 0.80949 0.50385
 N460 N 0.69845 0.83242 0.51576
 H461 H 0.74779 0.82881 0.57452
 H462 H 0.76724 0.81804 0.49609
 H463 H 0.80966 0.79870 0.50697
 H464 H 0.78915 0.80938 0.58695
 H465 H 0.67646 0.86533 0.52725
 H466 H 0.63619 0.85092 0.50989
 H467 H 0.67738 0.78292 0.48288
 H468 H 0.71702 0.79861 0.50166
 C469 C 0.70740 0.89882 0.59638
 C470 C 0.76252 0.89347 0.45453
 C471 C 0.65359 0.81581 0.49474
 C472 C 0.80297 0.80292 0.54788
 C473 C -0.00969 0.26851 0.36912
 H474 H 0.00415 0.28085 0.35946
 C475 C -0.03013 0.27927 0.38383
 H476 H -0.03204 0.29994 0.38488
 C477 C -0.02435 0.22669 0.37869
 H478 H -0.02212 0.20621 0.37659
 C479 C -0.04497 0.23663 0.39376
 H480 H -0.05819 0.22355 0.40333
 N481 N -0.00741 0.24267 0.36646
 C482 C 0.06772 0.20563 0.35304
 H483 H 0.06581 0.19881 0.33383
 C484 C 0.08922 0.19808 0.36701
 H485 H 0.10398 0.18552 0.35839
 C486 C 0.05061 0.23013 0.38773
 H487 H 0.03536 0.24243 0.39575
 C488 C 0.07198 0.22331 0.40227
 H489 H 0.07296 0.23027 0.42156
 Zn490 Zn 0.01938 0.22925 0.34441
 N491 N 0.04887 0.22117 0.36364
 C492 C 0.05208 0.26314 0.31700
 N493 N 0.02747 0.25473 0.31915
 C494 C 0.00798 0.26686 0.30640
 C495 C 0.01265 0.28928 0.29199
 C496 C 0.05762 0.28530 0.30267
 C497 C 0.00964 0.17732 0.34546
 C498 C -0.00016 0.15431 0.33774
 C499 C -0.01151 0.17498 0.29769
 C500 C -0.00138 0.19774 0.30622
 N501 N 0.00836 0.19860 0.33001
 H502 H 0.06723 0.25355 0.32756
 H503 H -0.01152 0.26008 0.30879
 H504 H -0.00328 0.29933 0.28288
 H505 H 0.07706 0.29242 0.30249
 H506 H 0.01764 0.17843 0.36422
 H507 H 0.00065 0.13774 0.35059
 H508 H -0.02020 0.17482 0.27917
 H509 H -0.00207 0.21483 0.29416
 C510 C 0.09145 0.20685 0.39199
 C511 C -0.04830 0.26330 0.39620
 C512 C -0.01152 0.15307 0.31386
 C513 C 0.03763 0.29915 0.29060
 C514 C 1.04785 0.78340 0.07886
 H515 H 1.02885 0.79263 0.07919
 C516 C 1.06812 0.79442 0.06452
 H517 H 1.06453 0.81192 0.05350
 C518 C 1.07603 0.75015 0.09381
 H519 H 1.07933 0.73337 0.10585
 C520 C 1.09672 0.76027 0.07942
 H521 H 1.11571 0.75108 0.08045
 N522 N 1.05217 0.76186 0.09349
 C523 C 0.97978 0.72361 0.11031
 H524 H 0.98299 0.71842 0.13010
 C525 C 0.95876 0.71378 0.09831
 H526 H 0.94557 0.70169 0.10927
 C527 C 0.99356 0.74490 0.07190
 H528 H 1.00743 0.75659 0.06151
 C529 C 0.97261 0.73554 0.05912
 H530 H 0.97057 0.74018 0.03898
 Zn531 Zn 1.02513 0.74952 0.11579
 N532 N 0.99663 0.73896 0.09715
 C533 C 0.99310 0.77200 0.15486
 N534 N 1.01392 0.77594 0.13873
 C535 C 1.02629 0.79863 0.13835
 C536 C 1.01713 0.81874 0.15372
 C537 C 0.98354 0.79146 0.17082
 C538 C 1.04293 0.69867 0.12076
 C539 C 1.05092 0.67600 0.13322
 C540 C 1.04625 0.69771 0.17352
 C541 C 1.03863 0.72008 0.16024
 N542 N 1.03713 0.72014 0.13432
 H543 H 0.98369 0.75383 0.15526
 H544 H 1.04326 0.80132 0.12609
 H545 H 1.02699 0.83677 0.15293
 H546 H 0.96663 0.78812 0.18314
 H547 H 1.04137 0.69922 0.10017
 H548 H 1.05601 0.65937 0.12189
 H549 H 1.04680 0.69798 0.19420
 H550 H 1.03371 0.73729 0.17068
 C551 C 0.95501 0.71960 0.07235
 C552 C 1.09297 0.78294 0.06491
 C553 C 1.05259 0.67522 0.16001
 C554 C 0.99537 0.81532 0.17008
 C555 C 0.54122 0.27657 0.57388
 H556 H 0.52207 0.28521 0.57230
 C557 C 0.56175 0.28603 0.55871
 H558 H 0.55793 0.30138 0.54496
 C559 C 0.56944 0.24671 0.59438
 H560 H 0.57254 0.23188 0.60880
 C561 C 0.59055 0.25579 0.57984
 H562 H 0.60963 0.24777 0.58346
 N563 N 0.54538 0.25733 0.59140
 C564 C 0.47197 0.22177 0.61139
 H565 H 0.47470 0.21891 0.63167
 C566 C 0.45076 0.21119 0.60035
 H567 H 0.43693 0.20096 0.61246
 C568 C 0.48714 0.23783 0.57101
 H569 H 0.50161 0.24767 0.55949
 C570 C 0.46607 0.22761 0.55914
 H571 H 0.46456 0.22982 0.53859
 Zn572 Zn 0.51794 0.24749 0.61441
 N573 N 0.48952 0.23505 0.59680
 C574 C 0.48488 0.27565 0.64886
 N575 N 0.50713 0.27636 0.63418
 C576 C 0.52179 0.29761 0.63321
 C577 C 0.51388 0.31943 0.64675
 C578 C 0.47624 0.29704 0.66266
 C579 C 0.53406 0.19714 0.62537
 C580 C 0.54181 0.17602 0.64036
 C581 C 0.54049 0.20319 0.67725
 C582 C 0.53259 0.22381 0.66154
 N583 N 0.52959 0.22041 0.63611
 H584 H 0.47358 0.25862 0.64969
 H585 H 0.53974 0.29772 0.62201
 H586 H 0.52589 0.33607 0.64576
 H587 H 0.45811 0.29623 0.67363
 H588 H 0.53145 0.19502 0.60509
 H589 H 0.54549 0.15770 0.63140
 H590 H 0.54259 0.20613 0.69750
 H591 H 0.52881 0.24248 0.66965
 C592 C 0.44758 0.21403 0.57388
 C593 C 0.58697 0.27597 0.56191
 C594 C 0.54508 0.17888 0.66668
 C595 C 0.49069 0.31941 0.66157
 C596 C 0.49529 0.76961 0.88076
 H597 H 0.51183 0.78135 0.87651
 C598 C 0.47398 0.77983 0.89462
 H599 H 0.47444 0.79944 0.90084
 C600 C 0.47391 0.73065 0.87583
 H601 H 0.47365 0.71169 0.86808
 C602 C 0.45227 0.74002 0.88983
 H603 H 0.43585 0.72784 0.89306
 N604 N 0.49483 0.74552 0.87143
 C605 C 0.56646 0.70358 0.86172
 H606 H 0.56174 0.69313 0.84499
 C607 C 0.58785 0.69566 0.87567
 H608 H 0.59931 0.67903 0.86962
 C609 C 0.55807 0.73856 0.88922
 H610 H 0.54645 0.75531 0.89437
 C611 C 0.57946 0.73142 0.90360
 H612 H 0.58394 0.74263 0.91996
 Zn613 Zn 0.52289 0.73480 0.84936
 N614 N 0.55183 0.72450 0.86885
 C615 C 0.55670 0.77085 0.82678
 N616 N 0.53175 0.76336 0.82826
 C617 C 0.51253 0.77775 0.81741
 C618 C 0.51793 0.80135 0.80553
 C619 C 0.56296 0.79421 0.81498
 C620 C 0.50973 0.68400 0.84190
 C621 C 0.50135 0.66300 0.82883
 C622 C 0.49938 0.68955 0.79041
 C623 C 0.50820 0.71003 0.80418
 N624 N 0.51281 0.70700 0.82956
 H625 H 0.57163 0.75920 0.83570
 H626 H 0.49281 0.77144 0.81909
 H627 H 0.50229 0.81296 0.79770
 H628 H 0.58274 0.80037 0.81512
 H629 H 0.51347 0.68210 0.86209
 H630 H 0.49840 0.64505 0.83918
 H631 H 0.49530 0.69232 0.77034
 H632 H 0.51086 0.72844 0.79470
 C633 C 0.59454 0.70960 0.89697
 C634 C 0.45190 0.76511 0.89906
 C635 C 0.49575 0.66571 0.80283
 C636 C 0.54335 0.81012 0.80476
 C637 C 0.43940 -0.13931 0.31499
 C638 C 0.44529 -0.13752 0.34086
 C639 C 0.45539 -0.15875 0.35425
 C640 C 0.46050 -0.18224 0.34202
 C641 C 0.45415 -0.18406 0.31614
 C642 C 0.44388 -0.16280 0.30278
 C643 C 0.42764 -0.11696 0.30121
 C644 C 0.40668 -0.12013 0.28537
 C645 C 0.39468 -0.09891 0.27349
 C646 C 0.40344 -0.07404 0.27710
 C647 C 0.42473 -0.07095 0.29256
 C648 C 0.43667 -0.09217 0.30452
 H649 H 0.45888 -0.15689 0.37441
 H650 H 0.45636 -0.20193 0.30618
 H651 H 0.37806 -0.10192 0.26207
 H652 H 0.43221 -0.05212 0.29538
 H653 H 0.43933 -0.16477 0.28288
 H654 H 0.39906 -0.13895 0.28278
 H655 H 0.44138 -0.11987 0.35098
 H656 H 0.45301 -0.08921 0.31634
 C657 C 0.93614 0.36154 0.81779
 C658 C 0.96289 0.35668 0.81902
 C659 C 0.97250 0.33617 0.83388
 C660 C 0.95567 0.32034 0.84845
 C661 C 0.92883 0.32454 0.84606
 C662 C 0.91923 0.34501 0.83118
 C663 C 0.92581 0.38390 0.80287
 C664 C 0.90365 0.38173 0.78841
 C665 C 0.89307 0.40310 0.77556
 C666 C 0.90439 0.42717 0.77685
 C667 C 0.92687 0.42923 0.79085
 C668 C 0.93748 0.40782 0.80369
 H669 H 0.99323 0.33277 0.83406
 H670 H 0.91496 0.31205 0.85537
 H671 H 0.87558 0.40091 0.76518
 H672 H 0.93619 0.44745 0.79198
 H673 H 0.89849 0.34812 0.83048
 H674 H 0.89440 0.36349 0.78714
 H675 H 0.97640 0.36864 0.80831
 H676 H 0.95445 0.41015 0.81483
 C677 C 0.01139 1.18346 0.82922
 C678 C -0.00871 1.19832 0.81843
 C679 C -0.01698 1.22157 0.82929
 C680 C -0.00530 1.23053 0.85115
 C681 C 0.01457 1.21545 0.86200
 C682 C 0.02288 1.19232 0.85114
 C683 C 0.02080 1.15904 0.81753
 C684 C 0.02821 1.13796 0.83311
 C685 C 0.03893 1.11567 0.82229
 C686 C 0.04239 1.11381 0.79558
 C687 C 0.03416 1.13456 0.77994
 C688 C 0.02350 1.15693 0.79079
 H689 H -0.03282 1.23226 0.82073
 H690 H 0.02416 1.22155 0.87864
 H691 H 0.04529 1.10020 0.83494
 H692 H 0.03621 1.13363 0.75928
 H693 H 0.03873 1.18159 0.85968
 H694 H 0.02599 1.13880 0.85377
 H695 H -0.01826 1.19184 0.80178
 H696 H 0.01813 1.17286 0.77825
 C697 C 0.52252 0.68073 0.32783
 C698 C 0.50637 0.69666 0.31293
 C699 C 0.49531 0.71926 0.32289
 C700 C 0.50025 0.72663 0.34797
 C701 C 0.51589 0.71023 0.36302
 C702 C 0.52690 0.68765 0.35307
 C703 C 0.53519 0.65726 0.31700
 C704 C 0.56097 0.65069 0.32245
 C705 C 0.57310 0.62882 0.31212
 C706 C 0.55980 0.61300 0.29600
 C707 C 0.53397 0.61948 0.29062
 C708 C 0.52180 0.64138 0.30098
 H709 H 0.48277 0.73080 0.31084
 H710 H 0.52009 0.71473 0.38242
 H711 H 0.59290 0.62420 0.31693
 H712 H 0.52327 0.60780 0.27810
 H713 H 0.53884 0.67552 0.36524
 H714 H 0.57192 0.66267 0.33446
 H715 H 0.50265 0.69191 0.29338
 H716 H 0.50184 0.64579 0.29663
 C717 C 0.51895 0.36402 0.18329
 C718 C 0.50270 0.34666 0.19650
 C719 C 0.49688 0.32332 0.18567
 C720 C 0.50726 0.31673 0.16131
 C721 C 0.52224 0.33484 0.14761
 C722 C 0.52835 0.35790 0.15854
 C723 C 0.52715 0.38784 0.19550
 C724 C 0.53203 0.41010 0.18063
 C725 C 0.54287 0.43133 0.19141
 C726 C 0.54868 0.43112 0.21750
 C727 C 0.54231 0.40945 0.23271
 C728 C 0.53189 0.38802 0.22182
 H729 H 0.48414 0.31081 0.19652
 H730 H 0.52990 0.33081 0.12850
 H731 H 0.54764 0.44748 0.17894
 H732 H 0.54589 0.40876 0.25299
 H733 H 0.54112 0.37054 0.14777
 H734 H 0.52803 0.41097 0.16044
 H735 H 0.49443 0.35107 0.21527
 H736 H 0.52854 0.37124 0.23391
 C737 C 0.01957 0.85603 0.69870
 C738 C 0.03757 0.83564 0.69531
 C739 C 0.03173 0.81464 0.68076
 C740 C 0.00797 0.81375 0.66830
 C741 C -0.01102 0.83299 0.67430
 C742 C -0.00509 0.85408 0.68879
 C743 C 0.02716 0.87978 0.71120
 C744 C 0.02054 0.90393 0.70045
 C745 C 0.03052 0.92622 0.71001
 C746 C 0.04733 0.92484 0.73054
 C747 C 0.05286 0.90081 0.74213
 C748 C 0.04290 0.87852 0.73255
 H749 H 0.04624 0.79935 0.67892
 H750 H -0.03047 0.83212 0.66755
 H751 H 0.02612 0.94440 0.70049
 H752 H 0.06533 0.89919 0.75831
 H753 H -0.01975 0.86902 0.69206
 H754 H 0.00870 0.90549 0.68380
 H755 H 0.05662 0.83631 0.70312
 H756 H 0.04795 0.86023 0.74153
 C757 C 0.94932 0.68216 0.67687
 C758 C 0.94759 0.70466 0.69110
 C759 C 0.95992 0.72680 0.68224
 C760 C 0.97423 0.72720 0.65870
 C761 C 0.97637 0.70423 0.64488
 C762 C 0.96406 0.68215 0.65381
 C763 C 0.93532 0.65894 0.68569
 C764 C 0.94684 0.63436 0.68294
 C765 C 0.93323 0.61250 0.69032
 C766 C 0.90780 0.61473 0.70060
 C767 C 0.89643 0.63933 0.70366
 C768 C 0.91002 0.66117 0.69628
 H769 H 0.95711 0.74377 0.69359
 H770 H 0.98810 0.70262 0.62744
 H771 H 0.94246 0.59383 0.68752
 H772 H 0.87700 0.64171 0.71183
 H773 H 0.96579 0.66510 0.64237
 H774 H 0.96640 0.63202 0.67511
 H775 H 0.93659 0.70519 0.70913
 H776 H 0.90051 0.67981 0.69841
 C777 C 0.44977 0.18023 0.18383
 C778 C 0.44330 0.20459 0.19359
 C779 C 0.45595 0.22634 0.18414
 C780 C 0.47549 0.22420 0.16485
 C781 C 0.48262 0.19977 0.15580
 C782 C 0.46983 0.17808 0.16504
 C783 C 0.43505 0.15730 0.19238
 C784 C 0.44746 0.13303 0.19447
 C785 C 0.43333 0.11128 0.20100
 C786 C 0.40645 0.11326 0.20587
 C787 C 0.39414 0.13763 0.20437
 C788 C 0.40822 0.15933 0.19757
 H789 H 0.44982 0.24490 0.19141
 H790 H 0.49799 0.19732 0.14137
 H791 H 0.44345 0.09283 0.20170
 H792 H 0.37356 0.13999 0.20844
 H793 H 0.47521 0.15973 0.15687
 H794 H 0.46815 0.13077 0.19099
 H795 H 0.42827 0.20692 0.20839
 H796 H 0.39792 0.17762 0.19584
 C797 C 0.32822 0.45334 -0.14916
 C798 C 0.35295 0.46359 -0.14869
 C799 C 0.36516 0.47277 -0.17118
 C800 C 0.35276 0.47257 -0.19471
 C801 C 0.32813 0.46183 -0.19517
 C802 C 0.31595 0.45257 -0.17265
 C803 C 0.31576 0.44242 -0.12548
 C804 C 0.28902 0.44586 -0.12047
 C805 C 0.27718 0.43454 -0.09872
 C806 C 0.29186 0.41961 -0.08152
 C807 C 0.31865 0.41657 -0.08629
 C808 C 0.33046 0.42781 -0.10803
 H809 H 0.38455 0.47980 -0.17016
 H810 H 0.31841 0.45971 -0.21289
 H811 H 0.25654 0.43744 -0.09537
 H812 H 0.33039 0.40477 -0.07365
 H813 H 0.29723 0.44403 -0.17376
 H814 H 0.27724 0.45732 -0.13336
 H815 H 0.36295 0.46443 -0.13091
 H816 H 0.35101 0.42441 -0.11157
 C817 C 0.81369 0.93639 0.36372
 C818 C 0.80187 0.93915 0.34001
 C819 C 0.81588 0.94782 0.31825
 C820 C 0.84205 0.95415 0.31977
 C821 C 0.85384 0.95082 0.34354
 C822 C 0.83984 0.94229 0.36522
 C823 C 0.79924 0.92649 0.38672
 C824 C 0.80245 0.93717 0.41079
 C825 C 0.79015 0.92680 0.43274
 C826 C 0.77439 0.90549 0.43108
 C827 C 0.77075 0.89516 0.40691
 C828 C 0.78301 0.90557 0.38496
 H829 H 0.80611 0.94895 0.30035
 H830 H 0.87414 0.95466 0.34529
 H831 H 0.79298 0.93546 0.45102
 H832 H 0.75908 0.87849 0.40503
 H833 H 0.84967 0.93972 0.38308
 H834 H 0.81455 0.95355 0.41265
 H835 H 0.78175 0.93459 0.33829
 H836 H 0.78048 0.89671 0.36673
 C837 C 0.83199 0.01475 1.18376
 C838 C 0.82049 -0.00738 1.19419
 C839 C 0.82992 -0.01921 1.21639
 C840 C 0.85124 -0.00932 1.22832
 C841 C 0.86306 0.01248 1.21758
 C842 C 0.85345 0.02448 1.19559
 C843 C 0.82113 0.02819 1.16112
 C844 C 0.81709 0.05492 1.16105
 C845 C 0.80642 0.06769 1.14000
 C846 C 0.79982 0.05404 1.11845
 C847 C 0.80410 0.02732 1.11837
 C848 C 0.81448 0.01448 1.13961
 H849 H 0.82056 -0.03607 1.22427
 H850 H 0.87930 0.02070 1.22658
 H851 H 0.80355 0.08832 1.14045
 H852 H 0.79907 0.01637 1.10202
 H853 H 0.86274 0.04143 1.18783
 H854 H 0.82184 0.06590 1.17748
 H855 H 0.80381 -0.01514 1.18553
 H856 H 0.81755 -0.00613 1.13916
 C857 C 0.32984 0.52801 0.66861
 C858 C 0.31764 0.53074 0.69287
 C859 C 0.32898 0.52019 0.71467
 C860 C 0.35282 0.50652 0.71278
 C861 C 0.36511 0.50400 0.68850
 C862 C 0.35367 0.51447 0.66663
 C863 C 0.31781 0.53959 0.64558
 C864 C 0.31736 0.52601 0.62270
 C865 C 0.30533 0.53680 0.60129
 C866 C 0.29358 0.56143 0.60233
 C867 C 0.29446 0.57513 0.62512
 C868 C 0.30638 0.56432 0.64649
 H869 H 0.31920 0.52325 0.73305
 H870 H 0.38348 0.49388 0.68622
 H871 H 0.30477 0.52568 0.58410
 H872 H 0.28615 0.59437 0.62637
 H873 H 0.36369 0.51235 0.64819
 H874 H 0.32581 0.50681 0.62155
 H875 H 0.29919 0.54097 0.69499
 H876 H 0.30689 0.57544 0.66369
 C877 C 0.18081 0.51603 0.35483
 C878 C 0.15601 0.50583 0.35665
 C879 C 0.14417 0.49767 0.33480
 C880 C 0.15705 0.49900 0.31059
 C881 C 0.18202 0.50902 0.30894
 C882 C 0.19386 0.51713 0.33080
 C883 C 0.19194 0.52765 0.37744
 C884 C 0.20417 0.55127 0.37478
 C885 C 0.21270 0.56352 0.39619
 C886 C 0.20916 0.55250 0.42080
 C887 C 0.19771 0.52848 0.42347
 C888 C 0.18908 0.51620 0.40198
 H889 H 0.12445 0.49145 0.33690
 H890 H 0.19214 0.51149 0.29060
 H891 H 0.22182 0.58185 0.39351
 H892 H 0.19468 0.51958 0.44222
 H893 H 0.21300 0.52491 0.32877
 H894 H 0.20637 0.56077 0.35622
 H895 H 0.14517 0.50540 0.37477
 H896 H 0.17991 0.49790 0.40457
 C897 C 0.68728 0.03063 0.86660
 C898 C 0.66064 0.02623 0.86755
 C899 C 0.64818 0.01951 0.84555
 C900 C 0.66204 0.01657 0.82203
 C901 C 0.68874 0.02125 0.82113
 C902 C 0.70119 0.02795 0.84318
 C903 C 0.70008 0.03961 0.88957
 C904 C 0.71795 0.05933 0.88722
 C905 C 0.72850 0.06930 0.90893
 C906 C 0.72139 0.05984 0.93351
 C907 C 0.70424 0.03950 0.93586
 C908 C 0.69365 0.02951 0.91409
 H909 H 0.62747 0.01702 0.84682
 H910 H 0.70014 0.02055 0.80344
 H911 H 0.74194 0.08474 0.90651
 H912 H 0.69831 0.03192 0.95455
 H913 H 0.72174 0.03131 0.84182
 H914 H 0.72313 0.06770 0.86866
 H915 H 0.64922 0.02883 0.88513
 H916 H 0.68017 0.01409 0.91647
 C917 C 0.67861 0.95799 0.68615
 C918 C 0.65858 0.97671 0.68472
 C919 C 0.64968 0.98964 0.70658
 C920 C 0.66044 0.98410 0.73041
 C921 C 0.68083 0.96573 0.73177
 C922 C 0.68987 0.95292 0.70988
 C923 C 0.68702 0.94317 0.66320
 C924 C 0.69323 0.91683 0.66552
 C925 C 0.70017 0.90259 0.64392
 C926 C 0.70087 0.91427 0.61940
 C927 C 0.69495 0.94068 0.61708
 C928 C 0.68817 0.95497 0.63873
 H929 H 0.63427 1.00389 0.70476
 H930 H 0.68935 0.96064 0.74986
 H931 H 0.70502 0.88239 0.64646
 H932 H 0.69506 0.95023 0.59846
 H933 H 0.70557 0.93887 0.71160
 H934 H 0.69222 0.90704 0.68401
 H935 H 0.64927 0.98093 0.66683
 H936 H 0.68382 0.97529 0.63629
 C937 C 0.18136 0.44510 0.17415
 C938 C 0.16131 0.46381 0.17246
 C939 C 0.15061 0.47523 0.19448
 C940 C 0.15945 0.46804 0.21877
 C941 C 0.17962 0.44948 0.22048
 C942 C 0.19053 0.43826 0.19844
 C943 C 0.19227 0.43244 0.15075
 C944 C 0.19961 0.40627 0.15142
 C945 C 0.20925 0.39420 0.12933
 C946 C 0.21152 0.40790 0.10590
 C947 C 0.20436 0.43412 0.10527
 C948 C 0.19500 0.44626 0.12744
 H949 H 0.13546 0.48979 0.19236
 H950 H 0.18672 0.44319 0.23888
 H951 H 0.21493 0.37409 0.13064
 H952 H 0.20551 0.44522 0.08753
 H953 H 0.20620 0.42423 0.20047
 H954 H 0.19747 0.39492 0.16893
 H955 H 0.15353 0.46935 0.15413
 H956 H 0.18992 0.46652 0.12627
 C957 C -0.13841 0.31083 0.44703
 C958 C -0.13733 0.32361 0.47032
 C959 C -0.15866 0.33798 0.47986
 C960 C -0.18163 0.34017 0.46618
 C961 C -0.18312 0.32592 0.44376
 C962 C -0.16177 0.31173 0.43414
 C963 C -0.11503 0.29753 0.43565
 C964 C -0.11713 0.27479 0.42208
 C965 C -0.09543 0.26344 0.40971
 C966 C -0.07103 0.27445 0.41075
 C967 C -0.06879 0.29676 0.42498
 C968 C -0.09052 0.30820 0.43721
 H969 H -0.15674 0.34714 0.49794
 H970 H -0.20072 0.32644 0.43314
 H971 H -0.09795 0.24643 0.39872
 H972 H -0.05025 0.30554 0.42652
 H973 H -0.16335 0.30218 0.41613
 H974 H -0.13562 0.26585 0.42079
 H975 H -0.11991 0.32256 0.48119
 H976 H -0.08822 0.32584 0.44726
 C977 C 0.35979 0.81628 0.94206
 C978 C 0.35678 0.82324 0.96780
 C979 C 0.33566 0.83864 0.97609
 C980 C 0.31725 0.84836 0.95870
 C981 C 0.31933 0.83925 0.93338
 C982 C 0.34051 0.82403 0.92510
 C983 C 0.38314 0.80145 0.93270
 C984 C 0.38134 0.78309 0.91364
 C985 C 0.40356 0.77087 0.90320
 C986 C 0.42816 0.77649 0.91175
 C987 C 0.42988 0.79411 0.93153
 C988 C 0.40766 0.80650 0.94181
 H989 H 0.33385 0.84276 0.99629
 H990 H 0.30464 0.84380 0.91967
 H991 H 0.40146 0.75764 0.88782
 H992 H 0.44846 0.79861 0.93886
 H993 H 0.34193 0.81873 0.90518
 H994 H 0.36274 0.77837 0.90649
 H995 H 0.37067 0.81660 0.98164
 H996 H 0.40980 0.82067 0.95633
 C997 C 1.18313 0.83020 0.01731
 C998 C 1.18256 0.85587 0.00865
 C999 C 1.20490 0.86727 -0.00146
 C1000 C 1.22862 0.85326 -0.00382
 C1001 C 1.22895 0.82741 0.00491
 C1002 C 1.20667 0.81618 0.01540
 C1003 C 1.15942 0.81824 0.02865
 C1004 C 1.15485 0.79212 0.02513
 C1005 C 1.13312 0.78071 0.03663
 C1006 C 1.11524 0.79523 0.05154
 C1007 C 1.11939 0.82141 0.05463
 C1008 C 1.14131 0.83275 0.04348
 H1009 H 1.20279 0.88687 -0.00804
 H1010 H 1.24656 0.81576 0.00478
 H1011 H 1.13020 0.76052 0.03381
 H1012 H 1.10608 0.83293 0.06637
 H1013 H 1.20811 0.79657 0.02255
 H1014 H 1.16802 0.78045 0.01342
 H1015 H 1.16468 0.86719 0.00932
 H1016 H 1.14436 0.85276 0.04706
 C1017 C 0.67844 0.32227 0.51549
 C1018 C 0.68551 0.34610 0.52464
 C1019 C 0.70852 0.35724 0.51603
 C1020 C 0.72535 0.34473 0.49841
 C1021 C 0.71818 0.32104 0.48896
 C1022 C 0.69498 0.30998 0.49733
 C1023 C 0.65430 0.31011 0.52545
 C1024 C 0.65352 0.28342 0.52968
 C1025 C 0.63141 0.27224 0.54067
 C1026 C 0.60960 0.28747 0.54799
 C1027 C 0.61015 0.31407 0.54311
 C1028 C 0.63213 0.32520 0.53185
 H1029 H 0.71330 0.37537 0.52376
 H1030 H 0.73035 0.31113 0.47484
 H1031 H 0.63155 0.25164 0.54372
 H1032 H 0.59391 0.32651 0.54872
 H1033 H 0.68994 0.29188 0.48945
 H1034 H 0.67026 0.27118 0.52522
 H1035 H 0.67356 0.35595 0.53897
 H1036 H 0.63180 0.34575 0.52843
 C1037 C 0.35776 0.17027 0.53074
 C1038 C 0.33532 0.18565 0.52748
 C1039 C 0.31257 0.17498 0.51952
 C1040 C 0.31181 0.14866 0.51418
 C1041 C 0.33439 0.13339 0.51752
 C1042 C 0.35707 0.14405 0.52548
 C1043 C 0.38137 0.18122 0.54090
 C1044 C 0.39549 0.16753 0.55946
 C1045 C 0.41715 0.17804 0.56982
 C1046 C 0.42523 0.20253 0.56189
 C1047 C 0.41141 0.21609 0.54300
 C1048 C 0.38964 0.20557 0.53267
 H1049 H 0.29556 0.18739 0.51853
 H1050 H 0.33439 0.11296 0.51433
 H1051 H 0.42759 0.16698 0.58409
 H1052 H 0.41709 0.23506 0.53664
 H1053 H 0.37406 0.13169 0.52771
 H1054 H 0.38946 0.14886 0.56642
 H1055 H 0.33507 0.20580 0.53201
 H1056 H 0.37927 0.21648 0.51823
 C1057 C 0.86657 0.67670 0.02591
 C1058 C 0.84309 0.69091 0.02566
 C1059 C 0.82054 0.67977 0.01777
 C1060 C 0.82102 0.65429 0.00935
 C1061 C 0.84467 0.64020 0.00964
 C1062 C 0.86714 0.65132 0.01751
 C1063 C 0.88993 0.68760 0.03664
 C1064 C 0.90544 0.67251 0.05298
 C1065 C 0.92675 0.68284 0.06415
 C1066 C 0.93310 0.70852 0.05928
 C1067 C 0.91794 0.72353 0.04254
 C1068 C 0.89648 0.71320 0.03142
 H1069 H 0.80261 0.69091 0.01923
 H1070 H 0.84575 0.62022 0.00450
 H1071 H 0.93825 0.67070 0.07670
 H1072 H 0.92231 0.74342 0.03857
 H1073 H 0.88494 0.63986 0.01747
 H1074 H 0.90074 0.65283 0.05766
 H1075 H 0.84189 0.71029 0.03266
 H1076 H 0.88498 0.72522 0.01876
 C1077 C 0.68372 0.67653 0.95416
 C1078 C 0.68165 0.65785 0.97385
 C1079 C 0.70364 0.64839 0.98603
 C1080 C 0.72823 0.65727 0.97868
 C1081 C 0.73024 0.67648 0.95946
 C1082 C 0.70819 0.68607 0.94737
 C1083 C 0.66058 0.68525 0.94009
 C1084 C 0.65620 0.71134 0.93393
 C1085 C 0.63460 0.71933 0.92019
 C1086 C 0.61712 0.70134 0.91211
 C1087 C 0.62150 0.67528 0.91834
 C1088 C 0.64294 0.66734 0.93224
 H1089 H 0.70136 0.63403 1.00117
 H1090 H 0.74893 0.68345 0.95306
 H1091 H 0.63179 0.73952 0.91548
 H1092 H 0.60823 0.66103 0.91257
 H1093 H 0.71038 0.70028 0.93207
 H1094 H 0.66941 0.72557 0.93988
 H1095 H 0.66297 0.65048 0.97978
 H1096 H 0.64599 0.64708 0.93648
 C1097 C 0.17709 0.17200 0.45304
 C1098 C 0.17455 0.15018 0.46898
 C1099 C 0.19549 0.14047 0.48261
 C1100 C 0.21963 0.15215 0.48049
 C1101 C 0.22194 0.17441 0.46486
 C1102 C 0.20084 0.18431 0.45143
 C1103 C 0.15527 0.18118 0.43738
 C1104 C 0.14792 0.20730 0.43621
 C1105 C 0.12708 0.21570 0.42156
 C1106 C 0.11356 0.19817 0.40751
 C1107 C 0.12111 0.17211 0.40851
 C1108 C 0.14166 0.16368 0.42340
 H1109 H 0.19257 0.12362 0.49458
 H1110 H 0.24022 0.18375 0.46209
 H1111 H 0.12169 0.23592 0.42098
 H1112 H 0.11086 0.15818 0.39803
 H1113 H 0.20335 0.20104 0.43904
 H1114 H 0.15807 0.22113 0.44691
 H1115 H 0.15631 0.14055 0.47082
 H1116 H 0.14712 0.14347 0.42380
 C1117 C 0.58096 0.09108 0.72702
 C1118 C 0.58744 0.09322 0.75267
 C1119 C 0.59874 0.07248 0.76593
 C1120 C 0.60412 0.04877 0.75396
 C1121 C 0.59615 0.04643 0.72856
 C1122 C 0.58498 0.06730 0.71529
 C1123 C 0.57086 0.11376 0.71232
 C1124 C 0.55175 0.11115 0.69421
 C1125 C 0.54319 0.13232 0.67961
 C1126 C 0.55346 0.15661 0.68286
 C1127 C 0.57222 0.15935 0.70127
 C1128 C 0.58087 0.13816 0.71578
 H1129 H 0.60279 0.07530 0.78577
 H1130 H 0.59940 0.02910 0.71801
 H1131 H 0.52841 0.12972 0.66585
 H1132 H 0.58073 0.17775 0.70396
 H1133 H 0.58035 0.06499 0.69546
 H1134 H 0.54331 0.09275 0.69138
 H1135 H 0.58376 0.11103 0.76259
 H1136 H 0.59593 0.14078 0.72923
 C1137 C 1.08939 0.58190 0.21157
 C1138 C 1.07465 0.55964 0.21412
 C1139 C 1.08432 0.53773 0.22703
 C1140 C 1.10867 0.53786 0.23792
 C1141 C 1.12363 0.55977 0.23481
 C1142 C 1.11420 0.58143 0.22167
 C1143 C 1.07907 0.60569 0.19878
 C1144 C 1.08505 0.62993 0.20779
 C1145 C 1.07640 0.65236 0.19531
 C1146 C 1.06121 0.65124 0.17366
 C1147 C 1.05471 0.62700 0.16496
 C1148 C 1.06361 0.60451 0.17730
 H1149 H 1.07245 0.52103 0.22923
 H1150 H 1.14276 0.56012 0.24249
 H1151 H 1.08208 0.67059 0.20243
 H1152 H 1.04267 0.62535 0.14862
 H1153 H 1.12646 0.59783 0.21939
 H1154 H 1.09646 0.63164 0.22457
 H1155 H 1.05540 0.55935 0.20673
 H1156 H 1.05876 0.58622 0.16971
 C1157 C 0.94348 0.89551 0.22883
 C1158 C 0.94798 0.92186 0.22590
 C1159 C 0.93196 0.94001 0.23864
 C1160 C 0.91100 0.93228 0.25481
 C1161 C 0.90693 0.90571 0.25774
 C1162 C 0.92275 0.88776 0.24491
 C1163 C 0.95943 0.87596 0.21454
 C1164 C 0.96483 0.85171 0.22582
 C1165 C 0.97704 0.83223 0.21155
 C1166 C 0.98452 0.83663 0.18579
 C1167 C 0.98036 0.86117 0.17480
 C1168 C 0.96784 0.88062 0.18899
 H1169 H 0.93674 0.95994 0.23619
 H1170 H 0.89066 0.89833 0.26884
 H1171 H 0.98043 0.81360 0.22059
 H1172 H 0.98582 0.86500 0.15490
 H1173 H 0.91813 0.86771 0.24702
 H1174 H 0.95924 0.84763 0.24563
 H1175 H 0.96405 0.92848 0.21393
 H1176 H 0.96378 0.89893 0.17961
 C1177 C 0.44838 0.40944 0.71305
 C1178 C 0.43487 0.42808 0.69848
 C1179 C 0.42058 0.44786 0.71049
 C1180 C 0.41932 0.44935 0.73727
 C1181 C 0.43392 0.43152 0.75175
 C1182 C 0.44831 0.41182 0.73978
 C1183 C 0.46093 0.38670 0.70057
 C1184 C 0.45897 0.36221 0.71218
 C1185 C 0.46908 0.34050 0.69977
 C1186 C 0.48133 0.34269 0.67540
 C1187 C 0.48382 0.36722 0.66402
 C1188 C 0.47373 0.38897 0.67646
 H1189 H 0.40942 0.46107 0.69884
 H1190 H 0.43375 0.43247 0.77244
 H1191 H 0.46715 0.32193 0.70923
 H1192 H 0.49295 0.36957 0.64517
 H1193 H 0.45900 0.39814 0.75152
 H1194 H 0.44894 0.35970 0.73058
 H1195 H 0.43428 0.42669 0.67788
 H1196 H 0.47578 0.40757 0.66711
 C1197 C 0.44218 0.58005 0.76560
 C1198 C 0.45312 0.55751 0.75497
 C1199 C 0.43817 0.53576 0.75289
 C1200 C 0.41231 0.53613 0.76195
 C1201 C 0.40118 0.55891 0.77170
 C1202 C 0.41591 0.58068 0.77337
 C1203 C 0.45832 0.60214 0.77098
 C1204 C 0.44914 0.62737 0.76623
 C1205 C 0.46220 0.64818 0.77530
 C1206 C 0.48452 0.64413 0.78952
 C1207 C 0.49447 0.61898 0.79303
 C1208 C 0.48156 0.59819 0.78373
 H1209 H 0.44708 0.51834 0.74532
 H1210 H 0.38116 0.55968 0.77854
 H1211 H 0.45404 0.66735 0.77243
 H1212 H 0.51177 0.61538 0.80375
 H1213 H 0.40705 0.59768 0.78188
 H1214 H 0.43133 0.63091 0.75632
 H1215 H 0.47332 0.55659 0.74878
 H1216 H 0.48895 0.57894 0.78782
 C1217 C -0.06700 0.06280 0.28882
 C1218 C -0.09277 0.06140 0.29796
 C1219 C -0.10651 0.03920 0.29516
 C1220 C -0.09484 0.01775 0.28319
 C1221 C -0.06957 0.01952 0.27266
 C1222 C -0.05569 0.04192 0.27550
 C1223 C -0.05189 0.08546 0.29481
 C1224 C -0.03606 0.09772 0.27614
 C1225 C -0.02285 0.11977 0.28214
 C1226 C -0.02498 0.12960 0.30699
 C1227 C -0.04057 0.11703 0.32562
 C1228 C -0.05380 0.09527 0.31962
 H1229 H -0.12629 0.03875 0.30264
 H1230 H -0.06023 0.00329 0.26320
 H1231 H -0.01087 0.12902 0.26745
 H1232 H -0.04292 0.12432 0.34483
 H1233 H -0.03585 0.04254 0.26825
 H1234 H -0.03434 0.09057 0.25684
 H1235 H -0.10220 0.07744 0.30768
 H1236 H -0.06559 0.08604 0.33449
 C1237 C 0.06539 0.40267 0.26462
 C1238 C 0.06135 0.41935 0.28523
 C1239 C 0.07380 0.44271 0.28535
 C1240 C 0.09054 0.44993 0.26486
 C1241 C 0.09319 0.43414 0.24345
 C1242 C 0.08078 0.41069 0.24336
 C1243 C 0.05604 0.37602 0.26682
 C1244 C 0.07257 0.35529 0.25975
 C1245 C 0.06586 0.33011 0.26600
 C1246 C 0.04248 0.32509 0.27945
 C1247 C 0.02515 0.34569 0.28492
 C1248 C 0.03188 0.37089 0.27869
 H1249 H 0.07127 0.45462 0.30201
 H1250 H 0.10611 0.43907 0.22744
 H1251 H 0.07946 0.31461 0.26126
 H1252 H 0.00707 0.34251 0.29542
 H1253 H 0.08403 0.39839 0.22709
 H1254 H 0.09141 0.35856 0.25078
 H1255 H 0.04983 0.41369 0.30202
 H1256 H 0.01860 0.38644 0.28410
 C1257 C 0.57323 0.91410 0.78258
 C1258 C 0.57053 0.93047 0.80356
 C1259 C 0.58250 0.95411 0.80292
 C1260 C 0.59733 0.96195 0.78126
 C1261 C 0.59891 0.94624 0.75975
 C1262 C 0.58703 0.92251 0.76043
 C1263 C 0.56371 0.88755 0.78486
 C1264 C 0.57948 0.86679 0.77641
 C1265 C 0.57230 0.84158 0.78178
 C1266 C 0.54916 0.83656 0.79565
 C1267 C 0.53272 0.85731 0.80288
 C1268 C 0.53994 0.88253 0.79758
 H1269 H 0.58087 0.96593 0.81970
 H1270 H 0.61046 0.95160 0.74288
 H1271 H 0.58523 0.82598 0.77572
 H1272 H 0.51487 0.85410 0.81378
 H1273 H 0.58924 0.91040 0.74390
 H1274 H 0.59802 0.87002 0.76676
 H1275 H 0.56026 0.92447 0.82100
 H1276 H 0.52727 0.89813 0.80409
 C1277 C 0.71747 0.58407 0.08805
 C1278 C 0.72025 0.57079 0.06495
 C1279 C 0.73470 0.58105 0.04415
 C1280 C 0.74700 0.60448 0.04632
 C1281 C 0.74418 0.61768 0.06943
 C1282 C 0.72951 0.60764 0.09001
 C1283 C 0.70224 0.57352 0.11025
 C1284 C 0.68468 0.58945 0.12410
 C1285 C 0.67123 0.58003 0.14581
 C1286 C 0.67522 0.55452 0.15430
 C1287 C 0.69261 0.53849 0.14033
 C1288 C 0.70586 0.54786 0.11839
 H1289 H 0.73663 0.57051 0.02654
 H1290 H 0.75309 0.63599 0.07151
 H1291 H 0.65810 0.59286 0.15631
 H1292 H 0.69589 0.51870 0.14636
 H1293 H 0.72783 0.61818 0.10763
 H1294 H 0.68141 0.60927 0.11813
 H1295 H 0.71103 0.55264 0.06293
 H1296 H 0.71942 0.53524 0.10814
 C1297 C 0.21195 1.07263 0.58867
 C1298 C 0.19898 1.08716 0.56980
 C1299 C 0.21263 1.09753 0.54861
 C1300 C 0.23951 1.09377 0.54590
 C1301 C 0.25242 1.07862 0.56426
 C1302 C 0.23877 1.06803 0.58533
 C1303 C 0.19778 1.06344 0.61229
 C1304 C 0.20942 1.06378 0.63618
 C1305 C 0.19581 1.05629 0.65857
 C1306 C 0.17011 1.04845 0.65772
 C1307 C 0.15855 1.04784 0.63380
 C1308 C 0.17224 1.05517 0.61137
 H1309 H 0.20232 1.10958 0.53510
 H1310 H 0.27316 1.07527 0.56247
 H1311 H 0.20546 1.05664 0.67658
 H1312 H 0.13871 1.04219 0.63242
 H1313 H 0.24931 1.05649 0.59917
 H1314 H 0.22892 1.07038 0.63770
 H1315 H 0.17843 1.09146 0.57192
 H1316 H 0.16276 1.05438 0.59330
 C1317 C 0.22164 0.94435 0.90210
 C1318 C 0.20952 0.93640 0.92529
 C1319 C 0.22316 0.92174 0.94337
 C1320 C 0.24930 0.91418 0.93864
 C1321 C 0.26158 0.92343 0.91579
 C1322 C 0.24800 0.93825 0.89791
 C1323 C 0.20666 0.95786 0.88182
 C1324 C 0.21158 0.95206 0.85591
 C1325 C 0.19693 0.96380 0.83679
 C1326 C 0.17687 0.98153 0.84309
 C1327 C 0.17208 0.98759 0.86894
 C1328 C 0.18686 0.97593 0.88810
 H1329 H 0.21236 0.91527 0.96015
 H1330 H 0.28193 0.91984 0.91156
 H1331 H 0.20077 0.95839 0.81710
 H1332 H 0.15691 1.00139 0.87432
 H1333 H 0.25821 0.94487 0.88066
 H1334 H 0.22630 0.93785 0.85041
 H1335 H 0.18914 0.94058 0.92908
 H1336 H 0.18281 0.98111 0.90781
 C1337 C 0.72389 0.43297 0.40024
 C1338 C 0.72356 0.44136 0.42566
 C1339 C 0.73631 0.42693 0.44461
 C1340 C 0.74955 0.40385 0.43847
 C1341 C 0.74942 0.39534 0.41314
 C1342 C 0.73684 0.40973 0.39430
 C1343 C 0.71056 0.44797 0.37987
 C1344 C 0.68569 0.45880 0.38445
 C1345 C 0.67243 0.47116 0.36461
 C1346 C 0.68379 0.47305 0.33977
 C1347 C 0.70898 0.46287 0.33542
 C1348 C 0.72219 0.45048 0.35523
 H1349 H 0.73621 0.43409 0.46388
 H1350 H 0.75877 0.37728 0.40788
 H1351 H 0.65292 0.47849 0.36853
 H1352 H 0.71847 0.46443 0.31666
 H1353 H 0.73689 0.40242 0.37507
 H1354 H 0.67613 0.45692 0.40316
 H1355 H 0.71382 0.45928 0.43076
 H1356 H 0.74153 0.44272 0.35123
 C1357 C 0.78133 0.44425 0.56371
 C1358 C 0.75842 0.43135 0.55977
 C1359 C 0.75674 0.41509 0.53899
 C1360 C 0.77800 0.41111 0.52193
 C1361 C 0.80043 0.42506 0.52516
 C1362 C 0.80209 0.44138 0.54579
 C1363 C 0.78453 0.45910 0.58726
 C1364 C 0.79837 0.48187 0.58622
 C1365 C 0.80465 0.49383 0.60871
 C1366 C 0.79721 0.48332 0.63278
 C1367 C 0.78205 0.46141 0.63382
 C1368 C 0.77580 0.44941 0.61129
 H1369 H 0.73919 0.40487 0.53703
 H1370 H 0.81699 0.42296 0.51202
 H1371 H 0.81592 0.51099 0.60731
 H1372 H 0.77623 0.45274 0.65208
 H1373 H 0.82009 0.45090 0.54829
 H1374 H 0.80493 0.49010 0.56799
 H1375 H 0.74196 0.43345 0.57304
 H1376 H 0.76533 0.43175 0.61277
 C1377 C 0.28331 -0.05536 0.06153
 C1378 C 0.25954 -0.06533 0.05524
 C1379 C 0.25773 -0.08036 0.03354
 C1380 C 0.27984 -0.08622 0.01782
 C1381 C 0.30350 -0.07569 0.02417
 C1382 C 0.30514 -0.06045 0.04558
 C1383 C 0.28600 -0.04077 0.08527
 C1384 C 0.30114 -0.01888 0.08490
 C1385 C 0.30686 -0.00720 0.10769
 C1386 C 0.29770 -0.01722 0.13142
 C1387 C 0.28131 -0.03824 0.13169
 C1388 C 0.27547 -0.04988 0.10882
 H1389 H 0.23921 -0.08847 0.03022
 H1390 H 0.32091 -0.07860 0.01240
 H1391 H 0.31904 0.00933 0.10679
 H1392 H 0.27411 -0.04655 0.14965
 H1393 H 0.32378 -0.05315 0.05002
 H1394 H 0.30913 -0.01119 0.06698
 H1395 H 0.24239 -0.06171 0.06728
 H1396 H 0.26389 -0.06684 0.10967
 C1397 C 0.26830 0.06467 0.40894
 C1398 C 0.28957 0.06136 0.42480
 C1399 C 0.28946 0.07295 0.44863
 C1400 C 0.26806 0.08803 0.45719
 C1401 C 0.24625 0.09024 0.44196
 C1402 C 0.24641 0.07875 0.41804
 C1403 C 0.27014 0.05551 0.38220
 C1404 C 0.26192 0.07158 0.36193
 C1405 C 0.26727 0.06484 0.33650
 C1406 C 0.28089 0.04184 0.33079
 C1407 C 0.28765 0.02502 0.35103
 C1408 C 0.28237 0.03181 0.37646
 H1409 H 0.30645 0.07075 0.46007
 H1410 H 0.22956 0.10194 0.44789
 H1411 H 0.26161 0.07806 0.32130
 H1412 H 0.29835 0.00727 0.34729
 H1413 H 0.22966 0.08144 0.40635
 H1414 H 0.25262 0.09005 0.36569
 H1415 H 0.30684 0.05086 0.41826
 H1416 H 0.28865 0.01890 0.39168
 C1417 C 0.77382 0.56639 0.90986
 C1418 C 0.75237 0.58116 0.91893
 C1419 C 0.75278 0.59307 0.94261
 C1420 C 0.77472 0.59056 0.95764
 C1421 C 0.79552 0.57459 0.94927
 C1422 C 0.79507 0.56262 0.92566
 C1423 C 0.77536 0.55724 0.88310
 C1424 C 0.78721 0.53339 0.87723
 C1425 C 0.79233 0.52665 0.85175
 C1426 C 0.78580 0.54367 0.83159
 C1427 C 0.77254 0.56682 0.83744
 C1428 C 0.76735 0.57352 0.86289
 H1429 H 0.73653 0.60543 0.94838
 H1430 H 0.81259 0.57215 0.96056
 H1431 H 0.80274 0.50876 0.84789
 H1432 H 0.76705 0.58020 0.82230
 H1433 H 0.81202 0.55157 0.91917
 H1434 H 0.79333 0.52031 0.89237
 H1435 H 0.73560 0.58419 0.90732
 H1436 H 0.75838 0.59212 0.86672
 C1437 C 0.08257 0.72132 0.58204
 C1438 C 0.08684 0.73501 0.60420
 C1439 C 0.06656 0.74804 0.61703
 C1440 C 0.04104 0.74750 0.60849
 C1441 C 0.03666 0.73325 0.58653
 C1442 C 0.05720 0.72054 0.57338
 C1443 C 0.10461 0.70769 0.56852
 C1444 C 0.10135 0.68389 0.55718
 C1445 C 0.12254 0.67037 0.54615
 C1446 C 0.14759 0.68012 0.54648
 C1447 C 0.15067 0.70425 0.55721
 C1448 C 0.12946 0.71793 0.56782
 H1449 H 0.07101 0.75764 0.63439
 H1450 H 0.01773 0.73270 0.57855
 H1451 H 0.11925 0.65213 0.53757
 H1452 H 0.16960 0.71236 0.55812
 H1453 H 0.05323 0.71051 0.55612
 H1454 H 0.08257 0.67530 0.55746
 H1455 H 0.10588 0.73531 0.61207
 H1456 H 0.13267 0.73648 0.57580
 C1457 C 0.59016 0.21538 1.09195
 C1458 C 0.59131 0.22648 1.11609
 C1459 C 0.56981 0.23946 1.12691
 C1460 C 0.54654 0.24160 1.11392
 C1461 C 0.54496 0.22978 1.09020
 C1462 C 0.56662 0.21684 1.07925
 C1463 C 0.61360 0.20254 1.08023
 C1464 C 0.61187 0.17957 1.06698
 C1465 C 0.63421 0.16695 1.05720
 C1466 C 0.65877 0.17699 1.06047
 C1467 C 0.66039 0.20029 1.07317
 C1468 C 0.63809 0.21293 1.08286
 H1469 H 0.57140 0.24779 1.14555
 H1470 H 0.52728 0.23125 1.07976
 H1471 H 0.63224 0.14923 1.04717
 H1472 H 0.67897 0.20846 1.07623
 H1473 H 0.56514 0.20858 1.06057
 H1474 H 0.59332 0.17101 1.06473
 H1475 H 0.60888 0.22507 1.12672
 H1476 H 0.64006 0.23083 1.09256
 C1477 C 0.90961 0.22391 0.95082
 C1478 C 0.92616 0.21163 0.93258
 C1479 C 0.94330 0.22574 0.91697
 C1480 C 0.94386 0.25245 0.91884
 C1481 C 0.92808 0.26473 0.93749
 C1482 C 0.91136 0.25059 0.95354
 C1483 C 0.88953 0.20923 0.96565
 C1484 C 0.86522 0.22077 0.97202
 C1485 C 0.84561 0.20649 0.98398
 C1486 C 0.84966 0.18028 0.98934
 C1487 C 0.87396 0.16877 0.98363
 C1488 C 0.89380 0.18314 0.97221
 H1489 H 0.95513 0.21595 0.90248
 H1490 H 0.92844 0.28534 0.93938
 H1491 H 0.82688 0.21565 0.98801
 H1492 H 0.87748 0.14856 0.98782
 H1493 H 0.89952 0.26068 0.96777
 H1494 H 0.86088 0.24059 0.96688
 H1495 H 0.92516 0.19127 0.92948
 H1496 H 0.91236 0.17368 0.96825
 C1497 C 0.39886 0.72078 0.43433
 C1498 C 0.39557 0.74741 0.43041
 C1499 C 0.41439 0.76138 0.41688
 C1500 C 0.43685 0.74906 0.40660
 C1501 C 0.44055 0.72259 0.41114
 C1502 C 0.42185 0.70865 0.42498
 C1503 C 0.37780 0.70562 0.44684
 C1504 C 0.36185 0.71596 0.46667
 C1505 C 0.34088 0.70239 0.47699
 C1506 C 0.33547 0.67805 0.46791
 C1507 C 0.35192 0.66740 0.44868
 C1508 C 0.37268 0.68105 0.43817
 H1509 H 0.41112 0.78184 0.41419
 H1510 H 0.45743 0.71238 0.40330
 H1511 H 0.32856 0.71128 0.49167
 H1512 H 0.34872 0.64848 0.44158
 H1513 H 0.42529 0.68826 0.42803
 H1514 H 0.36545 0.73465 0.47413
 H1515 H 0.37805 0.75742 0.43705
 H1516 H 0.38427 0.67255 0.42275
 C1517 C 0.56188 0.79133 0.44106
 C1518 C 0.54092 0.80912 0.44066
 C1519 C 0.52001 0.80531 0.42523
 C1520 C 0.51943 0.78350 0.41010
 C1521 C 0.53967 0.76508 0.41141
 C1522 C 0.56076 0.76895 0.42672
 C1523 C 0.58543 0.79709 0.45501
 C1524 C 0.59931 0.77782 0.46844
 C1525 C 0.62161 0.78369 0.48128
 C1526 C 0.63033 0.80894 0.48097
 C1527 C 0.61664 0.82803 0.46722
 C1528 C 0.59453 0.82219 0.45439
 H1529 H 0.50443 0.81964 0.42479
 H1530 H 0.53990 0.74837 0.39960
 H1531 H 0.63178 0.76863 0.49180
 H1532 H 0.62326 0.84753 0.46606
 H1533 H 0.57670 0.75502 0.42641
 H1534 H 0.59273 0.75831 0.46933
 H1535 H 0.54090 0.82627 0.45193
 H1536 H 0.58478 0.83733 0.44361
 C1537 C 0.07102 0.29802 -0.06637
 C1538 C 0.05112 0.31692 -0.06691
 C1539 C 0.02824 0.31259 -0.07922
 C1540 C 0.02469 0.28925 -0.09132
 C1541 C 0.04402 0.26987 -0.08964
 C1542 C 0.06700 0.27420 -0.07731
 C1543 C 0.09629 0.30384 -0.05563
 C1544 C 0.10977 0.28577 -0.04037
 C1545 C 0.13338 0.29185 -0.03006
 C1546 C 0.14390 0.31609 -0.03488
 C1547 C 0.13068 0.33382 -0.05068
 C1548 C 0.10719 0.32779 -0.06089
 H1549 H 0.01342 0.32769 -0.07948
 H1550 H 0.04197 0.25178 -0.09876
 H1551 H 0.14308 0.27785 -0.01785
 H1552 H 0.13859 0.35240 -0.05532
 H1553 H 0.08203 0.25931 -0.07729
 H1554 H 0.10178 0.26717 -0.03596
 H1555 H 0.05338 0.33525 -0.05807
 H1556 H 0.09763 0.34186 -0.07314
 C1557 C 0.41299 0.27032 0.06977
 C1558 C 0.43196 0.28836 0.06365
 C1559 C 0.45472 0.28836 0.07724
 C1560 C 0.45908 0.26996 0.09673
 C1561 C 0.44079 0.25098 0.10178
 C1562 C 0.41775 0.25136 0.08862
 C1563 C 0.38723 0.27326 0.05862
 C1564 C 0.36534 0.27739 0.07476
 C1565 C 0.34148 0.28420 0.06451
 C1566 C 0.33886 0.28654 0.03781
 C1567 C 0.36059 0.28058 0.02171
 C1568 C 0.38462 0.27442 0.03203
 H1569 H 0.46857 0.30319 0.07312
 H1570 H 0.44358 0.23677 0.11694
 H1571 H 0.32555 0.28903 0.07767
 H1572 H 0.35931 0.28140 0.00109
 H1573 H 0.40329 0.23737 0.09367
 H1574 H 0.36703 0.27683 0.09537
 H1575 H 0.42850 0.30331 0.04934
 H1576 H 0.40130 0.27109 0.01927
 C1577 C 0.90973 0.78556 0.57468
 C1578 C 0.92551 0.80672 0.57675
 C1579 C 0.94925 0.80412 0.58844
 C1580 C 0.95794 0.78022 0.59856
 C1581 C 0.94312 0.75854 0.59413
 C1582 C 0.91923 0.76125 0.58243
 C1583 C 0.88251 0.78951 0.56719
 C1584 C 0.87099 0.77313 0.55022
 C1585 C 0.84506 0.77724 0.54383
 C1586 C 0.83019 0.79747 0.55474
 C1587 C 0.84179 0.81363 0.57180
 C1588 C 0.86756 0.80972 0.57792
 H1589 H 0.96051 0.82112 0.58982
 H1590 H 0.94844 0.73972 0.60161
 H1591 H 0.83658 0.76456 0.53057
 H1592 H 0.83099 0.82966 0.58016
 H1593 H 0.90742 0.74460 0.58107
 H1594 H 0.88212 0.75739 0.54171
 H1595 H 0.91901 0.82558 0.57013
 H1596 H 0.87577 0.82240 0.59137
   
