data_POSCAR
  _audit_creation_date              2014-09-24
  _audit_creation_method            'ToBaCCo'
  _symmetry_space_group_name_H-M    'P1'
  _symmetry_Int_Tables_number       1
  _symmetry_cell_setting            triclinic
  loop_
  _symmetry_equiv_pos_as_xyz
 x,y,z
_cell_length_a 65.0330
_cell_length_b 65.0461
_cell_length_c 65.0255
_cell_angle_alpha 90.000000
_cell_angle_beta 90.000000
_cell_angle_gamma 90.000000
loop_
  _atom_site_label
  _atom_site_type_symbol
  _atom_site_fract_x
  _atom_site_fract_y
  _atom_site_fract_z
N1 N 0.32910 0.32916 0.32912
 N2 N 0.32910 0.82910 -0.17095
 N3 N 0.82914 0.32916 -0.17085
 N4 N 0.82914 0.82917 0.32912
 N5 N 0.67087 0.67092 0.32910
 N6 N 0.67089 0.17087 -0.17084
 N7 N 0.17087 0.67082 -0.17093
 N8 N 0.17087 0.17083 0.32911
 N9 N 0.67085 0.32915 0.67092
 N10 N 0.67087 0.82919 1.17086
 N11 N 0.17086 0.32915 1.17088
 N12 N 0.17085 0.82914 0.67084
 N13 N 0.32913 0.67081 0.67085
 N14 N 0.32913 0.17087 1.17092
 N15 N 0.82910 0.67089 1.17088
 N16 N 0.82911 0.17087 0.67091
 N17 N 0.32912 0.32909 0.67089
 N18 N 0.32911 0.82915 0.17082
 N19 N 0.82912 0.32918 0.17094
 N20 N 0.82911 0.82916 0.67090
 N21 N 0.67089 0.67084 0.67087
 N22 N 0.67087 0.17089 0.17093
 N23 N 0.17085 0.67085 0.17084
 N24 N 0.17086 0.17084 0.67088
 N25 N 0.32914 0.67086 0.32908
 N26 N 0.32914 0.17079 0.82915
 N27 N 0.82913 0.67086 0.82911
 N28 N 0.82913 0.17087 0.32915
 N29 N 0.67086 0.32920 0.32915
 N30 N 0.67085 0.82915 0.82909
 N31 N 0.17089 0.32911 0.82911
 N32 N 0.17089 0.82912 0.32908
 O33 O 0.25212 1.02009 0.22389
 O34 O 0.22391 0.97990 0.25208
 O35 O 0.22391 1.02008 0.25209
 O36 O 0.25212 0.97991 0.22388
 O37 O 0.27609 0.97990 0.24787
 O38 O 0.24789 1.02007 0.27608
 O39 O 0.24789 0.97989 0.27607
 O40 O 0.27610 1.02008 0.24788
 Cu41 Cu 0.23562 0.99999 0.23558
 Cu42 Cu 0.26439 0.99999 0.26437
 C43 C 0.26881 1.02715 0.23118
 C44 C 0.23120 0.97283 0.26878
 C45 C 0.23120 1.02714 0.26879
 C46 C 0.26881 0.97284 0.23117
 O47 O 0.25212 0.52005 0.72388
 O48 O 0.22392 0.47987 0.75209
 O49 O 0.22391 0.52005 0.75208
 O50 O 0.25212 0.47987 0.72389
 O51 O 0.27610 0.47987 0.74788
 O52 O 0.24789 0.52006 0.77607
 O53 O 0.24789 0.47987 0.77608
 O54 O 0.27610 0.52005 0.74787
 Cu55 Cu 0.23562 0.49996 0.73558
 Cu56 Cu 0.26440 0.49996 0.76437
 C57 C 0.26881 0.52711 0.73117
 C58 C 0.23120 0.47281 0.76879
 C59 C 0.23120 0.52712 0.76878
 C60 C 0.26882 0.47280 0.73118
 O61 O 0.75212 -0.02007 0.27610
 O62 O 0.72391 0.02012 0.24791
 O63 O 0.72391 -0.02007 0.24790
 O64 O 0.75212 0.02011 0.27611
 O65 O 0.77609 0.02012 0.25212
 O66 O 0.74789 -0.02006 0.22392
 O67 O 0.74789 0.02012 0.22392
 O68 O 0.77610 -0.02006 0.25212
 Cu69 Cu 0.73562 0.00002 0.26441
 Cu70 Cu 0.76439 0.00003 0.23562
 C71 C 0.76881 -0.02713 0.26881
 C72 C 0.73120 0.02718 0.23121
 C73 C 0.73120 -0.02713 0.23120
 C74 C 0.76881 0.02718 0.26882
 O75 O 0.77610 0.52009 0.75212
 O76 O 0.74789 0.47990 0.72392
 O77 O 0.74789 0.52008 0.72392
 O78 O 0.77609 0.47990 0.75212
 O79 O 0.75212 0.47991 0.77611
 O80 O 0.72392 0.52009 0.74790
 O81 O 0.72391 0.47991 0.74791
 O82 O 0.75212 0.52009 0.77610
 Cu83 Cu 0.76439 0.49999 0.73562
 Cu84 Cu 0.73561 0.50000 0.76441
 C85 C 0.76881 0.52715 0.76881
 C86 C 0.73119 0.47284 0.73121
 C87 C 0.73120 0.52715 0.73120
 C88 C 0.76881 0.47284 0.76882
 O89 O 0.22390 0.52010 0.24787
 O90 O 0.25210 0.47992 0.27607
 O91 O 0.25210 0.52010 0.27607
 O92 O 0.22389 0.47992 0.24787
 O93 O 0.24787 0.47991 0.22389
 O94 O 0.27608 0.52009 0.25208
 O95 O 0.27607 0.47991 0.25209
 O96 O 0.24787 0.52010 0.22388
 Cu97 Cu 0.23560 0.50001 0.26437
 Cu98 Cu 0.26437 0.50000 0.23558
 C99 C 0.23118 0.52716 0.23117
 C100 C 0.26879 0.47285 0.26879
 C101 C 0.26880 0.52716 0.26878
 C102 C 0.23117 0.47285 0.23118
 O103 O 0.74788 1.02010 0.77612
 O104 O 0.77608 0.97992 0.74791
 O105 O 0.77608 1.02010 0.74791
 O106 O 0.74787 0.97992 0.77611
 O107 O 0.72389 0.97993 0.75212
 O108 O 0.75210 1.02011 0.72393
 O109 O 0.75210 0.97993 0.72392
 O110 O 0.72390 1.02011 0.75213
 Cu111 Cu 0.76438 1.00001 0.76441
 Cu112 Cu 0.73560 1.00002 0.73562
 C113 C 0.73118 1.02717 0.76883
 C114 C 0.76879 0.97286 0.73121
 C115 C 0.76880 1.02717 0.73122
 C116 C 0.73117 0.97286 0.76882
 O117 O 0.75210 0.52013 0.22392
 O118 O 0.72389 0.47995 0.25213
 O119 O 0.72389 0.52014 0.25212
 O120 O 0.75210 0.47995 0.22393
 O121 O 0.77608 0.47996 0.24792
 O122 O 0.74787 0.52014 0.27611
 O123 O 0.74787 0.47996 0.27612
 O124 O 0.77607 0.52014 0.24791
 Cu125 Cu 0.73559 0.50004 0.23562
 Cu126 Cu 0.76437 0.50005 0.26441
 C127 C 0.76879 0.52720 0.23121
 C128 C 0.73118 0.47289 0.26883
 C129 C 0.73117 0.52721 0.26882
 C130 C 0.76879 0.47289 0.23122
 O131 O 0.22389 0.02007 0.74788
 O132 O 0.25210 -0.02012 0.77606
 O133 O 0.25210 0.02006 0.77608
 O134 O 0.22389 -0.02011 0.74786
 O135 O 0.24787 -0.02011 0.72388
 O136 O 0.27608 0.02007 0.75209
 O137 O 0.27607 -0.02012 0.75208
 O138 O 0.24787 0.02008 0.72389
 Cu139 Cu 0.23559 -0.00003 0.76437
 Cu140 Cu 0.26437 -0.00002 0.73558
 C141 C 0.23118 0.02714 0.73118
 C142 C 0.26879 -0.02719 0.76877
 C143 C 0.26879 0.02713 0.76879
 C144 C 0.23117 -0.02717 0.73116
 O145 O 0.25211 0.22388 0.97992
 O146 O 0.22392 0.25210 1.02011
 O147 O 0.22392 0.25209 0.97991
 O148 O 0.25211 0.22390 1.02012
 O149 O 0.27610 0.24787 1.02011
 O150 O 0.24791 0.27606 0.97991
 O151 O 0.24790 0.27607 1.02010
 O152 O 0.27610 0.24785 0.97992
 Cu153 Cu 0.23561 0.23559 1.00002
 Cu154 Cu 0.26440 0.26436 1.00001
 C155 C 0.26881 0.23116 0.97286
 C156 C 0.23121 0.26879 1.02717
 C157 C 0.23121 0.26878 0.97284
 C158 C 0.26881 0.23118 1.02718
 O159 O 0.24791 0.77606 0.47987
 O160 O 0.27609 0.74786 0.52007
 O161 O 0.27610 0.74786 0.47988
 O162 O 0.24790 0.77606 0.52007
 O163 O 0.22391 0.75209 0.52006
 O164 O 0.25211 0.72389 0.47987
 O165 O 0.25211 0.72389 0.52007
 O166 O 0.22392 0.75209 0.47987
 Cu167 Cu 0.26440 0.76436 0.49997
 Cu168 Cu 0.23561 0.73559 0.49997
 C169 C 0.23121 0.76878 0.47280
 C170 C 0.26880 0.73117 0.52714
 C171 C 0.26881 0.73117 0.47281
 C172 C 0.23120 0.76878 0.52713
 O173 O 0.27607 0.75209 -0.02015
 O174 O 0.24788 0.72390 0.02005
 O175 O 0.24788 0.72389 -0.02014
 O176 O 0.27607 0.75210 0.02005
 O177 O 0.25208 0.77607 0.02004
 O178 O 0.22389 0.74786 -0.02015
 O179 O 0.22389 0.74786 0.02005
 O180 O 0.25208 0.77606 -0.02015
 Cu181 Cu 0.26437 0.73559 -0.00005
 Cu182 Cu 0.23558 0.76436 -0.00005
 C183 C 0.26878 0.76878 -0.02722
 C184 C 0.23118 0.73118 0.02712
 C185 C 0.23118 0.73117 -0.02721
 C186 C 0.26878 0.76879 0.02711
 O187 O 0.27607 0.25210 0.47990
 O188 O 0.24788 0.22389 0.52009
 O189 O 0.24788 0.22390 0.47990
 O190 O 0.27608 0.25209 0.52009
 O191 O 0.25209 0.27606 0.52010
 O192 O 0.22389 0.24787 0.47990
 O193 O 0.22389 0.24786 0.52009
 O194 O 0.25209 0.27607 0.47990
 Cu195 Cu 0.26438 0.23560 0.49999
 Cu196 Cu 0.23559 0.26437 0.50000
 C197 C 0.26878 0.26879 0.47283
 C198 C 0.23118 0.23117 0.52716
 C199 C 0.23118 0.23118 0.47283
 C200 C 0.26879 0.26878 0.52716
 O201 O 0.72389 0.75215 1.02008
 O202 O 0.75209 0.72394 0.97989
 O203 O 0.75208 0.72394 1.02008
 O204 O 0.72389 0.75214 0.97988
 O205 O 0.74788 0.77611 0.97988
 O206 O 0.77607 0.74791 1.02008
 O207 O 0.77607 0.74791 0.97989
 O208 O 0.74788 0.77612 1.02007
 Cu209 Cu 0.73559 0.73564 0.99998
 Cu210 Cu 0.76438 0.76441 0.99998
 C211 C 0.73118 0.76884 1.02714
 C212 C 0.76878 0.73122 0.97282
 C213 C 0.76878 0.73122 1.02715
 C214 C 0.73118 0.76883 0.97281
 O215 O 0.77607 0.24791 0.52012
 O216 O 0.74788 0.27611 0.47993
 O217 O 0.74788 0.27611 0.52012
 O218 O 0.77608 0.24791 0.47993
 O219 O 0.75209 0.22394 0.47992
 O220 O 0.72389 0.25214 0.52012
 O221 O 0.72390 0.25214 0.47992
 O222 O 0.75209 0.22394 0.52012
 Cu223 Cu 0.76438 0.26441 0.50003
 Cu224 Cu 0.73559 0.23564 0.50002
 C225 C 0.76878 0.23122 0.52719
 C226 C 0.73119 0.26883 0.47286
 C227 C 0.73118 0.26883 0.52719
 C228 C 0.76879 0.23122 0.47286
 O229 O 0.77610 0.25215 -0.02005
 O230 O 0.74791 0.22395 0.02014
 O231 O 0.74791 0.22394 -0.02005
 O232 O 0.77610 0.25215 0.02015
 O233 O 0.75211 0.27612 0.02014
 O234 O 0.72392 0.24791 -0.02006
 O235 O 0.72392 0.24791 0.02014
 O236 O 0.75212 0.27612 -0.02005
 Cu237 Cu 0.76441 0.23565 0.00005
 Cu238 Cu 0.73562 0.26442 0.00004
 C239 C 0.76881 0.26884 -0.02712
 C240 C 0.73121 0.23123 0.02721
 C241 C 0.73121 0.23122 -0.02712
 C242 C 0.76881 0.26884 0.02721
 O243 O 0.72391 0.74792 0.47990
 O244 O 0.75211 0.77611 0.52010
 O245 O 0.75211 0.77612 0.47991
 O246 O 0.72392 0.74791 0.52010
 O247 O 0.74790 0.72394 0.52009
 O248 O 0.77610 0.75215 0.47990
 O249 O 0.77609 0.75214 0.52010
 O250 O 0.74790 0.72395 0.47990
 Cu251 Cu 0.73561 0.76441 0.50000
 Cu252 Cu 0.76440 0.73564 0.50000
 C253 C 0.73120 0.73123 0.47283
 C254 C 0.76880 0.76883 0.52717
 C255 C 0.76881 0.76884 0.47284
 C256 C 0.73121 0.73122 0.52716
 O257 O 1.02010 0.27609 0.24791
 O258 O 0.97991 0.24789 0.27611
 O259 O 1.02010 0.24788 0.27610
 O260 O 0.97991 0.27610 0.24792
 O261 O 0.97990 0.25213 0.22393
 O262 O 1.02009 0.22392 0.25211
 O263 O 0.97990 0.22392 0.25212
 O264 O 1.02009 0.25213 0.22392
 Cu265 Cu 1.00000 0.26439 0.26442
 Cu266 Cu 0.99999 0.23563 0.23561
 C267 C 1.02716 0.26881 0.23121
 C268 C 0.97284 0.23120 0.26882
 C269 C 1.02716 0.23119 0.26881
 C270 C 0.97284 0.26882 0.23123
 O271 O 0.52009 0.27606 0.74793
 O272 O 0.47990 0.24784 0.77613
 O273 O 0.52009 0.24786 0.77613
 O274 O 0.47990 0.27605 0.74793
 O275 O 0.47990 0.25208 0.72394
 O276 O 0.52010 0.22389 0.75214
 O277 O 0.47991 0.22388 0.75214
 O278 O 0.52009 0.25209 0.72394
 Cu279 Cu 0.49999 0.26435 0.76443
 Cu280 Cu 0.50000 0.23558 0.73564
 C281 C 0.52715 0.26878 0.73124
 C282 C 0.47284 0.23115 0.76883
 C283 C 0.52716 0.23117 0.76884
 C284 C 0.47283 0.26877 0.73123
 O285 O -0.02010 0.27609 0.75212
 O286 O 0.02009 0.24788 0.72392
 O287 O -0.02010 0.24788 0.72392
 O288 O 0.02009 0.27608 0.75212
 O289 O 0.02009 0.25211 0.77611
 O290 O -0.02010 0.22392 0.74792
 O291 O 0.02009 0.22391 0.74791
 O292 O -0.02010 0.25212 0.77611
 Cu293 Cu -0.00000 0.26438 0.73562
 Cu294 Cu -0.00000 0.23561 0.76441
 C295 C -0.02716 0.26881 0.76882
 C296 C 0.02715 0.23119 0.73121
 C297 C -0.02717 0.23120 0.73122
 C298 C 0.02716 0.26880 0.76881
 O299 O 0.52009 0.25216 0.27613
 O300 O 0.47990 0.22395 0.24794
 O301 O 0.52009 0.22395 0.24794
 O302 O 0.47990 0.25216 0.27613
 O303 O 0.47990 0.27612 0.25213
 O304 O 0.52009 0.24791 0.22394
 O305 O 0.47990 0.24791 0.22394
 O306 O 0.52009 0.27612 0.25213
 Cu307 Cu 0.50000 0.23566 0.26444
 Cu308 Cu 0.50000 0.26442 0.23564
 C309 C 0.52716 0.26885 0.26883
 C310 C 0.47284 0.23122 0.23124
 C311 C 0.52716 0.23123 0.23124
 C312 C 0.47283 0.26885 0.26883
 O313 O 0.97989 0.75212 0.72389
 O314 O 1.02009 0.72391 0.75207
 O315 O 0.97990 0.72391 0.75208
 O316 O 1.02008 0.75212 0.72388
 O317 O 1.02009 0.77608 0.74788
 O318 O 0.97991 0.74788 0.77608
 O319 O 1.02010 0.74787 0.77606
 O320 O 0.97990 0.77609 0.74789
 Cu321 Cu 0.99999 0.73562 0.73558
 Cu322 Cu 1.00000 0.76438 0.76438
 C323 C 0.97283 0.76881 0.73119
 C324 C 1.02716 0.73118 0.76877
 C325 C 0.97284 0.73119 0.76878
 C326 C 1.02715 0.76881 0.73117
 O327 O 0.47990 0.75215 0.22386
 O328 O 0.52009 0.72395 0.25206
 O329 O 0.47990 0.72394 0.25206
 O330 O 0.52009 0.75216 0.22387
 O331 O 0.52008 0.77613 0.24786
 O332 O 0.47989 0.74791 0.27605
 O333 O 0.52008 0.74792 0.27605
 O334 O 0.47989 0.77612 0.24785
 Cu335 Cu 0.50000 0.73565 0.23556
 Cu336 Cu 0.49999 0.76442 0.26436
 C337 C 0.47283 0.76884 0.23115
 C338 C 0.52716 0.73124 0.26876
 C339 C 0.47283 0.73122 0.26876
 C340 C 0.52715 0.76885 0.23116
 O341 O -0.02010 0.77610 0.25208
 O342 O 0.02009 0.74789 0.22388
 O343 O -0.02010 0.74789 0.22389
 O344 O 0.02009 0.77609 0.25208
 O345 O 0.02009 0.75212 0.27607
 O346 O -0.02011 0.72392 0.24788
 O347 O 0.02008 0.72392 0.24787
 O348 O -0.02010 0.75213 0.27607
 Cu349 Cu -0.00000 0.76439 0.23558
 Cu350 Cu -0.00001 0.73562 0.26438
 C351 C -0.02716 0.76882 0.26878
 C352 C 0.02715 0.73120 0.23117
 C353 C -0.02717 0.73120 0.23118
 C354 C 0.02716 0.76881 0.26878
 O355 O 0.47990 0.77605 0.75205
 O356 O 0.52009 0.74785 0.72387
 O357 O 0.47990 0.74784 0.72387
 O358 O 0.52009 0.77606 0.75206
 O359 O 0.52009 0.75210 0.77605
 O360 O 0.47991 0.72388 0.74786
 O361 O 0.52010 0.72389 0.74787
 O362 O 0.47990 0.75209 0.77605
 Cu363 Cu 0.49999 0.76435 0.73556
 Cu364 Cu 0.50000 0.73559 0.76436
 C365 C 0.47283 0.76878 0.76875
 C366 C 0.52716 0.73116 0.73117
 C367 C 0.47284 0.73115 0.73116
 C368 C 0.52715 0.76879 0.76876
 C369 C 0.42979 0.30648 0.28012
 C370 C 0.42094 0.29769 0.29766
 C371 C 0.42979 0.28017 0.30647
 C372 C 0.44711 0.27114 0.29748
 C373 C 0.34899 0.32371 0.32368
 C374 C 0.44710 0.29748 0.27110
 C375 C 0.40194 0.30573 0.30570
 C376 C 0.38562 0.31193 0.31189
 C377 C 0.36605 0.31857 0.31854
 C378 C 0.45576 0.27950 0.27948
 H379 H 0.42300 0.31998 0.27312
 H380 H 0.42300 0.27318 0.31999
 H381 H 0.45338 0.25732 0.30431
 H382 H 0.45337 0.30430 0.25726
 C383 C 0.42978 0.80640 0.78004
 C384 C 0.42093 0.79762 0.79758
 C385 C 0.42978 0.78010 0.80639
 C386 C 0.44710 0.77107 0.79740
 C387 C 0.34899 0.82365 0.82360
 C388 C 0.44710 0.79741 0.77102
 C389 C 0.40194 0.80566 0.80562
 C390 C 0.38561 0.81186 0.81182
 C391 C 0.36605 0.81851 0.81846
 C392 C 0.45575 0.77943 0.77940
 H393 H 0.42299 0.81991 0.77304
 H394 H 0.42300 0.77311 0.81991
 H395 H 0.45337 0.75725 0.80423
 H396 H 0.45337 0.80423 0.75718
 C397 C -0.07020 0.30645 0.78013
 C398 C -0.07905 0.29766 0.79767
 C399 C -0.07020 0.28014 0.80647
 C400 C -0.05288 0.27110 0.79747
 C401 C -0.15097 0.32371 0.82370
 C402 C -0.05288 0.29745 0.77110
 C403 C -0.09803 0.30571 0.80571
 C404 C -0.11436 0.31191 0.81191
 C405 C -0.13392 0.31856 0.81856
 C406 C -0.04424 0.27947 0.77947
 H407 H -0.07698 0.31996 0.77313
 H408 H -0.07698 0.27315 0.81998
 H409 H -0.04661 0.25728 0.80430
 H410 H -0.04661 0.30427 0.75726
 C411 C -0.07019 0.80646 0.28009
 C412 C -0.07904 0.79768 0.29763
 C413 C -0.07019 0.78015 0.30643
 C414 C -0.05288 0.77112 0.29743
 C415 C -0.15097 0.82372 0.32367
 C416 C -0.05288 0.79746 0.27106
 C417 C -0.09803 0.80572 0.30567
 C418 C -0.11436 0.81193 0.31188
 C419 C -0.13391 0.81857 0.31852
 C420 C -0.04423 0.77948 0.27944
 H421 H -0.07698 0.81997 0.27309
 H422 H -0.07698 0.77316 0.31995
 H423 H -0.04661 0.75729 0.30426
 H424 H -0.04661 0.80428 0.25723
 C425 C 0.57019 0.71992 0.30641
 C426 C 0.57905 0.70240 0.29761
 C427 C 0.57020 0.69361 0.28007
 C428 C 0.55289 0.70260 0.27104
 C429 C 0.65098 0.67637 0.32365
 C430 C 0.55288 0.72895 0.29741
 C431 C 0.59804 0.69436 0.30565
 C432 C 0.61436 0.68816 0.31186
 C433 C 0.63392 0.68151 0.31850
 C434 C 0.54423 0.72058 0.27942
 H435 H 0.57698 0.72692 0.31993
 H436 H 0.57699 0.68010 0.27307
 H437 H 0.54662 0.69578 0.25721
 H438 H 0.54660 0.74278 0.30424
 C439 C 0.57022 0.19355 0.78014
 C440 C 0.57907 0.20234 0.79768
 C441 C 0.57021 0.21987 0.80648
 C442 C 0.55289 0.22889 0.79748
 C443 C 0.65100 0.17632 0.82371
 C444 C 0.55290 0.20254 0.77111
 C445 C 0.59806 0.19431 0.80572
 C446 C 0.61439 0.18811 0.81192
 C447 C 0.63395 0.18147 0.81857
 C448 C 0.54425 0.22052 0.77949
 H449 H 0.57701 0.18005 0.77314
 H450 H 0.57699 0.22686 0.81999
 H451 H 0.54662 0.24271 0.80431
 H452 H 0.54663 0.19572 0.75728
 C453 C 1.07020 0.69354 0.78005
 C454 C 1.07905 0.70232 0.79759
 C455 C 1.07021 0.71984 0.80640
 C456 C 1.05289 0.72888 0.79741
 C457 C 1.15098 0.67627 0.82361
 C458 C 1.05289 0.70254 0.77103
 C459 C 1.09804 0.69428 0.80562
 C460 C 1.11437 0.68807 0.81182
 C461 C 1.13393 0.68142 0.81847
 C462 C 1.04424 0.72052 0.77941
 H463 H 1.07699 0.68004 0.77304
 H464 H 1.07700 0.72683 0.81991
 H465 H 1.04662 0.74271 0.80424
 H466 H 1.04661 0.69573 0.75719
 C467 C 1.07020 0.19355 0.28009
 C468 C 1.07906 0.20233 0.29763
 C469 C 1.07021 0.21985 0.30644
 C470 C 1.05289 0.22889 0.29745
 C471 C 1.15099 0.17628 0.32365
 C472 C 1.05289 0.20255 0.27107
 C473 C 1.09804 0.19428 0.30566
 C474 C 1.11437 0.18808 0.31186
 C475 C 1.13393 0.18143 0.31851
 C476 C 1.04424 0.22053 0.27945
 H477 H 1.07699 0.18004 0.27308
 H478 H 1.07700 0.22684 0.31995
 H479 H 1.04662 0.24271 0.30428
 H480 H 1.04661 0.19574 0.25723
 C481 C 0.57020 0.28012 0.69360
 C482 C 0.57904 0.29764 0.70240
 C483 C 0.57019 0.30643 0.71994
 C484 C 0.55288 0.29743 0.72896
 C485 C 0.65097 0.32370 0.67637
 C486 C 0.55288 0.27108 0.70259
 C487 C 0.59803 0.30569 0.69436
 C488 C 0.61435 0.31190 0.68816
 C489 C 0.63391 0.31855 0.68151
 C490 C 0.54423 0.27944 0.72058
 H491 H 0.57698 0.27313 0.68008
 H492 H 0.57697 0.31994 0.72694
 H493 H 0.54660 0.30424 0.74280
 H494 H 0.54661 0.25726 0.69576
 C495 C 0.57020 0.78018 0.19353
 C496 C 0.57904 0.79771 0.20233
 C497 C 0.57019 0.80649 0.21987
 C498 C 0.55288 0.79749 0.22889
 C499 C 0.65098 0.82375 0.17631
 C500 C 0.55288 0.77115 0.20252
 C501 C 0.59803 0.80575 0.19430
 C502 C 0.61436 0.81195 0.18809
 C503 C 0.63392 0.81860 0.18145
 C504 C 0.54423 0.77951 0.22051
 H505 H 0.57699 0.77319 0.18001
 H506 H 0.57697 0.82000 0.22687
 H507 H 0.54660 0.80431 0.24273
 H508 H 0.54661 0.75732 0.19568
 C509 C 1.07019 0.28014 0.19356
 C510 C 1.07904 0.29766 0.20236
 C511 C 1.07020 0.30645 0.21990
 C512 C 1.05289 0.29745 0.22894
 C513 C 1.15097 0.32370 0.17633
 C514 C 1.05288 0.27111 0.20256
 C515 C 1.09803 0.30570 0.19432
 C516 C 1.11436 0.31191 0.18812
 C517 C 1.13392 0.31855 0.18147
 C518 C 1.04423 0.27947 0.22056
 H519 H 1.07697 0.27315 0.18004
 H520 H 1.07699 0.31995 0.22691
 H521 H 1.04662 0.30427 0.24277
 H522 H 1.04660 0.25729 0.19573
 C523 C 1.07019 0.80644 0.71986
 C524 C 1.07904 0.79766 0.70232
 C525 C 1.07018 0.78013 0.69352
 C526 C 1.05287 0.77110 0.70252
 C527 C 1.15097 0.82369 0.67629
 C528 C 1.05288 0.79744 0.72890
 C529 C 1.09802 0.80570 0.69428
 C530 C 1.11435 0.81190 0.68808
 C531 C 1.13391 0.81855 0.68143
 C532 C 1.04423 0.77946 0.72052
 H533 H 1.07698 0.81994 0.72687
 H534 H 1.07696 0.77315 0.68000
 H535 H 1.04659 0.75728 0.69569
 H536 H 1.04661 0.80426 0.74274
 C537 C 0.42980 0.71982 0.69352
 C538 C 0.42095 0.70230 0.70232
 C539 C 0.42980 0.69351 0.71986
 C540 C 0.44711 0.70251 0.72889
 C541 C 0.34902 0.67626 0.67630
 C542 C 0.44712 0.72885 0.70251
 C543 C 0.40196 0.69425 0.69429
 C544 C 0.38564 0.68805 0.68809
 C545 C 0.36608 0.68140 0.68144
 C546 C 0.45576 0.72049 0.72051
 H547 H 0.42302 0.72680 0.68000
 H548 H 0.42301 0.68001 0.72687
 H549 H 0.45339 0.69570 0.74273
 H550 H 0.45339 0.74268 0.69568
 C551 C 0.42980 0.21989 0.19360
 C552 C 0.42095 0.20236 0.20240
 C553 C 0.42980 0.19358 0.21994
 C554 C 0.44711 0.20258 0.22897
 C555 C 0.34902 0.17632 0.17637
 C556 C 0.44711 0.22892 0.20259
 C557 C 0.40196 0.19432 0.19437
 C558 C 0.38564 0.18811 0.18816
 C559 C 0.36608 0.18146 0.18152
 C560 C 0.45576 0.22056 0.22059
 H561 H 0.42301 0.22687 0.18008
 H562 H 0.42301 0.18008 0.22695
 H563 H 0.45338 0.19577 0.24281
 H564 H 0.45338 0.24275 0.19576
 C565 C -0.07022 0.69358 0.21988
 C566 C -0.07907 0.70237 0.20235
 C567 C -0.07022 0.71989 0.19355
 C568 C -0.05290 0.72892 0.20254
 C569 C -0.15101 0.67634 0.17632
 C570 C -0.05291 0.70257 0.22891
 C571 C -0.09806 0.69433 0.19431
 C572 C -0.11439 0.68813 0.18811
 C573 C -0.13395 0.68148 0.18147
 C574 C -0.04425 0.72055 0.22053
 H575 H -0.07701 0.68007 0.22689
 H576 H -0.07701 0.72688 0.18003
 H577 H -0.04663 0.74274 0.19571
 H578 H -0.04663 0.69575 0.24274
 C579 C -0.07022 0.19356 0.71992
 C580 C -0.07907 0.20235 0.70238
 C581 C -0.07022 0.21988 0.69358
 C582 C -0.05290 0.22891 0.70257
 C583 C -0.15100 0.17632 0.67636
 C584 C -0.05290 0.20256 0.72894
 C585 C -0.09806 0.19431 0.69435
 C586 C -0.11438 0.18811 0.68814
 C587 C -0.13394 0.18147 0.68150
 C588 C -0.04425 0.22054 0.72057
 H589 H -0.07700 0.18006 0.72692
 H590 H -0.07700 0.22687 0.68006
 H591 H -0.04663 0.24273 0.69574
 H592 H -0.04663 0.19574 0.74278
 C593 C 0.30642 0.42981 0.28010
 C594 C 0.29763 0.42097 0.29763
 C595 C 0.28010 0.42982 0.30643
 C596 C 0.27107 0.44713 0.29743
 C597 C 0.32365 0.34904 0.32367
 C598 C 0.29742 0.44712 0.27107
 C599 C 0.30566 0.40198 0.30568
 C600 C 0.31187 0.38566 0.31188
 C601 C 0.31851 0.36610 0.31853
 C602 C 0.27944 0.45578 0.27944
 H603 H 0.31993 0.42302 0.27310
 H604 H 0.27310 0.42304 0.31995
 H605 H 0.25724 0.45341 0.30426
 H606 H 0.30425 0.45339 0.25723
 C607 C 0.30642 -0.07023 0.78006
 C608 C 0.29763 -0.07908 0.79759
 C609 C 0.28010 -0.07023 0.80640
 C610 C 0.27107 -0.05292 0.79741
 C611 C 0.32366 -0.15101 0.82361
 C612 C 0.29743 -0.05291 0.77104
 C613 C 0.30567 -0.09807 0.80563
 C614 C 0.31187 -0.11440 0.81183
 C615 C 0.31851 -0.13396 0.81847
 C616 C 0.27944 -0.04427 0.77942
 H617 H 0.31993 -0.07702 0.77306
 H618 H 0.27311 -0.07702 0.81991
 H619 H 0.25724 -0.04665 0.80424
 H620 H 0.30425 -0.04664 0.75721
 C621 C 0.80645 0.42981 0.78013
 C622 C 0.79765 0.42096 0.79767
 C623 C 0.78012 0.42981 0.80646
 C624 C 0.77109 0.44712 0.79747
 C625 C 0.82369 0.34904 0.82370
 C626 C 0.79745 0.44712 0.77110
 C627 C 0.80569 0.40198 0.80571
 C628 C 0.81190 0.38565 0.81191
 C629 C 0.81855 0.36610 0.81856
 C630 C 0.77946 0.45577 0.77948
 H631 H 0.81996 0.42302 0.77314
 H632 H 0.77313 0.42302 0.81998
 H633 H 0.75726 0.45339 0.80429
 H634 H 0.80428 0.45339 0.75727
 C635 C 0.80646 -0.07017 0.28011
 C636 C 0.79767 -0.07902 0.29765
 C637 C 0.78014 -0.07017 0.30645
 C638 C 0.77110 -0.05286 0.29746
 C639 C 0.82370 -0.15094 0.32367
 C640 C 0.79746 -0.05285 0.27109
 C641 C 0.80571 -0.09800 0.30568
 C642 C 0.81191 -0.11433 0.31189
 C643 C 0.81855 -0.13389 0.31853
 C644 C 0.77947 -0.04421 0.27947
 H645 H 0.81997 -0.07695 0.27311
 H646 H 0.77314 -0.07696 0.31996
 H647 H 0.75728 -0.04659 0.30429
 H648 H 0.80428 -0.04658 0.25725
 C649 C 0.30645 0.57015 0.71986
 C650 C 0.29766 0.57900 0.70232
 C651 C 0.28013 0.57015 0.69353
 C652 C 0.27110 0.55283 0.70252
 C653 C 0.32368 0.65092 0.67630
 C654 C 0.29745 0.55284 0.72889
 C655 C 0.30569 0.59798 0.69428
 C656 C 0.31190 0.61431 0.68808
 C657 C 0.31854 0.63387 0.68144
 C658 C 0.27947 0.54419 0.72051
 H659 H 0.31996 0.57694 0.72686
 H660 H 0.27313 0.57693 0.68001
 H661 H 0.25727 0.54656 0.69569
 H662 H 0.30428 0.54657 0.74272
 C663 C 0.28013 1.07020 0.19356
 C664 C 0.29766 1.07904 0.20236
 C665 C 0.30646 1.07019 0.21989
 C666 C 0.29746 1.05287 0.22891
 C667 C 0.32369 1.15098 0.17636
 C668 C 0.27110 1.05289 0.20255
 C669 C 0.30570 1.09803 0.19433
 C670 C 0.31191 1.11436 0.18814
 C671 C 0.31855 1.13392 0.18150
 C672 C 0.27947 1.04423 0.22054
 H673 H 0.27314 1.07699 0.18005
 H674 H 0.31997 1.07697 0.22689
 H675 H 0.30428 1.04659 0.24275
 H676 H 0.25727 1.04662 0.19572
 C677 C 0.80642 0.57024 0.21990
 C678 C 0.79763 0.57908 0.20236
 C679 C 0.78010 0.57023 0.19356
 C680 C 0.77107 0.55292 0.20256
 C681 C 0.82365 0.65101 0.17632
 C682 C 0.79743 0.55293 0.22893
 C683 C 0.80567 0.59807 0.19432
 C684 C 0.81187 0.61439 0.18811
 C685 C 0.81851 0.63395 0.18147
 C686 C 0.77944 0.54427 0.22055
 H687 H 0.81993 0.57703 0.22689
 H688 H 0.77311 0.57701 0.18004
 H689 H 0.75724 0.54664 0.19573
 H690 H 0.80425 0.54666 0.24276
 C691 C 0.80643 1.07021 0.71991
 C692 C 0.79764 1.07906 0.70238
 C693 C 0.78012 1.07021 0.69358
 C694 C 0.77109 1.05289 0.70257
 C695 C 0.82366 1.15099 0.67636
 C696 C 0.79744 1.05290 0.72894
 C697 C 0.80568 1.09804 0.69434
 C698 C 0.81188 1.11437 0.68814
 C699 C 0.81852 1.13393 0.68150
 C700 C 0.77945 1.04425 0.72056
 H701 H 0.81994 1.07700 0.72692
 H702 H 0.77312 1.07699 0.68006
 H703 H 0.75726 1.04662 0.69574
 H704 H 0.80426 1.04663 0.74278
 C705 C 0.71986 0.57025 0.30645
 C706 C 0.70233 0.57910 0.29764
 C707 C 0.69354 0.57025 0.28011
 C708 C 0.70254 0.55293 0.27109
 C709 C 0.67631 0.65103 0.32365
 C710 C 0.72889 0.55293 0.29745
 C711 C 0.69429 0.59809 0.30568
 C712 C 0.68809 0.61441 0.31187
 C713 C 0.68145 0.63397 0.31851
 C714 C 0.72052 0.54428 0.27947
 H715 H 0.72685 0.57704 0.31996
 H716 H 0.68003 0.57703 0.27311
 H717 H 0.69571 0.54666 0.25725
 H718 H 0.74272 0.54666 0.30429
 C719 C 0.69356 1.07022 0.78014
 C720 C 0.70235 1.07906 0.79768
 C721 C 0.71988 1.07020 0.80648
 C722 C 0.72890 1.05289 0.79748
 C723 C 0.67634 1.15099 0.82371
 C724 C 0.70255 1.05290 0.77111
 C725 C 0.69432 1.09805 0.80572
 C726 C 0.68812 1.11437 0.81192
 C727 C 0.68148 1.13393 0.81857
 C728 C 0.72053 1.04425 0.77948
 H729 H 0.68005 1.07701 0.77314
 H730 H 0.72687 1.07698 0.81999
 H731 H 0.74273 1.04661 0.80431
 H732 H 0.69572 1.04664 0.75727
 C733 C 0.21988 0.57016 0.80641
 C734 C 0.20235 0.57901 0.79761
 C735 C 0.19356 0.57015 0.78007
 C736 C 0.20255 0.55284 0.77105
 C737 C 0.17632 0.65093 0.82362
 C738 C 0.22891 0.55285 0.79742
 C739 C 0.19431 0.59799 0.80564
 C740 C 0.18810 0.61432 0.81184
 C741 C 0.18146 0.63388 0.81848
 C742 C 0.22054 0.54419 0.77943
 H743 H 0.22687 0.57695 0.81992
 H744 H 0.18004 0.57694 0.77307
 H745 H 0.19573 0.54657 0.75722
 H746 H 0.24274 0.54658 0.80425
 C747 C 0.19356 1.07017 0.28011
 C748 C 0.20235 1.07902 0.29764
 C749 C 0.21988 1.07017 0.30643
 C750 C 0.22891 1.05286 0.29744
 C751 C 0.17632 1.15095 0.32366
 C752 C 0.20255 1.05286 0.27108
 C753 C 0.19431 1.09801 0.30568
 C754 C 0.18811 1.11433 0.31188
 C755 C 0.18146 1.13389 0.31852
 C756 C 0.22054 1.04421 0.27945
 H757 H 0.18004 1.07696 0.27311
 H758 H 0.22688 1.07696 0.31995
 H759 H 0.24274 1.04659 0.30426
 H760 H 0.19573 1.04659 0.25724
 C761 C 0.71987 0.42980 0.69358
 C762 C 0.70234 0.42096 0.70238
 C763 C 0.69355 0.42981 0.71991
 C764 C 0.70255 0.44712 0.72894
 C765 C 0.67630 0.34903 0.67636
 C766 C 0.72890 0.44711 0.70257
 C767 C 0.69430 0.40197 0.69435
 C768 C 0.68809 0.38565 0.68815
 C769 C 0.68145 0.36609 0.68150
 C770 C 0.72053 0.45577 0.72056
 H771 H 0.72686 0.42301 0.68007
 H772 H 0.68003 0.42303 0.72691
 H773 H 0.69572 0.45340 0.74277
 H774 H 0.74273 0.45338 0.69574
 C775 C 0.71988 -0.07015 0.19355
 C776 C 0.70235 -0.07900 0.20235
 C777 C 0.69356 -0.07016 0.21989
 C778 C 0.70256 -0.05285 0.22892
 C779 C 0.67632 -0.15092 0.17631
 C780 C 0.72891 -0.05284 0.20255
 C781 C 0.69431 -0.09799 0.19431
 C782 C 0.68811 -0.11431 0.18810
 C783 C 0.68146 -0.13387 0.18146
 C784 C 0.72054 -0.04420 0.22055
 H785 H 0.72687 -0.07694 0.18004
 H786 H 0.68005 -0.07695 0.22688
 H787 H 0.69573 -0.04658 0.24276
 H788 H 0.74274 -0.04657 0.19573
 C789 C 0.21985 0.42982 0.19354
 C790 C 0.20233 0.42097 0.20234
 C791 C 0.19354 0.42982 0.21987
 C792 C 0.20253 0.44713 0.22890
 C793 C 0.17631 0.34904 0.17632
 C794 C 0.22888 0.44713 0.20253
 C795 C 0.19429 0.40198 0.19430
 C796 C 0.18809 0.38565 0.18810
 C797 C 0.18145 0.36609 0.18146
 C798 C 0.22052 0.45578 0.22052
 H799 H 0.22685 0.42303 0.18002
 H800 H 0.18003 0.42303 0.22687
 H801 H 0.19571 0.45340 0.24273
 H802 H 0.24271 0.45340 0.19570
 C803 C 0.19353 -0.07020 0.71985
 C804 C 0.20233 -0.07905 0.70231
 C805 C 0.21986 -0.07020 0.69352
 C806 C 0.22889 -0.05289 0.70251
 C807 C 0.17630 -0.15097 0.67628
 C808 C 0.20253 -0.05289 0.72888
 C809 C 0.19429 -0.09803 0.69427
 C810 C 0.18809 -0.11436 0.68807
 C811 C 0.18144 -0.13392 0.68142
 C812 C 0.22052 -0.04424 0.72051
 H813 H 0.18002 -0.07699 0.72684
 H814 H 0.22685 -0.07698 0.68000
 H815 H 0.24272 -0.04662 0.69569
 H816 H 0.19571 -0.04662 0.74271
 C817 C 0.28009 0.30644 0.42980
 C818 C 0.29762 0.29765 0.42094
 C819 C 0.30642 0.28012 0.42979
 C820 C 0.29742 0.27109 0.44710
 C821 C 0.32365 0.32371 0.34901
 C822 C 0.27106 0.29743 0.44711
 C823 C 0.30566 0.30570 0.40196
 C824 C 0.31186 0.31191 0.38563
 C825 C 0.31850 0.31856 0.36607
 C826 C 0.27943 0.27945 0.45576
 H827 H 0.27309 0.31995 0.42302
 H828 H 0.31993 0.27313 0.42300
 H829 H 0.30425 0.25726 0.45337
 H830 H 0.25723 0.30426 0.45339
 C831 C 0.28008 0.80641 -0.07027
 C832 C 0.29762 0.79762 -0.07912
 C833 C 0.30642 0.78009 -0.07026
 C834 C 0.29742 0.77106 -0.05295
 C835 C 0.32365 0.82365 -0.15106
 C836 C 0.27106 0.79741 -0.05295
 C837 C 0.30566 0.80565 -0.09811
 C838 C 0.31186 0.81186 -0.11444
 C839 C 0.31851 0.81850 -0.13400
 C840 C 0.27943 0.77943 -0.04430
 H841 H 0.27309 0.81991 -0.07706
 H842 H 0.31993 0.77310 -0.07705
 H843 H 0.30425 0.75724 -0.04667
 H844 H 0.25722 0.80423 -0.04668
 C845 C 0.78012 0.30647 -0.07016
 C846 C 0.79766 0.29768 -0.07901
 C847 C 0.80646 0.28016 -0.07016
 C848 C 0.79746 0.27113 -0.05284
 C849 C 0.82369 0.32371 -0.15096
 C850 C 0.77109 0.29747 -0.05285
 C851 C 0.80570 0.30572 -0.09800
 C852 C 0.81190 0.31192 -0.11433
 C853 C 0.81855 0.31857 -0.13389
 C854 C 0.77947 0.27949 -0.04420
 H855 H 0.77312 0.31997 -0.07695
 H856 H 0.81997 0.27316 -0.07694
 H857 H 0.80429 0.25730 -0.04657
 H858 H 0.75726 0.30429 -0.04658
 C859 C 0.78011 0.80647 0.42979
 C860 C 0.79765 0.79769 0.42095
 C861 C 0.80645 0.78017 0.42980
 C862 C 0.79745 0.77113 0.44711
 C863 C 0.82369 0.82372 0.34901
 C864 C 0.77108 0.79747 0.44711
 C865 C 0.80569 0.80573 0.40196
 C866 C 0.81190 0.81193 0.38563
 C867 C 0.81854 0.81858 0.36607
 C868 C 0.77946 0.77950 0.45576
 H869 H 0.77311 0.81998 0.42300
 H870 H 0.81997 0.77318 0.42302
 H871 H 0.80429 0.75731 0.45339
 H872 H 0.75725 0.80429 0.45338
 C873 C 0.71987 0.30646 0.57024
 C874 C 0.70234 0.29767 0.57909
 C875 C 0.69354 0.28014 0.57023
 C876 C 0.70254 0.27112 0.55291
 C877 C 0.67630 0.32370 0.65103
 C878 C 0.72890 0.29746 0.55292
 C879 C 0.69430 0.30571 0.59808
 C880 C 0.68810 0.31191 0.61440
 C881 C 0.68145 0.31855 0.63397
 C882 C 0.72053 0.27948 0.54427
 H883 H 0.72687 0.31996 0.57703
 H884 H 0.68003 0.27315 0.57702
 H885 H 0.69571 0.25729 0.54664
 H886 H 0.74274 0.30428 0.54665
 C887 C 0.69355 0.78017 1.07019
 C888 C 0.70235 0.79769 1.07903
 C889 C 0.71988 0.80648 1.07018
 C890 C 0.72891 0.79748 1.05287
 C891 C 0.67632 0.82374 1.15097
 C892 C 0.70254 0.77113 1.05287
 C893 C 0.69431 0.80574 1.09802
 C894 C 0.68811 0.81195 1.11435
 C895 C 0.68146 0.81860 1.13391
 C896 C 0.72053 0.77950 1.04422
 H897 H 0.68003 0.77318 1.07698
 H898 H 0.72688 0.81999 1.07696
 H899 H 0.74274 0.80430 1.04659
 H900 H 0.69571 0.75730 1.04660
 C901 C 0.19356 0.28012 1.07021
 C902 C 0.20236 0.29764 1.07906
 C903 C 0.21990 0.30643 1.07021
 C904 C 0.22893 0.29743 1.05290
 C905 C 0.17631 0.32369 1.15099
 C906 C 0.20256 0.27109 1.05289
 C907 C 0.19432 0.30569 1.09805
 C908 C 0.18811 0.31190 1.11437
 C909 C 0.18146 0.31855 1.13393
 C910 C 0.22055 0.27945 1.04425
 H911 H 0.18004 0.27313 1.07699
 H912 H 0.22690 0.31994 1.07700
 H913 H 0.24277 0.30425 1.04663
 H914 H 0.19573 0.25726 1.04662
 C915 C 0.21989 0.80642 0.57017
 C916 C 0.20235 0.79764 0.57902
 C917 C 0.19356 0.78011 0.57017
 C918 C 0.20256 0.77108 0.55286
 C919 C 0.17631 0.82369 0.65095
 C920 C 0.22892 0.79742 0.55286
 C921 C 0.19431 0.80568 0.59801
 C922 C 0.18810 0.81189 0.61433
 C923 C 0.18145 0.81854 0.63389
 C924 C 0.22055 0.77944 0.54421
 H925 H 0.22689 0.81993 0.57696
 H926 H 0.18004 0.77312 0.57695
 H927 H 0.19573 0.75725 0.54658
 H928 H 0.24276 0.80424 0.54659
 C929 C 0.28010 0.69353 0.57018
 C930 C 0.29764 0.70232 0.57903
 C931 C 0.30644 0.71984 0.57018
 C932 C 0.29744 0.72888 0.55287
 C933 C 0.32368 0.67626 0.65097
 C934 C 0.27108 0.70253 0.55287
 C935 C 0.30568 0.69427 0.59802
 C936 C 0.31188 0.68806 0.61435
 C937 C 0.31853 0.68141 0.63391
 C938 C 0.27945 0.72051 0.54422
 H939 H 0.27310 0.68002 0.57697
 H940 H 0.31995 0.72683 0.57697
 H941 H 0.30427 0.74270 0.54660
 H942 H 0.25724 0.69571 0.54659
 C943 C 0.28011 0.19356 1.07025
 C944 C 0.29764 0.20235 1.07909
 C945 C 0.30644 0.21987 1.07023
 C946 C 0.29745 0.22889 1.05292
 C947 C 0.32368 0.17632 1.15103
 C948 C 0.27108 0.20255 1.05293
 C949 C 0.30568 0.19431 1.09808
 C950 C 0.31189 0.18811 1.11441
 C951 C 0.31854 0.18146 1.13397
 C952 C 0.27946 0.22053 1.04427
 H953 H 0.27311 0.18005 1.07704
 H954 H 0.31996 0.22686 1.07702
 H955 H 0.30428 0.24272 1.04664
 H956 H 0.25725 0.19573 1.04666
 C957 C 0.78009 0.69359 1.07020
 C958 C 0.79762 0.70238 1.07905
 C959 C 0.80642 0.71990 1.07020
 C960 C 0.79742 0.72893 1.05288
 C961 C 0.82365 0.67634 1.15099
 C962 C 0.77106 0.70259 1.05288
 C963 C 0.80566 0.69434 1.09804
 C964 C 0.81186 0.68813 1.11437
 C965 C 0.81850 0.68149 1.13393
 C966 C 0.77943 0.72057 1.04423
 H967 H 0.77309 0.68008 1.07698
 H968 H 0.81993 0.72690 1.07699
 H969 H 0.80425 0.74276 1.04661
 H970 H 0.75722 0.69576 1.04661
 C971 C 0.78008 0.19358 0.57023
 C972 C 0.79762 0.20237 0.57909
 C973 C 0.80642 0.21989 0.57023
 C974 C 0.79742 0.22892 0.55292
 C975 C 0.82365 0.17632 0.65102
 C976 C 0.77105 0.20258 0.55292
 C977 C 0.80566 0.19432 0.59808
 C978 C 0.81186 0.18812 0.61440
 C979 C 0.81851 0.18147 0.63396
 C980 C 0.77943 0.22056 0.54427
 H981 H 0.77308 0.18007 0.57702
 H982 H 0.81993 0.22688 0.57702
 H983 H 0.80425 0.24275 0.54665
 H984 H 0.75722 0.19576 0.54665
 C985 C 0.69356 0.71992 0.42979
 C986 C 0.70236 0.70239 0.42093
 C987 C 0.71990 0.69361 0.42977
 C988 C 0.72893 0.70260 0.44709
 C989 C 0.67632 0.67637 0.34899
 C990 C 0.70256 0.72894 0.44710
 C991 C 0.69432 0.69436 0.40194
 C992 C 0.68811 0.68816 0.38561
 C993 C 0.68147 0.68151 0.36605
 C994 C 0.72055 0.72058 0.45575
 H995 H 0.68004 0.72691 0.42301
 H996 H 0.72690 0.68010 0.42298
 H997 H 0.74276 0.69578 0.45336
 H998 H 0.69573 0.74277 0.45338
 C999 C 0.69358 0.21989 -0.07016
 C1000 C 0.70238 0.20237 -0.07901
 C1001 C 0.71991 0.19358 -0.07016
 C1002 C 0.72894 0.20258 -0.05285
 C1003 C 0.67634 0.17632 -0.15095
 C1004 C 0.70257 0.22893 -0.05285
 C1005 C 0.69434 0.19432 -0.09800
 C1006 C 0.68814 0.18812 -0.11433
 C1007 C 0.68149 0.18147 -0.13389
 C1008 C 0.72056 0.22056 -0.04420
 H1009 H 0.68006 0.22688 -0.07695
 H1010 H 0.72691 0.18007 -0.07695
 H1011 H 0.74278 0.19576 -0.04658
 H1012 H 0.69574 0.24275 -0.04658
 C1013 C 0.21988 0.69353 -0.07025
 C1014 C 0.20235 0.70231 -0.07911
 C1015 C 0.19355 0.71984 -0.07026
 C1016 C 0.20254 0.72887 -0.05294
 C1017 C 0.17632 0.67627 -0.15105
 C1018 C 0.22891 0.70253 -0.05294
 C1019 C 0.19431 0.69427 -0.09810
 C1020 C 0.18811 0.68807 -0.11442
 C1021 C 0.18146 0.68142 -0.13399
 C1022 C 0.22053 0.72051 -0.04429
 H1023 H 0.22688 0.68002 -0.07704
 H1024 H 0.18003 0.72683 -0.07705
 H1025 H 0.19571 0.74270 -0.04667
 H1026 H 0.24274 0.69571 -0.04666
 C1027 C 0.19355 0.21986 0.42978
 C1028 C 0.20235 0.20233 0.42093
 C1029 C 0.21988 0.19354 0.42979
 C1030 C 0.22891 0.20254 0.44710
 C1031 C 0.17632 0.17628 0.34900
 C1032 C 0.20255 0.22889 0.44710
 C1033 C 0.19431 0.19429 0.40194
 C1034 C 0.18811 0.18808 0.38562
 C1035 C 0.18146 0.18143 0.36606
 C1036 C 0.22053 0.22052 0.45575
 H1037 H 0.18004 0.22685 0.42299
 H1038 H 0.22688 0.18003 0.42300
 H1039 H 0.24274 0.19571 0.45338
 H1040 H 0.19572 0.24272 0.45337
 C1041 C 0.28013 0.42976 0.69355
 C1042 C 0.29766 0.42091 0.70235
 C1043 C 0.30645 0.42976 0.71988
 C1044 C 0.29746 0.44708 0.72891
 C1045 C 0.32368 0.34898 0.67634
 C1046 C 0.27110 0.44708 0.70254
 C1047 C 0.30570 0.40192 0.69432
 C1048 C 0.31190 0.38559 0.68812
 C1049 C 0.31854 0.36603 0.68148
 C1050 C 0.27947 0.45573 0.72053
 H1051 H 0.27314 0.42297 0.68003
 H1052 H 0.31996 0.42298 0.72689
 H1053 H 0.30428 0.45335 0.74274
 H1054 H 0.25728 0.45335 0.69571
 C1055 C 0.28012 0.92982 0.19351
 C1056 C 0.29765 0.92096 0.20231
 C1057 C 0.30644 0.92980 0.21985
 C1058 C 0.29745 0.94711 0.22888
 C1059 C 0.32367 0.84904 0.17627
 C1060 C 0.27110 0.94713 0.20251
 C1061 C 0.30569 0.90197 0.19427
 C1062 C 0.31189 0.88565 0.18806
 C1063 C 0.31853 0.86609 0.18141
 C1064 C 0.27946 0.95577 0.22051
 H1065 H 0.27313 0.92304 0.17999
 H1066 H 0.31995 0.92301 0.22685
 H1067 H 0.30427 0.95338 0.24272
 H1068 H 0.25727 0.95340 0.19568
 C1069 C 0.78011 0.42984 0.19359
 C1070 C 0.79764 0.42100 0.20239
 C1071 C 0.80643 0.42985 0.21993
 C1072 C 0.79744 0.44716 0.22895
 C1073 C 0.82367 0.34907 0.17638
 C1074 C 0.77108 0.44716 0.20258
 C1075 C 0.80568 0.40201 0.19436
 C1076 C 0.81189 0.38568 0.18816
 C1077 C 0.81853 0.36613 0.18152
 C1078 C 0.77945 0.45581 0.22057
 H1079 H 0.77312 0.42305 0.18008
 H1080 H 0.81995 0.42307 0.22693
 H1081 H 0.80426 0.45344 0.24278
 H1082 H 0.75725 0.45343 0.19575
 C1083 C 0.78010 0.92982 0.69357
 C1084 C 0.79763 0.92097 0.70237
 C1085 C 0.80643 0.92982 0.71990
 C1086 C 0.79743 0.94714 0.72893
 C1087 C 0.82366 0.84905 0.67635
 C1088 C 0.77107 0.94713 0.70257
 C1089 C 0.80567 0.90199 0.69433
 C1090 C 0.81187 0.88566 0.68813
 C1091 C 0.81852 0.86610 0.68149
 C1092 C 0.77944 0.95578 0.72056
 H1093 H 0.77310 0.92304 0.68006
 H1094 H 0.81994 0.92304 0.72690
 H1095 H 0.80426 0.95341 0.74276
 H1096 H 0.75724 0.95341 0.69574
 C1097 C 0.71989 0.57018 0.69356
 C1098 C 0.70236 0.57903 0.70235
 C1099 C 0.69357 0.57019 0.71989
 C1100 C 0.70256 0.55288 0.72892
 C1101 C 0.67634 0.65096 0.67632
 C1102 C 0.72892 0.55287 0.70256
 C1103 C 0.69432 0.59802 0.69431
 C1104 C 0.68812 0.61434 0.68811
 C1105 C 0.68148 0.63390 0.68146
 C1106 C 0.72055 0.54423 0.72055
 H1107 H 0.72688 0.57696 0.68004
 H1108 H 0.68006 0.57698 0.72689
 H1109 H 0.69574 0.54661 0.74276
 H1110 H 0.74275 0.54660 0.69573
 C1111 C 0.69356 0.07022 0.21992
 C1112 C 0.70235 0.07907 0.20239
 C1113 C 0.71988 0.07023 0.19358
 C1114 C 0.72891 0.05291 0.20258
 C1115 C 0.67632 0.15100 0.17637
 C1116 C 0.70255 0.05291 0.22894
 C1117 C 0.69431 0.09806 0.19435
 C1118 C 0.68811 0.11439 0.18815
 C1119 C 0.68146 0.13395 0.18151
 C1120 C 0.72054 0.04426 0.22056
 H1121 H 0.68005 0.07701 0.22692
 H1122 H 0.72687 0.07702 0.18007
 H1123 H 0.74274 0.04664 0.19574
 H1124 H 0.69573 0.04663 0.24278
 C1125 C 0.21987 0.57019 0.19353
 C1126 C 0.20234 0.57904 0.20232
 C1127 C 0.19354 0.57020 0.21986
 C1128 C 0.20254 0.55288 0.22889
 C1129 C 0.17630 0.65097 0.17629
 C1130 C 0.22890 0.55288 0.20253
 C1131 C 0.19430 0.59803 0.19428
 C1132 C 0.18809 0.61435 0.18808
 C1133 C 0.18145 0.63391 0.18144
 C1134 C 0.22052 0.54424 0.22051
 H1135 H 0.22686 0.57698 0.18001
 H1136 H 0.18003 0.57698 0.22685
 H1137 H 0.19571 0.54661 0.24272
 H1138 H 0.24273 0.54661 0.19570
 C1139 C 0.21986 0.07018 0.69355
 C1140 C 0.20233 0.07903 0.70235
 C1141 C 0.19354 0.07018 0.71989
 C1142 C 0.20254 0.05287 0.72891
 C1143 C 0.17631 0.15096 0.67633
 C1144 C 0.22889 0.05287 0.70254
 C1145 C 0.19429 0.09802 0.69432
 C1146 C 0.18809 0.11435 0.68812
 C1147 C 0.18145 0.13390 0.68148
 C1148 C 0.22052 0.04422 0.72053
 H1149 H 0.22685 0.07697 0.68004
 H1150 H 0.18003 0.07697 0.72689
 H1151 H 0.19571 0.04659 0.74274
 H1152 H 0.24272 0.04660 0.69571
 C1153 C 0.28012 0.57020 0.30641
 C1154 C 0.29765 0.57905 0.29761
 C1155 C 0.30644 0.57019 0.28008
 C1156 C 0.29744 0.55288 0.27105
 C1157 C 0.32369 0.65097 0.32363
 C1158 C 0.27109 0.55289 0.29742
 C1159 C 0.30569 0.59803 0.30564
 C1160 C 0.31190 0.61436 0.31184
 C1161 C 0.31854 0.63392 0.31849
 C1162 C 0.27946 0.54424 0.27943
 H1163 H 0.27313 0.57699 0.31992
 H1164 H 0.31996 0.57697 0.27308
 H1165 H 0.30427 0.54661 0.25722
 H1166 H 0.25725 0.54662 0.30425
 C1167 C 0.28012 0.07015 0.80645
 C1168 C 0.29765 0.07899 0.79765
 C1169 C 0.30644 0.07015 0.78011
 C1170 C 0.29744 0.05284 0.77108
 C1171 C 0.32369 0.15091 0.82370
 C1172 C 0.27108 0.05284 0.79744
 C1173 C 0.30569 0.09798 0.80570
 C1174 C 0.31190 0.11430 0.81190
 C1175 C 0.31855 0.13385 0.81855
 C1176 C 0.27945 0.04420 0.77945
 H1177 H 0.27312 0.07693 0.81996
 H1178 H 0.31995 0.07694 0.77312
 H1179 H 0.30426 0.04658 0.75724
 H1180 H 0.25725 0.04657 0.80427
 C1181 C 0.78013 0.57019 0.80645
 C1182 C 0.79766 0.57904 0.79765
 C1183 C 0.80645 0.57019 0.78011
 C1184 C 0.79745 0.55288 0.77109
 C1185 C 0.82368 0.65097 0.82367
 C1186 C 0.77110 0.55288 0.79746
 C1187 C 0.80570 0.59803 0.80568
 C1188 C 0.81190 0.61436 0.81188
 C1189 C 0.81854 0.63392 0.81853
 C1190 C 0.77947 0.54423 0.77947
 H1191 H 0.77314 0.57698 0.81997
 H1192 H 0.81996 0.57698 0.77311
 H1193 H 0.80428 0.54661 0.75725
 H1194 H 0.75727 0.54661 0.80429
 C1195 C 0.78012 0.07021 0.30647
 C1196 C 0.79765 0.07906 0.29767
 C1197 C 0.80645 0.07022 0.28013
 C1198 C 0.79745 0.05291 0.27110
 C1199 C 0.82368 0.15099 0.32370
 C1200 C 0.77109 0.05290 0.29747
 C1201 C 0.80569 0.09805 0.30571
 C1202 C 0.81189 0.11438 0.31191
 C1203 C 0.81853 0.13393 0.31855
 C1204 C 0.77947 0.04425 0.27948
 H1205 H 0.77313 0.07700 0.31998
 H1206 H 0.81996 0.07701 0.27314
 H1207 H 0.80428 0.04664 0.25727
 H1208 H 0.75726 0.04663 0.30430
 C1209 C 0.71986 0.42986 0.30647
 C1210 C 0.70234 0.42101 0.29768
 C1211 C 0.69354 0.42986 0.28014
 C1212 C 0.70254 0.44717 0.27111
 C1213 C 0.67631 0.34908 0.32370
 C1214 C 0.72889 0.44717 0.29748
 C1215 C 0.69430 0.40203 0.30572
 C1216 C 0.68810 0.38570 0.31192
 C1217 C 0.68145 0.36614 0.31856
 C1218 C 0.72052 0.45582 0.27949
 H1219 H 0.72686 0.42308 0.31999
 H1220 H 0.68003 0.42307 0.27314
 H1221 H 0.69571 0.45344 0.25728
 H1222 H 0.74272 0.45345 0.30430
 C1223 C 0.69353 0.92983 0.78012
 C1224 C 0.70232 0.92097 0.79765
 C1225 C 0.71985 0.92982 0.80645
 C1226 C 0.72888 0.94713 0.79745
 C1227 C 0.67629 0.84904 0.82365
 C1228 C 0.70253 0.94714 0.77109
 C1229 C 0.69428 0.90199 0.80568
 C1230 C 0.68807 0.88566 0.81187
 C1231 C 0.68143 0.86610 0.81851
 C1232 C 0.72051 0.95579 0.77947
 H1233 H 0.68001 0.92305 0.77312
 H1234 H 0.72685 0.92302 0.81996
 H1235 H 0.74272 0.95340 0.80428
 H1236 H 0.69570 0.95342 0.75726
 C1237 C 0.21989 0.42978 0.80643
 C1238 C 0.20236 0.42092 0.79764
 C1239 C 0.19357 0.42977 0.78010
 C1240 C 0.20256 0.44708 0.77107
 C1241 C 0.17634 0.34900 0.82367
 C1242 C 0.22892 0.44709 0.79743
 C1243 C 0.19432 0.40194 0.80568
 C1244 C 0.18812 0.38561 0.81188
 C1245 C 0.18148 0.36605 0.81852
 C1246 C 0.22055 0.45573 0.77944
 H1247 H 0.22688 0.42299 0.81995
 H1248 H 0.18006 0.42298 0.77310
 H1249 H 0.19574 0.45335 0.75723
 H1250 H 0.24275 0.45336 0.80426
 C1251 C 0.19357 0.92979 0.28007
 C1252 C 0.20236 0.92094 0.29761
 C1253 C 0.21988 0.92979 0.30641
 C1254 C 0.22891 0.94710 0.29742
 C1255 C 0.17634 0.84901 0.32363
 C1256 C 0.20256 0.94710 0.27105
 C1257 C 0.19432 0.90195 0.30564
 C1258 C 0.18812 0.88562 0.31185
 C1259 C 0.18148 0.86606 0.31849
 C1260 C 0.22054 0.95575 0.27943
 H1261 H 0.18006 0.92300 0.27307
 H1262 H 0.22688 0.92300 0.31993
 H1263 H 0.24274 0.95338 0.30425
 H1264 H 0.19574 0.95337 0.25721
 C1265 C 0.42978 0.30639 0.71992
 C1266 C 0.42094 0.29760 0.70239
 C1267 C 0.42979 0.28008 0.69359
 C1268 C 0.44711 0.27105 0.70259
 C1269 C 0.34901 0.32364 0.67635
 C1270 C 0.44710 0.29740 0.72895
 C1271 C 0.40195 0.30564 0.69435
 C1272 C 0.38562 0.31184 0.68814
 C1273 C 0.36606 0.31849 0.68149
 C1274 C 0.45575 0.27942 0.72058
 H1275 H 0.42299 0.31990 0.72692
 H1276 H 0.42301 0.27308 0.68007
 H1277 H 0.45338 0.25722 0.69575
 H1278 H 0.45337 0.30422 0.74279
 C1279 C 0.42978 0.80646 0.21984
 C1280 C 0.42093 0.79767 0.20231
 C1281 C 0.42979 0.78015 0.19351
 C1282 C 0.44710 0.77112 0.20250
 C1283 C 0.34900 0.82370 0.17627
 C1284 C 0.44710 0.79747 0.22887
 C1285 C 0.40195 0.80571 0.19427
 C1286 C 0.38562 0.81191 0.18806
 C1287 C 0.36606 0.81856 0.18141
 C1288 C 0.45575 0.77949 0.22050
 H1289 H 0.42299 0.81997 0.22684
 H1290 H 0.42301 0.77316 0.17999
 H1291 H 0.45338 0.75730 0.19567
 H1292 H 0.45336 0.80429 0.24271
 C1293 C 0.92979 0.28016 0.19360
 C1294 C 0.92094 0.29768 0.20240
 C1295 C 0.92980 0.30647 0.21994
 C1296 C 0.94711 0.29746 0.22896
 C1297 C 0.84901 0.32373 0.17639
 C1298 C 0.94710 0.27113 0.20259
 C1299 C 0.90195 0.30573 0.19437
 C1300 C 0.88563 0.31194 0.18817
 C1301 C 0.86607 0.31859 0.18153
 C1302 C 0.95576 0.27948 0.22058
 H1303 H 0.92300 0.27318 0.18008
 H1304 H 0.92301 0.31997 0.22695
 H1305 H 0.95339 0.30428 0.24280
 H1306 H 0.95337 0.25730 0.19575
 C1307 C 0.92979 0.80645 0.71991
 C1308 C 0.92093 0.79767 0.70237
 C1309 C 0.92978 0.78015 0.69356
 C1310 C 0.94710 0.77111 0.70255
 C1311 C 0.84900 0.82371 0.67635
 C1312 C 0.94710 0.79745 0.72893
 C1313 C 0.90194 0.80572 0.69434
 C1314 C 0.88562 0.81192 0.68814
 C1315 C 0.86606 0.81857 0.68149
 C1316 C 0.95575 0.77947 0.72054
 H1317 H 0.92300 0.81996 0.72691
 H1318 H 0.92299 0.77316 0.68004
 H1319 H 0.95337 0.75729 0.69571
 H1320 H 0.95338 0.80427 0.74277
 C1321 C 0.57020 0.28018 0.30647
 C1322 C 0.57905 0.29771 0.29767
 C1323 C 0.57020 0.30649 0.28013
 C1324 C 0.55288 0.29749 0.27110
 C1325 C 0.65098 0.32375 0.32370
 C1326 C 0.55288 0.27115 0.29748
 C1327 C 0.59803 0.30575 0.30570
 C1328 C 0.61436 0.31196 0.31191
 C1329 C 0.63392 0.31860 0.31855
 C1330 C 0.54423 0.27951 0.27948
 H1331 H 0.57698 0.27320 0.31999
 H1332 H 0.57699 0.31999 0.27312
 H1333 H 0.54661 0.30430 0.25726
 H1334 H 0.54661 0.25733 0.30431
 C1335 C 0.57019 0.78012 0.80640
 C1336 C 0.57904 0.79765 0.79760
 C1337 C 0.57019 0.80643 0.78006
 C1338 C 0.55288 0.79743 0.77103
 C1339 C 0.65096 0.82370 0.82364
 C1340 C 0.55288 0.77109 0.79741
 C1341 C 0.59802 0.80569 0.80564
 C1342 C 0.61435 0.81190 0.81184
 C1343 C 0.63390 0.81855 0.81849
 C1344 C 0.54423 0.77945 0.77941
 H1345 H 0.57697 0.77314 0.81992
 H1346 H 0.57697 0.81994 0.77305
 H1347 H 0.54660 0.80424 0.75719
 H1348 H 0.54660 0.75726 0.80424
 C1349 C 0.07021 0.30643 0.78011
 C1350 C 0.07906 0.29764 0.79765
 C1351 C 0.07021 0.28012 0.80645
 C1352 C 0.05289 0.27109 0.79745
 C1353 C 0.15100 0.32366 0.82367
 C1354 C 0.05289 0.29743 0.77108
 C1355 C 0.09805 0.30568 0.80568
 C1356 C 0.11438 0.31188 0.81188
 C1357 C 0.13394 0.31852 0.81852
 C1358 C 0.04424 0.27946 0.77946
 H1359 H 0.07700 0.31994 0.77311
 H1360 H 0.07700 0.27313 0.81996
 H1361 H 0.04662 0.25726 0.80429
 H1362 H 0.04662 0.30426 0.75725
 C1363 C 0.07021 0.80643 0.28007
 C1364 C 0.07907 0.79764 0.29761
 C1365 C 0.07021 0.78012 0.30641
 C1366 C 0.05289 0.77109 0.29742
 C1367 C 0.15101 0.82367 0.32363
 C1368 C 0.05290 0.79744 0.27105
 C1369 C 0.09806 0.80568 0.30564
 C1370 C 0.11438 0.81188 0.31184
 C1371 C 0.13395 0.81853 0.31849
 C1372 C 0.04424 0.77946 0.27943
 H1373 H 0.07700 0.81994 0.27307
 H1374 H 0.07700 0.77313 0.31992
 H1375 H 0.04662 0.75727 0.30425
 H1376 H 0.04662 0.80426 0.25721
 C1377 C 0.57021 0.69353 0.71987
 C1378 C 0.57906 0.70232 0.70234
 C1379 C 0.57021 0.71984 0.69353
 C1380 C 0.55289 0.72887 0.70252
 C1381 C 0.65100 0.67629 0.67632
 C1382 C 0.55289 0.70253 0.72890
 C1383 C 0.59805 0.69428 0.69430
 C1384 C 0.61438 0.68808 0.68810
 C1385 C 0.63394 0.68143 0.68146
 C1386 C 0.54424 0.72051 0.72052
 H1387 H 0.57700 0.68003 0.72688
 H1388 H 0.57699 0.72683 0.68001
 H1389 H 0.54662 0.74269 0.69569
 H1390 H 0.54662 0.69571 0.74274
 C1391 C 0.57020 0.19359 0.21994
 C1392 C 0.57905 0.20238 0.20241
 C1393 C 0.57020 0.21990 0.19360
 C1394 C 0.55289 0.22893 0.20259
 C1395 C 0.65099 0.17634 0.17638
 C1396 C 0.55289 0.20259 0.22897
 C1397 C 0.59804 0.19434 0.19437
 C1398 C 0.61437 0.18813 0.18817
 C1399 C 0.63393 0.18149 0.18152
 C1400 C 0.54424 0.22057 0.22059
 H1401 H 0.57699 0.18009 0.22695
 H1402 H 0.57699 0.22689 0.18008
 H1403 H 0.54661 0.24275 0.19576
 H1404 H 0.54662 0.19578 0.24281
 C1405 C 0.07019 0.71987 0.19353
 C1406 C 0.07904 0.70234 0.20233
 C1407 C 0.07019 0.69356 0.21987
 C1408 C 0.05287 0.70256 0.22890
 C1409 C 0.15097 0.67630 0.17630
 C1410 C 0.05287 0.72890 0.20253
 C1411 C 0.09802 0.69430 0.19429
 C1412 C 0.11435 0.68809 0.18809
 C1413 C 0.13391 0.68145 0.18144
 C1414 C 0.04422 0.72054 0.22052
 H1415 H 0.07697 0.72686 0.18001
 H1416 H 0.07697 0.68005 0.22687
 H1417 H 0.04660 0.69574 0.24273
 H1418 H 0.04660 0.74273 0.19570
 C1419 C 0.07019 0.19355 0.71991
 C1420 C 0.07904 0.20234 0.70237
 C1421 C 0.07019 0.21986 0.69357
 C1422 C 0.05288 0.22889 0.70256
 C1423 C 0.15097 0.17630 0.67634
 C1424 C 0.05288 0.20255 0.72893
 C1425 C 0.09803 0.19429 0.69433
 C1426 C 0.11435 0.18809 0.68812
 C1427 C 0.13391 0.18144 0.68148
 C1428 C 0.04423 0.22053 0.72056
 H1429 H 0.07698 0.18004 0.72691
 H1430 H 0.07698 0.22685 0.68005
 H1431 H 0.04661 0.24272 0.69573
 H1432 H 0.04661 0.19573 0.74277
 C1433 C 0.42979 0.71989 0.30639
 C1434 C 0.42095 0.70236 0.29759
 C1435 C 0.42980 0.69358 0.28005
 C1436 C 0.44711 0.70258 0.27103
 C1437 C 0.34902 0.67631 0.32362
 C1438 C 0.44710 0.72892 0.29740
 C1439 C 0.40196 0.69431 0.30563
 C1440 C 0.38564 0.68811 0.31183
 C1441 C 0.36608 0.68146 0.31848
 C1442 C 0.45576 0.72056 0.27941
 H1443 H 0.42300 0.72687 0.31991
 H1444 H 0.42302 0.68007 0.27305
 H1445 H 0.45339 0.69576 0.25719
 H1446 H 0.45337 0.74275 0.30423
 C1447 C 0.42981 0.19350 0.78013
 C1448 C 0.42096 0.20229 0.79767
 C1449 C 0.42980 0.21981 0.80647
 C1450 C 0.44712 0.22885 0.79748
 C1451 C 0.34903 0.17624 0.82370
 C1452 C 0.44712 0.20251 0.77111
 C1453 C 0.40197 0.19424 0.80571
 C1454 C 0.38565 0.18803 0.81191
 C1455 C 0.36609 0.18138 0.81856
 C1456 C 0.45577 0.22049 0.77949
 H1457 H 0.42303 0.18000 0.77313
 H1458 H 0.42302 0.22680 0.81999
 H1459 H 0.45338 0.24268 0.80431
 H1460 H 0.45340 0.19569 0.75727
 C1461 C 0.92980 0.71986 0.80643
 C1462 C 0.92095 0.70234 0.79763
 C1463 C 0.92979 0.69356 0.78009
 C1464 C 0.94711 0.70255 0.77106
 C1465 C 0.84901 0.67631 0.82366
 C1466 C 0.94712 0.72889 0.79743
 C1467 C 0.90196 0.69430 0.80567
 C1468 C 0.88563 0.68810 0.81187
 C1469 C 0.86607 0.68145 0.81852
 C1470 C 0.95576 0.72053 0.77944
 H1471 H 0.92302 0.72685 0.81995
 H1472 H 0.92300 0.68005 0.77309
 H1473 H 0.95337 0.69574 0.75722
 H1474 H 0.95339 0.74272 0.80427
 C1475 C 0.92980 0.21987 0.30647
 C1476 C 0.92095 0.20235 0.29766
 C1477 C 0.92979 0.19357 0.28012
 C1478 C 0.94711 0.20256 0.27109
 C1479 C 0.84901 0.17632 0.32370
 C1480 C 0.94712 0.22890 0.29747
 C1481 C 0.90196 0.19431 0.30570
 C1482 C 0.88563 0.18811 0.31191
 C1483 C 0.86607 0.18147 0.31855
 C1484 C 0.95576 0.22054 0.27947
 H1485 H 0.92302 0.22686 0.31999
 H1486 H 0.92300 0.18006 0.27312
 H1487 H 0.95338 0.19575 0.25726
 H1488 H 0.95339 0.24273 0.30430
 C1489 C 0.28009 0.30641 0.57022
 C1490 C 0.29763 0.29762 0.57906
 C1491 C 0.30643 0.28010 0.57020
 C1492 C 0.29743 0.27107 0.55289
 C1493 C 0.32367 0.32364 0.65100
 C1494 C 0.27106 0.29741 0.55290
 C1495 C 0.30567 0.30565 0.59805
 C1496 C 0.31188 0.31185 0.61438
 C1497 C 0.31852 0.31850 0.63394
 C1498 C 0.27944 0.27943 0.54424
 H1499 H 0.27309 0.31991 0.57701
 H1500 H 0.31995 0.27311 0.57699
 H1501 H 0.30426 0.25725 0.54661
 H1502 H 0.25723 0.30423 0.54663
 C1503 C 0.30642 0.78012 0.07015
 C1504 C 0.29762 0.79765 0.07900
 C1505 C 0.28008 0.80643 0.07015
 C1506 C 0.27105 0.79743 0.05284
 C1507 C 0.32366 0.82370 0.15093
 C1508 C 0.29742 0.77109 0.05284
 C1509 C 0.30566 0.80569 0.09799
 C1510 C 0.31186 0.81190 0.11432
 C1511 C 0.31851 0.81855 0.13388
 C1512 C 0.27943 0.77945 0.04419
 H1513 H 0.31993 0.77313 0.07694
 H1514 H 0.27308 0.81994 0.07694
 H1515 H 0.25722 0.80425 0.04656
 H1516 H 0.30425 0.75726 0.04657
 C1517 C 0.80644 0.28016 0.07026
 C1518 C 0.79764 0.29769 0.07911
 C1519 C 0.78010 0.30647 0.07026
 C1520 C 0.77108 0.29747 0.05294
 C1521 C 0.82367 0.32373 0.15105
 C1522 C 0.79745 0.27113 0.05294
 C1523 C 0.80567 0.30573 0.09810
 C1524 C 0.81188 0.31194 0.11443
 C1525 C 0.81852 0.31858 0.13399
 C1526 C 0.77946 0.27949 0.04429
 H1527 H 0.81995 0.27317 0.07705
 H1528 H 0.77310 0.31998 0.07705
 H1529 H 0.75724 0.30430 0.04667
 H1530 H 0.80428 0.25730 0.04667
 C1531 C 0.78010 0.80646 0.57022
 C1532 C 0.79763 0.79767 0.57907
 C1533 C 0.80643 0.78014 0.57022
 C1534 C 0.79744 0.77112 0.55290
 C1535 C 0.82366 0.82371 0.65101
 C1536 C 0.77108 0.79747 0.55290
 C1537 C 0.80567 0.80571 0.59806
 C1538 C 0.81187 0.81192 0.61439
 C1539 C 0.81852 0.81856 0.63395
 C1540 C 0.77945 0.77948 0.54425
 H1541 H 0.77311 0.81997 0.57700
 H1542 H 0.81995 0.77315 0.57701
 H1543 H 0.80427 0.75729 0.54663
 H1544 H 0.75725 0.80429 0.54662
 C1545 C 0.30645 0.71985 0.42977
 C1546 C 0.29765 0.70233 0.42091
 C1547 C 0.28012 0.69354 0.42976
 C1548 C 0.27109 0.70254 0.44708
 C1549 C 0.32369 0.67630 0.34897
 C1550 C 0.29746 0.72888 0.44708
 C1551 C 0.30569 0.69429 0.40192
 C1552 C 0.31190 0.68809 0.38559
 C1553 C 0.31854 0.68145 0.36603
 C1554 C 0.27947 0.72052 0.45573
 H1555 H 0.31997 0.72684 0.42298
 H1556 H 0.27312 0.68004 0.42297
 H1557 H 0.25725 0.69572 0.45334
 H1558 H 0.30429 0.74271 0.45336
 C1559 C 0.30645 0.21982 0.92982
 C1560 C 0.29765 0.20230 0.92097
 C1561 C 0.28012 0.19351 0.92982
 C1562 C 0.27109 0.20252 0.94714
 C1563 C 0.32369 0.17624 0.84904
 C1564 C 0.29745 0.22886 0.94713
 C1565 C 0.30569 0.19425 0.90198
 C1566 C 0.31190 0.18804 0.88566
 C1567 C 0.31854 0.18139 0.86610
 C1568 C 0.27947 0.22050 0.95578
 H1569 H 0.31997 0.22681 0.92303
 H1570 H 0.27312 0.18000 0.92304
 H1571 H 0.25726 0.19569 0.95341
 H1572 H 0.30428 0.24269 0.95340
 C1573 C 0.78009 0.69358 0.92978
 C1574 C 0.79763 0.70236 0.92093
 C1575 C 0.80643 0.71989 0.92978
 C1576 C 0.79743 0.72892 0.94709
 C1577 C 0.82367 0.67631 0.84900
 C1578 C 0.77106 0.70258 0.94709
 C1579 C 0.80567 0.69432 0.90194
 C1580 C 0.81187 0.68811 0.88562
 C1581 C 0.81852 0.68146 0.86606
 C1582 C 0.77944 0.72056 0.95574
 H1583 H 0.77309 0.68007 0.92299
 H1584 H 0.81994 0.72687 0.92300
 H1585 H 0.80426 0.74275 0.95337
 H1586 H 0.75722 0.69576 0.95336
 C1587 C 0.80643 0.21990 0.42982
 C1588 C 0.79763 0.20237 0.42097
 C1589 C 0.78010 0.19358 0.42982
 C1590 C 0.77107 0.20258 0.44713
 C1591 C 0.82367 0.17633 0.34903
 C1592 C 0.79743 0.22893 0.44713
 C1593 C 0.80567 0.19433 0.40198
 C1594 C 0.81188 0.18812 0.38565
 C1595 C 0.81853 0.18147 0.36609
 C1596 C 0.77944 0.22056 0.45578
 H1597 H 0.81994 0.22689 0.42303
 H1598 H 0.77310 0.18007 0.42303
 H1599 H 0.75723 0.19576 0.45340
 H1600 H 0.80426 0.24276 0.45340
 C1601 C 0.71988 0.30648 0.42982
 C1602 C 0.70235 0.29769 0.42097
 C1603 C 0.69355 0.28016 0.42982
 C1604 C 0.70255 0.27113 0.44713
 C1605 C 0.67632 0.32375 0.34904
 C1606 C 0.72891 0.29747 0.44714
 C1607 C 0.69431 0.30574 0.40198
 C1608 C 0.68811 0.31195 0.38565
 C1609 C 0.68146 0.31860 0.36609
 C1610 C 0.72054 0.27949 0.45578
 H1611 H 0.72688 0.31999 0.42304
 H1612 H 0.68004 0.27317 0.42303
 H1613 H 0.69572 0.25730 0.45340
 H1614 H 0.74274 0.30430 0.45341
 C1615 C 0.71987 0.80645 0.92976
 C1616 C 0.70234 0.79766 0.92092
 C1617 C 0.69354 0.78014 0.92977
 C1618 C 0.70254 0.77111 0.94709
 C1619 C 0.67630 0.82370 0.84898
 C1620 C 0.72890 0.79746 0.94708
 C1621 C 0.69430 0.80570 0.90193
 C1622 C 0.68809 0.81191 0.88560
 C1623 C 0.68144 0.81855 0.86604
 C1624 C 0.72053 0.77948 0.95573
 H1625 H 0.72687 0.81996 0.92297
 H1626 H 0.68002 0.77315 0.92299
 H1627 H 0.69571 0.75729 0.95336
 H1628 H 0.74274 0.80428 0.95335
 C1629 C 0.21991 0.30641 0.92979
 C1630 C 0.20238 0.29762 0.92094
 C1631 C 0.19358 0.28009 0.92979
 C1632 C 0.20257 0.27106 0.94711
 C1633 C 0.17635 0.32366 0.84900
 C1634 C 0.22894 0.29741 0.94711
 C1635 C 0.19434 0.30566 0.90195
 C1636 C 0.18814 0.31186 0.88562
 C1637 C 0.18149 0.31851 0.86606
 C1638 C 0.22056 0.27943 0.95576
 H1639 H 0.22691 0.31992 0.92300
 H1640 H 0.18007 0.27310 0.92300
 H1641 H 0.19574 0.25724 0.95338
 H1642 H 0.24277 0.30423 0.95338
 C1643 C 0.21991 0.80642 0.42976
 C1644 C 0.20238 0.79763 0.42090
 C1645 C 0.19358 0.78011 0.42976
 C1646 C 0.20257 0.77108 0.44707
 C1647 C 0.17635 0.82367 0.34897
 C1648 C 0.22894 0.79742 0.44707
 C1649 C 0.19434 0.80567 0.40191
 C1650 C 0.18814 0.81188 0.38559
 C1651 C 0.18149 0.81852 0.36602
 C1652 C 0.22056 0.77944 0.45572
 H1653 H 0.22691 0.81992 0.42297
 H1654 H 0.18006 0.77312 0.42297
 H1655 H 0.19574 0.75725 0.45335
 H1656 H 0.24277 0.80424 0.45334
 C1657 C 0.69357 0.71988 0.57020
 C1658 C 0.70237 0.70235 0.57905
 C1659 C 0.71990 0.69357 0.57019
 C1660 C 0.72893 0.70257 0.55288
 C1661 C 0.67634 0.67630 0.65098
 C1662 C 0.70257 0.72892 0.55289
 C1663 C 0.69433 0.69431 0.59804
 C1664 C 0.68813 0.68810 0.61436
 C1665 C 0.68149 0.68145 0.63392
 C1666 C 0.72055 0.72056 0.54424
 H1667 H 0.68006 0.72687 0.57700
 H1668 H 0.72690 0.68006 0.57698
 H1669 H 0.74276 0.69575 0.54660
 H1670 H 0.69574 0.74275 0.54662
 C1671 C 0.71990 0.19359 0.07026
 C1672 C 0.70236 0.20238 0.07910
 C1673 C 0.69356 0.21991 0.07025
 C1674 C 0.70256 0.22894 0.05293
 C1675 C 0.67633 0.17634 0.15104
 C1676 C 0.72893 0.20259 0.05294
 C1677 C 0.69432 0.19434 0.09809
 C1678 C 0.68812 0.18814 0.11442
 C1679 C 0.68147 0.18149 0.13398
 C1680 C 0.72055 0.22057 0.04429
 H1681 H 0.72690 0.18009 0.07705
 H1682 H 0.68005 0.22690 0.07703
 H1683 H 0.69573 0.24276 0.04666
 H1684 H 0.74276 0.19577 0.04667
 C1685 C 0.21987 0.69355 0.07017
 C1686 C 0.20234 0.70233 0.07902
 C1687 C 0.19354 0.71986 0.07016
 C1688 C 0.20254 0.72889 0.05285
 C1689 C 0.17630 0.67630 0.15096
 C1690 C 0.22890 0.70254 0.05285
 C1691 C 0.19430 0.69429 0.09801
 C1692 C 0.18809 0.68809 0.11433
 C1693 C 0.18145 0.68145 0.13390
 C1694 C 0.22053 0.72052 0.04420
 H1695 H 0.22687 0.68004 0.07696
 H1696 H 0.18002 0.72685 0.07695
 H1697 H 0.19571 0.74271 0.04657
 H1698 H 0.24273 0.69572 0.04658
 C1699 C 0.19354 0.21985 0.57020
 C1700 C 0.20234 0.20233 0.57906
 C1701 C 0.21988 0.19354 0.57021
 C1702 C 0.22891 0.20254 0.55289
 C1703 C 0.17631 0.17629 0.65100
 C1704 C 0.20254 0.22888 0.55289
 C1705 C 0.19431 0.19429 0.59805
 C1706 C 0.18810 0.18808 0.61437
 C1707 C 0.18145 0.18144 0.63394
 C1708 C 0.22053 0.22052 0.54424
 H1709 H 0.18003 0.22684 0.57699
 H1710 H 0.22688 0.18003 0.57700
 H1711 H 0.24275 0.19572 0.54662
 H1712 H 0.19571 0.24270 0.54661
   
