data_POSCAR
  _audit_creation_date              2014-09-24
  _audit_creation_method            'ToBaCCo'
  _symmetry_space_group_name_H-M    'P1'
  _symmetry_Int_Tables_number       1
  _symmetry_cell_setting            triclinic
  loop_
  _symmetry_equiv_pos_as_xyz
 x,y,z
_cell_length_a 52.0994
_cell_length_b 53.2281
_cell_length_c 53.5046
_cell_angle_alpha 89.886700
_cell_angle_beta 89.886400
_cell_angle_gamma 90.154500
loop_
  _atom_site_label
  _atom_site_type_symbol
  _atom_site_fract_x
  _atom_site_fract_y
  _atom_site_fract_z
C1 C 0.37659 0.29999 -0.01349
 C2 C 0.38341 0.28964 0.00976
 C3 C 0.37241 0.29766 0.03208
 C4 C 0.35371 0.31666 0.03184
 C5 C 0.34652 0.32782 0.00879
 C6 C 0.35825 0.31985 -0.01392
 C7 C 0.35296 0.33351 -0.03584
 C8 C 0.33491 0.35275 -0.03602
 C9 C 0.32123 0.35932 -0.01430
 C10 C 0.32813 0.34753 0.00860
 C11 C 0.34231 0.32495 0.05412
 C12 C 0.32445 0.34426 0.05395
 C13 C 0.31723 0.35588 0.03146
 C14 C 0.29984 0.37608 0.03134
 C15 C 0.29286 0.38720 0.00877
 C16 C 0.30252 0.37884 -0.01434
 H17 H 0.36338 0.33015 -0.05298
 H18 H 0.33252 0.36303 -0.05330
 H19 H 0.34732 0.31673 0.07198
 H20 H 0.31654 0.35019 0.07170
 H21 H 0.39693 0.27419 0.01067
 H22 H 0.27833 0.40175 0.00938
 C23 C 0.64445 0.71466 0.02192
 C24 C 0.63687 0.72648 -0.00014
 C25 C 0.64443 0.71769 -0.02378
 C26 C 0.66147 0.69685 -0.02510
 C27 C 0.67002 0.68521 -0.00262
 C28 C 0.66123 0.69398 0.02092
 C29 C 0.67010 0.68243 0.04289
 C30 C 0.68775 0.66290 0.04190
 C31 C 0.69709 0.65413 0.01889
 C32 C 0.68805 0.66525 -0.00360
 C33 C 0.67180 0.68857 -0.04799
 C34 C 0.68926 0.66884 -0.04894
 C35 C 0.69766 0.65698 -0.02700
 C36 C 0.71620 0.63768 -0.02772
 C37 C 0.72510 0.62715 -0.00545
 C38 C 0.71588 0.63506 0.01775
 H39 H 0.66390 0.68877 0.06113
 H40 H 0.69432 0.65503 0.05941
 H41 H 0.66720 0.69773 -0.06545
 H42 H 0.69664 0.66337 -0.06705
 H43 H 0.62351 0.74204 0.00121
 H44 H 0.73953 0.61250 -0.00618
 C45 C 0.64362 0.27919 1.01977
 C46 C 0.63700 0.26880 0.99653
 C47 C 0.64278 0.28086 0.97401
 C48 C 0.65709 0.30339 0.97418
 C49 C 0.66506 0.31378 0.99730
 C50 C 0.65825 0.30182 1.02019
 C51 C 0.66772 0.31194 1.04267
 C52 C 0.68221 0.33392 1.04285
 C53 C 0.68873 0.34624 1.02049
 C54 C 0.68021 0.33604 0.99748
 C55 C 0.66411 0.31546 0.95178
 C56 C 0.67882 0.33729 0.95201
 C57 C 0.68729 0.34776 0.97462
 C58 C 0.70268 0.36968 0.97497
 C59 C 0.71016 0.37997 0.99785
 C60 C 0.70375 0.36840 1.02050
 H61 H 0.66455 0.30271 1.06043
 H62 H 0.68849 0.34101 1.06077
 H63 H 0.65857 0.30793 0.93380
 H64 H 0.68352 0.34588 0.93422
 H65 H 0.62526 0.25193 0.99588
 H66 H 0.72233 0.39655 0.99799
 C67 C 0.27945 0.64217 0.97326
 C68 C 0.26774 0.63622 0.99601
 C69 C 0.27869 0.64286 1.01905
 C70 C 0.30151 0.65768 1.01906
 C71 C 0.31300 0.66485 0.99597
 C72 C 0.30203 0.65687 0.97303
 C73 C 0.31365 0.66411 0.95042
 C74 C 0.33585 0.67864 0.95023
 C75 C 0.34711 0.68676 0.97264
 C76 C 0.33556 0.68000 0.99576
 C77 C 0.31242 0.66666 1.04136
 C78 C 0.33477 0.68102 1.04118
 C79 C 0.34649 0.68840 1.01861
 C80 C 0.36955 0.70285 1.01820
 C81 C 0.38121 0.70811 0.99508
 C82 C 0.36985 0.70122 0.97250
 H83 H 0.30559 0.65872 0.93259
 H84 H 0.34423 0.68329 0.93228
 H85 H 0.30372 0.66292 1.05934
 H86 H 0.34283 0.68602 1.05909
 H87 H 0.25088 0.62419 0.99567
 H88 H 0.39833 0.71976 0.99445
 C89 C 0.02327 0.28163 0.35376
 C90 C 0.00008 0.26958 0.35922
 C91 C -0.02375 0.28046 0.35360
 C92 C -0.02417 0.30362 0.34023
 C93 C -0.00067 0.31556 0.33353
 C94 C 0.02309 0.30464 0.34056
 C95 C 0.04608 0.31677 0.33388
 C96 C 0.04585 0.33939 0.32087
 C97 C 0.02262 0.35052 0.31353
 C98 C -0.00089 0.33849 0.31976
 C99 C -0.04730 0.31456 0.33226
 C100 C -0.04753 0.33719 0.31925
 C101 C -0.02458 0.34927 0.31216
 C102 C -0.02464 0.37243 0.29877
 C103 C -0.00112 0.38456 0.29411
 C104 C 0.02234 0.37355 0.30037
 H105 H 0.06456 0.30881 0.33854
 H106 H 0.06413 0.34815 0.31671
 H107 H -0.06563 0.30565 0.33572
 H108 H -0.06608 0.34518 0.31508
 H109 H 0.00071 0.25240 0.37016
 H110 H -0.00081 0.40181 0.28327
 C111 C 0.02850 0.63902 0.71726
 C112 C 0.00521 0.63214 0.72816
 C113 C -0.01834 0.64147 0.71955
 C114 C -0.01827 0.65951 0.69988
 C115 C 0.00547 0.66717 0.68903
 C116 C 0.02888 0.65655 0.69751
 C117 C 0.05215 0.66442 0.68674
 C118 C 0.05262 0.68301 0.66849
 C119 C 0.02984 0.69447 0.66042
 C120 C 0.00595 0.68626 0.67039
 C121 C -0.04086 0.67177 0.69238
 C122 C -0.04036 0.69054 0.67424
 C123 C -0.01728 0.69785 0.66256
 C124 C -0.01637 0.71793 0.64494
 C125 C 0.00765 0.72618 0.63618
 C126 C 0.03044 0.71455 0.64327
 H127 H 0.07032 0.65670 0.69277
 H128 H 0.07112 0.68877 0.66119
 H129 H -0.05909 0.66780 0.70125
 H130 H -0.05825 0.69998 0.67032
 H131 H 0.00548 0.61813 0.74294
 H132 H 0.00872 0.74128 0.62254
 C133 C 1.01638 0.70820 0.36880
 C134 C 0.99297 0.71304 0.38058
 C135 C 0.97006 0.70255 0.37193
 C136 C 0.97048 0.68620 0.35116
 C137 C 0.99412 0.68116 0.33891
 C138 C 1.01715 0.69232 0.34770
 C139 C 1.04018 0.68783 0.33482
 C140 C 1.04070 0.67244 0.31383
 C141 C 1.01831 0.66041 0.30519
 C142 C 0.99465 0.66528 0.31761
 C143 C 0.94795 0.67463 0.34247
 C144 C 0.94848 0.65884 0.32178
 C145 C 0.97149 0.65432 0.30881
 C146 C 0.97207 0.63889 0.28742
 C147 C 0.99521 0.63516 0.27479
 C148 C 1.01855 0.64492 0.28357
 H149 H 1.05799 0.69652 0.34066
 H150 H 1.05882 0.67055 0.30413
 H151 H 0.92971 0.67759 0.35170
 H152 H 0.93058 0.65035 0.31595
 H153 H 0.99251 0.72574 0.39642
 H154 H 0.99516 0.62276 0.25870
 C155 C 1.02355 0.35911 0.70736
 C156 C 1.00010 0.36585 0.71813
 C157 C 0.97673 0.35943 0.70705
 C158 C 0.97658 0.34499 0.68491
 C159 C 1.00022 0.33756 0.67394
 C160 C 1.02379 0.34492 0.68504
 C161 C 1.04691 0.33789 0.67355
 C162 C 1.04696 0.32382 0.65165
 C163 C 1.02390 0.31539 0.64075
 C164 C 1.00026 0.32291 0.65174
 C165 C 0.95346 0.33762 0.67360
 C166 C 0.95349 0.32345 0.65178
 C167 C 0.97663 0.31586 0.64058
 C168 C 0.97672 0.30175 0.61826
 C169 C 1.00007 0.29533 0.60710
 C170 C 1.02374 0.30095 0.61837
 H171 H 1.06526 0.34333 0.68131
 H172 H 1.06538 0.32005 0.64315
 H173 H 0.93509 0.34272 0.68155
 H174 H 0.93512 0.31870 0.64363
 H175 H 1.00006 0.37715 0.73499
 H176 H 0.99960 0.28373 0.59045
 C177 C 0.27847 -0.02602 0.35090
 C178 C 0.26879 -0.00304 0.35957
 C179 C 0.28065 0.01982 0.35401
 C180 C 0.30238 0.02027 0.33823
 C181 C 0.31194 -0.00258 0.32821
 C182 C 0.30009 -0.02582 0.33462
 C183 C 0.30877 -0.04785 0.32290
 C184 C 0.32911 -0.04732 0.30602
 C185 C 0.34188 -0.02474 0.30013
 C186 C 0.33287 -0.00206 0.31109
 C187 C 0.31419 0.04306 0.33152
 C188 C 0.33476 0.04356 0.31497
 C189 C 0.34404 0.02132 0.30420
 C190 C 0.36392 0.02196 0.28632
 C191 C 0.37225 -0.00029 0.27532
 C192 C 0.36186 -0.02376 0.28195
 H193 H 0.29922 -0.06568 0.32582
 H194 H 0.33400 -0.06480 0.29696
 H195 H 0.30732 0.06084 0.33859
 H196 H 0.34300 0.06166 0.31031
 H197 H 0.25261 -0.00292 0.37239
 H198 H 0.38761 0.00073 0.26161
 C199 C 0.63624 0.02658 0.71426
 C200 C 0.63174 0.00399 0.72681
 C201 C 0.64245 -0.01880 0.71888
 C202 C 0.65960 -0.01860 0.69815
 C203 C 0.66528 0.00453 0.68589
 C204 C 0.65341 0.02715 0.69384
 C205 C 0.65882 0.04964 0.68105
 C206 C 0.67641 0.05020 0.66146
 C207 C 0.68890 0.02822 0.65366
 C208 C 0.68298 0.00509 0.66564
 C209 C 0.67250 -0.04045 0.69038
 C210 C 0.68962 -0.03991 0.67037
 C211 C 0.69500 -0.01741 0.65763
 C212 C 0.71267 -0.01661 0.63753
 C213 C 0.71848 0.00637 0.62613
 C214 C 0.70707 0.02872 0.63403
 H215 H 0.64966 0.06710 0.68617
 H216 H 0.68005 0.06806 0.65238
 H217 H 0.66997 -0.05814 0.70003
 H218 H 0.69900 -0.05729 0.66528
 H219 H 0.61815 0.00402 0.74223
 H220 H 0.73236 0.00692 0.61099
 C221 C 0.35977 0.97571 0.71211
 C222 C 0.36471 0.99809 0.72484
 C223 C 0.35795 1.02163 0.71494
 C224 C 0.34412 1.02252 0.69202
 C225 C 0.33803 0.99977 0.67942
 C226 C 0.34613 0.97634 0.68936
 C227 C 0.33981 0.95410 0.67665
 C228 C 0.32550 0.95472 0.65475
 C229 C 0.31683 0.97761 0.64478
 C230 C 0.32337 1.00037 0.65703
 C231 C 0.33467 1.04528 0.68224
 C232 C 0.32070 1.04587 0.66011
 C233 C 0.31473 1.02366 0.64726
 C234 C 0.30011 1.02405 0.62500
 C235 C 0.29415 1.00147 0.61300
 C236 C 0.30170 0.97832 0.62288
 H237 H 0.34554 0.93591 0.68375
 H238 H 0.32127 0.93703 0.64568
 H239 H 0.33742 1.06292 0.69185
 H240 H 0.31433 1.06398 0.65333
 H241 H 0.37578 0.99714 0.74198
 H242 H 0.28218 1.00186 0.59643
 C243 C 0.69953 0.96817 0.37620
 C244 C 0.70576 0.99066 0.38807
 C245 C 0.69706 1.01407 0.37930
 C246 C 0.67990 1.01441 0.35855
 C247 C 0.67380 0.99162 0.34600
 C248 C 0.68390 0.96847 0.35475
 C249 C 0.67755 0.94611 0.34229
 C250 C 0.66142 0.94633 0.32167
 C251 C 0.65066 0.96886 0.31302
 C252 C 0.65695 0.99181 0.32509
 C253 C 0.66687 1.03638 0.35137
 C254 C 0.65015 1.03653 0.33110
 C255 C 0.64573 1.01475 0.31687
 C256 C 0.62863 1.01461 0.29608
 C257 C 0.62303 0.99154 0.28455
 C258 C 0.63358 0.96897 0.29267
 H259 H 0.68481 0.92813 0.34851
 H260 H 0.65722 0.92857 0.31273
 H261 H 0.66865 1.05357 0.36197
 H262 H 0.64007 1.05384 0.32734
 H263 H 0.71911 0.98974 0.40358
 H264 H 0.61046 0.99100 0.26840
 O265 O 0.85529 0.81833 0.48056
 O266 O 0.82548 0.85835 0.52817
 O267 O 0.86048 0.82338 0.52840
 O268 O 0.82098 0.85314 0.48031
 O269 O 0.79068 0.82469 0.48625
 O270 O 0.83051 0.79480 0.53513
 O271 O 0.79527 0.82990 0.53439
 O272 O 0.82576 0.78921 0.48703
 Cu273 Cu 0.84357 0.84114 0.50385
 Cu274 Cu 0.80751 0.80675 0.51132
 C275 C 0.84579 0.79689 0.47574
 C276 C 0.80508 0.85124 0.53917
 C277 C 0.85255 0.80392 0.53984
 C278 C 0.79906 0.84418 0.47507
 O279 O 0.14130 0.17485 0.47408
 O280 O 0.17852 0.14320 0.52306
 O281 O 0.14412 0.17863 0.52241
 O282 O 0.17551 0.13965 0.47483
 O283 O 0.20630 0.16788 0.47069
 O284 O 0.17430 0.20748 0.51791
 O285 O 0.20931 0.17146 0.51904
 O286 O 0.17188 0.20327 0.46969
 Cu287 Cu 0.15682 0.15627 0.49910
 Cu288 Cu 0.19357 0.19040 0.49410
 C289 C 0.15013 0.19443 0.46347
 C290 C 0.20047 0.15159 0.52913
 C291 C 0.15349 0.19995 0.52789
 C292 C 0.19626 0.14698 0.46463
 O293 O 0.17415 0.85888 0.47382
 O294 O 0.14445 0.82422 0.52538
 O295 O 0.17936 0.85866 0.52185
 O296 O 0.13923 0.82417 0.47726
 O297 O 0.16882 0.79480 0.47400
 O298 O 0.20967 0.83001 0.51821
 O299 O 0.17412 0.79487 0.52251
 O300 O 0.20392 0.82976 0.46991
 Cu301 Cu 0.15632 0.84435 0.49988
 Cu302 Cu 0.19215 0.80937 0.49590
 C303 C 0.19412 0.85052 0.46310
 C304 C 0.15400 0.80361 0.53278
 C305 C 0.20148 0.85048 0.52743
 C306 C 0.14698 0.80355 0.46808
 O307 O 0.85459 0.17995 0.51952
 O308 O 0.81929 0.13947 0.47602
 O309 O 0.85541 0.17347 0.47153
 O310 O 0.81919 0.14607 0.52374
 O311 O 0.78901 0.17470 0.51896
 O312 O 0.82617 0.20301 0.46705
 O313 O 0.78996 0.16883 0.47086
 O314 O 0.82520 0.20942 0.51524
 Cu315 Cu 0.84010 0.15687 0.49803
 Cu316 Cu 0.80463 0.19199 0.49261
 C317 C 0.84607 0.20163 0.52477
 C318 C 0.79838 0.14691 0.46637
 C319 C 0.84735 0.19312 0.46061
 C320 C 0.79771 0.15533 0.52999
 O321 O 0.47432 0.85926 0.82480
 O322 O 0.52395 0.82700 0.86071
 O323 O 0.52389 0.86205 0.82675
 O324 O 0.47465 0.82335 0.85754
 O325 O 0.47862 0.79469 0.82805
 O326 O 0.52788 0.83380 0.79691
 O327 O 0.52823 0.79854 0.83109
 O328 O 0.47771 0.83129 0.79464
 Cu329 Cu 0.49886 0.84574 0.84537
 Cu330 Cu 0.50341 0.81176 0.80959
 C331 C 0.46751 0.85105 0.80359
 C332 C 0.53442 0.80718 0.85241
 C333 C 0.53426 0.85468 0.80655
 C334 C 0.46851 0.80221 0.84832
 O335 O 0.52844 0.17050 0.14164
 O336 O 0.47770 0.14047 0.17836
 O337 O 0.47913 0.17485 0.14442
 O338 O 0.52715 0.13694 0.17723
 O339 O 0.53165 0.16655 0.20567
 O340 O 0.48252 0.20426 0.17321
 O341 O 0.48185 0.16919 0.20780
 O342 O 0.53235 0.20043 0.16983
 Cu343 Cu 0.50286 0.15276 0.15755
 Cu344 Cu 0.50752 0.18812 0.19200
 C345 C 0.53878 0.19076 0.14901
 C346 C 0.47117 0.14942 0.19937
 C347 C 0.47254 0.19603 0.15316
 C348 C 0.53735 0.14498 0.19724
 O349 O 0.51657 0.13843 0.82716
 O350 O 0.47133 0.17487 0.86500
 O351 O 0.46742 0.13977 0.83116
 O352 O 0.52070 0.17219 0.86167
 O353 O 0.51949 0.20230 0.83331
 O354 O 0.46674 0.16838 0.80132
 O355 O 0.46951 0.20395 0.83564
 O356 O 0.51675 0.16822 0.79840
 Cu357 Cu 0.49397 0.15344 0.84916
 Cu358 Cu 0.49289 0.18870 0.81422
 C359 C 0.52444 0.14703 0.80635
 C360 C 0.46294 0.19580 0.85706
 C361 C 0.45842 0.14792 0.81070
 C362 C 0.52916 0.19281 0.85300
 O363 O 0.47437 0.82077 0.13696
 O364 O 0.52443 0.85521 0.17133
 O365 O 0.52423 0.82109 0.13706
 O366 O 0.47509 0.85642 0.17033
 O367 O 0.47348 0.82764 0.20001
 O368 O 0.52421 0.79201 0.16649
 O369 O 0.52346 0.82650 0.20111
 O370 O 0.47427 0.79143 0.16616
 Cu371 Cu 0.49948 0.84119 0.15094
 Cu372 Cu 0.49862 0.80644 0.18641
 C373 C 0.46619 0.79991 0.14544
 C374 C 0.53237 0.84688 0.19221
 C375 C 0.53287 0.80070 0.14594
 C376 C 0.46623 0.84862 0.19103
 O377 O 0.86220 0.51945 0.82243
 O378 O 0.82328 0.47256 0.85548
 O379 O 0.85916 0.47100 0.82189
 O380 O 0.82652 0.52111 0.85619
 O381 O 0.79704 0.52371 0.82676
 O382 O 0.83017 0.47318 0.79200
 O383 O 0.79358 0.47505 0.82623
 O384 O 0.83302 0.52232 0.79276
 Cu385 Cu 0.84569 0.49578 0.84192
 Cu386 Cu 0.81052 0.49868 0.80637
 C387 C 0.85444 0.52895 0.80203
 C388 C 0.80164 0.46602 0.84679
 C389 C 0.85053 0.46362 0.80100
 C390 C 0.80619 0.53095 0.84755
 O391 O 0.17554 0.47800 0.14676
 O392 O 0.13758 0.52744 0.17683
 O393 O 0.17202 0.52618 0.14165
 O394 O 0.14062 0.47907 0.18132
 O395 O 0.17028 0.48434 0.21023
 O396 O 0.20246 0.53145 0.16976
 O397 O 0.16784 0.53295 0.20508
 O398 O 0.20593 0.48292 0.17500
 Cu399 Cu 0.15343 0.50218 0.15885
 Cu400 Cu 0.18970 0.50831 0.19291
 C401 C 0.19738 0.47220 0.15549
 C402 C 0.14606 0.53863 0.19608
 C403 C 0.19264 0.53677 0.14866
 C404 C 0.14977 0.47383 0.20265
 O405 O 0.82439 0.51899 0.13998
 O406 O 0.85515 0.47048 0.17837
 O407 O 0.82143 0.47050 0.14278
 O408 O 0.85788 0.51891 0.17610
 O409 O 0.82638 0.52313 0.20339
 O410 O 0.79020 0.47344 0.17053
 O411 O 0.82469 0.47448 0.20682
 O412 O 0.79280 0.52206 0.16730
 Cu413 Cu 0.84280 0.49441 0.15653
 Cu414 Cu 0.80534 0.49848 0.18982
 C415 C 0.80323 0.52862 0.14679
 C416 C 0.84555 0.46459 0.19940
 C417 C 0.79947 0.46386 0.15074
 C418 C 0.84857 0.52919 0.19549
 O419 O 0.17312 0.51718 0.86034
 O420 O 0.14125 0.46615 0.82645
 O421 O 0.17596 0.46892 0.86167
 O422 O 0.13969 0.51489 0.82511
 O423 O 0.17041 0.51592 0.79669
 O424 O 0.20671 0.46901 0.83328
 O425 O 0.17159 0.46691 0.79767
 O426 O 0.20428 0.51788 0.83237
 Cu427 Cu 0.15439 0.49150 0.84614
 Cu428 Cu 0.19135 0.49230 0.81210
 C429 C 0.19411 0.52629 0.85230
 C430 C 0.15054 0.45810 0.80604
 C431 C 0.19782 0.46159 0.85417
 C432 C 0.14889 0.52358 0.80486
 C433 C 0.26058 0.40879 0.09368
 C434 C 0.28240 0.42055 0.08344
 C435 C 0.29585 0.40933 0.06381
 C436 C 0.28789 0.38606 0.05434
 C437 C 0.26682 0.37373 0.06516
 C438 C 0.25323 0.38502 0.08469
 C439 C 0.24421 0.42246 0.11181
 C440 C 0.21750 0.42317 0.10839
 C441 C 0.20220 0.43861 0.12327
 C442 C 0.21322 0.45354 0.14206
 C443 C 0.23977 0.45188 0.14635
 C444 C 0.25514 0.43659 0.13126
 H445 H 0.31194 0.41916 0.05542
 H446 H 0.26037 0.35583 0.05787
 H447 H 0.18179 0.43941 0.11955
 H448 H 0.24881 0.46318 0.16068
 H449 H 0.23658 0.37549 0.09234
 H450 H 0.20855 0.41272 0.09339
 H451 H 0.28829 0.43901 0.08972
 H452 H 0.27567 0.43623 0.13442
 C453 C 0.75157 0.59635 0.07879
 C454 C 0.72537 0.59249 0.07362
 C455 C 0.71334 0.60588 0.05442
 C456 C 0.72729 0.62338 0.04021
 C457 C 0.75313 0.62793 0.04588
 C458 C 0.76514 0.61464 0.06507
 C459 C 0.76519 0.58017 0.09710
 C460 C 0.78977 0.57095 0.09147
 C461 C 0.80225 0.55465 0.10786
 C462 C 0.79046 0.54713 0.13031
 C463 C 0.76605 0.55668 0.13621
 C464 C 0.75351 0.57300 0.11974
 H465 H 0.69344 0.60197 0.05003
 H466 H 0.76416 0.64133 0.03499
 H467 H 0.82100 0.54761 0.10269
 H468 H 0.75646 0.55125 0.15337
 H469 H 0.78520 0.61832 0.06885
 H470 H 0.79912 0.57575 0.07401
 H471 H 0.71449 0.57834 0.08365
 H472 H 0.73468 0.57998 0.12468
 C473 C 0.73915 0.40498 0.91211
 C474 C 0.71946 0.41744 0.92508
 C475 C 0.70687 0.40564 0.94504
 C476 C 0.71347 0.38109 0.95199
 C477 C 0.73241 0.36826 0.93845
 C478 C 0.74519 0.38013 0.91870
 C479 C 0.75493 0.41866 0.89345
 C480 C 0.74350 0.43379 0.87504
 C481 C 0.75872 0.44835 0.85895
 C482 C 0.78557 0.44836 0.86136
 C483 C 0.79696 0.43272 0.87934
 C484 C 0.78181 0.41789 0.89509
 H485 H 0.69248 0.41587 0.95550
 H486 H 0.73791 0.34939 0.94378
 H487 H 0.74945 0.46035 0.84533
 H488 H 0.81761 0.43232 0.88158
 H489 H 0.76024 0.37011 0.90894
 H490 H 0.72280 0.43461 0.87338
 H491 H 0.71468 0.43671 0.92057
 H492 H 0.79111 0.40660 0.90927
 C493 C 0.24496 0.60125 0.91303
 C494 C 0.27092 0.59752 0.91910
 C495 C 0.28261 0.61191 0.93773
 C496 C 0.26862 0.63039 0.95050
 C497 C 0.24308 0.63497 0.94368
 C498 C 0.23140 0.62064 0.92502
 C499 C 0.23145 0.58348 0.89614
 C500 C 0.24346 0.57388 0.87463
 C501 C 0.23121 0.55566 0.85999
 C502 C 0.20676 0.54659 0.86668
 C503 C 0.19461 0.55660 0.88790
 C504 C 0.20678 0.57478 0.90243
 H505 H 0.30220 0.60781 0.94308
 H506 H 0.23195 0.64903 0.95346
 H507 H 0.24105 0.54837 0.84371
 H508 H 0.17578 0.55006 0.89360
 H509 H 0.21149 0.62421 0.92050
 H510 H 0.26240 0.58035 0.86921
 H511 H 0.28179 0.58255 0.91047
 H512 H 0.19717 0.58140 0.91911
 C513 C 0.08565 0.24605 0.39207
 C514 C 0.07990 0.27143 0.39661
 C515 C 0.06057 0.28349 0.38307
 C516 C 0.04687 0.27049 0.36458
 C517 C 0.05341 0.24552 0.35922
 C518 C 0.07266 0.23343 0.37279
 C519 C 0.10336 0.23223 0.40888
 C520 C 0.09662 0.20824 0.41773
 C521 C 0.11204 0.19586 0.43512
 C522 C 0.13466 0.20712 0.44401
 C523 C 0.14179 0.23087 0.43470
 C524 C 0.12623 0.24335 0.41739
 H525 H 0.05542 0.30259 0.38787
 H526 H 0.04289 0.23512 0.34517
 H527 H 0.10600 0.17758 0.44187
 H528 H 0.15912 0.24003 0.44117
 H529 H 0.07689 0.21396 0.36870
 H530 H 0.07892 0.19934 0.41184
 H531 H 0.08932 0.28155 0.41156
 H532 H 0.13198 0.26176 0.41077
 C533 C 0.09430 0.74798 0.60530
 C534 C 0.08433 0.75899 0.62714
 C535 C 0.06444 0.74734 0.64034
 C536 C 0.05444 0.72435 0.63215
 C537 C 0.06533 0.71249 0.61133
 C538 C 0.08517 0.72420 0.59800
 C539 C 0.11175 0.76252 0.58869
 C540 C 0.10684 0.78806 0.58423
 C541 C 0.12119 0.80146 0.56668
 C542 C 0.14087 0.78970 0.55311
 C543 C 0.14652 0.76439 0.55816
 C544 C 0.13200 0.75087 0.57573
 H545 H 0.05611 0.75673 0.65636
 H546 H 0.05757 0.69484 0.60467
 H547 H 0.11637 0.82095 0.56331
 H548 H 0.16159 0.75483 0.54798
 H549 H 0.09224 0.71537 0.58113
 H550 H 0.09114 0.79751 0.59354
 H551 H 0.09123 0.77710 0.63345
 H552 H 0.13632 0.73124 0.57890
 C553 C 0.90593 0.73455 0.41021
 C554 C 0.92124 0.71647 0.42215
 C555 C 0.94133 0.70489 0.40925
 C556 C 0.94607 0.71088 0.38413
 C557 C 0.92988 0.72781 0.37176
 C558 C 0.91000 0.73963 0.38472
 C559 C 0.88803 0.75015 0.42505
 C560 C 0.88932 0.77644 0.42314
 C561 C 0.87499 0.79156 0.43918
 C562 C 0.85877 0.78074 0.45723
 C563 C 0.85653 0.75444 0.45842
 C564 C 0.87127 0.73926 0.44262
 H565 H 0.95388 0.69208 0.41912
 H566 H 0.93351 0.73286 0.35244
 H567 H 0.87701 0.81178 0.43780
 H568 H 0.84423 0.74563 0.47224
 H569 H 0.89840 0.75345 0.37511
 H570 H 0.90232 0.78532 0.40997
 H571 H 0.91870 0.71245 0.44186
 H572 H 0.86996 0.71902 0.44440
 C573 C 0.91259 0.26487 0.58382
 C574 C 0.91956 0.25914 0.60854
 C575 C 0.93961 0.27208 0.62016
 C576 C 0.95306 0.29095 0.60726
 C577 C 0.94564 0.29728 0.58286
 C578 C 0.92540 0.28449 0.57130
 C579 C 0.89378 0.24892 0.57038
 C580 C 0.87476 0.25958 0.55510
 C581 C 0.85844 0.24421 0.54099
 C582 C 0.86119 0.21795 0.54160
 C583 C 0.87984 0.20735 0.55731
 C584 C 0.89583 0.22265 0.57164
 H585 H 0.94531 0.26673 0.63888
 H586 H 0.95604 0.31159 0.57254
 H587 H 0.84429 0.25289 0.52897
 H588 H 0.88238 0.18718 0.55820
 H589 H 0.92063 0.28907 0.55213
 H590 H 0.87274 0.27979 0.55388
 H591 H 0.90992 0.24418 0.61864
 H592 H 0.91050 0.21393 0.58303
 C593 C 0.40237 0.08644 0.25611
 C594 C 0.37705 0.08078 0.24896
 C595 C 0.36401 0.06049 0.25975
 C596 C 0.37612 0.04556 0.27779
 C597 C 0.40097 0.05173 0.28572
 C598 C 0.41395 0.07214 0.27509
 C599 C 0.41770 0.10515 0.24191
 C600 C 0.43424 0.12204 0.25412
 C601 C 0.45082 0.13753 0.24031
 C602 C 0.45141 0.13600 0.21410
 C603 C 0.43423 0.11976 0.20195
 C604 C 0.41746 0.10462 0.21568
 H605 H 0.34487 0.05581 0.25337
 H606 H 0.41060 0.04018 0.29949
 H607 H 0.46394 0.14984 0.25012
 H608 H 0.43420 0.11827 0.18176
 H609 H 0.43355 0.07586 0.28070
 H610 H 0.43470 0.12286 0.27434
 H611 H 0.36766 0.09159 0.23447
 H612 H 0.40516 0.09160 0.20577
 C613 C 0.59057 0.08509 0.74598
 C614 C 0.57906 0.06518 0.73302
 C615 C 0.59414 0.04713 0.72126
 C616 C 0.62100 0.04853 0.72246
 C617 C 0.63261 0.06903 0.73449
 C618 C 0.61744 0.08739 0.74601
 C619 C 0.57449 0.10153 0.76165
 C620 C 0.57413 0.12765 0.75814
 C621 C 0.55781 0.14266 0.77262
 C622 C 0.54216 0.13173 0.79116
 C623 C 0.54311 0.10564 0.79493
 C624 C 0.55894 0.09068 0.78018
 H625 H 0.58487 0.03135 0.71220
 H626 H 0.65332 0.07018 0.73591
 H627 H 0.55748 0.16275 0.76942
 H628 H 0.53120 0.09667 0.80899
 H629 H 0.62662 0.10254 0.75613
 H630 H 0.58604 0.13630 0.74389
 H631 H 0.55836 0.06312 0.73280
 H632 H 0.55909 0.07056 0.78325
 C633 C 0.39708 0.91321 0.74730
 C634 C 0.37539 0.92435 0.75838
 C635 C 0.36241 0.94385 0.74633
 C636 C 0.37061 0.95234 0.72282
 C637 C 0.39135 0.94041 0.71107
 C638 C 0.40446 0.92098 0.72318
 C639 C 0.41341 0.89560 0.76189
 C640 C 0.41828 0.90045 0.78724
 C641 C 0.43525 0.88551 0.80075
 C642 C 0.44793 0.86526 0.78934
 C643 C 0.44260 0.85986 0.76416
 C644 C 0.42556 0.87495 0.75053
 H645 H 0.34650 0.95292 0.75571
 H646 H 0.39815 0.94699 0.69306
 H647 H 0.43886 0.89022 0.82012
 H648 H 0.45205 0.84438 0.75484
 H649 H 0.42124 0.91304 0.71425
 H650 H 0.40969 0.91644 0.79649
 H651 H 0.36894 0.91853 0.77676
 H652 H 0.42206 0.87062 0.73107
 C653 C 0.60105 0.90825 0.25112
 C654 C 0.62028 0.92349 0.24044
 C655 C 0.63212 0.94228 0.25451
 C656 C 0.62520 0.94595 0.27955
 C657 C 0.60716 0.92990 0.29073
 C658 C 0.59519 0.91115 0.27664
 C659 C 0.58543 0.89125 0.23521
 C660 C 0.57745 0.89921 0.21140
 C661 C 0.56079 0.88447 0.19720
 C662 C 0.55163 0.86143 0.20649
 C663 C 0.56016 0.85307 0.22999
 C664 C 0.57688 0.86784 0.24421
 H665 H 0.64589 0.95469 0.24559
 H666 H 0.60133 0.93279 0.30995
 H667 H 0.55457 0.89148 0.17920
 H668 H 0.55354 0.83535 0.23763
 H669 H 0.58027 0.89995 0.28535
 H670 H 0.58330 0.91732 0.20408
 H671 H 0.62551 0.92146 0.22095
 H672 H 0.58290 0.86109 0.26238
 C673 C 0.40953 0.26063 0.92564
 C674 C 0.38392 0.26858 0.92425
 C675 C 0.37312 0.28260 0.94378
 C676 C 0.38792 0.28928 0.96485
 C677 C 0.41400 0.28223 0.96523
 C678 C 0.42458 0.26807 0.94597
 C679 C 0.42043 0.24303 0.90716
 C680 C 0.43125 0.22045 0.91554
 C681 C 0.44398 0.20462 0.89894
 C682 C 0.44649 0.21119 0.87360
 C683 C 0.43482 0.23341 0.86500
 C684 C 0.42168 0.24913 0.88166
 H685 H 0.35278 0.28669 0.94310
 H686 H 0.42629 0.28744 0.98069
 H687 H 0.45271 0.18768 0.90622
 H688 H 0.43640 0.23893 0.84557
 H689 H 0.44449 0.26241 0.94721
 H690 H 0.43031 0.21532 0.93513
 H691 H 0.37195 0.26279 0.90876
 H692 H 0.41345 0.26651 0.87488
 C693 C 0.60579 0.75517 0.91739
 C694 C 0.61973 0.76872 0.93535
 C695 C 0.63323 0.75629 0.95409
 C696 C 0.63392 0.72987 0.95506
 C697 C 0.62120 0.71625 0.93620
 C698 C 0.60724 0.72877 0.91761
 C699 C 0.58824 0.76862 0.90001
 C700 C 0.58448 0.76053 0.87524
 C701 C 0.56721 0.77311 0.85952
 C702 C 0.55345 0.79404 0.86826
 C703 C 0.55738 0.80212 0.89293
 C704 C 0.57438 0.78953 0.90859
 H705 H 0.64308 0.76742 0.96807
 H706 H 0.62053 0.69592 0.93679
 H707 H 0.56458 0.76643 0.84059
 H708 H 0.54694 0.81799 0.90041
 H709 H 0.59646 0.71774 0.90426
 H710 H 0.59495 0.74458 0.86800
 H711 H 0.61969 0.78906 0.93534
 H712 H 0.57619 0.79592 0.92770
 C713 C 0.40460 0.74023 0.07900
 C714 C 0.41907 0.72460 0.06337
 C715 C 0.40736 0.71184 0.04368
 C716 C 0.38071 0.71368 0.03971
 C717 C 0.36616 0.72896 0.05588
 C718 C 0.37806 0.74230 0.07519
 C719 C 0.41774 0.75555 0.09807
 C720 C 0.43294 0.74401 0.11637
 C721 C 0.44770 0.75856 0.13267
 C722 C 0.44799 0.78488 0.13047
 C723 C 0.43225 0.79642 0.11254
 C724 C 0.41701 0.78186 0.09664
 H725 H 0.41917 0.70040 0.03152
 H726 H 0.34582 0.73168 0.05275
 H727 H 0.45979 0.74919 0.14621
 H728 H 0.43211 0.81667 0.11049
 H729 H 0.36667 0.75454 0.08692
 H730 H 0.43379 0.72371 0.11767
 H731 H 0.43963 0.72301 0.06587
 H732 H 0.40554 0.79107 0.08248
 C733 C 0.60791 0.24197 0.08080
 C734 C 0.62264 0.22852 0.06335
 C735 C 0.63510 0.24091 0.04379
 C736 C 0.63390 0.26723 0.04147
 C737 C 0.62016 0.28082 0.05968
 C738 C 0.60731 0.26833 0.07908
 C739 C 0.59155 0.22834 0.09923
 C740 C 0.58722 0.23784 0.12341
 C741 C 0.57048 0.22547 0.13992
 C742 C 0.55784 0.20332 0.13259
 C743 C 0.56260 0.19364 0.10862
 C744 C 0.57909 0.20601 0.09216
 H745 H 0.64571 0.22983 0.03032
 H746 H 0.61789 0.30097 0.05800
 H747 H 0.56723 0.23339 0.15828
 H748 H 0.55306 0.17672 0.10225
 H749 H 0.59578 0.27924 0.09191
 H750 H 0.59670 0.25487 0.12953
 H751 H 0.62408 0.20826 0.06446
 H752 H 0.58141 0.19842 0.07354
 C753 C 0.26237 0.08712 0.59134
 C754 C 0.25507 0.07868 0.61525
 C755 C 0.26822 0.05895 0.62677
 C756 C 0.28884 0.04731 0.61456
 C757 C 0.29668 0.05616 0.59105
 C758 C 0.28368 0.07604 0.57961
 C759 C 0.24646 0.10571 0.57768
 C760 C 0.21964 0.10302 0.57726
 C761 C 0.20465 0.11857 0.56217
 C762 C 0.21610 0.13733 0.54734
 C763 C 0.24283 0.14081 0.54863
 C764 C 0.25789 0.12502 0.56353
 H765 H 0.26174 0.05212 0.64480
 H766 H 0.31235 0.04714 0.58125
 H767 H 0.18410 0.11545 0.56162
 H768 H 0.25220 0.15506 0.53736
 H769 H 0.28950 0.08191 0.56105
 H770 H 0.21032 0.08815 0.58775
 H771 H 0.23880 0.08696 0.62476
 H772 H 0.27851 0.12759 0.56365
 C773 C 0.73486 0.07572 0.41354
 C774 C 0.72513 0.05590 0.42800
 C775 C 0.71141 0.03641 0.41689
 C776 C 0.70716 0.03601 0.39084
 C777 C 0.71612 0.05659 0.37654
 C778 C 0.72963 0.07635 0.38784
 C779 C 0.75198 0.09450 0.42524
 C780 C 0.77316 0.08629 0.43917
 C781 C 0.78873 0.10348 0.45165
 C782 C 0.78327 0.12931 0.45081
 C783 C 0.76239 0.13763 0.43637
 C784 C 0.74700 0.12035 0.42346
 H785 H 0.70433 0.02142 0.42878
 H786 H 0.71431 0.05669 0.35639
 H787 H 0.80460 0.09642 0.46264
 H788 H 0.75774 0.15742 0.43536
 H789 H 0.73722 0.09139 0.37631
 H790 H 0.77749 0.06644 0.44058
 H791 H 0.72862 0.05526 0.44795
 H792 H 0.73074 0.12704 0.41280
 C793 C 0.75226 0.92156 0.60365
 C794 C 0.72537 0.92341 0.60191
 C795 C 0.71227 0.94290 0.61389
 C796 C 0.72583 0.96082 0.62783
 C797 C 0.75249 0.95856 0.63036
 C798 C 0.76557 0.93903 0.61853
 C799 C 0.76655 0.90272 0.58861
 C800 C 0.78969 0.90947 0.57678
 C801 C 0.80246 0.89251 0.56130
 C802 C 0.79239 0.86837 0.55713
 C803 C 0.76953 0.86136 0.56934
 C804 C 0.75675 0.87836 0.58492
 H805 H 0.69171 0.94459 0.61153
 H806 H 0.76322 0.97230 0.64101
 H807 H 0.81996 0.89858 0.55212
 H808 H 0.76130 0.84288 0.56657
 H809 H 0.78620 0.93790 0.62063
 H810 H 0.79756 0.92820 0.57881
 H811 H 0.71457 0.91049 0.59036
 H812 H 0.73913 0.87248 0.59399
 C813 C 0.24241 0.91319 0.38782
 C814 C 0.26933 0.91399 0.38574
 C815 C 0.28139 0.93303 0.37189
 C816 C 0.26676 0.95183 0.36009
 C817 C 0.23983 0.94997 0.36097
 C818 C 0.22785 0.93070 0.37426
 C819 C 0.22954 0.89614 0.40602
 C820 C 0.20855 0.90498 0.41999
 C821 C 0.19692 0.88991 0.43804
 C822 C 0.20608 0.86562 0.44293
 C823 C 0.22699 0.85656 0.42897
 C824 C 0.23859 0.87168 0.41064
 H825 H 0.30215 0.93421 0.37221
 H826 H 0.22796 0.96384 0.35172
 H827 H 0.18101 0.89760 0.44858
 H828 H 0.23445 0.83789 0.43230
 H829 H 0.20708 0.93015 0.37475
 H830 H 0.20148 0.92393 0.41752
 H831 H 0.28113 0.90094 0.39612
 H832 H 0.25463 0.86425 0.40012
 C833 C 0.08672 0.39184 0.74709
 C834 C 0.07284 0.37161 0.75744
 C835 C 0.05314 0.36009 0.74395
 C836 C 0.04715 0.36832 0.71976
 C837 C 0.06173 0.38765 0.70887
 C838 C 0.08140 0.39928 0.72239
 C839 C 0.10477 0.40666 0.76279
 C840 C 0.12761 0.41669 0.75279
 C841 C 0.14312 0.43266 0.76711
 C842 C 0.13601 0.43902 0.79166
 C843 C 0.11365 0.42829 0.80187
 C844 C 0.09824 0.41234 0.78764
 H845 H 0.04195 0.34529 0.75268
 H846 H 0.05707 0.39450 0.69035
 H847 H 0.16024 0.44061 0.75871
 H848 H 0.10759 0.43278 0.82071
 H849 H 0.09147 0.41500 0.71399
 H850 H 0.13328 0.41247 0.73378
 H851 H 0.07670 0.36520 0.77627
 H852 H 0.08061 0.40530 0.79582
 C853 C 0.08051 0.61077 0.24580
 C854 C 0.06175 0.62409 0.23246
 C855 C 0.04217 0.63666 0.24500
 C856 C 0.04115 0.63692 0.27129
 C857 C 0.06112 0.62527 0.28468
 C858 C 0.08053 0.61225 0.27206
 C859 C 0.09817 0.59345 0.23242
 C860 C 0.12359 0.58977 0.24044
 C861 C 0.13937 0.57220 0.22849
 C862 C 0.13007 0.55805 0.20825
 C863 C 0.10483 0.56204 0.20005
 C864 C 0.08908 0.57939 0.21203
 H865 H 0.02733 0.64573 0.23408
 H866 H 0.06058 0.62434 0.30490
 H867 H 0.15878 0.56960 0.23520
 H868 H 0.09697 0.55135 0.18464
 H869 H 0.09453 0.60199 0.28293
 H870 H 0.13125 0.60041 0.25596
 H871 H 0.06160 0.62400 0.21223
 H872 H 0.06944 0.58122 0.20571
 C873 C 0.91193 0.40580 0.26206
 C874 C 0.91638 0.37990 0.25993
 C875 C 0.93660 0.36863 0.27292
 C876 C 0.95302 0.38309 0.28812
 C877 C 0.94836 0.40907 0.29017
 C878 C 0.92781 0.42019 0.27763
 C879 C 0.89234 0.41833 0.24645
 C880 C 0.89261 0.41504 0.22043
 C881 C 0.87660 0.42942 0.20516
 C882 C 0.85965 0.44697 0.21567
 C883 C 0.85835 0.44926 0.24180
 C884 C 0.87480 0.43526 0.25705
 H885 H 0.94022 0.34882 0.26995
 H886 H 0.96065 0.42082 0.30156
 H887 H 0.87796 0.42730 0.18507
 H888 H 0.84559 0.46280 0.25034
 H889 H 0.92497 0.44027 0.27926
 H890 H 0.90612 0.40225 0.21183
 H891 H 0.90453 0.36851 0.24777
 H892 H 0.87428 0.43806 0.27709
 C893 C 0.92019 0.60246 0.75368
 C894 C 0.92044 0.60598 0.72760
 C895 C 0.93967 0.62056 0.71624
 C896 C 0.95917 0.63164 0.73074
 C897 C 0.95779 0.62934 0.75691
 C898 C 0.93838 0.61532 0.76821
 C899 C 0.90279 0.58380 0.76573
 C900 C 0.91205 0.56879 0.78538
 C901 C 0.89627 0.55115 0.79702
 C902 C 0.87081 0.54772 0.78917
 C903 C 0.86151 0.56234 0.76923
 C904 C 0.87735 0.58028 0.75764
 H905 H 0.94046 0.62140 0.69602
 H906 H 0.97219 0.63803 0.76869
 H907 H 0.90417 0.53999 0.81208
 H908 H 0.84195 0.56011 0.76279
 H909 H 0.93823 0.61377 0.78839
 H910 H 0.93174 0.57038 0.79162
 H911 H 0.90679 0.59622 0.71586
 H912 H 0.86962 0.59157 0.74260
 C913 C 0.75242 0.60215 0.91000
 C914 C 0.72626 0.59774 0.91501
 C915 C 0.71385 0.61059 0.93434
 C916 C 0.72741 0.62803 0.94884
 C917 C 0.75303 0.63352 0.94300
 C918 C 0.76540 0.62083 0.92364
 C919 C 0.76679 0.58556 0.89265
 C920 C 0.79121 0.57674 0.89943
 C921 C 0.80413 0.55950 0.88445
 C922 C 0.79299 0.55058 0.86228
 C923 C 0.76885 0.55984 0.85509
 C924 C 0.75583 0.57712 0.87018
 H925 H 0.69413 0.60597 0.93887
 H926 H 0.76375 0.64688 0.95415
 H927 H 0.82269 0.55277 0.89056
 H928 H 0.75978 0.55334 0.83808
 H929 H 0.78542 0.62494 0.91995
 H930 H 0.80000 0.58248 0.91684
 H931 H 0.71581 0.58331 0.90503
 H932 H 0.73711 0.58371 0.86440
 C933 C 0.26352 0.41000 0.92350
 C934 C 0.27180 0.42535 0.94310
 C935 C 0.28589 0.41531 0.96281
 C936 C 0.29193 0.38949 0.96362
 C937 C 0.28430 0.37433 0.94327
 C938 C 0.27042 0.38458 0.92329
 C939 C 0.24576 0.42037 0.90474
 C940 C 0.22218 0.43013 0.91270
 C941 C 0.20609 0.44235 0.89587
 C942 C 0.21344 0.44546 0.87076
 C943 C 0.23672 0.43488 0.86258
 C944 C 0.25270 0.42221 0.87946
 H945 H 0.29185 0.42784 0.97765
 H946 H 0.28746 0.35424 0.94351
 H947 H 0.18835 0.45029 0.90283
 H948 H 0.24287 0.43696 0.84334
 H949 H 0.26386 0.37240 0.90841
 H950 H 0.21650 0.42876 0.93215
 H951 H 0.26679 0.44509 0.94344
 H952 H 0.27089 0.41479 0.87305
 C953 C 0.24290 0.60548 0.07991
 C954 C 0.26980 0.60580 0.07780
 C955 C 0.28184 0.61925 0.05852
 C956 C 0.26723 0.63273 0.04089
 C957 C 0.24035 0.63304 0.04369
 C958 C 0.22841 0.61989 0.06307
 C959 C 0.22979 0.58868 0.09821
 C960 C 0.20743 0.57569 0.09117
 C961 C 0.19531 0.55921 0.10771
 C962 C 0.20530 0.55508 0.13174
 C963 C 0.22761 0.56810 0.13894
 C964 C 0.23973 0.58475 0.12233
 H965 H 0.30245 0.61763 0.05643
 H966 H 0.22846 0.64338 0.03066
 H967 H 0.17828 0.54939 0.10146
 H968 H 0.23576 0.56534 0.15734
 H969 H 0.20769 0.62056 0.06451
 H970 H 0.19954 0.57777 0.07258
 H971 H 0.28151 0.59456 0.09020
 H972 H 0.25682 0.59460 0.12839
 C973 C 0.73994 0.40208 0.08410
 C974 C 0.71918 0.41407 0.07234
 C975 C 0.70684 0.40274 0.05209
 C976 C 0.71481 0.37914 0.04357
 C977 C 0.73494 0.36674 0.05576
 C978 C 0.74742 0.37813 0.07587
 C979 C 0.75514 0.41554 0.10328
 C980 C 0.74303 0.42945 0.12221
 C981 C 0.75754 0.44422 0.13858
 C982 C 0.78435 0.44561 0.13604
 C983 C 0.79647 0.43098 0.11768
 C984 C 0.78203 0.41601 0.10156
 H985 H 0.69149 0.41263 0.04267
 H986 H 0.74144 0.34860 0.04921
 H987 H 0.74769 0.45537 0.15252
 H988 H 0.81711 0.43162 0.11530
 H989 H 0.76329 0.36846 0.08468
 H990 H 0.72232 0.42925 0.12402
 H991 H 0.71328 0.43268 0.07806
 H992 H 0.79186 0.40569 0.08699
 C993 C 0.92204 0.75460 0.60856
 C994 C 0.94138 0.76847 0.62057
 C995 C 0.96106 0.75635 0.63334
 C996 C 0.96164 0.72997 0.63520
 C997 C 0.94142 0.71611 0.62444
 C998 C 0.92188 0.72830 0.61120
 C999 C 0.90354 0.76754 0.59177
 C1000 C 0.87787 0.75954 0.58975
 C1001 C 0.86106 0.77146 0.57311
 C1002 C 0.86961 0.79166 0.55826
 C1003 C 0.89518 0.79973 0.56049
 C1004 C 0.91192 0.78776 0.57688
 H1005 H 0.97605 0.76768 0.64172
 H1006 H 0.94164 0.69576 0.62476
 H1007 H 0.84145 0.76482 0.57180
 H1008 H 0.90250 0.81505 0.54917
 H1009 H 0.90747 0.71702 0.60192
 H1010 H 0.87075 0.74414 0.60108
 H1011 H 0.94169 0.78879 0.61957
 H1012 H 0.93169 0.79405 0.57740
 C1013 C 0.91459 0.24313 0.38992
 C1014 C 0.93167 0.22981 0.37457
 C1015 C 0.95129 0.24228 0.36177
 C1016 C 0.95407 0.26855 0.36342
 C1017 C 0.93618 0.28202 0.37791
 C1018 C 0.91668 0.26946 0.39097
 C1019 C 0.89624 0.22944 0.40641
 C1020 C 0.87170 0.23912 0.41160
 C1021 C 0.85543 0.22700 0.42868
 C1022 C 0.86336 0.20494 0.44090
 C1023 C 0.88758 0.19493 0.43517
 C1024 C 0.90382 0.20705 0.41823
 H1025 H 0.96454 0.23128 0.35066
 H1026 H 0.93829 0.30208 0.38059
 H1027 H 0.83686 0.23516 0.43266
 H1028 H 0.89437 0.17804 0.44430
 H1029 H 0.90417 0.28026 0.40300
 H1030 H 0.86517 0.25618 0.40261
 H1031 H 0.93027 0.20958 0.37289
 H1032 H 0.92274 0.19929 0.41510
 C1033 C 0.08707 0.26369 0.58543
 C1034 C 0.08332 0.26274 0.61138
 C1035 C 0.06316 0.27604 0.62247
 C1036 C 0.04606 0.29023 0.60775
 C1037 C 0.05007 0.29108 0.58170
 C1038 C 0.07057 0.27832 0.57075
 C1039 C 0.10664 0.24781 0.57323
 C1040 C 0.10637 0.22171 0.57702
 C1041 C 0.12233 0.20615 0.56288
 C1042 C 0.13925 0.21648 0.54513
 C1043 C 0.14052 0.24271 0.54234
 C1044 C 0.12410 0.25823 0.55606
 H1045 H 0.06010 0.27403 0.64241
 H1046 H 0.03729 0.30172 0.56976
 H1047 H 0.12100 0.18599 0.56538
 H1048 H 0.15325 0.25112 0.52863
 H1049 H 0.07294 0.27903 0.55064
 H1050 H 0.09289 0.21328 0.59002
 H1051 H 0.09567 0.25130 0.62298
 H1052 H 0.12457 0.27833 0.55287
 C1053 C 0.07836 0.74772 0.40364
 C1054 C 0.06211 0.76001 0.38660
 C1055 C 0.04266 0.74682 0.37439
 C1056 C 0.03930 0.72108 0.37876
 C1057 C 0.05613 0.70842 0.39479
 C1058 C 0.07557 0.72164 0.40714
 C1059 C 0.09672 0.76239 0.41906
 C1060 C 0.08935 0.78573 0.42896
 C1061 C 0.10585 0.79916 0.44452
 C1062 C 0.13013 0.78959 0.45067
 C1063 C 0.13771 0.76639 0.44055
 C1064 C 0.12115 0.75292 0.42492
 H1065 H 0.02970 0.75682 0.36210
 H1066 H 0.05353 0.68856 0.39851
 H1067 H 0.09935 0.81692 0.45205
 H1068 H 0.15633 0.75854 0.44489
 H1069 H 0.08757 0.71168 0.42032
 H1070 H 0.07049 0.79335 0.42523
 H1071 H 0.06405 0.77998 0.38316
 H1072 H 0.12745 0.73509 0.41741
 C1073 C 0.60689 0.92054 0.75654
 C1074 C 0.60934 0.92016 0.73034
 C1075 C 0.62288 0.93918 0.71780
 C1076 C 0.63403 0.95915 0.73122
 C1077 C 0.63278 0.95860 0.75750
 C1078 C 0.61978 0.93939 0.76996
 C1079 C 0.58918 0.90296 0.76977
 C1080 C 0.57441 0.91161 0.79003
 C1081 C 0.55699 0.89578 0.80210
 C1082 C 0.55356 0.87091 0.79408
 C1083 C 0.56827 0.86211 0.77386
 C1084 C 0.58597 0.87795 0.76187
 H1085 H 0.62273 0.93936 0.69756
 H1086 H 0.64145 0.97347 0.76844
 H1087 H 0.54580 0.90324 0.81745
 H1088 H 0.56610 0.84298 0.76730
 H1089 H 0.61905 0.93984 0.79018
 H1090 H 0.57577 0.93091 0.79624
 H1091 H 0.59945 0.90608 0.71937
 H1092 H 0.59715 0.87061 0.74647
 C1093 C 0.39811 0.91610 0.24416
 C1094 C 0.38648 0.93581 0.23087
 C1095 C 0.37397 0.95514 0.24338
 C1096 C 0.37168 0.95490 0.26957
 C1097 C 0.38181 0.93434 0.28287
 C1098 C 0.39503 0.91520 0.27030
 C1099 C 0.41506 0.89805 0.23077
 C1100 C 0.41692 0.87262 0.23790
 C1101 C 0.43343 0.85624 0.22507
 C1102 C 0.44814 0.86500 0.20477
 C1103 C 0.44624 0.89036 0.19780
 C1104 C 0.43018 0.90664 0.21071
 H1105 H 0.36604 0.97047 0.23252
 H1106 H 0.38098 0.93388 0.30310
 H1107 H 0.43459 0.83679 0.23092
 H1108 H 0.45765 0.89790 0.18258
 H1109 H 0.40394 0.90045 0.28117
 H1110 H 0.40549 0.86534 0.25322
 H1111 H 0.38763 0.93672 0.21068
 H1112 H 0.43005 0.92621 0.20516
 C1113 C 0.59440 0.07579 0.25817
 C1114 C 0.61985 0.07785 0.26648
 C1115 C 0.63109 0.05819 0.28008
 C1116 C 0.61688 0.03632 0.28590
 C1117 C 0.59093 0.03523 0.27852
 C1118 C 0.57991 0.05462 0.26485
 C1119 C 0.58295 0.09460 0.24125
 C1120 C 0.57168 0.08656 0.21885
 C1121 C 0.55797 0.10330 0.20399
 C1122 C 0.55497 0.12845 0.21134
 C1123 C 0.56726 0.13680 0.23323
 C1124 C 0.58131 0.11999 0.24801
 H1125 H 0.65132 0.05944 0.28454
 H1126 H 0.57911 0.01907 0.28308
 H1127 H 0.54886 0.09625 0.18722
 H1128 H 0.56536 0.15609 0.23933
 H1129 H 0.56010 0.05287 0.25898
 H1130 H 0.57294 0.06707 0.21319
 H1131 H 0.63136 0.09403 0.26135
 H1132 H 0.58987 0.12652 0.26526
 C1133 C 0.39042 0.08228 0.75535
 C1134 C 0.37502 0.06422 0.76743
 C1135 C 0.36366 0.04475 0.75396
 C1136 C 0.36653 0.04323 0.72785
 C1137 C 0.38076 0.06212 0.71556
 C1138 C 0.39264 0.08135 0.72915
 C1139 C 0.40596 0.10036 0.77028
 C1140 C 0.41150 0.12473 0.76145
 C1141 C 0.42795 0.14066 0.77486
 C1142 C 0.43901 0.13258 0.79741
 C1143 C 0.43279 0.10856 0.80655
 C1144 C 0.41667 0.09265 0.79313
 H1145 H 0.35261 0.03072 0.76403
 H1146 H 0.38422 0.06108 0.69561
 H1147 H 0.43235 0.15908 0.76734
 H1148 H 0.44110 0.10160 0.82375
 H1149 H 0.40470 0.09464 0.71924
 H1150 H 0.40336 0.13140 0.74408
 H1151 H 0.37224 0.06470 0.78748
 H1152 H 0.41345 0.07388 0.80030
 C1153 C 0.60631 0.74739 0.08476
 C1154 C 0.60037 0.72271 0.07736
 C1155 C 0.61394 0.71134 0.05784
 C1156 C 0.63364 0.72445 0.04553
 C1157 C 0.64060 0.74846 0.05380
 C1158 C 0.62720 0.75977 0.07337
 C1159 C 0.58907 0.76125 0.10200
 C1160 C 0.58229 0.78614 0.09638
 C1161 C 0.56451 0.79892 0.11102
 C1162 C 0.55294 0.78718 0.13174
 C1163 C 0.56010 0.76248 0.13785
 C1164 C 0.57794 0.74957 0.12302
 H1165 H 0.60818 0.69288 0.05144
 H1166 H 0.65573 0.75883 0.04441
 H1167 H 0.55950 0.81794 0.10579
 H1168 H 0.55151 0.75296 0.15371
 H1169 H 0.63251 0.77862 0.07894
 H1170 H 0.59008 0.79554 0.08006
 H1171 H 0.58425 0.71279 0.08557
 H1172 H 0.58288 0.73043 0.12786
 C1173 C 0.40506 0.25757 0.09344
 C1174 C 0.41360 0.28200 0.08766
 C1175 C 0.40183 0.29579 0.06863
 C1176 C 0.38134 0.28540 0.05523
 C1177 C 0.37183 0.26166 0.06180
 C1178 C 0.38351 0.24789 0.08087
 C1179 C 0.42026 0.24131 0.11041
 C1180 C 0.43166 0.25102 0.13216
 C1181 C 0.44809 0.23613 0.14657
 C1182 C 0.45353 0.21130 0.13940
 C1183 C 0.44150 0.20143 0.11809
 C1184 C 0.42508 0.21624 0.10378
 H1185 H 0.40953 0.31401 0.06347
 H1186 H 0.35610 0.25339 0.05145
 H1187 H 0.45702 0.24424 0.16294
 H1188 H 0.44523 0.18237 0.11206
 H1189 H 0.37628 0.22928 0.08516
 H1190 H 0.42813 0.27022 0.13783
 H1191 H 0.43032 0.28986 0.09677
 H1192 H 0.41698 0.20831 0.08692
 C1193 C 0.60399 0.24594 0.91263
 C1194 C 0.62479 0.23387 0.92428
 C1195 C 0.63836 0.24578 0.94340
 C1196 C 0.63162 0.27007 0.95097
 C1197 C 0.61180 0.28271 0.93852
 C1198 C 0.59813 0.27078 0.91946
 C1199 C 0.58679 0.23180 0.89556
 C1200 C 0.57566 0.24335 0.87454
 C1201 C 0.55748 0.23049 0.86011
 C1202 C 0.55000 0.20592 0.86654
 C1203 C 0.56174 0.19418 0.88708
 C1204 C 0.57986 0.20695 0.90140
 H1205 H 0.65354 0.23572 0.95292
 H1206 H 0.60611 0.30134 0.94442
 H1207 H 0.54881 0.24001 0.84436
 H1208 H 0.55647 0.17525 0.89254
 H1209 H 0.58202 0.28046 0.91111
 H1210 H 0.58077 0.26242 0.86947
 H1211 H 0.63001 0.21488 0.91918
 H1212 H 0.58769 0.19763 0.91769
 C1213 C 0.40527 0.73840 0.91023
 C1214 C 0.41801 0.71861 0.92240
 C1215 C 0.40604 0.70562 0.94198
 C1216 C 0.38104 0.71192 0.94934
 C1217 C 0.36786 0.73088 0.93646
 C1218 C 0.37990 0.74405 0.91709
 C1219 C 0.41932 0.75466 0.89231
 C1220 C 0.43496 0.74427 0.87360
 C1221 C 0.45009 0.75983 0.85839
 C1222 C 0.45017 0.78598 0.86198
 C1223 C 0.43395 0.79636 0.88022
 C1224 C 0.41857 0.78088 0.89510
 H1225 H 0.41657 0.69125 0.95197
 H1226 H 0.34867 0.73619 0.94215
 H1227 H 0.46249 0.75132 0.84455
 H1228 H 0.43359 0.81645 0.88336
 H1229 H 0.36966 0.75917 0.90794
 H1230 H 0.43579 0.72411 0.87105
 H1231 H 0.43768 0.71410 0.91768
 H1232 H 0.40689 0.78936 0.90956
 C1233 C 0.73649 0.90506 0.41033
 C1234 C 0.74388 0.91311 0.38630
 C1235 C 0.73101 0.93289 0.37458
 C1236 C 0.71056 0.94486 0.38669
 C1237 C 0.70248 0.93626 0.41021
 C1238 C 0.71523 0.91641 0.42188
 C1239 C 0.75249 0.88698 0.42448
 C1240 C 0.74124 0.86834 0.43964
 C1241 C 0.75646 0.85348 0.45532
 C1242 C 0.78314 0.85726 0.45631
 C1243 C 0.79442 0.87520 0.44039
 C1244 C 0.77929 0.88982 0.42460
 H1245 H 0.73760 0.93950 0.35651
 H1246 H 0.68688 0.94553 0.41988
 H1247 H 0.74725 0.83980 0.46738
 H1248 H 0.81495 0.87846 0.44064
 H1249 H 0.70935 0.91088 0.44053
 H1250 H 0.72062 0.86566 0.43977
 H1251 H 0.76009 0.90458 0.37692
 H1252 H 0.78849 0.90421 0.41338
 C1253 C 0.26491 0.91595 0.58707
 C1254 C 0.25928 0.92186 0.61207
 C1255 C 0.27223 0.94140 0.62407
 C1256 C 0.29093 0.95541 0.61125
 C1257 C 0.29714 0.94911 0.58654
 C1258 C 0.28439 0.92935 0.57459
 C1259 C 0.24894 0.89751 0.57339
 C1260 C 0.22207 0.89908 0.57471
 C1261 C 0.20671 0.88335 0.56021
 C1262 C 0.21787 0.86544 0.54433
 C1263 C 0.24473 0.86319 0.54366
 C1264 C 0.26016 0.87928 0.55790
 H1265 H 0.26700 0.94624 0.64306
 H1266 H 0.31133 0.95996 0.57632
 H1267 H 0.18606 0.88546 0.56114
 H1268 H 0.25382 0.84962 0.53148
 H1269 H 0.28885 0.92535 0.55523
 H1270 H 0.21295 0.91315 0.58629
 H1271 H 0.24441 0.91174 0.62209
 H1272 H 0.28084 0.87769 0.55664
 C1273 C 0.24661 0.08075 0.39443
 C1274 C 0.23291 0.06849 0.37538
 C1275 C 0.24446 0.04951 0.36137
 C1276 C 0.26995 0.04256 0.36601
 C1277 C 0.28402 0.05539 0.38435
 C1278 C 0.27248 0.07443 0.39837
 C1279 C 0.23338 0.09861 0.41135
 C1280 C 0.24554 0.12075 0.41939
 C1281 C 0.23335 0.13676 0.43638
 C1282 C 0.20885 0.13081 0.44579
 C1283 C 0.19662 0.10881 0.43749
 C1284 C 0.20872 0.09293 0.42046
 H1285 H 0.23328 0.03967 0.34740
 H1286 H 0.30358 0.04995 0.38847
 H1287 H 0.24326 0.15359 0.44240
 H1288 H 0.17776 0.10366 0.44437
 H1289 H 0.28341 0.08333 0.41311
 H1290 H 0.26447 0.12567 0.41255
 H1291 H 0.21306 0.07318 0.37172
 H1292 H 0.19903 0.07580 0.41493
 C1293 C 0.73850 0.09302 0.59658
 C1294 C 0.72014 0.07786 0.58461
 C1295 C 0.70902 0.05749 0.59717
 C1296 C 0.71578 0.05226 0.62198
 C1297 C 0.73315 0.06804 0.63437
 C1298 C 0.74451 0.08823 0.62174
 C1299 C 0.75333 0.11181 0.58201
 C1300 C 0.78025 0.11174 0.58310
 C1301 C 0.79465 0.12678 0.56689
 C1302 C 0.78243 0.14251 0.54952
 C1303 C 0.75550 0.14369 0.54937
 C1304 C 0.74105 0.12827 0.56533
 H1305 H 0.69583 0.04529 0.58731
 H1306 H 0.73869 0.06407 0.65348
 H1307 H 0.81539 0.12553 0.56742
 H1308 H 0.74561 0.15555 0.53605
 H1309 H 0.75857 0.09967 0.63138
 H1310 H 0.79020 0.09906 0.59559
 H1311 H 0.71544 0.08094 0.56514
 H1312 H 0.72030 0.12871 0.56422
 C1313 C 0.91244 0.59526 0.25382
 C1314 C 0.93263 0.58360 0.26662
 C1315 C 0.95102 0.59797 0.27892
 C1316 C 0.94970 0.62428 0.27848
 C1317 C 0.92892 0.63604 0.26661
 C1318 C 0.91019 0.62155 0.25451
 C1319 C 0.89543 0.57989 0.23797
 C1320 C 0.86874 0.57973 0.24150
 C1321 C 0.85325 0.56349 0.22745
 C1322 C 0.86425 0.54763 0.20937
 C1323 C 0.89089 0.54861 0.20535
 C1324 C 0.90631 0.56442 0.21963
 H1325 H 0.96701 0.58862 0.28787
 H1326 H 0.92783 0.65634 0.26581
 H1327 H 0.83276 0.56316 0.23088
 H1328 H 0.89995 0.53659 0.19163
 H1329 H 0.89480 0.63085 0.24458
 H1330 H 0.86004 0.59156 0.25560
 H1331 H 0.93459 0.56334 0.26637
 H1332 H 0.92687 0.56444 0.21653
 C1333 C 0.91356 0.39465 0.74447
 C1334 C 0.92649 0.37436 0.75565
 C1335 C 0.94622 0.36203 0.74295
 C1336 C 0.95311 0.36948 0.71872
 C1337 C 0.93939 0.38879 0.70695
 C1338 C 0.91974 0.40126 0.71970
 C1339 C 0.89571 0.41042 0.75941
 C1340 C 0.90182 0.41641 0.78426
 C1341 C 0.88665 0.43305 0.79786
 C1342 C 0.86496 0.44424 0.78699
 C1343 C 0.85830 0.43772 0.76239
 C1344 C 0.87357 0.42100 0.74870
 H1345 H 0.95671 0.34722 0.75232
 H1346 H 0.94475 0.39499 0.68836
 H1347 H 0.89236 0.43764 0.81676
 H1348 H 0.84167 0.44599 0.75351
 H1349 H 0.91041 0.41698 0.71066
 H1350 H 0.91896 0.40901 0.79296
 H1351 H 0.92191 0.36853 0.77454
 H1352 H 0.86823 0.41658 0.72966
 C1353 C 0.08923 0.59736 0.75101
 C1354 C 0.08281 0.59314 0.72584
 C1355 C 0.06415 0.60788 0.71415
 C1356 C 0.05184 0.62710 0.72742
 C1357 C 0.05931 0.63230 0.75201
 C1358 C 0.07794 0.61765 0.76367
 C1359 C 0.10542 0.57920 0.76483
 C1360 C 0.09781 0.57113 0.78873
 C1361 C 0.11201 0.55317 0.80161
 C1362 C 0.13425 0.54282 0.79096
 C1363 C 0.14207 0.55099 0.76711
 C1364 C 0.12769 0.56895 0.75409
 H1365 H 0.05829 0.60345 0.69525
 H1366 H 0.04984 0.64699 0.76252
 H1367 H 0.10544 0.54731 0.81994
 H1368 H 0.15913 0.54336 0.75842
 H1369 H 0.08281 0.62157 0.78295
 H1370 H 0.08047 0.57830 0.79729
 H1371 H 0.09104 0.57751 0.71571
 H1372 H 0.13399 0.57488 0.73571
 C1373 C 0.08605 0.41066 0.26502
 C1374 C 0.07987 0.38568 0.25900
 C1375 C 0.05998 0.37320 0.27146
 C1376 C 0.04593 0.38545 0.29020
 C1377 C 0.05262 0.41008 0.29689
 C1378 C 0.07267 0.42253 0.28454
 C1379 C 0.10444 0.42507 0.24934
 C1380 C 0.10259 0.42388 0.22319
 C1381 C 0.11793 0.43918 0.20810
 C1382 C 0.13573 0.45585 0.21879
 C1383 C 0.13839 0.45637 0.24492
 C1384 C 0.12269 0.44126 0.26009
 H1385 H 0.05485 0.35431 0.26581
 H1386 H 0.04176 0.41991 0.31109
 H1387 H 0.11549 0.43833 0.18802
 H1388 H 0.15187 0.46913 0.25364
 H1389 H 0.07681 0.44187 0.28934
 H1390 H 0.08849 0.41182 0.21438
 H1391 H 0.08995 0.37606 0.24412
 H1392 H 0.12456 0.44245 0.28020
   
