data_POSCAR
  _audit_creation_date              2014-09-24
  _audit_creation_method            'ToBaCCo'
  _symmetry_space_group_name_H-M    'P1'
  _symmetry_Int_Tables_number       1
  _symmetry_cell_setting            triclinic
  loop_
  _symmetry_equiv_pos_as_xyz
 x,y,z
_cell_length_a 50.9930
_cell_length_b 51.1754
_cell_length_c 53.4759
_cell_angle_alpha 89.759800
_cell_angle_beta 91.731200
_cell_angle_gamma 89.367500
loop_
  _atom_site_label
  _atom_site_type_symbol
  _atom_site_fract_x
  _atom_site_fract_y
  _atom_site_fract_z
C1 C 0.41814 0.03842 0.28067
 H2 H 0.41154 0.05572 0.27051
 C3 C 0.43383 0.04086 0.30246
 H4 H 0.43926 0.06016 0.30885
 C5 C 0.41901 -0.00767 0.28469
 H6 H 0.41314 -0.02660 0.27775
 C7 C 0.43483 -0.00613 0.30646
 H8 H 0.44053 -0.02397 0.31623
 N9 N 0.41081 0.01442 0.27237
 C10 C 0.39757 0.00867 0.19094
 H11 H 0.37771 0.00148 0.18969
 C12 C 0.41152 0.01228 0.16906
 H13 H 0.40236 0.00775 0.15109
 C14 C 0.43368 0.02350 0.21566
 H15 H 0.44226 0.02803 0.23383
 C16 C 0.44830 0.02745 0.19420
 H17 H 0.46813 0.03473 0.19600
 Zn18 Zn 0.38824 0.01116 0.24338
 N19 N 0.40867 0.01440 0.21374
 C20 C 0.35489 0.05060 0.22131
 N21 N 0.36211 0.03868 0.24330
 C22 C 0.35225 0.04721 0.26525
 C23 C 0.33505 0.06883 0.26564
 C24 C 0.33756 0.07195 0.22081
 C25 C 0.37876 -0.04183 0.22912
 C26 C 0.36849 -0.06693 0.23141
 C27 C 0.34463 -0.05240 0.26705
 C28 C 0.35523 -0.02743 0.26386
 N29 N 0.37196 -0.02254 0.24512
 H30 H 0.36273 0.04389 0.20398
 H31 H 0.35836 0.03774 0.28261
 H32 H 0.32835 0.07571 0.28347
 H33 H 0.33219 0.08082 0.20295
 H34 H 0.39294 -0.03811 0.21497
 H35 H 0.37559 -0.08161 0.21875
 H36 H 0.33097 -0.05475 0.28191
 H37 H 0.35028 -0.01195 0.27665
 C38 C 0.43716 0.02185 0.17059
 C39 C 0.44229 0.01839 0.31580
 C40 C 0.35102 -0.07308 0.25067
 C41 C 0.32762 0.08177 0.24317
 C42 C 0.06947 0.01598 0.71715
 H43 H 0.07467 0.03305 0.72794
 C44 C 0.05392 0.01876 0.69532
 H45 H 0.04734 0.03810 0.68951
 C46 C 0.07148 -0.02988 0.71171
 H47 H 0.07815 -0.04888 0.71831
 C48 C 0.05604 -0.02799 0.68972
 H49 H 0.05170 -0.04557 0.67928
 N50 N 0.07829 -0.00803 0.72469
 C51 C 0.09030 -0.00593 0.80531
 H52 H 0.11146 -0.00740 0.80714
 C53 C 0.07561 0.00051 0.82608
 H54 H 0.08565 0.00329 0.84398
 C55 C 0.05173 -0.00701 0.77952
 H56 H 0.04258 -0.00933 0.76118
 C57 C 0.03624 -0.00079 0.79988
 H58 H 0.01523 0.00148 0.79705
 Zn59 Zn 0.09986 -0.01156 0.75418
 N60 N 0.07830 -0.00901 0.78249
 C61 C 0.11547 0.03980 0.76529
 N62 N 0.12443 0.01640 0.75680
 C63 C 0.15037 0.01260 0.75247
 C64 C 0.16827 0.03281 0.75644
 C65 C 0.13275 0.06039 0.76988
 C66 C 0.11601 -0.06216 0.77189
 C67 C 0.12870 -0.08647 0.77053
 C68 C 0.14486 -0.07421 0.73023
 C69 C 0.13193 -0.05010 0.73240
 N70 N 0.11792 -0.04446 0.75303
 H71 H 0.09489 0.04232 0.76910
 H72 H 0.15740 -0.00618 0.74628
 H73 H 0.18883 0.02935 0.75300
 H74 H 0.12516 0.07881 0.77664
 H75 H 0.10451 -0.05753 0.78796
 H76 H 0.12673 -0.10031 0.78571
 H77 H 0.15614 -0.07804 0.71380
 H78 H 0.13289 -0.03586 0.71746
 C79 C 0.04825 0.00379 0.82341
 C80 C 0.04731 -0.00337 0.68105
 C81 C 0.14340 -0.09284 0.74948
 C82 C 0.15959 0.05702 0.76554
 C83 C 0.58633 0.52158 0.21129
 H84 H 0.60128 0.53592 0.21506
 C85 C 0.56996 0.52437 0.18997
 H86 H 0.57336 0.54052 0.17743
 C87 C 0.56463 0.48290 0.22271
 H88 H 0.56276 0.46669 0.23556
 C89 C 0.54745 0.48524 0.20191
 H90 H 0.53225 0.47085 0.19923
 N91 N 0.58360 0.50094 0.22705
 C92 C 0.59741 0.49112 0.30761
 H93 H 0.61741 0.48383 0.30824
 C94 C 0.58451 0.49560 0.32989
 H95 H 0.59464 0.49121 0.34753
 C96 C 0.56043 0.50667 0.28393
 H97 H 0.55136 0.51177 0.26602
 C98 C 0.54668 0.51119 0.30584
 H99 H 0.52708 0.51956 0.30455
 Zn100 Zn 0.60624 0.49572 0.25571
 N101 N 0.58557 0.49729 0.28517
 C102 C 0.63342 0.53775 0.27933
 N103 N 0.63230 0.52308 0.25813
 C104 C 0.64829 0.52863 0.23889
 C105 C 0.66558 0.54981 0.24035
 C106 C 0.65087 0.55850 0.28185
 C107 C 0.61401 0.44192 0.26784
 C108 C 0.62396 0.41651 0.26547
 C109 C 0.65008 0.43121 0.23147
 C110 C 0.63958 0.45646 0.23449
 N111 N 0.62208 0.46150 0.25269
 H112 H 0.62057 0.53379 0.29445
 H113 H 0.64698 0.51730 0.22191
 H114 H 0.67708 0.55420 0.22425
 H115 H 0.65142 0.56915 0.29927
 H116 H 0.59930 0.44574 0.28150
 H117 H 0.61689 0.40137 0.27767
 H118 H 0.66428 0.42789 0.21715
 H119 H 0.64531 0.47196 0.22211
 C120 C 0.55905 0.50640 0.32924
 C121 C 0.55000 0.50611 0.18497
 C122 C 0.64238 0.41073 0.24717
 C123 C 0.66708 0.56531 0.26210
 C124 C 0.92183 0.53029 0.77855
 H125 H 0.91222 0.54787 0.77145
 C126 C 0.93746 0.53123 0.80045
 H127 H 0.93998 0.55001 0.80930
 C128 C 0.93111 0.48521 0.77430
 H129 H 0.92838 0.46725 0.76399
 C130 C 0.94668 0.48515 0.79630
 H131 H 0.95502 0.46668 0.80257
 N132 N 0.91866 0.50742 0.76616
 C133 C 0.90489 0.50379 0.68537
 H134 H 0.88408 0.49988 0.68418
 C135 C 0.91851 0.50822 0.66355
 H136 H 0.90811 0.50702 0.64565
 C137 C 0.94334 0.51110 0.71021
 H138 H 0.95279 0.51289 0.72848
 C139 C 0.95782 0.51544 0.68875
 H140 H 0.97837 0.52040 0.69067
 Zn141 Zn 0.89624 0.50538 0.73726
 N142 N 0.91719 0.50601 0.70819
 C143 C 0.87303 0.55135 0.71520
 N144 N 0.87229 0.53509 0.73542
 C145 C 0.85539 0.54019 0.75408
 C146 C 0.83820 0.56184 0.75253
 C147 C 0.85589 0.57275 0.71264
 C148 C 0.88172 0.45413 0.72184
 C149 C 0.87068 0.42942 0.72423
 C150 C 0.85249 0.44286 0.76329
 C151 C 0.86371 0.46753 0.76002
 N152 N 0.87800 0.47278 0.73948
 H153 H 0.88701 0.54803 0.70084
 H154 H 0.85544 0.52770 0.77042
 H155 H 0.82552 0.56554 0.76799
 H156 H 0.85665 0.58458 0.69589
 H157 H 0.89394 0.45796 0.70617
 H158 H 0.87431 0.41491 0.71004
 H159 H 0.84124 0.43914 0.77975
 H160 H 0.86163 0.48221 0.77429
 C161 C 0.94516 0.51485 0.66509
 C162 C 0.94974 0.50831 0.81032
 C163 C 0.85594 0.42335 0.74523
 C164 C 0.83800 0.57847 0.73139
 C165 C 0.21328 0.38110 0.97382
 H166 H 0.22610 0.37740 0.95844
 C167 C 0.18913 0.39390 0.96939
 H168 H 0.18358 0.39984 0.95050
 C169 C 0.20463 0.37666 1.01685
 H170 H 0.21065 0.36973 1.03529
 C171 C 0.18044 0.38956 1.01330
 H172 H 0.16845 0.39277 1.02938
 N173 N 0.22041 0.37247 0.99719
 C174 C 0.30575 0.36291 1.00558
 H175 H 0.30705 0.34208 1.00900
 C176 C 0.32795 0.37834 1.00937
 H177 H 0.34644 0.36910 1.01493
 C178 C 0.27971 0.40028 0.99527
 H179 H 0.26068 0.40885 0.99072
 C180 C 0.30153 0.41640 0.99854
 H181 H 0.29912 0.43730 0.99599
 Zn182 Zn 0.25208 0.35247 1.00156
 N183 N 0.28212 0.37407 0.99914
 C184 C 0.27212 0.32431 0.96062
 N185 N 0.25210 0.32595 0.97678
 C186 C 0.23129 0.30958 0.97482
 C187 C 0.23039 0.29022 0.95641
 C188 C 0.27198 0.30534 0.94193
 C189 C 0.26630 0.35334 1.05177
 C190 C 0.27373 0.34363 1.07529
 C191 C 0.25587 0.30187 1.06354
 C192 C 0.24982 0.31213 1.03964
 N193 N 0.25504 0.33754 1.03426
 H194 H 0.28812 0.33794 0.96196
 H195 H 0.21528 0.31167 0.98750
 H196 H 0.21377 0.27724 0.95533
 H197 H 0.28792 0.30487 0.92903
 H198 H 0.27057 0.37339 1.04712
 H199 H 0.28408 0.35651 1.08802
 H200 H 0.25082 0.28184 1.06744
 H201 H 0.24124 0.29966 1.02545
 C202 C 0.32593 0.40553 1.00628
 C203 C 0.17203 0.39794 0.98920
 C204 C 0.26834 0.31761 1.08181
 C205 C 0.25100 0.28780 0.93969
 C206 C 0.77647 0.11316 0.97356
 H207 H 0.76382 0.11631 0.95719
 C208 C 0.79929 0.09783 0.97171
 H209 H 0.80298 0.08871 0.95395
 C210 C 0.78650 0.12187 1.01609
 H211 H 0.78226 0.13212 1.03312
 C212 C 0.80922 0.10634 1.01524
 H213 H 0.82167 0.10520 1.03194
 N214 N 0.77066 0.12517 0.99540
 C215 C 0.68729 0.14941 0.99534
 H216 H 0.68941 0.17020 0.99828
 C217 C 0.66254 0.13797 0.99721
 H218 H 0.64568 0.15020 1.00101
 C219 C 0.70690 0.10818 0.98777
 H220 H 0.72431 0.09648 0.98490
 C221 C 0.68249 0.09603 0.98905
 H222 H 0.68145 0.07505 0.98683
 Zn223 Zn 0.74261 0.15056 0.99441
 N224 N 0.70894 0.13444 0.99101
 C225 C 0.73420 0.17662 0.94665
 N226 N 0.75036 0.17292 0.96712
 C227 C 0.77503 0.18284 0.96806
 C228 C 0.78468 0.19649 0.94769
 C229 C 0.74309 0.19035 0.92581
 C230 C 0.73800 0.15739 1.04635
 C231 C 0.73757 0.17098 1.06896
 C232 C 0.74359 0.21121 1.04618
 C233 C 0.74435 0.19681 1.02402
 N234 N 0.74209 0.17031 1.02454
 H235 H 0.71487 0.16811 0.94610
 H236 H 0.78763 0.17923 0.98437
 H237 H 0.80467 0.20343 0.94840
 H238 H 0.73052 0.19238 0.90922
 H239 H 0.73552 0.13643 1.04621
 H240 H 0.73526 0.16039 1.08632
 H241 H 0.74609 0.23220 1.04567
 H242 H 0.74680 0.20685 1.00645
 C243 C 0.65990 0.11085 0.99429
 C244 C 0.81655 0.09439 0.99265
 C245 C 0.74054 0.19816 1.06895
 C246 C 0.76875 0.20011 0.92619
 C247 C 0.29665 0.62815 0.47442
 H248 H 0.29095 0.64134 0.45938
 C249 C 0.32120 0.61566 0.47387
 H250 H 0.33409 0.61999 0.45872
 C251 C 0.28701 0.60661 0.51215
 H252 H 0.27367 0.60272 0.52692
 C253 C 0.31141 0.59370 0.51234
 H254 H 0.31626 0.58010 0.52737
 N255 N 0.28032 0.62418 0.49378
 C256 C 0.19463 0.63458 0.49808
 H257 H 0.19398 0.65514 0.50266
 C258 C 0.17179 0.61976 0.49914
 H259 H 0.15361 0.62921 0.50421
 C260 C 0.21930 0.59735 0.48643
 H261 H 0.23797 0.58862 0.48193
 C262 C 0.19676 0.58186 0.48685
 H263 H 0.19833 0.56124 0.48262
 Zn264 Zn 0.24828 0.64475 0.49507
 N265 N 0.21788 0.62320 0.49218
 C266 C 0.23082 0.66787 0.44871
 N267 N 0.24842 0.66970 0.46825
 C268 C 0.26795 0.68765 0.46802
 C269 C 0.27057 0.70432 0.44746
 C270 C 0.23278 0.68417 0.42775
 C271 C 0.24288 0.64720 0.54729
 C272 C 0.23843 0.65845 0.57056
 C273 C 0.23926 0.70100 0.55116
 C274 C 0.24395 0.68890 0.52821
 N275 N 0.24573 0.66236 0.52662
 H276 H 0.21584 0.65309 0.44892
 H277 H 0.28207 0.68841 0.48350
 H278 H 0.28651 0.71813 0.44740
 H279 H 0.21942 0.68141 0.41196
 H280 H 0.24304 0.62620 0.54565
 H281 H 0.23661 0.64570 0.58658
 H282 H 0.23730 0.72207 0.55178
 H283 H 0.24525 0.70080 0.51159
 C284 C 0.17266 0.59293 0.49376
 C285 C 0.32926 0.59866 0.49337
 C286 C 0.23610 0.68575 0.57278
 C287 C 0.25290 0.70265 0.42695
 C288 C 0.71306 0.89413 0.46921
 H289 H 0.72622 0.89201 0.45383
 C290 C 0.68860 0.90656 0.46524
 H291 H 0.68334 0.91405 0.44678
 C292 C 0.70329 0.88519 0.51133
 H293 H 0.70870 0.87629 0.52912
 C294 C 0.67881 0.89763 0.50825
 H295 H 0.66620 0.89872 0.52413
 N296 N 0.71974 0.88326 0.49184
 C297 C 0.80498 0.86683 0.49880
 H298 H 0.80444 0.84596 0.50204
 C299 C 0.82889 0.87995 0.50107
 H300 H 0.84650 0.86872 0.50528
 C301 C 0.78229 0.90646 0.48968
 H302 H 0.76401 0.91682 0.48587
 C303 C 0.80582 0.92033 0.49164
 H304 H 0.80527 0.94134 0.48913
 Zn305 Zn 0.75026 0.86098 0.49458
 N306 N 0.78226 0.88013 0.49324
 C307 C 0.76748 0.83055 0.45311
 N308 N 0.74717 0.83638 0.46813
 C309 C 0.72301 0.82599 0.46382
 C310 C 0.71837 0.80944 0.44349
 C311 C 0.76384 0.81358 0.43287
 C312 C 0.75885 0.85818 0.54589
 C313 C 0.76260 0.84693 0.56951
 C314 C 0.75105 0.80505 0.55202
 C315 C 0.74786 0.81714 0.52848
 N316 N 0.75161 0.84332 0.52595
 H317 H 0.78643 0.83929 0.45657
 H318 H 0.70712 0.83109 0.47591
 H319 H 0.69890 0.80172 0.44008
 H320 H 0.78009 0.80940 0.42089
 H321 H 0.76224 0.87884 0.54330
 H322 H 0.76896 0.85928 0.58485
 H323 H 0.74744 0.78434 0.55371
 H324 H 0.74250 0.80557 0.51228
 C325 C 0.82962 0.90715 0.49762
 C326 C 0.67070 0.90788 0.48473
 C327 C 0.75852 0.82001 0.57302
 C328 C 0.73893 0.80306 0.42772
 C329 C 0.02182 0.28357 0.40628
 H330 H 0.04124 0.27544 0.40387
 C331 C 0.01844 0.30480 0.42199
 H332 H 0.03532 0.31298 0.43180
 C333 C -0.02340 0.28473 0.39430
 H334 H -0.03949 0.27752 0.38284
 C335 C -0.02760 0.30610 0.40967
 H336 H -0.04697 0.31487 0.41027
 N337 N 0.00112 0.27430 0.39251
 C338 C 0.01889 0.19621 0.36839
 H339 H 0.01365 0.19759 0.34870
 C340 C 0.02093 0.17171 0.37973
 H341 H 0.01753 0.15469 0.36819
 C342 C 0.02588 0.21702 0.40745
 H343 H 0.02691 0.23453 0.41848
 C344 C 0.02799 0.19303 0.41955
 H345 H 0.03200 0.19292 0.43952
 Zn346 Zn 0.00784 0.24934 0.36788
 N347 N 0.02038 0.21819 0.38248
 C348 C 0.04295 0.24781 0.32860
 N349 N 0.03145 0.26349 0.34561
 C350 C 0.03651 0.28953 0.34679
 C351 C 0.05531 0.30037 0.33174
 C352 C 0.06159 0.25793 0.31290
 C353 C -0.04206 0.22943 0.36392
 C354 C -0.06728 0.22715 0.35368
 C355 C -0.05279 0.24831 0.31605
 C356 C -0.02792 0.25049 0.32714
 N357 N -0.02340 0.24187 0.35093
 H358 H 0.03820 0.22735 0.32763
 H359 H 0.02629 0.30192 0.35964
 H360 H 0.06019 0.32083 0.33364
 H361 H 0.07164 0.24498 0.30030
 H362 H -0.03768 0.22276 0.38283
 H363 H -0.08242 0.21877 0.36489
 H364 H -0.05611 0.25554 0.29725
 H365 H -0.01257 0.26007 0.31718
 C366 C 0.02370 0.16988 0.40598
 C367 C -0.00634 0.31669 0.42309
 C368 C -0.07304 0.23749 0.32979
 C369 C 0.06835 0.28433 0.31496
 C370 C 0.00914 0.71241 0.09133
 H371 H 0.02543 0.72557 0.08950
 C372 C 0.00757 0.69021 0.07666
 H373 H 0.02310 0.68606 0.06385
 C374 C -0.03047 0.70172 0.11105
 H375 H -0.04518 0.70648 0.12448
 C376 C -0.03290 0.67927 0.09662
 H377 H -0.04961 0.66670 0.09897
 N378 N -0.00950 0.71748 0.10830
 C379 C 0.00823 0.79865 0.11578
 H380 H 0.01345 0.80003 0.13535
 C381 C 0.01045 0.82060 0.10078
 H382 H 0.01727 0.83859 0.10922
 C383 C -0.00855 0.77423 0.08141
 H384 H -0.01658 0.75628 0.07410
 C385 C -0.00666 0.79582 0.06564
 H386 H -0.01274 0.79412 0.04615
 Zn387 Zn -0.00508 0.74732 0.12746
 N388 N -0.00113 0.77603 0.10599
 C389 C 0.02788 0.76199 0.16663
 N390 N 0.02454 0.74371 0.14852
 C391 C 0.04282 0.72471 0.14488
 C392 C 0.06709 0.72590 0.15728
 C393 C 0.05194 0.76420 0.17917
 C394 C -0.05040 0.77308 0.14174
 C395 C -0.07118 0.77835 0.15716
 C396 C -0.05634 0.74276 0.18418
 C397 C -0.03598 0.73809 0.16803
 N398 N -0.03357 0.75311 0.14733
 H399 H 0.01229 0.77579 0.17034
 H400 H 0.03921 0.70930 0.13158
 H401 H 0.08190 0.71127 0.15339
 H402 H 0.05496 0.78031 0.19195
 H403 H -0.04764 0.78503 0.12533
 H404 H -0.08366 0.79497 0.15240
 H405 H -0.05804 0.72948 0.19979
 H406 H -0.02200 0.72243 0.17193
 C407 C 0.00270 0.81945 0.07543
 C408 C -0.01360 0.67330 0.07931
 C409 C -0.07486 0.76295 0.17876
 C410 C 0.07236 0.74688 0.17339
 C411 C 0.52720 0.22019 0.61019
 H412 H 0.54309 0.23401 0.61144
 C413 C 0.52980 0.19758 0.59609
 H414 H 0.54784 0.19393 0.58648
 C415 C 0.48471 0.20771 0.62231
 H416 H 0.46744 0.21145 0.63295
 C417 C 0.48640 0.18499 0.60843
 H418 H 0.47000 0.17172 0.60805
 N419 N 0.50481 0.22485 0.62266
 C420 C 0.49678 0.30695 0.63418
 H421 H 0.49391 0.30693 0.65414
 C422 C 0.49412 0.33000 0.62066
 H423 H 0.48938 0.34792 0.63032
 C424 C 0.50538 0.28321 0.59720
 H425 H 0.50922 0.26480 0.58817
 C426 C 0.50296 0.30589 0.58289
 H427 H 0.50575 0.30496 0.56292
 Zn428 Zn 0.50314 0.25466 0.64222
 N429 N 0.50262 0.28432 0.62236
 C430 C 0.54728 0.27534 0.66714
 N431 N 0.53218 0.25387 0.66389
 C432 C 0.53927 0.23022 0.67377
 C433 C 0.56332 0.22713 0.68643
 C434 C 0.57112 0.27328 0.68022
 C435 C 0.44991 0.25885 0.64594
 C436 C 0.42604 0.25970 0.65766
 C437 C 0.44941 0.25575 0.69762
 C438 C 0.47287 0.25474 0.68507
 N439 N 0.47251 0.25567 0.65971
 H440 H 0.54145 0.29380 0.65878
 H441 H 0.52681 0.21351 0.67062
 H442 H 0.56951 0.20802 0.69328
 H443 H 0.58353 0.29027 0.68195
 H444 H 0.45051 0.26009 0.62576
 H445 H 0.40809 0.26087 0.64635
 H446 H 0.45002 0.25486 0.71778
 H447 H 0.49131 0.25304 0.69550
 C448 C 0.49734 0.32960 0.59473
 C449 C 0.50915 0.17972 0.59511
 C450 C 0.42562 0.25766 0.68379
 C451 C 0.57960 0.24879 0.68926
 C452 C 0.49982 0.78998 0.92401
 H453 H 0.50527 0.77332 0.93558
 C454 C 0.49746 0.81463 0.93471
 H455 H 0.50024 0.81650 0.95475
 C456 C 0.49005 0.80778 0.88370
 H457 H 0.48782 0.80485 0.86373
 C458 C 0.48815 0.83273 0.89345
 H459 H 0.48462 0.84892 0.88068
 N460 N 0.49653 0.78728 0.89888
 C461 C 0.52854 0.71045 0.89668
 H462 H 0.54299 0.71553 0.88329
 C463 C 0.52827 0.68505 0.90588
 H464 H 0.54232 0.67104 0.89898
 C465 C 0.49184 0.72197 0.92053
 H466 H 0.47739 0.73631 0.92589
 C467 C 0.49120 0.69691 0.93067
 H468 H 0.47649 0.69247 0.94418
 Zn469 Zn 0.50330 0.75683 0.88161
 N470 N 0.50936 0.72775 0.90274
 C471 C 0.53852 0.74494 0.84424
 N472 N 0.53279 0.76239 0.86238
 C473 C 0.54865 0.78295 0.86773
 C474 C 0.57162 0.78634 0.85477
 C475 C 0.56114 0.74761 0.83080
 C476 C 0.45131 0.74423 0.87253
 C477 C 0.42864 0.73879 0.85862
 C478 C 0.45216 0.74689 0.82086
 C479 C 0.47442 0.75229 0.83556
 N480 N 0.47375 0.75031 0.86091
 H481 H 0.52585 0.72845 0.84076
 H482 H 0.54393 0.79634 0.88254
 H483 H 0.58424 0.80261 0.85938
 H484 H 0.56577 0.73303 0.81694
 H485 H 0.45077 0.74408 0.89263
 H486 H 0.41084 0.73462 0.86835
 H487 H 0.45322 0.74833 0.80077
 H488 H 0.49195 0.75855 0.82661
 C489 C 0.50848 0.67762 0.92202
 C490 C 0.49247 0.83654 0.91921
 C491 C 0.42893 0.73990 0.83243
 C492 C 0.57819 0.76829 0.83630
 C493 C -0.23158 0.67759 0.96943
 H494 H -0.21498 0.67803 0.98250
 C495 C -0.23096 0.69179 0.94698
 H496 H -0.21381 0.70311 0.94281
 C497 C -0.27355 0.66127 0.95818
 H498 H -0.28968 0.64853 0.96174
 C499 C -0.27405 0.67565 0.93596
 H500 H -0.29066 0.67387 0.92299
 N501 N -0.25263 0.66255 0.97456
 C502 C -0.25047 0.64826 1.05512
 H503 H -0.25311 0.62733 1.05445
 C504 C -0.24515 0.66035 1.07794
 H505 H -0.24498 0.64833 1.09462
 C506 C -0.24800 0.68867 1.03369
 H507 H -0.24850 0.69946 1.01626
 C508 C -0.24319 0.70179 1.05634
 H509 H -0.23996 0.72265 1.05586
 Zn510 Zn -0.25167 0.64150 1.00423
 N511 N -0.25068 0.66224 1.03352
 C512 C -0.20093 0.62517 1.02218
 N513 N -0.22023 0.62050 1.00462
 C514 C -0.21710 0.60155 0.98718
 C515 C -0.19454 0.58569 0.98774
 C516 C -0.17797 0.60996 1.02327
 C517 C -0.30625 0.63260 1.00407
 C518 C -0.32935 0.61820 1.00161
 C519 C -0.30332 0.57857 1.00431
 C520 C -0.28065 0.59372 1.00593
 N521 N -0.28241 0.62028 1.00502
 H522 H -0.20303 0.64099 1.03528
 H523 H -0.23235 0.59847 0.97303
 H524 H -0.19292 0.57029 0.97404
 H525 H -0.16290 0.61448 1.03721
 H526 H -0.30726 0.65373 1.00414
 H527 H -0.34811 0.62828 0.99996
 H528 H -0.30162 0.55745 1.00467
 H529 H -0.26171 0.58416 1.00768
 C530 C -0.24041 0.68745 1.07890
 C531 C -0.25243 0.69082 0.92993
 C532 C -0.32794 0.59086 1.00138
 C533 C -0.17453 0.58966 1.00606
 C534 C -0.22876 0.31287 0.53673
 H535 H -0.21192 0.31067 0.52511
 C536 C -0.23006 0.29881 0.55799
 H537 H -0.21383 0.28583 0.56271
 C538 C -0.26839 0.33563 0.54471
 H539 H -0.28297 0.35044 0.54053
 C540 C -0.27128 0.31991 0.56752
 H541 H -0.28911 0.32300 0.57746
 N542 N -0.24908 0.33150 0.52979
 C543 C -0.26960 0.32936 0.45294
 H544 H -0.28435 0.34450 0.45447
 C545 C -0.27042 0.31296 0.43212
 H546 H -0.28587 0.31605 0.41807
 C547 C -0.23058 0.30874 0.46818
 H548 H -0.21472 0.30752 0.48198
 C549 C -0.23064 0.29186 0.44754
 H550 H -0.21496 0.27762 0.44616
 Zn551 Zn -0.24930 0.35063 0.49848
 N552 N -0.25005 0.32691 0.47069
 C553 C -0.21322 0.38207 0.47331
 N554 N -0.21868 0.37186 0.49610
 C555 C -0.20291 0.37678 0.51649
 C556 C -0.18097 0.39287 0.51445
 C557 C -0.19132 0.39799 0.47038
 C558 C -0.30420 0.36082 0.49818
 C559 C -0.32691 0.37556 0.50232
 C560 C -0.30083 0.41456 0.50173
 C561 C -0.27846 0.39894 0.49836
 N562 N -0.28037 0.37249 0.49728
 H563 H -0.22600 0.37792 0.45734
 H564 H -0.20752 0.36848 0.53444
 H565 H -0.16877 0.39653 0.53095
 H566 H -0.18758 0.40612 0.45212
 H567 H -0.30536 0.33975 0.49719
 H568 H -0.34531 0.36535 0.50330
 H569 H -0.29829 0.43543 0.50357
 H570 H -0.25941 0.40796 0.49772
 C571 C -0.25089 0.29365 0.42914
 C572 C -0.25301 0.30188 0.57469
 C573 C -0.32557 0.40294 0.50476
 C574 C -0.17494 0.40389 0.49117
 C575 C 0.27011 -0.16321 0.04244
 H576 H 0.28503 -0.14903 0.03857
 C577 C 0.27194 -0.17746 0.06352
 H578 H 0.28819 -0.17366 0.07637
 C579 C 0.23001 -0.18318 0.02959
 H580 H 0.21370 -0.18528 0.01637
 C581 C 0.23112 -0.19928 0.05261
 H582 H 0.21572 -0.21333 0.05506
 N583 N 0.24825 -0.16628 0.02518
 C584 C 0.24421 -0.15708 -0.05669
 H585 H 0.24177 -0.13621 -0.05894
 C586 C 0.24833 -0.17259 -0.07778
 H587 H 0.24836 -0.16347 -0.09608
 C588 C 0.24884 -0.19410 -0.03023
 H589 H 0.25025 -0.20251 -0.01172
 C590 C 0.25247 -0.21040 -0.05087
 H591 H 0.25617 -0.23107 -0.04788
 Zn592 Zn 0.24532 -0.14510 -0.00446
 N593 N 0.24509 -0.16782 -0.03332
 C594 C 0.29396 -0.12807 -0.02338
 N595 N 0.27538 -0.12267 -0.00632
 C596 C 0.27801 -0.10174 0.00916
 C597 C 0.29973 -0.08520 0.00758
 C598 C 0.31576 -0.11197 -0.02574
 C599 C 0.19802 -0.12614 0.01719
 C600 C 0.17513 -0.11099 0.01917
 C601 C 0.18483 -0.09029 -0.01987
 C602 C 0.20743 -0.10612 -0.02122
 N603 N 0.21358 -0.12391 -0.00295
 H604 H 0.29202 -0.14498 -0.03527
 H605 H 0.26322 -0.09786 0.02278
 H606 H 0.30138 -0.06899 0.02041
 H607 H 0.32978 -0.11660 -0.03990
 H608 H 0.20325 -0.13958 0.03213
 H609 H 0.16331 -0.11451 0.03522
 H610 H 0.18141 -0.07591 -0.03448
 H611 H 0.22034 -0.10370 -0.03669
 C612 C 0.25300 -0.19959 -0.07497
 C613 C 0.25126 -0.19689 0.06942
 C614 C 0.16784 -0.09248 0.00050
 C615 C 0.31902 -0.09001 -0.01025
 C616 C 0.24477 1.19670 0.47836
 H617 H 0.24647 1.20652 0.49619
 C618 C 0.23995 1.21130 0.45639
 H619 H 0.23807 1.23234 0.45757
 C620 C 0.24406 1.15726 0.45535
 H621 H 0.24531 1.13614 0.45515
 C622 C 0.23923 1.17097 0.43311
 H623 H 0.23744 1.16007 0.41584
 N624 N 0.24676 1.17016 0.47739
 C625 C 0.22433 1.17569 0.54553
 H626 H 0.20649 1.16927 0.53624
 C627 C 0.22291 1.18925 0.56807
 H628 H 0.20384 1.19325 0.57564
 C629 C 0.27067 1.17814 0.54713
 H630 H 0.28930 1.17361 0.53893
 C631 C 0.27016 1.19160 0.56986
 H632 H 0.28852 1.19683 0.57909
 Zn633 Zn 0.24999 1.14885 0.50649
 N634 N 0.24799 1.16997 0.53572
 C635 C 0.29050 1.11724 0.52897
 N636 N 0.28313 1.13058 0.50777
 C637 C 0.29985 1.13280 0.48855
 C638 C 0.32507 1.12179 0.49035
 C639 C 0.31576 1.10630 0.53174
 C640 C 0.19743 1.13560 0.49714
 C641 C 0.17557 1.11966 0.49352
 C642 C 0.20280 1.08228 0.50449
 C643 C 0.22424 1.09897 0.50786
 N644 N 0.22118 1.12519 0.50433
 H645 H 0.27704 1.11594 0.54418
 H646 H 0.29390 1.14357 0.47188
 H647 H 0.33764 1.12372 0.47454
 H648 H 0.32138 1.09669 0.54918
 H649 H 0.19549 1.15643 0.49393
 H650 H 0.15690 1.12866 0.48855
 H651 H 0.20557 1.06146 0.50738
 H652 H 0.24332 1.09092 0.51309
 C653 C 0.24604 1.19688 0.58092
 C654 C 0.23693 1.19840 0.43331
 C655 C 0.17806 1.09257 0.49704
 C656 C 0.33374 1.10883 0.51243
 C657 C 0.14023 0.47871 0.27796
 H658 H 0.13492 0.49109 0.29339
 C659 C 0.15659 0.45690 0.28236
 H660 H 0.16417 0.45289 0.30113
 C661 C 0.13611 0.46842 0.23490
 H662 H 0.12753 0.47248 0.21656
 C663 C 0.15289 0.44676 0.23837
 H664 H 0.15726 0.43453 0.22252
 N665 N 0.13016 0.48397 0.25457
 C666 C 0.10615 0.56717 0.25346
 H667 H 0.08503 0.56554 0.25371
 C668 C 0.11752 0.59190 0.25173
 H669 H 0.10504 0.60917 0.25121
 C670 C 0.14794 0.54669 0.25230
 H671 H 0.15971 0.52900 0.25194
 C672 C 0.16004 0.57102 0.24977
 H673 H 0.18111 0.57187 0.24798
 Zn674 Zn 0.10473 0.51171 0.25150
 N675 N 0.12138 0.54514 0.25387
 C676 C 0.07422 0.52398 0.29468
 N677 N 0.08060 0.50567 0.27743
 C678 C 0.07174 0.48074 0.27920
 C679 C 0.05634 0.47323 0.29912
 C680 C 0.05823 0.51745 0.31456
 C681 C 0.10170 0.51819 0.19993
 C682 C 0.09047 0.52022 0.17591
 C683 C 0.04888 0.50792 0.19238
 C684 C 0.06104 0.50628 0.21629
 N685 N 0.08708 0.51118 0.21955
 H686 H 0.08197 0.54347 0.29347
 H687 H 0.07739 0.46643 0.26548
 H688 H 0.05000 0.45316 0.30057
 H689 H 0.05362 0.53210 0.32836
 H690 H 0.12218 0.52283 0.20308
 H691 H 0.10298 0.52719 0.16145
 H692 H 0.02837 0.50298 0.19086
 H693 H 0.04956 0.50116 0.23222
 C694 C 0.14475 0.59402 0.24934
 C695 C 0.16318 0.44062 0.26241
 C696 C 0.06355 0.51479 0.17126
 C697 C 0.04943 0.49169 0.31711
 C698 C -0.13702 1.02939 0.26811
 H699 H -0.13853 1.01497 0.28283
 C700 C -0.14847 1.05422 0.27089
 H701 H -0.15936 1.05824 0.28752
 C702 C -0.12083 1.04130 0.22872
 H703 H -0.10958 1.03639 0.21255
 C704 C -0.13164 1.06641 0.23088
 H705 H -0.12843 1.08044 0.21613
 N706 N -0.12355 1.02338 0.24725
 C707 C -0.11724 0.93724 0.24832
 H708 H -0.09613 0.93518 0.24777
 C709 C -0.13285 0.91496 0.24747
 H710 H -0.12347 0.89595 0.24726
 C711 C -0.15488 0.96468 0.24931
 H712 H -0.16344 0.98408 0.24940
 C713 C -0.17125 0.94282 0.24855
 H714 H -0.19234 0.94560 0.24839
 Zn715 Zn -0.10506 0.99071 0.24623
 N716 N -0.12833 0.96157 0.24901
 C717 C -0.08079 0.97218 0.29163
 N718 N -0.08065 0.99122 0.27385
 C719 C -0.06499 1.01246 0.27668
 C720 C -0.04875 1.01519 0.29806
 C721 C -0.06486 0.97406 0.31319
 C722 C -0.09795 0.96942 0.19866
 C723 C -0.08557 0.96339 0.17652
 C724 C -0.05131 0.99345 0.18796
 C725 C -0.06422 0.99855 0.21030
 N726 N -0.08714 0.98645 0.21533
 H727 H -0.09395 0.95591 0.28970
 H728 H -0.06587 1.02788 0.26280
 H729 H -0.03669 1.03237 0.29996
 H730 H -0.06606 0.95896 0.32733
 H731 H -0.11631 0.96015 0.20250
 H732 H -0.09448 0.94866 0.16475
 H733 H -0.03362 1.00415 0.18454
 H734 H -0.05581 1.01218 0.22354
 C735 C -0.16024 0.91758 0.24712
 C736 C -0.14573 1.07335 0.25221
 C737 C -0.06192 0.97560 0.17035
 C738 C -0.04879 0.99599 0.31690
 C739 C 0.35803 0.52103 -0.22833
 H740 H 0.35750 0.50752 -0.21279
 C741 C 0.34579 0.54563 -0.22641
 H742 H 0.33519 0.55022 -0.20973
 C743 C 0.37345 0.53188 -0.26826
 H744 H 0.38500 0.52708 -0.28420
 C745 C 0.36154 0.55658 -0.26712
 H746 H 0.36400 0.57009 -0.28248
 N747 N 0.37156 0.51452 -0.24905
 C748 C 0.37465 0.43145 -0.26646
 H749 H 0.38886 0.43418 -0.28077
 C750 C 0.36167 0.40882 -0.26554
 H751 H 0.36601 0.39400 -0.27920
 C752 C 0.35387 0.44806 -0.23055
 H753 H 0.35126 0.46293 -0.21657
 C754 C 0.33925 0.42323 -0.22864
 H755 H 0.32553 0.42169 -0.21372
 Zn756 Zn 0.39206 0.48262 -0.24908
 N757 N 0.37058 0.45158 -0.24818
 C758 C 0.41479 0.46460 -0.20261
 N759 N 0.41453 0.48409 -0.21994
 C760 C 0.42908 0.50596 -0.21624
 C761 C 0.44426 0.50910 -0.19421
 C762 C 0.42943 0.46704 -0.18023
 C763 C 0.40074 0.48052 -0.30136
 C764 C 0.41535 0.47914 -0.32307
 C765 C 0.45500 0.47917 -0.29730
 C766 C 0.43967 0.48035 -0.27605
 N767 N 0.41299 0.48119 -0.27836
 H768 H 0.40318 0.44733 -0.20583
 H769 H 0.42855 0.52123 -0.23031
 H770 H 0.45564 0.52668 -0.19193
 H771 H 0.42838 0.45157 -0.16646
 H772 H 0.37953 0.48111 -0.30281
 H773 H 0.40528 0.47923 -0.34117
 H774 H 0.47620 0.47879 -0.29519
 H775 H 0.44917 0.48055 -0.25773
 C776 C 0.34299 0.40366 -0.24520
 C777 C 0.34759 0.56399 -0.24592
 C778 C 0.44282 0.47839 -0.32113
 C779 C 0.44423 0.48971 -0.17547
 C780 C 0.62829 -0.04514 -0.21755
 H781 H 0.61234 -0.04168 -0.20514
 C782 C 0.64344 -0.06654 -0.21408
 H783 H 0.63921 -0.07951 -0.19876
 C784 C 0.65413 -0.02959 -0.25058
 H785 H 0.65894 -0.01492 -0.26418
 C786 C 0.67118 -0.05309 -0.24769
 H787 H 0.68676 -0.05503 -0.26078
 N788 N 0.63358 -0.02651 -0.23698
 C789 C 0.62860 0.05171 -0.26207
 H790 H 0.61446 0.04780 -0.27697
 C791 C 0.64423 0.07389 -0.26375
 H792 H 0.64193 0.08564 -0.28049
 C793 C 0.64880 0.04011 -0.22329
 H794 H 0.65061 0.02675 -0.20758
 C795 C 0.66462 0.06241 -0.22397
 H796 H 0.67768 0.06564 -0.20807
 Zn797 Zn 0.61078 0.00356 -0.24255
 N798 N 0.63133 0.03501 -0.24229
 C799 C 0.58436 0.02426 -0.20045
 N800 N 0.58519 0.00429 -0.21710
 C801 C 0.56807 -0.01591 -0.21584
 C802 C 0.54962 -0.01684 -0.19702
 C803 C 0.56610 0.02421 -0.18143
 C804 C 0.60782 -0.00145 -0.29517
 C805 C 0.59652 0.00031 -0.31918
 C806 C 0.55437 0.00785 -0.30113
 C807 C 0.56659 0.00609 -0.27728
 N808 N 0.59296 0.00165 -0.27469
 H809 H 0.59801 0.04018 -0.20174
 H810 H 0.56897 -0.03152 -0.22938
 H811 H 0.53629 -0.03313 -0.19632
 H812 H 0.56621 0.04007 -0.16812
 H813 H 0.62874 -0.00406 -0.29306
 H814 H 0.60922 -0.00129 -0.33496
 H815 H 0.53343 0.01141 -0.30266
 H816 H 0.55504 0.00915 -0.26093
 C817 C 0.66298 0.07984 -0.24469
 C818 C 0.66628 -0.07157 -0.23026
 C819 C 0.56944 0.00520 -0.32259
 C820 C 0.54841 0.00342 -0.17947
 C821 C 0.06388 0.23490 0.88299
 H822 H 0.06409 0.25153 0.89535
 C823 C 0.08730 0.22535 0.87396
 H824 H 0.10549 0.23509 0.87889
 C825 C 0.03993 0.20241 0.86078
 H826 H 0.02124 0.19374 0.85582
 C827 C 0.06288 0.19268 0.85068
 H828 H 0.06201 0.17670 0.83747
 N829 N 0.04080 0.22406 0.87541
 C830 C -0.03397 0.26225 0.86283
 H831 H -0.03705 0.26805 0.88196
 C832 C -0.05295 0.26785 0.84441
 H833 H -0.07091 0.27762 0.84962
 C834 C -0.00720 0.24117 0.83332
 H835 H 0.01078 0.23110 0.82903
 C836 C -0.02583 0.24623 0.81425
 H837 H -0.02231 0.23954 0.79544
 Zn838 Zn 0.00975 0.24003 0.88483
 N839 N -0.01215 0.24830 0.85720
 C840 C 0.02589 0.29064 0.88529
 N841 N 0.01701 0.27148 0.90039
 C842 C 0.01101 0.27600 0.92456
 C843 C 0.01266 0.30116 0.93408
 C844 C 0.02751 0.31611 0.89395
 C845 C -0.03195 0.20910 0.90080
 C846 C -0.04314 0.19017 0.91570
 C847 C -0.00338 0.18925 0.94160
 C848 C 0.00698 0.20828 0.92629
 N849 N -0.00722 0.21747 0.90621
 H850 H 0.03029 0.28628 0.86607
 H851 H 0.00386 0.26043 0.93611
 H852 H 0.00755 0.30463 0.95324
 H853 H 0.03306 0.33156 0.88132
 H854 H -0.04266 0.21623 0.88441
 H855 H -0.06249 0.18296 0.91075
 H856 H 0.00881 0.18109 0.95667
 H857 H 0.02677 0.21507 0.92979
 C858 C -0.04926 0.25918 0.81992
 C859 C 0.08668 0.20473 0.85688
 C860 C -0.02851 0.17954 0.93596
 C861 C 0.01988 0.32162 0.91831
 C862 C 0.46999 0.25362 0.17856
 H863 H 0.48906 0.26058 0.18469
 C864 C 0.45043 0.25012 0.19586
 H865 H 0.45466 0.25375 0.21550
 C866 C 0.44079 0.24167 0.14530
 H867 H 0.43690 0.23940 0.12546
 C868 C 0.42068 0.23829 0.16176
 H869 H 0.40140 0.23339 0.15430
 N870 N 0.46509 0.24822 0.15400
 C871 C 0.54292 0.24594 0.12429
 H872 H 0.53802 0.25548 0.10666
 C873 C 0.56889 0.23984 0.13047
 H874 H 0.58405 0.24476 0.11756
 C875 C 0.52898 0.22816 0.16265
 H876 H 0.51329 0.22309 0.17480
 C877 C 0.55478 0.22171 0.16965
 H878 H 0.55883 0.21270 0.18773
 Zn879 Zn 0.49047 0.25254 0.13012
 N880 N 0.52380 0.24106 0.14077
 C881 C 0.51185 0.30262 0.12950
 N882 N 0.49103 0.28783 0.12226
 C883 C 0.46977 0.29823 0.10981
 C884 C 0.46944 0.32449 0.10302
 C885 C 0.51244 0.32888 0.12294
 C886 C 0.47509 0.20768 0.10661
 C887 C 0.47389 0.18966 0.08739
 C888 C 0.48864 0.22301 0.05896
 C889 C 0.48871 0.24078 0.07869
 N890 N 0.48245 0.23261 0.10199
 H891 H 0.52806 0.29407 0.14026
 H892 H 0.45337 0.28592 0.10472
 H893 H 0.45286 0.33238 0.09222
 H894 H 0.52940 0.34042 0.12821
 H895 H 0.47141 0.20149 0.12553
 H896 H 0.46866 0.16963 0.09135
 H897 H 0.49514 0.22898 0.04073
 H898 H 0.49547 0.26049 0.07583
 C899 C 0.57509 0.22826 0.15369
 C900 C 0.42555 0.24188 0.18746
 C901 C 0.48182 0.19709 0.06365
 C902 C 0.49121 0.33991 0.10925
 C903 C -0.03392 0.73047 0.66028
 H904 H -0.01507 0.73089 0.66992
 C905 C -0.05534 0.72761 0.67354
 H906 H -0.05318 0.72474 0.69356
 C907 C -0.05873 0.73420 0.62185
 H908 H -0.06015 0.73900 0.60221
 C909 C -0.08286 0.73062 0.63561
 H910 H -0.10124 0.73238 0.62509
 N911 N -0.03606 0.73383 0.63361
 C912 C 0.03741 0.76434 0.63992
 H913 H 0.03156 0.78185 0.62979
 C914 C 0.06062 0.76400 0.65420
 H915 H 0.07255 0.78134 0.65439
 C916 C 0.02972 0.72005 0.65034
 H917 H 0.01771 0.70286 0.64817
 C918 C 0.05229 0.71910 0.66553
 H919 H 0.05693 0.70119 0.67557
 Zn920 Zn -0.00610 0.74147 0.61579
 N921 N 0.02287 0.74238 0.63787
 C922 C 0.00673 0.77925 0.58215
 N923 N -0.01036 0.77376 0.60032
 C924 C -0.02867 0.79140 0.60766
 C925 C -0.03000 0.81612 0.59665
 C926 C 0.00620 0.80361 0.57078
 C927 C 0.02637 0.70913 0.58854
 C928 C 0.03305 0.69080 0.57068
 C929 C -0.01260 0.68903 0.55736
 C930 C -0.01839 0.70754 0.57540
 N931 N 0.00090 0.71660 0.59106
 H932 H 0.02127 0.76487 0.57702
 H933 H -0.04181 0.78654 0.62243
 H934 H -0.04462 0.83004 0.60266
 H935 H 0.02060 0.80784 0.55691
 H936 H 0.04166 0.71744 0.60033
 H937 H 0.05333 0.68460 0.56930
 H938 H -0.02845 0.68104 0.54595
 H939 H -0.03833 0.71419 0.57701
 C940 C 0.06862 0.74102 0.66696
 C941 C -0.08159 0.72801 0.66073
 C942 C 0.01334 0.68012 0.55522
 C943 C -0.01213 0.82253 0.57819
 C944 C 0.53363 0.74871 0.33623
 H945 H 0.51439 0.75247 0.32794
 C946 C 0.55389 0.74079 0.32119
 H947 H 0.55012 0.73857 0.30127
 C948 C 0.56174 0.74613 0.37241
 H949 H 0.56423 0.74769 0.39251
 C950 C 0.58267 0.73843 0.35802
 H951 H 0.60169 0.73504 0.36706
 N952 N 0.53784 0.75072 0.36133
 C953 C 0.46446 0.77737 0.35877
 H954 H 0.47147 0.79551 0.36652
 C955 C 0.44079 0.77732 0.34529
 H956 H 0.42948 0.79529 0.34401
 C957 C 0.47072 0.73216 0.35125
 H958 H 0.48250 0.71466 0.35343
 C959 C 0.44755 0.73138 0.33696
 H960 H 0.44193 0.71318 0.32818
 Zn961 Zn 0.50956 0.75521 0.38176
 N962 N 0.47854 0.75486 0.36207
 C963 C 0.49014 0.79284 0.41239
 N964 N 0.51124 0.78669 0.39866
 C965 C 0.53051 0.80413 0.39442
 C966 C 0.52823 0.82956 0.40328
 C967 C 0.48684 0.81799 0.42118
 C968 C 0.51507 0.70369 0.39317
 C969 C 0.51271 0.68082 0.40669
 C970 C 0.50109 0.70642 0.44276
 C971 C 0.50362 0.72898 0.42840
 N972 N 0.50960 0.72705 0.40384
 H973 H 0.47473 0.77875 0.41466
 H974 H 0.54696 0.79871 0.38320
 H975 H 0.54354 0.84339 0.39955
 H976 H 0.46899 0.82285 0.43065
 H977 H 0.52083 0.70279 0.37391
 H978 H 0.51661 0.66225 0.39780
 H979 H 0.49541 0.70791 0.46203
 H980 H 0.50022 0.74779 0.43678
 C981 C 0.43204 0.75409 0.33414
 C982 C 0.57866 0.73524 0.33213
 C983 C 0.50495 0.68211 0.43150
 C984 C 0.50570 0.83690 0.41613
 Zr985 Zr 0.01463 -0.02413 1.02681
 O986 O 0.04106 -0.01226 1.05576
 O987 O 0.01328 -0.06432 1.03296
 O988 O -0.00116 -0.02953 1.06286
 O989 O 0.06127 -0.02509 0.98084
 O990 O -0.04335 -0.01468 1.05785
 O991 O 0.05363 -0.03757 1.02095
 O992 O -0.01648 -0.07884 1.00361
 O993 O -0.02477 -0.03320 1.01890
 O994 O 0.01248 -0.03812 0.99011
 O995 O -0.00667 0.01079 1.03187
 O996 O 0.03000 0.00590 1.00457
 Zr997 Zr -0.03459 0.01817 0.96300
 Zr998 Zr -0.04566 0.00191 1.02203
 Zr999 Zr 0.02573 -0.00784 0.96778
 Zr1000 Zr -0.02678 -0.04570 0.98183
 O1001 O 0.05716 0.01758 0.96082
 O1002 O -0.06194 -0.06314 0.99347
 O1003 O -0.01324 -0.01680 0.95754
 O1004 O -0.04964 -0.01173 0.98529
 O1005 O -0.03260 0.03219 0.99968
 O1006 O 0.00473 0.02719 0.97106
 C1007 C -0.00068 -0.08223 1.02259
 C1008 C 0.06840 -0.03602 1.00173
 C1009 C -0.02445 -0.02510 1.07093
 O1010 O -0.07901 -0.02178 1.02611
 O1011 O -0.07878 0.02424 1.01052
 O1012 O -0.07259 0.03373 0.96945
 C1013 C -0.08596 0.03498 0.98957
 O1014 O 0.03665 0.04342 1.03619
 Zr1015 Zr 0.00670 0.03980 1.00795
 O1016 O -0.03525 0.05865 0.95805
 O1017 O -0.05365 0.03068 1.04918
 O1018 O -0.00792 0.06410 1.03652
 O1019 O 0.03793 0.06140 0.99307
 O1020 O -0.01078 0.07335 0.99140
 C1021 C -0.02623 0.07691 0.97218
 O1022 O -0.06189 0.00614 0.93486
 O1023 O 0.03523 -0.03879 0.94341
 O1024 O -0.01963 0.02196 0.92655
 O1025 O 0.02182 0.00466 0.93050
 O1026 O -0.00972 -0.07338 0.95760
 O1027 O -0.05103 -0.05009 0.94913
 C1028 C 0.00285 0.01547 0.91779
 H1029 H 0.02307 -0.05420 0.98776
 H1030 H -0.06819 -0.01517 0.98053
 H1031 H 0.01134 0.04085 0.95978
 H1032 H -0.00488 0.01687 1.04938
 H1033 H -0.06145 -0.08170 0.98828
 H1034 H -0.09053 -0.01266 1.03791
 H1035 H -0.07034 0.02584 1.05692
 H1036 H 0.00044 0.08140 1.03490
 H1037 H -0.01921 -0.09003 0.95961
 H1038 H 0.05159 -0.03384 0.93512
 H1039 H 0.06777 0.00920 0.94779
 H1040 H 0.03607 0.07960 0.99908
 H1041 H -0.05743 -0.06827 0.94819
 H1042 H -0.06770 0.02206 0.92549
 H1043 H 0.04676 -0.02825 1.06507
 H1044 H 0.04060 0.06213 1.03881
 Zr1045 Zr 0.52617 0.47951 0.53792
 O1046 O 0.55394 0.48997 0.56626
 O1047 O 0.51955 0.44054 0.54649
 O1048 O 0.50999 0.47665 0.57385
 O1049 O 0.57290 0.47251 0.49265
 O1050 O 0.47107 0.49910 0.56988
 O1051 O 0.56319 0.46123 0.53262
 O1052 O 0.48797 0.42805 0.51804
 O1053 O 0.48591 0.47486 0.53059
 O1054 O 0.52230 0.46377 0.50202
 O1055 O 0.50923 0.51687 0.54171
 O1056 O 0.54470 0.50631 0.51444
 Zr1057 Zr 0.48165 0.52375 0.47257
 Zr1058 Zr 0.46933 0.51225 0.53250
 Zr1059 Zr 0.53870 0.49120 0.47836
 Zr1060 Zr 0.48228 0.46057 0.49419
 O1061 O 0.57245 0.51271 0.46955
 O1062 O 0.44509 0.44786 0.50579
 O1063 O 0.49883 0.48633 0.46853
 O1064 O 0.46362 0.49707 0.49641
 O1065 O 0.48542 0.53971 0.50853
 O1066 O 0.52185 0.52836 0.48027
 C1067 C 0.50291 0.42420 0.53753
 C1068 C 0.57857 0.46156 0.51384
 C1069 C 0.48840 0.48571 0.58253
 O1070 O 0.43429 0.49199 0.53926
 O1071 O 0.43758 0.53560 0.51949
 O1072 O 0.44524 0.54313 0.47829
 C1073 C 0.43145 0.54580 0.49804
 O1074 O 0.55482 0.54512 0.54549
 Zr1075 Zr 0.52556 0.54277 0.51644
 O1076 O 0.48653 0.56346 0.46532
 O1077 O 0.46454 0.54422 0.55699
 O1078 O 0.51200 0.57070 0.54238
 O1079 O 0.56045 0.55847 0.50218
 O1080 O 0.51508 0.57676 0.49625
 C1081 C 0.50012 0.58091 0.47684
 O1082 O 0.45303 0.51360 0.44489
 O1083 O 0.54501 0.45781 0.45604
 O1084 O 0.49694 0.52431 0.43597
 O1085 O 0.53590 0.50203 0.44054
 O1086 O 0.49626 0.42961 0.47176
 O1087 O 0.45774 0.45756 0.46152
 C1088 C 0.51858 0.51496 0.42749
 H1089 H 0.53105 0.44650 0.50058
 H1090 H 0.44475 0.49536 0.49189
 H1091 H 0.53026 0.54034 0.46843
 H1092 H 0.51198 0.52361 0.55891
 H1093 H 0.44346 0.42920 0.50119
 H1094 H 0.42477 0.50225 0.55185
 H1095 H 0.44747 0.54195 0.56506
 H1096 H 0.52214 0.58689 0.54002
 H1097 H 0.48491 0.41436 0.47461
 H1098 H 0.56210 0.46022 0.44805
 H1099 H 0.58169 0.50278 0.45654
 H1100 H 0.56132 0.57701 0.50738
 H1101 H 0.45002 0.43990 0.46073
 H1102 H 0.44914 0.52954 0.43477
 H1103 H 0.55793 0.47399 0.57630
 H1104 H 0.55946 0.56365 0.54825
 Zr1105 Zr 0.48703 1.03027 0.53247
 O1106 O 0.46040 1.01739 0.55941
 O1107 O 0.49717 1.06667 0.54662
 O1108 O 0.50581 1.02424 0.56820
 O1109 O 0.44108 1.05461 0.48866
 O1110 O 0.54101 0.99841 0.55942
 O1111 O 0.45091 1.05142 0.53056
 O1112 O 0.52852 1.08141 0.52064
 O1113 O 0.52737 1.03115 0.52618
 O1114 O 0.49178 1.05254 0.49996
 O1115 O 0.49877 0.99103 0.52925
 O1116 O 0.46414 1.01219 0.50407
 Zr1117 Zr 0.52270 0.99512 0.46006
 Zr1118 Zr 0.53857 0.99216 0.52082
 Zr1119 Zr 0.47115 1.03354 0.47136
 Zr1120 Zr 0.53168 1.05219 0.49312
 O1121 O 0.43437 1.01912 0.45874
 O1122 O 0.56963 1.05700 0.50965
 O1123 O 0.51109 1.03473 0.46299
 O1124 O 0.54506 1.01376 0.48831
 O1125 O 0.51785 0.97272 0.49242
 O1126 O 0.48242 0.99469 0.46662
 C1127 C 0.51370 1.08373 0.53959
 C1128 C 0.43631 1.05920 0.51173
 C1129 C 0.52688 1.01129 0.57469
 O1130 O 0.57699 1.00457 0.53052
 O1131 O 0.56589 0.96728 0.50413
 O1132 O 0.55724 0.97135 0.46216
 C1133 C 0.57065 0.96215 0.48120
 O1134 O 0.44870 0.97108 0.52704
 Zr1135 Zr 0.47785 0.97381 0.49960
 O1136 O 0.51260 0.95825 0.44622
 O1137 O 0.53899 0.95565 0.53958
 O1138 O 0.48753 0.93979 0.52079
 O1139 O 0.44099 0.96537 0.48223
 O1140 O 0.48336 0.94332 0.47427
 C1141 C 0.49740 0.94072 0.45487
 O1142 O 0.55085 1.00733 0.43428
 O1143 O 0.46893 1.07145 0.45539
 O1144 O 0.50557 1.00318 0.42416
 O1145 O 0.47198 1.03149 0.43210
 O1146 O 0.52184 1.08776 0.47442
 O1147 O 0.55762 1.05868 0.46340
 C1148 C 0.48623 1.01829 0.41708
 H1149 H 0.48510 1.07069 0.50132
 H1150 H 0.56390 1.01388 0.48435
 H1151 H 0.47203 0.98663 0.45282
 H1152 H 0.49586 0.98134 0.54497
 H1153 H 0.57368 1.07588 0.50908
 H1154 H 0.58514 0.99072 0.54129
 H1155 H 0.55669 0.95337 0.54749
 H1156 H 0.47437 0.92641 0.51625
 H1157 H 0.53468 1.10102 0.48015
 H1158 H 0.45135 1.07324 0.44709
 H1159 H 0.42571 1.03330 0.44877
 H1160 H 0.43765 0.94653 0.48493
 H1161 H 0.56799 1.07457 0.46689
 H1162 H 0.55241 0.99329 0.42165
 H1163 H 0.45868 1.03163 0.57182
 H1164 H 0.44167 0.95312 0.52728
 Zr1165 Zr -0.01922 0.51717 1.02655
 O1166 O -0.04457 0.50151 1.05326
 O1167 O -0.01599 0.55568 1.03855
 O1168 O -0.00089 0.51654 1.06293
 O1169 O -0.06684 0.52969 0.98032
 O1170 O 0.03886 0.49735 1.05638
 O1171 O -0.05781 0.53321 1.02221
 O1172 O 0.01352 0.57344 1.01226
 O1173 O 0.02079 0.52357 1.02142
 O1174 O -0.01631 0.53799 0.99297
 O1175 O -0.00170 0.47984 1.02584
 O1176 O -0.03774 0.49416 0.99866
 Zr1177 Zr 0.02458 0.48375 0.95738
 Zr1178 Zr 0.03785 0.48635 1.01870
 Zr1179 Zr -0.03248 0.51456 0.96511
 Zr1180 Zr 0.02352 0.54319 0.98747
 O1181 O -0.06539 0.49418 0.95051
 O1182 O 0.05893 0.55444 1.00600
 O1183 O 0.00710 0.52130 0.95793
 O1184 O 0.04273 0.50684 0.98523
 O1185 O 0.02148 0.46266 0.99079
 O1186 O -0.01543 0.47764 0.96255
 C1187 C -0.00254 0.57477 1.03035
 C1188 C -0.07315 0.53600 1.00261
 C1189 C 0.02226 0.50870 1.07045
 O1190 O 0.07454 0.50374 1.02699
 O1191 O 0.06753 0.46228 1.00461
 O1192 O 0.06098 0.46338 0.96222
 C1193 C 0.07372 0.45592 0.98230
 O1194 O -0.04667 0.45048 1.02394
 Zr1195 Zr -0.01837 0.45796 0.99650
 O1196 O 0.02023 0.44543 0.94474
 O1197 O 0.04230 0.45264 1.04159
 O1198 O -0.00353 0.42637 1.01868
 O1199 O -0.05375 0.44495 0.97910
 O1200 O -0.00833 0.42773 0.97199
 C1201 C 0.00687 0.42642 0.95328
 O1202 O 0.05286 0.49828 0.93287
 O1203 O -0.04042 0.55146 0.94834
 O1204 O 0.00877 0.48917 0.92037
 O1205 O -0.02867 0.51280 0.92631
 O1206 O 0.00996 0.57556 0.96561
 O1207 O 0.05031 0.55198 0.95902
 C1208 C -0.01176 0.50204 0.91221
 H1209 H -0.02595 0.55488 0.99283
 H1210 H 0.06153 0.50922 0.98181
 H1211 H -0.02387 0.46780 0.94864
 H1212 H -0.00375 0.47075 1.04204
 H1213 H 0.06006 0.57371 1.00471
 H1214 H 0.08454 0.49136 1.03803
 H1215 H 0.06001 0.45338 1.04970
 H1216 H -0.01356 0.41062 1.01383
 H1217 H 0.02015 0.59102 0.97105
 H1218 H -0.05768 0.55019 0.93945
 H1219 H -0.07527 0.50650 0.93932
 H1220 H -0.05453 0.42579 0.98160
 H1221 H 0.05833 0.56918 0.96245
 H1222 H 0.05674 0.48411 0.92088
 H1223 H -0.04905 0.51595 1.06475
 H1224 H -0.05095 0.43165 1.02390
 Zr1225 Zr -0.02617 0.47718 0.46023
 O1226 O -0.05416 0.48764 0.43176
 O1227 O -0.02216 0.43698 0.45430
 O1228 O -0.01163 0.47274 0.42374
 O1229 O -0.07201 0.47645 0.50692
 O1230 O 0.02978 0.48933 0.42664
 O1231 O -0.06437 0.46290 0.46720
 O1232 O 0.00686 0.42341 0.48509
 O1233 O 0.01373 0.46890 0.46761
 O1234 O -0.02294 0.46396 0.49725
 O1235 O -0.00634 0.51242 0.45400
 O1236 O -0.04229 0.50745 0.48188
 Zr1237 Zr 0.02236 0.52147 0.52197
 Zr1238 Zr 0.03324 0.50431 0.46314
 Zr1239 Zr -0.03697 0.49449 0.51897
 Zr1240 Zr 0.01671 0.45726 0.50511
 O1241 O -0.06928 0.51956 0.52560
 O1242 O 0.05207 0.43981 0.49313
 O1243 O 0.00248 0.48636 0.52884
 O1244 O 0.03811 0.49138 0.50022
 O1245 O 0.01945 0.53495 0.48498
 O1246 O -0.01738 0.52972 0.51438
 C1247 C -0.00809 0.41942 0.46576
 C1248 C -0.07897 0.46482 0.48651
 C1249 C 0.01058 0.47876 0.41445
 O1250 O 0.06614 0.47980 0.45728
 O1251 O 0.06745 0.52442 0.47469
 O1252 O 0.05984 0.53672 0.51479
 C1253 C 0.07417 0.53586 0.49530
 O1254 O -0.05036 0.54439 0.44882
 Zr1255 Zr -0.02041 0.54167 0.47726
 O1256 O 0.02174 0.56202 0.52565
 O1257 O 0.04053 0.53426 0.43693
 O1258 O -0.00649 0.56602 0.44845
 O1259 O -0.05297 0.56232 0.49151
 O1260 O -0.00543 0.57597 0.49359
 C1261 C 0.01062 0.58001 0.51215
 O1262 O 0.05027 0.51043 0.55030
 O1263 O -0.04498 0.46404 0.54444
 O1264 O 0.00783 0.52626 0.55846
 O1265 O -0.03288 0.50802 0.55582
 O1266 O 0.00132 0.43014 0.53078
 O1267 O 0.04195 0.45407 0.53737
 C1268 C -0.01423 0.51972 0.56779
 H1269 H -0.03281 0.44774 0.50018
 H1270 H 0.05680 0.48801 0.50482
 H1271 H -0.02440 0.54351 0.52535
 H1272 H -0.00882 0.51853 0.43649
 H1273 H 0.05236 0.42141 0.49899
 H1274 H 0.07647 0.48832 0.44419
 H1275 H 0.05708 0.52951 0.42873
 H1276 H -0.01557 0.58317 0.44969
 H1277 H 0.01145 0.41361 0.52930
 H1278 H -0.06172 0.46867 0.55236
 H1279 H -0.07926 0.51142 0.53915
 H1280 H -0.05228 0.58046 0.48501
 H1281 H 0.04916 0.43606 0.53868
 H1282 H 0.05571 0.52662 0.55909
 H1283 H -0.05924 0.47135 0.42293
 H1284 H -0.05477 0.56301 0.44553
 Zr1285 Zr 0.46310 -0.00541 -0.04004
 O1286 O 0.43338 0.00315 -0.06744
 O1287 O 0.47256 -0.04411 -0.04850
 O1288 O 0.47788 -0.00662 -0.07678
 O1289 O 0.41813 -0.01381 0.00664
 O1290 O 0.51385 0.01954 -0.07426
 O1291 O 0.42804 -0.02587 -0.03309
 O1292 O 0.50499 -0.05483 -0.01991
 O1293 O 0.50382 -0.00777 -0.03406
 O1294 O 0.46946 -0.02067 -0.00400
 O1295 O 0.47663 0.03298 -0.04435
 O1296 O 0.44336 0.02028 -0.01594
 Zr1297 Zr 0.50644 0.04199 0.02349
 Zr1298 Zr 0.51711 0.03060 -0.03661
 Zr1299 Zr 0.45196 0.00575 0.02015
 Zr1300 Zr 0.50981 -0.02156 0.00250
 O1301 O 0.41809 0.02593 0.03194
 O1302 O 0.54704 -0.03252 -0.01098
 O1303 O 0.49251 0.00354 0.02828
 O1304 O 0.52527 0.01586 -0.00058
 O1305 O 0.49988 0.05739 -0.01252
 O1306 O 0.46564 0.04404 0.01761
 C1307 C 0.48985 -0.05990 -0.03887
 C1308 C 0.41299 -0.02578 -0.01406
 C1309 C 0.49754 0.00506 -0.08641
 O1310 O 0.55204 0.01087 -0.04619
 O1311 O 0.54971 0.05243 -0.02470
 O1312 O 0.54251 0.06122 0.01632
 C1313 C 0.55653 0.06235 -0.00348
 O1314 O 0.42824 0.05793 -0.04628
 Zr1315 Zr 0.45916 0.05786 -0.01871
 O1316 O 0.49975 0.08208 0.02884
 O1317 O 0.51932 0.06428 -0.05951
 O1318 O 0.46794 0.08631 -0.04610
 O1319 O 0.42414 0.07114 -0.00224
 O1320 O 0.46816 0.09299 -0.00053
 C1321 C 0.48460 0.09866 0.01720
 O1322 O 0.53609 0.03471 0.05131
 O1323 O 0.44791 -0.02885 0.04143
 O1324 O 0.49243 0.04133 0.06062
 O1325 O 0.45774 0.01342 0.05848
 O1326 O 0.49911 -0.05234 0.02670
 O1327 O 0.53639 -0.02333 0.03388
 C1328 C 0.47410 0.02790 0.07065
 H1329 H 0.46214 -0.03838 -0.00206
 H1330 H 0.54434 0.01460 0.00332
 H1331 H 0.45714 0.05555 0.02989
 H1332 H 0.47253 0.03978 -0.06139
 H1333 H 0.55029 -0.05105 -0.00628
 H1334 H 0.55988 0.02112 -0.05977
 H1335 H 0.53572 0.06263 -0.06890
 H1336 H 0.45618 0.10158 -0.04367
 H1337 H 0.51104 -0.06733 0.02362
 H1338 H 0.43078 -0.02755 0.04964
 H1339 H 0.40994 0.01470 0.04461
 H1340 H 0.42126 0.08959 -0.00744
 H1341 H 0.54541 -0.04057 0.03437
 H1342 H 0.53892 0.05131 0.06051
 H1343 H 0.43036 -0.01309 -0.07714
 H1344 H 0.42073 0.07579 -0.04806
 Zr1345 Zr 0.52009 0.51872 -0.02771
 O1346 O 0.54919 0.50212 -0.05037
 O1347 O 0.51526 0.55582 -0.04395
 O1348 O 0.50588 0.51350 -0.06521
 O1349 O 0.56320 0.53543 0.02100
 O1350 O 0.46880 0.48954 -0.06068
 O1351 O 0.55733 0.53619 -0.02148
 O1352 O 0.48043 0.57306 -0.02362
 O1353 O 0.47938 0.52408 -0.02667
 O1354 O 0.51310 0.54238 0.00330
 O1355 O 0.50447 0.48094 -0.02494
 O1356 O 0.53679 0.49858 0.00356
 Zr1357 Zr 0.47136 0.48966 0.03976
 Zr1358 Zr 0.46398 0.48673 -0.02208
 Zr1359 Zr 0.52761 0.52176 0.03449
 Zr1360 Zr 0.47256 0.54642 0.00507
 O1361 O 0.56015 0.50410 0.05373
 O1362 O 0.43675 0.55525 -0.01453
 O1363 O 0.48706 0.52765 0.03773
 O1364 O 0.45505 0.50993 0.00870
 O1365 O 0.47836 0.46557 0.00908
 O1366 O 0.51209 0.48467 0.03857
 C1367 C 0.49805 0.57382 -0.04028
 C1368 C 0.57114 0.54004 -0.00117
 C1369 C 0.48578 0.50098 -0.07402
 O1370 O 0.43005 0.50462 -0.03859
 O1371 O 0.43036 0.46874 -0.00889
 O1372 O 0.43583 0.46895 0.03360
 C1373 C 0.42276 0.46349 0.01323
 O1374 O 0.54951 0.45217 -0.01737
 Zr1375 Zr 0.51909 0.46197 0.00738
 O1376 O 0.47636 0.45301 0.05653
 O1377 O 0.46124 0.44912 -0.03819
 O1378 O 0.50718 0.42771 -0.01179
 O1379 O 0.55426 0.45247 0.02772
 O1380 O 0.50974 0.43444 0.03510
 C1381 C 0.49283 0.43448 0.05250
 O1382 O 0.44080 0.50596 0.06083
 O1383 O 0.53206 0.56021 0.04827
 O1384 O 0.48419 0.49639 0.07715
 O1385 O 0.52036 0.52186 0.07305
 O1386 O 0.48396 0.58170 0.02278
 O1387 O 0.44447 0.55687 0.03196
 C1388 C 0.50344 0.50991 0.08620
 H1389 H 0.52171 0.55958 0.00221
 H1390 H 0.43591 0.51253 0.01025
 H1391 H 0.52000 0.47634 0.05378
 H1392 H 0.50866 0.47026 -0.03972
 H1393 H 0.43442 0.57451 -0.01459
 H1394 H 0.42211 0.49173 -0.05026
 H1395 H 0.44505 0.44909 -0.04891
 H1396 H 0.51722 0.41283 -0.00423
 H1397 H 0.47321 0.59601 0.01507
 H1398 H 0.54816 0.56008 0.05912
 H1399 H 0.56777 0.51749 0.06505
 H1400 H 0.55636 0.43320 0.02751
 H1401 H 0.43681 0.57425 0.02771
 H1402 H 0.43618 0.49268 0.07349
 H1403 H 0.55388 0.51567 -0.06274
 H1404 H 0.55437 0.43350 -0.01519
 Zr1405 Zr 0.02910 1.01624 0.46443
 O1406 O 0.05741 1.00048 0.44039
 O1407 O 0.02510 1.05438 0.45073
 O1408 O 0.01474 1.01454 0.42680
 O1409 O 0.07364 1.02668 0.51352
 O1410 O -0.02457 0.99397 0.43000
 O1411 O 0.06692 1.03223 0.47145
 O1412 O -0.00596 1.07248 0.47536
 O1413 O -0.01125 1.02384 0.46682
 O1414 O 0.02405 1.03687 0.49766
 O1415 O 0.01105 0.97947 0.46389
 O1416 O 0.04534 0.99216 0.49321
 Zr1417 Zr -0.02006 0.98314 0.53005
 Zr1418 Zr -0.02897 0.98722 0.46824
 Zr1419 Zr 0.03799 1.01237 0.52636
 Zr1420 Zr -0.01607 1.04305 0.50073
 O1421 O 0.06964 0.99066 0.54281
 O1422 O -0.05116 1.05585 0.48197
 O1423 O -0.00205 1.02014 0.53100
 O1424 O -0.03577 1.00744 0.50139
 O1425 O -0.01510 0.96235 0.49685
 O1426 O 0.02026 0.97590 0.52750
 C1427 C 0.01020 1.07332 0.45738
 C1428 C 0.08116 1.03383 0.49181
 C1429 C -0.00646 1.00456 0.41737
 O1430 O -0.06232 1.00824 0.45435
 O1431 O -0.06312 0.96920 0.48046
 O1432 O -0.05683 0.96502 0.52271
 C1433 C -0.07052 0.96203 0.50219
 O1434 O 0.05632 0.94936 0.46905
 Zr1435 Zr 0.02525 0.95660 0.49382
 O1436 O -0.01698 0.94451 0.54292
 O1437 O -0.03404 0.95173 0.44860
 O1438 O 0.01332 0.92597 0.46959
 O1439 O 0.05817 0.94127 0.51443
 O1440 O 0.01141 0.92599 0.51580
 C1441 C -0.00430 0.92495 0.53412
 O1442 O -0.04951 0.99836 0.55314
 O1443 O 0.04517 1.04869 0.54395
 O1444 O -0.00663 0.98694 0.56779
 O1445 O 0.03129 1.00984 0.56477
 O1446 O -0.00260 1.07519 0.52228
 O1447 O -0.04341 1.05231 0.52867
 C1448 C 0.01339 0.99892 0.57745
 H1449 H 0.03353 1.05365 0.49806
 H1450 H -0.05470 1.01087 0.50358
 H1451 H 0.02750 0.96539 0.54174
 H1452 H 0.01439 0.97010 0.44812
 H1453 H -0.05219 1.07512 0.48357
 H1454 H -0.07151 0.99674 0.44215
 H1455 H -0.05033 0.95368 0.43814
 H1456 H 0.02315 0.91000 0.47494
 H1457 H -0.01244 1.09092 0.51627
 H1458 H 0.06191 1.04677 0.55373
 H1459 H 0.07884 1.00247 0.55471
 H1460 H 0.05849 0.92211 0.51182
 H1461 H -0.05056 1.07016 0.52570
 H1462 H -0.05452 0.98407 0.56460
 H1463 H 0.06268 1.01480 0.42908
 H1464 H 0.06145 0.93065 0.46986
 Zr1465 Zr 0.72457 0.26319 0.21754
 O1466 O 0.73418 0.29505 0.19427
 O1467 O 0.68821 0.25238 0.20191
 O1468 O 0.72976 0.25151 0.17989
 O1469 O 0.70298 0.30092 0.26676
 O1470 O 0.75829 0.21696 0.18355
 O1471 O 0.70162 0.29734 0.22425
 O1472 O 0.67800 0.21551 0.22347
 O1473 O 0.72573 0.22228 0.21916
 O1474 O 0.70460 0.25222 0.24949
 O1475 O 0.76461 0.25267 0.21859
 O1476 O 0.74434 0.28166 0.24777
 Zr1477 Zr 0.76631 0.21726 0.28409
 Zr1478 Zr 0.76537 0.21190 0.22204
 Zr1479 Zr 0.72531 0.26859 0.27966
 Zr1480 Zr 0.70715 0.21169 0.25187
 O1481 O 0.73920 0.30329 0.29661
 O1482 O 0.70252 0.17512 0.23382
 O1483 O 0.72606 0.22777 0.28359
 O1484 O 0.74631 0.19923 0.25395
 O1485 O 0.78639 0.22818 0.25213
 O1486 O 0.76495 0.25816 0.28220
 C1487 C 0.67381 0.23241 0.20592
 C1488 C 0.69584 0.30910 0.24479
 C1489 C 0.74404 0.23318 0.17057
 O1490 O 0.75172 0.17616 0.20710
 O1491 O 0.79052 0.18171 0.23465
 O1492 O 0.79063 0.18394 0.27723
 C1493 C 0.79770 0.17330 0.25650
 O1494 O 0.78472 0.30200 0.22587
 Zr1495 Zr 0.78364 0.26885 0.24989
 O1496 O 0.80414 0.22554 0.29746
 O1497 O 0.80145 0.21470 0.20370
 O1498 O 0.81670 0.26333 0.22732
 O1499 O 0.79139 0.30307 0.27098
 O1500 O 0.81600 0.26071 0.27420
 C1501 C 0.82049 0.24306 0.29105
 O1502 O 0.75628 0.18533 0.30704
 O1503 O 0.68816 0.26672 0.29615
 O1504 O 0.76155 0.22929 0.32177
 O1505 O 0.73016 0.26143 0.31819
 O1506 O 0.67140 0.21823 0.27026
 O1507 O 0.70324 0.18264 0.27999
 C1508 C 0.74602 0.24662 0.33110
 H1509 H 0.68606 0.25822 0.24890
 H1510 H 0.74684 0.17997 0.25567
 H1511 H 0.77374 0.26665 0.29673
 H1512 H 0.77333 0.25864 0.20333
 H1513 H 0.68385 0.17017 0.23486
 H1514 H 0.76455 0.17049 0.19462
 H1515 H 0.80308 0.19894 0.19311
 H1516 H 0.83039 0.27556 0.23336
 H1517 H 0.65846 0.20575 0.26320
 H1518 H 0.68653 0.28238 0.30686
 H1519 H 0.72599 0.30873 0.30882
 H1520 H 0.81009 0.30743 0.26892
 H1521 H 0.68666 0.17310 0.27701
 H1522 H 0.77136 0.18218 0.31886
 H1523 H 0.71912 0.29793 0.18234
 H1524 H 0.80258 0.30941 0.22646
 Zr1525 Zr 0.76461 0.73240 0.71450
 O1526 O 0.74556 0.71109 0.68555
 O1527 O 0.80311 0.73214 0.70302
 O1528 O 0.76532 0.75311 0.67987
 O1529 O 0.77027 0.67945 0.75533
 O1530 O 0.75129 0.79401 0.69020
 O1531 O 0.77730 0.69266 0.71525
 O1532 O 0.82527 0.75473 0.73348
 O1533 O 0.77723 0.76997 0.72430
 O1534 O 0.78529 0.72882 0.74879
 O1535 O 0.73034 0.75537 0.71628
 O1536 O 0.73847 0.71503 0.73933
 Zr1537 Zr 0.73690 0.77355 0.78734
 Zr1538 Zr 0.74294 0.79223 0.72820
 Zr1539 Zr 0.75906 0.71377 0.77394
 Zr1540 Zr 0.79655 0.76620 0.75906
 O1541 O 0.73323 0.68342 0.78335
 O1542 O 0.81366 0.80102 0.74589
 O1543 O 0.77162 0.75073 0.78587
 O1544 O 0.76339 0.79029 0.76264
 O1545 O 0.71611 0.77735 0.75317
 O1546 O 0.72488 0.73594 0.77730
 C1547 C 0.82411 0.74144 0.71307
 C1548 C 0.77769 0.67526 0.73290
 C1549 C 0.75949 0.77718 0.67439
 O1550 O 0.76756 0.82452 0.72206
 O1551 O 0.72805 0.82553 0.74603
 O1552 O 0.72190 0.81243 0.78625
 C1553 C 0.72058 0.82958 0.76844
 O1554 O 0.69487 0.71516 0.71205
 Zr1555 Zr 0.70553 0.73963 0.74263
 O1556 O 0.69800 0.77352 0.79869
 O1557 O 0.70888 0.80513 0.70799
 O1558 O 0.67682 0.76025 0.72059
 O1559 O 0.68597 0.70623 0.75603
 O1560 O 0.67647 0.75294 0.76652
 C1561 C 0.67714 0.76502 0.78755
 O1562 O 0.75534 0.79646 0.81550
 O1563 O 0.79385 0.69845 0.79129
 O1564 O 0.73861 0.75388 0.82232
 O1565 O 0.75691 0.71430 0.81305
 O1566 O 0.82637 0.74546 0.77960
 O1567 O 0.80900 0.78760 0.79118
 C1568 C 0.74807 0.73118 0.82851
 H1569 H 0.80088 0.71718 0.74822
 H1570 H 0.76885 0.80783 0.76838
 H1571 H 0.71343 0.72794 0.78977
 H1572 H 0.72099 0.75630 0.69979
 H1573 H 0.83295 0.79888 0.74781
 H1574 H 0.75740 0.83711 0.71138
 H1575 H 0.71252 0.82296 0.70179
 H1576 H 0.65961 0.75223 0.72369
 H1577 H 0.84338 0.75347 0.77569
 H1578 H 0.78944 0.68126 0.79859
 H1579 H 0.74350 0.67095 0.79408
 H1580 H 0.66692 0.70904 0.75271
 H1581 H 0.82748 0.79286 0.78942
 H1582 H 0.74165 0.80141 0.82744
 H1583 H 0.75926 0.70582 0.67373
 H1584 H 0.67556 0.71328 0.71109
 Zr1585 Zr 0.23951 0.20215 0.79925
 O1586 O 0.25836 0.17401 0.82291
 O1587 O 0.20184 0.20265 0.81291
 O1588 O 0.24116 0.21556 0.83666
 O1589 O 0.22726 0.15932 0.75040
 O1590 O 0.26069 0.25541 0.83386
 O1591 O 0.22382 0.16458 0.79253
 O1592 O 0.18026 0.23293 0.78827
 O1593 O 0.23017 0.24211 0.79741
 O1594 O 0.21692 0.20772 0.76634
 O1595 O 0.27565 0.22141 0.79959
 O1596 O 0.26250 0.18767 0.77015
 Zr1597 Zr 0.26720 0.25466 0.73363
 Zr1598 Zr 0.26623 0.26120 0.79550
 Zr1599 Zr 0.24027 0.19569 0.73731
 Zr1600 Zr 0.20880 0.24748 0.76393
 O1601 O 0.26220 0.16540 0.72069
 O1602 O 0.19565 0.27989 0.78490
 O1603 O 0.23068 0.23552 0.73319
 O1604 O 0.24387 0.26848 0.76269
 O1605 O 0.28996 0.24908 0.76647
 O1606 O 0.27607 0.21467 0.73585
 C1607 C 0.18126 0.21553 0.80581
 C1608 C 0.22107 0.15116 0.77223
 C1609 C 0.25049 0.23671 0.84625
 O1610 O 0.24518 0.29388 0.80888
 O1611 O 0.28407 0.29563 0.78292
 O1612 O 0.28548 0.29109 0.74059
 C1613 C 0.29031 0.30372 0.76106
 O1614 O 0.30696 0.17765 0.79424
 Zr1615 Zr 0.29735 0.20898 0.76927
 O1616 O 0.30544 0.25347 0.72045
 O1617 O 0.30221 0.26627 0.81557
 O1618 O 0.32899 0.22162 0.79265
 O1619 O 0.31260 0.17707 0.74888
 O1620 O 0.32621 0.22366 0.74617
 C1621 C 0.32583 0.24052 0.72830
 O1622 O 0.24960 0.28463 0.71122
 O1623 O 0.20327 0.18821 0.71993
 O1624 O 0.26192 0.24287 0.69581
 O1625 O 0.24082 0.20396 0.69889
 O1626 O 0.17630 0.23507 0.74152
 O1627 O 0.19704 0.27679 0.73749
 C1628 C 0.25027 0.22283 0.68615
 H1629 H 0.20049 0.19761 0.76575
 H1630 H 0.23990 0.28736 0.76062
 H1631 H 0.28606 0.20836 0.72143
 H1632 H 0.28579 0.21784 0.81534
 H1633 H 0.17621 0.27995 0.78392
 H1634 H 0.25698 0.30276 0.82113
 H1635 H 0.30028 0.28227 0.82576
 H1636 H 0.34498 0.21225 0.78735
 H1637 H 0.16044 0.24393 0.74780
 H1638 H 0.20537 0.17223 0.70977
 H1639 H 0.25005 0.15629 0.70894
 H1640 H 0.33193 0.17700 0.75146
 H1641 H 0.17951 0.28372 0.74168
 H1642 H 0.26303 0.29059 0.69948
 H1643 H 0.24498 0.16757 0.83446
 H1644 H 0.32594 0.17351 0.79355
 Zr1645 Zr 0.27488 0.77998 0.28215
 O1646 O 0.26487 0.81029 0.30708
 O1647 O 0.31353 0.77170 0.29404
 O1648 O 0.27264 0.76630 0.31960
 O1649 O 0.29380 0.81889 0.23260
 O1650 O 0.24407 0.73223 0.31702
 O1651 O 0.29533 0.81520 0.27514
 O1652 O 0.32361 0.73447 0.27276
 O1653 O 0.27470 0.73903 0.28046
 O1654 O 0.29366 0.76971 0.24930
 O1655 O 0.23517 0.76923 0.28244
 O1656 O 0.25365 0.79912 0.25281
 Zr1657 Zr 0.23228 0.73538 0.21654
 Zr1658 Zr 0.23508 0.72849 0.27863
 Zr1659 Zr 0.27175 0.78678 0.22009
 Zr1660 Zr 0.29225 0.72916 0.24703
 O1661 O 0.25585 0.82145 0.20379
 O1662 O 0.29833 0.69340 0.26667
 O1663 O 0.27211 0.74598 0.21604
 O1664 O 0.25341 0.71660 0.24598
 O1665 O 0.21298 0.74550 0.24924
 O1666 O 0.23241 0.77621 0.21862
 C1667 C 0.32895 0.75275 0.28841
 C1668 C 0.30076 0.82702 0.25451
 C1669 C 0.25920 0.74778 0.32935
 O1670 O 0.24877 0.69186 0.29249
 O1671 O 0.20908 0.69920 0.26616
 O1672 O 0.20883 0.70227 0.22357
 C1673 C 0.20178 0.69149 0.24417
 O1674 O 0.21422 0.81895 0.27610
 Zr1675 Zr 0.21476 0.78612 0.25189
 O1676 O 0.19427 0.74473 0.20367
 O1677 O 0.19979 0.73191 0.29823
 O1678 O 0.18276 0.78120 0.27582
 O1679 O 0.20512 0.82023 0.23073
 O1680 O 0.18143 0.77746 0.22962
 C1681 C 0.17730 0.76108 0.21183
 O1682 O 0.24178 0.70335 0.19343
 O1683 O 0.30841 0.78603 0.20252
 O1684 O 0.23720 0.74668 0.17868
 O1685 O 0.26688 0.77966 0.18168
 O1686 O 0.32650 0.73481 0.22623
 O1687 O 0.29556 0.69950 0.21956
 C1688 C 0.25234 0.76385 0.16902
 H1689 H 0.31192 0.77597 0.24871
 H1690 H 0.25318 0.69737 0.24410
 H1691 H 0.22305 0.78465 0.20418
 H1692 H 0.22704 0.77483 0.29815
 H1693 H 0.31710 0.68849 0.26539
 H1694 H 0.23572 0.68575 0.30450
 H1695 H 0.19823 0.71571 0.30827
 H1696 H 0.16874 0.79362 0.27019
 H1697 H 0.33996 0.72209 0.23253
 H1698 H 0.30896 0.80175 0.19166
 H1699 H 0.26844 0.82734 0.19125
 H1700 H 0.18637 0.82435 0.23340
 H1701 H 0.31156 0.68885 0.22320
 H1702 H 0.22651 0.70053 0.18184
 H1703 H 0.28051 0.81332 0.31815
 H1704 H 0.19657 0.82722 0.27537
 Zr1705 Zr 0.22557 0.76016 0.71965
 O1706 O 0.23624 0.78885 0.69330
 O1707 O 0.18610 0.75478 0.71038
 O1708 O 0.22368 0.74534 0.68264
 O1709 O 0.21471 0.80331 0.76797
 O1710 O 0.24457 0.70569 0.68606
 O1711 O 0.20674 0.79664 0.72632
 O1712 O 0.17422 0.72097 0.73554
 O1713 O 0.22141 0.71972 0.72443
 O1714 O 0.20951 0.75435 0.75475
 O1715 O 0.26335 0.74394 0.71629
 O1716 O 0.25173 0.77817 0.74531
 Zr1717 Zr 0.27021 0.71421 0.78420
 Zr1718 Zr 0.25926 0.70388 0.72319
 Zr1719 Zr 0.23619 0.77029 0.78042
 Zr1720 Zr 0.20684 0.71426 0.76004
 O1721 O 0.25623 0.80470 0.79106
 O1722 O 0.19531 0.67775 0.74493
 O1723 O 0.23210 0.73019 0.78771
 O1724 O 0.24393 0.69663 0.75841
 O1725 O 0.28641 0.71953 0.74897
 O1726 O 0.27393 0.75454 0.77882
 C1727 C 0.16974 0.73788 0.71800
 C1728 C 0.20450 0.81006 0.74659
 C1729 C 0.23173 0.72343 0.67357
 O1730 O 0.24053 0.66825 0.71436
 O1731 O 0.28336 0.67243 0.73510
 O1732 O 0.28999 0.67822 0.77708
 C1733 C 0.29311 0.66533 0.75658
 O1734 O 0.29091 0.78970 0.71588
 Zr1735 Zr 0.28873 0.75980 0.74343
 O1736 O 0.31001 0.71940 0.79301
 O1737 O 0.29117 0.70113 0.69891
 O1738 O 0.31748 0.74750 0.71804
 O1739 O 0.30346 0.79452 0.75991
 O1740 O 0.32276 0.74977 0.76462
 C1741 C 0.32721 0.73410 0.78317
 O1742 O 0.26017 0.68499 0.81023
 O1743 O 0.20277 0.77386 0.80273
 O1744 O 0.27065 0.72885 0.82153
 O1745 O 0.24717 0.76710 0.81833
 O1746 O 0.17537 0.72632 0.78249
 O1747 O 0.20338 0.68806 0.79067
 C1748 C 0.26073 0.74997 0.83081
 H1749 H 0.19196 0.76253 0.75632
 H1750 H 0.24250 0.67768 0.76180
 H1751 H 0.28565 0.76289 0.79144
 H1752 H 0.27022 0.74724 0.69946
 H1753 H 0.17643 0.67558 0.74820
 H1754 H 0.25061 0.65996 0.70091
 H1755 H 0.28923 0.68442 0.68977
 H1756 H 0.33347 0.75786 0.72155
 H1757 H 0.16019 0.71511 0.77813
 H1758 H 0.20428 0.79070 0.81172
 H1759 H 0.24564 0.81338 0.80393
 H1760 H 0.32209 0.79600 0.75539
 H1761 H 0.18599 0.67963 0.78967
 H1762 H 0.27620 0.68107 0.82061
 H1763 H 0.22030 0.79309 0.68291
 H1764 H 0.30945 0.79466 0.71396
 Zr1765 Zr 0.26898 0.24016 0.22677
 O1766 O 0.25594 0.21815 0.19543
 O1767 O 0.30965 0.23806 0.22314
 O1768 O 0.27610 0.25891 0.19209
 O1769 O 0.26408 0.18876 0.26920
 O1770 O 0.26346 0.30113 0.19862
 O1771 O 0.27824 0.19976 0.23053
 O1772 O 0.32617 0.26226 0.25558
 O1773 O 0.28140 0.27749 0.23755
 O1774 O 0.28224 0.23713 0.26407
 O1775 O 0.23585 0.26463 0.22172
 O1776 O 0.23708 0.22524 0.24648
 Zr1777 Zr 0.22936 0.28597 0.29168
 Zr1778 Zr 0.24790 0.30138 0.23435
 Zr1779 Zr 0.25032 0.22435 0.28396
 Zr1780 Zr 0.29311 0.27444 0.27520
 O1781 O 0.22154 0.19528 0.28802
 O1782 O 0.31391 0.30851 0.26556
 O1783 O 0.26243 0.26112 0.29705
 O1784 O 0.26114 0.30030 0.27176
 O1785 O 0.21587 0.28903 0.25442
 O1786 O 0.21717 0.24860 0.28077
 C1787 C 0.32871 0.24798 0.23607
 C1788 C 0.27473 0.18309 0.24833
 C1789 C 0.27262 0.28288 0.18486
 O1790 O 0.27473 0.33244 0.23160
 O1791 O 0.23080 0.33585 0.24776
 O1792 O 0.21751 0.32575 0.28689
 C1793 C 0.21975 0.34174 0.26829
 O1794 O 0.19949 0.22553 0.21279
 Zr1795 Zr 0.20519 0.25151 0.24334
 O1796 O 0.18868 0.28923 0.29492
 O1797 O 0.21857 0.31404 0.20806
 O1798 O 0.18227 0.27113 0.21516
 O1799 O 0.18122 0.22041 0.25503
 O1800 O 0.17263 0.26915 0.25979
 C1801 C 0.16987 0.28268 0.27975
 O1802 O 0.24268 0.30943 0.32191
 O1803 O 0.27998 0.20892 0.30854
 O1804 O 0.22474 0.26798 0.32719
 O1805 O 0.23837 0.22588 0.32098
 O1806 O 0.31826 0.25314 0.30038
 O1807 O 0.29899 0.29548 0.30906
 C1808 C 0.22959 0.24434 0.33473
 H1809 H 0.29719 0.22481 0.26657
 H1810 H 0.26632 0.31783 0.27777
 H1811 H 0.20282 0.24206 0.29110
 H1812 H 0.22979 0.26512 0.20396
 H1813 H 0.33230 0.30604 0.27168
 H1814 H 0.26710 0.34497 0.21914
 H1815 H 0.22290 0.33213 0.20316
 H1816 H 0.16429 0.26400 0.21546
 H1817 H 0.33582 0.26123 0.30005
 H1818 H 0.27344 0.19212 0.31506
 H1819 H 0.22857 0.18274 0.30078
 H1820 H 0.16315 0.22420 0.24857
 H1821 H 0.31760 0.30067 0.31078
 H1822 H 0.22693 0.31544 0.33081
 H1823 H 0.27179 0.21195 0.18678
 H1824 H 0.18047 0.22321 0.20938
 Zr1825 Zr 0.73434 0.71818 0.28652
 O1826 O 0.74986 0.69372 0.31551
 O1827 O 0.69416 0.71753 0.29322
 O1828 O 0.72963 0.73475 0.32231
 O1829 O 0.73503 0.66908 0.24188
 O1830 O 0.74264 0.77703 0.31761
 O1831 O 0.72306 0.67879 0.28158
 O1832 O 0.67609 0.74359 0.26244
 O1833 O 0.72177 0.75648 0.27821
 O1834 O 0.71857 0.71766 0.25000
 O1835 O 0.76798 0.74138 0.29078
 O1836 O 0.76465 0.70339 0.26439
 Zr1837 Zr 0.76979 0.76617 0.22158
 Zr1838 Zr 0.75558 0.77926 0.28068
 Zr1839 Zr 0.74882 0.70484 0.22774
 Zr1840 Zr 0.70761 0.75586 0.24116
 O1841 O 0.77648 0.67473 0.22111
 O1842 O 0.68788 0.79008 0.25300
 O1843 O 0.73634 0.74261 0.21685
 O1844 O 0.73986 0.78058 0.24403
 O1845 O 0.78602 0.76701 0.25799
 O1846 O 0.78223 0.72793 0.23019
 C1847 C 0.67456 0.72880 0.28182
 C1848 C 0.72506 0.66297 0.26295
 C1849 C 0.73398 0.75796 0.33062
 O1850 O 0.72881 0.81047 0.28598
 O1851 O 0.77242 0.81392 0.26758
 O1852 O 0.78248 0.80511 0.22718
 C1853 C 0.78195 0.82030 0.24642
 O1854 O 0.80496 0.70180 0.29658
 Zr1855 Zr 0.79698 0.72861 0.26677
 O1856 O 0.80978 0.76814 0.21538
 O1857 O 0.78604 0.79063 0.30596
 O1858 O 0.82184 0.74772 0.29325
 O1859 O 0.81928 0.69655 0.25358
 O1860 O 0.82864 0.74427 0.24734
 C1861 C 0.82974 0.75885 0.22773
 O1862 O 0.75434 0.79134 0.19313
 O1863 O 0.71760 0.69217 0.20396
 O1864 O 0.77316 0.74994 0.18535
 O1865 O 0.75939 0.70793 0.19029
 O1866 O 0.67989 0.73711 0.21714
 O1867 O 0.70051 0.77829 0.20805
 C1868 C 0.76832 0.72675 0.17712
 H1869 H 0.70321 0.70614 0.24788
 H1870 H 0.73456 0.79856 0.23899
 H1871 H 0.79578 0.72131 0.21888
 H1872 H 0.77522 0.74067 0.30816
 H1873 H 0.66935 0.78870 0.24712
 H1874 H 0.73705 0.82218 0.29859
 H1875 H 0.78042 0.80734 0.31353
 H1876 H 0.83981 0.74053 0.29145
 H1877 H 0.66286 0.74639 0.21872
 H1878 H 0.72339 0.67551 0.19639
 H1879 H 0.76843 0.66317 0.20827
 H1880 H 0.83778 0.69928 0.25907
 H1881 H 0.68218 0.78490 0.20758
 H1882 H 0.76939 0.79758 0.18348
 H1883 H 0.73484 0.68745 0.32519
 H1884 H 0.82417 0.70016 0.29956
 Zr1885 Zr 0.79238 0.26965 0.78073
 O1886 O 0.78390 0.29768 0.80847
 O1887 O 0.83312 0.26601 0.78555
 O1888 O 0.79689 0.25493 0.81791
 O1889 O 0.79532 0.31381 0.73153
 O1890 O 0.77729 0.21500 0.81630
 O1891 O 0.80721 0.30735 0.77257
 O1892 O 0.84458 0.23485 0.75733
 O1893 O 0.79809 0.22930 0.77578
 O1894 O 0.80489 0.26459 0.74412
 O1895 O 0.75586 0.25249 0.78704
 O1896 O 0.76311 0.28713 0.75723
 Zr1897 Zr 0.74369 0.22308 0.72026
 Zr1898 Zr 0.76108 0.21252 0.77997
 Zr1899 Zr 0.77528 0.27986 0.72072
 Zr1900 Zr 0.80912 0.22461 0.73877
 O1901 O 0.75214 0.31318 0.71115
 O1902 O 0.82476 0.18983 0.75527
 O1903 O 0.78048 0.23988 0.71345
 O1904 O 0.77324 0.20600 0.74352
 O1905 O 0.73086 0.22784 0.75679
 O1906 O 0.73869 0.26332 0.72554
 C1907 C 0.85005 0.25185 0.77432
 C1908 C 0.80652 0.32109 0.75219
 C1909 C 0.78953 0.23329 0.82795
 O1910 O 0.78291 0.17788 0.78783
 O1911 O 0.73841 0.17976 0.77001
 O1912 O 0.72544 0.18737 0.72941
 C1913 C 0.72595 0.17346 0.74965
 O1914 O 0.72683 0.29771 0.79003
 Zr1915 Zr 0.72742 0.26809 0.76229
 O1916 O 0.70309 0.22808 0.71447
 O1917 O 0.73106 0.20840 0.80613
 O1918 O 0.70167 0.25543 0.79019
 O1919 O 0.71000 0.30262 0.74690
 O1920 O 0.69209 0.25755 0.74436
 C1921 C 0.68644 0.24232 0.72601
 O1922 O 0.75214 0.19350 0.69405
 O1923 O 0.80654 0.28542 0.69615
 O1924 O 0.74011 0.23677 0.68278
 O1925 O 0.76253 0.27521 0.68334
 O1926 O 0.83575 0.23656 0.71134
 O1927 O 0.81111 0.19670 0.70953
 C1928 C 0.74912 0.25739 0.67216
 H1929 H 0.82142 0.27366 0.74061
 H1930 H 0.77523 0.18710 0.74007
 H1931 H 0.72564 0.27134 0.71368
 H1932 H 0.75016 0.25561 0.80432
 H1933 H 0.84330 0.18825 0.75040
 H1934 H 0.77412 0.16883 0.80163
 H1935 H 0.73444 0.19165 0.81509
 H1936 H 0.68518 0.26576 0.78815
 H1937 H 0.85214 0.22618 0.71394
 H1938 H 0.80294 0.30206 0.68706
 H1939 H 0.76129 0.32238 0.69766
 H1940 H 0.69186 0.30386 0.75299
 H1941 H 0.82874 0.18838 0.70990
 H1942 H 0.73540 0.18930 0.68507
 H1943 H 0.80076 0.30216 0.81711
 H1944 H 0.70844 0.30280 0.79320
 C1945 C 0.45317 1.04127 0.35626
 C1946 C 0.45780 1.02065 0.33981
 C1947 C 0.47672 1.00166 0.34774
 C1948 C 0.48752 1.00173 0.37246
 C1949 C 0.47935 1.02056 0.38993
 C1950 C 0.46332 1.04106 0.38062
 C1951 C 0.43899 1.05331 0.39045
 C1952 C 0.42797 1.05363 0.36373
 H1953 H 0.48218 0.98599 0.33534
 H1954 H 0.50069 0.98597 0.37831
 H1955 H 0.44257 1.07319 0.39803
 H1956 H 0.42819 1.04000 0.40287
 H1957 H 0.42536 1.07368 0.35591
 H1958 H 0.41089 1.04055 0.36077
 C1959 C -0.04011 0.52892 0.85101
 C1960 C -0.03630 0.50858 0.83386
 C1961 C -0.01868 0.48825 0.84206
 C1962 C -0.00890 0.48685 0.86716
 C1963 C -0.01678 0.50541 0.88488
 C1964 C -0.03109 0.52711 0.87568
 C1965 C -0.05470 0.54085 0.88527
 C1966 C -0.06467 0.54288 0.85836
 H1967 H -0.01282 0.47287 0.82956
 H1968 H 0.00317 0.47025 0.87301
 H1969 H -0.04981 0.56012 0.89360
 H1970 H -0.06712 0.52809 0.89677
 H1971 H -0.06560 0.56340 0.85147
 H1972 H -0.08264 0.53128 0.85445
 C1973 C 0.00756 0.00289 0.84931
 C1974 C 0.03258 0.01274 0.84486
 C1975 C 0.04298 0.03064 0.86245
 C1976 C 0.03100 0.03440 0.88555
 C1977 C 0.00816 0.02070 0.89140
 C1978 C -0.00438 0.00671 0.87214
 C1979 C -0.01517 -0.02030 0.87216
 C1980 C -0.00222 -0.02442 0.84722
 H1981 H 0.06149 0.04008 0.85931
 H1982 H 0.04108 0.04585 0.89978
 H1983 H -0.03695 -0.02023 0.87062
 H1984 H -0.00653 -0.03272 0.88749
 H1985 H -0.01657 -0.02667 0.83133
 H1986 H 0.01390 -0.03924 0.84807
 C1987 C 0.51972 0.51013 0.35707
 C1988 C 0.54643 0.51424 0.35286
 C1989 C 0.56140 0.52561 0.37248
 C1990 C 0.55110 0.52839 0.39642
 C1991 C 0.52547 0.52013 0.40135
 C1992 C 0.50945 0.51294 0.38084
 C1993 C 0.49214 0.48984 0.37742
 C1994 C 0.50328 0.48679 0.35150
 H1995 H 0.58169 0.53069 0.36983
 H1996 H 0.56394 0.53493 0.41159
 H1997 H 0.47101 0.49543 0.37697
 H1998 H 0.49762 0.47346 0.39036
 H1999 H 0.48855 0.49067 0.33615
 H2000 H 0.51519 0.46864 0.34939
 C2001 C 0.51977 0.48673 0.15152
 C2002 C 0.53231 0.50855 0.16218
 C2003 C 0.52819 0.53272 0.14959
 C2004 C 0.51644 0.53371 0.12539
 C2005 C 0.50761 0.51077 0.11356
 C2006 C 0.50754 0.48787 0.12791
 C2007 C 0.51643 0.46090 0.12147
 C2008 C 0.52988 0.45964 0.14720
 H2009 H 0.53551 0.55071 0.15753
 H2010 H 0.51603 0.55209 0.11526
 H2011 H 0.53037 0.46058 0.10587
 H2012 H 0.49974 0.44722 0.11937
 H2013 H 0.55165 0.45868 0.14656
 H2014 H 0.52097 0.44508 0.15978
 C2015 C 0.03746 1.02122 0.64123
 C2016 C 0.03303 0.99955 0.65648
 C2017 C 0.01629 0.98002 0.64651
 C2018 C 0.00789 0.98067 0.62103
 C2019 C 0.01651 1.00057 0.60499
 C2020 C 0.02983 1.02153 0.61618
 C2021 C 0.05389 1.03587 0.60902
 C2022 C 0.06214 1.03561 0.63655
 H2023 H 0.01101 0.96346 0.65789
 H2024 H -0.00333 0.96450 0.61351
 H2025 H 0.04923 1.05580 0.60171
 H2026 H 0.06724 1.02399 0.59744
 H2027 H 0.06209 1.05539 0.64507
 H2028 H 0.08007 1.02361 0.64073
 C2029 C -0.01523 0.51390 0.63770
 C2030 C -0.04095 0.52234 0.64215
 C2031 C -0.05395 0.53713 0.62312
 C2032 C -0.04344 0.53899 0.59918
 C2033 C -0.01955 0.52645 0.59385
 C2034 C -0.00475 0.51585 0.61399
 C2035 C 0.00883 0.48995 0.61655
 C2036 C -0.00255 0.48785 0.64243
 H2037 H -0.07323 0.54543 0.62606
 H2038 H -0.05521 0.54803 0.58425
 H2039 H 0.03053 0.49182 0.61702
 H2040 H 0.00092 0.47523 0.60315
 H2041 H 0.01260 0.48855 0.65779
 H2042 H -0.01706 0.47190 0.64407
 C2043 C 0.46413 0.00369 0.13627
 C2044 C 0.45239 0.02516 0.14766
 C2045 C 0.45405 0.04958 0.13537
 C2046 C 0.46367 0.05120 0.11077
 C2047 C 0.47148 0.02838 0.09810
 C2048 C 0.47311 0.00519 0.11212
 C2049 C 0.46505 -0.02217 0.10642
 C2050 C 0.45535 -0.02382 0.13302
 H2051 H 0.44602 0.06694 0.14390
 H2052 H 0.46261 0.06974 0.10093
 H2053 H 0.48214 -0.03523 0.10311
 H2054 H 0.44882 -0.02323 0.09218
 H2055 H 0.46702 -0.03768 0.14506
 H2056 H 0.43373 -0.02592 0.13385
 C2057 C 0.35316 0.44436 -0.00393
 C2058 C 0.34898 0.42255 0.01115
 C2059 C 0.36770 0.41749 0.03076
 C2060 C 0.39123 0.43193 0.03273
 C2061 C 0.39672 0.45120 0.01476
 C2062 C 0.37647 0.45794 -0.00249
 C2063 C 0.37633 0.46231 -0.03015
 C2064 C 0.35067 0.44748 -0.03165
 H2065 H 0.36471 0.40171 0.04388
 H2066 H 0.40582 0.42668 0.04706
 H2067 H 0.39258 0.45184 -0.03942
 H2068 H 0.37398 0.48332 -0.03518
 H2069 H 0.35216 0.42855 -0.04168
 H2070 H 0.33357 0.45999 -0.03741
 C2071 C -0.12704 0.91846 0.52008
 C2072 C -0.14532 0.92204 0.50001
 C2073 C -0.14006 0.94230 0.48293
 C2074 C -0.11621 0.95596 0.48431
 C2075 C -0.09696 0.95026 0.50316
 C2076 C -0.10379 0.93258 0.52184
 C2077 C -0.08859 0.91022 0.53306
 C2078 C -0.11371 0.89453 0.53081
 H2079 H -0.15378 0.94670 0.46760
 H2080 H -0.11246 0.97033 0.46997
 H2081 H -0.08222 0.91405 0.55275
 H2082 H -0.07284 0.90303 0.52079
 H2083 H -0.12152 0.88892 0.54923
 H2084 H -0.11201 0.87836 0.51715
 C2085 C -0.14550 0.07165 1.01290
 C2086 C -0.15912 0.08045 0.99116
 C2087 C -0.14638 0.07584 0.96822
 C2088 C -0.12247 0.06148 0.96745
 C2089 C -0.11073 0.05071 0.98944
 C2090 C -0.12235 0.05716 1.01202
 C2091 C -0.12965 0.04002 1.03328
 C2092 C -0.15500 0.05574 1.03428
 H2093 H -0.15443 0.08348 0.95072
 H2094 H -0.11362 0.05828 0.94955
 H2095 H -0.11659 0.04277 1.05005
 H2096 H -0.13265 0.01937 1.02758
 H2097 H -0.15643 0.06731 1.05174
 H2098 H -0.17272 0.04423 1.02916
 C2099 C 0.37060 0.58234 0.47283
 C2100 C 0.35647 0.58732 0.49450
 C2101 C 0.36975 0.58237 0.51761
 C2102 C 0.39452 0.56982 0.51865
 C2103 C 0.40697 0.56193 0.49661
 C2104 C 0.39514 0.57000 0.47384
 C2105 C 0.38935 0.55490 0.45058
 C2106 C 0.36256 0.56833 0.44945
 H2107 H 0.36079 0.58749 0.53504
 H2108 H 0.40340 0.56545 0.53686
 H2109 H 0.38839 0.53349 0.45406
 H2110 H 0.40208 0.56075 0.43505
 H2111 H 0.34604 0.55474 0.45229
 H2112 H 0.35991 0.58187 0.43325
 C2113 C 0.14322 0.55636 0.47910
 C2114 C 0.14881 0.57650 0.49603
 C2115 C 0.13093 0.58032 0.51544
 C2116 C 0.10712 0.56640 0.51590
 C2117 C 0.10033 0.54855 0.49674
 C2118 C 0.11960 0.54304 0.47927
 C2119 C 0.11787 0.54177 0.45138
 C2120 C 0.14375 0.55627 0.45123
 H2121 H 0.13491 0.59466 0.52985
 H2122 H 0.09348 0.57070 0.53051
 H2123 H 0.10110 0.55338 0.44327
 H2124 H 0.11945 0.52139 0.44443
 H2125 H 0.14198 0.57623 0.44300
 H2126 H 0.16022 0.54420 0.44427
 C2127 C 0.62740 0.07641 -0.01812
 C2128 C 0.63402 0.09778 -0.00314
 C2129 C 0.61553 0.10541 0.01480
 C2130 C 0.59052 0.09347 0.01558
 C2131 C 0.58313 0.07416 -0.00199
 C2132 C 0.60278 0.06523 -0.01779
 C2133 C 0.60255 0.06041 -0.04534
 C2134 C 0.62954 0.07272 -0.04562
 H2135 H 0.62015 0.12091 0.02787
 H2136 H 0.57665 0.10023 0.02906
 H2137 H 0.58723 0.07208 -0.05574
 H2138 H 0.60304 0.03923 -0.04978
 H2139 H 0.62984 0.09156 -0.05605
 H2140 H 0.64539 0.05860 -0.05019
 C2141 C 0.63747 0.93784 0.46209
 C2142 C 0.64344 0.91864 0.48035
 C2143 C 0.62221 0.90974 0.49440
 C2144 C 0.59763 0.92264 0.49305
 C2145 C 0.59324 0.94440 0.47715
 C2146 C 0.61300 0.95037 0.46049
 C2147 C 0.62482 0.97605 0.45434
 C2148 C 0.65149 0.96243 0.45607
 H2149 H 0.62482 0.89368 0.50749
 H2150 H 0.58258 0.91665 0.50568
 H2151 H 0.62201 0.99087 0.46920
 H2152 H 0.61924 0.98268 0.43507
 H2153 H 0.66417 0.96934 0.47193
 H2154 H 0.66123 0.96128 0.43778
 C2155 C 0.13976 0.42752 0.96490
 C2156 C 0.14531 0.40985 0.98465
 C2157 C 0.12418 0.40361 1.00003
 C2158 C 0.10027 0.41762 0.99809
 C2159 C 0.09647 0.43790 0.98037
 C2160 C 0.11590 0.44111 0.96273
 C2161 C 0.12876 0.46540 0.95401
 C2162 C 0.15478 0.45062 0.95637
 H2163 H 0.12636 0.38874 1.01440
 H2164 H 0.08523 0.41350 1.01139
 H2165 H 0.12708 0.48176 0.96752
 H2166 H 0.12295 0.47038 0.93434
 H2167 H 0.16822 0.45839 0.97125
 H2168 H 0.16392 0.44716 0.93805
 C2169 C -0.01458 0.36421 0.42019
 C2170 C -0.00866 0.34222 0.43496
 C2171 C 0.00068 0.34615 0.45967
 C2172 C 0.00079 0.37136 0.46995
 C2173 C -0.00816 0.39300 0.45551
 C2174 C -0.01424 0.38897 0.43020
 C2175 C -0.03691 0.39808 0.41408
 C2176 C -0.03758 0.37069 0.40321
 H2177 H 0.00741 0.32972 0.47108
 H2178 H 0.00729 0.37378 0.48926
 H2179 H -0.03116 0.41322 0.40038
 H2180 H -0.05443 0.40300 0.42500
 H2181 H -0.03247 0.37007 0.38316
 H2182 H -0.05560 0.35998 0.40799
 C2183 C 0.48124 -0.11573 -0.08355
 C2184 C 0.49365 -0.13661 -0.07077
 C2185 C 0.50919 -0.13053 -0.04931
 C2186 C 0.50871 -0.10526 -0.03925
 C2187 C 0.49290 -0.08550 -0.05059
 C2188 C 0.48103 -0.09084 -0.07385
 C2189 C 0.45416 -0.08500 -0.08439
 C2190 C 0.45417 -0.11266 -0.09471
 H2191 H 0.52120 -0.14527 -0.03983
 H2192 H 0.51975 -0.10162 -0.02202
 H2193 H 0.45439 -0.06973 -0.09923
 H2194 H 0.43951 -0.08168 -0.06981
 H2195 H 0.45389 -0.11316 -0.11550
 H2196 H 0.43981 -0.12563 -0.08574
 C2197 C 0.02047 -0.13674 1.06583
 C2198 C 0.00256 -0.15650 1.06020
 C2199 C -0.01768 -0.15103 1.04231
 C2200 C -0.01847 -0.12709 1.02936
 C2201 C 0.00086 -0.10816 1.03420
 C2202 C 0.01960 -0.11316 1.05323
 C2203 C 0.04880 -0.11174 1.05254
 C2204 C 0.04975 -0.13772 1.06639
 H2205 H -0.03307 -0.16499 1.03852
 H2206 H -0.03428 -0.12337 1.01579
 H2207 H 0.05667 -0.09529 1.06390
 H2208 H 0.05620 -0.11293 1.03322
 H2209 H 0.05819 -0.13623 1.08574
 H2210 H 0.05767 -0.15407 1.05514
 C2211 C 0.50520 0.37706 0.59108
 C2212 C 0.49556 0.35410 0.58047
 C2213 C 0.48462 0.35534 0.55594
 C2214 C 0.48650 0.37836 0.54170
 C2215 C 0.49975 0.40012 0.55175
 C2216 C 0.50739 0.39943 0.57705
 C2217 C 0.53262 0.40672 0.58999
 C2218 C 0.53016 0.38199 0.60552
 H2219 H 0.47551 0.33838 0.54751
 H2220 H 0.47875 0.37868 0.52262
 H2221 H 0.53061 0.42489 0.60112
 H2222 H 0.54955 0.40620 0.57735
 H2223 H 0.52674 0.38593 0.62559
 H2224 H 0.54562 0.36710 0.60190
 C2225 C 0.49807 1.13322 0.58829
 C2226 C 0.51094 1.15559 0.58041
 C2227 C 0.52385 1.15462 0.55745
 C2228 C 0.52544 1.13106 0.54413
 C2229 C 0.51411 1.10820 0.55359
 C2230 C 0.49957 1.11018 0.57521
 C2231 C 0.50138 1.09412 0.59859
 C2232 C 0.49968 1.11954 0.61301
 H2233 H 0.53277 1.17190 0.54985
 H2234 H 0.53553 1.13075 0.52660
 H2235 H 0.52065 1.08389 0.60110
 H2236 H 0.48393 1.08156 0.60069
 H2237 H 0.51794 1.12411 0.62395
 H2238 H 0.48123 1.12164 0.62340
 C2239 C -0.02424 0.62608 1.07534
 C2240 C -0.01496 0.64908 1.06472
 C2241 C -0.00525 0.64779 1.04033
 C2242 C -0.00135 0.62354 1.02885
 C2243 C -0.00738 0.60030 1.04150
 C2244 C -0.02066 0.60223 1.06390
 C2245 C -0.01539 0.58849 1.08826
 C2246 C -0.01930 0.61475 1.10086
 H2247 H 0.00062 0.66531 1.03067
 H2248 H 0.00719 0.62300 1.01056
 H2249 H 0.00504 0.58074 1.09023
 H2250 H -0.03094 0.57421 1.09248
 H2251 H -0.00112 0.62232 1.11015
 H2252 H -0.03707 0.61556 1.11237
 C2253 C 0.52532 0.63154 -0.07323
 C2254 C 0.50464 0.64970 -0.07206
 C2255 C 0.47963 0.63995 -0.06663
 C2256 C 0.47688 0.61418 -0.05815
 C2257 C 0.49899 0.59756 -0.05551
 C2258 C 0.52251 0.60599 -0.06533
 C2259 C 0.54982 0.60465 -0.05456
 C2260 C 0.55284 0.63281 -0.06298
 H2261 H 0.46235 0.65240 -0.06770
 H2262 H 0.45787 0.60790 -0.05208
 H2263 H 0.56216 0.59077 -0.06510
 H2264 H 0.55055 0.60212 -0.03388
 H2265 H 0.56734 0.63502 -0.07793
 H2266 H 0.55501 0.64678 -0.04719
 C2267 C 0.02127 1.12199 0.40597
 C2268 C 0.01939 1.14605 0.41838
 C2269 C 0.01014 1.14543 0.44313
 C2270 C 0.00614 1.12169 0.45545
 C2271 C 0.01166 1.09791 0.44362
 C2272 C 0.01775 1.09855 0.41834
 C2273 C 0.03894 1.08504 0.40460
 C2274 C 0.04305 1.11078 0.39109
 H2275 H 0.00561 1.16311 0.45320
 H2276 H -0.00005 1.12205 0.47464
 H2277 H 0.03113 1.06944 0.39214
 H2278 H 0.05583 1.07911 0.41699
 H2279 H 0.03784 1.10983 0.37079
 H2280 H 0.06231 1.11983 0.39574
 C2281 C 0.72650 0.71581 0.89397
 C2282 C 0.74853 0.70302 0.90481
 C2283 C 0.77011 0.69848 0.88952
 C2284 C 0.77008 0.70814 0.86484
 C2285 C 0.74873 0.72309 0.85500
 C2286 C 0.72668 0.72581 0.86972
 C2287 C 0.71185 0.74982 0.87672
 C2288 C 0.71163 0.73893 0.90321
 H2289 H 0.78688 0.68721 0.89654
 H2290 H 0.78694 0.70421 0.85354
 H2291 H 0.69204 0.75073 0.86750
 H2292 H 0.72362 0.76788 0.87503
 H2293 H 0.69169 0.73363 0.90921
 H2294 H 0.72326 0.75066 0.91695
 C2295 C 0.21944 0.20024 0.38914
 C2296 C 0.23195 0.21286 0.40929
 C2297 C 0.24220 0.23796 0.40465
 C2298 C 0.23917 0.24981 0.38074
 C2299 C 0.22580 0.23688 0.36100
 C2300 C 0.21667 0.21175 0.36569
 C2301 C 0.18952 0.20157 0.36193
 C2302 C 0.19263 0.18889 0.38755
 H2303 H 0.25330 0.24808 0.41911
 H2304 H 0.24838 0.26841 0.37736
 H2305 H 0.18822 0.18718 0.34644
 H2306 H 0.17439 0.21741 0.36101
 H2307 H 0.19321 0.16719 0.38682
 H2308 H 0.17931 0.19730 0.40158
 C2309 C 0.77179 0.27119 0.39334
 C2310 C 0.74874 0.27700 0.40615
 C2311 C 0.72469 0.27035 0.39412
 C2312 C 0.72395 0.25836 0.37050
 C2313 C 0.74720 0.25199 0.35822
 C2314 C 0.77098 0.25919 0.36984
 C2315 C 0.79422 0.24228 0.37612
 C2316 C 0.79509 0.25503 0.40167
 H2317 H 0.70625 0.27470 0.40279
 H2318 H 0.70506 0.25462 0.36149
 H2319 H 0.81132 0.24720 0.36464
 H2320 H 0.78936 0.22116 0.37672
 H2321 H 0.81283 0.26711 0.40500
 H2322 H 0.79066 0.24122 0.41705
 C2323 C 0.24948 0.75900 0.89935
 C2324 C 0.25997 0.78398 0.90319
 C2325 C 0.27718 0.79325 0.88508
 C2326 C 0.28021 0.77984 0.86237
 C2327 C 0.26623 0.75676 0.85719
 C2328 C 0.25231 0.74582 0.87676
 C2329 C 0.22497 0.73574 0.87704
 C2330 C 0.22192 0.75000 0.90171
 H2331 H 0.28688 0.81181 0.88769
 H2332 H 0.29141 0.78892 0.84786
 H2333 H 0.22456 0.71413 0.87906
 H2334 H 0.21225 0.74389 0.86158
 H2335 H 0.21984 0.73657 0.91790
 H2336 H 0.20740 0.76636 0.90056
 C2337 C 0.23058 0.77562 0.10176
 C2338 C 0.25268 0.78800 0.09190
 C2339 C 0.27643 0.78505 0.10615
 C2340 C 0.27669 0.77466 0.13056
 C2341 C 0.25337 0.76647 0.14152
 C2342 C 0.23096 0.76510 0.12590
 C2343 C 0.20357 0.77385 0.13047
 C2344 C 0.20304 0.78552 0.10431
 H2345 H 0.29490 0.79161 0.09915
 H2346 H 0.29491 0.77484 0.14153
 H2347 H 0.20241 0.78872 0.14552
 H2348 H 0.19013 0.75707 0.13226
 H2349 H 0.20169 0.80722 0.10413
 H2350 H 0.18896 0.77559 0.09134
 C2351 C 0.72454 0.29210 0.61439
 C2352 C 0.74426 0.28667 0.59701
 C2353 C 0.76117 0.26518 0.60338
 C2354 C 0.76090 0.25323 0.62730
 C2355 C 0.74337 0.26188 0.64538
 C2356 C 0.72422 0.28009 0.63774
 C2357 C 0.71453 0.30398 0.65047
 C2358 C 0.71499 0.31741 0.62518
 H2359 H 0.77566 0.25808 0.59072
 H2360 H 0.77586 0.23879 0.63230
 H2361 H 0.72897 0.31212 0.66418
 H2362 H 0.69440 0.30150 0.65747
 H2363 H 0.72981 0.33315 0.62431
 H2364 H 0.69500 0.32300 0.61805
 C2365 C 0.22511 0.20084 0.62255
 C2366 C 0.24479 0.20840 0.60645
 C2367 C 0.26385 0.22585 0.61625
 C2368 C 0.26481 0.23225 0.64204
 C2369 C 0.24706 0.22090 0.65858
 C2370 C 0.22638 0.20659 0.64780
 C2371 C 0.21488 0.18089 0.65471
 C2372 C 0.21344 0.17466 0.62696
 H2373 H 0.27880 0.23348 0.60437
 H2374 H 0.28058 0.24434 0.64924
 H2375 H 0.19525 0.18317 0.66296
 H2376 H 0.22893 0.16797 0.66535
 H2377 H 0.19298 0.17343 0.61931
 H2378 H 0.22666 0.15830 0.62166
 C2379 C 0.76309 0.72619 0.10660
 C2380 C 0.76751 0.69946 0.10175
 C2381 C 0.78014 0.68481 0.12126
 C2382 C 0.78311 0.69503 0.14545
 C2383 C 0.77373 0.72023 0.15096
 C2384 C 0.76596 0.73629 0.13076
 C2385 C 0.74249 0.75371 0.12750
 C2386 C 0.73925 0.74281 0.10121
 H2387 H 0.78680 0.66494 0.11837
 H2388 H 0.79070 0.68235 0.16032
 H2389 H 0.74781 0.77471 0.12781
 H2390 H 0.72633 0.74828 0.13996
 H2391 H 0.74260 0.75763 0.08642
 H2392 H 0.72117 0.73110 0.09838
 C2393 C 0.15111 0.64108 0.26127
 C2394 C 0.15687 0.62004 0.24566
 C2395 C 0.17434 0.62478 0.22615
 C2396 C 0.18765 0.64886 0.22447
 C2397 C 0.18440 0.66842 0.24271
 C2398 C 0.16487 0.66433 0.26018
 C2399 C 0.16494 0.66759 0.28792
 C2400 C 0.14978 0.64218 0.28908
 H2401 H 0.17848 0.60953 0.21281
 H2402 H 0.20190 0.65134 0.21006
 H2403 H 0.15324 0.68493 0.29356
 H2404 H 0.18492 0.66599 0.29674
 H2405 H 0.12933 0.64493 0.29530
 H2406 H 0.16098 0.62600 0.29854
 C2407 C 0.67579 0.12101 0.73403
 C2408 C 0.67980 0.10201 0.75310
 C2409 C 0.70232 0.10579 0.76898
 C2410 C 0.71770 0.12851 0.76736
 C2411 C 0.71159 0.14830 0.74963
 C2412 C 0.69129 0.14321 0.73227
 C2413 C 0.66874 0.16025 0.72417
 C2414 C 0.65162 0.13632 0.72630
 H2415 H 0.70841 0.09161 0.78302
 H2416 H 0.73406 0.13084 0.78053
 H2417 H 0.67056 0.16717 0.70459
 H2418 H 0.66427 0.17572 0.73800
 H2419 H 0.64323 0.13011 0.70787
 H2420 H 0.63727 0.13778 0.74149
 C2421 C 0.83660 0.11522 0.23313
 C2422 C 0.84265 0.10030 0.25454
 C2423 C 0.83734 0.11219 0.27785
 C2424 C 0.82372 0.13655 0.27898
 C2425 C 0.81504 0.14959 0.25686
 C2426 C 0.82316 0.13884 0.23423
 C2427 C 0.80799 0.13347 0.21049
 C2428 C 0.82284 0.10767 0.20925
 H2429 H 0.84290 0.10245 0.29522
 H2430 H 0.81897 0.14443 0.29707
 H2431 H 0.81290 0.14725 0.19525
 H2432 H 0.78668 0.13096 0.21348
 H2433 H 0.83635 0.10673 0.19334
 H2434 H 0.81014 0.09033 0.21142
 C2435 C 0.32787 0.60435 0.73378
 C2436 C 0.33563 0.59082 0.75560
 C2437 C 0.33243 0.60426 0.77849
 C2438 C 0.31942 0.62894 0.77914
 C2439 C 0.30911 0.64073 0.75694
 C2440 C 0.31493 0.62829 0.73442
 C2441 C 0.29766 0.62164 0.71234
 C2442 C 0.31193 0.59545 0.71162
 H2443 H 0.33940 0.59555 0.79596
 H2444 H 0.31653 0.63818 0.79704
 H2445 H 0.30141 0.63422 0.69587
 H2446 H 0.27669 0.61990 0.71719
 H2447 H 0.32395 0.59306 0.69477
 H2448 H 0.29925 0.57859 0.71598
 C2449 C 0.33011 0.36086 0.73692
 C2450 C 0.33076 0.37874 0.75693
 C2451 C 0.32001 0.36965 0.77956
 C2452 C 0.30739 0.34526 0.78095
 C2453 C 0.30459 0.32898 0.75980
 C2454 C 0.31731 0.33694 0.73828
 C2455 C 0.30731 0.33861 0.71186
 C2456 C 0.32112 0.36469 0.71023
 H2457 H 0.32134 0.38099 0.79653
 H2458 H 0.29915 0.33958 0.79857
 H2459 H 0.28556 0.34037 0.71032
 H2460 H 0.31609 0.32326 0.69997
 H2461 H 0.30740 0.38160 0.70771
 H2462 H 0.33767 0.36425 0.69718
 C2463 C 0.82355 0.87681 0.22518
 C2464 C 0.82263 0.89430 0.24530
 C2465 C 0.80370 0.88944 0.26340
 C2466 C 0.78938 0.86593 0.26314
 C2467 C 0.79317 0.84691 0.24440
 C2468 C 0.80896 0.85405 0.22458
 C2469 C 0.82960 0.83926 0.21128
 C2470 C 0.84571 0.86413 0.21193
 H2471 H 0.80121 0.90299 0.27868
 H2472 H 0.77640 0.86212 0.27836
 H2473 H 0.82295 0.83369 0.19209
 H2474 H 0.83840 0.82317 0.22290
 H2475 H 0.84842 0.87272 0.19307
 H2476 H 0.86391 0.86181 0.22366
 C2477 C 0.67386 0.88367 0.78713
 C2478 C 0.68207 0.90525 0.77284
 C2479 C 0.70702 0.90233 0.76193
 C2480 C 0.72041 0.87808 0.76205
 C2481 C 0.70987 0.85595 0.77360
 C2482 C 0.68745 0.85980 0.78756
 C2483 C 0.66296 0.84422 0.78788
 C2484 C 0.64798 0.87004 0.78726
 H2485 H 0.71631 0.91829 0.75252
 H2486 H 0.73844 0.87634 0.75194
 H2487 H 0.66110 0.83331 0.80574
 H2488 H 0.65986 0.83239 0.77066
 H2489 H 0.63725 0.87363 0.80472
 H2490 H 0.63619 0.87323 0.76965
 C2491 C 0.17822 0.40048 0.28695
 C2492 C 0.18084 0.41752 0.26655
 C2493 C 0.20064 0.41149 0.24962
 C2494 C 0.21459 0.38760 0.25135
 C2495 C 0.20901 0.36885 0.26993
 C2496 C 0.19183 0.37669 0.28853
 C2497 C 0.16889 0.36296 0.29889
 C2498 C 0.15408 0.38891 0.29731
 H2499 H 0.20444 0.42464 0.23427
 H2500 H 0.22858 0.38322 0.23707
 H2501 H 0.17280 0.35614 0.31842
 H2502 H 0.16079 0.34799 0.28588
 H2503 H 0.14959 0.39707 0.31595
 H2504 H 0.13730 0.38889 0.28354
 C2505 C 0.10985 0.20437 0.81706
 C2506 C 0.11007 0.19906 0.84273
 C2507 C 0.13437 0.19445 0.85518
 C2508 C 0.15778 0.19883 0.84278
 C2509 C 0.15706 0.20860 0.81806
 C2510 C 0.13292 0.20923 0.80499
 C2511 C 0.12045 0.23015 0.78897
 C2512 C 0.09511 0.22484 0.80221
 H2513 H 0.13522 0.18983 0.87498
 H2514 H 0.17625 0.19665 0.85316
 H2515 H 0.11956 0.22465 0.76888
 H2516 H 0.12851 0.24985 0.79298
 H2517 H 0.07965 0.21629 0.78975
 H2518 H 0.08848 0.24146 0.81387
 C2519 C 0.60279 0.73809 0.29251
 C2520 C 0.60044 0.72728 0.31636
 C2521 C 0.62090 0.71081 0.32559
 C2522 C 0.64479 0.70957 0.31329
 C2523 C 0.64839 0.72464 0.29157
 C2524 C 0.62632 0.73695 0.28044
 C2525 C 0.62280 0.76409 0.27030
 C2526 C 0.59685 0.76519 0.28339
 H2527 H 0.61928 0.70066 0.34327
 H2528 H 0.66098 0.69876 0.32204
 H2529 H 0.62054 0.76441 0.24956
 H2530 H 0.63740 0.77793 0.27835
 H2531 H 0.57959 0.76591 0.27018
 H2532 H 0.59645 0.77972 0.29878
 C2533 C 0.62064 0.24510 0.15713
 C2534 C 0.60270 0.22536 0.16207
 C2535 C 0.61123 0.20452 0.17768
 C2536 C 0.63531 0.20596 0.19103
 C2537 C 0.65104 0.22835 0.18903
 C2538 C 0.64423 0.24660 0.17039
 C2539 C 0.64301 0.27575 0.17137
 C2540 C 0.61706 0.27413 0.15678
 H2541 H 0.59855 0.18811 0.18099
 H2542 H 0.64057 0.19048 0.20416
 H2543 H 0.65879 0.28490 0.16056
 H2544 H 0.64097 0.28328 0.19071
 H2545 H 0.61792 0.28234 0.13755
 H2546 H 0.59996 0.28075 0.16761
 C2547 C 0.10796 0.76256 0.68650
 C2548 C 0.09459 0.73964 0.68012
 C2549 C 0.10799 0.71558 0.68444
 C2550 C 0.13238 0.71481 0.69730
 C2551 C 0.14416 0.73807 0.70535
 C2552 C 0.13232 0.76180 0.69849
 C2553 C 0.12611 0.78470 0.71452
 C2554 C 0.09925 0.78550 0.70148
 H2555 H 0.09985 0.69726 0.67814
 H2556 H 0.14202 0.69615 0.70089
 H2557 H 0.13831 0.80189 0.71012
 H2558 H 0.12552 0.77956 0.73472
 H2559 H 0.09599 0.80331 0.68978
 H2560 H 0.08299 0.78070 0.71405
 C2561 C 0.89597 0.73522 0.69990
 C2562 C 0.89564 0.72705 0.67482
 C2563 C 0.87129 0.71901 0.66430
 C2564 C 0.84807 0.72310 0.67703
 C2565 C 0.84856 0.73520 0.70064
 C2566 C 0.87293 0.73936 0.71242
 C2567 C 0.88313 0.76302 0.72546
 C2568 C 0.90844 0.75864 0.71181
 H2569 H 0.86982 0.71023 0.64595
 H2570 H 0.82970 0.71787 0.66778
 H2571 H 0.88536 0.75999 0.74601
 H2572 H 0.87250 0.78122 0.71957
 H2573 H 0.92523 0.75325 0.72461
 H2574 H 0.91253 0.77432 0.69805
 C2575 C 0.40085 0.25474 0.22539
 C2576 C 0.40421 0.23809 0.20499
 C2577 C 0.38436 0.21987 0.19959
 C2578 C 0.35994 0.22237 0.21055
 C2579 C 0.35539 0.24214 0.22814
 C2580 C 0.37690 0.25658 0.23691
 C2581 C 0.37941 0.28539 0.24048
 C2582 C 0.40561 0.28337 0.22781
 H2583 H 0.38665 0.20546 0.18503
 H2584 H 0.34411 0.21038 0.20353
 H2585 H 0.38135 0.29070 0.26058
 H2586 H 0.36437 0.29680 0.22947
 H2587 H 0.42261 0.28757 0.24061
 H2588 H 0.40576 0.29356 0.20940
 C2589 C 0.39298 0.73005 0.31708
 C2590 C 0.40691 0.75340 0.31975
 C2591 C 0.39583 0.77613 0.30848
 C2592 C 0.37013 0.77597 0.29852
 C2593 C 0.35544 0.75295 0.29899
 C2594 C 0.36791 0.72975 0.30652
 C2595 C 0.35905 0.70953 0.32448
 C2596 C 0.38656 0.70987 0.33615
 H2597 H 0.40648 0.79428 0.30803
 H2598 H 0.36161 0.79387 0.29081
 H2599 H 0.35425 0.69081 0.31502
 H2600 H 0.34380 0.71704 0.33712
 H2601 H 0.39755 0.69126 0.33346
 H2602 H 0.38733 0.71761 0.35556
 C2603 C 0.92208 0.23963 0.78651
 C2604 C 0.92896 0.26117 0.80130
 C2605 C 0.91145 0.28266 0.80133
 C2606 C 0.88594 0.28023 0.79113
 C2607 C 0.87779 0.25639 0.78053
 C2608 C 0.89696 0.23736 0.77618
 C2609 C 0.89649 0.20859 0.78080
 C2610 C 0.92399 0.21104 0.79221
 H2611 H 0.91651 0.30031 0.81140
 H2612 H 0.87214 0.29626 0.79324
 H2613 H 0.89587 0.19731 0.76308
 H2614 H 0.88164 0.20292 0.79458
 H2615 H 0.93920 0.20110 0.78109
 H2616 H 0.92512 0.20682 0.81263
 C2617 C 0.57022 0.99613 0.63151
 C2618 C 0.55778 1.00798 0.65151
 C2619 C 0.53534 1.02369 0.64548
 C2620 C 0.52492 1.02522 0.62056
 C2621 C 0.53674 1.01112 0.60114
 C2622 C 0.56011 0.99763 0.60729
 C2623 C 0.56820 0.97015 0.60178
 C2624 C 0.57929 0.96853 0.62842
 H2625 H 0.52564 1.03456 0.65991
 H2626 H 0.50742 1.03687 0.61668
 H2627 H 0.58360 0.96921 0.58753
 H2628 H 0.55118 0.95712 0.59828
 H2629 H 0.60103 0.96662 0.62940
 H2630 H 0.56869 0.95462 0.64042
 C2631 C 0.06861 0.51763 1.12635
 C2632 C 0.05266 0.51631 1.14740
 C2633 C 0.02504 0.51686 1.14189
 C2634 C 0.01475 0.51593 1.11691
 C2635 C 0.03159 0.51366 1.09661
 C2636 C 0.05847 0.51598 1.10207
 C2637 C 0.08128 0.50039 1.09334
 C2638 C 0.09247 0.50195 1.11981
 H2639 H 0.01096 0.51796 1.15654
 H2640 H -0.00630 0.51547 1.11366
 H2641 H 0.09296 0.51138 1.07968
 H2642 H 0.07604 0.48015 1.08781
 H2643 H 0.11079 0.51352 1.12097
 H2644 H 0.09356 0.48270 1.12956
 C2645 C -0.06417 -0.04140 1.12712
 C2646 C -0.04998 -0.02965 1.14703
 C2647 C -0.02363 -0.02294 1.14193
 C2648 C -0.01400 -0.02417 1.11734
 C2649 C -0.03051 -0.03167 1.09710
 C2650 C -0.05500 -0.04171 1.10297
 C2651 C -0.08170 -0.03742 1.09139
 C2652 C -0.09191 -0.03726 1.11769
 H2653 H -0.01048 -0.01579 1.15651
 H2654 H 0.00545 -0.01692 1.11392
 H2655 H -0.08844 -0.05445 1.08018
 H2656 H -0.08430 -0.01806 1.08216
 H2657 H -0.10455 -0.05431 1.12144
 H2658 H -0.10018 -0.01801 1.12324
 C2659 C 0.46013 0.45656 0.64034
 C2660 C 0.45885 0.47825 0.65624
 C2661 C 0.47334 0.50044 0.64973
 C2662 C 0.48504 0.50209 0.62620
 C2663 C 0.48311 0.48129 0.60907
 C2664 C 0.47215 0.45799 0.61739
 C2665 C 0.45250 0.44045 0.60513
 C2666 C 0.43933 0.43882 0.63026
 H2667 H 0.47376 0.51729 0.66192
 H2668 H 0.49385 0.52030 0.62066
 H2669 H 0.46136 0.42158 0.59936
 H2670 H 0.44029 0.45060 0.59041
 H2671 H 0.44074 0.41902 0.63886
 H2672 H 0.41941 0.44781 0.62985
 C2673 C 0.46324 0.47183 -0.13488
 C2674 C 0.45801 0.49338 -0.15057
 C2675 C 0.46335 0.51839 -0.14037
 C2676 C 0.47469 0.52109 -0.11602
 C2677 C 0.48088 0.49891 -0.10123
 C2678 C 0.47399 0.47453 -0.11089
 C2679 C 0.49087 0.45073 -0.11344
 C2680 C 0.47910 0.44778 -0.13967
 H2681 H 0.45822 0.53598 -0.15074
 H2682 H 0.47762 0.54046 -0.10843
 H2683 H 0.48520 0.43485 -0.10049
 H2684 H 0.51216 0.45527 -0.11309
 H2685 H 0.46670 0.43016 -0.14179
 H2686 H 0.49352 0.45064 -0.15460
 C2687 C -0.02720 0.97731 0.35567
 C2688 C -0.03403 0.99928 0.34115
 C2689 C -0.02999 1.02408 0.35222
 C2690 C -0.01855 1.02626 0.37653
 C2691 C -0.01080 1.00375 0.39018
 C2692 C -0.01618 0.97946 0.37956
 C2693 C 0.00225 0.95710 0.37554
 C2694 C -0.00990 0.95473 0.34940
 H2695 H -0.03646 1.04174 0.34259
 H2696 H -0.01680 1.04537 0.38502
 H2697 H -0.00196 0.94016 0.38780
 H2698 H 0.02314 0.96315 0.37572
 H2699 H -0.02115 0.93644 0.34662
 H2700 H 0.00390 0.95940 0.33434
 C2701 C 0.04217 0.46229 0.35392
 C2702 C 0.03428 0.48378 0.33908
 C2703 C 0.01279 0.49881 0.34713
 C2704 C 0.00246 0.49462 0.37099
 C2705 C 0.01379 0.47573 0.38739
 C2706 C 0.03252 0.45866 0.37770
 C2707 C 0.05849 0.44938 0.38809
 C2708 C 0.06906 0.45329 0.36205
 H2709 H 0.00537 0.51504 0.33584
 H2710 H -0.01229 0.50809 0.37763
 H2711 H 0.05810 0.42852 0.39393
 H2712 H 0.06723 0.46290 0.40216
 H2713 H 0.07471 0.43467 0.35291
 H2714 H 0.08382 0.46907 0.36109
 C2715 C 0.52203 -0.02047 -0.14725
 C2716 C 0.52896 0.00289 -0.15920
 C2717 C 0.51785 0.02621 -0.15006
 C2718 C 0.50459 0.02636 -0.12736
 C2719 C 0.50171 0.00316 -0.11345
 C2720 C 0.50870 -0.02036 -0.12485
 C2721 C 0.52421 -0.04311 -0.11465
 C2722 C 0.53876 -0.04326 -0.13907
 H2723 H 0.52115 0.04468 -0.15934
 H2724 H 0.49881 0.04496 -0.11951
 H2725 H 0.51183 -0.06062 -0.11218
 H2726 H 0.53683 -0.03795 -0.09812
 H2727 H 0.53477 -0.06089 -0.15059
 H2728 H 0.55984 -0.03818 -0.13672
 C2729 C 0.64171 0.55644 0.01621
 C2730 C 0.64798 0.57515 -0.00164
 C2731 C 0.63037 0.57859 -0.02231
 C2732 C 0.60593 0.56573 -0.02320
 C2733 C 0.59821 0.55010 -0.00297
 C2734 C 0.61734 0.54465 0.01583
 C2735 C 0.61616 0.54505 0.04371
 C2736 C 0.64292 0.55790 0.04406
 H2737 H 0.63504 0.59198 -0.03723
 H2738 H 0.59251 0.56941 -0.03884
 H2739 H 0.61667 0.52505 0.05191
 H2740 H 0.60038 0.55813 0.05053
 H2741 H 0.65880 0.54524 0.05235
 H2742 H 0.64259 0.57834 0.05102
 C2743 C 0.13880 1.07473 0.47222
 C2744 C 0.15504 1.07505 0.49395
 C2745 C 0.14916 1.05692 0.51286
 C2746 C 0.12585 1.04229 0.51148
 C2747 C 0.10795 1.04491 0.49083
 C2748 C 0.11630 1.05968 0.47052
 C2749 C 0.10226 1.07888 0.45380
 C2750 C 0.12673 1.09565 0.45583
 H2751 H 0.16163 1.05536 0.52958
 H2752 H 0.12119 1.03008 0.52728
 H2753 H 0.08482 1.08784 0.46254
 H2754 H 0.09874 1.07089 0.43472
 H2755 H 0.12289 1.11425 0.46571
 H2756 H 0.13688 1.09762 0.43783
 C2757 C 0.13477 -0.06179 0.98153
 C2758 C 0.14467 -0.07644 1.00216
 C2759 C 0.13026 -0.07381 1.02450
 C2760 C 0.10605 -0.05992 1.02488
 C2761 C 0.09528 -0.04795 1.00305
 C2762 C 0.11099 -0.04819 0.98199
 C2763 C 0.10398 -0.05479 0.95552
 C2764 C 0.12982 -0.06970 0.95488
 H2765 H 0.13711 -0.08259 1.04191
 H2766 H 0.09535 -0.05947 1.04206
 H2767 H 0.10337 -0.03722 0.94321
 H2768 H 0.08658 -0.06763 0.95380
 H2769 H 0.14383 -0.06070 0.94195
 H2770 H 0.12739 -0.09116 0.95276
 C2771 C 0.65028 0.44506 0.50470
 C2772 C 0.65194 0.41827 0.51057
 C2773 C 0.63004 0.40771 0.52288
 C2774 C 0.60679 0.42255 0.52598
 C2775 C 0.60437 0.44808 0.51621
 C2776 C 0.62703 0.45921 0.50679
 C2777 C 0.63133 0.47448 0.48349
 C2778 C 0.65683 0.45918 0.48118
 H2779 H 0.63047 0.38785 0.52988
 H2780 H 0.59008 0.41333 0.53425
 H2781 H 0.63433 0.49559 0.48731
 H2782 H 0.61683 0.47005 0.46820
 H2783 H 0.67448 0.47156 0.48369
 H2784 H 0.65698 0.44611 0.46462
 C2785 C -0.13751 0.42285 0.46695
 C2786 C -0.15231 0.42202 0.48866
 C2787 C -0.14507 0.43958 0.50790
 C2788 C -0.12206 0.45458 0.50652
 C2789 C -0.10540 0.45248 0.48589
 C2790 C -0.11468 0.43752 0.46565
 C2791 C -0.10123 0.41710 0.45075
 C2792 C -0.12611 0.40109 0.45214
 H2793 H -0.15662 0.44108 0.52449
 H2794 H -0.11667 0.46675 0.52233
 H2795 H -0.08413 0.40808 0.46106
 H2796 H -0.09733 0.42404 0.43150
 H2797 H -0.12345 0.38277 0.46323
 H2798 H -0.13643 0.39878 0.43369
 C2799 C 0.36536 -0.08150 -0.02396
 C2800 C 0.34219 -0.07239 -0.01314
 C2801 C 0.34178 -0.04582 -0.00585
 C2802 C 0.36454 -0.03033 -0.00689
 C2803 C 0.38822 -0.04068 -0.01584
 C2804 C 0.38768 -0.06608 -0.02539
 C2805 C 0.40552 -0.08865 -0.01904
 C2806 C 0.38125 -0.10544 -0.01767
 H2807 H 0.32418 -0.03703 0.00133
 H2808 H 0.36383 -0.01047 -0.00001
 H2809 H 0.41604 -0.08631 -0.00068
 H2810 H 0.41819 -0.09415 -0.03470
 H2811 H 0.37773 -0.11296 0.00146
 H2812 H 0.37997 -0.12030 -0.03274
 C2813 C 0.36846 1.07849 0.53229
 C2814 C 0.36147 1.09888 0.51558
 C2815 C 0.38210 1.10972 0.50191
 C2816 C 0.40713 1.09773 0.50201
 C2817 C 0.41260 1.07508 0.51638
 C2818 C 0.39341 1.06698 0.53279
 C2819 C 0.38280 1.04037 0.53719
 C2820 C 0.35558 1.05286 0.53663
 H2821 H 0.37878 1.12672 0.49012
 H2822 H 0.42179 1.10534 0.48975
 H2823 H 0.38890 1.03250 0.55590
 H2824 H 0.38606 1.02690 0.52128
 H2825 H 0.34605 1.05207 0.55503
 H2826 H 0.34304 1.04666 0.52040
 C2827 C -0.14116 0.56172 0.98474
 C2828 C -0.15011 0.57316 1.00665
 C2829 C -0.13476 0.56846 1.02883
 C2830 C -0.11003 0.55557 1.02806
 C2831 C -0.10004 0.54709 1.00510
 C2832 C -0.11693 0.54928 0.98397
 C2833 C -0.11209 0.55965 0.95837
 C2834 C -0.13870 0.57316 0.95921
 H2835 H -0.14133 0.57545 1.04667
 H2836 H -0.09834 0.55334 1.04519
 H2837 H -0.11138 0.54388 0.94417
 H2838 H -0.09552 0.57358 0.95817
 H2839 H -0.15329 0.56504 0.94557
 H2840 H -0.13753 0.59485 0.95942
 C2841 C 0.03614 0.63778 0.54787
 C2842 C 0.01929 0.65777 0.53907
 C2843 C 0.00501 0.65350 0.51650
 C2844 C 0.00377 0.62831 0.50622
 C2845 C 0.01673 0.60718 0.51851
 C2846 C 0.03478 0.61296 0.53789
 C2847 C 0.03951 0.60024 0.56285
 C2848 C 0.04103 0.62750 0.57382
 H2849 H -0.00717 0.66888 0.50819
 H2850 H -0.00925 0.62506 0.49018
 H2851 H 0.05855 0.58944 0.56400
 H2852 H 0.02232 0.58910 0.56923
 H2853 H 0.06094 0.63240 0.58128
 H2854 H 0.02473 0.63211 0.58650
 C2855 C 0.50835 0.16050 0.04760
 C2856 C 0.48618 0.17675 0.04521
 C2857 C 0.46575 0.16931 0.02862
 C2858 C 0.46598 0.14424 0.01794
 C2859 C 0.48636 0.12626 0.02431
 C2860 C 0.50834 0.13571 0.03751
 C2861 C 0.52400 0.12452 0.05912
 C2862 C 0.52437 0.15184 0.07009
 H2863 H 0.44851 0.18168 0.02598
 H2864 H 0.44909 0.13821 0.00673
 H2865 H 0.54367 0.11752 0.05369
 H2866 H 0.51271 0.11044 0.07035
 H2867 H 0.54422 0.16062 0.07056
 H2868 H 0.51384 0.15321 0.08791
 C2869 C -0.04840 0.13537 0.93448
 C2870 C -0.03745 0.15578 0.94856
 C2871 C -0.03012 0.15052 0.97372
 C2872 C -0.02842 0.12461 0.98238
 C2873 C -0.03425 0.10382 0.96599
 C2874 C -0.04684 0.10985 0.94307
 C2875 C -0.04222 0.09927 0.91758
 C2876 C -0.04384 0.12725 0.90811
 H2877 H -0.02290 0.16598 0.98576
 H2878 H -0.02025 0.12089 1.00100
 H2879 H -0.05876 0.08705 0.91062
 H2880 H -0.02240 0.09025 0.91594
 H2881 H -0.06126 0.13112 0.89560
 H2882 H -0.02494 0.13445 0.90100
 C2883 C 0.51701 0.65124 0.46576
 C2884 C 0.50102 0.65772 0.44497
 C2885 C 0.48552 0.63815 0.43379
 C2886 C 0.48476 0.61318 0.44437
 C2887 C 0.49965 0.60730 0.46629
 C2888 C 0.51629 0.62647 0.47621
 C2889 C 0.51830 0.63669 0.50227
 C2890 C 0.51883 0.66387 0.49089
 H2891 H 0.47406 0.64221 0.41680
 H2892 H 0.47250 0.59861 0.43538
 H2893 H 0.53713 0.63089 0.51187
 H2894 H 0.50042 0.63291 0.51306
 H2895 H 0.53787 0.67386 0.49413
 H2896 H 0.50116 0.67580 0.49511
 C2897 C 0.48562 0.86967 0.44407
 C2898 C 0.50100 0.86419 0.42354
 C2899 C 0.51078 0.88554 0.40999
 C2900 C 0.50840 0.91108 0.41928
 C2901 C 0.49597 0.91556 0.44208
 C2902 C 0.48311 0.89469 0.45311
 C2903 C 0.48370 0.88537 0.47966
 C2904 C 0.48647 0.85783 0.46965
 H2905 H 0.52118 0.88253 0.39288
 H2906 H 0.51751 0.92694 0.40941
 H2907 H 0.46467 0.88886 0.48876
 H2908 H 0.50136 0.89198 0.49049
 H2909 H 0.46907 0.84557 0.47306
 H2910 H 0.50574 0.84848 0.47456
 C2911 C -0.00804 0.35817 0.93294
 C2912 C 0.01649 0.34888 0.92580
 C2913 C 0.03643 0.36731 0.92240
 C2914 C 0.03283 0.39337 0.92997
 C2915 C 0.00916 0.40123 0.94082
 C2916 C -0.01159 0.38365 0.94027
 C2917 C -0.03178 0.37661 0.95869
 C2918 C -0.02782 0.34838 0.95072
 H2919 H 0.05517 0.36128 0.91521
 H2920 H 0.04911 0.40672 0.92897
 H2921 H -0.05151 0.38459 0.95327
 H2922 H -0.02529 0.38011 0.97840
 H2923 H -0.04531 0.34010 0.94086
 H2924 H -0.01927 0.33618 0.96618
 C2925 C 0.51585 0.37520 0.08887
 C2926 C 0.49283 0.36672 0.09971
 C2927 C 0.47080 0.38358 0.09869
 C2928 C 0.47104 0.40643 0.08405
 C2929 C 0.49312 0.41233 0.06989
 C2930 C 0.51596 0.39741 0.07414
 C2931 C 0.53444 0.38535 0.05623
 C2932 C 0.53432 0.36094 0.07248
 H2933 H 0.45294 0.37827 0.10782
 H2934 H 0.45339 0.41835 0.08245
 H2935 H 0.55377 0.39519 0.05658
 H2936 H 0.52536 0.38242 0.03730
 H2937 H 0.55352 0.35681 0.08216
 H2938 H 0.52512 0.34388 0.06300
 C2939 C -0.00186 0.85252 0.54338
 C2940 C -0.01131 0.84903 0.56739
 C2941 C -0.01696 0.87156 0.58149
 C2942 C -0.01507 0.89658 0.57074
 C2943 C -0.00719 0.89938 0.54587
 C2944 C 0.00029 0.87702 0.53294
 C2945 C -0.00885 0.86777 0.50773
 C2946 C -0.01125 0.84080 0.51927
 H2947 H -0.02277 0.86997 0.60073
 H2948 H -0.01975 0.91358 0.58181
 H2949 H 0.00684 0.86881 0.49379
 H2950 H -0.02801 0.87660 0.50157
 H2951 H 0.00303 0.82638 0.51195
 H2952 H -0.03184 0.83391 0.51991
 C2953 C 0.27944 0.32513 0.12746
 C2954 C 0.27526 0.30767 0.10764
 C2955 C 0.27723 0.28069 0.11378
 C2956 C 0.27883 0.27220 0.13908
 C2957 C 0.27842 0.29047 0.15878
 C2958 C 0.28065 0.31687 0.15213
 C2959 C 0.26676 0.34090 0.16081
 C2960 C 0.26561 0.35003 0.13383
 H2961 H 0.27611 0.26601 0.09933
 H2962 H 0.27812 0.25147 0.14310
 H2963 H 0.27949 0.35318 0.17310
 H2964 H 0.24695 0.33694 0.16783
 H2965 H 0.27785 0.36752 0.13073
 H2966 H 0.24533 0.35123 0.12562
 C2967 C 0.75794 0.82407 0.61959
 C2968 C 0.76166 0.80837 0.59865
 C2969 C 0.76871 0.78185 0.60332
 C2970 C 0.76910 0.77139 0.62800
 C2971 C 0.76227 0.78720 0.64846
 C2972 C 0.75807 0.81386 0.64355
 C2973 C 0.73639 0.83182 0.65110
 C2974 C 0.73639 0.84307 0.62481
 H2975 H 0.77323 0.76900 0.58798
 H2976 H 0.77358 0.75085 0.63083
 H2977 H 0.74297 0.84599 0.66561
 H2978 H 0.71805 0.82126 0.65516
 H2979 H 0.74308 0.86365 0.62427
 H2980 H 0.71808 0.83909 0.61372
 C2981 C 0.23785 0.72339 0.60358
 C2982 C 0.22972 0.69804 0.59726
 C2983 C 0.21572 0.68437 0.61556
 C2984 C 0.21431 0.69388 0.64018
 C2985 C 0.22608 0.71767 0.64699
 C2986 C 0.23601 0.73301 0.62783
 C2987 C 0.26159 0.74675 0.62654
 C2988 C 0.26362 0.73628 0.60009
 H2989 H 0.20722 0.66554 0.61144
 H2990 H 0.20566 0.68174 0.65431
 H2991 H 0.27677 0.73853 0.63982
 H2992 H 0.25909 0.76834 0.62721
 H2993 H 0.27998 0.72197 0.59800
 H2994 H 0.26234 0.75188 0.58556
 C2995 C 0.72304 0.22795 0.10215
 C2996 C 0.74322 0.21231 0.09283
 C2997 C 0.76614 0.20901 0.10779
 C2998 C 0.76710 0.21791 0.13261
 C2999 C 0.74506 0.23019 0.14311
 C3000 C 0.72394 0.23677 0.12681
 C3001 C 0.69523 0.23283 0.12958
 C3002 C 0.69425 0.22316 0.10270
 H3003 H 0.78259 0.19790 0.10089
 H3004 H 0.78443 0.21341 0.14411
 H3005 H 0.68453 0.25164 0.13199
 H3006 H 0.69086 0.21742 0.14353
 H3007 H 0.68292 0.23638 0.08974
 H3008 H 0.68939 0.20210 0.10104
 C3009 C 0.77489 0.23716 0.89577
 C3010 C 0.78003 0.21138 0.90346
 C3011 C 0.79591 0.19585 0.88821
 C3012 C 0.80233 0.20453 0.86412
 C3013 C 0.79349 0.22914 0.85508
 C3014 C 0.78161 0.24593 0.87213
 C3015 C 0.75711 0.26212 0.86936
 C3016 C 0.74991 0.25260 0.89522
 H3017 H 0.80120 0.17611 0.89392
 H3018 H 0.81180 0.19098 0.85167
 H3019 H 0.74361 0.25507 0.85419
 H3020 H 0.76134 0.28337 0.86873
 H3021 H 0.73220 0.24011 0.89497
 H3022 H 0.75010 0.26835 0.90946
 C3023 C 0.23716 0.73600 0.39461
 C3024 C 0.25667 0.71900 0.40434
 C3025 C 0.28052 0.71798 0.39149
 C3026 C 0.28258 0.72996 0.36771
 C3027 C 0.26101 0.74355 0.35659
 C3028 C 0.23933 0.74795 0.37150
 C3029 C 0.21045 0.74756 0.36627
 C3030 C 0.20797 0.73446 0.39173
 H3031 H 0.29671 0.70605 0.39875
 H3032 H 0.30003 0.72646 0.35711
 H3033 H 0.20480 0.73460 0.35046
 H3034 H 0.20172 0.76755 0.36539
 H3035 H 0.20049 0.71426 0.39009
 H3036 H 0.19782 0.74698 0.40545
 C3037 C 0.71232 0.79079 0.38933
 C3038 C 0.73413 0.78639 0.40545
 C3039 C 0.75219 0.76676 0.39864
 C3040 C 0.75027 0.75500 0.37483
 C3041 C 0.73053 0.76295 0.35734
 C3042 C 0.71079 0.77967 0.36568
 C3043 C 0.69863 0.80367 0.35418
 C3044 C 0.70024 0.81586 0.38007
 H3045 H 0.76879 0.76187 0.41094
 H3046 H 0.76572 0.74175 0.36924
 H3047 H 0.67815 0.80034 0.34731
 H3048 H 0.71148 0.81333 0.34058
 H3049 H 0.68069 0.81953 0.38810
 H3050 H 0.71403 0.83252 0.38144
 C3051 C 0.22673 0.26002 0.90772
 C3052 C 0.25036 0.26770 0.91959
 C3053 C 0.27377 0.25709 0.91016
 C3054 C 0.27353 0.24387 0.88713
 C3055 C 0.24986 0.24031 0.87341
 C3056 C 0.22649 0.24659 0.88513
 C3057 C 0.20284 0.26122 0.87534
 C3058 C 0.20308 0.27591 0.89999
 H3059 H 0.29251 0.26090 0.91938
 H3060 H 0.29205 0.23871 0.87893
 H3061 H 0.18558 0.24831 0.87275
 H3062 H 0.20705 0.27384 0.85898
 H3063 H 0.18592 0.27148 0.91156
 H3064 H 0.20745 0.29704 0.89796
 C3065 C 0.83675 0.38265 0.72674
 C3066 C 0.84472 0.39668 0.74796
 C3067 C 0.84277 0.38383 0.77134
 C3068 C 0.83092 0.35892 0.77307
 C3069 C 0.82039 0.34651 0.75150
 C3070 C 0.82483 0.35856 0.72844
 C3071 C 0.80647 0.36452 0.70681
 C3072 C 0.81965 0.39092 0.70493
 H3073 H 0.84996 0.39313 0.78831
 H3074 H 0.82918 0.34993 0.79130
 H3075 H 0.78566 0.36596 0.71234
 H3076 H 0.81010 0.35174 0.69050
 H3077 H 0.80650 0.40764 0.70935
 H3078 H 0.83093 0.39323 0.68761
 C3079 C 0.34301 0.88348 0.23391
 C3080 C 0.34123 0.90208 0.25323
 C3081 C 0.32904 0.89298 0.27530
 C3082 C 0.31721 0.86803 0.27646
 C3083 C 0.31643 0.85145 0.25549
 C3084 C 0.33071 0.85940 0.23490
 C3085 C 0.32348 0.85976 0.20768
 C3086 C 0.33678 0.88604 0.20641
 H3087 H 0.32841 0.90475 0.29199
 H3088 H 0.30740 0.86244 0.29332
 H3089 H 0.30194 0.86113 0.20394
 H3090 H 0.33386 0.84422 0.19728
 H3091 H 0.32297 0.90249 0.20194
 H3092 H 0.35463 0.88542 0.19499
 C3093 C 0.16663 0.86877 0.76973
 C3094 C 0.15716 0.88134 0.74797
 C3095 C 0.16098 0.86819 0.72506
 C3096 C 0.17607 0.84478 0.72425
 C3097 C 0.18791 0.83413 0.74629
 C3098 C 0.18158 0.84605 0.76891
 C3099 C 0.19881 0.85433 0.79047
 C3100 C 0.18236 0.87923 0.79136
 H3101 H 0.15283 0.87620 0.70772
 H3102 H 0.17912 0.83560 0.70636
 H3103 H 0.21939 0.85774 0.78506
 H3104 H 0.19662 0.84161 0.80715
 H3105 H 0.19337 0.89709 0.78647
 H3106 H 0.17069 0.88077 0.80853
 C3107 C 0.65577 0.36738 0.26612
 C3108 C 0.65339 0.38357 0.24501
 C3109 C 0.66163 0.37273 0.22214
 C3110 C 0.67437 0.34789 0.22149
 C3111 C 0.67950 0.33347 0.24375
 C3112 C 0.66858 0.34337 0.26559
 C3113 C 0.68024 0.34694 0.29131
 C3114 C 0.66605 0.37318 0.29190
 H3115 H 0.65901 0.38367 0.20487
 H3116 H 0.68139 0.34075 0.20386
 H3117 H 0.70195 0.34881 0.29142
 H3118 H 0.67265 0.33258 0.30488
 H3119 H 0.67951 0.39013 0.29242
 H3120 H 0.65021 0.37382 0.30572
 C3121 C 0.68075 0.60805 0.28236
 C3122 C 0.68487 0.58854 0.26439
 C3123 C 0.70664 0.59213 0.24891
 C3124 C 0.72084 0.61576 0.24928
 C3125 C 0.71412 0.63631 0.26553
 C3126 C 0.69504 0.63104 0.28303
 C3127 C 0.67190 0.64703 0.29030
 C3128 C 0.65614 0.62202 0.28940
 H3129 H 0.71224 0.57728 0.23572
 H3130 H 0.73623 0.61837 0.23601
 H3131 H 0.66562 0.66155 0.27571
 H3132 H 0.67445 0.65497 0.30951
 H3133 H 0.64081 0.62190 0.27417
 H3134 H 0.64937 0.61598 0.30810
 C3135 C 0.19887 0.08320 0.75401
 C3136 C 0.17844 0.07857 0.77028
 C3137 C 0.17618 0.09573 0.79079
 C3138 C 0.19161 0.11848 0.79264
 C3139 C 0.20923 0.12487 0.77373
 C3140 C 0.21350 0.10587 0.75540
 C3141 C 0.21492 0.10779 0.72758
 C3142 C 0.19900 0.08286 0.72612
 H3143 H 0.16161 0.09230 0.80471
 H3144 H 0.18814 0.13204 0.80771
 H3145 H 0.23529 0.10521 0.72110
 H3146 H 0.20408 0.12501 0.71965
 H3147 H 0.21027 0.06590 0.71895
 H3148 H 0.17910 0.08575 0.71741
 C3149 C 0.31225 0.12453 0.22368
 C3150 C 0.31046 0.10579 0.24277
 C3151 C 0.29222 0.11120 0.26155
 C3152 C 0.27930 0.13579 0.26265
 C3153 C 0.28415 0.15567 0.24496
 C3154 C 0.29956 0.14870 0.22478
 C3155 C 0.32226 0.16249 0.21413
 C3156 C 0.33602 0.13614 0.21263
 H3157 H 0.28869 0.09697 0.27605
 H3158 H 0.26666 0.13964 0.27815
 H3159 H 0.33177 0.17575 0.22801
 H3160 H 0.31733 0.17123 0.19549
 H3161 H 0.35372 0.13439 0.22522
 H3162 H 0.33881 0.12960 0.19309
 C3163 C 0.82460 0.62244 0.71231
 C3164 C 0.81958 0.60156 0.72866
 C3165 C 0.79612 0.60352 0.74208
 C3166 C 0.78111 0.62691 0.74193
 C3167 C 0.78864 0.64887 0.72786
 C3168 C 0.80949 0.64530 0.71178
 C3169 C 0.83270 0.66206 0.70763
 C3170 C 0.84929 0.63721 0.70835
 H3171 H 0.78986 0.58757 0.75370
 H3172 H 0.76451 0.62831 0.75403
 H3173 H 0.83704 0.67545 0.72351
 H3174 H 0.83169 0.67147 0.68887
 H3175 H 0.86317 0.63604 0.72477
 H3176 H 0.85803 0.63270 0.69005
 C3177 C 0.88133 0.78000 0.18364
 C3178 C 0.90397 0.76690 0.19318
 C3179 C 0.90274 0.75698 0.21799
 C3180 C 0.87885 0.75612 0.23032
 C3181 C 0.85561 0.76502 0.21819
 C3182 C 0.85775 0.77865 0.19569
 C3183 C 0.84196 0.77633 0.17187
 C3184 C 0.86761 0.77784 0.15848
 H3185 H 0.91987 0.74914 0.22792
 H3186 H 0.87840 0.74683 0.24853
 H3187 H 0.82892 0.79355 0.16829
 H3188 H 0.83230 0.75704 0.16984
 H3189 H 0.86915 0.79598 0.14714
 H3190 H 0.87271 0.75950 0.14856
 C3191 C 0.39663 0.23352 0.71199
 C3192 C 0.40035 0.25464 0.69588
 C3193 C 0.37805 0.26931 0.68778
 C3194 C 0.35339 0.26442 0.69771
 C3195 C 0.35062 0.24467 0.71582
 C3196 C 0.37237 0.22866 0.72164
 C3197 C 0.38379 0.22021 0.74641
 C3198 C 0.41048 0.22583 0.73604
 H3199 H 0.37981 0.28495 0.67425
 H3200 H 0.33684 0.27666 0.69187
 H3201 H 0.38064 0.19911 0.75011
 H3202 H 0.37846 0.23361 0.76181
 H3203 H 0.42288 0.20801 0.73402
 H3204 H 0.42018 0.24244 0.74576
 C3205 C 0.39632 0.75430 0.79945
 C3206 C 0.40431 0.73613 0.81787
 C3207 C 0.38589 0.71763 0.82562
 C3208 C 0.36081 0.71665 0.81423
 C3209 C 0.35362 0.73411 0.79474
 C3210 C 0.37151 0.75330 0.78824
 C3211 C 0.38117 0.76023 0.76307
 C3212 C 0.40843 0.76093 0.77510
 H3213 H 0.39091 0.70382 0.84045
 H3214 H 0.34724 0.70206 0.82053
 H3215 H 0.37386 0.77974 0.75663
 H3216 H 0.37857 0.74419 0.74927
 H3217 H 0.41705 0.78079 0.77523
 H3218 H 0.42148 0.74515 0.76820
 C3219 C 0.88843 0.26270 0.31205
 C3220 C 0.89949 0.23901 0.32063
 C3221 C 0.88243 0.21786 0.32394
 C3222 C 0.85608 0.21961 0.31558
 C3223 C 0.84632 0.24260 0.30381
 C3224 C 0.86253 0.26443 0.30393
 C3225 C 0.86809 0.28430 0.28439
 C3226 C 0.89668 0.28230 0.29306
 H3227 H 0.88972 0.19958 0.33188
 H3228 H 0.84396 0.20245 0.31690
 H3229 H 0.85896 0.30360 0.28840
 H3230 H 0.86467 0.27695 0.26507
 H3231 H 0.90412 0.30053 0.30184
 H3232 H 0.90909 0.27393 0.27832
 C3233 C 0.11227 0.30446 0.31664
 C3234 C 0.09151 0.29388 0.30243
 C3235 C 0.09607 0.28696 0.27750
 C3236 C 0.12182 0.28571 0.26904
 C3237 C 0.14315 0.29104 0.28559
 C3238 C 0.13769 0.30283 0.30843
 C3239 C 0.14875 0.29734 0.33412
 C3240 C 0.12087 0.29915 0.34318
 H3241 H 0.08025 0.27962 0.26562
 H3242 H 0.12501 0.27795 0.25055
 H3243 H 0.16143 0.31340 0.34119
 H3244 H 0.15749 0.27740 0.33604
 H3245 H 0.11747 0.31628 0.35541
 H3246 H 0.11350 0.28028 0.35041
 C3247 C 0.60541 0.76049 0.79947
 C3248 C 0.60346 0.76954 0.82391
 C3249 C 0.62676 0.77629 0.83713
 C3250 C 0.65093 0.77556 0.82525
 C3251 C 0.65217 0.76792 0.80003
 C3252 C 0.62914 0.75966 0.78782
 C3253 C 0.61708 0.76866 0.76344
 C3254 C 0.59097 0.76957 0.77630
 H3255 H 0.62638 0.78187 0.85662
 H3256 H 0.66852 0.78090 0.83576
 H3257 H 0.61799 0.75331 0.74884
 H3258 H 0.62409 0.78823 0.75767
 H3259 H 0.57689 0.75475 0.76912
 H3260 H 0.58275 0.78967 0.77808
 C3261 C 0.61628 0.26375 0.71654
 C3262 C 0.60640 0.24577 0.69931
 C3263 C 0.62381 0.22747 0.68902
 C3264 C 0.65009 0.22611 0.69758
 C3265 C 0.65910 0.24272 0.71686
 C3266 C 0.64195 0.26206 0.72533
 C3267 C 0.63459 0.26878 0.75138
 C3268 C 0.60636 0.27069 0.74164
 H3269 H 0.61713 0.21439 0.67435
 H3270 H 0.66313 0.21193 0.68938
 H3271 H 0.64266 0.28789 0.75747
 H3272 H 0.63819 0.25235 0.76478
 H3273 H 0.59820 0.29091 0.74203
 H3274 H 0.59351 0.25542 0.74939
 C3275 C 0.10428 0.76622 0.20418
 C3276 C 0.09938 0.75233 0.18211
 C3277 C 0.12097 0.74593 0.16731
 C3278 C 0.14663 0.74989 0.17643
 C3279 C 0.15110 0.76091 0.20019
 C3280 C 0.12959 0.77051 0.21301
 C3281 C 0.12231 0.76629 0.23957
 C3282 C 0.09451 0.76151 0.22983
 H3283 H 0.11821 0.73710 0.14909
 H3284 H 0.16284 0.74318 0.16546
 H3285 H 0.12408 0.78443 0.25081
 H3286 H 0.13195 0.74866 0.24812
 H3287 H 0.08035 0.77686 0.23554
 H3288 H 0.08797 0.74107 0.23262
   
