data_POSCAR
  _audit_creation_date              2014-09-24
  _audit_creation_method            'ToBaCCo'
  _symmetry_space_group_name_H-M    'P1'
  _symmetry_Int_Tables_number       1
  _symmetry_cell_setting            triclinic
  loop_
  _symmetry_equiv_pos_as_xyz
 x,y,z
_cell_length_a 63.0645
_cell_length_b 63.2173
_cell_length_c 62.1966
_cell_angle_alpha 88.358000
_cell_angle_beta 90.167500
_cell_angle_gamma 90.073300
loop_
  _atom_site_label
  _atom_site_type_symbol
  _atom_site_fract_x
  _atom_site_fract_y
  _atom_site_fract_z
Si1 Si 0.75030 0.61485 0.99935
 Si2 Si 0.74704 0.38357 0.49335
 Si3 Si 0.25786 -0.11922 0.00449
 Si4 Si 0.24679 0.13967 0.50029
 Si5 Si 0.11586 0.51575 0.24506
 Si6 Si -0.11449 0.00273 0.24779
 Si7 Si 0.38488 0.49481 0.75563
 Si8 Si 0.62868 0.99575 0.74299
 Si9 Si -0.00233 0.24680 -0.11846
 Si10 Si 0.49779 0.24466 0.12133
 Si11 Si 1.01163 0.74662 0.63019
 Si12 Si 0.49985 0.74738 0.38902
 C13 C 0.38892 -0.02598 0.29508
 H14 H 0.37937 -0.01651 0.30551
 C15 C 0.39939 -0.04380 0.30353
 H16 H 0.39752 -0.04800 0.32042
 C17 C 0.40228 -0.03241 0.26030
 H18 H 0.40311 -0.02791 0.24341
 C19 C 0.41305 -0.05036 0.26809
 H20 H 0.42244 -0.05944 0.25711
 N21 N 0.39037 -0.02077 0.27378
 C22 C 0.38311 0.04184 0.24345
 H23 H 0.36601 0.04252 0.24221
 C24 C 0.39531 0.05854 0.23521
 H25 H 0.38757 0.07207 0.22754
 C26 C 0.41401 0.02331 0.25486
 H27 H 0.42118 0.00949 0.26248
 C28 C 0.42686 0.03994 0.24718
 H29 H 0.44393 0.03881 0.24873
 Zn30 Zn 0.37439 0.00204 0.26202
 N31 N 0.39255 0.02443 0.25256
 C32 C 0.36031 0.03183 0.29160
 N33 N 0.35593 0.01252 0.28352
 C34 C 0.33957 0.00060 0.29144
 C35 C 0.32680 0.00810 0.30790
 C36 C 0.34790 0.03997 0.30791
 C37 C 0.36137 0.00107 0.21818
 C38 C 0.35059 -0.00663 0.20043
 C39 C 0.33533 -0.03395 0.22344
 C40 C 0.34636 -0.02565 0.24083
 N41 N 0.35883 -0.00819 0.23805
 H42 H 0.37379 0.04084 0.28583
 H43 H 0.33657 -0.01490 0.28531
 H44 H 0.31383 -0.00158 0.31397
 H45 H 0.35194 0.05522 0.31430
 H46 H 0.37213 0.01414 0.21578
 H47 H 0.35311 0.00086 0.18477
 H48 H 0.32540 -0.04777 0.22602
 H49 H 0.34536 -0.03352 0.25642
 C50 C 0.41744 0.05759 0.23687
 C51 C 0.41151 -0.05639 0.28996
 C52 C 0.33731 -0.02433 0.20292
 C53 C 0.33090 0.02807 0.31630
 C54 C 0.09053 1.02093 0.77788
 H55 H 0.09078 1.00572 0.78630
 C56 C 0.07819 1.03732 0.78579
 H57 H 0.06861 1.03441 0.79998
 C58 C 0.10363 1.04356 0.74995
 H59 H 0.11408 1.04625 0.73644
 C60 C 0.09152 1.06034 0.75726
 H61 H 0.09288 1.07569 0.74920
 N62 N 0.10321 1.02438 0.76046
 C63 C 0.12116 0.96519 0.73137
 H64 H 0.13738 0.96937 0.72760
 C65 C 0.11258 0.94661 0.72352
 H66 H 0.12245 0.93642 0.71408
 C67 C 0.08859 0.97359 0.74796
 H68 H 0.07919 0.98428 0.75721
 C69 C 0.07939 0.95498 0.74055
 H70 H 0.06294 0.95153 0.74417
 Zn71 Zn 0.12296 1.00325 0.75247
 N72 N 0.10922 0.97824 0.74342
 C73 C 0.15318 0.97903 0.77615
 N74 N 0.14088 0.99668 0.77635
 C75 C 0.14067 1.00931 0.79371
 C76 C 0.15244 1.00389 0.81210
 C77 C 0.16521 0.97302 0.79419
 C78 C 0.12914 1.01598 0.70978
 C79 C 0.13970 1.02470 0.69199
 C80 C 0.17113 1.02821 0.71395
 C81 C 0.15992 1.01939 0.73140
 N82 N 0.13923 1.01380 0.72906
 H83 H 0.15333 0.96929 0.76219
 H84 H 0.13127 1.02359 0.79341
 H85 H 0.15192 1.01407 0.82579
 H86 H 0.17429 0.95851 0.79395
 H87 H 0.11272 1.01125 0.70839
 H88 H 0.13133 1.02640 0.67681
 H89 H 0.18739 1.03320 0.71620
 H90 H 0.16758 1.01749 0.74691
 C91 C 0.09143 0.94129 0.72806
 C92 C 0.07894 1.05748 0.77569
 C93 C 0.16088 1.03126 0.69400
 C94 C 0.16467 0.98534 0.81262
 C95 C 0.56725 0.52110 0.26967
 H96 H 0.56559 0.50534 0.27672
 C97 C 0.55564 0.53783 0.27789
 H98 H 0.54469 0.53467 0.29097
 C99 C 0.58417 0.54437 0.24458
 H100 H 0.59584 0.54697 0.23209
 C101 C 0.57304 0.56157 0.25241
 H102 H 0.57638 0.57724 0.24580
 N103 N 0.58137 0.52468 0.25351
 C104 C 0.59776 0.46342 0.22809
 H105 H 0.61481 0.46513 0.22893
 C106 C 0.58894 0.44529 0.21959
 H107 H 0.59938 0.43296 0.21418
 C108 C 0.56361 0.47747 0.23456
 H109 H 0.55386 0.49021 0.24018
 C110 C 0.55406 0.45950 0.22609
 H111 H 0.53693 0.45856 0.22522
 Zn112 Zn 0.59984 0.50258 0.24610
 N113 N 0.58512 0.47896 0.23554
 C114 C 0.61366 0.47423 0.27919
 N115 N 0.61514 0.49445 0.27126
 C116 C 0.62662 0.50928 0.28166
 C117 C 0.63770 0.50381 0.30052
 C118 C 0.62439 0.46812 0.29797
 C119 C 0.60934 0.51473 0.20406
 C120 C 0.62183 0.52034 0.18632
 C121 C 0.65254 0.52045 0.20966
 C122 C 0.63951 0.51443 0.22692
 N123 N 0.61830 0.51185 0.22384
 H124 H 0.60402 0.46278 0.27112
 H125 H 0.62712 0.52538 0.27531
 H126 H 0.64673 0.51580 0.30863
 H127 H 0.62327 0.45185 0.30378
 H128 H 0.59247 0.51237 0.20205
 H129 H 0.61448 0.52254 0.17066
 H130 H 0.66941 0.52244 0.21226
 H131 H 0.64641 0.51165 0.24264
 C132 C 0.56681 0.44315 0.21840
 C133 C 0.55887 0.55852 0.26963
 C134 C 0.64370 0.52328 0.18906
 C135 C 0.63663 0.48297 0.30890
 C136 C 0.89943 0.47413 0.77459
 H137 H 0.89991 0.48862 0.78342
 C138 C 0.90956 0.45597 0.78288
 H139 H 0.91778 0.45670 0.79814
 C140 C 0.88682 0.45529 0.74476
 H141 H 0.87751 0.45482 0.73020
 C142 C 0.89681 0.43687 0.75236
 H143 H 0.89549 0.42265 0.74314
 N144 N 0.88821 0.47344 0.75591
 C145 C 0.87907 0.53716 0.72856
 H146 H 0.86222 0.53608 0.72545
 C147 C 0.89007 0.55551 0.72259
 H148 H 0.88159 0.56840 0.71461
 C149 C 0.91049 0.52141 0.74252
 H150 H 0.91832 0.50808 0.75036
 C151 C 0.92218 0.53953 0.73673
 H152 H 0.93898 0.54006 0.74033
 Zn153 Zn 0.87195 0.49743 0.74707
 N154 N 0.88925 0.52074 0.73868
 C155 C 0.85421 0.52537 0.77691
 N156 N 0.85478 0.50495 0.77061
 C157 C 0.84419 0.48940 0.78174
 C158 C 0.83263 0.49414 0.80014
 C159 C 0.84255 0.53085 0.79491
 C160 C 0.86527 0.48731 0.70432
 C161 C 0.85390 0.48216 0.68593
 C162 C 0.82144 0.48517 0.70617
 C163 C 0.83349 0.49012 0.72426
 N164 N 0.85500 0.49083 0.72306
 H165 H 0.86303 0.53747 0.76823
 H166 H 0.84511 0.47325 0.77654
 H167 H 0.82447 0.48161 0.80902
 H168 H 0.84249 0.54715 0.79984
 H169 H 0.88239 0.48819 0.70379
 H170 H 0.86251 0.47874 0.67141
 H171 H 0.80433 0.48478 0.70740
 H172 H 0.82564 0.49337 0.73923
 C173 C 0.91187 0.55700 0.72690
 C174 C 0.90809 0.43691 0.77186
 C175 C 0.83166 0.48095 0.68668
 C176 C 0.83174 0.51512 0.80686
 C177 C 0.27464 0.40007 -0.01358
 H178 H 0.28354 0.39768 0.00117
 C179 C 0.28438 0.40975 -0.03147
 H180 H 0.30075 0.41473 -0.03019
 C181 C 0.24320 0.39474 -0.03359
 H182 H 0.22740 0.38843 -0.03476
 C183 C 0.25217 0.40465 -0.05171
 H184 H 0.24273 0.40630 -0.06622
 N185 N 0.25444 0.39262 -0.01495
 C186 C 0.21691 0.39075 0.04178
 H187 H 0.20745 0.37721 0.03761
 C188 C 0.20999 0.40380 0.05801
 H189 H 0.19518 0.40018 0.06609
 C190 C 0.24805 0.41134 0.03703
 H191 H 0.26287 0.41419 0.02879
 C192 C 0.24176 0.42478 0.05333
 H193 H 0.25174 0.43804 0.05738
 Zn194 Zn 0.24354 0.37671 0.00904
 N195 N 0.23548 0.39486 0.03140
 C196 C 0.27072 0.35728 0.04006
 N197 N 0.26533 0.35840 0.01887
 C198 C 0.27641 0.34769 0.00395
 C199 C 0.29417 0.33579 0.01004
 C200 C 0.28821 0.34532 0.04690
 C201 C 0.20202 0.37194 -0.00609
 C202 C 0.18420 0.36139 -0.01361
 C203 C 0.20186 0.32811 -0.00593
 C204 C 0.21959 0.33935 0.00109
 N205 N 0.21948 0.36090 0.00052
 H206 H 0.26171 0.36603 0.05160
 H207 H 0.27180 0.34896 -0.01280
 H208 H 0.30310 0.32768 -0.00207
 H209 H 0.29265 0.34500 0.06374
 H210 H 0.20212 0.38904 -0.00585
 H211 H 0.17062 0.37042 -0.01931
 H212 H 0.20222 0.31098 -0.00583
 H213 H 0.23349 0.33087 0.00676
 C214 C 0.22236 0.42120 0.06385
 C215 C 0.27319 0.41197 -0.05099
 C216 C 0.18411 0.33924 -0.01378
 C217 C 0.30039 0.33471 0.03173
 C218 C 0.76914 0.09094 1.02051
 H219 H 0.77753 0.08962 1.00546
 C220 C 0.77672 0.08041 1.03904
 H221 H 0.79098 0.07096 1.03813
 C222 C 0.74114 0.10602 1.04025
 H223 H 0.72757 0.11639 1.04079
 C224 C 0.74827 0.09593 1.05917
 H225 H 0.73986 0.09837 1.07405
 N226 N 0.75172 0.10354 1.02146
 C227 C 0.72829 0.11358 0.95588
 H228 H 0.72693 0.13064 0.95582
 C229 C 0.72231 0.10253 0.93776
 H230 H 0.71610 0.11122 0.92387
 C231 C 0.73759 0.08162 0.97438
 H232 H 0.74345 0.07356 0.98874
 C233 C 0.73172 0.06990 0.95657
 H234 H 0.73338 0.05285 0.95731
 Zn235 Zn 0.74405 0.12011 0.99682
 N236 N 0.73605 0.10310 0.97358
 C237 C 0.77676 0.13464 0.96917
 N238 N 0.76805 0.13670 0.98898
 C239 C 0.77729 0.14912 1.00388
 C240 C 0.79601 0.16015 0.99904
 C241 C 0.79542 0.14529 0.96370
 C242 C 0.70147 0.12696 1.00510
 C243 C 0.68317 0.13805 1.01029
 C244 C 0.70410 0.17005 1.01161
 C245 C 0.72198 0.15839 1.00602
 N246 N 0.72040 0.13717 1.00326
 H247 H 0.76959 0.12433 0.95768
 H248 H 0.77037 0.15006 1.01972
 H249 H 0.80339 0.16961 1.01122
 H250 H 0.80208 0.14339 0.94784
 H251 H 0.70067 0.11009 1.00275
 H252 H 0.66829 0.12962 1.01208
 H253 H 0.70558 0.18687 1.01412
 H254 H 0.73709 0.16627 1.00417
 C255 C 0.72414 0.08040 0.93787
 C256 C 0.76646 0.08318 1.05877
 C257 C 0.68442 0.15982 1.01386
 C258 C 0.80543 0.15806 0.97878
 C259 C 0.27521 0.57961 0.52476
 H260 H 0.28436 0.57961 0.51006
 C261 C 0.28183 0.56741 0.54262
 H262 H 0.29618 0.55812 0.54152
 C263 C 0.24632 0.59305 0.54442
 H264 H 0.23280 0.60345 0.54527
 C265 C 0.25227 0.58101 0.56259
 H266 H 0.24290 0.58197 0.57709
 N267 N 0.25794 0.59234 0.52607
 C268 C 0.23764 0.60946 0.46089
 H269 H 0.23886 0.62648 0.46177
 C270 C 0.23033 0.60039 0.44211
 H271 H 0.22582 0.61056 0.42856
 C272 C 0.24145 0.57561 0.47787
 H273 H 0.24564 0.56609 0.49195
 C274 C 0.23394 0.56585 0.45941
 H275 H 0.23261 0.54877 0.45930
 Zn276 Zn 0.25220 0.61142 0.50284
 N277 N 0.24323 0.59705 0.47818
 C278 C 0.28710 0.62478 0.47738
 N279 N 0.27765 0.62650 0.49689
 C280 C 0.28691 0.63769 0.51277
 C281 C 0.30610 0.64827 0.50908
 C282 C 0.30636 0.63488 0.47310
 C283 C 0.21017 0.62093 0.51122
 C284 C 0.19274 0.63286 0.51738
 C285 C 0.21600 0.66290 0.52140
 C286 C 0.23297 0.65047 0.51481
 N287 N 0.22984 0.62975 0.51033
 H288 H 0.27994 0.61529 0.46517
 H289 H 0.27945 0.63825 0.52838
 H290 H 0.31330 0.65709 0.52187
 H291 H 0.31354 0.63345 0.45741
 H292 H 0.20811 0.60445 0.50745
 H293 H 0.17728 0.62544 0.51848
 H294 H 0.21874 0.67927 0.52531
 H295 H 0.24860 0.65734 0.51359
 C296 C 0.22840 0.57832 0.44120
 C297 C 0.27054 0.56834 0.56203
 C298 C 0.19563 0.65403 0.52287
 C299 C 0.31608 0.64683 0.48904
 C300 C 0.78587 0.89513 0.47894
 H301 H 0.79252 0.89733 0.49478
 C302 C 0.79437 0.90613 0.46113
 H303 H 0.80758 0.91680 0.46338
 C304 C 0.76127 0.87775 0.45662
 H305 H 0.74876 0.86628 0.45475
 C306 C 0.76933 0.88831 0.43842
 H307 H 0.76248 0.88522 0.42283
 N308 N 0.76952 0.88135 0.47642
 C309 C 0.74232 0.87207 0.54047
 H310 H 0.74176 0.85496 0.54076
 C311 C 0.73539 0.88307 0.55820
 H312 H 0.72929 0.87432 0.57208
 C313 C 0.75070 0.90419 0.52176
 H314 H 0.75656 0.91230 0.50745
 C315 C 0.74367 0.91588 0.53914
 H316 H 0.74441 0.93300 0.53819
 Zn317 Zn 0.75961 0.86526 0.50059
 N318 N 0.75018 0.88266 0.52290
 C319 C 0.79111 0.85236 0.53029
 N320 N 0.78251 0.84829 0.51075
 C321 C 0.79136 0.83382 0.49772
 C322 C 0.80967 0.82284 0.50420
 C323 C 0.80934 0.84185 0.53733
 C324 C 0.71893 0.86060 0.48558
 C325 C 0.70063 0.85065 0.47847
 C326 C 0.71693 0.81680 0.48683
 C327 C 0.73516 0.82747 0.49357
 N328 N 0.73589 0.84900 0.49248
 H329 H 0.78433 0.86432 0.54020
 H330 H 0.78450 0.83122 0.48204
 H331 H 0.81685 0.81177 0.49343
 H332 H 0.81599 0.84547 0.55288
 H333 H 0.71985 0.87769 0.48526
 H334 H 0.68740 0.86018 0.47276
 H335 H 0.71657 0.79967 0.48740
 H336 H 0.74867 0.81858 0.49955
 C337 C 0.73616 0.90525 0.55775
 C338 C 0.78618 0.90263 0.44050
 C339 C 0.69955 0.82849 0.47882
 C340 C 0.81908 0.82712 0.52411
 C341 C -0.02355 0.28850 0.39415
 H342 H -0.00874 0.29713 0.39321
 C343 C -0.04059 0.29668 0.40562
 H344 H -0.03875 0.31162 0.41350
 C345 C -0.04437 0.25924 0.38385
 H346 H -0.04604 0.24490 0.37499
 C347 C -0.06174 0.26681 0.39509
 H348 H -0.07641 0.25789 0.39510
 N349 N -0.02575 0.27013 0.38348
 C350 C 0.03525 0.24083 0.37146
 H351 H 0.03265 0.23714 0.35478
 C352 C 0.05342 0.23351 0.38204
 H353 H 0.06484 0.22429 0.37334
 C354 C 0.02346 0.25742 0.40296
 H355 H 0.01161 0.26655 0.41108
 C356 C 0.04162 0.25059 0.41414
 H357 H 0.04361 0.25446 0.43087
 Zn358 Zn -0.00343 0.26089 0.36566
 N359 N 0.02072 0.25255 0.38195
 C360 C 0.02454 0.28884 0.34359
 N361 N 0.00382 0.28355 0.34654
 C362 C -0.01201 0.29542 0.33747
 C363 C -0.00724 0.31377 0.32535
 C364 C 0.03001 0.30682 0.33132
 C365 C -0.01467 0.21873 0.36241
 C366 C -0.02142 0.20026 0.35281
 C367 C -0.02312 0.21942 0.31866
 C368 C -0.01628 0.23762 0.32897
 N369 N -0.01247 0.23697 0.35052
 H370 H 0.03690 0.27946 0.35116
 H371 H -0.02837 0.29098 0.34027
 H372 H -0.01999 0.32335 0.31863
 H373 H 0.04657 0.31109 0.32962
 H374 H -0.01125 0.21863 0.37947
 H375 H -0.02294 0.18591 0.36261
 H376 H -0.02653 0.22026 0.30159
 H377 H -0.01424 0.25228 0.31983
 C378 C 0.05677 0.23835 0.40365
 C379 C -0.06011 0.28592 0.40591
 C380 C -0.02596 0.20045 0.33069
 C381 C 0.01402 0.31973 0.32234
 C382 C 1.02057 0.78163 0.07139
 H383 H 1.00600 0.79000 0.06771
 C384 C 1.03930 0.78728 0.06064
 H385 H 1.03907 0.80003 0.04864
 C386 C 1.03897 0.75582 0.09259
 H387 H 1.03900 0.74400 0.10547
 C388 C 1.05799 0.76105 0.08240
 H389 H 1.07238 0.75289 0.08730
 N390 N 1.02082 0.76633 0.08724
 C391 C 0.95552 0.74795 0.10074
 H392 H 0.95577 0.75074 0.11782
 C393 C 0.93773 0.73890 0.09146
 H394 H 0.92414 0.73512 0.10147
 C395 C 0.97324 0.74922 0.06717
 H396 H 0.98738 0.75279 0.05796
 C397 C 0.95567 0.74008 0.05716
 H398 H 0.95638 0.73671 0.04021
 Zn399 Zn 0.99657 0.76176 0.10460
 N400 N 0.97285 0.75276 0.08865
 C401 C 0.97195 0.79786 0.11324
 N402 N 0.99035 0.78755 0.11812
 C403 C 1.00487 0.79597 0.13167
 C404 C 1.00063 0.81498 0.14178
 C405 C 0.96729 0.81709 0.12261
 C406 C 1.00338 0.71993 0.11628
 C407 C 1.00830 0.70225 0.12922
 C408 C 1.01079 0.72494 0.15974
 C409 C 1.00536 0.74220 0.14625
 N410 N 1.00227 0.73946 0.12484
 H411 H 0.96092 0.79132 0.10189
 H412 H 1.01973 0.78788 0.13468
 H413 H 1.01217 0.82138 0.15277
 H414 H 0.95249 0.82501 0.11872
 H415 H 1.00077 0.71818 0.09923
 H416 H 1.00958 0.68691 0.12203
 H417 H 1.01371 0.72732 0.17667
 H418 H 1.00397 0.75771 0.15290
 C419 C 0.93778 0.73442 0.06949
 C420 C 1.05840 0.77728 0.06657
 C421 C 1.01239 0.70471 0.15116
 C422 C 0.98163 0.82573 0.13724
 C423 C 0.52668 0.25714 0.58474
 H424 H 0.51318 0.25006 0.57704
 C425 C 0.54435 0.26303 0.57237
 H426 H 0.54434 0.26015 0.55529
 C427 C 0.54316 0.26987 0.61610
 H428 H 0.54234 0.27324 0.63299
 C429 C 0.56109 0.27590 0.60442
 H430 H 0.57400 0.28367 0.61257
 N431 N 0.52654 0.26032 0.60630
 C432 C 0.46061 0.25705 0.61102
 H433 H 0.46040 0.26993 0.62203
 C434 C 0.44194 0.25165 0.60039
 H435 H 0.42777 0.26085 0.60303
 C436 C 0.47915 0.22940 0.59440
 H437 H 0.49362 0.22048 0.59253
 C438 C 0.46076 0.22333 0.58360
 H439 H 0.46132 0.20968 0.57349
 Zn440 Zn 0.50335 0.25262 0.62437
 N441 N 0.47875 0.24589 0.60799
 C442 C 0.49465 0.29503 0.63060
 N443 N 0.49751 0.27622 0.64132
 C444 C 0.49649 0.27466 0.66314
 C445 C 0.49226 0.29259 0.67506
 C446 C 0.49022 0.31326 0.64183
 C447 C 0.50002 0.21055 0.64168
 C448 C 0.50718 0.19242 0.65283
 C449 C 0.53667 0.21265 0.66611
 C450 C 0.52905 0.23032 0.65458
 N451 N 0.51133 0.22889 0.64219
 H452 H 0.49558 0.29577 0.61323
 H453 H 0.49886 0.25953 0.67132
 H454 H 0.49169 0.29109 0.69243
 H455 H 0.48738 0.32791 0.63286
 H456 H 0.48567 0.20971 0.63227
 H457 H 0.49844 0.17778 0.65136
 H458 H 0.55092 0.21416 0.67570
 H459 H 0.53751 0.24510 0.65540
 C460 C 0.44173 0.23438 0.58668
 C461 C 0.56194 0.27237 0.58228
 C462 C 0.52602 0.19320 0.66488
 C463 C 0.48897 0.31223 0.66439
 C464 C 0.48305 0.77589 0.90621
 H465 H 0.49884 0.78243 0.90755
 C466 C 0.46624 0.78491 0.91735
 H467 H 0.46921 0.79834 0.92737
 C468 C 0.45971 0.75121 0.89063
 H469 H 0.45700 0.73844 0.87981
 C470 C 0.44249 0.75985 0.90125
 H471 H 0.42683 0.75325 0.89887
 N472 N 0.47957 0.75914 0.89337
 C473 C 0.53860 0.72461 0.88526
 H474 H 0.53678 0.72149 0.86834
 C475 C 0.55556 0.71581 0.89676
 H476 H 0.56685 0.70596 0.88861
 C477 C 0.52611 0.74135 0.91641
 H478 H 0.51446 0.75106 0.92407
 C479 C 0.54312 0.73315 0.92847
 H480 H 0.54448 0.73664 0.94536
 Zn481 Zn 0.50226 0.74793 0.87725
 N482 N 0.52434 0.73718 0.89512
 C483 C 0.53388 0.77450 0.85902
 N484 N 0.51283 0.76989 0.85905
 C485 C 0.49879 0.78182 0.84736
 C486 C 0.50572 0.79959 0.83546
 C487 C 0.54152 0.79193 0.84717
 C488 C 0.48518 0.70795 0.87268
 C489 C 0.47711 0.69046 0.86227
 C490 C 0.48504 0.70790 0.82813
 C491 C 0.49265 0.72530 0.83923
 N492 N 0.49230 0.72507 0.86112
 H493 H 0.54479 0.76493 0.86851
 H494 H 0.48208 0.77792 0.84787
 H495 H 0.49417 0.80937 0.82697
 H496 H 0.55837 0.79524 0.84737
 H497 H 0.48547 0.70809 0.89007
 H498 H 0.47121 0.67706 0.87172
 H499 H 0.48512 0.70826 0.81071
 H500 H 0.49876 0.73896 0.83041
 C501 C 0.55803 0.72016 0.91860
 C502 C 0.44563 0.77694 0.91477
 C503 C 0.47687 0.69037 0.83974
 C504 C 0.52734 0.80504 0.83553
 C505 C 0.47278 -0.19148 0.35474
 C506 C 0.47976 -0.19131 0.37621
 C507 C 0.48746 -0.20973 0.38634
 C508 C 0.48830 -0.22872 0.37528
 C509 C 0.48146 -0.22899 0.35382
 C510 C 0.47362 -0.21055 0.34367
 C511 C 0.46480 -0.17178 0.34401
 C512 C 0.44656 -0.17209 0.33100
 C513 C 0.43863 -0.15336 0.32157
 C514 C 0.44883 -0.13391 0.32487
 C515 C 0.46730 -0.13370 0.33757
 C516 C 0.47516 -0.15240 0.34705
 C517 C 0.43996 -0.11387 0.31555
 C518 C 0.44005 -0.09534 0.32752
 C519 C 0.43116 -0.07663 0.31908
 C520 C 0.42190 -0.07600 0.29849
 C521 C 0.42205 -0.09446 0.28640
 C522 C 0.43098 -0.11317 0.29483
 H523 H 0.47916 -0.17692 0.38522
 H524 H 0.49308 -0.20903 0.40277
 H525 H 0.48228 -0.24330 0.34478
 H526 H 0.46860 -0.21109 0.32703
 H527 H 0.43811 -0.18676 0.32857
 H528 H 0.42420 -0.15405 0.31214
 H529 H 0.47576 -0.11906 0.34009
 H530 H 0.48947 -0.15172 0.35668
 H531 H 0.44661 -0.09537 0.34362
 H532 H 0.43152 -0.06264 0.32872
 H533 H 0.41484 -0.09459 0.27059
 H534 H 0.43087 -0.12710 0.28510
 C535 C 0.97007 0.30385 0.84072
 C536 C 0.98761 0.30663 0.85429
 C537 C 0.99596 0.28958 0.86626
 C538 C 0.98719 0.26929 0.86465
 C539 C 0.96963 0.26640 0.85117
 C540 C 0.96109 0.28354 0.83930
 C541 C 0.96090 0.32234 0.82877
 C542 C 0.93889 0.32568 0.82838
 C543 C 0.93042 0.34397 0.81851
 C544 C 0.94377 0.35924 0.80867
 C545 C 0.96575 0.35556 0.80861
 C546 C 0.97421 0.33736 0.81859
 C547 C 0.93485 0.37909 0.79890
 C548 C 0.94552 0.39850 0.80089
 C549 C 0.93697 0.41721 0.79201
 C550 C 0.91749 0.41699 0.78098
 C551 C 0.90684 0.39757 0.77898
 C552 C 0.91543 0.37887 0.78776
 H553 H 0.99454 0.32216 0.85612
 H554 H 1.00900 0.29256 0.87705
 H555 H 0.96240 0.25092 0.85000
 H556 H 0.94754 0.28095 0.82897
 H557 H 0.92828 0.31451 0.83634
 H558 H 0.91345 0.34642 0.81913
 H559 H 0.97645 0.36675 0.80080
 H560 H 0.99122 0.33504 0.81839
 H561 H 0.96037 0.39931 0.80962
 H562 H 0.94570 0.43183 0.79370
 H563 H 0.89165 0.39683 0.77089
 H564 H 0.90689 0.36420 0.78570
 C565 C 0.02330 1.18944 0.84354
 C566 C 0.02556 1.19041 0.86598
 C567 C 0.01804 1.20778 0.87693
 C568 C 0.00797 1.22451 0.86576
 C569 C 0.00588 1.22388 0.84335
 C570 C 0.01341 1.20639 0.83230
 C571 C 0.03111 1.17062 0.83220
 C572 C 0.01908 1.16153 0.81577
 C573 C 0.02591 1.14295 0.80620
 C574 C 0.04488 1.13310 0.81290
 C575 C 0.05714 1.14252 0.82892
 C576 C 0.05036 1.16105 0.83842
 C577 C 0.05198 1.11302 0.80339
 C578 C 0.06087 1.09689 0.81656
 C579 C 0.06890 1.07855 0.80761
 C580 C 0.06825 1.07590 0.78527
 C581 C 0.05873 1.09173 0.77215
 C582 C 0.05063 1.11008 0.78112
 H583 H 0.03280 1.17751 0.87517
 H584 H 0.01981 1.20801 0.89425
 H585 H -0.00160 1.23675 0.83438
 H586 H 0.01167 1.20621 0.81499
 H587 H 0.00408 1.16842 0.81078
 H588 H 0.01608 1.13600 0.79397
 H589 H 0.07208 1.13559 0.83405
 H590 H 0.06022 1.16790 0.85070
 H591 H 0.06183 1.09856 0.83381
 H592 H 0.07632 1.06680 0.81815
 H593 H 0.05783 1.09005 0.75489
 H594 H 0.04393 1.12226 0.77057
 C595 C 0.51585 0.69143 0.34424
 C596 C 0.53218 0.70293 0.35402
 C597 C 0.52751 0.72021 0.36665
 C598 C 0.50645 0.72652 0.36954
 C599 C 0.49016 0.71572 0.35905
 C600 C 0.49480 0.69830 0.34653
 C601 C 0.52076 0.67172 0.33276
 C602 C 0.50975 0.66641 0.31396
 C603 C 0.51432 0.64762 0.30354
 C604 C 0.52996 0.63371 0.31173
 C605 C 0.54095 0.63909 0.33049
 C606 C 0.53636 0.65777 0.34090
 C607 C 0.53523 0.61384 0.30070
 C608 C 0.54032 0.59539 0.31276
 C609 C 0.54728 0.57726 0.30261
 C610 C 0.54914 0.57702 0.28010
 C611 C 0.54312 0.59517 0.26796
 C612 C 0.53627 0.61338 0.27814
 H613 H 0.54860 0.69835 0.35221
 H614 H 0.54041 0.72821 0.37452
 H615 H 0.47377 0.72024 0.36127
 H616 H 0.48183 0.68969 0.33941
 H617 H 0.49774 0.67688 0.30720
 H618 H 0.50546 0.64387 0.28920
 H619 H 0.55334 0.62895 0.33705
 H620 H 0.54489 0.66116 0.35554
 H621 H 0.53930 0.59506 0.33014
 H622 H 0.55199 0.56372 0.31253
 H623 H 0.54406 0.59543 0.25057
 H624 H 0.53255 0.62734 0.26837
 C625 C 0.51694 0.30559 0.15764
 C626 C 0.49860 0.29419 0.16359
 C627 C 0.49305 0.27576 0.15293
 C628 C 0.50584 0.26836 0.13636
 C629 C 0.52392 0.27987 0.13019
 C630 C 0.52946 0.29823 0.14075
 C631 C 0.52298 0.32533 0.16851
 C632 C 0.54443 0.32966 0.17269
 C633 C 0.55050 0.34893 0.18117
 C634 C 0.53526 0.36431 0.18580
 C635 C 0.51372 0.35973 0.18248
 C636 C 0.50763 0.34041 0.17385
 C637 C 0.54213 0.38525 0.19340
 C638 C 0.53202 0.39478 0.21074
 C639 C 0.53963 0.41391 0.21858
 C640 C 0.55741 0.42387 0.20915
 C641 C 0.56689 0.41470 0.19125
 C642 C 0.55939 0.39561 0.18352
 H643 H 0.48863 0.29945 0.17653
 H644 H 0.47876 0.26731 0.15759
 H645 H 0.53359 0.27506 0.11687
 H646 H 0.54332 0.30696 0.13534
 H647 H 0.55659 0.31818 0.16923
 H648 H 0.56718 0.35187 0.18403
 H649 H 0.50168 0.37136 0.18586
 H650 H 0.49099 0.33761 0.17065
 H651 H 0.51870 0.38707 0.21866
 H652 H 0.53207 0.42052 0.23248
 H653 H 0.58027 0.42224 0.18327
 H654 H 0.56717 0.38886 0.16981
 C655 C 0.03685 0.80553 0.66627
 C656 C 0.02574 0.78955 0.67773
 C657 C 0.01828 0.77169 0.66721
 C658 C 0.02155 0.76976 0.64507
 C659 C 0.03264 0.78564 0.63365
 C660 C 0.04025 0.80333 0.64413
 C661 C 0.04485 0.82457 0.67711
 C662 C 0.06527 0.83231 0.67255
 C663 C 0.07244 0.85101 0.68151
 C664 C 0.05930 0.86256 0.69513
 C665 C 0.03905 0.85449 0.70018
 C666 C 0.03192 0.83564 0.69130
 C667 C 0.06664 0.88313 0.70351
 C668 C 0.06202 0.88899 0.72465
 C669 C 0.06965 0.90810 0.73254
 C670 C 0.08214 0.92165 0.71949
 C671 C 0.08632 0.91602 0.69825
 C672 C 0.07862 0.89706 0.69034
 H673 H 0.02306 0.79078 0.69483
 H674 H 0.00992 0.75953 0.67637
 H675 H 0.03531 0.78442 0.61654
 H676 H 0.04853 0.81549 0.63483
 H677 H 0.07572 0.82388 0.66199
 H678 H 0.08831 0.85646 0.67773
 H679 H 0.02847 0.86307 0.71047
 H680 H 0.01605 0.83010 0.69494
 H681 H 0.05298 0.87856 0.73526
 H682 H 0.06631 0.91199 0.74903
 H683 H 0.09555 0.92636 0.68769
 H684 H 0.08201 0.89333 0.67382
 C685 C 0.98420 0.69013 0.67156
 C686 C 0.97460 0.71021 0.67181
 C687 C 0.98337 0.72733 0.66017
 C688 C 1.00189 0.72469 0.64816
 C689 C 1.01181 0.70486 0.64832
 C690 C 1.00309 0.68776 0.65995
 C691 C 0.97395 0.67142 0.68220
 C692 C 0.98617 0.65573 0.69286
 C693 C 0.97659 0.63743 0.70152
 C694 C 0.95458 0.63442 0.69972
 C695 C 0.94234 0.65029 0.68940
 C696 C 0.95190 0.66856 0.68075
 C697 C 0.94438 0.61460 0.70799
 C698 C 0.92445 0.61525 0.71799
 C699 C 0.91416 0.59658 0.72448
 C700 C 0.92354 0.57679 0.72117
 C701 C 0.94376 0.57611 0.71177
 C702 C 0.95406 0.59483 0.70522
 H703 H 0.96014 0.71260 0.68077
 H704 H 0.97539 0.74249 0.66008
 H705 H 1.02594 0.70227 0.63896
 H706 H 1.01070 0.67246 0.65913
 H707 H 1.00317 0.65759 0.69447
 H708 H 0.98641 0.62564 0.70965
 H709 H 0.92539 0.64831 0.68741
 H710 H 0.94209 0.68013 0.67229
 H711 H 0.91676 0.63023 0.72076
 H712 H 0.89879 0.59764 0.73210
 H713 H 0.95130 0.56110 0.70884
 H714 H 0.96929 0.59378 0.69735
 C715 C 0.48370 0.18401 0.16363
 C716 C 0.47994 0.18469 0.14132
 C717 C 0.48434 0.20292 0.12902
 C718 C 0.49222 0.22101 0.13875
 C719 C 0.49619 0.22054 0.16093
 C720 C 0.49194 0.20216 0.17332
 C721 C 0.47836 0.16458 0.17657
 C722 C 0.46909 0.16592 0.19704
 C723 C 0.46179 0.14768 0.20798
 C724 C 0.46345 0.12784 0.19856
 C725 C 0.47362 0.12635 0.17864
 C726 C 0.48116 0.14448 0.16785
 C727 C 0.45286 0.10908 0.20840
 C728 C 0.43884 0.09720 0.19597
 C729 C 0.42759 0.08030 0.20527
 C730 C 0.43042 0.07472 0.22707
 C731 C 0.44487 0.08615 0.23944
 C732 C 0.45585 0.10342 0.23021
 H733 H 0.47320 0.17124 0.13335
 H734 H 0.48132 0.20298 0.11186
 H735 H 0.50272 0.23420 0.16867
 H736 H 0.49528 0.20208 0.19040
 H737 H 0.46653 0.18113 0.20415
 H738 H 0.45386 0.14921 0.22328
 H739 H 0.47530 0.11115 0.17121
 H740 H 0.48876 0.14278 0.15241
 H741 H 0.43611 0.10141 0.17919
 H742 H 0.41653 0.07164 0.19547
 H743 H 0.44717 0.08211 0.25632
 H744 H 0.46661 0.11237 0.24006
 C745 C 0.34720 0.46959 -0.18439
 C746 C 0.33997 0.46533 -0.20523
 C747 C 0.35107 0.47306 -0.22325
 C748 C 0.36963 0.48493 -0.22063
 C749 C 0.37710 0.48881 -0.19987
 C750 C 0.36585 0.48142 -0.18189
 C751 C 0.33557 0.46152 -0.16523
 C752 C 0.33090 0.47500 -0.14835
 C753 C 0.32038 0.46728 -0.13000
 C754 C 0.31457 0.44581 -0.12799
 C755 C 0.31931 0.43236 -0.14499
 C756 C 0.32954 0.44018 -0.16348
 C757 C 0.30375 0.43745 -0.10826
 C758 C 0.28840 0.42139 -0.10957
 C759 C 0.27858 0.41317 -0.09105
 C760 C 0.28355 0.42101 -0.07070
 C761 C 0.29873 0.43725 -0.06939
 C762 C 0.30878 0.44527 -0.08790
 H763 H 0.32562 0.45622 -0.20753
 H764 H 0.34524 0.46966 -0.23917
 H765 H 0.39167 0.49753 -0.19751
 H766 H 0.37191 0.48461 -0.16599
 H767 H 0.33523 0.49158 -0.14946
 H768 H 0.31663 0.47821 -0.11748
 H769 H 0.31550 0.41567 -0.14388
 H770 H 0.33322 0.42943 -0.17619
 H771 H 0.28384 0.41518 -0.12495
 H772 H 0.26730 0.40041 -0.09274
 H773 H 0.30280 0.44386 -0.05406
 H774 H 0.32073 0.45741 -0.08619
 C775 C 0.85179 0.97188 0.30795
 C776 C 0.83989 0.97793 0.28960
 C777 C 0.84988 0.98684 0.27141
 C778 C 0.87191 0.98980 0.27127
 C779 C 0.88380 0.98374 0.28948
 C780 C 0.87389 0.97480 0.30760
 C781 C 0.84131 0.96258 0.32742
 C782 C 0.84830 0.96782 0.34810
 C783 C 0.83898 0.95855 0.36643
 C784 C 0.82239 0.94385 0.36455
 C785 C 0.81515 0.93888 0.34388
 C786 C 0.82451 0.94811 0.32554
 C787 C 0.81298 0.93342 0.38404
 C788 C 0.80740 0.91189 0.38401
 C789 C 0.79873 0.90196 0.40232
 C790 C 0.79548 0.91329 0.42114
 C791 C 0.80115 0.93479 0.42126
 C792 C 0.80976 0.94476 0.40289
 H793 H 0.82282 0.97614 0.28944
 H794 H 0.84034 0.99157 0.25762
 H795 H 0.90082 0.98612 0.28975
 H796 H 0.88358 0.97004 0.32129
 H797 H 0.86098 0.97915 0.35014
 H798 H 0.84508 0.96259 0.38207
 H799 H 0.80221 0.92784 0.34186
 H800 H 0.81886 0.94360 0.30987
 H801 H 0.81008 0.90257 0.36994
 H802 H 0.79488 0.88528 0.40185
 H803 H 0.79861 0.94398 0.43545
 H804 H 0.81362 0.96143 0.40337
 C805 C 0.83982 0.02605 1.19273
 C806 C 0.84617 0.03982 1.20895
 C807 C 0.85919 0.03266 1.22584
 C808 C 0.86591 0.01157 1.22701
 C809 C 0.85879 -0.00252 1.21157
 C810 C 0.84598 0.00467 1.19448
 C811 C 0.82769 0.03419 1.17364
 C812 C 0.81227 0.02164 1.16367
 C813 C 0.80152 0.02917 1.14528
 C814 C 0.80579 0.04949 1.13662
 C815 C 0.82103 0.06208 1.14664
 C816 C 0.83193 0.05450 1.16484
 C817 C 0.79464 0.05757 1.11704
 C818 C 0.78671 0.07833 1.11608
 C819 C 0.77714 0.08641 1.09732
 C820 C 0.77546 0.07398 1.07902
 C821 C 0.78314 0.05312 1.08004
 C822 C 0.79252 0.04494 1.09893
 H823 H 0.84127 0.05623 1.20847
 H824 H 0.86422 0.04375 1.23778
 H825 H 0.86371 -0.01893 1.21229
 H826 H 0.84158 -0.00637 1.18225
 H827 H 0.80837 0.00605 1.17016
 H828 H 0.78969 0.01922 1.13796
 H829 H 0.82488 0.07767 1.14009
 H830 H 0.84404 0.06442 1.17171
 H831 H 0.78801 0.08835 1.12986
 H832 H 0.77157 0.10262 1.09693
 H833 H 0.78194 0.04317 1.06620
 H834 H 0.79863 0.02893 1.09920
 C835 C 0.34086 0.50899 0.69613
 C836 C 0.33978 0.52151 0.71443
 C837 C 0.35243 0.51685 0.73243
 C838 C 0.36656 0.49977 0.73243
 C839 C 0.36704 0.48673 0.71456
 C840 C 0.35436 0.49131 0.69657
 C841 C 0.32868 0.51492 0.67638
 C842 C 0.33801 0.51326 0.65599
 C843 C 0.32722 0.52023 0.63747
 C844 C 0.30688 0.52909 0.63891
 C845 C 0.29729 0.53022 0.65922
 C846 C 0.30806 0.52318 0.67775
 C847 C 0.29628 0.53827 0.61946
 C848 C 0.28613 0.55798 0.62031
 C849 C 0.27744 0.56747 0.60177
 C850 C 0.27858 0.55744 0.58192
 C851 C 0.28832 0.53747 0.58116
 C852 C 0.29712 0.52801 0.59973
 H853 H 0.32966 0.53532 0.71460
 H854 H 0.35141 0.52694 0.74610
 H855 H 0.37723 0.47301 0.71433
 H856 H 0.35519 0.48105 0.68296
 H857 H 0.35400 0.50729 0.65439
 H858 H 0.33514 0.51945 0.62209
 H859 H 0.28150 0.53669 0.66078
 H860 H 0.30028 0.52431 0.69317
 H861 H 0.28558 0.56645 0.63519
 H862 H 0.27048 0.58304 0.60288
 H863 H 0.28920 0.52919 0.56619
 H864 H 0.30463 0.51269 0.59866
 C865 C 0.15432 0.53093 0.30725
 C866 C 0.13918 0.54529 0.29891
 C867 C 0.12764 0.54074 0.28044
 C868 C 0.13108 0.52181 0.26981
 C869 C 0.14558 0.50707 0.27845
 C870 C 0.15723 0.51163 0.29695
 C871 C 0.16701 0.53630 0.32651
 C872 C 0.17154 0.52096 0.34269
 C873 C 0.18290 0.52641 0.36111
 C874 C 0.19000 0.54728 0.36369
 C875 C 0.18568 0.56250 0.34735
 C876 C 0.17440 0.55706 0.32899
 C877 C 0.20128 0.55353 0.38356
 C878 C 0.21785 0.56842 0.38243
 C879 C 0.22707 0.57596 0.40115
 C880 C 0.22006 0.56866 0.42145
 C881 C 0.20420 0.55307 0.42265
 C882 C 0.19484 0.54561 0.40389
 H883 H 0.13607 0.56000 0.30682
 H884 H 0.11592 0.55202 0.27470
 H885 H 0.14809 0.49214 0.27073
 H886 H 0.16877 0.50024 0.30295
 H887 H 0.16594 0.50486 0.34133
 H888 H 0.18614 0.51428 0.37331
 H889 H 0.19062 0.57879 0.34894
 H890 H 0.17146 0.56918 0.31669
 H891 H 0.22354 0.57446 0.36703
 H892 H 0.23954 0.58771 0.39977
 H893 H 0.19840 0.54731 0.43811
 H894 H 0.18198 0.53431 0.40534
 C895 C 0.66765 0.01315 0.80437
 C896 C 0.65351 -0.00404 0.80499
 C897 C 0.64257 -0.00979 0.78650
 C898 C 0.64536 0.00163 0.76702
 C899 C 0.66049 0.01789 0.76604
 C900 C 0.67143 0.02372 0.78455
 C901 C 0.67759 0.02062 0.82448
 C902 C 0.69866 0.02790 0.82467
 C903 C 0.70744 0.03611 0.84336
 C904 C 0.69534 0.03723 0.86225
 C905 C 0.67443 0.02953 0.86216
 C906 C 0.66566 0.02135 0.84351
 C907 C 0.70402 0.04736 0.88166
 C908 C 0.69957 0.03903 0.90238
 C909 C 0.70649 0.04947 0.92064
 C910 C 0.71794 0.06850 0.91858
 C911 C 0.72286 0.07651 0.89787
 C912 C 0.71598 0.06607 0.87964
 H913 H 0.65074 -0.01293 0.81985
 H914 H 0.63182 -0.02306 0.78770
 H915 H 0.66372 0.02638 0.75112
 H916 H 0.68230 0.03697 0.78348
 H917 H 0.70835 0.02727 0.81037
 H918 H 0.72369 0.04164 0.84302
 H919 H 0.66457 0.03051 0.87632
 H920 H 0.64927 0.01623 0.84380
 H921 H 0.69059 0.02451 0.90445
 H922 H 0.70236 0.04297 0.93637
 H923 H 0.73192 0.09098 0.89576
 H924 H 0.71950 0.07300 0.86393
 C925 C 0.67064 0.97280 0.68643
 C926 C 0.65408 0.98726 0.68251
 C927 C 0.64184 0.99450 0.69946
 C928 C 0.64608 0.98759 0.72065
 C929 C 0.66281 0.97346 0.72472
 C930 C 0.67499 0.96608 0.70775
 C931 C 0.68255 0.96397 0.66821
 C932 C 0.68682 0.94220 0.66776
 C933 C 0.69683 0.93359 0.65003
 C934 C 0.70294 0.94656 0.63236
 C935 C 0.69901 0.96843 0.63300
 C936 C 0.68888 0.97703 0.65071
 C937 C 0.71274 0.93712 0.61314
 C938 C 0.70733 0.94444 0.59225
 C939 C 0.71544 0.93452 0.57421
 C940 C 0.72897 0.91700 0.57668
 C941 C 0.73487 0.91008 0.59751
 C942 C 0.72693 0.92007 0.61552
 H943 H 0.65012 0.99242 0.66624
 H944 H 0.62874 1.00506 0.69586
 H945 H 0.66619 0.96784 0.74099
 H946 H 0.68773 0.95504 0.71126
 H947 H 0.68180 0.93170 0.68084
 H948 H 0.69922 0.91664 0.64992
 H949 H 0.70380 0.97891 0.61982
 H950 H 0.68600 0.99391 0.65074
 H951 H 0.69626 0.95736 0.58983
 H952 H 0.71051 0.94006 0.55833
 H953 H 0.74558 0.89683 0.59986
 H954 H 0.73181 0.91433 0.63134
 C955 C 0.15774 0.49802 0.18637
 C956 C 0.13553 0.49914 0.18474
 C957 C 0.12336 0.50490 0.20231
 C958 C 0.13309 0.50958 0.22187
 C959 C 0.15526 0.50917 0.22346
 C960 C 0.16751 0.50329 0.20587
 C961 C 0.17035 0.49038 0.16803
 C962 C 0.18670 0.47557 0.17146
 C963 C 0.19680 0.46641 0.15403
 C964 C 0.19077 0.47190 0.13283
 C965 C 0.17517 0.48751 0.12943
 C966 C 0.16507 0.49664 0.14683
 C967 C 0.19944 0.46024 0.11442
 C968 C 0.18582 0.45371 0.09797
 C969 C 0.19341 0.44143 0.08138
 C970 C 0.21482 0.43539 0.08080
 C971 C 0.22863 0.44238 0.09690
 C972 C 0.22099 0.45461 0.11362
 H973 H 0.12750 0.49492 0.17006
 H974 H 0.10625 0.50523 0.20075
 H975 H 0.16316 0.51319 0.23824
 H976 H 0.18460 0.50283 0.20749
 H977 H 0.19098 0.47029 0.18761
 H978 H 0.20861 0.45429 0.15718
 H979 H 0.17047 0.49237 0.11327
 H980 H 0.15282 0.50832 0.14369
 H981 H 0.16910 0.45754 0.09825
 H982 H 0.18246 0.43650 0.06905
 H983 H 0.24519 0.43787 0.09690
 H984 H 0.23189 0.45955 0.12600
 C985 C -0.19058 0.35027 0.47149
 C986 C -0.20674 0.33837 0.48168
 C987 C -0.22539 0.34815 0.48837
 C988 C -0.22813 0.37002 0.48519
 C989 C -0.21213 0.38188 0.47490
 C990 C -0.19354 0.37215 0.46817
 C991 C -0.17103 0.33990 0.46367
 C992 C -0.15122 0.35000 0.46521
 C993 C -0.13302 0.34080 0.45676
 C994 C -0.13420 0.32127 0.44658
 C995 C -0.15392 0.31093 0.44551
 C996 C -0.17211 0.32014 0.45393
 C997 C -0.11514 0.31205 0.43644
 C998 C -0.11684 0.30236 0.41646
 C999 C -0.09899 0.29390 0.40666
 C1000 C -0.07897 0.29493 0.41657
 C1001 C -0.07720 0.30471 0.43651
 C1002 C -0.09510 0.31317 0.44635
 H1003 H -0.20493 0.32150 0.48457
 H1004 H -0.23758 0.33851 0.49588
 H1005 H -0.21418 0.39863 0.47152
 H1006 H -0.18170 0.38169 0.45986
 H1007 H -0.14980 0.36511 0.47287
 H1008 H -0.11812 0.34925 0.45770
 H1009 H -0.15531 0.29573 0.43804
 H1010 H -0.18713 0.31202 0.45230
 H1011 H -0.13193 0.30166 0.40816
 H1012 H -0.10082 0.28689 0.39108
 H1013 H -0.06202 0.30556 0.44462
 H1014 H -0.09331 0.32034 0.46185
 C1015 C 0.31800 0.84378 0.98315
 C1016 C 0.31865 0.86575 0.98610
 C1017 C 0.30067 0.87651 0.99283
 C1018 C 0.28160 0.86563 0.99644
 C1019 C 0.28087 0.84369 0.99403
 C1020 C 0.29894 0.83283 0.98744
 C1021 C 0.33689 0.83261 0.97484
 C1022 C 0.33453 0.81647 0.95994
 C1023 C 0.35228 0.80694 0.95101
 C1024 C 0.37287 0.81341 0.95660
 C1025 C 0.37525 0.82918 0.97191
 C1026 C 0.35748 0.83860 0.98098
 C1027 C 0.39170 0.80420 0.94600
 C1028 C 0.41061 0.80031 0.95752
 C1029 C 0.42827 0.79173 0.94735
 C1030 C 0.42729 0.78668 0.92554
 C1031 C 0.40848 0.79069 0.91400
 C1032 C 0.39094 0.79942 0.92407
 H1033 H 0.33291 0.87476 0.98265
 H1034 H 0.30152 0.89346 0.99478
 H1035 H 0.26639 0.83494 0.99709
 H1036 H 0.29798 0.81587 0.98573
 H1037 H 0.31894 0.81159 0.95467
 H1038 H 0.34986 0.79456 0.93957
 H1039 H 0.39085 0.83466 0.97648
 H1040 H 0.35989 0.85073 0.99268
 H1041 H 0.41167 0.80358 0.97448
 H1042 H 0.44253 0.78862 0.95665
 H1043 H 0.40743 0.78728 0.89706
 H1044 H 0.37686 0.80269 0.91456
 C1045 C 1.19788 0.83894 0.01769
 C1046 C 1.20557 0.84198 -0.00334
 C1047 C 1.22401 0.85387 -0.00711
 C1048 C 1.23471 0.86319 0.01002
 C1049 C 1.22698 0.86017 0.03099
 C1050 C 1.20888 0.84795 0.03482
 C1051 C 1.17798 0.82718 0.02195
 C1052 C 1.17731 0.81136 0.03820
 C1053 C 1.15810 0.80179 0.04393
 C1054 C 1.13905 0.80813 0.03382
 C1055 C 1.13992 0.82342 0.01694
 C1056 C 1.15924 0.83276 0.01098
 C1057 C 1.11835 0.79975 0.04182
 C1058 C 1.10126 0.79625 0.02772
 C1059 C 1.08171 0.78897 0.03564
 C1060 C 1.07896 0.78482 0.05776
 C1061 C 1.09600 0.78830 0.07180
 C1062 C 1.11537 0.79576 0.06397
 H1063 H 1.19732 0.83518 -0.01678
 H1064 H 1.22965 0.85617 -0.02344
 H1065 H 1.23462 0.86743 0.04448
 H1066 H 1.20306 0.84606 0.05113
 H1067 H 1.19164 0.80664 0.04669
 H1068 H 1.15816 0.78965 0.05656
 H1069 H 1.12558 0.82886 0.00895
 H1070 H 1.15939 0.84506 -0.00150
 H1071 H 1.10304 0.79896 0.01056
 H1072 H 1.06882 0.78634 0.02449
 H1073 H 1.09417 0.78567 0.08898
 H1074 H 1.12789 0.79885 0.07541
 C1075 C 0.69048 0.33882 0.51272
 C1076 C 0.70992 0.33736 0.52381
 C1077 C 0.72712 0.35007 0.51748
 C1078 C 0.72519 0.36446 0.50001
 C1079 C 0.70605 0.36538 0.48847
 C1080 C 0.68893 0.35264 0.49469
 C1081 C 0.67151 0.32704 0.52063
 C1082 C 0.65157 0.33696 0.52060
 C1083 C 0.63381 0.32644 0.52894
 C1084 C 0.63553 0.30575 0.53758
 C1085 C 0.65538 0.29565 0.53733
 C1086 C 0.67319 0.30619 0.52894
 C1087 C 0.61687 0.29532 0.54787
 C1088 C 0.61911 0.28409 0.56756
 C1089 C 0.60133 0.27608 0.57837
 C1090 C 0.58089 0.27908 0.56973
 C1091 C 0.57870 0.28955 0.54963
 C1092 C 0.59650 0.29763 0.53883
 H1093 H 0.71158 0.32706 0.53792
 H1094 H 0.74166 0.34927 0.52678
 H1095 H 0.70394 0.37629 0.47495
 H1096 H 0.67431 0.35388 0.48558
 H1097 H 0.64979 0.35316 0.51474
 H1098 H 0.61885 0.33481 0.52929
 H1099 H 0.65715 0.27962 0.54367
 H1100 H 0.68828 0.29803 0.52894
 H1101 H 0.63455 0.28218 0.57503
 H1102 H 0.60353 0.26782 0.59371
 H1103 H 0.56316 0.29219 0.54262
 H1104 H 0.59431 0.30599 0.52354
 C1105 C 0.30658 0.17700 0.52277
 C1106 C 0.28713 0.17888 0.53362
 C1107 C 0.26900 0.16847 0.52627
 C1108 C 0.27002 0.15597 0.50806
 C1109 C 0.28922 0.15449 0.49693
 C1110 C 0.30724 0.16504 0.50407
 C1111 C 0.32634 0.18657 0.53136
 C1112 C 0.34575 0.17573 0.53006
 C1113 C 0.36433 0.18442 0.53829
 C1114 C 0.36397 0.20407 0.54822
 C1115 C 0.34462 0.21494 0.54962
 C1116 C 0.32601 0.20633 0.54120
 C1117 C 0.38367 0.21281 0.55758
 C1118 C 0.38351 0.22132 0.57817
 C1119 C 0.40229 0.22848 0.58750
 C1120 C 0.42165 0.22747 0.57637
 C1121 C 0.42168 0.21931 0.55556
 C1122 C 0.40292 0.21199 0.54632
 H1123 H 0.28608 0.18774 0.54821
 H1124 H 0.25435 0.16962 0.53521
 H1125 H 0.29059 0.14486 0.48293
 H1126 H 0.32179 0.16359 0.49505
 H1127 H 0.34654 0.16026 0.52308
 H1128 H 0.37894 0.17551 0.53734
 H1129 H 0.34394 0.23021 0.55704
 H1130 H 0.31141 0.21523 0.54223
 H1131 H 0.36896 0.22186 0.58733
 H1132 H 0.40170 0.23427 0.60370
 H1133 H 0.43621 0.21864 0.54638
 H1134 H 0.40344 0.20573 0.53030
 C1135 C 0.80939 0.65583 0.01672
 C1136 C 0.80223 0.63963 0.03085
 C1137 C 0.78471 0.62731 0.02559
 C1138 C 0.77385 0.63107 0.00619
 C1139 C 0.78129 0.64674 -0.00832
 C1140 C 0.79891 0.65910 -0.00308
 C1141 C 0.82769 0.66915 0.02291
 C1142 C 0.84380 0.67444 0.00811
 C1143 C 0.86173 0.68570 0.01465
 C1144 C 0.86384 0.69185 0.03610
 C1145 C 0.84732 0.68726 0.05060
 C1146 C 0.82948 0.67605 0.04410
 C1147 C 0.88345 0.70227 0.04379
 C1148 C 0.89218 0.69605 0.06377
 C1149 C 0.91000 0.70625 0.07177
 C1150 C 0.91957 0.72300 0.06004
 C1151 C 0.91131 0.72883 0.03970
 C1152 C 0.89338 0.71853 0.03163
 H1153 H 0.81034 0.63631 0.04594
 H1154 H 0.77988 0.61475 0.03668
 H1155 H 0.77332 0.64957 -0.02358
 H1156 H 0.80409 0.67144 -0.01431
 H1157 H 0.84288 0.66924 -0.00830
 H1158 H 0.87426 0.68895 0.00316
 H1159 H 0.84826 0.69223 0.06710
 H1160 H 0.81710 0.67266 0.05572
 H1161 H 0.88523 0.68320 0.07325
 H1162 H 0.91633 0.70100 0.08722
 H1163 H 0.91834 0.74170 0.03033
 H1164 H 0.88695 0.72367 0.01619
 C1165 C 0.68923 0.65343 0.98174
 C1166 C 0.70747 0.66410 0.98882
 C1167 C 0.72605 0.65286 0.99387
 C1168 C 0.72663 0.63086 0.99186
 C1169 C 0.70849 0.62020 0.98497
 C1170 C 0.69006 0.63135 0.97978
 C1171 C 0.66943 0.66507 0.97603
 C1172 C 0.64953 0.65592 0.98055
 C1173 C 0.63092 0.66565 0.97321
 C1174 C 0.63175 0.68491 0.96147
 C1175 C 0.65149 0.69467 0.95787
 C1176 C 0.67018 0.68480 0.96501
 C1177 C 0.61222 0.69394 0.95167
 C1178 C 0.60745 0.71554 0.95318
 C1179 C 0.58941 0.72401 0.94300
 C1180 C 0.57614 0.71107 0.93083
 C1181 C 0.58081 0.68945 0.92954
 C1182 C 0.59859 0.68094 0.93998
 H1183 H 0.70728 0.68106 0.99077
 H1184 H 0.73974 0.66134 0.99965
 H1185 H 0.70862 0.60316 0.98349
 H1186 H 0.67651 0.62264 0.97397
 H1187 H 0.64833 0.64103 0.98949
 H1188 H 0.61585 0.65799 0.97645
 H1189 H 0.65252 0.70946 0.94870
 H1190 H 0.68523 0.69220 0.96111
 H1191 H 0.61771 0.72584 0.96218
 H1192 H 0.58616 0.74076 0.94409
 H1193 H 0.57074 0.67916 0.92032
 H1194 H 0.60203 0.66427 0.93842
 C1195 C 0.18966 0.17791 0.47137
 C1196 C 0.19048 0.15576 0.47062
 C1197 C 0.20753 0.14468 0.47965
 C1198 C 0.22420 0.15551 0.48942
 C1199 C 0.22351 0.17763 0.49034
 C1200 C 0.20619 0.18879 0.48153
 C1201 C 0.17153 0.18929 0.46129
 C1202 C 0.15983 0.20413 0.47270
 C1203 C 0.14133 0.21299 0.46378
 C1204 C 0.13434 0.20727 0.44323
 C1205 C 0.14674 0.19319 0.43150
 C1206 C 0.16502 0.18422 0.44047
 C1207 C 0.11392 0.21523 0.43415
 C1208 C 0.10096 0.20177 0.42216
 C1209 C 0.08228 0.20925 0.41264
 C1210 C 0.07593 0.23031 0.41504
 C1211 C 0.08839 0.24364 0.42763
 C1212 C 0.10726 0.23620 0.43705
 H1213 H 0.17781 0.14700 0.46313
 H1214 H 0.20776 0.12759 0.47887
 H1215 H 0.23628 0.18626 0.49777
 H1216 H 0.20588 0.20588 0.48224
 H1217 H 0.16453 0.20818 0.48884
 H1218 H 0.13210 0.22370 0.47328
 H1219 H 0.14219 0.18892 0.41539
 H1220 H 0.17399 0.17307 0.43123
 H1221 H 0.10526 0.18538 0.42012
 H1222 H 0.07275 0.19852 0.40337
 H1223 H 0.08387 0.25999 0.42962
 H1224 H 0.11692 0.24700 0.44609
 C1225 C 0.59253 0.05776 0.72179
 C1226 C 0.61472 0.05648 0.72047
 C1227 C 0.62526 0.03787 0.72658
 C1228 C 0.61392 0.02016 0.73430
 C1229 C 0.59171 0.02113 0.73497
 C1230 C 0.58110 0.03980 0.72890
 C1231 C 0.58150 0.07773 0.71546
 C1232 C 0.56246 0.07741 0.70366
 C1233 C 0.55276 0.09631 0.69678
 C1234 C 0.56195 0.11591 0.70151
 C1235 C 0.58067 0.11623 0.71377
 C1236 C 0.59031 0.09737 0.72071
 C1237 C 0.55261 0.13594 0.69291
 C1238 C 0.56577 0.15175 0.68389
 C1239 C 0.55712 0.17037 0.67508
 C1240 C 0.53509 0.17371 0.67517
 C1241 C 0.52191 0.15798 0.68443
 C1242 C 0.53058 0.13925 0.69315
 H1243 H 0.62396 0.06979 0.71436
 H1244 H 0.64227 0.03727 0.72476
 H1245 H 0.58240 0.00757 0.74011
 H1246 H 0.56398 0.04024 0.73003
 H1247 H 0.55540 0.06255 0.69916
 H1248 H 0.53846 0.09560 0.68715
 H1249 H 0.58791 0.13111 0.71797
 H1250 H 0.60472 0.09815 0.73016
 H1251 H 0.58277 0.14947 0.68312
 H1252 H 0.56771 0.18191 0.66766
 H1253 H 0.50490 0.16016 0.68503
 H1254 H 0.52009 0.12741 0.70021
 C1255 C 1.07700 0.57477 0.22113
 C1256 C 1.06669 0.55526 0.22465
 C1257 C 1.07811 0.53752 0.23204
 C1258 C 1.09999 0.53904 0.23577
 C1259 C 1.11037 0.55834 0.23166
 C1260 C 1.09893 0.57615 0.22471
 C1261 C 1.06513 0.59359 0.21318
 C1262 C 1.06733 0.61299 0.22337
 C1263 C 1.05711 0.63108 0.21513
 C1264 C 1.04478 0.63025 0.19627
 C1265 C 1.04235 0.61064 0.18634
 C1266 C 1.05227 0.59248 0.19482
 C1267 C 1.03535 0.64986 0.18639
 C1268 C 1.01603 0.64912 0.17503
 C1269 C 1.00825 0.66710 0.16407
 C1270 C 1.01938 0.68632 0.16457
 C1271 C 1.03813 0.68740 0.17665
 C1272 C 1.04614 0.66934 0.18730
 H1273 H 1.04980 0.55383 0.22184
 H1274 H 1.06986 0.52266 0.23455
 H1275 H 1.12734 0.55967 0.23403
 H1276 H 1.10726 0.59093 0.22175
 H1277 H 1.07701 0.61412 0.23771
 H1278 H 1.05898 0.64574 0.22351
 H1279 H 1.03337 0.60939 0.17158
 H1280 H 1.05054 0.57771 0.18658
 H1281 H 1.00700 0.63458 0.17437
 H1282 H 0.99364 0.66597 0.15498
 H1283 H 1.04711 0.70201 0.17704
 H1284 H 1.06122 0.67052 0.19552
 C1285 C 0.92772 0.95347 0.21303
 C1286 C 0.92096 0.94936 0.23422
 C1287 C 0.90897 0.96430 0.24497
 C1288 C 0.90396 0.98382 0.23493
 C1289 C 0.91138 0.98825 0.21403
 C1290 C 0.92301 0.97313 0.20309
 C1291 C 0.93821 0.93664 0.20091
 C1292 C 0.93028 0.93104 0.18076
 C1293 C 0.93880 0.91387 0.17009
 C1294 C 0.95572 0.90211 0.17915
 C1295 C 0.96408 0.90826 0.19905
 C1296 C 0.95528 0.92521 0.20990
 C1297 C 0.96389 0.88302 0.16831
 C1298 C 0.97094 0.86522 0.18046
 C1299 C 0.97736 0.84685 0.17032
 C1300 C 0.97652 0.84572 0.14785
 C1301 C 0.96989 0.86351 0.13562
 C1302 C 0.96386 0.88202 0.14571
 H1303 H 0.92416 0.93420 0.24211
 H1304 H 0.90324 0.96018 0.26087
 H1305 H 0.90740 1.00302 0.20577
 H1306 H 0.92803 0.97663 0.18673
 H1307 H 0.91691 0.93943 0.17366
 H1308 H 0.93158 0.90943 0.15507
 H1309 H 0.97737 0.89993 0.20634
 H1310 H 0.96173 0.92936 0.22538
 H1311 H 0.97084 0.86516 0.19786
 H1312 H 0.98225 0.83323 0.18006
 H1313 H 0.96936 0.86304 0.11823
 H1314 H 0.95907 0.89551 0.13576
 C1315 C 0.43065 0.44159 0.73349
 C1316 C 0.41793 0.43845 0.75185
 C1317 C 0.40509 0.45471 0.75917
 C1318 C 0.40458 0.47437 0.74819
 C1319 C 0.41769 0.47782 0.73029
 C1320 C 0.43076 0.46167 0.72311
 C1321 C 0.44251 0.42360 0.72435
 C1322 C 0.44397 0.42162 0.70192
 C1323 C 0.45366 0.40400 0.69320
 C1324 C 0.46188 0.38779 0.70666
 C1325 C 0.46082 0.38984 0.72904
 C1326 C 0.45137 0.40763 0.73781
 C1327 C 0.47049 0.36838 0.69721
 C1328 C 0.46389 0.34835 0.70491
 C1329 C 0.47029 0.33007 0.69460
 C1330 C 0.48359 0.33145 0.67649
 C1331 C 0.49089 0.35150 0.66941
 C1332 C 0.48429 0.36977 0.67957
 H1333 H 0.41713 0.42314 0.76006
 H1334 H 0.39502 0.45154 0.77294
 H1335 H 0.41728 0.49279 0.72138
 H1336 H 0.44060 0.46481 0.70915
 H1337 H 0.43693 0.43330 0.69103
 H1338 H 0.45400 0.40265 0.67588
 H1339 H 0.46724 0.37762 0.73974
 H1340 H 0.45087 0.40879 0.75513
 H1341 H 0.45305 0.34688 0.71835
 H1342 H 0.46413 0.31495 0.70032
 H1343 H 0.50154 0.35313 0.65585
 H1344 H 0.48982 0.38503 0.67353
 C1345 C 0.41624 0.55795 0.77714
 C1346 C 0.39476 0.55367 0.78113
 C1347 C 0.38554 0.53502 0.77415
 C1348 C 0.39762 0.52020 0.76317
 C1349 C 0.41912 0.52442 0.75915
 C1350 C 0.42832 0.54330 0.76586
 C1351 C 0.42604 0.57731 0.78554
 C1352 C 0.43821 0.59084 0.77221
 C1353 C 0.44653 0.60963 0.78015
 C1354 C 0.44304 0.61506 0.80164
 C1355 C 0.43136 0.60108 0.81505
 C1356 C 0.42283 0.58253 0.80704
 C1357 C 0.45133 0.63520 0.81022
 C1358 C 0.43954 0.64624 0.82544
 C1359 C 0.44775 0.66434 0.83469
 C1360 C 0.46778 0.67207 0.82868
 C1361 C 0.47930 0.66168 0.81286
 C1362 C 0.47121 0.64331 0.80380
 H1363 H 0.38512 0.56474 0.78978
 H1364 H 0.36909 0.53192 0.77800
 H1365 H 0.42897 0.51314 0.75116
 H1366 H 0.44499 0.54617 0.76284
 H1367 H 0.44079 0.58715 0.75552
 H1368 H 0.45528 0.62010 0.76932
 H1369 H 0.42887 0.60438 0.83183
 H1370 H 0.41380 0.57213 0.81772
 H1371 H 0.42393 0.64085 0.83031
 H1372 H 0.43847 0.67231 0.84663
 H1373 H 0.49485 0.66735 0.80809
 H1374 H 0.48081 0.63514 0.79228
 C1375 C -0.08002 0.06375 0.27093
 C1376 C -0.07558 0.05576 0.25056
 C1377 C -0.08555 0.03729 0.24375
 C1378 C -0.10004 0.02653 0.25719
 C1379 C -0.10465 0.03464 0.27738
 C1380 C -0.09469 0.05298 0.28422
 C1381 C -0.06992 0.08350 0.27834
 C1382 C -0.06334 0.08499 0.29984
 C1383 C -0.05557 0.10404 0.30749
 C1384 C -0.05416 0.12207 0.29383
 C1385 C -0.05995 0.12041 0.27210
 C1386 C -0.06777 0.10130 0.26442
 C1387 C -0.04743 0.14262 0.30261
 C1388 C -0.03339 0.15611 0.29127
 C1389 C -0.02662 0.17509 0.30015
 C1390 C -0.03382 0.18094 0.32052
 C1391 C -0.04831 0.16769 0.33152
 C1392 C -0.05500 0.14878 0.32270
 H1393 H -0.06434 0.06371 0.23997
 H1394 H -0.08203 0.03156 0.22795
 H1395 H -0.11633 0.02721 0.28780
 H1396 H -0.09889 0.05903 0.29975
 H1397 H -0.06438 0.07144 0.31083
 H1398 H -0.05078 0.10470 0.32419
 H1399 H -0.05914 0.13408 0.26124
 H1400 H -0.07288 0.10067 0.24782
 H1401 H -0.02722 0.15172 0.27579
 H1402 H -0.01533 0.18490 0.29136
 H1403 H -0.05456 0.17198 0.34700
 H1404 H -0.06623 0.13897 0.33159
 C1405 C 0.07462 0.45663 0.26430
 C1406 C 0.09094 0.45508 0.24905
 C1407 C 0.10297 0.47280 0.24298
 C1408 C 0.09900 0.49243 0.25204
 C1409 C 0.08289 0.49411 0.26735
 C1410 C 0.07066 0.47643 0.27330
 C1411 C 0.06248 0.43746 0.27135
 C1412 C 0.05654 0.43439 0.29300
 C1413 C 0.04650 0.41570 0.29992
 C1414 C 0.04235 0.39958 0.28541
 C1415 C 0.04776 0.40281 0.26369
 C1416 C 0.05759 0.42159 0.25671
 C1417 C 0.03360 0.37901 0.29323
 C1418 C 0.04310 0.36000 0.28716
 C1419 C 0.03629 0.34066 0.29612
 C1420 C 0.01968 0.33991 0.31110
 C1421 C 0.00958 0.35882 0.31651
 C1422 C 0.01659 0.37822 0.30776
 H1423 H 0.09484 0.44003 0.24220
 H1424 H 0.11570 0.47091 0.23158
 H1425 H 0.07978 0.50911 0.27470
 H1426 H 0.05812 0.47827 0.28494
 H1427 H 0.06035 0.44608 0.30480
 H1428 H 0.04274 0.41349 0.31682
 H1429 H 0.04450 0.39071 0.25214
 H1430 H 0.06151 0.42360 0.23984
 H1431 H 0.05635 0.36018 0.27613
 H1432 H 0.04426 0.32628 0.29163
 H1433 H -0.00315 0.35868 0.32816
 H1434 H 0.00892 0.39264 0.31259
 C1435 C 0.58554 0.93895 0.76516
 C1436 C 0.58292 0.95906 0.77390
 C1437 C 0.59523 0.97617 0.76663
 C1438 C 0.61016 0.97365 0.75025
 C1439 C 0.61204 0.95394 0.74069
 C1440 C 0.59994 0.93671 0.74814
 C1441 C 0.57455 0.92012 0.77482
 C1442 C 0.56795 0.90330 0.76205
 C1443 C 0.55933 0.88489 0.77153
 C1444 C 0.55699 0.88294 0.79398
 C1445 C 0.56285 0.90008 0.80662
 C1446 C 0.57164 0.91834 0.79720
 C1447 C 0.54929 0.86289 0.80435
 C1448 C 0.55822 0.85557 0.82391
 C1449 C 0.55107 0.83688 0.83391
 C1450 C 0.53498 0.82480 0.82451
 C1451 C 0.52612 0.83199 0.80485
 C1452 C 0.53318 0.85084 0.79489
 H1453 H 0.57169 0.96150 0.78671
 H1454 H 0.59361 0.99123 0.77432
 H1455 H 0.62338 0.95152 0.72799
 H1456 H 0.60258 0.92145 0.74117
 H1457 H 0.56967 0.90424 0.74474
 H1458 H 0.55510 0.87195 0.76131
 H1459 H 0.56088 0.89931 0.82391
 H1460 H 0.57678 0.93079 0.80761
 H1461 H 0.57091 0.86421 0.83148
 H1462 H 0.55802 0.83208 0.84922
 H1463 H 0.51383 0.82298 0.79707
 H1464 H 0.52585 0.85610 0.77992
 C1465 C 0.72415 0.57735 0.05930
 C1466 C 0.72773 0.56673 0.04010
 C1467 C 0.73627 0.57759 0.02219
 C1468 C 0.74105 0.59920 0.02324
 C1469 C 0.73712 0.60983 0.04228
 C1470 C 0.72907 0.59894 0.06027
 C1471 C 0.71432 0.56642 0.07807
 C1472 C 0.72351 0.56781 0.09854
 C1473 C 0.71322 0.55921 0.11663
 C1474 C 0.69327 0.54943 0.11469
 C1475 C 0.68437 0.54764 0.09401
 C1476 C 0.69488 0.55590 0.07588
 C1477 C 0.68138 0.54198 0.13416
 C1478 C 0.66796 0.52420 0.13346
 C1479 C 0.65581 0.51807 0.15134
 C1480 C 0.65713 0.52931 0.17043
 C1481 C 0.67091 0.54668 0.17143
 C1482 C 0.68276 0.55307 0.15344
 H1483 H 0.72384 0.55011 0.03899
 H1484 H 0.73857 0.56922 0.00745
 H1485 H 0.74018 0.62665 0.04320
 H1486 H 0.72607 0.60752 0.07478
 H1487 H 0.73860 0.57575 0.10053
 H1488 H 0.72084 0.56043 0.13216
 H1489 H 0.66891 0.54057 0.09185
 H1490 H 0.68740 0.55490 0.06024
 H1491 H 0.66680 0.51499 0.11911
 H1492 H 0.64545 0.50446 0.15032
 H1493 H 0.67200 0.55570 0.18594
 H1494 H 0.69254 0.56708 0.15452
 C1495 C 0.22537 1.10401 0.56348
 C1496 C 0.24594 1.10111 0.55541
 C1497 C 0.25225 1.11147 0.53627
 C1498 C 0.23802 1.12462 0.52482
 C1499 C 0.21746 1.12732 0.53275
 C1500 C 0.21119 1.11709 0.55184
 C1501 C 0.21854 1.09370 0.58405
 C1502 C 0.20642 1.10506 0.59870
 C1503 C 0.19840 1.09510 0.61726
 C1504 C 0.20227 1.07352 0.62161
 C1505 C 0.21512 1.06232 0.60742
 C1506 C 0.22319 1.07233 0.58880
 C1507 C 0.19199 1.06264 0.64032
 C1508 C 0.20306 1.04773 0.65325
 C1509 C 0.19307 1.03756 0.67078
 C1510 C 0.17178 1.04198 0.67558
 C1511 C 0.16079 1.05689 0.66262
 C1512 C 0.17075 1.06706 0.64521
 H1513 H 0.25725 1.09125 0.56415
 H1514 H 0.26830 1.10945 0.53054
 H1515 H 0.20621 1.13756 0.52446
 H1516 H 0.19515 1.11939 0.55749
 H1517 H 0.20298 1.12166 0.59571
 H1518 H 0.18898 1.10427 0.62814
 H1519 H 0.21825 1.04564 0.61029
 H1520 H 0.23240 1.06317 0.57773
 H1521 H 0.21948 1.04409 0.64992
 H1522 H 0.20189 1.02604 0.68041
 H1523 H 0.14447 1.06086 0.66605
 H1524 H 0.16170 1.07824 0.63539
 C1525 C 0.23397 0.92282 0.94634
 C1526 C 0.25293 0.91131 0.94488
 C1527 C 0.26060 0.89951 0.96252
 C1528 C 0.24964 0.89919 0.98210
 C1529 C 0.23112 0.91123 0.98392
 C1530 C 0.22334 0.92300 0.96619
 C1531 C 0.22479 0.93348 0.92685
 C1532 C 0.21492 0.95335 0.92795
 C1533 C 0.20596 0.96299 0.90953
 C1534 C 0.20668 0.95295 0.88965
 C1535 C 0.21659 0.93313 0.88860
 C1536 C 0.22550 0.92351 0.90695
 C1537 C 0.19663 0.96268 0.87014
 C1538 C 0.20644 0.96135 0.84995
 C1539 C 0.19630 0.96912 0.83135
 C1540 C 0.17613 0.97842 0.83251
 C1541 C 0.16658 0.98028 0.85277
 C1542 C 0.17672 0.97250 0.87138
 H1543 H 0.26167 0.91110 0.92993
 H1544 H 0.27474 0.89018 0.96047
 H1545 H 0.22227 0.91092 0.99882
 H1546 H 0.20857 0.93151 0.96778
 H1547 H 0.21430 0.96151 0.94300
 H1548 H 0.19860 0.97836 0.91080
 H1549 H 0.21701 0.92477 0.87365
 H1550 H 0.23254 0.90799 0.90564
 H1551 H 0.22195 0.95420 0.84853
 H1552 H 0.20423 0.96779 0.81603
 H1553 H 0.15092 0.98710 0.85417
 H1554 H 0.16863 0.97352 0.88664
 C1555 C 0.71964 0.42212 0.43470
 C1556 C 0.72867 0.40204 0.43211
 C1557 C 0.73785 0.39113 0.44955
 C1558 C 0.73829 0.40011 0.46986
 C1559 C 0.73021 0.42052 0.47240
 C1560 C 0.72097 0.43150 0.45490
 C1561 C 0.70759 0.43242 0.41676
 C1562 C 0.70937 0.45425 0.41215
 C1563 C 0.69766 0.46370 0.39529
 C1564 C 0.68380 0.45152 0.38293
 C1565 C 0.68205 0.42972 0.38761
 C1566 C 0.69378 0.42030 0.40431
 C1567 C 0.67125 0.46121 0.36501
 C1568 C 0.65006 0.45512 0.36188
 C1569 C 0.63869 0.46268 0.34400
 C1570 C 0.64822 0.47652 0.32882
 C1571 C 0.66914 0.48332 0.33238
 C1572 C 0.68055 0.47574 0.35033
 H1573 H 0.72817 0.39456 0.41667
 H1574 H 0.74395 0.37533 0.44734
 H1575 H 0.73023 0.42762 0.48803
 H1576 H 0.71400 0.44688 0.45740
 H1577 H 0.71995 0.46394 0.42145
 H1578 H 0.69924 0.48055 0.39209
 H1579 H 0.67173 0.41987 0.37819
 H1580 H 0.69181 0.40351 0.40767
 H1581 H 0.64233 0.44430 0.37318
 H1582 H 0.62244 0.45754 0.34196
 H1583 H 0.67694 0.49387 0.32088
 H1584 H 0.69690 0.48060 0.35227
 C1585 C 0.76415 0.42285 0.55370
 C1586 C 0.74686 0.40882 0.55428
 C1587 C 0.74114 0.39778 0.53602
 C1588 C 0.75278 0.40029 0.51693
 C1589 C 0.76937 0.41506 0.51600
 C1590 C 0.77504 0.42624 0.53422
 C1591 C 0.77152 0.43298 0.57360
 C1592 C 0.77778 0.45431 0.57333
 C1593 C 0.78587 0.46336 0.59191
 C1594 C 0.78803 0.45122 0.61111
 C1595 C 0.78142 0.42996 0.61139
 C1596 C 0.77320 0.42098 0.59288
 C1597 C 0.79805 0.46026 0.63050
 C1598 C 0.79100 0.45435 0.65125
 C1599 C 0.80158 0.46144 0.66947
 C1600 C 0.81939 0.47473 0.66739
 C1601 C 0.82595 0.48127 0.64665
 C1602 C 0.81548 0.47405 0.62844
 H1603 H 0.73789 0.40626 0.56894
 H1604 H 0.72776 0.38713 0.53708
 H1605 H 0.77828 0.41773 0.50137
 H1606 H 0.78844 0.43696 0.53329
 H1607 H 0.77643 0.46398 0.55874
 H1608 H 0.79047 0.47987 0.59123
 H1609 H 0.78324 0.42000 0.62572
 H1610 H 0.76882 0.40440 0.59347
 H1611 H 0.77743 0.44403 0.65343
 H1612 H 0.79618 0.45596 0.68517
 H1613 H 0.83937 0.49180 0.64445
 H1614 H 0.82148 0.47878 0.61274
 C1615 C 0.27822 -0.08598 0.06747
 C1616 C 0.28061 -0.10791 0.06529
 C1617 C 0.27457 -0.11753 0.04634
 C1618 C 0.26584 -0.10550 0.02925
 C1619 C 0.26370 -0.08358 0.03111
 C1620 C 0.26984 -0.07386 0.05011
 C1621 C 0.28474 -0.07593 0.08773
 C1622 C 0.29605 -0.05678 0.08724
 C1623 C 0.30327 -0.04804 0.10633
 C1624 C 0.29927 -0.05823 0.12631
 C1625 C 0.28748 -0.07712 0.12679
 C1626 C 0.28031 -0.08587 0.10772
 C1627 C 0.30795 -0.04958 0.14648
 C1628 C 0.31657 -0.06318 0.16252
 C1629 C 0.32566 -0.05503 0.18105
 C1630 C 0.32639 -0.03308 0.18395
 C1631 C 0.31740 -0.01950 0.16813
 C1632 C 0.30827 -0.02765 0.14962
 H1633 H 0.28742 -0.11760 0.07818
 H1634 H 0.27663 -0.13446 0.04504
 H1635 H 0.25725 -0.07396 0.01801
 H1636 H 0.26778 -0.05694 0.05135
 H1637 H 0.29991 -0.04890 0.07207
 H1638 H 0.31255 -0.03362 0.10538
 H1639 H 0.28379 -0.08514 0.14193
 H1640 H 0.27129 -0.10045 0.10862
 H1641 H 0.31687 -0.08012 0.16045
 H1642 H 0.33273 -0.06587 0.19279
 H1643 H 0.31744 -0.00253 0.17008
 H1644 H 0.30144 -0.01679 0.13775
 C1645 C 0.26478 0.09706 0.44294
 C1646 C 0.26057 0.08766 0.46326
 C1647 C 0.25514 0.10018 0.48062
 C1648 C 0.25415 0.12224 0.47794
 C1649 C 0.25816 0.13161 0.45768
 C1650 C 0.26346 0.11917 0.44035
 C1651 C 0.27111 0.08413 0.42450
 C1652 C 0.26318 0.08888 0.40379
 C1653 C 0.27078 0.07828 0.38601
 C1654 C 0.28651 0.06268 0.38854
 C1655 C 0.29376 0.05724 0.40937
 C1656 C 0.28612 0.06785 0.42718
 C1657 C 0.29639 0.05324 0.36941
 C1658 C 0.30174 0.03167 0.36936
 C1659 C 0.31240 0.02330 0.35183
 C1660 C 0.31804 0.03638 0.33410
 C1661 C 0.31220 0.05782 0.33395
 C1662 C 0.30150 0.06615 0.35139
 H1663 H 0.26129 0.07064 0.46564
 H1664 H 0.25174 0.09258 0.49602
 H1665 H 0.25731 0.14863 0.45528
 H1666 H 0.26690 0.12691 0.42500
 H1667 H 0.25129 0.10107 0.40130
 H1668 H 0.26459 0.08252 0.37022
 H1669 H 0.30604 0.04545 0.41181
 H1670 H 0.29264 0.06397 0.44293
 H1671 H 0.29785 0.02131 0.38295
 H1672 H 0.31683 0.00675 0.35245
 H1673 H 0.31613 0.06823 0.32041
 H1674 H 0.29782 0.08288 0.35103
 C1675 C 0.77108 0.57409 0.94147
 C1676 C 0.77867 0.56939 0.96238
 C1677 C 0.77233 0.58150 0.97970
 C1678 C 0.75802 0.59823 0.97651
 C1679 C 0.75044 0.60301 0.95576
 C1680 C 0.75691 0.59109 0.93841
 C1681 C 0.77844 0.56198 0.92272
 C1682 C 0.76466 0.55816 0.90541
 C1683 C 0.77206 0.54856 0.88694
 C1684 C 0.79333 0.54227 0.88546
 C1685 C 0.80691 0.54521 0.90305
 C1686 C 0.79959 0.55506 0.92144
 C1687 C 0.80169 0.53402 0.86512
 C1688 C 0.81499 0.51620 0.86522
 C1689 C 0.82409 0.50948 0.84610
 C1690 C 0.82033 0.52071 0.82665
 C1691 C 0.80667 0.53823 0.82649
 C1692 C 0.79732 0.54473 0.84551
 H1693 H 0.78947 0.55634 0.96537
 H1694 H 0.77857 0.57779 0.99561
 H1695 H 0.73990 0.61625 0.95275
 H1696 H 0.75121 0.59559 0.92250
 H1697 H 0.74816 0.56281 0.90604
 H1698 H 0.76122 0.54621 0.87368
 H1699 H 0.82345 0.54071 0.90220
 H1700 H 0.81073 0.55799 0.93429
 H1701 H 0.81851 0.50763 0.88013
 H1702 H 0.83470 0.49602 0.84662
 H1703 H 0.80349 0.54708 0.81166
 H1704 H 0.78727 0.55862 0.84503
 C1705 C 0.06950 0.72279 0.59092
 C1706 C 0.07156 0.72733 0.61279
 C1707 C 0.05413 0.73438 0.62435
 C1708 C 0.03444 0.73727 0.61418
 C1709 C 0.03239 0.73313 0.59225
 C1710 C 0.04976 0.72573 0.58074
 C1711 C 0.08782 0.71451 0.57897
 C1712 C 0.08562 0.69638 0.56668
 C1713 C 0.10319 0.68774 0.55650
 C1714 C 0.12331 0.69725 0.55814
 C1715 C 0.12530 0.71579 0.56999
 C1716 C 0.10777 0.72422 0.58043
 C1717 C 0.14223 0.68739 0.54824
 C1718 C 0.16208 0.68785 0.55863
 C1719 C 0.17958 0.67760 0.54999
 C1720 C 0.17757 0.66640 0.53093
 C1721 C 0.15792 0.66620 0.52030
 C1722 C 0.14048 0.67672 0.52875
 H1723 H 0.08656 0.72500 0.62104
 H1724 H 0.05599 0.73751 0.64128
 H1725 H 0.01743 0.73541 0.58400
 H1726 H 0.04785 0.72246 0.56384
 H1727 H 0.07042 0.68848 0.56554
 H1728 H 0.10108 0.67325 0.54790
 H1729 H 0.14041 0.72381 0.57124
 H1730 H 0.10978 0.73838 0.58963
 H1731 H 0.16399 0.69554 0.57384
 H1732 H 0.19452 0.67775 0.55862
 H1733 H 0.15605 0.65784 0.50545
 H1734 H 0.12560 0.67640 0.52005
 C1735 C 0.55421 0.22300 1.07885
 C1736 C 0.53411 0.22601 1.06944
 C1737 C 0.51703 0.23271 1.08188
 C1738 C 0.51986 0.23616 1.10388
 C1739 C 0.53974 0.23246 1.11336
 C1740 C 0.55685 0.22625 1.10090
 C1741 C 0.57246 0.21603 1.06603
 C1742 C 0.59165 0.22725 1.06661
 C1743 C 0.60958 0.21967 1.05621
 C1744 C 0.60884 0.20043 1.04538
 C1745 C 0.58936 0.18956 1.04433
 C1746 C 0.57131 0.19739 1.05441
 C1747 C 0.62850 0.19121 1.03627
 C1748 C 0.62772 0.17902 1.01769
 C1749 C 0.64596 0.16911 1.01017
 C1750 C 0.66543 0.17147 1.02083
 C1751 C 0.66644 0.18415 1.03894
 C1752 C 0.64816 0.19376 1.04668
 H1753 H 0.53173 0.22338 1.05247
 H1754 H 0.50167 0.23494 1.07438
 H1755 H 0.54210 0.23463 1.13041
 H1756 H 0.57212 0.22367 1.10854
 H1757 H 0.59279 0.24180 1.07534
 H1758 H 0.62409 0.22878 1.05691
 H1759 H 0.58819 0.17456 1.03646
 H1760 H 0.55669 0.18841 1.05394
 H1761 H 0.61300 0.17703 1.00899
 H1762 H 0.64486 0.15955 0.99604
 H1763 H 0.68123 0.18596 1.04760
 H1764 H 0.64938 0.20261 1.06128
 C1765 C 0.94089 0.22300 0.92402
 C1766 C 0.95155 0.20912 0.91053
 C1767 C 0.96861 0.21616 0.89805
 C1768 C 0.97557 0.23717 0.89899
 C1769 C 0.96504 0.25114 0.91244
 C1770 C 0.94777 0.24413 0.92484
 C1771 C 0.92216 0.21537 0.93635
 C1772 C 0.90335 0.22726 0.93652
 C1773 C 0.88489 0.21872 0.94572
 C1774 C 0.88493 0.19815 0.95495
 C1775 C 0.90406 0.18679 0.95583
 C1776 C 0.92245 0.19529 0.94661
 C1777 C 0.86486 0.18787 0.96209
 C1778 C 0.86080 0.16675 0.95695
 C1779 C 0.84164 0.15712 0.96261
 C1780 C 0.82601 0.16835 0.97354
 C1781 C 0.83013 0.18938 0.97906
 C1782 C 0.84935 0.19909 0.97328
 H1783 H 0.94630 0.19289 0.90917
 H1784 H 0.97601 0.20514 0.88746
 H1785 H 0.97008 0.26749 0.91318
 H1786 H 0.93982 0.25516 0.93509
 H1787 H 0.90265 0.24272 0.92859
 H1788 H 0.87035 0.22779 0.94466
 H1789 H 0.90470 0.17110 0.96325
 H1790 H 0.93683 0.18594 0.94707
 H1791 H 0.87228 0.15776 0.94808
 H1792 H 0.83905 0.14081 0.95841
 H1793 H 0.81832 0.19843 0.98741
 H1794 H 0.85209 0.21535 0.97756
 C1795 C 0.44859 0.71869 0.43572
 C1796 C 0.45175 0.74072 0.43416
 C1797 C 0.46766 0.74931 0.42093
 C1798 C 0.48067 0.73607 0.40902
 C1799 C 0.47832 0.71408 0.41143
 C1800 C 0.46239 0.70547 0.42454
 C1801 C 0.43022 0.70953 0.44772
 C1802 C 0.43198 0.68996 0.45891
 C1803 C 0.41410 0.68021 0.46801
 C1804 C 0.39411 0.68989 0.46629
 C1805 C 0.39250 0.70989 0.45600
 C1806 C 0.41034 0.71958 0.44676
 C1807 C 0.37477 0.67854 0.47374
 C1808 C 0.35865 0.68915 0.48467
 C1809 C 0.33979 0.67870 0.49021
 C1810 C 0.33660 0.65754 0.48466
 C1811 C 0.35289 0.64683 0.47415
 C1812 C 0.37180 0.65719 0.46882
 H1813 H 0.44170 0.75134 0.44290
 H1814 H 0.46935 0.76630 0.41968
 H1815 H 0.48845 0.70345 0.40282
 H1816 H 0.46036 0.68846 0.42521
 H1817 H 0.44712 0.68199 0.46032
 H1818 H 0.41583 0.66492 0.47613
 H1819 H 0.37724 0.71761 0.45422
 H1820 H 0.40832 0.73449 0.43801
 H1821 H 0.36059 0.70558 0.48875
 H1822 H 0.32744 0.68733 0.49824
 H1823 H 0.35092 0.63045 0.46989
 H1824 H 0.38384 0.64868 0.46022
 C1825 C 0.56222 0.77023 0.42172
 C1826 C 0.54831 0.75668 0.43316
 C1827 C 0.52947 0.74984 0.42358
 C1828 C 0.52453 0.75623 0.40240
 C1829 C 0.53852 0.76948 0.39088
 C1830 C 0.55714 0.77652 0.40048
 C1831 C 0.58197 0.77803 0.43172
 C1832 C 0.58741 0.79951 0.42957
 C1833 C 0.60658 0.80687 0.43774
 C1834 C 0.62093 0.79288 0.44806
 C1835 C 0.61522 0.77144 0.45074
 C1836 C 0.59587 0.76410 0.44271
 C1837 C 0.64185 0.80078 0.45552
 C1838 C 0.65094 0.79332 0.47500
 C1839 C 0.67011 0.80179 0.48234
 C1840 C 0.68037 0.81797 0.47043
 C1841 C 0.67165 0.82491 0.45069
 C1842 C 0.65272 0.81634 0.44326
 H1843 H 0.55186 0.75168 0.44957
 H1844 H 0.51889 0.73951 0.43268
 H1845 H 0.53502 0.77443 0.37444
 H1846 H 0.56772 0.78672 0.39122
 H1847 H 0.57680 0.81063 0.42151
 H1848 H 0.61016 0.82358 0.43594
 H1849 H 0.62595 0.76023 0.45848
 H1850 H 0.59206 0.74743 0.44446
 H1851 H 0.64294 0.78144 0.48489
 H1852 H 0.67650 0.79626 0.49767
 H1853 H 0.67948 0.83710 0.44102
 H1854 H 0.64653 0.82201 0.42790
 C1855 C 0.05606 0.27112 -0.08010
 C1856 C 0.03869 0.26244 -0.06885
 C1857 C 0.02109 0.25491 -0.08011
 C1858 C 0.02089 0.25576 -0.10267
 C1859 C 0.03869 0.26345 -0.11383
 C1860 C 0.05601 0.27138 -0.10264
 C1861 C 0.07395 0.28077 -0.06862
 C1862 C 0.07907 0.30203 -0.07290
 C1863 C 0.09668 0.31113 -0.06319
 C1864 C 0.10990 0.29903 -0.04935
 C1865 C 0.10442 0.27776 -0.04474
 C1866 C 0.08648 0.26876 -0.05418
 C1867 C 0.12947 0.30857 -0.04027
 C1868 C 0.13678 0.30284 -0.01948
 C1869 C 0.15490 0.31238 -0.01098
 C1870 C 0.16578 0.32806 -0.02295
 C1871 C 0.15875 0.33358 -0.04375
 C1872 C 0.14097 0.32380 -0.05240
 H1873 H 0.03853 0.26207 -0.05143
 H1874 H 0.00768 0.24861 -0.07120
 H1875 H 0.03894 0.26387 -0.13125
 H1876 H 0.06937 0.27783 -0.11157
 H1877 H 0.06941 0.31159 -0.08384
 H1878 H 0.09993 0.32770 -0.06663
 H1879 H 0.11430 0.26788 -0.03435
 H1880 H 0.08278 0.25227 -0.05078
 H1881 H 0.12825 0.29136 -0.00957
 H1882 H 0.16006 0.30799 0.00516
 H1883 H 0.16714 0.34544 -0.05336
 H1884 H 0.13630 0.32818 -0.06869
 C1885 C 0.43623 0.26791 0.08597
 C1886 C 0.45633 0.27495 0.07900
 C1887 C 0.47476 0.26754 0.08925
 C1888 C 0.47348 0.25264 0.10628
 C1889 C 0.45355 0.24535 0.11311
 C1890 C 0.43511 0.25291 0.10309
 C1891 C 0.41647 0.27682 0.07615
 C1892 C 0.39822 0.26419 0.07404
 C1893 C 0.37932 0.27291 0.06606
 C1894 C 0.37832 0.29437 0.05972
 C1895 C 0.39661 0.30691 0.06133
 C1896 C 0.41543 0.29828 0.06957
 C1897 C 0.35813 0.30385 0.05198
 C1898 C 0.35776 0.31715 0.03351
 C1899 C 0.33888 0.32677 0.02667
 C1900 C 0.32006 0.32349 0.03835
 C1901 C 0.32039 0.31006 0.05673
 C1902 C 0.33922 0.30020 0.06339
 H1903 H 0.45785 0.28628 0.06572
 H1904 H 0.49002 0.27362 0.08400
 H1905 H 0.45209 0.23435 0.12667
 H1906 H 0.41996 0.24752 0.10928
 H1907 H 0.39853 0.24752 0.07855
 H1908 H 0.36548 0.26286 0.06474
 H1909 H 0.39616 0.32357 0.05679
 H1910 H 0.42899 0.30861 0.07134
 H1911 H 0.37211 0.32012 0.02437
 H1912 H 0.33910 0.33720 0.01256
 H1913 H 0.30606 0.30722 0.06594
 H1914 H 0.33914 0.29014 0.07778
 C1915 C 0.95376 0.76708 0.58717
 C1916 C 0.96549 0.78221 0.59832
 C1917 C 0.98285 0.77615 0.61099
 C1918 C 0.98900 0.75487 0.61261
 C1919 C 0.97735 0.73967 0.60158
 C1920 C 0.95983 0.74571 0.58896
 C1921 C 0.93491 0.77374 0.57436
 C1922 C 0.91584 0.76225 0.57578
 C1923 C 0.89747 0.76991 0.56556
 C1924 C 0.89786 0.78919 0.55371
 C1925 C 0.91720 0.80008 0.55143
 C1926 C 0.93549 0.79246 0.56165
 C1927 C 0.87796 0.79875 0.54511
 C1928 C 0.87426 0.82049 0.54733
 C1929 C 0.85528 0.82960 0.54026
 C1930 C 0.83947 0.81724 0.53079
 C1931 C 0.84325 0.79556 0.52816
 C1932 C 0.86229 0.78637 0.53537
 H1933 H 0.96092 0.79872 0.59764
 H1934 H 0.99123 0.78818 0.61962
 H1935 H 0.98173 0.72312 0.60284
 H1936 H 0.95111 0.73371 0.58054
 H1937 H 0.91489 0.74786 0.58559
 H1938 H 0.88278 0.76126 0.56775
 H1939 H 0.91809 0.81474 0.54203
 H1940 H 0.95007 0.80142 0.55991
 H1941 H 0.88588 0.83041 0.55502
 H1942 H 0.85297 0.84641 0.54222
 H1943 H 0.83130 0.78566 0.52097
 H1944 H 0.86476 0.76960 0.53333
   
