data_POSCAR
  _audit_creation_date              2014-09-24
  _audit_creation_method            'ToBaCCo'
  _symmetry_space_group_name_H-M    'P1'
  _symmetry_Int_Tables_number       1
  _symmetry_cell_setting            triclinic
  loop_
  _symmetry_equiv_pos_as_xyz
 x,y,z
_cell_length_a 58.9242
_cell_length_b 60.0815
_cell_length_c 62.5346
_cell_angle_alpha 91.239000
_cell_angle_beta 94.208600
_cell_angle_gamma 90.161600
loop_
  _atom_site_label
  _atom_site_type_symbol
  _atom_site_fract_x
  _atom_site_fract_y
  _atom_site_fract_z
N1 N 0.16569 0.23021 0.22535
 N2 N 0.17429 0.21572 0.23911
 C3 C 0.16156 0.21546 0.25614
 C4 C 0.14417 0.23071 0.25278
 C5 C 0.14730 0.23973 0.23314
 H6 H 0.16485 0.20516 0.26997
 H7 H 0.13708 0.25250 0.22526
 Cu8 Cu 0.20139 0.19877 0.23358
 Cu9 Cu 0.17942 0.23641 0.19889
 Cu10 Cu 0.22754 0.20654 0.18798
 N11 N 0.22724 0.18090 0.22620
 N12 N 0.23744 0.18396 0.20848
 C13 C 0.25412 0.16882 0.20714
 C14 C 0.25429 0.15557 0.22499
 C15 C 0.23708 0.16372 0.23672
 H16 H 0.26493 0.16732 0.19395
 H17 H 0.23185 0.15722 0.25159
 N18 N 0.21461 0.23002 0.16922
 N19 N 0.19568 0.24061 0.17300
 C20 C 0.19069 0.25502 0.15719
 C21 C 0.20739 0.25368 0.14296
 C22 C 0.22235 0.23768 0.15097
 H23 H 0.17628 0.26614 0.15630
 H24 H 0.23760 0.23197 0.14398
 H25 H 0.19407 0.20520 0.19535
 H26 H 0.21233 0.22744 0.20920
 N27 N 0.68211 0.71644 0.72242
 N28 N 0.69002 0.70095 0.73548
 C29 C 0.67743 0.70064 0.75264
 C30 C 0.66086 0.71688 0.75000
 C31 C 0.66430 0.72647 0.73069
 H32 H 0.68029 0.68967 0.76603
 H33 H 0.65467 0.73993 0.72327
 Cu34 Cu 0.71606 0.68295 0.72850
 Cu35 Cu 0.69521 0.72265 0.69558
 Cu36 Cu 0.74927 0.70182 0.69163
 N37 N 0.73979 0.66439 0.71726
 N38 N 0.75245 0.67193 0.70252
 C39 C 0.76736 0.65621 0.69733
 C40 C 0.76402 0.63786 0.70954
 C41 C 0.74642 0.64353 0.72213
 H42 H 0.77993 0.65813 0.68572
 H43 H 0.73893 0.63327 0.73377
 N44 N 0.73706 0.72627 0.67423
 N45 N 0.71603 0.73355 0.67498
 C46 C 0.71233 0.74956 0.66043
 C47 C 0.73205 0.75231 0.65004
 C48 C 0.74735 0.73735 0.65918
 H49 H 0.69655 0.75855 0.65778
 H50 H 0.76458 0.73446 0.65493
 H51 H 0.71583 0.69494 0.69149
 H52 H 0.72590 0.71736 0.71113
 N53 N 0.31706 0.75866 0.73874
 N54 N 0.30860 0.77566 0.74905
 C55 C 0.32157 0.77981 0.76732
 C56 C 0.33921 0.76473 0.76853
 C57 C 0.33577 0.75137 0.75018
 H58 H 0.31877 0.79327 0.77857
 H59 H 0.34621 0.73769 0.74523
 Cu60 Cu 0.28215 0.79179 0.73732
 Cu61 Cu 0.30342 0.74831 0.71078
 Cu62 Cu 0.27403 0.79025 0.68385
 N63 N 0.26228 0.81290 0.72224
 N64 N 0.25950 0.81255 0.70119
 C65 C 0.24594 0.82951 0.69482
 C66 C 0.23981 0.84105 0.71286
 C67 C 0.25053 0.83005 0.73006
 H68 H 0.24085 0.83317 0.67829
 H69 H 0.25039 0.83441 0.74691
 N70 N 0.28506 0.76341 0.66931
 N71 N 0.29521 0.74675 0.67956
 C72 C 0.29982 0.73062 0.66513
 C73 C 0.29232 0.73776 0.64491
 C74 C 0.28319 0.75851 0.64820
 H75 H 0.30858 0.71526 0.66897
 H76 H 0.27557 0.76918 0.63597
 H77 H 0.30112 0.78119 0.70537
 H78 H 0.27331 0.76653 0.70665
 N79 N 0.82292 0.25655 0.23463
 N80 N 0.81898 0.27401 0.24681
 C81 C 0.83360 0.27408 0.26440
 C82 C 0.84764 0.25573 0.26300
 C83 C 0.84034 0.24497 0.24394
 H84 H 0.83438 0.28694 0.27680
 H85 H 0.84755 0.23013 0.23710
 Cu86 Cu 0.79642 0.29600 0.23777
 Cu87 Cu 0.80616 0.25114 0.20694
 Cu88 Cu 0.75743 0.28281 0.19750
 N89 N 0.76873 0.31306 0.23287
 N90 N 0.75349 0.30789 0.21713
 C91 C 0.73626 0.32256 0.21722
 C92 C 0.74101 0.33766 0.23400
 C93 C 0.76167 0.33110 0.24362
 H94 H 0.72147 0.32223 0.20593
 H95 H 0.77092 0.33897 0.25735
 N96 N 0.76470 0.25686 0.17946
 N97 N 0.78322 0.24474 0.18297
 C98 C 0.78368 0.22891 0.16737
 C99 C 0.76462 0.23140 0.15335
 C100 C 0.75305 0.24922 0.16147
 H101 H 0.79726 0.21704 0.16589
 H102 H 0.73759 0.25646 0.15434
 H103 H 0.79223 0.28225 0.20036
 H104 H 0.77769 0.26430 0.21914
 N105 N 0.80789 0.73790 0.28055
 N106 N 0.80274 0.71937 0.26966
 C107 C 0.81705 0.71694 0.25389
 C108 C 0.83186 0.73495 0.25513
 C109 C 0.82556 0.74783 0.27217
 H110 H 0.81656 0.70325 0.24236
 H111 H 0.83327 0.76338 0.27797
 Cu112 Cu 0.77767 0.70024 0.27680
 Cu113 Cu 0.79164 0.74800 0.30483
 Cu114 Cu 0.74304 0.71886 0.31378
 N115 N 0.74839 0.68608 0.28061
 N116 N 0.73460 0.69424 0.29437
 C117 C 0.71573 0.68160 0.29390
 C118 C 0.71784 0.66438 0.27933
 C119 C 0.73878 0.66763 0.27108
 H120 H 0.70186 0.68414 0.30407
 H121 H 0.74650 0.65733 0.25924
 N122 N 0.75419 0.74407 0.33198
 N123 N 0.77272 0.75544 0.32860
 C124 C 0.77647 0.77089 0.34446
 C125 C 0.75952 0.76882 0.35846
 C126 C 0.74579 0.75172 0.35012
 H127 H 0.79099 0.78199 0.34626
 H128 H 0.73119 0.74488 0.35724
 H129 H 0.77839 0.71774 0.31241
 H130 H 0.76204 0.73419 0.29127
 N131 N 0.30746 0.23409 -0.22821
 N132 N 0.30519 0.21479 -0.23845
 C133 C 0.31951 0.21390 -0.25421
 C134 C 0.33154 0.23376 -0.25377
 C135 C 0.32352 0.24616 -0.23704
 H136 H 0.32091 0.19980 -0.26504
 H137 H 0.32887 0.26276 -0.23180
 Cu138 Cu 0.28385 0.19241 -0.23060
 Cu139 Cu 0.28918 0.24193 -0.20442
 Cu140 Cu 0.24512 0.20562 -0.19577
 N141 N 0.25671 0.17459 -0.22862
 N142 N 0.24136 0.17985 -0.21518
 C143 C 0.22466 0.16441 -0.21687
 C144 C 0.22999 0.14869 -0.23222
 C145 C 0.25040 0.15566 -0.23931
 H146 H 0.21015 0.16434 -0.20727
 H147 H 0.26009 0.14736 -0.25114
 N148 N 0.25190 0.23256 -0.17792
 N149 N 0.26858 0.24651 -0.18124
 C150 C 0.26946 0.26261 -0.16585
 C151 C 0.25256 0.25844 -0.15221
 C152 C 0.24183 0.23932 -0.16029
 H153 H 0.28200 0.27582 -0.16422
 H154 H 0.22810 0.23065 -0.15341
 H155 H 0.28011 0.21031 -0.19574
 H156 H 0.26201 0.22346 -0.21783
 N157 N 0.67627 0.25725 -0.25667
 N158 N 0.68355 0.27428 -0.26714
 C159 C 0.66955 0.27735 -0.28481
 C160 C 0.65254 0.26148 -0.28541
 C161 C 0.65732 0.24890 -0.26729
 H162 H 0.67121 0.29046 -0.29618
 H163 H 0.64769 0.23497 -0.26200
 Cu164 Cu 0.70994 0.29119 -0.25583
 Cu165 Cu 0.69168 0.24776 -0.22969
 Cu166 Cu 0.73849 0.27930 -0.20915
 N167 N 0.73531 0.30939 -0.24441
 N168 N 0.74698 0.30461 -0.22634
 C169 C 0.76367 0.31996 -0.22242
 C170 C 0.76199 0.33510 -0.23888
 C171 C 0.74383 0.32795 -0.25236
 H172 H 0.77565 0.32040 -0.20845
 H173 H 0.73730 0.33590 -0.26687
 N174 N 0.72690 0.25298 -0.19455
 N175 N 0.70945 0.24088 -0.20271
 C176 C 0.70604 0.22392 -0.18960
 C177 C 0.72182 0.22545 -0.17228
 C178 C 0.73484 0.24406 -0.17583
 H179 H 0.69294 0.21134 -0.19231
 H180 H 0.74917 0.25043 -0.16572
 H181 H 0.70456 0.27886 -0.21973
 H182 H 0.72384 0.26022 -0.23411
 N183 N 0.17234 0.77525 0.27121
 N184 N 0.17650 0.79051 0.25722
 C185 C 0.15890 0.79117 0.24220
 C186 C 0.14292 0.77555 0.24720
 C187 C 0.15197 0.76583 0.26567
 H188 H 0.15756 0.80248 0.22897
 H189 H 0.14417 0.75293 0.27450
 Cu190 Cu 0.20417 0.80836 0.26082
 Cu191 Cu 0.19342 0.76887 0.29567
 Cu192 Cu 0.24339 0.79987 0.30169
 N193 N 0.23199 0.82591 0.26438
 N194 N 0.24746 0.82242 0.28021
 C195 C 0.26469 0.83708 0.27907
 C196 C 0.25956 0.85049 0.26162
 C197 C 0.23878 0.84291 0.25271
 H198 H 0.27946 0.83817 0.29038
 H199 H 0.22918 0.84963 0.23894
 N200 N 0.23589 0.77628 0.32165
 N201 N 0.21675 0.76470 0.31935
 C202 C 0.21638 0.75013 0.33535
 C203 C 0.23624 0.75259 0.34838
 C204 C 0.24822 0.76929 0.33924
 H205 H 0.20270 0.73851 0.33726
 H206 H 0.26471 0.77581 0.34505
 H207 H 0.20841 0.80022 0.29890
 H208 H 0.22270 0.77921 0.28214
 N209 N 0.49687 0.42001 0.48677
 N210 N 0.47961 0.42575 0.49779
 C211 C 0.47721 0.41073 0.51313
 C212 C 0.49397 0.39477 0.51169
 C213 C 0.50614 0.40117 0.49476
 H214 H 0.46416 0.41135 0.52438
 H215 H 0.52065 0.39276 0.48874
 Cu216 Cu 0.46180 0.45226 0.49127
 Cu217 Cu 0.50613 0.43784 0.46338
 Cu218 Cu 0.46992 0.48058 0.44626
 N219 N 0.44309 0.47751 0.48270
 N220 N 0.44576 0.48837 0.46501
 C221 C 0.42990 0.50454 0.46307
 C222 C 0.41669 0.50359 0.48053
 C223 C 0.42556 0.48632 0.49254
 H224 H 0.42819 0.51608 0.45003
 H225 H 0.41943 0.48050 0.50732
 N226 N 0.49569 0.47016 0.42992
 N227 N 0.50928 0.45393 0.43673
 C228 C 0.52475 0.45009 0.42235
 C229 C 0.52104 0.46464 0.40578
 C230 C 0.50248 0.47726 0.41101
 H231 H 0.53772 0.43740 0.42365
 H232 H 0.49436 0.49029 0.40160
 H233 H 0.49101 0.46853 0.47027
 H234 H 0.47294 0.44741 0.45468
 N235 N -0.02147 -0.07892 0.98495
 N236 N -0.03901 -0.07171 0.99493
 C237 C -0.04187 -0.08494 1.01173
 C238 C -0.02510 -0.10113 1.01217
 C239 C -0.01254 -0.09675 0.99503
 H240 H -0.05503 -0.08292 1.02277
 H241 H 0.00209 -0.10592 0.99026
 Cu242 Cu -0.05624 -0.04580 0.98454
 Cu243 Cu -0.01098 -0.06484 0.95980
 Cu244 Cu -0.03741 -0.01600 0.94424
 N245 N -0.07279 -0.01978 0.97344
 N246 N -0.06525 -0.00861 0.95752
 C247 C -0.07943 0.00828 0.95268
 C248 C -0.09681 0.00785 0.96623
 C249 C -0.09218 -0.01019 0.97929
 H250 H -0.07726 0.02012 0.94020
 H251 H -0.10215 -0.01590 0.99196
 N252 N -0.01254 -0.02926 0.92903
 N253 N -0.00267 -0.04807 0.93488
 C254 C 0.01357 -0.05293 0.92151
 C255 C 0.01388 -0.03649 0.90650
 C256 C -0.00292 -0.02170 0.91165
 H257 H 0.02454 -0.06732 0.92260
 H258 H -0.00772 -0.00658 0.90345
 H259 H -0.02132 -0.03395 0.96918
 H260 H -0.04129 -0.04940 0.94942
 N261 N 1.02787 0.58821 0.98541
 N262 N 1.04585 0.58472 0.99861
 C263 C 1.04579 0.59958 1.01517
 C264 C 1.02660 0.61276 1.01199
 C265 C 1.01572 0.60505 0.99307
 H266 H 1.05796 0.59998 1.02898
 H267 H 0.99961 0.61079 0.98585
 Cu268 Cu 1.06575 0.55950 0.99336
 Cu269 Cu 1.02001 0.56971 0.96019
 Cu270 Cu 1.05579 0.52596 0.94953
 N271 N 1.08584 0.53473 0.98730
 N272 N 1.08215 0.52223 0.96984
 C273 C 1.09806 0.50623 0.96966
 C274 C 1.11239 0.50869 0.98807
 C275 C 1.10412 0.52685 0.99896
 H276 H 1.09853 0.49319 0.95752
 H277 H 1.11074 0.53349 1.01438
 N278 N 1.02809 0.53264 0.93111
 N279 N 1.01461 0.54941 0.93541
 C280 C 0.99655 0.54917 0.92102
 C281 C 0.99863 0.53149 0.90700
 C282 C 1.01885 0.52126 0.91372
 H283 H 0.98245 0.56065 0.92099
 H284 H 1.02587 0.50633 0.90691
 H285 H 1.03554 0.54056 0.97116
 H286 H 1.05294 0.55942 0.95545
 N287 N 0.53746 0.10092 0.46861
 N288 N 0.55849 0.09806 0.47662
 C289 C 0.56317 0.11325 0.49254
 C290 C 0.54404 0.12620 0.49458
 C291 C 0.52809 0.11795 0.47906
 H292 H 0.57904 0.11448 0.50233
 H293 H 0.51081 0.12360 0.47578
 Cu294 Cu 0.57665 0.07364 0.46619
 Cu295 Cu 0.52334 0.08208 0.44561
 Cu296 Cu 0.55551 0.03859 0.42701
 N297 N 0.59481 0.04930 0.45559
 N298 N 0.58608 0.03535 0.44068
 C299 C 0.60115 0.01908 0.43744
 C300 C 0.62034 0.02303 0.45106
 C301 C 0.61583 0.04237 0.46227
 H302 H 0.59810 0.00513 0.42637
 H303 H 0.62666 0.05020 0.47498
 N304 N 0.52425 0.04474 0.41527
 N305 N 0.51202 0.06129 0.42246
 C306 C 0.49181 0.06166 0.41095
 C307 C 0.49131 0.04465 0.39579
 C308 C 0.51212 0.03417 0.39894
 H309 H 0.47857 0.07377 0.41301
 H310 H 0.51817 0.02025 0.38975
 H311 H 0.54211 0.05386 0.45304
 H312 H 0.55315 0.07241 0.43254
 N313 N -0.03417 0.09012 0.52682
 N314 N -0.04497 0.07854 0.51111
 C315 C -0.04504 0.09000 0.49291
 C316 C -0.03392 0.10992 0.49742
 C317 C -0.02719 0.10957 0.51910
 H318 H -0.05222 0.08409 0.47739
 H319 H -0.01690 0.12189 0.52822
 Cu320 Cu -0.05756 0.04935 0.51527
 Cu321 Cu -0.02751 0.07754 0.55515
 Cu322 Cu -0.05562 0.02859 0.56483
 N323 N -0.07787 0.02574 0.52249
 N324 N -0.07718 0.01772 0.54190
 C325 C -0.09364 0.00228 0.54269
 C326 C -0.10530 0.00064 0.52266
 C327 C -0.09481 0.01571 0.51023
 H328 H -0.09709 -0.00666 0.55691
 H329 H -0.09953 0.01951 0.49367
 N330 N -0.03325 0.04263 0.58582
 N331 N -0.02297 0.06166 0.58249
 C332 C -0.00815 0.06642 0.59945
 C333 C -0.00905 0.04946 0.61396
 C334 C -0.02521 0.03471 0.60484
 H335 H 0.00323 0.08061 0.60076
 H336 H -0.03042 0.01914 0.61134
 H337 H -0.03186 0.04427 0.54697
 H338 H -0.05803 0.06044 0.55267
 N339 N 0.46701 0.59353 0.02052
 N340 N 0.45131 0.58197 0.00904
 C341 C 0.44778 0.59117 -0.01037
 C342 C 0.46164 0.60967 -0.01088
 C343 C 0.47366 0.61072 0.00896
 H344 H 0.43621 0.58481 -0.02331
 H345 H 0.48694 0.62249 0.01422
 Cu346 Cu 0.43714 0.55598 0.02055
 Cu347 Cu 0.47905 0.58432 0.04885
 Cu348 Cu 0.45346 0.53849 0.06989
 N349 N 0.42365 0.52966 0.03216
 N350 N 0.42991 0.52328 0.05168
 C351 C 0.41859 0.50459 0.05577
 C352 C 0.40445 0.49894 0.03794
 C353 C 0.40801 0.51519 0.02317
 H354 H 0.42076 0.49547 0.07050
 H355 H 0.40014 0.51620 0.00705
 N356 N 0.47781 0.55583 0.08574
 N357 N 0.48860 0.57238 0.07725
 C358 C 0.50692 0.57807 0.09045
 C359 C 0.50732 0.56477 0.10821
 C360 C 0.48863 0.55094 0.10474
 H361 H 0.51963 0.59024 0.08700
 H362 H 0.48447 0.53705 0.11447
 H363 H 0.47076 0.55090 0.04501
 H364 H 0.44931 0.56956 0.05661
 N365 N 0.52604 -0.08588 0.02170
 N366 N 0.54334 -0.08209 0.01009
 C367 C 0.54306 -0.09727 -0.00608
 C368 C 0.52456 -0.11131 -0.00458
 C369 C 0.51420 -0.10363 0.01328
 H370 H 0.55518 -0.09778 -0.01822
 H371 H 0.49887 -0.11016 0.01938
 Cu372 Cu 0.56383 -0.05687 0.01652
 Cu373 Cu 0.51943 -0.06627 0.04575
 Cu374 Cu 0.55671 -0.02244 0.05846
 N375 N 0.58444 -0.03184 0.02340
 N376 N 0.58083 -0.01788 0.03927
 C377 C 0.59671 -0.00167 0.04016
 C378 C 0.61119 -0.00582 0.02414
 C379 C 0.60305 -0.02516 0.01389
 H380 H 0.59797 0.01183 0.05192
 H381 H 0.61006 -0.03352 0.00040
 N382 N 0.53135 -0.02995 0.07593
 N383 N 0.51751 -0.04707 0.07161
 C384 C 0.50233 -0.04779 0.08674
 C385 C 0.50682 -0.03015 0.10104
 C386 C 0.52518 -0.01921 0.09367
 H387 H 0.48860 -0.05974 0.08694
 H388 H 0.53325 -0.00432 0.10069
 H389 H 0.53483 -0.03754 0.03570
 H390 H 0.55273 -0.05644 0.05315
 N391 N 1.02910 0.42311 0.53412
 N392 N 1.04217 0.42957 0.51927
 C393 C 1.03763 0.41702 0.50139
 C394 C 1.02089 0.40171 0.50531
 C395 C 1.01591 0.40602 0.52627
 H396 H 1.04641 0.41850 0.48691
 H397 H 1.00393 0.39712 0.53527
 Cu398 Cu 1.06535 0.45237 0.52538
 Cu399 Cu 1.03133 0.43682 0.56276
 Cu400 Cu 1.05912 0.48818 0.56621
 N401 N 1.08660 0.47684 0.53160
 N402 N 1.08466 0.49064 0.54798
 C403 C 1.10106 0.50639 0.54795
 C404 C 1.11378 0.50214 0.53052
 C405 C 1.10407 0.48339 0.52053
 H406 H 1.10286 0.52042 0.55908
 H407 H 1.10906 0.47549 0.50590
 N408 N 1.03771 0.47851 0.58719
 N409 N 1.02798 0.45863 0.58628
 C410 C 1.01418 0.45706 0.60242
 C411 C 1.01517 0.47694 0.61401
 C412 C 1.03020 0.49015 0.60392
 H413 H 1.00334 0.44291 0.60481
 H414 H 1.03492 0.50716 0.60823
 H415 H 1.03688 0.46629 0.54852
 H416 H 1.06218 0.45485 0.56419
 C417 C 0.36595 0.02195 0.22992
 C418 C 0.35189 0.00079 0.23140
 C419 C 0.36505 -0.01824 0.23726
 C420 C 0.39066 -0.01327 0.24040
 C421 C 0.37954 0.02455 0.25151
 C422 C 0.39286 0.00564 0.25733
 C423 C 0.38349 0.01627 0.21400
 C424 C 0.39688 -0.00269 0.21946
 H425 H 0.33351 0.00099 0.22950
 H426 H 0.40110 -0.02810 0.24479
 H427 H 0.37976 0.04004 0.26064
 H428 H 0.38427 0.02505 0.19916
 C429 C 0.13053 -0.03301 0.75130
 C430 C 0.14351 -0.01104 0.75135
 C431 C 0.12953 0.00806 0.75318
 C432 C 0.10432 0.00230 0.75455
 C433 C 0.11794 -0.03222 0.77167
 C434 C 0.10374 -0.01333 0.77361
 C435 C 0.11192 -0.03155 0.73314
 C436 C 0.09803 -0.01241 0.73448
 H437 H 0.16183 -0.01053 0.75115
 H438 H 0.09344 0.01714 0.75638
 H439 H 0.11876 -0.04588 0.78265
 H440 H 0.11007 -0.04355 0.71994
 C441 C 0.63307 0.47278 0.24577
 C442 C 0.65042 0.49094 0.25227
 C443 C 0.64073 0.51146 0.25823
 C444 C 0.61452 0.51067 0.25750
 C445 C 0.61861 0.47063 0.26482
 C446 C 0.60862 0.49096 0.27138
 C447 C 0.61738 0.48294 0.22811
 C448 C 0.60731 0.50333 0.23436
 H449 H 0.66851 0.48887 0.25079
 H450 H 0.60636 0.52639 0.26240
 H451 H 0.61603 0.45472 0.27200
 H452 H 0.61372 0.47479 0.21265
 C453 C 0.87137 0.50786 0.74772
 C454 C 0.85814 0.48609 0.74645
 C455 C 0.87197 0.46685 0.74907
 C456 C 0.89749 0.47239 0.75220
 C457 C 0.88551 0.50744 0.76905
 C458 C 0.89964 0.48843 0.77165
 C459 C 0.88857 0.50578 0.73074
 C460 C 0.90268 0.48665 0.73298
 H461 H 0.83977 0.48593 0.74591
 H462 H 0.90847 0.45744 0.75413
 H463 H 0.88612 0.52155 0.78011
 H464 H 0.88915 0.51751 0.71794
 C465 C 0.25364 0.35736 0.02362
 C466 C 0.25161 0.34423 0.00247
 C467 C 0.25317 0.35756 -0.01584
 C468 C 0.25643 0.38236 -0.01022
 C469 C 0.27606 0.37009 0.02362
 C470 C 0.27760 0.38379 0.00552
 C471 C 0.23525 0.37522 0.02156
 C472 C 0.23659 0.38864 0.00325
 H473 H 0.25050 0.32626 0.00195
 H474 H 0.25760 0.39289 -0.02452
 H475 H 0.28866 0.36967 0.03706
 H476 H 0.22222 0.37683 0.03279
 C477 C 0.74565 0.14391 -0.02758
 C478 C 0.75021 0.15500 -0.00559
 C479 C 0.75211 0.13987 0.01160
 C480 C 0.74961 0.11540 0.00405
 C481 C 0.76502 0.12739 -0.02947
 C482 C 0.76730 0.11196 -0.01251
 C483 C 0.72433 0.12984 -0.02570
 C484 C 0.72638 0.11424 -0.00898
 H485 H 0.75262 0.17279 -0.00367
 H486 H 0.75154 0.10372 0.01756
 H487 H 0.77576 0.12779 -0.04273
 H488 H 0.70900 0.13158 -0.03618
 C489 C 0.25236 0.63964 0.47230
 C490 C 0.26008 0.65209 0.49305
 C491 C 0.26864 0.63807 0.50982
 C492 C 0.26798 0.61325 0.50327
 C493 C 0.27267 0.62585 0.46653
 C494 C 0.28133 0.61170 0.48294
 C495 C 0.23487 0.62276 0.47863
 C496 C 0.24304 0.60852 0.49537
 H497 H 0.25770 0.66984 0.49484
 H498 H 0.27428 0.60227 0.51641
 H499 H 0.27988 0.62678 0.45112
 H500 H 0.21741 0.62301 0.47199
 C501 C 0.72980 0.86617 0.52792
 C502 C 0.73810 0.85304 0.50896
 C503 C 0.74503 0.86654 0.49219
 C504 C 0.74269 0.89157 0.49702
 C505 C 0.74908 0.88215 0.53513
 C506 C 0.75639 0.89559 0.51866
 C507 C 0.71080 0.88074 0.51828
 C508 C 0.71762 0.89468 0.50190
 H509 H 0.73777 0.83507 0.50850
 H510 H 0.74797 0.90175 0.48374
 H511 H 0.75696 0.88273 0.55135
 H512 H 0.69377 0.88084 0.52376
 C513 C 0.02958 0.24657 0.37018
 C514 C 0.00682 0.24670 0.35706
 C515 C -0.01187 0.25272 0.36908
 C516 C -0.00488 0.25771 0.39289
 C517 C 0.03202 0.26962 0.38060
 C518 C 0.01380 0.27571 0.39303
 C519 C 0.02618 0.23090 0.38848
 C520 C 0.00749 0.23659 0.40066
 H521 H 0.00562 0.24370 0.33990
 H522 H -0.01960 0.26207 0.40221
 H523 H 0.04684 0.28010 0.37930
 H524 H 0.03766 0.21727 0.39209
 C525 C -0.04421 0.74531 0.14585
 C526 C -0.02256 0.75048 0.15997
 C527 C -0.00407 0.75767 0.14843
 C528 C -0.01001 0.75857 0.12416
 C529 C -0.04931 0.76629 0.13322
 C530 C -0.03117 0.77360 0.12147
 C531 C -0.03714 0.72811 0.12938
 C532 C -0.01857 0.73503 0.11776
 H533 H -0.02186 0.74877 0.17717
 H534 H 0.00460 0.76378 0.11523
 H535 H -0.06555 0.77474 0.13301
 H536 H -0.04445 0.71157 0.12825
 C537 C 0.45304 0.24026 0.63603
 C538 C 0.47474 0.23820 0.65054
 C539 C 0.49488 0.24257 0.64036
 C540 C 0.49045 0.24812 0.61648
 C541 C 0.45386 0.26344 0.62682
 C542 C 0.47365 0.26776 0.61602
 C543 C 0.45617 0.22444 0.61710
 C544 C 0.47636 0.22828 0.60670
 H545 H 0.47476 0.23386 0.66728
 H546 H 0.50600 0.25149 0.60838
 H547 H 0.43995 0.27514 0.62743
 H548 H 0.44431 0.21112 0.61231
 C549 C 0.53593 0.73532 0.85671
 C550 C 0.51591 0.73949 0.84066
 C551 C 0.49604 0.74700 0.84993
 C552 C 0.49916 0.74960 0.87463
 C553 C 0.53958 0.75708 0.86934
 C554 C 0.52015 0.76484 0.87921
 C555 C 0.52700 0.71901 0.87245
 C556 C 0.50722 0.72655 0.88217
 H557 H 0.51651 0.73597 0.82363
 H558 H 0.48374 0.75535 0.88216
 H559 H 0.55593 0.76548 0.87130
 H560 H 0.53608 0.70398 0.87688
 C561 C 0.12626 0.23702 0.26687
 C562 C 0.12366 0.22681 0.28631
 C563 C 0.10574 0.23360 0.30021
 N564 N 0.10270 0.22228 0.31832
 N565 N 0.08641 0.22821 0.33096
 C566 C 0.07263 0.24572 0.32597
 N567 N 0.07574 0.25710 0.30792
 N568 N 0.09199 0.25114 0.29526
 C569 C 0.05436 0.25229 0.33951
 C570 C 0.04917 0.24016 0.35725
 H571 H 0.13482 0.21338 0.29147
 H572 H 0.04425 0.26674 0.33511
 H573 H 0.11475 0.25016 0.26162
 H574 H 0.05912 0.22561 0.36165
 C575 C 0.64331 0.72371 0.76426
 C576 C 0.63871 0.71237 0.78266
 C577 C 0.62049 0.71991 0.79596
 N578 N 0.61360 0.70702 0.81185
 N579 N 0.59664 0.71359 0.82347
 C580 C 0.58607 0.73334 0.81964
 N581 N 0.59314 0.74629 0.80394
 N582 N 0.60999 0.73970 0.79231
 C583 C 0.56691 0.74075 0.83168
 C584 C 0.55680 0.72745 0.84631
 H585 H 0.64803 0.69744 0.78700
 H586 H 0.55984 0.75704 0.82829
 H587 H 0.63325 0.73813 0.75967
 H588 H 0.56336 0.71095 0.84956
 C589 C 0.35807 0.76456 0.78540
 C590 C 0.37777 0.75219 0.78332
 C591 C 0.39745 0.75325 0.79929
 N592 N 0.41711 0.74318 0.79472
 N593 N 0.43526 0.74404 0.80870
 C594 C 0.43451 0.75496 0.82789
 N595 N 0.41476 0.76492 0.83259
 N596 N 0.39658 0.76415 0.81852
 C597 C 0.45476 0.75570 0.84337
 C598 C 0.47597 0.74940 0.83674
 H599 H 0.37935 0.74205 0.76899
 H600 H 0.45278 0.76115 0.85972
 H601 H 0.35687 0.77548 0.79927
 H602 H 0.47703 0.74555 0.81982
 C603 C -0.13369 0.24969 0.27662
 C604 C -0.12677 0.26146 0.29552
 C605 C -0.10516 0.25650 0.30780
 N606 N -0.09937 0.26738 0.32670
 N607 N -0.07928 0.26382 0.33732
 C608 C -0.06426 0.24929 0.32934
 N609 N -0.07010 0.23840 0.31051
 N610 N -0.09017 0.24189 0.29997
 C611 C -0.04138 0.24607 0.33974
 C612 C -0.03442 0.25422 0.36032
 H613 H -0.13689 0.27509 0.30115
 H614 H -0.02983 0.23647 0.33060
 H615 H -0.12385 0.23544 0.27186
 H616 H -0.04700 0.26147 0.37014
 C617 C -0.14961 0.74035 0.24157
 C618 C -0.14337 0.72672 0.22469
 C619 C -0.12476 0.73307 0.21153
 N620 N -0.11839 0.71923 0.19563
 N621 N -0.10154 0.72493 0.18369
 C622 C -0.09050 0.74471 0.18722
 N623 N -0.09689 0.75853 0.20308
 N624 N -0.11369 0.75282 0.21501
 C625 C -0.07184 0.75140 0.17436
 C626 C -0.06371 0.73785 0.15828
 H627 H -0.15218 0.71110 0.22106
 H628 H -0.06396 0.76753 0.17781
 H629 H -0.14050 0.75582 0.24519
 H630 H -0.07144 0.72169 0.15468
 C631 C 0.34829 0.24026 0.73295
 C632 C 0.35489 0.22679 0.71603
 C633 C 0.37304 0.23314 0.70245
 N634 N 0.37807 0.21952 0.68589
 N635 N 0.39476 0.22468 0.67362
 C636 C 0.40707 0.24366 0.67748
 N637 N 0.40203 0.25732 0.69403
 N638 N 0.38530 0.25217 0.70629
 C639 C 0.42601 0.24920 0.66452
 C640 C 0.43196 0.23568 0.64742
 H641 H 0.34667 0.21089 0.71246
 H642 H 0.43606 0.26395 0.66891
 H643 H 0.35633 0.25637 0.73599
 H644 H 0.42219 0.22073 0.64316
 C645 C 0.63426 0.25976 0.69914
 C646 C 0.61658 0.24447 0.70026
 C647 C 0.59637 0.24446 0.68499
 N648 N 0.57765 0.23275 0.68940
 N649 N 0.55881 0.23335 0.67633
 C650 C 0.55799 0.24557 0.65827
 N651 N 0.57685 0.25698 0.65363
 N652 N 0.59569 0.25650 0.66680
 C653 C 0.53683 0.24707 0.64431
 C654 C 0.51602 0.24122 0.65195
 H655 H 0.61666 0.23306 0.71341
 H656 H 0.53777 0.25413 0.62866
 H657 H 0.63352 0.27147 0.68617
 H658 H 0.51604 0.23583 0.66839
 C659 C 0.12046 0.77050 0.23638
 C660 C 0.11302 0.77903 0.21654
 C661 C 0.09004 0.77409 0.20669
 N662 N 0.08405 0.78007 0.18624
 N663 N 0.06322 0.77568 0.17731
 C664 C 0.04761 0.76525 0.18859
 N665 N 0.05358 0.75940 0.20905
 N666 N 0.07440 0.76369 0.21791
 C667 C 0.02447 0.76028 0.17932
 C668 C 0.01778 0.76293 0.15761
 H669 H 0.12424 0.78930 0.20795
 H670 H 0.01285 0.75355 0.19011
 H671 H 0.10946 0.75940 0.24437
 H672 H 0.03025 0.76878 0.14712
 C673 C 0.26854 0.13615 0.23047
 C674 C 0.28472 0.12790 0.21724
 C675 C 0.29802 0.10781 0.22253
 N676 N 0.31346 0.10024 0.20907
 N677 N 0.32548 0.08196 0.21357
 C678 C 0.32246 0.07056 0.23167
 N679 N 0.30703 0.07813 0.24513
 N680 N 0.29502 0.09641 0.24064
 C681 C 0.33566 0.05042 0.23694
 C682 C 0.35201 0.04214 0.22390
 H683 H 0.28759 0.13612 0.20244
 H684 H 0.33269 0.04199 0.25163
 H685 H 0.26577 0.12784 0.24526
 H686 H 0.35502 0.05052 0.20920
 C687 C 0.77718 0.61720 0.70889
 C688 C 0.77922 0.60280 0.72602
 C689 C 0.79514 0.58403 0.72611
 N690 N 0.80287 0.57507 0.74496
 N691 N 0.81819 0.55880 0.74534
 C692 C 0.82624 0.55082 0.72687
 N693 N 0.81821 0.55950 0.70798
 N694 N 0.80303 0.57591 0.70762
 C695 C 0.84329 0.53300 0.72721
 C696 C 0.85611 0.52786 0.74603
 H697 H 0.77067 0.60655 0.74041
 H698 H 0.84593 0.52389 0.71247
 H699 H 0.78725 0.61436 0.69529
 H700 H 0.85335 0.53727 0.76058
 C701 C 0.77502 0.35546 0.75790
 C702 C 0.79630 0.36055 0.76806
 C703 C 0.80822 0.38111 0.76269
 N704 N 0.83033 0.38485 0.76965
 N705 N 0.84095 0.40343 0.76446
 C706 C 0.82979 0.41888 0.75210
 N707 N 0.80773 0.41515 0.74531
 N708 N 0.79720 0.39664 0.75042
 C709 C 0.84030 0.44007 0.74686
 C710 C 0.86333 0.44526 0.75119
 H711 H 0.80451 0.34913 0.77931
 H712 H 0.82893 0.45201 0.73912
 H713 H 0.76770 0.36655 0.74585
 H714 H 0.87496 0.43225 0.75653
 C715 C 0.27155 -0.13145 0.25437
 C716 C 0.29271 -0.12427 0.26352
 C717 C 0.30358 -0.10395 0.25621
 N718 N 0.32530 -0.09863 0.26329
 N719 N 0.33499 -0.07998 0.25709
 C720 C 0.32324 -0.06593 0.24364
 N721 N 0.30154 -0.07123 0.23663
 N722 N 0.29192 -0.08990 0.24274
 C723 C 0.33301 -0.04472 0.23733
 C724 C 0.35601 -0.03922 0.24135
 H725 H 0.30144 -0.13346 0.27633
 H726 H 0.32142 -0.03335 0.22905
 H727 H 0.26373 -0.12253 0.24088
 H728 H 0.36754 -0.05176 0.24792
 C729 C 0.22579 -0.14028 0.71299
 C730 C 0.21889 -0.13042 0.73184
 C731 C 0.20305 -0.11155 0.73168
 N732 N 0.19398 -0.10504 0.75011
 N733 N 0.17937 -0.08819 0.75026
 C734 C 0.17332 -0.07714 0.73201
 N735 N 0.18248 -0.08355 0.71358
 N736 N 0.19703 -0.10050 0.71340
 C737 C 0.15731 -0.05838 0.73212
 C738 C 0.14567 -0.05307 0.75013
 H739 H 0.22435 -0.13722 0.74725
 H740 H 0.15461 -0.04856 0.71784
 H741 H 0.21960 -0.13361 0.69769
 H742 H 0.14870 -0.06288 0.76439
 C743 C 0.72756 0.35688 0.24062
 C744 C 0.70826 0.36417 0.22860
 C745 C 0.69541 0.38382 0.23516
 N746 N 0.67826 0.39185 0.22186
 N747 N 0.66673 0.40984 0.22748
 C748 C 0.67188 0.42040 0.24665
 N749 N 0.68892 0.41229 0.26000
 N750 N 0.70049 0.39435 0.25436
 C751 C 0.65975 0.44055 0.25299
 C752 C 0.64385 0.45123 0.23919
 H753 H 0.70269 0.35569 0.21368
 H754 H 0.66410 0.44779 0.26879
 H755 H 0.73349 0.36587 0.25517
 H756 H 0.63945 0.44420 0.22332
 C757 C 0.70133 0.64612 0.27533
 C758 C 0.70687 0.62577 0.26608
 C759 C 0.69098 0.60676 0.26525
 N760 N 0.69827 0.58618 0.25976
 N761 N 0.68428 0.56872 0.25965
 C762 C 0.66246 0.57116 0.26501
 N763 N 0.65511 0.59178 0.27031
 N764 N 0.66913 0.60924 0.27051
 C765 C 0.64680 0.55196 0.26469
 C766 C 0.65462 0.53035 0.26142
 H767 H 0.72373 0.62320 0.26070
 H768 H 0.62905 0.55524 0.26662
 H769 H 0.68481 0.64819 0.28164
 H770 H 0.67274 0.52804 0.26032
 C771 C 0.21807 0.12788 0.76112
 C772 C 0.19698 0.12202 0.76809
 C773 C 0.18682 0.09998 0.76288
 N774 N 0.16563 0.09507 0.76862
 N775 N 0.15672 0.07483 0.76465
 C776 C 0.16874 0.05880 0.75487
 N777 N 0.18988 0.06375 0.74912
 N778 N 0.19873 0.08395 0.75300
 C779 C 0.15993 0.03602 0.75136
 C780 C 0.13751 0.03008 0.75455
 H781 H 0.18795 0.13354 0.77791
 H782 H 0.17174 0.02378 0.74593
 H783 H 0.22656 0.11659 0.75061
 H784 H 0.12557 0.04309 0.75806
 C785 C 0.20847 0.26720 0.12379
 C786 C 0.22856 0.27054 0.11389
 C787 C 0.22956 0.28596 0.09604
 N788 N 0.24996 0.29341 0.09033
 N789 N 0.25100 0.30792 0.07462
 C790 C 0.23168 0.31542 0.06398
 N791 N 0.21130 0.30776 0.06952
 N792 N 0.21025 0.29337 0.08532
 C793 C 0.23252 0.33137 0.04659
 C794 C 0.25241 0.34272 0.04272
 H795 H 0.24419 0.26293 0.12025
 H796 H 0.21709 0.33437 0.03658
 H797 H 0.19327 0.27613 0.11830
 H798 H 0.26784 0.33966 0.05272
 C799 C 0.73647 0.76741 0.63269
 C800 C 0.71998 0.78158 0.62358
 C801 C 0.72487 0.79617 0.60594
 N802 N 0.70844 0.80964 0.59715
 N803 N 0.71274 0.82283 0.58106
 C804 C 0.73364 0.82298 0.57323
 N805 N 0.75005 0.80953 0.58204
 N806 N 0.74575 0.79637 0.59810
 C807 C 0.73887 0.83730 0.55558
 C808 C 0.72303 0.85160 0.54563
 H809 H 0.70309 0.78194 0.62930
 H810 H 0.75594 0.83668 0.55021
 H811 H 0.75329 0.76708 0.62678
 H812 H 0.70591 0.85251 0.55082
 C813 C 0.75729 0.77997 0.37928
 C814 C 0.76852 0.79967 0.38578
 C815 C 0.76577 0.80924 0.40727
 N816 N 0.76972 0.83121 0.41168
 N817 N 0.76627 0.83987 0.43101
 C818 C 0.75899 0.82676 0.44660
 N819 N 0.75548 0.80478 0.44226
 N820 N 0.75873 0.79620 0.42297
 C821 C 0.75419 0.83562 0.46783
 C822 C 0.75241 0.85833 0.47269
 H823 H 0.77856 0.80847 0.37483
 H824 H 0.75065 0.82330 0.47945
 H825 H 0.74576 0.77243 0.38978
 H826 H 0.75629 0.87020 0.46069
 C827 C 0.24789 0.27005 -0.13209
 C828 C 0.25809 0.29024 -0.12546
 C829 C 0.25469 0.30027 -0.10427
 N830 N 0.26272 0.32103 -0.09905
 N831 N 0.26032 0.32991 -0.07962
 C832 C 0.24988 0.31828 -0.06471
 N833 N 0.24191 0.29753 -0.06993
 N834 N 0.24421 0.28871 -0.08936
 C835 C 0.24799 0.32718 -0.04286
 C836 C 0.25296 0.34932 -0.03699
 H837 H 0.26898 0.29877 -0.13586
 H838 H 0.24221 0.31572 -0.03131
 H839 H 0.23613 0.26218 -0.12204
 H840 H 0.25664 0.36084 -0.04937
 C841 C 0.72374 0.20980 -0.15446
 C842 C 0.73652 0.21420 -0.13519
 C843 C 0.73709 0.19842 -0.11742
 N844 N 0.74601 0.20475 -0.09760
 N845 N 0.74626 0.19070 -0.08137
 C846 C 0.73769 0.16974 -0.08439
 N847 N 0.72896 0.16336 -0.10425
 N848 N 0.72859 0.17744 -0.12044
 C849 C 0.73793 0.15395 -0.06668
 C850 C 0.74386 0.16042 -0.04546
 H851 H 0.74552 0.22989 -0.13271
 H852 H 0.73322 0.13678 -0.07038
 H853 H 0.71378 0.19461 -0.15633
 H854 H 0.74861 0.17759 -0.04184
 C855 C 0.24355 0.74007 0.36769
 C856 C 0.22980 0.72382 0.37583
 C857 C 0.23707 0.71054 0.39458
 N858 N 0.22281 0.69491 0.40148
 N859 N 0.22914 0.68245 0.41823
 C860 C 0.25000 0.68518 0.42871
 N861 N 0.26426 0.70085 0.42185
 N862 N 0.25792 0.71332 0.40509
 C863 C 0.25743 0.67129 0.44699
 C864 C 0.24370 0.65463 0.45450
 H865 H 0.21307 0.72040 0.36815
 H866 H 0.27439 0.67390 0.45455
 H867 H 0.26020 0.74367 0.37553
 H868 H 0.22682 0.65175 0.44687
 C869 C 0.29369 0.72694 0.62374
 C870 C 0.29522 0.70398 0.62040
 C871 C 0.29243 0.69422 0.59846
 N872 N 0.28971 0.67190 0.59521
 N873 N 0.28579 0.66330 0.57540
 C874 C 0.28449 0.67675 0.55814
 N875 N 0.28742 0.69898 0.56143
 N876 N 0.29131 0.70754 0.58115
 C877 C 0.27889 0.66822 0.53615
 C878 C 0.27619 0.64563 0.53058
 H879 H 0.29664 0.69304 0.63396
 H880 H 0.27682 0.68069 0.52400
 H881 H 0.29129 0.73762 0.61002
 H882 H 0.28030 0.63338 0.54270
 C883 C 0.75855 0.21986 0.13274
 C884 C 0.76947 0.20074 0.12579
 C885 C 0.76451 0.19163 0.10386
 N886 N 0.77224 0.17123 0.09811
 N887 N 0.76833 0.16338 0.07804
 C888 C 0.75669 0.17577 0.06300
 N889 N 0.74906 0.19613 0.06877
 N890 N 0.75281 0.20388 0.08880
 C891 C 0.75306 0.16835 0.04047
 C892 C 0.75543 0.14631 0.03334
 H893 H 0.78202 0.19256 0.13638
 H894 H 0.74706 0.18095 0.02939
 H895 H 0.74503 0.22705 0.12246
 H896 H 0.75886 0.13353 0.04508
 C897 C 0.49811 0.37496 0.52495
 C898 C 0.48544 0.37076 0.54240
 C899 C 0.48824 0.35071 0.55540
 N900 N 0.47428 0.34757 0.57135
 N901 N 0.47586 0.32929 0.58299
 C902 C 0.49151 0.31341 0.57919
 N903 N 0.50568 0.31664 0.56334
 N904 N 0.50407 0.33495 0.55163
 C905 C 0.49250 0.29268 0.59145
 C906 C 0.47563 0.28776 0.60523
 H907 H 0.47247 0.38241 0.54665
 H908 H 0.50578 0.28092 0.58842
 H909 H 0.51127 0.36346 0.52077
 H910 H 0.46227 0.29989 0.60696
 C911 C -0.02059 0.88052 0.02712
 C912 C -0.03474 0.87518 0.04316
 C913 C -0.02996 0.85603 0.05712
 N914 N -0.04515 0.84998 0.07124
 N915 N -0.04120 0.83245 0.08365
 C916 C -0.02188 0.82031 0.08246
 N917 N -0.00662 0.82644 0.06844
 N918 N -0.01060 0.84394 0.05600
 C919 C -0.01745 0.80063 0.09583
 C920 C -0.03373 0.79256 0.10886
 H921 H -0.04996 0.88482 0.04519
 H922 H -0.00137 0.79228 0.09469
 H923 H -0.00568 0.87047 0.02492
 H924 H -0.04977 0.80134 0.10902
 C925 C 0.01696 0.62927 0.02636
 C926 C 0.02946 0.64091 0.04275
 C927 C 0.01789 0.65667 0.05664
 N928 N 0.02960 0.67329 0.06767
 N929 N 0.01886 0.68767 0.07995
 C930 C -0.00393 0.68581 0.08172
 N931 N -0.01551 0.66905 0.07091
 N932 N -0.00485 0.65485 0.05852
 C933 C -0.01619 0.70080 0.09569
 C934 C -0.00762 0.72145 0.10319
 H935 H 0.04776 0.63904 0.04487
 H936 H -0.03297 0.69546 0.09934
 H937 H -0.00096 0.63295 0.02329
 H938 H 0.00807 0.72744 0.09731
 C939 C 0.54112 0.14395 0.51078
 C940 C 0.51972 0.15255 0.51423
 C941 C 0.51578 0.16914 0.53115
 N942 N 0.49416 0.17339 0.53604
 N943 N 0.49003 0.18796 0.55159
 C944 C 0.50736 0.19897 0.56278
 N945 N 0.52902 0.19495 0.55772
 N946 N 0.53318 0.18024 0.54222
 C947 C 0.50285 0.21466 0.58037
 C948 C 0.48196 0.21445 0.58959
 H949 H 0.50487 0.14609 0.50492
 H950 H 0.51665 0.22530 0.58674
 H951 H 0.55591 0.14957 0.52076
 H952 H 0.46945 0.20207 0.58376
 C953 C -0.02802 0.12600 0.48140
 C954 C -0.02197 0.14799 0.48645
 C955 C -0.01426 0.16252 0.46980
 N956 N -0.01618 0.18499 0.47155
 N957 N -0.00924 0.19801 0.45625
 C958 C 0.00009 0.18895 0.43884
 N959 N 0.00227 0.16654 0.43730
 N960 N -0.00488 0.15357 0.45241
 C961 C 0.00837 0.20268 0.42193
 C962 C 0.00032 0.22409 0.41762
 H963 H -0.02335 0.15466 0.50253
 H964 H 0.01972 0.19454 0.41147
 H965 H -0.02884 0.12026 0.46481
 H966 H -0.01302 0.23078 0.42687
 C967 C 0.46455 0.62350 0.97043
 C968 C 0.47301 0.64517 0.97240
 C969 C 0.47866 0.65766 0.95352
 N970 N 0.48059 0.68019 0.95462
 N971 N 0.48688 0.69145 0.93786
 C972 C 0.49168 0.68052 0.91950
 N973 N 0.48984 0.65802 0.91846
 N974 N 0.48329 0.64680 0.93509
 C975 C 0.50068 0.69230 0.90159
 C976 C 0.49657 0.71482 0.89782
 H977 H 0.47566 0.65311 0.98811
 H978 H 0.51021 0.68248 0.89068
 H979 H 0.45974 0.61642 0.95466
 H980 H 0.48410 0.72341 0.90682
 C981 C 0.51677 0.87005 0.98087
 C982 C 0.52805 0.86445 0.96267
 C983 C 0.52130 0.84583 0.94785
 N984 N 0.53434 0.84108 0.93140
 N985 N 0.52912 0.82409 0.91794
 C986 C 0.51060 0.81113 0.92031
 N987 N 0.49733 0.81600 0.93666
 N988 N 0.50259 0.83304 0.95022
 C989 C 0.50555 0.79166 0.90583
 C990 C 0.52193 0.78396 0.89243
 H991 H 0.54289 0.87390 0.95909
 H992 H 0.48969 0.78280 0.90687
 H993 H 0.50190 0.86065 0.98455
 H994 H 0.53801 0.79285 0.89305
 C995 C 0.01162 0.38341 0.49113
 C996 C 0.01850 0.38018 0.47044
 C997 C 0.01225 0.36042 0.45699
 N998 N 0.02227 0.35716 0.43836
 N999 N 0.01794 0.33886 0.42638
 C1000 C 0.00334 0.32310 0.43251
 N1001 N -0.00701 0.32650 0.45101
 N1002 N -0.00258 0.34481 0.46308
 C1003 C -0.00042 0.30224 0.41988
 C1004 C 0.01456 0.29595 0.40455
 H1005 H 0.03004 0.39195 0.46409
 H1006 H -0.01389 0.29124 0.42399
 H1007 H -0.00006 0.37173 0.49748
 H1008 H 0.02866 0.30703 0.40212
 C1009 C 0.39711 0.51723 0.48602
 C1010 C 0.38771 0.53380 0.47296
 C1011 C 0.36777 0.54680 0.47878
 N1012 N 0.35855 0.56200 0.46503
 N1013 N 0.34045 0.57377 0.46994
 C1014 C 0.33084 0.57084 0.48880
 N1015 N 0.34012 0.55568 0.50261
 N1016 N 0.35823 0.54387 0.49768
 C1017 C 0.31068 0.58379 0.49422
 C1018 C 0.30033 0.59850 0.47957
 H1019 H 0.39487 0.53720 0.45791
 H1020 H 0.30410 0.58144 0.50969
 H1021 H 0.38963 0.51375 0.50091
 H1022 H 0.30756 0.59993 0.46421
 C1023 C 0.88433 0.02385 -0.03423
 C1024 C 0.86770 0.02459 -0.01946
 C1025 C 0.84979 0.04175 -0.02088
 N1026 N 0.83432 0.04340 -0.00585
 N1027 N 0.81832 0.05912 -0.00710
 C1028 C 0.81725 0.07372 -0.02346
 N1029 N 0.83266 0.07199 -0.03845
 N1030 N 0.84860 0.05635 -0.03719
 C1031 C 0.80000 0.09136 -0.02543
 C1032 C 0.78366 0.09501 -0.01063
 H1033 H 0.86803 0.01280 -0.00660
 H1034 H 0.80067 0.10179 -0.03921
 H1035 H 0.88393 0.03602 -0.04678
 H1036 H 0.78354 0.08425 0.00303
 C1037 C 0.63138 0.00709 0.01927
 C1038 C 0.63311 0.02984 0.02395
 C1039 C 0.65319 0.04303 0.01939
 N1040 N 0.65104 0.06515 0.01584
 N1041 N 0.66911 0.07742 0.01200
 C1042 C 0.69007 0.06809 0.01188
 N1043 N 0.69228 0.04602 0.01573
 N1044 N 0.67415 0.03367 0.01928
 C1045 C 0.71014 0.08166 0.00802
 C1046 C 0.70823 0.10015 -0.00511
 H1047 H 0.61879 0.03852 0.03008
 H1048 H 0.72661 0.07594 0.01436
 H1049 H 0.64454 -0.00119 0.01092
 H1050 H 0.69187 0.10324 -0.01362
 C1051 C 0.13191 0.51556 0.52206
 C1052 C 0.14526 0.53099 0.53434
 C1053 C 0.16231 0.54469 0.52441
 N1054 N 0.17929 0.55520 0.53663
 N1055 N 0.19441 0.56791 0.52759
 C1056 C 0.19294 0.57066 0.50601
 N1057 N 0.17590 0.56027 0.49388
 N1058 N 0.16097 0.54744 0.50287
 C1059 C 0.20826 0.58575 0.49561
 C1060 C 0.22959 0.59261 0.50476
 H1061 H 0.14348 0.53275 0.55140
 H1062 H 0.20257 0.59083 0.47963
 H1063 H 0.13524 0.51263 0.50543
 H1064 H 0.23630 0.58492 0.51939
 C1065 C 0.13112 0.49402 -0.00435
 C1066 C 0.14112 0.47908 -0.01816
 C1067 C 0.15830 0.46283 -0.01053
 N1068 N 0.17054 0.45168 -0.02483
 N1069 N 0.18565 0.43636 -0.01827
 C1070 C 0.18893 0.43150 0.00283
 N1071 N 0.17658 0.44255 0.01713
 N1072 N 0.16160 0.45800 0.01059
 C1073 C 0.20499 0.41411 0.01023
 C1074 C 0.22159 0.40585 -0.00266
 H1075 H 0.13631 0.47930 -0.03520
 H1076 H 0.20397 0.40838 0.02640
 H1077 H 0.13716 0.49506 0.01242
 H1078 H 0.22341 0.41351 -0.01797
 C1079 C 0.64037 1.00869 0.45479
 C1080 C 0.63956 0.98612 0.44920
 C1081 C 0.65798 0.97080 0.45583
 N1082 N 0.65320 0.94890 0.45788
 N1083 N 0.66932 0.93488 0.46502
 C1084 C 0.69090 0.94218 0.47011
 N1085 N 0.69585 0.96401 0.46759
 N1086 N 0.67962 0.97812 0.46069
 C1087 C 0.70837 0.92696 0.47915
 C1088 C 0.70223 0.90950 0.49191
 H1089 H 0.62397 0.97893 0.44181
 H1090 H 0.72604 0.93105 0.47756
 H1091 H 0.65523 1.01553 0.46387
 H1092 H 0.68453 0.90812 0.49541
 C1093 C 0.87463 0.98693 0.51584
 C1094 C 0.86427 0.97330 0.53002
 C1095 C 0.84359 0.96032 0.52381
 N1096 N 0.83415 0.94791 0.53869
 N1097 N 0.81536 0.93608 0.53354
 C1098 C 0.80524 0.93622 0.51332
 N1099 N 0.81468 0.94864 0.49840
 N1100 N 0.83352 0.96051 0.50355
 C1101 C 0.78461 0.92287 0.50755
 C1102 C 0.77499 0.90990 0.52280
 H1103 H 0.87125 0.97226 0.54645
 H1104 H 0.77755 0.92310 0.49112
 H1105 H 0.86759 0.98802 0.49941
 H1106 H 0.78280 0.91042 0.53904
 C1107 C 0.38965 0.47919 0.03582
 C1108 C 0.37451 0.47481 0.01805
 C1109 C 0.35952 0.45512 0.01711
 N1110 N 0.34263 0.45271 0.00125
 N1111 N 0.32845 0.43534 0.00085
 C1112 C 0.33076 0.41972 0.01625
 N1113 N 0.34781 0.42201 0.03191
 N1114 N 0.36191 0.43937 0.03234
 C1115 C 0.31454 0.40120 0.01709
 C1116 C 0.29527 0.39890 0.00281
 H1117 H 0.37301 0.48633 0.00496
 H1118 H 0.31760 0.38987 0.03015
 H1119 H 0.39051 0.46788 0.04911
 H1120 H 0.29338 0.40988 -0.01071
 C1121 C 0.53422 0.46482 0.38666
 C1122 C 0.53302 0.48139 0.37133
 C1123 C 0.54744 0.48018 0.35295
 N1124 N 0.54902 0.49767 0.33969
 N1125 N 0.56241 0.49657 0.32336
 C1126 C 0.57465 0.47789 0.31970
 N1127 N 0.57290 0.46043 0.33285
 N1128 N 0.55963 0.46156 0.34914
 C1129 C 0.58958 0.47582 0.30187
 C1130 C 0.59446 0.49328 0.28845
 H1131 H 0.52201 0.49560 0.37313
 H1132 H 0.59729 0.45971 0.29988
 H1133 H 0.54610 0.45127 0.38505
 H1134 H 0.58721 0.50949 0.29146
 C1135 C 0.02954 -0.03560 0.88931
 C1136 C 0.02876 -0.01929 0.87372
 C1137 C 0.04508 -0.01949 0.85696
 N1138 N 0.04298 -0.00503 0.84052
 N1139 N 0.05754 -0.00564 0.82513
 C1140 C 0.07476 -0.02068 0.82576
 N1141 N 0.07691 -0.03493 0.84227
 N1142 N 0.06239 -0.03436 0.85755
 C1143 C 0.09064 -0.02265 0.80880
 C1144 C 0.08980 -0.00949 0.79059
 H1145 H 0.01585 -0.00650 0.87355
 H1146 H 0.10337 -0.03542 0.81108
 H1147 H 0.04219 -0.04862 0.88893
 H1148 H 0.07799 0.00429 0.78949
 C1149 C 0.00549 0.04708 0.63399
 C1150 C 0.00795 0.02667 0.64408
 C1151 C 0.02366 0.02330 0.66310
 N1152 N 0.02921 0.00229 0.66896
 N1153 N 0.04377 -0.00125 0.68583
 C1154 C 0.05321 0.01611 0.69762
 N1155 N 0.04740 0.03715 0.69197
 N1156 N 0.03295 0.04070 0.67496
 C1157 C 0.06978 0.01233 0.71597
 C1158 C 0.08123 -0.00792 0.71816
 H1159 H -0.00087 0.01215 0.63707
 H1160 H 0.07408 0.02628 0.72670
 H1161 H 0.01546 0.06130 0.64013
 H1162 H 0.07785 -0.02064 0.70576
 C1163 C 0.52601 0.56245 0.12489
 C1164 C 0.52220 0.55356 0.14470
 C1165 C 0.54077 0.54516 0.15923
 N1166 N 0.53746 0.54212 0.18022
 N1167 N 0.55340 0.53251 0.19311
 C1168 C 0.57307 0.52527 0.18535
 N1169 N 0.57635 0.52828 0.16435
 N1170 N 0.56055 0.53815 0.15155
 C1171 C 0.58990 0.51291 0.19883
 C1172 C 0.59238 0.51592 0.22108
 H1173 H 0.50492 0.55159 0.14922
 H1174 H 0.60123 0.50198 0.19075
 H1175 H 0.54313 0.56671 0.12114
 H1176 H 0.58321 0.52938 0.22833
 C1177 C 0.49397 -0.02260 0.11911
 C1178 C 0.47844 -0.03599 0.12870
 C1179 C 0.46447 -0.02684 0.14538
 N1180 N 0.45297 -0.04056 0.15781
 N1181 N 0.43977 -0.03221 0.17245
 C1182 C 0.43750 -0.00982 0.17503
 N1183 N 0.44892 0.00383 0.16254
 N1184 N 0.46222 -0.00449 0.14808
 C1185 C 0.42187 -0.00006 0.18986
 C1186 C 0.41346 -0.01159 0.20679
 H1187 H 0.47650 -0.05337 0.12397
 H1188 H 0.41755 0.01723 0.18749
 H1189 H 0.49706 -0.00575 0.12515
 H1190 H 0.42045 -0.02778 0.21070
 C1191 C 1.00151 0.48375 0.63185
 C1192 C 0.98922 0.46849 0.64300
 C1193 C 0.97368 0.47547 0.65928
 N1194 N 0.96461 0.46007 0.67179
 N1195 N 0.94991 0.46605 0.68607
 C1196 C 0.94362 0.48767 0.68825
 N1197 N 0.95262 0.50304 0.67568
 N1198 N 0.96742 0.49708 0.66151
 C1199 C 0.92671 0.49458 0.70325
 C1200 C 0.91960 0.48077 0.71925
 H1201 H 0.99089 0.45084 0.63965
 H1202 H 0.92029 0.51135 0.70176
 H1203 H 1.00102 0.50128 0.63618
 H1204 H 0.92792 0.46486 0.72155
 C1205 C 0.98135 0.52521 0.88986
 C1206 C 0.98362 0.50806 0.87480
 C1207 C 0.96517 0.50375 0.85799
 N1208 N 0.96842 0.49040 0.84066
 N1209 N 0.95197 0.48776 0.82494
 C1210 C 0.93168 0.49829 0.82613
 N1211 N 0.92839 0.51127 0.84358
 N1212 N 0.94476 0.51392 0.85919
 C1213 C 0.91389 0.49775 0.80847
 C1214 C 0.91492 0.48513 0.78956
 H1215 H 0.99915 0.49849 0.87483
 H1216 H 0.89946 0.50843 0.81061
 H1217 H 0.96601 0.53514 0.88897
 H1218 H 0.92769 0.47228 0.78872
 C1219 C 0.47278 0.04042 0.37912
 C1220 C 0.47364 0.02390 0.36319
 C1221 C 0.45596 0.02214 0.34532
 N1222 N 0.45735 0.00629 0.32966
 N1223 N 0.44190 0.00528 0.31296
 C1224 C 0.42454 0.02013 0.31134
 N1225 N 0.42312 0.03586 0.32705
 N1226 N 0.43849 0.03684 0.34372
 C1227 C 0.40794 0.02033 0.29263
 C1228 C 0.40729 0.00423 0.27612
 H1229 H 0.48792 0.01260 0.36331
 H1230 H 0.39591 0.03387 0.29218
 H1231 H 0.45826 0.05145 0.37900
 H1232 H 0.41827 -0.01014 0.27790
   
