data_POSCAR
  _audit_creation_date              2014-09-24
  _audit_creation_method            'ToBaCCo'
  _symmetry_space_group_name_H-M    'P1'
  _symmetry_Int_Tables_number       1
  _symmetry_cell_setting            triclinic
  loop_
  _symmetry_equiv_pos_as_xyz
 x,y,z
_cell_length_a 44.1182
_cell_length_b 47.6696
_cell_length_c 41.8005
_cell_angle_alpha 89.995800
_cell_angle_beta 90.267800
_cell_angle_gamma 89.977200
loop_
  _atom_site_label
  _atom_site_type_symbol
  _atom_site_fract_x
  _atom_site_fract_y
  _atom_site_fract_z
Zr1 Zr 0.23812 0.24376 0.29659
 O2 O 0.25952 0.26172 0.33714
 O3 O 0.20439 0.21859 0.31778
 O4 O 0.20837 0.27048 0.32194
 O5 O 0.29306 0.19296 0.28577
 O6 O 0.18967 0.29983 0.28352
 O7 O 0.26322 0.21383 0.32331
 O8 O 0.17751 0.20275 0.27469
 O9 O 0.20111 0.24934 0.26570
 O10 O 0.23773 0.20903 0.26608
 O11 O 0.24597 0.28215 0.27291
 O12 O 0.28086 0.24389 0.27376
 Zr13 Zr 0.24981 0.25204 0.18578
 Zr14 Zr 0.20982 0.28644 0.24069
 Zr15 Zr 0.27893 0.21007 0.24179
 Zr16 Zr 0.20191 0.21531 0.23433
 O17 O 0.32682 0.20964 0.24510
 O18 O 0.15558 0.22560 0.22719
 O19 O 0.24284 0.21337 0.20908
 O20 O 0.20763 0.25256 0.20886
 O21 O 0.25068 0.28729 0.21568
 O22 O 0.28701 0.24699 0.21643
 C23 C 0.18199 0.20532 0.30492
 C24 C 0.28428 0.19658 0.31482
 C25 C 0.19182 0.29130 0.31267
 O26 O 0.16232 0.28721 0.23357
 O27 O 0.20078 0.30734 0.19737
 O28 O 0.22626 0.28265 0.15924
 C29 C 0.20856 0.30257 0.16821
 O30 O 0.30546 0.29188 0.29253
 Zr31 Zr 0.28668 0.28110 0.24726
 O32 O 0.28119 0.27840 0.16358
 O33 O 0.21746 0.32987 0.24739
 O34 O 0.28311 0.32522 0.25251
 O35 O 0.33373 0.27193 0.24796
 O36 O 0.30500 0.29979 0.20551
 C37 C 0.29997 0.29628 0.17531
 O38 O 0.22689 0.23466 0.14577
 O39 O 0.27136 0.16629 0.23926
 O40 O 0.27692 0.22370 0.15978
 O41 O 0.29613 0.19475 0.19840
 O42 O 0.20275 0.17082 0.23502
 O43 O 0.18919 0.20006 0.18841
 C44 C 0.29309 0.20273 0.16913
 H45 H 0.23529 0.19111 0.27777
 H46 H 0.19079 0.25466 0.19331
 H47 H 0.30650 0.24611 0.20482
 H48 H 0.24669 0.29789 0.28834
 H49 H 0.14366 0.20811 0.22961
 H50 H 0.15600 0.30712 0.23502
 H51 H 0.19761 0.33935 0.24472
 H52 H 0.30352 0.33327 0.24887
 H53 H 0.18151 0.16431 0.23699
 H54 H 0.29147 0.15717 0.24124
 H55 H 0.33328 0.18978 0.24344
 H56 H 0.34465 0.28979 0.24427
 H57 H 0.17114 0.18786 0.19038
 H58 H 0.23669 0.24212 0.12621
 H59 H 0.24939 0.25397 0.35636
 H60 H 0.32129 0.30638 0.28967
 Zr61 Zr 0.75314 0.75534 0.30712
 O62 O 0.72922 0.73496 0.34426
 O63 O 0.78343 0.78079 0.33303
 O64 O 0.78201 0.72846 0.33380
 O65 O 0.69814 0.80580 0.29368
 O66 O 0.80422 0.70123 0.29559
 O67 O 0.72542 0.78375 0.33280
 O68 O 0.81245 0.80026 0.29388
 O69 O 0.79263 0.75204 0.27974
 O70 O 0.75465 0.79125 0.27848
 O71 O 0.74854 0.71783 0.28083
 O72 O 0.71225 0.75522 0.28045
 Zr73 Zr 0.75007 0.75127 0.19525
 Zr74 Zr 0.78706 0.71589 0.25184
 Zr75 Zr 0.71553 0.79027 0.25035
 Zr76 Zr 0.79304 0.78731 0.25024
 O77 O 0.66757 0.78928 0.24959
 O78 O 0.83998 0.77783 0.24868
 O79 O 0.75410 0.78910 0.22114
 O80 O 0.79041 0.75110 0.22219
 O81 O 0.74816 0.71491 0.22325
 O82 O 0.71060 0.75419 0.22261
 C83 C 0.80548 0.79625 0.32339
 C84 C 0.70499 0.80131 0.32323
 C85 C 0.79973 0.70841 0.32485
 O86 O 0.83493 0.71657 0.24923
 O87 O 0.80023 0.69700 0.20856
 O88 O 0.77652 0.72234 0.16952
 C89 C 0.79430 0.70259 0.17903
 O90 O 0.68845 0.70575 0.29467
 Zr91 Zr 0.70979 0.71898 0.25176
 O92 O 0.72137 0.72472 0.16896
 O93 O 0.78040 0.67204 0.25544
 O94 O 0.71436 0.67477 0.25473
 O95 O 0.66256 0.72698 0.24896
 O96 O 0.69475 0.70194 0.20775
 C97 C 0.70189 0.70644 0.17830
 O98 O 0.77522 0.77095 0.15848
 O99 O 0.72179 0.83428 0.25015
 O100 O 0.72385 0.77972 0.16819
 O101 O 0.70094 0.80666 0.20623
 O102 O 0.79053 0.83173 0.25161
 O103 O 0.80986 0.80436 0.20683
 C104 C 0.70629 0.79983 0.17700
 H105 H 0.75553 0.80884 0.29104
 H106 H 0.80843 0.75007 0.20820
 H107 H 0.69197 0.75503 0.20934
 H108 H 0.74723 0.70143 0.29529
 H109 H 0.85119 0.79533 0.25362
 H110 H 0.84179 0.69680 0.25044
 H111 H 0.80069 0.66318 0.25431
 H112 H 0.69449 0.66644 0.24898
 H113 H 0.81118 0.83885 0.25631
 H114 H 0.70133 0.84282 0.25076
 H115 H 0.66057 0.80900 0.24817
 H116 H 0.65245 0.70901 0.24361
 H117 H 0.82792 0.81603 0.21140
 H118 H 0.76726 0.76396 0.13771
 H119 H 0.73746 0.74216 0.36480
 H120 H 0.67337 0.69098 0.28970
 Zr121 Zr 0.76400 0.23894 -0.30092
 O122 O 0.74268 0.25697 -0.34150
 O123 O 0.79800 0.21416 -0.32246
 O124 O 0.79338 0.26628 -0.32613
 O125 O 0.70839 0.18872 -0.28977
 O126 O 0.81252 0.29492 -0.28727
 O127 O 0.73800 0.20945 -0.32760
 O128 O 0.82466 0.19781 -0.27949
 O129 O 0.80109 0.24417 -0.27002
 O130 O 0.76434 0.20401 -0.27066
 O131 O 0.75641 0.27719 -0.27678
 O132 O 0.72143 0.23914 -0.27772
 Zr133 Zr 0.75274 0.24674 -0.18974
 Zr134 Zr 0.79266 0.28112 -0.24459
 Zr135 Zr 0.72333 0.20517 -0.24591
 Zr136 Zr 0.80025 0.20994 -0.23894
 O137 O 0.67539 0.20479 -0.24864
 O138 O 0.84666 0.21982 -0.23165
 O139 O 0.75950 0.20815 -0.21335
 O140 O 0.79481 0.24705 -0.21307
 O141 O 0.75191 0.28211 -0.21945
 O142 O 0.71545 0.24199 -0.22032
 C143 C 0.82052 0.20095 -0.30971
 C144 C 0.71664 0.19255 -0.31892
 C145 C 0.80997 0.28700 -0.31657
 O146 O 0.84022 0.28147 -0.23789
 O147 O 0.80220 0.30173 -0.20121
 O148 O 0.77665 0.27711 -0.16311
 C149 C 0.79449 0.29694 -0.17204
 O150 O 0.69696 0.28732 -0.29615
 Zr151 Zr 0.71581 0.27620 -0.25101
 O152 O 0.72149 0.27324 -0.16736
 O153 O 0.78517 0.32465 -0.25072
 O154 O 0.71951 0.32035 -0.25596
 O155 O 0.66876 0.26711 -0.25168
 O156 O 0.69764 0.29475 -0.20920
 C157 C 0.70269 0.29117 -0.17903
 O158 O 0.77563 0.22906 -0.14987
 O159 O 0.73092 0.16137 -0.24400
 O160 O 0.72547 0.21846 -0.16384
 O161 O 0.70636 0.18959 -0.20255
 O162 O 0.79904 0.16547 -0.24024
 O163 O 0.81303 0.19418 -0.19325
 C164 C 0.70931 0.19751 -0.17326
 H165 H 0.76662 0.18620 -0.28260
 H166 H 0.81173 0.24898 -0.19758
 H167 H 0.69599 0.24112 -0.20866
 H168 H 0.75563 0.29307 -0.29202
 H169 H 0.85844 0.20226 -0.23421
 H170 H 0.84669 0.30134 -0.23912
 H171 H 0.80507 0.33404 -0.24808
 H172 H 0.69914 0.32845 -0.25228
 H173 H 0.82021 0.15882 -0.24253
 H174 H 0.71079 0.15229 -0.24586
 H175 H 0.66892 0.18493 -0.24706
 H176 H 0.65786 0.28497 -0.24783
 H177 H 0.83078 0.18162 -0.19548
 H178 H 0.76591 0.23651 -0.13026
 H179 H 0.75282 0.24920 -0.36070
 H180 H 0.68114 0.30181 -0.29313
 Zr181 Zr 0.24172 0.75753 -0.30182
 O182 O 0.26507 0.73914 -0.34067
 O183 O 0.21009 0.78326 -0.32559
 O184 O 0.21306 0.73077 -0.32898
 O185 O 0.29621 0.80798 -0.28742
 O186 O 0.19230 0.70197 -0.29140
 O187 O 0.26844 0.78722 -0.32682
 O188 O 0.18139 0.80071 -0.28520
 O189 O 0.20293 0.75249 -0.27372
 O190 O 0.23997 0.79244 -0.27165
 O191 O 0.24790 0.71930 -0.27729
 O192 O 0.28312 0.75730 -0.27605
 Zr193 Zr 0.24730 0.74975 -0.19011
 Zr194 Zr 0.21012 0.71561 -0.24755
 Zr195 Zr 0.27965 0.79122 -0.24439
 Zr196 Zr 0.20231 0.78674 -0.24270
 O197 O 0.32763 0.79135 -0.24445
 O198 O 0.15566 0.77626 -0.24031
 O199 O 0.24177 0.78830 -0.21435
 O200 O 0.20646 0.74969 -0.21628
 O201 O 0.24954 0.71440 -0.21976
 O202 O 0.28605 0.75440 -0.21829
 C203 C 0.18774 0.79804 -0.31511
 C204 C 0.28904 0.80461 -0.31713
 C205 C 0.19605 0.71005 -0.32046
 O206 O 0.16234 0.71511 -0.24359
 O207 O 0.19872 0.69484 -0.20496
 O208 O 0.22145 0.71969 -0.16513
 C209 C 0.20420 0.69965 -0.17513
 O210 O 0.30789 0.70869 -0.29286
 Zr211 Zr 0.28716 0.72023 -0.24899
 O212 O 0.27733 0.72290 -0.16579
 O213 O 0.21768 0.67207 -0.25345
 O214 O 0.28346 0.67606 -0.25360
 O215 O 0.33419 0.72932 -0.24715
 O216 O 0.30380 0.70217 -0.20616
 C217 C 0.29725 0.70552 -0.17636
 O218 O 0.22280 0.76761 -0.15168
 O219 O 0.27229 0.83505 -0.24247
 O220 O 0.27347 0.77800 -0.16254
 O221 O 0.29480 0.80658 -0.20006
 O222 O 0.20387 0.83121 -0.24227
 O223 O 0.18606 0.80198 -0.19817
 C224 C 0.29037 0.79873 -0.17100
 H225 H 0.23848 0.81039 -0.28347
 H226 H 0.18874 0.74780 -0.20201
 H227 H 0.30495 0.75523 -0.20545
 H228 H 0.24931 0.70342 -0.29247
 H229 H 0.14391 0.79368 -0.24410
 H230 H 0.15596 0.69525 -0.24541
 H231 H 0.19767 0.66272 -0.25203
 H232 H 0.30362 0.66791 -0.24868
 H233 H 0.18298 0.83812 -0.24616
 H234 H 0.29252 0.84403 -0.24342
 H235 H 0.33413 0.81118 -0.24254
 H236 H 0.34496 0.71147 -0.24275
 H237 H 0.16778 0.81362 -0.20183
 H238 H 0.23149 0.76001 -0.13152
 H239 H 0.25610 0.74695 -0.36058
 H240 H 0.32340 0.69407 -0.28879
 Zr241 Zr 1.24777 1.25066 0.81652
 O242 O 1.22773 1.23389 0.85833
 O243 O 1.28060 1.27704 0.83611
 O244 O 1.27785 1.22511 0.84274
 O245 O 1.19447 1.30252 0.80406
 O246 O 1.29687 1.19549 0.80494
 O247 O 1.22294 1.28070 0.84243
 O248 O 1.30514 1.29446 0.79256
 O249 O 1.28410 1.24402 0.78531
 O250 O 1.24754 1.28428 0.78432
 O251 O 1.23973 1.21138 0.79552
 O252 O 1.20446 1.25060 0.79520
 Zr253 Zr 1.23142 1.23701 0.70659
 Zr254 Zr 1.27445 1.20609 0.76211
 Zr255 Zr 1.20595 1.28274 0.76087
 Zr256 Zr 1.28236 1.27671 0.75232
 O257 O 1.15820 1.28419 0.76534
 O258 O 1.32850 1.26480 0.74841
 O259 O 1.24064 1.27677 0.72741
 O260 O 1.27466 1.23859 0.72850
 O261 O 1.23216 1.20349 0.73901
 O262 O 1.19632 1.24462 0.73893
 C263 C 1.30087 1.29254 0.82308
 C264 C 1.20324 1.29894 0.83320
 C265 C 1.29504 1.20480 0.83378
 O266 O 1.32174 1.20494 0.75381
 O267 O 1.28451 1.18433 0.71981
 O268 O 1.25443 1.20437 0.68164
 C269 C 1.27507 1.18676 0.69078
 O270 O 1.18355 1.20266 0.81937
 Zr271 Zr 1.19796 1.21209 0.77211
 O272 O 1.19535 1.21179 0.68881
 O273 O 1.26695 1.16295 0.77088
 O274 O 1.20135 1.16789 0.77676
 O275 O 1.15138 1.22187 0.77768
 O276 O 1.17388 1.19450 0.73418
 C277 C 1.17502 1.19736 0.70374
 O278 O 1.25181 1.25056 0.66349
 O279 O 1.21415 1.32622 0.75534
 O280 O 1.20397 1.26526 0.68001
 O281 O 1.18849 1.29727 0.71706
 O282 O 1.27984 1.32087 0.74680
 O283 O 1.29758 1.28897 0.70621
 C284 C 1.18980 1.28783 0.68825
 H285 H 1.25007 1.30278 0.79474
 H286 H 1.29091 1.23596 0.71252
 H287 H 1.17613 1.24595 0.72862
 H288 H 1.23977 1.19617 0.81166
 H289 H 1.34090 1.28194 0.75135
 H290 H 1.32850 1.18536 0.75746
 H291 H 1.28691 1.15356 0.76915
 H292 H 1.18053 1.16014 0.77591
 H293 H 1.30052 1.32849 0.75008
 H294 H 1.19440 1.33586 0.75785
 H295 H 1.15217 1.30409 0.76277
 H296 H 1.13998 1.20397 0.77818
 H297 H 1.31612 1.30054 0.70845
 H298 H 1.24022 1.24202 0.64555
 H299 H 1.23807 1.24248 0.87706
 H300 H 1.16904 1.18682 0.81879
 Zr301 Zr 0.75269 0.75309 0.80850
 O302 O 0.77484 0.77199 0.84809
 O303 O 0.72159 0.72682 0.83131
 O304 O 0.72369 0.77926 0.83492
 O305 O 0.80594 0.70134 0.79624
 O306 O 0.70214 0.80719 0.79679
 O307 O 0.77928 0.72458 0.83470
 O308 O 0.69491 0.70769 0.78990
 O309 O 0.71453 0.75796 0.77903
 O310 O 0.75170 0.71819 0.77816
 O311 O 0.75906 0.79150 0.78494
 O312 O 0.79477 0.75285 0.78488
 Zr313 Zr 0.76234 0.76201 0.69722
 Zr314 Zr 0.72229 0.79499 0.75342
 Zr315 Zr 0.79194 0.71922 0.75260
 Zr316 Zr 0.71499 0.72398 0.74771
 O317 O 0.83987 0.71875 0.75483
 O318 O 0.66848 0.73505 0.74569
 O319 O 0.75526 0.72315 0.72076
 O320 O 0.72051 0.76115 0.72157
 O321 O 0.76304 0.79690 0.72775
 O322 O 0.79954 0.75638 0.72782
 C323 C 0.70091 0.71060 0.82001
 C324 C 0.79861 0.70610 0.82554
 C325 C 0.70573 0.79902 0.82592
 O326 O 0.67462 0.79527 0.74745
 O327 O 0.71001 0.81510 0.71069
 O328 O 0.73758 0.79341 0.67185
 C329 C 0.71772 0.81156 0.68135
 O330 O 0.81672 0.80227 0.80464
 Zr331 Zr 0.79940 0.79031 0.75910
 O332 O 0.79571 0.78760 0.67566
 O333 O 0.72955 0.83851 0.75969
 O334 O 0.79546 0.83460 0.76131
 O335 O 0.84639 0.78125 0.76249
 O336 O 0.82078 0.80632 0.71850
 C337 C 0.81680 0.80274 0.68837
 O338 O 0.73946 0.74584 0.65658
 O339 O 0.78432 0.67544 0.74978
 O340 O 0.78933 0.73323 0.67085
 O341 O 0.80740 0.70315 0.70890
 O342 O 0.71767 0.67964 0.74454
 O343 O 0.69764 0.70971 0.70305
 C344 C 0.80454 0.71133 0.67971
 H345 H 0.75008 0.70010 0.78963
 H346 H 0.70331 0.76300 0.70642
 H347 H 0.81908 0.75497 0.71638
 H348 H 0.75972 0.80735 0.80022
 H349 H 0.65659 0.71784 0.75004
 H350 H 0.66778 0.81492 0.75034
 H351 H 0.70939 0.84762 0.75841
 H352 H 0.81601 0.84257 0.75846
 H353 H 0.69720 0.67206 0.74899
 H354 H 0.80437 0.66621 0.75186
 H355 H 0.84618 0.69886 0.75312
 H356 H 0.85756 0.79920 0.76046
 H357 H 0.67931 0.69818 0.70673
 H358 H 0.74962 0.75368 0.63742
 H359 H 0.76577 0.76414 0.86786
 H360 H 0.83108 0.81806 0.80205
 Zr361 Zr 1.25258 0.74670 0.18842
 O362 O 1.23027 0.76530 0.14872
 O363 O 1.28463 0.72151 0.16568
 O364 O 1.28107 0.77384 0.16257
 O365 O 1.20098 0.69333 0.19978
 O366 O 1.30129 0.80207 0.20121
 O367 O 1.22688 0.71778 0.16172
 O368 O 1.31180 0.70292 0.20708
 O369 O 1.29028 0.75248 0.21831
 O370 O 1.25452 0.71159 0.21845
 O371 O 1.24475 0.78477 0.21219
 O372 O 1.21036 0.74498 0.21167
 Zr373 Zr 1.24170 0.75455 0.29944
 Zr374 Zr 1.28107 0.78910 0.24419
 Zr375 Zr 1.21408 0.71119 0.24371
 Zr376 Zr 1.29079 0.71825 0.24927
 O377 O 1.16622 0.70907 0.24084
 O378 O 1.33687 0.73067 0.25183
 O379 O 1.25036 0.71598 0.27589
 O380 O 1.28379 0.75509 0.27568
 O381 O 1.24002 0.78964 0.26932
 O382 O 1.20502 0.74804 0.26844
 C383 C 1.30583 0.70587 0.17696
 C384 C 1.20807 0.69872 0.17056
 C385 C 1.29832 0.79401 0.17196
 O386 O 1.32864 0.79075 0.25084
 O387 O 1.29197 0.80933 0.28734
 O388 O 1.26437 0.78673 0.32545
 C389 C 1.28367 0.80553 0.31649
 O390 O 1.18708 0.79385 0.19179
 Zr391 Zr 1.20423 0.78219 0.23751
 O392 O 1.20703 0.77853 0.32092
 O393 O 1.27247 0.83243 0.23806
 O394 O 1.20669 0.82659 0.23595
 O395 O 1.15756 0.77209 0.23335
 O396 O 1.18180 0.79701 0.27805
 C397 C 1.18544 0.79302 0.30818
 O398 O 1.26514 0.73862 0.33987
 O399 O 1.22346 0.66772 0.24650
 O400 O 1.21520 0.72543 0.32544
 O401 O 1.19829 0.69486 0.28735
 O402 O 1.28978 0.67383 0.25194
 O403 O 1.30823 0.70418 0.29398
 C404 C 1.20042 0.70337 0.31652
 H405 H 1.25685 0.69365 0.20679
 H406 H 1.30071 0.75738 0.29109
 H407 H 1.18537 0.74597 0.27952
 H408 H 1.24371 0.80070 0.19702
 H409 H 1.34939 0.71385 0.24745
 H410 H 1.33478 0.81063 0.24831
 H411 H 1.29230 0.84209 0.23978
 H412 H 1.18583 0.83391 0.23866
 H413 H 1.31058 0.66695 0.24767
 H414 H 1.20380 0.65785 0.24423
 H415 H 1.16069 0.68897 0.24241
 H416 H 1.14589 0.78980 0.23512
 H417 H 1.32701 0.69326 0.29040
 H418 H 1.25470 0.74592 0.35914
 H419 H 1.23981 0.75782 0.12901
 H420 H 1.17262 0.80958 0.19419
 Zr421 Zr 0.75348 1.24784 0.19062
 O422 O 0.77684 1.22784 0.15277
 O423 O 0.72405 1.27448 0.16549
 O424 O 0.72489 1.22165 0.16330
 O425 O 0.80715 1.29900 0.20479
 O426 O 0.70120 1.19496 0.20097
 O427 O 0.78160 1.27566 0.16535
 O428 O 0.69568 1.29426 0.20501
 O429 O 0.71408 1.24410 0.21810
 O430 O 0.75196 1.28324 0.22017
 O431 O 0.75811 1.20978 0.21552
 O432 O 0.79458 1.24772 0.21660
 Zr433 Zr 0.75836 1.24095 0.30236
 Zr434 Zr 0.72000 1.20744 0.24504
 Zr435 Zr 0.79114 1.28200 0.24791
 Zr436 Zr 0.71389 1.27864 0.24861
 O437 O 0.83911 1.28153 0.24825
 O438 O 0.66715 1.26834 0.24848
 O439 O 0.75307 1.27945 0.27766
 O440 O 0.71753 1.24189 0.27590
 O441 O 0.75962 1.20544 0.27288
 O442 O 0.79699 1.24519 0.27397
 C443 C 0.70302 1.29098 0.17536
 C444 C 0.80080 1.29407 0.17522
 C445 C 0.70607 1.20246 0.17186
 O446 O 0.67217 1.20797 0.24874
 O447 O 0.70611 1.18810 0.28772
 O448 O 0.73282 1.21019 0.32719
 C449 C 0.71327 1.19194 0.31728
 O450 O 0.81670 1.19794 0.19939
 Zr451 Zr 0.79742 1.21067 0.24358
 O452 O 0.78985 1.21515 0.32653
 O453 O 0.72661 1.16372 0.23987
 O454 O 0.79280 1.16643 0.24130
 O455 O 0.84468 1.21882 0.24354
 O456 O 0.81583 1.19425 0.28598
 C457 C 0.81051 1.19855 0.31578
 O458 O 0.73382 1.25855 0.34087
 O459 O 0.78443 1.32596 0.24937
 O460 O 0.78502 1.26925 0.32971
 O461 O 0.80510 1.29849 0.29215
 O462 O 0.71704 1.32301 0.25059
 O463 O 0.69531 1.29409 0.29201
 C464 C 0.80099 1.29071 0.32129
 H465 H 0.75113 1.30116 0.20826
 H466 H 0.69977 1.24055 0.29021
 H467 H 0.81601 1.24629 0.28655
 H468 H 0.75906 1.19366 0.20062
 H469 H 0.65576 1.28567 0.24319
 H470 H 0.66513 1.18836 0.24609
 H471 H 0.70626 1.15496 0.24049
 H472 H 0.81302 1.15815 0.24560
 H473 H 0.69680 1.33070 0.24508
 H474 H 0.80475 1.33477 0.24844
 H475 H 0.84578 1.30131 0.25001
 H476 H 0.85528 1.20071 0.24688
 H477 H 0.67723 1.30569 0.28717
 H478 H 0.74276 1.25097 0.36092
 H479 H 0.76873 1.23552 0.13238
 H480 H 0.83110 1.18234 0.20320
 N481 N 0.55430 1.02933 0.03426
 N482 N 0.57332 1.05039 0.03924
 N483 N 0.53268 0.97073 0.05691
 N484 N 0.53641 0.95040 0.07781
 N485 N 0.55403 0.97011 0.03518
 N486 N 0.57304 0.94920 0.04085
 N487 N 0.53287 1.02941 0.05592
 N488 N 0.53655 1.05029 0.07606
 C489 C 0.56173 1.06333 0.06546
 C490 C 0.56154 0.93704 0.06754
 N491 N 0.44618 0.97042 0.03599
 N492 N 0.42720 0.94959 0.04201
 N493 N 0.46814 1.02965 0.05641
 N494 N 0.46446 1.05020 0.07699
 N495 N 0.44634 1.02962 0.03497
 N496 N 0.42710 1.05035 0.04047
 N497 N 0.46798 0.97099 0.05743
 N498 N 0.46455 0.95082 0.07852
 Mn499 Mn 0.50043 1.00020 0.05690
 C500 C 0.43917 0.93752 0.06867
 C501 C 0.43892 1.06308 0.06676
 N502 N 0.55324 0.96916 -0.03401
 N503 N 0.57245 0.94845 -0.03986
 N504 N 0.53179 1.02794 -0.05635
 N505 N 0.53600 1.04759 -0.07796
 N506 N 0.55357 1.02831 -0.03488
 N507 N 0.57329 1.04839 -0.04137
 N508 N 0.53135 0.96928 -0.05536
 N509 N 0.53489 0.94890 -0.07615
 Mn510 Mn 0.55432 0.99922 0.00015
 C511 C 0.56044 0.93592 -0.06623
 C512 C 0.56181 1.06034 -0.06830
 N513 N 0.44568 1.02885 -0.03406
 N514 N 0.42712 1.05020 -0.03931
 N515 N 0.46664 0.96950 -0.05490
 N516 N 0.46250 0.94886 -0.07531
 N517 N 0.44529 0.96963 -0.03315
 N518 N 0.42588 0.94893 -0.03833
 N519 N 0.46701 1.02820 -0.05582
 N520 N 0.46365 1.04882 -0.07638
 Mn521 Mn 0.44534 0.99962 0.00094
 Mn522 Mn 0.49918 0.99873 -0.05583
 Cl523 Cl 0.49982 0.99944 0.00053
 C524 C 0.43880 1.06246 -0.06587
 C525 C 0.43713 0.93607 -0.06473
 N526 N 1.03272 0.53012 0.55625
 N527 N 1.05330 0.53572 0.57833
 N528 N 0.96877 0.55022 0.53526
 N529 N 0.94899 0.57008 0.54254
 N530 N 0.96889 0.53050 0.55722
 N531 N 0.94920 0.53646 0.57992
 N532 N 1.03249 0.54978 0.53422
 N533 N 1.05284 0.56931 0.54088
 C534 C 1.06594 0.56005 0.56831
 C535 C 0.93665 0.56105 0.57034
 N536 N 0.96684 0.52984 0.44452
 N537 N 0.94575 0.53507 0.42288
 N538 N 1.03131 0.54948 0.46490
 N539 N 1.05163 0.56877 0.45728
 N540 N 1.03061 0.52957 0.44320
 N541 N 1.05042 0.53471 0.42043
 N542 N 0.96751 0.54977 0.46619
 N543 N 0.94688 0.56912 0.45979
 Mn544 Mn 1.00006 0.55007 0.50014
 C545 C 0.93324 0.55948 0.43283
 C546 C 1.06366 0.55906 0.42957
 N547 N 0.96874 0.46960 0.55754
 N548 N 0.94952 0.46365 0.58066
 N549 N 1.03216 0.44953 0.53497
 N550 N 1.05159 0.42943 0.54269
 N551 N 1.03250 0.46947 0.55669
 N552 N 1.05223 0.46351 0.57950
 N553 N 0.96849 0.44970 0.53578
 N554 N 0.94910 0.42974 0.54361
 Mn555 Mn 1.00069 0.49993 0.55715
 C556 C 0.93710 0.43891 0.57150
 C557 C 1.06431 0.43867 0.57036
 N558 N 1.03032 0.46911 0.44354
 N559 N 1.04957 0.46337 0.42044
 N560 N 0.96708 0.44944 0.46657
 N561 N 0.94670 0.42991 0.45985
 N562 N 0.96659 0.46928 0.44477
 N563 N 0.94590 0.46381 0.42278
 N564 N 1.03086 0.44932 0.46540
 N565 N 1.05046 0.42948 0.45750
 Mn566 Mn 0.99856 0.49945 0.44381
 Mn567 Mn 0.99969 0.44924 0.50068
 Cl568 Cl 0.99977 0.49966 0.50048
 C569 C 1.06229 0.43878 0.42953
 C570 C 0.93337 0.43937 0.43259
 N571 N 1.03047 0.45170 0.03481
 N572 N 1.05339 0.43432 0.03966
 N573 N 0.96685 0.47116 0.05717
 N574 N 0.94570 0.46669 0.07867
 N575 N 0.96668 0.45133 0.03542
 N576 N 0.94531 0.43273 0.04157
 N577 N 1.03034 0.47147 0.05663
 N578 N 1.05300 0.46819 0.07685
 C579 C 1.06730 0.44504 0.06597
 C580 C 0.93226 0.44279 0.06854
 N581 N 0.96622 0.55116 0.03561
 N582 N 0.94484 0.56971 0.04223
 N583 N 1.03008 0.53130 0.05657
 N584 N 1.05294 0.53448 0.07654
 N585 N 1.03009 0.55109 0.03476
 N586 N 1.05307 0.56841 0.03939
 N587 N 0.96664 0.53119 0.05722
 N588 N 0.94572 0.53550 0.07900
 Mn589 Mn 0.99845 0.50129 0.05718
 C590 C 0.93207 0.55944 0.06931
 C591 C 1.06716 0.55761 0.06556
 N592 N 0.96567 0.45126 -0.03350
 N593 N 0.94383 0.43290 -0.03919
 N594 N 1.02894 0.47138 -0.05590
 N595 N 1.05092 0.46776 -0.07669
 N596 N 1.02949 0.45166 -0.03403
 N597 N 1.05197 0.43399 -0.03935
 N598 N 0.96542 0.47112 -0.05522
 N599 N 0.94355 0.46693 -0.07619
 Mn600 Mn 0.99808 0.45105 0.00068
 C601 C 0.93009 0.44316 -0.06586
 C602 C 1.06521 0.44446 -0.06601
 N603 N 1.02916 0.55127 -0.03438
 N604 N 1.04953 0.57054 -0.04191
 N605 N 0.96518 0.53107 -0.05513
 N606 N 0.94301 0.53489 -0.07582
 N607 N 0.96535 0.55098 -0.03346
 N608 N 0.94318 0.56901 -0.03890
 N609 N 1.02857 0.53138 -0.05609
 N610 N 1.04827 0.53651 -0.07885
 Mn611 Mn 0.99772 0.55158 0.00065
 Mn612 Mn 0.99701 0.50123 -0.05584
 Cl613 Cl 0.99780 0.50131 0.00066
 C614 C 1.06148 0.56077 -0.06964
 C615 C 0.92933 0.55850 -0.06533
 N616 N 0.55075 1.03183 0.53517
 N617 N 0.57194 1.05059 0.54216
 N618 N 0.52958 0.97299 0.55774
 N619 N 0.53610 0.95490 0.58065
 N620 N 0.55080 0.97271 0.53577
 N621 N 0.57229 0.95442 0.54334
 N622 N 0.52932 1.03211 0.55691
 N623 N 0.53534 1.05101 0.57906
 C624 C 0.56179 1.06266 0.56952
 C625 C 0.56262 0.94316 0.57130
 N626 N 0.44208 0.97249 0.53667
 N627 N 0.42081 0.95430 0.54505
 N628 N 0.46348 1.03197 0.55763
 N629 N 0.45689 1.04951 0.58100
 N630 N 0.44154 1.03165 0.53622
 N631 N 0.41948 1.04901 0.54475
 N632 N 0.46390 0.97298 0.55821
 N633 N 0.45800 0.95534 0.58161
 Mn634 Mn 0.49659 1.00254 0.55776
 C635 C 0.43132 0.94349 0.57304
 C636 C 0.42961 1.06038 0.57260
 N637 N 0.54982 0.97202 0.46629
 N638 N 0.57026 0.95260 0.45923
 N639 N 0.52814 1.03112 0.44429
 N640 N 0.53402 1.04917 0.42124
 N641 N 0.55000 1.03125 0.46574
 N642 N 0.57133 1.04946 0.45767
 N643 N 0.52795 0.97209 0.44487
 N644 N 0.53285 0.95287 0.42286
 Mn645 Mn 0.55065 1.00194 0.50074
 C646 C 0.55913 0.94062 0.43211
 C647 C 0.56082 1.06078 0.42996
 N648 N 0.44109 1.03129 0.46644
 N649 N 0.42035 1.05043 0.45906
 N650 N 0.46267 0.97212 0.44528
 N651 N 0.45685 0.95353 0.42277
 N652 N 0.44118 0.97203 0.46692
 N653 N 0.42004 0.95331 0.45940
 N654 N 0.46271 1.03111 0.44493
 N655 N 0.45738 1.04999 0.42263
 Mn656 Mn 0.44113 1.00185 0.50156
 Mn657 Mn 0.49535 1.00163 0.44473
 Cl658 Cl 0.49590 1.00201 0.50124
 C659 C 0.43109 1.06215 0.43170
 C660 C 0.43041 0.94165 0.43185
 N661 N 1.05317 1.02877 0.53800
 N662 N 1.07122 1.05057 0.53972
 N663 N 1.02379 0.97365 0.56096
 N664 N 1.02332 0.95482 0.58421
 N665 N 1.04808 0.97045 0.54337
 N666 N 1.06467 0.94939 0.55385
 N667 N 1.02857 1.03270 0.55498
 N668 N 1.02956 1.05760 0.56910
 C669 C 1.05649 1.06835 0.55915
 C670 C 1.04895 0.93969 0.57921
 N671 N 0.94435 0.97610 0.51846
 N672 N 0.92229 0.95760 0.51983
 N673 N 0.96436 1.03552 0.54015
 N674 N 0.95517 1.05659 0.55818
 N675 N 0.94828 1.03433 0.51369
 N676 N 0.92772 1.05441 0.51302
 N677 N 0.95990 0.97665 0.54532
 N678 N 0.94892 0.95804 0.56567
 Mn679 Mn 0.99407 1.00472 0.55093
 C680 C 0.92547 0.94635 0.54924
 C681 C 0.93251 1.06837 0.54073
 N682 N 1.06188 0.96547 0.47706
 N683 N 1.08100 0.94436 0.47878
 N684 N 1.05090 1.02405 0.44576
 N685 N 1.06034 1.04428 0.42664
 N686 N 1.06711 1.02355 0.47213
 N687 N 1.08814 1.04314 0.47165
 N688 N 1.04659 0.96504 0.45007
 N689 N 1.05481 0.94320 0.43269
 Mn690 Mn 1.05772 0.99694 0.50777
 C691 C 1.07619 0.93046 0.45114
 C692 C 1.08364 1.05595 0.44323
 N693 N 0.96233 1.02926 0.44752
 N694 N 0.94574 1.05074 0.43854
 N695 N 0.98309 0.96846 0.43455
 N696 N 0.98145 0.94648 0.41545
 N697 N 0.95843 0.97067 0.45179
 N698 N 0.93932 0.95025 0.44493
 N699 N 0.98694 1.02732 0.43017
 N700 N 0.98749 1.04752 0.40841
 Mn701 Mn 0.95313 1.00252 0.48276
 Mn702 Mn 1.01701 0.99626 0.43959
 Cl703 Cl 1.00543 1.00010 0.49528
 C704 C 0.96155 1.06204 0.41424
 C705 C 0.95403 0.93527 0.42229
 N706 N 0.55922 0.52888 0.03168
 N707 N 0.57845 0.54955 0.03812
 N708 N 0.53717 0.46958 0.05194
 N709 N 0.54107 0.44955 0.07308
 N710 N 0.55891 0.46942 0.03063
 N711 N 0.57843 0.44893 0.03702
 N712 N 0.53763 0.52820 0.05315
 N713 N 0.54136 0.54810 0.07450
 C714 C 0.56673 0.56142 0.06499
 C715 C 0.56667 0.43662 0.06364
 N716 N 0.45041 0.47008 0.03176
 N717 N 0.42970 0.45115 0.03957
 N718 N 0.47306 0.52850 0.05401
 N719 N 0.46887 0.54704 0.07680
 N720 N 0.45090 0.52934 0.03299
 N721 N 0.43089 0.54881 0.04111
 N722 N 0.47263 0.46991 0.05277
 N723 N 0.46779 0.45111 0.07514
 Mn724 Mn 0.50516 0.49905 0.05302
 C725 C 0.44119 0.43928 0.06664
 C726 C 0.44273 0.55979 0.06849
 N727 N 0.55785 0.47063 -0.03904
 N728 N 0.57777 0.45098 -0.04678
 N729 N 0.53604 0.53004 -0.05895
 N730 N 0.54084 0.54873 -0.08143
 N731 N 0.55831 0.52989 -0.03800
 N732 N 0.57900 0.54883 -0.04592
 N733 N 0.53577 0.47143 -0.06021
 N734 N 0.53998 0.45261 -0.08273
 Mn735 Mn 0.55915 0.49970 -0.00368
 C736 C 0.56605 0.43979 -0.07409
 C737 C 0.56745 0.56056 -0.07305
 N738 N 0.44978 0.53054 -0.03658
 N739 N 0.42975 0.55056 -0.04290
 N740 N 0.47093 0.47190 -0.05961
 N741 N 0.46513 0.45418 -0.08292
 N742 N 0.44944 0.47129 -0.03798
 N743 N 0.42838 0.45278 -0.04617
 N744 N 0.47130 0.53054 -0.05816
 N745 N 0.46666 0.55035 -0.07950
 Mn746 Mn 0.44961 0.50030 -0.00245
 Mn747 Mn 0.50351 0.50097 -0.05930
 Cl748 Cl 0.50435 0.49999 -0.00313
 C749 C 0.44087 0.56290 -0.06974
 C750 C 0.43880 0.44212 -0.07423
 C751 C 0.33855 1.17581 0.15349
 C752 C 0.35419 1.15829 0.13249
 C753 C 0.34122 1.15124 0.10257
 C754 C 0.31328 1.16313 0.09365
 C755 C 0.29789 1.18093 0.11475
 C756 C 0.31012 1.18672 0.14511
 C757 C 0.35609 1.13199 0.08256
 C758 C 0.38366 1.11980 0.09231
 C759 C 0.39700 1.12797 0.12174
 C760 C 0.38225 1.14716 0.14153
 C761 C 0.42461 1.11629 0.13144
 C762 C 0.43846 1.09585 0.11282
 C763 C 0.42494 1.08661 0.08420
 C764 C 0.39779 1.09908 0.07364
 H765 H 0.34831 1.18064 0.17672
 H766 H 0.30307 1.15821 0.07070
 H767 H 0.27598 1.18929 0.10788
 H768 H 0.34593 1.12605 0.05988
 H769 H 0.39225 1.15289 0.16438
 H770 H 0.43521 1.12254 0.15377
 H771 H 0.45951 1.08678 0.12135
 H772 H 0.38736 1.09221 0.05146
 C773 C 0.82988 0.66668 0.66311
 C774 C 0.84722 0.65067 0.64178
 C775 C 0.85551 0.66202 0.61187
 C776 C 0.84545 0.68909 0.60360
 C777 C 0.82806 0.70497 0.62508
 C778 C 0.82054 0.69412 0.65530
 C779 C 0.87403 0.64628 0.59111
 C780 C 0.88435 0.61939 0.60005
 C781 C 0.87531 0.60800 0.62977
 C782 C 0.85682 0.62363 0.65032
 C783 C 0.88529 0.58125 0.63881
 C784 C 0.90463 0.56601 0.61904
 C785 C 0.91448 0.57712 0.58976
 C786 C 0.90391 0.60380 0.58015
 H787 H 0.82402 0.65779 0.68614
 H788 H 0.85142 0.69815 0.58071
 H789 H 0.82122 0.72599 0.61840
 H790 H 0.88073 0.65509 0.56830
 H791 H 0.85028 0.61491 0.67325
 H792 H 0.87843 0.57221 0.66144
 H793 H 0.91225 0.54556 0.62700
 H794 H 0.91128 0.61260 0.55758
 C795 C 0.66096 0.82582 0.15870
 C796 C 0.64587 0.84319 0.13696
 C797 C 0.66023 0.85122 0.10822
 C798 C 0.68912 0.84050 0.10119
 C799 C 0.70396 0.82283 0.12302
 C800 C 0.69022 0.81603 0.15224
 C801 C 0.64573 0.87027 0.08753
 C802 C 0.61718 0.88132 0.09544
 C803 C 0.60255 0.87219 0.12367
 C804 C 0.61691 0.85317 0.14411
 C805 C 0.57404 0.88282 0.13161
 C806 C 0.56054 0.90322 0.11255
 C807 C 0.57525 0.91341 0.08516
 C808 C 0.60331 0.90191 0.07622
 H809 H 0.65004 0.82019 0.18100
 H810 H 0.70042 0.84618 0.07918
 H811 H 0.72653 0.81531 0.11762
 H812 H 0.65692 0.87697 0.06578
 H813 H 0.60586 0.84669 0.16605
 H814 H 0.56247 0.87583 0.15300
 H815 H 0.53875 0.91151 0.11976
 H816 H 0.61471 0.90955 0.05502
 C817 C 1.16579 0.33252 0.66953
 C818 C 1.14907 0.34828 0.64726
 C819 C 1.13963 0.33587 0.61819
 C820 C 1.14788 0.30797 0.61167
 C821 C 1.16478 0.29240 0.63400
 C822 C 1.17352 0.30438 0.66337
 C823 C 1.12186 0.35149 0.59644
 C824 C 1.11348 0.37932 0.60352
 C825 C 1.12367 0.39171 0.63239
 C826 C 1.14136 0.37617 0.65396
 C827 C 1.11562 0.41939 0.63960
 C828 C 1.09700 0.43460 0.61889
 C829 C 1.08598 0.42252 0.59046
 C830 C 1.09470 0.39490 0.58262
 H831 H 1.17266 0.34224 0.69187
 H832 H 1.14100 0.29808 0.58946
 H833 H 1.17041 0.27080 0.62860
 H834 H 1.11428 0.34190 0.57428
 H835 H 1.14880 0.38570 0.67623
 H836 H 1.12338 0.42920 0.66155
 H837 H 1.09083 0.45581 0.62547
 H838 H 1.08638 0.38536 0.56075
 C839 C 0.66422 1.16977 -0.15811
 C840 C 0.64831 1.15268 -0.13688
 C841 C 0.66050 1.14687 -0.10625
 C842 C 0.68799 1.15943 -0.09702
 C843 C 0.70363 1.17681 -0.11835
 C844 C 0.69215 1.18150 -0.14928
 C845 C 0.64525 1.12827 -0.08578
 C846 C 0.61803 1.11556 -0.09571
 C847 C 0.60549 1.12242 -0.12595
 C848 C 0.62067 1.14089 -0.14626
 C849 C 0.57820 1.11024 -0.13583
 C850 C 0.56380 1.09069 -0.11646
 C851 C 0.57646 1.08282 -0.08688
 C852 C 0.60338 1.09568 -0.07630
 H853 H 0.65497 1.17374 -0.18177
 H854 H 0.69761 1.15545 -0.07355
 H855 H 0.72514 1.18580 -0.11111
 H856 H 0.65480 1.12333 -0.06250
 H857 H 0.61125 1.14567 -0.16967
 H858 H 0.56823 1.11547 -0.15882
 H859 H 0.54298 1.08124 -0.12506
 H860 H 0.61317 1.08987 -0.05341
 C861 C 1.17341 0.65964 0.33369
 C862 C 1.15565 0.64451 0.35549
 C863 C 1.14801 0.65656 0.38526
 C864 C 1.15908 0.68336 0.39298
 C865 C 1.17688 0.69832 0.37111
 C866 C 1.18384 0.68682 0.34103
 C867 C 1.12911 0.64180 0.40649
 C868 C 1.11777 0.61514 0.39822
 C869 C 1.12616 0.60299 0.36867
 C870 C 1.14501 0.61768 0.34760
 C871 C 1.11519 0.57642 0.36032
 C872 C 1.09550 0.56216 0.38061
 C873 C 1.08625 0.57411 0.40972
 C874 C 1.09782 0.60056 0.41864
 H875 H 1.17877 0.65032 0.31075
 H876 H 1.15361 0.69294 0.41573
 H877 H 1.18452 0.71919 0.37743
 H878 H 1.12292 0.65118 0.42918
 H879 H 1.15105 0.60838 0.32481
 H880 H 1.12153 0.56678 0.33785
 H881 H 1.08711 0.54182 0.37317
 H882 H 1.09093 0.60997 0.44106
 C883 C 0.33620 0.82405 -0.15301
 C884 C 0.35158 0.84157 -0.13164
 C885 C 0.33753 0.84996 -0.10287
 C886 C 0.30868 0.83936 -0.09539
 C887 C 0.29351 0.82157 -0.11688
 C888 C 0.30691 0.81450 -0.14619
 C889 C 0.35228 0.86927 -0.08265
 C890 C 0.38077 0.88021 -0.09108
 C891 C 0.39508 0.87068 -0.11933
 C892 C 0.38047 0.85142 -0.13928
 C893 C 0.42351 0.88114 -0.12780
 C894 C 0.43730 0.90172 -0.10924
 C895 C 0.42296 0.91233 -0.08183
 C896 C 0.39492 0.90105 -0.07238
 H897 H 0.34683 0.81824 -0.17540
 H898 H 0.29760 0.84531 -0.07333
 H899 H 0.27092 0.81427 -0.11122
 H900 H 0.34132 0.87625 -0.06088
 H901 H 0.39127 0.84466 -0.16124
 H902 H 0.43483 0.87384 -0.14920
 H903 H 0.45903 0.90981 -0.11688
 H904 H 0.38380 0.90899 -0.05116
 C905 C 0.82496 0.33549 0.33921
 C906 C 0.84230 0.35125 0.36090
 C907 C 0.85142 0.33927 0.39032
 C908 C 0.84199 0.31189 0.39788
 C909 C 0.82457 0.29628 0.37605
 C910 C 0.81645 0.30773 0.34623
 C911 C 0.87024 0.35467 0.41123
 C912 C 0.88004 0.38183 0.40291
 C913 C 0.87001 0.39388 0.37379
 C914 C 0.85120 0.37860 0.35310
 C915 C 0.87944 0.42091 0.36538
 C916 C 0.89935 0.43571 0.38507
 C917 C 0.91032 0.42386 0.41365
 C918 C 0.90016 0.39698 0.42276
 H919 H 0.81854 0.34476 0.31648
 H920 H 0.84858 0.30236 0.42039
 H921 H 0.81834 0.27495 0.38205
 H922 H 0.87767 0.34537 0.43361
 H923 H 0.84398 0.38780 0.33058
 H924 H 0.87180 0.43047 0.34323
 H925 H 0.90661 0.45637 0.37754
 H926 H 0.90840 0.38765 0.44479
 C927 C 1.18584 0.34800 0.15167
 C928 C 1.16862 0.36401 0.13025
 C929 C 1.16069 0.35283 0.10001
 C930 C 1.17174 0.32638 0.09108
 C931 C 1.18893 0.31049 0.11268
 C932 C 1.19515 0.32082 0.14349
 C933 C 1.14089 0.36777 0.07989
 C934 C 1.12865 0.39347 0.08997
 C935 C 1.13792 0.40515 0.11958
 C936 C 1.15804 0.39047 0.13936
 C937 C 1.12597 0.43084 0.12961
 C938 C 1.10382 0.44421 0.11135
 C939 C 1.09324 0.43216 0.08273
 C940 C 1.10638 0.40717 0.07161
 H941 H 1.19097 0.35627 0.17525
 H942 H 1.16618 0.31757 0.06789
 H943 H 1.19602 0.28957 0.10587
 H944 H 1.13409 0.35890 0.05707
 H945 H 1.16443 0.39911 0.16243
 H946 H 1.13307 0.44017 0.15207
 H947 H 1.09430 0.46364 0.12023
 H948 H 1.09852 0.39788 0.04940
 C949 C 0.67291 0.84064 0.66570
 C950 C 0.65672 0.85777 0.64435
 C951 C 0.66897 0.86415 0.61408
 C952 C 0.69720 0.85258 0.60560
 C953 C 0.71314 0.83513 0.62704
 C954 C 0.70132 0.82927 0.65749
 C955 C 0.65280 0.88199 0.59306
 C956 C 0.62447 0.89326 0.60203
 C957 C 0.61226 0.88616 0.63221
 C958 C 0.62842 0.86861 0.65308
 C959 C 0.58404 0.89686 0.64131
 C960 C 0.56806 0.91483 0.62108
 C961 C 0.57987 0.92272 0.59124
 C962 C 0.60814 0.91163 0.58166
 H963 H 0.66312 0.83600 0.68885
 H964 H 0.70699 0.85707 0.58245
 H965 H 0.73488 0.82664 0.62002
 H966 H 0.66227 0.88715 0.56991
 H967 H 0.61899 0.86349 0.67628
 H968 H 0.57437 0.89148 0.66430
 H969 H 0.54643 0.92289 0.62910
 H970 H 0.61750 0.91746 0.55868
 C971 C 1.17278 0.65987 -0.16370
 C972 C 1.15629 0.64372 -0.14198
 C973 C 1.15667 0.65051 -0.10913
 C974 C 1.17500 0.67268 -0.09842
 C975 C 1.19191 0.68855 -0.12021
 C976 C 1.19033 0.68296 -0.15339
 C977 C 1.13844 0.63523 -0.08777
 C978 C 1.12020 0.61309 -0.09904
 C979 C 1.12114 0.60572 -0.13183
 C980 C 1.13899 0.62111 -0.15301
 C981 C 1.10386 0.58324 -0.14319
 C982 C 1.08519 0.56845 -0.12250
 C983 C 1.08305 0.57605 -0.09011
 C984 C 1.10082 0.59830 -0.07833
 H985 H 1.17150 0.65439 -0.18886
 H986 H 1.17595 0.67800 -0.07323
 H987 H 1.20533 0.70581 -0.11099
 H988 H 1.13820 0.64073 -0.06259
 H989 H 1.13911 0.61570 -0.17823
 H990 H 1.10455 0.57725 -0.16819
 H991 H 1.07179 0.55138 -0.13216
 H992 H 1.09950 0.60409 -0.05330
 C993 C 0.66883 1.16249 0.33293
 C994 C 0.65300 1.14556 0.35464
 C995 C 0.66554 1.13986 0.38511
 C996 C 0.69361 1.15187 0.39345
 C997 C 0.70912 1.16911 0.37173
 C998 C 0.69705 1.17434 0.34111
 C999 C 0.64982 1.12226 0.40652
 C1000 C 0.62160 1.11058 0.39783
 C1001 C 0.60900 1.11700 0.36750
 C1002 C 0.62477 1.13428 0.34617
 C1003 C 0.58080 1.10592 0.35875
 C1004 C 0.56524 1.08822 0.37950
 C1005 C 0.57753 1.08099 0.40947
 C1006 C 0.60576 1.09246 0.41867
 H1007 H 0.65895 1.16662 0.30960
 H1008 H 0.70360 1.14789 0.41673
 H1009 H 0.73077 1.17798 0.37868
 H1010 H 0.65955 1.11763 0.42980
 H1011 H 0.61508 1.13888 0.32285
 H1012 H 0.57081 1.11078 0.33567
 H1013 H 0.54361 1.07984 0.37176
 H1014 H 0.61544 1.08714 0.44176
 C1015 C 0.82034 0.65856 0.16255
 C1016 C 0.83743 0.64301 0.14068
 C1017 C 0.84412 0.65440 0.11029
 C1018 C 0.83239 0.68076 0.10187
 C1019 C 0.81516 0.69609 0.12381
 C1020 C 0.80963 0.68539 0.15457
 C1021 C 0.86297 0.63953 0.08924
 C1022 C 0.87520 0.61349 0.09834
 C1023 C 0.86740 0.60178 0.12831
 C1024 C 0.84855 0.61655 0.14920
 C1025 C 0.87919 0.57572 0.13737
 C1026 C 0.89944 0.56175 0.11751
 C1027 C 0.90838 0.57358 0.08823
 C1028 C 0.89570 0.59925 0.07841
 H1029 H 0.81582 0.64993 0.18606
 H1030 H 0.83705 0.68976 0.07861
 H1031 H 0.80706 0.71673 0.11709
 H1032 H 0.86863 0.64848 0.06617
 H1033 H 0.84312 0.60773 0.17241
 H1034 H 0.87324 0.56638 0.16013
 H1035 H 0.90868 0.54190 0.12554
 H1036 H 0.90232 0.60844 0.05577
 C1037 C 0.31922 1.15730 0.67385
 C1038 C 0.33499 1.14082 0.65159
 C1039 C 0.32187 1.13490 0.62148
 C1040 C 0.29315 1.14617 0.61413
 C1041 C 0.27772 1.16307 0.63638
 C1042 C 0.29047 1.16865 0.66662
 C1043 C 0.33777 1.11797 0.59939
 C1044 C 0.36677 1.10725 0.60706
 C1045 C 0.37981 1.11388 0.63712
 C1046 C 0.36385 1.13038 0.65912
 C1047 C 0.40871 1.10384 0.64495
 C1048 C 0.42464 1.08706 0.62353
 C1049 C 0.41210 1.07963 0.59374
 C1050 C 0.38304 1.09000 0.58548
 H1051 H 0.32975 1.16169 0.69679
 H1052 H 0.28267 1.14204 0.59112
 H1053 H 0.25574 1.17159 0.63002
 H1054 H 0.32764 1.11321 0.57634
 H1055 H 0.37398 1.13516 0.68219
 H1056 H 0.41902 1.10887 0.66783
 H1057 H 0.44685 1.07956 0.63063
 H1058 H 0.37308 1.08453 0.56258
 C1059 C 0.81735 0.34236 -0.15548
 C1060 C 0.83400 0.35862 -0.13378
 C1061 C 0.84147 0.34765 -0.10332
 C1062 C 0.83066 0.32106 -0.09455
 C1063 C 0.81394 0.30497 -0.11637
 C1064 C 0.80800 0.31518 -0.14731
 C1065 C 0.86041 0.36303 -0.08269
 C1066 C 0.87209 0.38909 -0.09238
 C1067 C 0.86334 0.40045 -0.12232
 C1068 C 0.84425 0.38524 -0.14270
 C1069 C 0.87463 0.42651 -0.13196
 C1070 C 0.89550 0.44069 -0.11284
 C1071 C 0.90552 0.42910 -0.08375
 C1072 C 0.89315 0.40357 -0.07319
 H1073 H 0.81246 0.35055 -0.17915
 H1074 H 0.83589 0.31239 -0.07121
 H1075 H 0.80686 0.28406 -0.10956
 H1076 H 0.86679 0.35437 -0.05963
 H1077 H 0.83820 0.39372 -0.16596
 H1078 H 0.86792 0.43560 -0.15468
 H1079 H 0.90445 0.46047 -0.12137
 H1080 H 0.90058 0.39459 -0.05065
 C1081 C 0.32693 0.83569 0.33397
 C1082 C 0.34162 0.85339 0.35589
 C1083 C 0.32776 0.85989 0.38536
 C1084 C 0.29947 0.84778 0.39251
 C1085 C 0.28508 0.82973 0.37055
 C1086 C 0.29850 0.82380 0.34086
 C1087 C 0.34243 0.87835 0.40690
 C1088 C 0.37089 0.89009 0.39927
 C1089 C 0.38471 0.88278 0.36993
 C1090 C 0.37002 0.86468 0.34853
 C1091 C 0.41307 0.89382 0.36212
 C1092 C 0.42764 0.91235 0.38277
 C1093 C 0.41426 0.92054 0.41178
 C1094 C 0.38581 0.90910 0.42011
 H1095 H 0.33790 0.83100 0.31143
 H1096 H 0.28845 0.85232 0.41503
 H1097 H 0.26324 0.82083 0.37654
 H1098 H 0.33172 0.88361 0.42940
 H1099 H 0.38069 0.85944 0.32596
 H1100 H 0.42396 0.88827 0.33981
 H1101 H 0.44947 0.92058 0.37566
 H1102 H 0.37526 0.91514 0.44243
 C1103 C 1.16874 1.17758 0.35367
 C1104 C 1.14864 1.15925 0.36915
 C1105 C 1.11902 1.15535 0.35669
 C1106 C 1.10949 1.17074 0.33001
 C1107 C 1.12975 1.18835 0.31440
 C1108 C 1.15973 1.19122 0.32545
 C1109 C 1.09983 1.13522 0.37008
 C1110 C 1.11001 1.11848 0.39542
 C1111 C 1.13909 1.12310 0.40885
 C1112 C 1.15816 1.14361 0.39577
 C1113 C 1.14892 1.10653 0.43456
 C1114 C 1.13051 1.08502 0.44614
 C1115 C 1.10217 1.07958 0.43197
 C1116 C 1.09182 1.09666 0.40695
 H1117 H 1.19188 1.17964 0.36220
 H1118 H 1.08681 1.16823 0.32036
 H1119 H 1.12227 1.19901 0.29287
 H1120 H 1.07742 1.13184 0.36000
 H1121 H 1.18075 1.14666 0.40553
 H1122 H 1.17100 1.10988 0.44535
 H1123 H 1.13879 1.07219 0.46570
 H1124 H 1.06976 1.09281 0.39628
 C1125 C 0.66011 0.67581 -0.16704
 C1126 C 0.64613 0.65718 -0.14572
 C1127 C 0.65610 0.65563 -0.11356
 C1128 C 0.67944 0.67336 -0.10311
 C1129 C 0.69326 0.69187 -0.12447
 C1130 C 0.68408 0.69302 -0.15678
 C1131 C 0.64282 0.63619 -0.09255
 C1132 C 0.61957 0.61839 -0.10332
 C1133 C 0.60929 0.62054 -0.13538
 C1134 C 0.62264 0.63978 -0.15631
 C1135 C 0.58578 0.60333 -0.14619
 C1136 C 0.57249 0.58409 -0.12558
 C1137 C 0.58260 0.58134 -0.09376
 C1138 C 0.60631 0.59852 -0.08268
 H1139 H 0.65267 0.67647 -0.19179
 H1140 H 0.68734 0.67261 -0.07853
 H1141 H 0.71172 0.70481 -0.11577
 H1142 H 0.65068 0.63483 -0.06797
 H1143 H 0.61486 0.64109 -0.18093
 H1144 H 0.57760 0.60476 -0.17063
 H1145 H 0.55432 0.57109 -0.13479
 H1146 H 0.61408 0.59667 -0.05813
 C1147 C 0.83687 1.17721 0.63939
 C1148 C 0.85869 1.16150 0.62265
 C1149 C 0.88790 1.15759 0.63615
 C1150 C 0.89528 1.17024 0.66530
 C1151 C 0.87346 1.18530 0.68195
 C1152 C 0.84388 1.18828 0.66968
 C1153 C 0.90897 1.14017 0.62108
 C1154 C 0.90112 1.12602 0.59295
 C1155 C 0.87245 1.13064 0.57861
 C1156 C 0.85146 1.14856 0.59341
 C1157 C 0.86494 1.11647 0.55027
 C1158 C 0.88506 1.09697 0.53718
 C1159 C 0.91294 1.09129 0.55227
 C1160 C 0.92115 1.10645 0.57968
 H1161 H 0.81413 1.17945 0.62978
 H1162 H 0.91762 1.16770 0.67578
 H1163 H 0.87957 1.19411 0.70498
 H1164 H 0.93107 1.13677 0.63192
 H1165 H 0.82920 1.15160 0.58283
 H1166 H 0.84320 1.11987 0.53874
 H1167 H 0.87833 1.08563 0.51586
 H1168 H 0.94276 1.10240 0.59127
 C1169 C 0.34853 0.67325 0.16337
 C1170 C 0.36309 0.65519 0.14183
 C1171 C 0.35231 0.65277 0.11002
 C1172 C 0.32771 0.66918 0.10003
 C1173 C 0.31337 0.68715 0.12156
 C1174 C 0.32327 0.68904 0.15359
 C1175 C 0.36598 0.63372 0.08890
 C1176 C 0.39039 0.61711 0.09919
 C1177 C 0.40163 0.62020 0.13079
 C1178 C 0.38791 0.63912 0.15186
 C1179 C 0.42632 0.60413 0.14101
 C1180 C 0.43960 0.58488 0.12036
 C1181 C 0.42832 0.58105 0.08912
 C1182 C 0.40370 0.59732 0.07855
 H1183 H 0.35653 0.67455 0.18790
 H1184 H 0.31921 0.66776 0.07572
 H1185 H 0.29393 0.69900 0.11324
 H1186 H 0.35743 0.63163 0.06464
 H1187 H 0.39635 0.64111 0.17618
 H1188 H 0.43529 0.60632 0.16506
 H1189 H 0.45858 0.57264 0.12914
 H1190 H 0.39503 0.59466 0.05443
 C1191 C 1.14489 0.82791 0.67376
 C1192 C 1.12805 0.84423 0.65215
 C1193 C 1.13652 0.84510 0.61963
 C1194 C 1.16078 0.82865 0.60900
 C1195 C 1.17733 0.81223 0.63056
 C1196 C 1.17026 0.81214 0.66350
 C1197 C 1.12105 0.86289 0.59842
 C1198 C 1.09728 0.87986 0.60939
 C1199 C 1.08790 0.87809 0.64161
 C1200 C 1.10332 0.86022 0.66279
 C1201 C 1.06379 0.89485 0.65226
 C1202 C 1.05000 0.91411 0.63154
 C1203 C 1.06026 0.91696 0.60000
 C1204 C 1.08340 0.89926 0.58885
 H1205 H 1.13831 0.82801 0.69873
 H1206 H 1.16733 0.82886 0.58405
 H1207 H 1.19628 0.80027 0.62134
 H1208 H 1.12799 0.86404 0.57359
 H1209 H 1.09659 0.85931 0.68770
 H1210 H 1.05613 0.89359 0.67681
 H1211 H 1.03215 0.92753 0.64054
 H1212 H 1.09121 0.90113 0.56439
 C1213 C 0.65936 0.32103 0.15808
 C1214 C 0.64579 0.33965 0.13631
 C1215 C 0.66037 0.34611 0.10716
 C1216 C 0.68787 0.33290 0.09982
 C1217 C 0.70116 0.31418 0.12153
 C1218 C 0.68732 0.30846 0.15111
 C1219 C 0.64747 0.36595 0.08618
 C1220 C 0.62009 0.37931 0.09402
 C1221 C 0.60520 0.37196 0.12278
 C1222 C 0.61810 0.35230 0.14365
 C1223 C 0.57774 0.38469 0.13063
 C1224 C 0.56536 0.40507 0.11072
 C1225 C 0.58018 0.41342 0.08252
 C1226 C 0.60747 0.40017 0.07398
 H1227 H 0.64834 0.31664 0.18067
 H1228 H 0.69937 0.33740 0.07755
 H1229 H 0.72281 0.30487 0.11557
 H1230 H 0.65891 0.37123 0.06408
 H1231 H 0.60678 0.34715 0.16588
 H1232 H 0.56596 0.37914 0.15242
 H1233 H 0.54421 0.41467 0.11790
 H1234 H 0.61899 0.40630 0.05223
 C1235 C 0.85318 0.82029 0.33956
 C1236 C 0.86934 0.83813 0.36000
 C1237 C 0.85608 0.84716 0.38895
 C1238 C 0.82740 0.83702 0.39760
 C1239 C 0.81136 0.81925 0.37698
 C1240 C 0.82378 0.81143 0.34740
 C1241 C 0.87126 0.86685 0.40813
 C1242 C 0.89929 0.87782 0.39843
 C1243 C 0.91303 0.86785 0.37011
 C1244 C 0.89806 0.84793 0.35120
 C1245 C 0.94112 0.87865 0.36060
 C1246 C 0.95494 0.89999 0.37824
 C1247 C 0.94086 0.91088 0.40560
 C1248 C 0.91335 0.89926 0.41602
 H1249 H 0.86313 0.81404 0.31698
 H1250 H 0.81698 0.84355 0.41982
 H1251 H 0.78873 0.81263 0.38351
 H1252 H 0.86083 0.87430 0.42999
 H1253 H 0.90829 0.84078 0.32910
 H1254 H 0.95204 0.87108 0.33909
 H1255 H 0.97624 0.90852 0.36991
 H1256 H 0.90250 0.90738 0.43731
 C1257 C 0.34155 0.32851 -0.16662
 C1258 C 0.35685 0.34685 -0.14574
 C1259 C 0.34976 0.34696 -0.11275
 C1260 C 0.32810 0.32822 -0.10105
 C1261 C 0.31306 0.31003 -0.12187
 C1262 C 0.31923 0.31020 -0.15494
 C1263 C 0.36421 0.36593 -0.09202
 C1264 C 0.38591 0.38471 -0.10379
 C1265 C 0.39348 0.38410 -0.13667
 C1266 C 0.37883 0.36533 -0.15742
 C1267 C 0.41564 0.40232 -0.14836
 C1268 C 0.43021 0.42097 -0.12776
 C1269 C 0.42263 0.42211 -0.09514
 C1270 C 0.40030 0.40399 -0.08324
 H1271 H 0.34664 0.32890 -0.19196
 H1272 H 0.32249 0.32787 -0.07585
 H1273 H 0.29604 0.29620 -0.11198
 H1274 H 0.35851 0.36613 -0.06681
 H1275 H 0.38448 0.36517 -0.18265
 H1276 H 0.42181 0.40211 -0.17343
 H1277 H 0.44732 0.43477 -0.13754
 H1278 H 0.39454 0.40459 -0.05806
 C1279 C 1.17978 0.34418 -0.15161
 C1280 C 1.16312 0.36073 -0.13047
 C1281 C 1.15598 0.35036 -0.09972
 C1282 C 1.16714 0.32407 -0.09014
 C1283 C 1.18387 0.30765 -0.11147
 C1284 C 1.18943 0.31728 -0.14264
 C1285 C 1.13697 0.36598 -0.07965
 C1286 C 1.12478 0.39159 -0.09025
 C1287 C 1.13317 0.40240 -0.12048
 C1288 C 1.15247 0.38702 -0.14025
 C1289 C 1.12120 0.42798 -0.13105
 C1290 C 1.09992 0.44211 -0.11259
 C1291 C 1.09028 0.43094 -0.08326
 C1292 C 1.10343 0.40605 -0.07173
 H1293 H 1.18448 0.35191 -0.17548
 H1294 H 1.16216 0.31587 -0.06657
 H1295 H 1.19129 0.28696 -0.10410
 H1296 H 1.13081 0.35778 -0.05637
 H1297 H 1.15826 0.39502 -0.16375
 H1298 H 1.12762 0.43663 -0.15401
 H1299 H 1.09030 0.46141 -0.12180
 H1300 H 1.09628 0.39743 -0.04898
 C1301 C 0.66034 0.83034 0.33931
 C1302 C 0.64535 0.84828 0.36065
 C1303 C 0.65852 0.85451 0.39068
 C1304 C 0.68620 0.84183 0.39914
 C1305 C 0.70096 0.82376 0.37774
 C1306 C 0.68843 0.81823 0.34738
 C1307 C 0.64398 0.87353 0.41143
 C1308 C 0.61638 0.88625 0.40243
 C1309 C 0.60305 0.87919 0.37263
 C1310 C 0.61757 0.86037 0.35203
 C1311 C 0.57546 0.89133 0.36357
 C1312 C 0.56130 0.91073 0.38342
 C1313 C 0.57441 0.91866 0.41278
 C1314 C 0.60195 0.90609 0.42238
 H1315 H 0.65020 0.82606 0.31613
 H1316 H 0.69665 0.84618 0.42211
 H1317 H 0.72260 0.81478 0.38456
 H1318 H 0.65426 0.87863 0.43432
 H1319 H 0.60738 0.85538 0.32904
 H1320 H 0.56490 0.88601 0.34090
 H1321 H 0.54012 0.91988 0.37539
 H1322 H 0.61223 0.91191 0.44502
 C1323 C 0.82113 0.66102 -0.15721
 C1324 C 0.83708 0.64468 -0.13510
 C1325 C 0.84558 0.65624 -0.10522
 C1326 C 0.83658 0.68363 -0.09744
 C1327 C 0.82034 0.69974 -0.11960
 C1328 C 0.81327 0.68873 -0.14988
 C1329 C 0.86363 0.64052 -0.08413
 C1330 C 0.87342 0.61357 -0.09280
 C1331 C 0.86365 0.60169 -0.12212
 C1332 C 0.84540 0.61725 -0.14296
 C1333 C 0.87323 0.57477 -0.13075
 C1334 C 0.89363 0.56028 -0.11137
 C1335 C 0.90472 0.57245 -0.08303
 C1336 C 0.89381 0.59874 -0.07330
 H1337 H 0.81518 0.65229 -0.18037
 H1338 H 0.84264 0.69276 -0.07455
 H1339 H 0.81424 0.72109 -0.11353
 H1340 H 0.87084 0.64956 -0.06153
 H1341 H 0.83854 0.60835 -0.16577
 H1342 H 0.86570 0.56529 -0.15297
 H1343 H 0.90149 0.53988 -0.11916
 H1344 H 0.90212 0.60815 -0.05134
 C1345 C 0.32890 1.16871 0.33358
 C1346 C 0.34355 1.15114 0.35569
 C1347 C 0.32896 1.14371 0.38448
 C1348 C 0.30008 1.15482 0.39091
 C1349 C 0.28568 1.17262 0.36877
 C1350 C 0.29976 1.17938 0.33966
 C1351 C 0.34341 1.12515 0.40602
 C1352 C 0.37231 1.11413 0.39903
 C1353 C 0.38691 1.12238 0.37045
 C1354 C 0.37249 1.14071 0.34908
 C1355 C 0.41569 1.11193 0.36331
 C1356 C 0.42984 1.09297 0.38380
 C1357 C 0.41559 1.08382 0.41196
 C1358 C 0.38681 1.09477 0.41972
 H1359 H 0.34025 1.17401 0.31143
 H1360 H 0.28851 1.14953 0.41291
 H1361 H 0.26324 1.18053 0.37406
 H1362 H 0.33211 1.11913 0.42795
 H1363 H 0.38373 1.14664 0.32705
 H1364 H 0.42721 1.11821 0.34160
 H1365 H 0.45199 1.08513 0.37721
 H1366 H 0.37561 1.08797 0.44139
 C1367 C 1.18485 0.65408 0.15275
 C1368 C 1.16742 0.63860 0.13108
 C1369 C 1.15822 0.65086 0.10180
 C1370 C 1.16814 0.67798 0.09403
 C1371 C 1.18568 0.69329 0.11583
 C1372 C 1.19328 0.68170 0.14570
 C1373 C 1.13840 0.63622 0.08146
 C1374 C 1.12745 0.60972 0.09039
 C1375 C 1.13795 0.59707 0.11902
 C1376 C 1.15805 0.61148 0.13900
 C1377 C 1.12722 0.57063 0.12794
 C1378 C 1.10502 0.55741 0.10965
 C1379 C 1.09325 0.57036 0.08206
 C1380 C 1.10522 0.59614 0.07193
 H1381 H 1.19113 0.64489 0.17559
 H1382 H 1.16157 0.68764 0.07157
 H1383 H 1.19215 0.71458 0.10996
 H1384 H 1.13064 0.64585 0.05938
 H1385 H 1.16544 0.60204 0.16134
 H1386 H 1.13526 0.56056 0.14963
 H1387 H 1.09640 0.53736 0.11770
 H1388 H 1.09640 0.60614 0.05053
 C1389 C 0.67043 1.16645 0.66355
 C1390 C 0.65442 1.14938 0.64202
 C1391 C 0.66778 1.14150 0.61274
 C1392 C 0.69683 1.15173 0.60524
 C1393 C 0.71264 1.16901 0.62688
 C1394 C 0.69979 1.17612 0.65651
 C1395 C 0.65198 1.12337 0.59180
 C1396 C 0.62299 1.11317 0.59993
 C1397 C 0.60963 1.12185 0.62902
 C1398 C 0.62536 1.13981 0.64975
 C1399 C 0.58079 1.11215 0.63729
 C1400 C 0.56538 1.09349 0.61741
 C1401 C 0.57839 1.08397 0.58877
 C1402 C 0.60720 1.09418 0.57989
 H1403 H 0.65996 1.17208 0.68608
 H1404 H 0.70746 1.14609 0.58284
 H1405 H 0.73519 1.17617 0.62083
 H1406 H 0.66232 1.11699 0.56947
 H1407 H 0.61510 1.14607 0.67219
 H1408 H 0.57024 1.11875 0.65941
 H1409 H 0.54327 1.08618 0.62483
 H1410 H 0.61746 1.08707 0.55782
 C1411 C 0.82527 0.33869 0.15948
 C1412 C 0.84155 0.35514 0.13792
 C1413 C 0.84934 0.34417 0.10763
 C1414 C 0.83950 0.31719 0.09903
 C1415 C 0.82294 0.30096 0.12067
 C1416 C 0.81635 0.31140 0.15127
 C1417 C 0.86732 0.36012 0.08686
 C1418 C 0.87766 0.38676 0.09621
 C1419 C 0.86878 0.39800 0.12608
 C1420 C 0.85070 0.38218 0.14665
 C1421 C 0.87887 0.42461 0.13538
 C1422 C 0.89867 0.43954 0.11594
 C1423 C 0.90869 0.42813 0.08687
 C1424 C 0.89750 0.40201 0.07670
 H1425 H 0.81973 0.34708 0.18286
 H1426 H 0.84503 0.30850 0.07582
 H1427 H 0.81605 0.27997 0.11386
 H1428 H 0.87387 0.35156 0.06386
 H1429 H 0.84441 0.39061 0.16980
 H1430 H 0.87206 0.43358 0.15807
 H1431 H 0.90681 0.45974 0.12414
 H1432 H 0.90500 0.39316 0.05419
 C1433 C 0.32786 0.83849 0.67080
 C1434 C 0.34341 0.85532 0.64880
 C1435 C 0.33497 0.85513 0.61621
 C1436 C 0.31140 0.83736 0.60614
 C1437 C 0.29627 0.82012 0.62814
 C1438 C 0.30397 0.82058 0.66101
 C1439 C 0.35030 0.87264 0.59439
 C1440 C 0.37433 0.88990 0.60484
 C1441 C 0.38308 0.88924 0.63746
 C1442 C 0.36746 0.87225 0.65915
 C1443 C 0.40744 0.90559 0.64806
 C1444 C 0.42304 0.92266 0.62674
 C1445 C 0.41443 0.92420 0.59438
 C1446 C 0.38992 0.90772 0.58346
 H1447 H 0.33483 0.83935 0.69571
 H1448 H 0.30465 0.83675 0.58119
 H1449 H 0.27820 0.80678 0.61929
 H1450 H 0.34364 0.87275 0.56938
 H1451 H 0.37413 0.87212 0.68417
 H1452 H 0.41447 0.90518 0.67293
 H1453 H 0.44171 0.93511 0.63586
 H1454 H 0.38322 0.90860 0.55850
 C1455 C 0.34139 1.17869 -0.15091
 C1456 C 0.35732 1.16125 -0.12989
 C1457 C 0.34537 1.15533 -0.09929
 C1458 C 0.31839 1.16840 -0.08968
 C1459 C 0.30263 1.18594 -0.11087
 C1460 C 0.31359 1.19041 -0.14195
 C1461 C 0.36005 1.13575 -0.07942
 C1462 C 0.38633 1.12200 -0.09002
 C1463 C 0.39885 1.12912 -0.12008
 C1464 C 0.38438 1.14876 -0.13968
 C1465 C 0.42520 1.11584 -0.13065
 C1466 C 0.43846 1.09480 -0.11230
 C1467 C 0.42559 1.08655 -0.08308
 C1468 C 0.39985 1.10065 -0.07163
 H1469 H 0.35014 1.18242 -0.17476
 H1470 H 0.30899 1.16437 -0.06622
 H1471 H 0.28118 1.19487 -0.10355
 H1472 H 0.35056 1.13062 -0.05626
 H1473 H 0.39364 1.15362 -0.16304
 H1474 H 0.43519 1.12127 -0.15347
 H1475 H 0.45846 1.08447 -0.12152
 H1476 H 0.38997 1.09457 -0.04897
 C1477 C 0.82413 0.66390 0.34207
 C1478 C 0.84165 0.64801 0.36335
 C1479 C 0.85144 0.65991 0.39257
 C1480 C 0.84246 0.68739 0.40034
 C1481 C 0.82476 0.70314 0.37890
 C1482 C 0.81603 0.69169 0.34930
 C1483 C 0.87042 0.64430 0.41307
 C1484 C 0.87972 0.61707 0.40449
 C1485 C 0.86903 0.60511 0.37558
 C1486 C 0.85003 0.62058 0.35533
 C1487 C 0.87805 0.57801 0.36692
 C1488 C 0.89826 0.56307 0.38613
 C1489 C 0.90985 0.57489 0.41443
 C1490 C 0.90005 0.60177 0.42384
 H1491 H 0.81709 0.65466 0.31952
 H1492 H 0.84956 0.69685 0.42272
 H1493 H 0.81871 0.72449 0.38499
 H1494 H 0.87838 0.65350 0.43530
 H1495 H 0.84228 0.61148 0.33295
 H1496 H 0.86989 0.56854 0.34493
 H1497 H 0.90528 0.54238 0.37845
 H1498 H 0.90880 0.61104 0.44568
 C1499 C 0.65987 1.17744 0.15369
 C1500 C 0.64470 1.15988 0.13216
 C1501 C 0.65880 1.15191 0.10324
 C1502 C 0.68737 1.16304 0.09571
 C1503 C 0.70232 1.18078 0.11734
 C1504 C 0.68901 1.18738 0.14686
 C1505 C 0.64450 1.13237 0.08298
 C1506 C 0.61640 1.12072 0.09151
 C1507 C 0.60191 1.12988 0.11981
 C1508 C 0.61606 1.14942 0.13981
 C1509 C 0.57381 1.11873 0.12833
 C1510 C 0.56062 1.09779 0.10982
 C1511 C 0.57523 1.08749 0.08240
 C1512 C 0.60287 1.09950 0.07285
 H1513 H 0.64931 1.18280 0.17627
 H1514 H 0.69847 1.15742 0.07355
 H1515 H 0.72483 1.18830 0.11165
 H1516 H 0.65557 1.12569 0.06116
 H1517 H 0.60517 1.15584 0.16185
 H1518 H 0.56234 1.12574 0.14977
 H1519 H 0.53915 1.08918 0.11753
 H1520 H 0.61418 1.09183 0.05161
 C1521 C 1.17216 0.66551 0.66152
 C1522 C 1.15496 0.64963 0.63993
 C1523 C 1.14502 0.66175 0.61089
 C1524 C 1.15346 0.68949 0.60365
 C1525 C 1.17085 0.70523 0.62541
 C1526 C 1.17981 0.69352 0.65481
 C1527 C 1.12648 0.64605 0.59000
 C1528 C 1.11778 0.61851 0.59804
 C1529 C 1.12856 0.60640 0.62683
 C1530 C 1.14711 0.62196 0.64745
 C1531 C 1.12013 0.57903 0.63500
 C1532 C 1.10043 0.56392 0.61539
 C1533 C 1.08879 0.57579 0.58715
 C1534 C 1.09798 0.60301 0.57825
 H1535 H 1.17937 0.65603 0.68388
 H1536 H 1.14624 0.69914 0.58142
 H1537 H 1.17654 0.72675 0.61968
 H1538 H 1.11844 0.65540 0.56789
 H1539 H 1.15496 0.61270 0.66971
 H1540 H 1.12835 0.56945 0.65690
 H1541 H 1.09388 0.54299 0.62270
 H1542 H 1.08917 0.61236 0.55647
 C1543 C 0.65977 0.82496 -0.15725
 C1544 C 0.64425 0.84190 -0.13548
 C1545 C 0.65744 0.84821 -0.10544
 C1546 C 0.68542 0.83614 -0.09714
 C1547 C 0.70068 0.81898 -0.11896
 C1548 C 0.68830 0.81395 -0.14945
 C1549 C 0.64282 0.86700 -0.08470
 C1550 C 0.61523 0.87948 -0.09379
 C1551 C 0.60158 0.87198 -0.12331
 C1552 C 0.61611 0.85325 -0.14386
 C1553 C 0.57391 0.88389 -0.13233
 C1554 C 0.56033 0.90396 -0.11299
 C1555 C 0.57420 0.91263 -0.08430
 C1556 C 0.60140 0.89988 -0.07439
 H1557 H 0.64993 0.82081 -0.18060
 H1558 H 0.69580 0.84049 -0.07413
 H1559 H 0.72270 0.81060 -0.11252
 H1560 H 0.65321 0.87241 -0.06196
 H1561 H 0.60588 0.84808 -0.16678
 H1562 H 0.56305 0.87815 -0.15470
 H1563 H 0.53922 0.91322 -0.12104
 H1564 H 0.61209 0.90628 -0.05217
 C1565 C 1.16494 0.33474 0.33019
 C1566 C 1.14791 0.35009 0.35235
 C1567 C 1.13963 0.33774 0.38176
 C1568 C 1.14924 0.31028 0.38868
 C1569 C 1.16657 0.29517 0.36651
 C1570 C 1.17427 0.30714 0.33691
 C1571 C 1.12177 0.35301 0.40353
 C1572 C 1.11226 0.38047 0.39618
 C1573 C 1.12127 0.39282 0.36694
 C1574 C 1.13895 0.37759 0.34529
 C1575 C 1.11214 0.42017 0.35949
 C1576 C 1.09364 0.43508 0.38039
 C1577 C 1.08381 0.42300 0.40920
 C1578 C 1.09356 0.39572 0.41723
 H1579 H 1.17105 0.34442 0.30765
 H1580 H 1.14326 0.30045 0.41115
 H1581 H 1.17349 0.27396 0.37230
 H1582 H 1.11511 0.34347 0.42598
 H1583 H 1.14552 0.38709 0.32277
 H1584 H 1.11899 0.42995 0.33727
 H1585 H 1.08663 0.45604 0.37365
 H1586 H 1.08615 0.38621 0.43940
 C1587 C 0.34325 0.82204 0.15655
 C1588 C 0.35838 0.83983 0.13539
 C1589 C 0.34581 0.84548 0.10488
 C1590 C 0.31890 0.83197 0.09558
 C1591 C 0.30399 0.81404 0.11687
 C1592 C 0.31567 0.80961 0.14779
 C1593 C 0.35994 0.86505 0.08470
 C1594 C 0.38638 0.87897 0.09482
 C1595 C 0.39942 0.87222 0.12487
 C1596 C 0.38541 0.85270 0.14485
 C1597 C 0.42595 0.88560 0.13496
 C1598 C 0.43903 0.90624 0.11603
 C1599 C 0.42578 0.91403 0.08670
 C1600 C 0.39968 0.89998 0.07585
 H1601 H 0.35260 0.81838 0.18023
 H1602 H 0.30902 0.83581 0.07221
 H1603 H 0.28270 0.80459 0.10967
 H1604 H 0.35002 0.86990 0.06156
 H1605 H 0.39515 0.84806 0.16815
 H1606 H 0.43632 0.88048 0.15778
 H1607 H 0.45928 0.91656 0.12483
 H1608 H 0.38949 0.90570 0.05313
 C1609 C 0.83606 0.33117 0.66727
 C1610 C 0.85273 0.34740 0.64566
 C1611 C 0.86083 0.33611 0.61565
 C1612 C 0.85139 0.30882 0.60763
 C1613 C 0.83446 0.29279 0.62932
 C1614 C 0.82697 0.30369 0.65950
 C1615 C 0.87836 0.35225 0.59442
 C1616 C 0.88775 0.37949 0.60295
 C1617 C 0.87896 0.39078 0.63280
 C1618 C 0.86154 0.37470 0.65388
 C1619 C 0.88804 0.41791 0.64138
 C1620 C 0.90630 0.43361 0.62098
 C1621 C 0.91588 0.42256 0.59157
 C1622 C 0.90616 0.39553 0.58245
 H1623 H 0.83009 0.34008 0.69026
 H1624 H 0.85725 0.29981 0.58468
 H1625 H 0.82769 0.27173 0.62271
 H1626 H 0.88489 0.34354 0.57150
 H1627 H 0.85512 0.38336 0.67688
 H1628 H 0.88136 0.42687 0.66411
 H1629 H 0.91335 0.45435 0.62854
 H1630 H 0.91337 0.38680 0.55978
 C1631 C 1.15107 1.17850 0.65304
 C1632 C 1.12755 1.16336 0.63806
 C1633 C 1.10247 1.15402 0.65627
 C1634 C 1.10053 1.16091 0.68857
 C1635 C 1.12393 1.17551 0.70328
 C1636 C 1.14987 1.18379 0.68604
 C1637 C 1.08040 1.13676 0.64244
 C1638 C 1.08357 1.12768 0.61090
 C1639 C 1.10779 1.13799 0.59210
 C1640 C 1.12932 1.15618 0.60563
 C1641 C 1.11118 1.12845 0.56069
 C1642 C 1.09257 1.10708 0.54914
 C1643 C 1.06994 1.09531 0.56858
 C1644 C 1.06434 1.10677 0.59875
 H1645 H 1.17069 1.18504 0.63942
 H1646 H 1.08134 1.15424 0.70277
 H1647 H 1.12177 1.17991 0.72856
 H1648 H 1.06177 1.12903 0.65682
 H1649 H 1.14833 1.16339 0.59146
 H1650 H 1.12931 1.13628 0.54574
 H1651 H 1.09694 1.09871 0.52550
 H1652 H 1.04698 1.09766 0.61380
 C1653 C 0.65857 0.67692 0.15986
 C1654 C 0.64528 0.65833 0.13795
 C1655 C 0.66062 0.65125 0.10944
 C1656 C 0.68864 0.66387 0.10286
 C1657 C 0.70165 0.68264 0.12475
 C1658 C 0.68697 0.68889 0.15369
 C1659 C 0.64790 0.63137 0.08839
 C1660 C 0.62001 0.61861 0.09558
 C1661 C 0.60443 0.62664 0.12369
 C1662 C 0.61711 0.64635 0.14459
 C1663 C 0.57652 0.61448 0.13094
 C1664 C 0.56439 0.59392 0.11114
 C1665 C 0.57987 0.58488 0.08364
 C1666 C 0.60757 0.59765 0.07561
 H1667 H 0.64692 0.68183 0.18195
 H1668 H 0.70073 0.65888 0.08109
 H1669 H 0.72366 0.69155 0.11952
 H1670 H 0.65987 0.62555 0.06678
 H1671 H 0.60526 0.65203 0.16634
 H1672 H 0.56423 0.62058 0.15223
 H1673 H 0.54289 0.58472 0.11784
 H1674 H 0.61961 0.59096 0.05439
 C1675 C 1.16891 0.81668 0.35869
 C1676 C 1.14707 0.83261 0.37496
 C1677 C 1.11793 0.83645 0.36119
 C1678 C 1.11054 0.82323 0.33241
 C1679 C 1.13243 0.80799 0.31617
 C1680 C 1.16199 0.80542 0.32857
 C1681 C 1.09712 0.85459 0.37542
 C1682 C 1.10526 0.86961 0.40279
 C1683 C 1.13372 0.86482 0.41760
 C1684 C 1.15436 0.84608 0.40377
 C1685 C 1.14154 0.87983 0.44521
 C1686 C 1.12208 0.90045 0.45693
 C1687 C 1.09463 0.90641 0.44111
 C1688 C 1.08590 0.89035 0.41466
 H1689 H 1.19165 0.81462 0.36837
 H1690 H 1.08824 0.82564 0.32177
 H1691 H 1.12646 0.79884 0.29328
 H1692 H 1.07516 0.85807 0.36429
 H1693 H 1.17653 0.84303 0.41456
 H1694 H 1.16308 0.87628 0.45711
 H1695 H 1.12911 0.91249 0.47765
 H1696 H 1.06454 0.89464 0.40266
 C1697 C 0.66078 0.32473 -0.16610
 C1698 C 0.64652 0.34349 -0.14513
 C1699 C 0.65802 0.34725 -0.11378
 C1700 C 0.68318 0.33156 -0.10371
 C1701 C 0.69716 0.31277 -0.12467
 C1702 C 0.68635 0.30943 -0.15619
 C1703 C 0.64437 0.36681 -0.09320
 C1704 C 0.61925 0.38252 -0.10356
 C1705 C 0.60742 0.37812 -0.13471
 C1706 C 0.62114 0.35876 -0.15525
 C1707 C 0.58210 0.39331 -0.14502
 C1708 C 0.56872 0.41296 -0.12491
 C1709 C 0.58049 0.41806 -0.09413
 C1710 C 0.60578 0.40266 -0.08346
 H1711 H 0.65209 0.32225 -0.19024
 H1712 H 0.69228 0.33405 -0.07976
 H1713 H 0.71694 0.30137 -0.11641
 H1714 H 0.65340 0.36992 -0.06928
 H1715 H 0.61219 0.35572 -0.17922
 H1716 H 0.57269 0.39011 -0.16874
 H1717 H 0.54926 0.42448 -0.13376
 H1718 H 0.61489 0.40633 -0.05970
 C1719 C 0.85788 1.17213 0.32820
 C1720 C 0.87602 1.15611 0.34877
 C1721 C 0.86651 1.15148 0.38057
 C1722 C 0.83950 1.16372 0.39146
 C1723 C 0.82147 1.17963 0.37069
 C1724 C 0.83019 1.18348 0.33873
 C1725 C 0.88365 1.13401 0.40059
 C1726 C 0.90972 1.12067 0.38895
 C1727 C 0.91978 1.12595 0.35749
 C1728 C 0.90300 1.14394 0.33767
 C1729 C 0.94580 1.11224 0.34606
 C1730 C 0.96069 1.09228 0.36503
 C1731 C 0.94981 1.08599 0.39566
 C1732 C 0.92503 1.10105 0.40786
 H1733 H 0.86515 1.17533 0.30374
 H1734 H 0.83200 1.16046 0.41583
 H1735 H 0.80035 1.18827 0.37938
 H1736 H 0.87608 1.12997 0.42482
 H1737 H 0.91032 1.14765 0.31329
 H1738 H 0.95393 1.11620 0.32206
 H1739 H 0.97982 1.08095 0.35528
 H1740 H 0.91670 1.09658 0.43169
 C1741 C 0.34165 0.67589 -0.16080
 C1742 C 0.35637 0.65744 -0.13970
 C1743 C 0.34280 0.65041 -0.11020
 C1744 C 0.31504 0.66279 -0.10193
 C1745 C 0.30061 0.68140 -0.12301
 C1746 C 0.31355 0.68775 -0.15285
 C1747 C 0.35701 0.63089 -0.08977
 C1748 C 0.38467 0.61844 -0.09853
 C1749 C 0.39846 0.62630 -0.12771
 C1750 C 0.38426 0.64564 -0.14803
 C1751 C 0.42614 0.61440 -0.13649
 C1752 C 0.43985 0.59437 -0.11703
 C1753 C 0.42618 0.58562 -0.08838
 C1754 C 0.39866 0.59801 -0.07897
 H1755 H 0.35202 0.68083 -0.18359
 H1756 H 0.30430 0.65782 -0.07938
 H1757 H 0.27889 0.69018 -0.11636
 H1758 H 0.34641 0.62517 -0.06734
 H1759 H 0.39477 0.65125 -0.17056
 H1760 H 0.43706 0.62034 -0.15865
 H1761 H 0.46111 0.58537 -0.12484
 H1762 H 0.38800 0.59153 -0.05686
 C1763 C 0.83088 0.83145 0.64043
 C1764 C 0.85210 0.84889 0.62522
 C1765 C 0.88211 0.85065 0.63732
 C1766 C 0.89081 0.83416 0.66341
 C1767 C 0.86956 0.81740 0.67868
 C1768 C 0.83933 0.81654 0.66796
 C1769 C 0.90270 0.86961 0.62403
 C1770 C 0.89370 0.88717 0.59895
 C1771 C 0.86412 0.88475 0.58594
 C1772 C 0.84353 0.86557 0.59908
 C1773 C 0.85549 0.90199 0.56036
 C1774 C 0.87573 0.92177 0.54826
 C1775 C 0.90475 0.92491 0.56182
 C1776 C 0.91371 0.90742 0.58702
 H1777 H 0.80753 0.83090 0.63221
 H1778 H 0.91374 0.83502 0.67277
 H1779 H 0.87655 0.80569 0.69969
 H1780 H 0.92546 0.87126 0.63380
 H1781 H 0.82066 0.86417 0.58955
 H1782 H 0.83304 0.90036 0.54990
 H1783 H 0.86844 0.93503 0.52863
 H1784 H 0.93624 0.90951 0.59724
 C1785 C 0.34266 0.32882 0.16167
 C1786 C 0.35723 0.34704 0.14030
 C1787 C 0.34515 0.35132 0.10927
 C1788 C 0.31903 0.33671 0.09991
 C1789 C 0.30482 0.31837 0.12119
 C1790 C 0.31629 0.31445 0.15237
 C1791 C 0.35924 0.37023 0.08825
 C1792 C 0.38547 0.38473 0.09779
 C1793 C 0.39784 0.37980 0.12861
 C1794 C 0.38362 0.36116 0.14964
 C1795 C 0.42426 0.39370 0.13810
 C1796 C 0.43821 0.41258 0.11751
 C1797 C 0.42596 0.41825 0.08704
 C1798 C 0.39955 0.40414 0.07718
 H1799 H 0.35184 0.32587 0.18554
 H1800 H 0.30944 0.33960 0.07623
 H1801 H 0.28439 0.30772 0.11342
 H1802 H 0.34977 0.37372 0.06458
 H1803 H 0.39305 0.35772 0.17334
 H1804 H 0.43410 0.39007 0.16154
 H1805 H 0.45855 0.42308 0.12578
 H1806 H 0.39003 0.40823 0.05369
   
