data_POSCAR
  _audit_creation_date              2014-09-24
  _audit_creation_method            'ToBaCCo'
  _symmetry_space_group_name_H-M    'P1'
  _symmetry_Int_Tables_number       1
  _symmetry_cell_setting            triclinic
  loop_
  _symmetry_equiv_pos_as_xyz
 x,y,z
_cell_length_a 51.9679
_cell_length_b 51.1464
_cell_length_c 52.4973
_cell_angle_alpha 87.695200
_cell_angle_beta 87.443500
_cell_angle_gamma 88.239300
loop_
  _atom_site_label
  _atom_site_type_symbol
  _atom_site_fract_x
  _atom_site_fract_y
  _atom_site_fract_z
C1 C 0.79464 0.64984 1.00530
 C2 C 0.79891 0.62947 0.98467
 C3 C 0.77829 0.61415 0.98192
 C4 C 0.75536 0.62031 1.00043
 C5 C 0.76993 0.66501 0.99741
 C6 C 0.74930 0.64954 0.99509
 C7 C 0.78663 0.63406 1.02956
 C8 C 0.76602 0.61876 1.02728
 H9 H 0.81498 0.62995 0.97083
 H10 H 0.73881 0.60755 0.99824
 H11 H 0.76915 0.68588 0.99310
 H12 H 0.79639 0.63544 1.04724
 C13 C 0.79849 0.36129 0.48304
 C14 C 0.80059 0.38121 0.50393
 C15 C 0.77834 0.39501 0.50928
 C16 C 0.75576 0.38761 0.49339
 C17 C 0.77604 0.34417 0.49289
 C18 C 0.75358 0.35785 0.49809
 C19 C 0.78799 0.37722 0.46027
 C20 C 0.76564 0.39091 0.46546
 H21 H 0.81719 0.38253 0.51547
 H22 H 0.73775 0.39895 0.49801
 H23 H 0.77775 0.32306 0.49508
 H24 H 0.79773 0.37758 0.44159
 C25 C 0.29490 -0.13608 -0.03017
 C26 C 0.30106 -0.11710 -0.01150
 C27 C 0.27979 -0.10021 -0.00388
 C28 C 0.25651 -0.10481 -0.01773
 C29 C 0.27237 -0.14953 -0.01934
 C30 C 0.25081 -0.13250 -0.01259
 C31 C 0.28566 -0.11972 -0.05144
 C32 C 0.26416 -0.10260 -0.04504
 H33 H 0.31974 -0.11639 -0.00334
 H34 H 0.24067 -0.09124 -0.01222
 H35 H 0.27145 -0.17067 -0.01861
 H36 H 0.29668 -0.11740 -0.06932
 C37 C 0.29361 0.14602 0.49828
 C38 C 0.30048 0.12655 0.47738
 C39 C 0.28084 0.11114 0.47169
 C40 C 0.25598 0.11632 0.48772
 C41 C 0.26973 0.16136 0.48828
 C42 C 0.25016 0.14563 0.48250
 C43 C 0.28309 0.12938 0.52101
 C44 C 0.26332 0.11400 0.51576
 H45 H 0.31830 0.12734 0.46587
 H46 H 0.24011 0.10343 0.48324
 H47 H 0.26936 0.18199 0.48299
 H48 H 0.28918 0.13174 0.54024
 C49 C 0.14080 0.50824 0.29513
 C50 C 0.11772 0.49029 0.29905
 C51 C 0.10371 0.48826 0.27794
 C52 C 0.11385 0.50481 0.25473
 C53 C 0.15606 0.49693 0.27206
 C54 C 0.14206 0.49532 0.25084
 C55 C 0.12939 0.53436 0.28516
 C56 C 0.11551 0.53288 0.26393
 H57 H 0.11529 0.47686 0.31539
 H58 H 0.10216 0.50315 0.23773
 H59 H 0.17603 0.49037 0.27269
 H60 H 0.13245 0.55259 0.29423
 C61 C -0.15322 -0.02062 0.28596
 C62 C -0.13731 0.00252 0.29292
 C63 C -0.12060 0.01129 0.27402
 C64 C -0.12112 -0.00437 0.24956
 C65 C -0.16640 -0.01078 0.26149
 C66 C -0.14959 -0.00232 0.24242
 C67 C -0.13447 -0.04035 0.27754
 C68 C -0.11682 -0.03199 0.25725
 H69 H -0.13982 0.01169 0.31114
 H70 H -0.10811 0.00354 0.23408
 H71 H -0.18688 -0.01062 0.25894
 H72 H -0.13373 -0.05964 0.28673
 C73 C 0.35589 0.46379 0.79414
 C74 C 0.37656 0.48290 0.80076
 C75 C 0.39167 0.49165 0.78053
 C76 C 0.38479 0.48024 0.75511
 C77 C 0.34088 0.47794 0.77296
 C78 C 0.35587 0.48647 0.75258
 C79 C 0.37142 0.44191 0.78063
 C80 C 0.38626 0.45039 0.76008
 H81 H 0.37883 0.48911 0.81998
 H82 H 0.39688 0.48713 0.73835
 H83 H 0.32007 0.48014 0.77366
 H84 H 0.37191 0.42163 0.78723
 C85 C 0.64604 0.99530 0.79016
 C86 C 0.62944 0.97107 0.79390
 C87 C 0.61502 0.96649 0.77369
 C88 C 0.61854 0.98661 0.75132
 C89 C 0.66224 0.98990 0.76552
 C90 C 0.64786 0.98532 0.74508
 C91 C 0.62840 1.01664 0.78337
 C92 C 0.61324 1.01252 0.76176
 H93 H 0.63115 0.95704 0.80979
 H94 H 0.60688 0.98144 0.73527
 H95 H 0.68306 0.98837 0.76469
 H96 H 0.62951 1.03530 0.79216
 C97 C -0.02529 0.29930 -0.14207
 C98 C -0.00183 0.30568 -0.12701
 C99 C 0.00897 0.28481 -0.11413
 C100 C -0.00529 0.25923 -0.11682
 C101 C -0.01614 0.27675 -0.15879
 C102 C -0.00543 0.25574 -0.14590
 C103 C -0.04375 0.28688 -0.12178
 C104 C -0.03359 0.26582 -0.10854
 H105 H 0.00495 0.32535 -0.12562
 H106 H 0.00360 0.24256 -0.10598
 H107 H -0.01845 0.27752 -0.17920
 H108 H -0.06338 0.29390 -0.11851
 C109 C 0.51006 0.28777 0.14340
 C110 C 0.48727 0.29416 0.12653
 C111 C 0.48021 0.27396 0.11256
 C112 C 0.49702 0.24903 0.11624
 C113 C 0.50185 0.26323 0.15939
 C114 C 0.49471 0.24309 0.14523
 C115 C 0.53163 0.27757 0.12526
 C116 C 0.52509 0.25744 0.11085
 H117 H 0.47591 0.31223 0.12774
 H118 H 0.49093 0.23291 0.10456
 H119 H 0.50114 0.26167 0.17996
 H120 H 0.55108 0.28449 0.12555
 C121 C 1.00570 0.79401 0.64311
 C122 C 0.98776 0.79979 0.62291
 C123 C 0.98184 0.77750 0.60872
 C124 C 0.99558 0.75352 0.61746
 C125 C 0.99358 0.77297 0.65861
 C126 C 0.98787 0.75028 0.64468
 C127 C 1.02824 0.78201 0.63051
 C128 C 1.02311 0.75957 0.61631
 H129 H 0.97513 0.81701 0.62277
 H130 H 0.99141 0.73717 0.60546
 H131 H 0.98894 0.77476 0.67875
 H132 H 1.04754 0.78826 0.63362
 C133 C 0.47315 0.78661 0.36883
 C134 C 0.49549 0.79295 0.38538
 C135 C 0.50489 0.77218 0.39936
 C136 C 0.49128 0.74650 0.39549
 C137 C 0.48399 0.76401 0.35263
 C138 C 0.49316 0.74286 0.36649
 C139 C 0.45327 0.77384 0.38741
 C140 C 0.46253 0.75289 0.40140
 H141 H 0.50338 0.81229 0.38584
 H142 H 0.49906 0.72983 0.40721
 H143 H 0.48564 0.76485 0.33206
 H144 H 0.43315 0.78005 0.38812
 C145 C 0.38217 -0.01187 0.26770
 H146 H 0.38116 0.00779 0.27462
 C147 C 0.39471 -0.03187 0.28162
 H148 H 0.40375 -0.02734 0.29903
 C149 C 0.37102 -0.04167 0.23686
 H150 H 0.36110 -0.04557 0.21983
 C151 C 0.38341 -0.06226 0.25016
 H152 H 0.38294 -0.08184 0.24311
 N153 N 0.37063 -0.01705 0.24580
 C154 C 0.36097 0.05863 0.20585
 H155 H 0.34066 0.05788 0.20229
 C156 C 0.37464 0.08083 0.19828
 H157 H 0.36480 0.09707 0.18860
 C158 C 0.39836 0.03828 0.22296
 H159 H 0.40747 0.02167 0.23264
 C160 C 0.41287 0.06009 0.21549
 H161 H 0.43306 0.06021 0.21976
 Zn162 Zn 0.35130 0.01061 0.23021
 N163 N 0.37274 0.03826 0.21859
 C164 C 0.32955 0.04761 0.26363
 N165 N 0.32749 0.02281 0.25573
 C166 C 0.31173 0.00554 0.26858
 C167 C 0.29810 0.01274 0.29095
 C168 C 0.31625 0.05562 0.28568
 C169 C 0.35149 -0.00829 0.18190
 C170 C 0.34196 -0.01584 0.15904
 C171 C 0.29872 -0.00774 0.17636
 C172 C 0.30915 -0.00042 0.19909
 N173 N 0.33514 -0.00089 0.20136
 H174 H 0.34277 0.06084 0.25386
 H175 H 0.31086 -0.01426 0.26222
 H176 H 0.28633 -0.00148 0.30144
 H177 H 0.31950 0.07499 0.29225
 H178 H 0.37207 -0.00822 0.18419
 H179 H 0.35546 -0.02214 0.14406
 H180 H 0.27802 -0.00690 0.17466
 H181 H 0.29655 0.00600 0.21470
 C182 C 0.40082 0.08193 0.20348
 C183 C 0.39522 -0.05753 0.27302
 C184 C 0.31526 -0.01541 0.15587
 C185 C 0.30077 0.03794 0.30008
 C186 C 0.09660 1.05266 0.78518
 H187 H 0.10615 1.03924 0.79835
 C188 C 0.08309 1.07456 0.79445
 H189 H 0.08275 1.07796 0.81469
 C190 C 0.08610 1.06497 0.74283
 H191 H 0.08743 1.06132 0.72272
 C192 C 0.07249 1.08718 0.75127
 H193 H 0.06329 1.10028 0.73750
 N194 N 0.09836 1.04856 0.75970
 C195 C 0.11483 0.97339 0.72576
 H196 H 0.13547 0.97501 0.72279
 C197 C 0.10279 0.95128 0.71814
 H198 H 0.11425 0.93596 0.70903
 C199 C 0.07489 0.99169 0.74113
 H200 H 0.06426 1.00752 0.75024
 C201 C 0.06194 0.96991 0.73348
 H202 H 0.04127 0.96897 0.73681
 Zn203 Zn 0.12022 1.02088 0.74762
 N204 N 0.10091 0.99280 0.73740
 C205 C 0.13976 0.98331 0.78305
 N206 N 0.14178 1.00859 0.77426
 C207 C 0.15764 1.02517 0.78525
 C208 C 0.17251 1.01632 0.80564
 C209 C 0.15438 0.97365 0.80310
 C210 C 0.12673 1.03453 0.69619
 C211 C 0.13921 1.04223 0.67320
 C212 C 0.17858 1.04546 0.69547
 C213 C 0.16530 1.03759 0.71814
 N214 N 0.13971 1.03265 0.71815
 H215 H 0.12644 0.97058 0.77489
 H216 H 0.15844 1.04538 0.77843
 H217 H 0.18513 1.02967 0.81412
 H218 H 0.15226 0.95352 0.80989
 H219 H 0.10665 1.02957 0.69644
 H220 H 0.12847 1.04322 0.65597
 H221 H 0.19881 1.04980 0.69590
 H222 H 0.17548 1.03544 0.73561
 C223 C 0.07607 0.94923 0.72216
 C224 C 0.07130 1.09247 0.77734
 C225 C 0.16546 1.04799 0.67260
 C226 C 0.17107 0.99016 0.81464
 C227 C 0.58771 0.53773 0.28815
 H228 H 0.58705 0.51837 0.29720
 C229 C 0.57334 0.55846 0.29879
 H230 H 0.56132 0.55485 0.31587
 C231 C 0.60459 0.56606 0.25513
 H232 H 0.61728 0.56917 0.23852
 C233 C 0.59046 0.58725 0.26500
 H234 H 0.59243 0.60644 0.25576
 N235 N 0.60290 0.54186 0.26667
 C236 C 0.61753 0.46803 0.22967
 H237 H 0.63828 0.46904 0.22750
 C238 C 0.60500 0.44745 0.21947
 H239 H 0.61630 0.43247 0.20969
 C240 C 0.57775 0.48637 0.24536
 H241 H 0.56726 0.50179 0.25521
 C242 C 0.56440 0.46591 0.23558
 H243 H 0.54360 0.46572 0.23796
 Zn244 Zn 0.62380 0.51379 0.25426
 N245 N 0.60388 0.48689 0.24239
 C246 C 0.64133 0.47487 0.28941
 N247 N 0.64381 0.50030 0.28132
 C248 C 0.65923 0.51651 0.29328
 C249 C 0.67331 0.50710 0.31400
 C250 C 0.65504 0.46468 0.30994
 C251 C 0.63228 0.53221 0.20433
 C252 C 0.64605 0.53985 0.18202
 C253 C 0.68551 0.53324 0.20438
 C254 C 0.67094 0.52559 0.22631
 N255 N 0.64479 0.52543 0.22592
 H256 H 0.62841 0.46247 0.28024
 H257 H 0.66049 0.53678 0.28676
 H258 H 0.68575 0.52016 0.32309
 H259 H 0.65248 0.44447 0.31624
 H260 H 0.61148 0.53157 0.20449
 H261 H 0.63564 0.54554 0.16517
 H262 H 0.70632 0.53310 0.20491
 H263 H 0.68056 0.51954 0.24349
 C264 C 0.57810 0.44620 0.22233
 C265 C 0.57466 0.58363 0.28717
 C266 C 0.67304 0.54042 0.18182
 C267 C 0.67137 0.48080 0.32249
 C268 C 0.87416 0.49852 0.76801
 H269 H 0.87276 0.51706 0.77727
 C270 C 0.88899 0.47786 0.77837
 H271 H 0.89894 0.48064 0.79571
 C272 C 0.86176 0.47205 0.73486
 H273 H 0.85075 0.46968 0.71819
 C274 C 0.87625 0.45084 0.74466
 H275 H 0.87663 0.43246 0.73508
 N276 N 0.86102 0.49533 0.74658
 C277 C 0.84699 0.57375 0.71338
 H278 H 0.82644 0.57340 0.71101
 C279 C 0.86061 0.59597 0.70554
 H280 H 0.85043 0.61274 0.69714
 C281 C 0.88536 0.55201 0.72658
 H282 H 0.89501 0.53478 0.73452
 C283 C 0.89978 0.57369 0.71868
 H284 H 0.92039 0.57309 0.72104
 Zn285 Zn 0.83943 0.52339 0.73496
 N286 N 0.85937 0.55259 0.72425
 C287 C 0.81307 0.55720 0.76966
 N288 N 0.81666 0.53192 0.76282
 C289 C 0.80768 0.51179 0.77812
 C290 C 0.79589 0.51664 0.80200
 C291 C 0.80089 0.56294 0.79305
 C292 C 0.83710 0.51038 0.68493
 C293 C 0.82680 0.50188 0.66281
 C294 C 0.78518 0.49961 0.68513
 C295 C 0.79636 0.50828 0.70697
 N296 N 0.82197 0.51311 0.70647
 H297 H 0.82077 0.57295 0.75769
 H298 H 0.81114 0.49184 0.77247
 H299 H 0.79001 0.50039 0.81456
 H300 H 0.79930 0.58310 0.79866
 H301 H 0.85742 0.51432 0.68516
 H302 H 0.83952 0.49900 0.64620
 H303 H 0.76482 0.49558 0.68578
 H304 H 0.78473 0.51072 0.72436
 C305 C 0.88733 0.59613 0.70831
 C306 C 0.89000 0.45358 0.76676
 C307 C 0.80054 0.49620 0.66268
 C308 C 0.79292 0.54249 0.80988
 C309 C 0.26575 0.38220 -0.00157
 H310 H 0.27628 0.38094 0.01577
 C311 C 0.27598 0.39563 -0.02323
 H312 H 0.29452 0.40461 -0.02245
 C313 C 0.22933 0.37094 -0.02400
 H314 H 0.21123 0.36116 -0.02432
 C315 C 0.23891 0.38400 -0.04608
 H316 H 0.22792 0.38433 -0.06315
 N317 N 0.24288 0.37010 -0.00238
 C318 C 0.20900 0.36045 0.07467
 H319 H 0.20561 0.33966 0.07522
 C320 C 0.20107 0.37535 0.09541
 H321 H 0.19134 0.36588 0.11178
 C322 C 0.22509 0.39802 0.05217
 H323 H 0.23431 0.40680 0.03522
 C324 C 0.21748 0.41370 0.07254
 H325 H 0.22132 0.43440 0.07116
 Zn326 Zn 0.23086 0.34991 0.02644
 N327 N 0.22097 0.37186 0.05370
 C328 C 0.26683 0.32790 0.06034
 N329 N 0.25839 0.32693 0.03626
 C330 C 0.27168 0.31281 0.01830
 C331 C 0.29472 0.29945 0.02417
 C332 C 0.28966 0.31492 0.06699
 C333 C 0.17854 0.34564 0.02064
 C334 C 0.15648 0.33747 0.00955
 C335 C 0.18116 0.30082 -0.00738
 C336 C 0.20291 0.30973 0.00411
 N337 N 0.20132 0.33216 0.01729
 H338 H 0.25667 0.33983 0.07420
 H339 H 0.26512 0.31302 -0.00097
 H340 H 0.30529 0.28880 0.00947
 H341 H 0.29649 0.31722 0.08593
 H342 H 0.17778 0.36377 0.03057
 H343 H 0.13880 0.34911 0.01159
 H344 H 0.18298 0.28381 -0.01904
 H345 H 0.22127 0.29956 0.00125
 C346 C 0.20538 0.40235 0.09459
 C347 C 0.26265 0.39633 -0.04596
 C348 C 0.15785 0.31538 -0.00547
 C349 C 0.30426 0.30083 0.04871
 C350 C 0.78785 0.08492 1.03263
 H351 H 0.79898 0.08563 1.01471
 C352 C 0.79788 0.07177 1.05400
 H353 H 0.81685 0.06250 1.05233
 C354 C 0.75029 0.09769 1.05680
 H355 H 0.73198 0.10822 1.05799
 C356 C 0.75946 0.08460 1.07854
 H357 H 0.74768 0.08475 1.09607
 N358 N 0.76458 0.09776 1.03447
 C359 C 0.73437 0.10998 0.95887
 H360 H 0.73183 0.13106 0.95863
 C361 C 0.72667 0.09605 0.93840
 H362 H 0.71792 0.10658 0.92255
 C363 C 0.74802 0.07072 0.98046
 H364 H 0.75618 0.06100 0.99702
 C365 C 0.74044 0.05595 0.96038
 H366 H 0.74308 0.03486 0.96152
 Zn367 Zn 0.75379 0.11840 1.00602
 N368 N 0.74496 0.09724 0.97925
 C369 C 0.79246 0.13646 0.97106
 N370 N 0.78172 0.13959 0.99488
 C371 C 0.79238 0.15545 1.01149
 C372 C 0.81477 0.16892 1.00428
 C373 C 0.81478 0.14940 0.96315
 C374 C 0.70178 0.12459 1.01825
 C375 C 0.67856 0.13697 1.02568
 C376 C 0.70074 0.17771 1.02662
 C377 C 0.72360 0.16454 1.01885
 N378 N 0.72376 0.13833 1.01531
 H379 H 0.78424 0.12329 0.95830
 H380 H 0.78391 0.15706 1.03058
 H381 H 0.82333 0.18107 1.01785
 H382 H 0.82296 0.14657 0.94409
 H383 H 0.70239 0.10383 1.01499
 H384 H 0.66135 0.12555 1.02771
 H385 H 0.70118 0.19838 1.03021
 H386 H 0.74121 0.17517 1.01611
 C387 C 0.72963 0.06867 0.93898
 C388 C 0.78378 0.07180 1.07748
 C389 C 0.67783 0.16382 1.03042
 C390 C 0.82644 0.16561 0.97993
 C391 C 0.27814 0.56905 0.54821
 H392 H 0.28665 0.56519 0.52951
 C393 C 0.28791 0.55614 0.56988
 H394 H 0.30388 0.54217 0.56779
 C395 C 0.24813 0.59327 0.57396
 H396 H 0.23314 0.60827 0.57561
 C397 C 0.25757 0.58118 0.59605
 H398 H 0.24943 0.58667 0.61449
 N399 N 0.25872 0.58736 0.55065
 C400 C 0.22908 0.60378 0.47514
 H401 H 0.22868 0.62488 0.47606
 C402 C 0.22130 0.59223 0.45335
 H403 H 0.21464 0.60458 0.43760
 C404 C 0.23814 0.56217 0.49484
 H405 H 0.24471 0.55064 0.51112
 C406 C 0.23021 0.54971 0.47334
 H407 H 0.23093 0.52854 0.47307
 Zn408 Zn 0.24897 0.60845 0.52204
 N409 N 0.23784 0.58879 0.49507
 C410 C 0.28881 0.62262 0.48664
 N411 N 0.27824 0.62754 0.51021
 C412 C 0.28949 0.64412 0.52572
 C413 C 0.31198 0.65692 0.51740
 C414 C 0.31118 0.63484 0.47766
 C415 C 0.19805 0.61762 0.53599
 C416 C 0.17555 0.63118 0.54359
 C417 C 0.19951 0.67096 0.54254
 C418 C 0.22158 0.65663 0.53449
 N419 N 0.22049 0.63036 0.53178
 H420 H 0.28028 0.60875 0.47483
 H421 H 0.28122 0.64712 0.54469
 H422 H 0.32081 0.66991 0.53002
 H423 H 0.31898 0.63080 0.45871
 H424 H 0.19769 0.59676 0.53343
 H425 H 0.15791 0.62052 0.54634
 H426 H 0.20098 0.69169 0.54541
 H427 H 0.23954 0.66645 0.53077
 C428 C 0.22213 0.56489 0.45210
 C429 C 0.27797 0.56271 0.59416
 C430 C 0.17606 0.65819 0.54740
 C431 C 0.32317 0.65216 0.49310
 C432 C 0.76960 0.86521 0.47609
 H433 H 0.78311 0.85142 0.48461
 C434 C 0.77741 0.87966 0.45427
 H435 H 0.79689 0.87685 0.44643
 C436 C 0.72767 0.88464 0.47505
 H437 H 0.70827 0.88634 0.48331
 C438 C 0.73467 0.89944 0.45292
 H439 H 0.72065 0.91273 0.44429
 N440 N 0.74528 0.86830 0.48642
 C441 C 0.72274 0.85883 0.56722
 H442 H 0.72425 0.83772 0.56940
 C443 C 0.71598 0.87372 0.58830
 H444 H 0.71186 0.86379 0.60656
 C445 C 0.72579 0.89714 0.54048
 H446 H 0.73001 0.90621 0.52190
 C447 C 0.71919 0.91283 0.56111
 H448 H 0.71841 0.93389 0.55810
 Zn449 Zn 0.73610 0.84840 0.51660
 N450 N 0.72703 0.87062 0.54381
 C451 C 0.78403 0.84361 0.53518
 N452 N 0.76547 0.82852 0.52652
 C453 C 0.76948 0.80233 0.52376
 C454 C 0.79364 0.79064 0.52875
 C455 C 0.80827 0.83292 0.54000
 C456 C 0.68528 0.83121 0.52348
 C457 C 0.66259 0.82089 0.51565
 C458 C 0.68643 0.80269 0.47967
 C459 C 0.70885 0.81329 0.48832
 N460 N 0.70773 0.82785 0.50950
 H461 H 0.78029 0.86437 0.53717
 H462 H 0.75437 0.79075 0.51686
 H463 H 0.79712 0.76997 0.52582
 H464 H 0.82306 0.84546 0.54612
 H465 H 0.68449 0.84317 0.53996
 H466 H 0.64480 0.82457 0.52663
 H467 H 0.68734 0.79253 0.46194
 H468 H 0.72683 0.81132 0.47726
 C469 C 0.71399 0.90112 0.58540
 C470 C 0.75999 0.89728 0.44256
 C471 C 0.66275 0.80731 0.49295
 C472 C 0.81349 0.80631 0.53624
 C473 C -0.00340 0.27222 0.38244
 H474 H 0.01425 0.28262 0.37856
 C475 C -0.02310 0.28312 0.39797
 H476 H -0.02046 0.30201 0.40592
 C477 C -0.02881 0.23573 0.37541
 H478 H -0.03125 0.21753 0.36621
 C479 C -0.04897 0.24588 0.39082
 H480 H -0.06649 0.23503 0.39369
 N481 N -0.00657 0.24895 0.37149
 C482 C 0.06868 0.21356 0.35221
 H483 H 0.06617 0.20955 0.33241
 C484 C 0.09101 0.20474 0.36405
 H485 H 0.10579 0.19408 0.35318
 C486 C 0.05227 0.23209 0.39050
 H487 H 0.03693 0.24234 0.40089
 C488 C 0.07445 0.22388 0.40302
 H489 H 0.07596 0.22783 0.42301
 Zn490 Zn 0.01960 0.23676 0.34820
 N491 N 0.04985 0.22692 0.36550
 C492 C 0.05059 0.27375 0.32088
 N493 N 0.02628 0.26479 0.32442
 C494 C 0.00579 0.27821 0.31451
 C495 C 0.00918 0.30242 0.30166
 C496 C 0.05488 0.29769 0.30793
 C497 C 0.00668 0.18479 0.34786
 C498 C -0.00454 0.16250 0.33946
 C499 C -0.01136 0.18524 0.29896
 C500 C -0.00001 0.20727 0.30823
 N501 N 0.00804 0.20682 0.33257
 H502 H 0.06655 0.26313 0.32933
 H503 H -0.01341 0.27087 0.31799
 H504 H -0.00747 0.31340 0.29488
 H505 H 0.07420 0.30512 0.30659
 H506 H 0.01337 0.18495 0.36707
 H507 H -0.00621 0.14544 0.35226
 H508 H -0.01885 0.18621 0.28002
 H509 H 0.00140 0.22499 0.29637
 C510 C 0.09405 0.20981 0.38981
 C511 C -0.04639 0.27004 0.40211
 C512 C -0.01442 0.16279 0.31500
 C513 C 0.03391 0.31277 0.29889
 C514 C 1.04257 0.79449 0.07741
 H515 H 1.02335 0.80286 0.07546
 C516 C 1.06333 0.80526 0.06322
 H517 H 1.05984 0.82166 0.05002
 C518 C 1.07046 0.76326 0.09741
 H519 H 1.07332 0.74740 0.11127
 C520 C 1.09173 0.77340 0.08364
 H521 H 1.11072 0.76511 0.08713
 N522 N 1.04645 0.77387 0.09410
 C523 C 0.97223 0.73770 0.10945
 H524 H 0.97284 0.73631 0.13003
 C525 C 0.95087 0.72899 0.09753
 H526 H 0.93519 0.72059 0.10907
 C527 C 0.99210 0.75039 0.06952
 H528 H 1.00821 0.75884 0.05875
 C529 C 0.97108 0.74167 0.05673
 H530 H 0.97104 0.74367 0.03612
 Zn531 Zn 1.01821 0.76181 0.11494
 N532 N 0.99198 0.74877 0.09547
 C533 C 0.97963 0.79859 0.13047
 N534 N 1.00452 0.79055 0.13365
 C535 C 1.01980 0.80336 0.14914
 C536 C 1.00981 0.82455 0.16294
 C537 C 0.96887 0.81943 0.14397
 C538 C 1.03703 0.71120 0.12563
 C539 C 1.04508 0.68938 0.14035
 C540 C 1.03602 0.71395 0.17823
 C541 C 1.02810 0.73533 0.16275
 N542 N 1.02908 0.73369 0.13693
 H543 H 0.96798 0.78900 0.11737
 H544 H 1.03970 0.79697 0.15094
 H545 H 1.02201 0.83420 0.17563
 H546 H 0.94897 0.82538 0.14123
 H547 H 1.03730 0.71034 0.10506
 H548 H 1.05194 0.67192 0.13088
 H549 H 1.03506 0.71559 0.19874
 H550 H 1.02110 0.75313 0.17142
 C551 C 0.94990 0.73132 0.07088
 C552 C 1.08838 0.79483 0.06640
 C553 C 1.04480 0.69061 0.16703
 C554 C 0.98388 0.83252 0.16069
 C555 C 0.55035 0.25611 0.57084
 H556 H 0.53400 0.25064 0.56042
 C557 C 0.57227 0.26561 0.55757
 H558 H 0.57260 0.26720 0.53694
 C559 C 0.56998 0.26018 0.61031
 H560 H 0.56878 0.25815 0.63092
 C561 C 0.59219 0.26983 0.59786
 H562 H 0.60788 0.27551 0.60914
 N563 N 0.54946 0.25404 0.59677
 C564 C 0.48530 0.20810 0.59564
 H565 H 0.49408 0.19362 0.60828
 C566 C 0.46463 0.20118 0.58154
 H567 H 0.45786 0.18136 0.58354
 C568 C 0.48222 0.25181 0.57907
 H569 H 0.48899 0.27162 0.57860
 C570 C 0.46131 0.24575 0.56471
 H571 H 0.45229 0.26092 0.55289
 Zn572 Zn 0.51976 0.24282 0.61578
 N573 N 0.49372 0.23305 0.59418
 C574 C 0.48360 0.26662 0.64948
 N575 N 0.50571 0.27067 0.63525
 C576 C 0.51650 0.29462 0.63342
 C577 C 0.50518 0.31556 0.64650
 C578 C 0.47171 0.28697 0.66300
 C579 C 0.54242 0.19346 0.62533
 C580 C 0.54940 0.17076 0.63933
 C581 C 0.53079 0.19023 0.67733
 C582 C 0.52426 0.21262 0.66259
 N583 N 0.52971 0.21364 0.63699
 H584 H 0.47508 0.24755 0.65017
 H585 H 0.53357 0.29777 0.62135
 H586 H 0.51380 0.33456 0.64431
 H587 H 0.45434 0.28316 0.67452
 H588 H 0.54684 0.19491 0.60500
 H589 H 0.55959 0.15501 0.62963
 H590 H 0.52563 0.18956 0.69754
 H591 H 0.51458 0.22900 0.67163
 C592 C 0.45221 0.22014 0.56595
 C593 C 0.59348 0.27295 0.57112
 C594 C 0.54335 0.16877 0.66568
 C595 C 0.48242 0.31193 0.66151
 C596 C 0.48991 0.75976 0.88645
 H597 H 0.50730 0.77055 0.88267
 C598 C 0.46910 0.77140 0.89989
 H599 H 0.47086 0.79095 0.90670
 C600 C 0.46565 0.72227 0.88022
 H601 H 0.46403 0.70339 0.87211
 C602 C 0.44431 0.73327 0.89341
 H603 H 0.42672 0.72244 0.89568
 N604 N 0.48802 0.73546 0.87717
 C605 C 0.55758 0.68944 0.87616
 H606 H 0.55200 0.67619 0.86204
 C607 C 0.57854 0.68261 0.89100
 H608 H 0.58862 0.66401 0.88832
 C609 C 0.55244 0.73028 0.89576
 H610 H 0.54251 0.74897 0.89741
 C611 C 0.57352 0.72433 0.91081
 H612 H 0.57929 0.73840 0.92418
 Zn613 Zn 0.51661 0.72154 0.85763
 N614 N 0.54472 0.71281 0.87895
 C615 C 0.55205 0.75459 0.83168
 N616 N 0.52694 0.74782 0.83326
 C617 C 0.50881 0.76162 0.81997
 C618 C 0.51553 0.78403 0.80529
 C619 C 0.55959 0.77678 0.81731
 C620 C 0.50119 0.66990 0.85762
 C621 C 0.49387 0.64651 0.84780
 C622 C 0.49780 0.66649 0.80536
 C623 C 0.50535 0.68958 0.81605
 N624 N 0.50675 0.69086 0.84180
 H625 H 0.56615 0.74342 0.84244
 H626 H 0.48892 0.75590 0.82173
 H627 H 0.50073 0.79518 0.79540
 H628 H 0.57945 0.78250 0.81755
 H629 H 0.50243 0.67145 0.87802
 H630 H 0.48916 0.63024 0.86084
 H631 H 0.49668 0.66570 0.78486
 H632 H 0.50994 0.70645 0.80382
 C633 C 0.58674 0.70016 0.90861
 C634 C 0.44588 0.75815 0.90343
 C635 C 0.49206 0.64455 0.82136
 C636 C 0.54114 0.79225 0.80434
 C637 C 0.43985 -0.14447 0.33074
 C638 C 0.44435 -0.14458 0.35692
 C639 C 0.45499 -0.16696 0.36886
 C640 C 0.46180 -0.18923 0.35491
 C641 C 0.45678 -0.18829 0.32874
 N642 N 0.44625 -0.16628 0.31758
 C643 C 0.42852 -0.12142 0.31680
 N644 N 0.43146 -0.11986 0.29087
 C645 C 0.42129 -0.09968 0.27657
 C646 C 0.40705 -0.07939 0.28834
 C647 C 0.40366 -0.08063 0.31502
 C648 C 0.41423 -0.10157 0.32929
 H649 H 0.45806 -0.16687 0.38913
 H650 H 0.46062 -0.20486 0.31699
 H651 H 0.42450 -0.09944 0.25606
 H652 H 0.39228 -0.06574 0.32485
 H653 H 0.44013 -0.12762 0.36817
 H654 H 0.41056 -0.10232 0.34972
 C655 C 0.94292 0.36535 0.81438
 C656 C 0.96958 0.36320 0.81746
 C657 C 0.97983 0.34166 0.83110
 C658 C 0.96364 0.32243 0.84228
 C659 C 0.93731 0.32445 0.83704
 N660 N 0.92777 0.34563 0.82371
 C661 C 0.93067 0.38827 0.80117
 N662 N 0.90716 0.38561 0.79128
 C663 C 0.89415 0.40596 0.77981
 C664 C 0.90459 0.43099 0.77816
 C665 C 0.92876 0.43424 0.78828
 C666 C 0.94186 0.41299 0.79977
 H667 H 1.00050 0.34014 0.83283
 H668 H 0.92421 0.30930 0.84340
 H669 H 0.87538 0.40268 0.77261
 H670 H 0.93751 0.45322 0.78733
 H671 H 0.98253 0.37770 0.80920
 H672 H 0.96013 0.41621 0.80803
 C673 C 0.02691 1.18817 0.81682
 C674 C 0.02529 1.21237 0.80325
 C675 C 0.01496 1.23432 0.81541
 C676 C 0.00579 1.23240 0.84101
 C677 C 0.00768 1.20782 0.85379
 N678 N 0.01794 1.18675 0.84158
 C679 C 0.03792 1.16399 0.80531
 N680 N 0.03428 1.14063 0.81817
 C681 C 0.04426 1.11761 0.80949
 C682 C 0.05904 1.11716 0.78648
 C683 C 0.06298 1.14093 0.77281
 C684 C 0.05261 1.16433 0.78214
 H685 H 0.01453 1.25282 0.80470
 H686 H 0.00086 1.20504 0.87334
 H687 H 0.04061 1.09970 0.82056
 H688 H 0.07476 1.14156 0.75526
 H689 H 0.03161 1.21463 0.78343
 H690 H 0.05680 1.18229 0.77147
 C691 C 0.52331 0.67349 0.33138
 C692 C 0.50348 0.68834 0.31994
 C693 C 0.49358 0.71079 0.33149
 C694 C 0.50325 0.71858 0.35449
 C695 C 0.52245 0.70269 0.36575
 N696 N 0.53191 0.68094 0.35404
 C697 C 0.53523 0.65004 0.31945
 N698 N 0.54709 0.63140 0.33444
 C699 C 0.55917 0.60979 0.32471
 C700 C 0.56020 0.60622 0.29829
 C701 C 0.54811 0.62518 0.28250
 C702 C 0.53566 0.64705 0.29294
 H703 H 0.47811 0.72183 0.32253
 H704 H 0.53041 0.70773 0.38350
 H705 H 0.56856 0.59582 0.33753
 H706 H 0.54837 0.62314 0.26203
 H707 H 0.49535 0.68263 0.30246
 H708 H 0.52717 0.66171 0.28020
 C709 C 0.53282 0.35698 0.18057
 C710 C 0.52209 0.33642 0.19561
 C711 C 0.51450 0.31396 0.18402
 C712 C 0.51775 0.31170 0.15742
 C713 C 0.52806 0.33308 0.14314
 N714 N 0.53546 0.35461 0.15488
 C715 C 0.54277 0.38058 0.19175
 N716 N 0.56126 0.39414 0.17818
 C717 C 0.57224 0.41541 0.18729
 C718 C 0.56473 0.42426 0.21154
 C719 C 0.54509 0.41117 0.22557
 C720 C 0.53406 0.38933 0.21577
 H721 H 0.50611 0.29873 0.19620
 H722 H 0.53050 0.33250 0.12258
 H723 H 0.58696 0.42528 0.17563
 H724 H 0.53874 0.41742 0.24435
 H725 H 0.52009 0.33723 0.21615
 H726 H 0.51892 0.37958 0.22691
 C727 C 0.03126 0.85826 0.68380
 C728 C 0.03423 0.83265 0.69398
 C729 C 0.02542 0.81184 0.68078
 C730 C 0.01282 0.81617 0.65763
 C731 C 0.01043 0.84240 0.64819
 N732 N 0.01941 0.86229 0.66137
 C733 C 0.04182 0.88096 0.69599
 N734 N 0.03121 0.90527 0.69125
 C735 C 0.04107 0.92723 0.70031
 C736 C 0.06336 0.92546 0.71445
 C737 C 0.07442 0.90061 0.71983
 C738 C 0.06374 0.87836 0.71070
 H739 H 0.02891 0.79217 0.68854
 H740 H 0.00240 0.84736 0.62994
 H741 H 0.03212 0.94609 0.69560
 H742 H 0.09159 0.89846 0.73077
 H743 H 0.04337 0.82858 0.71188
 H744 H 0.07325 0.85955 0.71430
 C745 C 0.94547 0.68623 0.67573
 C746 C 0.94572 0.70935 0.68908
 C747 C 0.96008 0.73029 0.67912
 C748 C 0.97422 0.72859 0.65560
 C749 C 0.97367 0.70461 0.64325
 N750 N 0.95971 0.68448 0.65351
 C751 C 0.93033 0.66356 0.68510
 N752 N 0.93872 0.63908 0.67879
 C753 C 0.92551 0.61734 0.68619
 C754 C 0.90211 0.61960 0.70042
 C755 C 0.89293 0.64465 0.70690
 C756 C 0.90700 0.66665 0.69937
 H757 H 0.95900 0.74798 0.68970
 H758 H 0.98458 0.70118 0.62575
 H759 H 0.93305 0.59837 0.68057
 H760 H 0.87497 0.64718 0.71792
 H761 H 0.93508 0.71130 0.70713
 H762 H 0.89936 0.68583 0.70417
 C763 C 0.45617 0.17523 0.17560
 C764 C 0.45239 0.19909 0.18775
 C765 C 0.46545 0.22107 0.17823
 C766 C 0.48235 0.21938 0.15670
 C767 C 0.48608 0.19502 0.14557
 N768 N 0.47314 0.17387 0.15516
 C769 C 0.44188 0.15163 0.18402
 N770 N 0.45250 0.12755 0.17921
 C771 C 0.44003 0.10506 0.18559
 C772 C 0.41512 0.10609 0.19704
 C773 C 0.40379 0.13070 0.20207
 C774 C 0.41706 0.15346 0.19563
 H775 H 0.46174 0.23952 0.18732
 H776 H 0.49915 0.19269 0.12926
 H777 H 0.44933 0.08646 0.18118
 H778 H 0.38466 0.13233 0.21103
 H779 H 0.43954 0.20087 0.20441
 H780 H 0.40762 0.17220 0.19912
 C781 C 0.30987 0.44029 -0.13856
 C782 C 0.31519 0.46679 -0.14342
 C783 C 0.32924 0.47429 -0.16564
 C784 C 0.33857 0.45550 -0.18289
 C785 C 0.33105 0.42949 -0.17814
 N786 N 0.31737 0.42267 -0.15636
 C787 C 0.29659 0.43069 -0.11463
 N788 N 0.28443 0.40749 -0.11453
 C789 C 0.27303 0.39657 -0.09305
 C790 C 0.27390 0.40886 -0.06969
 C791 C 0.28636 0.43277 -0.06929
 C792 C 0.29767 0.44378 -0.09168
 H793 H 0.33327 0.49480 -0.16911
 H794 H 0.33588 0.41441 -0.19146
 H795 H 0.26394 0.37791 -0.09413
 H796 H 0.28742 0.44290 -0.05166
 H797 H 0.30856 0.48163 -0.13035
 H798 H 0.30779 0.46186 -0.09074
 C799 C 0.80175 0.94959 0.35175
 C800 C 0.78891 0.95701 0.32948
 C801 C 0.80297 0.96679 0.30801
 C802 C 0.82984 0.96942 0.30863
 C803 C 0.84170 0.96203 0.33149
 N804 N 0.82765 0.95252 0.35198
 C805 C 0.78865 0.93823 0.37512
 N806 N 0.80221 0.93620 0.39673
 C807 C 0.79293 0.92428 0.41863
 C808 C 0.76865 0.91299 0.41963
 C809 C 0.75385 0.91547 0.39792
 C810 C 0.76379 0.92798 0.37557
 H811 H 0.79249 0.97195 0.29120
 H812 H 0.86230 0.96363 0.33296
 H813 H 0.80479 0.92318 0.43510
 H814 H 0.73511 0.90677 0.39791
 H815 H 0.76829 0.95550 0.32845
 H816 H 0.75242 0.92860 0.35882
 C817 C 0.82506 0.02662 1.16997
 C818 C 0.84781 0.01111 1.17112
 C819 C 0.85621 0.00178 1.19481
 C820 C 0.84196 0.00773 1.21725
 C821 C 0.81948 0.02344 1.21528
 N822 N 0.81181 0.03246 1.19207
 C823 C 0.81530 0.03754 1.14562
 N824 N 0.80029 0.05979 1.14604
 C825 C 0.79016 0.07096 1.12468
 C826 C 0.79472 0.05952 1.10095
 C827 C 0.81003 0.03643 1.10009
 C828 C 0.82035 0.02539 1.12232
 H829 H 0.87362 -0.01036 1.19554
 H830 H 0.80818 0.02885 1.23217
 H831 H 0.77887 0.08899 1.12630
 H832 H 0.81369 0.02664 1.08233
 H833 H 0.85925 0.00655 1.15407
 H834 H 0.83158 0.00728 1.12127
 C835 C 0.32432 0.52049 0.68488
 C836 C 0.34408 0.53313 0.69649
 C837 C 0.35446 0.52194 0.71856
 C838 C 0.34503 0.49845 0.72923
 C839 C 0.32534 0.48634 0.71705
 N840 N 0.31573 0.49740 0.69533
 C841 C 0.31269 0.53179 0.66161
 N842 N 0.30531 0.51563 0.64342
 C843 C 0.29444 0.52498 0.62162
 C844 C 0.28996 0.55197 0.61753
 C845 C 0.29713 0.56888 0.63617
 C846 C 0.30861 0.55891 0.65814
 H847 H 0.36949 0.53188 0.72750
 H848 H 0.31785 0.46796 0.72463
 H849 H 0.28897 0.51136 0.60771
 H850 H 0.29405 0.58985 0.63361
 H851 H 0.35165 0.55129 0.68843
 H852 H 0.31378 0.57225 0.67244
 C853 C 0.18372 0.52485 0.36095
 C854 C 0.19523 0.52794 0.33636
 C855 C 0.18153 0.52188 0.31525
 C856 C 0.15665 0.51187 0.31838
 C857 C 0.14607 0.50860 0.34343
 N858 N 0.15966 0.51507 0.36368
 C859 C 0.19617 0.53353 0.38388
 N860 N 0.18849 0.52337 0.40730
 C861 C 0.19745 0.53208 0.42931
 C862 C 0.21460 0.55277 0.42850
 C863 C 0.22313 0.56317 0.40460
 C864 C 0.21402 0.55367 0.38231
 H865 H 0.19024 0.52561 0.29639
 H866 H 0.12667 0.50200 0.34707
 H867 H 0.19030 0.52366 0.44741
 H868 H 0.23647 0.57908 0.40318
 H869 H 0.21446 0.53527 0.33325
 H870 H 0.22010 0.56293 0.36426
 C871 C 0.68633 0.01783 0.85584
 C872 C 0.66338 0.00415 0.85937
 C873 C 0.65079 -0.00368 0.83821
 C874 C 0.66116 0.00139 0.81334
 C875 C 0.68402 0.01550 0.81071
 N876 N 0.69575 0.02328 0.83166
 C877 C 0.69911 0.02877 0.87751
 N878 N 0.71326 0.05057 0.87317
 C879 C 0.72397 0.06299 0.89231
 C880 C 0.72048 0.05366 0.91771
 C881 C 0.70688 0.03058 0.92253
 C882 C 0.69624 0.01805 0.90252
 H883 H 0.63242 -0.01294 0.84141
 H884 H 0.69213 0.02118 0.79206
 H885 H 0.73484 0.08039 0.88769
 H886 H 0.70374 0.02271 0.94183
 H887 H 0.65446 0.00059 0.87814
 H888 H 0.68574 0.00034 0.90673
 C889 C 0.67837 0.95759 0.67371
 C890 C 0.65642 0.97438 0.67431
 C891 C 0.64699 0.98400 0.69751
 C892 C 0.65914 0.97698 0.72017
 C893 C 0.68129 0.96061 0.71874
 N894 N 0.69004 0.95132 0.69596
 C895 C 0.68828 0.94495 0.65013
 N896 N 0.70481 0.92390 0.65248
 C897 C 0.71379 0.91016 0.63216
 C898 C 0.70593 0.91719 0.60750
 C899 C 0.68951 0.93931 0.60448
 C900 C 0.68078 0.95329 0.62563
 H901 H 0.63009 0.99681 0.69766
 H902 H 0.69110 0.95435 0.73578
 H903 H 0.72694 0.89366 0.63536
 H904 H 0.68286 0.94544 0.58587
 H905 H 0.64600 0.97956 0.65741
 H906 H 0.66827 0.97027 0.62254
 C907 C 0.17057 0.46135 0.18155
 C908 C 0.15255 0.48241 0.18060
 C909 C 0.14365 0.49377 0.20318
 C910 C 0.15248 0.48424 0.22674
 C911 C 0.17059 0.46332 0.22689
 N912 N 0.17890 0.45249 0.20467
 C913 C 0.17992 0.44746 0.15851
 N914 N 0.19089 0.42310 0.16168
 C915 C 0.19940 0.40861 0.14172
 C916 C 0.19706 0.41848 0.11656
 C917 C 0.18633 0.44378 0.11278
 C918 C 0.17784 0.45835 0.13363
 H919 H 0.12986 0.51004 0.20216
 H920 H 0.17761 0.45504 0.24464
 H921 H 0.20806 0.38943 0.14557
 H922 H 0.18408 0.45216 0.09371
 H923 H 0.14480 0.48975 0.16286
 H924 H 0.16994 0.47788 0.13007
 C925 C -0.13248 0.32001 0.45565
 C926 C -0.13015 0.34216 0.47021
 C927 C -0.15227 0.35521 0.47975
 C928 C -0.17690 0.34608 0.47531
 C929 C -0.17826 0.32397 0.46039
 N930 N -0.15643 0.31178 0.45108
 C931 C -0.10984 0.30656 0.44333
 N932 N -0.11342 0.29256 0.42233
 C933 C -0.09364 0.28043 0.40926
 C934 C -0.06827 0.28208 0.41708
 C935 C -0.06415 0.29596 0.43900
 C936 C -0.08483 0.30811 0.45222
 H937 H -0.14979 0.37299 0.48965
 H938 H -0.19671 0.31681 0.45550
 H939 H -0.09773 0.27014 0.39236
 H940 H -0.04497 0.29727 0.44601
 H941 H -0.11159 0.35018 0.47332
 H942 H -0.08115 0.31834 0.46925
 C943 C 0.35749 0.81220 0.94837
 C944 C 0.35470 0.82005 0.97365
 C945 C 0.33378 0.83625 0.98096
 C946 C 0.31590 0.84561 0.96298
 C947 C 0.31822 0.83487 0.93855
 N948 N 0.33878 0.81917 0.93193
 C949 C 0.38025 0.79685 0.93878
 N950 N 0.37817 0.78277 0.91754
 C951 C 0.39860 0.76966 0.90647
 C952 C 0.42313 0.77078 0.91645
 C953 C 0.42574 0.78507 0.93840
 C954 C 0.40439 0.79806 0.94965
 H955 H 0.33183 0.84149 1.00073
 H956 H 0.30394 0.83913 0.92449
 H957 H 0.39580 0.75914 0.88938
 H958 H 0.44432 0.78635 0.94674
 H959 H 0.36834 0.81366 0.98775
 H960 H 0.40709 0.80964 0.96607
 C961 C 1.17935 0.83972 0.01769
 C962 C 1.18045 0.86486 0.00612
 C963 C 1.20391 0.87404 -0.00399
 C964 C 1.22666 0.85830 -0.00283
 C965 C 1.22437 0.83288 0.00838
 N966 N 1.20127 0.82452 0.01821
 C967 C 1.15511 0.82904 0.02923
 N968 N 1.15325 0.80262 0.03263
 C969 C 1.13207 0.79130 0.04386
 C970 C 1.11104 0.80683 0.05274
 C971 C 1.11250 0.83412 0.04937
 C972 C 1.13443 0.84528 0.03773
 H973 H 1.20355 0.89310 -0.01358
 H974 H 1.24093 0.81979 0.01033
 H975 H 1.13172 0.77017 0.04582
 H976 H 1.09704 0.84690 0.05646
 H977 H 1.16335 0.87726 0.00426
 H978 H 1.13533 0.86638 0.03624
 C979 C 0.68337 0.32171 0.52415
 C980 C 0.68250 0.34455 0.50835
 C981 C 0.70540 0.35614 0.49972
 C982 C 0.72924 0.34528 0.50687
 C983 C 0.72933 0.32248 0.52267
 N984 N 0.70676 0.31155 0.53086
 C985 C 0.65978 0.30883 0.53474
 N986 N 0.66196 0.29140 0.55489
 C987 C 0.64133 0.27931 0.56634
 C988 C 0.61645 0.28460 0.55768
 C989 C 0.61379 0.30198 0.53651
 C990 C 0.63531 0.31399 0.52493
 H991 H 0.70437 0.37349 0.48727
 H992 H 0.74723 0.31362 0.52897
 H993 H 0.64443 0.26563 0.58224
 H994 H 0.59499 0.30679 0.52922
 H995 H 0.66451 0.35386 0.50295
 H996 H 0.63253 0.32704 0.50854
 C997 C 0.36078 0.18564 0.52112
 C998 C 0.33891 0.20084 0.51443
 C999 C 0.31701 0.18853 0.50671
 C1000 C 0.31689 0.16110 0.50540
 C1001 C 0.33930 0.14683 0.51208
 N1002 N 0.36021 0.15920 0.51955
 C1003 C 0.38443 0.19684 0.53043
 N1004 N 0.40621 0.18135 0.53073
 C1005 C 0.42826 0.18885 0.54087
 C1006 C 0.42923 0.21319 0.55211
 C1007 C 0.40727 0.22987 0.55146
 C1008 C 0.38484 0.22179 0.54070
 H1009 H 0.30031 0.20063 0.50225
 H1010 H 0.34006 0.12567 0.51162
 H1011 H 0.44485 0.17554 0.54057
 H1012 H 0.40708 0.24868 0.56025
 H1013 H 0.33856 0.22195 0.51501
 H1014 H 0.36788 0.23455 0.54151
 C1015 C 0.85980 0.69340 0.02621
 C1016 C 0.83481 0.70432 0.02940
 C1017 C 0.81385 0.69073 0.02165
 C1018 C 0.81757 0.66660 0.00990
 C1019 C 0.84304 0.65674 0.00647
 N1020 N 0.86312 0.67016 0.01459
 C1021 C 0.88246 0.70544 0.03666
 N1022 N 0.90647 0.69946 0.02665
 C1023 C 0.92823 0.70823 0.03657
 C1024 C 0.92653 0.72340 0.05830
 C1025 C 0.90200 0.73003 0.06872
 C1026 C 0.87999 0.72115 0.05803
 H1027 H 0.79467 0.69877 0.02569
 H1028 H 0.84704 0.63783 -0.00153
 H1029 H 0.94682 0.70256 0.02807
 H1030 H 0.89985 0.74186 0.08538
 H1031 H 0.83127 0.72293 0.03820
 H1032 H 0.86143 0.72574 0.06714
 C1033 C 0.67684 0.67334 0.96509
 C1034 C 0.67783 0.65391 0.98471
 C1035 C 0.70138 0.64689 0.99512
 C1036 C 0.72396 0.65918 0.98617
 C1037 C 0.72197 0.67941 0.96741
 N1038 N 0.69881 0.68578 0.95738
 C1039 C 0.65275 0.68006 0.95199
 N1040 N 0.64955 0.70436 0.94080
 C1041 C 0.62843 0.71142 0.92745
 C1042 C 0.60920 0.69329 0.92426
 C1043 C 0.61212 0.66813 0.93558
 C1044 C 0.63378 0.66146 0.94945
 H1045 H 0.70191 0.63171 1.01009
 H1046 H 0.73891 0.68938 0.95991
 H1047 H 0.62702 0.73093 0.91875
 H1048 H 0.59769 0.65361 0.93361
 H1049 H 0.66067 0.64417 0.99198
 H1050 H 0.63591 0.64170 0.95737
 C1051 C 0.18437 0.17123 0.44103
 C1052 C 0.19839 0.14842 0.43427
 C1053 C 0.21976 0.14030 0.44787
 C1054 C 0.22771 0.15493 0.46794
 C1055 C 0.21388 0.17810 0.47361
 N1056 N 0.19276 0.18548 0.46030
 C1057 C 0.16095 0.18040 0.42763
 N1058 N 0.15161 0.20529 0.43093
 C1059 C 0.13029 0.21508 0.41928
 C1060 C 0.11713 0.19957 0.40297
 C1061 C 0.12616 0.17382 0.39954
 C1062 C 0.14780 0.16409 0.41193
 H1063 H 0.23030 0.12271 0.44234
 H1064 H 0.21953 0.19000 0.48889
 H1065 H 0.12389 0.23507 0.42244
 H1066 H 0.11616 0.16101 0.38762
 H1067 H 0.19341 0.13692 0.41851
 H1068 H 0.15361 0.14389 0.40937
 C1069 C 0.57454 0.07619 0.72429
 C1070 C 0.58120 0.07819 0.74963
 C1071 C 0.59266 0.05676 0.76240
 C1072 C 0.59812 0.03303 0.75005
 C1073 C 0.58909 0.03145 0.72516
 N1074 N 0.57818 0.05277 0.71308
 C1075 C 0.56494 0.09945 0.70934
 N1076 N 0.56579 0.12366 0.71914
 C1077 C 0.55868 0.14586 0.70582
 C1078 C 0.55025 0.14456 0.68086
 C1079 C 0.54890 0.11974 0.67051
 C1080 C 0.55624 0.09723 0.68462
 H1081 H 0.59711 0.05926 0.78202
 H1082 H 0.59147 0.01397 0.71448
 H1083 H 0.56031 0.16451 0.71454
 H1084 H 0.54207 0.11770 0.65153
 H1085 H 0.57799 0.09629 0.75946
 H1086 H 0.55528 0.07833 0.67619
 C1087 C 1.08533 0.60147 0.22473
 C1088 C 1.10852 0.60254 0.23731
 C1089 C 1.11830 0.58018 0.24990
 C1090 C 1.10519 0.55657 0.25011
 C1091 C 1.08240 0.55609 0.23676
 N1092 N 1.07317 0.57824 0.22459
 C1093 C 1.07431 0.62482 0.21101
 N1094 N 1.05921 0.62150 0.19091
 C1095 C 1.04923 0.64208 0.17694
 C1096 C 1.05429 0.66792 0.18294
 C1097 C 1.06922 0.67175 0.20401
 C1098 C 1.07916 0.65036 0.21809
 H1099 H 1.13644 0.58134 0.25910
 H1100 H 1.07166 0.53834 0.23638
 H1101 H 1.03738 0.63821 0.16116
 H1102 H 1.07370 0.69129 0.20931
 H1103 H 1.11941 0.62025 0.23702
 H1104 H 1.09040 0.65393 0.23439
 C1105 C 0.93271 0.91424 0.21798
 C1106 C 0.93727 0.94112 0.21503
 C1107 C 0.92126 0.95903 0.22822
 C1108 C 0.90064 0.95037 0.24456
 C1109 C 0.89733 0.92307 0.24711
 N1110 N 0.91292 0.90626 0.23385
 C1111 C 0.94733 0.89401 0.20340
 N1112 N 0.93600 0.87067 0.20090
 C1113 C 0.94745 0.85091 0.18771
 C1114 C 0.97201 0.85386 0.17599
 C1115 C 0.98449 0.87749 0.17875
 C1116 C 0.97218 0.89768 0.19236
 H1117 H 0.92560 0.97951 0.22572
 H1118 H 0.88164 0.91468 0.25847
 H1119 H 0.93734 0.83284 0.18646
 H1120 H 1.00348 0.88050 0.17000
 H1121 H 0.95254 0.94842 0.20226
 H1122 H 0.98216 0.91569 0.19434
 C1123 C 0.43053 0.39580 0.71530
 C1124 C 0.44078 0.42030 0.71959
 C1125 C 0.42622 0.43842 0.73390
 C1126 C 0.40168 0.43209 0.74399
 C1127 C 0.39196 0.40768 0.73876
 N1128 N 0.40638 0.39047 0.72474
 C1129 C 0.44485 0.37541 0.70076
 N1130 N 0.43119 0.35680 0.68995
 C1131 C 0.44269 0.33668 0.67723
 C1132 C 0.46967 0.33414 0.67506
 C1133 C 0.48418 0.35313 0.68607
 C1134 C 0.47188 0.37376 0.69890
 H1135 H 0.43434 0.45710 0.73749
 H1136 H 0.37286 0.40227 0.74570
 H1137 H 0.43067 0.32282 0.66871
 H1138 H 0.50502 0.35172 0.68530
 H1139 H 0.45965 0.42558 0.71188
 H1140 H 0.48349 0.38766 0.70786
 C1141 C 0.44639 0.55046 0.79159
 C1142 C 0.44305 0.53002 0.81000
 C1143 C 0.42609 0.51023 0.80583
 C1144 C 0.41234 0.51059 0.78341
 C1145 C 0.41732 0.53051 0.76485
 N1146 N 0.43356 0.54997 0.76955
 C1147 C 0.46121 0.57379 0.79684
 N1148 N 0.45400 0.59747 0.78619
 C1149 C 0.46466 0.62018 0.79251
 C1150 C 0.48331 0.61989 0.81106
 C1151 C 0.49200 0.59558 0.82122
 C1152 C 0.48115 0.57253 0.81408
 H1153 H 0.42330 0.49495 0.82049
 H1154 H 0.40749 0.53140 0.74717
 H1155 H 0.45753 0.63851 0.78410
 H1156 H 0.50684 0.59444 0.83510
 H1157 H 0.45232 0.52989 0.82805
 H1158 H 0.48804 0.55406 0.82237
 C1159 C -0.07678 0.07859 0.28623
 C1160 C -0.10270 0.07786 0.29474
 C1161 C -0.11710 0.05632 0.28990
 C1162 C -0.10588 0.03535 0.27653
 C1163 C -0.08038 0.03752 0.26685
 N1164 N -0.06650 0.05874 0.27207
 C1165 C -0.06048 0.09996 0.29372
 N1166 N -0.04208 0.11000 0.27710
 C1167 C -0.02708 0.13003 0.28330
 C1168 C -0.02999 0.14073 0.30755
 C1169 C -0.04857 0.13031 0.32495
 C1170 C -0.06375 0.11003 0.31815
 H1171 H -0.13702 0.05596 0.29689
 H1172 H -0.07116 0.02190 0.25616
 H1173 H -0.01280 0.13745 0.26943
 H1174 H -0.05162 0.13812 0.34375
 H1175 H -0.11172 0.09367 0.30532
 H1176 H -0.07778 0.10214 0.33204
 C1177 C 0.05962 0.41961 0.27721
 C1178 C 0.05488 0.43724 0.29685
 C1179 C 0.06815 0.46057 0.29632
 C1180 C 0.08580 0.46657 0.27614
 C1181 C 0.08880 0.44927 0.25608
 N1182 N 0.07627 0.42626 0.25739
 C1183 C 0.05001 0.39263 0.27951
 N1184 N 0.06513 0.37280 0.26997
 C1185 C 0.05948 0.34719 0.27439
 C1186 C 0.03767 0.34028 0.28964
 C1187 C 0.02102 0.36043 0.29841
 C1188 C 0.02707 0.38659 0.29336
 H1189 H 0.06550 0.47340 0.31221
 H1190 H 0.10246 0.45310 0.24031
 H1191 H 0.07255 0.33225 0.26684
 H1192 H 0.00404 0.35602 0.31033
 H1193 H 0.04246 0.43239 0.31334
 H1194 H 0.01432 0.40182 0.30087
 C1195 C 0.57796 0.89335 0.77295
 C1196 C 0.56375 0.91651 0.76709
 C1197 C 0.57601 0.94057 0.76630
 C1198 C 0.60211 0.94141 0.77168
 C1199 C 0.61581 0.91781 0.77632
 N1200 N 0.60357 0.89475 0.77690
 C1201 C 0.56602 0.86752 0.77672
 N1202 N 0.58125 0.84563 0.77377
 C1203 C 0.57304 0.82127 0.78056
 C1204 C 0.54839 0.81789 0.79209
 C1205 C 0.53194 0.84010 0.79430
 C1206 C 0.54063 0.86490 0.78657
 H1207 H 0.56501 0.95849 0.76238
 H1208 H 0.63615 0.91774 0.77998
 H1209 H 0.58619 0.80470 0.77789
 H1210 H 0.51292 0.83858 0.80342
 H1211 H 0.54345 0.91612 0.76340
 H1212 H 0.52816 0.88186 0.78990
 C1213 C 0.72822 0.57892 0.09108
 C1214 C 0.72844 0.56802 0.06690
 C1215 C 0.74101 0.58082 0.04609
 C1216 C 0.75352 0.60430 0.04931
 C1217 C 0.75326 0.61423 0.07388
 N1218 N 0.74080 0.60151 0.09376
 C1219 C 0.71456 0.56705 0.11387
 N1220 N 0.72121 0.57411 0.13738
 C1221 C 0.70879 0.56533 0.15925
 C1222 C 0.68790 0.54872 0.15824
 C1223 C 0.68080 0.54101 0.13422
 C1224 C 0.69401 0.55009 0.11204
 H1225 H 0.74117 0.57218 0.02760
 H1226 H 0.76230 0.63246 0.07728
 H1227 H 0.71473 0.57200 0.17733
 H1228 H 0.66491 0.52806 0.13258
 H1229 H 0.71933 0.54972 0.06397
 H1230 H 0.68757 0.54446 0.09381
 C1231 C 0.21854 1.08061 0.57836
 C1232 C 0.20626 1.08973 0.55625
 C1233 C 0.22096 1.09962 0.53534
 C1234 C 0.24785 1.10028 0.53629
 C1235 C 0.25946 1.08966 0.55819
 N1236 N 0.24474 1.08037 0.57840
 C1237 C 0.20396 1.07196 0.60196
 N1238 N 0.21602 1.05609 0.61946
 C1239 C 0.20426 1.04822 0.64202
 C1240 C 0.17882 1.05656 0.64820
 C1241 C 0.16616 1.07317 0.63054
 C1242 C 0.17859 1.08092 0.60751
 H1243 H 0.21117 1.10770 0.51890
 H1244 H 0.28019 1.08929 0.55949
 H1245 H 0.21471 1.03523 0.65494
 H1246 H 0.14677 1.08063 0.63473
 H1247 H 0.18555 1.08956 0.55506
 H1248 H 0.16858 1.09437 0.59469
 C1249 C 0.22672 0.94376 0.89820
 C1250 C 0.22286 0.95011 0.92388
 C1251 C 0.23530 0.93509 0.94280
 C1252 C 0.25178 0.91368 0.93634
 C1253 C 0.25514 0.90840 0.91020
 N1254 N 0.24262 0.92311 0.89234
 C1255 C 0.21303 0.95739 0.87714
 N1256 N 0.21134 0.94461 0.85506
 C1257 C 0.19866 0.95498 0.83483
 C1258 C 0.18657 0.97981 0.83603
 C1259 C 0.18865 0.99381 0.85827
 C1260 C 0.20182 0.98267 0.87891
 H1261 H 0.23220 0.94096 0.96225
 H1262 H 0.26667 0.89186 0.90368
 H1263 H 0.19793 0.94373 0.81787
 H1264 H 0.17956 1.01304 0.85991
 H1265 H 0.20998 0.96605 0.92953
 H1266 H 0.20321 0.99382 0.89583
 C1267 C 0.72569 0.43446 0.40724
 C1268 C 0.72436 0.44328 0.43233
 C1269 C 0.73742 0.42913 0.45138
 C1270 C 0.75174 0.40629 0.44557
 C1271 C 0.75237 0.39807 0.42036
 N1272 N 0.73950 0.41208 0.40222
 C1273 C 0.71195 0.44780 0.38599
 N1274 N 0.70942 0.43438 0.36441
 C1275 C 0.69698 0.44464 0.34396
 C1276 C 0.68602 0.47003 0.34437
 C1277 C 0.68881 0.48454 0.36617
 C1278 C 0.70176 0.47355 0.38699
 H1279 H 0.73650 0.43625 0.47055
 H1280 H 0.76266 0.38026 0.41507
 H1281 H 0.69577 0.43292 0.32737
 H1282 H 0.68058 0.50419 0.36732
 H1283 H 0.71316 0.46056 0.43748
 H1284 H 0.70377 0.48529 0.40341
 C1285 C 0.77525 0.44502 0.57250
 C1286 C 0.75430 0.42903 0.56885
 C1287 C 0.75474 0.41337 0.54758
 C1288 C 0.77603 0.41352 0.53021
 C1289 C 0.79601 0.43054 0.53400
 N1290 N 0.79514 0.44558 0.55474
 C1291 C 0.77742 0.46025 0.59562
 N1292 N 0.79299 0.48120 0.59420
 C1293 C 0.79904 0.49411 0.61511
 C1294 C 0.79004 0.48544 0.63953
 C1295 C 0.77305 0.46455 0.64140
 C1296 C 0.76665 0.45193 0.61950
 H1297 H 0.73896 0.40045 0.54525
 H1298 H 0.81254 0.43152 0.52074
 H1299 H 0.81169 0.51052 0.61270
 H1300 H 0.76590 0.45700 0.65985
 H1301 H 0.73793 0.42839 0.58231
 H1302 H 0.75475 0.43492 0.62155
 C1303 C 0.28579 -0.05511 0.06099
 C1304 C 0.26142 -0.06301 0.05444
 C1305 C 0.25906 -0.07689 0.03227
 C1306 C 0.28103 -0.08336 0.01676
 C1307 C 0.30482 -0.07383 0.02358
 N1308 N 0.30650 -0.06026 0.04508
 C1309 C 0.29024 -0.04235 0.08512
 N1310 N 0.31117 -0.02717 0.08609
 C1311 C 0.31857 -0.01726 0.10812
 C1312 C 0.30511 -0.02324 0.13132
 C1313 C 0.28293 -0.03819 0.13070
 C1314 C 0.27540 -0.04774 0.10765
 H1315 H 0.24024 -0.08389 0.02850
 H1316 H 0.32220 -0.07689 0.01187
 H1317 H 0.33537 -0.00523 0.10752
 H1318 H 0.27212 -0.04354 0.14813
 H1319 H 0.24442 -0.05888 0.06642
 H1320 H 0.25903 -0.06032 0.10780
 C1321 C 0.27940 0.07400 0.40047
 C1322 C 0.27101 0.06019 0.42285
 C1323 C 0.27150 0.07220 0.44634
 C1324 C 0.28092 0.09750 0.44745
 C1325 C 0.28885 0.11063 0.42463
 N1326 N 0.28780 0.09878 0.40209
 C1327 C 0.28009 0.06264 0.37504
 N1328 N 0.27784 0.07918 0.35426
 C1329 C 0.28201 0.07115 0.33007
 C1330 C 0.29013 0.04523 0.32567
 C1331 C 0.29132 0.02747 0.34677
 C1332 C 0.28619 0.03608 0.37149
 H1333 H 0.26475 0.06176 0.46359
 H1334 H 0.29544 0.13050 0.42464
 H1335 H 0.28023 0.08537 0.31438
 H1336 H 0.29783 0.00738 0.34435
 H1337 H 0.26381 0.04061 0.42219
 H1338 H 0.28872 0.02250 0.38759
 C1339 C 0.77436 0.57436 0.91239
 C1340 C 0.75226 0.58740 0.92245
 C1341 C 0.75318 0.59936 0.94581
 C1342 C 0.77604 0.59838 0.95913
 C1343 C 0.79728 0.58405 0.94902
 N1344 N 0.79597 0.57265 0.92618
 C1345 C 0.77553 0.56407 0.88643
 N1346 N 0.79218 0.54377 0.88106
 C1347 C 0.79652 0.53531 0.85698
 C1348 C 0.78450 0.54823 0.83642
 C1349 C 0.76685 0.56882 0.84154
 C1350 C 0.76215 0.57668 0.86651
 H1351 H 0.73637 0.61035 0.95280
 H1352 H 0.81514 0.58255 0.95891
 H1353 H 0.81051 0.51955 0.85373
 H1354 H 0.75736 0.57935 0.82611
 H1355 H 0.73462 0.58879 0.91222
 H1356 H 0.74935 0.59339 0.86987
 C1357 C 0.08468 0.71485 0.58315
 C1358 C 0.06085 0.70324 0.58840
 C1359 C 0.04017 0.71811 0.59855
 C1360 C 0.04310 0.74459 0.60398
 C1361 C 0.06724 0.75555 0.59738
 N1362 N 0.08697 0.74069 0.58730
 C1363 C 0.10752 0.69964 0.57370
 N1364 N 0.12540 0.71159 0.55786
 C1365 C 0.14724 0.69888 0.54915
 C1366 C 0.15232 0.67259 0.55670
 C1367 C 0.13423 0.66015 0.57343
 C1368 C 0.11184 0.67349 0.58179
 H1369 H 0.02252 0.70814 0.60317
 H1370 H 0.07056 0.77605 0.59973
 H1371 H 0.16040 0.70928 0.53612
 H1372 H 0.13754 0.64023 0.58051
 H1373 H 0.05820 0.68282 0.58481
 H1374 H 0.09847 0.66364 0.59506
 C1375 C 0.58496 0.21578 1.06929
 C1376 C 0.56258 0.20275 1.07773
 C1377 C 0.54247 0.21658 1.09012
 C1378 C 0.54450 0.24335 1.09427
 C1379 C 0.56646 0.25599 1.08381
 N1380 N 0.58591 0.24207 1.07198
 C1381 C 0.60795 0.20155 1.05858
 N1382 N 0.62484 0.21451 1.04239
 C1383 C 0.64700 0.20294 1.03294
 C1384 C 0.65347 0.17684 1.04004
 C1385 C 0.63639 0.16330 1.05694
 C1386 C 0.61370 0.17548 1.06615
 H1387 H 0.52589 0.20596 1.09715
 H1388 H 0.56852 0.27681 1.08551
 H1389 H 0.65944 0.21412 1.01982
 H1390 H 0.64083 0.14344 1.06361
 H1391 H 0.56067 0.18203 1.07513
 H1392 H 0.60136 0.16480 1.07977
 C1393 C 0.91586 0.21965 0.94021
 C1394 C 0.93835 0.20792 0.92934
 C1395 C 0.95555 0.22318 0.91448
 C1396 C 0.95068 0.25012 0.91053
 C1397 C 0.92917 0.26139 0.92365
 N1398 N 0.91241 0.24608 0.93758
 C1399 C 0.89482 0.20422 0.95279
 N1400 N 0.87609 0.21690 0.96700
 C1401 C 0.85470 0.20478 0.97683
 C1402 C 0.85084 0.17847 0.97189
 C1403 C 0.87015 0.16486 0.95785
 C1404 C 0.89206 0.17757 0.94827
 H1405 H 0.97197 0.21353 0.90532
 H1406 H 0.92514 0.28225 0.92230
 H1407 H 0.84024 0.21602 0.98752
 H1408 H 0.86809 0.14443 0.95388
 H1409 H 0.94254 0.18716 0.93168
 H1410 H 0.90590 0.16674 0.93655
 C1411 C 0.41062 0.70602 0.44793
 C1412 C 0.43277 0.69421 0.43639
 C1413 C 0.45008 0.70958 0.42176
 C1414 C 0.44567 0.73669 0.41882
 C1415 C 0.42408 0.74788 0.43178
 N1416 N 0.40731 0.73250 0.44560
 C1417 C 0.38998 0.69073 0.46149
 N1418 N 0.37167 0.70370 0.47595
 C1419 C 0.35084 0.69166 0.48715
 C1420 C 0.34716 0.66502 0.48356
 C1421 C 0.36608 0.65112 0.46927
 C1422 C 0.38740 0.66382 0.45819
 H1423 H 0.46639 0.70004 0.41208
 H1424 H 0.42026 0.76880 0.43064
 H1425 H 0.33667 0.70316 0.49791
 H1426 H 0.36418 0.63046 0.46628
 H1427 H 0.43675 0.67339 0.43822
 H1428 H 0.40094 0.65266 0.44644
 C1429 C 0.56802 0.78433 0.44618
 C1430 C 0.54482 0.79890 0.44985
 C1431 C 0.52403 0.79439 0.43494
 C1432 C 0.52588 0.77492 0.41694
 C1433 C 0.54863 0.75962 0.41488
 N1434 N 0.56900 0.76485 0.42913
 C1435 C 0.59172 0.79021 0.45949
 N1436 N 0.61200 0.77263 0.45910
 C1437 C 0.63472 0.77730 0.46986
 C1438 C 0.63800 0.80090 0.48192
 C1439 C 0.61744 0.81930 0.48238
 C1440 C 0.59447 0.81416 0.47119
 H1441 H 0.50653 0.80627 0.43726
 H1442 H 0.55068 0.74444 0.40113
 H1443 H 0.65014 0.76261 0.46900
 H1444 H 0.61938 0.83811 0.49075
 H1445 H 0.54250 0.81383 0.46381
 H1446 H 0.57958 0.82935 0.47115
 C1447 C 0.07490 0.29459 -0.07001
 C1448 C 0.07248 0.30865 -0.09330
 C1449 C 0.05133 0.30489 -0.10788
 C1450 C 0.03245 0.28714 -0.09944
 C1451 C 0.03619 0.27244 -0.07664
 N1452 N 0.05700 0.27659 -0.06256
 C1453 C 0.09597 0.30001 -0.05317
 N1454 N 0.10744 0.28019 -0.03926
 C1455 C 0.12720 0.28443 -0.02382
 C1456 C 0.13606 0.30986 -0.02151
 C1457 C 0.12417 0.33048 -0.03542
 C1458 C 0.10422 0.32566 -0.05118
 H1459 H 0.04974 0.31600 -0.12577
 H1460 H 0.02216 0.25845 -0.06950
 H1461 H 0.13583 0.26806 -0.01326
 H1462 H 0.13060 0.35035 -0.03441
 H1463 H 0.08676 0.32254 -0.10015
 H1464 H 0.09517 0.34195 -0.06152
 C1465 C 0.40643 0.27509 0.07992
 C1466 C 0.42820 0.26682 0.06516
 C1467 C 0.45247 0.26604 0.07584
 C1468 C 0.45494 0.27403 0.10081
 C1469 C 0.43268 0.28165 0.11498
 N1470 N 0.40936 0.28191 0.10437
 C1471 C 0.38034 0.27749 0.06983
 N1472 N 0.35971 0.27497 0.08653
 C1473 C 0.33516 0.28032 0.07968
 C1474 C 0.33024 0.28992 0.05488
 C1475 C 0.35117 0.29164 0.03701
 C1476 C 0.37621 0.28533 0.04437
 H1477 H 0.46929 0.25968 0.06454
 H1478 H 0.43380 0.28728 0.13456
 H1479 H 0.31964 0.27803 0.09395
 H1480 H 0.34843 0.29930 0.01777
 H1481 H 0.42650 0.26085 0.04578
 H1482 H 0.39220 0.28817 0.03072
 C1483 C 0.91606 0.78207 0.56444
 C1484 C 0.93144 0.80398 0.56585
 C1485 C 0.95364 0.80209 0.57972
 C1486 C 0.96101 0.77837 0.59220
 C1487 C 0.94572 0.75646 0.58912
 N1488 N 0.92365 0.75904 0.57607
 C1489 C 0.89047 0.78465 0.55321
 N1490 N 0.87036 0.77123 0.56432
 C1491 C 0.84559 0.77605 0.55761
 C1492 C 0.84004 0.79598 0.53940
 C1493 C 0.86058 0.80875 0.52656
 C1494 C 0.88579 0.80299 0.53322
 H1495 H 0.96495 0.81943 0.58072
 H1496 H 0.94994 0.73778 0.59859
 H1497 H 0.83016 0.76570 0.56774
 H1498 H 0.85697 0.82401 0.51214
 H1499 H 0.92579 0.82283 0.55744
 H1500 H 0.90133 0.81356 0.52352
   
