data_POSCAR
  _audit_creation_date              2014-09-24
  _audit_creation_method            'ToBaCCo'
  _symmetry_space_group_name_H-M    'P1'
  _symmetry_Int_Tables_number       1
  _symmetry_cell_setting            triclinic
  loop_
  _symmetry_equiv_pos_as_xyz
 x,y,z
_cell_length_a 53.0873
_cell_length_b 53.0646
_cell_length_c 53.0542
_cell_angle_alpha 90.023700
_cell_angle_beta 89.974600
_cell_angle_gamma 89.974600
loop_
  _atom_site_label
  _atom_site_type_symbol
  _atom_site_fract_x
  _atom_site_fract_y
  _atom_site_fract_z
O1 O 0.87591 0.15976 0.80972
 O2 O 0.90325 0.12483 0.80218
 O3 O 0.81003 0.12355 0.84001
 O4 O 0.80088 0.09862 0.87265
 O5 O 0.84054 0.18999 0.87557
 O6 O 0.87563 0.19700 0.90310
 O7 O 0.87617 0.05935 0.90948
 O8 O 0.84653 0.05296 0.87587
 O9 O 0.94035 0.08963 0.87579
 O10 O 0.94827 0.12522 0.84704
 O11 O 0.91015 0.12342 0.93985
 O12 O 0.87419 0.15222 0.94773
 O13 O 0.87647 0.08960 0.93975
 O14 O 0.84750 0.12538 0.94763
 O15 O 0.94039 0.12344 0.90958
 O16 O 0.94799 0.15246 0.87349
 O17 O 0.91019 0.05939 0.87648
 O18 O 0.87985 0.05153 0.84740
 O19 O 0.87589 0.18999 0.84006
 O20 O 0.90356 0.19701 0.87508
 O21 O 0.81029 0.15971 0.87520
 O22 O 0.80439 0.12420 0.90431
 O23 O 0.84020 0.12485 0.80967
 O24 O 0.87658 0.09711 0.80177
 Zr25 Zr 0.87445 0.12553 0.82970
 O26 O 0.89794 0.10192 0.85124
 Zr27 Zr 0.83031 0.12544 0.87399
 O28 O 0.85187 0.10171 0.89744
 Zr29 Zr 0.87459 0.16970 0.87409
 O30 O 0.89810 0.14806 0.89759
 Zr31 Zr 0.87619 0.07959 0.87548
 O32 O 0.85223 0.10086 0.85156
 Zr33 Zr 0.92029 0.12384 0.87545
 O34 O 0.89890 0.14772 0.85170
 Zr35 Zr 0.87601 0.12381 0.91975
 O36 O 0.85227 0.14773 0.89837
 O37 O 0.85112 0.14895 0.85066
 O38 O 0.89968 0.10027 0.89911
 C39 C 0.87644 0.18291 0.81689
 C40 C 0.81709 0.12369 0.81683
 C41 C 0.81739 0.18288 0.87596
 C42 C 0.87652 0.06645 0.93263
 C43 C 0.93337 0.06642 0.87642
 C44 C 0.93330 0.12320 0.93274
 H45 H 0.90814 0.09126 0.83984
 H46 H 0.90851 0.15943 0.90802
 H47 H 0.84034 0.15974 0.83993
 H48 H 0.84057 0.09105 0.90771
 H49 H 0.83521 0.05728 0.86168
 H50 H 0.80710 0.08322 0.88109
 H51 H 0.94484 0.16444 0.88742
 H52 H 0.91689 0.19102 0.86348
 H53 H 0.86949 0.05707 0.83299
 H54 H 0.86179 0.08598 0.80396
 H55 H 0.88785 0.16443 0.94435
 H56 H 0.86412 0.19097 0.91648
 H57 H 0.91678 0.13606 0.80840
 H58 H 0.94441 0.11193 0.83456
 H59 H 0.80951 0.13746 0.91640
 H60 H 0.83536 0.11168 0.94414
 O61 O 0.84013 0.69013 0.37551
 O62 O 0.87513 0.69755 0.40286
 O63 O 0.87621 0.65959 0.30977
 O64 O 0.90089 0.62694 0.30040
 O65 O 0.80968 0.62431 0.34033
 O66 O 0.80257 0.59686 0.37538
 O67 O 0.94035 0.59032 0.37640
 O68 O 0.94721 0.62301 0.34669
 O69 O 0.90990 0.62402 0.44019
 O70 O 0.87392 0.65267 0.44808
 O71 O 0.87621 0.55989 0.40991
 O72 O 0.84772 0.55187 0.37405
 O73 O 0.91013 0.56005 0.37637
 O74 O 0.87434 0.55227 0.34714
 O75 O 0.87621 0.59014 0.44016
 O76 O 0.84716 0.62604 0.44788
 O77 O 0.94020 0.62373 0.40998
 O78 O 0.94786 0.65307 0.37531
 O79 O 0.80985 0.65986 0.37567
 O80 O 0.80273 0.62477 0.40341
 O81 O 0.83993 0.62457 0.31002
 O82 O 0.87507 0.59506 0.30426
 O83 O 0.87555 0.68997 0.33998
 O84 O 0.90316 0.69728 0.37506
 Zr85 Zr 0.87423 0.66993 0.37415
 O86 O 0.89769 0.64849 0.39784
 Zr87 Zr 0.87418 0.62558 0.32999
 O88 O 0.89802 0.60228 0.35160
 Zr89 Zr 0.82998 0.62572 0.37436
 O90 O 0.85159 0.60217 0.39785
 Zr91 Zr 0.92010 0.62431 0.37590
 O92 O 0.89868 0.64791 0.35190
 Zr93 Zr 0.87574 0.62427 0.42009
 O94 O 0.85196 0.64807 0.39866
 Zr95 Zr 0.87592 0.58001 0.37578
 O96 O 0.85191 0.60132 0.35208
 O97 O 0.85078 0.64904 0.35082
 O98 O 0.89940 0.60069 0.39945
 C99 C 0.81697 0.68301 0.37612
 C100 C 0.87645 0.68278 0.31685
 C101 C 0.81679 0.62390 0.31716
 C102 C 0.93326 0.56717 0.37667
 C103 C 0.93306 0.62367 0.43312
 C104 C 0.87643 0.56700 0.43306
 H105 H 0.90794 0.65994 0.40833
 H106 H 0.84021 0.59172 0.40824
 H107 H 0.84007 0.65984 0.34003
 H108 H 0.90872 0.59198 0.34034
 H109 H 0.94179 0.63533 0.33376
 H110 H 0.91579 0.61721 0.30590
 H111 H 0.83510 0.61222 0.44457
 H112 H 0.80869 0.63644 0.41668
 H113 H 0.94388 0.66538 0.38872
 H114 H 0.91650 0.69126 0.36349
 H115 H 0.83520 0.55553 0.38737
 H116 H 0.80864 0.58338 0.36400
 H117 H 0.86391 0.69144 0.41645
 H118 H 0.88740 0.66503 0.44457
 H119 H 0.86169 0.58315 0.30946
 H120 H 0.88829 0.55552 0.33522
 O121 O 0.37534 0.15967 0.31005
 O122 O 0.40283 0.12471 0.30271
 O123 O 0.30954 0.12338 0.34042
 O124 O 0.30041 0.09856 0.37314
 O125 O 0.33997 0.18998 0.37581
 O126 O 0.37499 0.19716 0.40332
 O127 O 0.37561 0.05951 0.41020
 O128 O 0.34600 0.05303 0.37650
 O129 O 0.43984 0.08981 0.37636
 O130 O 0.44775 0.12526 0.34755
 O131 O 0.40962 0.12366 0.44034
 O132 O 0.37362 0.15246 0.44813
 O133 O 0.37593 0.08981 0.44034
 O134 O 0.34694 0.12564 0.44810
 O135 O 0.43984 0.12368 0.41005
 O136 O 0.44739 0.15263 0.37388
 O137 O 0.40968 0.05951 0.37718
 O138 O 0.37939 0.05145 0.34818
 O139 O 0.37530 0.18998 0.34032
 O140 O 0.40299 0.19707 0.37536
 O141 O 0.30975 0.15967 0.37548
 O142 O 0.30382 0.12431 0.40470
 O143 O 0.33973 0.12464 0.31010
 O144 O 0.37614 0.09702 0.30225
 Zr145 Zr 0.37395 0.12548 0.33014
 O146 O 0.39741 0.10194 0.35179
 Zr147 Zr 0.32979 0.12543 0.37441
 O148 O 0.35134 0.10181 0.39799
 Zr149 Zr 0.37403 0.16975 0.37441
 O150 O 0.39753 0.14820 0.39801
 Zr151 Zr 0.37567 0.07965 0.37611
 O152 O 0.35175 0.10083 0.35207
 Zr153 Zr 0.41973 0.12396 0.37593
 O154 O 0.39837 0.14775 0.35208
 Zr155 Zr 0.37546 0.12398 0.42024
 O156 O 0.35172 0.14781 0.39875
 O157 O 0.35059 0.14891 0.35103
 O158 O 0.39916 0.10043 0.39967
 C159 C 0.37584 0.18285 0.31716
 C160 C 0.31662 0.12345 0.31724
 C161 C 0.31683 0.18284 0.37617
 C162 C 0.37595 0.06658 0.43339
 C163 C 0.43279 0.06666 0.37707
 C164 C 0.43276 0.12347 0.43320
 H165 H 0.40762 0.09125 0.34043
 H166 H 0.40792 0.15962 0.40841
 H167 H 0.33980 0.15965 0.34025
 H168 H 0.34004 0.09117 0.40829
 H169 H 0.33473 0.05730 0.36226
 H170 H 0.30660 0.08323 0.38172
 H171 H 0.44424 0.16462 0.38781
 H172 H 0.41629 0.19111 0.36371
 H173 H 0.36919 0.05701 0.33366
 H174 H 0.36144 0.08579 0.30454
 H175 H 0.38728 0.16467 0.44473
 H176 H 0.36354 0.19111 0.41675
 H177 H 0.41626 0.13612 0.30882
 H178 H 0.44383 0.11201 0.33504
 H179 H 0.30897 0.13756 0.41678
 H180 H 0.33481 0.11192 0.44465
 O181 O 0.12419 0.33975 0.30992
 O182 O 0.09675 0.37471 0.30255
 O183 O 0.19004 0.37604 0.34015
 O184 O 0.19932 0.40081 0.37283
 O185 O 0.15955 0.30951 0.37565
 O186 O 0.12453 0.30246 0.40323
 O187 O 0.12413 0.44015 0.40986
 O188 O 0.15376 0.44649 0.37616
 O189 O 0.05986 0.40989 0.37621
 O190 O 0.05185 0.37434 0.34750
 O191 O 0.09013 0.37610 0.44020
 O192 O 0.12604 0.34729 0.44800
 O193 O 0.12381 0.40989 0.44009
 O194 O 0.15283 0.37402 0.44779
 O195 O 0.05987 0.37610 0.40999
 O196 O 0.05218 0.34707 0.37389
 O197 O 0.09008 0.44013 0.37693
 O198 O 0.12037 0.44803 0.34781
 O199 O 0.12420 0.30951 0.34022
 O200 O 0.09652 0.30254 0.37531
 O201 O 0.18981 0.33978 0.37522
 O202 O 0.19581 0.37522 0.40441
 O203 O 0.15984 0.37475 0.30986
 O204 O 0.12343 0.40238 0.30202
 Zr205 Zr 0.12564 0.37398 0.32996
 O206 O 0.10223 0.39761 0.35160
 Zr207 Zr 0.16983 0.37405 0.37415
 O208 O 0.14836 0.39778 0.39771
 Zr209 Zr 0.12553 0.32980 0.37427
 O210 O 0.10210 0.35145 0.39788
 Zr211 Zr 0.12404 0.41992 0.37583
 O212 O 0.14791 0.39864 0.35179
 Zr213 Zr 0.07990 0.37568 0.37581
 O214 O 0.10120 0.35180 0.35197
 Zr215 Zr 0.12424 0.37568 0.42003
 O216 O 0.14790 0.35175 0.39855
 O217 O 0.14898 0.35056 0.35083
 O218 O 0.10056 0.39923 0.39947
 C219 C 0.12366 0.31660 0.31706
 C220 C 0.18295 0.37595 0.31698
 C221 C 0.18270 0.31663 0.37597
 C222 C 0.12379 0.43305 0.43301
 C223 C 0.06696 0.43303 0.37686
 C224 C 0.06699 0.37633 0.43313
 H225 H 0.09203 0.40828 0.34023
 H226 H 0.09170 0.34008 0.40833
 H227 H 0.15975 0.33978 0.34005
 H228 H 0.15969 0.40843 0.40796
 H229 H 0.16503 0.44217 0.36192
 H230 H 0.19313 0.41622 0.38127
 H231 H 0.05534 0.33510 0.38782
 H232 H 0.08322 0.30851 0.36368
 H233 H 0.13065 0.44247 0.33334
 H234 H 0.13816 0.41358 0.30424
 H235 H 0.11242 0.33504 0.44459
 H236 H 0.13601 0.30851 0.41662
 H237 H 0.08330 0.36336 0.30872
 H238 H 0.05578 0.38755 0.33495
 H239 H 0.19069 0.36195 0.41648
 H240 H 0.16490 0.38780 0.44437
 O241 O 0.62436 0.83991 0.30971
 O242 O 0.59697 0.87483 0.30229
 O243 O 0.69021 0.87611 0.34001
 O244 O 0.69930 0.90109 0.37266
 O245 O 0.65972 0.80967 0.37550
 O246 O 0.62469 0.80252 0.40299
 O247 O 0.62407 0.94021 0.40970
 O248 O 0.65367 0.94663 0.37604
 O249 O 0.55986 0.90983 0.37605
 O250 O 0.55190 0.87436 0.34730
 O251 O 0.59009 0.87610 0.44002
 O252 O 0.62610 0.84729 0.44778
 O253 O 0.62376 0.90995 0.43993
 O254 O 0.65277 0.87415 0.44770
 O255 O 0.55986 0.87603 0.40977
 O256 O 0.55237 0.84695 0.37357
 O257 O 0.59003 0.94013 0.37676
 O258 O 0.62031 0.94809 0.34765
 O259 O 0.62440 0.80964 0.34000
 O260 O 0.59670 0.80259 0.37506
 O261 O 0.68995 0.83997 0.37514
 O262 O 0.69588 0.87541 0.40428
 O263 O 0.66004 0.87483 0.30970
 O264 O 0.62361 0.90259 0.30192
 Zr265 Zr 0.62579 0.87411 0.32977
 O266 O 0.60229 0.89765 0.35141
 Zr267 Zr 0.66992 0.87421 0.37401
 O268 O 0.64836 0.89787 0.39756
 Zr269 Zr 0.62567 0.82990 0.37408
 O270 O 0.60217 0.85148 0.39769
 Zr271 Zr 0.62403 0.91998 0.37567
 O272 O 0.64799 0.89878 0.35165
 Zr273 Zr 0.57996 0.87567 0.37561
 O274 O 0.60135 0.85188 0.35175
 Zr275 Zr 0.62424 0.87574 0.41987
 O276 O 0.64798 0.85188 0.39838
 O277 O 0.64913 0.85070 0.35067
 O278 O 0.60056 0.89925 0.39928
 C279 C 0.62385 0.81675 0.31684
 C280 C 0.68316 0.87598 0.31683
 C281 C 0.68286 0.81681 0.37587
 C282 C 0.62372 0.93310 0.43284
 C283 C 0.56691 0.93298 0.37672
 C284 C 0.56695 0.87629 0.43293
 H285 H 0.59207 0.90831 0.34005
 H286 H 0.59178 0.84008 0.40811
 H287 H 0.65991 0.83992 0.33991
 H288 H 0.65966 0.90854 0.40783
 H289 H 0.66497 0.94235 0.36181
 H290 H 0.69310 0.91643 0.38123
 H291 H 0.55542 0.83506 0.38760
 H292 H 0.58341 0.80854 0.36341
 H293 H 0.63063 0.94256 0.33320
 H294 H 0.63842 0.91370 0.30410
 H295 H 0.61242 0.83510 0.44443
 H296 H 0.63610 0.80860 0.41644
 H297 H 0.58347 0.86356 0.30848
 H298 H 0.55586 0.88754 0.33473
 H299 H 0.69073 0.86219 0.41638
 H300 H 0.66488 0.88788 0.44423
 O301 O 0.62450 0.65963 0.18987
 O302 O 0.59706 0.62475 0.19729
 O303 O 0.69035 0.62332 0.15962
 O304 O 0.69948 0.59831 0.12699
 O305 O 0.65998 0.68979 0.12408
 O306 O 0.62496 0.69694 0.09656
 O307 O 0.62422 0.55929 0.08993
 O308 O 0.65383 0.55282 0.12357
 O309 O 0.56003 0.58973 0.12366
 O310 O 0.55212 0.62531 0.15238
 O311 O 0.59036 0.62344 0.05962
 O312 O 0.62639 0.65213 0.05182
 O313 O 0.62400 0.58951 0.05973
 O314 O 0.65303 0.62525 0.05193
 O315 O 0.56010 0.62354 0.08986
 O316 O 0.55251 0.65257 0.12598
 O317 O 0.59018 0.55938 0.12295
 O318 O 0.62049 0.55141 0.15199
 O319 O 0.62460 0.68989 0.15957
 O320 O 0.59697 0.69698 0.12451
 O321 O 0.69019 0.65944 0.12445
 O322 O 0.69611 0.62396 0.09534
 O323 O 0.66013 0.62466 0.18991
 O324 O 0.62372 0.59698 0.19773
 Zr325 Zr 0.62592 0.62542 0.16983
 O326 O 0.60245 0.60188 0.14822
 Zr327 Zr 0.67012 0.62522 0.12561
 O328 O 0.64857 0.60157 0.10207
 Zr329 Zr 0.62590 0.66960 0.12551
 O330 O 0.60241 0.64803 0.10193
 Zr331 Zr 0.62420 0.57951 0.12397
 O332 O 0.64814 0.60070 0.14798
 Zr333 Zr 0.58016 0.62387 0.12402
 O334 O 0.60153 0.64768 0.14784
 Zr335 Zr 0.62448 0.62372 0.07977
 O336 O 0.64822 0.64758 0.10123
 O337 O 0.64931 0.64878 0.14893
 O338 O 0.60075 0.60025 0.10035
 C339 C 0.62401 0.68279 0.18274
 C340 C 0.68325 0.62347 0.18280
 C341 C 0.68312 0.68262 0.12370
 C342 C 0.62390 0.56631 0.06674
 C343 C 0.56707 0.56656 0.12304
 C344 C 0.56721 0.62329 0.06672
 H345 H 0.59222 0.59124 0.15960
 H346 H 0.59203 0.65944 0.09150
 H347 H 0.66009 0.65955 0.15969
 H348 H 0.65987 0.59088 0.09180
 H349 H 0.66514 0.55710 0.13778
 H350 H 0.69330 0.58298 0.11841
 H351 H 0.55569 0.66454 0.11205
 H352 H 0.58364 0.69103 0.13612
 H353 H 0.63080 0.55694 0.16644
 H354 H 0.63849 0.58581 0.19552
 H355 H 0.61275 0.66439 0.05521
 H356 H 0.63643 0.69086 0.08315
 H357 H 0.58360 0.63608 0.19112
 H358 H 0.55601 0.61207 0.16490
 H359 H 0.69098 0.63718 0.08322
 H360 H 0.66513 0.61150 0.05540
 O361 O 0.37544 0.84074 0.69016
 O362 O 0.40289 0.87567 0.69750
 O363 O 0.30958 0.87703 0.65992
 O364 O 0.30044 0.90193 0.62725
 O365 O 0.34002 0.81048 0.62443
 O366 O 0.37503 0.80331 0.59686
 O367 O 0.37563 0.94099 0.59009
 O368 O 0.34603 0.94745 0.62379
 O369 O 0.43988 0.91063 0.62382
 O370 O 0.44785 0.87514 0.65252
 O371 O 0.40961 0.87677 0.55981
 O372 O 0.37359 0.84802 0.55209
 O373 O 0.37591 0.91067 0.55989
 O374 O 0.34692 0.87489 0.55218
 O375 O 0.43986 0.87675 0.59003
 O376 O 0.44743 0.84777 0.62621
 O377 O 0.40971 0.94095 0.62308
 O378 O 0.37941 0.94896 0.65213
 O379 O 0.37539 0.81045 0.65987
 O380 O 0.40305 0.80336 0.62478
 O381 O 0.30978 0.84080 0.62482
 O382 O 0.30384 0.87620 0.59564
 O383 O 0.33979 0.87576 0.69020
 O384 O 0.37621 0.90341 0.69797
 Zr385 Zr 0.37401 0.87495 0.67009
 O386 O 0.39746 0.89847 0.64841
 Zr387 Zr 0.32982 0.87504 0.62589
 O388 O 0.35136 0.89867 0.60230
 Zr389 Zr 0.37408 0.83070 0.62579
 O390 O 0.39756 0.85225 0.60217
 Zr391 Zr 0.37571 0.92081 0.62415
 O392 O 0.35179 0.89962 0.64821
 Zr393 Zr 0.41979 0.87647 0.62421
 O394 O 0.39843 0.85268 0.64809
 Zr395 Zr 0.37547 0.87650 0.57998
 O396 O 0.35175 0.85267 0.60150
 O397 O 0.35065 0.85153 0.64922
 O398 O 0.39918 0.90003 0.60053
 C399 C 0.37595 0.81757 0.68303
 C400 C 0.31666 0.87694 0.68309
 C401 C 0.31687 0.81763 0.62410
 C402 C 0.37594 0.93385 0.56694
 C403 C 0.43283 0.93379 0.62317
 C404 C 0.43276 0.87694 0.56688
 H405 H 0.40768 0.90915 0.65977
 H406 H 0.40795 0.84083 0.59174
 H407 H 0.33987 0.84078 0.66000
 H408 H 0.34005 0.90932 0.59203
 H409 H 0.33475 0.94317 0.63804
 H410 H 0.30662 0.91726 0.61865
 H411 H 0.44430 0.83581 0.61226
 H412 H 0.41636 0.80932 0.63640
 H413 H 0.36916 0.94342 0.66663
 H414 H 0.36146 0.91460 0.69574
 H415 H 0.38725 0.83579 0.55547
 H416 H 0.36355 0.80936 0.58346
 H417 H 0.41634 0.86430 0.69133
 H418 H 0.44388 0.88832 0.66509
 H419 H 0.30898 0.86294 0.58355
 H420 H 0.33478 0.88860 0.55567
 O421 O 0.87585 0.34016 0.69028
 O422 O 0.90326 0.37508 0.69771
 O423 O 0.80999 0.37645 0.66007
 O424 O 0.80078 0.40133 0.62744
 O425 O 0.84043 0.30994 0.62451
 O426 O 0.87549 0.30284 0.59694
 O427 O 0.87602 0.44048 0.59040
 O428 O 0.84640 0.44692 0.62408
 O429 O 0.94025 0.41015 0.62407
 O430 O 0.94819 0.37458 0.65279
 O431 O 0.90996 0.37636 0.56006
 O432 O 0.87400 0.34758 0.55227
 O433 O 0.87630 0.41019 0.56017
 O434 O 0.84730 0.37443 0.55241
 O435 O 0.94022 0.37634 0.59027
 O436 O 0.94788 0.34732 0.62636
 O437 O 0.91006 0.44045 0.62338
 O438 O 0.87975 0.44839 0.65246
 O439 O 0.87580 0.30991 0.65996
 O440 O 0.90344 0.30282 0.62490
 O441 O 0.81019 0.34025 0.62492
 O442 O 0.80425 0.37573 0.59580
 O443 O 0.84019 0.37513 0.69036
 O444 O 0.87658 0.40280 0.69819
 Zr445 Zr 0.87440 0.37438 0.67027
 O446 O 0.89785 0.39795 0.64866
 Zr447 Zr 0.83021 0.37449 0.62607
 O448 O 0.85174 0.39817 0.60254
 Zr449 Zr 0.87448 0.33017 0.62593
 O450 O 0.89797 0.35177 0.60236
 Zr451 Zr 0.87607 0.42028 0.62443
 O452 O 0.85216 0.39906 0.64844
 Zr453 Zr 0.92017 0.37598 0.62444
 O454 O 0.89882 0.35214 0.64825
 Zr455 Zr 0.87585 0.37602 0.58022
 O456 O 0.85214 0.35214 0.60166
 O457 O 0.85104 0.35097 0.64937
 O458 O 0.89954 0.39954 0.60079
 C459 C 0.87637 0.31701 0.68313
 C460 C 0.81708 0.37633 0.68324
 C461 C 0.81729 0.31708 0.62415
 C462 C 0.87636 0.43335 0.56726
 C463 C 0.93319 0.43331 0.62344
 C464 C 0.93310 0.37656 0.56714
 H465 H 0.90806 0.40861 0.66004
 H466 H 0.90836 0.34037 0.59192
 H467 H 0.84027 0.34020 0.66013
 H468 H 0.84042 0.40883 0.59228
 H469 H 0.83511 0.44263 0.63831
 H470 H 0.80698 0.41671 0.61896
 H471 H 0.94471 0.33534 0.61243
 H472 H 0.91678 0.30881 0.63647
 H473 H 0.86945 0.44285 0.66692
 H474 H 0.86182 0.41398 0.69599
 H475 H 0.88766 0.33536 0.55563
 H476 H 0.86398 0.30887 0.58357
 H477 H 0.91673 0.36376 0.69152
 H478 H 0.94431 0.38785 0.66530
 H479 H 0.80936 0.36246 0.58371
 H480 H 0.83519 0.38817 0.55588
 O481 O 0.81003 0.87500 0.15947
 O482 O 0.80269 0.90235 0.12438
 O483 O 0.84052 0.80921 0.12347
 O484 O 0.87313 0.79985 0.09871
 O485 O 0.87582 0.83983 0.18997
 O486 O 0.90319 0.87483 0.19714
 O487 O 0.90999 0.87572 0.05924
 O488 O 0.87723 0.84606 0.05238
 O489 O 0.87623 0.93957 0.08969
 O490 O 0.84769 0.94757 0.12557
 O491 O 0.94033 0.90926 0.12338
 O492 O 0.94826 0.87339 0.15197
 O493 O 0.94017 0.87569 0.08948
 O494 O 0.94788 0.84649 0.12533
 O495 O 0.91011 0.93953 0.12339
 O496 O 0.87415 0.94721 0.15251
 O497 O 0.87657 0.90937 0.05937
 O498 O 0.84729 0.87477 0.05162
 O499 O 0.84026 0.87516 0.18979
 O500 O 0.87538 0.90292 0.19686
 O501 O 0.87555 0.80950 0.15974
 O502 O 0.90501 0.80363 0.12461
 O503 O 0.81019 0.83945 0.12405
 O504 O 0.80295 0.87451 0.09637
 Zr505 Zr 0.83026 0.87360 0.12535
 O506 O 0.85177 0.89724 0.10188
 Zr507 Zr 0.87455 0.82942 0.12545
 O508 O 0.89791 0.85097 0.10160
 Zr509 Zr 0.87440 0.87383 0.16964
 O510 O 0.89803 0.89725 0.14803
 Zr511 Zr 0.87595 0.87529 0.07948
 O512 O 0.85229 0.85134 0.10090
 Zr513 Zr 0.87597 0.91948 0.12386
 O514 O 0.85211 0.89811 0.14762
 Zr515 Zr 0.92017 0.87515 0.12371
 O516 O 0.89879 0.85151 0.14773
 O517 O 0.85110 0.85028 0.14884
 O518 O 0.89956 0.89883 0.10019
 C519 C 0.81711 0.87562 0.18265
 C520 C 0.81734 0.81631 0.12319
 C521 C 0.87623 0.81666 0.18289
 C522 C 0.93318 0.87598 0.06627
 C523 C 0.87662 0.93250 0.06652
 C524 C 0.93324 0.93241 0.12316
 H525 H 0.84035 0.90774 0.09160
 H526 H 0.90848 0.90763 0.15942
 H527 H 0.84029 0.83951 0.15956
 H528 H 0.90820 0.83970 0.09091
 H529 H 0.86487 0.83317 0.05779
 H530 H 0.88295 0.80530 0.08384
 H531 H 0.88806 0.94400 0.16449
 H532 H 0.86365 0.91615 0.19092
 H533 H 0.83489 0.88807 0.05568
 H534 H 0.80898 0.86293 0.08303
 H535 H 0.94467 0.88679 0.16443
 H536 H 0.91673 0.86354 0.19102
 H537 H 0.80877 0.91590 0.13566
 H538 H 0.83520 0.94392 0.11224
 H539 H 0.91695 0.80887 0.13794
 H540 H 0.94463 0.83456 0.11138
 O541 O 0.37529 0.34001 0.19018
 O542 O 0.40265 0.37505 0.19755
 O543 O 0.30962 0.37609 0.15964
 O544 O 0.30027 0.40074 0.12697
 O545 O 0.34018 0.30949 0.12436
 O546 O 0.37518 0.30233 0.09690
 O547 O 0.37612 0.44025 0.09030
 O548 O 0.34653 0.44711 0.12309
 O549 O 0.43997 0.40973 0.12397
 O550 O 0.44779 0.37378 0.15269
 O551 O 0.40977 0.37610 0.05988
 O552 O 0.37399 0.34757 0.05180
 O553 O 0.37616 0.41000 0.06002
 O554 O 0.34699 0.37409 0.05229
 O555 O 0.43996 0.37604 0.09016
 O556 O 0.44764 0.34699 0.12602
 O557 O 0.40981 0.44007 0.12365
 O558 O 0.37515 0.44778 0.15308
 O559 O 0.37547 0.30968 0.15991
 O560 O 0.40325 0.30258 0.12475
 O561 O 0.30989 0.33975 0.12464
 O562 O 0.30414 0.37486 0.09509
 O563 O 0.33981 0.37548 0.19001
 O564 O 0.37485 0.40307 0.19732
 Zr565 Zr 0.37396 0.37411 0.16995
 O566 O 0.39763 0.39758 0.14849
 Zr567 Zr 0.32984 0.37402 0.12561
 O568 O 0.35144 0.39787 0.10230
 Zr569 Zr 0.37418 0.32981 0.12575
 O570 O 0.39765 0.35142 0.10216
 Zr571 Zr 0.37571 0.41999 0.12431
 O572 O 0.35173 0.39856 0.14793
 Zr573 Zr 0.41986 0.37558 0.12427
 O574 O 0.39845 0.35181 0.14809
 Zr575 Zr 0.37563 0.37576 0.08000
 O576 O 0.35194 0.35174 0.10134
 O577 O 0.35065 0.35064 0.14907
 O578 O 0.39926 0.39926 0.10069
 C579 C 0.37590 0.31683 0.18308
 C580 C 0.31669 0.37637 0.18283
 C581 C 0.31702 0.31659 0.12399
 C582 C 0.37639 0.43316 0.06714
 C583 C 0.43292 0.43290 0.12357
 C584 C 0.43290 0.37631 0.06701
 H585 H 0.40812 0.40785 0.15994
 H586 H 0.40804 0.34003 0.09171
 H587 H 0.33986 0.33994 0.15989
 H588 H 0.34018 0.40856 0.09200
 H589 H 0.33360 0.44167 0.13541
 H590 H 0.30577 0.41564 0.11725
 H591 H 0.44432 0.33491 0.11221
 H592 H 0.41646 0.30851 0.13650
 H593 H 0.38861 0.44385 0.16534
 H594 H 0.36336 0.41645 0.19126
 H595 H 0.38725 0.33501 0.05551
 H596 H 0.36389 0.30846 0.08338
 H597 H 0.41621 0.36378 0.19145
 H598 H 0.44432 0.38733 0.16502
 H599 H 0.30933 0.36145 0.08320
 H600 H 0.33508 0.38806 0.05553
 O601 O 0.37566 0.66025 0.80983
 O602 O 0.40317 0.62534 0.80242
 O603 O 0.30989 0.62388 0.84015
 O604 O 0.30074 0.59903 0.87283
 O605 O 0.34025 0.69046 0.87562
 O606 O 0.37529 0.69756 0.90319
 O607 O 0.37602 0.55989 0.90978
 O608 O 0.34640 0.55347 0.87611
 O609 O 0.44023 0.59025 0.87599
 O610 O 0.44808 0.62584 0.84724
 O611 O 0.40995 0.62403 0.94005
 O612 O 0.37397 0.65280 0.94790
 O613 O 0.37629 0.59018 0.94001
 O614 O 0.34726 0.62598 0.94778
 O615 O 0.44019 0.62407 0.90979
 O616 O 0.44777 0.65308 0.87370
 O617 O 0.41007 0.55994 0.87675
 O618 O 0.37976 0.55199 0.84771
 O619 O 0.37561 0.69052 0.84015
 O620 O 0.40327 0.69758 0.87519
 O621 O 0.31005 0.66013 0.87524
 O622 O 0.30419 0.62470 0.90444
 O623 O 0.34007 0.62521 0.80983
 O624 O 0.37651 0.59761 0.80193
 Zr625 Zr 0.37430 0.62602 0.82987
 O626 O 0.39778 0.60245 0.85146
 Zr627 Zr 0.33013 0.62589 0.87414
 O628 O 0.35170 0.60222 0.89765
 Zr629 Zr 0.37434 0.67023 0.87420
 O630 O 0.39786 0.64864 0.89775
 Zr631 Zr 0.37605 0.58010 0.87574
 O632 O 0.35211 0.60133 0.85175
 Zr633 Zr 0.42010 0.62442 0.87564
 O634 O 0.39870 0.64827 0.85186
 Zr635 Zr 0.37581 0.62437 0.91994
 O636 O 0.35205 0.64824 0.89851
 O637 O 0.35092 0.64941 0.85079
 O638 O 0.39952 0.60085 0.89934
 C639 C 0.37616 0.68342 0.81697
 C640 C 0.31696 0.62399 0.81697
 C641 C 0.31710 0.68331 0.87596
 C642 C 0.37635 0.56701 0.93293
 C643 C 0.43319 0.56709 0.87665
 C644 C 0.43309 0.62383 0.93294
 H645 H 0.40799 0.59179 0.84008
 H646 H 0.40825 0.66004 0.90817
 H647 H 0.34013 0.66017 0.84003
 H648 H 0.34041 0.59156 0.90793
 H649 H 0.33510 0.55776 0.86190
 H650 H 0.30696 0.58367 0.88134
 H651 H 0.44457 0.66508 0.88761
 H652 H 0.41661 0.69160 0.86359
 H653 H 0.36946 0.55753 0.83325
 H654 H 0.36180 0.58639 0.80418
 H655 H 0.38758 0.66505 0.94447
 H656 H 0.36379 0.69151 0.91657
 H657 H 0.41660 0.63672 0.80857
 H658 H 0.44421 0.61256 0.83474
 H659 H 0.30929 0.63798 0.91651
 H660 H 0.33516 0.61224 0.94432
 O661 O 0.12450 0.66024 0.69014
 O662 O 0.09722 0.62518 0.69752
 O663 O 0.19029 0.62424 0.65966
 O664 O 0.19974 0.59961 0.62698
 O665 O 0.15967 0.69079 0.62436
 O666 O 0.12471 0.69786 0.59687
 O667 O 0.12396 0.55995 0.59028
 O668 O 0.15351 0.55314 0.62305
 O669 O 0.06003 0.59039 0.62389
 O670 O 0.05206 0.62634 0.65255
 O671 O 0.09030 0.62405 0.55980
 O672 O 0.12608 0.65261 0.55178
 O673 O 0.12393 0.59017 0.56000
 O674 O 0.15309 0.62609 0.55228
 O675 O 0.06005 0.62409 0.59003
 O676 O 0.05229 0.65316 0.62594
 O677 O 0.09024 0.56010 0.62362
 O678 O 0.12488 0.55249 0.65307
 O679 O 0.12433 0.69055 0.65988
 O680 O 0.09660 0.69759 0.62471
 O681 O 0.19001 0.66058 0.62466
 O682 O 0.19586 0.62544 0.59511
 O683 O 0.16007 0.62484 0.69001
 O684 O 0.12503 0.59717 0.69726
 Zr685 Zr 0.12593 0.62613 0.66992
 O686 O 0.10231 0.60263 0.64844
 Zr687 Zr 0.17012 0.62627 0.62561
 O688 O 0.14859 0.60237 0.60229
 Zr689 Zr 0.12570 0.67041 0.62572
 O690 O 0.10230 0.64875 0.60210
 Zr691 Zr 0.12430 0.58024 0.62428
 O692 O 0.14823 0.60171 0.64791
 Zr693 Zr 0.08009 0.62458 0.62419
 O694 O 0.10143 0.64837 0.64804
 Zr695 Zr 0.12440 0.62443 0.57997
 O696 O 0.14802 0.64850 0.60133
 O697 O 0.14924 0.64963 0.64906
 O698 O 0.10076 0.60091 0.60063
 C699 C 0.12386 0.68341 0.68304
 C700 C 0.18320 0.62396 0.68285
 C701 C 0.18284 0.68373 0.62400
 C702 C 0.12371 0.56702 0.56712
 C703 C 0.06711 0.56723 0.62352
 C704 C 0.06716 0.62383 0.56689
 H705 H 0.09182 0.59237 0.65987
 H706 H 0.09192 0.66012 0.59164
 H707 H 0.15999 0.66036 0.65989
 H708 H 0.15987 0.59169 0.59200
 H709 H 0.16642 0.55860 0.63536
 H710 H 0.19426 0.58467 0.61729
 H711 H 0.05558 0.66520 0.61210
 H712 H 0.08337 0.69165 0.63644
 H713 H 0.11138 0.55640 0.66531
 H714 H 0.13660 0.58383 0.69123
 H715 H 0.11279 0.66515 0.55547
 H716 H 0.13605 0.69175 0.58337
 H717 H 0.08362 0.63638 0.69138
 H718 H 0.05559 0.61286 0.66493
 H719 H 0.19068 0.63884 0.58321
 H720 H 0.16501 0.61214 0.55554
 O721 O 0.12440 0.15935 0.19011
 O722 O 0.09705 0.12429 0.19737
 O723 O 0.19021 0.12333 0.15971
 O724 O 0.19965 0.09864 0.12705
 O725 O 0.15974 0.18990 0.12440
 O726 O 0.12481 0.19706 0.09688
 O727 O 0.12385 0.05921 0.09007
 O728 O 0.15343 0.05232 0.12287
 O729 O 0.05997 0.08962 0.12369
 O730 O 0.05197 0.12554 0.15231
 O731 O 0.09040 0.12338 0.05964
 O732 O 0.12627 0.15192 0.05178
 O733 O 0.12392 0.08945 0.05988
 O734 O 0.15317 0.12529 0.05222
 O735 O 0.06009 0.12336 0.08982
 O736 O 0.05230 0.15241 0.12576
 O737 O 0.09017 0.05931 0.12342
 O738 O 0.12472 0.05159 0.15282
 O739 O 0.12432 0.18968 0.15987
 O740 O 0.09668 0.19681 0.12468
 O741 O 0.19004 0.15966 0.12471
 O742 O 0.19592 0.12456 0.09518
 O743 O 0.15992 0.12392 0.19000
 O744 O 0.12486 0.09626 0.19715
 Zr745 Zr 0.12583 0.12525 0.16984
 O746 O 0.10223 0.10180 0.14828
 Zr747 Zr 0.17010 0.12538 0.12562
 O748 O 0.14858 0.10155 0.10220
 Zr749 Zr 0.12573 0.16957 0.12569
 O750 O 0.10234 0.14798 0.10201
 Zr751 Zr 0.12423 0.07943 0.12412
 O752 O 0.14814 0.10082 0.14784
 Zr753 Zr 0.08006 0.12380 0.12402
 O754 O 0.10139 0.14754 0.14794
 Zr755 Zr 0.12446 0.12367 0.07989
 O756 O 0.14807 0.14767 0.10132
 O757 O 0.14920 0.14875 0.14905
 O758 O 0.10075 0.10014 0.10046
 C759 C 0.12380 0.18252 0.18302
 C760 C 0.18307 0.12304 0.18289
 C761 C 0.18290 0.18281 0.12406
 C762 C 0.12362 0.06625 0.06688
 C763 C 0.06704 0.06645 0.12331
 C764 C 0.06724 0.12315 0.06668
 H765 H 0.09171 0.09153 0.15968
 H766 H 0.09199 0.15938 0.09155
 H767 H 0.15994 0.15945 0.15991
 H768 H 0.15986 0.09086 0.09192
 H769 H 0.16631 0.05772 0.13524
 H770 H 0.19420 0.08377 0.11722
 H771 H 0.05561 0.16445 0.11193
 H772 H 0.08340 0.19085 0.13634
 H773 H 0.11133 0.05559 0.16514
 H774 H 0.13645 0.08293 0.19113
 H775 H 0.11294 0.16443 0.05541
 H776 H 0.13618 0.19097 0.08339
 H777 H 0.08350 0.13555 0.19125
 H778 H 0.05551 0.11211 0.16473
 H779 H 0.19072 0.13792 0.08325
 H780 H 0.16506 0.11132 0.05548
 O781 O 0.69050 0.37563 0.84065
 O782 O 0.69787 0.40291 0.87575
 O783 O 0.66009 0.30981 0.87657
 O784 O 0.62746 0.30050 0.90136
 O785 O 0.62481 0.34042 0.81008
 O786 O 0.59732 0.37542 0.80298
 O787 O 0.59058 0.37637 0.94081
 O788 O 0.62334 0.34675 0.94770
 O789 O 0.62426 0.44024 0.91043
 O790 O 0.65282 0.44822 0.87455
 O791 O 0.56020 0.40992 0.87669
 O792 O 0.55237 0.37400 0.84800
 O793 O 0.56038 0.37632 0.91052
 O794 O 0.55264 0.34720 0.87472
 O795 O 0.59038 0.44020 0.87671
 O796 O 0.62638 0.44783 0.84759
 O797 O 0.62397 0.41005 0.94073
 O798 O 0.65328 0.37542 0.94845
 O799 O 0.66026 0.37580 0.81034
 O800 O 0.62515 0.40348 0.80320
 O801 O 0.62509 0.31010 0.84030
 O802 O 0.59560 0.30426 0.87542
 O803 O 0.69040 0.34004 0.87600
 O804 O 0.69757 0.37510 0.90377
 Zr805 Zr 0.67029 0.37421 0.87476
 O806 O 0.64877 0.39789 0.89822
 Zr807 Zr 0.62604 0.33003 0.87461
 O808 O 0.60267 0.35163 0.89844
 Zr809 Zr 0.62614 0.37443 0.83045
 O810 O 0.60251 0.39790 0.85204
 Zr811 Zr 0.62461 0.37595 0.92060
 O812 O 0.64828 0.35196 0.89919
 Zr813 Zr 0.62455 0.42013 0.87625
 O814 O 0.64842 0.39872 0.85250
 Zr815 Zr 0.58039 0.37581 0.87633
 O816 O 0.60178 0.35211 0.85233
 O817 O 0.64947 0.35089 0.85124
 O818 O 0.60098 0.39948 0.89989
 C819 C 0.68340 0.37627 0.81748
 C820 C 0.68326 0.31689 0.87683
 C821 C 0.62444 0.31725 0.81715
 C822 C 0.56745 0.37659 0.93368
 C823 C 0.62390 0.43318 0.93360
 C824 C 0.56725 0.43308 0.87693
 H825 H 0.66019 0.40839 0.90849
 H826 H 0.59207 0.40828 0.84065
 H827 H 0.66030 0.34013 0.84051
 H828 H 0.59238 0.34036 0.90911
 H829 H 0.63569 0.33384 0.94229
 H830 H 0.61762 0.30596 0.91622
 H831 H 0.61243 0.44467 0.83565
 H832 H 0.63679 0.41676 0.80919
 H833 H 0.66566 0.38873 0.94440
 H834 H 0.69157 0.36347 0.91706
 H835 H 0.55588 0.38749 0.83562
 H836 H 0.58384 0.36405 0.80905
 H837 H 0.69175 0.41652 0.86455
 H838 H 0.66529 0.44458 0.88791
 H839 H 0.58367 0.30948 0.86206
 H840 H 0.55602 0.33517 0.88855
 O841 O 0.12426 0.84051 0.81014
 O842 O 0.09690 0.87555 0.80283
 O843 O 0.18997 0.87653 0.84064
 O844 O 0.19926 0.90122 0.87336
 O845 O 0.15949 0.80991 0.87585
 O846 O 0.12451 0.80277 0.90337
 O847 O 0.12338 0.94061 0.91021
 O848 O 0.15296 0.94753 0.87744
 O849 O 0.05955 0.91018 0.87649
 O850 O 0.05172 0.87424 0.84778
 O851 O 0.08983 0.87639 0.94056
 O852 O 0.12575 0.84783 0.94844
 O853 O 0.12341 0.91033 0.94042
 O854 O 0.15258 0.87450 0.94812
 O855 O 0.05961 0.87640 0.91032
 O856 O 0.05197 0.84740 0.87435
 O857 O 0.08970 0.94051 0.87679
 O858 O 0.12434 0.94824 0.84745
 O859 O 0.12414 0.81016 0.84036
 O860 O 0.09645 0.80298 0.87550
 O861 O 0.18976 0.84017 0.87561
 O862 O 0.19550 0.87525 0.90519
 O863 O 0.15976 0.87596 0.81031
 O864 O 0.12466 0.90360 0.80313
 Zr865 Zr 0.12561 0.87460 0.83042
 O866 O 0.10191 0.89802 0.85195
 Zr867 Zr 0.16976 0.87446 0.87471
 O868 O 0.14813 0.89825 0.89809
 Zr869 Zr 0.12546 0.83024 0.87455
 O870 O 0.10196 0.85182 0.89819
 Zr871 Zr 0.12381 0.92040 0.87615
 O872 O 0.14782 0.89902 0.85247
 Zr873 Zr 0.07970 0.87601 0.87616
 O874 O 0.10114 0.85228 0.85228
 Zr875 Zr 0.12397 0.87612 0.92038
 O876 O 0.14770 0.85216 0.89897
 O877 O 0.14896 0.85109 0.85123
 O878 O 0.10029 0.89966 0.89977
 C879 C 0.12367 0.81733 0.81721
 C880 C 0.18289 0.87684 0.81745
 C881 C 0.18265 0.81701 0.87623
 C882 C 0.12315 0.93349 0.93335
 C883 C 0.06658 0.93335 0.87686
 C884 C 0.06669 0.87659 0.93347
 H885 H 0.09140 0.90829 0.84053
 H886 H 0.09159 0.84041 0.90862
 H887 H 0.15974 0.84040 0.84038
 H888 H 0.15937 0.90893 0.90840
 H889 H 0.16589 0.94212 0.86511
 H890 H 0.19377 0.91608 0.88319
 H891 H 0.05528 0.83532 0.88816
 H892 H 0.08318 0.80896 0.86384
 H893 H 0.11097 0.94425 0.83512
 H894 H 0.13622 0.91694 0.80917
 H895 H 0.11241 0.83535 0.94481
 H896 H 0.13587 0.80884 0.91686
 H897 H 0.08334 0.86431 0.80894
 H898 H 0.05522 0.88775 0.83543
 H899 H 0.19030 0.86187 0.91710
 H900 H 0.16456 0.88838 0.94479
 O901 O 0.69027 0.12469 0.65964
 O902 O 0.69758 0.09734 0.62455
 O903 O 0.65991 0.19052 0.62367
 O904 O 0.62730 0.19994 0.59897
 O905 O 0.62461 0.16003 0.69023
 O906 O 0.59710 0.12511 0.69739
 O907 O 0.59036 0.12408 0.55950
 O908 O 0.62315 0.15365 0.55260
 O909 O 0.62398 0.06018 0.58993
 O910 O 0.65249 0.05217 0.62581
 O911 O 0.55992 0.09068 0.62365
 O912 O 0.55207 0.12656 0.65229
 O913 O 0.56014 0.12423 0.58980
 O914 O 0.55251 0.15347 0.62566
 O915 O 0.59007 0.06034 0.62362
 O916 O 0.62600 0.05261 0.65276
 O917 O 0.62371 0.09035 0.55961
 O918 O 0.65308 0.12493 0.55187
 O919 O 0.66004 0.12460 0.68998
 O920 O 0.62486 0.09696 0.69711
 O921 O 0.62493 0.19034 0.66000
 O922 O 0.59543 0.19621 0.62488
 O923 O 0.69020 0.16024 0.62424
 O924 O 0.69735 0.12514 0.59653
 Zr925 Zr 0.67005 0.12612 0.62554
 O926 O 0.64851 0.10248 0.60210
 Zr927 Zr 0.62585 0.17039 0.62570
 O928 O 0.60247 0.14885 0.60187
 Zr929 Zr 0.62590 0.12602 0.66989
 O930 O 0.60224 0.10261 0.64829
 Zr931 Zr 0.62438 0.12447 0.57971
 O932 O 0.64807 0.14841 0.60111
 Zr933 Zr 0.62426 0.08031 0.62410
 O934 O 0.64816 0.10167 0.64783
 Zr935 Zr 0.58015 0.12474 0.62400
 O936 O 0.60156 0.14837 0.64800
 O937 O 0.64926 0.14949 0.64906
 O938 O 0.60072 0.10100 0.60046
 C939 C 0.68318 0.12409 0.68282
 C940 C 0.68308 0.18339 0.62340
 C941 C 0.62427 0.18320 0.68315
 C942 C 0.56722 0.12390 0.56664
 C943 C 0.62362 0.06722 0.56677
 C944 C 0.56695 0.06751 0.62339
 H945 H 0.65992 0.09195 0.59182
 H946 H 0.59177 0.09226 0.65969
 H947 H 0.66010 0.16024 0.65977
 H948 H 0.59220 0.16013 0.59119
 H949 H 0.63551 0.16655 0.55800
 H950 H 0.61752 0.19448 0.58409
 H951 H 0.61206 0.05583 0.66471
 H952 H 0.63652 0.08367 0.69114
 H953 H 0.66541 0.11156 0.55588
 H954 H 0.69135 0.13675 0.58321
 H955 H 0.55564 0.11316 0.66474
 H956 H 0.58361 0.13647 0.69130
 H957 H 0.69147 0.08378 0.63581
 H958 H 0.66499 0.05578 0.61247
 H959 H 0.58352 0.19105 0.63829
 H960 H 0.55580 0.16539 0.61172
 C961 C 0.37694 0.76034 0.74019
 C962 C 0.37689 0.75327 0.71469
 C963 C 0.37674 0.77204 0.69608
 C964 C 0.37661 0.79778 0.70280
 C965 C 0.37671 0.80446 0.72855
 C966 C 0.37686 0.78582 0.74729
 C967 C 0.37697 0.74066 0.75983
 C968 C 0.37692 0.74772 0.78533
 C969 C 0.37683 0.72895 0.80394
 C970 C 0.37676 0.70322 0.79721
 C971 C 0.37686 0.69654 0.77146
 C972 C 0.37695 0.71518 0.75272
 C973 C 0.37683 0.79215 0.77302
 C974 C 0.37686 0.77343 0.79171
 C975 C 0.37689 0.72757 0.70831
 C976 C 0.37692 0.70885 0.72700
 H977 H 0.37675 0.81175 0.77876
 H978 H 0.37680 0.77913 0.81132
 H979 H 0.37683 0.72187 0.68869
 H980 H 0.37688 0.68925 0.72126
 H981 H 0.37661 0.76657 0.67640
 H982 H 0.37656 0.82413 0.73406
 H983 H 0.37670 0.73442 0.82362
 H984 H 0.37676 0.67687 0.76595
 C985 C 0.37675 0.24002 0.25996
 C986 C 0.37675 0.21452 0.25287
 C987 C 0.37662 0.19591 0.27164
 C988 C 0.37647 0.20262 0.29738
 C989 C 0.37652 0.22836 0.30407
 C990 C 0.37664 0.24711 0.28545
 C991 C 0.37676 0.25967 0.24029
 C992 C 0.37666 0.28516 0.24737
 C993 C 0.37655 0.30378 0.22861
 C994 C 0.37651 0.29707 0.20287
 C995 C 0.37666 0.27133 0.19617
 C996 C 0.37677 0.25258 0.21480
 C997 C 0.37656 0.27282 0.29180
 C998 C 0.37657 0.29152 0.27309
 C999 C 0.37678 0.20816 0.22716
 C1000 C 0.37679 0.22687 0.20845
 H1001 H 0.37646 0.27854 0.31141
 H1002 H 0.37647 0.31113 0.27880
 H1003 H 0.37675 0.18856 0.22144
 H1004 H 0.37677 0.22114 0.18884
 H1005 H 0.37653 0.17623 0.26615
 H1006 H 0.37635 0.23385 0.32375
 H1007 H 0.37639 0.32345 0.23410
 H1008 H 0.37658 0.26583 0.17650
 C1009 C 0.62299 0.75960 0.25962
 C1010 C 0.62302 0.75250 0.28511
 C1011 C 0.62312 0.77125 0.30375
 C1012 C 0.62323 0.79698 0.29706
 C1013 C 0.62315 0.80369 0.27133
 C1014 C 0.62305 0.78508 0.25256
 C1015 C 0.62302 0.73995 0.23995
 C1016 C 0.62310 0.74704 0.21446
 C1017 C 0.62325 0.72829 0.19582
 C1018 C 0.62335 0.70256 0.20251
 C1019 C 0.62322 0.69585 0.22825
 C1020 C 0.62307 0.71446 0.24702
 C1021 C 0.62311 0.79145 0.22685
 C1022 C 0.62314 0.77275 0.20812
 C1023 C 0.62304 0.72679 0.29145
 C1024 C 0.62306 0.70809 0.27272
 H1025 H 0.62318 0.81105 0.22115
 H1026 H 0.62322 0.77847 0.18852
 H1027 H 0.62308 0.72107 0.31105
 H1028 H 0.62312 0.68849 0.27842
 H1029 H 0.62323 0.76576 0.32342
 H1030 H 0.62329 0.82337 0.26585
 H1031 H 0.62341 0.73378 0.17615
 H1032 H 0.62334 0.67618 0.23372
 C1033 C 0.12275 0.25937 0.25989
 C1034 C 0.12286 0.25231 0.28538
 C1035 C 0.12297 0.27107 0.30400
 C1036 C 0.12301 0.29680 0.29729
 C1037 C 0.12285 0.30349 0.27155
 C1038 C 0.12274 0.28486 0.25280
 C1039 C 0.12278 0.23970 0.24023
 C1040 C 0.12278 0.24677 0.21474
 C1041 C 0.12293 0.22801 0.19612
 C1042 C 0.12312 0.20228 0.20282
 C1043 C 0.12306 0.19559 0.22856
 C1044 C 0.12291 0.21422 0.24732
 C1045 C 0.12271 0.29120 0.22709
 C1046 C 0.12273 0.27248 0.20838
 C1047 C 0.12296 0.22660 0.29174
 C1048 C 0.12299 0.20788 0.27303
 H1049 H 0.12272 0.31080 0.22137
 H1050 H 0.12275 0.27818 0.18877
 H1051 H 0.12307 0.22090 0.31135
 H1052 H 0.12311 0.18828 0.27875
 H1053 H 0.12315 0.26560 0.32368
 H1054 H 0.12293 0.32316 0.26606
 H1055 H 0.12303 0.23350 0.17644
 H1056 H 0.12325 0.17592 0.23404
 C1057 C 0.12283 0.74056 0.74027
 C1058 C 0.12289 0.71507 0.74733
 C1059 C 0.12304 0.69646 0.72856
 C1060 C 0.12318 0.70317 0.70283
 C1061 C 0.12307 0.72891 0.69615
 C1062 C 0.12291 0.74765 0.71479
 C1063 C 0.12280 0.76020 0.75995
 C1064 C 0.12286 0.78570 0.75289
 C1065 C 0.12296 0.80431 0.77167
 C1066 C 0.12304 0.79759 0.79740
 C1067 C 0.12293 0.77185 0.80407
 C1068 C 0.12283 0.75311 0.78543
 C1069 C 0.12294 0.77337 0.70846
 C1070 C 0.12292 0.79206 0.72719
 C1071 C 0.12288 0.70870 0.77304
 C1072 C 0.12286 0.72740 0.79177
 H1073 H 0.12302 0.77909 0.68886
 H1074 H 0.12298 0.81167 0.72149
 H1075 H 0.12295 0.68909 0.77874
 H1076 H 0.12290 0.72167 0.81137
 H1077 H 0.12318 0.67678 0.73403
 H1078 H 0.12322 0.73441 0.67648
 H1079 H 0.12310 0.82399 0.76621
 H1080 H 0.12304 0.76634 0.82375
 C1081 C 0.87738 0.24013 0.75983
 C1082 C 0.87733 0.21465 0.75270
 C1083 C 0.87721 0.19602 0.77142
 C1084 C 0.87710 0.20269 0.79716
 C1085 C 0.87720 0.22841 0.80392
 C1086 C 0.87732 0.24718 0.78533
 C1087 C 0.87737 0.25980 0.74020
 C1088 C 0.87730 0.28528 0.74733
 C1089 C 0.87715 0.30391 0.72860
 C1090 C 0.87704 0.29723 0.70286
 C1091 C 0.87717 0.27151 0.69611
 C1092 C 0.87731 0.25274 0.71470
 C1093 C 0.87728 0.27288 0.79173
 C1094 C 0.87727 0.29161 0.77305
 C1095 C 0.87731 0.20832 0.72698
 C1096 C 0.87730 0.22705 0.70830
 H1097 H 0.87722 0.27857 0.81135
 H1098 H 0.87720 0.31121 0.77879
 H1099 H 0.87726 0.18872 0.72123
 H1100 H 0.87724 0.22136 0.68868
 H1101 H 0.87709 0.17635 0.76590
 H1102 H 0.87706 0.23387 0.82360
 H1103 H 0.87701 0.32358 0.73412
 H1104 H 0.87703 0.26605 0.67643
 C1105 C 0.76005 0.37727 0.74052
 C1106 C 0.75292 0.37755 0.71505
 C1107 C 0.77163 0.37743 0.69638
 C1108 C 0.79735 0.37698 0.70304
 C1109 C 0.80410 0.37674 0.72875
 C1110 C 0.78553 0.37687 0.74755
 C1111 C 0.74045 0.37726 0.76022
 C1112 C 0.74758 0.37687 0.78570
 C1113 C 0.72887 0.37673 0.80436
 C1114 C 0.70314 0.37694 0.79770
 C1115 C 0.69640 0.37739 0.77198
 C1116 C 0.71497 0.37753 0.75319
 C1117 C 0.79194 0.37651 0.77324
 C1118 C 0.77328 0.37651 0.79200
 C1119 C 0.72722 0.37786 0.70874
 C1120 C 0.70856 0.37784 0.72750
 H1121 H 0.81154 0.37619 0.77891
 H1122 H 0.77902 0.37618 0.81159
 H1123 H 0.72147 0.37806 0.68915
 H1124 H 0.68895 0.37804 0.72183
 H1125 H 0.76612 0.37755 0.67671
 H1126 H 0.82377 0.37636 0.73420
 H1127 H 0.73438 0.37633 0.82402
 H1128 H 0.67672 0.37751 0.76653
 C1129 C 0.25989 0.62292 0.75975
 C1130 C 0.28537 0.62318 0.75269
 C1131 C 0.30395 0.62335 0.77146
 C1132 C 0.29721 0.62330 0.79720
 C1133 C 0.27149 0.62298 0.80388
 C1134 C 0.25277 0.62282 0.78523
 C1135 C 0.24028 0.62290 0.74006
 C1136 C 0.21479 0.62278 0.74712
 C1137 C 0.19621 0.62292 0.72835
 C1138 C 0.20295 0.62321 0.70262
 C1139 C 0.22867 0.62324 0.69594
 C1140 C 0.24739 0.62311 0.71458
 C1141 C 0.22707 0.62266 0.79156
 C1142 C 0.20840 0.62264 0.77283
 C1143 C 0.29177 0.62336 0.72698
 C1144 C 0.27310 0.62332 0.70825
 H1145 H 0.22133 0.62260 0.81116
 H1146 H 0.18880 0.62257 0.77852
 H1147 H 0.31137 0.62357 0.72129
 H1148 H 0.27884 0.62351 0.68865
 H1149 H 0.32362 0.62363 0.76599
 H1150 H 0.26598 0.62300 0.82355
 H1151 H 0.17654 0.62293 0.73382
 H1152 H 0.23418 0.62353 0.67626
 C1153 C 0.25963 0.12220 0.25993
 C1154 C 0.28512 0.12245 0.25292
 C1155 C 0.30366 0.12268 0.27172
 C1156 C 0.29689 0.12270 0.29744
 C1157 C 0.27116 0.12240 0.30409
 C1158 C 0.25247 0.12217 0.28541
 C1159 C 0.24005 0.12211 0.24021
 C1160 C 0.21455 0.12200 0.24723
 C1161 C 0.19600 0.12209 0.22842
 C1162 C 0.20278 0.12231 0.20270
 C1163 C 0.22852 0.12233 0.19606
 C1164 C 0.24721 0.12226 0.21474
 C1165 C 0.22675 0.12202 0.29169
 C1166 C 0.20811 0.12194 0.27292
 C1167 C 0.29156 0.12255 0.22722
 C1168 C 0.27292 0.12246 0.20846
 H1169 H 0.22097 0.12201 0.31128
 H1170 H 0.18850 0.12187 0.27858
 H1171 H 0.31117 0.12276 0.22156
 H1172 H 0.27870 0.12259 0.18887
 H1173 H 0.32334 0.12295 0.26628
 H1174 H 0.26562 0.12247 0.32375
 H1175 H 0.17632 0.12211 0.23386
 H1176 H 0.23406 0.12257 0.17640
 C1177 C 0.75995 0.12293 0.75965
 C1178 C 0.78543 0.12326 0.75257
 C1179 C 0.80403 0.12333 0.77133
 C1180 C 0.79732 0.12311 0.79707
 C1181 C 0.77160 0.12273 0.80377
 C1182 C 0.75286 0.12266 0.78514
 C1183 C 0.74032 0.12299 0.73999
 C1184 C 0.71484 0.12278 0.74707
 C1185 C 0.69624 0.12297 0.72831
 C1186 C 0.70295 0.12339 0.70258
 C1187 C 0.72867 0.12354 0.69587
 C1188 C 0.74741 0.12337 0.71450
 C1189 C 0.72717 0.12242 0.79150
 C1190 C 0.70848 0.12249 0.77278
 C1191 C 0.79180 0.12361 0.72686
 C1192 C 0.77311 0.12366 0.70815
 H1193 H 0.72144 0.12223 0.81110
 H1194 H 0.68888 0.12234 0.77849
 H1195 H 0.81139 0.12388 0.72115
 H1196 H 0.77883 0.12397 0.68854
 H1197 H 0.82369 0.12367 0.76584
 H1198 H 0.76611 0.12261 0.82345
 H1199 H 0.67657 0.12289 0.73381
 H1200 H 0.73416 0.12392 0.67620
 C1201 C 0.74031 0.87672 0.25958
 C1202 C 0.71483 0.87639 0.25252
 C1203 C 0.69623 0.87632 0.27130
 C1204 C 0.70293 0.87656 0.29704
 C1205 C 0.72866 0.87695 0.30371
 C1206 C 0.74740 0.87701 0.28507
 C1207 C 0.75995 0.87667 0.23989
 C1208 C 0.78543 0.87689 0.24695
 C1209 C 0.80404 0.87671 0.22817
 C1210 C 0.79733 0.87629 0.20243
 C1211 C 0.77161 0.87612 0.19576
 C1212 C 0.75287 0.87628 0.21441
 C1213 C 0.77310 0.87725 0.29139
 C1214 C 0.79179 0.87719 0.27266
 C1215 C 0.70847 0.87603 0.22681
 C1216 C 0.72716 0.87598 0.20808
 H1217 H 0.77882 0.87745 0.31099
 H1218 H 0.81139 0.87735 0.27835
 H1219 H 0.68888 0.87575 0.22112
 H1220 H 0.72144 0.87566 0.18848
 H1221 H 0.67657 0.87598 0.26583
 H1222 H 0.73414 0.87707 0.32339
 H1223 H 0.82370 0.87680 0.23365
 H1224 H 0.76612 0.87573 0.17609
 C1225 C 0.75977 0.74011 0.37693
 C1226 C 0.75273 0.71462 0.37704
 C1227 C 0.77150 0.69603 0.37696
 C1228 C 0.79721 0.70277 0.37673
 C1229 C 0.80387 0.72850 0.37668
 C1230 C 0.78523 0.74723 0.37676
 C1231 C 0.74009 0.75974 0.37688
 C1232 C 0.74713 0.78523 0.37667
 C1233 C 0.72835 0.80382 0.37650
 C1234 C 0.70265 0.79707 0.37652
 C1235 C 0.69599 0.77134 0.37678
 C1236 C 0.71463 0.75262 0.37695
 C1237 C 0.79154 0.77294 0.37658
 C1238 C 0.77281 0.79162 0.37653
 C1239 C 0.72704 0.70822 0.37712
 C1240 C 0.70831 0.72690 0.37708
 H1241 H 0.81113 0.77868 0.37642
 H1242 H 0.77849 0.81123 0.37634
 H1243 H 0.72137 0.68861 0.37719
 H1244 H 0.68873 0.72116 0.37711
 H1245 H 0.76604 0.67635 0.37695
 H1246 H 0.82353 0.73401 0.37646
 H1247 H 0.73380 0.82350 0.37626
 H1248 H 0.67633 0.76583 0.37675
 C1249 C 0.76002 0.26005 0.62284
 C1250 C 0.75299 0.28555 0.62299
 C1251 C 0.77178 0.30412 0.62327
 C1252 C 0.79749 0.29736 0.62343
 C1253 C 0.80414 0.27161 0.62324
 C1254 C 0.78548 0.25290 0.62296
 C1255 C 0.74033 0.24044 0.62267
 C1256 C 0.74736 0.21494 0.62265
 C1257 C 0.72857 0.19637 0.62265
 C1258 C 0.70286 0.20313 0.62272
 C1259 C 0.69621 0.22888 0.62266
 C1260 C 0.71487 0.24759 0.62266
 C1261 C 0.79178 0.22718 0.62289
 C1262 C 0.77304 0.20852 0.62274
 C1263 C 0.72731 0.29197 0.62294
 C1264 C 0.70857 0.27331 0.62278
 H1265 H 0.81136 0.22141 0.62301
 H1266 H 0.77871 0.18890 0.62275
 H1267 H 0.72164 0.31159 0.62307
 H1268 H 0.68899 0.27908 0.62280
 H1269 H 0.76633 0.32381 0.62346
 H1270 H 0.82379 0.26607 0.62341
 H1271 H 0.73403 0.17668 0.62275
 H1272 H 0.67656 0.23441 0.62278
 C1273 C 0.74041 0.73963 0.12249
 C1274 C 0.71495 0.74678 0.12256
 C1275 C 0.69630 0.72808 0.12279
 C1276 C 0.70294 0.70233 0.12300
 C1277 C 0.72864 0.69556 0.12289
 C1278 C 0.74744 0.71413 0.12265
 C1279 C 0.76011 0.75923 0.12237
 C1280 C 0.78557 0.75209 0.12241
 C1281 C 0.80423 0.77080 0.12245
 C1282 C 0.79757 0.79655 0.12250
 C1283 C 0.77186 0.80331 0.12238
 C1284 C 0.75308 0.78474 0.12233
 C1285 C 0.77312 0.70771 0.12265
 C1286 C 0.79186 0.72636 0.12254
 C1287 C 0.70866 0.77250 0.12248
 C1288 C 0.72740 0.79116 0.12237
 H1289 H 0.77879 0.68809 0.12279
 H1290 H 0.81145 0.72060 0.12259
 H1291 H 0.68907 0.77827 0.12255
 H1292 H 0.72173 0.81078 0.12237
 H1293 H 0.67664 0.73362 0.12293
 H1294 H 0.73409 0.67587 0.12309
 H1295 H 0.82388 0.76528 0.12261
 H1296 H 0.76640 0.82299 0.12246
 C1297 C 0.25980 0.25951 0.12324
 C1298 C 0.25276 0.28501 0.12328
 C1299 C 0.27153 0.30359 0.12336
 C1300 C 0.29724 0.29684 0.12343
 C1301 C 0.30391 0.27110 0.12336
 C1302 C 0.28527 0.25238 0.12328
 C1303 C 0.24012 0.23990 0.12326
 C1304 C 0.24716 0.21440 0.12332
 C1305 C 0.22839 0.19582 0.12343
 C1306 C 0.20267 0.20256 0.12351
 C1307 C 0.19601 0.22831 0.12342
 C1308 C 0.21465 0.24703 0.12331
 C1309 C 0.29158 0.22666 0.12332
 C1310 C 0.27285 0.20799 0.12334
 C1311 C 0.22707 0.29142 0.12331
 C1312 C 0.20834 0.27275 0.12333
 H1313 H 0.31116 0.22091 0.12337
 H1314 H 0.27853 0.18838 0.12341
 H1315 H 0.22139 0.31103 0.12336
 H1316 H 0.18875 0.27850 0.12339
 H1317 H 0.26607 0.32327 0.12346
 H1318 H 0.32357 0.26558 0.12347
 H1319 H 0.23385 0.17614 0.12355
 H1320 H 0.17635 0.23382 0.12353
 C1321 C 0.25972 0.74034 0.87687
 C1322 C 0.25273 0.71483 0.87673
 C1323 C 0.27155 0.69626 0.87660
 C1324 C 0.29726 0.70304 0.87657
 C1325 C 0.30386 0.72879 0.87675
 C1326 C 0.28518 0.74749 0.87688
 C1327 C 0.24000 0.75994 0.87690
 C1328 C 0.24699 0.78545 0.87694
 C1329 C 0.22818 0.80401 0.87688
 C1330 C 0.20247 0.79725 0.87674
 C1331 C 0.19586 0.77150 0.87674
 C1332 C 0.21454 0.75279 0.87680
 C1333 C 0.29143 0.77322 0.87694
 C1334 C 0.27266 0.79187 0.87697
 C1335 C 0.22706 0.70840 0.87665
 C1336 C 0.20829 0.72706 0.87668
 H1337 H 0.31101 0.77900 0.87693
 H1338 H 0.27831 0.81149 0.87698
 H1339 H 0.22141 0.68879 0.87652
 H1340 H 0.18871 0.72128 0.87658
 H1341 H 0.26613 0.67657 0.87641
 H1342 H 0.32351 0.73434 0.87668
 H1343 H 0.23361 0.82370 0.87684
 H1344 H 0.17621 0.76596 0.87658
 C1345 C 0.25960 0.23991 0.37696
 C1346 C 0.25256 0.21442 0.37692
 C1347 C 0.27134 0.19583 0.37683
 C1348 C 0.29704 0.20257 0.37676
 C1349 C 0.30370 0.22831 0.37685
 C1350 C 0.28506 0.24703 0.37693
 C1351 C 0.23992 0.25953 0.37692
 C1352 C 0.24695 0.28503 0.37685
 C1353 C 0.22818 0.30361 0.37670
 C1354 C 0.20247 0.29688 0.37659
 C1355 C 0.19581 0.27114 0.37671
 C1356 C 0.21445 0.25241 0.37685
 C1357 C 0.29137 0.27275 0.37688
 C1358 C 0.27264 0.29142 0.37684
 C1359 C 0.22688 0.20802 0.37687
 C1360 C 0.20814 0.22670 0.37684
 H1361 H 0.31095 0.27849 0.37684
 H1362 H 0.27831 0.31103 0.37677
 H1363 H 0.22120 0.18841 0.37682
 H1364 H 0.18856 0.22096 0.37677
 H1365 H 0.26589 0.17614 0.37672
 H1366 H 0.32336 0.23382 0.37674
 H1367 H 0.23363 0.32330 0.37657
 H1368 H 0.17615 0.26563 0.37657
 C1369 C 0.51000 0.62234 1.00963
 C1370 C 0.53546 0.62232 1.00250
 C1371 C 0.55411 0.62252 1.02122
 C1372 C 0.54744 0.62280 1.04696
 C1373 C 0.52173 0.62262 1.05371
 C1374 C 0.50295 0.62242 1.03513
 C1375 C 0.49031 0.62244 0.99001
 C1376 C 0.46485 0.62260 0.99715
 C1377 C 0.44621 0.62297 0.97843
 C1378 C 0.45287 0.62323 0.95268
 C1379 C 0.47858 0.62288 0.94593
 C1380 C 0.49735 0.62250 0.96451
 C1381 C 0.47727 0.62240 1.04154
 C1382 C 0.45854 0.62249 1.02287
 C1383 C 0.54177 0.62221 0.97677
 C1384 C 0.52304 0.62230 0.95810
 H1385 H 0.47159 0.62241 1.06116
 H1386 H 0.43895 0.62256 1.02863
 H1387 H 0.56136 0.62213 0.97101
 H1388 H 0.52872 0.62229 0.93848
 H1389 H 0.57377 0.62256 1.01570
 H1390 H 0.51627 0.62273 1.07340
 H1391 H 0.42655 0.62314 0.98395
 H1392 H 0.48404 0.62297 0.92624
 C1393 C 0.49012 0.12240 0.49015
 C1394 C 0.49709 0.12230 0.46463
 C1395 C 0.47827 0.12255 0.44610
 C1396 C 0.45258 0.12294 0.45292
 C1397 C 0.44598 0.12283 0.47868
 C1398 C 0.46467 0.12259 0.49735
 C1399 C 0.50985 0.12246 0.50971
 C1400 C 0.50288 0.12271 0.53523
 C1401 C 0.52170 0.12308 0.55376
 C1402 C 0.54740 0.12325 0.54694
 C1403 C 0.55400 0.12279 0.52118
 C1404 C 0.53530 0.12243 0.50251
 C1405 C 0.45843 0.12264 0.52309
 C1406 C 0.47721 0.12270 0.54171
 C1407 C 0.52276 0.12208 0.45815
 C1408 C 0.54155 0.12214 0.47677
 H1409 H 0.43886 0.12273 0.52890
 H1410 H 0.47158 0.12283 0.56135
 H1411 H 0.52839 0.12195 0.43851
 H1412 H 0.56111 0.12205 0.47096
 H1413 H 0.48368 0.12253 0.42639
 H1414 H 0.42633 0.12303 0.48425
 H1415 H 0.51629 0.12332 0.57346
 H1416 H 0.57364 0.12281 0.51561
 C1417 C 0.50969 0.87770 0.49008
 C1418 C 0.50266 0.87763 0.46458
 C1419 C 0.52144 0.87725 0.44597
 C1420 C 0.54715 0.87689 0.45270
 C1421 C 0.55381 0.87715 0.47845
 C1422 C 0.53516 0.87753 0.49719
 C1423 C 0.49001 0.87781 0.50972
 C1424 C 0.49704 0.87775 0.53522
 C1425 C 0.47826 0.87757 0.55382
 C1426 C 0.45255 0.87740 0.54710
 C1427 C 0.44589 0.87766 0.52135
 C1428 C 0.46454 0.87784 0.50261
 C1429 C 0.54147 0.87765 0.52291
 C1430 C 0.52273 0.87775 0.54160
 C1431 C 0.47697 0.87784 0.45819
 C1432 C 0.45823 0.87794 0.47689
 H1433 H 0.56105 0.87757 0.52865
 H1434 H 0.52841 0.87775 0.56121
 H1435 H 0.47129 0.87784 0.43858
 H1436 H 0.43865 0.87802 0.47115
 H1437 H 0.51598 0.87716 0.42629
 H1438 H 0.57347 0.87698 0.48395
 H1439 H 0.48372 0.87747 0.57350
 H1440 H 0.42623 0.87763 0.51585
 C1441 C 1.00987 0.37766 0.49030
 C1442 C 1.00279 0.37756 0.46482
 C1443 C 1.02153 0.37723 0.44620
 C1444 C 1.04725 0.37694 0.45290
 C1445 C 1.05396 0.37725 0.47863
 C1446 C 1.03535 0.37758 0.49739
 C1447 C 0.99022 0.37770 0.50996
 C1448 C 0.99730 0.37765 0.53545
 C1449 C 0.97856 0.37739 0.55407
 C1450 C 0.95285 0.37711 0.54736
 C1451 C 0.94614 0.37736 0.52163
 C1452 C 0.96475 0.37763 0.50288
 C1453 C 1.04170 0.37772 0.52309
 C1454 C 1.02300 0.37776 0.54181
 C1455 C 0.97710 0.37768 0.45846
 C1456 C 0.95840 0.37772 0.47717
 H1457 H 1.06129 0.37772 0.52880
 H1458 H 1.02870 0.37778 0.56141
 H1459 H 0.97139 0.37766 0.43885
 H1460 H 0.93880 0.37772 0.47146
 H1461 H 1.01605 0.37710 0.42652
 H1462 H 1.07362 0.37713 0.48411
 H1463 H 0.98404 0.37730 0.57374
 H1464 H 0.92647 0.37725 0.51616
 C1465 C -0.01038 0.87748 1.01013
 C1466 C -0.03583 0.87742 1.00298
 C1467 C -0.05452 0.87702 1.02167
 C1468 C -0.04800 0.87662 1.04752
 C1469 C -0.02219 0.87691 1.05421
 C1470 C -0.00340 0.87731 1.03563
 C1471 C 0.00935 0.87758 0.99053
 C1472 C 0.03480 0.87750 0.99768
 C1473 C 0.05349 0.87728 0.97897
 C1474 C 0.04688 0.87711 0.95322
 C1475 C 0.02117 0.87740 0.94645
 C1476 C 0.00236 0.87761 0.96502
 C1477 C 0.02229 0.87741 1.04206
 C1478 C 0.04106 0.87751 1.02341
 C1479 C -0.04208 0.87764 0.97724
 C1480 C -0.02332 0.87774 0.95859
 H1481 H 0.02793 0.87734 1.06168
 H1482 H 0.06063 0.87750 1.02919
 H1483 H -0.06165 0.87765 0.97146
 H1484 H -0.02896 0.87782 0.93896
 H1485 H -0.07413 0.87693 1.01596
 H1486 H -0.01660 0.87673 1.07386
 H1487 H 0.07314 0.87716 0.98451
 H1488 H 0.01575 0.87737 0.92676
 C1489 C -0.00954 0.12195 -0.01013
 C1490 C -0.00247 0.12190 -0.03563
 C1491 C -0.02122 0.12221 -0.05424
 C1492 C -0.04694 0.12262 -0.04751
 C1493 C -0.05363 0.12247 -0.02177
 C1494 C -0.03501 0.12216 -0.00303
 C1495 C 0.01012 0.12195 0.00951
 C1496 C 0.00304 0.12215 0.03500
 C1497 C 0.02179 0.12244 0.05361
 C1498 C 0.04751 0.12259 0.04690
 C1499 C 0.05421 0.12218 0.02116
 C1500 C 0.03560 0.12189 0.00241
 C1501 C -0.04136 0.12218 0.02269
 C1502 C -0.02265 0.12217 0.04138
 C1503 C 0.02323 0.12166 -0.04200
 C1504 C 0.04194 0.12165 -0.02330
 H1505 H -0.06095 0.12229 0.02842
 H1506 H -0.02836 0.12227 0.06099
 H1507 H 0.02894 0.12155 -0.06161
 H1508 H 0.06153 0.12154 -0.02903
 H1509 H -0.01574 0.12221 -0.07392
 H1510 H -0.07329 0.12269 -0.01627
 H1511 H 0.01630 0.12265 0.07329
 H1512 H 0.07388 0.12218 0.01567
 C1513 C 0.12210 1.01012 1.01044
 C1514 C 0.12218 1.00297 1.03590
 C1515 C 0.12258 1.02166 1.05459
 C1516 C 0.12297 1.04750 1.04805
 C1517 C 0.12267 1.05419 1.02223
 C1518 C 0.12226 1.03561 1.00344
 C1519 C 0.12200 0.99052 0.99071
 C1520 C 0.12208 0.99767 0.96524
 C1521 C 0.12231 0.97896 0.94655
 C1522 C 0.12255 0.95322 0.95318
 C1523 C 0.12225 0.94645 0.97889
 C1524 C 0.12201 0.96501 0.99771
 C1525 C 0.12213 1.04204 0.97774
 C1526 C 0.12204 1.02339 0.95896
 C1527 C 0.12198 0.97725 1.04217
 C1528 C 0.12190 0.95859 1.02340
 H1529 H 0.12220 1.06166 0.97208
 H1530 H 0.12204 1.02916 0.93938
 H1531 H 0.12198 0.97147 1.06176
 H1532 H 0.12184 0.93897 1.02905
 H1533 H 0.12269 1.01596 1.07422
 H1534 H 0.12284 1.07384 1.01663
 H1535 H 0.12244 0.98450 0.92689
 H1536 H 0.12232 0.92676 0.98432
 C1537 C 0.12258 0.49020 0.49024
 C1538 C 0.12270 0.46471 0.49731
 C1539 C 0.12302 0.44610 0.47853
 C1540 C 0.12326 0.45281 0.45280
 C1541 C 0.12295 0.47854 0.44612
 C1542 C 0.12263 0.49729 0.46475
 C1543 C 0.12254 0.50985 0.50992
 C1544 C 0.12257 0.53534 0.50285
 C1545 C 0.12284 0.55395 0.52162
 C1546 C 0.12314 0.54724 0.54735
 C1547 C 0.12290 0.52151 0.55404
 C1548 C 0.12263 0.50276 0.53540
 C1549 C 0.12247 0.52300 0.45842
 C1550 C 0.12244 0.54170 0.47714
 C1551 C 0.12260 0.45835 0.52302
 C1552 C 0.12257 0.47705 0.54174
 H1553 H 0.12245 0.52872 0.43881
 H1554 H 0.12240 0.56131 0.47144
 H1555 H 0.12264 0.43874 0.52872
 H1556 H 0.12258 0.47133 0.56134
 H1557 H 0.12315 0.42642 0.48401
 H1558 H 0.12302 0.48404 0.42644
 H1559 H 0.12292 0.57363 0.51614
 H1560 H 0.12302 0.51602 0.57372
 C1561 C 0.37760 0.49028 1.00989
 C1562 C 0.37755 0.46478 1.00284
 C1563 C 0.37728 0.44619 1.02161
 C1564 C 0.37699 0.45292 1.04735
 C1565 C 0.37726 0.47867 1.05402
 C1566 C 0.37753 0.49740 1.03538
 C1567 C 0.37757 0.50991 0.99020
 C1568 C 0.37748 0.53541 0.99725
 C1569 C 0.37716 0.55400 0.97847
 C1570 C 0.37689 0.54726 0.95274
 C1571 C 0.37719 0.52152 0.94607
 C1572 C 0.37750 0.50279 0.96471
 C1573 C 0.37762 0.52312 1.04170
 C1574 C 0.37759 0.54180 1.02296
 C1575 C 0.37766 0.45839 0.97713
 C1576 C 0.37764 0.47707 0.95839
 H1577 H 0.37762 0.52887 1.06130
 H1578 H 0.37757 0.56141 1.02865
 H1579 H 0.37768 0.43878 0.97143
 H1580 H 0.37764 0.47132 0.93879
 H1581 H 0.37718 0.42651 1.01614
 H1582 H 0.37715 0.48418 1.07370
 H1583 H 0.37704 0.57368 0.98393
 H1584 H 0.37710 0.51600 0.92639
 C1585 C 0.87759 0.50996 0.49030
 C1586 C 0.87744 0.50282 0.46482
 C1587 C 0.87717 0.52153 0.44617
 C1588 C 0.87700 0.54727 0.45284
 C1589 C 0.87735 0.55403 0.47856
 C1590 C 0.87762 0.53546 0.49734
 C1591 C 0.87757 0.49036 0.50999
 C1592 C 0.87757 0.49751 0.53547
 C1593 C 0.87726 0.47880 0.55413
 C1594 C 0.87689 0.45307 0.54746
 C1595 C 0.87708 0.44630 0.52174
 C1596 C 0.87739 0.46486 0.50295
 C1597 C 0.87781 0.54189 0.52304
 C1598 C 0.87779 0.52323 0.54179
 C1599 C 0.87745 0.47710 0.45851
 C1600 C 0.87743 0.45844 0.47726
 H1601 H 0.87789 0.56150 0.52872
 H1602 H 0.87785 0.52898 0.56138
 H1603 H 0.87739 0.47134 0.43891
 H1604 H 0.87735 0.43882 0.47158
 H1605 H 0.87700 0.51600 0.42650
 H1606 H 0.87732 0.57372 0.48401
 H1607 H 0.87723 0.48433 0.57380
 H1608 H 0.87690 0.42661 0.51629
 C1609 C 0.87777 1.00932 -0.01023
 C1610 C 0.87807 1.00223 -0.03572
 C1611 C 0.87774 1.02098 -0.05433
 C1612 C 0.87707 1.04670 -0.04761
 C1613 C 0.87698 1.05341 -0.02188
 C1614 C 0.87730 1.03480 -0.00313
 C1615 C 0.87780 0.98967 0.00942
 C1616 C 0.87735 0.99675 0.03491
 C1617 C 0.87708 0.97800 0.05352
 C1618 C 0.87720 0.95228 0.04679
 C1619 C 0.87786 0.94557 0.02106
 C1620 C 0.87813 0.96419 0.00232
 C1621 C 0.87704 1.04116 0.02258
 C1622 C 0.87707 1.02246 0.04129
 C1623 C 0.87859 0.97653 -0.04209
 C1624 C 0.87862 0.95783 -0.02339
 H1625 H 0.87673 1.06076 0.02830
 H1626 H 0.87677 1.02817 0.06089
 H1627 H 0.87888 0.97082 -0.06170
 H1628 H 0.87893 0.93823 -0.02911
 H1629 H 0.87794 1.01549 -0.07401
 H1630 H 0.87656 1.07308 -0.01638
 H1631 H 0.87667 0.98348 0.07320
 H1632 H 0.87806 0.92590 0.01556
 C1633 C 0.62248 -0.00970 0.49001
 C1634 C 0.62283 -0.03518 0.49711
 C1635 C 0.62315 -0.05381 0.47836
 C1636 C 0.62317 -0.04713 0.45262
 C1637 C 0.62263 -0.02141 0.44590
 C1638 C 0.62230 -0.00264 0.46451
 C1639 C 0.62245 0.00997 0.50966
 C1640 C 0.62224 0.03545 0.50255
 C1641 C 0.62251 0.05409 0.52129
 C1642 C 0.62304 0.04742 0.54703
 C1643 C 0.62304 0.02169 0.55376
 C1644 C 0.62277 0.00292 0.53515
 C1645 C 0.62191 0.02305 0.45814
 C1646 C 0.62188 0.04178 0.47684
 C1647 C 0.62297 -0.04151 0.52282
 C1648 C 0.62294 -0.02278 0.54152
 H1649 H 0.62171 0.02875 0.43853
 H1650 H 0.62166 0.06138 0.47111
 H1651 H 0.62319 -0.06111 0.52855
 H1652 H 0.62314 -0.02848 0.56113
 H1653 H 0.62347 -0.07348 0.48385
 H1654 H 0.62252 -0.01594 0.42622
 H1655 H 0.62240 0.07376 0.51579
 H1656 H 0.62335 0.01624 0.57344
 C1657 C 0.49002 1.00963 0.37854
 C1658 C 0.46456 1.00250 0.37848
 C1659 C 0.44592 1.02122 0.37817
 C1660 C 0.45258 1.04695 0.37782
 C1661 C 0.47827 1.05371 0.37812
 C1662 C 0.49705 1.03513 0.37845
 C1663 C 0.50969 0.99001 0.37847
 C1664 C 0.53515 0.99714 0.37835
 C1665 C 0.55379 0.97843 0.37793
 C1666 C 0.54713 0.95269 0.37754
 C1667 C 0.52143 0.94593 0.37790
 C1668 C 0.50266 0.96451 0.37834
 C1669 C 0.52273 1.04153 0.37855
 C1670 C 0.54146 1.02285 0.37850
 C1671 C 0.45825 0.97679 0.37858
 C1672 C 0.47698 0.95811 0.37850
 H1673 H 0.52840 1.06114 0.37855
 H1674 H 0.56105 1.02860 0.37847
 H1675 H 0.43866 0.97105 0.37859
 H1676 H 0.47131 0.93850 0.37847
 H1677 H 0.42626 1.01570 0.37804
 H1678 H 0.48372 1.07339 0.37798
 H1679 H 0.57344 0.98394 0.37776
 H1680 H 0.51599 0.92625 0.37773
 C1681 C -0.00968 -0.01039 0.12193
 C1682 C -0.03516 -0.00332 0.12230
 C1683 C -0.05374 -0.02209 0.12259
 C1684 C -0.04701 -0.04782 0.12257
 C1685 C -0.02129 -0.05451 0.12200
 C1686 C -0.00257 -0.03587 0.12170
 C1687 C 0.00994 0.00928 0.12195
 C1688 C 0.03542 0.00222 0.12173
 C1689 C 0.05401 0.02098 0.12207
 C1690 C 0.04728 0.04670 0.12267
 C1691 C 0.02156 0.05339 0.12267
 C1692 C 0.00284 0.03477 0.12234
 C1693 C 0.02313 -0.04221 0.12129
 C1694 C 0.04181 -0.02349 0.12131
 C1695 C -0.04154 0.02238 0.12250
 C1696 C -0.02287 0.04110 0.12252
 H1697 H 0.02886 -0.06181 0.12105
 H1698 H 0.06141 -0.02918 0.12108
 H1699 H -0.06114 0.02808 0.12273
 H1700 H -0.02860 0.06070 0.12277
 H1701 H -0.07341 -0.01661 0.12294
 H1702 H -0.01579 -0.07418 0.12187
 H1703 H 0.07368 0.01550 0.12195
 H1704 H 0.01606 0.07307 0.12304
 C1705 C 0.50982 0.50954 0.12183
 C1706 C 0.50279 0.53504 0.12218
 C1707 C 0.52156 0.55362 0.12242
 C1708 C 0.54727 0.54685 0.12237
 C1709 C 0.55392 0.52111 0.12178
 C1710 C 0.53528 0.50240 0.12155
 C1711 C 0.49015 0.48993 0.12195
 C1712 C 0.49718 0.46443 0.12179
 C1713 C 0.47841 0.44585 0.12223
 C1714 C 0.45272 0.45261 0.12288
 C1715 C 0.44605 0.47836 0.12282
 C1716 C 0.46469 0.49707 0.12240
 C1717 C 0.54159 0.47668 0.12118
 C1718 C 0.52286 0.45802 0.12130
 C1719 C 0.47710 0.54146 0.12243
 C1720 C 0.45837 0.52279 0.12253
 H1721 H 0.56118 0.47093 0.12090
 H1722 H 0.52854 0.43840 0.12111
 H1723 H 0.47142 0.56107 0.12264
 H1724 H 0.43879 0.52854 0.12281
 H1725 H 0.51612 0.57330 0.12277
 H1726 H 0.57358 0.51558 0.12164
 H1727 H 0.48386 0.42616 0.12215
 H1728 H 0.42640 0.48389 0.12322
 C1729 C -0.00966 0.49043 0.62206
 C1730 C -0.03513 0.49752 0.62189
 C1731 C -0.05374 0.47878 0.62219
 C1732 C -0.04704 0.45305 0.62273
 C1733 C -0.02132 0.44633 0.62266
 C1734 C -0.00258 0.46494 0.62235
 C1735 C 0.00998 0.51008 0.62210
 C1736 C 0.03546 0.50299 0.62242
 C1737 C 0.05406 0.52174 0.62277
 C1738 C 0.04735 0.54747 0.62287
 C1739 C 0.02164 0.55419 0.62235
 C1740 C 0.00290 0.53557 0.62198
 C1741 C 0.02312 0.45858 0.62248
 C1742 C 0.04181 0.47728 0.62250
 C1743 C -0.04149 0.52323 0.62157
 C1744 C -0.02280 0.54193 0.62162
 H1745 H 0.02883 0.43898 0.62265
 H1746 H 0.06141 0.47157 0.62269
 H1747 H -0.06109 0.52895 0.62139
 H1748 H -0.02851 0.56154 0.62147
 H1749 H -0.07341 0.48428 0.62214
 H1750 H -0.01584 0.42665 0.62297
 H1751 H 0.07372 0.51625 0.62308
 H1752 H 0.01615 0.57387 0.62231
 C1753 C 0.49041 0.50993 0.87813
 C1754 C 0.46494 0.50285 0.87838
 C1755 C 0.44632 0.52160 0.87803
 C1756 C 0.45299 0.54733 0.87737
 C1757 C 0.47871 0.55404 0.87735
 C1758 C 0.49747 0.53542 0.87770
 C1759 C 0.51007 0.49027 0.87816
 C1760 C 0.53554 0.49735 0.87776
 C1761 C 0.55416 0.47859 0.87748
 C1762 C 0.54747 0.45285 0.87752
 C1763 C 0.52176 0.44616 0.87812
 C1764 C 0.50300 0.46478 0.87842
 C1765 C 0.52317 0.54177 0.87750
 C1766 C 0.54188 0.52306 0.87754
 C1767 C 0.45860 0.47715 0.87883
 C1768 C 0.47731 0.45844 0.87885
 H1769 H 0.52887 0.56137 0.87723
 H1770 H 0.56147 0.52877 0.87729
 H1771 H 0.43901 0.47143 0.87908
 H1772 H 0.47161 0.43883 0.87911
 H1773 H 0.42666 0.51611 0.87815
 H1774 H 0.48418 0.57372 0.87695
 H1775 H 0.57382 0.48408 0.87711
 H1776 H 0.51629 0.42648 0.87827
 C1777 C 0.62273 0.51004 1.01044
 C1778 C 0.62283 0.50297 1.03591
 C1779 C 0.62314 0.52171 1.05455
 C1780 C 0.62340 0.54753 1.04794
 C1781 C 0.62309 0.55415 1.02211
 C1782 C 0.62279 0.53552 1.00336
 C1783 C 0.62271 0.49038 0.99077
 C1784 C 0.62276 0.49746 0.96528
 C1785 C 0.62304 0.47870 0.94665
 C1786 C 0.62332 0.45297 0.95336
 C1787 C 0.62306 0.44628 0.97909
 C1788 C 0.62278 0.46490 0.99785
 C1789 C 0.62265 0.54187 0.97765
 C1790 C 0.62264 0.52316 0.95893
 C1791 C 0.62272 0.47726 1.04226
 C1792 C 0.62269 0.45855 1.02355
 H1793 H 0.62264 0.56147 0.97193
 H1794 H 0.62263 0.52887 0.93932
 H1795 H 0.62273 0.47154 1.06187
 H1796 H 0.62269 0.43894 1.02927
 H1797 H 0.62325 0.51605 1.07419
 H1798 H 0.62317 0.57378 1.01646
 H1799 H 0.62314 0.48417 0.92697
 H1800 H 0.62317 0.42660 0.98458
 C1801 C 0.37701 1.01047 0.48985
 C1802 C 0.37681 1.00331 0.46438
 C1803 C 0.37655 1.02200 0.44569
 C1804 C 0.37642 1.04785 0.45223
 C1805 C 0.37681 1.05454 0.47805
 C1806 C 0.37707 1.03597 0.49685
 C1807 C 0.37701 0.99087 0.50957
 C1808 C 0.37707 0.99803 0.53505
 C1809 C 0.37680 0.97933 0.55373
 C1810 C 0.37643 0.95358 0.54711
 C1811 C 0.37655 0.94680 0.52138
 C1812 C 0.37682 0.96536 0.50257
 C1813 C 0.37731 1.04240 0.52255
 C1814 C 0.37731 1.02376 0.54132
 C1815 C 0.37680 0.97758 0.45811
 C1816 C 0.37680 0.95893 0.47687
 H1817 H 0.37742 1.06202 0.52821
 H1818 H 0.37741 1.02954 0.56091
 H1819 H 0.37670 0.97179 0.43852
 H1820 H 0.37671 0.93931 0.47121
 H1821 H 0.37637 1.01627 0.42607
 H1822 H 0.37682 1.07420 0.48365
 H1823 H 0.37682 0.98488 0.57339
 H1824 H 0.37636 0.92711 0.51594
 C1825 C -0.00974 0.62247 0.49021
 C1826 C -0.00270 0.62236 0.46471
 C1827 C -0.02147 0.62265 0.44613
 C1828 C -0.04718 0.62309 0.45288
 C1829 C -0.05385 0.62299 0.47862
 C1830 C -0.03521 0.62271 0.49734
 C1831 C 0.00994 0.62250 0.50982
 C1832 C 0.00290 0.62275 0.53533
 C1833 C 0.02167 0.62308 0.55390
 C1834 C 0.04738 0.62321 0.54714
 C1835 C 0.05405 0.62275 0.52140
 C1836 C 0.03541 0.62242 0.50269
 C1837 C -0.04152 0.62277 0.52307
 C1838 C -0.02279 0.62279 0.54174
 C1839 C 0.02298 0.62210 0.45829
 C1840 C 0.04172 0.62212 0.47696
 H1841 H -0.06111 0.62290 0.52883
 H1842 H -0.02847 0.62293 0.56136
 H1843 H 0.02866 0.62195 0.43867
 H1844 H 0.06130 0.62201 0.47121
 H1845 H -0.01601 0.62262 0.42644
 H1846 H -0.07351 0.62323 0.48414
 H1847 H 0.01621 0.62333 0.57359
 H1848 H 0.07371 0.62275 0.51588
 C1849 C 0.49029 0.37775 1.01012
 C1850 C 0.46485 0.37751 1.00290
 C1851 C 0.44614 0.37714 1.02156
 C1852 C 0.45272 0.37695 1.04732
 C1853 C 0.47840 0.37740 1.05416
 C1854 C 0.49724 0.37777 1.03564
 C1855 C 0.51004 0.37781 0.99057
 C1856 C 0.53548 0.37789 0.99778
 C1857 C 0.55420 0.37762 0.97912
 C1858 C 0.54762 0.37721 0.95337
 C1859 C 0.52194 0.37736 0.94653
 C1860 C 0.50310 0.37763 0.96505
 C1861 C 0.52290 0.37805 1.04213
 C1862 C 0.54170 0.37810 1.02352
 C1863 C 0.45864 0.37753 0.97716
 C1864 C 0.47744 0.37759 0.95855
 H1865 H 0.52850 0.37812 1.06177
 H1866 H 0.56126 0.37822 1.02934
 H1867 H 0.43907 0.37740 0.97135
 H1868 H 0.47184 0.37750 0.93892
 H1869 H 0.42650 0.37690 1.01599
 H1870 H 0.48379 0.37737 1.07386
 H1871 H 0.57384 0.37761 0.98470
 H1872 H 0.51655 0.37715 0.92683
 C1873 C 0.49007 -0.00916 0.62185
 C1874 C 0.46460 -0.00204 0.62154
 C1875 C 0.44597 -0.02075 0.62182
 C1876 C 0.45263 -0.04649 0.62247
 C1877 C 0.47834 -0.05324 0.62254
 C1878 C 0.49711 -0.03466 0.62227
 C1879 C 0.50974 0.01046 0.62192
 C1880 C 0.53520 0.00333 0.62239
 C1881 C 0.55382 0.02205 0.62277
 C1882 C 0.54716 0.04779 0.62275
 C1883 C 0.52146 0.05454 0.62208
 C1884 C 0.50269 0.03596 0.62169
 C1885 C 0.52279 -0.04106 0.62254
 C1886 C 0.54152 -0.02239 0.62260
 C1887 C 0.45829 0.02368 0.62111
 C1888 C 0.47701 0.04236 0.62118
 H1889 H 0.52848 -0.06068 0.62280
 H1890 H 0.56110 -0.02814 0.62290
 H1891 H 0.43870 0.02943 0.62081
 H1892 H 0.47133 0.06197 0.62093
 H1893 H 0.42631 -0.01523 0.62165
 H1894 H 0.48379 -0.07293 0.62294
 H1895 H 0.57348 0.01652 0.62319
 H1896 H 0.51601 0.07423 0.62194
 C1897 C -0.00971 0.50993 0.37825
 C1898 C -0.03519 0.50289 0.37766
 C1899 C -0.05375 0.52168 0.37727
 C1900 C -0.04701 0.54739 0.37740
 C1901 C -0.02130 0.55406 0.37821
 C1902 C -0.00259 0.53540 0.37861
 C1903 C 0.00990 0.49024 0.37830
 C1904 C 0.03538 0.49728 0.37871
 C1905 C 0.05396 0.47850 0.37840
 C1906 C 0.04722 0.45280 0.37760
 C1907 C 0.02150 0.44613 0.37744
 C1908 C 0.00278 0.46477 0.37775
 C1909 C 0.02310 0.54171 0.37923
 C1910 C 0.04177 0.52297 0.37928
 C1911 C -0.04158 0.47720 0.37734
 C1912 C -0.02292 0.45846 0.37738
 H1913 H 0.02884 0.56130 0.37958
 H1914 H 0.06137 0.52864 0.37967
 H1915 H -0.06118 0.47153 0.37694
 H1916 H -0.02865 0.43887 0.37701
 H1917 H -0.07342 0.51622 0.37675
 H1918 H -0.01580 0.57372 0.37843
 H1919 H 0.07363 0.48396 0.37864
 H1920 H 0.01600 0.42647 0.37693
 C1921 C -0.01032 1.01017 0.87797
 C1922 C -0.03578 1.00309 0.87819
 C1923 C -0.05442 1.02182 0.87781
 C1924 C -0.04783 1.04765 0.87712
 C1925 C -0.02202 1.05428 0.87712
 C1926 C -0.00327 1.03565 0.87752
 C1927 C 0.00935 0.99051 0.87803
 C1928 C 0.03482 0.99760 0.87766
 C1929 C 0.05344 0.97885 0.87741
 C1930 C 0.04678 0.95311 0.87745
 C1931 C 0.02106 0.94640 0.87803
 C1932 C 0.00230 0.96502 0.87830
 C1933 C 0.02243 1.04201 0.87735
 C1934 C 0.04115 1.02331 0.87742
 C1935 C -0.04210 0.97738 0.87866
 C1936 C -0.02339 0.95867 0.87871
 H1937 H 0.02813 1.06161 0.87707
 H1938 H 0.06073 1.02903 0.87719
 H1939 H -0.06169 0.97165 0.87890
 H1940 H -0.02909 0.93906 0.87898
 H1941 H -0.07404 1.01616 0.87793
 H1942 H -0.01638 1.07391 0.87672
 H1943 H 0.07310 0.98435 0.87705
 H1944 H 0.01560 0.92672 0.87818
 C1945 C 0.75980 0.62285 0.25984
 C1946 C 0.78530 0.62269 0.25283
 C1947 C 0.80384 0.62289 0.27164
 C1948 C 0.79706 0.62326 0.29736
 C1949 C 0.77132 0.62338 0.30400
 C1950 C 0.75264 0.62319 0.28532
 C1951 C 0.74022 0.62276 0.24012
 C1952 C 0.71473 0.62304 0.24714
 C1953 C 0.69619 0.62308 0.22833
 C1954 C 0.70297 0.62288 0.20260
 C1955 C 0.72870 0.62255 0.19597
 C1956 C 0.74739 0.62251 0.21465
 C1957 C 0.72692 0.62343 0.29160
 C1958 C 0.70829 0.62336 0.27283
 C1959 C 0.79174 0.62242 0.22714
 C1960 C 0.77310 0.62233 0.20837
 H1961 H 0.72114 0.62372 0.31118
 H1962 H 0.68868 0.62359 0.27848
 H1963 H 0.81135 0.62231 0.22148
 H1964 H 0.77888 0.62216 0.18878
 H1965 H 0.82352 0.62283 0.26620
 H1966 H 0.76578 0.62372 0.32366
 H1967 H 0.67651 0.62338 0.23376
 H1968 H 0.73424 0.62246 0.17630
 C1969 C 0.25959 0.87795 0.74043
 C1970 C 0.25247 0.87808 0.71495
 C1971 C 0.27118 0.87794 0.69627
 C1972 C 0.29692 0.87761 0.70291
 C1973 C 0.30366 0.87754 0.72864
 C1974 C 0.28508 0.87769 0.74745
 C1975 C 0.23998 0.87796 0.76014
 C1976 C 0.24710 0.87772 0.78562
 C1977 C 0.22838 0.87757 0.80430
 C1978 C 0.20265 0.87762 0.79765
 C1979 C 0.19592 0.87793 0.77192
 C1980 C 0.21449 0.87808 0.75312
 C1981 C 0.29148 0.87749 0.77315
 C1982 C 0.27281 0.87750 0.79191
 C1983 C 0.22676 0.87825 0.70866
 C1984 C 0.20809 0.87825 0.72742
 H1985 H 0.31108 0.87727 0.77882
 H1986 H 0.27856 0.87729 0.81150
 H1987 H 0.22101 0.87833 0.68907
 H1988 H 0.18849 0.87832 0.72175
 H1989 H 0.26566 0.87794 0.67661
 H1990 H 0.32333 0.87725 0.73409
 H1991 H 0.23390 0.87727 0.82396
 H1992 H 0.17624 0.87792 0.76647
 C1993 C 0.23999 0.37720 0.25973
 C1994 C 0.21451 0.37686 0.25268
 C1995 C 0.19594 0.37661 0.27147
 C1996 C 0.20268 0.37667 0.29719
 C1997 C 0.22840 0.37706 0.30386
 C1998 C 0.24711 0.37730 0.28521
 C1999 C 0.25961 0.37731 0.24004
 C2000 C 0.28508 0.37750 0.24709
 C2001 C 0.30366 0.37742 0.22831
 C2002 C 0.29693 0.37712 0.20259
 C2003 C 0.27122 0.37702 0.19591
 C2004 C 0.25249 0.37708 0.21456
 C2005 C 0.27281 0.37755 0.29153
 C2006 C 0.29148 0.37764 0.27279
 C2007 C 0.20812 0.37669 0.22699
 C2008 C 0.22679 0.37679 0.20824
 H2009 H 0.27855 0.37761 0.31112
 H2010 H 0.31108 0.37777 0.27846
 H2011 H 0.18852 0.37641 0.22131
 H2012 H 0.22106 0.37660 0.18865
 H2013 H 0.17627 0.37628 0.26602
 H2014 H 0.23390 0.37705 0.32353
 H2015 H 0.32333 0.37746 0.23377
 H2016 H 0.26572 0.37672 0.17624
 C2017 C 0.87741 0.73989 0.25969
 C2018 C 0.87744 0.71440 0.25260
 C2019 C 0.87736 0.69579 0.27135
 C2020 C 0.87719 0.70251 0.29707
 C2021 C 0.87723 0.72824 0.30379
 C2022 C 0.87732 0.74698 0.28518
 C2023 C 0.87733 0.75954 0.24004
 C2024 C 0.87718 0.78503 0.24713
 C2025 C 0.87698 0.80364 0.22839
 C2026 C 0.87689 0.79692 0.20266
 C2027 C 0.87709 0.77119 0.19594
 C2028 C 0.87729 0.75245 0.21455
 C2029 C 0.87720 0.77269 0.29155
 C2030 C 0.87714 0.79139 0.27284
 C2031 C 0.87744 0.70804 0.22688
 C2032 C 0.87737 0.72674 0.20818
 H2033 H 0.87711 0.77841 0.31116
 H2034 H 0.87700 0.81100 0.27856
 H2035 H 0.87745 0.68843 0.22116
 H2036 H 0.87732 0.72103 0.18857
 H2037 H 0.87726 0.67611 0.26586
 H2038 H 0.87705 0.73374 0.32346
 H2039 H 0.87678 0.82332 0.23387
 H2040 H 0.87698 0.76570 0.17626
 C2041 C 0.62360 0.26007 0.75997
 C2042 C 0.62364 0.25300 0.78546
 C2043 C 0.62376 0.27176 0.80408
 C2044 C 0.62387 0.29749 0.79737
 C2045 C 0.62379 0.30418 0.77163
 C2046 C 0.62367 0.28555 0.75288
 C2047 C 0.62357 0.24040 0.74032
 C2048 C 0.62362 0.24746 0.71483
 C2049 C 0.62369 0.22870 0.69622
 C2050 C 0.62374 0.20297 0.70293
 C2051 C 0.62365 0.19628 0.72866
 C2052 C 0.62358 0.21491 0.74741
 C2053 C 0.62371 0.29189 0.72717
 C2054 C 0.62368 0.27317 0.70847
 C2055 C 0.62364 0.22730 0.79183
 C2056 C 0.62361 0.20857 0.77313
 H2057 H 0.62378 0.31149 0.72145
 H2058 H 0.62375 0.27887 0.68886
 H2059 H 0.62369 0.22160 0.81144
 H2060 H 0.62364 0.18898 0.77885
 H2061 H 0.62387 0.26628 0.82375
 H2062 H 0.62392 0.32386 0.76615
 H2063 H 0.62381 0.23418 0.67654
 H2064 H 0.62374 0.17661 0.73415
 C2065 C 0.76015 0.24004 0.87731
 C2066 C 0.75310 0.21455 0.87716
 C2067 C 0.77187 0.19594 0.87687
 C2068 C 0.79760 0.20265 0.87670
 C2069 C 0.80426 0.22839 0.87690
 C2070 C 0.78562 0.24714 0.87718
 C2071 C 0.74048 0.25970 0.87749
 C2072 C 0.74753 0.28519 0.87752
 C2073 C 0.72876 0.30380 0.87753
 C2074 C 0.70304 0.29710 0.87747
 C2075 C 0.69637 0.27136 0.87752
 C2076 C 0.71501 0.25261 0.87751
 C2077 C 0.79194 0.27285 0.87725
 C2078 C 0.77322 0.29155 0.87741
 C2079 C 0.72741 0.20819 0.87721
 C2080 C 0.70869 0.22689 0.87738
 H2081 H 0.81153 0.27858 0.87714
 H2082 H 0.77892 0.31116 0.87741
 H2083 H 0.72172 0.18859 0.87708
 H2084 H 0.68910 0.22116 0.87737
 H2085 H 0.76641 0.17626 0.87667
 H2086 H 0.82392 0.23389 0.87672
 H2087 H 0.73424 0.32347 0.87744
 H2088 H 0.67671 0.26587 0.87741
 C2089 C 0.25966 0.76052 0.62325
 C2090 C 0.25260 0.78602 0.62339
 C2091 C 0.27137 0.80461 0.62351
 C2092 C 0.29709 0.79788 0.62351
 C2093 C 0.30376 0.77214 0.62333
 C2094 C 0.28513 0.75341 0.62321
 C2095 C 0.24000 0.74089 0.62324
 C2096 C 0.24707 0.71540 0.62319
 C2097 C 0.22831 0.69680 0.62328
 C2098 C 0.20259 0.70351 0.62344
 C2099 C 0.19590 0.72925 0.62345
 C2100 C 0.21452 0.74799 0.62336
 C2101 C 0.29147 0.72770 0.62315
 C2102 C 0.27276 0.70901 0.62314
 C2103 C 0.22691 0.79240 0.62350
 C2104 C 0.20819 0.77371 0.62349
 H2105 H 0.31106 0.72196 0.62314
 H2106 H 0.27846 0.68940 0.62312
 H2107 H 0.22121 0.81201 0.62364
 H2108 H 0.18860 0.77945 0.62361
 H2109 H 0.26590 0.82430 0.62370
 H2110 H 0.32342 0.76663 0.62338
 H2111 H 0.23380 0.67712 0.62332
 H2112 H 0.17623 0.73475 0.62363
   
