data_POSCAR
  _audit_creation_date              2014-09-24
  _audit_creation_method            'ToBaCCo'
  _symmetry_space_group_name_H-M    'P1'
  _symmetry_Int_Tables_number       1
  _symmetry_cell_setting            triclinic
  loop_
  _symmetry_equiv_pos_as_xyz
 x,y,z
_cell_length_a 56.3744
_cell_length_b 56.8089
_cell_length_c 58.5507
_cell_angle_alpha 88.790300
_cell_angle_beta 90.667700
_cell_angle_gamma 91.338200
loop_
  _atom_site_label
  _atom_site_type_symbol
  _atom_site_fract_x
  _atom_site_fract_y
  _atom_site_fract_z
C1 C 0.39733 0.00862 0.27373
 C2 C 0.38047 0.02849 0.26786
 C3 C 0.36701 0.02544 0.24753
 C4 C 0.37237 0.00270 0.23538
 C5 C 0.38208 -0.01386 0.27339
 C6 C 0.36892 -0.01739 0.25292
 C7 C 0.41372 0.00736 0.25345
 C8 C 0.40128 0.00458 0.23063
 H9 H 0.37827 0.04318 0.27905
 H10 H 0.36171 0.00029 0.21948
 H11 H 0.38186 -0.02600 0.28783
 H12 H 0.43280 0.00961 0.25489
 C13 C 0.10007 0.00073 0.77567
 C14 C 0.11337 -0.02216 0.77253
 C15 C 0.12918 -0.02132 0.75380
 C16 C 0.12889 0.00226 0.74066
 C17 C 0.11931 0.02006 0.77715
 C18 C 0.13495 0.02099 0.75833
 C19 C 0.08766 0.00502 0.75423
 C20 C 0.10257 0.00581 0.73459
 H21 H 0.11152 -0.03706 0.78424
 H22 H 0.14086 0.00293 0.72567
 H23 H 0.11953 0.03278 0.79063
 H24 H 0.06866 0.00713 0.75350
 C25 C 0.60004 0.49147 0.27928
 C26 C 0.61554 0.47010 0.27642
 C27 C 0.63073 0.47141 0.25725
 C28 C 0.62815 0.49413 0.24315
 C29 C 0.61701 0.51264 0.27892
 C30 C 0.63218 0.51426 0.25985
 C31 C 0.58539 0.49335 0.25749
 C32 C 0.59966 0.49446 0.23581
 H33 H 0.61361 0.45466 0.28740
 H34 H 0.64011 0.49529 0.22819
 H35 H 0.61635 0.52581 0.29193
 H36 H 0.56618 0.49259 0.25723
 C37 C 0.90629 0.50283 0.77786
 C38 C 0.89060 0.52427 0.77507
 C39 C 0.87411 0.52290 0.75654
 C40 C 0.87606 0.50011 0.74309
 C41 C 0.88933 0.48175 0.77944
 C42 C 0.87308 0.47994 0.76100
 C43 C 0.91837 0.50076 0.75490
 C44 C 0.90238 0.49976 0.73602
 H45 H 0.89340 0.53964 0.78541
 H46 H 0.86307 0.49921 0.72888
 H47 H 0.88987 0.46898 0.79346
 H48 H 0.93747 0.50165 0.75301
 C49 C 0.26994 0.38798 0.99798
 C50 C 0.26921 0.36687 1.01438
 C51 C 0.24921 0.35161 1.01157
 C52 C 0.23262 0.35931 0.99166
 C53 C 0.26857 0.37775 0.97436
 C54 C 0.24902 0.36220 0.97061
 C55 C 0.24623 0.39983 1.00095
 C56 C 0.22600 0.38477 0.99768
 H57 H 0.28182 0.36484 1.02836
 H58 H 0.21730 0.34719 0.98879
 H59 H 0.28176 0.38188 0.96145
 H60 H 0.24493 0.41805 1.00580
 C61 C 0.77912 0.12448 0.99774
 C62 C 0.77762 0.14120 0.97706
 C63 C 0.75759 0.15584 0.97703
 C64 C 0.74187 0.15152 0.99789
 C65 C 0.77823 0.14031 1.01848
 C66 C 0.75811 0.15495 1.01876
 C67 C 0.75688 0.11094 0.99803
 C68 C 0.73608 0.12498 0.99825
 H69 H 0.78978 0.14030 0.96296
 H70 H 0.72599 0.16279 0.99792
 H71 H 0.79081 0.13848 1.03241
 H72 H 0.75630 0.09189 0.99803
 C73 C 0.27182 0.62193 0.50621
 C74 C 0.26951 0.63615 0.48409
 C75 C 0.24892 0.64996 0.48238
 C76 C 0.23275 0.64721 0.50317
 C77 C 0.26925 0.63942 0.52529
 C78 C 0.24840 0.65287 0.52386
 C79 C 0.24973 0.60612 0.50714
 C80 C 0.22657 0.61864 0.50583
 H81 H 0.28190 0.63430 0.47031
 H82 H 0.21656 0.65799 0.50186
 H83 H 0.28126 0.63964 0.53984
 H84 H 0.25035 0.58714 0.50911
 C85 C 0.76956 0.88560 0.49815
 C86 C 0.76788 0.86588 0.51608
 C87 C 0.74822 0.85013 0.51329
 C88 C 0.73237 0.85643 0.49278
 C89 C 0.76843 0.87364 0.47520
 C90 C 0.74873 0.85794 0.47207
 C91 C 0.74646 0.89864 0.49986
 C92 C 0.72425 0.88386 0.49729
 H93 H 0.77931 0.86577 0.53104
 H94 H 0.71695 0.84409 0.49057
 H95 H 0.78260 0.87623 0.46307
 H96 H 0.74583 0.91724 0.50347
 C97 C -0.00403 0.27688 0.40016
 C98 C 0.01891 0.27667 0.38669
 C99 C 0.02076 0.25699 0.37254
 C100 C -0.00092 0.24015 0.37394
 C101 C -0.02318 0.27525 0.38358
 C102 C -0.02228 0.25561 0.36892
 C103 C -0.00452 0.25350 0.41356
 C104 C -0.00296 0.23364 0.39932
 H105 H 0.03288 0.28999 0.38835
 H106 H -0.00029 0.22455 0.36292
 H107 H -0.03798 0.28702 0.38397
 H108 H -0.00727 0.25236 0.43181
 C109 C -0.00126 0.76696 0.09578
 C110 C -0.01855 0.76513 0.11555
 C111 C -0.01426 0.74612 0.13105
 C112 C 0.00667 0.73117 0.12419
 C113 C 0.02335 0.76766 0.10674
 C114 C 0.02766 0.74887 0.12230
 C115 C -0.00336 0.74317 0.08437
 C116 C 0.00092 0.72381 0.09947
 H117 H -0.03389 0.77617 0.11619
 H118 H 0.00946 0.71641 0.13642
 H119 H 0.03593 0.78213 0.10394
 H120 H -0.00826 0.74116 0.06656
 C121 C 0.51232 0.27237 0.58390
 C122 C 0.49452 0.28084 0.60106
 C123 C 0.48777 0.26382 0.61775
 C124 C 0.50050 0.24042 0.61535
 C125 C 0.53327 0.26350 0.59794
 C126 C 0.52701 0.24672 0.61519
 C127 C 0.50094 0.25019 0.57387
 C128 C 0.49494 0.23267 0.59084
 H129 H 0.48638 0.29793 0.59958
 H130 H 0.49604 0.22668 0.62842
 H131 H 0.55112 0.27034 0.59538
 H132 H 0.49915 0.24781 0.55566
 C133 C 0.49894 0.77095 0.90389
 C134 C 0.51714 0.77426 0.88501
 C135 C 0.51837 0.75500 0.87028
 C136 C 0.50035 0.73515 0.87617
 C137 C 0.47548 0.76575 0.89173
 C138 C 0.47621 0.74701 0.87620
 C139 C 0.50498 0.74928 0.91580
 C140 C 0.50573 0.72917 0.90158
 H141 H 0.52959 0.78910 0.88429
 H142 H 0.50060 0.72038 0.86426
 H143 H 0.45948 0.77473 0.89606
 H144 H 0.50847 0.74834 0.93403
 C145 C -0.24075 0.66125 0.97550
 C146 C -0.21950 0.64551 0.97947
 C147 C -0.22222 0.62895 0.99793
 C148 C -0.24605 0.63116 1.01032
 C149 C -0.26194 0.64462 0.97296
 C150 C -0.26526 0.62854 0.99139
 C151 C -0.24418 0.67320 0.99816
 C152 C -0.24660 0.65734 1.01709
 H153 H -0.20323 0.64842 0.97014
 H154 H -0.24812 0.61829 1.02461
 H155 H -0.27394 0.64545 0.95836
 H156 H -0.24331 0.69216 0.99989
 C157 C -0.26152 0.34503 0.47124
 C158 C -0.28282 0.36059 0.47468
 C159 C -0.28105 0.37467 0.49444
 C160 C -0.25816 0.37042 0.50825
 C161 C -0.24010 0.36202 0.47134
 C162 C -0.23812 0.37583 0.49126
 C163 C -0.25961 0.33067 0.49176
 C164 C -0.25757 0.34342 0.51237
 H165 H -0.29806 0.36004 0.46333
 H166 H -0.25691 0.38141 0.52362
 H167 H -0.22750 0.36266 0.45757
 H168 H -0.25940 0.31159 0.49144
 C169 C 0.24706 -0.14793 -0.02071
 C170 C 0.22623 -0.13219 -0.01555
 C171 C 0.22994 -0.11784 0.00377
 C172 C 0.25425 -0.12145 0.01515
 C173 C 0.26842 -0.13095 -0.02307
 C174 C 0.27259 -0.11674 -0.00368
 C175 C 0.25113 -0.16174 -0.00002
 C176 C 0.25489 -0.14817 0.02008
 H177 H 0.21068 -0.13124 -0.02652
 H178 H 0.25724 -0.11051 0.03050
 H179 H 0.27952 -0.13062 -0.03799
 H180 H 0.25106 -0.18077 -0.00017
 C181 C 0.25647 1.16651 0.47164
 C182 C 0.27746 1.15022 0.47438
 C183 C 0.27735 1.13616 0.49474
 C184 C 0.25586 1.14062 0.50980
 C185 C 0.23468 1.15014 0.47380
 C186 C 0.23409 1.13622 0.49424
 C187 C 0.25694 1.18107 0.49335
 C188 C 0.25674 1.16741 0.51405
 H189 H 0.29163 1.15053 0.46210
 H190 H 0.25559 1.12902 0.52521
 H191 H 0.22100 1.14936 0.46081
 H192 H 0.25779 1.20014 0.49299
 C193 C 0.13094 0.51562 0.25712
 C194 C 0.10963 0.51543 0.24098
 C195 C 0.09438 0.49536 0.24320
 C196 C 0.10228 0.47800 0.26187
 C197 C 0.12100 0.51196 0.28099
 C198 C 0.10548 0.49211 0.28371
 C199 C 0.14407 0.49324 0.25224
 C200 C 0.12936 0.47077 0.25438
 H201 H 0.10836 0.52818 0.22707
 H202 H 0.09008 0.46245 0.26388
 H203 H 0.12474 0.52454 0.29422
 H204 H 0.16247 0.49322 0.24715
 C205 C -0.13369 1.01636 0.25301
 C206 C -0.11917 1.01503 0.27519
 C207 C -0.10139 0.99771 0.27529
 C208 C -0.10126 0.98375 0.25314
 C209 C -0.11545 1.01985 0.23415
 C210 C -0.09779 1.00241 0.23408
 C211 C -0.14386 0.99292 0.24990
 C212 C -0.12692 0.97453 0.24983
 H213 H -0.12316 1.02557 0.28976
 H214 H -0.08772 0.96982 0.25313
 H215 H -0.11754 1.03320 0.22088
 H216 H -0.16283 0.98980 0.24865
 C217 C 0.36972 0.52513 -0.24828
 C218 C 0.38736 0.52457 -0.22842
 C219 C 0.40479 0.50706 -0.23010
 C220 C 0.40183 0.49222 -0.25168
 C221 C 0.38473 0.52776 -0.26958
 C222 C 0.40171 0.51007 -0.27188
 C223 C 0.35901 0.50018 -0.24914
 C224 C 0.37625 0.48236 -0.25090
 H225 H 0.38513 0.53514 -0.21347
 H226 H 0.41530 0.47839 -0.25286
 H227 H 0.38140 0.54101 -0.28276
 H228 H 0.34019 0.49659 -0.24740
 C229 C 0.64072 0.01730 -0.25122
 C230 C 0.62035 0.01787 -0.26847
 C231 C 0.60341 -0.00083 -0.26608
 C232 C 0.60928 -0.01813 -0.24652
 C233 C 0.62930 0.01544 -0.22788
 C234 C 0.61256 -0.00342 -0.22504
 C235 C 0.65235 -0.00622 -0.25458
 C236 C 0.63615 -0.02754 -0.25231
 H237 H 0.62070 0.02992 -0.28301
 H238 H 0.59598 -0.03277 -0.24455
 H239 H 0.63324 0.02842 -0.21508
 H240 H 0.67095 -0.00774 -0.25861
 C241 C 0.02334 0.25623 0.84506
 C242 C 0.02232 0.27924 0.85787
 C243 C 0.00381 0.27988 0.87386
 C244 C -0.01159 0.25718 0.87445
 C245 C 0.02462 0.23697 0.86350
 C246 C 0.00577 0.23723 0.87938
 C247 C 0.00038 0.25320 0.83421
 C248 C -0.01921 0.25384 0.84930
 H249 H 0.03440 0.29404 0.85463
 H250 H -0.02618 0.25711 0.88688
 H251 H 0.03736 0.22307 0.86271
 H252 H -0.00184 0.25114 0.81593
 C253 C 0.50993 0.23941 0.15378
 C254 C 0.50903 0.22283 0.13376
 C255 C 0.49071 0.22711 0.11761
 C256 C 0.47497 0.24740 0.12393
 C257 C 0.51208 0.26410 0.14354
 C258 C 0.49336 0.27044 0.12628
 C259 C 0.48538 0.23769 0.16410
 C260 C 0.46661 0.24225 0.14847
 H261 H 0.52035 0.20774 0.13325
 H262 H 0.46078 0.25060 0.11108
 H263 H 0.52616 0.27645 0.14821
 H264 H 0.48256 0.23480 0.18223
 C265 C 0.01297 0.74051 0.64417
 C266 C 0.01279 0.72545 0.62288
 C267 C -0.00536 0.73127 0.60685
 C268 C -0.02105 0.75100 0.61470
 C269 C 0.01428 0.76593 0.63539
 C270 C -0.00379 0.77156 0.61925
 C271 C -0.01178 0.73723 0.65401
 C272 C -0.03022 0.74283 0.63815
 H273 H 0.02431 0.71063 0.62128
 H274 H -0.03541 0.75544 0.60225
 H275 H 0.02899 0.77761 0.63972
 H276 H -0.01460 0.73049 0.67118
 C277 C 0.52574 0.75383 0.35570
 C278 C 0.52193 0.77850 0.36440
 C279 C 0.50327 0.77980 0.38021
 C280 C 0.49044 0.75601 0.38467
 C281 C 0.52892 0.73826 0.37697
 C282 C 0.51001 0.73939 0.39267
 C283 C 0.50191 0.74620 0.34547
 C284 C 0.48275 0.74752 0.36096
 H285 H 0.53286 0.79362 0.35931
 H286 H 0.47543 0.75644 0.39670
 H287 H 0.54350 0.72630 0.37880
 H288 H 0.49991 0.74207 0.32761
 Zr289 Zr 0.02669 -0.00602 1.04261
 O290 O 0.04977 0.00458 1.06947
 O291 O 0.01840 -0.04102 1.05201
 O292 O 0.00896 -0.00623 1.07418
 O293 O 0.07237 -0.01605 1.00537
 O294 O -0.02369 0.01575 1.06666
 O295 O 0.05927 -0.02358 1.04161
 O296 O -0.00751 -0.05316 1.02419
 O297 O -0.00932 -0.00927 1.03383
 O298 O 0.02523 -0.02195 1.01078
 O299 O 0.01394 0.02851 1.04230
 O300 O 0.04724 0.01614 1.02076
 Zr301 Zr -0.00472 0.03185 0.97762
 Zr302 Zr -0.02157 0.02522 1.03182
 Zr303 Zr 0.04385 0.00071 0.98866
 Zr304 Zr -0.01041 -0.02401 1.00148
 O305 O 0.07607 0.01857 0.98034
 O306 O -0.04517 -0.03363 1.01223
 O307 O 0.00833 -0.00274 0.97775
 O308 O -0.02467 0.00966 0.99978
 O309 O -0.00325 0.04814 1.00939
 O310 O 0.03125 0.03492 0.98662
 C311 C 0.00457 -0.05647 1.04272
 C312 C 0.07474 -0.02489 1.02569
 C313 C -0.01025 0.00366 1.08016
 O314 O -0.05515 0.00884 1.03741
 O315 O -0.04798 0.04588 1.01639
 O316 O -0.03728 0.04959 0.97900
 C317 C -0.05135 0.05323 0.99570
 O318 O 0.05654 0.05295 1.04688
 Zr319 Zr 0.03258 0.04983 1.01874
 O320 O 0.00266 0.06738 0.96887
 O321 O -0.02562 0.05580 1.05130
 O322 O 0.02030 0.07706 1.03951
 O323 O 0.06651 0.06109 1.00697
 O324 O 0.02748 0.07972 0.99750
 C325 C 0.01541 0.08318 0.97902
 O326 O -0.02868 0.02217 0.95111
 O327 O 0.04989 -0.03115 0.97176
 O328 O 0.01166 0.02916 0.94542
 O329 O 0.04362 0.00630 0.95318
 O330 O 0.00160 -0.05260 0.98234
 O331 O -0.03149 -0.02788 0.97140
 C332 C 0.02995 0.01768 0.93935
 H333 H 0.03222 -0.03777 1.01094
 H334 H -0.04144 0.00831 0.99468
 H335 H 0.04050 0.04456 0.97542
 H336 H 0.01546 0.03552 1.05760
 H337 H -0.04759 -0.05066 1.00940
 H338 H -0.06382 0.01908 1.04779
 H339 H -0.04180 0.05486 1.05776
 H340 H 0.03077 0.09109 1.03689
 H341 H -0.00948 -0.06613 0.98514
 H342 H 0.06606 -0.02985 0.96533
 H343 H 0.08487 0.00808 0.97031
 H344 H 0.06837 0.07811 1.01011
 H345 H -0.04000 -0.04333 0.97197
 H346 H -0.03038 0.03610 0.94074
 H347 H 0.05178 -0.00927 1.07986
 H348 H 0.06227 0.06950 1.04797
 Zr349 Zr 0.52497 0.49385 0.53573
 O350 O 0.54838 0.50252 0.56299
 O351 O 0.51992 0.45733 0.54045
 O352 O 0.50862 0.48870 0.56778
 O353 O 0.56879 0.49008 0.49542
 O354 O 0.47408 0.50861 0.56393
 O355 O 0.55867 0.47903 0.53175
 O356 O 0.49181 0.44759 0.51366
 O357 O 0.48872 0.48959 0.52822
 O358 O 0.52260 0.48176 0.50232
 O359 O 0.51044 0.52731 0.53979
 O360 O 0.54327 0.51949 0.51555
 Zr361 Zr 0.48864 0.53667 0.47660
 Zr362 Zr 0.47462 0.52321 0.53059
 Zr363 Zr 0.53910 0.50763 0.48206
 Zr364 Zr 0.48661 0.47876 0.49443
 O365 O 0.57020 0.52791 0.47493
 O366 O 0.45283 0.46636 0.50561
 O367 O 0.50333 0.50329 0.47229
 O368 O 0.47062 0.51139 0.49709
 O369 O 0.49076 0.54933 0.50991
 O370 O 0.52477 0.54094 0.48431
 C371 C 0.50603 0.44251 0.53023
 C372 C 0.57301 0.47972 0.51477
 C373 C 0.48877 0.49585 0.57543
 O374 O 0.44174 0.50510 0.53522
 O375 O 0.44698 0.54468 0.51863
 O376 O 0.45644 0.55384 0.48165
 C377 C 0.44296 0.55490 0.49917
 O378 O 0.55189 0.55365 0.54518
 Zr379 Zr 0.52681 0.55225 0.51783
 O380 O 0.49413 0.57280 0.47074
 O381 O 0.47033 0.55046 0.55417
 O382 O 0.51398 0.57609 0.54192
 O383 O 0.55948 0.56686 0.50597
 O384 O 0.51891 0.58392 0.49989
 C385 C 0.50607 0.58829 0.48200
 O386 O 0.46324 0.52847 0.45085
 O387 O 0.54579 0.47865 0.46109
 O388 O 0.50308 0.53817 0.44337
 O389 O 0.53718 0.51762 0.44748
 O390 O 0.49875 0.45300 0.47191
 O391 O 0.46446 0.47741 0.46484
 C392 C 0.52197 0.52913 0.43542
 H393 H 0.53042 0.46654 0.50026
 H394 H 0.45368 0.50995 0.49255
 H395 H 0.53299 0.55221 0.47378
 H396 H 0.51229 0.53246 0.55578
 H397 H 0.45094 0.44975 0.50095
 H398 H 0.43315 0.51354 0.54711
 H399 H 0.45442 0.54800 0.56095
 H400 H 0.52345 0.59094 0.54028
 H401 H 0.48809 0.43895 0.47351
 H402 H 0.56157 0.48160 0.45417
 H403 H 0.57902 0.51931 0.46331
 H404 H 0.56042 0.58349 0.51077
 H405 H 0.45629 0.46182 0.46424
 H406 H 0.46034 0.54318 0.44191
 H407 H 0.55164 0.48771 0.57163
 H408 H 0.55666 0.57026 0.54788
 Zr409 Zr 0.47445 1.01464 0.53845
 O410 O 0.45026 1.00741 0.56524
 O411 O 0.48344 1.05025 0.54379
 O412 O 0.49135 1.01604 0.57084
 O413 O 0.43170 1.02510 0.49692
 O414 O 0.52224 0.99097 0.56819
 O415 O 0.44232 1.03291 0.53375
 O416 O 0.51244 1.05809 0.51765
 O417 O 0.51095 1.01487 0.53197
 O418 O 0.47846 1.02817 0.50522
 O419 O 0.48488 0.97939 0.54252
 O420 O 0.45356 0.99237 0.51741
 Zr421 Zr 0.50579 0.97060 0.47994
 Zr422 Zr 0.52097 0.97953 0.53424
 Zr423 Zr 0.45944 1.00539 0.48409
 Zr424 Zr 0.51454 1.02730 0.49839
 O425 O 0.42633 0.98939 0.47548
 O426 O 0.54919 1.03526 0.51090
 O427 O 0.49546 1.00587 0.47546
 O428 O 0.52642 0.99274 0.50103
 O429 O 0.50196 0.95642 0.51301
 O430 O 0.46948 0.97044 0.48665
 C431 C 0.49887 1.06399 0.53397
 C432 C 0.42812 1.03448 0.51636
 C433 C 0.50939 1.00519 0.57927
 O434 O 0.55516 0.99422 0.54071
 O435 O 0.54699 0.95670 0.52230
 O436 O 0.53569 0.94951 0.48549
 C437 C 0.54965 0.94687 0.50286
 O438 O 0.44080 0.95813 0.54689
 Zr439 Zr 0.46580 0.95771 0.52002
 O440 O 0.49519 0.93579 0.47340
 O441 O 0.52209 0.94989 0.55668
 O442 O 0.47550 0.93109 0.54406
 O443 O 0.43159 0.94796 0.50749
 O444 O 0.46924 0.92622 0.50191
 C445 C 0.48101 0.92136 0.48398
 O446 O 0.53205 0.97690 0.45480
 O447 O 0.45672 1.03631 0.46349
 O448 O 0.49147 0.97209 0.44647
 O449 O 0.46057 0.99703 0.44931
 O450 O 0.50574 1.05529 0.47552
 O451 O 0.53732 1.02781 0.46970
 C452 C 0.47415 0.98384 0.43785
 H453 H 0.47243 1.04431 0.50316
 H454 H 0.54339 0.99255 0.49687
 H455 H 0.45993 0.96084 0.47584
 H456 H 0.48225 0.97355 0.55836
 H457 H 0.55297 1.05189 0.50663
 H458 H 0.56272 0.98400 0.55250
 H459 H 0.53801 0.95014 0.56403
 H460 H 0.46420 0.91763 0.54218
 H461 H 0.51768 1.06816 0.47772
 H462 H 0.44083 1.03572 0.45608
 H463 H 0.41886 0.99970 0.46372
 H464 H 0.42838 0.93139 0.51236
 H465 H 0.54707 1.04254 0.46955
 H466 H 0.53314 0.96236 0.44580
 H467 H 0.44881 1.02214 0.57389
 H468 H 0.43413 0.94204 0.54954
 Zr469 Zr -0.02460 0.50626 1.04417
 O470 O -0.05035 0.49708 1.06906
 O471 O -0.01455 0.54056 1.05367
 O472 O -0.00954 0.50426 1.07714
 O473 O -0.06513 0.52128 1.00200
 O474 O 0.02160 0.47956 1.07382
 O475 O -0.05616 0.52570 1.03973
 O476 O 0.01672 0.54958 1.03042
 O477 O 0.01220 0.50613 1.03929
 O478 O -0.01854 0.52295 1.01263
 O479 O -0.01486 0.47062 1.04571
 O480 O -0.04481 0.48658 1.02046
 Zr481 Zr 0.00883 0.46710 0.98334
 Zr482 Zr 0.02163 0.47064 1.03896
 Zr483 Zr -0.03688 0.50261 0.98880
 Zr484 Zr 0.01782 0.52168 1.00723
 O485 O -0.06964 0.48826 0.97691
 O486 O 0.05256 0.52724 1.02065
 O487 O -0.00050 0.50291 0.98171
 O488 O 0.02882 0.48674 1.00720
 O489 O 0.00318 0.45010 1.01497
 O490 O -0.02775 0.46730 0.98862
 C491 C 0.00264 0.55414 1.04680
 C492 C -0.06960 0.52892 1.02198
 C493 C 0.00822 0.49295 1.08536
 O494 O 0.05580 0.48380 1.04804
 O495 O 0.04797 0.44854 1.02608
 O496 O 0.03844 0.44539 0.98824
 C497 C 0.05158 0.44079 1.00586
 O498 O -0.05964 0.45043 1.04630
 Zr499 Zr -0.03326 0.45164 1.02062
 O500 O -0.00202 0.43305 0.97369
 O501 O 0.02095 0.43914 1.05888
 O502 O -0.02552 0.42284 1.04289
 O503 O -0.06689 0.44372 1.00568
 O504 O -0.02944 0.42179 1.00036
 C505 C -0.01686 0.41808 0.98269
 O506 O 0.03613 0.47505 0.95964
 O507 O -0.03805 0.53553 0.97123
 O508 O -0.00413 0.47197 0.94949
 O509 O -0.03385 0.49803 0.95359
 O510 O 0.01023 0.55248 0.98764
 O511 O 0.04113 0.52469 0.97900
 C512 C -0.02041 0.48548 0.94140
 H513 H -0.02407 0.53937 1.01203
 H514 H 0.04595 0.48660 1.00369
 H515 H -0.03692 0.45895 0.97663
 H516 H -0.01836 0.46345 1.06089
 H517 H 0.05691 0.54408 1.01804
 H518 H 0.06251 0.47245 1.05932
 H519 H 0.03645 0.43845 1.06699
 H520 H -0.03708 0.40995 1.03948
 H521 H 0.02230 0.56468 0.99176
 H522 H -0.05350 0.53602 0.96301
 H523 H -0.07628 0.49988 0.96585
 H524 H -0.07072 0.42692 1.00916
 H525 H 0.05079 0.53941 0.98012
 H526 H 0.03731 0.46133 0.94952
 H527 H -0.05200 0.51091 1.07895
 H528 H -0.06692 0.43442 1.04724
 Zr529 Zr -0.02737 0.48932 0.47121
 O530 O -0.04609 0.49952 0.44116
 O531 O -0.02285 0.45334 0.46626
 O532 O -0.00664 0.48564 0.44160
 O533 O -0.07725 0.48401 0.50520
 O534 O 0.02844 0.50394 0.45098
 O535 O -0.06226 0.47495 0.47050
 O536 O -0.00066 0.44147 0.49707
 O537 O 0.00698 0.48388 0.48388
 O538 O -0.03104 0.47554 0.50441
 O539 O -0.01021 0.52255 0.46947
 O540 O -0.04710 0.51420 0.48886
 Zr541 Zr 0.00220 0.52870 0.53503
 Zr542 Zr 0.02349 0.51717 0.48375
 Zr543 Zr -0.04884 0.50078 0.52248
 Zr544 Zr 0.00310 0.47145 0.51743
 O545 O -0.07949 0.52130 0.52513
 O546 O 0.03756 0.45880 0.51160
 O547 O -0.01516 0.49543 0.53711
 O548 O 0.02151 0.50384 0.51729
 O549 O 0.00594 0.54270 0.50190
 O550 O -0.03216 0.53395 0.52237
 C551 C -0.01141 0.43782 0.47796
 C552 C -0.07899 0.47483 0.48532
 C553 C 0.01487 0.49233 0.43720
 O554 O 0.05554 0.49850 0.48377
 O555 O 0.05044 0.53730 0.49955
 O556 O 0.03604 0.54563 0.53465
 C557 C 0.05217 0.54688 0.51922
 O558 O -0.04957 0.54906 0.45882
 Zr559 Zr -0.02838 0.54666 0.48901
 O560 O -0.00151 0.56474 0.53984
 O561 O 0.03319 0.54538 0.46133
 O562 O -0.01115 0.57112 0.46651
 O563 O -0.06122 0.56193 0.49677
 O564 O -0.02034 0.57753 0.50731
 C565 C -0.00987 0.58095 0.52666
 O566 O 0.02274 0.51895 0.56409
 O567 O -0.06023 0.47101 0.54215
 O568 O -0.01738 0.52949 0.56560
 O569 O -0.05171 0.50933 0.55704
 O570 O -0.01440 0.44490 0.53740
 O571 O 0.02008 0.46821 0.54991
 C572 C -0.03779 0.52039 0.57093
 H573 H -0.03992 0.46030 0.50502
 H574 H 0.03747 0.50186 0.52421
 H575 H -0.04111 0.54503 0.53162
 H576 H -0.00921 0.52844 0.45347
 H577 H 0.03753 0.44194 0.51630
 H578 H 0.06651 0.50726 0.47336
 H579 H 0.04979 0.54282 0.45678
 H580 H -0.02007 0.58594 0.46669
 H581 H -0.00464 0.43063 0.53708
 H582 H -0.07671 0.47389 0.54689
 H583 H -0.09054 0.51238 0.53531
 H584 H -0.06029 0.57866 0.49162
 H585 H 0.02662 0.45225 0.55175
 H586 H 0.02516 0.53326 0.57334
 H587 H -0.04883 0.48515 0.43206
 H588 H -0.05319 0.56576 0.45550
 Zr589 Zr 0.48846 -0.01169 -0.03118
 O590 O 0.46842 -0.00056 -0.06009
 O591 O 0.49266 -0.04761 -0.03741
 O592 O 0.50783 -0.01400 -0.06180
 O593 O 0.44027 -0.01858 0.00479
 O594 O 0.54303 0.00457 -0.05338
 O595 O 0.45352 -0.02608 -0.03094
 O596 O 0.51639 -0.06031 -0.00801
 O597 O 0.52342 -0.01724 -0.02025
 O598 O 0.48646 -0.02674 0.00165
 O599 O 0.50526 0.02180 -0.03228
 O600 O 0.46961 0.01243 -0.01172
 Zr601 Zr 0.52096 0.02543 0.03307
 Zr602 Zr 0.53962 0.01624 -0.01978
 Zr603 Zr 0.46947 -0.00236 0.02139
 Zr604 Zr 0.52120 -0.03099 0.01301
 O605 O 0.43873 0.01761 0.02598
 O606 O 0.55529 -0.04317 0.00486
 O607 O 0.50378 -0.00800 0.03447
 O608 O 0.53935 0.00149 0.01331
 O609 O 0.52304 0.04092 0.00034
 O610 O 0.48602 0.03083 0.02198
 C611 C 0.50450 -0.06351 -0.02656
 C612 C 0.43750 -0.02686 -0.01539
 C613 C 0.52895 -0.00669 -0.06697
 O614 O 0.57174 -0.00209 -0.02198
 O615 O 0.56716 0.03607 -0.00464
 O616 O 0.55557 0.04099 0.03214
 C617 C 0.57054 0.04364 0.01570
 O618 O 0.46629 0.04924 -0.04052
 Zr619 Zr 0.48812 0.04504 -0.01094
 O620 O 0.51751 0.06135 0.03926
 O621 O 0.54799 0.04537 -0.04159
 O622 O 0.50506 0.07073 -0.03234
 O623 O 0.45500 0.05892 -0.00189
 O624 O 0.49535 0.07500 0.00910
 C625 C 0.50708 0.07779 0.02790
 O626 O 0.54222 0.01474 0.06131
 O627 O 0.45940 -0.03289 0.04059
 O628 O 0.50239 0.02515 0.06445
 O629 O 0.46784 0.00526 0.05613
 O630 O 0.50487 -0.05824 0.03302
 O631 O 0.53998 -0.03531 0.04445
 C632 C 0.48196 0.01613 0.06996
 H633 H 0.47762 -0.04200 0.00215
 H634 H 0.55564 -0.00080 0.01932
 H635 H 0.47732 0.04140 0.03198
 H636 H 0.50547 0.02837 -0.04808
 H637 H 0.55563 -0.06016 0.00901
 H638 H 0.58210 0.00714 -0.03260
 H639 H 0.56438 0.04320 -0.04699
 H640 H 0.49629 0.08555 -0.03106
 H641 H 0.51465 -0.07243 0.03178
 H642 H 0.44308 -0.03044 0.04607
 H643 H 0.42822 0.00825 0.03634
 H644 H 0.45538 0.07591 -0.00610
 H645 H 0.54670 -0.05126 0.04535
 H646 H 0.54507 0.02877 0.07088
 H647 H 0.46530 -0.01461 -0.06956
 H648 H 0.46299 0.06615 -0.04303
 Zr649 Zr 0.53059 0.51451 -0.03240
 O650 O 0.55335 0.50369 -0.05850
 O651 O 0.52634 0.55025 -0.04108
 O652 O 0.51380 0.51659 -0.06482
 O653 O 0.57531 0.52147 0.00824
 O654 O 0.47881 0.49607 -0.06005
 O655 O 0.56523 0.52963 -0.02888
 O656 O 0.49834 0.56177 -0.01606
 O657 O 0.49467 0.51938 -0.02546
 O658 O 0.52946 0.52958 -0.00024
 O659 O 0.51415 0.48084 -0.03391
 O660 O 0.54784 0.49051 -0.01015
 Zr661 Zr 0.49313 0.47680 0.02965
 Zr662 Zr 0.47866 0.48578 -0.02526
 Zr663 Zr 0.54485 0.50523 0.02219
 Zr664 Zr 0.49379 0.53325 0.00719
 O665 O 0.57530 0.48570 0.03087
 O666 O 0.45976 0.54462 -0.00347
 O667 O 0.50955 0.51050 0.03144
 O668 O 0.47610 0.50050 0.00712
 O669 O 0.49384 0.46138 -0.00252
 O670 O 0.52883 0.47178 0.02235
 C671 C 0.51196 0.56533 -0.03330
 C672 C 0.57985 0.53012 -0.01173
 C673 C 0.49388 0.50800 -0.07227
 O674 O 0.44737 0.50455 -0.03240
 O675 O 0.44937 0.46678 -0.01151
 O676 O 0.45958 0.45989 0.02586
 C677 C 0.44524 0.45819 0.00863
 O678 O 0.55472 0.45441 -0.03655
 Zr679 Zr 0.52959 0.45771 -0.01008
 O680 O 0.49666 0.44103 0.03798
 O681 O 0.47197 0.45589 -0.04551
 O682 O 0.51574 0.43235 -0.03304
 O683 O 0.56121 0.44331 0.00364
 O684 O 0.51931 0.42739 0.00928
 C685 C 0.50681 0.42446 0.02742
 O686 O 0.46922 0.48743 0.05487
 O687 O 0.55269 0.53590 0.04102
 O688 O 0.50887 0.47688 0.06276
 O689 O 0.54369 0.49732 0.05720
 O690 O 0.50840 0.56159 0.02618
 O691 O 0.47342 0.53749 0.03708
 C692 C 0.52871 0.48599 0.06992
 H693 H 0.53795 0.54501 0.00034
 H694 H 0.45938 0.50256 0.01150
 H695 H 0.53669 0.46117 0.03357
 H696 H 0.51552 0.47425 -0.04935
 H697 H 0.45893 0.56163 -0.00023
 H698 H 0.43783 0.49502 -0.04329
 H699 H 0.45618 0.45798 -0.05281
 H700 H 0.52450 0.41762 -0.03029
 H701 H 0.49845 0.57546 0.02297
 H702 H 0.56843 0.53367 0.04837
 H703 H 0.58473 0.49515 0.04192
 H704 H 0.56105 0.42638 -0.00013
 H705 H 0.46691 0.55352 0.03704
 H706 H 0.46567 0.47344 0.06480
 H707 H 0.55704 0.51779 -0.06823
 H708 H 0.55881 0.43765 -0.03796
 Zr709 Zr 0.02603 1.01694 0.47118
 O710 O 0.04996 1.00350 0.44736
 O711 O 0.02174 1.05147 0.45862
 O712 O 0.01025 1.01503 0.43831
 O713 O 0.06868 1.03204 0.51203
 O714 O -0.02368 0.99310 0.44403
 O715 O 0.05986 1.03337 0.47387
 O716 O -0.00775 1.06500 0.48090
 O717 O -0.01038 1.02094 0.47582
 O718 O 0.02268 1.03605 0.50104
 O719 O 0.01152 0.98250 0.47319
 O720 O 0.04347 0.99715 0.49702
 Zr721 Zr -0.01263 0.98587 0.53538
 Zr722 Zr -0.02458 0.98672 0.47954
 Zr723 Zr 0.03829 1.01594 0.52701
 Zr724 Zr -0.01354 1.03885 0.50629
 O725 O 0.06919 0.99930 0.53947
 O726 O -0.04699 1.04716 0.49168
 O727 O 0.00213 1.02035 0.53376
 O728 O -0.02966 1.00546 0.50945
 O729 O -0.00939 0.96625 0.50576
 O730 O 0.02378 0.98199 0.53054
 C731 C 0.00705 1.06719 0.46438
 C732 C 0.07366 1.03746 0.49111
 C733 C -0.00900 1.00474 0.43119
 O734 O -0.05679 1.00230 0.46913
 O735 O -0.05328 0.96775 0.49411
 O736 O -0.04493 0.96637 0.53234
 C737 C -0.05814 0.96159 0.51484
 O738 O 0.05302 0.95779 0.47540
 Zr739 Zr 0.02695 0.96365 0.50046
 O740 O -0.00714 0.95221 0.54915
 O741 O -0.02834 0.95431 0.46258
 O742 O 0.01487 0.93435 0.48133
 O743 O 0.05910 0.95324 0.51645
 O744 O 0.01838 0.93616 0.52414
 C745 C 0.00525 0.93524 0.54204
 O746 O -0.03868 0.99853 0.55750
 O747 O 0.04369 1.04928 0.54193
 O748 O 0.00101 0.99132 0.56859
 O749 O 0.03526 1.01275 0.56277
 O750 O -0.00188 1.06986 0.52303
 O751 O -0.03646 1.04568 0.53383
 C752 C 0.01974 1.00245 0.57576
 H753 H 0.03048 1.05183 0.50017
 H754 H -0.04672 1.00714 0.51274
 H755 H 0.03168 0.97354 0.54336
 H756 H 0.01393 0.97411 0.45878
 H757 H -0.04875 1.06443 0.49260
 H758 H -0.06515 0.99094 0.45904
 H759 H -0.04393 0.95445 0.45458
 H760 H 0.02416 0.92060 0.48651
 H761 H -0.01228 1.08276 0.51777
 H762 H 0.05914 1.04881 0.55015
 H763 H 0.07751 1.01068 0.54954
 H764 H 0.06011 0.93594 0.51499
 H765 H -0.04423 1.06094 0.53104
 H766 H -0.04207 0.98589 0.56903
 H767 H 0.05359 1.01637 0.43613
 H768 H 0.05753 0.94104 0.47606
 Zr769 Zr 0.73422 0.26827 0.21265
 O770 O 0.74446 0.29069 0.18496
 O771 O 0.69787 0.26341 0.20644
 O772 O 0.73000 0.25140 0.18094
 O773 O 0.73172 0.31324 0.25127
 O774 O 0.74718 0.21585 0.18741
 O775 O 0.72024 0.30250 0.21543
 O776 O 0.68592 0.23769 0.23474
 O777 O 0.72824 0.23275 0.22183
 O778 O 0.72110 0.26769 0.24591
 O779 O 0.76715 0.25193 0.20963
 O780 O 0.76023 0.28605 0.23240
 Zr781 Zr 0.77479 0.23254 0.27371
 Zr782 Zr 0.76135 0.21692 0.22065
 Zr783 Zr 0.74754 0.28346 0.26593
 Zr784 Zr 0.71638 0.23246 0.25540
 O785 O 0.76894 0.31378 0.27230
 O786 O 0.70276 0.19883 0.24616
 O787 O 0.74161 0.24854 0.27710
 O788 O 0.74865 0.21503 0.25406
 O789 O 0.78810 0.23277 0.24051
 O790 O 0.78051 0.26790 0.26438
 C791 C 0.68221 0.25031 0.21658
 C792 C 0.72160 0.31732 0.23185
 C793 C 0.73608 0.23081 0.17468
 O794 O 0.74147 0.18511 0.21721
 O795 O 0.78091 0.18850 0.23418
 O796 O 0.79058 0.19959 0.27040
 C797 C 0.79087 0.18506 0.25386
 O798 O 0.79477 0.29185 0.20234
 Zr799 Zr 0.79237 0.26818 0.23086
 O800 O 0.81146 0.23710 0.27938
 O801 O 0.78910 0.21027 0.19782
 O802 O 0.81629 0.25365 0.20759
 O803 O 0.80822 0.30052 0.24121
 O804 O 0.82359 0.26013 0.24911
 C805 C 0.82746 0.24823 0.26761
 O806 O 0.76527 0.20884 0.30067
 O807 O 0.71812 0.29179 0.28614
 O808 O 0.77686 0.24813 0.30609
 O809 O 0.75699 0.28233 0.30069
 O810 O 0.69042 0.24703 0.27652
 O811 O 0.71300 0.21207 0.28609
 C812 C 0.76819 0.26734 0.31328
 H813 H 0.70599 0.27608 0.24718
 H814 H 0.74633 0.19851 0.25945
 H815 H 0.79201 0.27610 0.27455
 H816 H 0.77282 0.25284 0.19369
 H817 H 0.68579 0.19801 0.25042
 H818 H 0.74968 0.17569 0.20578
 H819 H 0.78581 0.19445 0.19155
 H820 H 0.83144 0.26278 0.20866
 H821 H 0.67567 0.23735 0.27479
 H822 H 0.72154 0.30753 0.29257
 H823 H 0.76036 0.32319 0.28347
 H824 H 0.82493 0.30079 0.23610
 H825 H 0.69672 0.20520 0.28702
 H826 H 0.77987 0.20568 0.30977
 H827 H 0.72990 0.29414 0.17593
 H828 H 0.81165 0.29592 0.19940
 Zr829 Zr 0.75346 0.71916 0.70751
 O830 O 0.74477 0.69430 0.68211
 O831 O 0.78871 0.72849 0.69937
 O832 O 0.75330 0.73495 0.67459
 O833 O 0.76578 0.67793 0.74980
 O834 O 0.72850 0.76593 0.67757
 O835 O 0.77232 0.68748 0.71237
 O836 O 0.79797 0.75785 0.72419
 O837 O 0.75393 0.75557 0.71270
 O838 O 0.76890 0.72426 0.73966
 O839 O 0.71779 0.72939 0.70513
 O840 O 0.73223 0.69909 0.73054
 Zr841 Zr 0.71217 0.75214 0.76751
 Zr842 Zr 0.71832 0.76544 0.71209
 Zr843 Zr 0.74710 0.70607 0.76273
 Zr844 Zr 0.76822 0.76026 0.74530
 O845 O 0.73119 0.67385 0.77408
 O846 O 0.77541 0.79436 0.73127
 O847 O 0.74791 0.74205 0.77002
 O848 O 0.73331 0.77189 0.74432
 O849 O 0.69626 0.74728 0.73539
 O850 O 0.71175 0.71588 0.76214
 C851 C 0.80291 0.74426 0.70772
 C852 C 0.77450 0.67381 0.73013
 C853 C 0.74237 0.75289 0.66625
 O854 O 0.73253 0.79925 0.70353
 O855 O 0.69618 0.79174 0.72431
 O856 O 0.69102 0.78197 0.76198
 C857 C 0.68757 0.79528 0.74422
 O858 O 0.69630 0.68544 0.70378
 Zr859 Zr 0.69726 0.71117 0.72963
 O860 O 0.67736 0.74188 0.77614
 O861 O 0.68736 0.76565 0.69134
 O862 O 0.66924 0.71984 0.70671
 O863 O 0.68829 0.67768 0.74420
 O864 O 0.66647 0.71523 0.74914
 C865 C 0.66229 0.72765 0.76668
 O866 O 0.71924 0.77898 0.79141
 O867 O 0.77957 0.70338 0.78106
 O868 O 0.71650 0.73932 0.80157
 O869 O 0.74192 0.70905 0.79783
 O870 O 0.79756 0.75200 0.76677
 O871 O 0.77032 0.78365 0.77315
 C872 C 0.72984 0.72302 0.80987
 H873 H 0.78526 0.71836 0.74090
 H874 H 0.73338 0.78886 0.74784
 H875 H 0.70276 0.70685 0.77397
 H876 H 0.71112 0.72633 0.68973
 H877 H 0.79234 0.79829 0.73444
 H878 H 0.72167 0.80631 0.69199
 H879 H 0.68721 0.78118 0.68331
 H880 H 0.65587 0.70860 0.70972
 H881 H 0.81045 0.76366 0.76332
 H882 H 0.77926 0.68787 0.78916
 H883 H 0.74226 0.66678 0.78540
 H884 H 0.67138 0.67427 0.74047
 H885 H 0.78525 0.79314 0.77222
 H886 H 0.70502 0.78010 0.80114
 H887 H 0.75911 0.69257 0.67268
 H888 H 0.68008 0.67849 0.70255
 Zr889 Zr 0.24687 0.22867 0.78432
 O890 O 0.25929 0.20783 0.81219
 O891 O 0.21098 0.23156 0.79199
 O892 O 0.24378 0.24641 0.81544
 O893 O 0.24036 0.18247 0.74690
 O894 O 0.26143 0.28234 0.80842
 O895 O 0.23311 0.19389 0.78326
 O896 O 0.19725 0.25660 0.76412
 O897 O 0.24055 0.26372 0.77493
 O898 O 0.23116 0.22796 0.75181
 O899 O 0.28018 0.24596 0.78569
 O900 O 0.27092 0.21123 0.76357
 Zr901 Zr 0.28280 0.26442 0.72070
 Zr902 Zr 0.27394 0.28053 0.77453
 Zr903 Zr 0.25564 0.21253 0.73070
 Zr904 Zr 0.22613 0.26286 0.74202
 O905 O 0.27630 0.18289 0.72395
 O906 O 0.21348 0.29609 0.75152
 O907 O 0.24927 0.24713 0.71929
 O908 O 0.25868 0.28138 0.74169
 O909 O 0.29874 0.26523 0.75321
 O910 O 0.28888 0.22944 0.73035
 C911 C 0.19471 0.24388 0.78244
 C912 C 0.23249 0.17870 0.76724
 C913 C 0.25013 0.26735 0.82139
 O914 O 0.25538 0.31221 0.77780
 O915 O 0.29380 0.30868 0.75982
 O916 O 0.29853 0.29850 0.72265
 C917 C 0.30125 0.31276 0.73938
 O918 O 0.30730 0.20695 0.79187
 Zr919 Zr 0.30333 0.23017 0.76322
 O920 O 0.31875 0.26118 0.71265
 O921 O 0.30314 0.28799 0.79644
 O922 O 0.32913 0.24615 0.78493
 O923 O 0.31798 0.19813 0.75277
 O924 O 0.33346 0.23844 0.74359
 C925 C 0.33713 0.25043 0.72365
 O926 O 0.27130 0.28722 0.69392
 O927 O 0.22453 0.20282 0.71225
 O928 O 0.28170 0.24804 0.68840
 O929 O 0.26222 0.21303 0.69536
 O930 O 0.19839 0.24720 0.72238
 O931 O 0.22085 0.28286 0.71137
 C932 C 0.27245 0.22823 0.68190
 H933 H 0.21590 0.21898 0.75147
 H934 H 0.25613 0.29775 0.73623
 H935 H 0.29953 0.22156 0.71974
 H936 H 0.28683 0.24551 0.80142
 H937 H 0.19622 0.29616 0.74809
 H938 H 0.26456 0.32200 0.78875
 H939 H 0.30076 0.30395 0.80241
 H940 H 0.34397 0.23729 0.78363
 H941 H 0.18397 0.25649 0.72463
 H942 H 0.22717 0.18699 0.70608
 H943 H 0.26667 0.17274 0.71367
 H944 H 0.33490 0.19824 0.75756
 H945 H 0.20459 0.28910 0.71107
 H946 H 0.28513 0.29061 0.68394
 H947 H 0.24546 0.20394 0.82201
 H948 H 0.32436 0.20397 0.79454
 Zr949 Zr 0.26455 0.76808 0.28068
 O950 O 0.25015 0.79185 0.30390
 O951 O 0.29924 0.76433 0.29373
 O952 O 0.26261 0.75313 0.31392
 O953 O 0.27785 0.81058 0.23903
 O954 O 0.24271 0.71814 0.30899
 O955 O 0.28000 0.80207 0.27727
 O956 O 0.31437 0.73625 0.27115
 O957 O 0.27015 0.73216 0.27660
 O958 O 0.28394 0.76536 0.25070
 O959 O 0.23044 0.75229 0.27926
 O960 O 0.24378 0.78427 0.25478
 Zr961 Zr 0.23488 0.72787 0.21738
 Zr962 Zr 0.23629 0.71668 0.27355
 Zr963 Zr 0.26286 0.77972 0.22470
 Zr964 Zr 0.28831 0.72957 0.24596
 O965 O 0.24468 0.80956 0.21210
 O966 O 0.29820 0.69677 0.26071
 O967 O 0.26895 0.74407 0.21843
 O968 O 0.25535 0.71212 0.24350
 O969 O 0.21512 0.73058 0.24724
 O970 O 0.22923 0.76378 0.22165
 C971 C 0.31571 0.75036 0.28805
 C972 C 0.28332 0.81582 0.25978
 C973 C 0.25329 0.73362 0.32148
 O974 O 0.25324 0.68533 0.28395
 O975 O 0.21738 0.68798 0.25975
 O976 O 0.21746 0.69458 0.22116
 C977 C 0.21194 0.68226 0.23917
 O978 O 0.20404 0.79290 0.27598
 Zr979 Zr 0.21072 0.76644 0.25190
 O980 O 0.20011 0.73039 0.20492
 O981 O 0.20401 0.71182 0.29135
 O982 O 0.18202 0.75409 0.27233
 O983 O 0.19842 0.79709 0.23465
 O984 O 0.18296 0.75525 0.22965
 C985 C 0.18227 0.74130 0.21255
 O986 O 0.24904 0.70297 0.19517
 O987 O 0.29613 0.78639 0.20919
 O988 O 0.23921 0.74187 0.18384
 O989 O 0.25955 0.77660 0.18907
 O990 O 0.31906 0.74254 0.22887
 O991 O 0.29610 0.70712 0.21859
 C992 C 0.24961 0.76093 0.17633
 H993 H 0.29955 0.77369 0.25142
 H994 H 0.25774 0.69525 0.24055
 H995 H 0.22012 0.77093 0.20882
 H996 H 0.22187 0.75450 0.29370
 H997 H 0.31566 0.69575 0.25951
 H998 H 0.24216 0.67667 0.29431
 H999 H 0.20480 0.69640 0.29953
 H1000 H 0.16772 0.76264 0.26719
 H1001 H 0.33251 0.73281 0.23412
 H1002 H 0.29500 0.80168 0.20083
 H1003 H 0.25577 0.81833 0.20183
 H1004 H 0.18094 0.79716 0.23629
 H1005 H 0.31196 0.70034 0.22111
 H1006 H 0.23639 0.69885 0.18393
 H1007 H 0.26288 0.79599 0.31505
 H1008 H 0.18707 0.79699 0.27520
 Zr1009 Zr 0.23294 0.77338 0.71735
 O1010 O 0.24463 0.79744 0.69150
 O1011 O 0.19735 0.76773 0.70819
 O1012 O 0.23197 0.75813 0.68484
 O1013 O 0.22587 0.81712 0.75678
 O1014 O 0.24875 0.72230 0.69095
 O1015 O 0.21720 0.80650 0.72017
 O1016 O 0.18387 0.74084 0.73478
 O1017 O 0.22704 0.73752 0.72483
 O1018 O 0.21733 0.77139 0.74955
 O1019 O 0.26644 0.75801 0.71591
 O1020 O 0.25691 0.79115 0.73928
 Zr1021 Zr 0.26971 0.73654 0.77963
 Zr1022 Zr 0.26057 0.72254 0.72523
 Zr1023 Zr 0.24177 0.78722 0.77177
 Zr1024 Zr 0.21280 0.73580 0.75753
 O1025 O 0.26185 0.81781 0.78022
 O1026 O 0.20075 0.70215 0.74671
 O1027 O 0.23595 0.75174 0.78137
 O1028 O 0.24556 0.71917 0.75770
 O1029 O 0.28537 0.73825 0.74741
 O1030 O 0.27523 0.77232 0.77188
 C1031 C 0.18127 0.75392 0.71672
 C1032 C 0.21680 0.82097 0.73678
 C1033 C 0.23865 0.73792 0.67815
 O1034 O 0.24181 0.69045 0.71959
 O1035 O 0.27997 0.69430 0.73923
 O1036 O 0.28649 0.70405 0.77644
 C1037 C 0.28851 0.69030 0.75941
 O1038 O 0.29330 0.79894 0.71195
 Zr1039 Zr 0.28958 0.77403 0.73934
 O1040 O 0.30594 0.74088 0.78763
 O1041 O 0.29008 0.71737 0.70405
 O1042 O 0.31554 0.76110 0.71720
 O1043 O 0.30409 0.80610 0.75186
 O1044 O 0.31963 0.76567 0.75932
 C1045 C 0.32253 0.75271 0.77734
 O1046 O 0.25839 0.71202 0.80522
 O1047 O 0.21076 0.79395 0.79036
 O1048 O 0.26982 0.75140 0.81238
 O1049 O 0.24917 0.78521 0.80708
 O1050 O 0.18469 0.74893 0.77699
 O1051 O 0.20787 0.71452 0.78747
 C1052 C 0.26036 0.77019 0.81971
 H1053 H 0.20186 0.77924 0.75000
 H1054 H 0.24328 0.70244 0.76242
 H1055 H 0.28591 0.78029 0.78297
 H1056 H 0.27325 0.75970 0.70044
 H1057 H 0.18352 0.70085 0.74979
 H1058 H 0.25109 0.68163 0.70847
 H1059 H 0.28770 0.70168 0.69719
 H1060 H 0.33034 0.77052 0.71962
 H1061 H 0.17046 0.73883 0.77399
 H1062 H 0.21327 0.80953 0.79742
 H1063 H 0.25218 0.82669 0.79097
 H1064 H 0.32111 0.80684 0.74780
 H1065 H 0.19176 0.70721 0.78720
 H1066 H 0.27233 0.70867 0.81517
 H1067 H 0.23078 0.80081 0.68144
 H1068 H 0.31026 0.80346 0.71018
 Zr1069 Zr 0.24243 0.21895 0.19547
 O1070 O 0.23111 0.19322 0.17182
 O1071 O 0.27610 0.22833 0.18323
 O1072 O 0.23878 0.23411 0.16227
 O1073 O 0.25933 0.17804 0.23693
 O1074 O 0.21496 0.26552 0.16720
 O1075 O 0.26251 0.18811 0.19905
 O1076 O 0.28861 0.25753 0.20699
 O1077 O 0.24381 0.25537 0.20017
 O1078 O 0.26108 0.22417 0.22614
 O1079 O 0.20689 0.22929 0.19599
 O1080 O 0.22383 0.19909 0.22068
 Zr1081 Zr 0.20766 0.25256 0.25827
 Zr1082 Zr 0.20841 0.26544 0.20257
 Zr1083 Zr 0.24175 0.20625 0.25158
 Zr1084 Zr 0.26138 0.26020 0.23131
 O1085 O 0.22729 0.17384 0.26411
 O1086 O 0.26743 0.29430 0.21679
 O1087 O 0.24345 0.24243 0.25817
 O1088 O 0.22659 0.27205 0.23325
 O1089 O 0.18868 0.24743 0.22780
 O1090 O 0.20654 0.21625 0.25342
 C1091 C 0.29124 0.24405 0.18980
 C1092 C 0.26642 0.17443 0.21647
 C1093 C 0.22728 0.25210 0.15470
 O1094 O 0.22204 0.29904 0.19249
 O1095 O 0.18777 0.29195 0.21669
 O1096 O 0.18611 0.28221 0.25467
 C1097 C 0.18105 0.29546 0.23729
 O1098 O 0.18611 0.18506 0.19700
 Zr1099 Zr 0.18900 0.21122 0.22237
 O1100 O 0.17367 0.24289 0.26988
 O1101 O 0.17554 0.26573 0.18478
 O1102 O 0.15895 0.21946 0.20185
 O1103 O 0.18090 0.17801 0.23795
 O1104 O 0.16027 0.21572 0.24435
 C1105 C 0.15780 0.22848 0.26197
 O1106 O 0.21789 0.27942 0.28119
 O1107 O 0.27565 0.20458 0.26736
 O1108 O 0.21337 0.23949 0.29175
 O1109 O 0.23830 0.20883 0.28753
 O1110 O 0.29297 0.25204 0.24953
 O1111 O 0.26642 0.28362 0.25887
 C1112 C 0.22624 0.22278 0.29983
 H1113 H 0.27751 0.21842 0.22578
 H1114 H 0.22708 0.28904 0.23669
 H1115 H 0.19845 0.20735 0.26591
 H1116 H 0.19875 0.22605 0.18128
 H1117 H 0.28464 0.29798 0.21821
 H1118 H 0.21010 0.30615 0.18204
 H1119 H 0.17472 0.28121 0.17672
 H1120 H 0.14603 0.20812 0.20606
 H1121 H 0.30536 0.26371 0.24469
 H1122 H 0.27625 0.18917 0.27556
 H1123 H 0.23947 0.16686 0.27436
 H1124 H 0.16377 0.17461 0.23532
 H1125 H 0.28128 0.29297 0.25662
 H1126 H 0.20476 0.28108 0.29215
 H1127 H 0.24422 0.19145 0.16089
 H1128 H 0.16978 0.17828 0.19681
 Zr1129 Zr 0.74669 0.72372 0.28522
 O1130 O 0.76132 0.70359 0.31252
 O1131 O 0.71159 0.72728 0.29568
 O1132 O 0.74648 0.74271 0.31606
 O1133 O 0.73681 0.67661 0.24928
 O1134 O 0.76344 0.77815 0.30588
 O1135 O 0.73247 0.68886 0.28585
 O1136 O 0.69559 0.75116 0.26800
 O1137 O 0.73961 0.75845 0.27515
 O1138 O 0.72840 0.72203 0.25397
 O1139 O 0.78002 0.74105 0.28324
 O1140 O 0.76910 0.70576 0.26310
 Zr1141 Zr 0.77714 0.75770 0.21786
 Zr1142 Zr 0.77278 0.77522 0.27151
 Zr1143 Zr 0.75113 0.70603 0.23148
 Zr1144 Zr 0.72247 0.75657 0.24352
 O1145 O 0.77106 0.67593 0.22460
 O1146 O 0.71063 0.79012 0.25297
 O1147 O 0.74371 0.74021 0.21952
 O1148 O 0.75474 0.77519 0.24006
 O1149 O 0.79575 0.75944 0.24896
 O1150 O 0.78413 0.72298 0.22798
 C1151 C 0.69458 0.73928 0.28696
 C1152 C 0.73034 0.67333 0.27013
 C1153 C 0.75341 0.76398 0.32043
 O1154 O 0.75451 0.80700 0.27537
 O1155 O 0.79133 0.80289 0.25478
 O1156 O 0.79254 0.79212 0.21750
 C1157 C 0.79690 0.80665 0.23376
 O1158 O 0.80832 0.70221 0.28814
 Zr1159 Zr 0.80140 0.72470 0.25948
 O1160 O 0.81261 0.75511 0.20818
 O1161 O 0.80367 0.78344 0.29091
 O1162 O 0.82885 0.74117 0.27890
 O1163 O 0.81528 0.69255 0.24840
 O1164 O 0.82950 0.73338 0.23704
 C1165 C 0.83040 0.74532 0.21811
 O1166 O 0.76331 0.77905 0.19102
 O1167 O 0.71881 0.69607 0.21522
 O1168 O 0.77445 0.73981 0.18652
 O1169 O 0.75556 0.70504 0.19593
 O1170 O 0.69323 0.74014 0.22659
 O1171 O 0.71448 0.77545 0.21277
 C1172 C 0.76510 0.71961 0.18143
 H1173 H 0.71315 0.71310 0.25500
 H1174 H 0.75170 0.79140 0.23440
 H1175 H 0.79396 0.71476 0.21689
 H1176 H 0.78802 0.74115 0.29838
 H1177 H 0.69316 0.79011 0.25085
 H1178 H 0.76460 0.81720 0.28521
 H1179 H 0.80182 0.79960 0.29658
 H1180 H 0.84366 0.73267 0.27613
 H1181 H 0.67902 0.74945 0.22971
 H1182 H 0.72088 0.68002 0.20935
 H1183 H 0.76080 0.66553 0.21512
 H1184 H 0.83266 0.69324 0.25114
 H1185 H 0.69825 0.78167 0.21358
 H1186 H 0.77636 0.78230 0.18008
 H1187 H 0.74832 0.70008 0.32343
 H1188 H 0.82551 0.69906 0.28906
 Zr1189 Zr 0.75911 0.27910 0.77868
 O1190 O 0.74026 0.30112 0.80045
 O1191 O 0.79300 0.27941 0.79393
 O1192 O 0.75730 0.26423 0.81190
 O1193 O 0.76962 0.32204 0.73696
 O1194 O 0.74248 0.22697 0.80650
 O1195 O 0.77109 0.31464 0.77537
 O1196 O 0.81254 0.25259 0.77316
 O1197 O 0.76926 0.24411 0.77539
 O1198 O 0.78062 0.27836 0.74992
 O1199 O 0.72731 0.25906 0.77584
 O1200 O 0.73796 0.29233 0.75156
 Zr1201 Zr 0.73842 0.23524 0.71467
 Zr1202 Zr 0.73784 0.22442 0.77088
 Zr1203 Zr 0.75937 0.28972 0.72270
 Zr1204 Zr 0.78961 0.24342 0.74598
 O1205 O 0.73852 0.31706 0.70863
 O1206 O 0.80250 0.21191 0.76113
 O1207 O 0.77029 0.25525 0.71723
 O1208 O 0.75915 0.22213 0.74195
 O1209 O 0.71664 0.23558 0.74339
 O1210 O 0.72805 0.27004 0.71821
 C1211 C 0.81104 0.26676 0.78992
 C1212 C 0.77368 0.32829 0.75764
 C1213 C 0.75045 0.24368 0.81922
 O1214 O 0.75802 0.19556 0.78262
 O1215 O 0.72379 0.19332 0.75643
 O1216 O 0.72404 0.20071 0.71794
 C1217 C 0.71962 0.18748 0.73560
 O1218 O 0.69607 0.29583 0.77088
 Zr1219 Zr 0.70750 0.27054 0.74739
 O1220 O 0.70445 0.23368 0.70031
 O1221 O 0.70532 0.21575 0.78703
 O1222 O 0.67932 0.25468 0.76633
 O1223 O 0.69245 0.29940 0.72933
 O1224 O 0.68266 0.25623 0.72370
 C1225 C 0.68491 0.24243 0.70668
 O1226 O 0.75698 0.21205 0.69383
 O1227 O 0.79260 0.30015 0.70885
 O1228 O 0.74251 0.24945 0.68114
 O1229 O 0.75858 0.28604 0.68718
 O1230 O 0.81992 0.26010 0.73112
 O1231 O 0.80204 0.22250 0.71913
 C1232 C 0.75104 0.26955 0.67406
 H1233 H 0.79510 0.28843 0.75139
 H1234 H 0.76374 0.20571 0.73926
 H1235 H 0.71888 0.27605 0.70488
 H1236 H 0.71769 0.26025 0.78979
 H1237 H 0.82007 0.21304 0.76103
 H1238 H 0.74750 0.18571 0.79255
 H1239 H 0.70765 0.20071 0.79555
 H1240 H 0.66433 0.26134 0.76036
 H1241 H 0.83405 0.25210 0.73748
 H1242 H 0.79013 0.31503 0.70011
 H1243 H 0.74909 0.32691 0.69874
 H1244 H 0.67497 0.29736 0.73010
 H1245 H 0.81855 0.21784 0.72252
 H1246 H 0.74561 0.20637 0.68200
 H1247 H 0.75169 0.30689 0.81218
 H1248 H 0.67871 0.29771 0.76923
 C1249 C 0.41011 1.01226 0.29620
 C1250 C 0.42318 0.99456 0.30702
 C1251 C 0.43164 0.99585 0.33106
 C1252 C 0.44868 0.97997 0.33914
 C1253 C 0.45590 0.97972 0.36212
 C1254 C 0.44604 0.99537 0.37754
 C1255 C 0.42905 1.01123 0.36939
 C1256 C 0.42185 1.01145 0.34652
 C1257 C 0.45217 0.99564 0.40224
 C1258 C 0.46953 0.98206 0.41309
 H1259 H 0.42636 0.97862 0.29780
 H1260 H 0.45627 0.96755 0.32766
 H1261 H 0.46886 0.96703 0.36761
 H1262 H 0.42098 1.02335 0.38087
 H1263 H 0.40806 1.02342 0.34137
 H1264 H 0.44232 1.00755 0.41257
 H1265 H 0.40880 1.02920 0.30412
 H1266 H 0.48026 0.97031 0.40353
 C1267 C -0.07702 0.50390 0.79813
 C1268 C -0.08583 0.50845 0.81970
 C1269 C -0.07158 0.50816 0.84098
 C1270 C -0.07903 0.52195 0.85895
 C1271 C -0.06738 0.52109 0.88002
 C1272 C -0.04832 0.50601 0.88384
 C1273 C -0.04052 0.49231 0.86577
 C1274 C -0.05204 0.49346 0.84441
 C1275 C -0.03790 0.50508 0.90711
 C1276 C -0.02455 0.48671 0.91647
 H1277 H -0.10430 0.51311 0.82100
 H1278 H -0.09409 0.53333 0.85673
 H1279 H -0.07375 0.53186 0.89361
 H1280 H -0.02572 0.48069 0.86805
 H1281 H -0.04616 0.48231 0.83093
 H1282 H -0.04305 0.51894 0.91837
 H1283 H -0.05854 0.49971 0.79607
 H1284 H -0.01820 0.47280 0.90598
 C1285 C 0.08450 0.00017 0.79651
 C1286 C 0.09454 -0.00464 0.81797
 C1287 C 0.08217 -0.00327 0.84000
 C1288 C 0.09242 -0.01456 0.85904
 C1289 C 0.08260 -0.01268 0.88060
 C1290 C 0.06240 0.00078 0.88380
 C1291 C 0.05182 0.01199 0.86472
 C1292 C 0.06165 0.00996 0.84294
 C1293 C 0.05353 0.00239 0.90741
 C1294 C 0.03591 0.01732 0.91485
 H1295 H 0.11295 -0.00975 0.81863
 H1296 H 0.10827 -0.02476 0.85727
 H1297 H 0.09112 -0.02156 0.89494
 H1298 H 0.03615 0.02237 0.86644
 H1299 H 0.05351 0.01925 0.82868
 H1300 H 0.06218 -0.00875 0.92008
 H1301 H 0.06603 0.00476 0.79489
 H1302 H 0.02645 0.02862 0.90298
 C1303 C 0.58569 0.49005 0.30081
 C1304 C 0.57161 0.50855 0.30749
 C1305 C 0.56452 0.51143 0.33151
 C1306 C 0.54480 0.52497 0.33659
 C1307 C 0.53868 0.52883 0.35934
 C1308 C 0.55249 0.51940 0.37734
 C1309 C 0.57238 0.50622 0.37212
 C1310 C 0.57836 0.50230 0.34956
 C1311 C 0.54731 0.52247 0.40179
 C1312 C 0.52651 0.53145 0.41068
 H1313 H 0.56724 0.52227 0.29512
 H1314 H 0.53415 0.53259 0.32293
 H1315 H 0.52340 0.53933 0.36264
 H1316 H 0.58348 0.49892 0.38561
 H1317 H 0.59428 0.49266 0.34644
 H1318 H 0.56045 0.51575 0.41375
 H1319 H 0.58862 0.47542 0.31258
 H1320 H 0.51293 0.53873 0.39963
 C1321 C 0.58796 0.49401 0.21163
 C1322 C 0.60050 0.49263 0.19148
 C1323 C 0.58880 0.49078 0.16886
 C1324 C 0.60314 0.48984 0.14955
 C1325 C 0.59300 0.48840 0.12781
 C1326 C 0.56826 0.48771 0.12480
 C1327 C 0.55372 0.48833 0.14412
 C1328 C 0.56394 0.48985 0.16602
 C1329 C 0.55888 0.48800 0.10111
 C1330 C 0.53539 0.48321 0.09429
 H1331 H 0.61974 0.49241 0.19227
 H1332 H 0.62230 0.49045 0.15126
 H1333 H 0.60462 0.48805 0.11322
 H1334 H 0.53460 0.48821 0.14241
 H1335 H 0.55241 0.49052 0.18064
 H1336 H 0.57175 0.49224 0.08795
 H1337 H 0.59697 0.49444 0.22369
 H1338 H 0.52221 0.47709 0.10645
 C1339 C 0.09529 1.00860 0.71274
 C1340 C 0.07158 1.01074 0.70566
 C1341 C 0.06438 1.01250 0.68126
 C1342 C 0.04138 1.00507 0.67484
 C1343 C 0.03416 1.00577 0.65190
 C1344 C 0.04988 1.01403 0.63486
 C1345 C 0.07258 1.02224 0.64143
 C1346 C 0.07977 1.02155 0.66434
 C1347 C 0.04357 1.01452 0.61018
 C1348 C 0.02381 1.00289 0.60065
 H1349 H 0.05746 1.00948 0.71797
 H1350 H 0.02904 0.99840 0.68759
 H1351 H 0.01629 0.99990 0.64780
 H1352 H 0.08492 1.02909 0.62874
 H1353 H 0.09729 1.02836 0.66865
 H1354 H 0.05583 1.02367 0.59877
 H1355 H 0.10880 1.00838 0.69979
 H1356 H 0.01140 0.99310 0.61133
 C1357 C -0.08895 0.50074 0.71367
 C1358 C -0.10315 0.50236 0.69400
 C1359 C -0.09325 0.50547 0.67075
 C1360 C -0.10736 0.49896 0.65194
 C1361 C -0.09872 0.50158 0.62975
 C1362 C -0.07584 0.51099 0.62576
 C1363 C -0.06181 0.51797 0.64457
 C1364 C -0.07047 0.51535 0.66681
 C1365 C -0.06735 0.51230 0.60186
 C1366 C -0.04571 0.52243 0.59473
 H1367 H -0.12222 0.50083 0.69523
 H1368 H -0.12505 0.49156 0.65444
 H1369 H -0.10997 0.49606 0.61563
 H1370 H -0.04411 0.52528 0.64240
 H1371 H -0.05933 0.52139 0.68075
 H1372 H -0.07878 0.50422 0.58910
 H1373 H -0.06988 0.50070 0.71175
 H1374 H -0.03397 0.53133 0.60662
 C1375 C 0.41465 0.00540 0.20751
 C1376 C 0.40345 0.00511 0.18627
 C1377 C 0.41640 0.00748 0.16450
 C1378 C 0.40325 0.00690 0.14408
 C1379 C 0.41456 0.00890 0.12308
 C1380 C 0.43933 0.01165 0.12190
 C1381 C 0.45266 0.01249 0.14234
 C1382 C 0.44126 0.01041 0.16351
 C1383 C 0.45008 0.01211 0.09895
 C1384 C 0.47364 0.01829 0.09367
 H1385 H 0.38423 0.00365 0.18547
 H1386 H 0.38411 0.00472 0.14434
 H1387 H 0.40383 0.00810 0.10763
 H1388 H 0.47180 0.01423 0.14211
 H1389 H 0.45190 0.01095 0.17901
 H1390 H 0.43827 0.00720 0.08502
 H1391 H 0.40492 0.00455 0.21883
 H1392 H 0.48581 0.02479 0.10662
 C1393 C 0.29145 0.40407 0.00102
 C1394 C 0.31433 0.39504 0.00237
 C1395 C 0.33645 0.40966 0.00247
 C1396 C 0.35715 0.40011 0.01203
 C1397 C 0.37880 0.41262 0.01107
 C1398 C 0.38025 0.43491 0.00021
 C1399 C 0.35955 0.44444 -0.00943
 C1400 C 0.33782 0.43205 -0.00818
 C1401 C 0.40318 0.44790 -0.00262
 C1402 C 0.42247 0.44546 0.01241
 H1403 H 0.31615 0.37610 0.00353
 H1404 H 0.35663 0.38274 0.02005
 H1405 H 0.39448 0.40444 0.01814
 H1406 H 0.36026 0.46145 -0.01815
 H1407 H 0.32239 0.43969 -0.01630
 H1408 H 0.40464 0.46052 -0.01670
 H1409 H 0.28908 0.42292 0.00035
 H1410 H 0.42059 0.43477 0.02784
 C1411 C -0.20874 0.90155 0.50059
 C1412 C -0.18612 0.89273 0.50487
 C1413 C -0.16426 0.90771 0.50515
 C1414 C -0.14465 0.90051 0.51835
 C1415 C -0.12334 0.91368 0.51810
 C1416 C -0.12115 0.93416 0.50431
 C1417 C -0.14071 0.94124 0.49101
 C1418 C -0.16208 0.92827 0.49149
 C1419 C -0.09846 0.94762 0.50205
 C1420 C -0.08052 0.94818 0.51876
 H1421 H -0.18439 0.87410 0.50864
 H1422 H -0.14580 0.88454 0.52876
 H1423 H -0.10844 0.90737 0.52810
 H1424 H -0.13936 0.95677 0.47999
 H1425 H -0.17654 0.93397 0.48057
 H1426 H -0.09612 0.95830 0.48664
 H1427 H -0.21074 0.92024 0.49737
 H1428 H -0.08323 0.93951 0.53519
 C1429 C -0.19860 0.11009 0.99750
 C1430 C -0.17638 0.12128 1.00000
 C1431 C -0.15368 0.10888 1.00163
 C1432 C -0.13604 0.11762 1.01648
 C1433 C -0.11415 0.10675 1.01841
 C1434 C -0.10910 0.08748 1.00489
 C1435 C -0.12655 0.07890 0.98963
 C1436 C -0.14883 0.08940 0.98818
 C1437 C -0.08620 0.07576 1.00837
 C1438 C -0.07325 0.06621 0.99076
 H1439 H -0.17577 0.14007 1.00290
 H1440 H -0.13937 0.13270 1.02691
 H1441 H -0.10102 0.11352 1.03040
 H1442 H -0.12319 0.06378 0.97929
 H1443 H -0.16206 0.08257 0.97635
 H1444 H -0.07870 0.07563 1.02551
 H1445 H -0.19985 0.09120 0.99540
 H1446 H -0.07921 0.06836 0.97321
 C1447 C 0.29442 0.60838 0.50812
 C1448 C 0.31664 0.61940 0.50565
 C1449 C 0.33902 0.60651 0.50791
 C1450 C 0.35897 0.61468 0.49575
 C1451 C 0.38032 0.60268 0.49733
 C1452 C 0.38211 0.58237 0.51136
 C1453 C 0.36238 0.57468 0.52409
 C1454 C 0.34100 0.58654 0.52234
 C1455 C 0.40433 0.56917 0.51363
 C1456 C 0.42141 0.56886 0.49658
 H1457 H 0.31754 0.63791 0.50076
 H1458 H 0.35796 0.63027 0.48483
 H1459 H 0.39541 0.60957 0.48787
 H1460 H 0.36347 0.55932 0.53531
 H1461 H 0.32623 0.58025 0.53259
 H1462 H 0.40665 0.55818 0.52881
 H1463 H 0.29322 0.58963 0.51176
 H1464 H 0.41862 0.57832 0.48057
 C1465 C 0.20249 0.60494 0.50759
 C1466 C 0.18034 0.61470 0.51021
 C1467 C 0.15860 0.59967 0.51161
 C1468 C 0.13741 0.60914 0.51933
 C1469 C 0.11649 0.59536 0.52007
 C1470 C 0.11641 0.57193 0.51281
 C1471 C 0.13759 0.56248 0.50519
 C1472 C 0.15851 0.57609 0.50476
 C1473 C 0.09437 0.55747 0.51098
 C1474 C 0.07419 0.56041 0.52415
 H1475 H 0.17893 0.63361 0.51187
 H1476 H 0.13702 0.62729 0.52459
 H1477 H 0.10031 0.60333 0.52553
 H1478 H 0.13790 0.54454 0.49930
 H1479 H 0.17446 0.56826 0.49855
 H1480 H 0.09418 0.54351 0.49863
 H1481 H 0.21387 0.61546 0.50629
 H1482 H 0.07455 0.57254 0.53817
 C1483 C 0.71343 0.11703 -0.00068
 C1484 C 0.70618 0.09357 0.00309
 C1485 C 0.68063 0.08684 0.00368
 C1486 C 0.67227 0.06990 0.01963
 C1487 C 0.64812 0.06334 0.02014
 C1488 C 0.63210 0.07327 0.00428
 C1489 C 0.64058 0.09002 -0.01177
 C1490 C 0.66451 0.09691 -0.01196
 C1491 C 0.60718 0.06479 0.00225
 C1492 C 0.59359 0.05559 0.02033
 H1493 H 0.71897 0.08025 0.00744
 H1494 H 0.68442 0.06178 0.03173
 H1495 H 0.64221 0.04992 0.03232
 H1496 H 0.62865 0.09760 -0.02441
 H1497 H 0.67053 0.10964 -0.02477
 H1498 H 0.59909 0.06578 -0.01463
 H1499 H 0.69968 0.13004 -0.00179
 H1500 H 0.60009 0.05667 0.03775
 C1501 C 0.69953 0.89490 0.50004
 C1502 C 0.67739 0.88380 0.49773
 C1503 C 0.65515 0.89646 0.50188
 C1504 C 0.63328 0.88663 0.49473
 C1505 C 0.61207 0.89829 0.49847
 C1506 C 0.61231 0.91995 0.50970
 C1507 C 0.63412 0.92951 0.51728
 C1508 C 0.65532 0.91805 0.51326
 C1509 C 0.59027 0.93286 0.51410
 C1510 C 0.57027 0.93175 0.49980
 H1511 H 0.67624 0.86559 0.49248
 H1512 H 0.63262 0.86992 0.48614
 H1513 H 0.59553 0.89010 0.49290
 H1514 H 0.63478 0.94608 0.52612
 H1515 H 0.67180 0.92603 0.51926
 H1516 H 0.59059 0.94528 0.52789
 H1517 H 0.71125 0.88536 0.49778
 H1518 H 0.57053 0.92109 0.48470
 C1519 C 0.20317 0.39344 1.00126
 C1520 C 0.18167 0.38086 0.99863
 C1521 C 0.15842 0.39153 1.00382
 C1522 C 0.13784 0.38462 0.99168
 C1523 C 0.11593 0.39492 0.99592
 C1524 C 0.11405 0.41223 1.01267
 C1525 C 0.13446 0.41844 1.02536
 C1526 C 0.15634 0.40832 1.02100
 C1527 C 0.09135 0.42410 1.01758
 C1528 C 0.07245 0.42601 1.00196
 H1529 H 0.18150 0.36345 0.99152
 H1530 H 0.13880 0.37144 0.97864
 H1531 H 0.10055 0.38907 0.98621
 H1532 H 0.13356 0.43141 1.03861
 H1533 H 0.17154 0.41351 1.03133
 H1534 H 0.09031 0.43346 1.03347
 H1535 H 0.20225 0.41163 1.00630
 H1536 H 0.07382 0.41822 0.98535
 C1537 C -0.00580 0.29819 0.41464
 C1538 C -0.00437 0.32056 0.40442
 C1539 C -0.00897 0.34247 0.41636
 C1540 C -0.00837 0.34376 0.44029
 C1541 C -0.01260 0.36500 0.45081
 C1542 C -0.01709 0.38537 0.43757
 C1543 C -0.01807 0.38396 0.41373
 C1544 C -0.01389 0.36272 0.40320
 C1545 C -0.02037 0.40835 0.44799
 C1546 C -0.01025 0.41409 0.46900
 H1547 H -0.00117 0.32185 0.38620
 H1548 H -0.00430 0.32865 0.45102
 H1549 H -0.01240 0.36529 0.46927
 H1550 H -0.02161 0.39944 0.40322
 H1551 H -0.01448 0.36211 0.38472
 H1552 H -0.02929 0.42181 0.43795
 H1553 H -0.01065 0.29582 0.43236
 H1554 H 0.00002 0.40138 0.47864
 C1555 C 0.49778 -0.20749 -0.08173
 C1556 C 0.49055 -0.18644 -0.09218
 C1557 C 0.49009 -0.16329 -0.08134
 C1558 C 0.49483 -0.16016 -0.05798
 C1559 C 0.49474 -0.13765 -0.04889
 C1560 C 0.49001 -0.11792 -0.06302
 C1561 C 0.48453 -0.12118 -0.08611
 C1562 C 0.48466 -0.14364 -0.09520
 C1563 C 0.49046 -0.09382 -0.05422
 C1564 C 0.50432 -0.08737 -0.03547
 H1565 H 0.48552 -0.18692 -0.11011
 H1566 H 0.49851 -0.17486 -0.04659
 H1567 H 0.49809 -0.13585 -0.03078
 H1568 H 0.48055 -0.10628 -0.09724
 H1569 H 0.48072 -0.14561 -0.11322
 H1570 H 0.48051 -0.08052 -0.06347
 H1571 H 0.50396 -0.20820 -0.06419
 H1572 H 0.51545 -0.10014 -0.02687
 C1573 C -0.00548 -0.21192 1.08047
 C1574 C -0.00576 -0.18965 1.09014
 C1575 C -0.00803 -0.16699 1.07758
 C1576 C -0.00889 -0.14651 1.09049
 C1577 C -0.00958 -0.12441 1.07982
 C1578 C -0.00925 -0.12229 1.05590
 C1579 C -0.00939 -0.14273 1.04287
 C1580 C -0.00863 -0.16497 1.05358
 C1581 C -0.00848 -0.09897 1.04433
 C1582 C 0.00283 -0.07956 1.05426
 H1583 H -0.00370 -0.18881 1.10855
 H1584 H -0.00876 -0.14757 1.10899
 H1585 H -0.01039 -0.10905 1.09037
 H1586 H -0.00940 -0.14146 1.02438
 H1587 H -0.00810 -0.18027 1.04298
 H1588 H -0.01540 -0.09746 1.02703
 H1589 H -0.00721 -0.21418 1.06224
 H1590 H 0.01175 -0.08153 1.07064
 C1591 C 0.51894 0.29181 0.56715
 C1592 C 0.53242 0.31107 0.57499
 C1593 C 0.53283 0.33495 0.56467
 C1594 C 0.51714 0.34184 0.54709
 C1595 C 0.51564 0.36555 0.54060
 C1596 C 0.52961 0.38277 0.55175
 C1597 C 0.54625 0.37568 0.56827
 C1598 C 0.54778 0.35202 0.57473
 C1599 C 0.52728 0.40816 0.54673
 C1600 C 0.50687 0.41768 0.53709
 H1601 H 0.54112 0.30936 0.59152
 H1602 H 0.50538 0.32930 0.53883
 H1603 H 0.50335 0.37022 0.52703
 H1604 H 0.55750 0.38857 0.57680
 H1605 H 0.56010 0.34716 0.58827
 H1606 H 0.54199 0.41986 0.55125
 H1607 H 0.50970 0.29259 0.55089
 H1608 H 0.49175 0.40652 0.53276
 C1609 C 0.48732 1.20954 0.58661
 C1610 C 0.48498 1.20009 0.56486
 C1611 C 0.48263 1.17443 0.56143
 C1612 C 0.49244 1.16505 0.54182
 C1613 C 0.49254 1.14076 0.53885
 C1614 C 0.48270 1.12531 0.55548
 C1615 C 0.47166 1.13471 0.57447
 C1616 C 0.47168 1.15906 0.57751
 C1617 C 0.48308 1.09949 0.55293
 C1618 C 0.50074 1.08867 0.54072
 H1619 H 0.48808 1.21110 0.54988
 H1620 H 0.50061 1.17654 0.52900
 H1621 H 0.50020 1.13421 0.52344
 H1622 H 0.46341 1.12316 0.58718
 H1623 H 0.46312 1.16573 0.59241
 H1624 H 0.46905 1.08881 0.56069
 H1625 H 0.48504 1.19795 0.60135
 H1626 H 0.51550 1.09911 0.53404
 C1627 C -0.00165 0.70066 1.09199
 C1628 C 0.00486 0.68087 1.10491
 C1629 C 0.00045 0.65689 1.09643
 C1630 C 0.01782 0.63983 1.09957
 C1631 C 0.01421 0.61724 1.09098
 C1632 C -0.00713 0.61124 1.07964
 C1633 C -0.02492 0.62799 1.07741
 C1634 C -0.02106 0.65075 1.08548
 C1635 C -0.01108 0.58772 1.06993
 C1636 C 0.00675 0.57664 1.05823
 H1637 H 0.01516 0.68270 1.12049
 H1638 H 0.03439 0.64415 1.10824
 H1639 H 0.02800 0.60442 1.09332
 H1640 H -0.04157 0.62361 1.06893
 H1641 H -0.03495 0.66349 1.08334
 H1642 H -0.02890 0.58014 1.06987
 H1643 H -0.00861 0.69798 1.07488
 H1644 H 0.02378 0.58558 1.05597
 C1645 C 0.51117 0.70783 -0.08980
 C1646 C 0.50998 0.68716 -0.10231
 C1647 C 0.51556 0.66423 -0.09170
 C1648 C 0.50036 0.64486 -0.09568
 C1649 C 0.50463 0.62319 -0.08497
 C1650 C 0.52458 0.62044 -0.07069
 C1651 C 0.54046 0.63947 -0.06757
 C1652 C 0.53579 0.66140 -0.07776
 C1653 C 0.52825 0.59800 -0.05838
 C1654 C 0.51014 0.58817 -0.04512
 H1655 H 0.50219 0.68684 -0.11924
 H1656 H 0.48480 0.64670 -0.10655
 H1657 H 0.49233 0.60856 -0.08774
 H1658 H 0.55598 0.63755 -0.05667
 H1659 H 0.54797 0.67608 -0.07484
 H1660 H 0.54555 0.59009 -0.05848
 H1661 H 0.51601 0.70637 -0.07186
 H1662 H 0.49402 0.59789 -0.04300
 C1663 C -0.00444 1.21024 0.40677
 C1664 C -0.00286 1.20313 0.42958
 C1665 C -0.00515 1.17808 0.43572
 C1666 C 0.01267 1.16734 0.44878
 C1667 C 0.01115 1.14323 0.45371
 C1668 C -0.00858 1.12984 0.44616
 C1669 C -0.02675 1.14077 0.43374
 C1670 C -0.02486 1.16472 0.42819
 C1671 C -0.01112 1.10487 0.45260
 C1672 C 0.00796 1.08983 0.45209
 H1673 H 0.00242 1.21538 0.44270
 H1674 H 0.02792 1.17751 0.45475
 H1675 H 0.02507 1.13514 0.46384
 H1676 H -0.04223 1.13071 0.42813
 H1677 H -0.03887 1.17291 0.41824
 H1678 H -0.02827 1.09834 0.45844
 H1679 H -0.00615 1.19679 0.39395
 H1680 H 0.02428 1.09541 0.44378
 C1681 C 0.76124 0.67790 0.95518
 C1682 C 0.76776 0.66947 0.93403
 C1683 C 0.76458 0.68230 0.91208
 C1684 C 0.77919 0.67656 0.89398
 C1685 C 0.77526 0.68604 0.87220
 C1686 C 0.75631 0.70115 0.86782
 C1687 C 0.74185 0.70741 0.88604
 C1688 C 0.74602 0.69808 0.90808
 C1689 C 0.75230 0.70892 0.84385
 C1690 C 0.73219 0.72000 0.83489
 H1691 H 0.77505 0.65201 0.93337
 H1692 H 0.79348 0.66433 0.89661
 H1693 H 0.78673 0.68093 0.85852
 H1694 H 0.72718 0.71912 0.88336
 H1695 H 0.73413 0.70245 0.92165
 H1696 H 0.76592 0.70424 0.83195
 H1697 H 0.75421 0.69540 0.95635
 H1698 H 0.71851 0.72637 0.84582
 C1699 C 0.25817 0.18081 0.44937
 C1700 C 0.23870 0.18592 0.43515
 C1701 C 0.24058 0.19250 0.41043
 C1702 C 0.22069 0.20173 0.39903
 C1703 C 0.22083 0.20602 0.37537
 C1704 C 0.24094 0.20109 0.36240
 C1705 C 0.26085 0.19185 0.37379
 C1706 C 0.26075 0.18766 0.39750
 C1707 C 0.24133 0.20431 0.33703
 C1708 C 0.22644 0.21968 0.32500
 H1709 H 0.22104 0.18414 0.44212
 H1710 H 0.20474 0.20521 0.40841
 H1711 H 0.20483 0.21246 0.36729
 H1712 H 0.27648 0.18760 0.36426
 H1713 H 0.27619 0.17986 0.40541
 H1714 H 0.25432 0.19479 0.32760
 H1715 H 0.27577 0.18587 0.44360
 H1716 H 0.21472 0.23067 0.33438
 C1717 C 0.73641 0.33124 0.44961
 C1718 C 0.75539 0.31891 0.44106
 C1719 C 0.75600 0.31120 0.41712
 C1720 C 0.77136 0.29334 0.41102
 C1721 C 0.77312 0.28674 0.38819
 C1722 C 0.75963 0.29816 0.37108
 C1723 C 0.74454 0.31618 0.37724
 C1724 C 0.74275 0.32268 0.39992
 C1725 C 0.76075 0.29251 0.34660
 C1726 C 0.77085 0.27246 0.33775
 H1727 H 0.77088 0.31617 0.45185
 H1728 H 0.78209 0.28457 0.42394
 H1729 H 0.78530 0.27308 0.38410
 H1730 H 0.73416 0.32547 0.36439
 H1731 H 0.73148 0.33721 0.40370
 H1732 H 0.75184 0.30447 0.33486
 H1733 H 0.72001 0.33204 0.43987
 H1734 H 0.77953 0.25974 0.34878
 C1735 C 0.24228 0.83758 0.95834
 C1736 C 0.26014 0.82608 0.94692
 C1737 C 0.25675 0.81642 0.92373
 C1738 C 0.27308 0.80039 0.91556
 C1739 C 0.27135 0.79235 0.89312
 C1740 C 0.25323 0.80036 0.87836
 C1741 C 0.23693 0.81633 0.88658
 C1742 C 0.23863 0.82431 0.90892
 C1743 C 0.25130 0.79379 0.85403
 C1744 C 0.26279 0.77496 0.84431
 H1745 H 0.27758 0.82517 0.95482
 H1746 H 0.28744 0.79435 0.92648
 H1747 H 0.28461 0.78048 0.88734
 H1748 H 0.22299 0.82303 0.87551
 H1749 H 0.22618 0.83729 0.91413
 H1750 H 0.23977 0.80430 0.84318
 H1751 H 0.22422 0.83631 0.95195
 H1752 H 0.27337 0.76322 0.85477
 C1753 C 0.25764 0.84309 0.04152
 C1754 C 0.25640 0.81907 0.04765
 C1755 C 0.25807 0.81038 0.07170
 C1756 C 0.24717 0.78870 0.07782
 C1757 C 0.24784 0.78026 0.10048
 C1758 C 0.25971 0.79330 0.11750
 C1759 C 0.27115 0.81465 0.11117
 C1760 C 0.27044 0.82309 0.08859
 C1761 C 0.26037 0.78591 0.14200
 C1762 C 0.24962 0.76547 0.15138
 H1763 H 0.25231 0.80605 0.03492
 H1764 H 0.23773 0.77844 0.06509
 H1765 H 0.23887 0.76370 0.10441
 H1766 H 0.28065 0.82499 0.12381
 H1767 H 0.27981 0.83943 0.08446
 H1768 H 0.26953 0.79781 0.15354
 H1769 H 0.25997 0.85571 0.05498
 H1770 H 0.24055 0.75284 0.14064
 C1771 C 0.74500 0.33197 0.53259
 C1772 C 0.74880 0.34299 0.55347
 C1773 C 0.75236 0.32967 0.57520
 C1774 C 0.76584 0.34028 0.59256
 C1775 C 0.76923 0.32867 0.61351
 C1776 C 0.75897 0.30627 0.61780
 C1777 C 0.74543 0.29550 0.60041
 C1778 C 0.74216 0.30712 0.57929
 C1779 C 0.76195 0.29583 0.64105
 C1780 C 0.75133 0.27481 0.64926
 H1781 H 0.75109 0.36188 0.55413
 H1782 H 0.77380 0.35765 0.58990
 H1783 H 0.77964 0.33748 0.62661
 H1784 H 0.73703 0.27839 0.60302
 H1785 H 0.73111 0.29867 0.56650
 H1786 H 0.77209 0.30642 0.65305
 H1787 H 0.74492 0.31290 0.53253
 H1788 H 0.74194 0.26294 0.63794
 C1789 C 0.25815 0.17818 0.53560
 C1790 C 0.25824 0.16566 0.55654
 C1791 C 0.25979 0.17630 0.57964
 C1792 C 0.25412 0.16177 0.59857
 C1793 C 0.25559 0.17028 0.62075
 C1794 C 0.26302 0.19358 0.62488
 C1795 C 0.26888 0.20832 0.60600
 C1796 C 0.26728 0.19976 0.58358
 C1797 C 0.26362 0.20134 0.64908
 C1798 C 0.27350 0.22250 0.65725
 H1799 H 0.25632 0.14675 0.55653
 H1800 H 0.24840 0.14364 0.59623
 H1801 H 0.25090 0.15846 0.63483
 H1802 H 0.27451 0.22643 0.60837
 H1803 H 0.27220 0.21148 0.56955
 H1804 H 0.25586 0.18911 0.66150
 H1805 H 0.25904 0.19722 0.53581
 H1806 H 0.28198 0.23507 0.64567
 C1807 C 0.75268 0.66616 0.03926
 C1808 C 0.75222 0.65242 0.05933
 C1809 C 0.75351 0.66293 0.08235
 C1810 C 0.74407 0.65020 0.10102
 C1811 C 0.74506 0.65953 0.12293
 C1812 C 0.75571 0.68173 0.12681
 C1813 C 0.76558 0.69436 0.10815
 C1814 C 0.76455 0.68503 0.08620
 C1815 C 0.75618 0.69062 0.15052
 C1816 C 0.76555 0.71252 0.15729
 H1817 H 0.75019 0.63350 0.05851
 H1818 H 0.73571 0.63305 0.09862
 H1819 H 0.73743 0.64928 0.13695
 H1820 H 0.77428 0.71132 0.11024
 H1821 H 0.77287 0.69502 0.07243
 H1822 H 0.74850 0.67905 0.16355
 H1823 H 0.75282 0.68512 0.04077
 H1824 H 0.77335 0.72476 0.14501
 C1825 C 0.14588 0.53792 0.25449
 C1826 C 0.13620 0.55979 0.25873
 C1827 C 0.14948 0.58247 0.25678
 C1828 C 0.14270 0.60098 0.27054
 C1829 C 0.15473 0.62270 0.26944
 C1830 C 0.17339 0.62662 0.25410
 C1831 C 0.17994 0.60829 0.23985
 C1832 C 0.16813 0.58631 0.24126
 C1833 C 0.18654 0.64940 0.25477
 C1834 C 0.19848 0.65992 0.23626
 H1835 H 0.11821 0.56013 0.26505
 H1836 H 0.12829 0.59850 0.28250
 H1837 H 0.14945 0.63652 0.28067
 H1838 H 0.19452 0.61071 0.22810
 H1839 H 0.17345 0.57249 0.23009
 H1840 H 0.18601 0.65884 0.27065
 H1841 H 0.16418 0.53684 0.24931
 H1842 H 0.19740 0.65214 0.21955
 C1843 C 0.65783 0.03813 0.74684
 C1844 C 0.64986 0.06113 0.74388
 C1845 C 0.66570 0.08227 0.74397
 C1846 C 0.65894 0.10238 0.73142
 C1847 C 0.67268 0.12317 0.73218
 C1848 C 0.69331 0.12436 0.74587
 C1849 C 0.70001 0.10429 0.75854
 C1850 C 0.68647 0.08335 0.75747
 C1851 C 0.70702 0.14670 0.74859
 C1852 C 0.70843 0.16421 0.73152
 H1853 H 0.63112 0.06380 0.74081
 H1854 H 0.64283 0.10206 0.72115
 H1855 H 0.66663 0.13850 0.72271
 H1856 H 0.71563 0.10489 0.76948
 H1857 H 0.69183 0.06836 0.76785
 H1858 H 0.71652 0.14932 0.76456
 H1859 H 0.67658 0.03519 0.74951
 H1860 H 0.70108 0.16087 0.71470
 C1861 C 0.84856 0.03594 0.25263
 C1862 C 0.85621 0.05916 0.25638
 C1863 C 0.84128 0.08020 0.25378
 C1864 C 0.81993 0.08020 0.24108
 C1865 C 0.80736 0.10103 0.23793
 C1866 C 0.81570 0.12215 0.24754
 C1867 C 0.83707 0.12210 0.26015
 C1868 C 0.84968 0.10138 0.26317
 C1869 C 0.80236 0.14407 0.24339
 C1870 C 0.80368 0.16309 0.25813
 H1871 H 0.87459 0.06212 0.26141
 H1872 H 0.81318 0.06442 0.23303
 H1873 H 0.79110 0.10068 0.22789
 H1874 H 0.84453 0.13813 0.26719
 H1875 H 0.86626 0.10196 0.27271
 H1876 H 0.79046 0.14489 0.22874
 H1877 H 0.83023 0.03202 0.24819
 H1878 H 0.81379 0.16165 0.27390
 C1879 C 0.35180 0.54433 0.75317
 C1880 C 0.35923 0.56769 0.75635
 C1881 C 0.34335 0.58806 0.75522
 C1882 C 0.35080 0.60897 0.76574
 C1883 C 0.33714 0.62914 0.76392
 C1884 C 0.31577 0.62886 0.75131
 C1885 C 0.30838 0.60800 0.74063
 C1886 C 0.32194 0.58772 0.74265
 C1887 C 0.30159 0.65030 0.74797
 C1888 C 0.30175 0.66858 0.76355
 H1889 H 0.37786 0.57124 0.75995
 H1890 H 0.36741 0.60978 0.77521
 H1891 H 0.34379 0.64508 0.77180
 H1892 H 0.29214 0.60746 0.73056
 H1893 H 0.31598 0.57215 0.73374
 H1894 H 0.29010 0.65140 0.73304
 H1895 H 0.33324 0.54002 0.75019
 H1896 H 0.31136 0.66677 0.77958
 C1897 C 0.37115 0.45809 0.74842
 C1898 C 0.34835 0.44846 0.74501
 C1899 C 0.34331 0.42276 0.74555
 C1900 C 0.32539 0.41343 0.73131
 C1901 C 0.31918 0.38944 0.73255
 C1902 C 0.33042 0.37444 0.74848
 C1903 C 0.34831 0.38379 0.76275
 C1904 C 0.35492 0.40767 0.76113
 C1905 C 0.32225 0.34970 0.75206
 C1906 C 0.31301 0.33575 0.73456
 H1907 H 0.33385 0.45982 0.74042
 H1908 H 0.31603 0.42479 0.71936
 H1909 H 0.30491 0.38288 0.72172
 H1910 H 0.35697 0.37264 0.77539
 H1911 H 0.36843 0.41448 0.77268
 H1912 H 0.32351 0.34222 0.76920
 H1913 H 0.38590 0.44623 0.74966
 H1914 H 0.31404 0.34199 0.71698
 C1915 C 0.86805 0.95139 0.24738
 C1916 C 0.84555 0.94191 0.24196
 C1917 C 0.84061 0.91618 0.24125
 C1918 C 0.82295 0.90738 0.22637
 C1919 C 0.81680 0.88332 0.22656
 C1920 C 0.82791 0.86770 0.24201
 C1921 C 0.84564 0.87651 0.25677
 C1922 C 0.85208 0.90043 0.25630
 C1923 C 0.81968 0.84290 0.24504
 C1924 C 0.80852 0.82954 0.22803
 H1925 H 0.83124 0.95337 0.23702
 H1926 H 0.81368 0.91921 0.21480
 H1927 H 0.80264 0.87722 0.21536
 H1928 H 0.85420 0.86489 0.26907
 H1929 H 0.86532 0.90670 0.26840
 H1930 H 0.82228 0.83481 0.26179
 H1931 H 0.88260 0.93934 0.24910
 H1932 H 0.80793 0.83607 0.21053
 C1933 C 0.64543 0.94721 0.74436
 C1934 C 0.63272 0.92614 0.74771
 C1935 C 0.64355 0.90305 0.74370
 C1936 C 0.63264 0.88232 0.75245
 C1937 C 0.64264 0.86033 0.74899
 C1938 C 0.66363 0.85864 0.73642
 C1939 C 0.67421 0.87931 0.72726
 C1940 C 0.66444 0.90129 0.73101
 C1941 C 0.67480 0.83577 0.73220
 C1942 C 0.67330 0.81642 0.74731
 H1943 H 0.61471 0.92647 0.75401
 H1944 H 0.61642 0.88317 0.76211
 H1945 H 0.63370 0.84471 0.75583
 H1946 H 0.69029 0.87848 0.71738
 H1947 H 0.67317 0.91685 0.72378
 H1948 H 0.68654 0.83491 0.71773
 H1949 H 0.63706 0.95963 0.74682
 H1950 H 0.66344 0.81769 0.76297
 C1951 C 0.13941 0.44623 0.24905
 C1952 C 0.12701 0.42486 0.25131
 C1953 C 0.13756 0.40230 0.24501
 C1954 C 0.12662 0.38101 0.25221
 C1955 C 0.13623 0.35942 0.24657
 C1956 C 0.15687 0.35875 0.23336
 C1957 C 0.16745 0.38002 0.22567
 C1958 C 0.15806 0.40160 0.23160
 C1959 C 0.16773 0.33626 0.22731
 C1960 C 0.16702 0.31638 0.24173
 H1961 H 0.10923 0.42454 0.25820
 H1962 H 0.11067 0.38107 0.26235
 H1963 H 0.12730 0.34332 0.25229
 H1964 H 0.18327 0.37994 0.21534
 H1965 H 0.16676 0.41769 0.22551
 H1966 H 0.17874 0.33612 0.21226
 H1967 H 0.13123 0.45832 0.25265
 H1968 H 0.15813 0.31711 0.25799
 C1969 C 0.04387 0.25589 0.82897
 C1970 C 0.06677 0.26023 0.83729
 C1971 C 0.08831 0.25945 0.82342
 C1972 C 0.11012 0.25740 0.83487
 C1973 C 0.13107 0.25645 0.82267
 C1974 C 0.13058 0.25750 0.79867
 C1975 C 0.10889 0.26040 0.78716
 C1976 C 0.08782 0.26129 0.79941
 C1977 C 0.15256 0.25614 0.78552
 C1978 C 0.17174 0.24337 0.79373
 H1979 H 0.06903 0.26345 0.85539
 H1980 H 0.11097 0.25643 0.85337
 H1981 H 0.14763 0.25522 0.83211
 H1982 H 0.10823 0.26172 0.76868
 H1983 H 0.07140 0.26370 0.79004
 H1984 H 0.15347 0.26492 0.76893
 H1985 H 0.04086 0.25091 0.81142
 H1986 H 0.17011 0.23292 0.80935
 C1987 C 0.54609 0.75269 0.33950
 C1988 C 0.56890 0.75943 0.34653
 C1989 C 0.59000 0.75746 0.33217
 C1990 C 0.61223 0.75577 0.34294
 C1991 C 0.63268 0.75367 0.33007
 C1992 C 0.63124 0.75335 0.30610
 C1993 C 0.60911 0.75582 0.29527
 C1994 C 0.58859 0.75776 0.30817
 C1995 C 0.65261 0.75130 0.29209
 C1996 C 0.67257 0.73950 0.29998
 H1997 H 0.57151 0.76510 0.36397
 H1998 H 0.61377 0.75593 0.36141
 H1999 H 0.64958 0.75272 0.33894
 H2000 H 0.60768 0.75608 0.27679
 H2001 H 0.57181 0.75985 0.29930
 H2002 H 0.65236 0.75878 0.27491
 H2003 H 0.54305 0.74536 0.32278
 H2004 H 0.67225 0.73028 0.31635
 C2005 C 0.52986 0.23435 0.17033
 C2006 C 0.55286 0.23251 0.16211
 C2007 C 0.57463 0.23152 0.17628
 C2008 C 0.59638 0.23313 0.16495
 C2009 C 0.61762 0.23393 0.17723
 C2010 C 0.61757 0.23325 0.20121
 C2011 C 0.59596 0.23039 0.21265
 C2012 C 0.57455 0.22964 0.20030
 C2013 C 0.63994 0.23558 0.21428
 C2014 C 0.65860 0.24970 0.20601
 H2015 H 0.55516 0.23337 0.14375
 H2016 H 0.59699 0.23418 0.14646
 H2017 H 0.63407 0.23512 0.16788
 H2018 H 0.59562 0.22938 0.23114
 H2019 H 0.55821 0.22783 0.20969
 H2020 H 0.64155 0.22659 0.23071
 H2021 H 0.52651 0.23489 0.18844
 H2022 H 0.65608 0.26026 0.19059
 C2023 C 0.03268 0.73502 0.66082
 C2024 C 0.05599 0.73408 0.65320
 C2025 C 0.07717 0.73335 0.66825
 C2026 C 0.09929 0.73825 0.65834
 C2027 C 0.11981 0.73921 0.67177
 C2028 C 0.11862 0.73537 0.69552
 C2029 C 0.09671 0.72928 0.70537
 C2030 C 0.07607 0.72834 0.69188
 C2031 C 0.14006 0.73749 0.71009
 C2032 C 0.15858 0.75308 0.70434
 H2033 H 0.05895 0.73588 0.63498
 H2034 H 0.10071 0.74173 0.64013
 H2035 H 0.13657 0.74290 0.66346
 H2036 H 0.09551 0.72576 0.72358
 H2037 H 0.05948 0.72376 0.70008
 H2038 H 0.14102 0.72708 0.72578
 H2039 H 0.02891 0.73504 0.67887
 H2040 H 0.15676 0.76479 0.68962
 C2041 C 0.94547 0.74078 0.64248
 C2042 C 0.93612 0.73395 0.66364
 C2043 C 0.91041 0.73281 0.66801
 C2044 C 0.90269 0.73656 0.69026
 C2045 C 0.87856 0.73618 0.69511
 C2046 C 0.86164 0.73187 0.67777
 C2047 C 0.86933 0.72709 0.65571
 C2048 C 0.89356 0.72769 0.65078
 C2049 C 0.83606 0.73175 0.68272
 C2050 C 0.82706 0.74663 0.69893
 H2051 H 0.94775 0.73102 0.67816
 H2052 H 0.91536 0.74008 0.70388
 H2053 H 0.87320 0.73901 0.71251
 H2054 H 0.85658 0.72324 0.64224
 H2055 H 0.89900 0.72387 0.63362
 H2056 H 0.82424 0.71990 0.67352
 H2057 H 0.93341 0.74535 0.62866
 H2058 H 0.83867 0.75978 0.70661
 C2059 C 0.44348 0.24423 0.15641
 C2060 C 0.42419 0.25118 0.14293
 C2061 C 0.40071 0.25505 0.15293
 C2062 C 0.38023 0.25110 0.13963
 C2063 C 0.35779 0.25349 0.14904
 C2064 C 0.35550 0.26002 0.17195
 C2065 C 0.37597 0.26535 0.18479
 C2066 C 0.39839 0.26287 0.17542
 C2067 C 0.33219 0.26078 0.18313
 C2068 C 0.31325 0.24609 0.17673
 H2069 H 0.42566 0.25304 0.12461
 H2070 H 0.38161 0.24564 0.12208
 H2071 H 0.34234 0.25017 0.13836
 H2072 H 0.37463 0.27087 0.20232
 H2073 H 0.41383 0.26712 0.18581
 H2074 H 0.33072 0.27125 0.19829
 H2075 H 0.44060 0.24063 0.17442
 H2076 H 0.31506 0.23436 0.16256
 C2077 C 0.45882 0.74366 0.35522
 C2078 C 0.45111 0.73534 0.33405
 C2079 C 0.42596 0.73446 0.32664
 C2080 C 0.40882 0.74900 0.33592
 C2081 C 0.38564 0.74894 0.32709
 C2082 C 0.37926 0.73443 0.30872
 C2083 C 0.39633 0.71963 0.29986
 C2084 C 0.41942 0.71975 0.30861
 C2085 C 0.35545 0.73430 0.29781
 C2086 C 0.33787 0.75070 0.30160
 H2087 H 0.46384 0.72877 0.32223
 H2088 H 0.41333 0.76099 0.34949
 H2089 H 0.37303 0.76042 0.33463
 H2090 H 0.39192 0.70822 0.28575
 H2091 H 0.43232 0.70848 0.30108
 H2092 H 0.35200 0.72100 0.28512
 H2093 H 0.44578 0.74742 0.36798
 H2094 H 0.34033 0.76425 0.31414
 C2095 C 0.95850 0.25199 0.84122
 C2096 C 0.93812 0.25464 0.85418
 C2097 C 0.91447 0.25258 0.84335
 C2098 C 0.89654 0.26787 0.84944
 C2099 C 0.87476 0.26753 0.83772
 C2100 C 0.87062 0.25166 0.81988
 C2101 C 0.88817 0.23553 0.81479
 C2102 C 0.90985 0.23596 0.82638
 C2103 C 0.84870 0.25122 0.80584
 C2104 C 0.83141 0.26842 0.80571
 H2105 H 0.93912 0.26059 0.87157
 H2106 H 0.89967 0.28057 0.86274
 H2107 H 0.86150 0.27982 0.84263
 H2108 H 0.88530 0.22284 0.80142
 H2109 H 0.92310 0.22340 0.82189
 H2110 H 0.84653 0.23678 0.79412
 H2111 H 0.95615 0.24904 0.82308
 H2112 H 0.83239 0.28295 0.81732
 C2113 C 0.58484 0.99503 0.71823
 C2114 C 0.57797 1.01178 0.70167
 C2115 C 0.56308 1.00641 0.68134
 C2116 C 0.55283 1.02513 0.66901
 C2117 C 0.54144 1.02136 0.64802
 C2118 C 0.54022 0.99870 0.63882
 C2119 C 0.54995 0.97987 0.65143
 C2120 C 0.56120 0.98362 0.67251
 C2121 C 0.53099 0.99438 0.61544
 C2122 C 0.51586 1.00943 0.60332
 H2123 H 0.58413 1.02986 0.70325
 H2124 H 0.55431 1.04291 0.67531
 H2125 H 0.53467 1.03641 0.63864
 H2126 H 0.54945 0.96228 0.64462
 H2127 H 0.56938 0.96886 0.68120
 H2128 H 0.53651 0.97846 0.60732
 H2129 H 0.57561 0.97812 0.71902
 H2130 H 0.50817 1.02423 0.61163
 C2131 C 0.07653 0.48958 1.22730
 C2132 C 0.06860 0.50552 1.21054
 C2133 C 0.05625 0.49849 1.18926
 C2134 C 0.04472 0.51585 1.17621
 C2135 C 0.03570 0.51092 1.15449
 C2136 C 0.03808 0.48842 1.14531
 C2137 C 0.04927 0.47092 1.15851
 C2138 C 0.05821 0.47583 1.18033
 C2139 C 0.03073 0.48331 1.12154
 C2140 C 0.01352 0.49612 1.10975
 H2141 H 0.07241 0.52414 1.21245
 H2142 H 0.04336 0.53355 1.18254
 H2143 H 0.02788 0.52512 1.14464
 H2144 H 0.05156 0.45354 1.15171
 H2145 H 0.06758 0.46219 1.18961
 H2146 H 0.03919 0.46901 1.11307
 H2147 H 0.06925 0.47178 1.22765
 H2148 H 0.00340 0.50899 1.11859
 C2149 C -0.08025 0.00114 1.21737
 C2150 C -0.07548 0.01978 1.20196
 C2151 C -0.06144 0.01836 1.18082
 C2152 C -0.05356 -0.00297 1.17206
 C2153 C -0.04299 -0.00332 1.15049
 C2154 C -0.04036 0.01757 1.13736
 C2155 C -0.04760 0.03881 1.14644
 C2156 C -0.05786 0.03922 1.16794
 C2157 C -0.03220 0.01792 1.11349
 C2158 C -0.01724 0.00144 1.10428
 H2159 H -0.08299 0.03673 1.20511
 H2160 H -0.05629 -0.01948 1.18126
 H2161 H -0.03795 -0.02005 1.14374
 H2162 H -0.04581 0.05513 1.13664
 H2163 H -0.06378 0.05590 1.17417
 H2164 H -0.03760 0.03267 1.10274
 H2165 H -0.07015 -0.01477 1.21667
 H2166 H -0.00953 -0.01216 1.11504
 C2167 C 0.41388 0.50861 0.70754
 C2168 C 0.42912 0.49076 0.70159
 C2169 C 0.43710 0.48934 0.67764
 C2170 C 0.46059 0.48382 0.67264
 C2171 C 0.46851 0.48466 0.64997
 C2172 C 0.45282 0.49069 0.63194
 C2173 C 0.42908 0.49496 0.63704
 C2174 C 0.42129 0.49423 0.65953
 C2175 C 0.46026 0.49416 0.60785
 C2176 C 0.48257 0.48922 0.59919
 H2177 H 0.43560 0.47823 0.71419
 H2178 H 0.47301 0.47976 0.68633
 H2179 H 0.48695 0.48127 0.64684
 H2180 H 0.41652 0.49939 0.62356
 H2181 H 0.40286 0.49781 0.66277
 H2182 H 0.44727 0.50166 0.59618
 H2183 H 0.41030 0.52210 0.69465
 H2184 H 0.49575 0.48061 0.60976
 C2185 C 0.42181 0.50240 -0.21299
 C2186 C 0.42693 0.51807 -0.19533
 C2187 C 0.44106 0.51215 -0.17461
 C2188 C 0.45154 0.53055 -0.16210
 C2189 C 0.46231 0.52609 -0.14086
 C2190 C 0.46253 0.50309 -0.13155
 C2191 C 0.45244 0.48461 -0.14426
 C2192 C 0.44195 0.48903 -0.16568
 C2193 C 0.47107 0.49818 -0.10794
 C2194 C 0.48787 0.51226 -0.09655
 H2195 H 0.42045 0.53583 -0.19660
 H2196 H 0.45079 0.54855 -0.16849
 H2197 H 0.46939 0.54084 -0.13134
 H2198 H 0.45217 0.46677 -0.13734
 H2199 H 0.43354 0.47453 -0.17462
 H2200 H 0.46384 0.48268 -0.09916
 H2201 H 0.43154 0.48624 -0.21376
 H2202 H 0.49727 0.52630 -0.10569
 C2203 C -0.08558 0.99343 0.29352
 C2204 C -0.08225 1.00895 0.31162
 C2205 C -0.06699 1.00402 0.33181
 C2206 C -0.05681 1.02301 0.34368
 C2207 C -0.04432 1.01925 0.36416
 C2208 C -0.04212 0.99635 0.37337
 C2209 C -0.05205 0.97731 0.36135
 C2210 C -0.06420 0.98105 0.34064
 C2211 C -0.03193 0.99211 0.39648
 C2212 C -0.01502 1.00703 0.40669
 H2213 H -0.09022 1.02608 0.31069
 H2214 H -0.05897 1.04090 0.33734
 H2215 H -0.03744 1.03437 0.37325
 H2216 H -0.05086 0.95954 0.36828
 H2217 H -0.07230 0.96609 0.33217
 H2218 H -0.03842 0.97679 0.40604
 H2219 H -0.07471 0.97800 0.29292
 H2220 H -0.00637 1.02092 0.39670
 C2221 C 0.09345 0.48606 0.30400
 C2222 C 0.09869 0.49668 0.32488
 C2223 C 0.08554 0.49212 0.34634
 C2224 C 0.09728 0.49695 0.36699
 C2225 C 0.08523 0.49539 0.38762
 C2226 C 0.06098 0.48926 0.38822
 C2227 C 0.04918 0.48379 0.36758
 C2228 C 0.06141 0.48516 0.34678
 C2229 C 0.04904 0.49025 0.41065
 C2230 C 0.02476 0.48677 0.41470
 H2231 H 0.11406 0.50831 0.32622
 H2232 H 0.11582 0.50241 0.36715
 H2233 H 0.09485 0.49968 0.40317
 H2234 H 0.03052 0.47900 0.36726
 H2235 H 0.05175 0.48169 0.33109
 H2236 H 0.06023 0.49534 0.42498
 H2237 H 0.08009 0.47207 0.30350
 H2238 H 0.01283 0.48061 0.40141
 C2239 C 0.60036 -0.00867 -0.20463
 C2240 C 0.60623 0.00205 -0.18391
 C2241 C 0.59418 -0.00269 -0.16187
 C2242 C 0.60683 0.00251 -0.14179
 C2243 C 0.59599 0.00050 -0.12058
 C2244 C 0.57205 -0.00651 -0.11874
 C2245 C 0.55931 -0.01228 -0.13881
 C2246 C 0.57034 -0.01043 -0.16023
 C2247 C 0.56144 -0.00624 -0.09565
 C2248 C 0.53767 -0.01109 -0.09022
 H2249 H 0.62162 0.01368 -0.18304
 H2250 H 0.62519 0.00855 -0.14252
 H2251 H 0.60632 0.00504 -0.10551
 H2252 H 0.54083 -0.01773 -0.13818
 H2253 H 0.55997 -0.01423 -0.17544
 H2254 H 0.57323 -0.00076 -0.08190
 H2255 H 0.58672 -0.02239 -0.20481
 H2256 H 0.52525 -0.01755 -0.10295
 C2257 C 0.71497 0.61312 -0.00915
 C2258 C 0.70781 0.59739 0.00819
 C2259 C 0.68539 0.58309 0.00613
 C2260 C 0.68292 0.56181 0.01855
 C2261 C 0.66205 0.54805 0.01683
 C2262 C 0.64316 0.55520 0.00260
 C2263 C 0.64541 0.57669 -0.00955
 C2264 C 0.66617 0.59054 -0.00768
 C2265 C 0.62081 0.54087 0.00239
 C2266 C 0.60320 0.54214 -0.01471
 H2267 H 0.71886 0.59489 0.02323
 H2268 H 0.69722 0.55576 0.02954
 H2269 H 0.66062 0.53175 0.02672
 H2270 H 0.63092 0.58329 -0.01993
 H2271 H 0.66670 0.60737 -0.01666
 H2272 H 0.61799 0.52880 0.01673
 H2273 H 0.70423 0.61374 -0.02458
 H2274 H 0.60627 0.55245 -0.03019
 C2275 C 0.21578 1.11989 0.49995
 C2276 C 0.19771 1.11310 0.48457
 C2277 C 0.17737 1.09702 0.49018
 C2278 C 0.16531 1.08584 0.47215
 C2279 C 0.14490 1.07200 0.47610
 C2280 C 0.13566 1.06932 0.49826
 C2281 C 0.14809 1.08000 0.51643
 C2282 C 0.16871 1.09376 0.51247
 C2283 C 0.11321 1.05578 0.50301
 C2284 C 0.09649 1.04967 0.48612
 H2285 H 0.19872 1.11892 0.46693
 H2286 H 0.17165 1.08793 0.45481
 H2287 H 0.13658 1.06352 0.46164
 H2288 H 0.14152 1.07815 0.53370
 H2289 H 0.17729 1.10239 0.52675
 H2290 H 0.10915 1.05147 0.52068
 H2291 H 0.21624 1.11169 0.51679
 H2292 H 0.09955 1.05469 0.46848
 C2293 C 0.21332 -0.10208 1.01184
 C2294 C 0.18933 -0.10324 1.00545
 C2295 C 0.17185 -0.08576 1.01210
 C2296 C 0.14846 -0.09335 1.01650
 C2297 C 0.13072 -0.07704 1.01986
 C2298 C 0.13595 -0.05276 1.01825
 C2299 C 0.15944 -0.04515 1.01420
 C2300 C 0.17736 -0.06152 1.01148
 C2301 C 0.11675 -0.03546 1.01793
 C2302 C 0.09613 -0.03855 1.03072
 H2303 H 0.18251 -0.11829 0.99620
 H2304 H 0.14380 -0.11196 1.01676
 H2305 H 0.11269 -0.08344 1.02242
 H2306 H 0.16380 -0.02652 1.01259
 H2307 H 0.19518 -0.05523 1.00765
 H2308 H 0.11853 -0.02023 1.00656
 H2309 H 0.21904 -0.08936 1.02439
 H2310 H 0.09528 -0.05203 1.04406
 C2311 C 0.70231 0.39148 0.50044
 C2312 C 0.68403 0.39859 0.48565
 C2313 C 0.66697 0.41713 0.49062
 C2314 C 0.65901 0.42147 0.51279
 C2315 C 0.64121 0.43791 0.51616
 C2316 C 0.63132 0.45031 0.49740
 C2317 C 0.63993 0.44637 0.47548
 C2318 C 0.65731 0.42982 0.47210
 C2319 C 0.61174 0.46704 0.49941
 C2320 C 0.59539 0.46684 0.51720
 H2321 H 0.68309 0.39189 0.46853
 H2322 H 0.66595 0.41171 0.52737
 H2323 H 0.63526 0.44076 0.53336
 H2324 H 0.63270 0.45569 0.46073
 H2325 H 0.66311 0.42678 0.45485
 H2326 H 0.60846 0.47845 0.48470
 H2327 H 0.70474 0.40029 0.51654
 H2328 H 0.59785 0.45558 0.53213
 C2329 C -0.21991 0.39251 0.49555
 C2330 C -0.20249 0.39901 0.47955
 C2331 C -0.18222 0.41545 0.48403
 C2332 C -0.16954 0.42482 0.46530
 C2333 C -0.14946 0.43930 0.46854
 C2334 C -0.14142 0.44454 0.49071
 C2335 C -0.15437 0.43559 0.50945
 C2336 C -0.17448 0.42108 0.50621
 C2337 C -0.11970 0.45906 0.49505
 C2338 C -0.10146 0.46261 0.47923
 H2339 H -0.20378 0.39234 0.46244
 H2340 H -0.17515 0.42084 0.44801
 H2341 H -0.14045 0.44636 0.45361
 H2342 H -0.14860 0.43940 0.52672
 H2343 H -0.18339 0.41388 0.52113
 H2344 H -0.11721 0.46586 0.51209
 H2345 H -0.21985 0.40095 0.51192
 H2346 H -0.10282 0.45495 0.46250
 C2347 C 0.29193 -0.10096 -0.00081
 C2348 C 0.30924 -0.09630 -0.01745
 C2349 C 0.33100 -0.08146 -0.01382
 C2350 C 0.34420 -0.07394 -0.03295
 C2351 C 0.36543 -0.06092 -0.03039
 C2352 C 0.37408 -0.05527 -0.00850
 C2353 C 0.36073 -0.06254 0.01061
 C2354 C 0.33954 -0.07559 0.00805
 C2355 C 0.39672 -0.04191 -0.00470
 C2356 C 0.41457 -0.03861 -0.02100
 H2357 H 0.30697 -0.10360 -0.03424
 H2358 H 0.33809 -0.07820 -0.05001
 H2359 H 0.37479 -0.05527 -0.04562
 H2360 H 0.36695 -0.05847 0.02768
 H2361 H 0.33036 -0.08144 0.02332
 H2362 H 0.40001 -0.03537 0.01233
 H2363 H 0.29331 -0.09210 0.01531
 H2364 H 0.41239 -0.04573 -0.03789
 C2365 C 0.29492 1.11988 0.50086
 C2366 C 0.31264 1.11333 0.48582
 C2367 C 0.33125 1.09603 0.49120
 C2368 C 0.34075 1.09237 0.51331
 C2369 C 0.35981 1.07710 0.51688
 C2370 C 0.36941 1.06518 0.49839
 C2371 C 0.35942 1.06856 0.47656
 C2372 C 0.34080 1.08393 0.47298
 C2373 C 0.38972 1.04911 0.50051
 C2374 C 0.40640 1.04845 0.51843
 H2375 H 0.31212 1.11972 0.46832
 H2376 H 0.33397 1.10174 0.52766
 H2377 H 0.36688 1.07470 0.53400
 H2378 H 0.36637 1.05960 0.46200
 H2379 H 0.33388 1.08646 0.45577
 H2380 H 0.39272 1.03820 0.48590
 H2381 H 0.29400 1.11135 0.51754
 H2382 H 0.40425 1.05897 0.53341
 C2383 C -0.20490 0.61254 1.00458
 C2384 C -0.18515 0.60815 0.99109
 C2385 C -0.16668 0.59065 0.99646
 C2386 C -0.15859 0.58539 1.01880
 C2387 C -0.13926 0.57038 1.02242
 C2388 C -0.12807 0.56026 1.00371
 C2389 C -0.13673 0.56519 0.98161
 C2390 C -0.15553 0.58034 0.97803
 C2391 C -0.10755 0.54438 1.00577
 C2392 C -0.09153 0.54266 1.02422
 H2393 H -0.18390 0.61640 0.97434
 H2394 H -0.16667 0.59338 1.03333
 H2395 H -0.13321 0.56673 1.03970
 H2396 H -0.12857 0.55763 0.96687
 H2397 H -0.16131 0.58414 0.96065
 H2398 H -0.10380 0.53451 0.99064
 H2399 H -0.20765 0.60211 1.02005
 H2400 H -0.09446 0.55205 1.03978
 C2401 C -0.00959 0.71983 0.58627
 C2402 C 0.00641 0.70427 0.57723
 C2403 C 0.00037 0.68733 0.55919
 C2404 C 0.01871 0.67371 0.55092
 C2405 C 0.01354 0.65418 0.53767
 C2406 C -0.01008 0.64799 0.53237
 C2407 C -0.02832 0.66272 0.53871
 C2408 C -0.02319 0.68222 0.55224
 C2409 C -0.01578 0.62462 0.52333
 C2410 C -0.00636 0.60502 0.53445
 H2411 H 0.02413 0.70348 0.58445
 H2412 H 0.03699 0.67735 0.55586
 H2413 H 0.02789 0.64310 0.53262
 H2414 H -0.04663 0.65811 0.53472
 H2415 H -0.03789 0.69213 0.55832
 H2416 H -0.02868 0.62267 0.50961
 H2417 H -0.02584 0.72361 0.57707
 H2418 H 0.00458 0.60752 0.54961
 C2419 C 0.48706 0.21390 0.09785
 C2420 C 0.50450 0.19928 0.08960
 C2421 C 0.50086 0.18169 0.07159
 C2422 C 0.52105 0.17128 0.06278
 C2423 C 0.51885 0.15188 0.04872
 C2424 C 0.49636 0.14238 0.04323
 C2425 C 0.47606 0.15373 0.05058
 C2426 C 0.47825 0.17318 0.06486
 C2427 C 0.49410 0.11970 0.03147
 C2428 C 0.50913 0.10138 0.03748
 H2429 H 0.52224 0.20056 0.09679
 H2430 H 0.53867 0.17760 0.06754
 H2431 H 0.53480 0.14383 0.04274
 H2432 H 0.45855 0.14670 0.04640
 H2433 H 0.46229 0.18060 0.07148
 H2434 H 0.47917 0.11655 0.02004
 H2435 H 0.47062 0.21590 0.08836
 H2436 H 0.52222 0.10399 0.05095
 C2437 C 0.00168 0.21965 0.89613
 C2438 C 0.01848 0.20275 0.90192
 C2439 C 0.01346 0.18144 0.91609
 C2440 C 0.03263 0.16991 0.92643
 C2441 C 0.02918 0.14850 0.93812
 C2442 C 0.00639 0.13803 0.93964
 C2443 C -0.01284 0.14949 0.92926
 C2444 C -0.00941 0.17112 0.91768
 C2445 C 0.00266 0.11471 0.95091
 C2446 C 0.01717 0.10699 0.96885
 H2447 H 0.03652 0.20516 0.89609
 H2448 H 0.05047 0.17729 0.92508
 H2449 H 0.04456 0.13982 0.94524
 H2450 H -0.03050 0.14160 0.92995
 H2451 H -0.02447 0.17920 0.90933
 H2452 H -0.01207 0.10361 0.94527
 H2453 H -0.01515 0.21930 0.90485
 H2454 H 0.03031 0.11899 0.97608
 C2455 C 0.50825 0.72588 0.41287
 C2456 C 0.52688 0.71254 0.42175
 C2457 C 0.52384 0.69405 0.43969
 C2458 C 0.50166 0.68311 0.44399
 C2459 C 0.50003 0.66323 0.45835
 C2460 C 0.52053 0.65378 0.46849
 C2461 C 0.54240 0.66557 0.46542
 C2462 C 0.54407 0.68542 0.45097
 C2463 C 0.51980 0.63077 0.48068
 C2464 C 0.50486 0.61257 0.47315
 H2465 H 0.54455 0.71519 0.41503
 H2466 H 0.48569 0.68899 0.43545
 H2467 H 0.48280 0.65485 0.46093
 H2468 H 0.55840 0.65868 0.47321
 H2469 H 0.56136 0.69354 0.44793
 H2470 H 0.53322 0.62711 0.49359
 H2471 H 0.49164 0.72599 0.42192
 H2472 H 0.49294 0.61573 0.45883
 C2473 C 0.49850 0.80109 0.39045
 C2474 C 0.48254 0.80367 0.40822
 C2475 C 0.48040 0.82658 0.41929
 C2476 C 0.47739 0.82729 0.44300
 C2477 C 0.47807 0.84885 0.45412
 C2478 C 0.48143 0.87002 0.44153
 C2479 C 0.48328 0.86926 0.41771
 C2480 C 0.48260 0.84779 0.40665
 C2481 C 0.48447 0.89308 0.45246
 C2482 C 0.47746 0.89776 0.47462
 H2483 H 0.47364 0.78855 0.41600
 H2484 H 0.47557 0.81112 0.45302
 H2485 H 0.47689 0.84868 0.47254
 H2486 H 0.48563 0.88534 0.40762
 H2487 H 0.48417 0.84782 0.38824
 H2488 H 0.49209 0.90736 0.44215
 H2489 H 0.50896 0.81637 0.38495
 H2490 H 0.46801 0.88456 0.48477
 C2491 C 0.00061 0.30022 0.88626
 C2492 C -0.01649 0.30301 0.90293
 C2493 C -0.01770 0.32559 0.91485
 C2494 C -0.02183 0.32570 0.93839
 C2495 C -0.02026 0.34681 0.95028
 C2496 C -0.01489 0.36819 0.93861
 C2497 C -0.01181 0.36809 0.91491
 C2498 C -0.01338 0.34707 0.90310
 C2499 C -0.01130 0.39072 0.95046
 C2500 C -0.02025 0.39509 0.97199
 H2501 H -0.02748 0.28831 0.90881
 H2502 H -0.02523 0.30933 0.94774
 H2503 H -0.02239 0.34610 0.96860
 H2504 H -0.00789 0.38432 0.90550
 H2505 H -0.01085 0.34761 0.88479
 H2506 H -0.00200 0.40488 0.94134
 H2507 H 0.01286 0.31484 0.88289
 H2508 H -0.03117 0.38194 0.98075
 C2509 C 0.49370 0.29505 0.11440
 C2510 C 0.47995 0.30217 0.09585
 C2511 C 0.48299 0.32622 0.08626
 C2512 C 0.47908 0.33048 0.06286
 C2513 C 0.48298 0.35304 0.05341
 C2514 C 0.49035 0.37172 0.06738
 C2515 C 0.49341 0.36761 0.09089
 C2516 C 0.49006 0.34501 0.10023
 C2517 C 0.49419 0.39577 0.05807
 C2518 C 0.50377 0.40031 0.03655
 H2519 H 0.46823 0.28964 0.08732
 H2520 H 0.47345 0.31627 0.05185
 H2521 H 0.47989 0.35592 0.03529
 H2522 H 0.49879 0.38185 0.10197
 H2523 H 0.49285 0.34226 0.11842
 H2524 H 0.49068 0.41035 0.06909
 H2525 H 0.49028 0.28067 0.11890
 H2526 H 0.50948 0.38588 0.02630
 C2527 C -0.00456 0.79247 0.60631
 C2528 C 0.01083 0.81168 0.60979
 C2529 C 0.01166 0.83216 0.59398
 C2530 C 0.01746 0.85438 0.60263
 C2531 C 0.01839 0.87411 0.58808
 C2532 C 0.01391 0.87183 0.56456
 C2533 C 0.00911 0.84948 0.55573
 C2534 C 0.00778 0.82976 0.57036
 C2535 C 0.01406 0.89265 0.54917
 C2536 C 0.00468 0.91370 0.55615
 H2537 H 0.02193 0.81248 0.62494
 H2538 H 0.02096 0.85650 0.62071
 H2539 H 0.02281 0.89111 0.59521
 H2540 H 0.00594 0.84737 0.53760
 H2541 H 0.00407 0.81266 0.56314
 H2542 H 0.02024 0.89101 0.53184
 H2543 H -0.01766 0.79357 0.59268
 H2544 H -0.00375 0.91439 0.57266
 C2545 C 0.24534 0.33341 0.02775
 C2546 C 0.22396 0.32102 0.03122
 C2547 C 0.22067 0.30611 0.05220
 C2548 C 0.19921 0.30670 0.06400
 C2549 C 0.19693 0.29563 0.08550
 C2550 C 0.21590 0.28332 0.09550
 C2551 C 0.23698 0.28160 0.08307
 C2552 C 0.23930 0.29281 0.06164
 C2553 C 0.21367 0.27439 0.11948
 C2554 C 0.22861 0.25789 0.12998
 H2555 H 0.20853 0.32520 0.02088
 H2556 H 0.18457 0.31674 0.05711
 H2557 H 0.18048 0.29724 0.09465
 H2558 H 0.25211 0.27251 0.09015
 H2559 H 0.25592 0.29155 0.05272
 H2560 H 0.19960 0.28150 0.12952
 H2561 H 0.25947 0.33050 0.04013
 H2562 H 0.24153 0.24894 0.12001
 C2563 C 0.74218 0.83207 0.52900
 C2564 C 0.75766 0.82448 0.54635
 C2565 C 0.75033 0.80945 0.56608
 C2566 C 0.76786 0.79768 0.57877
 C2567 C 0.76227 0.78583 0.59922
 C2568 C 0.73896 0.78568 0.60751
 C2569 C 0.72131 0.79704 0.59458
 C2570 C 0.72687 0.80874 0.57400
 C2571 C 0.73300 0.77593 0.63043
 C2572 C 0.74655 0.75916 0.64209
 H2573 H 0.77619 0.82981 0.54574
 H2574 H 0.78612 0.79825 0.57318
 H2575 H 0.77651 0.77785 0.60896
 H2576 H 0.70328 0.79741 0.60074
 H2577 H 0.71302 0.81813 0.56499
 H2578 H 0.71748 0.78262 0.63865
 H2579 H 0.72481 0.82368 0.52746
 H2580 H 0.76074 0.75055 0.63348
 C2581 C 0.24113 0.66778 0.54102
 C2582 C 0.25653 0.67615 0.55797
 C2583 C 0.24809 0.68711 0.57884
 C2584 C 0.22883 0.67717 0.59096
 C2585 C 0.22358 0.68516 0.61272
 C2586 C 0.23697 0.70366 0.62229
 C2587 C 0.25551 0.71430 0.60968
 C2588 C 0.26126 0.70581 0.58827
 C2589 C 0.23343 0.70974 0.64632
 C2590 C 0.23557 0.73278 0.65383
 H2591 H 0.27553 0.67484 0.55601
 H2592 H 0.21876 0.66237 0.58420
 H2593 H 0.20942 0.67654 0.62233
 H2594 H 0.26644 0.72826 0.61693
 H2595 H 0.27637 0.71345 0.57930
 H2596 H 0.22999 0.69555 0.65859
 H2597 H 0.22280 0.67310 0.54108
 H2598 H 0.23607 0.74729 0.64152
 C2599 C 0.75155 0.16851 0.03732
 C2600 C 0.76522 0.17023 0.05729
 C2601 C 0.75583 0.17844 0.07902
 C2602 C 0.74037 0.19744 0.08031
 C2603 C 0.73275 0.20493 0.10166
 C2604 C 0.74022 0.19317 0.12178
 C2605 C 0.75515 0.17391 0.12023
 C2606 C 0.76315 0.16687 0.09913
 C2607 C 0.73379 0.20054 0.14484
 C2608 C 0.73118 0.22395 0.15092
 H2609 H 0.78255 0.16258 0.05830
 H2610 H 0.73466 0.20678 0.06499
 H2611 H 0.72105 0.21972 0.10238
 H2612 H 0.76119 0.16463 0.13550
 H2613 H 0.77502 0.15216 0.09851
 H2614 H 0.73560 0.18741 0.15842
 H2615 H 0.73435 0.17659 0.03665
 H2616 H 0.72866 0.23761 0.13802
 C2617 C 0.75137 0.17128 0.95911
 C2618 C 0.76679 0.17764 0.94139
 C2619 C 0.75919 0.19055 0.92053
 C2620 C 0.73620 0.18759 0.91132
 C2621 C 0.73044 0.19760 0.89000
 C2622 C 0.74737 0.21104 0.87775
 C2623 C 0.77016 0.21453 0.88727
 C2624 C 0.77603 0.20420 0.90838
 C2625 C 0.74168 0.21916 0.85423
 C2626 C 0.75267 0.23881 0.84389
 H2627 H 0.78538 0.17346 0.94283
 H2628 H 0.72301 0.17665 0.92001
 H2629 H 0.71289 0.19442 0.88283
 H2630 H 0.78383 0.22424 0.87798
 H2631 H 0.79394 0.20642 0.91501
 H2632 H 0.72869 0.20897 0.84457
 H2633 H 0.73390 0.17880 0.95923
 H2634 H 0.76371 0.25059 0.85397
 C2635 C 0.24330 0.66427 0.46334
 C2636 C 0.25984 0.67035 0.44642
 C2637 C 0.25401 0.68293 0.42480
 C2638 C 0.27228 0.69514 0.41317
 C2639 C 0.26830 0.70505 0.39147
 C2640 C 0.24592 0.70272 0.38083
 C2641 C 0.22752 0.69078 0.39258
 C2642 C 0.23145 0.68109 0.41445
 C2643 C 0.24192 0.71063 0.35687
 C2644 C 0.25534 0.72858 0.34618
 H2645 H 0.27834 0.66643 0.44925
 H2646 H 0.28991 0.69652 0.42067
 H2647 H 0.28308 0.71354 0.38272
 H2648 H 0.21021 0.68850 0.38460
 H2649 H 0.21714 0.67130 0.42271
 H2650 H 0.22795 0.70180 0.34721
 H2651 H 0.22573 0.67153 0.46221
 H2652 H 0.26766 0.73925 0.35608
 C2653 C 0.74461 0.84451 0.45239
 C2654 C 0.75785 0.84776 0.43240
 C2655 C 0.75451 0.83417 0.41122
 C2656 C 0.76234 0.84476 0.39076
 C2657 C 0.76139 0.83250 0.37044
 C2658 C 0.75291 0.80910 0.36993
 C2659 C 0.74473 0.79834 0.39036
 C2660 C 0.74547 0.81084 0.41089
 C2661 C 0.75342 0.79722 0.34760
 C2662 C 0.74970 0.77315 0.34362
 H2663 H 0.77064 0.86217 0.43129
 H2664 H 0.76946 0.86265 0.39050
 H2665 H 0.76776 0.84133 0.35503
 H2666 H 0.73793 0.78038 0.39062
 H2667 H 0.73963 0.80205 0.42648
 H2668 H 0.75815 0.80847 0.33309
 H2669 H 0.73006 0.83175 0.45252
 H2670 H 0.74439 0.76109 0.35725
 C2671 C 0.24675 0.35175 0.94915
 C2672 C 0.23079 0.33384 0.94270
 C2673 C 0.23204 0.32432 0.91920
 C2674 C 0.23032 0.29997 0.91560
 C2675 C 0.23443 0.29085 0.89387
 C2676 C 0.24005 0.30603 0.87520
 C2677 C 0.24061 0.33041 0.87874
 C2678 C 0.23657 0.33944 0.90033
 C2679 C 0.24631 0.29761 0.85208
 C2680 C 0.24371 0.27439 0.84474
 H2681 H 0.21939 0.32522 0.95522
 H2682 H 0.22679 0.28793 0.92981
 H2683 H 0.23386 0.27196 0.89207
 H2684 H 0.24460 0.34260 0.86475
 H2685 H 0.23738 0.35835 0.90234
 H2686 H 0.25310 0.31070 0.83995
 H2687 H 0.25964 0.35749 0.93647
 H2688 H 0.23595 0.26100 0.85591
 C2689 C 0.85681 0.46091 0.76056
 C2690 C 0.84054 0.45617 0.74300
 C2691 C 0.82515 0.43458 0.74354
 C2692 C 0.81833 0.42417 0.72293
 C2693 C 0.80534 0.40289 0.72295
 C2694 C 0.79875 0.39155 0.74358
 C2695 C 0.80456 0.40257 0.76425
 C2696 C 0.81755 0.42389 0.76421
 C2697 C 0.78629 0.36825 0.74250
 C2698 C 0.78278 0.35260 0.76108
 H2699 H 0.84042 0.46706 0.72763
 H2700 H 0.82366 0.43215 0.70677
 H2701 H 0.80089 0.39498 0.70673
 H2702 H 0.79921 0.39495 0.78050
 H2703 H 0.82153 0.43194 0.78044
 H2704 H 0.78095 0.36244 0.72566
 H2705 H 0.85765 0.44844 0.77477
 H2706 H 0.78798 0.35748 0.77819
 C2707 C 0.35468 0.96256 0.24819
 C2708 C 0.35168 0.94335 0.26345
 C2709 C 0.33807 0.92125 0.25853
 C2710 C 0.32319 0.91844 0.23923
 C2711 C 0.31091 0.89705 0.23570
 C2712 C 0.31297 0.87814 0.25140
 C2713 C 0.32797 0.88094 0.27055
 C2714 C 0.34020 0.90223 0.27408
 C2715 C 0.29997 0.85559 0.24701
 C2716 C 0.29471 0.83892 0.26424
 H2717 H 0.36038 0.94381 0.27995
 H2718 H 0.32073 0.93260 0.22690
 H2719 H 0.29960 0.89532 0.22072
 H2720 H 0.33078 0.86664 0.28268
 H2721 H 0.35164 0.90374 0.28901
 H2722 H 0.29399 0.85223 0.22971
 H2723 H 0.34623 0.96198 0.23156
 H2724 H 0.29907 0.84273 0.28183
 C2725 C 0.14413 0.96045 0.74793
 C2726 C 0.14155 0.93744 0.75660
 C2727 C 0.15854 0.91890 0.75172
 C2728 C 0.15005 0.89587 0.74809
 C2729 C 0.16584 0.87758 0.74534
 C2730 C 0.19045 0.88192 0.74686
 C2731 C 0.19897 0.90495 0.75051
 C2732 C 0.18315 0.92341 0.75256
 C2733 C 0.20714 0.86228 0.74691
 C2734 C 0.20379 0.84287 0.73296
 H2735 H 0.12590 0.93224 0.76614
 H2736 H 0.13114 0.89201 0.74766
 H2737 H 0.15880 0.85987 0.74308
 H2738 H 0.21786 0.90859 0.75204
 H2739 H 0.19010 0.94097 0.75580
 H2740 H 0.22218 0.86290 0.75861
 H2741 H 0.15779 0.96422 0.73544
 H2742 H 0.19049 0.84338 0.71946
 C2743 C 0.64604 0.45356 0.25086
 C2744 C 0.65089 0.43392 0.26479
 C2745 C 0.66740 0.41530 0.25858
 C2746 C 0.66962 0.40741 0.23608
 C2747 C 0.68429 0.38843 0.23147
 C2748 C 0.69715 0.37743 0.24929
 C2749 C 0.69521 0.38581 0.27155
 C2750 C 0.68029 0.40426 0.27618
 C2751 C 0.71274 0.35720 0.24599
 C2752 C 0.70991 0.34030 0.22901
 H2753 H 0.64410 0.43288 0.28197
 H2754 H 0.65957 0.41542 0.22223
 H2755 H 0.68561 0.38254 0.21409
 H2756 H 0.70491 0.37767 0.28559
 H2757 H 0.67881 0.40995 0.29364
 H2758 H 0.72551 0.35388 0.25959
 H2759 H 0.65525 0.45568 0.23479
 H2760 H 0.69754 0.34290 0.21497
 C2761 C 0.64921 0.53242 0.25620
 C2762 C 0.65509 0.54938 0.27257
 C2763 C 0.67154 0.56986 0.26886
 C2764 C 0.67977 0.58230 0.28800
 C2765 C 0.69402 0.60265 0.28545
 C2766 C 0.70022 0.61119 0.26356
 C2767 C 0.69240 0.59848 0.24444
 C2768 C 0.67813 0.57811 0.24699
 C2769 C 0.71441 0.63327 0.25975
 C2770 C 0.71888 0.65044 0.27622
 H2771 H 0.64784 0.54754 0.28952
 H2772 H 0.67500 0.57634 0.30507
 H2773 H 0.70001 0.61149 0.30069
 H2774 H 0.69691 0.60462 0.22736
 H2775 H 0.67185 0.56938 0.23177
 H2776 H 0.72042 0.63685 0.24248
 H2777 H 0.65856 0.53272 0.24017
 H2778 H 0.71267 0.64791 0.29351
 C2779 C 0.15301 0.03804 0.75494
 C2780 C 0.15974 0.05457 0.77134
 C2781 C 0.17633 0.07471 0.76695
 C2782 C 0.18652 0.08633 0.78570
 C2783 C 0.20067 0.10662 0.78252
 C2784 C 0.20467 0.11593 0.76041
 C2785 C 0.19507 0.10392 0.74161
 C2786 C 0.18092 0.08360 0.74480
 C2787 C 0.21829 0.13820 0.75628
 C2788 C 0.22136 0.15559 0.77266
 H2789 H 0.15285 0.05280 0.78845
 H2790 H 0.18333 0.07981 0.80294
 H2791 H 0.20836 0.11486 0.79743
 H2792 H 0.19795 0.11068 0.72440
 H2793 H 0.17300 0.07549 0.72991
 H2794 H 0.22453 0.14183 0.73910
 H2795 H 0.16218 0.03813 0.73881
 H2796 H 0.21422 0.15296 0.78961
 C2797 C 0.35056 0.04159 0.23889
 C2798 C 0.35010 0.06495 0.24589
 C2799 C 0.33195 0.08160 0.23794
 C2800 C 0.33868 0.10509 0.23311
 C2801 C 0.32154 0.12189 0.22815
 C2802 C 0.29731 0.11559 0.22864
 C2803 C 0.29057 0.09202 0.23320
 C2804 C 0.30778 0.07504 0.23745
 C2805 C 0.27906 0.13381 0.22731
 C2806 C 0.28107 0.15374 0.21307
 H2807 H 0.36440 0.07199 0.25639
 H2808 H 0.35722 0.11053 0.23367
 H2809 H 0.32719 0.14004 0.22520
 H2810 H 0.27197 0.08688 0.23397
 H2811 H 0.30217 0.05710 0.24154
 H2812 H 0.26398 0.13189 0.23856
 H2813 H 0.33862 0.03613 0.22526
 H2814 H 0.29433 0.15455 0.19982
 C2815 C 0.85815 0.54065 0.75028
 C2816 C 0.85443 0.56030 0.76370
 C2817 C 0.83725 0.57893 0.75811
 C2818 C 0.82723 0.59067 0.77631
 C2819 C 0.81175 0.60907 0.77226
 C2820 C 0.80628 0.61666 0.74991
 C2821 C 0.81630 0.60503 0.73148
 C2822 C 0.83161 0.58615 0.73557
 C2823 C 0.78980 0.63647 0.74720
 C2824 C 0.78840 0.65210 0.72841
 H2825 H 0.86293 0.56142 0.78028
 H2826 H 0.83136 0.58555 0.79381
 H2827 H 0.80428 0.61767 0.78678
 H2828 H 0.81221 0.61030 0.71404
 H2829 H 0.83940 0.57763 0.72119
 H2830 H 0.77942 0.64015 0.76212
 H2831 H 0.84762 0.53846 0.73486
 H2832 H 0.79850 0.64926 0.71315
 C2833 C 0.97179 0.74077 0.15020
 C2834 C 0.95547 0.75660 0.15845
 C2835 C 0.93678 0.75077 0.17527
 C2836 C 0.92298 0.76926 0.18277
 C2837 C 0.90293 0.76469 0.19591
 C2838 C 0.89625 0.74145 0.20188
 C2839 C 0.91079 0.72298 0.19576
 C2840 C 0.93084 0.72753 0.18231
 C2841 C 0.87355 0.73642 0.21341
 C2842 C 0.85333 0.74864 0.20689
 H2843 H 0.95589 0.77454 0.15190
 H2844 H 0.92723 0.78733 0.17776
 H2845 H 0.89234 0.77932 0.20099
 H2846 H 0.90597 0.70495 0.20039
 H2847 H 0.94090 0.71276 0.17679
 H2848 H 0.87234 0.72208 0.22587
 H2849 H 0.97427 0.72406 0.15897
 H2850 H 0.85428 0.76116 0.19268
 C2851 C 0.46924 0.26824 0.63254
 C2852 C 0.45991 0.25189 0.64827
 C2853 C 0.43737 0.25582 0.66001
 C2854 C 0.43321 0.24468 0.68120
 C2855 C 0.41156 0.24716 0.69213
 C2856 C 0.39353 0.26063 0.68184
 C2857 C 0.39773 0.27179 0.66067
 C2858 C 0.41939 0.26938 0.64980
 C2859 C 0.36995 0.26239 0.69222
 C2860 C 0.36468 0.25108 0.71275
 H2861 H 0.46901 0.23578 0.65231
 H2862 H 0.44671 0.23396 0.68926
 H2863 H 0.40886 0.23820 0.70843
 H2864 H 0.38404 0.28203 0.65231
 H2865 H 0.42164 0.27754 0.63308
 H2866 H 0.35615 0.27180 0.68305
 H2867 H 0.46110 0.28530 0.63102
 H2868 H 0.35094 0.25118 0.71754
 C2869 C 0.45718 0.74040 0.86193
 C2870 C 0.43763 0.75481 0.85855
 C2871 C 0.41727 0.74935 0.84351
 C2872 C 0.40478 0.76829 0.83406
 C2873 C 0.38430 0.76437 0.82113
 C2874 C 0.37573 0.74134 0.81749
 C2875 C 0.38807 0.72228 0.82706
 C2876 C 0.40891 0.72622 0.83984
 C2877 C 0.35326 0.73736 0.80488
 C2878 C 0.34655 0.75249 0.78706
 H2879 H 0.43785 0.77220 0.86572
 H2880 H 0.41072 0.78628 0.83695
 H2881 H 0.37478 0.77948 0.81464
 H2882 H 0.38152 0.70440 0.82471
 H2883 H 0.41793 0.71132 0.84743
 H2884 H 0.34169 0.72272 0.80997
 H2885 H 0.45849 0.72455 0.85212
 H2886 H 0.35928 0.76540 0.78040
 C2887 C 0.96104 0.24980 0.35336
 C2888 C 0.94225 0.26432 0.34732
 C2889 C 0.92221 0.25648 0.33289
 C2890 C 0.91017 0.27337 0.31978
 C2891 C 0.88993 0.26703 0.30734
 C2892 C 0.88119 0.24365 0.30799
 C2893 C 0.89310 0.22672 0.32123
 C2894 C 0.91364 0.23302 0.33348
 C2895 C 0.85877 0.23727 0.29631
 C2896 C 0.85192 0.24876 0.27619
 H2897 H 0.94235 0.28250 0.35244
 H2898 H 0.91627 0.29160 0.31944
 H2899 H 0.88067 0.28067 0.29791
 H2900 H 0.88638 0.20871 0.32225
 H2901 H 0.92221 0.21978 0.34402
 H2902 H 0.84709 0.22411 0.30418
 H2903 H 0.96239 0.23312 0.34490
 H2904 H 0.86458 0.26014 0.26725
 C2905 C 0.04119 0.25398 0.35990
 C2906 C 0.04456 0.23559 0.34501
 C2907 C 0.06701 0.23405 0.33261
 C2908 C 0.06665 0.22694 0.30986
 C2909 C 0.08753 0.22745 0.29724
 C2910 C 0.10919 0.23468 0.30744
 C2911 C 0.10957 0.24093 0.33046
 C2912 C 0.08872 0.24049 0.34299
 C2913 C 0.13152 0.23687 0.29460
 C2914 C 0.13519 0.22593 0.27394
 H2915 H 0.03026 0.22343 0.34071
 H2916 H 0.05006 0.22189 0.30160
 H2917 H 0.08636 0.22293 0.27943
 H2918 H 0.12603 0.24638 0.33873
 H2919 H 0.08960 0.24538 0.36076
 H2920 H 0.14599 0.24702 0.30217
 H2921 H 0.05525 0.26720 0.36160
 H2922 H 0.12170 0.21441 0.26667
 C2923 C 0.53698 0.75413 0.85486
 C2924 C 0.54254 0.73465 0.84206
 C2925 C 0.56565 0.73399 0.83054
 C2926 C 0.56748 0.72349 0.80922
 C2927 C 0.58919 0.72395 0.79781
 C2928 C 0.60949 0.73461 0.80786
 C2929 C 0.60766 0.74436 0.82953
 C2930 C 0.58607 0.74395 0.84081
 C2931 C 0.63274 0.73662 0.79647
 C2932 C 0.63858 0.72495 0.77668
 H2933 H 0.53031 0.71985 0.84030
 H2934 H 0.55198 0.71554 0.80113
 H2935 H 0.58970 0.71639 0.78106
 H2936 H 0.62301 0.75244 0.83778
 H2937 H 0.58541 0.75145 0.85763
 H2938 H 0.64625 0.74767 0.80448
 H2939 H 0.54885 0.76940 0.85386
 H2940 H 0.62598 0.71310 0.76855
 C2941 C 0.54313 0.23787 0.63135
 C2942 C 0.56755 0.24017 0.62816
 C2943 C 0.58557 0.23819 0.64645
 C2944 C 0.60929 0.23684 0.63992
 C2945 C 0.62747 0.23855 0.65606
 C2946 C 0.62233 0.24141 0.67927
 C2947 C 0.59855 0.24242 0.68595
 C2948 C 0.58023 0.24074 0.66967
 C2949 C 0.64159 0.24488 0.69627
 C2950 C 0.66408 0.23614 0.69281
 H2951 H 0.57414 0.24438 0.61124
 H2952 H 0.61385 0.23534 0.62209
 H2953 H 0.64552 0.23866 0.65001
 H2954 H 0.59420 0.24494 0.70368
 H2955 H 0.56211 0.24249 0.67517
 H2956 H 0.63814 0.25482 0.71142
 H2957 H 0.53637 0.22905 0.64657
 H2958 H 0.66691 0.22440 0.67882
 C2959 C 0.04814 0.74930 0.13595
 C2960 C 0.05390 0.73232 0.15249
 C2961 C 0.07474 0.73598 0.16759
 C2962 C 0.08951 0.71712 0.17300
 C2963 C 0.11027 0.72084 0.18586
 C2964 C 0.11630 0.74344 0.19381
 C2965 C 0.10077 0.76194 0.18956
 C2966 C 0.08025 0.75832 0.17641
 C2967 C 0.13876 0.74818 0.20626
 C2968 C 0.15955 0.73695 0.20070
 H2969 H 0.04423 0.71570 0.15367
 H2970 H 0.08535 0.69970 0.16670
 H2971 H 0.12157 0.70606 0.18953
 H2972 H 0.10489 0.77938 0.19584
 H2973 H 0.06873 0.77301 0.17304
 H2974 H 0.13936 0.76202 0.21872
 H2975 H 0.06027 0.76426 0.13374
 H2976 H 0.15929 0.72453 0.18691
   
