data_POSCAR
  _audit_creation_date              2014-09-24
  _audit_creation_method            'ToBaCCo'
  _symmetry_space_group_name_H-M    'P1'
  _symmetry_Int_Tables_number       1
  _symmetry_cell_setting            triclinic
  loop_
  _symmetry_equiv_pos_as_xyz
 x,y,z
_cell_length_a 51.6608
_cell_length_b 51.4622
_cell_length_c 51.9478
_cell_angle_alpha 90.032900
_cell_angle_beta 90.116500
_cell_angle_gamma 90.069700
loop_
  _atom_site_label
  _atom_site_type_symbol
  _atom_site_fract_x
  _atom_site_fract_y
  _atom_site_fract_z
O1 O 0.32022 0.35567 0.02440
 O2 O 0.35694 0.31903 -0.02426
 O3 O 0.32115 0.35436 -0.02568
 O4 O 0.35657 0.32089 0.02589
 O5 O 0.32728 0.28962 0.02602
 O6 O 0.29086 0.32419 -0.02461
 O7 O 0.32707 0.28832 -0.02382
 O8 O 0.29057 0.32474 0.02500
 Cu9 Cu 0.34172 0.34054 0.00003
 Cu10 Cu 0.30599 0.30359 0.00067
 C11 C 0.29898 0.34657 0.03280
 C12 C 0.34834 0.29732 -0.03222
 C13 C 0.29967 0.34538 -0.03369
 C14 C 0.34818 0.29943 0.03459
 O15 O 0.64299 0.67920 -0.02681
 O16 O 0.67655 0.64244 0.02388
 O17 O 0.64196 0.67913 0.02330
 O18 O 0.67772 0.64282 -0.02635
 O19 O 0.70882 0.67215 -0.02513
 O20 O 0.67280 0.70885 0.02394
 O21 O 0.70774 0.67180 0.02460
 O22 O 0.67378 0.70896 -0.02582
 Cu23 Cu 0.65673 0.65792 -0.00156
 Cu24 Cu 0.69390 0.69340 -0.00049
 C25 C 0.65249 0.70047 -0.03480
 C26 C 0.69800 0.65066 0.03270
 C27 C 0.65111 0.70039 0.03183
 C28 C 0.69955 0.65111 -0.03412
 O29 O 0.67906 0.35741 0.97852
 O30 O 0.64222 0.32071 1.02708
 O31 O 0.67772 0.35636 1.02870
 O32 O 0.64276 0.32248 0.97691
 O33 O 0.67222 0.29144 0.97700
 O34 O 0.70809 0.32634 1.02793
 O35 O 0.67222 0.29020 1.02684
 O36 O 0.70885 0.32670 0.97824
 Cu37 Cu 0.65744 0.34229 1.00282
 Cu38 Cu 0.69333 0.30558 1.00249
 C39 C 0.70037 0.34839 0.97025
 C40 C 0.65090 0.29909 1.03514
 C41 C 0.69909 0.34744 1.03700
 C42 C 0.65131 0.30106 0.96829
 O43 O 0.35655 0.67748 1.02462
 O44 O 0.32064 0.64080 0.97504
 O45 O 0.35701 0.67579 0.97446
 O46 O 0.32095 0.64183 1.02527
 O47 O 0.29055 0.67179 1.02374
 O48 O 0.32769 0.70696 0.97405
 O49 O 0.29102 0.67165 0.97401
 O50 O 0.32646 0.70788 1.02384
 Cu51 Cu 0.34177 0.65591 0.99992
 Cu52 Cu 0.30595 0.69265 0.99882
 C53 C 0.34768 0.69906 1.03257
 C54 C 0.29955 0.64990 0.96622
 C55 C 0.34876 0.69732 0.96582
 C56 C 0.29937 0.65069 1.03301
 O57 O 0.02617 0.32243 0.35806
 O58 O -0.02387 0.35991 0.32398
 O59 O -0.02429 0.32489 0.35972
 O60 O 0.02647 0.35784 0.32222
 O61 O 0.02361 0.32749 0.29232
 O62 O -0.02614 0.29374 0.33065
 O63 O -0.02637 0.32925 0.29432
 O64 O 0.02380 0.29181 0.32839
 Cu65 Cu 0.00143 0.34432 0.34397
 Cu66 Cu -0.00151 0.30749 0.30845
 C67 C 0.03335 0.30059 0.34920
 C68 C -0.03355 0.35106 0.30326
 C69 C -0.03377 0.30351 0.35181
 C70 C 0.03341 0.34854 0.30066
 O71 O 0.02459 0.67284 0.64043
 O72 O -0.02665 0.63841 0.67558
 O73 O -0.02584 0.67436 0.64065
 O74 O 0.02378 0.63698 0.67551
 O75 O 0.02454 0.66682 0.70606
 O76 O -0.02437 0.70470 0.67057
 O77 O -0.02554 0.66836 0.70601
 O78 O 0.02559 0.70309 0.67058
 Cu79 Cu -0.00113 0.65264 0.65502
 Cu80 Cu 0.00016 0.68876 0.69137
 C81 C 0.03366 0.69396 0.64934
 C82 C -0.03471 0.64737 0.69688
 C83 C -0.03342 0.69613 0.64943
 C84 C 0.03244 0.64538 0.69686
 O85 O 1.02496 0.64176 0.32228
 O86 O 0.97514 0.67885 0.35684
 O87 O 0.97451 0.64309 0.32138
 O88 O 1.02560 0.67746 0.35750
 O89 O 1.02642 0.70795 0.32774
 O90 O 0.97602 0.67321 0.29119
 O91 O 0.97646 0.70921 0.32688
 O92 O 1.02607 0.67188 0.29206
 Cu93 Cu 0.99989 0.65725 0.34250
 Cu94 Cu 1.00136 0.69359 0.30644
 C95 C 1.03390 0.65039 0.30120
 C96 C 0.96751 0.70051 0.34794
 C97 C 0.96675 0.65213 0.29995
 C98 C 1.03460 0.69879 0.34898
 O99 O 0.97284 0.32170 0.64364
 O100 O 1.02437 0.35437 0.68034
 O101 O 1.02329 0.31997 0.64377
 O102 O 0.97393 0.35588 0.68048
 O103 O 0.97328 0.32456 0.70949
 O104 O 1.02186 0.28830 0.67227
 O105 O 1.02335 0.32298 0.70927
 O106 O 0.97196 0.29008 0.67233
 Cu107 Cu 0.99870 0.34113 0.65917
 Cu108 Cu 0.99752 0.30334 0.69375
 C109 C 0.96380 0.30019 0.65154
 C110 C 1.03251 0.34439 0.70118
 C111 C 1.03083 0.29779 0.65153
 C112 C 0.96539 0.34647 0.70142
 O113 O 0.35967 0.02383 0.32690
 O114 O 0.32271 -0.02685 0.36071
 O115 O 0.35906 -0.02686 0.32618
 O116 O 0.32391 0.02369 0.36181
 O117 O 0.29379 0.02442 0.33160
 O118 O 0.32967 -0.02554 0.29530
 O119 O 0.29295 -0.02577 0.33018
 O120 O 0.32997 0.02475 0.29630
 Cu121 Cu 0.34434 -0.00169 0.34694
 Cu122 Cu 0.30862 -0.00046 0.31025
 C123 C 0.35119 0.03284 0.30576
 C124 C 0.30135 -0.03472 0.35138
 C125 C 0.35058 -0.03464 0.30455
 C126 C 0.30273 0.03250 0.35297
 O127 O 0.64192 0.02505 0.67499
 O128 O 0.67865 -0.02592 0.64130
 O129 O 0.64173 -0.02563 0.67522
 O130 O 0.67844 0.02465 0.64065
 O131 O 0.70795 0.02469 0.67144
 O132 O 0.67056 -0.02498 0.70666
 O133 O 0.70782 -0.02553 0.67241
 O134 O 0.67109 0.02527 0.70611
 Cu135 Cu 0.65725 -0.00050 0.65495
 Cu136 Cu 0.69228 -0.00010 0.69228
 C137 C 0.65013 0.03369 0.69643
 C138 C 0.69968 -0.03421 0.65097
 C139 C 0.64968 -0.03370 0.69694
 C140 C 0.69963 0.03302 0.64994
 O141 O 0.35591 0.97473 0.67807
 O142 O 0.31943 1.02629 0.64509
 O143 O 0.35574 1.02538 0.67995
 O144 O 0.31952 0.97566 0.64358
 O145 O 0.28993 0.97466 0.67416
 O146 O 0.32626 1.02406 0.71062
 O147 O 0.28967 1.02489 0.67549
 O148 O 0.32663 0.97386 0.70896
 Cu149 Cu 0.34062 1.00067 0.65861
 Cu150 Cu 0.30516 0.99930 0.69538
 C151 C 0.34763 0.96564 0.69924
 C152 C 0.29813 1.03413 0.65444
 C153 C 0.34733 1.03297 0.70166
 C154 C 0.29843 0.96680 0.65259
 O155 O 0.67897 1.02346 0.35704
 O156 O 0.64425 0.97240 0.32112
 O157 O 0.68016 0.97281 0.35645
 O158 O 0.64288 1.02301 0.32242
 O159 O 0.67245 1.02422 0.29181
 O160 O 0.71017 0.97433 0.32630
 O161 O 0.67400 0.97398 0.29073
 O162 O 0.70896 1.02447 0.32693
 Cu163 Cu 0.65858 0.99771 0.34229
 Cu164 Cu 0.69438 0.99934 0.30589
 C165 C 0.70007 1.03260 0.34827
 C166 C 0.65303 0.96475 0.29958
 C167 C 0.70171 0.96527 0.34743
 C168 C 0.65119 1.03209 0.30127
 O169 O 0.82615 0.85954 0.52642
 O170 O 0.86205 0.82481 0.47608
 O171 O 0.82665 0.86040 0.47622
 O172 O 0.86159 0.82394 0.52628
 O173 O 0.83167 0.79325 0.52496
 O174 O 0.79613 0.83033 0.47559
 O175 O 0.83192 0.79434 0.47523
 O176 O 0.79572 0.82939 0.52546
 Cu177 Cu 0.84713 0.84522 0.50136
 Cu178 Cu 0.81079 0.80878 0.50026
 C179 C 0.80474 0.85054 0.53441
 C180 C 0.85322 0.80358 0.46717
 C181 C 0.80536 0.85169 0.46747
 C182 C 0.85276 0.80224 0.53392
 O183 O 0.13991 0.17462 0.47507
 O184 O 0.17454 0.13986 0.52639
 O185 O 0.13841 0.17466 0.52526
 O186 O 0.17636 0.13986 0.47623
 O187 O 0.20600 0.17077 0.47749
 O188 O 0.16761 0.20605 0.52585
 O189 O 0.20424 0.17074 0.52732
 O190 O 0.16923 0.20586 0.47615
 Cu191 Cu 0.15435 0.15414 0.50060
 Cu192 Cu 0.18976 0.19147 0.50180
 C193 C 0.14846 0.19629 0.46703
 C194 C 0.19536 0.14925 0.53552
 C195 C 0.14643 0.19638 0.53373
 C196 C 0.19780 0.14923 0.46869
 O197 O 0.14144 0.81926 0.52579
 O198 O 0.17616 0.85679 0.47644
 O199 O 0.14146 0.82050 0.47559
 O200 O 0.17566 0.85625 0.52658
 O201 O 0.20719 0.82732 0.52589
 O202 O 0.17198 0.79045 0.47585
 O203 O 0.20717 0.82730 0.47608
 O204 O 0.17259 0.78992 0.52560
 Cu205 Cu 0.15557 0.84114 0.50116
 Cu206 Cu 0.19287 0.80579 0.50084
 C207 C 0.15099 0.79806 0.53396
 C208 C 0.19766 0.84851 0.46793
 C209 C 0.15070 0.79928 0.46722
 C210 C 0.19739 0.84814 0.53471
 O211 O 0.85626 0.17957 0.52286
 O212 O 0.82184 0.14353 0.47209
 O213 O 0.85609 0.18047 0.47269
 O214 O 0.82231 0.14237 0.52234
 O215 O 0.79074 0.17125 0.52294
 O216 O 0.82500 0.20988 0.47388
 O217 O 0.79020 0.17235 0.47319
 O218 O 0.82497 0.20876 0.52355
 Cu219 Cu 0.84225 0.15856 0.49739
 Cu220 Cu 0.80455 0.19347 0.49839
 C221 C 0.84662 0.20044 0.53171
 C222 C 0.80001 0.15163 0.46423
 C223 C 0.84652 0.20187 0.46515
 C224 C 0.80069 0.15019 0.53099
 O225 O 0.52485 0.82261 0.85626
 O226 O 0.47325 0.85583 0.82029
 O227 O 0.47435 0.82075 0.85634
 O228 O 0.52366 0.85731 0.81997
 O229 O 0.52432 0.82632 0.79058
 O230 O 0.47528 0.78977 0.82696
 O231 O 0.47431 0.82512 0.79063
 O232 O 0.52536 0.79132 0.82718
 Cu233 Cu 0.49893 0.84222 0.84117
 Cu234 Cu 0.49988 0.80501 0.80591
 C235 C 0.53376 0.80119 0.84801
 C236 C 0.46521 0.84637 0.79915
 C237 C 0.46656 0.79889 0.84795
 C238 C 0.53222 0.84815 0.79893
 O239 O 0.52377 0.17672 0.14480
 O240 O 0.47348 0.14306 0.18198
 O241 O 0.47335 0.17786 0.14571
 O242 O 0.52385 0.14207 0.18107
 O243 O 0.52500 0.17314 0.21037
 O244 O 0.47470 0.20899 0.17493
 O245 O 0.47502 0.17390 0.21151
 O246 O 0.52474 0.20815 0.17374
 Cu247 Cu 0.49846 0.15682 0.16045
 Cu248 Cu 0.49998 0.19419 0.19557
 C249 C 0.53267 0.19829 0.15277
 C250 C 0.46592 0.15251 0.20326
 C251 C 0.46558 0.19967 0.15415
 C252 C 0.53287 0.15138 0.20190
 O253 O 0.52746 0.14221 0.82165
 O254 O 0.47743 0.17568 0.85940
 O255 O 0.47713 0.14045 0.82376
 O256 O 0.52781 0.17737 0.85766
 O257 O 0.52548 0.20819 0.82822
 O258 O 0.47511 0.17090 0.79389
 O259 O 0.47543 0.20658 0.82999
 O260 O 0.52509 0.17270 0.79188
 Cu261 Cu 0.50273 0.15586 0.84358
 Cu262 Cu 0.50009 0.19269 0.80802
 C263 C 0.53458 0.15153 0.80016
 C264 C 0.46801 0.19693 0.85123
 C265 C 0.46761 0.14924 0.80295
 C266 C 0.53510 0.19923 0.84893
 O267 O 0.47306 0.82400 0.14137
 O268 O 0.52439 0.85880 0.17622
 O269 O 0.52347 0.82419 0.14000
 O270 O 0.47398 0.85854 0.17788
 O271 O 0.47509 0.82735 0.20701
 O272 O 0.52441 0.79284 0.16897
 O273 O 0.52520 0.82790 0.20568
 O274 O 0.47436 0.79243 0.17010
 Cu275 Cu 0.49859 0.84450 0.15596
 Cu276 Cu 0.49985 0.80699 0.19088
 C277 C 0.46517 0.80215 0.14955
 C278 C 0.53343 0.84944 0.19697
 C279 C 0.53226 0.80258 0.14792
 C280 C 0.46626 0.84894 0.19905
 O281 O 0.82385 0.47512 0.86093
 O282 O 0.85766 0.52495 0.82297
 O283 O 0.82325 0.52574 0.85924
 O284 O 0.85864 0.47439 0.82499
 O285 O 0.82809 0.47315 0.79523
 O286 O 0.79180 0.52357 0.83044
 O287 O 0.82663 0.52340 0.79372
 O288 O 0.79287 0.47345 0.83163
 Cu289 Cu 0.84395 0.50021 0.84497
 Cu290 Cu 0.80674 0.49822 0.80979
 C291 C 0.80248 0.46595 0.85288
 C292 C 0.84801 0.53255 0.80176
 C293 C 0.80136 0.53316 0.85091
 C294 C 0.84961 0.46522 0.80412
 O295 O 0.14072 0.52535 0.17660
 O296 O 0.17488 0.47536 0.13911
 O297 O 0.13993 0.47475 0.17495
 O298 O 0.17515 0.52608 0.14031
 O299 O 0.20649 0.52445 0.16925
 O300 O 0.17050 0.47393 0.20470
 O301 O 0.20583 0.47427 0.16847
 O302 O 0.17163 0.52419 0.20598
 Cu303 Cu 0.15458 0.50050 0.15479
 Cu304 Cu 0.19172 0.49911 0.19006
 C305 C 0.15024 0.53313 0.19781
 C306 C 0.19628 0.46643 0.14730
 C307 C 0.14900 0.46579 0.19588
 C308 C 0.19696 0.53379 0.14867
 O309 O 0.82024 0.52438 0.14257
 O310 O 0.85657 0.47539 0.17962
 O311 O 0.82127 0.47367 0.14409
 O312 O 0.85632 0.52595 0.17751
 O313 O 0.82671 0.52627 0.20810
 O314 O 0.79063 0.47494 0.17365
 O315 O 0.82638 0.47608 0.20962
 O316 O 0.79029 0.52516 0.17281
 Cu317 Cu 0.84160 0.49980 0.15791
 Cu318 Cu 0.80547 0.50069 0.19407
 C319 C 0.79894 0.53299 0.15130
 C320 C 0.84775 0.46754 0.20107
 C321 C 0.79986 0.46560 0.15297
 C322 C 0.84777 0.53476 0.19868
 O323 O 0.17549 0.52245 0.85881
 O324 O 0.14073 0.47084 0.82421
 O325 O 0.17570 0.47172 0.85986
 O326 O 0.14064 0.52142 0.82259
 O327 O 0.17127 0.52058 0.79304
 O328 O 0.20668 0.47148 0.83061
 O329 O 0.17121 0.47032 0.79447
 O330 O 0.20650 0.52166 0.82963
 Cu331 Cu 0.15508 0.49674 0.84434
 Cu332 Cu 0.19200 0.49598 0.80896
 C333 C 0.19705 0.53065 0.85036
 C334 C 0.14990 0.46187 0.80338
 C335 C 0.19724 0.46326 0.85164
 C336 C 0.14979 0.52921 0.80125
 C337 C 0.25310 0.39343 0.08389
 C338 C 0.28039 0.39602 0.08362
 C339 C 0.29531 0.38058 0.06702
 C340 C 0.28352 0.36185 0.05125
 C341 C 0.25664 0.35833 0.05259
 C342 C 0.24157 0.37397 0.06859
 C343 C 0.23773 0.41152 0.10051
 C344 C 0.21047 0.41268 0.09979
 C345 C 0.19707 0.43045 0.11509
 C346 C 0.21044 0.44713 0.13179
 C347 C 0.23755 0.44606 0.13279
 C348 C 0.25127 0.42888 0.11687
 C349 C 0.29260 0.41390 0.09997
 C350 C 0.27837 0.42960 0.11661
 H351 H 0.31351 0.41566 0.10004
 H352 H 0.28874 0.44302 0.12900
 H353 H 0.31616 0.38304 0.06647
 H354 H 0.24713 0.34387 0.04072
 H355 H 0.17614 0.43109 0.11391
 H356 H 0.24802 0.45934 0.14525
 H357 H 0.22098 0.37049 0.06869
 H358 H 0.19917 0.40048 0.08716
 C359 C 0.73875 0.60287 0.08730
 C360 C 0.75255 0.61929 0.07028
 C361 C 0.73908 0.63569 0.05330
 C362 C 0.71196 0.63510 0.05211
 C363 C 0.69834 0.61845 0.06858
 C364 C 0.71149 0.60270 0.08612
 C365 C 0.75385 0.58559 0.10503
 C366 C 0.74206 0.57005 0.12402
 C367 C 0.75687 0.55349 0.13938
 C368 C 0.78374 0.55179 0.13605
 C369 C 0.79579 0.56773 0.11773
 C370 C 0.78113 0.58489 0.10257
 C371 C 0.77965 0.61857 0.06965
 C372 C 0.79360 0.60139 0.08509
 H373 H 0.79022 0.63101 0.05651
 H374 H 0.81451 0.60113 0.08342
 H375 H 0.74974 0.64812 0.04021
 H376 H 0.67739 0.61758 0.06786
 H377 H 0.74716 0.54150 0.15352
 H378 H 0.81663 0.56690 0.11541
 H379 H 0.69997 0.59011 0.09811
 H380 H 0.72147 0.57041 0.12737
 C381 C 0.74600 0.39436 0.91813
 C382 C 0.71872 0.39696 0.91855
 C383 C 0.70389 0.38189 0.93557
 C384 C 0.71576 0.36352 0.95162
 C385 C 0.74263 0.36002 0.95021
 C386 C 0.75761 0.37529 0.93379
 C387 C 0.76127 0.41200 0.90095
 C388 C 0.78854 0.41312 0.90139
 C389 C 0.80187 0.43051 0.88561
 C390 C 0.78840 0.44685 0.86870
 C391 C 0.76129 0.44578 0.86793
 C392 C 0.74765 0.42898 0.88432
 C393 C 0.70642 0.41444 0.90189
 C394 C 0.72055 0.42974 0.88480
 H395 H 0.68552 0.41621 0.90196
 H396 H 0.71012 0.44287 0.87220
 H397 H 0.68305 0.38432 0.93618
 H398 H 0.75219 0.34581 0.96229
 H399 H 0.82280 0.43118 0.88662
 H400 H 0.75076 0.45881 0.85530
 H401 H 0.77819 0.37181 0.93362
 H402 H 0.79992 0.40120 0.91417
 C403 C 0.25419 0.60385 0.91360
 C404 C 0.28133 0.60034 0.91513
 C405 C 0.29613 0.61550 0.93221
 C406 C 0.28437 0.63479 0.94727
 C407 C 0.25771 0.63915 0.94468
 C408 C 0.24276 0.62386 0.92817
 C409 C 0.23884 0.58602 0.89658
 C410 C 0.21155 0.58585 0.89612
 C411 C 0.19810 0.56809 0.88080
 C412 C 0.21143 0.55040 0.86522
 C413 C 0.23858 0.55061 0.86519
 C414 C 0.25233 0.56781 0.88120
 C415 C 0.29351 0.58177 0.89959
 C416 C 0.27937 0.56620 0.88264
 H417 H 0.31432 0.57930 0.90048
 H418 H 0.28971 0.55217 0.87099
 H419 H 0.31683 0.61235 0.93372
 H420 H 0.24821 0.65406 0.95595
 H421 H 0.17713 0.56812 0.88122
 H422 H 0.24899 0.53657 0.85360
 H423 H 0.22234 0.62804 0.92712
 H424 H 0.20022 0.59877 0.90792
 C425 C 0.08586 0.25406 0.39410
 C426 C 0.08573 0.28144 0.39679
 C427 C 0.06882 0.29658 0.38185
 C428 C 0.05241 0.28491 0.36364
 C429 C 0.05362 0.25794 0.36000
 C430 C 0.07003 0.24266 0.37505
 C431 C 0.10270 0.23845 0.41181
 C432 C 0.10196 0.21109 0.41274
 C433 C 0.11711 0.19747 0.43044
 C434 C 0.13370 0.21071 0.44733
 C435 C 0.13495 0.23791 0.44630
 C436 C 0.11918 0.25186 0.42913
 C437 C 0.10241 0.29352 0.41442
 C438 C 0.11910 0.27907 0.42992
 H439 H 0.10258 0.31450 0.41625
 H440 H 0.13162 0.28934 0.44325
 H441 H 0.06837 0.31748 0.38445
 H442 H 0.04129 0.24849 0.34592
 H443 H 0.11577 0.17647 0.43099
 H444 H 0.14736 0.24830 0.45967
 H445 H 0.06995 0.22201 0.37152
 H446 H 0.08936 0.19985 0.40046
 C447 C 0.08858 0.73600 0.60322
 C448 C 0.07154 0.74942 0.61989
 C449 C 0.05454 0.73549 0.63581
 C450 C 0.05329 0.70830 0.63445
 C451 C 0.06981 0.69505 0.61762
 C452 C 0.08742 0.70864 0.60236
 C453 C 0.10619 0.75159 0.58631
 C454 C 0.12515 0.74017 0.57047
 C455 C 0.14016 0.75544 0.55406
 C456 C 0.13650 0.78239 0.55285
 C457 C 0.11835 0.79408 0.56920
 C458 C 0.10353 0.77897 0.58618
 C459 C 0.07084 0.77663 0.61983
 C460 C 0.08613 0.79107 0.60298
 H461 H 0.05771 0.78692 0.63248
 H462 H 0.08434 0.81205 0.60316
 H463 H 0.04140 0.74587 0.64840
 H464 H 0.06904 0.67406 0.61619
 H465 H 0.15421 0.74602 0.54175
 H466 H 0.11580 0.81499 0.56875
 H467 H 0.09942 0.69741 0.58955
 H468 H 0.12869 0.71952 0.57043
 C469 C 0.91562 0.74660 0.39370
 C470 C 0.91553 0.71918 0.39588
 C471 C 0.93227 0.70419 0.38066
 C472 C 0.94863 0.71607 0.36263
 C473 C 0.94759 0.74309 0.35944
 C474 C 0.93139 0.75822 0.37482
 C475 C 0.89901 0.76201 0.41172
 C476 C 0.90011 0.78934 0.41329
 C477 C 0.88505 0.80276 0.43115
 C478 C 0.86819 0.78936 0.44756
 C479 C 0.86667 0.76220 0.44598
 C480 C 0.88237 0.74843 0.42867
 C481 C 0.89878 0.70691 0.41323
 C482 C 0.88220 0.72122 0.42892
 H483 H 0.89844 0.68591 0.41465
 H484 H 0.86958 0.71080 0.44199
 H485 H 0.93258 0.68324 0.38286
 H486 H 0.95990 0.75267 0.34550
 H487 H 0.88660 0.82373 0.43215
 H488 H 0.85405 0.75170 0.45901
 H489 H 0.93157 0.77893 0.37165
 H490 H 0.91292 0.80068 0.40137
 C491 C 0.90890 0.26001 0.60353
 C492 C 0.92581 0.24596 0.61986
 C493 C 0.94280 0.25927 0.63638
 C494 C 0.94416 0.28648 0.63599
 C495 C 0.92775 0.30038 0.61950
 C496 C 0.91015 0.28738 0.60363
 C497 C 0.89131 0.24506 0.58594
 C498 C 0.87246 0.25706 0.57032
 C499 C 0.85747 0.24239 0.55328
 C500 C 0.86105 0.21548 0.55121
 C501 C 0.87908 0.20320 0.56732
 C502 C 0.89387 0.21769 0.58492
 C503 C 0.92641 0.21877 0.61889
 C504 C 0.91114 0.20497 0.60144
 H505 H 0.93945 0.20802 0.63129
 H506 H 0.91285 0.18398 0.60093
 H507 H 0.95584 0.24840 0.64870
 H508 H 0.92861 0.32140 0.61881
 H509 H 0.84351 0.25225 0.54116
 H510 H 0.88155 0.18230 0.56620
 H511 H 0.89824 0.29908 0.59113
 H512 H 0.86901 0.27772 0.57093
 C513 C 0.39734 0.08865 0.26464
 C514 C 0.38025 0.07187 0.25124
 C515 C 0.36453 0.05443 0.26490
 C516 C 0.36641 0.05254 0.29176
 C517 C 0.38371 0.06876 0.30499
 C518 C 0.39885 0.08677 0.29168
 C519 C 0.41395 0.10682 0.24931
 C520 C 0.43018 0.12561 0.26076
 C521 C 0.44638 0.14106 0.24566
 C522 C 0.44695 0.13801 0.21886
 C523 C 0.43011 0.12014 0.20718
 C524 C 0.41338 0.10487 0.22213
 C525 C 0.37963 0.07189 0.22429
 C526 C 0.39619 0.08768 0.21004
 H527 H 0.36665 0.05894 0.21402
 H528 H 0.39549 0.08644 0.18922
 H529 H 0.35156 0.04156 0.25451
 H530 H 0.38555 0.06752 0.32573
 H531 H 0.45909 0.15489 0.25507
 H532 H 0.43008 0.11807 0.18640
 H533 H 0.41200 0.09855 0.30284
 H534 H 0.43074 0.12861 0.28130
 C535 C 0.60350 0.08872 0.73804
 C536 C 0.62073 0.07200 0.75127
 C537 C 0.63661 0.05487 0.73745
 C538 C 0.63481 0.05322 0.71056
 C539 C 0.61742 0.06941 0.69748
 C540 C 0.60210 0.08712 0.71097
 C541 C 0.58668 0.10653 0.75356
 C542 C 0.57021 0.12517 0.74231
 C543 C 0.55392 0.14034 0.75757
 C544 C 0.55350 0.13717 0.78437
 C545 C 0.57052 0.11939 0.79585
 C546 C 0.58733 0.10439 0.78073
 C547 C 0.62135 0.07179 0.77823
 C548 C 0.60468 0.08729 0.79264
 H549 H 0.63444 0.05890 0.78836
 H550 H 0.60542 0.08590 0.81344
 H551 H 0.64965 0.04203 0.74774
 H552 H 0.61563 0.06837 0.67673
 H553 H 0.54107 0.15408 0.74830
 H554 H 0.57066 0.11720 0.81661
 H555 H 0.58888 0.09888 0.69991
 H556 H 0.56953 0.12827 0.72179
 C557 C 0.39452 0.90964 0.73936
 C558 C 0.37781 0.92642 0.75313
 C559 C 0.36174 0.94385 0.73982
 C560 C 0.36292 0.94575 0.71292
 C561 C 0.37979 0.92947 0.69932
 C562 C 0.39523 0.91147 0.71229
 C563 C 0.41163 0.89159 0.75432
 C564 C 0.42760 0.87288 0.74251
 C565 C 0.44432 0.85759 0.75723
 C566 C 0.44569 0.86071 0.78401
 C567 C 0.42910 0.87849 0.79606
 C568 C 0.41186 0.89361 0.78150
 C569 C 0.37797 0.92644 0.78009
 C570 C 0.39497 0.91075 0.79396
 H571 H 0.36528 0.93937 0.79064
 H572 H 0.39488 0.91203 0.81479
 H573 H 0.34912 0.95676 0.75048
 H574 H 0.38108 0.93070 0.67854
 H575 H 0.45681 0.84383 0.74753
 H576 H 0.42968 0.88063 0.81682
 H577 H 0.40804 0.89967 0.70083
 H578 H 0.42758 0.86984 0.72197
 C579 C 0.60733 0.91201 0.25392
 C580 C 0.60488 0.91219 0.28106
 C581 C 0.62005 0.92920 0.29595
 C582 C 0.63829 0.94557 0.28424
 C583 C 0.64173 0.94425 0.25751
 C584 C 0.62643 0.92779 0.24250
 C585 C 0.58934 0.89516 0.23856
 C586 C 0.58804 0.89606 0.21148
 C587 C 0.57009 0.88092 0.19808
 C588 C 0.55334 0.86416 0.21125
 C589 C 0.55472 0.86274 0.23817
 C590 C 0.57210 0.87856 0.25193
 C591 C 0.58729 0.89544 0.29313
 C592 C 0.57161 0.87863 0.27889
 H593 H 0.58565 0.89528 0.31392
 H594 H 0.55833 0.86604 0.28914
 H595 H 0.61764 0.92972 0.31668
 H596 H 0.65583 0.95655 0.24804
 H597 H 0.56925 0.88239 0.17729
 H598 H 0.54142 0.85020 0.24849
 H599 H 0.62982 0.92778 0.22202
 H600 H 0.60018 0.90881 0.20030
 C601 C 0.39499 0.25226 0.91578
 C602 C 0.39676 0.27972 0.91588
 C603 C 0.38139 0.29435 0.93279
 C604 C 0.36356 0.28208 0.94909
 C605 C 0.36084 0.25500 0.94796
 C606 C 0.37641 0.24022 0.93163
 C607 C 0.41301 0.23727 0.89876
 C608 C 0.41496 0.20996 0.89951
 C609 C 0.43270 0.19694 0.88392
 C610 C 0.44860 0.21073 0.86689
 C611 C 0.44668 0.23789 0.86579
 C612 C 0.42951 0.25125 0.88199
 C613 C 0.41376 0.29239 0.89906
 C614 C 0.42942 0.27847 0.88213
 H615 H 0.41488 0.31342 0.89888
 H616 H 0.44215 0.28919 0.86942
 H617 H 0.38323 0.31534 0.93319
 H618 H 0.34706 0.24511 0.96024
 H619 H 0.43397 0.17597 0.88517
 H620 H 0.45933 0.24870 0.85305
 H621 H 0.37357 0.21946 0.93171
 H622 H 0.40342 0.19833 0.91240
 C623 C 0.60752 0.74567 0.91179
 C624 C 0.60540 0.71825 0.91207
 C625 C 0.62042 0.70358 0.92928
 C626 C 0.63820 0.71576 0.94580
 C627 C 0.64140 0.74277 0.94441
 C628 C 0.62620 0.75761 0.92772
 C629 C 0.58959 0.76075 0.89468
 C630 C 0.58789 0.78808 0.89531
 C631 C 0.56997 0.80115 0.87990
 C632 C 0.55364 0.78739 0.86317
 C633 C 0.55544 0.76023 0.86205
 C634 C 0.57278 0.74682 0.87808
 C635 C 0.58827 0.70564 0.89526
 C636 C 0.57266 0.71961 0.87829
 H637 H 0.58691 0.68462 0.89521
 H638 H 0.55972 0.70893 0.86568
 H639 H 0.61823 0.68263 0.92987
 H640 H 0.65515 0.75257 0.95685
 H641 H 0.56882 0.82213 0.88114
 H642 H 0.54249 0.74944 0.84952
 H643 H 0.62931 0.77833 0.92767
 H644 H 0.59972 0.79968 0.90802
 C645 C 0.39282 0.74479 0.08564
 C646 C 0.39607 0.71750 0.08454
 C647 C 0.38117 0.70260 0.06733
 C648 C 0.36245 0.71442 0.05163
 C649 C 0.35836 0.74126 0.05374
 C650 C 0.37336 0.75630 0.07043
 C651 C 0.41037 0.76021 0.10287
 C652 C 0.41071 0.78760 0.10311
 C653 C 0.42825 0.80111 0.11859
 C654 C 0.44557 0.78772 0.13457
 C655 C 0.44513 0.76048 0.13487
 C656 C 0.42812 0.74667 0.11873
 C657 C 0.41413 0.70527 0.10061
 C658 C 0.42949 0.71950 0.11766
 H659 H 0.41640 0.68434 0.10004
 H660 H 0.44316 0.70911 0.12969
 H661 H 0.38412 0.68177 0.06618
 H662 H 0.34389 0.75081 0.04197
 H663 H 0.42836 0.82215 0.11798
 H664 H 0.45885 0.75001 0.14680
 H665 H 0.36941 0.77686 0.07107
 H666 H 0.39809 0.79898 0.09100
 C667 C 0.60490 0.25400 0.08770
 C668 C 0.60261 0.28141 0.08714
 C669 C 0.61772 0.29606 0.07000
 C670 C 0.63578 0.28386 0.05391
 C671 C 0.63897 0.25686 0.05546
 C672 C 0.62368 0.24206 0.07203
 C673 C 0.58719 0.23894 0.10497
 C674 C 0.58582 0.21158 0.10472
 C675 C 0.56830 0.19846 0.12046
 C676 C 0.55203 0.21221 0.13715
 C677 C 0.55341 0.23942 0.13782
 C678 C 0.57038 0.25286 0.12146
 C679 C 0.58536 0.29402 0.10372
 C680 C 0.56993 0.28007 0.12085
 H681 H 0.58383 0.31502 0.10355
 H682 H 0.55696 0.29074 0.13335
 H683 H 0.61553 0.31700 0.06928
 H684 H 0.65294 0.24705 0.04336
 H685 H 0.56743 0.17745 0.11956
 H686 H 0.54047 0.25018 0.15030
 H687 H 0.62691 0.22137 0.07227
 H688 H 0.59765 0.19997 0.09209
 C689 C 0.25223 0.08714 0.60955
 C690 C 0.27953 0.08715 0.60728
 C691 C 0.29448 0.07012 0.62230
 C692 C 0.28267 0.05353 0.64021
 C693 C 0.25578 0.05473 0.64357
 C694 C 0.24070 0.07122 0.62839
 C695 C 0.23684 0.10391 0.59158
 C696 C 0.20962 0.10280 0.59001
 C697 C 0.19623 0.11781 0.57202
 C698 C 0.20955 0.13466 0.55549
 C699 C 0.23659 0.13631 0.55717
 C700 C 0.25034 0.12062 0.57459
 C701 C 0.29172 0.10404 0.58997
 C702 C 0.27745 0.12077 0.57434
 H703 H 0.31264 0.10434 0.58849
 H704 H 0.28780 0.13346 0.56126
 H705 H 0.31533 0.06970 0.61997
 H706 H 0.24626 0.04225 0.65742
 H707 H 0.17535 0.11617 0.57095
 H708 H 0.24703 0.14892 0.54407
 H709 H 0.22009 0.07111 0.63164
 H710 H 0.19835 0.08996 0.60197
 C711 C 0.74314 0.08666 0.39271
 C712 C 0.71722 0.08079 0.39925
 C713 C 0.70303 0.06285 0.38450
 C714 C 0.71386 0.05137 0.36241
 C715 C 0.73901 0.05874 0.35503
 C716 C 0.75352 0.07593 0.37004
 C717 C 0.75831 0.10418 0.41017
 C718 C 0.78521 0.10804 0.40761
 C719 C 0.79868 0.12368 0.42507
 C720 C 0.78559 0.13632 0.44504
 C721 C 0.75881 0.13287 0.44765
 C722 C 0.74526 0.11629 0.43089
 C723 C 0.70555 0.09301 0.42035
 C724 C 0.71909 0.11088 0.43544
 H725 H 0.68556 0.08887 0.42515
 H726 H 0.70914 0.11995 0.45144
 H727 H 0.68341 0.05805 0.39019
 H728 H 0.74790 0.05067 0.33793
 H729 H 0.81943 0.12592 0.42299
 H730 H 0.74878 0.14206 0.46355
 H731 H 0.77277 0.08066 0.36352
 H732 H 0.79630 0.09856 0.39276
 C733 C 0.74619 0.91288 0.60670
 C734 C 0.71902 0.91359 0.60319
 C735 C 0.70384 0.93063 0.61793
 C736 C 0.71527 0.94652 0.63676
 C737 C 0.74196 0.94464 0.64124
 C738 C 0.75729 0.92813 0.62639
 C739 C 0.76193 0.89606 0.58915
 C740 C 0.78921 0.89649 0.58891
 C741 C 0.80301 0.88142 0.57133
 C742 C 0.79003 0.86519 0.55390
 C743 C 0.76291 0.86424 0.55422
 C744 C 0.74879 0.88000 0.57123
 C745 C 0.70719 0.89735 0.58498
 C746 C 0.72172 0.88055 0.56968
 H747 H 0.68635 0.89760 0.58253
 H748 H 0.71165 0.86837 0.55589
 H749 H 0.68312 0.93159 0.61470
 H750 H 0.75120 0.95655 0.65581
 H751 H 0.82395 0.88252 0.57131
 H752 H 0.75276 0.85212 0.54040
 H753 H 0.77773 0.92768 0.63057
 H754 H 0.80026 0.90883 0.60163
 C755 C 0.25505 0.91256 0.39610
 C756 C 0.28233 0.91264 0.39871
 C757 C 0.29740 0.92966 0.38385
 C758 C 0.28574 0.94614 0.36573
 C759 C 0.25887 0.94496 0.36212
 C760 C 0.24366 0.92848 0.37715
 C761 C 0.23953 0.89559 0.41372
 C762 C 0.21228 0.89646 0.41484
 C763 C 0.19874 0.88100 0.43232
 C764 C 0.21196 0.86399 0.44877
 C765 C 0.23905 0.86274 0.44764
 C766 C 0.25291 0.87881 0.43073
 C767 C 0.29440 0.89576 0.41612
 C768 C 0.28002 0.87885 0.43144
 H769 H 0.31530 0.89555 0.41789
 H770 H 0.29027 0.86612 0.44457
 H771 H 0.31824 0.93010 0.38638
 H772 H 0.24946 0.95737 0.34811
 H773 H 0.17783 0.88235 0.43297
 H774 H 0.24941 0.85001 0.46071
 H775 H 0.22307 0.92856 0.37366
 H776 H 0.20108 0.90936 0.40285
 C777 C 0.08673 0.38829 0.74669
 C778 C 0.08620 0.39112 0.71959
 C779 C 0.06876 0.37641 0.70478
 C780 C 0.05225 0.35829 0.71650
 C781 C 0.05396 0.35435 0.74314
 C782 C 0.07089 0.36920 0.75811
 C783 C 0.10392 0.40601 0.76200
 C784 C 0.10337 0.40708 0.78910
 C785 C 0.11866 0.42496 0.80245
 C786 C 0.13522 0.44185 0.78921
 C787 C 0.13638 0.44061 0.76228
 C788 C 0.12041 0.42332 0.74859
 C789 C 0.10294 0.40867 0.70747
 C790 C 0.12003 0.42407 0.72164
 H791 H 0.10283 0.41056 0.68669
 H792 H 0.13256 0.43739 0.71135
 H793 H 0.06793 0.37917 0.68410
 H794 H 0.04157 0.34030 0.75257
 H795 H 0.11741 0.42569 0.82326
 H796 H 0.14878 0.45400 0.75191
 H797 H 0.07116 0.36552 0.77854
 H798 H 0.09075 0.39484 0.80033
 C799 C 0.08817 0.60313 0.25950
 C800 C 0.07139 0.62026 0.24623
 C801 C 0.05451 0.63644 0.26004
 C802 C 0.05317 0.63494 0.28695
 C803 C 0.06941 0.61761 0.30005
 C804 C 0.08687 0.60205 0.28658
 C805 C 0.10571 0.58601 0.24404
 C806 C 0.12447 0.56972 0.25535
 C807 C 0.13942 0.55316 0.24018
 C808 C 0.13591 0.55224 0.21344
 C809 C 0.11799 0.56906 0.20187
 C810 C 0.10322 0.58618 0.21690
 C811 C 0.07083 0.62045 0.21927
 C812 C 0.08605 0.60343 0.20493
 H813 H 0.05789 0.63346 0.20909
 H814 H 0.08439 0.60383 0.18413
 H815 H 0.04160 0.64943 0.24976
 H816 H 0.06858 0.61605 0.32083
 H817 H 0.15329 0.54049 0.24951
 H818 H 0.11556 0.56883 0.18113
 H819 H 0.09866 0.58889 0.29768
 H820 H 0.12786 0.56944 0.27584
 C821 C 0.91173 0.39846 0.26211
 C822 C 0.92819 0.38118 0.24867
 C823 C 0.94523 0.36497 0.26231
 C824 C 0.94707 0.36660 0.28920
 C825 C 0.93121 0.38413 0.30245
 C826 C 0.91359 0.39971 0.28916
 C827 C 0.89389 0.41548 0.24684
 C828 C 0.87532 0.43178 0.25837
 C829 C 0.85993 0.44812 0.24335
 C830 C 0.86281 0.44882 0.21654
 C831 C 0.88062 0.43207 0.20477
 C832 C 0.89580 0.41513 0.21966
 C833 C 0.92823 0.38085 0.22170
 C834 C 0.91275 0.39782 0.20751
 H835 H 0.94094 0.36775 0.21139
 H836 H 0.91398 0.39727 0.18669
 H837 H 0.95786 0.35184 0.25191
 H838 H 0.93245 0.38580 0.32321
 H839 H 0.84616 0.46076 0.25284
 H840 H 0.88256 0.43213 0.18399
 H841 H 0.90208 0.41301 0.30037
 H842 H 0.87236 0.43221 0.27891
 C843 C 0.91000 0.60199 0.73933
 C844 C 0.92755 0.61859 0.75237
 C845 C 0.94470 0.63428 0.73833
 C846 C 0.94554 0.63279 0.71139
 C847 C 0.92842 0.61610 0.69851
 C848 C 0.91070 0.60105 0.71222
 C849 C 0.89235 0.58518 0.75503
 C850 C 0.87308 0.56927 0.74399
 C851 C 0.85816 0.55281 0.75934
 C852 C 0.86221 0.55167 0.78600
 C853 C 0.88061 0.56819 0.79732
 C854 C 0.89539 0.58516 0.78212
 C855 C 0.92860 0.61866 0.77932
 C856 C 0.91320 0.60196 0.79385
 H857 H 0.94211 0.63128 0.78931
 H858 H 0.91527 0.60222 0.81462
 H859 H 0.95826 0.64678 0.74843
 H860 H 0.92882 0.61459 0.67771
 H861 H 0.84392 0.54038 0.75019
 H862 H 0.88347 0.56779 0.81800
 H863 H 0.89826 0.58833 0.70127
 H864 H 0.86927 0.56914 0.72357
 C865 C 0.74358 0.60592 0.91359
 C866 C 0.71729 0.59983 0.91821
 C867 C 0.70277 0.61486 0.93553
 C868 C 0.71371 0.63674 0.94769
 C869 C 0.73933 0.64365 0.94162
 C870 C 0.75412 0.62840 0.92500
 C871 C 0.75899 0.58816 0.89665
 C872 C 0.78605 0.59032 0.89383
 C873 C 0.79970 0.57259 0.87872
 C874 C 0.78669 0.55268 0.86560
 C875 C 0.75975 0.55049 0.86799
 C876 C 0.74596 0.56757 0.88397
 C877 C 0.70562 0.57888 0.90542
 C878 C 0.71950 0.56347 0.88821
 H879 H 0.68537 0.57443 0.90862
 H880 H 0.70954 0.54759 0.87869
 H881 H 0.68283 0.60952 0.93935
 H882 H 0.74835 0.66057 0.95025
 H883 H 0.82054 0.57441 0.87729
 H884 H 0.74973 0.53467 0.85840
 H885 H 0.77371 0.63458 0.92128
 H886 H 0.79710 0.60508 0.90370
 C887 C 0.25513 0.39038 0.91424
 C888 C 0.28156 0.39621 0.91844
 C889 C 0.29625 0.38113 0.93556
 C890 C 0.28538 0.35936 0.94789
 C891 C 0.25967 0.35249 0.94205
 C892 C 0.24466 0.36790 0.92567
 C893 C 0.23955 0.40838 0.89767
 C894 C 0.21238 0.40672 0.89550
 C895 C 0.19866 0.42458 0.88054
 C896 C 0.21172 0.44406 0.86693
 C897 C 0.23872 0.44585 0.86884
 C898 C 0.25259 0.42871 0.88468
 C899 C 0.29322 0.41698 0.90544
 C900 C 0.27919 0.43247 0.88841
 H901 H 0.31358 0.42121 0.90830
 H902 H 0.28915 0.44817 0.87866
 H903 H 0.31628 0.38638 0.93914
 H904 H 0.25073 0.33564 0.95083
 H905 H 0.17776 0.42309 0.87945
 H906 H 0.24879 0.46136 0.85886
 H907 H 0.22495 0.36189 0.92217
 H908 H 0.20137 0.39221 0.90573
 C909 C 0.25496 0.60635 0.08578
 C910 C 0.28127 0.60027 0.08138
 C911 C 0.29588 0.61507 0.06396
 C912 C 0.28506 0.63677 0.05145
 C913 C 0.25944 0.64380 0.05735
 C914 C 0.24453 0.62871 0.07408
 C915 C 0.23945 0.58869 0.10278
 C916 C 0.21236 0.59072 0.10537
 C917 C 0.19863 0.57301 0.12050
 C918 C 0.21161 0.55330 0.13389
 C919 C 0.23857 0.55128 0.13175
 C920 C 0.25243 0.56829 0.11573
 C921 C 0.29289 0.57952 0.09446
 C922 C 0.27893 0.56427 0.11173
 H923 H 0.31316 0.57510 0.09143
 H924 H 0.28885 0.54853 0.12147
 H925 H 0.31583 0.60967 0.06030
 H926 H 0.25053 0.66059 0.04845
 H927 H 0.17777 0.57470 0.12175
 H928 H 0.24858 0.53561 0.14154
 H929 H 0.22490 0.63488 0.07763
 H930 H 0.20136 0.60533 0.09529
 C931 C 0.74252 0.39187 0.09065
 C932 C 0.71627 0.39791 0.08575
 C933 C 0.70195 0.38303 0.06809
 C934 C 0.71301 0.36133 0.05582
 C935 C 0.73850 0.35429 0.06229
 C936 C 0.75314 0.36945 0.07926
 C937 C 0.75781 0.40971 0.10773
 C938 C 0.78488 0.40782 0.11063
 C939 C 0.79844 0.42580 0.12563
 C940 C 0.78531 0.44566 0.13861
 C941 C 0.75835 0.44750 0.13627
 C942 C 0.74465 0.43022 0.12032
 C943 C 0.70445 0.41870 0.09855
 C944 C 0.71818 0.43412 0.11594
 H945 H 0.68421 0.42307 0.09516
 H946 H 0.70813 0.44992 0.12541
 H947 H 0.68206 0.38841 0.06401
 H948 H 0.74758 0.33748 0.05360
 H949 H 0.81931 0.42426 0.12705
 H950 H 0.74824 0.46328 0.14575
 H951 H 0.77270 0.36329 0.08323
 H952 H 0.79601 0.39313 0.10081
 C953 C 0.91497 0.74213 0.60518
 C954 C 0.91904 0.71572 0.59885
 C955 C 0.93614 0.70057 0.61356
 C956 C 0.94855 0.71096 0.63542
 C957 C 0.94296 0.73670 0.64263
 C958 C 0.92661 0.75214 0.62764
 C959 C 0.89829 0.75820 0.58773
 C960 C 0.89614 0.78541 0.59009
 C961 C 0.88118 0.79965 0.57268
 C962 C 0.86754 0.78707 0.55294
 C963 C 0.86933 0.76001 0.55052
 C964 C 0.88518 0.74563 0.56724
 C965 C 0.90590 0.70454 0.57797
 C966 C 0.88885 0.71903 0.56290
 H967 H 0.90867 0.68420 0.57334
 H968 H 0.87901 0.70942 0.54709
 H969 H 0.93956 0.68055 0.60801
 H970 H 0.95180 0.74530 0.65954
 H971 H 0.88021 0.82059 0.57465
 H972 H 0.85935 0.75032 0.53483
 H973 H 0.92326 0.77181 0.63399
 H974 H 0.90641 0.79612 0.60477
 C975 C 0.91133 0.26381 0.39813
 C976 C 0.92314 0.25111 0.37705
 C977 C 0.94038 0.26473 0.36106
 C978 C 0.94758 0.29051 0.36674
 C979 C 0.93644 0.30267 0.38829
 C980 C 0.91837 0.28968 0.40356
 C981 C 0.89289 0.24867 0.41460
 C982 C 0.87790 0.26020 0.43416
 C983 C 0.86204 0.24499 0.44987
 C984 C 0.86109 0.21797 0.44672
 C985 C 0.87509 0.20641 0.42668
 C986 C 0.89042 0.22163 0.41021
 C987 C 0.91855 0.22462 0.37272
 C988 C 0.90311 0.21004 0.38936
 H989 H 0.92776 0.21477 0.35673
 H990 H 0.90088 0.18943 0.38569
 H991 H 0.94913 0.25472 0.34489
 H992 H 0.94156 0.32244 0.39340
 H993 H 0.85118 0.25428 0.46513
 H994 H 0.87390 0.18556 0.42384
 H995 H 0.91069 0.29998 0.41994
 H996 H 0.87816 0.28087 0.43759
 C997 C 0.08230 0.25349 0.60558
 C998 C 0.07821 0.28012 0.60024
 C999 C 0.06110 0.29470 0.61546
 C1000 C 0.04873 0.28350 0.63689
 C1001 C 0.05429 0.25748 0.64307
 C1002 C 0.07062 0.24262 0.62756
 C1003 C 0.09915 0.23813 0.58773
 C1004 C 0.10143 0.21087 0.58912
 C1005 C 0.11682 0.19736 0.57156
 C1006 C 0.13073 0.21074 0.55261
 C1007 C 0.12866 0.23784 0.55104
 C1008 C 0.11242 0.25151 0.56793
 C1009 C 0.09141 0.29210 0.57991
 C1010 C 0.10864 0.27823 0.56451
 H1011 H 0.08861 0.31259 0.57602
 H1012 H 0.11859 0.28846 0.54920
 H1013 H 0.05768 0.31493 0.61070
 H1014 H 0.04547 0.24822 0.65960
 H1015 H 0.11800 0.17639 0.57287
 H1016 H 0.13887 0.24816 0.53594
 H1017 H 0.07398 0.22273 0.63317
 H1018 H 0.09101 0.19958 0.60320
 C1019 C 0.08797 0.74191 0.39416
 C1020 C 0.08234 0.71576 0.40041
 C1021 C 0.06468 0.70152 0.38537
 C1022 C 0.05324 0.71255 0.36331
 C1023 C 0.06045 0.73792 0.35621
 C1024 C 0.07737 0.75247 0.37149
 C1025 C 0.10506 0.75715 0.41198
 C1026 C 0.10855 0.78423 0.40973
 C1027 C 0.12366 0.79778 0.42757
 C1028 C 0.13616 0.78462 0.44762
 C1029 C 0.13316 0.75766 0.44990
 C1030 C 0.11706 0.74399 0.43275
 C1031 C 0.09447 0.70396 0.42152
 C1032 C 0.11196 0.71760 0.43696
 H1033 H 0.09053 0.68380 0.42609
 H1034 H 0.12094 0.70754 0.45297
 H1035 H 0.06002 0.68173 0.39085
 H1036 H 0.05243 0.74698 0.33914
 H1037 H 0.12556 0.81867 0.42573
 H1038 H 0.14225 0.74757 0.46586
 H1039 H 0.08195 0.77190 0.36518
 H1040 H 0.09914 0.79539 0.39486
 C1041 C 0.60204 0.91186 0.73833
 C1042 C 0.61803 0.92965 0.75180
 C1043 C 0.63436 0.94661 0.73818
 C1044 C 0.63414 0.94700 0.71118
 C1045 C 0.61791 0.92975 0.69786
 C1046 C 0.60223 0.91224 0.71119
 C1047 C 0.58481 0.89416 0.75357
 C1048 C 0.56967 0.87448 0.74215
 C1049 C 0.55313 0.85920 0.75705
 C1050 C 0.55107 0.86328 0.78366
 C1051 C 0.56664 0.88229 0.79536
 C1052 C 0.58376 0.89741 0.78062
 C1053 C 0.61694 0.93105 0.77871
 C1054 C 0.59984 0.91562 0.79277
 H1055 H 0.62905 0.94477 0.78904
 H1056 H 0.59930 0.91790 0.81350
 H1057 H 0.64646 0.96029 0.74860
 H1058 H 0.61733 0.92983 0.67702
 H1059 H 0.54144 0.84453 0.74760
 H1060 H 0.56553 0.88523 0.81601
 H1061 H 0.58998 0.89964 0.69989
 H1062 H 0.57030 0.87053 0.72177
 C1063 C 0.39694 0.91099 0.26172
 C1064 C 0.38054 0.92873 0.24875
 C1065 C 0.36459 0.94562 0.26286
 C1066 C 0.36558 0.94598 0.28984
 C1067 C 0.38213 0.92872 0.30266
 C1068 C 0.39745 0.91128 0.28886
 C1069 C 0.41390 0.89352 0.24596
 C1070 C 0.42959 0.87402 0.25689
 C1071 C 0.44599 0.85911 0.24149
 C1072 C 0.44736 0.86338 0.21488
 C1073 C 0.43117 0.88213 0.20367
 C1074 C 0.41423 0.89689 0.21891
 C1075 C 0.38087 0.93019 0.22182
 C1076 C 0.39767 0.91495 0.20726
 H1077 H 0.36842 0.94385 0.21187
 H1078 H 0.39766 0.91730 0.18653
 H1079 H 0.35221 0.95929 0.25281
 H1080 H 0.38329 0.92875 0.32348
 H1081 H 0.45817 0.84463 0.25057
 H1082 H 0.43174 0.88521 0.18303
 H1083 H 0.41000 0.89868 0.29978
 H1084 H 0.42953 0.86998 0.27725
 C1085 C 0.60356 0.08735 0.26103
 C1086 C 0.61965 0.07003 0.24719
 C1087 C 0.63600 0.05281 0.26046
 C1088 C 0.63565 0.05166 0.28743
 C1089 C 0.61931 0.06841 0.30110
 C1090 C 0.60363 0.08621 0.28814
 C1091 C 0.58628 0.10531 0.24617
 C1092 C 0.57110 0.12464 0.25801
 C1093 C 0.55436 0.14004 0.24344
 C1094 C 0.55214 0.13642 0.21678
 C1095 C 0.56783 0.11787 0.20466
 C1096 C 0.58516 0.10266 0.21906
 C1097 C 0.61859 0.06931 0.22025
 C1098 C 0.60135 0.08490 0.20652
 H1099 H 0.63077 0.05595 0.20963
 H1100 H 0.60077 0.08311 0.18574
 H1101 H 0.64820 0.03950 0.24978
 H1102 H 0.61864 0.06773 0.32193
 H1103 H 0.54258 0.15438 0.25320
 H1104 H 0.56661 0.11534 0.18396
 H1105 H 0.59128 0.09840 0.29968
 H1106 H 0.57184 0.12819 0.27846
 C1107 C 0.39410 0.08509 0.74704
 C1108 C 0.39583 0.08534 0.71984
 C1109 C 0.38041 0.06843 0.70508
 C1110 C 0.36257 0.05177 0.71699
 C1111 C 0.35989 0.05257 0.74383
 C1112 C 0.37550 0.06890 0.75871
 C1113 C 0.41218 0.10207 0.76217
 C1114 C 0.41416 0.10094 0.78922
 C1115 C 0.43200 0.11645 0.80237
 C1116 C 0.44799 0.13380 0.78900
 C1117 C 0.44602 0.13532 0.76211
 C1118 C 0.42874 0.11918 0.74859
 C1119 C 0.41287 0.10251 0.70757
 C1120 C 0.42861 0.11940 0.72163
 H1121 H 0.41397 0.10297 0.68674
 H1122 H 0.44138 0.13237 0.71121
 H1123 H 0.38224 0.06829 0.68429
 H1124 H 0.34612 0.04002 0.75345
 H1125 H 0.43331 0.11486 0.82313
 H1126 H 0.45873 0.14830 0.75160
 H1127 H 0.37268 0.06854 0.77927
 H1128 H 0.40257 0.08779 0.80053
 C1129 C 0.60476 0.74606 0.08367
 C1130 C 0.60222 0.71866 0.08313
 C1131 C 0.61750 0.70382 0.06630
 C1132 C 0.63604 0.71579 0.05055
 C1133 C 0.63951 0.74276 0.05215
 C1134 C 0.62403 0.75777 0.06838
 C1135 C 0.58683 0.76134 0.10055
 C1136 C 0.58565 0.78871 0.10016
 C1137 C 0.56802 0.80202 0.11565
 C1138 C 0.55146 0.78845 0.13223
 C1139 C 0.55256 0.76123 0.13293
 C1140 C 0.56963 0.74760 0.11681
 C1141 C 0.58452 0.70626 0.09942
 C1142 C 0.56894 0.72039 0.11626
 H1143 H 0.58278 0.68527 0.09927
 H1144 H 0.55566 0.70986 0.12857
 H1145 H 0.61506 0.68290 0.06555
 H1146 H 0.65381 0.75242 0.04030
 H1147 H 0.56737 0.82303 0.11470
 H1148 H 0.53941 0.75060 0.14531
 H1149 H 0.62746 0.77844 0.06866
 H1150 H 0.59775 0.80017 0.08764
 C1151 C 0.39501 0.25916 0.09033
 C1152 C 0.37869 0.24510 0.07336
 C1153 C 0.36255 0.25841 0.05602
 C1154 C 0.36329 0.28561 0.05445
 C1155 C 0.37973 0.29948 0.07099
 C1156 C 0.39523 0.28651 0.08886
 C1157 C 0.41223 0.24424 0.10827
 C1158 C 0.42787 0.25633 0.12704
 C1159 C 0.44460 0.24169 0.14237
 C1160 C 0.44631 0.21468 0.13928
 C1161 C 0.43013 0.20232 0.12131
 C1162 C 0.41288 0.21683 0.10611
 C1163 C 0.37931 0.21789 0.07310
 C1164 C 0.39637 0.20408 0.08879
 H1165 H 0.36693 0.20711 0.06004
 H1166 H 0.39660 0.18307 0.08737
 H1167 H 0.35025 0.24754 0.04292
 H1168 H 0.38068 0.32049 0.07003
 H1169 H 0.45675 0.25165 0.15625
 H1170 H 0.43096 0.18138 0.11916
 H1171 H 0.40769 0.29823 0.10083
 H1172 H 0.42756 0.27704 0.13017
 C1173 C 0.60512 0.26010 0.91232
 C1174 C 0.62180 0.24632 0.92912
 C1175 C 0.63771 0.25988 0.94653
 C1176 C 0.63639 0.28704 0.94835
 C1177 C 0.61961 0.30063 0.93196
 C1178 C 0.60433 0.28742 0.91402
 C1179 C 0.58812 0.24488 0.89435
 C1180 C 0.57205 0.25669 0.87577
 C1181 C 0.55549 0.24172 0.86049
 C1182 C 0.55436 0.21467 0.86345
 C1183 C 0.57101 0.20262 0.88116
 C1184 C 0.58808 0.21744 0.89631
 C1185 C 0.62179 0.21910 0.92914
 C1186 C 0.60498 0.20499 0.91342
 H1187 H 0.63447 0.20853 0.94206
 H1188 H 0.60521 0.18397 0.91468
 H1189 H 0.65028 0.24921 0.95949
 H1190 H 0.61822 0.32161 0.93309
 H1191 H 0.54296 0.25145 0.84682
 H1192 H 0.57063 0.18165 0.88322
 H1193 H 0.59158 0.29892 0.90217
 H1194 H 0.57188 0.27742 0.87281
 C1195 C 0.39642 0.73837 0.91137
 C1196 C 0.37993 0.75220 0.92827
 C1197 C 0.36356 0.73866 0.94519
 C1198 C 0.36421 0.71143 0.94642
 C1199 C 0.38087 0.69780 0.93001
 C1200 C 0.39661 0.71101 0.91255
 C1201 C 0.41376 0.75354 0.89376
 C1202 C 0.42950 0.74170 0.87501
 C1203 C 0.44612 0.75658 0.85981
 C1204 C 0.44767 0.78359 0.86302
 C1205 C 0.43151 0.79569 0.88110
 C1206 C 0.41433 0.78095 0.89614
 C1207 C 0.38056 0.77941 0.92882
 C1208 C 0.39771 0.79345 0.91345
 H1209 H 0.36807 0.79002 0.94185
 H1210 H 0.39788 0.81445 0.91506
 H1211 H 0.35110 0.74935 0.95821
 H1212 H 0.38178 0.67678 0.93073
 H1213 H 0.45826 0.74680 0.84586
 H1214 H 0.43222 0.81663 0.88337
 H1215 H 0.40921 0.69945 0.90063
 H1216 H 0.42929 0.72101 0.87174
 C1217 C 0.74814 0.91381 0.39359
 C1218 C 0.72081 0.91334 0.39557
 C1219 C 0.70573 0.92988 0.38017
 C1220 C 0.71741 0.94643 0.36214
 C1221 C 0.74436 0.94573 0.35912
 C1222 C 0.75958 0.92974 0.37469
 C1223 C 0.76362 0.89740 0.41182
 C1224 C 0.79082 0.89886 0.41358
 C1225 C 0.80428 0.88389 0.43157
 C1226 C 0.79108 0.86679 0.44791
 C1227 C 0.76404 0.86497 0.44618
 C1228 C 0.75022 0.88055 0.42874
 C1229 C 0.70873 0.89642 0.41292
 C1230 C 0.72311 0.88002 0.42879
 H1231 H 0.68780 0.89579 0.41420
 H1232 H 0.71283 0.86724 0.44183
 H1233 H 0.68484 0.92993 0.38226
 H1234 H 0.75380 0.95820 0.34520
 H1235 H 0.82515 0.88568 0.43266
 H1236 H 0.75366 0.85216 0.45913
 H1237 H 0.78023 0.93020 0.37168
 H1238 H 0.80200 0.91185 0.40169
 C1239 C 0.25354 0.91325 0.60697
 C1240 C 0.28071 0.91478 0.60381
 C1241 C 0.29530 0.93220 0.61881
 C1242 C 0.28332 0.94764 0.63760
 C1243 C 0.25661 0.94510 0.64160
 C1244 C 0.24185 0.92824 0.62645
 C1245 C 0.23843 0.89578 0.58936
 C1246 C 0.21116 0.89517 0.58892
 C1247 C 0.19795 0.87941 0.57139
 C1248 C 0.21153 0.86351 0.55419
 C1249 C 0.23868 0.86362 0.55469
 C1250 C 0.25218 0.88006 0.57167
 C1251 C 0.29313 0.89889 0.58576
 C1252 C 0.27922 0.88156 0.57038
 H1253 H 0.31397 0.89978 0.58356
 H1254 H 0.28976 0.86965 0.55675
 H1255 H 0.31604 0.93367 0.61595
 H1256 H 0.24695 0.95666 0.65612
 H1257 H 0.17698 0.87972 0.57122
 H1258 H 0.24929 0.85177 0.54105
 H1259 H 0.22138 0.92725 0.63033
 H1260 H 0.19964 0.90718 0.60146
 C1261 C 0.26031 0.08686 0.39961
 C1262 C 0.24709 0.06977 0.38272
 C1263 C 0.26110 0.05291 0.36668
 C1264 C 0.28820 0.05189 0.36808
 C1265 C 0.30125 0.06848 0.38514
 C1266 C 0.28757 0.08592 0.40054
 C1267 C 0.24464 0.10436 0.41660
 C1268 C 0.25587 0.12336 0.43269
 C1269 C 0.24051 0.13835 0.44905
 C1270 C 0.21364 0.13463 0.44997
 C1271 C 0.20216 0.11639 0.43341
 C1272 C 0.21737 0.10159 0.41649
 C1273 C 0.21998 0.06890 0.38264
 C1274 C 0.20547 0.08411 0.39949
 H1275 H 0.20983 0.05572 0.36983
 H1276 H 0.18457 0.08222 0.39915
 H1277 H 0.25087 0.03973 0.35391
 H1278 H 0.32216 0.06791 0.38662
 H1279 H 0.24979 0.15245 0.46151
 H1280 H 0.18133 0.11378 0.43364
 H1281 H 0.29866 0.09798 0.41348
 H1282 H 0.27643 0.12696 0.43296
 C1283 C 0.74499 0.08556 0.60390
 C1284 C 0.71768 0.08521 0.60169
 C1285 C 0.70297 0.06824 0.61698
 C1286 C 0.71499 0.05209 0.63516
 C1287 C 0.74191 0.05352 0.63835
 C1288 C 0.75678 0.06993 0.62286
 C1289 C 0.76009 0.10256 0.58588
 C1290 C 0.78733 0.10204 0.58438
 C1291 C 0.80045 0.11760 0.56664
 C1292 C 0.78681 0.13439 0.55028
 C1293 C 0.75972 0.13523 0.55173
 C1294 C 0.74628 0.11906 0.56892
 C1295 C 0.70520 0.10179 0.58428
 C1296 C 0.71917 0.11870 0.56859
 H1297 H 0.68427 0.10178 0.58282
 H1298 H 0.70859 0.13120 0.55551
 H1299 H 0.68210 0.06762 0.61476
 H1300 H 0.75159 0.04134 0.65237
 H1301 H 0.82137 0.11655 0.56575
 H1302 H 0.74901 0.14777 0.53876
 H1303 H 0.77742 0.07005 0.62601
 H1304 H 0.79883 0.08936 0.59631
 C1305 C 0.91271 0.60742 0.25479
 C1306 C 0.91334 0.60476 0.28191
 C1307 C 0.93084 0.61955 0.29660
 C1308 C 0.94730 0.63763 0.28474
 C1309 C 0.94564 0.64124 0.25804
 C1310 C 0.92867 0.62630 0.24320
 C1311 C 0.89518 0.58987 0.23963
 C1312 C 0.89537 0.58884 0.21252
 C1313 C 0.87962 0.57123 0.19931
 C1314 C 0.86295 0.55456 0.21271
 C1315 C 0.86221 0.55575 0.23967
 C1316 C 0.87860 0.57278 0.25321
 C1317 C 0.89654 0.58736 0.29417
 C1318 C 0.87923 0.57205 0.28016
 H1319 H 0.89675 0.58555 0.31496
 H1320 H 0.86664 0.55889 0.29057
 H1321 H 0.93164 0.61701 0.31731
 H1322 H 0.95800 0.65521 0.24846
 H1323 H 0.88060 0.57054 0.17849
 H1324 H 0.84974 0.54252 0.25017
 H1325 H 0.92840 0.62980 0.22274
 H1326 H 0.90801 0.60092 0.20116
 C1327 C 0.91316 0.39231 0.74721
 C1328 C 0.91359 0.39513 0.72010
 C1329 C 0.93058 0.38004 0.70522
 C1330 C 0.94660 0.36144 0.71686
 C1331 C 0.94510 0.35768 0.74354
 C1332 C 0.92871 0.37296 0.75858
 C1333 C 0.89618 0.41011 0.76256
 C1334 C 0.89676 0.41108 0.78968
 C1335 C 0.88138 0.42878 0.80308
 C1336 C 0.86468 0.44559 0.78988
 C1337 C 0.86364 0.44457 0.76291
 C1338 C 0.87970 0.42747 0.74918
 C1339 C 0.89703 0.41291 0.70804
 C1340 C 0.88009 0.42836 0.72223
 H1341 H 0.89707 0.41484 0.68726
 H1342 H 0.86761 0.44175 0.71197
 H1343 H 0.93124 0.38268 0.68452
 H1344 H 0.95714 0.34329 0.75293
 H1345 H 0.88258 0.42937 0.82390
 H1346 H 0.85117 0.45794 0.75258
 H1347 H 0.92852 0.36931 0.77902
 H1348 H 0.90942 0.39885 0.80088
 C1349 C 0.08651 0.59802 0.73904
 C1350 C 0.06948 0.61496 0.75220
 C1351 C 0.05260 0.63110 0.73825
 C1352 C 0.05153 0.62977 0.71130
 C1353 C 0.06797 0.61255 0.69832
 C1354 C 0.08541 0.59703 0.71194
 C1355 C 0.10420 0.58109 0.75464
 C1356 C 0.12325 0.56509 0.74348
 C1357 C 0.13848 0.54884 0.75877
 C1358 C 0.13497 0.54793 0.78551
 C1359 C 0.11665 0.56440 0.79692
 C1360 C 0.10161 0.58123 0.78177
 C1361 C 0.06874 0.61506 0.77915
 C1362 C 0.08411 0.59821 0.79360
 H1363 H 0.05559 0.62789 0.78924
 H1364 H 0.08234 0.59858 0.81438
 H1365 H 0.03954 0.64397 0.74844
 H1366 H 0.06735 0.61111 0.67752
 H1367 H 0.15262 0.53643 0.74954
 H1368 H 0.11418 0.56418 0.81765
 H1369 H 0.09740 0.58401 0.70092
 H1370 H 0.12670 0.56482 0.72302
 C1371 C 0.08583 0.39312 0.25377
 C1372 C 0.08650 0.39546 0.28092
 C1373 C 0.06959 0.38062 0.29616
 C1374 C 0.05245 0.36280 0.28480
 C1375 C 0.05287 0.35945 0.25802
 C1376 C 0.06924 0.37445 0.24265
 C1377 C 0.10273 0.41078 0.23811
 C1378 C 0.10125 0.41221 0.21104
 C1379 C 0.11653 0.42984 0.19741
 C1380 C 0.13401 0.44616 0.21030
 C1381 C 0.13597 0.44464 0.23719
 C1382 C 0.12007 0.42758 0.25118
 C1383 C 0.10398 0.41261 0.29268
 C1384 C 0.12072 0.42797 0.27814
 H1385 H 0.10476 0.41416 0.31347
 H1386 H 0.13389 0.44090 0.28818
 H1387 H 0.06975 0.38298 0.31690
 H1388 H 0.03994 0.34568 0.24882
 H1389 H 0.11462 0.43078 0.17666
 H1390 H 0.14907 0.45758 0.24734
 H1391 H 0.06853 0.37119 0.22215
 H1392 H 0.08796 0.40037 0.20009
   
