data_POSCAR
  _audit_creation_date              2014-09-24
  _audit_creation_method            'ToBaCCo'
  _symmetry_space_group_name_H-M    'P1'
  _symmetry_Int_Tables_number       1
  _symmetry_cell_setting            triclinic
  loop_
  _symmetry_equiv_pos_as_xyz
 x,y,z
_cell_length_a 48.3152
_cell_length_b 52.3482
_cell_length_c 45.9003
_cell_angle_alpha 88.959600
_cell_angle_beta 91.109300
_cell_angle_gamma 89.956600
loop_
  _atom_site_label
  _atom_site_type_symbol
  _atom_site_fract_x
  _atom_site_fract_y
  _atom_site_fract_z
C1 C 0.35448 0.35411 0.33582
 C2 C 0.36716 0.33680 0.31735
 C3 C 0.37522 0.31248 0.32777
 C4 C 0.37135 0.30574 0.35706
 C5 C 0.35790 0.32263 0.37555
 C6 C 0.34896 0.34676 0.36480
 C7 C 0.34713 0.37862 0.32577
 C8 C 0.33341 0.39553 0.34396
 C9 C 0.32630 0.38770 0.37221
 C10 C 0.33436 0.36345 0.38295
 C11 C 0.32830 0.35557 0.41152
 C12 C 0.33769 0.33180 0.42226
 C13 C 0.35265 0.31556 0.40440
 H14 H 0.37074 0.34218 0.29481
 H15 H 0.37773 0.28698 0.36505
 H16 H 0.35204 0.38463 0.30373
 H17 H 0.31544 0.40078 0.38604
 H18 H 0.31666 0.36795 0.42549
 H19 H 0.35936 0.29701 0.41276
 C20 C 0.35426 0.85285 -0.18973
 C21 C 0.37788 0.83737 -0.19430
 C22 C 0.38493 0.81690 -0.17474
 C23 C 0.36768 0.81244 -0.15084
 C24 C 0.34423 0.82725 -0.14637
 C25 C 0.33736 0.84747 -0.16568
 C26 C 0.34716 0.87357 -0.20863
 C27 C 0.32342 0.88893 -0.20378
 C28 C 0.30673 0.88255 -0.17980
 C29 C 0.31345 0.86214 -0.16086
 C30 C 0.29636 0.85603 -0.13721
 C31 C 0.30310 0.83552 -0.11817
 C32 C 0.32739 0.82164 -0.12274
 H33 H 0.39075 0.84153 -0.21282
 H34 H 0.37152 0.79682 -0.13565
 H35 H 0.36034 0.87747 -0.22693
 H36 H 0.28824 0.89333 -0.17546
 H37 H 0.27768 0.86699 -0.13407
 H38 H 0.33339 0.80623 -0.10791
 C39 C 0.85183 0.35634 -0.17324
 C40 C 0.87564 0.34148 -0.17756
 C41 C 0.88266 0.32095 -0.15841
 C42 C 0.86492 0.31542 -0.13509
 C43 C 0.84090 0.32979 -0.13093
 C44 C 0.83437 0.35040 -0.14991
 C45 C 0.84533 0.37708 -0.19194
 C46 C 0.82146 0.39217 -0.18782
 C47 C 0.80407 0.38566 -0.16442
 C48 C 0.81029 0.36494 -0.14562
 C49 C 0.79263 0.35844 -0.12266
 C50 C 0.79867 0.33748 -0.10397
 C51 C 0.82311 0.32350 -0.10818
 H52 H 0.88888 0.34643 -0.19553
 H53 H 0.86899 0.29940 -0.12045
 H54 H 0.85922 0.38117 -0.20954
 H55 H 0.78555 0.39657 -0.16048
 H56 H 0.77420 0.36975 -0.11956
 H57 H 0.82825 0.30727 -0.09420
 C58 C 0.86432 0.85520 0.29187
 C59 C 0.88405 0.84172 0.27659
 C60 C 0.88810 0.81554 0.28156
 C61 C 0.87353 0.80297 0.30401
 C62 C 0.85350 0.81639 0.31989
 C63 C 0.84860 0.84256 0.31317
 C64 C 0.85894 0.88079 0.28450
 C65 C 0.83681 0.89402 0.29686
 C66 C 0.82153 0.88143 0.31874
 C67 C 0.82731 0.85591 0.32690
 C68 C 0.81112 0.84322 0.34751
 C69 C 0.81556 0.81729 0.35455
 C70 C 0.83714 0.80400 0.34108
 H71 H 0.89568 0.85151 0.25977
 H72 H 0.87671 0.78271 0.30798
 H73 H 0.87113 0.88947 0.26753
 H74 H 0.80475 0.89115 0.32923
 H75 H 0.79459 0.85352 0.35783
 H76 H 0.84028 0.78388 0.34607
 C77 C 0.63196 0.62297 0.31496
 C78 C 0.60657 0.63498 0.30934
 C79 C 0.59973 0.65788 0.32295
 C80 C 0.61908 0.66917 0.34218
 C81 C 0.64475 0.65708 0.34843
 C82 C 0.65100 0.63383 0.33476
 C83 C 0.63861 0.60030 0.30081
 C84 C 0.66420 0.58821 0.30616
 C85 C 0.68279 0.59873 0.32655
 C86 C 0.67639 0.62142 0.34073
 C87 C 0.69535 0.63197 0.36041
 C88 C 0.68989 0.65525 0.37394
 C89 C 0.66434 0.66769 0.36796
 H90 H 0.59218 0.62656 0.29387
 H91 H 0.61393 0.68690 0.35263
 H92 H 0.62381 0.59215 0.28560
 H93 H 0.70273 0.58983 0.33075
 H94 H 0.71438 0.62172 0.36518
 H95 H 0.65980 0.68565 0.37818
 C96 C 0.65580 0.12984 -0.18062
 C97 C 0.63776 0.14175 -0.20070
 C98 C 0.63046 0.16745 -0.19783
 C99 C 0.64087 0.18129 -0.17392
 C100 C 0.65923 0.16960 -0.15348
 C101 C 0.66649 0.14363 -0.15688
 C102 C 0.66436 0.10466 -0.18494
 C103 C 0.68401 0.09285 -0.16608
 C104 C 0.69343 0.10630 -0.14147
 C105 C 0.68532 0.13167 -0.13724
 C106 C 0.69751 0.14580 -0.11490
 C107 C 0.69165 0.17186 -0.11208
 C108 C 0.67179 0.18360 -0.13078
 H109 H 0.62950 0.13094 -0.21881
 H110 H 0.63548 0.20127 -0.17186
 H111 H 0.65601 0.09458 -0.20352
 H112 H 0.70876 0.09806 -0.12662
 H113 H 0.71279 0.13679 -0.10044
 H114 H 0.66749 0.20382 -0.12881
 C115 C 0.11941 0.63792 -0.19219
 C116 C 0.09371 0.64688 -0.20235
 C117 C 0.08345 0.67061 -0.19380
 C118 C 0.09881 0.68486 -0.17334
 C119 C 0.12470 0.67594 -0.16269
 C120 C 0.13526 0.65253 -0.17274
 C121 C 0.12993 0.61510 -0.20273
 C122 C 0.15681 0.60656 -0.19507
 C123 C 0.17280 0.62144 -0.17566
 C124 C 0.16209 0.64423 -0.16436
 C125 C 0.17818 0.65948 -0.14588
 C126 C 0.16781 0.68268 -0.13561
 C127 C 0.14094 0.69065 -0.14359
 H128 H 0.08259 0.63579 -0.21840
 H129 H 0.09108 0.70314 -0.16637
 H130 H 0.11725 0.60499 -0.21833
 H131 H 0.19353 0.61546 -0.16925
 H132 H 0.19914 0.65367 -0.14003
 H133 H 0.13340 0.70893 -0.13633
 C134 C 0.17259 0.13479 0.32838
 C135 C 0.14623 0.14064 0.31720
 C136 C 0.13324 0.16416 0.32290
 C137 C 0.14787 0.18232 0.33968
 C138 C 0.17436 0.17652 0.35162
 C139 C 0.18654 0.15256 0.34592
 C140 C 0.18517 0.11129 0.32217
 C141 C 0.21144 0.10486 0.33407
 C142 C 0.22484 0.12263 0.35212
 C143 C 0.21279 0.14630 0.35772
 C144 C 0.22695 0.16381 0.37492
 C145 C 0.21548 0.18771 0.38070
 C146 C 0.18896 0.19400 0.36930
 H147 H 0.13643 0.12686 0.30311
 H148 H 0.13839 0.20052 0.34434
 H149 H 0.17408 0.09791 0.30856
 H150 H 0.24531 0.11886 0.36109
 H151 H 0.24693 0.15853 0.38439
 H152 H 0.17995 0.21242 0.37391
 C153 C 0.64203 0.37227 0.67191
 C154 C 0.61968 0.35993 0.68464
 C155 C 0.61004 0.33635 0.67451
 C156 C 0.62406 0.32470 0.65137
 C157 C 0.64716 0.33684 0.63845
 C158 C 0.65610 0.36074 0.64906
 C159 C 0.65019 0.39634 0.68162
 C160 C 0.67256 0.40909 0.66907
 C161 C 0.68743 0.39730 0.64714
 C162 C 0.67902 0.37334 0.63678
 C163 C 0.69277 0.36222 0.61380
 C164 C 0.68371 0.33903 0.60201
 C165 C 0.66116 0.32607 0.61479
 H166 H 0.61008 0.36895 0.70288
 H167 H 0.61687 0.30653 0.64324
 H168 H 0.63905 0.40526 0.69903
 H169 H 0.70478 0.40720 0.63745
 H170 H 0.71059 0.37194 0.60494
 H171 H 0.65412 0.30813 0.60588
 C172 C 0.63592 0.84202 1.19273
 C173 C 0.61362 0.82618 1.20088
 C174 C 0.60536 0.80538 1.18349
 C175 C 0.62041 0.80061 1.15820
 C176 C 0.64237 0.81622 1.14990
 C177 C 0.65036 0.83700 1.16708
 C178 C 0.64375 0.86297 1.20963
 C179 C 0.66600 0.87888 1.20155
 C180 C 0.68025 0.87361 1.17576
 C181 C 0.67257 0.85281 1.15839
 C182 C 0.68633 0.84765 1.13223
 C183 C 0.67770 0.82710 1.11496
 C184 C 0.65607 0.81142 1.12412
 H185 H 0.60257 0.83050 1.22048
 H186 H 0.61561 0.78455 1.14460
 H187 H 0.63208 0.86692 1.22891
 H188 H 0.69741 0.88554 1.16920
 H189 H 0.70302 0.85986 1.12496
 H190 H 0.64961 0.79556 1.11069
 C191 C 0.15758 0.33502 1.19142
 C192 C 0.13465 0.31889 1.19635
 C193 C 0.12829 0.29868 1.17724
 C194 C 0.14571 0.29487 1.15339
 C195 C 0.16852 0.31057 1.14835
 C196 C 0.17452 0.33074 1.16732
 C197 C 0.16378 0.35543 1.21005
 C198 C 0.18675 0.37157 1.20500
 C199 C 0.20349 0.36675 1.18092
 C200 C 0.19753 0.34658 1.16211
 C201 C 0.21424 0.34208 1.13802
 C202 C 0.20820 0.32201 1.11890
 C203 C 0.18537 0.30628 1.12438
 H204 H 0.12165 0.32248 1.21477
 H205 H 0.14235 0.27926 1.13871
 H206 H 0.15046 0.35861 1.22828
 H207 H 0.22121 0.37871 1.17651
 H208 H 0.23207 0.35415 1.13443
 H209 H 0.18033 0.29093 1.10968
 C210 C 0.12904 0.87994 0.67539
 C211 C 0.10652 0.86917 0.68956
 C212 C 0.09940 0.84327 0.68623
 C213 C 0.11468 0.82851 0.66654
 C214 C 0.13797 0.83905 0.65240
 C215 C 0.14516 0.86486 0.65720
 C216 C 0.13626 0.90547 0.68016
 C217 C 0.16003 0.91598 0.66771
 C218 C 0.17617 0.90101 0.64963
 C219 C 0.16876 0.87560 0.64420
 C220 C 0.18510 0.86069 0.62653
 C221 C 0.17869 0.83496 0.62171
 C222 C 0.15483 0.82423 0.63437
 H223 H 0.09437 0.88146 0.70305
 H224 H 0.10951 0.80861 0.66339
 H225 H 0.12411 0.91677 0.69480
 H226 H 0.19465 0.90909 0.64010
 H227 H 0.20285 0.86940 0.61628
 H228 H 0.14987 0.80433 0.63083
 C229 C 0.35791 0.64497 0.67600
 C230 C 0.38179 0.65246 0.69154
 C231 C 0.39584 0.67521 0.68400
 C232 C 0.38545 0.69069 0.66105
 C233 C 0.36178 0.68339 0.64519
 C234 C 0.34800 0.66049 0.65262
 C235 C 0.34390 0.62214 0.68309
 C236 C 0.32047 0.61459 0.66663
 C237 C 0.31083 0.63029 0.64356
 C238 C 0.32431 0.65309 0.63654
 C239 C 0.31444 0.66849 0.61343
 C240 C 0.32818 0.69111 0.60578
 C241 C 0.35184 0.69850 0.62175
 H242 H 0.38932 0.64060 0.70958
 H243 H 0.39618 0.70812 0.65499
 H244 H 0.35148 0.61006 0.70095
 H245 H 0.29246 0.62500 0.63118
 H246 H 0.29630 0.66255 0.60107
 H247 H 0.36239 0.71612 0.61622
 C248 C 0.36268 0.11970 1.17680
 C249 C 0.38617 0.12251 1.19519
 C250 C 0.40602 0.14158 1.18912
 C251 C 0.40388 0.15494 1.16232
 C252 C 0.37988 0.15372 1.14523
 C253 C 0.35890 0.13637 1.15260
 C254 C 0.34218 0.10162 1.18323
 C255 C 0.31743 0.10026 1.16634
 C256 C 0.31349 0.11820 1.14311
 C257 C 0.33396 0.13628 1.13628
 C258 C 0.32957 0.15496 1.11411
 C259 C 0.35025 0.17322 1.10772
 C260 C 0.37586 0.17129 1.12234
 H261 H 0.38780 0.11091 1.21488
 H262 H 0.41986 0.16806 1.15550
 H263 H 0.34557 0.08906 1.20190
 H264 H 0.29471 0.11833 1.12996
 H265 H 0.30979 0.15571 1.10268
 H266 H 0.39243 0.18437 1.11718
 C267 C 0.86360 0.63665 1.19251
 C268 C 0.89065 0.64636 1.19429
 C269 C 0.89955 0.66458 1.17384
 C270 C 0.88098 0.67410 1.15248
 C271 C 0.85367 0.66526 1.15110
 C272 C 0.84504 0.64599 1.17071
 C273 C 0.85516 0.61731 1.21174
 C274 C 0.82874 0.60612 1.20896
 C275 C 0.81027 0.61563 1.18703
 C276 C 0.81804 0.63593 1.16833
 C277 C 0.79940 0.64635 1.14724
 C278 C 0.80764 0.66645 1.12835
 C279 C 0.83504 0.67533 1.13024
 H280 H 0.90508 0.63916 1.21087
 H281 H 0.88775 0.68865 1.13709
 H282 H 0.87007 0.61011 1.22775
 H283 H 0.78963 0.60775 1.18485
 H284 H 0.77848 0.63903 1.14596
 H285 H 0.84214 0.69005 1.11532
 C286 C 0.85551 0.15323 0.68810
 C287 C 0.87897 0.15921 0.70507
 C288 C 0.89612 0.17978 0.69715
 C289 C 0.88996 0.19394 0.67148
 C290 C 0.86663 0.18821 0.65425
 C291 C 0.84927 0.16787 0.66263
 C292 C 0.83751 0.13358 0.69684
 C293 C 0.81312 0.12891 0.68076
 C294 C 0.80746 0.14309 0.65505
 C295 C 0.82529 0.16256 0.64593
 C296 C 0.81894 0.17732 0.62089
 C297 C 0.83597 0.19784 0.61246
 C298 C 0.85993 0.20303 0.62927
 H299 H 0.88316 0.14841 0.72501
 H300 H 0.90317 0.20965 0.66496
 H301 H 0.84179 0.12276 0.71677
 H302 H 0.78886 0.13923 0.64231
 H303 H 0.80054 0.17284 0.60818
 H304 H 0.87309 0.21898 0.62353
 C305 C 0.36230 0.35974 0.69920
 C306 C 0.35886 0.38467 0.70906
 C307 C 0.33620 0.39960 0.69950
 C308 C 0.31718 0.38930 0.67921
 C309 C 0.32034 0.36423 0.66925
 C310 C 0.34307 0.34938 0.67923
 C311 C 0.38396 0.34459 0.71028
 C312 C 0.38683 0.31919 0.70174
 C313 C 0.36837 0.30903 0.68102
 C314 C 0.34613 0.32393 0.66998
 C315 C 0.32622 0.31350 0.65095
 C316 C 0.30323 0.32807 0.64115
 C317 C 0.30070 0.35353 0.65017
 H318 H 0.37338 0.39190 0.72513
 H319 H 0.29963 0.40055 0.67148
 H320 H 0.39822 0.35229 0.72642
 H321 H 0.37043 0.28923 0.67485
 H322 H 0.32830 0.29382 0.64443
 H323 H 0.28347 0.36517 0.64241
 C324 C 0.33959 0.85421 0.18147
 C325 C 0.32347 0.87607 0.18586
 C326 C 0.30021 0.88169 0.16782
 C327 C 0.29349 0.86510 0.14495
 C328 C 0.30925 0.84306 0.14040
 C329 C 0.33235 0.83759 0.15876
 C330 C 0.36273 0.84862 0.19958
 C331 C 0.37886 0.82660 0.19529
 C332 C 0.37128 0.81014 0.17258
 C333 C 0.34822 0.81547 0.15441
 C334 C 0.34089 0.79898 0.13185
 C335 C 0.31814 0.80439 0.11308
 C336 C 0.30229 0.82645 0.11768
 H337 H 0.32899 0.88845 0.20366
 H338 H 0.27606 0.86921 0.13046
 H339 H 0.36783 0.86136 0.21718
 H340 H 0.38348 0.79324 0.16866
 H341 H 0.35297 0.78180 0.12918
 H342 H 0.28480 0.83093 0.10337
 C343 C 0.86964 0.34506 0.19522
 C344 C 0.86606 0.36754 0.21101
 C345 C 0.84231 0.38280 0.20644
 C346 C 0.82209 0.37530 0.18584
 C347 C 0.82524 0.35292 0.17005
 C348 C 0.84911 0.33778 0.17462
 C349 C 0.89337 0.32974 0.19960
 C350 C 0.89693 0.30751 0.18333
 C351 C 0.87622 0.30041 0.16308
 C352 C 0.85238 0.31531 0.15865
 C353 C 0.83174 0.30799 0.13851
 C354 C 0.80770 0.32287 0.13401
 C355 C 0.80472 0.34540 0.14987
 H356 H 0.88186 0.37320 0.22666
 H357 H 0.80344 0.38652 0.18247
 H358 H 0.90926 0.33534 0.21519
 H359 H 0.87841 0.28302 0.15090
 H360 H 0.83433 0.29049 0.12665
 H361 H 0.78660 0.35733 0.14639
 C362 C 0.84769 0.88408 0.65059
 C363 C 0.83941 0.90927 0.65541
 C364 C 0.81754 0.92019 0.63908
 C365 C 0.80410 0.90602 0.61752
 C366 C 0.81304 0.88113 0.61165
 C367 C 0.83481 0.86995 0.62831
 C368 C 0.86817 0.87269 0.66824
 C369 C 0.87582 0.84711 0.66458
 C370 C 0.86401 0.83331 0.64131
 C371 C 0.84343 0.84466 0.62298
 C372 C 0.83099 0.83127 0.59974
 C373 C 0.80974 0.84275 0.58239
 C374 C 0.80049 0.86736 0.58932
 H375 H 0.84941 0.92019 0.67250
 H376 H 0.78713 0.91459 0.60500
 H377 H 0.87785 0.88378 0.68534
 H378 H 0.87003 0.81362 0.63818
 H379 H 0.83797 0.81214 0.59508
 H380 H 0.78335 0.87617 0.57747
 C381 C 0.64927 0.66102 0.68438
 C382 C 0.65350 0.63857 0.70093
 C383 C 0.67468 0.62139 0.69417
 C384 C 0.69166 0.62702 0.67026
 C385 C 0.68780 0.64958 0.65360
 C386 C 0.66650 0.66665 0.66070
 C387 C 0.62806 0.67794 0.69138
 C388 C 0.62373 0.70066 0.67517
 C389 C 0.64127 0.70631 0.65168
 C390 C 0.66252 0.68942 0.64427
 C391 C 0.68000 0.69503 0.62086
 C392 C 0.70149 0.67822 0.61367
 C393 C 0.70502 0.65540 0.63010
 H394 H 0.64046 0.63490 0.71943
 H395 H 0.70792 0.61391 0.66449
 H396 H 0.61476 0.67311 0.70936
 H397 H 0.63869 0.72387 0.63915
 H398 H 0.67711 0.71273 0.60860
 H399 H 0.72108 0.64199 0.62460
 C400 C 0.63524 0.14784 0.19476
 C401 C 0.63790 0.12383 0.20858
 C402 C 0.65911 0.10685 0.20098
 C403 C 0.67711 0.11393 0.17840
 C404 C 0.67462 0.13778 0.16420
 C405 C 0.65383 0.15488 0.17268
 C406 C 0.61422 0.16491 0.20253
 C407 C 0.61184 0.18904 0.18868
 C408 C 0.63117 0.19609 0.16753
 C409 C 0.65164 0.17908 0.15906
 C410 C 0.66972 0.18595 0.13685
 C411 C 0.69011 0.16891 0.12771
 C412 C 0.69267 0.14488 0.14175
 H413 H 0.62342 0.11859 0.22533
 H414 H 0.69352 0.10123 0.17209
 H415 H 0.59950 0.15919 0.21890
 H416 H 0.63037 0.21485 0.15728
 H417 H 0.66786 0.20475 0.12676
 H418 H 0.70835 0.13156 0.13498
 C419 C 0.15462 0.62602 0.17574
 C420 C 0.16242 0.60155 0.18597
 C421 C 0.17826 0.58559 0.16862
 C422 C 0.18689 0.59451 0.14127
 C423 C 0.17981 0.61908 0.13114
 C424 C 0.16335 0.63491 0.14823
 C425 C 0.13815 0.64168 0.19261
 C426 C 0.13005 0.66616 0.18256
 C427 C 0.13886 0.67499 0.15507
 C428 C 0.15582 0.65958 0.13792
 C429 C 0.16575 0.66844 0.11088
 C430 C 0.18307 0.65292 0.09412
 C431 C 0.18949 0.62813 0.10440
 H432 H 0.15585 0.59476 0.20719
 H433 H 0.19975 0.58252 0.12808
 H434 H 0.13111 0.63437 0.21339
 H435 H 0.13288 0.69389 0.14724
 H436 H 0.16024 0.68746 0.10313
 H437 H 0.20282 0.61583 0.09223
 C438 C 0.13847 0.15992 0.69000
 C439 C 0.14840 0.13996 0.70824
 C440 C 0.16835 0.12249 0.69843
 C441 C 0.17918 0.12603 0.67031
 C442 C 0.16943 0.14580 0.65172
 C443 C 0.14857 0.16236 0.66146
 C444 C 0.11882 0.17768 0.69980
 C445 C 0.10890 0.19747 0.68105
 C446 C 0.11793 0.19847 0.65223
 C447 C 0.13793 0.18160 0.64262
 C448 C 0.14795 0.18438 0.61450
 C449 C 0.16933 0.16884 0.60501
 C450 C 0.18016 0.14947 0.62356
 H451 H 0.14049 0.13818 0.73006
 H452 H 0.19476 0.11310 0.66251
 H453 H 0.11169 0.17632 0.72200
 H454 H 0.10970 0.21258 0.63691
 H455 H 0.14003 0.19964 0.60034
 H456 H 0.19673 0.13742 0.61610
 C457 C 0.34416 0.64944 0.32735
 C458 C 0.33973 0.62778 0.31028
 C459 C 0.31514 0.61343 0.31248
 C460 C 0.29498 0.62110 0.33237
 C461 C 0.29920 0.64264 0.34977
 C462 C 0.32390 0.65679 0.34724
 C463 C 0.36850 0.66399 0.32475
 C464 C 0.37286 0.68570 0.34193
 C465 C 0.35271 0.69261 0.36190
 C466 C 0.32833 0.67841 0.36457
 C467 C 0.30825 0.68574 0.38427
 C468 C 0.28345 0.67199 0.38695
 C469 C 0.27906 0.65038 0.36957
 H470 H 0.35569 0.62210 0.29551
 H471 H 0.27584 0.61051 0.33417
 H472 H 0.38404 0.65836 0.30941
 H473 H 0.35554 0.70951 0.37489
 H474 H 0.31229 0.70209 0.39780
 H475 H 0.25997 0.63969 0.37117
 C476 C 0.36703 0.12844 0.81587
 C477 C 0.35135 0.10626 0.81142
 C478 C 0.32935 0.10007 0.82985
 C479 C 0.32289 0.11641 0.85273
 C480 C 0.33812 0.13878 0.85728
 C481 C 0.36034 0.14477 0.83881
 C482 C 0.38927 0.13455 0.79775
 C483 C 0.40488 0.15695 0.80204
 C484 C 0.39793 0.17307 0.82497
 C485 C 0.37587 0.16712 0.84327
 C486 C 0.36918 0.18326 0.86603
 C487 C 0.34736 0.17730 0.88481
 C488 C 0.33164 0.15517 0.88011
 H489 H 0.35643 0.09368 0.79381
 H490 H 0.30568 0.11201 0.86673
 H491 H 0.39437 0.12169 0.78047
 H492 H 0.40941 0.19050 0.82858
 H493 H 0.38100 0.20062 0.86895
 H494 H 0.31487 0.15042 0.89459
 C495 C 0.84508 0.64407 0.81774
 C496 C 0.83295 0.62003 0.81387
 C497 C 0.81616 0.60910 0.83544
 C498 C 0.81138 0.62273 0.86106
 C499 C 0.82352 0.64674 0.86536
 C500 C 0.84061 0.65735 0.84368
 C501 C 0.86169 0.65497 0.79607
 C502 C 0.87402 0.67902 0.79997
 C503 C 0.86977 0.69194 0.82612
 C504 C 0.85328 0.68126 0.84795
 C505 C 0.84924 0.69416 0.87400
 C506 C 0.83209 0.68386 0.89556
 C507 C 0.81895 0.66030 0.89100
 H508 H 0.83684 0.60977 0.79408
 H509 H 0.79801 0.61490 0.87762
 H510 H 0.86518 0.64448 0.77637
 H511 H 0.87898 0.71053 0.82948
 H512 H 0.85913 0.71249 0.87733
 H513 H 0.80578 0.65229 0.90769
 C514 C 0.85793 0.14015 0.31291
 C515 C 0.84797 0.11974 0.29640
 C516 C 0.82186 0.10901 0.30174
 C517 C 0.80595 0.11868 0.32438
 C518 C 0.81566 0.13923 0.34103
 C519 C 0.84162 0.15023 0.33510
 C520 C 0.88421 0.15031 0.30787
 C521 C 0.89427 0.17068 0.32435
 C522 C 0.87778 0.18131 0.34589
 C523 C 0.85148 0.17100 0.35164
 C524 C 0.83526 0.18047 0.37417
 C525 C 0.80960 0.16917 0.38064
 C526 C 0.79988 0.14880 0.36366
 H527 H 0.86083 0.11206 0.27960
 H528 H 0.78584 0.11050 0.32881
 H529 H 0.89712 0.14217 0.29133
 H530 H 0.88586 0.19685 0.35882
 H531 H 0.84299 0.19607 0.38721
 H532 H 0.77991 0.14032 0.36791
 C533 C 0.62445 0.35945 0.30815
 C534 C 0.64204 0.37594 0.29314
 C535 C 0.66989 0.37834 0.30166
 C536 C 0.68028 0.36428 0.32591
 C537 C 0.66289 0.34726 0.34112
 C538 C 0.63479 0.34513 0.33229
 C539 C 0.59710 0.35599 0.29825
 C540 C 0.57982 0.33823 0.31213
 C541 C 0.58972 0.32513 0.33724
 C542 C 0.61718 0.32804 0.34695
 C543 C 0.62761 0.31295 0.37006
 C544 C 0.65579 0.31372 0.37817
 C545 C 0.67324 0.33144 0.36401
 H546 H 0.63411 0.38680 0.27443
 H547 H 0.70197 0.36584 0.33210
 H548 H 0.59000 0.36606 0.27870
 H549 H 0.57647 0.31166 0.34848
 H550 H 0.61361 0.30014 0.38117
 H551 H 0.69500 0.33235 0.37002
 C552 C 0.65808 0.85228 0.80916
 C553 C 0.66600 0.87159 0.78987
 C554 C 0.68968 0.88643 0.79537
 C555 C 0.70729 0.87972 0.81912
 C556 C 0.70022 0.85940 0.83817
 C557 C 0.67506 0.84615 0.83354
 C558 C 0.63271 0.83984 0.80493
 C559 C 0.62345 0.82184 0.82538
 C560 C 0.64072 0.81519 0.84944
 C561 C 0.66662 0.82706 0.85344
 C562 C 0.68395 0.82047 0.87727
 C563 C 0.70958 0.83284 0.88173
 C564 C 0.71736 0.85253 0.86216
 H565 H 0.65295 0.87541 0.77089
 H566 H 0.72588 0.89072 0.82336
 H567 H 0.61952 0.84515 0.78643
 H568 H 0.63410 0.80081 0.86507
 H569 H 0.67717 0.80584 0.89248
 H570 H 0.73682 0.86242 0.86532
 C571 C 0.15325 0.37568 0.82685
 C572 C 0.16793 0.39837 0.82148
 C573 C 0.19273 0.40346 0.83693
 C574 C 0.20293 0.38560 0.85765
 C575 C 0.18879 0.36274 0.86296
 C576 C 0.16384 0.35783 0.84761
 C577 C 0.12824 0.37043 0.81182
 C578 C 0.11368 0.34757 0.81749
 C579 C 0.12466 0.33010 0.83822
 C580 C 0.14955 0.33495 0.85297
 C581 C 0.16027 0.31700 0.87301
 C582 C 0.18504 0.32163 0.88848
 C583 C 0.19926 0.34465 0.88330
 H584 H 0.15993 0.41216 0.80556
 H585 H 0.22227 0.38916 0.86921
 H586 H 0.12040 0.38409 0.79574
 H587 H 0.11389 0.31254 0.84330
 H588 H 0.14922 0.29924 0.87601
 H589 H 0.21834 0.34863 0.89512
 C590 C 0.13830 0.86657 0.31739
 C591 C 0.15809 0.88529 0.31070
 C592 C 0.17914 0.89153 0.33097
 C593 C 0.17984 0.87906 0.35839
 C594 C 0.16014 0.86033 0.36540
 C595 C 0.13926 0.85412 0.34488
 C596 C 0.11828 0.85933 0.29659
 C597 C 0.09916 0.83981 0.30292
 C598 C 0.09977 0.82813 0.33071
 C599 C 0.11985 0.83488 0.35152
 C600 C 0.12164 0.82166 0.37829
 C601 C 0.14293 0.82707 0.39840
 C602 C 0.16169 0.84693 0.39212
 H603 H 0.15757 0.89439 0.28932
 H604 H 0.19581 0.88373 0.37429
 H605 H 0.11841 0.86834 0.27520
 H606 H 0.08502 0.81330 0.33609
 H607 H 0.10739 0.80615 0.38259
 H608 H 0.17806 0.85146 0.40763
 O609 O 0.21701 0.97135 0.26395
 O610 O 0.24030 1.02105 0.21227
 O611 O 0.23643 0.97103 0.21164
 O612 O 0.22281 1.02097 0.26560
 O613 O 0.26537 1.01575 0.28320
 O614 O 0.27931 0.96746 0.22881
 O615 O 0.28294 1.01763 0.23012
 O616 O 0.25982 0.96682 0.28107
 Cu617 Cu 0.22488 0.99655 0.23652
 Cu618 Cu 0.27621 0.99153 0.25734
 C619 C 0.23442 0.96053 0.28118
 C620 C 0.26540 1.02817 0.21273
 C621 C 0.26013 0.96048 0.21148
 C622 C 0.24196 1.02663 0.28374
 O623 O 0.24186 0.53982 0.77920
 O624 O 0.29643 0.49421 0.75763
 O625 O 0.28296 0.54105 0.74260
 O626 O 0.25718 0.49409 0.79586
 O627 O 0.22908 0.47794 0.76240
 O628 O 0.25536 0.52462 0.70890
 O629 O 0.26777 0.47812 0.72467
 O630 O 0.21448 0.52315 0.74549
 Cu631 Cu 0.27251 0.51897 0.77214
 Cu632 Cu 0.23884 0.49956 0.73188
 C633 C 0.21850 0.53862 0.76605
 C634 C 0.29109 0.47823 0.73770
 C635 C 0.27373 0.54063 0.71659
 C636 C 0.23879 0.47811 0.78829
 O637 O 0.72384 -0.03164 0.22179
 O638 O 0.76832 0.02418 0.23539
 O639 O 0.77544 -0.02410 0.23853
 O640 O 0.71716 0.01870 0.22063
 O641 O 0.70525 0.01801 0.26686
 O642 O 0.76290 -0.02599 0.28458
 O643 O 0.75694 0.02359 0.28181
 O644 O 0.71154 -0.03185 0.26786
 Cu645 Cu 0.74705 -0.00341 0.22431
 Cu646 Cu 0.73278 -0.00423 0.27987
 C647 C 0.71032 -0.04144 0.24263
 C648 C 0.77039 0.03329 0.26078
 C649 C 0.77930 -0.03204 0.26457
 C650 C 0.70197 0.02644 0.24094
 O651 O 0.75491 0.47247 0.78081
 O652 O 0.70959 0.52766 0.76301
 O653 O 0.71107 0.48091 0.74764
 O654 O 0.75065 0.51912 0.79940
 O655 O 0.77790 0.53245 0.76414
 O656 O 0.73945 0.49160 0.71221
 O657 O 0.73739 0.53892 0.72732
 O658 O 0.78321 0.48512 0.74620
 Cu659 Cu 0.72892 0.49872 0.77634
 Cu660 Cu 0.76256 0.51302 0.73405
 C661 C 0.77687 0.46951 0.76642
 C662 C 0.71570 0.54245 0.74180
 C663 C 0.71801 0.48008 0.72123
 C664 C 0.77039 0.53293 0.79054
 O665 O 0.26468 0.47600 0.30183
 O666 O 0.21831 0.51379 0.25194
 O667 O 0.22047 0.46591 0.27015
 O668 O 0.26026 0.52427 0.28616
 O669 O 0.28625 0.51731 0.24804
 O670 O 0.24872 0.45676 0.23456
 O671 O 0.24466 0.50324 0.21521
 O672 O 0.29275 0.47029 0.26506
 Cu673 Cu 0.23814 0.49572 0.28122
 Cu674 Cu 0.27085 0.48604 0.23714
 C675 C 0.28705 0.46731 0.29170
 C676 C 0.22366 0.51449 0.22490
 C677 C 0.22774 0.45136 0.24983
 C678 C 0.27980 0.53094 0.26958
 O679 O 0.73929 1.04324 0.70715
 O680 O 0.71208 0.98228 0.72882
 O681 O 0.71389 1.02619 0.75075
 O682 O 0.74807 0.99605 0.68836
 O683 O 0.78521 0.98981 0.71638
 O684 O 0.75098 1.01749 0.77810
 O685 O 0.74931 0.97268 0.75549
 O686 O 0.77747 1.03677 0.73354
 Cu687 Cu 0.72536 1.01216 0.71544
 Cu688 Cu 0.76957 1.00332 0.74830
 C689 C 0.76235 1.05099 0.71681
 C690 C 0.72492 0.96736 0.74624
 C691 C 0.72688 1.02673 0.77518
 C692 C 0.77284 0.98817 0.69201
 O693 O 0.77310 0.51752 0.22792
 O694 O 0.73150 0.45959 0.23863
 O695 O 0.72215 0.50830 0.24098
 O696 O 0.78231 0.46788 0.22638
 O697 O 0.79331 0.46631 0.27334
 O698 O 0.73428 0.50852 0.28765
 O699 O 0.74177 0.45899 0.28576
 O700 O 0.78567 0.51583 0.27444
 Cu701 Cu 0.75126 0.48848 0.22874
 Cu702 Cu 0.76494 0.48742 0.28504
 C703 C 0.78636 0.52663 0.24946
 C704 C 0.72957 0.44938 0.26379
 C705 C 0.71826 0.51563 0.26678
 C706 C 0.79740 0.45944 0.24740
 O707 O 0.25640 -0.02932 0.77088
 O708 O 0.21200 0.02817 0.76123
 O709 O 0.20838 -0.01631 0.74282
 O710 O 0.25304 0.01728 0.79388
 O711 O 0.27941 0.03024 0.75770
 O712 O 0.23555 -0.00624 0.70611
 O713 O 0.23708 0.04044 0.72375
 O714 O 0.28252 -0.01583 0.73490
 Cu715 Cu 0.23080 -0.00229 0.77076
 Cu716 Cu 0.26152 0.01317 0.72704
 C717 C 0.27723 -0.03221 0.75471
 C718 C 0.21683 0.04391 0.74046
 C719 C 0.21365 -0.01646 0.71592
 C720 C 0.27317 0.03030 0.78454
 O721 O 0.31347 0.25557 1.02213
 O722 O 0.26518 0.28196 0.96529
 O723 O 0.27771 0.29331 1.01902
 O724 O 0.31171 0.25543 0.96587
 O725 O 0.28367 0.22271 0.97332
 O726 O 0.24906 0.26179 1.02975
 O727 O 0.23727 0.24974 0.97507
 O728 O 0.28442 0.22364 1.02943
 Cu729 Cu 0.29439 0.27433 0.99222
 Cu730 Cu 0.26057 0.23672 1.00252
 C731 C 0.30706 0.23464 1.03501
 C732 C 0.24246 0.27007 0.96112
 C733 C 0.25807 0.28448 1.03383
 C734 C 0.30473 0.23264 0.96103
 O735 O 0.21468 0.78110 0.47172
 O736 O 0.27220 0.75275 0.51216
 O737 O 0.24695 0.74158 0.46430
 O738 O 0.23504 0.78549 0.52459
 O739 O 0.20445 0.75875 0.54325
 O740 O 0.21820 0.71401 0.48450
 O741 O 0.24362 0.72577 0.53374
 O742 O 0.18500 0.75361 0.49052
 Cu743 Cu 0.24471 0.76804 0.49102
 Cu744 Cu 0.20997 0.73514 0.51477
 C745 C 0.19028 0.77271 0.47399
 C746 C 0.26787 0.73487 0.53031
 C747 C 0.23498 0.71993 0.46462
 C748 C 0.21788 0.77948 0.54427
 O749 O 0.27068 0.76336 -0.04011
 O750 O 0.24628 0.70737 0.00163
 O751 O 0.24704 0.72146 -0.05326
 O752 O 0.28445 0.74270 0.01032
 O753 O 0.24929 0.76626 0.02408
 O754 O 0.20921 0.74184 -0.04035
 O755 O 0.21123 0.73034 0.01683
 O756 O 0.23380 0.78506 -0.02714
 Cu757 Cu 0.26521 0.73174 -0.02109
 Cu758 Cu 0.22250 0.75763 -0.00524
 C759 C 0.25593 0.78359 -0.04130
 C760 C 0.22445 0.70949 0.01655
 C761 C 0.22228 0.72813 -0.05840
 C762 C 0.27421 0.75840 0.02767
 O763 O 0.29765 0.26246 0.50939
 O764 O 0.24954 0.21593 0.53921
 O765 O 0.26573 0.22903 0.48591
 O766 O 0.27184 0.25998 0.55726
 O767 O 0.23645 0.28458 0.54422
 O768 O 0.23003 0.25366 0.47366
 O769 O 0.21417 0.24033 0.52536
 O770 O 0.26294 0.28764 0.49510
 Cu771 Cu 0.27379 0.23932 0.52444
 Cu772 Cu 0.23229 0.26881 0.50906
 C773 C 0.28883 0.28280 0.49710
 C774 C 0.22374 0.21971 0.53679
 C775 C 0.24714 0.23642 0.46747
 C776 C 0.25577 0.27862 0.56211
 O777 O 0.77090 0.78956 0.98736
 O778 O 0.78167 0.74165 1.04715
 O779 O 0.80127 0.74876 0.99503
 O780 O 0.75541 0.78556 1.04142
 O781 O 0.71955 0.76509 1.02253
 O782 O 0.76604 0.72607 0.97837
 O783 O 0.74526 0.72040 1.03093
 O784 O 0.73624 0.76640 0.97014
 Cu785 Cu 0.78086 0.76846 1.01955
 Cu786 Cu 0.73824 0.74198 0.99934
 C787 C 0.75165 0.78594 0.96850
 C788 C 0.76520 0.72275 1.04903
 C789 C 0.79169 0.73153 0.97861
 C790 C 0.72951 0.78236 1.03882
 O791 O 0.73693 0.27768 0.45489
 O792 O 0.78967 0.25816 0.50995
 O793 O 0.77512 0.24247 0.45795
 O794 O 0.74876 0.29144 0.50730
 O795 O 0.71989 0.26371 0.52707
 O796 O 0.74605 0.21495 0.47773
 O797 O 0.76047 0.23058 0.52940
 O798 O 0.70787 0.24981 0.47414
 Cu799 Cu 0.76571 0.27020 0.48081
 Cu800 Cu 0.73073 0.23694 0.50400
 C801 C 0.71334 0.26707 0.45528
 C802 C 0.78416 0.24107 0.52892
 C803 C 0.76465 0.22023 0.45943
 C804 C 0.72962 0.28615 0.52508
 O805 O 0.77256 0.27302 -0.01504
 O806 O 0.75752 0.21990 0.03576
 O807 O 0.75685 0.22631 -0.02080
 O808 O 0.77420 0.26671 0.04114
 O809 O 0.73079 0.27986 0.04234
 O810 O 0.71304 0.23830 -0.02014
 O811 O 0.71403 0.23280 0.03709
 O812 O 0.72890 0.28557 -0.01435
 Cu813 Cu 0.76958 0.24516 0.01013
 Cu814 Cu 0.71724 0.26033 0.01143
 C815 C 0.75335 0.28811 -0.02359
 C816 C 0.73321 0.21760 0.04544
 C817 C 0.73241 0.22552 -0.03134
 C818 C 0.75556 0.28025 0.05229
 O819 O 0.72422 0.72383 0.45628
 O820 O 0.74728 0.77713 0.50124
 O821 O 0.74557 0.76815 0.44621
 O822 O 0.72816 0.73118 0.51265
 O823 O 0.77037 0.71498 0.51351
 O824 O 0.78872 0.75419 0.44887
 O825 O 0.78962 0.76129 0.50519
 O826 O 0.76714 0.70926 0.45664
 Cu827 Cu 0.73203 0.75154 0.47918
 Cu828 Cu 0.78317 0.73318 0.48145
 C829 C 0.74206 0.70800 0.44782
 C830 C 0.77209 0.77860 0.51055
 C831 C 0.76997 0.76763 0.43629
 C832 C 0.74644 0.71659 0.52429
 O833 O 0.98431 0.23260 0.21415
 O834 O 1.03647 0.19547 0.25419
 O835 O 0.98419 0.20012 0.25805
 O836 O 1.03728 0.22942 0.21257
 O837 O 1.04265 0.26104 0.24337
 O838 O 0.98930 0.23109 0.28982
 O839 O 1.04331 0.22645 0.28557
 O840 O 0.98816 0.26405 0.24539
 Cu841 Cu 1.00997 0.21144 0.23159
 Cu842 Cu 1.01624 0.24890 0.26922
 C843 C 0.97738 0.25457 0.22245
 C844 C 1.04870 0.20413 0.27656
 C845 C 0.97824 0.21023 0.28203
 C846 C 1.04901 0.25005 0.21998
 O847 O 0.54195 0.21474 0.72552
 O848 O 0.47866 0.25401 0.71205
 O849 O 0.53215 0.25925 0.70058
 O850 O 0.48836 0.20627 0.72573
 O851 O 0.49110 0.21960 0.77108
 O852 O 0.53331 0.27398 0.74534
 O853 O 0.48122 0.26523 0.75823
 O854 O 0.54375 0.22836 0.77079
 Cu855 Cu 0.51017 0.23223 0.71149
 Cu856 Cu 0.51342 0.24852 0.76525
 C857 C 0.55350 0.21504 0.75073
 C858 C 0.46885 0.26576 0.73372
 C859 C 0.53985 0.27588 0.71864
 C860 C 0.48174 0.20410 0.75224
 O861 O 0.03241 0.27937 0.79127
 O862 O -0.01413 0.22680 0.77041
 O863 O 0.03602 0.23950 0.75877
 O864 O -0.01663 0.26373 0.80783
 O865 O -0.03467 0.28817 0.77260
 O866 O 0.01927 0.26509 0.72386
 O867 O -0.03134 0.25156 0.73500
 O868 O 0.01389 0.30435 0.75680
 Cu869 Cu 0.01106 0.25004 0.78584
 Cu870 Cu -0.01005 0.27970 0.74353
 C871 C 0.03132 0.30064 0.77739
 C872 C -0.03044 0.23030 0.74866
 C873 C 0.03665 0.24833 0.73293
 C874 C -0.03472 0.27969 0.79872
 O875 O 0.44386 0.26185 0.24531
 O876 O 0.50840 0.24434 0.21336
 O877 O 0.46392 0.21958 0.22615
 O878 O 0.49381 0.28148 0.24676
 O879 O 0.50865 0.26298 0.28781
 O880 O 0.47533 0.20288 0.26924
 O881 O 0.52275 0.22489 0.25402
 O882 O 0.45784 0.24721 0.28859
 Cu883 Cu 0.47622 0.25342 0.22923
 Cu884 Cu 0.49258 0.23273 0.27863
 C885 C 0.43979 0.25851 0.27218
 C886 C 0.52650 0.23157 0.22746
 C887 C 0.46437 0.20076 0.24419
 C888 C 0.50692 0.28241 0.27106
 O889 O 0.95839 0.77880 0.70112
 O890 O 1.00612 0.72883 0.72958
 O891 O 0.95408 0.73268 0.72136
 O892 O 1.01352 0.77548 0.70673
 O893 O 1.00926 0.79126 0.75067
 O894 O 0.95282 0.74685 0.76641
 O895 O 1.00580 0.74561 0.77344
 O896 O 0.95546 0.79307 0.74594
 Cu897 Cu 0.98380 0.75276 0.70999
 Cu898 Cu 0.98068 0.77097 0.76342
 C899 C 0.94794 0.79388 0.71931
 C900 C 1.01336 0.72832 0.75636
 C901 C 0.94387 0.73214 0.74666
 C902 C 1.02126 0.79087 0.72635
 O903 O 0.45845 0.75999 0.23680
 O904 O 0.50521 0.71042 0.26702
 O905 O 0.45512 0.72366 0.27519
 O906 O 0.50915 0.74581 0.22634
 O907 O 0.52484 0.77318 0.25876
 O908 O 0.47119 0.74950 0.30908
 O909 O 0.52262 0.73727 0.29911
 O910 O 0.47385 0.78668 0.27010
 Cu911 Cu 0.48067 0.73243 0.24779
 Cu912 Cu 0.49966 0.76445 0.28756
 C913 C 0.45779 0.78168 0.24868
 C914 C 0.52151 0.71513 0.28828
 C915 C 0.45415 0.73250 0.30064
 C916 C 0.52608 0.76309 0.23387
 O917 O 0.02968 0.76609 0.25897
 O918 O -0.01226 0.71374 0.22749
 O919 O 0.03993 0.71853 0.24353
 O920 O -0.02322 0.75421 0.25643
 O921 O -0.02054 0.77154 0.21231
 O922 O 0.04516 0.73669 0.20019
 O923 O -0.00667 0.73142 0.18391
 O924 O 0.03157 0.78406 0.21517
 Cu925 Cu 0.00869 0.73662 0.25061
 Cu926 Cu 0.01308 0.75752 0.19898
 C927 C 0.03723 0.78432 0.24213
 C928 C -0.01667 0.71403 0.19998
 C929 C 0.05338 0.72118 0.22028
 C930 C -0.03303 0.76871 0.23647
 O931 O 0.47165 0.78307 0.76141
 O932 O 0.52736 0.76180 0.71550
 O933 O 0.47612 0.74522 0.72423
 O934 O 0.52586 0.78829 0.76354
 O935 O 0.53401 0.75658 0.79499
 O936 O 0.48878 0.71463 0.75546
 O937 O 0.53910 0.73102 0.74685
 O938 O 0.48089 0.75144 0.79254
 Cu939 Cu 0.49927 0.77237 0.73811
 Cu940 Cu 0.51156 0.73552 0.77521
 C941 C 0.46664 0.77107 0.78481
 C942 C 0.54293 0.74330 0.72300
 C943 C 0.47450 0.72211 0.73367
 C944 C 0.53798 0.77929 0.78659
 N945 N 0.39242 0.27555 0.26612
 N946 N 0.37567 0.29048 0.28045
 C947 C 0.38633 0.29387 0.30738
 C948 C 0.41086 0.28015 0.31059
 C949 C 0.41415 0.26910 0.28362
 H950 H 0.42567 0.28072 0.32856
 H951 H 0.38982 0.27121 0.24411
 H952 H 0.35788 0.29906 0.27140
 N953 N 0.43937 0.76979 0.82975
 N954 N 0.41696 0.78265 0.84114
 C955 C 0.40821 0.80069 0.82143
 C956 C 0.42541 0.79968 0.79729
 C957 C 0.44430 0.78001 0.80341
 H958 H 0.42413 0.81119 0.77748
 H959 H 0.45027 0.75496 0.84029
 H960 H 0.40970 0.77862 0.86194
 N961 N -0.05937 0.27793 0.84557
 N962 N -0.08266 0.28915 0.85741
 C963 C -0.09330 0.30607 0.83754
 C964 C -0.07687 0.30586 0.81282
 C965 C -0.05620 0.28798 0.81871
 H966 H -0.07985 0.31656 0.79263
 H967 H -0.04720 0.26383 0.85589
 H968 H -0.08928 0.28519 0.87850
 N969 N -0.07255 0.79617 0.22042
 N970 N -0.09359 0.80791 0.23226
 C971 C -0.09406 0.80199 0.26099
 C972 C -0.07236 0.78538 0.26769
 C973 C -0.05904 0.78249 0.24129
 H974 H -0.06594 0.77809 0.28897
 H975 H -0.06716 0.79816 0.19856
 H976 H -0.10688 0.82048 0.22090
 N977 N 0.52943 0.66962 0.30048
 N978 N 0.54963 0.65464 0.31019
 C979 C 0.57198 0.66904 0.31667
 C980 C 0.56534 0.69465 0.31146
 C981 C 0.53820 0.69398 0.30074
 H982 H 0.57895 0.71102 0.31273
 H983 H 0.51013 0.66310 0.29314
 H984 H 0.54821 0.63474 0.31150
 N985 N 0.59084 0.18476 0.73780
 N986 N 0.61131 0.17243 0.75138
 C987 C 0.61224 0.17940 0.77957
 C988 C 0.59158 0.19711 0.78405
 C989 C 0.57833 0.19971 0.75708
 H990 H 0.58597 0.20575 0.80435
 H991 H 0.58530 0.18250 0.71589
 H992 H 0.62415 0.15926 0.74143
 N993 N 1.02301 0.68221 0.76104
 N994 N 1.04034 0.66683 0.77531
 C995 C 1.05810 0.68097 0.79142
 C996 C 1.05103 0.70661 0.78775
 C997 C 1.02901 0.70641 0.76797
 H998 H 1.06135 0.72313 0.79671
 H999 H 1.00717 0.67613 0.74700
 H1000 H 1.03975 0.64698 0.77366
 N1001 N 1.06578 0.16131 0.28967
 N1002 N 1.08932 0.15005 0.30201
 C1003 C 1.10623 0.16880 0.31156
 C1004 C 1.09317 0.19246 0.30627
 C1005 C 1.06825 0.18675 0.29191
 H1006 H 1.10167 0.21129 0.30982
 H1007 H 1.04980 0.15136 0.27926
 H1008 H 1.09215 0.13031 0.30370
 N1009 N 0.55055 0.32190 0.71818
 N1010 N 0.56820 0.33784 0.70605
 C1011 C 0.58543 0.32470 0.68885
 C1012 C 0.57750 0.29910 0.68952
 C1013 C 0.55553 0.29829 0.70871
 H1014 H 0.58716 0.28318 0.67895
 H1015 H 0.53521 0.32725 0.73261
 H1016 H 0.56800 0.35744 0.70974
 N1017 N 0.54977 0.76002 0.18703
 N1018 N 0.57180 0.77159 0.17296
 C1019 C 0.58255 0.78964 0.19068
 C1020 C 0.56729 0.78981 0.21629
 C1021 C 0.54722 0.77099 0.21302
 H1022 H 0.57036 0.80169 0.23511
 H1023 H 0.53768 0.74533 0.17843
 H1024 H 0.57731 0.76699 0.15187
 N1025 N 1.07433 0.25163 0.17395
 N1026 N 1.09633 0.26498 0.16198
 C1027 C 1.10533 0.28229 0.18158
 C1028 C 1.08874 0.28040 0.20623
 C1029 C 1.06998 0.26085 0.20056
 H1030 H 1.09060 0.29096 0.22620
 H1031 H 1.06353 0.23693 0.16369
 H1032 H 1.10321 0.26182 0.14097
 N1033 N 1.04809 0.82902 0.73941
 N1034 N 1.06931 0.84381 0.72812
 C1035 C 1.07796 0.83292 0.70339
 C1036 C 1.06238 0.81075 0.69865
 C1037 C 1.04371 0.80937 0.72149
 H1038 H 1.06370 0.79781 0.68063
 H1039 H 1.03729 0.83320 0.75824
 H1040 H 1.07762 0.85955 0.73880
 N1041 N 0.45912 0.67773 0.72601
 N1042 N 0.43850 0.66533 0.71352
 C1043 C 0.42176 0.68233 0.69960
 C1044 C 0.43266 0.70682 0.70307
 C1045 C 0.45628 0.70293 0.72021
 H1046 H 0.42402 0.72490 0.69557
 H1047 H 0.47475 0.66897 0.73867
 H1048 H 0.43623 0.64550 0.71457
 N1049 N 0.44581 0.15670 0.25328
 N1050 N 0.42920 0.13980 0.23743
 C1051 C 0.42551 0.14983 0.21025
 C1052 C 0.44005 0.17272 0.20842
 C1053 C 0.45165 0.17659 0.23549
 H1054 H 0.44001 0.18674 0.19085
 H1055 H 0.45056 0.15493 0.27552
 H1056 H 0.42005 0.12349 0.24640
 N1057 N -0.03471 0.69118 0.15711
 N1058 N -0.05723 0.67837 0.14998
 C1059 C -0.07172 0.67375 0.17426
 C1060 C -0.05758 0.68368 0.19807
 C1061 C -0.03442 0.69499 0.18606
 H1062 H -0.06493 0.68537 0.22009
 H1063 H -0.02077 0.69862 0.14206
 H1064 H -0.06325 0.67415 0.12863
 N1065 N -0.04889 0.18579 0.75076
 N1066 N -0.06816 0.17238 0.73707
 C1067 C -0.08041 0.18740 0.71634
 C1068 C -0.06830 0.21137 0.71696
 C1069 C -0.04860 0.20955 0.73906
 H1070 H -0.07352 0.22812 0.70383
 H1071 H -0.03628 0.17872 0.76780
 H1072 H -0.07255 0.15328 0.74196
 N1073 N 0.33465 0.45554 0.30661
 N1074 N 0.34707 0.43630 0.32040
 C1075 C 0.32776 0.42167 0.33324
 C1076 C 0.30179 0.43225 0.32772
 C1077 C 0.30717 0.45359 0.31039
 H1078 H 0.28187 0.42368 0.33200
 H1079 H 0.34470 0.46872 0.29312
 H1080 H 0.36821 0.43232 0.31928
 N1081 N 0.31788 -0.05959 0.74299
 N1082 N 0.33078 -0.08154 0.75455
 C1083 C 0.31631 -0.08968 0.77791
 C1084 C 0.29386 -0.07300 0.78118
 C1085 C 0.29568 -0.05460 0.75920
 H1086 H 0.27818 -0.07344 0.79765
 H1087 H 0.32496 -0.04886 0.72524
 H1088 H 0.34867 -0.08943 0.74609
 N1089 N 0.81848 0.44293 0.75830
 N1090 N 0.83092 0.42131 0.77096
 C1091 C 0.81521 0.41335 0.79348
 C1092 C 0.79245 0.42977 0.79521
 C1093 C 0.79541 0.44784 0.77307
 H1094 H 0.77575 0.42917 0.81053
 H1095 H 0.82621 0.45330 0.74059
 H1096 H 0.84932 0.41357 0.76357
 N1097 N 0.82681 -0.04737 0.25642
 N1098 N 0.84316 -0.06797 0.26568
 C1099 C 0.82891 -0.08159 0.28578
 C1100 C 0.80377 -0.06923 0.29037
 C1101 C 0.80317 -0.04846 0.27125
 H1102 H 0.78675 -0.07566 0.30358
 H1103 H 0.83188 -0.03431 0.23991
 H1104 H 0.86265 -0.07162 0.25734
 N1105 N 0.27787 0.55840 0.66638
 N1106 N 0.29057 0.57752 0.65316
 C1107 C 0.30555 0.59055 0.67310
 C1108 C 0.30244 0.57893 0.70023
 C1109 C 0.28454 0.55877 0.69494
 H1110 H 0.31098 0.58488 0.72099
 H1111 H 0.26471 0.54549 0.65592
 H1112 H 0.28888 0.58142 0.63081
 N1113 N 0.25734 1.06000 0.17255
 N1114 N 0.27174 1.08020 0.15969
 C1115 C 0.29697 1.08167 0.17292
 C1116 C 0.29894 1.06218 0.19417
 C1117 C 0.27390 1.04927 0.19321
 H1118 H 0.31604 1.05782 0.20896
 H1119 H 0.23706 1.05477 0.16713
 H1120 H 0.26322 1.09205 0.14336
 N1121 N 0.82273 0.55735 0.26440
 N1122 N 0.83475 0.57942 0.25294
 C1123 C 0.82155 0.58541 0.22745
 C1124 C 0.80100 0.56725 0.22228
 C1125 C 0.80277 0.54999 0.24560
 H1126 H 0.78721 0.56602 0.20350
 H1127 H 0.82896 0.54809 0.28378
 H1128 H 0.85045 0.58953 0.26355
 N1129 N 0.75171 1.09393 0.69708
 N1130 N 0.76485 1.11421 0.68718
 C1131 C 0.79223 1.11068 0.69148
 C1132 C 0.79677 1.08710 0.70533
 C1133 C 0.77035 1.07700 0.70802
 H1134 H 0.81636 1.07794 0.71060
 H1135 H 0.73027 1.09151 0.69556
 H1136 H 0.75504 1.13001 0.67732
 N1137 N 0.67617 0.54060 0.25237
 N1138 N 0.66186 0.55979 0.26279
 C1139 C 0.67212 0.56544 0.28947
 C1140 C 0.69364 0.54870 0.29641
 C1141 C 0.69568 0.53353 0.27224
 H1142 H 0.70723 0.54857 0.31542
 H1143 H 0.67336 0.53332 0.23148
 H1144 H 0.64648 0.56967 0.25091
 N1145 N 0.72514 1.03653 0.82761
 N1146 N 0.71329 1.05546 0.84429
 C1147 C 0.69593 1.06924 0.82671
 C1148 C 0.69570 1.05870 0.79898
 C1149 C 0.71472 1.03898 0.80034
 H1150 H 0.68604 1.06635 0.77923
 H1151 H 0.74116 1.02442 0.83476
 H1152 H 0.71851 1.05840 0.86613
 N1153 N 0.16900 0.54939 0.76532
 N1154 N 0.15167 0.56783 0.77641
 C1155 C 0.16732 0.58419 0.79219
 C1156 C 0.19492 0.57588 0.79196
 C1157 C 0.19493 0.55436 0.77457
 H1158 H 0.21287 0.58480 0.80187
 H1159 H 0.16249 0.53445 0.75207
 H1160 H 0.13026 0.56756 0.77321
 N1161 N 0.25573 1.05039 0.32765
 N1162 N 0.24749 1.07243 0.34158
 C1163 C 0.22452 1.08154 0.32762
 C1164 C 0.21746 1.06509 0.30501
 C1165 C 0.23774 1.04630 0.30556
 H1166 H 0.20110 1.06738 0.28875
 H1167 H 0.27350 1.03983 0.33304
 H1168 H 0.25781 1.07966 0.35980
 N1169 N 0.67234 0.47123 0.69942
 N1170 N 0.66009 0.45226 0.68581
 C1171 C 0.67942 0.43500 0.67878
 C1172 C 0.70530 0.44360 0.68786
 C1173 C 0.69971 0.46658 0.70109
 H1174 H 0.72465 0.43315 0.68818
 H1175 H 0.66187 0.48629 0.70902
 H1176 H 0.63867 0.45056 0.68292
 N1177 N 0.67764 -0.07537 0.25855
 N1178 N 0.66618 -0.09625 0.24801
 C1179 C 0.67428 -0.09924 0.22025
 C1180 C 0.69180 -0.07905 0.21299
 C1181 C 0.69333 -0.06443 0.23792
 H1182 H 0.70228 -0.07553 0.19270
 H1183 H 0.67498 -0.06900 0.27974
 H1184 H 0.65359 -0.10837 0.26022
 N1185 N 0.18953 0.42057 0.25974
 N1186 N 0.17871 0.39981 0.24815
 C1187 C 0.19326 0.39355 0.22446
 C1188 C 0.21450 0.41142 0.22118
 C1189 C 0.21129 0.42817 0.24392
 H1190 H 0.22991 0.41262 0.20444
 H1191 H 0.18187 0.42948 0.27810
 H1192 H 0.16148 0.39047 0.25655
 N1193 N 0.16644 -0.02116 0.69579
 N1194 N 0.15181 -0.03934 0.68328
 C1195 C 0.16913 -0.05820 0.67577
 C1196 C 0.19605 -0.05147 0.68341
 C1197 C 0.19331 -0.02796 0.69628
 H1198 H 0.21430 -0.06348 0.68342
 H1199 H 0.15790 -0.00523 0.70565
 H1200 H 0.13022 -0.03941 0.68166
 N1201 N 0.33650 0.29861 0.49009
 N1202 N 0.34968 0.31214 0.47022
 C1203 C 0.33090 0.32281 0.45167
 C1204 C 0.30455 0.31605 0.46028
 C1205 C 0.30910 0.30027 0.48439
 H1206 H 0.28531 0.31886 0.44817
 H1207 H 0.34628 0.28690 0.50584
 H1208 H 0.37117 0.31231 0.46807
 N1209 N 0.25147 0.82773 -0.06290
 N1210 N 0.26377 0.84142 -0.08344
 C1211 C 0.28478 0.82758 -0.09406
 C1212 C 0.28576 0.80416 -0.07948
 C1213 C 0.26443 0.80499 -0.06011
 H1214 H 0.29916 0.78803 -0.08318
 H1215 H 0.23423 0.83376 -0.05148
 H1216 H 0.25768 0.85983 -0.08990
 N1217 N 0.74083 0.32442 -0.05736
 N1218 N 0.75275 0.33738 -0.07870
 C1219 C 0.77930 0.32952 -0.08069
 C1220 C 0.78434 0.31093 -0.05929
 C1221 C 0.75949 0.30811 -0.04531
 H1222 H 0.80296 0.29988 -0.05510
 H1223 H 0.72001 0.32610 -0.05199
 H1224 H 0.74226 0.35049 -0.09229
 N1225 N 0.75668 0.79715 0.39557
 N1226 N 0.76852 0.80998 0.37420
 C1227 C 0.79576 0.80435 0.37423
 C1228 C 0.80149 0.78684 0.39677
 C1229 C 0.77602 0.78305 0.40995
 H1230 H 0.82141 0.77903 0.40346
 H1231 H 0.73570 0.79843 0.40044
 H1232 H 0.75797 0.82257 0.35998
 N1233 N 0.72330 0.33158 0.53713
 N1234 N 0.71087 0.34538 0.55673
 C1235 C 0.69782 0.32970 0.57569
 C1236 C 0.70179 0.30456 0.56722
 C1237 C 0.71842 0.30674 0.54282
 H1238 H 0.69460 0.28724 0.57782
 H1239 H 0.73484 0.33920 0.52003
 H1240 H 0.71133 0.36531 0.55676
 N1241 N 0.68575 0.80655 1.04264
 N1242 N 0.67285 0.82006 1.06221
 C1243 C 0.68921 0.82198 1.08621
 C1244 C 0.71391 0.80923 1.08151
 C1245 C 0.71060 0.79949 1.05373
 H1246 H 0.73035 0.80501 1.09721
 H1247 H 0.67714 0.80143 1.02253
 H1248 H 0.65231 0.82616 1.06000
 N1249 N 0.25424 0.32595 1.05846
 N1250 N 0.24155 0.33586 1.08078
 C1251 C 0.22540 0.31780 1.09300
 C1252 C 0.22785 0.29531 1.07738
 C1253 C 0.24647 0.30138 1.05578
 H1254 H 0.21821 0.27699 1.08148
 H1255 H 0.26813 0.33599 1.04537
 H1256 H 0.24386 0.35481 1.08708
 N1257 N 0.23440 0.81215 0.57859
 N1258 N 0.22441 0.82613 0.59955
 C1259 C 0.19752 0.82008 0.60332
 C1260 C 0.19034 0.80070 0.58431
 C1261 C 0.21430 0.79663 0.56876
 H1262 H 0.17019 0.79215 0.58080
 H1263 H 0.25462 0.81345 0.57104
 H1264 H 0.23597 0.83982 0.61070
 N1265 N 0.31747 0.73421 0.54507
 N1266 N 0.33342 0.72300 0.56515
 C1267 C 0.31777 0.70688 0.58103
 C1268 C 0.29068 0.70779 0.57046
 C1269 C 0.29145 0.72538 0.54778
 H1270 H 0.27277 0.69777 0.57864
 H1271 H 0.32436 0.74788 0.53002
 H1272 H 0.35464 0.72632 0.56756
 N1273 N 0.34985 0.23246 1.06601
 N1274 N 0.36134 0.21614 1.08491
 C1275 C 0.34498 0.19522 1.08739
 C1276 C 0.32201 0.19870 1.06929
 C1277 C 0.32594 0.22244 1.05627
 H1278 H 0.30471 0.18592 1.06594
 H1279 H 0.35819 0.25021 1.06023
 H1280 H 0.37978 0.21992 1.09621
 N1281 N 0.75329 0.68238 1.07592
 N1282 N 0.76437 0.66753 1.09668
 C1283 C 0.78817 0.67821 1.10634
 C1284 C 0.79205 0.70113 1.09105
 C1285 C 0.76963 0.70294 1.07194
 H1286 H 0.80905 0.71446 1.09288
 H1287 H 0.73516 0.67811 1.06425
 H1288 H 0.75602 0.65002 1.10327
 N1289 N 0.83159 0.24222 0.55136
 N1290 N 0.84530 0.23081 0.57315
 C1291 C 0.82823 0.21416 0.58668
 C1292 C 0.80248 0.21520 0.57265
 C1293 C 0.80553 0.23316 0.55049
 H1294 H 0.78392 0.20466 0.57784
 H1295 H 0.84010 0.25587 0.53728
 H1296 H 0.86608 0.23433 0.57818
 N1297 N 0.75168 0.67240 0.41453
 N1298 N 0.73821 0.65897 0.39476
 C1299 C 0.71132 0.66621 0.39387
 C1300 C 0.70774 0.68532 0.41409
 C1301 C 0.73384 0.68855 0.42669
 H1302 H 0.68902 0.69570 0.41878
 H1303 H 0.77291 0.67090 0.41896
 H1304 H 0.74787 0.64569 0.38165
 N1305 N 0.74801 0.19686 -0.06988
 N1306 N 0.73743 0.18312 -0.09108
 C1307 C 0.70983 0.18670 -0.09243
 C1308 C 0.70241 0.20382 -0.07104
 C1309 C 0.72744 0.20950 -0.05698
 H1310 H 0.68185 0.21014 -0.06561
 H1311 H 0.76903 0.19717 -0.06411
 H1312 H 0.74902 0.17118 -0.10417
 N1313 N 0.22604 0.71808 -0.11017
 N1314 N 0.21201 0.70579 -0.13039
 C1315 C 0.18688 0.69993 -0.12016
 C1316 C 0.18460 0.70920 -0.09201
 C1317 C 0.21024 0.72039 -0.08651
 H1318 H 0.16803 0.70592 -0.07687
 H1319 H 0.24669 0.72367 -0.11210
 H1320 H 0.22001 0.70059 -0.15042
 N1321 N 0.26810 0.21683 0.42450
 N1322 N 0.25969 0.20497 0.40082
 C1323 C 0.23174 0.20500 0.39955
 C1324 C 0.22193 0.21823 0.42317
 C1325 C 0.24576 0.22494 0.43864
 H1326 H 0.20069 0.22017 0.42985
 H1327 H 0.28877 0.21858 0.43124
 H1328 H 0.27301 0.19598 0.38656
 N1329 N 0.33839 0.45887 0.73854
 N1330 N 0.35039 0.43837 0.72803
 C1331 C 0.33151 0.42514 0.71224
 C1332 C 0.30653 0.43814 0.71255
 C1333 C 0.31175 0.45922 0.72954
 H1334 H 0.28683 0.43250 0.70309
 H1335 H 0.34829 0.47215 0.75187
 H1336 H 0.37114 0.43370 0.73196
 N1337 N 0.24654 0.92939 0.17323
 N1338 N 0.25698 0.90852 0.16190
 C1339 C 0.28269 0.90449 0.17326
 C1340 C 0.28876 0.92400 0.19246
 C1341 C 0.26531 0.93917 0.19193
 H1342 H 0.30708 0.92643 0.20603
 H1343 H 0.22652 0.93620 0.16894
 H1344 H 0.24596 0.89689 0.14757
 N1345 N 0.83631 0.43013 0.26183
 N1346 N 0.84812 0.40967 0.25095
 C1347 C 0.83785 0.40605 0.22378
 C1348 C 0.81918 0.42549 0.21698
 C1349 C 0.81853 0.44009 0.24171
 H1350 H 0.80604 0.42765 0.19774
 H1351 H 0.83926 0.43620 0.28321
 H1352 H 0.86155 0.39759 0.26281
 N1353 N 0.81392 0.98453 0.66169
 N1354 N 0.82633 0.96598 0.64790
 C1355 C 0.80863 0.94630 0.64533
 C1356 C 0.78371 0.95268 0.65778
 C1357 C 0.78806 0.97706 0.66816
 H1358 H 0.76680 0.93992 0.66292
 H1359 H 0.82390 1.00100 0.66897
 H1360 H 0.84726 0.96602 0.64262
 N1361 N 0.67228 0.56788 0.74482
 N1362 N 0.66131 0.58842 0.73204
 C1363 C 0.67929 0.59796 0.71242
 C1364 C 0.70267 0.58254 0.71280
 C1365 C 0.69737 0.56383 0.73360
 H1366 H 0.72119 0.58464 0.70011
 H1367 H 0.66254 0.55675 0.76071
 H1368 H 0.64165 0.59532 0.73667
 N1369 N 0.66342 0.05533 0.25407
 N1370 N 0.65227 0.07676 0.24365
 C1371 C 0.66324 0.08232 0.21742
 C1372 C 0.68183 0.06310 0.21083
 C1373 C 0.68154 0.04664 0.23470
 H1374 H 0.69552 0.06210 0.19253
 H1375 H 0.65972 0.04765 0.27479
 H1376 H 0.63870 0.08794 0.25540
 N1377 N 0.20279 0.52136 0.17598
 N1378 N 0.19095 0.54019 0.16091
 C1379 C 0.18646 0.55976 0.17889
 C1380 C 0.19529 0.55280 0.20692
 C1381 C 0.20586 0.52840 0.20390
 H1382 H 0.19684 0.56480 0.22582
 H1383 H 0.20990 0.50448 0.16692
 H1384 H 0.18712 0.53989 0.13845
 N1385 N 0.17632 0.07125 0.75180
 N1386 N 0.16361 0.09174 0.74088
 C1387 C 0.17734 0.10034 0.71728
 C1388 C 0.19991 0.08428 0.71317
 C1389 C 0.19844 0.06615 0.73553
 H1390 H 0.21511 0.08526 0.69619
 H1391 H 0.16957 0.06072 0.76985
 H1392 H 0.14538 0.09907 0.74924
 N1393 N 0.31584 0.56371 0.25883
 N1394 N 0.32506 0.58529 0.26993
 C1395 C 0.31055 0.59061 0.29396
 C1396 C 0.29107 0.57135 0.29807
 C1397 C 0.29518 0.55471 0.27535
 H1398 H 0.27614 0.56943 0.31523
 H1399 H 0.32360 0.55540 0.24015
 H1400 H 0.34077 0.59620 0.26065
 N1401 N 0.28436 0.04569 0.83412
 N1402 N 0.29894 0.06416 0.84612
 C1403 C 0.31277 0.07676 0.82507
 C1404 C 0.30694 0.06555 0.79846
 C1405 C 0.28863 0.04611 0.80522
 H1406 H 0.31353 0.07171 0.77706
 H1407 H 0.27114 0.03349 0.84554
 H1408 H 0.29899 0.06812 0.86833
 N1409 N 0.78050 0.54885 0.84024
 N1410 N 0.79230 0.56897 0.85217
 C1411 C 0.80321 0.58375 0.83090
 C1412 C 0.79847 0.57211 0.80428
 C1413 C 0.78386 0.55021 0.81122
 H1414 H 0.80318 0.57933 0.78270
 H1415 H 0.76974 0.53480 0.85181
 H1416 H 0.79244 0.57241 0.87450
 N1417 N 0.80603 0.06442 0.24507
 N1418 N 0.81961 0.08413 0.25571
 C1419 C 0.81129 0.08810 0.28316
 C1420 C 0.79141 0.06991 0.29023
 C1421 C 0.78879 0.05528 0.26542
 H1422 H 0.78047 0.06757 0.31046
 H1423 H 0.80862 0.05742 0.22413
 H1424 H 0.83391 0.09485 0.24392
 N1425 N 0.70126 0.41405 0.24415
 N1426 N 0.68601 0.39507 0.25410
 C1427 C 0.68784 0.39446 0.28343
 C1428 C 0.70526 0.41389 0.29267
 C1429 C 0.71300 0.42605 0.26693
 H1430 H 0.70998 0.41948 0.31479
 H1431 H 0.70290 0.41906 0.22212
 H1432 H 0.67394 0.38320 0.24094
 N1433 N 0.68282 0.94151 0.74823
 N1434 N 0.67334 0.92081 0.76114
 C1435 C 0.69395 0.90978 0.77717
 C1436 C 0.71778 0.92470 0.77458
 C1437 C 0.70962 0.94459 0.75580
 H1438 H 0.73780 0.92183 0.78509
 H1439 H 0.67061 0.95379 0.73519
 H1440 H 0.65261 0.91537 0.75969
 N1441 N 0.23784 0.45795 0.83767
 N1442 N 0.22565 0.43834 0.85057
 C1443 C 0.20852 0.42710 0.83111
 C1444 C 0.20981 0.44022 0.80469
 C1445 C 0.22878 0.45948 0.80980
 H1446 H 0.19936 0.43576 0.78434
 H1447 H 0.25238 0.46979 0.84778
 H1448 H 0.22918 0.43290 0.87232
 N1449 N 0.24119 0.92882 0.32191
 N1450 N 0.22665 0.91081 0.33513
 C1451 C 0.20094 0.91028 0.32307
 C1452 C 0.19915 0.92899 0.30127
 C1453 C 0.22509 0.94022 0.30125
 H1454 H 0.18166 0.93360 0.28704
 H1455 H 0.26191 0.93291 0.32677
 H1456 H 0.23469 0.89865 0.35147
 N1457 N 0.43061 0.28934 0.75554
 N1458 N 0.40905 0.30321 0.74724
 C1459 C 0.40680 0.30296 0.71800
 C1460 C 0.42787 0.28804 0.70698
 C1461 C 0.44273 0.28007 0.73175
 H1462 H 0.43271 0.28491 0.68440
 H1463 H 0.43722 0.28685 0.77721
 H1464 H 0.39650 0.31316 0.76145
 N1465 N 0.43651 0.82526 0.24684
 N1466 N 0.41580 0.83705 0.23291
 C1467 C 0.40339 0.82058 0.21447
 C1468 C 0.41718 0.79727 0.21685
 C1469 C 0.43790 0.80106 0.23759
 H1470 H 0.41256 0.77971 0.20570
 H1471 H 0.44939 0.83373 0.26243
 H1472 H 0.41065 0.85615 0.23604
 N1473 N 0.95284 0.26319 0.17571
 N1474 N 0.93195 0.27697 0.16530
 C1475 C 0.92222 0.29158 0.18671
 C1476 C 0.93822 0.28719 0.21195
 C1477 C 0.95717 0.26872 0.20396
 H1478 H 0.93528 0.29494 0.23337
 H1479 H 0.96365 0.24987 0.16364
 H1480 H 0.92449 0.27605 0.14384
 N1481 N 0.91543 0.82909 0.72868
 N1482 N 0.89640 0.84274 0.71456
 C1483 C 0.89486 0.83520 0.68661
 C1484 C 0.91382 0.81556 0.68288
 C1485 C 0.92655 0.81249 0.71018
 H1486 H 0.91790 0.80519 0.66324
 H1487 H 0.92046 0.83107 0.75076
 H1488 H 0.88435 0.85664 0.72433
 N1489 N 0.52071 0.32820 0.26497
 N1490 N 0.53993 0.34328 0.27626
 C1491 C 0.55317 0.33059 0.29834
 C1492 C 0.54136 0.30666 0.30144
 C1493 C 0.52134 0.30574 0.27971
 H1494 H 0.54838 0.29090 0.31527
 H1495 H 0.50841 0.33285 0.24667
 H1496 H 0.54449 0.36146 0.26799
 N1497 N 0.55711 0.79218 0.83415
 N1498 N 0.58026 0.80212 0.84456
 C1499 C 0.59531 0.81090 0.82214
 C1500 C 0.58066 0.80676 0.79618
 C1501 C 0.55663 0.79458 0.80487
 H1502 H 0.58773 0.80977 0.77417
 H1503 H 0.54255 0.78262 0.84688
 H1504 H 0.58579 0.80218 0.86665
 N1505 N 0.05113 0.34467 0.77317
 N1506 N 0.07296 0.35705 0.78355
 C1507 C 0.08732 0.34128 0.80193
 C1508 C 0.07368 0.31794 0.80326
 C1509 C 0.05107 0.32089 0.78483
 H1510 H 0.07955 0.30065 0.81502
 H1511 H 0.03677 0.35237 0.75813
 H1512 H 0.07771 0.37591 0.77785
 N1513 N 0.05805 0.82761 0.23844
 N1514 N 0.07417 0.84241 0.25442
 C1515 C 0.07970 0.83041 0.28015
 C1516 C 0.06613 0.80700 0.28052
 C1517 C 0.05290 0.80598 0.25367
 H1518 H 0.06689 0.79208 0.29712
 H1519 H 0.05109 0.83219 0.21730
 H1520 H 0.08127 0.86026 0.24738
 N1521 N 0.57011 0.74846 0.67791
 N1522 N 0.59126 0.73750 0.66531
 C1523 C 0.60066 0.71812 0.68259
 C1524 C 0.58452 0.71688 0.70745
 C1525 C 0.56543 0.73641 0.70348
 H1526 H 0.58613 0.70369 0.72581
 H1527 H 0.55890 0.76382 0.66885
 H1528 H 0.59849 0.74314 0.64492
 N1529 N 0.55815 0.23650 0.18643
 N1530 N 0.58026 0.22546 0.17607
 C1531 C 0.58859 0.20661 0.19468
 C1532 C 0.57070 0.20576 0.21819
 C1533 C 0.55170 0.22507 0.21189
 H1534 H 0.57075 0.19251 0.23655
 H1535 H 0.54728 0.25126 0.17570
 H1536 H 0.58847 0.23033 0.15586
 N1537 N 0.09033 0.69282 0.23982
 N1538 N 0.11059 0.67860 0.23020
 C1539 C 0.11214 0.68188 0.20109
 C1540 C 0.09214 0.69960 0.19195
 C1541 C 0.07856 0.70576 0.21728
 H1542 H 0.08694 0.70566 0.16994
 H1543 H 0.08420 0.69304 0.26148
 H1544 H 0.12268 0.66655 0.24358
 N1545 N 0.06523 0.25261 0.68913
 N1546 N 0.08445 0.23961 0.67580
 C1547 C 0.08950 0.21755 0.69078
 C1548 C 0.07307 0.21697 0.71532
 C1549 C 0.05787 0.23949 0.71313
 H1550 H 0.07166 0.20207 0.73188
 H1551 H 0.05752 0.27031 0.68189
 H1552 H 0.09396 0.24630 0.65695
 N1553 N 0.42948 0.73020 0.34787
 N1554 N 0.40822 0.71766 0.35883
 C1555 C 0.39786 0.70178 0.33847
 C1556 C 0.41334 0.70435 0.31352
 C1557 C 0.43300 0.72262 0.32035
 H1558 H 0.41026 0.69490 0.29293
 H1559 H 0.44116 0.74379 0.35905
 H1560 H 0.40117 0.72005 0.37996
 N1561 N 0.45210 0.16612 0.74283
 N1562 N 0.43169 0.15384 0.75575
 C1563 C 0.42788 0.16391 0.78226
 C1564 C 0.44719 0.18330 0.78634
 C1565 C 0.46191 0.18416 0.76080
 H1566 H 0.44937 0.19608 0.80448
 H1567 H 0.45835 0.16281 0.72157
 H1568 H 0.41993 0.13966 0.74571
 N1569 N 0.90996 0.69770 0.73476
 N1570 N 0.89167 0.68359 0.74882
 C1571 C 0.89154 0.69059 0.77701
 C1572 C 0.91059 0.71009 0.78085
 C1573 C 0.92175 0.71398 0.75365
 H1574 H 0.91624 0.71976 0.80072
 H1575 H 0.91429 0.69605 0.71267
 H1576 H 0.87946 0.66963 0.73896
 N1577 N 0.96697 0.17346 0.31373
 N1578 N 0.94473 0.16294 0.32505
 C1579 C 0.92309 0.17881 0.32045
 C1580 C 0.93191 0.20046 0.30537
 C1581 C 0.95997 0.19623 0.30169
 H1582 H 0.91928 0.21560 0.29577
 H1583 H 0.98625 0.16450 0.31279
 H1584 H 0.94410 0.14454 0.33419
 N1585 N 0.24350 0.31295 0.59640
 N1586 N 0.25613 0.32628 0.61689
 C1587 C 0.28187 0.31676 0.62153
 C1588 C 0.28543 0.29609 0.60342
 C1589 C 0.26072 0.29448 0.58776
 H1590 H 0.30404 0.28505 0.60029
 H1591 H 0.22376 0.31707 0.58786
 H1592 H 0.24717 0.34186 0.62702
 N1593 N 0.31850 0.75883 0.05541
 N1594 N 0.33018 0.77080 0.07744
 C1595 C 0.31174 0.78725 0.08838
 C1596 C 0.28703 0.78563 0.07220
 C1597 C 0.29234 0.76728 0.05156
 H1598 H 0.26810 0.79634 0.07481
 H1599 H 0.32864 0.74537 0.04290
 H1600 H 0.35078 0.76806 0.08403
 N1601 N 0.74550 0.31162 0.09118
 N1602 N 0.75922 0.32284 0.11264
 C1603 C 0.78584 0.31489 0.11278
 C1604 C 0.78903 0.29787 0.09026
 C1605 C 0.76304 0.29635 0.07718
 H1606 H 0.80760 0.28796 0.08404
 H1607 H 0.72445 0.31430 0.08646
 H1608 H 0.75013 0.33529 0.12717
 N1609 N 0.77036 0.82481 0.51857
 N1610 N 0.78041 0.84172 0.53682
 C1611 C 0.79674 0.82967 0.55701
 C1612 C 0.79765 0.80374 0.55050
 C1613 C 0.78032 0.80165 0.52613
 H1614 H 0.80821 0.78848 0.56241
 H1615 H 0.75695 0.82921 0.50106
 H1616 H 0.77602 0.86118 0.53488
 N1617 N 0.23021 0.67774 0.44041
 N1618 N 0.24299 0.66505 0.41993
 C1619 C 0.26268 0.68020 0.40834
 C1620 C 0.26197 0.70369 0.42192
 C1621 C 0.24138 0.70124 0.44220
 H1622 H 0.27527 0.72005 0.41859
 H1623 H 0.21478 0.67004 0.45355
 H1624 H 0.23896 0.64599 0.41509
 N1625 N 0.35049 0.22319 0.94160
 N1626 N 0.36186 0.20876 0.92193
 C1627 C 0.34211 0.19406 0.90971
 C1628 C 0.31689 0.19897 0.92288
 C1629 C 0.32327 0.21794 0.94270
 H1630 H 0.29674 0.19118 0.91744
 H1631 H 0.36130 0.23669 0.95383
 H1632 H 0.38287 0.20926 0.91705
 N1633 N 0.83791 0.72394 0.95781
 N1634 N 0.84854 0.71159 0.93585
 C1635 C 0.82838 0.69789 0.92282
 C1636 C 0.80375 0.70156 0.93729
 C1637 C 0.81073 0.71849 0.95917
 H1638 H 0.78341 0.69440 0.93148
 H1639 H 0.84900 0.73658 0.97095
 H1640 H 0.86918 0.71298 0.92965
 N1641 N 0.76280 0.17642 0.43997
 N1642 N 0.77444 0.16303 0.41944
 C1643 C 0.79303 0.17785 0.40553
 C1644 C 0.79333 0.20185 0.41815
 C1645 C 0.77367 0.20007 0.43980
 H1646 H 0.80556 0.21835 0.41209
 H1647 H 0.74749 0.16940 0.45372
 H1648 H 0.76976 0.14393 0.41547
 N1649 N 0.66824 0.26174 0.42946
 N1650 N 0.65314 0.27388 0.40935
 C1651 C 0.66670 0.29517 0.40055
 C1652 C 0.69189 0.29626 0.41568
 C1653 C 0.69186 0.27477 0.43383
 H1654 H 0.70774 0.31079 0.41426
 H1655 H 0.66242 0.24470 0.43981
 H1656 H 0.63409 0.26713 0.40169
 N1657 N 0.76031 0.82664 0.94052
 N1658 N 0.74917 0.83901 0.91777
 C1659 C 0.72791 0.82512 0.90689
 C1660 C 0.72573 0.80285 0.92357
 C1661 C 0.74649 0.80459 0.94461
 H1662 H 0.71103 0.78743 0.92109
 H1663 H 0.77681 0.83344 0.95320
 H1664 H 0.75582 0.85693 0.91045
 N1665 N 0.19579 0.26900 0.93871
 N1666 N 0.18044 0.28256 0.92017
 C1667 C 0.19559 0.30233 0.90994
 C1668 C 0.22186 0.30125 0.92294
 C1669 C 0.22098 0.27976 0.94091
 H1670 H 0.23909 0.31415 0.91996
 H1671 H 0.18875 0.25288 0.95010
 H1672 H 0.15976 0.27832 0.91549
 N1673 N 0.14152 0.77921 0.45574
 N1674 N 0.12885 0.79403 0.43597
 C1675 C 0.14761 0.81018 0.42424
 C1676 C 0.17311 0.80545 0.43728
 C1677 C 0.16847 0.78564 0.45677
 H1678 H 0.19283 0.81394 0.43195
 H1679 H 0.13196 0.76460 0.46763
 H1680 H 0.10788 0.79260 0.43035
 N1681 N 0.75786 0.68467 0.56360
 N1682 N 0.74617 0.67455 0.58689
 C1683 C 0.72060 0.68460 0.58951
 C1684 C 0.71596 0.70197 0.56658
 C1685 C 0.74011 0.70137 0.55069
 H1686 H 0.69772 0.71347 0.56204
 H1687 H 0.77781 0.68028 0.55687
 H1688 H 0.75606 0.66143 0.60098
 N1689 N 0.74559 0.18020 0.07777
 N1690 N 0.73424 0.16735 0.09957
 C1691 C 0.70854 0.17659 0.10362
 C1692 C 0.70330 0.19590 0.08315
 C1693 C 0.72729 0.19771 0.06743
 H1694 H 0.68505 0.20779 0.08065
 H1695 H 0.76582 0.17750 0.07081
 H1696 H 0.74452 0.15333 0.11211
 N1697 N 0.22124 0.66314 0.02813
 N1698 N 0.20981 0.64816 0.04795
 C1699 C 0.19577 0.66271 0.06676
 C1700 C 0.19804 0.68813 0.05785
 C1701 C 0.21449 0.68746 0.03347
 H1702 H 0.19020 0.70492 0.06836
 H1703 H 0.23354 0.65670 0.01129
 H1704 H 0.21205 0.62834 0.04831
 N1705 N 0.17929 0.19624 0.53525
 N1706 N 0.16519 0.18119 0.55293
 C1707 C 0.18117 0.17517 0.57651
 C1708 C 0.20687 0.18654 0.57329
 C1709 C 0.20453 0.20010 0.54717
 H1710 H 0.22309 0.18827 0.58974
 H1711 H 0.17106 0.20505 0.51640
 H1712 H 0.14410 0.17730 0.55024
   
