data_POSCAR
  _audit_creation_date              2014-09-24
  _audit_creation_method            'ToBaCCo'
  _symmetry_space_group_name_H-M    'P1'
  _symmetry_Int_Tables_number       1
  _symmetry_cell_setting            triclinic
  loop_
  _symmetry_equiv_pos_as_xyz
 x,y,z
_cell_length_a 44.6421
_cell_length_b 44.7958
_cell_length_c 52.8313
_cell_angle_alpha 89.739200
_cell_angle_beta 89.728500
_cell_angle_gamma 89.996200
loop_
  _atom_site_label
  _atom_site_type_symbol
  _atom_site_fract_x
  _atom_site_fract_y
  _atom_site_fract_z
Zr1 Zr 0.24493 0.24640 0.29421
 O2 O 0.26498 0.26670 0.32611
 O3 O 0.21329 0.21844 0.31221
 O4 O 0.21636 0.27530 0.31473
 O5 O 0.30450 0.19767 0.28513
 O6 O 0.19432 0.30417 0.28437
 O7 O 0.27399 0.21846 0.31508
 O8 O 0.18911 0.19664 0.27915
 O9 O 0.20729 0.24902 0.27079
 O10 O 0.24667 0.20871 0.27097
 O11 O 0.24921 0.28708 0.27446
 O12 O 0.28648 0.24840 0.27496
 Zr13 Zr 0.25371 0.25443 0.20599
 Zr14 Zr 0.21245 0.28859 0.24996
 Zr15 Zr 0.28652 0.21189 0.25022
 Zr16 Zr 0.21040 0.21234 0.24655
 O17 O 0.33385 0.21425 0.24896
 O18 O 0.16365 0.21958 0.24278
 O19 O 0.25004 0.21320 0.22535
 O20 O 0.21267 0.25179 0.22561
 O21 O 0.25242 0.29214 0.22925
 O22 O 0.29131 0.25136 0.22938
 C23 C 0.19300 0.20141 0.30279
 C24 C 0.29670 0.20258 0.30828
 C25 C 0.19915 0.29682 0.30759
 O26 O 0.16524 0.28535 0.24812
 O27 O 0.19760 0.30700 0.21542
 O28 O 0.22583 0.28375 0.18524
 C29 C 0.20483 0.30170 0.19223
 O30 O 0.30668 0.30037 0.28932
 Zr31 Zr 0.28896 0.28775 0.25365
 O32 O 0.28296 0.28484 0.18800
 O33 O 0.21752 0.33549 0.25165
 O34 O 0.28342 0.33460 0.25707
 O35 O 0.33592 0.28051 0.25366
 O36 O 0.30593 0.30797 0.22101
 C37 C 0.30095 0.30428 0.19738
 O38 O 0.23280 0.23496 0.17411
 O39 O 0.28227 0.16485 0.25163
 O40 O 0.28088 0.22451 0.18532
 O41 O 0.30030 0.19334 0.21540
 O42 O 0.21580 0.16530 0.24690
 O43 O 0.19737 0.19492 0.21089
 C44 C 0.29590 0.20132 0.19223
 H45 H 0.24603 0.18991 0.28089
 H46 H 0.19541 0.25196 0.21393
 H47 H 0.31025 0.25123 0.21954
 H48 H 0.24961 0.30433 0.28609
 H49 H 0.15348 0.20010 0.24521
 H50 H 0.15734 0.30601 0.24876
 H51 H 0.19711 0.34414 0.25090
 H52 H 0.30334 0.34399 0.25464
 H53 H 0.19569 0.15633 0.24934
 H54 H 0.30285 0.15664 0.25239
 H55 H 0.34128 0.19342 0.24828
 H56 H 0.34573 0.30016 0.25119
 H57 H 0.18077 0.18050 0.21331
 H58 H 0.24210 0.24371 0.15864
 H59 H 0.25579 0.25781 0.34157
 H60 H 0.32169 0.31640 0.28689
 Zr61 Zr 0.75578 0.75586 0.29367
 O62 O 0.73751 0.73610 0.32687
 O63 O 0.78678 0.78581 0.30967
 O64 O 0.78615 0.72913 0.31417
 O65 O 0.69454 0.80268 0.28509
 O66 O 0.80706 0.69831 0.28465
 O67 O 0.72677 0.78377 0.31453
 O68 O 0.80963 0.80668 0.27519
 O69 O 0.79273 0.75299 0.26925
 O70 O 0.75229 0.79251 0.26923
 O71 O 0.75180 0.71424 0.27566
 O72 O 0.71360 0.75202 0.27602
 Zr73 Zr 0.74397 0.74397 0.20647
 Zr74 Zr 0.78780 0.71239 0.25005
 Zr75 Zr 0.71175 0.78759 0.25008
 Zr76 Zr 0.78789 0.78861 0.24386
 O77 O 0.66447 0.78409 0.25036
 O78 O 0.83463 0.78197 0.23910
 O79 O 0.74746 0.78602 0.22413
 O80 O 0.78569 0.74824 0.22446
 O81 O 0.74710 0.70717 0.23087
 O82 O 0.70714 0.74716 0.23090
 C83 C 0.80625 0.80314 0.29912
 C84 C 0.70339 0.79881 0.30808
 C85 C 0.80316 0.70723 0.30762
 O86 O 0.83485 0.71660 0.24679
 O87 O 0.80206 0.69326 0.21545
 O88 O 0.77099 0.71388 0.18595
 C89 C 0.79306 0.69706 0.19248
 O90 O 0.69529 0.70009 0.29296
 Zr91 Zr 0.71131 0.71171 0.25625
 O92 O 0.71419 0.71283 0.19045
 O93 O 0.78392 0.66548 0.25332
 O94 O 0.71830 0.66519 0.26108
 O95 O 0.66421 0.71775 0.25775
 O96 O 0.69344 0.68984 0.22490
 C97 C 0.69700 0.69324 0.20098
 O98 O 0.76367 0.76234 0.17328
 O99 O 0.71486 0.83474 0.24980
 O100 O 0.71576 0.77266 0.18562
 O101 O 0.69654 0.80464 0.21507
 O102 O 0.78150 0.83550 0.24230
 O103 O 0.79945 0.80463 0.20715
 C104 C 0.70052 0.79586 0.19208
 H105 H 0.75277 0.81173 0.27840
 H106 H 0.80244 0.74795 0.21213
 H107 H 0.68787 0.74653 0.22172
 H108 H 0.75221 0.69755 0.28798
 H109 H 0.84452 0.80170 0.24053
 H110 H 0.84319 0.69614 0.24792
 H111 H 0.80451 0.65730 0.25218
 H112 H 0.69858 0.65520 0.25964
 H113 H 0.80149 0.84499 0.24361
 H114 H 0.69412 0.84249 0.25096
 H115 H 0.65653 0.80470 0.24918
 H116 H 0.65484 0.69777 0.25640
 H117 H 0.81612 0.81911 0.20845
 H118 H 0.75397 0.75293 0.15843
 H119 H 0.74689 0.74586 0.34171
 H120 H 0.68079 0.68346 0.29165
 Zr121 Zr 0.75585 0.24265 -0.29603
 O122 O 0.73644 0.26260 -0.32853
 O123 O 0.78484 0.21138 -0.31320
 O124 O 0.78566 0.26896 -0.31784
 O125 O 0.69517 0.19593 -0.28448
 O126 O 0.80781 0.29994 -0.28928
 O127 O 0.72517 0.21535 -0.31556
 O128 O 0.81049 0.19204 -0.27969
 O129 O 0.79401 0.24562 -0.27327
 O130 O 0.75359 0.20618 -0.27125
 O131 O 0.75282 0.28435 -0.27796
 O132 O 0.71469 0.24669 -0.27644
 Zr133 Zr 0.74849 0.25479 -0.20828
 Zr134 Zr 0.78999 0.28625 -0.25394
 Zr135 Zr 0.71413 0.21117 -0.25038
 Zr136 Zr 0.79048 0.21021 -0.24751
 O137 O 0.66687 0.21469 -0.24879
 O138 O 0.83739 0.21703 -0.24493
 O139 O 0.75109 0.21272 -0.22601
 O140 O 0.78924 0.25057 -0.22812
 O141 O 0.75041 0.29162 -0.23283
 O142 O 0.71055 0.25160 -0.23117
 C143 C 0.80487 0.19422 -0.30338
 C144 C 0.70238 0.20009 -0.30788
 C145 C 0.80303 0.29084 -0.31202
 O146 O 0.83714 0.28213 -0.25242
 O147 O 0.80567 0.30570 -0.22013
 O148 O 0.77634 0.28521 -0.18907
 C149 C 0.79798 0.30202 -0.19677
 O150 O 0.69572 0.29917 -0.29255
 Zr151 Zr 0.71347 0.28708 -0.25666
 O152 O 0.71855 0.28483 -0.19094
 O153 O 0.78603 0.33313 -0.25749
 O154 O 0.72068 0.33359 -0.26135
 O155 O 0.66632 0.28118 -0.25654
 O156 O 0.69670 0.30845 -0.22445
 C157 C 0.70052 0.30412 -0.20067
 O158 O 0.77014 0.23679 -0.17599
 O159 O 0.71733 0.16403 -0.24996
 O160 O 0.72166 0.22582 -0.18615
 O161 O 0.70030 0.19438 -0.21478
 O162 O 0.78440 0.16329 -0.24551
 O163 O 0.80400 0.19435 -0.21133
 C164 C 0.70564 0.20295 -0.19198
 H165 H 0.75342 0.18685 -0.28027
 H166 H 0.80660 0.25097 -0.21656
 H167 H 0.69167 0.25207 -0.22127
 H168 H 0.75272 0.30098 -0.29035
 H169 H 0.84726 0.19733 -0.24678
 H170 H 0.84543 0.30259 -0.25402
 H171 H 0.80665 0.34131 -0.25711
 H172 H 0.70118 0.34374 -0.25885
 H173 H 0.80433 0.15387 -0.24766
 H174 H 0.69656 0.15624 -0.25032
 H175 H 0.65896 0.19410 -0.24719
 H176 H 0.65704 0.30116 -0.25470
 H177 H 0.82072 0.18001 -0.21333
 H178 H 0.76104 0.24608 -0.16075
 H179 H 0.74496 0.25261 -0.34370
 H180 H 0.68181 0.31622 -0.29055
 Zr181 Zr 0.24444 0.75255 -0.29192
 O182 O 0.26269 0.73058 -0.32395
 O183 O 0.21500 0.78275 -0.30969
 O184 O 0.21387 0.72504 -0.31135
 O185 O 0.30554 0.79985 -0.28498
 O186 O 0.19233 0.69639 -0.28037
 O187 O 0.27420 0.77884 -0.31384
 O188 O 0.19124 0.80508 -0.27655
 O189 O 0.20708 0.75129 -0.26777
 O190 O 0.24782 0.79041 -0.26914
 O191 O 0.24775 0.71200 -0.27185
 O192 O 0.28635 0.74941 -0.27375
 Zr193 Zr 0.25510 0.74551 -0.20399
 Zr194 Zr 0.21155 0.71191 -0.24642
 Zr195 Zr 0.28803 0.78635 -0.24951
 Zr196 Zr 0.21180 0.78815 -0.24402
 O197 O 0.33528 0.78241 -0.24947
 O198 O 0.16496 0.78162 -0.23994
 O199 O 0.25200 0.78645 -0.22382
 O200 O 0.21359 0.74903 -0.22252
 O201 O 0.25195 0.70740 -0.22664
 O202 O 0.29212 0.74709 -0.22840
 C203 C 0.19584 0.80125 -0.30033
 C204 C 0.29730 0.79463 -0.30793
 C205 C 0.19655 0.70378 -0.30373
 O206 O 0.16453 0.71655 -0.24335
 O207 O 0.19708 0.69443 -0.21115
 O208 O 0.22798 0.71620 -0.18237
 C209 C 0.20583 0.69910 -0.18824
 O210 O 0.30420 0.69630 -0.28796
 Zr211 Zr 0.28793 0.71026 -0.25202
 O212 O 0.28582 0.71633 -0.18636
 O213 O 0.21500 0.66485 -0.24778
 O214 O 0.28045 0.66359 -0.25453
 O215 O 0.33512 0.71563 -0.25349
 O216 O 0.30530 0.69022 -0.21954
 C217 C 0.30286 0.69602 -0.19590
 O218 O 0.23484 0.76531 -0.17180
 O219 O 0.28525 0.83349 -0.25121
 O220 O 0.28261 0.77583 -0.18431
 O221 O 0.30313 0.80515 -0.21532
 O222 O 0.21836 0.83505 -0.24416
 O223 O 0.19932 0.80621 -0.20835
 C224 C 0.29843 0.79822 -0.19193
 H225 H 0.24779 0.80920 -0.27909
 H226 H 0.19672 0.74941 -0.21031
 H227 H 0.31137 0.74703 -0.21916
 H228 H 0.24729 0.69463 -0.28334
 H229 H 0.15509 0.80118 -0.24265
 H230 H 0.15603 0.69612 -0.24374
 H231 H 0.19434 0.65690 -0.24634
 H232 H 0.30003 0.65348 -0.25239
 H233 H 0.19848 0.84457 -0.24627
 H234 H 0.30605 0.84105 -0.25264
 H235 H 0.34341 0.80298 -0.24909
 H236 H 0.34423 0.69564 -0.25111
 H237 H 0.18233 0.82017 -0.21058
 H238 H 0.24450 0.75675 -0.15649
 H239 H 0.25373 0.73972 -0.33932
 H240 H 0.31839 0.67952 -0.28571
 Zr241 Zr 1.25493 1.25661 0.79381
 O242 O 1.23691 1.23640 0.82692
 O243 O 1.28463 1.28773 0.81013
 O244 O 1.28562 1.23019 0.81428
 O245 O 1.19369 1.30341 0.78500
 O246 O 1.30624 1.19910 0.78483
 O247 O 1.22528 1.28384 0.81461
 O248 O 1.30841 1.30813 0.77590
 O249 O 1.29211 1.25368 0.76965
 O250 O 1.25165 1.29329 0.76939
 O251 O 1.25093 1.21505 0.77567
 O252 O 1.21290 1.25282 0.77588
 Zr253 Zr 1.24351 1.24499 0.70648
 Zr254 Zr 1.28704 1.21318 0.75022
 Zr255 Zr 1.21127 1.28854 0.75006
 Zr256 Zr 1.28754 1.28935 0.74431
 O257 O 1.16397 1.28524 0.75008
 O258 O 1.33430 1.28212 0.74047
 O259 O 1.24720 1.28693 0.72433
 O260 O 1.28516 1.24909 0.72470
 O261 O 1.24646 1.20802 0.73074
 O262 O 1.20663 1.24824 0.73082
 C263 C 1.30390 1.30550 0.79981
 C264 C 1.20209 1.29907 0.80804
 C265 C 1.30252 1.20819 0.80777
 O266 O 1.33410 1.21716 0.74687
 O267 O 1.30126 1.19396 0.71567
 O268 O 1.27008 1.21438 0.68614
 C269 C 1.29215 1.19758 0.69272
 O270 O 1.19458 1.20019 0.79253
 Zr271 Zr 1.21059 1.21256 0.75599
 O272 O 1.21245 1.21520 0.69017
 O273 O 1.28312 1.16628 0.75364
 O274 O 1.21787 1.16599 0.76002
 O275 O 1.16353 1.21874 0.75800
 O276 O 1.19198 1.19155 0.72442
 C277 C 1.19470 1.19593 0.70051
 O278 O 1.26387 1.26292 0.67341
 O279 O 1.21451 1.33569 0.74997
 O280 O 1.21614 1.27437 0.68555
 O281 O 1.19640 1.30593 0.71506
 O282 O 1.28126 1.33623 0.74214
 O283 O 1.30013 1.30519 0.70779
 C284 C 1.20080 1.29747 0.69204
 H285 H 1.25187 1.31255 0.77851
 H286 H 1.30196 1.24869 0.71242
 H287 H 1.18733 1.24793 0.72166
 H288 H 1.25133 1.19834 0.78798
 H289 H 1.34438 1.30172 0.74219
 H290 H 1.34238 1.19668 0.74816
 H291 H 1.30368 1.15806 0.75240
 H292 H 1.19823 1.15591 0.75832
 H293 H 1.30121 1.34574 0.74368
 H294 H 1.19379 1.34350 0.75116
 H295 H 1.15611 1.30587 0.74884
 H296 H 1.15404 1.19883 0.75648
 H297 H 1.31720 1.31917 0.70933
 H298 H 1.25404 1.25375 0.65851
 H299 H 1.24605 1.24628 0.84181
 H300 H 1.18055 1.18318 0.79101
 Zr301 Zr 0.74699 0.74709 0.79421
 O302 O 0.76680 0.76867 0.82561
 O303 O 0.71794 0.71705 0.81301
 O304 O 0.71770 0.77524 0.81472
 O305 O 0.80676 0.69870 0.78486
 O306 O 0.69565 0.80421 0.78442
 O307 O 0.77729 0.72051 0.81499
 O308 O 0.69190 0.69597 0.78063
 O309 O 0.70879 0.74921 0.77139
 O310 O 0.74863 0.70920 0.77124
 O311 O 0.75059 0.78756 0.77403
 O312 O 0.78814 0.74932 0.77437
 Zr313 Zr 0.75433 0.75396 0.70581
 Zr314 Zr 0.71348 0.78849 0.74995
 Zr315 Zr 0.78805 0.71236 0.75008
 Zr316 Zr 0.71170 0.71231 0.74743
 O317 O 0.83536 0.71506 0.74835
 O318 O 0.66490 0.71990 0.74494
 O319 O 0.75105 0.71306 0.72572
 O320 O 0.71359 0.75140 0.72595
 O321 O 0.75304 0.79216 0.72855
 O322 O 0.79222 0.75151 0.72888
 C323 C 0.69787 0.69932 0.80415
 C324 C 0.79970 0.70434 0.80804
 C325 C 0.70046 0.79676 0.80762
 O326 O 0.66626 0.78503 0.74835
 O327 O 0.69820 0.80648 0.71541
 O328 O 0.72673 0.78364 0.68519
 C329 C 0.70552 0.80133 0.69223
 O330 O 0.80788 0.80248 0.78779
 Zr331 Zr 0.78991 0.78845 0.75259
 O332 O 0.78517 0.78216 0.68702
 O333 O 0.71809 0.83544 0.75146
 O334 O 0.78336 0.83527 0.75487
 O335 O 0.83696 0.78181 0.75282
 O336 O 0.80701 0.80756 0.71939
 C337 C 0.80352 0.80166 0.69587
 O338 O 0.73234 0.73459 0.67441
 O339 O 0.78416 0.66530 0.75191
 O340 O 0.78043 0.72316 0.68514
 O341 O 0.80150 0.69333 0.71536
 O342 O 0.71723 0.66528 0.74743
 O343 O 0.69737 0.69460 0.71224
 C344 C 0.79615 0.70049 0.69216
 H345 H 0.74861 0.69039 0.78115
 H346 H 0.69619 0.75143 0.71441
 H347 H 0.81112 0.75104 0.71901
 H348 H 0.75092 0.80493 0.78553
 H349 H 0.65468 0.70056 0.74796
 H350 H 0.65827 0.80565 0.74909
 H351 H 0.69760 0.84390 0.75065
 H352 H 0.80301 0.84499 0.75186
 H353 H 0.69723 0.65620 0.75027
 H354 H 0.80480 0.65723 0.75266
 H355 H 0.84295 0.69429 0.74768
 H356 H 0.84656 0.80150 0.74995
 H357 H 0.68034 0.68082 0.71511
 H358 H 0.74159 0.74288 0.65875
 H359 H 0.75823 0.75969 0.84128
 H360 H 0.82204 0.81918 0.78490
 Zr361 Zr 1.25407 0.74611 0.20427
 O362 O 1.23469 0.76572 0.17161
 O363 O 1.28440 0.71588 0.18737
 O364 O 1.28391 0.77232 0.18247
 O365 O 1.19248 0.70063 0.21550
 O366 O 1.30667 0.80274 0.21110
 O367 O 1.22394 0.71834 0.18470
 O368 O 1.30797 0.69477 0.22121
 O369 O 1.29194 0.74853 0.22737
 O370 O 1.25088 0.70977 0.22911
 O371 O 1.25144 0.78796 0.22210
 O372 O 1.21271 0.75090 0.22345
 Zr373 Zr 1.24581 0.75912 0.29190
 Zr374 Zr 1.28839 0.78937 0.24638
 Zr375 Zr 1.21126 0.71568 0.24974
 Zr376 Zr 1.28747 0.71325 0.25317
 O377 O 1.16406 0.71999 0.25107
 O378 O 1.33446 0.71901 0.25646
 O379 O 1.24793 0.71684 0.27440
 O380 O 1.28668 0.75384 0.27234
 O381 O 1.24865 0.79556 0.26702
 O382 O 1.20803 0.75636 0.26880
 C383 C 1.30408 0.69844 0.19737
 C384 C 1.20052 0.70395 0.19218
 C385 C 1.30167 0.79384 0.18833
 O386 O 1.33546 0.78438 0.24808
 O387 O 1.30425 0.80864 0.28017
 O388 O 1.27463 0.78852 0.31119
 C389 C 1.29655 0.80497 0.30352
 O390 O 1.19437 0.80279 0.20683
 Zr391 Zr 1.21183 0.79142 0.24298
 O392 O 1.21758 0.79142 0.30866
 O393 O 1.28519 0.83631 0.24280
 O394 O 1.21939 0.83773 0.23728
 O395 O 1.16461 0.78616 0.24347
 O396 O 1.19593 0.81429 0.27472
 C397 C 1.20052 0.81134 0.29853
 O398 O 1.26617 0.74071 0.32462
 O399 O 1.21353 0.66848 0.25028
 O400 O 1.21779 0.73109 0.31391
 O401 O 1.19699 0.69922 0.28532
 O402 O 1.28015 0.66651 0.25510
 O403 O 1.30010 0.69726 0.28954
 C404 C 1.20190 0.70810 0.30810
 H405 H 1.25073 0.69048 0.22004
 H406 H 1.30395 0.75392 0.28400
 H407 H 1.18916 0.75748 0.27868
 H408 H 1.25166 0.80453 0.20965
 H409 H 1.34392 0.69908 0.25483
 H410 H 1.34413 0.80467 0.24648
 H411 H 1.30594 0.84415 0.24317
 H412 H 1.19991 0.84810 0.23930
 H413 H 1.29986 0.65661 0.25302
 H414 H 1.19263 0.66109 0.24980
 H415 H 1.15580 0.69953 0.25262
 H416 H 1.15565 0.80631 0.24507
 H417 H 1.31616 0.68216 0.28772
 H418 H 1.25718 0.75054 0.33968
 H419 H 1.24339 0.75573 0.15651
 H420 H 1.18008 0.81956 0.20855
 Zr421 Zr 0.74094 1.25362 0.20828
 O422 O 0.75981 1.23296 0.17588
 O423 O 0.70858 1.28143 0.19109
 O424 O 0.71167 1.22454 0.18908
 O425 O 0.80059 1.30283 0.21477
 O426 O 0.69134 1.19536 0.22027
 O427 O 0.76904 1.28148 0.18617
 O428 O 0.68523 1.30328 0.22471
 O429 O 0.70419 1.25093 0.23299
 O430 O 0.74334 1.29155 0.23109
 O431 O 0.74626 1.21316 0.22824
 O432 O 0.78324 1.25191 0.22603
 Zr433 Zr 0.75332 1.24657 0.29610
 Zr434 Zr 0.71041 1.21162 0.25402
 Zr435 Zr 0.78403 1.28877 0.25038
 Zr436 Zr 0.70797 1.28794 0.25674
 O437 O 0.83140 1.28663 0.24991
 O438 O 0.66150 1.28022 0.26223
 O439 O 0.74850 1.28752 0.27650
 O440 O 0.71146 1.24875 0.27800
 O441 O 0.75124 1.20854 0.27330
 O442 O 0.78996 1.24957 0.27140
 C443 C 0.68844 1.29847 0.20095
 C444 C 0.79188 1.29765 0.19197
 C445 C 0.69514 1.20275 0.19686
 O446 O 0.66328 1.21464 0.25740
 O447 O 0.69692 1.19366 0.28938
 O448 O 0.72696 1.21697 0.31802
 C449 C 0.70561 1.19897 0.31216
 O450 O 0.80326 1.19983 0.21149
 Zr451 Zr 0.78683 1.21280 0.24765
 O452 O 0.78356 1.21662 0.31343
 O453 O 0.71564 1.16472 0.25267
 O454 O 0.78127 1.16590 0.24473
 O455 O 0.83372 1.22024 0.24596
 O456 O 0.80514 1.19283 0.27992
 C457 C 0.80119 1.19694 0.30370
 O458 O 0.73330 1.26629 0.32843
 O459 O 0.77947 1.33577 0.24880
 O460 O 0.78102 1.27693 0.31554
 O461 O 0.79904 1.30782 0.28451
 O462 O 0.71300 1.33502 0.25586
 O463 O 0.69618 1.30573 0.29267
 C464 C 0.79560 1.30012 0.30788
 H465 H 0.74220 1.31024 0.22106
 H466 H 0.69473 1.24857 0.29035
 H467 H 0.80925 1.24991 0.28056
 H468 H 0.74632 1.19580 0.21672
 H469 H 0.65101 1.29955 0.25996
 H470 H 0.65550 1.19392 0.25716
 H471 H 0.69531 1.15600 0.25425
 H472 H 0.80128 1.15658 0.24656
 H473 H 0.69274 1.34381 0.25408
 H474 H 0.79996 1.34409 0.24724
 H475 H 0.83875 1.30749 0.25026
 H476 H 0.84370 1.20066 0.24828
 H477 H 0.67927 1.31984 0.29073
 H478 H 0.74321 1.25785 0.34367
 H479 H 0.75005 1.24167 0.16069
 H480 H 0.81845 1.18391 0.21355
 O481 O 0.54108 1.04068 0.05432
 O482 O 0.57600 1.02157 0.02666
 C483 C 0.56842 1.03586 0.04716
 O484 O 0.45890 0.93696 0.03211
 O485 O 0.42516 0.97073 0.01596
 C486 C 0.43187 0.94624 0.02811
 O487 O 0.54095 0.93909 0.03675
 O488 O 0.57584 0.97126 0.01969
 C489 C 0.56825 0.94805 0.03327
 O490 O 0.45903 1.04509 0.05093
 O491 O 0.42515 1.02432 0.02348
 C492 C 0.43199 1.04041 0.04316
 Zr493 Zr 0.50038 1.03033 0.03676
 O494 O 0.49806 1.01694 0.07515
 O495 O 0.50283 1.07621 0.04586
 Zr496 Zr 0.50027 0.95747 0.02448
 O497 O 0.49793 0.95260 0.06426
 O498 O 0.50249 0.91084 0.01855
 O499 O 0.52729 0.99260 0.03582
 O500 O 0.47350 0.99300 0.03480
 O501 O 0.46125 1.06577 -0.03503
 O502 O 0.42636 1.03270 -0.01936
 C503 C 0.43393 1.05684 -0.03170
 O504 O 0.54343 0.96198 -0.05432
 O505 O 0.57713 0.98045 -0.02563
 C506 C 0.57043 0.96626 -0.04631
 O507 O 0.46106 0.95847 -0.05327
 O508 O 0.42614 0.97949 -0.02666
 C509 C 0.43372 0.96335 -0.04614
 O510 O 0.54364 1.06299 -0.03664
 O511 O 0.57725 1.03041 -0.01871
 C512 C 0.57062 1.05366 -0.03249
 Zr513 Zr 0.50199 1.04551 -0.02524
 O514 O 0.49998 1.05614 -0.06430
 O515 O 0.50335 1.09095 -0.01464
 Zr516 Zr 0.50188 0.97213 -0.03764
 O517 O 0.49980 0.97968 -0.07718
 O518 O 0.50333 0.92533 -0.04247
 Zr519 Zr 0.54674 1.00109 0.00008
 Zr520 Zr 0.45549 1.00166 -0.00118
 O521 O 0.47576 1.01005 -0.03653
 O522 O 0.52894 1.00986 -0.03613
 O523 O 0.47419 1.04388 0.00631
 O524 O 0.52755 0.95914 -0.00715
 O525 O 0.52769 1.04323 0.00699
 O526 O 0.47410 0.95916 -0.00796
 H527 H 0.45957 0.98969 0.04920
 H528 H 0.54088 0.94173 -0.00976
 H529 H 0.46297 1.01350 -0.05154
 H530 H 0.54106 1.06049 0.01004
 H531 H 0.49237 0.90685 0.00229
 H532 H 0.50395 0.92184 -0.06097
 H533 H 0.51408 0.99588 -0.08127
 H534 H 0.51611 1.04492 -0.07293
 H535 H 0.50397 1.10267 -0.03060
 H536 H 0.49129 1.08713 0.03283
 H537 H 0.49744 1.03555 0.08523
 H538 H 0.49710 0.93084 0.06765
 O539 O 1.04067 0.54162 0.55414
 O540 O 1.07583 0.52320 0.52636
 C541 C 1.06807 0.53737 0.54687
 O542 O 0.96050 0.43623 0.53233
 O543 O 0.92598 0.46927 0.51627
 C544 C 0.93325 0.44494 0.52843
 O545 O 1.04251 0.43996 0.53648
 O546 O 1.07665 0.47288 0.51938
 C547 C 1.06959 0.44947 0.53291
 O548 O 0.95851 0.54421 0.55118
 O549 O 0.92494 0.52287 0.52378
 C550 C 0.93153 0.53900 0.54347
 Zr551 Zr 1.00009 0.53039 0.53678
 O552 O 0.99833 0.51693 0.57517
 O553 O 1.00159 0.57632 0.54589
 Zr554 Zr 1.00139 0.45755 0.52444
 O555 O 0.99945 0.45262 0.56423
 O556 O 1.00447 0.41099 0.51844
 O557 O 1.02777 0.49321 0.53570
 O558 O 0.97397 0.49253 0.53489
 O559 O 0.95988 0.56514 0.46525
 O560 O 0.92573 0.53133 0.48095
 C561 C 0.93277 0.55566 0.46867
 O562 O 1.04400 0.46295 0.44548
 O563 O 1.07749 0.48207 0.47404
 C564 C 1.07095 0.46773 0.45339
 O565 O 0.96170 0.45769 0.44698
 O566 O 0.92652 0.47821 0.47360
 C567 C 0.93430 0.46212 0.45416
 O568 O 1.04224 0.56402 0.46323
 O569 O 1.07665 0.53212 0.48097
 C570 C 1.06945 0.55528 0.46726
 Zr571 Zr 1.00105 0.54564 0.47478
 O572 O 0.99858 0.55620 0.43573
 O573 O 1.00157 0.59110 0.48539
 Zr574 Zr 1.00235 0.47229 0.46234
 O575 O 0.99984 0.47990 0.42282
 O576 O 1.00477 0.42554 0.45742
 Zr577 Zr 1.04685 0.50213 0.49989
 Zr578 Zr 0.95558 0.50085 0.49899
 O579 O 0.97548 0.50967 0.46357
 O580 O 1.02866 0.51055 0.46376
 O581 O 0.97347 0.54343 0.50644
 O582 O 1.02845 0.45981 0.49271
 O583 O 1.02697 0.54386 0.50690
 O584 O 0.97501 0.45874 0.49212
 H585 H 0.96020 0.48893 0.54936
 H586 H 1.04210 0.44266 0.49003
 H587 H 0.96252 0.51287 0.44862
 H588 H 1.03999 0.56139 0.50990
 H589 H 0.99433 0.40683 0.50223
 H590 H 1.00531 0.42210 0.43890
 H591 H 1.01388 0.49627 0.41867
 H592 H 1.01493 0.54536 0.42704
 H593 H 1.00184 0.60284 0.46944
 H594 H 0.98971 0.58698 0.53292
 H595 H 0.99737 0.53551 0.58526
 H596 H 0.99910 0.43084 0.56762
 O597 O 1.04428 0.53870 0.05200
 O598 O 1.02302 0.57374 0.02571
 C599 C 1.03969 0.56600 0.04485
 O600 O 1.05930 0.45764 -0.03740
 O601 O 1.02678 0.42375 -0.01944
 C602 C 1.04989 0.43068 -0.03344
 O603 O 1.06338 0.53949 -0.03405
 O604 O 1.03093 0.57408 -0.01728
 C605 C 1.05488 0.56670 -0.03006
 O606 O 1.03882 0.45685 0.05404
 O607 O 1.01864 0.42337 0.02600
 C608 C 1.03362 0.42995 0.04635
 Zr609 Zr 1.02846 0.49820 0.03747
 O610 O 1.07459 0.49482 0.04603
 O611 O 1.01582 0.49929 0.07608
 Zr612 Zr 1.04268 0.49882 -0.02472
 O613 O 1.08843 0.49654 -0.01473
 O614 O 1.05254 0.50147 -0.06388
 O615 O 1.04187 0.52530 0.00738
 O616 O 1.04060 0.47199 0.00701
 O617 O 0.93601 0.45885 0.03722
 O618 O 0.96786 0.42434 0.01953
 C619 C 0.94466 0.43167 0.03326
 O620 O 0.95579 0.54176 -0.05103
 O621 O 0.97747 0.57528 -0.02389
 C622 C 0.96115 0.56866 -0.04346
 O623 O 0.95783 0.45975 -0.05363
 O624 O 0.97652 0.42476 -0.02595
 C625 C 0.96217 0.43246 -0.04639
 O626 O 0.93487 0.54070 0.03425
 O627 O 0.96914 0.57460 0.01888
 C628 C 0.94456 0.56768 0.03099
 Zr629 Zr 0.95524 0.49963 0.02609
 O630 O 0.90804 0.49965 0.02291
 O631 O 0.95244 0.50013 0.06604
 Zr632 Zr 0.96911 0.50024 -0.03637
 O633 O 0.92265 0.49850 -0.04416
 O634 O 0.98071 0.50195 -0.07521
 Zr635 Zr 0.99960 0.54474 0.00076
 Zr636 Zr 0.99798 0.45375 0.00023
 O637 O 0.95609 0.47377 -0.00618
 O638 O 0.95666 0.52680 -0.00593
 O639 O 0.99027 0.47180 0.03648
 O640 O 1.00733 0.52591 -0.03507
 O641 O 0.99131 0.52556 0.03651
 O642 O 1.00648 0.47273 -0.03565
 H643 H 1.05783 0.45837 0.00954
 H644 H 1.01081 0.53923 -0.04982
 H645 H 0.93848 0.46078 -0.00903
 H646 H 0.98842 0.53899 0.05117
 H647 H 1.03711 0.48966 -0.07275
 H648 H 0.96161 0.50257 -0.08469
 H649 H 0.91286 0.51450 -0.03426
 H650 H 0.90335 0.49528 0.00506
 H651 H 0.93084 0.50157 0.07023
 H652 H 1.03470 0.49934 0.08587
 H653 H 1.08553 0.50636 0.03293
 H654 H 1.09989 0.49622 -0.03084
 O655 O 0.45837 0.95773 0.44660
 O656 O 0.47752 0.92312 0.47444
 C657 C 0.46322 0.93054 0.45390
 O658 O 0.56253 1.03968 0.46790
 O659 O 0.52883 1.07351 0.48403
 C660 C 0.55331 1.06668 0.47179
 O661 O 0.56024 0.95791 0.46379
 O662 O 0.52799 0.92331 0.48113
 C663 C 0.55122 0.93074 0.46741
 O664 O 0.45397 1.03958 0.44954
 O665 O 0.47493 1.07355 0.47674
 C666 C 0.45868 1.06659 0.45716
 Zr667 Zr 0.46871 0.99845 0.46394
 O668 O 0.48182 1.00046 0.42545
 O669 O 0.42259 0.99579 0.45511
 Zr670 Zr 0.54191 0.99856 0.47592
 O671 O 0.54657 1.00053 0.43610
 O672 O 0.58872 0.99637 0.48171
 O673 O 0.50656 0.97160 0.46488
 O674 O 0.50624 1.02520 0.46559
 O675 O 0.43407 1.03814 0.53617
 O676 O 0.46684 1.07275 0.51963
 C677 C 0.44288 1.06532 0.53239
 O678 O 0.53778 0.95623 0.55495
 O679 O 0.51905 0.92242 0.52653
 C680 C 0.53343 0.92926 0.54709
 O681 O 0.54144 1.03822 0.55348
 O682 O 0.52036 1.07287 0.52672
 C683 C 0.53660 1.06543 0.54621
 O684 O 0.43671 0.95618 0.53833
 O685 O 0.46884 0.92236 0.52008
 C686 C 0.44582 0.92919 0.53421
 Zr687 Zr 0.45381 0.99738 0.52593
 O688 O 0.44113 0.99606 0.56461
 O689 O 0.40858 0.99660 0.51429
 Zr690 Zr 0.52749 0.99749 0.53810
 O691 O 0.51923 0.99924 0.57755
 O692 O 0.57443 0.99609 0.54310
 Zr693 Zr 0.49819 0.95249 0.50075
 Zr694 Zr 0.49781 1.04349 0.50149
 O695 O 0.48954 1.02365 0.53696
 O696 O 0.48963 0.97064 0.53682
 O697 O 0.45532 1.02487 0.49426
 O698 O 0.54034 0.97164 0.50770
 O699 O 0.45588 0.97141 0.49391
 O700 O 0.54043 1.02491 0.50821
 H701 H 0.50950 1.03895 0.45109
 H702 H 0.55783 0.95839 0.51033
 H703 H 0.48649 1.03683 0.55173
 H704 H 0.43859 0.95797 0.49108
 H705 H 0.59275 1.00632 0.49802
 H706 H 0.57784 0.99555 0.56162
 H707 H 0.50188 0.98608 0.58109
 H708 H 0.45533 1.00854 0.57418
 H709 H 0.39638 0.99553 0.52998
 H710 H 0.41180 1.00872 0.46724
 H711 H 0.46307 1.00097 0.41548
 H712 H 0.56838 1.00129 0.43261
 O713 O 0.96898 0.93217 0.46323
 O714 O 0.98429 0.96918 0.43583
 C715 C 0.97193 0.94355 0.44079
 O716 O 0.93365 1.02775 0.53693
 O717 O 0.96966 1.01091 0.56446
 C718 C 0.94406 1.02332 0.55945
 O719 O 0.93128 1.02847 0.46706
 O720 O 0.96737 1.01648 0.43767
 C721 C 0.94122 1.02681 0.44403
 O722 O 0.97401 0.92643 0.53282
 O723 O 0.98814 0.96107 0.56242
 C724 C 0.97745 0.93527 0.55593
 Zr725 Zr 0.98091 0.94953 0.49861
 O726 O 0.93772 0.93019 0.50040
 O727 O 1.00229 0.90757 0.49575
 Zr728 Zr 0.95285 1.01890 0.50145
 O729 O 0.91023 0.99833 0.50216
 O730 O 0.93404 1.06226 0.50150
 O731 O 0.96107 0.98341 0.47737
 O732 O 0.96194 0.98100 0.52224
 O733 O 1.07062 0.96435 0.53289
 O734 O 1.03540 0.97845 0.56236
 C735 C 1.06068 0.96631 0.55590
 O736 O 1.03242 1.06860 0.46753
 O737 O 1.01683 1.03473 0.43786
 C738 C 1.02872 1.05993 0.44445
 O739 O 1.03039 1.06596 0.53741
 O740 O 1.01697 1.02815 0.56468
 C741 C 1.02764 1.05456 0.55986
 O742 O 1.07169 0.97314 0.46324
 O743 O 1.03469 0.98764 0.43572
 C744 C 1.06123 0.97729 0.44069
 Zr745 Zr 1.05045 0.97710 0.49866
 O746 O 1.09531 0.99198 0.50118
 O747 O 1.06372 0.93196 0.49548
 Zr748 Zr 1.02261 1.04683 0.50182
 O749 O 1.06620 1.06517 0.50435
 O750 O 1.00227 1.08943 0.50279
 Zr751 Zr 1.00125 1.00044 0.46204
 Zr752 Zr 1.00223 0.99605 0.53821
 O753 O 1.04214 1.01270 0.52230
 O754 O 1.04187 1.01555 0.47766
 O755 O 1.01808 0.95664 0.52116
 O756 O 0.98548 1.03938 0.47973
 O757 O 1.01735 0.95953 0.47600
 O758 O 0.98584 1.03708 0.52452
 H759 H 0.94554 0.97398 0.53348
 H760 H 0.97884 1.05655 0.46928
 H761 H 1.05889 1.01836 0.53354
 H762 H 1.02347 0.94393 0.46377
 H763 H 0.94729 1.07494 0.51187
 H764 H 1.01883 1.10416 0.50302
 H765 H 1.07819 1.05703 0.49019
 H766 H 1.09694 1.01032 0.49079
 H767 H 1.08591 0.93207 0.49482
 H768 H 0.98605 0.89252 0.49503
 H769 H 0.92395 0.94413 0.49172
 H770 H 0.89537 1.01474 0.50310
 O771 O 0.56815 0.53171 0.03595
 O772 O 0.53165 0.51566 0.06364
 C773 C 0.55716 0.52832 0.05850
 O774 O 0.47049 0.56704 -0.03601
 O775 O 0.48714 0.53167 -0.06414
 C776 C 0.47455 0.55700 -0.05869
 O777 O 0.47150 0.56821 0.03410
 O778 O 0.48431 0.53186 0.06296
 C779 C 0.47372 0.55798 0.05701
 O780 O 0.57251 0.52775 -0.03384
 O781 O 0.53706 0.51436 -0.06310
 C782 C 0.56308 0.52492 -0.05686
 Zr783 Zr 0.55019 0.52013 0.00069
 O784 O 0.56916 0.56338 -0.00091
 O785 O 0.59262 0.49933 0.00278
 Zr786 Zr 0.48026 0.54751 -0.00085
 O787 O 0.50032 0.59026 -0.00146
 O788 O 0.43658 0.56585 0.00003
 O789 O 0.51642 0.53928 0.02259
 O790 O 0.51797 0.53907 -0.02225
 O791 O 0.53479 0.43076 -0.03432
 O792 O 0.52042 0.46644 -0.06319
 C793 C 0.53253 0.44106 -0.05717
 O794 O 0.43165 0.46735 0.03280
 O795 O 0.46614 0.48265 0.06214
 C796 C 0.44084 0.47065 0.05579
 O797 O 0.43307 0.47027 -0.03708
 O798 O 0.47041 0.48440 -0.06466
 C799 C 0.44410 0.47342 -0.05964
 O800 O 0.52716 0.42863 0.03532
 O801 O 0.51355 0.46523 0.06343
 C802 C 0.52365 0.43879 0.05804
 Zr803 Zr 0.52324 0.45063 0.00032
 O804 O 0.51066 0.40518 -0.00104
 O805 O 0.56904 0.43900 0.00255
 Zr806 Zr 0.45279 0.47783 -0.00166
 O807 O 0.43460 0.43428 -0.00410
 O808 O 0.40993 0.49788 -0.00193
 Zr809 Zr 0.49994 0.49888 0.03768
 Zr810 Zr 0.50295 0.49900 -0.03846
 O811 O 0.48688 0.45889 -0.02274
 O812 O 0.48485 0.45851 0.02179
 O813 O 0.54303 0.48334 -0.02219
 O814 O 0.46038 0.51454 0.02077
 O815 O 0.54092 0.48341 0.02311
 O816 O 0.46190 0.51483 -0.02406
 H817 H 0.52459 0.55572 -0.03336
 H818 H 0.44334 0.52087 0.03158
 H819 H 0.48107 0.44239 -0.03412
 H820 H 0.55677 0.47725 0.03513
 H821 H 0.42382 0.55287 -0.01052
 H822 H 0.39523 0.48130 -0.00210
 H823 H 0.44348 0.42220 0.00969
 H824 H 0.48869 0.40475 -0.00307
 H825 H 0.56968 0.41691 0.00338
 H826 H 0.60753 0.51570 0.00332
 H827 H 0.55511 0.57686 0.00797
 H828 H 0.48364 0.60485 -0.00181
 N829 N 0.33248 1.13779 0.16061
 C830 C 0.32778 1.14399 0.13580
 N831 N 0.31331 1.16956 0.12942
 N832 N 0.30350 1.18809 0.14735
 C833 C 0.30811 1.18186 0.17226
 N834 N 0.32271 1.15630 0.17851
 C835 C 0.33995 1.12448 0.11675
 C836 C 0.35240 1.10784 0.10216
 C837 C 0.37070 1.08830 0.08705
 N838 N 0.36263 1.07918 0.06350
 N839 N 0.38137 1.06270 0.04947
 C840 C 0.40873 1.05493 0.05865
 N841 N 0.41632 1.06387 0.08227
 N842 N 0.39769 1.08012 0.09621
 N843 N 0.83309 0.63691 0.66095
 C844 C 0.82753 0.64236 0.63614
 N845 N 0.81230 0.66743 0.62962
 N846 N 0.80260 0.68621 0.64741
 C847 C 0.80809 0.68072 0.67231
 N848 N 0.82344 0.65565 0.67871
 C849 C 0.83953 0.62262 0.61721
 C850 C 0.85184 0.60580 0.60268
 C851 C 0.86994 0.58607 0.58759
 N852 N 0.86236 0.57803 0.56364
 N853 N 0.88113 0.56166 0.54955
 C854 C 0.90803 0.55293 0.55906
 N855 N 0.91512 0.56076 0.58308
 N856 N 0.89645 0.57689 0.59707
 N857 N 0.66278 0.85744 0.15832
 C858 C 0.66756 0.85007 0.13375
 N859 N 0.68233 0.82440 0.12837
 N860 N 0.69237 0.80689 0.14696
 C861 C 0.68773 0.81426 0.17160
 N862 N 0.67282 0.83994 0.17692
 C863 C 0.65546 0.86828 0.11372
 C864 C 0.64373 0.88284 0.09719
 C865 C 0.62704 0.89875 0.07818
 N866 N 0.63505 0.92656 0.07019
 N867 N 0.61730 0.94205 0.05458
 C868 C 0.59098 0.93018 0.04656
 N869 N 0.58346 0.90224 0.05437
 N870 N 0.60114 0.88680 0.06978
 N871 N 1.18370 0.32671 0.62835
 C872 C 1.16882 0.35232 0.63374
 N873 N 1.16362 0.35944 0.65830
 N874 N 1.17337 0.34175 0.67689
 C875 C 1.18839 0.31613 0.67157
 N876 N 1.19345 0.30902 0.64693
 C877 C 1.15695 0.37064 0.61368
 C878 C 1.14540 0.38519 0.59707
 C879 C 1.12889 0.40097 0.57787
 N880 N 1.13605 0.42930 0.57070
 N881 N 1.11825 0.44459 0.55499
 C882 C 1.09272 0.43196 0.54604
 N883 N 1.08607 0.40351 0.55300
 N884 N 1.10382 0.38828 0.56851
 N885 N 0.66728 1.14245 -0.15703
 C886 C 0.67305 1.14961 -0.13261
 N887 N 0.68890 1.17475 -0.12768
 N888 N 0.69898 1.19193 -0.14656
 C889 C 0.69330 1.18477 -0.17106
 N890 N 0.67734 1.15963 -0.17591
 C891 C 0.66070 1.13187 -0.11227
 C892 C 0.64866 1.11764 -0.09560
 C893 C 0.63151 1.10206 -0.07654
 N894 N 0.63852 1.07384 -0.06897
 N895 N 0.62016 1.05862 -0.05354
 C896 C 0.59418 1.07118 -0.04527
 N897 N 0.58765 1.09952 -0.05262
 N898 N 0.60596 1.11468 -0.06786
 N899 N 1.16368 0.64740 0.34294
 C900 C 1.16929 0.65457 0.36738
 N901 N 1.18485 0.67987 0.37238
 N902 N 1.19483 0.69719 0.35354
 C903 C 1.18934 0.69001 0.32902
 N904 N 1.17364 0.66472 0.32410
 C905 C 1.15729 0.63646 0.38767
 C906 C 1.14560 0.62179 0.40426
 C907 C 1.12891 0.60556 0.42326
 N908 N 1.13663 0.57743 0.43056
 N909 N 1.11874 0.56161 0.44596
 C910 C 1.09253 0.57346 0.45447
 N911 N 1.08529 0.60172 0.44737
 N912 N 1.10313 0.61748 0.43217
 N913 N 0.33669 0.86197 -0.16245
 C914 C 0.33139 0.85718 -0.13747
 N915 N 0.31604 0.83239 -0.13025
 N916 N 0.30594 0.81327 -0.14754
 C917 C 0.31114 0.81812 -0.17261
 N918 N 0.32664 0.84288 -0.17971
 C919 C 0.34355 0.87742 -0.11909
 C920 C 0.35584 0.89459 -0.10495
 C921 C 0.37374 0.91461 -0.09011
 N922 N 0.36490 0.92456 -0.06694
 N923 N 0.38324 0.94139 -0.05300
 C924 C 0.41096 0.94872 -0.06187
 N925 N 0.41934 0.93896 -0.08513
 N926 N 0.40110 0.92236 -0.09900
 N927 N 0.83312 0.36421 0.33753
 C928 C 0.82943 0.35831 0.36254
 N929 N 0.81532 0.33278 0.36968
 N930 N 0.80486 0.31398 0.35230
 C931 C 0.80847 0.31991 0.32720
 N932 N 0.82271 0.34544 0.32017
 C933 C 0.84230 0.37801 0.38099
 C934 C 0.85520 0.39459 0.39524
 C935 C 0.87383 0.41374 0.41025
 N936 N 0.86443 0.42568 0.43256
 N937 N 0.88310 0.44211 0.44654
 C938 C 0.91171 0.44703 0.43855
 N939 N 0.92068 0.43523 0.41614
 N940 N 0.90214 0.41900 0.40226
 N941 N 1.14352 0.34321 0.16189
 C942 C 1.14652 0.33527 0.13729
 N943 N 1.16986 0.31760 0.13041
 N944 N 1.18921 0.30775 0.14775
 C945 C 1.18604 0.31546 0.17250
 N946 N 1.16281 0.33339 0.17919
 C947 C 1.12507 0.34579 0.11902
 C948 C 1.10645 0.35631 0.10504
 C949 C 1.08420 0.37172 0.09028
 N950 N 1.06966 0.39509 0.10080
 N951 N 1.05174 0.41221 0.08692
 C952 C 1.04733 0.40649 0.06200
 N953 N 1.06136 0.38257 0.05150
 N954 N 1.07950 0.36542 0.06545
 N955 N 0.64397 0.84254 0.66206
 C956 C 0.64699 0.83468 0.63744
 N957 N 0.67042 0.81718 0.63049
 N958 N 0.68985 0.80740 0.64778
 C959 C 0.68666 0.81502 0.67254
 N960 N 0.66335 0.83279 0.67931
 C961 C 0.62548 0.84516 0.61925
 C962 C 0.60680 0.85571 0.60537
 C963 C 0.58450 0.87120 0.59078
 N964 N 0.57044 0.89487 0.60130
 N965 N 0.55244 0.91201 0.58752
 C966 C 0.54747 0.90602 0.56273
 N967 N 0.56100 0.88181 0.55225
 N968 N 0.57924 0.86464 0.56609
 N969 N 1.14875 0.65852 -0.15520
 C970 C 1.15579 0.66428 -0.13074
 N971 N 1.18049 0.68085 -0.12577
 N972 N 1.19726 0.69176 -0.14463
 C973 C 1.19010 0.68639 -0.16923
 N974 N 1.16551 0.66943 -0.17406
 C975 C 1.13783 0.65205 -0.11037
 C976 C 1.12313 0.64060 -0.09362
 C977 C 1.10657 0.62461 -0.07431
 N978 N 1.11838 0.59931 -0.06447
 N979 N 1.10226 0.58211 -0.04899
 C980 C 1.07374 0.58954 -0.04250
 N981 N 1.06204 0.61530 -0.05193
 N982 N 1.07822 0.63256 -0.06758
 N983 N 0.64748 1.15731 0.34746
 C984 C 0.65425 1.16392 0.37181
 N985 N 0.67870 1.18092 0.37658
 N986 N 0.69552 1.19140 0.35760
 C987 C 0.68870 1.18501 0.33316
 N988 N 0.66431 1.16778 0.32847
 C989 C 0.63626 1.15216 0.39229
 C990 C 0.62153 1.14103 0.40913
 C991 C 0.60495 1.12532 0.42851
 N992 N 0.61723 1.10077 0.43926
 N993 N 0.60105 1.08341 0.45456
 C994 C 0.57201 1.08997 0.45992
 N995 N 0.55982 1.11502 0.44962
 N996 N 0.57605 1.13241 0.43415
 N997 N 0.85284 0.65696 0.15806
 C998 C 0.84521 0.66204 0.13357
 N999 N 0.81971 0.67735 0.12854
 N1000 N 0.80268 0.68771 0.14735
 C1001 C 0.81034 0.68288 0.17191
 N1002 N 0.83580 0.66732 0.17689
 C1003 C 0.86340 0.65055 0.11319
 C1004 C 0.87804 0.63985 0.09617
 C1005 C 0.89431 0.62482 0.07633
 N1006 N 0.92332 0.63163 0.07084
 N1007 N 0.93912 0.61485 0.05471
 C1008 C 0.92635 0.59075 0.04352
 N1009 N 0.89718 0.58452 0.04874
 N1010 N 0.88144 0.60127 0.06470
 N1011 N 0.35153 1.15676 0.65851
 C1012 C 0.34388 1.16164 0.63401
 N1013 N 0.31848 1.17709 0.62889
 N1014 N 0.30158 1.18777 0.64765
 C1015 C 0.30928 1.18313 0.67222
 N1016 N 0.33463 1.16745 0.67729
 C1017 C 0.36186 1.14970 0.61373
 C1018 C 0.37636 1.13852 0.59687
 C1019 C 0.39247 1.12284 0.57734
 N1020 N 0.42089 1.13052 0.57057
 N1021 N 0.43667 1.11342 0.55467
 C1022 C 0.42448 1.08809 0.54506
 N1023 N 0.39589 1.08094 0.55159
 N1024 N 0.38017 1.09800 0.56731
 N1025 N 0.86002 0.34266 -0.16680
 C1026 C 0.85513 0.33705 -0.14187
 N1027 N 0.83049 0.32126 -0.13488
 N1028 N 0.81168 0.31095 -0.15233
 C1029 C 0.81667 0.31632 -0.17736
 N1030 N 0.84123 0.33237 -0.18423
 C1031 C 0.87567 0.34832 -0.12327
 C1032 C 0.89324 0.35932 -0.10870
 C1033 C 0.91406 0.37523 -0.09301
 N1034 N 0.91949 0.36710 -0.06861
 N1035 N 0.93652 0.38420 -0.05378
 C1036 C 0.94863 0.40995 -0.06297
 N1037 N 0.94346 0.41756 -0.08746
 N1038 N 0.92665 0.40051 -0.10221
 N1039 N 0.35973 0.84375 0.33346
 C1040 C 0.35492 0.83789 0.35835
 N1041 N 0.32995 0.82266 0.36536
 N1042 N 0.31072 0.81308 0.34793
 C1043 C 0.31563 0.81867 0.32293
 N1044 N 0.34053 0.83419 0.31605
 C1045 C 0.37594 0.84829 0.37689
 C1046 C 0.39394 0.85856 0.39145
 C1047 C 0.41530 0.87363 0.40717
 N1048 N 0.41916 0.86624 0.43194
 N1049 N 0.43637 0.88306 0.44684
 C1050 C 0.45022 0.90776 0.43736
 N1051 N 0.44666 0.91459 0.41250
 N1052 N 0.42968 0.89780 0.39768
 N1053 N 1.13029 1.15500 0.32351
 C1054 C 1.12967 1.15996 0.34869
 N1055 N 1.15051 1.17805 0.35924
 N1056 N 1.17129 1.19117 0.34481
 C1057 C 1.17182 1.18630 0.31949
 N1058 N 1.15098 1.16805 0.30915
 C1059 C 1.10781 1.14525 0.36382
 C1060 C 1.08983 1.13191 0.37635
 C1061 C 1.06995 1.11532 0.39201
 N1062 N 1.06387 1.12516 0.41561
 N1063 N 1.04916 1.10781 0.43186
 C1064 C 1.04006 1.08011 0.42504
 N1065 N 1.04556 1.07050 0.40116
 N1066 N 1.06039 1.08788 0.38487
 N1067 N 0.67699 0.65444 -0.14010
 C1068 C 0.65483 0.63724 -0.14980
 N1069 N 0.64573 0.64190 -0.17385
 N1070 N 0.65882 0.66272 -0.18804
 C1071 C 0.68129 0.67974 -0.17863
 N1072 N 0.69013 0.67536 -0.15435
 C1073 C 0.64143 0.61392 -0.13524
 C1074 C 0.62951 0.59437 -0.12331
 C1075 C 0.61462 0.57220 -0.10848
 N1076 N 0.58716 0.56213 -0.11525
 N1077 N 0.57130 0.54497 -0.09948
 C1078 C 0.58249 0.53741 -0.07649
 N1079 N 0.61031 0.54695 -0.07013
 N1080 N 0.62615 0.56402 -0.08587
 N1081 N 0.85891 1.13722 0.67771
 C1082 C 0.85131 1.13219 0.65340
 N1083 N 0.82927 1.14871 0.64258
 N1084 N 0.81484 1.16943 0.65596
 C1085 C 0.82222 1.17423 0.68049
 N1086 N 0.84453 1.15784 0.69104
 C1087 C 0.86617 1.10926 0.63963
 C1088 C 0.87895 1.09013 0.62802
 C1089 C 0.89409 1.06851 0.61302
 N1090 N 0.88135 1.05918 0.59131
 N1091 N 0.89694 1.04281 0.57503
 C1092 C 0.92573 1.03510 0.57996
 N1093 N 0.93825 1.04375 0.60210
 N1094 N 0.92262 1.06028 0.61841
 N1095 N 0.36451 0.64822 0.17762
 C1096 C 0.36517 0.65234 0.15226
 N1097 N 0.34504 0.67108 0.14135
 N1098 N 0.32496 0.68553 0.15552
 C1099 C 0.32443 0.68154 0.18101
 N1100 N 0.34452 0.66262 0.19173
 C1101 C 0.38715 0.63715 0.13736
 C1102 C 0.40558 0.62415 0.12493
 C1103 C 0.42667 0.60864 0.10938
 N1104 N 0.43489 0.62049 0.08681
 N1105 N 0.45159 0.60479 0.07079
 C1106 C 0.46079 0.57677 0.07681
 N1107 N 0.45308 0.56514 0.09971
 N1108 N 0.43628 0.58088 0.11577
 N1109 N 1.14619 0.85783 0.67863
 C1110 C 1.15094 0.85722 0.65337
 N1111 N 1.17013 0.83685 0.64347
 N1112 N 1.18455 0.81781 0.65857
 C1113 C 1.18019 0.81864 0.68403
 N1114 N 1.16057 0.83888 0.69369
 C1115 C 1.13636 0.87849 0.63756
 C1116 C 1.12400 0.89654 0.62444
 C1117 C 1.10929 0.91733 0.60828
 N1118 N 1.12082 0.92320 0.58507
 N1119 N 1.10581 0.94021 0.56884
 C1120 C 1.07885 0.95200 0.57532
 N1121 N 1.06757 0.94655 0.59879
 N1122 N 1.08261 0.92945 0.61505
 N1123 N 0.62548 0.34537 0.18103
 C1124 C 0.62528 0.34137 0.15569
 N1125 N 0.64625 0.32347 0.14488
 N1126 N 0.66676 0.30979 0.15910
 C1127 C 0.66691 0.31377 0.18456
 N1128 N 0.64590 0.33176 0.19520
 C1129 C 0.60350 0.35654 0.14063
 C1130 C 0.58553 0.36983 0.12799
 C1131 C 0.56536 0.38597 0.11207
 N1132 N 0.55761 0.37446 0.08940
 N1133 N 0.54243 0.39090 0.07285
 C1134 C 0.53434 0.41936 0.07840
 N1135 N 0.54148 0.43064 0.10140
 N1136 N 0.55677 0.41416 0.11799
 N1137 N 0.86626 0.85427 0.31740
 C1138 C 0.86635 0.85140 0.34287
 N1139 N 0.84625 0.83292 0.35428
 N1140 N 0.82665 0.81759 0.34050
 C1141 C 0.82663 0.82039 0.31492
 N1142 N 0.84673 0.83900 0.30367
 C1143 C 0.88773 0.86743 0.35745
 C1144 C 0.90559 0.88071 0.37003
 C1145 C 0.92593 0.89580 0.38628
 N1146 N 0.93371 0.88283 0.40844
 N1147 N 0.94982 0.89780 0.42520
 C1148 C 0.95883 0.92619 0.42034
 N1149 N 0.95154 0.93902 0.39786
 N1150 N 0.93529 0.92400 0.38106
 N1151 N 0.35690 0.36380 -0.18137
 C1152 C 0.35167 0.36599 -0.15621
 N1153 N 0.33135 0.34747 -0.14511
 N1154 N 0.31645 0.32754 -0.15888
 C1155 C 0.32153 0.32548 -0.18417
 N1156 N 0.34204 0.34393 -0.19510
 C1157 C 0.36713 0.38801 -0.14169
 C1158 C 0.38008 0.40640 -0.12932
 C1159 C 0.39518 0.42739 -0.11352
 N1160 N 0.38228 0.43592 -0.09149
 N1161 N 0.39745 0.45238 -0.07507
 C1162 C 0.42601 0.46107 -0.08013
 N1163 N 0.43871 0.45310 -0.10251
 N1164 N 0.42350 0.43652 -0.11897
 N1165 N 1.13965 0.33590 -0.15844
 C1166 C 1.14669 0.33073 -0.13386
 N1167 N 1.17241 0.31600 -0.12838
 N1168 N 1.19028 0.30634 -0.14690
 C1169 C 1.18325 0.31137 -0.17156
 N1170 N 1.15752 0.32624 -0.17698
 C1171 C 1.12827 0.34262 -0.11388
 C1172 C 1.11370 0.35427 -0.09733
 C1173 C 1.09803 0.37100 -0.07824
 N1174 N 1.06970 0.36392 -0.07074
 N1175 N 1.05451 0.38190 -0.05512
 C1176 C 1.06724 0.40752 -0.04661
 N1177 N 1.09568 0.41410 -0.05390
 N1178 N 1.11081 0.39618 -0.06932
 N1179 N 0.64154 0.83636 0.34191
 C1180 C 0.64903 0.83174 0.36648
 N1181 N 0.67486 0.81710 0.37182
 N1182 N 0.69239 0.80705 0.35322
 C1183 C 0.68490 0.81153 0.32858
 N1184 N 0.65907 0.82631 0.32329
 C1185 C 0.63080 0.84384 0.38654
 C1186 C 0.61624 0.85552 0.40312
 C1187 C 0.60036 0.87211 0.42224
 N1188 N 0.57238 0.86429 0.43016
 N1189 N 0.55694 0.88194 0.44587
 C1190 C 0.56905 0.90799 0.45410
 N1191 N 0.59716 0.91534 0.44638
 N1192 N 0.61254 0.89774 0.43085
 N1193 N 0.83289 0.68839 -0.12943
 C1194 C 0.85776 0.67273 -0.13594
 N1195 N 0.86298 0.66677 -0.16071
 N1196 N 0.84422 0.67646 -0.17847
 C1197 C 0.81936 0.69225 -0.17209
 N1198 N 0.81410 0.69813 -0.14723
 C1199 C 0.87752 0.66073 -0.11701
 C1200 C 0.89435 0.64838 -0.10251
 C1201 C 0.91403 0.63018 -0.08748
 N1202 N 0.92270 0.63794 -0.06373
 N1203 N 0.93907 0.61914 -0.04969
 C1204 C 0.94716 0.59205 -0.05905
 N1205 N 0.93870 0.58478 -0.08287
 N1206 N 0.92258 0.60346 -0.09683
 N1207 N 0.35940 1.16440 0.33992
 C1208 C 0.35371 1.16984 0.36471
 N1209 N 0.32866 1.18529 0.37109
 N1210 N 0.31016 1.19533 0.35318
 C1211 C 0.31591 1.18998 0.32830
 N1212 N 0.34094 1.17439 0.32205
 C1213 C 0.37333 1.15771 0.38373
 C1214 C 0.39013 1.14535 0.39828
 C1215 C 0.40992 1.12723 0.41336
 N1216 N 0.41817 1.10031 0.40425
 N1217 N 0.43471 1.08191 0.41813
 C1218 C 0.44391 1.08965 0.44166
 N1219 N 0.43607 1.11693 0.45078
 N1220 N 0.41930 1.13546 0.43680
 N1221 N 1.13626 0.66734 0.16181
 C1222 C 1.14262 0.67102 0.13687
 N1223 N 1.16854 0.68474 0.13005
 N1224 N 1.18724 0.69488 0.14766
 C1225 C 1.18086 0.69129 0.17268
 N1226 N 1.15495 0.67743 0.17940
 C1227 C 1.12314 0.65831 0.11819
 C1228 C 1.10684 0.64540 0.10374
 C1229 C 1.08815 0.62654 0.08856
 N1230 N 1.08453 0.59783 0.09585
 N1231 N 1.06845 0.57921 0.08196
 C1232 C 1.05519 0.58847 0.06024
 N1233 N 1.05851 0.61745 0.05292
 N1234 N 1.07479 0.63623 0.06691
 N1235 N 0.66842 1.18207 0.63040
 C1236 C 0.64321 1.16733 0.63761
 N1237 N 0.63804 1.16257 0.66262
 N1238 N 0.65717 1.17255 0.67990
 C1239 C 0.68237 1.18744 0.67281
 N1240 N 0.68759 1.19210 0.64771
 C1241 C 0.62291 1.15522 0.61920
 C1242 C 0.60569 1.14301 0.60502
 C1243 C 0.58558 1.12522 0.59014
 N1244 N 0.57748 1.09810 0.59914
 N1245 N 0.56080 1.07995 0.58527
 C1246 C 0.55132 1.08817 0.56188
 N1247 N 0.55900 1.11564 0.55289
 N1248 N 0.57591 1.13390 0.56684
 N1249 N 0.85225 0.33672 0.15722
 C1250 C 0.84523 0.33102 0.13276
 N1251 N 0.82016 0.31503 0.12771
 N1252 N 0.80291 0.30475 0.14653
 C1253 C 0.80995 0.31035 0.17107
 N1254 N 0.83502 0.32646 0.17602
 C1255 C 0.86324 0.34335 0.11251
 C1256 C 0.87788 0.35530 0.09601
 C1257 C 0.89413 0.37226 0.07716
 N1258 N 0.88249 0.39844 0.06900
 N1259 N 0.89830 0.41632 0.05388
 C1260 C 0.92633 0.40876 0.04613
 N1261 N 0.93789 0.38218 0.05391
 N1262 N 0.92202 0.36423 0.06922
 N1263 N 0.35654 0.83242 0.65939
 C1264 C 0.34954 0.82690 0.63489
 N1265 N 0.32446 0.81098 0.62975
 N1266 N 0.30718 0.80058 0.64849
 C1267 C 0.31418 0.80590 0.67312
 N1268 N 0.33928 0.82204 0.67813
 C1269 C 0.36743 0.83953 0.61468
 C1270 C 0.38176 0.85173 0.59810
 C1271 C 0.39743 0.86897 0.57908
 N1272 N 0.38505 0.89477 0.57085
 N1273 N 0.40019 0.91289 0.55544
 C1274 C 0.42829 0.90593 0.54745
 N1275 N 0.44062 0.87973 0.55530
 N1276 N 0.42541 0.86155 0.57090
 N1277 N 0.34342 1.14901 -0.15797
 C1278 C 0.33839 1.15656 -0.13346
 N1279 N 0.32282 1.18183 -0.12835
 N1280 N 0.31217 1.19871 -0.14711
 C1281 C 0.31696 1.19112 -0.17169
 N1282 N 0.33277 1.16590 -0.17675
 C1283 C 0.35024 1.13853 -0.11317
 C1284 C 0.36130 1.12394 -0.09631
 C1285 C 0.37680 1.10765 -0.07676
 N1286 N 0.36900 1.07926 -0.07030
 N1287 N 0.38596 1.06334 -0.05437
 C1288 C 0.41124 1.07537 -0.04442
 N1289 N 0.41850 1.10393 -0.05063
 N1290 N 0.40158 1.11979 -0.06638
 N1291 N 0.84342 0.64764 0.34193
 C1292 C 0.83816 0.65508 0.36643
 N1293 N 0.82271 0.68043 0.37152
 N1294 N 0.81238 0.69749 0.35274
 C1295 C 0.81739 0.69000 0.32817
 N1296 N 0.83309 0.66471 0.32313
 C1297 C 0.84962 0.63686 0.38675
 C1298 C 0.86034 0.62219 0.40371
 C1299 C 0.87544 0.60590 0.42347
 N1300 N 0.86853 0.57701 0.42897
 N1301 N 0.88540 0.56120 0.44503
 C1302 C 0.90969 0.57384 0.45611
 N1303 N 0.91603 0.60288 0.45088
 N1304 N 0.89920 0.61863 0.43499
 N1305 N 0.65600 1.13961 0.16733
 C1306 C 0.66187 1.14415 0.14240
 N1307 N 0.67729 1.16889 0.13523
 N1308 N 0.68703 1.18816 0.15253
 C1309 C 0.68142 1.18352 0.17757
 N1310 N 0.66573 1.15885 0.18461
 C1311 C 0.65122 1.12313 0.12398
 C1312 C 0.64074 1.10515 0.10952
 C1313 C 0.62544 1.08388 0.09387
 N1314 N 0.63318 1.07944 0.06924
 N1315 N 0.61630 1.06223 0.05438
 C1316 C 0.59117 1.04896 0.06376
 N1317 N 0.58398 1.05311 0.08849
 N1318 N 0.60083 1.07009 0.10327
 N1319 N 1.17842 0.67046 0.63449
 C1320 C 1.16206 0.64626 0.64154
 N1321 N 1.15564 0.64202 0.66641
 N1322 N 1.16572 0.66098 0.68376
 C1323 C 1.18236 0.68508 0.67685
 N1324 N 1.18852 0.68945 0.65186
 C1325 C 1.15117 0.62541 0.62308
 C1326 C 1.14049 0.60751 0.60866
 C1327 C 1.12497 0.58626 0.59314
 N1328 N 1.10010 0.57296 0.60258
 N1329 N 1.08323 0.55581 0.58795
 C1330 C 1.09065 0.55099 0.56336
 N1331 N 1.11601 0.56378 0.55396
 N1332 N 1.13293 0.58116 0.56865
 N1333 N 0.68379 0.83114 -0.13049
 C1334 C 0.66683 0.85492 -0.13744
 N1335 N 0.65969 0.85853 -0.16217
 N1336 N 0.66960 0.83937 -0.17949
 C1337 C 0.68681 0.81569 -0.17271
 N1338 N 0.69374 0.81192 -0.14785
 C1339 C 0.65596 0.87605 -0.11911
 C1340 C 0.64509 0.89436 -0.10508
 C1341 C 0.62923 0.91622 -0.09030
 N1342 N 0.63574 0.92131 -0.06557
 N1343 N 0.61831 0.93916 -0.05161
 C1344 C 0.59387 0.95248 -0.06200
 N1345 N 0.58792 0.94768 -0.08682
 N1346 N 0.60532 0.93005 -0.10072
 N1347 N 1.15887 0.35906 0.33758
 C1348 C 1.16617 0.35565 0.36230
 N1349 N 1.18305 0.33184 0.36933
 N1350 N 1.19276 0.31240 0.35205
 C1351 C 1.18568 0.31596 0.32720
 N1352 N 1.16855 0.33968 0.32035
 C1353 C 1.15562 0.37706 0.38054
 C1354 C 1.14505 0.39561 0.39452
 C1355 C 1.12957 0.41773 0.40931
 N1356 N 1.10612 0.43225 0.39881
 N1357 N 1.08888 0.44999 0.41275
 C1358 C 1.09454 0.45424 0.43769
 N1359 N 1.11854 0.44025 0.44817
 N1360 N 1.13582 0.42228 0.43417
 N1361 N 0.34243 0.85229 0.15283
 C1362 C 0.33599 0.84522 0.12851
 N1363 N 0.31951 0.82044 0.12384
 N1364 N 0.30934 0.80358 0.14290
 C1365 C 0.31555 0.81071 0.16730
 N1366 N 0.33227 0.83543 0.17190
 C1367 C 0.34732 0.86327 0.10795
 C1368 C 0.35808 0.87803 0.09098
 C1369 C 0.37336 0.89465 0.07141
 N1370 N 0.36655 0.92368 0.06643
 N1371 N 0.38380 0.93993 0.05085
 C1372 C 0.40840 0.92763 0.03979
 N1373 N 0.41463 0.89845 0.04448
 N1374 N 0.39741 0.88225 0.05987
 N1375 N 0.84367 0.34952 0.65261
 C1376 C 0.83748 0.34241 0.62825
 N1377 N 0.82112 0.31755 0.62351
 N1378 N 0.81086 0.30066 0.64252
 C1379 C 0.81684 0.30783 0.66696
 N1380 N 0.83341 0.33263 0.67162
 C1381 C 0.84897 0.36052 0.60776
 C1382 C 0.85987 0.37541 0.59093
 C1383 C 0.87533 0.39228 0.57157
 N1384 N 0.86771 0.42097 0.56602
 N1385 N 0.88486 0.43751 0.55059
 C1386 C 0.91020 0.42585 0.54022
 N1387 N 0.91728 0.39699 0.54549
 N1388 N 0.90015 0.38051 0.56075
 N1389 N 1.15322 1.16769 0.64540
 C1390 C 1.13478 1.14735 0.65654
 N1391 N 1.13684 1.14240 0.68174
 N1392 N 1.15652 1.15754 0.69547
 C1393 C 1.17489 1.17808 0.68451
 N1394 N 1.17296 1.18288 0.65917
 C1395 C 1.11292 1.13161 0.64203
 C1396 C 1.09463 1.11847 0.62967
 C1397 C 1.07369 1.10324 0.61387
 N1398 N 1.06513 1.07477 0.61907
 N1399 N 1.04856 1.05958 0.60259
 C1400 C 1.04003 1.07245 0.58044
 N1401 N 1.04816 1.10113 0.57565
 N1402 N 1.06461 1.11630 0.59209
 N1403 N 0.66783 0.65315 0.14569
 C1404 C 0.64955 0.63282 0.15700
 N1405 N 0.64659 0.63277 0.18247
 N1406 N 0.66160 0.65239 0.19628
 C1407 C 0.68001 0.67274 0.18512
 N1408 N 0.68289 0.67284 0.15954
 C1409 C 0.63370 0.61145 0.14230
 C1410 C 0.62051 0.59368 0.12958
 C1411 C 0.60542 0.57356 0.11317
 N1412 N 0.57739 0.56361 0.11861
 N1413 N 0.56226 0.54762 0.10172
 C1414 C 0.57477 0.54122 0.07890
 N1415 N 0.60299 0.55082 0.07380
 N1416 N 0.61809 0.56667 0.09066
 N1417 N 1.17535 0.85438 0.35403
 C1418 C 1.15736 0.87504 0.34294
 N1419 N 1.15326 0.87430 0.31761
 N1420 N 1.16690 0.85367 0.30373
 C1421 C 1.18501 0.83297 0.31464
 N1422 N 1.18905 0.83366 0.34009
 C1423 C 1.14228 0.89714 0.35770
 C1424 C 1.12915 0.91535 0.37018
 C1425 C 1.11329 0.93577 0.38605
 N1426 N 1.08480 0.94405 0.38054
 N1427 N 1.06856 0.95940 0.39727
 C1428 C 1.08038 0.96688 0.42001
 N1429 N 1.10913 0.95913 0.42512
 N1430 N 1.12533 0.94390 0.40842
 N1431 N 0.66065 0.33092 -0.14421
 C1432 C 0.64184 0.35133 -0.15458
 N1433 N 0.64334 0.35707 -0.17969
 N1434 N 0.66283 0.34250 -0.19414
 C1435 C 0.68153 0.32183 -0.18396
 N1436 N 0.68021 0.31631 -0.15870
 C1437 C 0.61998 0.36607 -0.13942
 C1438 C 0.60161 0.37841 -0.12658
 C1439 C 0.58064 0.39293 -0.11041
 N1440 N 0.56915 0.41998 -0.11668
 N1441 N 0.55223 0.43489 -0.10019
 C1442 C 0.54636 0.42312 -0.07697
 N1443 N 0.55749 0.39580 -0.07101
 N1444 N 0.57431 0.38092 -0.08748
 N1445 N 0.85131 1.13687 0.32424
 C1446 C 0.84668 1.13625 0.34954
 N1447 N 0.82768 1.15634 0.36017
 N1448 N 0.81346 1.17632 0.34578
 C1449 C 0.81795 1.17681 0.32034
 N1450 N 0.83714 1.15676 0.30991
 C1451 C 0.86162 1.11434 0.36465
 C1452 C 0.87452 1.09591 0.37711
 C1453 C 0.89008 1.07476 0.39254
 N1454 N 0.87855 1.06681 0.41531
 N1455 N 0.89435 1.04987 0.43108
 C1456 C 0.92215 1.04018 0.42460
 N1457 N 0.93344 1.04764 0.40151
 N1458 N 0.91760 1.06466 0.38571
 N1459 N 0.34787 0.67190 -0.14144
 C1460 C 0.36412 0.64948 -0.15193
 N1461 N 0.35898 0.64152 -0.17614
 N1462 N 0.33855 0.65590 -0.18969
 C1463 C 0.32244 0.67860 -0.17948
 N1464 N 0.32732 0.68634 -0.15504
 C1465 C 0.38702 0.63472 -0.13801
 C1466 C 0.40619 0.62203 -0.12636
 C1467 C 0.42796 0.60694 -0.11143
 N1468 N 0.43683 0.57882 -0.11726
 N1469 N 0.45372 0.56324 -0.10119
 C1470 C 0.46211 0.57541 -0.07885
 N1471 N 0.45374 0.60380 -0.07345
 N1472 N 0.43700 0.61935 -0.08949
 N1473 N 0.86272 0.85180 0.67379
 C1474 C 0.86679 0.84286 0.64963
 N1475 N 0.84870 0.82147 0.63991
 N1476 N 0.82747 0.80889 0.65425
 C1477 C 0.82366 0.81757 0.67864
 N1478 N 0.84160 0.83927 0.68807
 C1479 C 0.89018 0.85590 0.63485
 C1480 C 0.90969 0.86770 0.62274
 C1481 C 0.93168 0.88267 0.60773
 N1482 N 0.93901 0.87178 0.58469
 N1483 N 0.95566 0.88791 0.56883
 C1484 C 0.96558 0.91541 0.57549
 N1485 N 0.95891 0.92594 0.59888
 N1486 N 0.94218 0.90979 0.61477
 N1487 N 0.35018 0.36462 0.17650
 C1488 C 0.34407 0.36637 0.15154
 N1489 N 0.32449 0.34683 0.14112
 N1490 N 0.31099 0.32629 0.15550
 C1491 C 0.31693 0.32471 0.18063
 N1492 N 0.33674 0.34418 0.19082
 C1493 C 0.35859 0.38843 0.13654
 C1494 C 0.37153 0.40672 0.12407
 C1495 C 0.38747 0.42716 0.10844
 N1496 N 0.37681 0.43370 0.08518
 N1497 N 0.39348 0.44916 0.06890
 C1498 C 0.42128 0.45857 0.07536
 N1499 N 0.43169 0.45260 0.09893
 N1500 N 0.41499 0.43703 0.11524
   
