data_POSCAR
  _audit_creation_date              2014-09-24
  _audit_creation_method            'ToBaCCo'
  _symmetry_space_group_name_H-M    'P1'
  _symmetry_Int_Tables_number       1
  _symmetry_cell_setting            triclinic
  loop_
  _symmetry_equiv_pos_as_xyz
 x,y,z
_cell_length_a 54.4550
_cell_length_b 55.2385
_cell_length_c 54.8759
_cell_angle_alpha 94.100900
_cell_angle_beta 94.228200
_cell_angle_gamma 94.148200
loop_
  _atom_site_label
  _atom_site_type_symbol
  _atom_site_fract_x
  _atom_site_fract_y
  _atom_site_fract_z
C1 C 0.72111 0.66351 0.96778
 H2 H 0.73869 0.66204 0.96003
 C3 C 0.70396 0.67836 0.95765
 H4 H 0.70839 0.68850 0.94216
 C5 C 0.69329 0.65117 0.99665
 H6 H 0.68890 0.64006 1.01138
 C7 C 0.67565 0.66579 0.98708
 H8 H 0.65784 0.66607 0.99466
 N9 N 0.71552 0.65026 0.98690
 C10 C 0.78524 0.63062 1.02152
 H11 H 0.78075 0.61126 1.02195
 C12 C 0.80844 0.64094 1.03092
 H13 H 0.82189 0.62953 1.03865
 C14 C 0.77331 0.66912 1.01056
 H15 H 0.75955 0.68000 1.00264
 C16 C 0.79637 0.68019 1.01978
 H17 H 0.80037 0.69958 1.01881
 Zn18 Zn 0.73829 0.62815 0.99757
 N19 N 0.76840 0.64465 1.01119
 C20 C 0.76758 0.60818 0.96204
 N21 N 0.74429 0.60799 0.96953
 C22 C 0.72486 0.59561 0.95586
 C23 C 0.72851 0.58281 0.93364
 C24 C 0.77202 0.59563 0.94006
 C25 C 0.72276 0.62262 1.04401
 C26 C 0.71344 0.61087 1.06343
 C27 C 0.71008 0.57291 1.03811
 C28 C 0.71952 0.58544 1.01911
 N29 N 0.72534 0.60991 1.02231
 H30 H 0.78269 0.61865 0.97267
 H31 H 0.70644 0.59622 0.96194
 H32 H 0.71294 0.57328 0.92266
 H33 H 0.79059 0.59620 0.93412
 H34 H 0.72782 0.64200 1.04612
 H35 H 0.71122 0.62135 1.08050
 H36 H 0.70521 0.55348 1.03529
 H37 H 0.72212 0.57563 1.00185
 C38 C 0.81415 0.66590 1.02981
 C39 C 0.68095 0.67935 0.96728
 C40 C 0.70691 0.58580 1.06047
 C41 C 0.75233 0.58302 0.92561
 C42 C 0.73276 0.36841 0.49910
 H43 H 0.75095 0.37004 0.50872
 C44 C 0.71375 0.35381 0.50762
 H45 H 0.71726 0.34409 0.52382
 C46 C 0.70573 0.37964 0.46663
 H47 H 0.70257 0.39009 0.45096
 C48 C 0.68616 0.36523 0.47456
 H49 H 0.66802 0.36448 0.46488
 N50 N 0.72852 0.38084 0.47887
 C51 C 0.80093 0.39399 0.45141
 H52 H 0.80188 0.41356 0.45080
 C53 C 0.82041 0.38095 0.44383
 H54 H 0.83647 0.39048 0.43736
 C55 C 0.77876 0.35753 0.46034
 H56 H 0.76237 0.34842 0.46644
 C57 C 0.79782 0.34381 0.45291
 H58 H 0.79614 0.32421 0.45352
 Zn59 Zn 0.75522 0.40118 0.46978
 N60 N 0.78079 0.38220 0.45978
 C61 C 0.78993 0.42145 0.50815
 N62 N 0.76646 0.42206 0.49793
 C63 C 0.74972 0.43519 0.50921
 C64 C 0.75623 0.44796 0.53199
 C65 C 0.79719 0.43400 0.53081
 C66 C 0.73842 0.40554 0.42135
 C67 C 0.73020 0.41701 0.40076
 C68 C 0.73633 0.45563 0.42488
 C69 C 0.74447 0.44342 0.44507
 N70 N 0.74497 0.41876 0.44303
 H71 H 0.80277 0.41041 0.49935
 H72 H 0.73102 0.43491 0.50097
 H73 H 0.74258 0.45768 0.54125
 H74 H 0.81568 0.43275 0.53915
 H75 H 0.73927 0.38599 0.42020
 H76 H 0.72453 0.40626 0.38371
 H77 H 0.73548 0.47520 0.42672
 H78 H 0.75014 0.45361 0.46236
 C79 C 0.81886 0.35566 0.44471
 C80 C 0.69024 0.35224 0.49526
 C81 C 0.72898 0.44225 0.40258
 C82 C 0.78011 0.44704 0.54302
 C83 C 0.23447 -0.13667 0.00196
 H84 H 0.25256 -0.13447 0.01176
 C85 C 0.21613 -0.15272 0.00963
 H86 H 0.22009 -0.16298 0.02537
 C87 C 0.20689 -0.12539 -0.03003
 H88 H 0.20320 -0.11434 -0.04514
 C89 C 0.18800 -0.14124 -0.02295
 H90 H 0.16988 -0.14248 -0.03272
 N91 N 0.22962 -0.12349 -0.01761
 C92 C 0.30156 -0.10375 -0.04356
 H93 H 0.30101 -0.08420 -0.04331
 C94 C 0.32208 -0.11481 -0.05158
 H95 H 0.33746 -0.10377 -0.05751
 C96 C 0.28207 -0.14214 -0.03642
 H97 H 0.26631 -0.15276 -0.03085
 C98 C 0.30223 -0.15393 -0.04432
 H99 H 0.30203 -0.17357 -0.04461
 Zn100 Zn 0.25515 -0.10097 -0.02548
 N101 N 0.28223 -0.11745 -0.03590
 C102 C 0.28830 -0.07976 0.01382
 N103 N 0.26475 -0.08060 0.00340
 C104 C 0.24696 -0.06903 0.01471
 C105 C 0.25250 -0.05626 0.03762
 C106 C 0.29462 -0.06716 0.03664
 C107 C 0.23820 -0.09543 -0.07366
 C108 C 0.22938 -0.08352 -0.09373
 C109 C 0.23323 -0.04580 -0.06798
 C110 C 0.24200 -0.05847 -0.04838
 N111 N 0.24390 -0.08290 -0.05147
 H112 H 0.30203 -0.08959 0.00496
 H113 H 0.22826 -0.07044 0.00628
 H114 H 0.23808 -0.04771 0.04683
 H115 H 0.31323 -0.06718 0.04509
 H116 H 0.24020 -0.11480 -0.07564
 H117 H 0.22443 -0.09384 -0.11118
 H118 H 0.23134 -0.02641 -0.06520
 H119 H 0.24708 -0.04880 -0.03071
 C120 C 0.32243 -0.14011 -0.05186
 C121 C 0.19267 -0.15496 -0.00289
 C122 C 0.22668 -0.05850 -0.09083
 C123 C 0.27650 -0.05558 0.04878
 C124 C 0.21874 0.16626 0.47214
 H125 H 0.23651 0.16534 0.46464
 C126 C 0.20090 0.17991 0.46125
 H127 H 0.20498 0.18971 0.44543
 C128 C 0.19111 0.15349 0.50099
 H129 H 0.18703 0.14259 0.51597
 C130 C 0.17279 0.16691 0.49068
 H131 H 0.15481 0.16650 0.49795
 N132 N 0.21354 0.15330 0.49157
 C133 C 0.28325 0.13553 0.52780
 H134 H 0.27868 0.11627 0.52888
 C135 C 0.30637 0.14602 0.53719
 H136 H 0.31967 0.13484 0.54558
 C137 C 0.27166 0.17354 0.51507
 H138 H 0.25808 0.18413 0.50638
 C139 C 0.29468 0.18479 0.52423
 H140 H 0.29884 0.20403 0.52250
 Zn141 Zn 0.23689 0.13205 0.50296
 N142 N 0.26663 0.14922 0.51661
 C143 C 0.26716 0.11228 0.46835
 N144 N 0.24371 0.11160 0.47546
 C145 C 0.22475 0.09852 0.46174
 C146 C 0.22908 0.08551 0.43983
 C147 C 0.27227 0.09956 0.44670
 C148 C 0.22126 0.12718 0.54935
 C149 C 0.21241 0.11569 0.56912
 C150 C 0.21012 0.07722 0.54480
 C151 C 0.21907 0.08948 0.52539
 N152 N 0.22419 0.11407 0.52797
 H153 H 0.28189 0.12329 0.47900
 H154 H 0.20619 0.09872 0.46751
 H155 H 0.21388 0.07543 0.42879
 H156 H 0.29095 0.10053 0.44106
 H157 H 0.22577 0.14665 0.55097
 H158 H 0.20997 0.12635 0.58600
 H159 H 0.20589 0.05769 0.54265
 H160 H 0.22194 0.07937 0.50838
 C161 C 0.31225 0.17079 0.53514
 C162 C 0.17763 0.18002 0.47046
 C163 C 0.20673 0.09051 0.56684
 C164 C 0.25306 0.08625 0.43219
 C165 C 0.17448 0.46975 0.22152
 H166 H 0.17434 0.46231 0.23922
 C167 C 0.18844 0.45959 0.20356
 H168 H 0.19923 0.44441 0.20747
 C169 C 0.15952 0.49770 0.19420
 H170 H 0.14768 0.51202 0.19031
 C171 C 0.17321 0.48812 0.17579
 H172 H 0.17203 0.49531 0.15792
 N173 N 0.16031 0.48838 0.21652
 C174 C 0.14257 0.52385 0.28583
 H175 H 0.12287 0.52408 0.28163
 C176 C 0.15335 0.53383 0.30848
 H177 H 0.14193 0.54181 0.32179
 C178 C 0.18143 0.51273 0.27377
 H179 H 0.19224 0.50445 0.26017
 C180 C 0.19299 0.52251 0.29632
 H181 H 0.21270 0.52166 0.30013
 Zn182 Zn 0.13891 0.49896 0.24010
 N183 N 0.15656 0.51320 0.26920
 C184 C 0.12115 0.46413 0.27086
 N185 N 0.11928 0.47110 0.24754
 C186 C 0.10554 0.45716 0.22924
 C187 C 0.09298 0.43523 0.23417
 C188 C 0.10893 0.44247 0.27653
 C189 C 0.13233 0.54471 0.22463
 C190 C 0.12003 0.56409 0.21614
 C191 C 0.08153 0.53913 0.21459
 C192 C 0.09462 0.52010 0.22317
 N193 N 0.11961 0.52319 0.22776
 H194 H 0.13267 0.47495 0.28504
 H195 H 0.10480 0.46283 0.21075
 H196 H 0.08227 0.42409 0.21952
 H197 H 0.11077 0.43701 0.29512
 H198 H 0.15215 0.54674 0.22873
 H199 H 0.13040 0.58108 0.21356
 H200 H 0.06167 0.53658 0.21079
 H201 H 0.08483 0.50299 0.22620
 C202 C 0.17872 0.53293 0.31389
 C203 C 0.18758 0.46874 0.18042
 C204 C 0.09442 0.56130 0.21102
 C205 C 0.09488 0.42779 0.25804
 C206 C -0.13180 0.00231 0.23258
 H207 H -0.12920 0.01250 0.25028
 C208 C -0.14779 0.00996 0.21413
 H209 H -0.15758 0.02609 0.21766
 C210 C -0.12169 -0.03080 0.20618
 H211 H -0.11116 -0.04639 0.20303
 C212 C -0.13751 -0.02377 0.18718
 H213 H -0.13921 -0.03410 0.16951
 N214 N -0.11928 -0.01783 0.22840
 C215 C -0.10189 -0.04257 0.30085
 H216 H -0.08205 -0.04298 0.30096
 C217 C -0.11405 -0.04971 0.32100
 H218 H -0.10358 -0.05564 0.33675
 C219 C -0.13992 -0.03472 0.28006
 H220 H -0.15000 -0.02926 0.26395
 C221 C -0.15279 -0.04172 0.29982
 H222 H -0.17271 -0.04143 0.29893
 Zn223 Zn -0.09719 -0.02590 0.25427
 N224 N -0.11488 -0.03500 0.28103
 C225 C -0.07493 0.01323 0.28658
 N226 N -0.07569 0.00232 0.26347
 C227 C -0.06346 0.01284 0.24569
 C228 C -0.05020 0.03551 0.25074
 C229 C -0.06184 0.03583 0.29240
 C230 C -0.09323 -0.07441 0.23876
 C231 C -0.08190 -0.09498 0.23048
 C232 C -0.04285 -0.07075 0.23385
 C233 C -0.05493 -0.05058 0.24209
 N234 N -0.07976 -0.05269 0.24397
 H235 H -0.08528 0.00500 0.30028
 H236 H -0.06483 0.00405 0.22733
 H237 H -0.04121 0.04415 0.23630
 H238 H -0.06201 0.04473 0.31063
 H239 H -0.11290 -0.07560 0.24069
 H240 H -0.09287 -0.11207 0.22587
 H241 H -0.02316 -0.06886 0.23190
 H242 H -0.04451 -0.03326 0.24672
 C243 C -0.13972 -0.04920 0.32048
 C244 C -0.15067 -0.00319 0.19122
 C245 C -0.05652 -0.09309 0.22782
 C246 C -0.04969 0.04724 0.27425
 C247 C 0.37492 0.51199 0.73577
 H248 H 0.37681 0.52186 0.75364
 C249 C 0.35975 0.52001 0.71688
 H250 H 0.34986 0.53610 0.72018
 C251 C 0.38600 0.47929 0.70941
 H252 H 0.39660 0.46371 0.70645
 C253 C 0.37102 0.48673 0.68998
 H254 H 0.36998 0.47675 0.67216
 N255 N 0.38752 0.49187 0.73180
 C256 C 0.40195 0.46571 0.80408
 H257 H 0.42182 0.46526 0.80486
 C258 C 0.38899 0.45806 0.82354
 H259 H 0.39887 0.45172 0.83942
 C260 C 0.36466 0.47410 0.78225
 H261 H 0.35519 0.47995 0.76598
 C262 C 0.35100 0.46661 0.80130
 H263 H 0.33108 0.46691 0.79973
 Zn264 Zn 0.40852 0.48327 0.75827
 N265 N 0.38970 0.47376 0.78408
 C266 C 0.42983 0.52180 0.79180
 N267 N 0.42991 0.51123 0.76863
 C268 C 0.44297 0.52195 0.75154
 C269 C 0.45623 0.54450 0.75736
 C270 C 0.44288 0.54427 0.79838
 C271 C 0.41266 0.43498 0.74245
 C272 C 0.42416 0.41434 0.73471
 C273 C 0.46343 0.43824 0.73996
 C274 C 0.45117 0.45849 0.74764
 N275 N 0.42618 0.45656 0.74837
 H276 H 0.41883 0.51340 0.80493
 H277 H 0.44226 0.51341 0.73311
 H278 H 0.46588 0.55333 0.74343
 H279 H 0.44204 0.55293 0.81662
 H280 H 0.39286 0.43393 0.74350
 H281 H 0.41319 0.39734 0.72962
 H282 H 0.48327 0.43995 0.73900
 H283 H 0.46160 0.47571 0.75284
 C284 C 0.36330 0.45858 0.82212
 C285 C 0.35781 0.50728 0.69379
 C286 C 0.44974 0.41602 0.73331
 C287 C 0.45587 0.55590 0.78091
 C288 C 0.67919 0.97731 0.72123
 H289 H 0.67847 0.96990 0.73891
 C290 C 0.69316 0.96670 0.70355
 H291 H 0.70338 0.95118 0.70767
 C292 C 0.66552 1.00557 0.69361
 H293 H 0.65413 1.02017 0.68947
 C294 C 0.67925 0.99552 0.67547
 H295 H 0.67855 1.00262 0.65755
 N296 N 0.66561 0.99628 0.71594
 C297 C 0.64688 1.03235 0.78466
 H298 H 0.62736 1.03330 0.77987
 C299 C 0.65719 1.04158 0.80775
 H300 H 0.64555 1.04973 0.82075
 C301 C 0.68565 1.01984 0.77375
 H302 H 0.69657 1.01121 0.76048
 C303 C 0.69674 1.02883 0.79676
 H304 H 0.71622 1.02702 0.80117
 Zn305 Zn 0.64382 1.00715 0.73902
 N306 N 0.66100 1.02129 0.76842
 C307 C 0.62470 0.97271 0.76958
 N308 N 0.62384 0.97942 0.74616
 C309 C 0.61082 0.96529 0.72753
 C310 C 0.59802 0.94341 0.73220
 C311 C 0.61219 0.95111 0.77501
 C312 C 0.63731 1.05284 0.72290
 C313 C 0.62493 1.07188 0.71371
 C314 C 0.58668 1.04646 0.71165
 C315 C 0.59983 1.02780 0.72092
 N316 N 0.62474 1.03126 0.72608
 H317 H 0.63565 0.98370 0.78406
 H318 H 0.61088 0.97075 0.70899
 H319 H 0.58794 0.93209 0.71729
 H320 H 0.61326 0.94583 0.79368
 H321 H 0.65705 1.05517 0.72744
 H322 H 0.63517 1.08893 0.71107
 H323 H 0.56690 1.04359 0.70739
 H324 H 0.59014 1.01065 0.72399
 C325 C 0.68226 1.03950 0.81402
 C326 C 0.69294 0.97573 0.68037
 C327 C 0.59942 1.06867 0.70796
 C328 C 0.59891 0.93622 0.75618
 C329 C -0.00201 0.23182 -0.13053
 H330 H 0.00810 0.24954 -0.12892
 C331 C 0.00543 0.21310 -0.14608
 H332 H 0.02129 0.21638 -0.15654
 C333 C -0.03459 0.20565 -0.11831
 H334 H -0.04986 0.20269 -0.10713
 C335 C -0.02774 0.18640 -0.13365
 H336 H -0.03787 0.16871 -0.13435
 N337 N -0.02178 0.22787 -0.11715
 C338 C -0.04762 0.29961 -0.10067
 H339 H -0.04750 0.29994 -0.08092
 C340 C -0.05546 0.31938 -0.11283
 H341 H -0.06140 0.33503 -0.10245
 C342 C -0.04024 0.27873 -0.13841
 H343 H -0.03463 0.26275 -0.14835
 C344 C -0.04796 0.29811 -0.15128
 H345 H -0.04807 0.29707 -0.17108
 Zn346 Zn -0.02948 0.25401 -0.09557
 N347 N -0.03989 0.27997 -0.11351
 C348 C 0.01016 0.28727 -0.07571
 N349 N -0.00024 0.26415 -0.07540
 C350 C 0.01138 0.24721 -0.06295
 C351 C 0.03463 0.25321 -0.05050
 C352 C 0.03326 0.29402 -0.06345
 C353 C -0.07815 0.23839 -0.08951
 C354 C -0.09849 0.23051 -0.07730
 C355 C -0.07255 0.23512 -0.03927
 C356 C -0.05266 0.24295 -0.05225
 N357 N -0.05574 0.24404 -0.07698
 H358 H 0.00107 0.30030 -0.08621
 H359 H 0.00296 0.22882 -0.06345
 H360 H 0.04410 0.23946 -0.04125
 H361 H 0.04167 0.31228 -0.06439
 H362 H -0.08010 0.23972 -0.10913
 H363 H -0.11612 0.22561 -0.08763
 H364 H -0.06979 0.23386 -0.01965
 H365 H -0.03479 0.24792 -0.04261
 C366 C -0.05551 0.31864 -0.13835
 C367 C -0.00753 0.19018 -0.14762
 C368 C -0.09565 0.22868 -0.05196
 C369 C 0.04577 0.27678 -0.05102
 C370 C 0.46428 0.21854 0.16959
 H371 H 0.45673 0.23610 0.16922
 C372 C 0.45381 0.20075 0.18341
 H373 H 0.43827 0.20466 0.19388
 C374 C 0.49288 0.19142 0.15537
 H375 H 0.50759 0.18755 0.14389
 C376 C 0.48298 0.17317 0.16894
 H377 H 0.49032 0.15544 0.16803
 N378 N 0.48341 0.21358 0.15587
 C379 C 0.51981 0.28250 0.13861
 H380 H 0.52053 0.27825 0.11914
 C381 C 0.52946 0.30514 0.14934
 H382 H 0.53771 0.31839 0.13812
 C383 C 0.50759 0.27061 0.17691
 H384 H 0.49895 0.25711 0.18751
 C385 C 0.51702 0.29316 0.18840
 H386 H 0.51556 0.29705 0.20784
 Zn387 Zn 0.49443 0.23701 0.13471
 N388 N 0.50871 0.26596 0.15233
 C389 C 0.45939 0.26761 0.11650
 N390 N 0.46633 0.24441 0.11490
 C391 C 0.45220 0.22625 0.10124
 C392 C 0.43016 0.23122 0.08840
 C393 C 0.43763 0.27333 0.10400
 C394 C 0.54096 0.22151 0.12848
 C395 C 0.56049 0.21270 0.11637
 C396 C 0.53512 0.21098 0.07815
 C397 C 0.51596 0.21990 0.09103
 N398 N 0.51915 0.22468 0.11580
 H399 H 0.47034 0.28170 0.12796
 H400 H 0.45783 0.20784 0.10071
 H401 H 0.41891 0.21670 0.07768
 H402 H 0.43224 0.29185 0.10558
 H403 H 0.54306 0.22574 0.14811
 H404 H 0.57767 0.20998 0.12672
 H405 H 0.53244 0.20693 0.05849
 H406 H 0.49864 0.22294 0.08126
 C407 C 0.52779 0.31066 0.17438
 C408 C 0.46313 0.17779 0.18289
 C409 C 0.55755 0.20728 0.09101
 C410 C 0.42279 0.25500 0.08996
 C411 C 0.96957 0.71920 0.67678
 H412 H 0.96186 0.73668 0.67633
 C413 C 0.95907 0.70129 0.69044
 H414 H 0.94335 0.70504 0.70072
 C415 C 0.99853 0.69235 0.66282
 H416 H 1.01339 0.68861 0.65148
 C417 C 0.98862 0.67399 0.67624
 H418 H 0.99607 0.65632 0.67535
 N419 N 0.98888 0.71442 0.66324
 C420 C 1.02529 0.78339 0.64615
 H421 H 1.02648 0.77900 0.62676
 C422 C 1.03440 0.80624 0.65680
 H423 H 1.04272 0.81948 0.64562
 C424 C 1.01224 0.77176 0.68423
 H425 H 1.00342 0.75832 0.69477
 C426 C 1.02109 0.79452 0.69564
 H427 H 1.01903 0.79861 0.71495
 Zn428 Zn 0.99986 0.73791 0.64214
 N429 N 1.01401 0.76689 0.65978
 C430 C 0.96499 0.76855 0.62366
 N431 N 0.97178 0.74529 0.62233
 C432 C 0.95766 0.72709 0.60872
 C433 C 0.93581 0.73210 0.59556
 C434 C 0.94341 0.77430 0.61085
 C435 C 1.04637 0.72227 0.63546
 C436 C 1.06562 0.71321 0.62306
 C437 C 1.03975 0.71169 0.58516
 C438 C 1.02091 0.72084 0.59831
 N439 N 1.02446 0.72561 0.62307
 H440 H 0.97593 0.78266 0.63507
 H441 H 0.96318 0.70865 0.60840
 H442 H 0.92458 0.71757 0.58484
 H443 H 0.93815 0.79287 0.61217
 H444 H 1.04877 0.72650 0.65509
 H445 H 1.08288 0.71033 0.63316
 H446 H 1.03675 0.70764 0.56552
 H447 H 1.00352 0.72403 0.58876
 C448 C 1.03195 0.81201 0.68166
 C449 C 0.96855 0.67841 0.68996
 C450 C 1.06226 0.70775 0.59771
 C451 C 0.92864 0.75595 0.59678
 C452 C 0.50235 0.73292 0.36089
 H453 H 0.51275 0.75049 0.36272
 C454 C 0.50931 0.71429 0.34492
 H455 H 0.52511 0.71749 0.33435
 C456 C 0.46955 0.70698 0.37304
 H457 H 0.45441 0.70405 0.38440
 C458 C 0.47592 0.68783 0.35729
 H459 H 0.46555 0.67026 0.35643
 N460 N 0.48272 0.72903 0.37446
 C461 C 0.45891 0.80116 0.39326
 H462 H 0.45944 0.80105 0.41300
 C463 C 0.45106 0.82132 0.38178
 H464 H 0.44556 0.83683 0.39274
 C465 C 0.46503 0.78090 0.35484
 H466 H 0.47009 0.76497 0.34437
 C467 C 0.45729 0.80067 0.34261
 H468 H 0.45662 0.79994 0.32278
 Zn469 Zn 0.47580 0.75488 0.39677
 N470 N 0.46594 0.78160 0.37974
 C471 C 0.51641 0.78670 0.41728
 N472 N 0.50525 0.76381 0.41695
 C473 C 0.51614 0.74617 0.42897
 C474 C 0.53934 0.75120 0.44176
 C475 C 0.53954 0.79249 0.42986
 C476 C 0.42695 0.73996 0.40293
 C477 C 0.40655 0.73245 0.41523
 C478 C 0.43270 0.73617 0.45308
 C479 C 0.45267 0.74364 0.44005
 N480 N 0.44950 0.74504 0.41536
 H481 H 0.50787 0.80029 0.40709
 H482 H 0.50711 0.72798 0.42798
 H483 H 0.54817 0.73691 0.45075
 H484 H 0.54855 0.81059 0.42950
 H485 H 0.42493 0.74154 0.38336
 H486 H 0.38875 0.72807 0.40511
 H487 H 0.43537 0.73474 0.47267
 H488 H 0.47063 0.74820 0.44964
 C489 C 0.45030 0.82109 0.35623
 C490 C 0.49601 0.69154 0.34316
 C491 C 0.40948 0.73041 0.44050
 C492 C 0.55123 0.77453 0.44196
 C493 C 0.37340 -0.02453 0.27167
 C494 C 0.35815 -0.03105 0.24715
 C495 C 0.34487 -0.01284 0.23906
 C496 C 0.34811 0.01057 0.25629
 C497 C 0.38938 -0.00137 0.26712
 C498 C 0.37626 0.01700 0.25891
 C499 C 0.35487 -0.01579 0.28925
 C500 C 0.34152 0.00240 0.28141
 H501 H 0.35932 -0.04804 0.23630
 H502 H 0.33697 0.02518 0.24971
 H503 H 0.40930 -0.00002 0.26868
 H504 H 0.35315 -0.02301 0.30694
 C505 C 0.08373 1.04604 0.75489
 C506 C 0.09893 1.05332 0.73383
 C507 C 0.11530 1.03709 0.72712
 C508 C 0.11460 1.01440 0.74193
 C509 C 0.07127 1.02080 0.74567
 C510 C 0.08737 1.00404 0.73924
 C511 C 0.10279 1.04098 0.77542
 C512 C 0.11876 1.02428 0.76894
 H513 H 0.09606 1.06947 0.72423
 H514 H 0.12793 1.00111 0.73667
 H515 H 0.05149 1.01667 0.74364
 H516 H 0.10287 1.04941 0.79387
 C517 C 0.58324 0.54414 0.24628
 C518 C 0.59657 0.55017 0.22363
 C519 C 0.61244 0.53360 0.21652
 C520 C 0.61358 0.51212 0.23287
 C521 C 0.57069 0.51839 0.23929
 C522 C 0.58659 0.50160 0.23247
 C523 C 0.60385 0.54045 0.26585
 C524 C 0.61950 0.52347 0.25924
 H525 H 0.59326 0.56608 0.21378
 H526 H 0.62638 0.49855 0.22689
 H527 H 0.55115 0.51361 0.23959
 H528 H 0.60493 0.54973 0.28401
 C529 C 0.87384 0.47368 0.76991
 C530 C 0.86219 0.46764 0.74369
 C531 C 0.84972 0.48578 0.73425
 C532 C 0.84996 0.50862 0.75209
 C533 C 0.89005 0.49745 0.76818
 C534 C 0.87771 0.51574 0.75863
 C535 C 0.85263 0.48128 0.78467
 C536 C 0.84006 0.49945 0.77563
 H537 H 0.86442 0.45064 0.73326
 H538 H 0.83957 0.52321 0.74437
 H539 H 0.90978 0.49925 0.77243
 H540 H 0.84897 0.47381 0.80189
 C541 C 0.26814 0.38164 -0.02766
 C542 C 0.24334 0.36671 -0.03380
 C543 C 0.23547 0.35381 -0.01521
 C544 C 0.25340 0.35684 0.00804
 C545 C 0.26391 0.39748 -0.00432
 C546 C 0.25629 0.38455 0.01442
 C547 C 0.28599 0.36337 -0.01913
 C548 C 0.27870 0.35057 -0.00032
 H549 H 0.23208 0.36779 -0.05073
 H550 H 0.24701 0.34629 0.02314
 H551 H 0.26570 0.41716 -0.00307
 H552 H 0.30344 0.36136 -0.02705
 C553 C 0.74861 0.08705 1.04980
 C554 C 0.72552 0.09993 1.05572
 C555 C 0.71874 0.11608 1.03935
 C556 C 0.73573 0.11786 1.01822
 C557 C 0.74206 0.07539 1.02357
 C558 C 0.73559 0.09152 1.00697
 C559 C 0.76839 0.10758 1.04713
 C560 C 0.76209 0.12348 1.03033
 H561 H 0.71470 0.09575 1.07085
 H562 H 0.72994 0.13085 1.00481
 H563 H 0.74267 0.05616 1.01855
 H564 H 0.78648 0.10846 1.05692
 C565 C 0.25582 0.59335 0.54690
 C566 C 0.23191 0.60409 0.55389
 C567 C 0.22241 0.61902 0.53755
 C568 C 0.23769 0.62175 0.51529
 C569 C 0.24892 0.58064 0.52111
 C570 C 0.23959 0.59553 0.50454
 C571 C 0.27327 0.61536 0.54257
 C572 C 0.26407 0.63013 0.52592
 H573 H 0.22338 0.60023 0.57055
 H574 H 0.23004 0.63398 0.50199
 H575 H 0.24992 0.56145 0.51640
 H576 H 0.29233 0.61743 0.55010
 C577 C 0.77018 0.87728 0.47536
 C578 C 0.74667 0.86031 0.46953
 C579 C 0.73977 0.84757 0.48855
 C580 C 0.75707 0.85318 0.51212
 C581 C 0.76434 0.89353 0.49782
 C582 C 0.75786 0.88112 0.51738
 C583 C 0.78957 0.86107 0.48518
 C584 C 0.78300 0.84855 0.50442
 H585 H 0.73536 0.85985 0.45240
 H586 H 0.75177 0.84246 0.52746
 H587 H 0.76367 0.91301 0.49757
 H588 H 0.80721 0.85982 0.47744
 C589 C -0.02613 0.26428 0.37228
 C590 C -0.03122 0.24185 0.35393
 C591 C -0.01123 0.23557 0.34206
 C592 C 0.01224 0.25243 0.34961
 C593 C -0.00440 0.25763 0.38940
 C594 C 0.01577 0.25155 0.37762
 C595 C -0.01520 0.28423 0.35753
 C596 C 0.00489 0.27832 0.34578
 H597 H -0.04802 0.22997 0.35292
 H598 H 0.02843 0.24738 0.33978
 H599 H -0.00515 0.25734 0.40903
 H600 H -0.02294 0.30169 0.35654
 C601 C 1.04839 0.74689 0.08913
 C602 C 1.05582 0.72672 0.10528
 C603 C 1.03898 0.72030 0.12124
 C604 C 1.01564 0.73450 0.11930
 C605 C 1.02324 0.73681 0.07638
 C606 C 1.00585 0.73069 0.09206
 C607 C 1.04239 0.76771 0.10703
 C608 C 1.02514 0.76153 0.12265
 H609 H 1.07230 0.71717 0.10312
 H610 H 1.00193 0.72951 0.13239
 H611 H 1.01978 0.73396 0.05670
 H612 H 1.05077 0.78607 0.10675
 C613 C 0.54524 0.25826 0.59098
 C614 C 0.55419 0.23670 0.60426
 C615 C 0.53868 0.22803 0.62049
 C616 C 0.51514 0.24169 0.62188
 C617 C 0.51939 0.24902 0.57919
 C618 C 0.50354 0.24005 0.59519
 C619 C 0.54004 0.27707 0.61139
 C620 C 0.52447 0.26865 0.62763
 H621 H 0.57107 0.22847 0.60034
 H622 H 0.50303 0.23474 0.63558
 H623 H 0.51361 0.25042 0.56020
 H624 H 0.54712 0.29597 0.61200
 C625 C 0.48300 0.77758 0.87508
 C626 C 0.47691 0.75333 0.85964
 C627 C 0.49596 0.74542 0.84727
 C628 C 0.51966 0.76258 0.85150
 C629 C 0.50587 0.77291 0.89182
 C630 C 0.52504 0.76489 0.87957
 C631 C 0.49267 0.79523 0.85721
 C632 C 0.51167 0.78757 0.84474
 H633 H 0.45963 0.74242 0.86017
 H634 H 0.53497 0.75616 0.84110
 H635 H 0.50630 0.77392 0.91156
 H636 H 0.48537 0.81277 0.85519
 C637 C 0.42152 -0.06341 0.30166
 C638 C 0.40758 -0.08567 0.30182
 C639 C 0.38311 -0.08814 0.29182
 C640 C 0.37256 -0.06844 0.28179
 C641 C 0.44233 -0.15959 0.34467
 C642 C 0.41101 -0.04361 0.29161
 C643 C 0.41791 -0.10572 0.31317
 C644 C 0.42603 -0.12263 0.32292
 C645 C 0.43501 -0.14253 0.33456
 C646 C 0.38636 -0.04590 0.28128
 H647 H 0.44039 -0.06121 0.30972
 H648 H 0.37203 -0.10521 0.29212
 H649 H 0.35336 -0.07069 0.27473
 H650 H 0.42217 -0.02657 0.29276
 C651 C 0.88190 0.40974 0.79000
 C652 C 0.90506 0.41253 0.80308
 C653 C 0.91871 0.43511 0.80505
 C654 C 0.90921 0.45492 0.79410
 C655 C 0.93653 0.33883 0.84877
 C656 C 0.87236 0.42946 0.77906
 C657 C 0.91427 0.39244 0.81528
 C658 C 0.92157 0.37555 0.82570
 C659 C 0.92975 0.35575 0.83808
 C660 C 0.88591 0.45234 0.78070
 H661 H 0.87103 0.39240 0.78860
 H662 H 0.93652 0.43754 0.81547
 H663 H 0.91999 0.47219 0.79695
 H664 H 0.85409 0.42695 0.76957
 C665 C 0.03065 1.07712 0.78369
 C666 C 0.04023 1.10144 0.78620
 C667 C 0.06310 1.10781 0.77750
 C668 C 0.07653 1.08996 0.76666
 C669 C 0.00065 1.17044 0.83729
 C670 C 0.04405 1.05917 0.77276
 C671 C 0.02772 1.11970 0.79934
 C672 C 0.01826 1.13539 0.81089
 C673 C 0.00830 1.15414 0.82493
 C674 C 0.06716 1.06535 0.76385
 H675 H 0.01318 1.07193 0.79084
 H676 H 0.07093 1.12651 0.77978
 H677 H 0.09469 1.09534 0.76116
 H678 H 0.03663 1.04047 0.77234
 C679 C 0.53089 0.57758 0.27404
 C680 C 0.54158 0.60150 0.27683
 C681 C 0.56489 0.60684 0.26862
 C682 C 0.57767 0.58831 0.25806
 C683 C 0.50382 0.67180 0.32780
 C684 C 0.54364 0.55894 0.26343
 C685 C 0.52966 0.62035 0.28978
 C686 C 0.52064 0.63638 0.30125
 C687 C 0.51112 0.65539 0.31532
 C688 C 0.56730 0.56403 0.25523
 H689 H 0.51299 0.57320 0.28074
 H690 H 0.57351 0.62525 0.27101
 H691 H 0.59610 0.59284 0.25274
 H692 H 0.53515 0.54062 0.26272
 C693 C 0.58704 0.43284 0.22680
 C694 C 0.56410 0.42595 0.21406
 C695 C 0.54845 0.44379 0.20737
 C696 C 0.55569 0.46843 0.21335
 C697 C 0.53615 0.33467 0.18508
 C698 C 0.59433 0.45748 0.23277
 C699 C 0.55678 0.40064 0.20731
 C700 C 0.55049 0.37960 0.20109
 C701 C 0.54288 0.35520 0.19295
 C702 C 0.57875 0.47553 0.22607
 H703 H 0.59929 0.41919 0.23208
 H704 H 0.53071 0.43867 0.19738
 H705 H 0.54343 0.48190 0.20766
 H706 H 0.61200 0.46234 0.24296
 C707 C 0.08637 0.93916 0.71075
 C708 C 0.06564 0.92810 0.72028
 C709 C 0.05177 0.94187 0.73577
 C710 C 0.05866 0.96660 0.74174
 C711 C 0.03950 0.83627 0.69217
 C712 C 0.09329 0.96385 0.71670
 C713 C 0.05847 0.90273 0.71379
 C714 C 0.05255 0.88157 0.70778
 C715 C 0.04559 0.85699 0.69987
 C716 C 0.07952 0.97795 0.73222
 H717 H 0.09720 0.92870 0.69865
 H718 H 0.03570 0.93349 0.74330
 H719 H 0.04790 0.97664 0.75421
 H720 H 0.10932 0.97178 0.70892
 C721 C 0.88962 0.58176 0.74424
 C722 C 0.91394 0.58217 0.73760
 C723 C 0.92661 0.56107 0.73825
 C724 C 0.91500 0.53960 0.74537
 C725 C 0.95682 0.65891 0.70204
 C726 C 0.87795 0.56029 0.75136
 C727 C 0.92559 0.60387 0.72904
 C728 C 0.93541 0.62167 0.72124
 C729 C 0.94695 0.64202 0.71130
 C730 C 0.89046 0.53889 0.75205
 H731 H 0.87956 0.59796 0.74365
 H732 H 0.94536 0.56109 0.73286
 H733 H 0.92511 0.52345 0.74488
 H734 H 0.85915 0.56060 0.75625
 C735 C 0.38736 0.08277 0.24357
 C736 C 0.41015 0.08240 0.23338
 C737 C 0.42196 0.06076 0.23170
 C738 C 0.41107 0.03958 0.24013
 C739 C 0.45153 0.15847 0.19533
 C740 C 0.37642 0.06158 0.25202
 C741 C 0.42118 0.10394 0.22394
 C742 C 0.43062 0.12158 0.21553
 C743 C 0.44185 0.14174 0.20499
 C744 C 0.38816 0.03971 0.25050
 H745 H 0.37798 0.09941 0.24487
 H746 H 0.43949 0.06018 0.22360
 H747 H 0.42040 0.02302 0.23794
 H748 H 0.35887 0.06247 0.25984
 C749 C 0.28566 0.39506 -0.09190
 C750 C 0.30093 0.41656 -0.08708
 C751 C 0.30487 0.42736 -0.06315
 C752 C 0.29369 0.41660 -0.04404
 C753 C 0.34954 0.45040 -0.15824
 C754 C 0.27448 0.38427 -0.07285
 C755 C 0.31378 0.42662 -0.10646
 C756 C 0.32486 0.43453 -0.12274
 C757 C 0.33809 0.44328 -0.14185
 C758 C 0.27795 0.39508 -0.04865
 H759 H 0.28291 0.38627 -0.11029
 H760 H 0.31712 0.44373 -0.05915
 H761 H 0.29816 0.42478 -0.02562
 H762 H 0.26373 0.36703 -0.07703
 C763 C 0.78828 0.88784 0.41072
 C764 C 0.80087 0.91092 0.41414
 C765 C 0.80265 0.92372 0.43720
 C766 C 0.79207 0.91337 0.45687
 C767 C 0.84731 0.94318 0.34086
 C768 C 0.77771 0.87745 0.43031
 C769 C 0.81320 0.92069 0.39429
 C770 C 0.82381 0.92826 0.37755
 C771 C 0.83644 0.93651 0.35782
 C772 C 0.77910 0.89017 0.45365
 H773 H 0.78719 0.87756 0.39305
 H774 H 0.81282 0.94142 0.44016
 H775 H 0.79492 0.92327 0.47469
 H776 H 0.76909 0.85910 0.42732
 C777 C 0.76624 0.06147 1.11124
 C778 C 0.78113 0.04308 1.10411
 C779 C 0.78431 0.03796 1.07927
 C780 C 0.77293 0.05143 1.06165
 C781 C 0.83449 0.00461 1.17279
 C782 C 0.75487 0.07499 1.09369
 C783 C 0.79488 0.03108 1.12245
 C784 C 0.80695 0.02192 1.13808
 C785 C 0.82161 0.01217 1.15667
 C786 C 0.75776 0.07001 1.06853
 H787 H 0.76414 0.06599 1.13048
 H788 H 0.79629 0.02413 1.07359
 H789 H 0.77690 0.04790 1.04276
 H790 H 0.74473 0.09000 1.10007
 C791 C 0.28806 0.54345 0.57979
 C792 C 0.29144 0.55419 0.60378
 C793 C 0.28271 0.57695 0.60929
 C794 C 0.27084 0.58903 0.59087
 C795 C 0.34292 0.51585 0.67394
 C796 C 0.27614 0.55550 0.56128
 C797 C 0.30494 0.54256 0.62257
 C798 C 0.31662 0.53349 0.63855
 C799 C 0.33066 0.52364 0.65751
 C800 C 0.26721 0.57850 0.56658
 H801 H 0.29508 0.52596 0.57528
 H802 H 0.28548 0.58558 0.62775
 H803 H 0.26483 0.60694 0.59552
 H804 H 0.27480 0.54688 0.54293
 C805 C 0.20595 0.58953 0.44116
 C806 C 0.21934 0.57243 0.42887
 C807 C 0.23927 0.56277 0.44135
 C808 C 0.24579 0.57017 0.46601
 C809 C 0.18955 0.54189 0.33784
 C810 C 0.21246 0.59697 0.46582
 C811 C 0.21225 0.56440 0.40364
 C812 C 0.20583 0.55749 0.38266
 C813 C 0.19753 0.54919 0.35832
 C814 C 0.23243 0.58734 0.47852
 H815 H 0.19038 0.59700 0.43172
 H816 H 0.24976 0.54952 0.43202
 H817 H 0.26151 0.56272 0.47517
 H818 H 0.20160 0.60994 0.47502
 C819 C 0.73161 0.09407 0.93797
 C820 C 0.71907 0.07154 0.93010
 C821 C 0.71200 0.05546 0.94737
 C822 C 0.71738 0.06188 0.97240
 C823 C 0.69191 0.04672 0.83723
 C824 C 0.73700 0.10053 0.96300
 C825 C 0.71288 0.06511 0.90439
 C826 C 0.70709 0.05955 0.88298
 C827 C 0.69942 0.05279 0.85815
 C828 C 0.72987 0.08453 0.98048
 H829 H 0.73719 0.10665 0.92477
 H830 H 0.70216 0.03803 0.94149
 H831 H 0.71141 0.04929 0.98541
 H832 H 0.74704 0.11790 0.96862
 C833 C 0.73110 0.89341 0.57895
 C834 C 0.73933 0.91780 0.58496
 C835 C 0.75443 0.92998 0.56949
 C836 C 0.76082 0.91797 0.54783
 C837 C 0.70504 0.96366 0.66102
 C838 C 0.73746 0.88136 0.55731
 C839 C 0.73137 0.93054 0.60644
 C840 C 0.72391 0.94111 0.62408
 C841 C 0.71422 0.95335 0.64426
 C842 C 0.75199 0.89357 0.54110
 H843 H 0.71943 0.88376 0.59082
 H844 H 0.76108 0.94884 0.57405
 H845 H 0.77278 0.92792 0.53650
 H846 H 0.73048 0.86264 0.55336
 C847 C 0.23129 0.42882 0.06067
 C848 C 0.23548 0.41745 0.08241
 C849 C 0.24693 0.39555 0.08202
 C850 C 0.25397 0.38496 0.05992
 C851 C 0.19995 0.45738 0.16085
 C852 C 0.23830 0.41829 0.03860
 C853 C 0.22714 0.42797 0.10481
 C854 C 0.21939 0.43705 0.12305
 C855 C 0.20937 0.44794 0.14377
 C856 C 0.24964 0.39618 0.03796
 H857 H 0.22227 0.44568 0.06072
 H858 H 0.25024 0.38658 0.09874
 H859 H 0.26293 0.36810 0.06006
 H860 H 0.23428 0.42717 0.02197
 C861 C -0.06433 0.29881 0.41699
 C862 C -0.08819 0.29427 0.40557
 C863 C -0.09221 0.27898 0.38402
 C864 C -0.07243 0.26850 0.37369
 C865 C -0.16129 0.34190 0.43698
 C866 C -0.04450 0.28834 0.40672
 C867 C -0.10826 0.30667 0.41493
 C868 C -0.12504 0.31748 0.42225
 C869 C -0.14461 0.33052 0.43034
 C870 C -0.04824 0.27278 0.38503
 H871 H -0.06094 0.31101 0.43344
 H872 H -0.11056 0.27576 0.37475
 H873 H -0.07611 0.25789 0.35631
 H874 H -0.02610 0.29311 0.41533
 C875 C 0.41788 0.79697 0.88261
 C876 C 0.41968 0.80699 0.90684
 C877 C 0.44198 0.80718 0.92126
 C878 C 0.46246 0.79742 0.91149
 C879 C 0.34336 0.84815 0.93985
 C880 C 0.43828 0.78723 0.87280
 C881 C 0.39890 0.81790 0.91649
 C882 C 0.38141 0.82727 0.92416
 C883 C 0.36090 0.83844 0.93276
 C884 C 0.46084 0.78699 0.88713
 H885 H 0.40080 0.79702 0.87117
 H886 H 0.44366 0.81527 0.93994
 H887 H 0.47954 0.79884 0.92297
 H888 H 0.43655 0.78014 0.85378
 C889 C 1.11110 0.76840 0.06784
 C890 C 1.10432 0.77797 0.04567
 C891 C 1.07946 0.77638 0.03681
 C892 C 1.06140 0.76550 0.05025
 C893 C 1.17322 0.82958 0.00564
 C894 C 1.09313 0.75756 0.08132
 C895 C 1.12272 0.79116 0.03319
 C896 C 1.13842 0.80280 0.02366
 C897 C 1.15709 0.81701 0.01352
 C898 C 1.06798 0.75562 0.07261
 H899 H 1.13024 0.77001 0.07515
 H900 H 1.07395 0.78426 0.01992
 H901 H 1.04227 0.76577 0.04351
 H902 H 1.09891 0.75150 0.09901
 C903 C 0.57799 0.28146 0.53598
 C904 C 0.60092 0.29032 0.54761
 C905 C 0.60587 0.28798 0.57263
 C906 C 0.58787 0.27721 0.58607
 C907 C 0.67025 0.33810 0.50452
 C908 C 0.55986 0.27061 0.54941
 C909 C 0.61924 0.30260 0.53430
 C910 C 0.63497 0.31339 0.52405
 C911 C 0.65382 0.32653 0.51307
 C912 C 0.56445 0.26859 0.57482
 H913 H 0.57400 0.28319 0.51657
 H914 H 0.62356 0.29479 0.58185
 H915 H 0.59208 0.27592 0.60552
 H916 H 0.54246 0.26423 0.53962
 C917 C 0.44617 0.21355 0.55534
 C918 C 0.42828 0.21320 0.57233
 C919 C 0.43504 0.22067 0.59691
 C920 C 0.45948 0.22892 0.60443
 C921 C 0.33663 0.18135 0.54347
 C922 C 0.47063 0.22181 0.56279
 C923 C 0.40303 0.20501 0.56458
 C924 C 0.38194 0.19799 0.55803
 C925 C 0.35738 0.18935 0.55025
 C926 C 0.47763 0.23012 0.58743
 H927 H 0.44122 0.20744 0.53629
 H928 H 0.42138 0.22023 0.61030
 H929 H 0.46375 0.23455 0.62354
 H930 H 0.48396 0.22138 0.54915
 C931 C 0.94053 0.70064 0.08999
 C932 C 0.92998 0.70808 0.06802
 C933 C 0.94415 0.72286 0.05385
 C934 C 0.96880 0.73012 0.06159
 C935 C 0.83850 0.67643 0.03830
 C936 C 0.96515 0.70789 0.09776
 C937 C 0.90472 0.70025 0.05993
 C938 C 0.88367 0.69328 0.05317
 C939 C 0.85919 0.68453 0.04521
 C940 C 0.97971 0.72261 0.08362
 H941 H 0.92973 0.68916 0.10110
 H942 H 0.93615 0.72883 0.03685
 H943 H 0.97909 0.74198 0.05046
 H944 H 0.97263 0.70168 0.11474
 C945 C 0.59078 0.74785 0.89302
 C946 C 0.58885 0.73640 0.91482
 C947 C 0.56624 0.73472 0.92536
 C948 C 0.54560 0.74427 0.91413
 C949 C 0.66227 0.69307 0.95608
 C950 C 0.57012 0.75743 0.88174
 C951 C 0.60971 0.72555 0.92599
 C952 C 0.62673 0.71590 0.93546
 C953 C 0.64614 0.70391 0.94660
 C954 C 0.54727 0.75575 0.89213
 H955 H 0.60817 0.74918 0.88464
 H956 H 0.56445 0.72567 0.94210
 H957 H 0.52822 0.74199 0.92237
 H958 H 0.57214 0.76615 0.86493
 C959 C 0.08306 0.24153 0.39371
 C960 C 0.08137 0.22797 0.41420
 C961 C 0.05828 0.22236 0.42289
 C962 C 0.03695 0.23015 0.41113
 C963 C 0.15815 0.19207 0.45831
 C964 C 0.06172 0.24935 0.38189
 C965 C 0.10313 0.21925 0.42607
 C966 C 0.12094 0.21135 0.43617
 C967 C 0.14128 0.20135 0.44810
 C968 C 0.03843 0.24370 0.39046
 H969 H 0.10084 0.24598 0.38682
 H970 H 0.05672 0.21173 0.43864
 H971 H 0.01928 0.22512 0.41793
 H972 H 0.06350 0.26002 0.36623
 C973 C 0.53052 0.16882 0.65118
 C974 C 0.55501 0.16542 0.65906
 C975 C 0.57387 0.18298 0.65525
 C976 C 0.56845 0.20357 0.64318
 C977 C 0.58677 0.08822 0.69803
 C978 C 0.52503 0.18953 0.63912
 C979 C 0.56132 0.14365 0.67024
 C980 C 0.56802 0.12573 0.67927
 C981 C 0.57744 0.10522 0.68951
 C982 C 0.54402 0.20693 0.63470
 H983 H 0.51578 0.15530 0.65396
 H984 H 0.59287 0.18059 0.66132
 H985 H 0.58341 0.21685 0.64041
 H986 H 0.50609 0.19152 0.63257
 C987 C 1.07121 0.67754 0.16150
 C988 C 1.05209 0.65983 0.16410
 C989 C 1.02813 0.66287 0.15428
 C990 C 1.02352 0.68317 0.14122
 C991 C 1.08191 0.58129 0.20183
 C992 C 1.06665 0.69772 0.14841
 C993 C 1.05777 0.63789 0.17532
 C994 C 1.06396 0.61967 0.18411
 C995 C 1.07288 0.59870 0.19386
 C996 C 1.04287 0.70049 0.13765
 H997 H 1.08982 0.67542 0.16902
 H998 H 1.01319 0.64921 0.15607
 H999 H 1.00514 0.68465 0.13298
 H1000 H 1.08187 0.71094 0.14625
 C1001 C 0.99725 0.79177 0.17741
 C1002 C 0.99453 0.81514 0.16969
 C1003 C 1.00176 0.82084 0.14674
 C1004 C 1.01171 0.80341 0.13156
 C1005 C 0.95510 0.88630 0.21767
 C1006 C 1.00725 0.77420 0.16217
 C1007 C 0.98397 0.83345 0.18476
 C1008 C 0.97506 0.84961 0.19619
 C1009 C 0.96444 0.86921 0.20830
 C1010 C 1.01470 0.77991 0.13912
 H1011 H 0.99164 0.78715 0.19515
 H1012 H 0.99955 0.83878 0.14048
 H1013 H 1.01666 0.80825 0.11369
 H1014 H 1.00945 0.75632 0.16853
 C1015 C 0.48276 0.30123 0.66906
 C1016 C 0.49897 0.32035 0.68013
 C1017 C 0.52399 0.32123 0.67577
 C1018 C 0.53256 0.30364 0.65959
 C1019 C 0.46157 0.39521 0.72402
 C1020 C 0.49132 0.28361 0.65289
 C1021 C 0.48949 0.34025 0.69393
 C1022 C 0.48116 0.35737 0.70439
 C1023 C 0.47088 0.37772 0.71545
 C1024 C 0.51616 0.28499 0.64748
 H1025 H 0.46330 0.30047 0.67215
 H1026 H 0.53671 0.33598 0.68419
 H1027 H 0.55189 0.30501 0.65602
 H1028 H 0.47820 0.26982 0.64364
 C1029 C 0.51206 0.68237 0.82535
 C1030 C 0.48967 0.67287 0.81291
 C1031 C 0.47004 0.68771 0.81019
 C1032 C 0.47243 0.71166 0.82057
 C1033 C 0.46652 0.58044 0.78659
 C1034 C 0.51452 0.70642 0.83569
 C1035 C 0.48582 0.64746 0.80470
 C1036 C 0.48116 0.62616 0.79845
 C1037 C 0.47403 0.60137 0.79179
 C1038 C 0.49452 0.72110 0.83384
 H1039 H 0.52730 0.67097 0.82774
 H1040 H 0.45261 0.68053 0.80066
 H1041 H 0.45682 0.72265 0.81865
 H1042 H 0.53164 0.71311 0.84608
 C1043 C 0.00627 0.17339 0.31906
 C1044 C -0.01536 0.16436 0.30493
 C1045 C -0.03453 0.17953 0.30102
 C1046 C -0.03262 0.20323 0.31207
 C1047 C -0.03894 0.07184 0.27930
 C1048 C 0.00827 0.19719 0.33007
 C1049 C -0.01925 0.13896 0.29662
 C1050 C -0.02403 0.11764 0.29047
 C1051 C -0.03132 0.09281 0.28410
 C1052 C -0.01148 0.21207 0.32723
 H1053 H 0.02114 0.16174 0.32240
 H1054 H -0.05139 0.17273 0.29020
 H1055 H -0.04801 0.21439 0.30943
 H1056 H 0.02464 0.20342 0.34190
 C1057 C 0.04026 0.30601 0.29606
 C1058 C 0.04214 0.33072 0.30438
 C1059 C 0.03281 0.33796 0.32657
 C1060 C 0.02121 0.32081 0.34019
 C1061 C 0.08294 0.40512 0.26403
 C1062 C 0.02862 0.28869 0.30978
 C1063 C 0.05346 0.34910 0.29060
 C1064 C 0.06269 0.36583 0.28060
 C1065 C 0.07346 0.38662 0.27077
 C1066 C 0.01865 0.29603 0.33179
 H1067 H 0.04752 0.30019 0.27893
 H1068 H 0.03437 0.35698 0.33332
 H1069 H 0.01422 0.32697 0.35734
 H1070 H 0.02681 0.26974 0.30286
 C1071 C 0.52005 0.83344 0.79745
 C1072 C 0.54578 0.83619 0.79750
 C1073 C 0.56029 0.82137 0.81131
 C1074 C 0.54913 0.80456 0.82581
 C1075 C 0.58688 0.91347 0.76181
 C1076 C 0.50891 0.81675 0.81197
 C1077 C 0.55718 0.85596 0.78557
 C1078 C 0.56647 0.87344 0.77678
 C1079 C 0.57733 0.89475 0.76797
 C1080 C 0.52338 0.80262 0.82684
 H1081 H 0.50863 0.84483 0.78689
 H1082 H 0.58025 0.82348 0.81162
 H1083 H 0.56073 0.79407 0.83713
 H1084 H 0.48898 0.81533 0.81204
 C1085 C 0.62746 0.54864 0.15280
 C1086 C 0.65221 0.54346 0.15276
 C1087 C 0.66367 0.53368 0.17316
 C1088 C 0.65053 0.52969 0.19373
 C1089 C 0.69729 0.57488 0.07835
 C1090 C 0.61440 0.54479 0.17329
 C1091 C 0.66590 0.54987 0.13235
 C1092 C 0.67649 0.55655 0.11518
 C1093 C 0.68803 0.56581 0.09517
 C1094 C 0.62592 0.53572 0.19417
 H1095 H 0.61837 0.55618 0.13714
 H1096 H 0.68287 0.52971 0.17338
 H1097 H 0.65986 0.52278 0.20959
 H1098 H 0.59531 0.54913 0.17287
 C1099 C 0.14928 1.02658 0.66974
 C1100 C 0.15800 1.05041 0.66602
 C1101 C 0.15421 1.06948 0.68316
 C1102 C 0.14108 1.06495 0.70347
 C1103 C 0.19711 1.07879 0.58714
 C1104 C 0.13617 1.02200 0.69017
 C1105 C 0.16954 1.05587 0.64405
 C1106 C 0.17865 1.06180 0.62578
 C1107 C 0.18879 1.07027 0.60471
 C1108 C 0.13144 1.04122 0.70694
 H1109 H 0.15205 1.01168 0.65655
 H1110 H 0.16092 1.08799 0.68053
 H1111 H 0.13814 1.08010 0.71629
 H1112 H 0.12891 1.00363 0.69222
 C1113 C 0.14499 1.00164 0.82820
 C1114 C 0.16775 0.99418 0.82171
 C1115 C 0.17481 0.99683 0.79794
 C1116 C 0.15900 1.00686 0.78070
 C1117 C 0.21702 0.95263 0.89097
 C1118 C 0.12924 1.01160 0.81110
 C1119 C 0.18321 0.98320 0.83953
 C1120 C 0.19494 0.97382 0.85525
 C1121 C 0.20737 0.96256 0.87433
 C1122 C 0.13605 1.01436 0.78715
 H1123 H 0.13924 0.99946 0.84646
 H1124 H 0.19239 0.99105 0.79270
 H1125 H 0.16481 1.00891 0.76247
 H1126 H 0.11146 1.01658 0.81653
 C1127 C 0.64770 0.50308 0.31882
 C1128 C 0.66966 0.49420 0.31167
 C1129 C 0.67557 0.49516 0.28731
 C1130 C 0.65943 0.50495 0.27017
 C1131 C 0.71885 0.45407 0.38199
 C1132 C 0.63164 0.51278 0.30183
 C1133 C 0.68532 0.48346 0.32952
 C1134 C 0.69708 0.47438 0.34546
 C1135 C 0.70941 0.46358 0.36494
 C1136 C 0.63730 0.51392 0.27729
 H1137 H 0.64279 0.50218 0.33754
 H1138 H 0.69249 0.48822 0.28155
 H1139 H 0.66433 0.50559 0.25147
 H1140 H 0.61445 0.51878 0.30788
 C1141 C 0.84172 0.47036 0.66566
 C1142 C 0.81927 0.48000 0.65940
 C1143 C 0.80697 0.49221 0.67756
 C1144 C 0.81701 0.49446 0.70197
 C1145 C 0.78662 0.45737 0.56769
 C1146 C 0.85168 0.47250 0.68994
 C1147 C 0.80875 0.47618 0.63444
 C1148 C 0.80092 0.47159 0.61336
 C1149 C 0.79278 0.46465 0.58865
 C1150 C 0.83930 0.48431 0.70842
 H1151 H 0.85143 0.46092 0.65178
 H1152 H 0.78951 0.49966 0.67293
 H1153 H 0.80704 0.50355 0.71585
 H1154 H 0.86917 0.46499 0.69420
 C1155 C 0.32116 0.00168 0.17551
 C1156 C 0.30945 -0.02086 0.16624
 C1157 C 0.30780 -0.04014 0.18139
 C1158 C 0.31851 -0.03722 0.20542
 C1159 C 0.28219 -0.04505 0.07349
 C1160 C 0.33183 0.00467 0.19966
 C1161 C 0.30089 -0.02514 0.14074
 C1162 C 0.29439 -0.03011 0.11938
 C1163 C 0.28750 -0.03748 0.09451
 C1164 C 0.33107 -0.01494 0.21464
 H1165 H 0.32270 0.01667 0.16388
 H1166 H 0.29883 -0.05767 0.17441
 H1167 H 0.31740 -0.05254 0.21666
 H1168 H 0.34164 0.02194 0.20618
 C1169 C 0.30653 0.04906 0.31564
 C1170 C 0.29329 0.03434 0.33069
 C1171 C 0.29396 0.00905 0.32785
 C1172 C 0.30871 -0.00142 0.31086
 C1173 C 0.25830 0.07422 0.40923
 C1174 C 0.32126 0.03857 0.29854
 C1175 C 0.28137 0.04517 0.35086
 C1176 C 0.27271 0.05414 0.36864
 C1177 C 0.26417 0.06476 0.39028
 C1178 C 0.32310 0.01329 0.29654
 H1179 H 0.30629 0.06868 0.31782
 H1180 H 0.28384 -0.00252 0.33942
 H1181 H 0.30941 -0.02101 0.30941
 H1182 H 0.33220 0.05034 0.28795
 C1183 C 0.78950 0.50630 0.81870
 C1184 C 0.79014 0.53164 0.82272
 C1185 C 0.80486 0.54640 0.80895
 C1186 C 0.81992 0.53588 0.79221
 C1187 C 0.75688 0.57114 0.90235
 C1188 C 0.80457 0.49578 0.80202
 C1189 C 0.77843 0.54230 0.84312
 C1190 C 0.77014 0.55119 0.86117
 C1191 C 0.76219 0.56175 0.88312
 C1192 C 0.82061 0.51049 0.78926
 H1193 H 0.77827 0.49468 0.82930
 H1194 H 0.80567 0.56605 0.81206
 H1195 H 0.83218 0.54764 0.78291
 H1196 H 0.80447 0.47613 0.79988
 C1197 C 0.17589 0.66693 0.53955
 C1198 C 0.15686 0.65499 0.55104
 C1199 C 0.15878 0.63095 0.55694
 C1200 C 0.17984 0.61907 0.55199
 C1201 C 0.08180 0.69754 0.58504
 C1202 C 0.19701 0.65501 0.53449
 C1203 C 0.13601 0.66760 0.55832
 C1204 C 0.11867 0.67755 0.56562
 C1205 C 0.09860 0.68858 0.57550
 C1206 C 0.19936 0.63110 0.54108
 H1207 H 0.17466 0.68560 0.53503
 H1208 H 0.14419 0.62151 0.56582
 H1209 H 0.18090 0.60050 0.55686
 H1210 H 0.21182 0.66478 0.52626
 C1211 C 0.65363 0.12965 1.05237
 C1212 C 0.65362 0.15428 1.04798
 C1213 C 0.67453 0.16616 1.03938
 C1214 C 0.69558 0.15354 1.03578
 C1215 C 0.57747 0.19732 1.07870
 C1216 C 0.67459 0.11711 1.04892
 C1217 C 0.63269 0.16739 1.05411
 C1218 C 0.61510 0.17751 1.06058
 C1219 C 0.59463 0.18850 1.06967
 C1220 C 0.69596 0.12903 1.04105
 H1221 H 0.63758 0.12025 1.05901
 H1222 H 0.67479 0.18526 1.03604
 H1223 H 0.71181 0.16316 1.02979
 H1224 H 0.67412 0.09810 1.05261
 C1225 C 0.82260 0.15129 1.01101
 C1226 C 0.81548 0.17282 1.00170
 C1227 C 0.79093 0.17873 1.00233
 C1228 C 0.77352 0.16295 1.01210
 C1229 C 0.88586 0.21985 0.95946
 C1230 C 0.80533 0.13556 1.02067
 C1231 C 0.83349 0.18791 0.99057
 C1232 C 0.84947 0.19917 0.98105
 C1233 C 0.86891 0.21090 0.96960
 C1234 C 0.78055 0.14115 1.02133
 H1235 H 0.84146 0.14639 1.01036
 H1236 H 0.78520 0.19533 0.99505
 H1237 H 0.75465 0.16782 1.01239
 H1238 H 0.81135 0.11864 1.02687
 C1239 C 0.29539 0.66741 0.48022
 C1240 C 0.31481 0.68005 0.49513
 C1241 C 0.31625 0.67811 0.52047
 C1242 C 0.29892 0.66280 0.53074
 C1243 C 0.38886 0.72152 0.45318
 C1244 C 0.27803 0.65211 0.49045
 C1245 C 0.33448 0.69306 0.48418
 C1246 C 0.35141 0.70292 0.47475
 C1247 C 0.37155 0.71338 0.46333
 C1248 C 0.28000 0.64917 0.51575
 H1249 H 0.29422 0.66864 0.46055
 H1250 H 0.33124 0.68775 0.53218
 H1251 H 0.30074 0.66107 0.55031
 H1252 H 0.26395 0.64159 0.47836
 C1253 C 0.67642 0.82127 0.50180
 C1254 C 0.66888 0.80764 0.47967
 C1255 C 0.68544 0.80521 0.46149
 C1256 C 0.70904 0.81722 0.46495
 C1257 C 0.57611 0.77975 0.45280
 C1258 C 0.70011 0.83323 0.50531
 C1259 C 0.64350 0.79843 0.47437
 C1260 C 0.62215 0.79169 0.46872
 C1261 C 0.59723 0.78483 0.46075
 C1262 C 0.71639 0.83185 0.48666
 H1263 H 0.66367 0.82350 0.51589
 H1264 H 0.67978 0.79482 0.44424
 H1265 H 0.72130 0.81571 0.45033
 H1266 H 0.70504 0.84469 0.52194
 C1267 C 0.18177 0.30787 -0.00730
 C1268 C 0.16218 0.31853 -0.01936
 C1269 C 0.16653 0.34087 -0.02936
 C1270 C 0.19029 0.35235 -0.02776
 C1271 C 0.07074 0.28302 -0.04081
 C1272 C 0.20571 0.31946 -0.00558
 C1273 C 0.13762 0.30663 -0.02263
 C1274 C 0.11664 0.29798 -0.02691
 C1275 C 0.09186 0.28930 -0.03365
 C1276 C 0.21022 0.34163 -0.01616
 H1277 H 0.17862 0.29054 0.00047
 H1278 H 0.15152 0.34935 -0.03864
 H1279 H 0.19301 0.36974 -0.03550
 H1280 H 0.22072 0.31084 0.00346
 C1281 C 0.33694 0.32579 0.02628
 C1282 C 0.32777 0.30421 0.03531
 C1283 C 0.30226 0.29787 0.03329
 C1284 C 0.28604 0.31305 0.02193
 C1285 C 0.40012 0.26112 0.07754
 C1286 C 0.32090 0.34085 0.01501
 C1287 C 0.34510 0.28928 0.04687
 C1288 C 0.36129 0.27856 0.05642
 C1289 C 0.38174 0.26815 0.06765
 C1290 C 0.29529 0.33456 0.01241
 H1291 H 0.35659 0.33104 0.02801
 H1292 H 0.29495 0.28125 0.04036
 H1293 H 0.26642 0.30777 0.02018
 H1294 H 0.32861 0.35761 0.00854
 C1295 C 0.80842 0.79688 0.53819
 C1296 C 0.83373 0.80417 0.54052
 C1297 C 0.84220 0.82606 0.53160
 C1298 C 0.82563 0.84052 0.52015
 C1299 C 0.90622 0.76212 0.58394
 C1300 C 0.79169 0.81143 0.52668
 C1301 C 0.85145 0.78980 0.55228
 C1302 C 0.86769 0.77936 0.56209
 C1303 C 0.88802 0.76912 0.57370
 C1304 C 0.80022 0.83329 0.51735
 H1305 H 0.80165 0.77999 0.54514
 H1306 H 0.86170 0.83200 0.53352
 H1307 H 0.83274 0.85751 0.51368
 H1308 H 0.77224 0.80536 0.52464
   
