data_POSCAR
  _audit_creation_date              2014-09-24
  _audit_creation_method            'ToBaCCo'
  _symmetry_space_group_name_H-M    'P1'
  _symmetry_Int_Tables_number       1
  _symmetry_cell_setting            triclinic
  loop_
  _symmetry_equiv_pos_as_xyz
 x,y,z
_cell_length_a 39.9215
_cell_length_b 42.7550
_cell_length_c 42.1728
_cell_angle_alpha 90.146600
_cell_angle_beta 89.372100
_cell_angle_gamma 91.955800
loop_
  _atom_site_label
  _atom_site_type_symbol
  _atom_site_fract_x
  _atom_site_fract_y
  _atom_site_fract_z
C1 C 0.39470 0.03608 0.25752
 C2 C 0.12217 -0.01213 0.76563
 C3 C 0.64957 0.49505 0.21732
 C4 C 0.88171 0.50820 0.74382
 C5 C 0.23343 0.34192 0.97272
 C6 C 0.71835 0.15772 0.99928
 C7 C 0.26274 0.64395 0.47745
 C8 C 0.75048 0.85745 0.49499
 C9 C -0.01712 0.22903 0.37758
 C10 C 0.01513 0.76273 0.10436
 C11 C 0.52211 0.27862 0.59258
 C12 C 0.47839 0.74073 0.88821
 C13 C -0.25619 0.65742 1.00710
 C14 C -0.24922 0.33524 0.51199
 C15 C 0.21330 -0.15826 0.00523
 C16 C 0.26356 1.15511 0.49481
 C17 C 0.12780 0.52549 0.25117
 C18 C -0.12167 1.01227 0.28012
 C19 C 0.38653 0.49494 -0.26831
 C20 C 0.64037 -0.00619 -0.22542
 C21 C 0.01597 0.24945 0.90087
 C22 C 0.49546 0.24063 0.09828
 C23 C -0.01222 0.73595 0.62333
 C24 C 0.51039 0.77283 0.40719
 B25 B -0.04293 0.01623 1.04174
 B26 B -0.06288 0.02728 1.00866
 B27 B -0.02298 0.04032 1.01479
 B28 B -0.00172 0.01129 1.03213
 B29 B -0.02866 -0.01964 1.03612
 B30 B -0.06685 -0.01015 1.02139
 B31 B -0.02235 -0.00743 0.97261
 B32 B -0.00154 -0.01863 1.00534
 B33 B -0.04144 -0.03167 0.99963
 B34 B -0.06289 -0.00260 0.98228
 B35 B -0.03554 0.02892 0.97825
 B36 B 0.00247 0.01861 0.99249
 B37 B 0.50899 0.51233 0.51360
 B38 B 0.49084 0.52411 0.48001
 B39 B 0.52368 0.54565 0.49408
 B40 B 0.55070 0.52083 0.51099
 B41 B 0.53487 0.48362 0.50526
 B42 B 0.49790 0.48577 0.48573
 B43 B 0.54685 0.50914 0.44670
 B44 B 0.56514 0.49848 0.48105
 B45 B 0.53288 0.47666 0.46586
 B46 B 0.50487 0.50135 0.44952
 B47 B 0.52092 0.53828 0.45489
 B48 B 0.55833 0.53626 0.47430
 B49 B 0.53503 1.01045 0.54653
 B50 B 0.55079 1.00648 0.50926
 B51 B 0.52118 0.98060 0.52303
 B52 B 0.49390 1.00009 0.54613
 B53 B 0.50687 1.03868 0.54605
 B54 B 0.54223 1.04195 0.52299
 B55 B 0.49131 1.02264 0.48499
 B56 B 0.47563 1.02615 0.52267
 B57 B 0.50544 1.05203 0.50825
 B58 B 0.53270 1.03229 0.48522
 B59 B 0.51948 0.99394 0.48514
 B60 B 0.48388 0.99049 0.50778
 B61 B 0.00519 0.49461 1.03435
 B62 B 0.03081 0.48683 1.00332
 B63 B -0.00864 0.47211 1.00318
 B64 B -0.03416 0.49867 1.02010
 B65 B -0.00953 0.53075 1.02982
 B66 B 0.03110 0.52308 1.01968
 B67 B -0.00550 0.52332 0.96554
 B68 B -0.03191 0.53060 0.99609
 B69 B 0.00811 0.54552 0.99632
 B70 B 0.03360 0.51885 0.97981
 B71 B 0.00889 0.48769 0.96983
 B72 B -0.03170 0.49453 0.97997
 B73 B 0.02348 0.50193 0.47374
 B74 B 0.05044 0.49538 0.50313
 B75 B 0.01812 0.51970 0.50899
 B76 B -0.01553 0.50512 0.48949
 B77 B -0.00429 0.47129 0.47170
 B78 B 0.03686 0.46530 0.47990
 B79 B 0.00189 0.46385 0.53588
 B80 B -0.02542 0.47042 0.50655
 B81 B 0.00630 0.44584 0.50051
 B82 B 0.04053 0.46034 0.51987
 B83 B 0.02943 0.49452 0.53749
 B84 B -0.01169 0.50020 0.52940
 B85 B 0.48661 -0.00327 -0.02934
 B86 B 0.51236 0.00010 0.00241
 B87 B 0.47759 0.02135 0.00042
 B88 B 0.44682 -0.00054 -0.01633
 B89 B 0.46275 -0.03623 -0.02519
 B90 B 0.50372 -0.03534 -0.01402
 B91 B 0.46531 -0.02855 0.03907
 B92 B 0.43910 -0.03119 0.00769
 B93 B 0.47415 -0.05295 0.00922
 B94 B 0.50501 -0.03065 0.02615
 B95 B 0.48888 0.00473 0.03504
 B96 B 0.44829 0.00388 0.02389
 B97 B 0.48487 0.46617 -0.04716
 B98 B 0.46586 0.46191 -0.01120
 B99 B 0.50347 0.44627 -0.01813
 B100 B 0.52669 0.47060 -0.04139
 B101 B 0.50330 0.50227 -0.04915
 B102 B 0.46495 0.49649 -0.03098
 B103 B 0.51255 0.50040 0.01464
 B104 B 0.53252 0.50422 -0.02046
 B105 B 0.49461 0.52008 -0.01465
 B106 B 0.47104 0.49555 0.00878
 B107 B 0.49508 0.46426 0.01697
 B108 B 0.53289 0.46981 -0.00135
 B109 B 0.00744 0.97156 0.47604
 B110 B -0.02214 0.98136 0.50300
 B111 B 0.00599 0.95327 0.51129
 B112 B 0.04361 0.96456 0.49468
 B113 B 0.03779 0.99950 0.47658
 B114 B -0.00277 1.00938 0.48188
 B115 B 0.02618 1.00749 0.54004
 B116 B 0.05541 0.99880 0.51236
 B117 B 0.02684 1.02598 0.50466
 B118 B -0.01008 1.01467 0.52148
 B119 B -0.00481 0.97942 0.53933
 B120 B 0.03636 0.96981 0.53421
 B121 B 0.72733 0.23414 0.23535
 B122 B 0.72823 0.20480 0.26208
 B123 B 0.74916 0.23843 0.26948
 B124 B 0.72757 0.26817 0.25554
 B125 B 0.69158 0.25238 0.23977
 B126 B 0.69216 0.21273 0.24373
 B127 B 0.69083 0.23861 0.30294
 B128 B 0.69176 0.26807 0.27657
 B129 B 0.66940 0.23449 0.26907
 B130 B 0.69128 0.20403 0.28300
 B131 B 0.72683 0.21981 0.29860
 B132 B 0.72693 0.25935 0.29501
 B133 B 0.69744 0.74159 0.70228
 B134 B 0.70327 0.76415 0.73466
 B135 B 0.67400 0.73454 0.73464
 B136 B 0.68948 0.70435 0.71332
 B137 B 0.72840 0.71615 0.70098
 B138 B 0.73658 0.75303 0.71403
 B139 B 0.72821 0.71491 0.76586
 B140 B 0.72398 0.69319 0.73247
 B141 B 0.75226 0.72318 0.73328
 B142 B 0.73675 0.75253 0.75469
 B143 B 0.69757 0.74094 0.76717
 B144 B 0.68960 0.70355 0.75360
 B145 B 0.29746 0.23145 0.77887
 B146 B 0.29297 0.26455 0.75715
 B147 B 0.31222 0.23356 0.74086
 B148 B 0.29283 0.20038 0.75411
 B149 B 0.26063 0.21089 0.77802
 B150 B 0.26134 0.25093 0.78036
 B151 B 0.24815 0.23396 0.71922
 B152 B 0.25344 0.20063 0.74035
 B153 B 0.23354 0.23119 0.75713
 B154 B 0.25285 0.26479 0.74388
 B155 B 0.28506 0.25435 0.71971
 B156 B 0.28473 0.21453 0.71718
 B157 B 0.24044 0.77572 0.28005
 B158 B 0.24031 0.75082 0.24922
 B159 B 0.22636 0.78758 0.24444
 B160 B 0.25013 0.81227 0.26623
 B161 B 0.27970 0.79105 0.28394
 B162 B 0.27345 0.75263 0.27389
 B163 B 0.28939 0.78526 0.21982
 B164 B 0.28950 0.81098 0.25060
 B165 B 0.30378 0.77452 0.25591
 B166 B 0.27960 0.74918 0.23426
 B167 B 0.24987 0.77070 0.21648
 B168 B 0.25682 0.80910 0.22621
 B169 B 0.24871 0.71398 0.71577
 B170 B 0.25017 0.69845 0.75245
 B171 B 0.27693 0.72823 0.74256
 B172 B 0.25672 0.75288 0.71862
 B173 B 0.21663 0.73823 0.71446
 B174 B 0.21293 0.70419 0.73549
 B175 B 0.22658 0.75176 0.77734
 B176 B 0.22522 0.76717 0.74053
 B177 B 0.19851 0.73739 0.75092
 B178 B 0.21881 0.71264 0.77468
 B179 B 0.25851 0.72745 0.77885
 B180 B 0.26236 0.76142 0.75774
 B181 B 0.22417 0.28293 0.21297
 B182 B 0.22943 0.30326 0.24685
 B183 B 0.20535 0.27048 0.24842
 B184 B 0.22137 0.24451 0.22239
 B185 B 0.25746 0.26124 0.20662
 B186 B 0.26211 0.29827 0.22209
 B187 B 0.26629 0.25626 0.27047
 B188 B 0.25932 0.23591 0.23655
 B189 B 0.28428 0.26909 0.23653
 B190 B 0.26781 0.29542 0.26176
 B191 B 0.23307 0.27804 0.27733
 B192 B 0.22768 0.24130 0.26236
 B193 B 0.79014 0.74828 0.29306
 B194 B 0.78315 0.78296 0.27516
 B195 B 0.80685 0.75640 0.25650
 B196 B 0.79047 0.72003 0.26500
 B197 B 0.75574 0.72508 0.28806
 B198 B 0.75181 0.76438 0.29461
 B199 B 0.74489 0.75326 0.23089
 B200 B 0.75150 0.71886 0.24915
 B201 B 0.72785 0.74580 0.26770
 B202 B 0.74443 0.78170 0.25906
 B203 B 0.77862 0.77654 0.23596
 B204 B 0.78323 0.73731 0.22975
 B205 B 0.73476 0.25691 0.78700
 B206 B 0.74001 0.22153 0.76988
 B207 B 0.71912 0.24958 0.75020
 B208 B 0.73781 0.28461 0.75844
 B209 B 0.77041 0.27811 0.78251
 B210 B 0.77187 0.23880 0.78979
 B211 B 0.78248 0.24768 0.72624
 B212 B 0.77713 0.28320 0.74326
 B213 B 0.79805 0.25576 0.76306
 B214 B 0.77965 0.22031 0.75493
 B215 B 0.74636 0.22669 0.73108
 B216 B 0.74558 0.26597 0.72349
 C217 C 0.40591 1.04383 0.31551
 C218 C 0.42657 1.03999 0.34125
 C219 C 0.46071 1.03321 0.33674
 C220 C 0.47399 1.03195 0.30539
 C221 C 0.45326 1.03562 0.27861
 C222 C 0.41834 1.04032 0.28488
 C223 C 0.48075 1.02881 0.36380
 C224 C 0.46657 1.03082 0.39469
 C225 C 0.43237 1.03779 0.39804
 C226 C 0.41281 1.04236 0.37155
 C227 C 0.41774 1.04016 0.42794
 C228 C 0.43645 1.03552 0.45477
 C229 C 0.47045 1.02830 0.45298
 C230 C 0.48549 1.02604 0.42237
 H231 H 0.37950 1.04804 0.31913
 H232 H 0.50069 1.02978 0.30165
 H233 H 0.46894 1.04649 0.25266
 H234 H 0.50702 1.02373 0.36086
 H235 H 0.38653 1.04760 0.37455
 H236 H 0.39157 1.04578 0.43070
 H237 H 0.42354 1.03858 0.47661
 H238 H 0.51169 1.02053 0.42003
 C239 C -0.07335 0.50632 0.78942
 C240 C -0.06528 0.51291 0.82133
 C241 C -0.09141 0.51710 0.84367
 C242 C -0.12456 0.51651 0.83402
 C243 C -0.13202 0.51313 0.80226
 C244 C -0.10691 0.50802 0.77901
 C245 C -0.08424 0.52241 0.87547
 C246 C -0.05113 0.52524 0.88539
 C247 C -0.02454 0.52343 0.86330
 C248 C -0.03171 0.51646 0.83130
 C249 C 0.00851 0.52783 0.87403
 C250 C 0.01489 0.53199 0.90653
 C251 C -0.01165 0.53126 0.92892
 C252 C -0.04459 0.52855 0.91755
 H253 H -0.05330 0.50098 0.77319
 H254 H -0.14477 0.52020 0.85086
 H255 H -0.15786 0.51565 0.79580
 H256 H -0.10457 0.52460 0.89257
 H257 H -0.01139 0.51418 0.81427
 H258 H 0.02942 0.52694 0.85750
 H259 H 0.04067 0.53340 0.91425
 H260 H -0.06563 0.52627 0.93383
 C261 C 0.07072 -0.00053 0.80349
 C262 C 0.05771 -0.00145 0.83480
 C263 C 0.08011 -0.00038 0.86054
 C264 C 0.11442 0.00092 0.85517
 C265 C 0.12686 -0.00155 0.82470
 C266 C 0.10571 -0.00287 0.79788
 C267 C 0.06825 -0.00220 0.89157
 C268 C 0.03416 -0.00672 0.89767
 C269 C 0.01113 -0.00862 0.87259
 C270 C 0.02298 -0.00526 0.84107
 C271 C -0.02308 -0.01386 0.87983
 C272 C -0.03409 -0.01611 0.91158
 C273 C -0.01102 -0.01321 0.93657
 C274 C 0.02313 -0.00900 0.92893
 H275 H 0.05330 0.00014 0.78420
 H276 H 0.13180 0.00136 0.87477
 H277 H 0.15343 -0.00452 0.82281
 H278 H 0.08579 -0.00110 0.91108
 H279 H 0.00548 -0.00663 0.82160
 H280 H -0.04134 -0.01557 0.86104
 H281 H -0.06069 -0.01885 0.91653
 H282 H 0.04156 -0.00638 0.94750
 C283 C 0.62618 0.51489 0.27116
 C284 C 0.60713 0.51007 0.29871
 C285 C 0.58375 0.48473 0.30100
 C286 C 0.57819 0.46592 0.27408
 C287 C 0.59705 0.47125 0.24611
 C288 C 0.62259 0.49508 0.24448
 C289 C 0.56727 0.47850 0.33031
 C290 C 0.57378 0.49791 0.35688
 C291 C 0.59593 0.52424 0.35317
 C292 C 0.61251 0.52992 0.32449
 C293 C 0.60150 0.54488 0.37816
 C294 C 0.58575 0.53965 0.40703
 C295 C 0.56504 0.51266 0.41260
 C296 C 0.55870 0.49195 0.38697
 H297 H 0.64530 0.53327 0.27207
 H298 H 0.56003 0.44652 0.27493
 H299 H 0.59327 0.45539 0.22631
 H300 H 0.54985 0.45859 0.33250
 H301 H 0.63008 0.54978 0.32236
 H302 H 0.61794 0.56542 0.37535
 H303 H 0.59076 0.55703 0.42516
 H304 H 0.54186 0.47178 0.39026
 C305 C 0.60216 0.51023 0.17859
 C306 C 0.59178 0.51648 0.14761
 C307 C 0.61532 0.51586 0.12228
 C308 C 0.64908 0.51189 0.12831
 C309 C 0.65927 0.50622 0.15892
 C310 C 0.63584 0.50333 0.18433
 C311 C 0.60465 0.51768 0.09107
 C312 C 0.57065 0.51971 0.08472
 C313 C 0.54732 0.52356 0.10971
 C314 C 0.55807 0.52207 0.14122
 C315 C 0.51340 0.52663 0.10263
 C316 C 0.50249 0.52280 0.07144
 C317 C 0.52531 0.51534 0.04702
 C318 C 0.55953 0.51523 0.05387
 H319 H 0.58392 0.51030 0.19772
 H320 H 0.66750 0.51215 0.10922
 H321 H 0.68559 0.50231 0.16274
 H322 H 0.62259 0.51564 0.07169
 H323 H 0.54001 0.52344 0.16054
 H324 H 0.49513 0.53027 0.12134
 H325 H 0.47587 0.52343 0.06705
 H326 H 0.57757 0.50869 0.03595
 C327 C 0.10869 1.00241 0.70735
 C328 C 0.08649 1.00523 0.68228
 C329 C 0.05558 0.98838 0.68293
 C330 C 0.04717 0.96989 0.70947
 C331 C 0.06853 0.96946 0.73565
 C332 C 0.09876 0.98769 0.73618
 C333 C 0.03444 0.98946 0.65655
 C334 C 0.04385 1.00777 0.62999
 C335 C 0.07367 1.02644 0.63064
 C336 C 0.09503 1.02474 0.65657
 C337 C 0.08253 1.04532 0.60462
 C338 C 0.06432 1.04283 0.57665
 C339 C 0.03706 1.02129 0.57407
 C340 C 0.02530 1.00594 0.60194
 H341 H 0.13380 1.01205 0.70384
 H342 H 0.02398 0.95597 0.71012
 H343 H 0.06128 0.95482 0.75563
 H344 H 0.01130 0.97542 0.65629
 H345 H 0.11854 1.03827 0.65657
 H346 H 0.10499 1.06028 0.60504
 H347 H 0.07423 1.05523 0.55614
 H348 H 0.00371 0.98994 0.60122
 C349 C -0.09675 0.48331 0.69160
 C350 C -0.07140 0.47650 0.66983
 C351 C -0.04038 0.49311 0.67127
 C352 C -0.03524 0.51581 0.69489
 C353 C -0.06018 0.52112 0.71766
 C354 C -0.09071 0.50339 0.71794
 C355 C -0.01573 0.48780 0.64815
 C356 C -0.02217 0.46646 0.62340
 C357 C -0.05251 0.44856 0.62301
 C358 C -0.07696 0.45359 0.64635
 C359 C -0.05870 0.42749 0.59804
 C360 C -0.03760 0.42786 0.57134
 C361 C -0.01011 0.44927 0.56942
 C362 C -0.00028 0.46521 0.59738
 H363 H -0.12125 0.47252 0.68773
 H364 H -0.01193 0.52951 0.69578
 H365 H -0.05517 0.53901 0.73524
 H366 H 0.00766 0.50148 0.64845
 H367 H -0.10072 0.44053 0.64558
 H368 H -0.08144 0.41291 0.59778
 H369 H -0.04537 0.41422 0.55093
 H370 H 0.02201 0.48036 0.59757
 C371 C 0.40130 0.00872 0.20486
 C372 C 0.42112 -0.00622 0.18277
 C373 C 0.45620 -0.00099 0.18301
 C374 C 0.47131 0.01443 0.20922
 C375 C 0.45179 0.02630 0.23442
 C376 C 0.41603 0.02533 0.23001
 C377 C 0.47484 -0.00948 0.15597
 C378 C 0.45857 -0.02459 0.13031
 C379 C 0.42489 -0.03532 0.13376
 C380 C 0.40611 -0.02551 0.15975
 C381 C 0.40987 -0.05354 0.10985
 C382 C 0.42605 -0.05657 0.08062
 C383 C 0.45593 -0.03938 0.07440
 C384 C 0.47400 -0.02665 0.10036
 H385 H 0.37421 0.00639 0.20346
 H386 H 0.49820 0.01872 0.20945
 H387 H 0.50124 -0.00283 0.15416
 H388 H 0.37945 -0.03128 0.16108
 H389 H 0.38483 -0.06372 0.11302
 H390 H 0.41358 -0.06996 0.06221
 H391 H 0.49848 -0.01543 0.09670
 C392 C 0.29388 0.35980 -0.01249
 C393 C 0.32016 0.38252 -0.01001
 C394 C 0.31486 0.41373 -0.01906
 C395 C 0.28285 0.42234 -0.02744
 C396 C 0.25661 0.40010 -0.02840
 C397 C 0.26185 0.36778 -0.02342
 C398 C 0.34151 0.43600 -0.01933
 C399 C 0.37341 0.42772 -0.00960
 C400 C 0.37811 0.39717 0.00198
 C401 C 0.35168 0.37462 0.00126
 C402 C 0.40930 0.38966 0.01393
 C403 C 0.43613 0.41133 0.01226
 C404 C 0.43308 0.44032 -0.00319
 C405 C 0.40085 0.44921 -0.01198
 H406 H 0.29844 0.33568 -0.00652
 H407 H 0.27789 0.44650 -0.03286
 H408 H 0.23236 0.40924 -0.03288
 H409 H 0.33748 0.45965 -0.02735
 H410 H 0.35572 0.35095 0.00921
 H411 H 0.41312 0.36688 0.02424
 H412 H 0.45958 0.40470 0.02234
 H413 H 0.39745 0.47202 -0.02238
 C414 C -0.20102 0.89805 0.48179
 C415 C -0.17358 0.91773 0.49125
 C416 C -0.16417 0.91888 0.52350
 C417 C -0.18286 0.90188 0.54587
 C418 C -0.20977 0.88283 0.53656
 C419 C -0.21859 0.87887 0.50413
 C420 C -0.13586 0.93659 0.53312
 C421 C -0.11587 0.95269 0.51078
 C422 C -0.12585 0.95290 0.47868
 C423 C -0.15488 0.93583 0.46914
 C424 C -0.10565 0.96901 0.45646
 C425 C -0.07404 0.98095 0.46508
 C426 C -0.06171 0.97657 0.49596
 C427 C -0.08461 0.96618 0.51956
 H428 H -0.20845 0.89736 0.45716
 H429 H -0.17668 0.90327 0.57081
 H430 H -0.22376 0.87153 0.55563
 H431 H -0.12844 0.93650 0.55779
 H432 H -0.16195 0.93549 0.44438
 H433 H -0.11331 0.97069 0.43197
 H434 H -0.05849 0.99177 0.44676
 H435 H -0.07639 0.96434 0.54388
 C436 C -0.22303 0.13618 1.00948
 C437 C -0.19683 0.11637 1.00297
 C438 C -0.19734 0.09742 0.97561
 C439 C -0.22354 0.10070 0.95395
 C440 C -0.24973 0.12110 0.96057
 C441 C -0.25147 0.13711 0.98989
 C442 C -0.17156 0.07596 0.97063
 C443 C -0.14533 0.07390 0.99272
 C444 C -0.14474 0.09437 1.01914
 C445 C -0.17032 0.11522 1.02409
 C446 C -0.11854 0.09399 1.04054
 C447 C -0.09312 0.07320 1.03645
 C448 C -0.09333 0.05123 1.01136
 C449 C -0.11961 0.05207 0.98913
 H450 H -0.22090 0.15083 1.03036
 H451 H -0.22395 0.08737 0.93208
 H452 H -0.26954 0.12325 0.94346
 H453 H -0.17203 0.06092 0.94990
 H454 H -0.16982 0.13036 1.04481
 H455 H -0.11743 0.11012 1.06041
 H456 H -0.07258 0.07514 1.05288
 H457 H -0.11998 0.03609 0.96916
 C458 C 0.31750 0.61601 0.49146
 C459 C 0.34369 0.59620 0.48407
 C460 C 0.34526 0.58078 0.45453
 C461 C 0.31938 0.58529 0.43290
 C462 C 0.29283 0.60493 0.44059
 C463 C 0.29115 0.62061 0.47023
 C464 C 0.37292 0.56181 0.44727
 C465 C 0.39892 0.55847 0.46946
 C466 C 0.39599 0.57397 0.49904
 C467 C 0.36875 0.59230 0.50612
 C468 C 0.42096 0.57222 0.52126
 C469 C 0.44939 0.55624 0.51444
 C470 C 0.45409 0.53967 0.48555
 C471 C 0.42811 0.54092 0.46287
 H472 H 0.31873 0.62825 0.51381
 H473 H 0.31976 0.57389 0.40994
 H474 H 0.27347 0.60809 0.42322
 H475 H 0.37442 0.55024 0.42443
 H476 H 0.36739 0.60418 0.52887
 H477 H 0.41928 0.58452 0.54373
 H478 H 0.46867 0.55888 0.53202
 H479 H 0.43103 0.52939 0.44016
 C480 C 0.22237 0.59420 0.47804
 C481 C 0.19126 0.57976 0.48618
 C482 C 0.16582 0.59779 0.49981
 C483 C 0.17065 0.63018 0.50251
 C484 C 0.20083 0.64458 0.49282
 C485 C 0.22791 0.62695 0.48160
 C486 C 0.13572 0.58325 0.51019
 C487 C 0.12956 0.55125 0.50479
 C488 C 0.15376 0.53355 0.48886
 C489 C 0.18506 0.54759 0.48079
 C490 C 0.14573 0.50244 0.48047
 C491 C 0.11336 0.48981 0.48600
 C492 C 0.08896 0.50747 0.50160
 C493 C 0.09853 0.53728 0.51322
 H494 H 0.24200 0.57947 0.46961
 H495 H 0.15107 0.64446 0.51219
 H496 H 0.20373 0.66972 0.49551
 H497 H 0.11653 0.59710 0.52128
 H498 H 0.20406 0.53380 0.46938
 H499 H 0.16390 0.48842 0.46818
 H500 H 0.10731 0.46645 0.47739
 H501 H 0.08107 0.55089 0.52656
 C502 C 0.67934 0.10809 -0.00963
 C503 C 0.64812 0.09255 -0.00518
 C504 C 0.62054 0.10933 0.00607
 C505 C 0.62400 0.14162 0.01081
 C506 C 0.65491 0.15701 0.00583
 C507 C 0.68350 0.14067 -0.00397
 C508 C 0.59013 0.09348 0.01308
 C509 C 0.58645 0.06124 0.00754
 C510 C 0.61338 0.04461 -0.00530
 C511 C 0.64434 0.06022 -0.01091
 C512 C 0.60868 0.01272 -0.01250
 C513 C 0.57702 -0.00197 -0.00880
 C514 C 0.54972 0.01488 0.00284
 C515 C 0.55572 0.04567 0.01354
 H516 H 0.70038 0.09386 -0.01513
 H517 H 0.60302 0.15488 0.01928
 H518 H 0.65712 0.18174 0.01137
 H519 H 0.56915 0.10632 0.02233
 H520 H 0.66532 0.04733 -0.02003
 H521 H 0.62909 -0.00052 -0.02216
 H522 H 0.57369 -0.02611 -0.01624
 H523 H 0.53611 0.05820 0.02537
 C524 C 0.71210 0.90385 0.50673
 C525 C 0.68561 0.92340 0.49902
 C526 C 0.66625 0.91700 0.47177
 C527 C 0.67643 0.89422 0.45049
 C528 C 0.70458 0.87703 0.45670
 C529 C 0.72141 0.87932 0.48622
 C530 C 0.63738 0.93382 0.46589
 C531 C 0.62879 0.95852 0.48588
 C532 C 0.65064 0.96758 0.51069
 C533 C 0.67830 0.94946 0.51777
 C534 C 0.64409 0.99442 0.52826
 C535 C 0.61432 1.00983 0.52380
 C536 C 0.58924 0.99730 0.50380
 C537 C 0.59807 0.97342 0.48251
 H538 H 0.72556 0.90783 0.52861
 H539 H 0.66314 0.89022 0.42849
 H540 H 0.71243 0.86184 0.43779
 H541 H 0.62155 0.92756 0.44595
 H542 H 0.69400 0.95559 0.53783
 H543 H 0.66158 1.00312 0.54595
 H544 H 0.61052 1.03074 0.53727
 H545 H 0.58000 0.96447 0.46547
 C546 C 0.17246 0.35855 0.98578
 C547 C 0.14795 0.38091 0.98237
 C548 C 0.14828 0.40054 0.95553
 C549 C 0.17156 0.39526 0.93110
 C550 C 0.19673 0.37355 0.93524
 C551 C 0.19978 0.35746 0.96435
 C552 C 0.12606 0.42548 0.95417
 C553 C 0.10384 0.43096 0.97963
 C554 C 0.10275 0.40999 1.00553
 C555 C 0.12443 0.38507 1.00660
 C556 C 0.08004 0.41417 1.03028
 C557 C 0.05850 0.43888 1.02971
 C558 C 0.05961 0.46118 1.00509
 C559 C 0.08250 0.45673 0.97975
 H560 H 0.17085 0.34361 1.00634
 H561 H 0.17162 0.40920 0.90969
 H562 H 0.21606 0.37193 0.91715
 H563 H 0.12671 0.44098 0.93385
 H564 H 0.12389 0.36964 1.02701
 H565 H 0.07833 0.39784 1.04990
 H566 H 0.04001 0.43929 1.04839
 H567 H 0.08301 0.47260 0.95975
 C568 C -0.01398 0.27053 0.42595
 C569 C -0.01116 0.30256 0.43584
 C570 C -0.01089 0.32647 0.41270
 C571 C -0.01253 0.31877 0.38075
 C572 C -0.01386 0.28779 0.37127
 C573 C -0.01397 0.26255 0.39307
 C574 C -0.00895 0.35807 0.42145
 C575 C -0.00595 0.36683 0.45322
 C576 C -0.00505 0.34363 0.47685
 C577 C -0.00836 0.31150 0.46815
 C578 C -0.00010 0.35325 0.50848
 C579 C 0.00385 0.38529 0.51629
 C580 C 0.00146 0.40863 0.49295
 C581 C -0.00311 0.39868 0.46131
 H582 H -0.01715 0.25267 0.44380
 H583 H -0.01243 0.33687 0.36278
 H584 H -0.01467 0.28355 0.34600
 H585 H -0.00919 0.37600 0.40329
 H586 H -0.00800 0.29363 0.48631
 H587 H 0.00144 0.33598 0.52711
 H588 H 0.00913 0.39165 0.54059
 H589 H -0.00392 0.41574 0.44242
 C590 C 0.48845 -0.21993 -0.06593
 C591 C 0.47862 -0.19483 -0.04654
 C592 C 0.44541 -0.18456 -0.04793
 C593 C 0.42235 -0.20024 -0.06748
 C594 C 0.43243 -0.22449 -0.08717
 C595 C 0.46616 -0.23386 -0.08820
 C596 C 0.43603 -0.15797 -0.03084
 C597 C 0.45996 -0.14041 -0.01365
 C598 C 0.49284 -0.15122 -0.01117
 C599 C 0.50181 -0.17878 -0.02701
 C600 C 0.51667 -0.13320 0.00559
 C601 C 0.50916 -0.10318 0.01620
 C602 C 0.47744 -0.09057 0.01069
 C603 C 0.45223 -0.11089 -0.00132
 H604 H 0.51407 -0.22748 -0.06510
 H605 H 0.39656 -0.19314 -0.06828
 H606 H 0.41325 -0.23540 -0.10171
 H607 H 0.41071 -0.14975 -0.03273
 H608 H 0.52733 -0.18658 -0.02571
 H609 H 0.54189 -0.14131 0.00842
 H610 H 0.52935 -0.08901 0.02628
 H611 H 0.42722 -0.10318 -0.00345
 C612 C -0.00018 -0.19808 1.05873
 C613 C -0.01265 -0.16876 1.05009
 C614 C -0.01713 -0.14605 1.07400
 C615 C -0.00411 -0.15039 1.10416
 C616 C 0.01015 -0.17846 1.11188
 C617 C 0.00847 -0.20418 1.09079
 C618 C -0.03401 -0.11893 1.06739
 C619 C -0.04258 -0.11194 1.03627
 C620 C -0.03419 -0.13203 1.01118
 C621 C -0.02093 -0.16145 1.01838
 C622 C -0.03820 -0.12130 0.97980
 C623 C -0.04569 -0.08964 0.97412
 C624 C -0.05077 -0.06917 0.99981
 C625 C -0.05573 -0.08304 1.02990
 H626 H 0.00178 -0.21598 1.04071
 H627 H -0.00563 -0.13229 1.12211
 H628 H 0.01862 -0.18135 1.13596
 H629 H -0.03851 -0.10220 1.08625
 H630 H -0.01590 -0.17792 0.99948
 H631 H -0.03250 -0.13633 0.95989
 H632 H -0.04460 -0.08072 0.95012
 H633 H -0.06394 -0.06933 1.05000
 C634 C 0.54276 0.31875 0.54832
 C635 C 0.53538 0.34106 0.52456
 C636 C 0.50154 0.34745 0.51831
 C637 C 0.47597 0.32944 0.53265
 C638 C 0.48339 0.30681 0.55477
 C639 C 0.51650 0.30290 0.56557
 C640 C 0.49345 0.37205 0.49818
 C641 C 0.51875 0.39040 0.48350
 C642 C 0.55246 0.38206 0.48636
 C643 C 0.56077 0.35757 0.50716
 C644 C 0.57705 0.39936 0.46917
 C645 C 0.56885 0.42733 0.45397
 C646 C 0.53679 0.43961 0.45794
 C647 C 0.51099 0.41848 0.46831
 H648 H 0.56860 0.31413 0.55363
 H649 H 0.44997 0.33294 0.52688
 H650 H 0.46248 0.29297 0.56433
 H651 H 0.46743 0.37778 0.49506
 H652 H 0.58683 0.35224 0.51064
 H653 H 0.60288 0.39238 0.46904
 H654 H 0.58855 0.44093 0.44227
 H655 H 0.48526 0.42579 0.46902
 C656 C 0.50231 1.22975 0.55957
 C657 C 0.50923 1.20150 0.54349
 C658 C 0.54230 1.19068 0.54337
 C659 C 0.56835 1.20968 0.55518
 C660 C 0.56164 1.23827 0.56910
 C661 C 0.52838 1.24762 0.57444
 C662 C 0.54895 1.16080 0.53189
 C663 C 0.52312 1.14169 0.51955
 C664 C 0.49111 1.15373 0.51534
 C665 C 0.48400 1.18353 0.52786
 C666 C 0.46679 1.13505 0.49968
 C667 C 0.47246 1.10331 0.49327
 C668 C 0.50209 1.08958 0.50331
 C669 C 0.52854 1.11013 0.51313
 H670 H 0.47680 1.23750 0.56089
 H671 H 0.59407 1.20243 0.55363
 H672 H 0.58294 1.25266 0.57658
 H673 H 0.57403 1.15197 0.53368
 H674 H 0.45885 1.19217 0.52636
 H675 H 0.44283 1.14453 0.49383
 H676 H 0.45234 1.08918 0.48330
 H677 H 0.55302 1.10149 0.51833
 C678 C 0.03454 0.71661 1.06764
 C679 C 0.02567 0.69053 1.04849
 C680 C -0.00855 0.68367 1.04244
 C681 C -0.03271 0.70483 1.05131
 C682 C -0.02358 0.73151 1.06832
 C683 C 0.00968 0.73707 1.07871
 C684 C -0.01838 0.65512 1.02876
 C685 C 0.00566 0.63394 1.01927
 C686 C 0.03998 0.64242 1.02065
 C687 C 0.05000 0.67043 1.03618
 C688 C 0.06333 0.62180 1.00797
 C689 C 0.05264 0.59237 0.99611
 C690 C 0.01863 0.58226 0.99832
 C691 C -0.00436 0.60371 1.01021
 H692 H 0.06032 0.71965 1.07477
 H693 H -0.05891 0.70034 1.04587
 H694 H -0.04325 0.74697 1.07548
 H695 H -0.04484 0.64902 1.02620
 H696 H 0.07642 0.67612 1.03939
 H697 H 0.08987 0.62798 1.00812
 H698 H 0.07146 0.57657 0.98778
 H699 H -0.02977 0.59655 1.01579
 C700 C 0.47546 0.69859 -0.06738
 C701 C 0.48550 0.66938 -0.05584
 C702 C 0.51530 0.65667 -0.06785
 C703 C 0.53652 0.67464 -0.08752
 C704 C 0.52647 0.70330 -0.09876
 C705 C 0.49401 0.71413 -0.09199
 C706 C 0.52295 0.62579 -0.06107
 C707 C 0.50160 0.60741 -0.04174
 C708 C 0.47382 0.62073 -0.02662
 C709 C 0.46553 0.65169 -0.03411
 C710 C 0.45441 0.60233 -0.00524
 C711 C 0.46210 0.57095 0.00029
 C712 C 0.48856 0.55704 -0.01633
 C713 C 0.50742 0.57562 -0.03800
 H714 H 0.45150 0.70743 -0.05991
 H715 H 0.56043 0.66594 -0.09535
 H716 H 0.54410 0.71581 -0.11405
 H717 H 0.54508 0.61575 -0.07161
 H718 H 0.44314 0.66153 -0.02396
 H719 H 0.43313 0.61208 0.00695
 H720 H 0.44649 0.55731 0.01663
 H721 H 0.52680 0.56537 -0.05241
 C722 C 0.00585 1.19426 0.42502
 C723 C 0.01261 1.16372 0.43630
 C724 C 0.00707 1.13777 0.41595
 C725 C -0.01043 1.14121 0.38808
 C726 C -0.02144 1.17022 0.37961
 C727 C -0.01153 1.19798 0.39601
 C728 C 0.01729 1.10812 0.42439
 C729 C 0.02757 1.10239 0.45520
 C730 C 0.02828 1.12677 0.47771
 C731 C 0.02344 1.15795 0.46757
 C732 C 0.03114 1.11883 0.50991
 C733 C 0.03126 1.08714 0.51925
 C734 C 0.03310 1.06290 0.49653
 C735 C 0.03314 1.07164 0.46431
 H736 H 0.01486 1.21419 0.43847
 H737 H -0.01674 1.12117 0.37323
 H738 H -0.03661 1.17089 0.35863
 H739 H 0.01430 1.08882 0.40775
 H740 H 0.02553 1.17709 0.48440
 H741 H 0.03019 1.13685 0.52797
 H742 H 0.02816 1.08187 0.54411
 H743 H 0.03339 1.05396 0.44588
 C744 C 0.74645 0.65850 0.94650
 C745 C 0.74772 0.67342 0.91691
 C746 C 0.75078 0.70633 0.91505
 C747 C 0.75170 0.72372 0.94332
 C748 C 0.74934 0.70870 0.97291
 C749 C 0.74744 0.67563 0.97517
 C750 C 0.75170 0.72112 0.88504
 C751 C 0.74778 0.70328 0.85703
 C752 C 0.74362 0.67039 0.85961
 C753 C 0.74469 0.65570 0.88918
 C754 C 0.73619 0.65253 0.83284
 C755 C 0.73177 0.66692 0.80387
 C756 C 0.73798 0.69937 0.79949
 C757 C 0.74606 0.71754 0.82670
 H758 H 0.74431 0.63318 0.94731
 H759 H 0.75333 0.74906 0.94258
 H760 H 0.74847 0.72335 0.99377
 H761 H 0.75411 0.74641 0.88360
 H762 H 0.74158 0.63043 0.89070
 H763 H 0.73153 0.62747 0.83469
 H764 H 0.72170 0.65214 0.78534
 H765 H 0.74889 0.74275 0.82465
 C766 C 0.28359 0.17226 0.43788
 C767 C 0.28226 0.19261 0.41166
 C768 C 0.26198 0.21904 0.41339
 C769 C 0.24256 0.22422 0.44045
 C770 C 0.24309 0.20354 0.46575
 C771 C 0.26470 0.17793 0.46587
 C772 C 0.25999 0.23921 0.38747
 C773 C 0.27642 0.23243 0.35895
 C774 C 0.29632 0.20588 0.35671
 C775 C 0.29986 0.18648 0.38333
 C776 C 0.31117 0.19862 0.32748
 C777 C 0.30412 0.21599 0.30039
 C778 C 0.28295 0.24168 0.30185
 C779 C 0.27113 0.25074 0.33208
 H780 H 0.29848 0.15161 0.43612
 H781 H 0.22609 0.24383 0.44171
 H782 H 0.22620 0.20767 0.48545
 H783 H 0.24418 0.25933 0.38899
 H784 H 0.31511 0.16603 0.38160
 H785 H 0.32695 0.17859 0.32520
 H786 H 0.31507 0.20877 0.27839
 H787 H 0.25549 0.27078 0.33472
 C788 C 0.71090 0.31197 0.46806
 C789 C 0.70413 0.28931 0.44450
 C790 C 0.72663 0.26487 0.43951
 C791 C 0.75474 0.26268 0.45850
 C792 C 0.76171 0.28543 0.48113
 C793 C 0.74070 0.31116 0.48582
 C794 C 0.72195 0.24395 0.41438
 C795 C 0.69642 0.24843 0.39270
 C796 C 0.67281 0.27170 0.39824
 C797 C 0.67616 0.29148 0.42476
 C798 C 0.64798 0.27627 0.37571
 C799 C 0.65000 0.26159 0.34609
 C800 C 0.67666 0.24211 0.33864
 C801 C 0.69687 0.23255 0.36375
 H802 H 0.69319 0.33018 0.47184
 H803 H 0.77207 0.24395 0.45511
 H804 H 0.78436 0.28344 0.49478
 H805 H 0.74001 0.22596 0.41009
 H806 H 0.65864 0.31000 0.42852
 H807 H 0.62883 0.29323 0.37983
 H808 H 0.63239 0.26788 0.32860
 H809 H 0.71633 0.21592 0.35972
 C810 C 0.19959 0.83272 0.94676
 C811 C 0.19865 0.81419 0.91943
 C812 C 0.19505 0.78138 0.92187
 C813 C 0.19419 0.76775 0.95202
 C814 C 0.19927 0.78624 0.97918
 C815 C 0.20211 0.81938 0.97732
 C816 C 0.19497 0.76281 0.89419
 C817 C 0.20262 0.77659 0.86460
 C818 C 0.20914 0.80929 0.86307
 C819 C 0.20484 0.82801 0.88990
 C820 C 0.22257 0.82261 0.83546
 C821 C 0.22965 0.80381 0.80960
 C822 C 0.21923 0.77193 0.80876
 C823 C 0.20614 0.75825 0.83690
 H824 H 0.20205 0.85794 0.94420
 H825 H 0.19227 0.74253 0.95448
 H826 H 0.20229 0.77363 1.00087
 H827 H 0.19155 0.73760 0.89598
 H828 H 0.20933 0.85314 0.88828
 H829 H 0.22943 0.84734 0.83444
 H830 H 0.24291 0.81481 0.78989
 H831 H 0.20029 0.73334 0.83773
 C832 C 0.25645 0.82942 0.04912
 C833 C 0.26608 0.81359 0.07628
 C834 C 0.24532 0.78911 0.08849
 C835 C 0.21319 0.78398 0.07596
 C836 C 0.20229 0.80246 0.05095
 C837 C 0.22462 0.82356 0.03506
 C838 C 0.25621 0.77181 0.11442
 C839 C 0.28466 0.78227 0.13131
 C840 C 0.30262 0.80954 0.12159
 C841 C 0.29511 0.82341 0.09261
 C842 C 0.32497 0.82428 0.14269
 C843 C 0.32499 0.81495 0.17452
 C844 C 0.30660 0.78799 0.18466
 C845 C 0.29193 0.76895 0.16054
 H846 H 0.27393 0.84713 0.04015
 H847 H 0.19603 0.76656 0.08629
 H848 H 0.17675 0.79914 0.04286
 H849 H 0.24071 0.75240 0.12342
 H850 H 0.30977 0.84372 0.08447
 H851 H 0.33864 0.84560 0.13588
 H852 H 0.33715 0.83061 0.19074
 H853 H 0.27919 0.74693 0.16653
 C854 C 0.78373 0.31026 0.55906
 C855 C 0.78448 0.28843 0.58415
 C856 C 0.75539 0.26973 0.59107
 C857 C 0.72639 0.27282 0.57355
 C858 C 0.72554 0.29473 0.54962
 C859 C 0.75381 0.31420 0.54178
 C860 C 0.75480 0.24914 0.61651
 C861 C 0.78181 0.24872 0.63708
 C862 C 0.81157 0.26617 0.63035
 C863 C 0.81321 0.28537 0.60312
 C864 C 0.83798 0.26499 0.65218
 C865 C 0.83206 0.25182 0.68249
 C866 C 0.79943 0.24187 0.69141
 C867 C 0.77735 0.23438 0.66640
 H868 H 0.80635 0.32370 0.55324
 H869 H 0.70398 0.25863 0.57874
 H870 H 0.70239 0.29646 0.53665
 H871 H 0.73200 0.23555 0.62201
 H872 H 0.83577 0.29938 0.59802
 H873 H 0.86221 0.27597 0.64676
 H874 H 0.85226 0.25121 0.69930
 H875 H 0.75345 0.22243 0.67089
 C876 C 0.23348 0.17511 0.54781
 C877 C 0.23330 0.19607 0.57407
 C878 C 0.26008 0.21831 0.57735
 C879 C 0.28411 0.22188 0.55374
 C880 C 0.28334 0.20237 0.52779
 C881 C 0.26008 0.17669 0.52488
 C882 C 0.26317 0.23663 0.60445
 C883 C 0.24009 0.23291 0.62909
 C884 C 0.21088 0.21402 0.62515
 C885 C 0.20750 0.19537 0.59745
 C886 C 0.18695 0.21341 0.64994
 C887 C 0.19543 0.22608 0.67993
 C888 C 0.22854 0.23707 0.68563
 C889 C 0.24798 0.24532 0.65869
 H890 H 0.21282 0.15839 0.54548
 H891 H 0.30350 0.24022 0.55505
 H892 H 0.30046 0.20917 0.50914
 H893 H 0.28493 0.25231 0.60724
 H894 H 0.18597 0.17946 0.59490
 H895 H 0.16296 0.20121 0.64701
 H896 H 0.17734 0.22407 0.69878
 H897 H 0.27192 0.25772 0.66085
 C898 C 0.72358 0.68342 0.06092
 C899 C 0.72914 0.70450 0.08633
 C900 C 0.76093 0.71955 0.08947
 C901 C 0.78571 0.71507 0.06635
 C902 C 0.77930 0.69575 0.04027
 C903 C 0.74815 0.67954 0.03654
 C904 C 0.76798 0.73794 0.11628
 C905 C 0.74352 0.74178 0.13998
 C906 C 0.71073 0.72950 0.13573
 C907 C 0.70370 0.71052 0.10899
 C908 C 0.68620 0.73579 0.15901
 C909 C 0.69546 0.74979 0.18811
 C910 C 0.72951 0.75503 0.19512
 C911 C 0.75227 0.75547 0.16901
 H912 H 0.70035 0.66983 0.06117
 H913 H 0.81021 0.72657 0.06842
 H914 H 0.79907 0.69329 0.02275
 H915 H 0.79300 0.74813 0.11938
 H916 H 0.67886 0.69987 0.10624
 H917 H 0.66029 0.72840 0.15545
 H918 H 0.67646 0.75323 0.20618
 H919 H 0.77823 0.76296 0.17213
 C920 C 0.13937 0.58487 0.24934
 C921 C 0.16099 0.61148 0.25097
 C922 C 0.19527 0.60817 0.25795
 C923 C 0.20820 0.57840 0.25905
 C924 C 0.18724 0.55225 0.25440
 C925 C 0.15192 0.55469 0.25272
 C926 C 0.21652 0.63463 0.26182
 C927 C 0.20484 0.66434 0.25534
 C928 C 0.17156 0.66727 0.24485
 C929 C 0.14934 0.64119 0.24437
 C930 C 0.16165 0.69586 0.23321
 C931 C 0.18425 0.72127 0.23240
 C932 C 0.21601 0.72013 0.24658
 C933 C 0.22633 0.69099 0.25753
 H934 H 0.11287 0.58748 0.24514
 H935 H 0.23482 0.57536 0.26208
 H936 H 0.19933 0.53016 0.25211
 H937 H 0.24252 0.63195 0.26819
 H938 H 0.12353 0.64379 0.23731
 H939 H 0.13694 0.69823 0.22326
 H940 H 0.17628 0.74134 0.22010
 H941 H 0.25134 0.68875 0.26682
 C942 C 0.65374 0.05204 0.77199
 C943 C 0.67511 0.07818 0.77454
 C944 C 0.70986 0.07547 0.76991
 C945 C 0.72261 0.04558 0.76485
 C946 C 0.70111 0.01879 0.76551
 C947 C 0.66609 0.02160 0.76926
 C948 C 0.73086 0.10267 0.77075
 C949 C 0.71720 0.13196 0.77773
 C950 C 0.68272 0.13339 0.78529
 C951 C 0.66186 0.10680 0.78290
 C952 C 0.66905 0.16171 0.79381
 C953 C 0.68840 0.18911 0.79184
 C954 C 0.72187 0.18923 0.78130
 C955 C 0.73673 0.16002 0.77599
 H956 H 0.62695 0.05505 0.77441
 H957 H 0.74931 0.04281 0.76161
 H958 H 0.71225 -0.00378 0.76356
 H959 H 0.75747 0.10110 0.76588
 H960 H 0.63517 0.10839 0.78758
 H961 H 0.64265 0.16303 0.79981
 H962 H 0.67515 0.21017 0.79400
 H963 H 0.76267 0.15906 0.76842
 C964 C 0.85742 0.06705 0.26996
 C965 C 0.83234 0.08856 0.27362
 C966 C 0.80848 0.08539 0.29846
 C967 C 0.81176 0.06134 0.32064
 C968 C 0.83668 0.03935 0.31644
 C969 C 0.85832 0.04078 0.28970
 C970 C 0.78163 0.10590 0.30009
 C971 C 0.77889 0.12952 0.27717
 C972 C 0.80388 0.13276 0.25322
 C973 C 0.83016 0.11239 0.25154
 C974 C 0.80313 0.15701 0.23161
 C975 C 0.77853 0.17868 0.23404
 C976 C 0.75215 0.17579 0.25655
 C977 C 0.75252 0.15066 0.27817
 H978 H 0.87476 0.07003 0.25022
 H979 H 0.79424 0.05871 0.34032
 H980 H 0.83727 0.01976 0.33259
 H981 H 0.76301 0.10342 0.31891
 H982 H 0.84885 0.11493 0.23273
 H983 H 0.82278 0.16036 0.21386
 H984 H 0.78242 0.19889 0.21931
 H985 H 0.73367 0.14869 0.29682
 C986 C 0.34450 0.53562 0.74990
 C987 C 0.32871 0.56434 0.74648
 C988 C 0.33722 0.58353 0.72016
 C989 C 0.35959 0.57343 0.69709
 C990 C 0.37438 0.54480 0.70014
 C991 C 0.36788 0.52551 0.72689
 C992 C 0.32346 0.61278 0.71713
 C993 C 0.30042 0.62304 0.73955
 C994 C 0.29015 0.60378 0.76515
 C995 C 0.30477 0.57446 0.76879
 C996 C 0.26585 0.61459 0.78658
 C997 C 0.25220 0.64421 0.78249
 C998 C 0.26316 0.66368 0.75729
 C999 C 0.28780 0.65269 0.73646
 H1000 H 0.33870 0.52110 0.77038
 H1001 H 0.36585 0.58781 0.67659
 H1002 H 0.39146 0.53856 0.68134
 H1003 H 0.33066 0.62762 0.69716
 H1004 H 0.29764 0.55971 0.78879
 H1005 H 0.25744 0.60021 0.80642
 H1006 H 0.23360 0.65202 0.79933
 H1007 H 0.29834 0.66765 0.71802
 C1008 C 0.37750 0.43619 0.73870
 C1009 C 0.35726 0.40920 0.74330
 C1010 C 0.32238 0.41000 0.73849
 C1011 C 0.30848 0.43811 0.72893
 C1012 C 0.32875 0.46535 0.72542
 C1013 C 0.36349 0.46508 0.73141
 C1014 C 0.30219 0.38267 0.74322
 C1015 C 0.31669 0.35464 0.75263
 C1016 C 0.35160 0.35443 0.75777
 C1017 C 0.37157 0.38156 0.75317
 C1018 C 0.36644 0.32670 0.76611
 C1019 C 0.34741 0.29897 0.76760
 C1020 C 0.31270 0.29790 0.76223
 C1021 C 0.29732 0.32651 0.75562
 H1022 H 0.40427 0.43522 0.74250
 H1023 H 0.28184 0.43918 0.72461
 H1024 H 0.31689 0.48653 0.71830
 H1025 H 0.27543 0.38312 0.73916
 H1026 H 0.39840 0.38105 0.75695
 H1027 H 0.39330 0.32599 0.76942
 H1028 H 0.36110 0.27809 0.76937
 H1029 H 0.27075 0.32678 0.75084
 C1030 C 0.86778 0.95307 0.27885
 C1031 C 0.84641 0.92672 0.28099
 C1032 C 0.81179 0.92896 0.27532
 C1033 C 0.79907 0.95833 0.26885
 C1034 C 0.82021 0.98511 0.26984
 C1035 C 0.85479 0.98299 0.27658
 C1036 C 0.79084 0.90177 0.27609
 C1037 C 0.80423 0.87280 0.28377
 C1038 C 0.83847 0.87177 0.29194
 C1039 C 0.85936 0.89837 0.28985
 C1040 C 0.85215 0.84373 0.30029
 C1041 C 0.83331 0.81631 0.29738
 C1042 C 0.79987 0.81566 0.28725
 C1043 C 0.78484 0.84461 0.28192
 H1044 H 0.89454 0.95042 0.28114
 H1045 H 0.77272 0.96073 0.26387
 H1046 H 0.80935 1.00746 0.26521
 H1047 H 0.76449 0.90313 0.27047
 H1048 H 0.88584 0.89699 0.29511
 H1049 H 0.87845 0.84255 0.30618
 H1050 H 0.84746 0.79583 0.29760
 H1051 H 0.75916 0.84515 0.27396
 C1052 C 0.67238 0.94680 0.75481
 C1053 C 0.68023 0.91522 0.75705
 C1054 C 0.67518 0.89908 0.78600
 C1055 C 0.66337 0.91495 0.81243
 C1056 C 0.65400 0.94579 0.80970
 C1057 C 0.65738 0.96230 0.78054
 C1058 C 0.68019 0.86693 0.78770
 C1059 C 0.68897 0.85043 0.76042
 C1060 C 0.69478 0.86671 0.73161
 C1061 C 0.69095 0.89905 0.73019
 C1062 C 0.70404 0.85032 0.70452
 C1063 C 0.70645 0.81806 0.70568
 C1064 C 0.69840 0.80104 0.73362
 C1065 C 0.69137 0.81783 0.76137
 H1066 H 0.67527 0.95867 0.73219
 H1067 H 0.65941 0.90296 0.83485
 H1068 H 0.64246 0.95537 0.83059
 H1069 H 0.67576 0.85455 0.80987
 H1070 H 0.69492 0.91134 0.70792
 H1071 H 0.70960 0.86244 0.68244
 H1072 H 0.71549 0.80674 0.68450
 H1073 H 0.68764 0.80562 0.78370
 C1074 C 0.14064 0.46770 0.24445
 C1075 C 0.15810 0.44133 0.25215
 C1076 C 0.18284 0.44242 0.27582
 C1077 C 0.18588 0.46927 0.29475
 C1078 C 0.16611 0.49497 0.28852
 C1079 C 0.14617 0.49578 0.26086
 C1080 C 0.20315 0.41641 0.28024
 C1081 C 0.19667 0.38877 0.26281
 C1082 C 0.16842 0.38741 0.24267
 C1083 C 0.15042 0.41370 0.23649
 C1084 C 0.15793 0.35970 0.22885
 C1085 C 0.17629 0.33370 0.23287
 C1086 C 0.20770 0.33466 0.24866
 C1087 C 0.21710 0.36236 0.26498
 H1088 H 0.12235 0.46597 0.22570
 H1089 H 0.20315 0.47030 0.31440
 H1090 H 0.16825 0.51519 0.30397
 H1091 H 0.22333 0.41755 0.29723
 H1092 H 0.13004 0.41254 0.21961
 H1093 H 0.13546 0.35804 0.21460
 H1094 H 0.16622 0.31306 0.22109
 H1095 H 0.23974 0.36337 0.27892
 C1096 C 0.05930 0.23193 0.85730
 C1097 C 0.09192 0.23301 0.84417
 C1098 C 0.11828 0.24806 0.86088
 C1099 C 0.11229 0.25883 0.89179
 C1100 C 0.08009 0.25629 0.90533
 C1101 C 0.05236 0.24432 0.88793
 C1102 C 0.15001 0.25230 0.84626
 C1103 C 0.15614 0.24002 0.81578
 C1104 C 0.13067 0.22227 0.80050
 C1105 C 0.09845 0.21966 0.81427
 C1106 C 0.13814 0.20682 0.77208
 C1107 C 0.17042 0.20919 0.75875
 C1108 C 0.19539 0.22933 0.77157
 C1109 C 0.18762 0.24447 0.80072
 H1110 H 0.03968 0.22234 0.84253
 H1111 H 0.13243 0.26971 0.90538
 H1112 H 0.07640 0.26554 0.92899
 H1113 H 0.16994 0.26491 0.85867
 H1114 H 0.07855 0.20698 0.80187
 H1115 H 0.11937 0.19182 0.76077
 H1116 H 0.17565 0.19437 0.73891
 H1117 H 0.20626 0.25898 0.81271
 C1118 C 0.56075 0.75033 0.37589
 C1119 C 0.58817 0.75442 0.35463
 C1120 C 0.59965 0.78486 0.34602
 C1121 C 0.58386 0.81068 0.35918
 C1122 C 0.55665 0.80648 0.38012
 C1123 C 0.54459 0.77634 0.38935
 C1124 C 0.62645 0.78902 0.32415
 C1125 C 0.64263 0.76303 0.31132
 C1126 C 0.63145 0.73264 0.32046
 C1127 C 0.60405 0.72848 0.34152
 C1128 C 0.64882 0.70682 0.30956
 C1129 C 0.67793 0.71098 0.29122
 C1130 C 0.68955 0.74095 0.28102
 C1131 C 0.67084 0.76693 0.29085
 H1132 H 0.55129 0.72679 0.38069
 H1133 H 0.59205 0.83425 0.35270
 H1134 H 0.54414 0.82710 0.38830
 H1135 H 0.63508 0.81247 0.31760
 H1136 H 0.59557 0.70503 0.34826
 H1137 H 0.64110 0.68338 0.31692
 H1138 H 0.69239 0.69050 0.28688
 H1139 H 0.67971 0.79040 0.28476
 C1140 C 0.52927 0.24751 0.14943
 C1141 C 0.54772 0.23639 0.17454
 C1142 C 0.56073 0.20620 0.17307
 C1143 C 0.55338 0.18709 0.14685
 C1144 C 0.53296 0.19772 0.12260
 C1145 C 0.51982 0.22809 0.12366
 C1146 C 0.58177 0.19626 0.19727
 C1147 C 0.59012 0.21662 0.22242
 C1148 C 0.57494 0.24590 0.22467
 C1149 C 0.55356 0.25547 0.20094
 C1150 C 0.58365 0.26645 0.24911
 C1151 C 0.61106 0.26052 0.26786
 C1152 C 0.62960 0.23337 0.26338
 C1153 C 0.61603 0.20977 0.24326
 H1154 H 0.52093 0.27139 0.15038
 H1155 H 0.56329 0.16386 0.14513
 H1156 H 0.52785 0.18187 0.10317
 H1157 H 0.59309 0.17361 0.19556
 H1158 H 0.54290 0.27846 0.20221
 H1159 H 0.57171 0.28874 0.25150
 H1160 H 0.61937 0.27943 0.28276
 H1161 H 0.62879 0.18799 0.24013
 C1162 C 0.02402 0.72639 0.67424
 C1163 C 0.04843 0.73714 0.69559
 C1164 C 0.06095 0.76825 0.69338
 C1165 C 0.04386 0.78971 0.67534
 C1166 C 0.01728 0.77938 0.65646
 C1167 C 0.00990 0.74693 0.65207
 C1168 C 0.09129 0.77669 0.70776
 C1169 C 0.10792 0.75458 0.72565
 C1170 C 0.09174 0.72577 0.73337
 C1171 C 0.06224 0.71676 0.71762
 C1172 C 0.10709 0.70548 0.75431
 C1173 C 0.13981 0.71216 0.76442
 C1174 C 0.15843 0.73807 0.75195
 C1175 C 0.14157 0.75951 0.73314
 H1176 H 0.01812 0.70184 0.67486
 H1177 H 0.05165 0.81423 0.67505
 H1178 H 0.00465 0.79681 0.64289
 H1179 H 0.10283 0.79968 0.70354
 H1180 H 0.05139 0.69337 0.72091
 H1181 H 0.09459 0.68369 0.76143
 H1182 H 0.15160 0.69501 0.77904
 H1183 H 0.15499 0.77800 0.72067
 C1184 C 0.93865 0.74142 0.66400
 C1185 C 0.90520 0.73448 0.67295
 C1186 C 0.88251 0.72252 0.65012
 C1187 C 0.89320 0.71838 0.61877
 C1188 C 0.92648 0.72480 0.61018
 C1189 C 0.95012 0.73586 0.63258
 C1190 C 0.84945 0.71464 0.65896
 C1191 C 0.83843 0.71922 0.69021
 C1192 C 0.86072 0.73144 0.71319
 C1193 C 0.89420 0.73871 0.70449
 C1194 C 0.84876 0.73688 0.74414
 C1195 C 0.81460 0.73218 0.75155
 C1196 C 0.79205 0.72120 0.72835
 C1197 C 0.80484 0.71316 0.69823
 H1198 H 0.95571 0.74979 0.68212
 H1199 H 0.87600 0.70935 0.60098
 H1200 H 0.93429 0.71995 0.58603
 H1201 H 0.83210 0.70547 0.64133
 H1202 H 0.91150 0.74798 0.72209
 H1203 H 0.86552 0.74608 0.76219
 H1204 H 0.80563 0.73839 0.77499
 H1205 H 0.78838 0.70396 0.67996
 C1206 C 0.45700 0.25218 0.14715
 C1207 C 0.42815 0.26383 0.16102
 C1208 C 0.40549 0.27979 0.14216
 C1209 C 0.41364 0.28625 0.11051
 C1210 C 0.44330 0.27563 0.09712
 C1211 C 0.46598 0.25811 0.11489
 C1212 C 0.37411 0.28699 0.15463
 C1213 C 0.36550 0.27845 0.18581
 C1214 C 0.38943 0.26540 0.20573
 C1215 C 0.42068 0.25790 0.19312
 C1216 C 0.38110 0.25905 0.23752
 C1217 C 0.34837 0.26300 0.24861
 C1218 C 0.32321 0.27146 0.22757
 C1219 C 0.33271 0.28116 0.19672
 H1220 H 0.47032 0.23578 0.16129
 H1221 H 0.39639 0.29846 0.09565
 H1222 H 0.44669 0.27986 0.07224
 H1223 H 0.35585 0.29776 0.13964
 H1224 H 0.43861 0.24639 0.20789
 H1225 H 0.39962 0.25034 0.25356
 H1226 H 0.34279 0.25837 0.27320
 H1227 H 0.31432 0.28950 0.18033
 C1228 C 0.47398 0.76187 0.35634
 C1229 C 0.44638 0.76911 0.33704
 C1230 C 0.43075 0.79793 0.34170
 C1231 C 0.44457 0.82008 0.36256
 C1232 C 0.47156 0.81276 0.38133
 C1233 C 0.48446 0.78233 0.38139
 C1234 C 0.40113 0.80422 0.32593
 C1235 C 0.38692 0.78242 0.30480
 C1236 C 0.40350 0.75474 0.29755
 C1237 C 0.43316 0.74794 0.31406
 C1238 C 0.38937 0.73429 0.27459
 C1239 C 0.35891 0.74111 0.25969
 C1240 C 0.34151 0.76811 0.26796
 C1241 C 0.35586 0.78798 0.29138
 H1242 H 0.48557 0.73947 0.35354
 H1243 H 0.43393 0.84296 0.36499
 H1244 H 0.48133 0.83096 0.39686
 H1245 H 0.38873 0.82600 0.33057
 H1246 H 0.44534 0.72606 0.30964
 H1247 H 0.40166 0.71289 0.26841
 H1248 H 0.34843 0.72471 0.24257
 H1249 H 0.34276 0.80821 0.29971
 C1250 C 0.96788 0.26557 0.86280
 C1251 C 0.94231 0.25834 0.84124
 C1252 C 0.93590 0.22725 0.83127
 C1253 C 0.95635 0.20386 0.84275
 C1254 C 0.98228 0.21132 0.86405
 C1255 C 0.98916 0.24253 0.87435
 C1256 C 0.90852 0.22022 0.81104
 C1257 C 0.88731 0.24411 0.80128
 C1258 C 0.89486 0.27518 0.81121
 C1259 C 0.92223 0.28208 0.83057
 C1260 C 0.87391 0.29909 0.80330
 C1261 C 0.84464 0.29247 0.78717
 C1262 C 0.83591 0.26199 0.77610
 C1263 C 0.85794 0.23770 0.78321
 H1264 H 0.96940 0.28930 0.87134
 H1265 H 0.95192 0.17969 0.83576
 H1266 H 0.99693 0.19248 0.87303
 H1267 H 0.90315 0.19623 0.80382
 H1268 H 0.92723 0.30601 0.83830
 H1269 H 0.87912 0.32289 0.81125
 H1270 H 0.82814 0.31178 0.78480
 H1271 H 0.85136 0.21385 0.77640
 C1272 C 0.62079 1.00934 0.71838
 C1273 C 0.60351 1.00333 0.69030
 C1274 C 0.58265 0.97633 0.68698
 C1275 C 0.57883 0.95605 0.71305
 C1276 C 0.59591 0.96248 0.74153
 C1277 C 0.61762 0.98924 0.74480
 C1278 C 0.56633 0.97038 0.65772
 C1279 C 0.57013 0.99193 0.63239
 C1280 C 0.59040 1.01932 0.63713
 C1281 C 0.60729 1.02446 0.66542
 C1282 C 0.59290 1.04220 0.61400
 C1283 C 0.57532 1.03867 0.58629
 C1284 C 0.55640 1.01095 0.57910
 C1285 C 0.55365 0.98750 0.60283
 H1286 H 0.63743 1.02971 0.71857
 H1287 H 0.56291 0.93510 0.71137
 H1288 H 0.59294 0.94599 0.76088
 H1289 H 0.55051 0.94947 0.65488
 H1290 H 0.62301 1.04549 0.66832
 H1291 H 0.60762 1.06366 0.61780
 H1292 H 0.57699 1.05859 0.57061
 H1293 H 0.53799 0.96671 0.59881
 C1294 C 0.08201 0.52312 1.20635
 C1295 C 0.07289 0.51429 1.17525
 C1296 C 0.09823 0.50953 1.15231
 C1297 C 0.13193 0.51300 1.16079
 C1298 C 0.14067 0.51941 1.19212
 C1299 C 0.11606 0.52340 1.21596
 C1300 C 0.08959 0.50134 1.12119
 C1301 C 0.05587 0.49693 1.11272
 C1302 C 0.03034 0.50014 1.13569
 C1303 C 0.03896 0.50928 1.16684
 C1304 C -0.00326 0.49503 1.12669
 C1305 C -0.01150 0.48902 1.09483
 C1306 C 0.01368 0.48805 1.07122
 C1307 C 0.04747 0.49093 1.08110
 H1308 H 0.06227 0.52863 1.22295
 H1309 H 0.15165 0.50958 1.14339
 H1310 H 0.16698 0.52000 1.19808
 H1311 H 0.10918 0.49848 1.10349
 H1312 H 0.01936 0.51234 1.18447
 H1313 H -0.02329 0.49707 1.14404
 H1314 H -0.03768 0.48752 1.08838
 H1315 H 0.06763 0.49129 1.06373
 C1316 C -0.11669 0.01214 1.21949
 C1317 C -0.09742 0.01602 1.19206
 C1318 C -0.06265 0.02335 1.19346
 C1319 C -0.04805 0.02899 1.22342
 C1320 C -0.06759 0.02677 1.25161
 C1321 C -0.10231 0.01704 1.24900
 C1322 C -0.04387 0.02636 1.16472
 C1323 C -0.06005 0.02310 1.13508
 C1324 C -0.09523 0.01757 1.13508
 C1325 C -0.11330 0.01347 1.16312
 C1326 C -0.11256 0.01569 1.10699
 C1327 C -0.09555 0.01759 1.07863
 C1328 C -0.06011 0.02160 1.07660
 C1329 C -0.04237 0.02478 1.10549
 H1330 H -0.14321 0.00623 1.21787
 H1331 H -0.02227 0.03756 1.22487
 H1332 H -0.05685 0.04439 1.27545
 H1333 H -0.01711 0.03146 1.16544
 H1334 H -0.14017 0.00857 1.16240
 H1335 H -0.13956 0.01184 1.10681
 H1336 H -0.11119 0.01445 1.05807
 H1337 H -0.01530 0.02749 1.10499
 C1338 C 0.40947 0.47874 0.67714
 C1339 C 0.43376 0.48349 0.65352
 C1340 C 0.46461 0.49940 0.66009
 C1341 C 0.47103 0.50971 0.69127
 C1342 C 0.44606 0.50701 0.71511
 C1343 C 0.41437 0.49204 0.70691
 C1344 C 0.48697 0.50720 0.63479
 C1345 C 0.47769 0.50084 0.60315
 C1346 C 0.44657 0.48494 0.59763
 C1347 C 0.42573 0.47532 0.62262
 C1348 C 0.43544 0.47997 0.56706
 C1349 C 0.45459 0.49045 0.54174
 C1350 C 0.48662 0.50546 0.54556
 C1351 C 0.49807 0.51058 0.57685
 H1352 H 0.38534 0.46790 0.67142
 H1353 H 0.49372 0.52337 0.69626
 H1354 H 0.44962 0.52883 0.73733
 H1355 H 0.51045 0.51973 0.63954
 H1356 H 0.40186 0.46342 0.61775
 H1357 H 0.41136 0.46836 0.56258
 H1358 H 0.44361 0.48611 0.51877
 H1359 H 0.52234 0.52199 0.58066
 C1360 C 0.39520 0.48249 -0.20944
 C1361 C 0.41798 0.47650 -0.18564
 C1362 C 0.45155 0.48805 -0.18819
 C1363 C 0.46226 0.50456 -0.21543
 C1364 C 0.44036 0.50852 -0.24081
 C1365 C 0.40603 0.49749 -0.23734
 C1366 C 0.47353 0.48359 -0.16298
 C1367 C 0.46236 0.46736 -0.13574
 C1368 C 0.42953 0.45398 -0.13454
 C1369 C 0.40757 0.45863 -0.15943
 C1370 C 0.41862 0.43733 -0.10776
 C1371 C 0.43842 0.43722 -0.08089
 C1372 C 0.46955 0.45366 -0.08010
 C1373 C 0.48256 0.46620 -0.10883
 H1374 H 0.36950 0.47370 -0.20714
 H1375 H 0.48746 0.51468 -0.21709
 H1376 H 0.49889 0.49349 -0.16418
 H1377 H 0.38206 0.44906 -0.15800
 H1378 H 0.39400 0.42585 -0.10693
 H1379 H 0.42846 0.42485 -0.06064
 H1380 H 0.50701 0.47801 -0.10945
 C1381 C -0.09723 0.98758 0.33020
 C1382 C -0.06894 0.97944 0.34696
 C1383 C -0.03792 0.99542 0.34111
 C1384 C -0.03430 1.01562 0.31502
 C1385 C -0.06145 1.02078 0.29507
 C1386 C -0.09404 1.00809 0.30438
 C1387 C -0.01175 0.99220 0.36262
 C1388 C -0.01605 0.97191 0.38855
 C1389 C -0.04453 0.95148 0.39029
 C1390 C -0.07128 0.95582 0.36988
 C1391 C -0.04692 0.92907 0.41435
 C1392 C -0.02497 0.93116 0.43982
 C1393 C -0.00191 0.95659 0.44217
 C1394 C 0.00552 0.97405 0.41445
 H1395 H -0.12142 0.97686 0.33634
 H1396 H -0.01072 1.02820 0.31050
 H1397 H 0.01097 1.00669 0.36023
 H1398 H -0.09443 0.94207 0.37296
 H1399 H -0.06744 0.91181 0.41498
 H1400 H -0.02883 0.91491 0.45880
 H1401 H 0.02496 0.99235 0.41442
 C1402 C 0.10055 0.54430 0.30339
 C1403 C 0.07957 0.53753 0.32964
 C1404 C 0.05513 0.51290 0.32791
 C1405 C 0.05175 0.49569 0.29996
 C1406 C 0.07387 0.50128 0.27478
 C1407 C 0.09865 0.52581 0.27561
 C1408 C 0.03626 0.50415 0.35486
 C1409 C 0.04294 0.51847 0.38410
 C1410 C 0.06711 0.54333 0.38581
 C1411 C 0.08458 0.55332 0.35845
 C1412 C 0.07472 0.55669 0.41519
 C1413 C 0.05994 0.54447 0.44272
 C1414 C 0.03637 0.51919 0.44178
 C1415 C 0.02736 0.50695 0.41192
 H1416 H 0.12035 0.56198 0.30607
 H1417 H 0.03361 0.47631 0.29839
 H1418 H 0.07272 0.48498 0.25514
 H1419 H 0.01798 0.48484 0.35351
 H1420 H 0.10354 0.57204 0.36003
 H1421 H 0.09312 0.57583 0.41705
 H1422 H 0.06740 0.55505 0.46475
 H1423 H 0.00957 0.48732 0.41023
 C1424 C 0.58528 0.00125 -0.19218
 C1425 C 0.56975 0.00849 -0.16312
 C1426 C 0.58964 0.01929 -0.13748
 C1427 C 0.62422 0.02254 -0.14077
 C1428 C 0.63947 0.01377 -0.16875
 C1429 C 0.62059 0.00285 -0.19511
 C1430 C 0.57511 0.02483 -0.10806
 C1431 C 0.54131 0.01735 -0.10296
 C1432 C 0.52078 0.00713 -0.12817
 C1433 C 0.53497 0.00365 -0.15858
 C1434 C 0.48706 -0.00109 -0.12184
 C1435 C 0.47503 -0.00180 -0.09046
 C1436 C 0.49644 0.00615 -0.06502
 C1437 C 0.52885 0.01744 -0.07217
 H1438 H 0.56978 -0.00647 -0.21169
 H1439 H 0.63971 0.03049 -0.12118
 H1440 H 0.66661 0.01499 -0.16974
 H1441 H 0.59071 0.03259 -0.08841
 H1442 H 0.51950 -0.00475 -0.17801
 H1443 H 0.47058 -0.00869 -0.14081
 H1444 H 0.44954 -0.01027 -0.08608
 H1445 H 0.54556 0.02509 -0.05391
 C1446 C 0.70339 0.60930 -0.00365
 C1447 C 0.67096 0.59572 -0.00705
 C1448 C 0.64270 0.61356 -0.00009
 C1449 C 0.64720 0.64556 0.00627
 C1450 C 0.67942 0.65939 0.00700
 C1451 C 0.70829 0.64118 0.00521
 C1452 C 0.61042 0.59934 -0.00059
 C1453 C 0.60585 0.56809 -0.01048
 C1454 C 0.63380 0.55136 -0.02085
 C1455 C 0.66628 0.56483 -0.01806
 C1456 C 0.62878 0.52131 -0.03357
 C1457 C 0.59650 0.50771 -0.03547
 C1458 C 0.56837 0.52314 -0.02336
 C1459 C 0.57381 0.55332 -0.01021
 H1460 H 0.72464 0.59512 -0.00910
 H1461 H 0.62577 0.66008 0.00988
 H1462 H 0.68187 0.68451 0.01014
 H1463 H 0.58883 0.61277 0.00598
 H1464 H 0.68783 0.55143 -0.02479
 H1465 H 0.64987 0.50822 -0.04204
 H1466 H 0.59399 0.48432 -0.04519
 H1467 H 0.55359 0.56502 0.00155
 C1468 C 0.22233 1.10873 0.51331
 C1469 C 0.19476 1.08750 0.50788
 C1470 C 0.17712 1.08928 0.47914
 C1471 C 0.18766 1.11057 0.45601
 C1472 C 0.21513 1.13057 0.46099
 C1473 C 0.23311 1.13111 0.48995
 C1474 C 0.14885 1.06996 0.47365
 C1475 C 0.13765 1.04826 0.49637
 C1476 C 0.15571 1.04473 0.52460
 C1477 C 0.18420 1.06458 0.53039
 C1478 C 0.14430 1.02183 0.54653
 C1479 C 0.11410 1.00453 0.54143
 C1480 C 0.09427 1.01052 0.51482
 C1481 C 0.10769 1.03105 0.49153
 H1482 H 0.23542 1.10781 0.53564
 H1483 H 0.17460 1.11178 0.43366
 H1484 H 0.22148 1.14567 0.44125
 H1485 H 0.13508 1.07226 0.45176
 H1486 H 0.19775 1.06247 0.55237
 H1487 H 0.15799 1.01813 0.56815
 H1488 H 0.10499 0.98836 0.55953
 H1489 H 0.09387 1.03536 0.47013
 C1490 C 0.15406 -0.13515 0.99787
 C1491 C 0.12918 -0.11396 1.00568
 C1492 C 0.13226 -0.09459 1.03263
 C1493 C 0.16025 -0.09787 1.05206
 C1494 C 0.18534 -0.11891 1.04387
 C1495 C 0.18382 -0.13692 1.01557
 C1496 C 0.10741 -0.07242 1.03933
 C1497 C 0.07989 -0.06929 1.01881
 C1498 C 0.07746 -0.08938 0.99216
 C1499 C 0.10154 -0.11158 0.98606
 C1500 C 0.05128 -0.08677 0.97116
 C1501 C 0.02769 -0.06435 0.97585
 C1502 C 0.02837 -0.04371 1.00196
 C1503 C 0.05497 -0.04655 1.02380
 H1504 H 0.14958 -0.14986 0.97749
 H1505 H 0.16305 -0.08386 1.07336
 H1506 H 0.20663 -0.12044 1.05941
 H1507 H 0.10981 -0.05740 1.05998
 H1508 H 0.09920 -0.12657 0.96532
 H1509 H 0.04922 -0.10188 0.95053
 H1510 H 0.00902 -0.06347 0.95799
 H1511 H 0.05646 -0.03115 1.04420
 C1512 C 0.71775 0.38312 0.49403
 C1513 C 0.69275 0.40540 0.49841
 C1514 C 0.67294 0.40472 0.52637
 C1515 C 0.68041 0.38407 0.55060
 C1516 C 0.70624 0.36325 0.54683
 C1517 C 0.72403 0.36060 0.51768
 C1518 C 0.64601 0.42475 0.52984
 C1519 C 0.63918 0.44638 0.50608
 C1520 C 0.66066 0.44906 0.47933
 C1521 C 0.68702 0.42825 0.47535
 C1522 C 0.65492 0.47215 0.45676
 C1523 C 0.62661 0.49045 0.45920
 C1524 C 0.60252 0.48520 0.48344
 C1525 C 0.61043 0.46447 0.50805
 H1526 H 0.73203 0.38292 0.47203
 H1527 H 0.66644 0.38419 0.57279
 H1528 H 0.71164 0.34930 0.56728
 H1529 H 0.63009 0.42319 0.55083
 H1530 H 0.70272 0.42961 0.45422
 H1531 H 0.67180 0.47549 0.43666
 H1532 H 0.62310 0.50745 0.44104
 H1533 H 0.59323 0.46076 0.52783
 C1534 C -0.20172 0.37627 0.52228
 C1535 C -0.17169 0.39256 0.51371
 C1536 C -0.15472 0.38466 0.48536
 C1537 C -0.16921 0.36263 0.46490
 C1538 C -0.19971 0.34781 0.47267
 C1539 C -0.21580 0.35275 0.50239
 C1540 C -0.12373 0.39918 0.47756
 C1541 C -0.10990 0.42254 0.49716
 C1542 C -0.12797 0.43219 0.52430
 C1543 C -0.15842 0.41678 0.53278
 C1544 C -0.11511 0.45696 0.54266
 C1545 C -0.08383 0.47075 0.53534
 C1546 C -0.06401 0.45926 0.51018
 C1547 C -0.07806 0.43603 0.49032
 H1548 H -0.21426 0.38184 0.54441
 H1549 H -0.15725 0.35724 0.44243
 H1550 H -0.21025 0.33265 0.45464
 H1551 H -0.11038 0.39228 0.45625
 H1552 H -0.17172 0.42363 0.55412
 H1553 H -0.12884 0.46519 0.56319
 H1554 H -0.07441 0.48908 0.55092
 H1555 H -0.06393 0.42774 0.47011
 C1556 C 0.25337 -0.10830 0.00299
 C1557 C 0.28564 -0.09517 -0.00289
 C1558 C 0.30785 -0.11034 -0.02369
 C1559 C 0.29847 -0.13936 -0.03645
 C1560 C 0.26836 -0.15406 -0.02719
 C1561 C 0.24442 -0.13878 -0.00791
 C1562 C 0.34019 -0.09765 -0.02930
 C1563 C 0.35217 -0.07228 -0.01119
 C1564 C 0.33082 -0.05843 0.01137
 C1565 C 0.29714 -0.06869 0.01401
 C1566 C 0.34393 -0.03554 0.03189
 C1567 C 0.37814 -0.02774 0.03120
 C1568 C 0.40001 -0.04173 0.00911
 C1569 C 0.38582 -0.06199 -0.01377
 H1570 H 0.23698 -0.09564 0.01838
 H1571 H 0.31563 -0.15189 -0.05154
 H1572 H 0.26432 -0.17808 -0.03474
 H1573 H 0.35697 -0.10918 -0.04565
 H1574 H 0.28070 -0.05766 0.03102
 H1575 H 0.32803 -0.02459 0.04938
 H1576 H 0.38735 -0.01077 0.04837
 H1577 H 0.40112 -0.07073 -0.03300
 C1578 C 0.30152 1.10638 0.50637
 C1579 C 0.33288 1.09508 0.51598
 C1580 C 0.36032 1.11642 0.51960
 C1581 C 0.35808 1.14682 0.50848
 C1582 C 0.32831 1.15668 0.49583
 C1583 C 0.29804 1.13848 0.49826
 C1584 C 0.39066 1.10657 0.53172
 C1585 C 0.39641 1.07471 0.53467
 C1586 C 0.37019 1.05257 0.52856
 C1587 C 0.33790 1.06295 0.52120
 C1588 C 0.37751 1.02066 0.52814
 C1589 C 0.41098 1.01150 0.52929
 C1590 C 0.43749 1.03409 0.53224
 C1591 C 0.42911 1.06483 0.53968
 H1592 H 0.28066 1.08982 0.50489
 H1593 H 0.37986 1.16267 0.50821
 H1594 H 0.32953 1.17910 0.48430
 H1595 H 0.41080 1.12357 0.53610
 H1596 H 0.31750 1.04602 0.51732
 H1597 H 0.35785 1.00308 0.52407
 H1598 H 0.41612 0.98709 0.52538
 H1599 H 0.44864 1.08189 0.54569
 C1600 C -0.19829 0.63430 0.99177
 C1601 C -0.17251 0.61311 0.99637
 C1602 C -0.17562 0.59021 1.02034
 C1603 C -0.20447 0.58938 1.03972
 C1604 C -0.22993 0.61078 1.03522
 C1605 C -0.22800 0.63310 1.01054
 C1606 C -0.14958 0.56902 1.02484
 C1607 C -0.12023 0.57081 1.00582
 C1608 C -0.11736 0.59417 0.98217
 C1609 C -0.14338 0.61491 0.97750
 C1610 C -0.08821 0.59690 0.96368
 C1611 C -0.06195 0.57692 0.96839
 C1612 C -0.06390 0.55288 0.99134
 C1613 C -0.09353 0.55012 1.01014
 H1614 H -0.19441 0.65226 0.97397
 H1615 H -0.20724 0.57236 1.05864
 H1616 H -0.25149 0.60984 1.05103
 H1617 H -0.15203 0.55143 1.04326
 H1618 H -0.14082 0.63268 0.95923
 H1619 H -0.08540 0.61498 0.94579
 H1620 H -0.03941 0.58116 0.95443
 H1621 H -0.09569 0.53228 1.02831
 C1622 C 0.00394 0.69312 0.58155
 C1623 C 0.00736 0.66152 0.57285
 C1624 C 0.00345 0.63797 0.59612
 C1625 C -0.00814 0.64573 0.62632
 C1626 C -0.01479 0.67665 0.63370
 C1627 C -0.00567 0.70153 0.61292
 C1628 C 0.00910 0.60673 0.58834
 C1629 C 0.01497 0.59814 0.55676
 C1630 C 0.01497 0.62104 0.53275
 C1631 C 0.01292 0.65283 0.54105
 C1632 C 0.01508 0.61145 0.50093
 C1633 C 0.01503 0.57955 0.49320
 C1634 C 0.01892 0.55672 0.51678
 C1635 C 0.01864 0.56664 0.54875
 H1636 H 0.00729 0.71063 0.56326
 H1637 H -0.01365 0.62769 0.64381
 H1638 H -0.02712 0.68113 0.65616
 H1639 H 0.00711 0.58888 0.60658
 H1640 H 0.01402 0.67057 0.52269
 H1641 H 0.01326 0.62847 0.48210
 H1642 H 0.01112 0.57299 0.46879
 H1643 H 0.01941 0.54967 0.56774
 C1644 C 0.49370 0.19902 0.05299
 C1645 C 0.48204 0.16965 0.04139
 C1646 C 0.45548 0.15340 0.05741
 C1647 C 0.44001 0.16690 0.08346
 C1648 C 0.45195 0.19535 0.09515
 C1649 C 0.47917 0.21218 0.08058
 C1650 C 0.44610 0.12289 0.04872
 C1651 C 0.46356 0.10774 0.02473
 C1652 C 0.48853 0.12423 0.00699
 C1653 C 0.49759 0.15530 0.01527
 C1654 C 0.50497 0.10868 -0.01762
 C1655 C 0.49905 0.07651 -0.02229
 C1656 C 0.47744 0.05904 -0.00187
 C1657 C 0.45796 0.07564 0.02002
 H1658 H 0.51546 0.21036 0.04191
 H1659 H 0.41970 0.15462 0.09600
 H1660 H 0.44022 0.20309 0.11675
 H1661 H 0.42657 0.11023 0.06203
 H1662 H 0.51771 0.16762 0.00250
 H1663 H 0.52366 0.12096 -0.03218
 H1664 H 0.51366 0.06534 -0.04016
 H1665 H 0.43997 0.06347 0.03536
 C1666 C 0.02706 0.20585 0.94312
 C1667 C 0.01372 0.18214 0.96344
 C1668 C -0.02141 0.17897 0.96768
 C1669 C -0.04209 0.20182 0.95612
 C1670 C -0.02865 0.22608 0.93774
 C1671 C 0.00555 0.22718 0.92853
 C1672 C -0.03560 0.15227 0.98213
 C1673 C -0.01513 0.12926 0.99395
 C1674 C 0.01984 0.13444 0.99463
 C1675 C 0.03435 0.16062 0.97856
 C1676 C 0.03936 0.11222 1.00962
 C1677 C 0.02448 0.08409 1.02111
 C1678 C -0.00985 0.07665 1.01602
 C1679 C -0.02919 0.10018 1.00275
 H1680 H 0.05364 0.20660 0.93788
 H1681 H -0.06893 0.20036 0.96036
 H1682 H -0.04570 0.24288 0.92845
 H1683 H -0.06267 0.14884 0.98313
 H1684 H 0.06139 0.16355 0.97683
 H1685 H 0.06625 0.11597 1.01129
 H1686 H 0.04068 0.06682 1.03086
 H1687 H -0.05439 0.09536 0.99520
 C1688 C 0.52642 0.72474 0.44099
 C1689 C 0.51921 0.69472 0.45429
 C1690 C 0.48856 0.67909 0.44685
 C1691 C 0.46480 0.69409 0.42889
 C1692 C 0.47152 0.72394 0.41700
 C1693 C 0.50318 0.73926 0.42073
 C1694 C 0.48184 0.64853 0.45732
 C1695 C 0.50508 0.63306 0.47568
 C1696 C 0.53458 0.64884 0.48562
 C1697 C 0.54177 0.67975 0.47464
 C1698 C 0.55676 0.63261 0.50498
 C1699 C 0.55083 0.60055 0.51207
 C1700 C 0.52295 0.58368 0.49948
 C1701 C 0.49993 0.60121 0.48205
 H1702 H 0.55002 0.73681 0.44623
 H1703 H 0.44057 0.68284 0.42434
 H1704 H 0.45109 0.73497 0.40541
 H1705 H 0.45870 0.63641 0.45044
 H1706 H 0.56506 0.69171 0.48119
 H1707 H 0.57951 0.64427 0.51335
 H1708 H 0.56971 0.58834 0.52493
 H1709 H 0.47970 0.58984 0.46946
 C1710 C 0.53333 0.81263 0.45097
 C1711 C 0.52622 0.83691 0.47286
 C1712 C 0.49246 0.84293 0.48051
 C1713 C 0.46703 0.82212 0.47046
 C1714 C 0.47432 0.79763 0.44998
 C1715 C 0.50684 0.79452 0.43693
 C1716 C 0.48442 0.87028 0.49702
 C1717 C 0.50978 0.89136 0.50708
 C1718 C 0.54359 0.88318 0.50393
 C1719 C 0.55179 0.85623 0.48629
 C1720 C 0.56838 0.90291 0.51756
 C1721 C 0.56008 0.93225 0.53000
 C1722 C 0.52758 0.94342 0.52652
 C1723 C 0.50196 0.92134 0.51826
 H1724 H 0.55906 0.80899 0.44397
 H1725 H 0.44118 0.82553 0.47735
 H1726 H 0.45358 0.78303 0.44156
 H1727 H 0.45835 0.87581 0.50078
 H1728 H 0.57785 0.85109 0.48197
 H1729 H 0.59435 0.89633 0.51735
 H1730 H 0.57983 0.94721 0.53962
 H1731 H 0.47611 0.92820 0.51766
 C1732 C 0.00649 0.29407 0.94359
 C1733 C 0.00307 0.32612 0.95106
 C1734 C 0.00806 0.34850 0.92678
 C1735 C 0.01975 0.33938 0.89691
 C1736 C 0.02439 0.30798 0.89014
 C1737 C 0.01518 0.28435 0.91219
 C1738 C 0.00155 0.37986 0.93260
 C1739 C -0.00761 0.38988 0.96301
 C1740 C -0.00971 0.36866 0.98838
 C1741 C -0.00536 0.33644 0.98210
 C1742 C -0.01576 0.38047 1.01922
 C1743 C -0.01771 0.41309 1.02468
 C1744 C -0.01505 0.43432 0.99923
 C1745 C -0.01293 0.42148 0.96828
 H1746 H 0.00200 0.27711 0.96225
 H1747 H 0.02494 0.35659 0.87852
 H1748 H 0.03282 0.30179 0.86651
 H1749 H 0.00453 0.39673 0.91350
 H1750 H -0.00810 0.31962 1.00122
 H1751 H -0.01744 0.36466 1.03923
 H1752 H -0.01997 0.42171 1.04874
 H1753 H -0.01310 0.43623 0.94750
 C1754 C 0.50197 0.27351 0.04644
 C1755 C 0.51287 0.30186 0.03206
 C1756 C 0.53867 0.32024 0.04623
 C1757 C 0.55603 0.30819 0.07163
 C1758 C 0.54500 0.28028 0.08577
 C1759 C 0.51524 0.26413 0.07586
 C1760 C 0.54565 0.35091 0.03588
 C1761 C 0.52692 0.36356 0.01148
 C1762 C 0.50379 0.34414 -0.00517
 C1763 C 0.49685 0.31331 0.00516
 C1764 C 0.48681 0.35651 -0.03085
 C1765 C 0.48999 0.38845 -0.03770
 C1766 C 0.50892 0.40900 -0.01822
 C1767 C 0.52930 0.39576 0.00495
 H1768 H 0.48107 0.26036 0.03621
 H1769 H 0.57726 0.32110 0.08162
 H1770 H 0.55972 0.27276 0.10532
 H1771 H 0.56425 0.36547 0.04804
 H1772 H 0.47766 0.29902 -0.00648
 H1773 H 0.46994 0.34179 -0.04481
 H1774 H 0.47587 0.39688 -0.05708
 H1775 H 0.54518 0.41066 0.01970
 C1776 C -0.02571 0.78092 0.58382
 C1777 C -0.01430 0.80739 0.56653
 C1778 C 0.02037 0.81349 0.56177
 C1779 C 0.04287 0.79096 0.57117
 C1780 C 0.03133 0.76407 0.58737
 C1781 C -0.00293 0.75947 0.59596
 C1782 C 0.03185 0.84235 0.54865
 C1783 C 0.00882 0.86464 0.53912
 C1784 C -0.02580 0.85672 0.54105
 C1785 C -0.03715 0.82861 0.55513
 C1786 C -0.04880 0.87713 0.52899
 C1787 C -0.03800 0.90595 0.51695
 C1788 C -0.00427 0.91654 0.51797
 C1789 C 0.01941 0.89482 0.52820
 H1790 H -0.05212 0.77875 0.58947
 H1791 H 0.06955 0.79467 0.56711
 H1792 H 0.04967 0.74814 0.59598
 H1793 H 0.05853 0.84761 0.54637
 H1794 H -0.06386 0.82352 0.55773
 H1795 H -0.07532 0.87076 0.52863
 H1796 H -0.05655 0.91904 0.50571
 H1797 H 0.04581 0.90156 0.52848
 C1798 C 0.22613 0.34089 0.03327
 C1799 C 0.22036 0.32565 0.06234
 C1800 C 0.21979 0.29267 0.06405
 C1801 C 0.22649 0.27557 0.03656
 C1802 C 0.23265 0.29087 0.00768
 C1803 C 0.23062 0.32388 0.00493
 C1804 C 0.21385 0.27752 0.09338
 C1805 C 0.21065 0.29519 0.12138
 C1806 C 0.21246 0.32822 0.11923
 C1807 C 0.21590 0.34315 0.08987
 C1808 C 0.21421 0.34612 0.14658
 C1809 C 0.21694 0.33168 0.17564
 C1810 C 0.21265 0.29878 0.17963
 C1811 C 0.20871 0.28069 0.15162
 H1812 H 0.22589 0.36623 0.03237
 H1813 H 0.22746 0.25029 0.03743
 H1814 H 0.23901 0.27619 -0.01213
 H1815 H 0.21351 0.25218 0.09461
 H1816 H 0.21711 0.36852 0.08868
 H1817 H 0.21737 0.37139 0.14531
 H1818 H 0.22540 0.34701 0.19434
 H1819 H 0.20797 0.25538 0.15314
 C1820 C 0.71301 0.83463 0.54231
 C1821 C 0.70849 0.81202 0.56659
 C1822 C 0.73266 0.78882 0.57009
 C1823 C 0.76174 0.78959 0.55173
 C1824 C 0.76721 0.81304 0.52979
 C1825 C 0.74265 0.83525 0.52343
 C1826 C 0.72874 0.76593 0.59319
 C1827 C 0.70316 0.76769 0.61566
 C1828 C 0.67933 0.79117 0.61379
 C1829 C 0.68120 0.81254 0.58824
 C1830 C 0.65570 0.79374 0.63865
 C1831 C 0.65850 0.77561 0.66632
 C1832 C 0.68440 0.75418 0.66893
 C1833 C 0.70399 0.74826 0.64192
 H1834 H 0.69390 0.85152 0.53862
 H1835 H 0.78087 0.77251 0.55496
 H1836 H 0.79068 0.81331 0.51664
 H1837 H 0.74746 0.74824 0.59538
 H1838 H 0.66292 0.83061 0.58644
 H1839 H 0.63689 0.81137 0.63781
 H1840 H 0.64242 0.78035 0.68646
 H1841 H 0.72316 0.73098 0.64235
 C1842 C 0.26453 0.64572 0.53867
 C1843 C 0.26644 0.66133 0.56803
 C1844 C 0.27446 0.69371 0.56904
 C1845 C 0.27856 0.71019 0.54069
 C1846 C 0.27439 0.69499 0.51161
 C1847 C 0.26864 0.66206 0.50958
 C1848 C 0.27652 0.70945 0.59830
 C1849 C 0.26816 0.69365 0.62656
 C1850 C 0.25837 0.66157 0.62529
 C1851 C 0.25883 0.64535 0.59631
 C1852 C 0.24647 0.64657 0.65273
 C1853 C 0.24346 0.66328 0.68092
 C1854 C 0.25510 0.69478 0.68342
 C1855 C 0.26756 0.70977 0.65578
 H1856 H 0.25876 0.62075 0.53828
 H1857 H 0.28345 0.73528 0.54096
 H1858 H 0.27476 0.71004 0.49123
 H1859 H 0.28300 0.73429 0.59893
 H1860 H 0.25163 0.62066 0.59558
 H1861 H 0.23791 0.62225 0.65206
 H1862 H 0.23168 0.65125 0.70086
 H1863 H 0.27514 0.73434 0.65655
 C1864 C 0.72598 0.19439 0.04964
 C1865 C 0.72911 0.19727 0.08297
 C1866 C 0.72451 0.17032 0.10214
 C1867 C 0.71827 0.14116 0.08839
 C1868 C 0.71660 0.13827 0.05582
 C1869 C 0.72011 0.16454 0.03553
 C1870 C 0.72609 0.17261 0.13503
 C1871 C 0.73279 0.20142 0.14953
 C1872 C 0.73910 0.22844 0.13108
 C1873 C 0.73691 0.22634 0.09768
 C1874 C 0.74655 0.25697 0.14665
 C1875 C 0.74609 0.25870 0.18003
 C1876 C 0.73807 0.23194 0.19844
 C1877 C 0.73194 0.20339 0.18247
 H1878 H 0.72844 0.21518 0.03519
 H1879 H 0.71511 0.12032 0.10286
 H1880 H 0.71291 0.11494 0.04620
 H1881 H 0.72175 0.15184 0.14947
 H1882 H 0.74102 0.24713 0.08332
 H1883 H 0.75168 0.27809 0.13307
 H1884 H 0.75024 0.28125 0.19129
 H1885 H 0.72476 0.18248 0.19569
 C1886 C 0.69761 0.19443 0.95449
 C1887 C 0.70478 0.21699 0.93089
 C1888 C 0.73685 0.23188 0.92970
 C1889 C 0.75979 0.22663 0.95380
 C1890 C 0.75224 0.20475 0.97751
 C1891 C 0.72168 0.18713 0.97775
 C1892 C 0.74644 0.24988 0.90324
 C1893 C 0.72451 0.25262 0.87772
 C1894 C 0.69113 0.24111 0.88035
 C1895 C 0.68129 0.22331 0.90713
 C1896 C 0.66916 0.24595 0.85504
 C1897 C 0.68172 0.25724 0.82576
 C1898 C 0.71643 0.26137 0.82108
 C1899 C 0.73663 0.26351 0.84843
 H1900 H 0.67409 0.18135 0.95284
 H1901 H 0.78431 0.23831 0.95345
 H1902 H 0.77137 0.20016 0.99471
 H1903 H 0.77186 0.25958 0.90139
 H1904 H 0.65625 0.21272 0.90842
 H1905 H 0.64288 0.23901 0.85714
 H1906 H 0.66484 0.25908 0.80598
 H1907 H 0.76309 0.26977 0.84642
 C1908 C 0.23496 0.67201 0.42969
 C1909 C 0.23559 0.69638 0.40729
 C1910 C 0.26424 0.71658 0.40492
 C1911 C 0.29309 0.70987 0.42170
 C1912 C 0.29294 0.68456 0.44237
 C1913 C 0.26304 0.66714 0.44920
 C1914 C 0.26416 0.74253 0.38488
 C1915 C 0.23749 0.74647 0.36416
 C1916 C 0.21023 0.72466 0.36394
 C1917 C 0.20847 0.70066 0.38677
 C1918 C 0.18668 0.72615 0.33953
 C1919 C 0.19285 0.74618 0.31360
 C1920 C 0.22120 0.76680 0.31294
 C1921 C 0.24010 0.76968 0.34096
 H1922 H 0.21253 0.65723 0.43172
 H1923 H 0.31581 0.72426 0.41894
 H1924 H 0.31554 0.68035 0.45546
 H1925 H 0.28599 0.75834 0.38370
 H1926 H 0.18704 0.68437 0.38738
 H1927 H 0.16551 0.70963 0.33877
 H1928 H 0.17698 0.74338 0.29320
 H1929 H 0.26100 0.78640 0.34245
 C1930 C 0.78631 0.82809 0.45119
 C1931 C 0.78839 0.80308 0.42910
 C1932 C 0.75998 0.78285 0.42456
 C1933 C 0.73063 0.78707 0.44169
 C1934 C 0.72856 0.81166 0.46265
 C1935 C 0.75578 0.83325 0.46774
 C1936 C 0.76031 0.75937 0.40174
 C1937 C 0.78765 0.75705 0.38134
 C1938 C 0.81708 0.77547 0.38620
 C1939 C 0.81770 0.79808 0.41079
 C1940 C 0.84412 0.77176 0.36488
 C1941 C 0.83900 0.75513 0.33623
 C1942 C 0.80643 0.74478 0.32813
 C1943 C 0.78381 0.73974 0.35358
 H1944 H 0.80832 0.84282 0.45548
 H1945 H 0.70884 0.77159 0.43848
 H1946 H 0.70509 0.81396 0.47547
 H1947 H 0.73789 0.74480 0.39789
 H1948 H 0.83987 0.81301 0.41414
 H1949 H 0.86812 0.78355 0.36905
 H1950 H 0.85938 0.75344 0.31926
 H1951 H 0.75991 0.72759 0.34990
 C1952 C 0.27193 0.31759 0.92888
 C1953 C 0.27834 0.29311 0.90747
 C1954 C 0.25319 0.26968 0.90213
 C1955 C 0.22170 0.27190 0.91653
 C1956 C 0.21538 0.29639 0.93723
 C1957 C 0.24079 0.31873 0.94535
 C1958 C 0.25937 0.24482 0.88159
 C1959 C 0.28930 0.24442 0.86409
 C1960 C 0.31428 0.26810 0.86831
 C1961 C 0.30925 0.29178 0.89097
 C1962 C 0.34300 0.26790 0.84863
 C1963 C 0.34326 0.24845 0.82162
 C1964 C 0.31461 0.23024 0.81387
 C1965 C 0.29262 0.22283 0.83951
 H1966 H 0.29143 0.33530 0.93244
 H1967 H 0.20194 0.25449 0.91201
 H1968 H 0.19098 0.29675 0.94869
 H1969 H 0.23984 0.22703 0.87746
 H1970 H 0.32850 0.30990 0.89454
 H1971 H 0.36400 0.28405 0.85279
 H1972 H 0.36529 0.24804 0.80673
 H1973 H 0.27298 0.20493 0.83706
 C1974 C 0.86670 0.45027 0.74234
 C1975 C 0.84484 0.42467 0.73815
 C1976 C 0.80993 0.42811 0.74078
 C1977 C 0.79768 0.45805 0.74575
 C1978 C 0.81985 0.48417 0.74659
 C1979 C 0.85495 0.48086 0.74301
 C1980 C 0.78829 0.40149 0.73898
 C1981 C 0.80154 0.37194 0.73307
 C1982 C 0.83634 0.36977 0.72724
 C1983 C 0.85776 0.39582 0.73056
 C1984 C 0.84979 0.34115 0.72002
 C1985 C 0.82984 0.31425 0.72212
 C1986 C 0.79586 0.31485 0.73100
 C1987 C 0.78128 0.34432 0.73458
 H1988 H 0.89346 0.44664 0.74262
 H1989 H 0.77103 0.46133 0.74864
 H1990 H 0.80914 0.50659 0.75118
 H1991 H 0.76154 0.40368 0.74260
 H1992 H 0.88461 0.39360 0.72740
 H1993 H 0.87643 0.33917 0.71551
 H1994 H 0.84303 0.29315 0.72204
 H1995 H 0.75503 0.34581 0.74098
 C1996 C 0.38364 0.97812 0.26720
 C1997 C 0.36287 0.95145 0.26864
 C1998 C 0.32829 0.95417 0.27439
 C1999 C 0.31577 0.98397 0.28052
 C2000 C 0.33684 1.01087 0.27749
 C2001 C 0.37039 1.00833 0.26715
 C2002 C 0.30715 0.92717 0.27333
 C2003 C 0.32040 0.89802 0.26519
 C2004 C 0.35522 0.89587 0.25966
 C2005 C 0.37628 0.92236 0.26225
 C2006 C 0.36852 0.86746 0.25049
 C2007 C 0.34760 0.84119 0.24666
 C2008 C 0.31293 0.84222 0.25264
 C2009 C 0.29952 0.87110 0.26187
 H2010 H 0.41023 0.97529 0.26317
 H2011 H 0.28962 0.98654 0.28678
 H2012 H 0.32670 1.03331 0.28324
 H2013 H 0.28046 0.92901 0.27762
 H2014 H 0.40295 0.92060 0.25763
 H2015 H 0.39511 0.86564 0.24571
 H2016 H 0.35892 0.82003 0.23845
 H2017 H 0.27289 0.87290 0.26630
 C2018 C 0.15648 0.94148 0.74601
 C2019 C 0.16486 0.90977 0.74716
 C2020 C 0.14914 0.88988 0.77001
 C2021 C 0.12564 0.90155 0.79112
 C2022 C 0.11766 0.93277 0.79003
 C2023 C 0.13346 0.95375 0.76812
 C2024 C 0.15687 0.85842 0.77151
 C2025 C 0.18064 0.84636 0.75083
 C2026 C 0.19683 0.86577 0.72798
 C2027 C 0.18860 0.89747 0.72602
 C2028 C 0.22118 0.85304 0.70795
 C2029 C 0.22981 0.82168 0.71122
 C2030 C 0.21394 0.80235 0.73433
 C2031 C 0.18883 0.81512 0.75341
 H2032 H 0.16778 0.95664 0.72803
 H2033 H 0.11305 0.88640 0.80840
 H2034 H 0.09824 0.93993 0.80625
 H2035 H 0.14464 0.84334 0.78912
 H2036 H 0.20089 0.91252 0.70846
 H2037 H 0.23395 0.86744 0.69017
 H2038 H 0.24923 0.81283 0.69588
 H2039 H 0.17585 0.80079 0.77110
 C2040 C 0.67279 0.44762 0.24519
 C2041 C 0.67271 0.41497 0.24820
 C2042 C 0.66459 0.39605 0.22167
 C2043 C 0.65870 0.40949 0.19249
 C2044 C 0.65732 0.44155 0.18996
 C2045 C 0.66276 0.46148 0.21655
 C2046 C 0.66133 0.36383 0.22464
 C2047 C 0.66732 0.34982 0.25358
 C2048 C 0.67686 0.36803 0.28015
 C2049 C 0.67892 0.40078 0.27751
 C2050 C 0.68534 0.35290 0.30827
 C2051 C 0.68710 0.32025 0.30882
 C2052 C 0.67858 0.30231 0.28178
 C2053 C 0.66626 0.31749 0.25524
 H2054 H 0.67701 0.46215 0.26597
 H2055 H 0.65290 0.39510 0.17192
 H2056 H 0.64897 0.44953 0.16730
 H2057 H 0.65465 0.34956 0.20417
 H2058 H 0.68558 0.41506 0.29793
 H2059 H 0.69285 0.36632 0.32899
 H2060 H 0.69724 0.30938 0.32960
 H2061 H 0.65894 0.30432 0.23429
 C2062 C 0.66677 0.55165 0.21888
 C2063 C 0.68888 0.57693 0.22128
 C2064 C 0.72228 0.57294 0.23032
 C2065 C 0.73315 0.54226 0.23487
 C2066 C 0.71077 0.51629 0.23076
 C2067 C 0.67688 0.52087 0.22321
 C2068 C 0.74339 0.59976 0.23504
 C2069 C 0.73066 0.62994 0.23078
 C2070 C 0.69738 0.63256 0.22007
 C2071 C 0.67706 0.60630 0.21515
 C2072 C 0.68349 0.66149 0.21651
 C2073 C 0.70134 0.68791 0.22549
 C2074 C 0.73437 0.68697 0.23632
 C2075 C 0.74945 0.65756 0.23829
 H2076 H 0.64077 0.55587 0.21356
 H2077 H 0.75884 0.53836 0.24139
 H2078 H 0.72010 0.49307 0.23362
 H2079 H 0.76892 0.59723 0.24287
 H2080 H 0.65132 0.60882 0.20769
 H2081 H 0.65772 0.66361 0.20914
 H2082 H 0.68728 0.70856 0.22715
 H2083 H 0.77470 0.65599 0.24713
 C2084 C 0.14500 0.04291 0.75229
 C2085 C 0.17058 0.06568 0.74957
 C2086 C 0.20109 0.06149 0.76514
 C2087 C 0.20810 0.03170 0.77655
 C2088 C 0.18462 0.00680 0.77285
 C2089 C 0.15184 0.01221 0.76189
 C2090 C 0.22375 0.08719 0.76836
 C2091 C 0.21846 0.11469 0.75117
 C2092 C 0.19231 0.11488 0.72892
 C2093 C 0.16678 0.09181 0.73029
 C2094 C 0.19327 0.13738 0.70501
 C2095 C 0.21764 0.16141 0.70586
 C2096 C 0.23617 0.16697 0.73342
 C2097 C 0.23884 0.14185 0.75487
 H2098 H 0.11995 0.04876 0.74528
 H2099 H 0.23191 0.02748 0.78755
 H2100 H 0.19117 -0.01593 0.78156
 H2101 H 0.24575 0.08543 0.78300
 H2102 H 0.14497 0.09338 0.71531
 H2103 H 0.17617 0.13574 0.68526
 H2104 H 0.22151 0.17567 0.68535
 H2105 H 0.25629 0.14340 0.77435
 C2106 C 0.34785 0.07216 0.23811
 C2107 C 0.33672 0.10231 0.23178
 C2108 C 0.36011 0.12783 0.22997
 C2109 C 0.39386 0.12306 0.23580
 C2110 C 0.40403 0.09375 0.24525
 C2111 C 0.38109 0.06786 0.24778
 C2112 C 0.34927 0.15795 0.22372
 C2113 C 0.31496 0.16355 0.22318
 C2114 C 0.29138 0.13840 0.22692
 C2115 C 0.30239 0.10767 0.22915
 C2116 C 0.25739 0.14467 0.23047
 C2117 C 0.24735 0.17555 0.23296
 C2118 C 0.27080 0.20088 0.22990
 C2119 C 0.30407 0.19430 0.22199
 H2120 H 0.33037 0.05257 0.23548
 H2121 H 0.41222 0.14229 0.23436
 H2122 H 0.43029 0.09135 0.25042
 H2123 H 0.36739 0.17740 0.22198
 H2124 H 0.28425 0.08833 0.23161
 H2125 H 0.23885 0.12576 0.23341
 H2126 H 0.22116 0.17945 0.23792
 H2127 H 0.32238 0.21291 0.21799
 C2128 C 0.84088 0.54616 0.71741
 C2129 C 0.82407 0.57444 0.71979
 C2130 C 0.83812 0.59891 0.73856
 C2131 C 0.86921 0.59588 0.75254
 C2132 C 0.88419 0.56726 0.75194
 C2133 C 0.86845 0.54096 0.73722
 C2134 C 0.82023 0.62548 0.74472
 C2135 C 0.78804 0.62792 0.73296
 C2136 C 0.77413 0.60486 0.71264
 C2137 C 0.79246 0.57802 0.70589
 C2138 C 0.74208 0.60916 0.70012
 C2139 C 0.72473 0.63644 0.70729
 C2140 C 0.73873 0.65914 0.72797
 C2141 C 0.76986 0.65361 0.74145
 H2142 H 0.83059 0.52741 0.70278
 H2143 H 0.88079 0.61494 0.76595
 H2144 H 0.90703 0.56534 0.76521
 H2145 H 0.83093 0.64385 0.75973
 H2146 H 0.78164 0.55956 0.69117
 H2147 H 0.73084 0.59188 0.68431
 H2148 H 0.70085 0.64003 0.69618
 H2149 H 0.78093 0.66995 0.75823
 C2150 C 0.96307 0.77269 0.14023
 C2151 C 0.94192 0.76516 0.16570
 C2152 C 0.94238 0.73549 0.18006
 C2153 C 0.96676 0.71466 0.16984
 C2154 C 0.99032 0.72370 0.14618
 C2155 C 0.98921 0.75327 0.13110
 C2156 C 0.91811 0.72747 0.20372
 C2157 C 0.89481 0.74973 0.21386
 C2158 C 0.89768 0.78032 0.20113
 C2159 C 0.92038 0.78754 0.17689
 C2160 C 0.87663 0.80334 0.21140
 C2161 C 0.85045 0.79583 0.23165
 C2162 C 0.84439 0.76504 0.24333
 C2163 C 0.86784 0.74213 0.23508
 H2164 H 0.95816 0.79392 0.12768
 H2165 H 0.96799 0.69168 0.18044
 H2166 H 1.00941 0.70752 0.13936
 H2167 H 0.91712 0.70416 0.21380
 H2168 H 0.92110 0.81076 0.16645
 H2169 H 0.87892 0.82692 0.20200
 H2170 H 0.83312 0.81432 0.23525
 H2171 H 0.86378 0.71824 0.24310
 C2172 C 0.47734 0.25040 0.63007
 C2173 C 0.45009 0.25222 0.65182
 C2174 C 0.43562 0.28147 0.65757
 C2175 C 0.45045 0.30861 0.64471
 C2176 C 0.47865 0.30692 0.62533
 C2177 C 0.49120 0.27786 0.61546
 C2178 C 0.40679 0.28343 0.67655
 C2179 C 0.39317 0.25686 0.69180
 C2180 C 0.40931 0.22814 0.68910
 C2181 C 0.43719 0.22568 0.66835
 C2182 C 0.39675 0.20245 0.70682
 C2183 C 0.36786 0.20501 0.72592
 C2184 C 0.35011 0.23299 0.72691
 C2185 C 0.36327 0.25869 0.70931
 H2186 H 0.48798 0.22794 0.62514
 H2187 H 0.44057 0.33135 0.65008
 H2188 H 0.49016 0.32870 0.61694
 H2189 H 0.39512 0.30580 0.67974
 H2190 H 0.44881 0.20332 0.66519
 H2191 H 0.40893 0.18022 0.70553
 H2192 H 0.35843 0.18443 0.73846
 H2193 H 0.34966 0.28011 0.70812
 C2194 C 0.43702 0.74719 0.84265
 C2195 C 0.41337 0.73581 0.82080
 C2196 C 0.39853 0.70575 0.82528
 C2197 C 0.40945 0.68668 0.84963
 C2198 C 0.43480 0.69723 0.86980
 C2199 C 0.44868 0.72805 0.86748
 C2200 C 0.37246 0.69537 0.80576
 C2201 C 0.36128 0.71460 0.78153
 C2202 C 0.37820 0.74324 0.77468
 C2203 C 0.40419 0.75393 0.79462
 C2204 C 0.36703 0.76149 0.74950
 C2205 C 0.33694 0.75327 0.73414
 C2206 C 0.31714 0.72719 0.74442
 C2207 C 0.33124 0.70692 0.76657
 H2208 H 0.44733 0.77082 0.83981
 H2209 H 0.39877 0.66322 0.85276
 H2210 H 0.44319 0.68047 0.88661
 H2211 H 0.35989 0.67289 0.81031
 H2212 H 0.41631 0.77666 0.79051
 H2213 H 0.38015 0.78324 0.74325
 H2214 H 0.32727 0.76949 0.71712
 H2215 H 0.31682 0.68774 0.77674
 C2216 C 0.93632 0.23715 0.33572
 C2217 C 0.90238 0.23638 0.32742
 C2218 C 0.87799 0.22761 0.35053
 C2219 C 0.88746 0.22028 0.38130
 C2220 C 0.92106 0.22093 0.38925
 C2221 C 0.94622 0.22817 0.36647
 C2222 C 0.84427 0.22662 0.34280
 C2223 C 0.83434 0.23428 0.31225
 C2224 C 0.85807 0.24327 0.28880
 C2225 C 0.89229 0.24433 0.29655
 C2226 C 0.84681 0.25113 0.25836
 C2227 C 0.81232 0.24992 0.25154
 C2228 C 0.78881 0.24050 0.27497
 C2229 C 0.80056 0.23309 0.30531
 H2230 H 0.95463 0.24518 0.31825
 H2231 H 0.86884 0.21411 0.39932
 H2232 H 0.92757 0.21563 0.41347
 H2233 H 0.82565 0.21987 0.36068
 H2234 H 0.91091 0.25119 0.27875
 H2235 H 0.86459 0.25825 0.23996
 H2236 H 0.80412 0.25618 0.22808
 H2237 H 0.78353 0.22653 0.32446
 C2238 C 0.04074 0.24204 0.35491
 C2239 C 0.06464 0.24365 0.33077
 C2240 C 0.06072 0.22595 0.30274
 C2241 C 0.03089 0.20818 0.29889
 C2242 C 0.00525 0.20931 0.32198
 C2243 C 0.00939 0.22721 0.35024
 C2244 C 0.08647 0.22703 0.27931
 C2245 C 0.11437 0.24792 0.28289
 C2246 C 0.11510 0.26774 0.30987
 C2247 C 0.09159 0.26440 0.33406
 C2248 C 0.13945 0.29097 0.31293
 C2249 C 0.16487 0.29337 0.29111
 C2250 C 0.16821 0.27195 0.26532
 C2251 C 0.14169 0.24955 0.26086
 H2252 H 0.04605 0.25409 0.37703
 H2253 H 0.02688 0.19434 0.27764
 H2254 H -0.01777 0.19631 0.31718
 H2255 H 0.08441 0.21244 0.25832
 H2256 H 0.09359 0.27901 0.35513
 H2257 H 0.13964 0.30685 0.33305
 H2258 H 0.18373 0.31086 0.29729
 H2259 H 0.14296 0.23293 0.24149
 C2260 C 0.51270 0.73452 0.83716
 C2261 C 0.53683 0.74374 0.81458
 C2262 C 0.55484 0.77237 0.81837
 C2263 C 0.54609 0.79252 0.84319
 C2264 C 0.52089 0.78366 0.86511
 C2265 C 0.50476 0.75376 0.86349
 C2266 C 0.58211 0.77966 0.79810
 C2267 C 0.59164 0.75822 0.77459
 C2268 C 0.57171 0.73087 0.76918
 C2269 C 0.54417 0.72392 0.78905
 C2270 C 0.58122 0.70969 0.74560
 C2271 C 0.61242 0.71339 0.73055
 C2272 C 0.63449 0.73841 0.73879
 C2273 C 0.62244 0.76216 0.75864
 H2274 H 0.50061 0.71155 0.83485
 H2275 H 0.55905 0.81503 0.84592
 H2276 H 0.51485 0.80038 0.88325
 H2277 H 0.59708 0.80096 0.80189
 H2278 H 0.52974 0.70221 0.78584
 H2279 H 0.56578 0.68895 0.74064
 H2280 H 0.62040 0.69496 0.71483
 H2281 H 0.63844 0.78186 0.76491
 C2282 C 0.56057 0.26113 0.63660
 C2283 C 0.58605 0.26514 0.65896
 C2284 C 0.60158 0.29486 0.66344
 C2285 C 0.59123 0.32001 0.64476
 C2286 C 0.56637 0.31550 0.62145
 C2287 C 0.55120 0.28565 0.61628
 C2288 C 0.62730 0.29856 0.68617
 C2289 C 0.63877 0.27238 0.70294
 C2290 C 0.62368 0.24262 0.69712
 C2291 C 0.59678 0.23938 0.67614
 C2292 C 0.63710 0.21606 0.71061
 C2293 C 0.66626 0.21853 0.72842
 C2294 C 0.68117 0.24782 0.73637
 C2295 C 0.66640 0.27493 0.72375
 H2296 H 0.54841 0.23821 0.63430
 H2297 H 0.60249 0.34319 0.64803
 H2298 H 0.55867 0.33553 0.60814
 H2299 H 0.63922 0.32142 0.68985
 H2300 H 0.58524 0.21640 0.67200
 H2301 H 0.62661 0.19296 0.70523
 H2302 H 0.67831 0.19702 0.73360
 H2303 H 0.67816 0.29779 0.72768
 C2304 C 0.05642 0.76771 0.15154
 C2305 C 0.08773 0.77688 0.16394
 C2306 C 0.11488 0.78345 0.14309
 C2307 C 0.11009 0.78137 0.11026
 C2308 C 0.07851 0.77324 0.09808
 C2309 C 0.05104 0.76557 0.11828
 C2310 C 0.14631 0.79224 0.15542
 C2311 C 0.15094 0.79414 0.18838
 C2312 C 0.12364 0.78852 0.20932
 C2313 C 0.09205 0.78015 0.19694
 C2314 C 0.12886 0.79027 0.24225
 C2315 C 0.16143 0.79403 0.25427
 C2316 C 0.18914 0.79587 0.23351
 C2317 C 0.18306 0.79925 0.20064
 H2318 H 0.03602 0.76418 0.16832
 H2319 H 0.13056 0.78693 0.09392
 H2320 H 0.07518 0.77392 0.07264
 H2321 H 0.16738 0.79671 0.13940
 H2322 H 0.07106 0.77544 0.21297
 H2323 H 0.10801 0.78701 0.25869
 H2324 H 0.16494 0.79374 0.27962
 H2325 H 0.20373 0.80231 0.18395
   
