data_POSCAR
  _audit_creation_date              2014-09-24
  _audit_creation_method            'ToBaCCo'
  _symmetry_space_group_name_H-M    'P1'
  _symmetry_Int_Tables_number       1
  _symmetry_cell_setting            triclinic
  loop_
  _symmetry_equiv_pos_as_xyz
 x,y,z
_cell_length_a 51.7245
_cell_length_b 51.6286
_cell_length_c 51.7481
_cell_angle_alpha 89.925800
_cell_angle_beta 90.006900
_cell_angle_gamma 89.908100
loop_
  _atom_site_label
  _atom_site_type_symbol
  _atom_site_fract_x
  _atom_site_fract_y
  _atom_site_fract_z
O1 O 0.22827 1.02582 0.47619
 O2 O 0.22770 0.97509 0.52629
 O3 O 0.22816 1.02573 0.52625
 O4 O 0.22788 0.97518 0.47605
 O5 O 0.27055 0.97529 0.47568
 O6 O 0.27074 1.02463 0.52705
 O7 O 0.27034 0.97439 0.52616
 O8 O 0.27093 1.02552 0.47646
 Cu9 Cu 0.22373 1.00047 0.50118
 Cu10 Cu 0.27491 0.99992 0.50136
 C11 C 0.24970 1.03437 0.46779
 C12 C 0.24892 0.96604 0.53480
 C13 C 0.24949 1.03379 0.53540
 C14 C 0.24918 0.96672 0.46716
 O15 O 0.77198 -0.02544 0.47459
 O16 O 0.77206 0.02429 0.52546
 O17 O 0.77182 -0.02619 0.52481
 O18 O 0.77202 0.02505 0.47525
 O19 O 0.72937 0.02508 0.47510
 O20 O 0.72922 -0.02592 0.52483
 O21 O 0.72941 0.02440 0.52551
 O22 O 0.72934 -0.02521 0.47446
 Cu23 Cu 0.77624 -0.00059 0.50003
 Cu24 Cu 0.72506 -0.00039 0.49998
 C25 C 0.75066 -0.03383 0.46579
 C26 C 0.75076 0.03284 0.53423
 C27 C 0.75048 -0.03486 0.53339
 C28 C 0.75071 0.03380 0.46665
 O29 O 0.22855 0.47462 0.97609
 O30 O 0.22886 0.52518 1.02620
 O31 O 0.22858 0.52492 0.97570
 O32 O 0.22876 0.47488 1.02649
 O33 O 0.27135 0.47429 1.02587
 O34 O 0.27124 0.52535 0.97606
 O35 O 0.27150 0.52480 1.02625
 O36 O 0.27120 0.47475 0.97566
 Cu37 Cu 0.22442 0.49993 1.00113
 Cu38 Cu 0.27559 0.49978 1.00093
 C39 C 0.24983 0.46605 0.96727
 C40 C 0.25024 0.53357 1.03488
 C41 C 0.24988 0.53378 0.96728
 C42 C 0.25008 0.46588 1.03486
 O43 O 0.47622 0.22970 1.02741
 O44 O 0.52542 0.22887 0.97605
 O45 O 0.52632 0.22945 1.02644
 O46 O 0.47499 0.22910 0.97708
 O47 O 0.47585 0.27180 0.97572
 O48 O 0.52608 0.27212 1.02626
 O49 O 0.52606 0.27158 0.97595
 O50 O 0.47553 0.27243 1.02601
 Cu51 Cu 0.50073 0.22500 1.00177
 Cu52 Cu 0.50090 0.27626 1.00097
 C53 C 0.46735 0.25121 1.03538
 C54 C 0.53426 0.25008 0.96727
 C55 C 0.53493 0.25084 1.03500
 C56 C 0.46673 0.25038 0.96785
 O57 O 0.47486 0.77130 -0.02561
 O58 O 0.52549 0.77083 0.02436
 O59 O 0.52516 0.77100 -0.02602
 O60 O 0.47533 0.77118 0.02485
 O61 O 0.47450 0.72845 0.02417
 O62 O 0.52534 0.72833 -0.02573
 O63 O 0.52495 0.72812 0.02462
 O64 O 0.47494 0.72858 -0.02597
 Cu65 Cu 0.50023 0.77535 -0.00062
 Cu66 Cu 0.49994 0.72409 -0.00074
 C67 C 0.46626 0.75002 -0.03439
 C68 C 0.53380 0.74940 0.03315
 C69 C 0.53391 0.74964 -0.03458
 C70 C 0.46632 0.74985 0.03313
 O71 O 1.02616 0.47635 0.22799
 O72 O 0.97482 0.52581 0.22880
 O73 O 1.02508 0.52683 0.22850
 O74 O 0.97564 0.47550 0.22836
 O75 O 0.97527 0.47573 0.27098
 O76 O 1.02650 0.52524 0.27102
 O77 O 0.97602 0.52623 0.27141
 O78 O 1.02538 0.47479 0.27061
 Cu79 Cu 1.00042 0.50115 0.22414
 Cu80 Cu 1.00083 0.50050 0.27527
 C81 C 1.03434 0.46691 0.24916
 C82 C 0.96676 0.53463 0.25024
 C83 C 1.03447 0.53473 0.24978
 C84 C 0.96683 0.46697 0.24966
 O85 O -0.02718 0.47447 0.77243
 O86 O 0.02364 0.52432 0.77313
 O87 O -0.02681 0.52477 0.77251
 O88 O 0.02312 0.47377 0.77309
 O89 O 0.02429 0.47453 0.73048
 O90 O -0.02652 0.52464 0.72994
 O91 O 0.02371 0.52490 0.73051
 O92 O -0.02609 0.47409 0.72981
 Cu93 Cu -0.00183 0.49934 0.77706
 Cu94 Cu -0.00112 0.49954 0.72592
 C95 C -0.03526 0.46567 0.75099
 C96 C 0.03229 0.53325 0.75193
 C97 C -0.03536 0.53342 0.75113
 C98 C 0.03232 0.46549 0.75188
 O99 O 0.47452 0.97574 0.22881
 O100 O 0.52422 1.02671 0.22962
 O101 O 0.52493 0.97627 0.22904
 O102 O 0.47411 1.02626 0.22943
 O103 O 0.47442 1.02618 0.27201
 O104 O 0.52388 0.97482 0.27163
 O105 O 0.52493 1.02524 0.27224
 O106 O 0.47362 0.97587 0.27143
 Cu107 Cu 0.49946 1.00127 0.22495
 Cu108 Cu 0.49921 1.00049 0.27610
 C109 C 0.46541 0.96723 0.24998
 C110 C 0.53318 1.03457 0.25106
 C111 C 0.53299 0.96687 0.25027
 C112 C 0.46563 1.03496 0.25078
 O113 O 1.02530 0.22755 0.52630
 O114 O 0.97519 0.22825 0.47577
 O115 O 1.02565 0.22795 0.47592
 O116 O 0.97488 0.22797 0.52578
 O117 O 0.97548 0.27072 0.52630
 O118 O 1.02588 0.27067 0.47614
 O119 O 0.97568 0.27100 0.47577
 O120 O 1.02563 0.27027 0.52647
 Cu121 Cu 1.00028 0.22363 0.50091
 Cu122 Cu 1.00068 0.27495 0.50118
 C123 C 1.03398 0.24878 0.53511
 C124 C 0.96686 0.24974 0.46715
 C125 C 1.03441 0.24931 0.46743
 C126 C 0.96655 0.24936 0.53459
 O127 O -0.02566 0.77154 0.52492
 O128 O 0.02451 0.77188 0.47447
 O129 O -0.02588 0.77160 0.47489
 O130 O 0.02487 0.77176 0.52476
 O131 O 0.02464 0.72902 0.52525
 O132 O -0.02502 0.72885 0.47435
 O133 O 0.02518 0.72916 0.47483
 O134 O -0.02543 0.72878 0.52484
 Cu135 Cu -0.00053 0.77599 0.49977
 Cu136 Cu -0.00012 0.72466 0.49980
 C137 C -0.03417 0.75010 0.53345
 C138 C 0.03344 0.75058 0.46599
 C139 C -0.03404 0.75019 0.46602
 C140 C 0.03328 0.75041 0.53367
 O141 O 0.77077 0.47463 1.02487
 O142 O 0.77053 0.52493 0.97451
 O143 O 0.77069 0.52479 1.02498
 O144 O 0.77060 0.47474 0.97440
 O145 O 0.72793 0.47449 0.97478
 O146 O 0.72800 0.52504 1.02487
 O147 O 0.72785 0.52508 0.97479
 O148 O 0.72809 0.47447 1.02486
 Cu149 Cu 0.77494 0.49977 0.99967
 Cu150 Cu 0.72367 0.49977 0.99983
 C151 C 0.74948 0.46595 1.03346
 C152 C 0.74915 0.53362 0.96606
 C153 C 0.74936 0.53349 1.03354
 C154 C 0.74925 0.46602 0.96599
 O155 O 0.47476 1.02452 0.77141
 O156 O 0.52404 0.97302 0.76986
 O157 O 0.52517 1.02341 0.77077
 O158 O 0.47405 0.97394 0.77062
 O159 O 0.47347 0.97472 0.72798
 O160 O 0.52395 1.02492 0.72818
 O161 O 0.52407 0.97451 0.72723
 O162 O 0.47376 1.02499 0.72884
 Cu163 Cu 0.49954 0.99869 0.77494
 Cu164 Cu 0.49877 0.99982 0.72378
 C165 C 0.46569 1.03357 0.75040
 C166 C 0.53256 0.96505 0.74827
 C167 C 0.53325 1.03270 0.74951
 C168 C 0.46510 0.96578 0.74928
 C169 C 0.25035 0.23193 0.27033
 C170 C 0.23094 0.25118 0.27018
 C171 C 0.23090 0.27045 0.25080
 C172 C 0.25032 0.27058 0.23161
 C173 C 0.26974 0.25131 0.23182
 C174 C 0.26974 0.23196 0.25114
 C175 C 0.74914 0.76924 0.26931
 C176 C 0.76847 0.74988 0.26941
 C177 C 0.76851 0.73038 0.25031
 C178 C 0.74916 0.73023 0.23108
 C179 C 0.72976 0.74950 0.23094
 C180 C 0.72970 0.76905 0.25007
 C181 C 0.74981 0.22938 0.73110
 C182 C 0.73032 0.22942 0.75028
 C183 C 0.73015 0.24890 0.76947
 C184 C 0.74940 0.26827 0.76946
 C185 C 0.76879 0.26828 0.75028
 C186 C 0.76899 0.24884 0.73112
 C187 C 0.24794 0.76921 0.73200
 C188 C 0.22881 0.74972 0.73220
 C189 C 0.22904 0.73045 0.75158
 C190 C 0.24837 0.73067 0.77082
 C191 C 0.26748 0.75013 0.77066
 C192 C 0.26728 0.76936 0.75125
 C193 C 0.22973 0.24824 0.73331
 C194 C 0.22946 0.26766 0.75257
 C195 C 0.24889 0.26792 0.77187
 C196 C 0.26850 0.24874 0.77189
 C197 C 0.26864 0.22934 0.75260
 C198 C 0.24928 0.22913 0.73337
 C199 C 0.76798 0.74925 0.72973
 C200 C 0.74860 0.76853 0.72946
 C201 C 0.72914 0.76854 0.74858
 C202 C 0.72908 0.74935 0.76803
 C203 C 0.74849 0.73009 0.76825
 C204 C 0.76793 0.72998 0.74910
 C205 C 0.23009 0.75114 0.26879
 C206 C 0.24941 0.77046 0.26870
 C207 C 0.26882 0.77033 0.24952
 C208 C 0.26899 0.75078 0.23045
 C209 C 0.24976 0.73135 0.23054
 C210 C 0.23021 0.73152 0.24970
 C211 C 0.76957 0.25060 0.27017
 C212 C 0.75027 0.23127 0.27033
 C213 C 0.73091 0.23124 0.25106
 C214 C 0.73086 0.25047 0.23164
 C215 C 0.75017 0.26977 0.23156
 C216 C 0.76952 0.26987 0.25080
 C217 C 0.25013 0.09367 0.40916
 C218 C 0.22848 0.09022 0.42527
 C219 C 0.22828 0.07085 0.44416
 C220 C 0.24990 0.05478 0.44774
 C221 C 0.27167 0.05832 0.43193
 C222 C 0.27170 0.07737 0.41271
 C223 C 0.25019 0.11409 0.38874
 C224 C 0.27313 0.12714 0.38214
 C225 C 0.27321 0.14609 0.36283
 C226 C 0.25028 0.15286 0.34985
 C227 C 0.22730 0.13999 0.35660
 C228 C 0.22730 0.12073 0.37560
 C229 C 0.25031 0.17321 0.32938
 C230 C 0.23379 0.17127 0.30782
 C231 C 0.23368 0.19047 0.28876
 C232 C 0.25036 0.21170 0.29066
 C233 C 0.26701 0.21374 0.31188
 C234 C 0.26686 0.19479 0.33118
 H235 H 0.21173 0.10270 0.42357
 H236 H 0.21132 0.06870 0.45625
 H237 H 0.28852 0.04604 0.43412
 H238 H 0.28852 0.07902 0.40039
 H239 H 0.29107 0.12291 0.39205
 H240 H 0.29137 0.15525 0.35794
 H241 H 0.20916 0.14490 0.34737
 H242 H 0.20932 0.11089 0.37978
 H243 H 0.22117 0.15476 0.30543
 H244 H 0.22079 0.18866 0.27236
 H245 H 0.27989 0.23016 0.31359
 H246 H 0.27947 0.19727 0.34768
 C247 C 0.75068 0.90802 0.40627
 C248 C 0.72770 0.92090 0.41298
 C249 C 0.72766 0.93972 0.43237
 C250 C 0.75066 0.94621 0.44529
 C251 C 0.77368 0.93344 0.43843
 C252 C 0.77365 0.91446 0.41921
 C253 C 0.75065 0.88782 0.38595
 C254 C 0.76384 0.86433 0.38983
 C255 C 0.76358 0.84514 0.37082
 C256 C 0.75032 0.84917 0.34745
 C257 C 0.73731 0.87274 0.34348
 C258 C 0.73735 0.89183 0.36260
 C259 C 0.74996 0.82875 0.32738
 C260 C 0.75424 0.83502 0.30129
 C261 C 0.75411 0.81567 0.28244
 C262 C 0.74940 0.78983 0.28934
 C263 C 0.74485 0.78356 0.31532
 C264 C 0.74529 0.80283 0.33421
 H265 H 0.70967 0.91613 0.40347
 H266 H 0.70963 0.94923 0.43719
 H267 H 0.79171 0.93801 0.44802
 H268 H 0.79168 0.90499 0.41425
 H269 H 0.77407 0.86067 0.40773
 H270 H 0.77394 0.82722 0.37427
 H271 H 0.72679 0.87624 0.32571
 H272 H 0.72720 0.90985 0.35905
 H273 H 0.75808 0.85482 0.29556
 H274 H 0.75772 0.82079 0.26246
 H275 H 0.74086 0.76375 0.32091
 H276 H 0.74161 0.79754 0.35413
 C277 C 0.75099 0.09095 0.59378
 C278 C 0.72796 0.07825 0.58705
 C279 C 0.72785 0.05945 0.56764
 C280 C 0.75083 0.05279 0.55473
 C281 C 0.77389 0.06539 0.56161
 C282 C 0.77395 0.08436 0.58085
 C283 C 0.75106 0.11112 0.61413
 C284 C 0.76435 0.13452 0.61029
 C285 C 0.76421 0.15366 0.62934
 C286 C 0.75097 0.14969 0.65271
 C287 C 0.73783 0.12622 0.65665
 C288 C 0.73776 0.10717 0.63748
 C289 C 0.75073 0.17006 0.67282
 C290 C 0.75507 0.16371 0.69889
 C291 C 0.75498 0.18301 0.71780
 C292 C 0.75025 0.20888 0.71098
 C293 C 0.74568 0.21524 0.68502
 C294 C 0.74610 0.19603 0.66607
 H295 H 0.70996 0.08314 0.59656
 H296 H 0.70978 0.05007 0.56280
 H297 H 0.79191 0.06070 0.55202
 H298 H 0.79201 0.09368 0.58583
 H299 H 0.77458 0.13813 0.59239
 H300 H 0.77464 0.17151 0.62591
 H301 H 0.72732 0.12277 0.67442
 H302 H 0.72753 0.08923 0.64101
 H303 H 0.75889 0.14387 0.70456
 H304 H 0.75859 0.17781 0.73776
 H305 H 0.74165 0.23508 0.67950
 H306 H 0.74238 0.20138 0.64617
 C307 C 0.24827 0.90697 0.59359
 C308 C 0.27123 0.92011 0.58750
 C309 C 0.27148 0.93915 0.56828
 C310 C 0.24869 0.94566 0.55495
 C311 C 0.22569 0.93258 0.56113
 C312 C 0.22552 0.91332 0.58015
 C313 C 0.24804 0.88673 0.61394
 C314 C 0.23547 0.86300 0.60971
 C315 C 0.23546 0.84384 0.62883
 C316 C 0.24773 0.84817 0.65265
 C317 C 0.26014 0.87196 0.65695
 C318 C 0.26042 0.89099 0.63772
 C319 C 0.24764 0.82791 0.67296
 C320 C 0.24191 0.83432 0.69872
 C321 C 0.24178 0.81520 0.71785
 C322 C 0.24774 0.78945 0.71160
 C323 C 0.25361 0.78301 0.68594
 C324 C 0.25338 0.80204 0.66673
 H325 H 0.28908 0.91542 0.59741
 H326 H 0.28950 0.94890 0.56398
 H327 H 0.20783 0.93714 0.55119
 H328 H 0.20751 0.90363 0.58463
 H329 H 0.22594 0.85915 0.59149
 H330 H 0.22560 0.82573 0.62512
 H331 H 0.26990 0.87569 0.67508
 H332 H 0.27008 0.90919 0.64153
 H333 H 0.23718 0.85406 0.70397
 H334 H 0.23702 0.82043 0.73754
 H335 H 0.25848 0.76325 0.68086
 H336 H 0.25812 0.79666 0.64707
 C337 C 0.40873 0.25172 0.09440
 C338 C 0.42564 0.23050 0.09174
 C339 C 0.44454 0.23029 0.07247
 C340 C 0.44733 0.25149 0.05571
 C341 C 0.43078 0.27287 0.05848
 C342 C 0.41153 0.27289 0.07744
 C343 C 0.38825 0.25172 0.11466
 C344 C 0.38079 0.27485 0.12692
 C345 C 0.36144 0.27484 0.14576
 C346 C 0.34932 0.25163 0.15320
 C347 C 0.35693 0.22847 0.14109
 C348 C 0.37595 0.22855 0.12194
 C349 C 0.32885 0.25156 0.17344
 C350 C 0.30791 0.23421 0.17194
 C351 C 0.28886 0.23398 0.19106
 C352 C 0.29013 0.25137 0.21175
 C353 C 0.31074 0.26883 0.21334
 C354 C 0.33005 0.26880 0.19448
 H355 H 0.42453 0.21411 0.10475
 H356 H 0.45723 0.21366 0.07091
 H357 H 0.43238 0.28938 0.04566
 H358 H 0.39860 0.28935 0.07849
 H359 H 0.39004 0.29303 0.12217
 H360 H 0.35585 0.29313 0.15432
 H361 H 0.34838 0.21014 0.14654
 H362 H 0.38081 0.21040 0.11268
 H363 H 0.30599 0.22102 0.15583
 H364 H 0.27292 0.22048 0.18959
 H365 H 0.31196 0.28227 0.22935
 H366 H 0.34608 0.28207 0.19661
 C367 C 0.40713 0.75041 0.90701
 C368 C 0.41914 0.77359 0.91461
 C369 C 0.43829 0.77349 0.93367
 C370 C 0.44596 0.75018 0.94546
 C371 C 0.43401 0.72699 0.93783
 C372 C 0.41477 0.72711 0.91888
 C373 C 0.38668 0.75051 0.88682
 C374 C 0.38529 0.73046 0.86853
 C375 C 0.36596 0.73043 0.84967
 C376 C 0.34762 0.75052 0.84858
 C377 C 0.34907 0.77063 0.86680
 C378 C 0.36834 0.77060 0.88573
 C379 C 0.32704 0.75046 0.82856
 C380 C 0.30176 0.75850 0.83465
 C381 C 0.28243 0.75844 0.81581
 C382 C 0.28798 0.75018 0.79064
 C383 C 0.31308 0.74213 0.78442
 C384 C 0.33249 0.74233 0.80318
 H385 H 0.41399 0.79181 0.90559
 H386 H 0.44722 0.79166 0.93903
 H387 H 0.43937 0.70872 0.94665
 H388 H 0.40562 0.70898 0.91379
 H389 H 0.39930 0.71485 0.86862
 H390 H 0.36521 0.71450 0.83611
 H391 H 0.33544 0.78656 0.86631
 H392 H 0.36867 0.78618 0.89971
 H393 H 0.29683 0.76454 0.85406
 H394 H 0.26311 0.76482 0.82082
 H395 H 0.31762 0.73578 0.76499
 H396 H 0.35182 0.73641 0.79775
 C397 C 0.59210 0.74905 0.09258
 C398 C 0.58342 0.72570 0.08168
 C399 C 0.56450 0.72579 0.06240
 C400 C 0.55387 0.74925 0.05354
 C401 C 0.56254 0.77260 0.06443
 C402 C 0.58140 0.77249 0.08375
 C403 C 0.61226 0.74899 0.11302
 C404 C 0.63177 0.76791 0.11314
 C405 C 0.65074 0.76790 0.13235
 C406 C 0.65069 0.74894 0.15187
 C407 C 0.63118 0.73002 0.15176
 C408 C 0.61218 0.73005 0.13256
 C409 C 0.67096 0.74889 0.17218
 C410 C 0.66467 0.74329 0.19804
 C411 C 0.68378 0.74339 0.21712
 C412 C 0.70946 0.74914 0.21068
 C413 C 0.71584 0.75475 0.18496
 C414 C 0.69679 0.75456 0.16585
 H415 H 0.59153 0.70734 0.08780
 H416 H 0.55830 0.70748 0.05434
 H417 H 0.55465 0.79099 0.05813
 H418 H 0.58738 0.79078 0.09202
 H419 H 0.63255 0.78259 0.09820
 H420 H 0.66532 0.78292 0.13207
 H421 H 0.63076 0.71500 0.16638
 H422 H 0.59725 0.71539 0.13317
 H423 H 0.64491 0.73919 0.20358
 H424 H 0.67859 0.73908 0.23694
 H425 H 0.73558 0.75935 0.17973
 H426 H 0.70232 0.75861 0.14608
 C427 C 0.59216 0.24927 0.90747
 C428 C 0.58126 0.22601 0.91645
 C429 C 0.56251 0.22625 0.93589
 C430 C 0.55420 0.24977 0.94676
 C431 C 0.56509 0.27302 0.93778
 C432 C 0.58387 0.27277 0.91838
 C433 C 0.61219 0.24903 0.88690
 C434 C 0.61215 0.26797 0.86736
 C435 C 0.63115 0.26791 0.84817
 C436 C 0.65062 0.24889 0.84808
 C437 C 0.65058 0.22987 0.86753
 C438 C 0.63160 0.22995 0.88673
 C439 C 0.67100 0.24899 0.82788
 C440 C 0.69683 0.24337 0.83433
 C441 C 0.71600 0.24339 0.81535
 C442 C 0.70974 0.24912 0.78962
 C443 C 0.68407 0.25480 0.78305
 C444 C 0.66483 0.25471 0.80201
 H445 H 0.58698 0.20761 0.90820
 H446 H 0.55443 0.20801 0.94230
 H447 H 0.55918 0.29146 0.94582
 H448 H 0.59216 0.29099 0.91217
 H449 H 0.59729 0.28275 0.86678
 H450 H 0.63080 0.28297 0.83359
 H451 H 0.66515 0.21479 0.86781
 H452 H 0.63233 0.21525 0.90166
 H453 H 0.70226 0.23923 0.85412
 H454 H 0.73575 0.23884 0.82068
 H455 H 0.67896 0.25919 0.76322
 H456 H 0.64508 0.25878 0.79637
 C457 C 0.09276 0.40773 0.24856
 C458 C 0.07577 0.41000 0.26957
 C459 C 0.05692 0.42942 0.26986
 C460 C 0.05440 0.44655 0.24889
 C461 C 0.07123 0.44405 0.22772
 C462 C 0.09045 0.42497 0.22769
 C463 C 0.11295 0.38745 0.24851
 C464 C 0.13892 0.39401 0.24415
 C465 C 0.15810 0.37492 0.24472
 C466 C 0.15151 0.34892 0.24910
 C467 C 0.12550 0.34229 0.25308
 C468 C 0.10640 0.36147 0.25306
 C469 C 0.17175 0.32874 0.24963
 C470 C 0.16973 0.30681 0.23374
 C471 C 0.18909 0.28791 0.23400
 C472 C 0.21039 0.29047 0.25054
 C473 C 0.21226 0.31213 0.26672
 C474 C 0.19320 0.33131 0.26606
 H475 H 0.07733 0.39696 0.28591
 H476 H 0.04413 0.43085 0.28637
 H477 H 0.06975 0.45707 0.21135
 H478 H 0.10332 0.42346 0.21125
 H479 H 0.14438 0.41397 0.24073
 H480 H 0.17805 0.38037 0.24150
 H481 H 0.12007 0.32234 0.25658
 H482 H 0.08645 0.35601 0.25636
 H483 H 0.15337 0.30455 0.22087
 H484 H 0.18747 0.27124 0.22142
 H485 H 0.22862 0.31425 0.27960
 H486 H 0.19500 0.34801 0.27857
 C487 C 0.90594 0.40682 0.75031
 C488 C 0.91180 0.42016 0.77320
 C489 C 0.93098 0.43918 0.77344
 C490 C 0.94451 0.44545 0.75073
 C491 C 0.93852 0.43219 0.72779
 C492 C 0.91952 0.41297 0.72762
 C493 C 0.88572 0.38651 0.75013
 C494 C 0.89015 0.36274 0.73771
 C495 C 0.87119 0.34349 0.73780
 C496 C 0.84734 0.34776 0.75006
 C497 C 0.84284 0.37160 0.76232
 C498 C 0.86190 0.39074 0.76248
 C499 C 0.82722 0.32739 0.75010
 C500 C 0.80137 0.33364 0.74448
 C501 C 0.78242 0.31440 0.74440
 C502 C 0.78896 0.28869 0.75026
 C503 C 0.81470 0.28240 0.75604
 C504 C 0.83372 0.30157 0.75580
 H505 H 0.90178 0.41561 0.79101
 H506 H 0.93513 0.44907 0.79141
 H507 H 0.94862 0.43656 0.70998
 H508 H 0.91520 0.40312 0.70967
 H509 H 0.90842 0.35892 0.72822
 H510 H 0.87505 0.32534 0.72804
 H511 H 0.82468 0.37529 0.77207
 H512 H 0.85793 0.40897 0.77202
 H513 H 0.79591 0.35335 0.73978
 H514 H 0.76266 0.31950 0.73969
 H515 H 0.82000 0.26266 0.76078
 H516 H 0.85346 0.29630 0.76045
 C517 C 0.09116 0.59217 0.75237
 C518 C 0.08354 0.58005 0.77549
 C519 C 0.06437 0.56099 0.77538
 C520 C 0.05249 0.55353 0.75214
 C521 C 0.06011 0.56562 0.72903
 C522 C 0.07916 0.58476 0.72915
 C523 C 0.11155 0.61243 0.75242
 C524 C 0.12980 0.61372 0.73233
 C525 C 0.14885 0.63287 0.73225
 C526 C 0.15019 0.65114 0.75232
 C527 C 0.13201 0.64980 0.77246
 C528 C 0.11289 0.63071 0.77250
 C529 C 0.17046 0.67150 0.75220
 C530 C 0.16468 0.69689 0.76025
 C531 C 0.18376 0.71601 0.76011
 C532 C 0.20886 0.71012 0.75183
 C533 C 0.21474 0.68494 0.74367
 C534 C 0.19575 0.66575 0.74394
 H535 H 0.09265 0.58502 0.79365
 H536 H 0.05901 0.55195 0.79350
 H537 H 0.05122 0.56043 0.71081
 H538 H 0.08426 0.59401 0.71107
 H539 H 0.12952 0.59976 0.71674
 H540 H 0.16236 0.63354 0.71628
 H541 H 0.13270 0.66339 0.78837
 H542 H 0.09896 0.63045 0.78811
 H543 H 0.14533 0.70206 0.76634
 H544 H 0.17897 0.73544 0.76638
 H545 H 0.23406 0.68018 0.73712
 H546 H 0.20093 0.64634 0.73795
 C547 C 0.90736 0.59308 0.25095
 C548 C 0.92106 0.58708 0.27362
 C549 C 0.94029 0.56801 0.27344
 C550 C 0.94638 0.55477 0.25052
 C551 C 0.93276 0.56092 0.22781
 C552 C 0.91336 0.57978 0.22806
 C553 C 0.88686 0.61316 0.25112
 C554 C 0.86310 0.60867 0.23877
 C555 C 0.84379 0.62763 0.23886
 C556 C 0.84797 0.65154 0.25106
 C557 C 0.87175 0.65607 0.26336
 C558 C 0.89096 0.63700 0.26351
 C559 C 0.82760 0.67174 0.25088
 C560 C 0.83383 0.69759 0.24511
 C561 C 0.81458 0.71660 0.24471
 C562 C 0.78889 0.71012 0.25042
 C563 C 0.78263 0.68437 0.25634
 C564 C 0.80180 0.66529 0.25640
 H565 H 0.91666 0.59690 0.29157
 H566 H 0.95045 0.56373 0.29124
 H567 H 0.93698 0.55104 0.20984
 H568 H 0.90326 0.58422 0.21026
 H569 H 0.85937 0.59038 0.22926
 H570 H 0.82569 0.62374 0.22908
 H571 H 0.87536 0.67428 0.27307
 H572 H 0.90917 0.64102 0.27301
 H573 H 0.85352 0.70301 0.24052
 H574 H 0.81967 0.73637 0.23993
 H575 H 0.76291 0.67912 0.26098
 H576 H 0.79655 0.64555 0.26115
 C577 C 0.09195 0.24818 0.59491
 C578 C 0.08376 0.22492 0.58344
 C579 C 0.06493 0.22509 0.56406
 C580 C 0.05392 0.24854 0.55565
 C581 C 0.06210 0.27179 0.56711
 C582 C 0.08085 0.27160 0.58655
 C583 C 0.11208 0.24805 0.61542
 C584 C 0.13112 0.26744 0.61613
 C585 C 0.15007 0.26735 0.63536
 C586 C 0.15051 0.24783 0.65432
 C587 C 0.13146 0.22845 0.65365
 C588 C 0.11246 0.22857 0.63443
 C589 C 0.17083 0.24767 0.67461
 C590 C 0.16480 0.24099 0.70028
 C591 C 0.18396 0.24103 0.71934
 C592 C 0.20942 0.24780 0.71306
 C593 C 0.21554 0.25451 0.68754
 C594 C 0.19646 0.25436 0.66846
 H595 H 0.09219 0.20658 0.58918
 H596 H 0.05912 0.20685 0.55556
 H597 H 0.05390 0.29017 0.56118
 H598 H 0.08643 0.28981 0.59525
 H599 H 0.13157 0.28255 0.60161
 H600 H 0.16426 0.28274 0.63552
 H601 H 0.13142 0.21300 0.66781
 H602 H 0.09791 0.21352 0.63461
 H603 H 0.14519 0.23610 0.70572
 H604 H 0.17894 0.23594 0.73902
 H605 H 0.23509 0.26000 0.68246
 H606 H 0.20183 0.25928 0.64884
 C607 C 0.90681 0.74973 0.59211
 C608 C 0.91019 0.77141 0.57593
 C609 C 0.92951 0.77161 0.55705
 C610 C 0.94558 0.74997 0.55357
 C611 C 0.94214 0.72820 0.56947
 C612 C 0.92315 0.72817 0.58868
 C613 C 0.88638 0.74962 0.61242
 C614 C 0.87337 0.72661 0.61893
 C615 C 0.85437 0.72647 0.63811
 C616 C 0.84751 0.74942 0.65104
 C617 C 0.86037 0.77247 0.64439
 C618 C 0.87967 0.77253 0.62551
 C619 C 0.82707 0.74933 0.67132
 C620 C 0.82888 0.76580 0.69293
 C621 C 0.80957 0.76588 0.71180
 C622 C 0.78836 0.74923 0.70965
 C623 C 0.78646 0.73261 0.68839
 C624 C 0.80553 0.73279 0.66927
 H625 H 0.89768 0.78815 0.57756
 H626 H 0.93159 0.78856 0.54488
 H627 H 0.95444 0.71134 0.56735
 H628 H 0.92155 0.71134 0.60106
 H629 H 0.87766 0.70865 0.60904
 H630 H 0.84522 0.70825 0.64294
 H631 H 0.85538 0.79062 0.65359
 H632 H 0.88949 0.79056 0.62139
 H633 H 0.84536 0.77841 0.69549
 H634 H 0.81126 0.77874 0.72824
 H635 H 0.77006 0.71974 0.68649
 H636 H 0.80316 0.72023 0.65272
 C637 C 0.09181 0.75094 0.40661
 C638 C 0.08291 0.77429 0.41739
 C639 C 0.06398 0.77418 0.43666
 C640 C 0.05354 0.75071 0.44563
 C641 C 0.06244 0.72736 0.43486
 C642 C 0.08133 0.72748 0.41556
 C643 C 0.11200 0.75104 0.38618
 C644 C 0.13171 0.73227 0.38617
 C645 C 0.15075 0.73239 0.36703
 C646 C 0.15057 0.75130 0.34747
 C647 C 0.13083 0.77005 0.34744
 C648 C 0.11176 0.76991 0.36657
 C649 C 0.17097 0.75152 0.32727
 C650 C 0.16475 0.75700 0.30136
 C651 C 0.18398 0.75703 0.28238
 C652 C 0.20969 0.75152 0.28897
 C653 C 0.21599 0.74607 0.31475
 C654 C 0.19683 0.74613 0.33375
 H655 H 0.09085 0.79266 0.41118
 H656 H 0.05761 0.79250 0.44461
 H657 H 0.05471 0.70895 0.44125
 H658 H 0.08749 0.70918 0.40740
 H659 H 0.13261 0.71764 0.40115
 H660 H 0.16552 0.71750 0.36742
 H661 H 0.13030 0.78503 0.33279
 H662 H 0.09668 0.78446 0.36587
 H663 H 0.14497 0.76089 0.29569
 H664 H 0.17883 0.76121 0.26251
 H665 H 0.23575 0.74164 0.32011
 H666 H 0.20230 0.74217 0.35356
 C667 C 0.90815 0.25032 0.40814
 C668 C 0.92465 0.27172 0.41148
 C669 C 0.94353 0.27165 0.43081
 C670 C 0.94670 0.24999 0.44693
 C671 C 0.93045 0.22851 0.44354
 C672 C 0.91125 0.22876 0.42455
 C673 C 0.88785 0.25044 0.38768
 C674 C 0.88098 0.22745 0.37485
 C675 C 0.86174 0.22750 0.35590
 C676 C 0.84912 0.25061 0.34890
 C677 C 0.85617 0.27365 0.36153
 C678 C 0.87510 0.27353 0.38080
 C679 C 0.82869 0.25067 0.32859
 C680 C 0.80733 0.26754 0.33035
 C681 C 0.78826 0.26766 0.31124
 C682 C 0.78994 0.25064 0.29027
 C683 C 0.81099 0.23368 0.28839
 C684 C 0.83031 0.23382 0.30725
 H685 H 0.92327 0.28846 0.39894
 H686 H 0.95596 0.28839 0.43287
 H687 H 0.93232 0.21164 0.45588
 H688 H 0.89861 0.21215 0.42302
 H689 H 0.89061 0.20935 0.37925
 H690 H 0.85660 0.20929 0.34694
 H691 H 0.84722 0.29192 0.35642
 H692 H 0.87952 0.29157 0.39046
 H693 H 0.80510 0.28042 0.34668
 H694 H 0.77200 0.28080 0.31292
 H695 H 0.81254 0.22053 0.27216
 H696 H 0.84666 0.22094 0.30490
 C697 C 0.24946 0.40691 0.90872
 C698 C 0.22644 0.41951 0.91577
 C699 C 0.22653 0.43865 0.93484
 C700 C 0.24971 0.44575 0.94710
 C701 C 0.27277 0.43323 0.93993
 C702 C 0.27262 0.41392 0.92103
 C703 C 0.24932 0.38649 0.88861
 C704 C 0.26315 0.36333 0.89230
 C705 C 0.26291 0.34402 0.87340
 C706 C 0.24903 0.34760 0.85033
 C707 C 0.23530 0.37080 0.84658
 C708 C 0.23535 0.39000 0.86558
 C709 C 0.24889 0.32719 0.83023
 C710 C 0.25239 0.33369 0.80408
 C711 C 0.25249 0.31443 0.78516
 C712 C 0.24878 0.28840 0.79202
 C713 C 0.24509 0.28188 0.81808
 C714 C 0.24530 0.30109 0.83706
 H715 H 0.20828 0.41430 0.90676
 H716 H 0.20845 0.44794 0.93992
 H717 H 0.29094 0.43825 0.94902
 H718 H 0.29068 0.40469 0.91578
 H719 H 0.27391 0.36003 0.90996
 H720 H 0.27382 0.32640 0.87668
 H721 H 0.22429 0.37395 0.82905
 H722 H 0.22470 0.40775 0.86215
 H723 H 0.25547 0.35362 0.79835
 H724 H 0.25556 0.31976 0.76515
 H725 H 0.24203 0.26189 0.82368
 H726 H 0.24229 0.29561 0.85704
 C727 C 0.74975 0.40727 0.09251
 C728 C 0.72825 0.41040 0.07612
 C729 C 0.72808 0.42960 0.05708
 C730 C 0.74958 0.44578 0.05368
 C731 C 0.77118 0.44258 0.06979
 C732 C 0.77117 0.42371 0.08915
 C733 C 0.74982 0.38701 0.11301
 C734 C 0.77282 0.37409 0.11975
 C735 C 0.77293 0.35526 0.13914
 C736 C 0.74997 0.34851 0.15203
 C737 C 0.72694 0.36127 0.14514
 C738 C 0.72690 0.38041 0.12605
 C739 C 0.75005 0.32827 0.17252
 C740 C 0.73359 0.33037 0.19410
 C741 C 0.73351 0.31123 0.21319
 C742 C 0.75016 0.28993 0.21126
 C743 C 0.76677 0.28776 0.19003
 C744 C 0.76658 0.30664 0.17070
 H745 H 0.71163 0.39779 0.07772
 H746 H 0.71127 0.43152 0.04474
 H747 H 0.78792 0.45499 0.06772
 H748 H 0.78784 0.42230 0.10171
 H749 H 0.79078 0.37832 0.10989
 H750 H 0.79113 0.34618 0.14416
 H751 H 0.70880 0.35633 0.15433
 H752 H 0.70889 0.39018 0.12172
 H753 H 0.72099 0.34695 0.19646
 H754 H 0.72068 0.31313 0.22962
 H755 H 0.77964 0.27128 0.18833
 H756 H 0.77914 0.30408 0.15417
 C757 C 0.74887 0.59249 0.90720
 C758 C 0.72744 0.58924 0.92364
 C759 C 0.72744 0.56996 0.94260
 C760 C 0.74906 0.55383 0.94589
 C761 C 0.77058 0.55715 0.92972
 C762 C 0.77040 0.57609 0.91044
 C763 C 0.74877 0.61284 0.88680
 C764 C 0.77167 0.62586 0.88007
 C765 C 0.77163 0.64476 0.86074
 C766 C 0.74861 0.65147 0.84790
 C767 C 0.72566 0.63862 0.85479
 C768 C 0.72578 0.61942 0.87382
 C769 C 0.74854 0.67173 0.82743
 C770 C 0.73210 0.66958 0.80584
 C771 C 0.73193 0.68868 0.78673
 C772 C 0.74849 0.71000 0.78863
 C773 C 0.76505 0.71226 0.80989
 C774 C 0.76494 0.69340 0.82925
 H775 H 0.71074 0.60180 0.92213
 H776 H 0.71068 0.56796 0.95499
 H777 H 0.78740 0.54479 0.93170
 H778 H 0.78703 0.57761 0.89784
 H779 H 0.78967 0.62165 0.88989
 H780 H 0.78976 0.65391 0.85571
 H781 H 0.70748 0.64352 0.84564
 H782 H 0.70784 0.60957 0.87814
 H783 H 0.71958 0.65297 0.80349
 H784 H 0.71913 0.68673 0.77028
 H785 H 0.77783 0.72876 0.81158
 H786 H 0.77747 0.69601 0.84578
 C787 C 0.25071 0.59212 0.09401
 C788 C 0.22761 0.57953 0.08730
 C789 C 0.22742 0.56061 0.06801
 C790 C 0.25038 0.55371 0.05520
 C791 C 0.27351 0.56621 0.06204
 C792 C 0.27364 0.58530 0.08116
 C793 C 0.25086 0.61239 0.11426
 C794 C 0.26433 0.63568 0.11034
 C795 C 0.26425 0.65493 0.12929
 C796 C 0.25091 0.65117 0.15263
 C797 C 0.23761 0.62781 0.15665
 C798 C 0.23747 0.60866 0.13759
 C799 C 0.25070 0.67167 0.17263
 C800 C 0.25488 0.66545 0.19875
 C801 C 0.25480 0.68487 0.21754
 C802 C 0.25022 0.71073 0.21055
 C803 C 0.24583 0.71695 0.18452
 C804 C 0.24624 0.69761 0.16569
 H805 H 0.20962 0.58459 0.09674
 H806 H 0.20930 0.55131 0.06320
 H807 H 0.29152 0.56134 0.05253
 H808 H 0.29176 0.59454 0.08613
 H809 H 0.27463 0.63913 0.09245
 H810 H 0.27481 0.67269 0.12580
 H811 H 0.22701 0.62453 0.17441
 H812 H 0.22711 0.59080 0.14118
 H813 H 0.25857 0.64563 0.20456
 H814 H 0.25827 0.67977 0.23755
 H815 H 0.24193 0.73677 0.17885
 H816 H 0.24265 0.70287 0.14574
 C817 C 0.40853 0.09251 0.75191
 C818 C 0.41715 0.08216 0.72833
 C819 C 0.43603 0.06280 0.72783
 C820 C 0.44673 0.05311 0.75095
 C821 C 0.43801 0.06348 0.77457
 C822 C 0.41921 0.08296 0.77501
 C823 C 0.38835 0.11305 0.75235
 C824 C 0.36898 0.11298 0.77141
 C825 C 0.34979 0.13206 0.77159
 C826 C 0.34942 0.15161 0.75265
 C827 C 0.36887 0.15177 0.73368
 C828 C 0.38813 0.13275 0.73357
 C829 C 0.32871 0.17159 0.75255
 C830 C 0.33434 0.19751 0.74627
 C831 C 0.31480 0.21623 0.74610
 C832 C 0.28933 0.20939 0.75230
 C833 C 0.28361 0.18364 0.75867
 C834 C 0.30308 0.16488 0.75869
 H835 H 0.40902 0.08877 0.71020
 H836 H 0.44207 0.05533 0.70922
 H837 H 0.44578 0.05669 0.79280
 H838 H 0.41327 0.09077 0.79349
 H839 H 0.36841 0.09794 0.78599
 H840 H 0.33530 0.13157 0.78668
 H841 H 0.36901 0.16638 0.71866
 H842 H 0.40295 0.13358 0.71882
 H843 H 0.35393 0.20340 0.74184
 H844 H 0.31951 0.23609 0.74128
 H845 H 0.26407 0.17813 0.76375
 H846 H 0.29801 0.14507 0.76326
 C847 C 0.40637 0.90858 0.24924
 C848 C 0.41236 0.92181 0.27216
 C849 C 0.43161 0.94077 0.27242
 C850 C 0.44509 0.94708 0.24969
 C851 C 0.43898 0.93393 0.22672
 C852 C 0.41991 0.91477 0.22653
 C853 C 0.38608 0.88833 0.24905
 C854 C 0.39038 0.86459 0.23653
 C855 C 0.37137 0.84538 0.23664
 C856 C 0.34758 0.84967 0.24903
 C857 C 0.34320 0.87348 0.26138
 C858 C 0.36232 0.89258 0.26152
 C859 C 0.32741 0.82933 0.24912
 C860 C 0.30153 0.83565 0.24369
 C861 C 0.28254 0.81645 0.24367
 C862 C 0.28905 0.79071 0.24942
 C863 C 0.31482 0.78435 0.25501
 C864 C 0.33389 0.80348 0.25470
 H865 H 0.40237 0.91724 0.28998
 H866 H 0.43584 0.95057 0.29041
 H867 H 0.44904 0.93833 0.20890
 H868 H 0.41551 0.90501 0.20856
 H869 H 0.40860 0.86075 0.22695
 H870 H 0.37514 0.82726 0.22681
 H871 H 0.32510 0.87719 0.27123
 H872 H 0.35844 0.91078 0.27114
 H873 H 0.29609 0.85539 0.23908
 H874 H 0.26275 0.82161 0.23911
 H875 H 0.32010 0.76458 0.25967
 H876 H 0.35364 0.79815 0.25921
 C877 C 0.59222 0.09328 0.25157
 C878 C 0.58912 0.07647 0.27279
 C879 C 0.56977 0.05759 0.27276
 C880 C 0.55338 0.05476 0.25132
 C881 C 0.55650 0.07137 0.23006
 C882 C 0.57551 0.09056 0.23027
 C883 C 0.61277 0.11351 0.25160
 C884 C 0.62532 0.12060 0.22854
 C885 C 0.64435 0.13977 0.22847
 C886 C 0.65170 0.15211 0.25154
 C887 C 0.63935 0.14485 0.27465
 C888 C 0.62001 0.12597 0.27464
 C889 C 0.67212 0.17244 0.25147
 C890 C 0.67066 0.19369 0.26847
 C891 C 0.68988 0.21268 0.26845
 C892 C 0.71065 0.21100 0.25120
 C893 C 0.71219 0.19008 0.23408
 C894 C 0.69324 0.17085 0.23435
 H895 H 0.60189 0.07758 0.28931
 H896 H 0.56793 0.04489 0.28933
 H897 H 0.54395 0.06979 0.21338
 H898 H 0.57685 0.10346 0.21383
 H899 H 0.62065 0.11119 0.21046
 H900 H 0.65309 0.14508 0.21022
 H901 H 0.64473 0.15358 0.29287
 H902 H 0.61056 0.12137 0.29273
 H903 H 0.65450 0.19590 0.28156
 H904 H 0.68845 0.22885 0.28169
 H905 H 0.72826 0.18854 0.22074
 H906 H 0.69534 0.15458 0.22136
 C907 C 0.59089 0.90575 0.74690
 C908 C 0.58810 0.92279 0.72592
 C909 C 0.56888 0.94187 0.72618
 C910 C 0.55252 0.94458 0.74769
 C911 C 0.55548 0.92762 0.76875
 C912 C 0.57433 0.90821 0.76824
 C913 C 0.61114 0.88553 0.74665
 C914 C 0.60480 0.85961 0.75185
 C915 C 0.62397 0.84051 0.75173
 C916 C 0.64984 0.84713 0.74694
 C917 C 0.65622 0.87307 0.74191
 C918 C 0.63696 0.89209 0.74150
 C919 C 0.67017 0.82701 0.74733
 C920 C 0.69221 0.83011 0.76287
 C921 C 0.71127 0.81092 0.76350
 C922 C 0.70876 0.78869 0.74821
 C923 C 0.68693 0.78565 0.73248
 C924 C 0.66759 0.80457 0.73225
 H925 H 0.60062 0.92113 0.70923
 H926 H 0.56707 0.95475 0.70974
 H927 H 0.54306 0.92922 0.78552
 H928 H 0.57626 0.89534 0.78467
 H929 H 0.58497 0.85415 0.75577
 H930 H 0.61869 0.82061 0.75576
 H931 H 0.67606 0.87852 0.73806
 H932 H 0.64227 0.91200 0.73758
 H933 H 0.69446 0.84721 0.77475
 H934 H 0.72806 0.81342 0.77575
 H935 H 0.68485 0.76855 0.72055
 H936 H 0.65080 0.80190 0.72005
 C937 C 0.75014 0.90655 0.59088
 C938 C 0.77355 0.91550 0.58040
 C939 C 0.77370 0.93485 0.56149
 C940 C 0.75038 0.94567 0.55241
 C941 C 0.72694 0.93655 0.56285
 C942 C 0.72685 0.91734 0.58189
 C943 C 0.75000 0.88611 0.61116
 C944 C 0.73075 0.86691 0.61138
 C945 C 0.73048 0.84785 0.63057
 C946 C 0.74955 0.84741 0.64992
 C947 C 0.76888 0.86652 0.64962
 C948 C 0.76905 0.88568 0.63053
 C949 C 0.74926 0.82715 0.67036
 C950 C 0.75600 0.83327 0.69598
 C951 C 0.75584 0.81420 0.71514
 C952 C 0.74871 0.78876 0.70910
 C953 C 0.74187 0.78251 0.68368
 C954 C 0.74223 0.80151 0.66443
 H955 H 0.79182 0.90731 0.58657
 H956 H 0.79217 0.94118 0.55392
 H957 H 0.70855 0.94439 0.55652
 H958 H 0.70849 0.91121 0.58984
 H959 H 0.71597 0.86646 0.59657
 H960 H 0.71514 0.83361 0.63039
 H961 H 0.78405 0.86657 0.66404
 H962 H 0.78397 0.90035 0.63114
 H963 H 0.76112 0.85288 0.70130
 H964 H 0.76126 0.81926 0.73471
 H965 H 0.73635 0.76290 0.67876
 H966 H 0.73732 0.79603 0.64485
 C967 C 0.25018 0.40798 0.09296
 C968 C 0.22689 0.41937 0.08486
 C969 C 0.22681 0.43831 0.06554
 C970 C 0.25011 0.44662 0.05412
 C971 C 0.27345 0.43522 0.06248
 C972 C 0.27343 0.41599 0.08152
 C973 C 0.25021 0.38779 0.11332
 C974 C 0.26415 0.36468 0.10989
 C975 C 0.26399 0.34554 0.12902
 C976 C 0.25023 0.34935 0.15210
 C977 C 0.23646 0.37255 0.15564
 C978 C 0.23628 0.39151 0.13633
 C979 C 0.25024 0.32918 0.17246
 C980 C 0.25521 0.33579 0.19831
 C981 C 0.25546 0.31671 0.21748
 C982 C 0.25025 0.29083 0.21119
 C983 C 0.24506 0.28421 0.18543
 C984 C 0.24528 0.30320 0.16616
 H985 H 0.20869 0.41335 0.09328
 H986 H 0.20842 0.44654 0.05973
 H987 H 0.29181 0.44100 0.05423
 H988 H 0.29165 0.40760 0.08759
 H989 H 0.27490 0.36131 0.09225
 H990 H 0.27488 0.32787 0.12594
 H991 H 0.22558 0.37584 0.17322
 H992 H 0.22552 0.40924 0.13949
 H993 H 0.25932 0.35566 0.20358
 H994 H 0.25978 0.32209 0.23723
 H995 H 0.24083 0.26434 0.18029
 H996 H 0.24119 0.29768 0.14640
 C997 C 0.24970 0.09132 0.59400
 C998 C 0.22671 0.08472 0.58103
 C999 C 0.22657 0.06554 0.56199
 C1000 C 0.24957 0.05286 0.55479
 C1001 C 0.27265 0.05970 0.56747
 C1002 C 0.27263 0.07837 0.58702
 C1003 C 0.24974 0.11155 0.61465
 C1004 C 0.27168 0.12705 0.61897
 C1005 C 0.27181 0.14577 0.63846
 C1006 C 0.24977 0.15007 0.65383
 C1007 C 0.22774 0.13478 0.64931
 C1008 C 0.22784 0.11561 0.63027
 C1009 C 0.24975 0.17038 0.67439
 C1010 C 0.23481 0.16733 0.69697
 C1011 C 0.23445 0.18655 0.71596
 C1012 C 0.24953 0.20885 0.71311
 C1013 C 0.26476 0.21194 0.69097
 C1014 C 0.26462 0.19308 0.67163
 H1015 H 0.20874 0.09459 0.58526
 H1016 H 0.20841 0.06106 0.55257
 H1017 H 0.29076 0.05028 0.56271
 H1018 H 0.29065 0.08233 0.59686
 H1019 H 0.28881 0.12498 0.60716
 H1020 H 0.28937 0.15670 0.64154
 H1021 H 0.21018 0.13770 0.66030
 H1022 H 0.21069 0.10385 0.62802
 H1023 H 0.22358 0.14998 0.70023
 H1024 H 0.22268 0.18391 0.73306
 H1025 H 0.27641 0.22918 0.68852
 H1026 H 0.27591 0.19656 0.65439
 C1027 C 0.24911 0.90851 0.40756
 C1028 C 0.22778 0.91140 0.42423
 C1029 C 0.22769 0.93047 0.44339
 C1030 C 0.24912 0.94677 0.44671
 C1031 C 0.27053 0.94384 0.43030
 C1032 C 0.27043 0.92513 0.41080
 C1033 C 0.24917 0.88828 0.38698
 C1034 C 0.27228 0.87587 0.37968
 C1035 C 0.27237 0.85706 0.36029
 C1036 C 0.24929 0.84974 0.34793
 C1037 C 0.22615 0.86200 0.35535
 C1038 C 0.22612 0.88114 0.37443
 C1039 C 0.24936 0.82939 0.32748
 C1040 C 0.23207 0.83077 0.30647
 C1041 C 0.23197 0.81153 0.28750
 C1042 C 0.24943 0.79082 0.28890
 C1043 C 0.26686 0.78939 0.30954
 C1044 C 0.26669 0.80835 0.32878
 H1045 H 0.21123 0.89868 0.42278
 H1046 H 0.21101 0.93216 0.45593
 H1047 H 0.28721 0.95634 0.43226
 H1048 H 0.28697 0.92398 0.39805
 H1049 H 0.29037 0.88045 0.38912
 H1050 H 0.29066 0.84843 0.35487
 H1051 H 0.20791 0.85665 0.34663
 H1052 H 0.20799 0.89049 0.37914
 H1053 H 0.21880 0.84687 0.30446
 H1054 H 0.21848 0.81290 0.27154
 H1055 H 0.28036 0.77338 0.31090
 H1056 H 0.27992 0.80626 0.34485
 C1057 C 0.75076 0.09311 0.40816
 C1058 C 0.72789 0.07984 0.41431
 C1059 C 0.72783 0.06070 0.43343
 C1060 C 0.75073 0.05425 0.44660
 C1061 C 0.77363 0.06748 0.44037
 C1062 C 0.77361 0.08681 0.42144
 C1063 C 0.75077 0.11342 0.38791
 C1064 C 0.76332 0.13715 0.39213
 C1065 C 0.76316 0.15637 0.37309
 C1066 C 0.75071 0.15210 0.34935
 C1067 C 0.73831 0.12831 0.34506
 C1068 C 0.73821 0.10920 0.36421
 C1069 C 0.75065 0.17240 0.32912
 C1070 C 0.75615 0.16604 0.30330
 C1071 C 0.75620 0.18521 0.28424
 C1072 C 0.75041 0.21096 0.29063
 C1073 C 0.74475 0.21735 0.31634
 C1074 C 0.74504 0.19826 0.33548
 H1075 H 0.70996 0.08449 0.40452
 H1076 H 0.70989 0.05085 0.43777
 H1077 H 0.79157 0.06297 0.45020
 H1078 H 0.79155 0.09661 0.41690
 H1079 H 0.77298 0.14095 0.41031
 H1080 H 0.77302 0.17448 0.37679
 H1081 H 0.72841 0.12462 0.32699
 H1082 H 0.72857 0.09100 0.36040
 H1083 H 0.76079 0.14630 0.29796
 H1084 H 0.76081 0.18003 0.26449
 H1085 H 0.74004 0.23712 0.32152
 H1086 H 0.74048 0.20360 0.35519
 C1087 C 0.59161 0.74957 0.90709
 C1088 C 0.58271 0.72619 0.91780
 C1089 C 0.56365 0.72618 0.93697
 C1090 C 0.55308 0.74961 0.94611
 C1091 C 0.56211 0.77302 0.93541
 C1092 C 0.58104 0.77297 0.91612
 C1093 C 0.61183 0.74957 0.88660
 C1094 C 0.63103 0.76882 0.88606
 C1095 C 0.64994 0.76889 0.86676
 C1096 C 0.65025 0.74961 0.84759
 C1097 C 0.63111 0.73032 0.84817
 C1098 C 0.61210 0.73034 0.86738
 C1099 C 0.67047 0.74962 0.82712
 C1100 C 0.66436 0.74250 0.80158
 C1101 C 0.68341 0.74236 0.78242
 C1102 C 0.70883 0.74956 0.78836
 C1103 C 0.71505 0.75678 0.81369
 C1104 C 0.69609 0.75672 0.83293
 H1105 H 0.59072 0.70783 0.91162
 H1106 H 0.55738 0.70773 0.94471
 H1107 H 0.55446 0.79149 0.94176
 H1108 H 0.58712 0.79132 0.90803
 H1109 H 0.63162 0.78375 0.90072
 H1110 H 0.66418 0.78423 0.86673
 H1111 H 0.63094 0.71499 0.83392
 H1112 H 0.59744 0.71540 0.86700
 H1113 H 0.64480 0.73729 0.79633
 H1114 H 0.67834 0.73665 0.76294
 H1115 H 0.73463 0.76236 0.81856
 H1116 H 0.70158 0.76191 0.85243
 C1117 C 0.09328 0.24962 0.40856
 C1118 C 0.08165 0.27286 0.41665
 C1119 C 0.06262 0.27275 0.43580
 C1120 C 0.05466 0.24937 0.44722
 C1121 C 0.06621 0.22611 0.43910
 C1122 C 0.08535 0.22624 0.42002
 C1123 C 0.11359 0.24980 0.38824
 C1124 C 0.11448 0.23025 0.36937
 C1125 C 0.13352 0.23049 0.35022
 C1126 C 0.15208 0.25034 0.34943
 C1127 C 0.15119 0.26989 0.36828
 C1128 C 0.13220 0.26960 0.38748
 C1129 C 0.17230 0.25065 0.32904
 C1130 C 0.19779 0.25804 0.33496
 C1131 C 0.21678 0.25836 0.31578
 C1132 C 0.21066 0.25117 0.29042
 C1133 C 0.18534 0.24374 0.28437
 C1134 C 0.16628 0.24355 0.30349
 H1135 H 0.08701 0.29116 0.40793
 H1136 H 0.05400 0.29099 0.44151
 H1137 H 0.06059 0.20779 0.44760
 H1138 H 0.09417 0.20804 0.41450
 H1139 H 0.10026 0.21488 0.36923
 H1140 H 0.13385 0.21498 0.33617
 H1141 H 0.16501 0.28561 0.36805
 H1142 H 0.13226 0.28478 0.40189
 H1143 H 0.20314 0.26326 0.35449
 H1144 H 0.23629 0.26412 0.32070
 H1145 H 0.18039 0.23809 0.26484
 H1146 H 0.14678 0.23811 0.29822
 C1147 C 0.59300 0.25097 0.09296
 C1148 C 0.58265 0.22756 0.08380
 C1149 C 0.56361 0.22751 0.06463
 C1150 C 0.55422 0.25092 0.05417
 C1151 C 0.56458 0.27436 0.06344
 C1152 C 0.58375 0.27436 0.08250
 C1153 C 0.61333 0.25096 0.11333
 C1154 C 0.61339 0.26990 0.13283
 C1155 C 0.63245 0.26983 0.15200
 C1156 C 0.65188 0.25074 0.15222
 C1157 C 0.65179 0.23178 0.13274
 C1158 C 0.63281 0.23193 0.11351
 C1159 C 0.67214 0.25061 0.17265
 C1160 C 0.69786 0.24403 0.16663
 C1161 C 0.71686 0.24383 0.18583
 C1162 C 0.71058 0.25041 0.21133
 C1163 C 0.68502 0.25703 0.21747
 C1164 C 0.66595 0.25705 0.19834
 H1165 H 0.58901 0.20920 0.09171
 H1166 H 0.55613 0.20902 0.05820
 H1167 H 0.55803 0.29282 0.05588
 H1168 H 0.59156 0.29274 0.08882
 H1169 H 0.59851 0.28466 0.13348
 H1170 H 0.63211 0.28491 0.16651
 H1171 H 0.66627 0.21661 0.13249
 H1172 H 0.63356 0.21724 0.09862
 H1173 H 0.70339 0.23933 0.14701
 H1174 H 0.73652 0.23863 0.18081
 H1175 H 0.67989 0.26216 0.23710
 H1176 H 0.64629 0.26183 0.20373
 C1177 C 0.40745 0.24998 0.90925
 C1178 C 0.42195 0.27249 0.91414
 C1179 C 0.44106 0.27265 0.93325
 C1180 C 0.44636 0.25024 0.94774
 C1181 C 0.43202 0.22769 0.94282
 C1182 C 0.41270 0.22760 0.92391
 C1183 C 0.38700 0.24984 0.88896
 C1184 C 0.38263 0.22761 0.87386
 C1185 C 0.36334 0.22743 0.85494
 C1186 C 0.34817 0.24956 0.85045
 C1187 C 0.35256 0.27183 0.86533
 C1188 C 0.37164 0.27193 0.88448
 C1189 C 0.32779 0.24937 0.83033
 C1190 C 0.32556 0.27001 0.81272
 C1191 C 0.30646 0.26970 0.79361
 C1192 C 0.28902 0.24897 0.79206
 C1193 C 0.29107 0.22846 0.80977
 C1194 C 0.31042 0.22855 0.82860
 H1195 H 0.41882 0.28994 0.90294
 H1196 H 0.45191 0.29028 0.93646
 H1197 H 0.43552 0.21016 0.95379
 H1198 H 0.40164 0.21006 0.92105
 H1199 H 0.39437 0.21042 0.87638
 H1200 H 0.36054 0.21011 0.84349
 H1201 H 0.34090 0.28904 0.86246
 H1202 H 0.37407 0.28923 0.89602
 H1203 H 0.33885 0.28617 0.81351
 H1204 H 0.30526 0.28561 0.78000
 H1205 H 0.27762 0.21243 0.80901
 H1206 H 0.31158 0.21255 0.84210
 C1207 C 0.40763 0.75010 0.09224
 C1208 C 0.41037 0.72884 0.07542
 C1209 C 0.42958 0.72866 0.05641
 C1210 C 0.44618 0.74993 0.05340
 C1211 C 0.44340 0.77127 0.06994
 C1212 C 0.42453 0.77126 0.08929
 C1213 C 0.38729 0.75021 0.11269
 C1214 C 0.37515 0.77344 0.12014
 C1215 C 0.35624 0.77358 0.13943
 C1216 C 0.34855 0.75043 0.15153
 C1217 C 0.36053 0.72717 0.14396
 C1218 C 0.37977 0.72709 0.12499
 C1219 C 0.32812 0.75055 0.17189
 C1220 C 0.32915 0.73300 0.19274
 C1221 C 0.30985 0.73296 0.21164
 C1222 C 0.28940 0.75071 0.21031
 C1223 C 0.28832 0.76841 0.18981
 C1224 C 0.30735 0.76820 0.17065
 H1225 H 0.39744 0.71243 0.07663
 H1226 H 0.43115 0.71204 0.04375
 H1227 H 0.45611 0.78783 0.06821
 H1228 H 0.42349 0.78773 0.10215
 H1229 H 0.38004 0.79160 0.11090
 H1230 H 0.34783 0.79196 0.14498
 H1231 H 0.35489 0.70887 0.15248
 H1232 H 0.38889 0.70885 0.12016
 H1233 H 0.34504 0.71948 0.19471
 H1234 H 0.31097 0.71927 0.22749
 H1235 H 0.27252 0.78215 0.18851
 H1236 H 0.30553 0.78164 0.15470
 C1237 C 0.90655 0.59156 0.75052
 C1238 C 0.91559 0.58117 0.77396
 C1239 C 0.93479 0.56208 0.77419
 C1240 C 0.94539 0.55271 0.75092
 C1241 C 0.93624 0.56311 0.72745
 C1242 C 0.91715 0.58231 0.72727
 C1243 C 0.88616 0.61195 0.75031
 C1244 C 0.86681 0.61204 0.73121
 C1245 C 0.84769 0.63121 0.73099
 C1246 C 0.84734 0.65070 0.74994
 C1247 C 0.86664 0.65058 0.76907
 C1248 C 0.88584 0.63148 0.76922
 C1249 C 0.82694 0.67106 0.74974
 C1250 C 0.83292 0.69683 0.75626
 C1251 C 0.81373 0.71592 0.75615
 C1252 C 0.78828 0.70966 0.74934
 C1253 C 0.78218 0.68408 0.74275
 C1254 C 0.80129 0.66492 0.74303
 H1255 H 0.90757 0.58754 0.79221
 H1256 H 0.94115 0.55457 0.79269
 H1257 H 0.94391 0.55657 0.70910
 H1258 H 0.91095 0.59017 0.70888
 H1259 H 0.86627 0.59712 0.71654
 H1260 H 0.83332 0.63089 0.71578
 H1261 H 0.86678 0.66510 0.78414
 H1262 H 0.90060 0.63221 0.78402
 H1263 H 0.85250 0.70232 0.76115
 H1264 H 0.81871 0.73560 0.76132
 H1265 H 0.76259 0.67897 0.73742
 H1266 H 0.79592 0.64523 0.73829
 C1267 C 0.40787 0.09334 0.25110
 C1268 C 0.41818 0.08418 0.22770
 C1269 C 0.43715 0.06489 0.22758
 C1270 C 0.44649 0.05434 0.25091
 C1271 C 0.43620 0.06364 0.27434
 C1272 C 0.41710 0.08281 0.27441
 C1273 C 0.38755 0.11375 0.25117
 C1274 C 0.38754 0.13327 0.27009
 C1275 C 0.36841 0.15242 0.27017
 C1276 C 0.34890 0.15260 0.25125
 C1277 C 0.34896 0.13312 0.23229
 C1278 C 0.36800 0.11390 0.23230
 C1279 C 0.32857 0.17299 0.25129
 C1280 C 0.30285 0.16686 0.24494
 C1281 C 0.28378 0.18604 0.24481
 C1282 C 0.29003 0.21163 0.25123
 C1283 C 0.31558 0.21788 0.25768
 C1284 C 0.33472 0.19876 0.25762
 H1285 H 0.41182 0.09216 0.20941
 H1286 H 0.44459 0.05842 0.20911
 H1287 H 0.44273 0.05601 0.29273
 H1288 H 0.40930 0.08914 0.29276
 H1289 H 0.40248 0.13393 0.28472
 H1290 H 0.36877 0.16695 0.28523
 H1291 H 0.33441 0.13286 0.21725
 H1292 H 0.36723 0.09898 0.21764
 H1293 H 0.29737 0.14716 0.24034
 H1294 H 0.26412 0.18096 0.23973
 H1295 H 0.32067 0.23758 0.26269
 H1296 H 0.35438 0.20422 0.26222
 C1297 C 0.09244 0.59289 0.24985
 C1298 C 0.08505 0.58054 0.27294
 C1299 C 0.06581 0.56155 0.27298
 C1300 C 0.05368 0.55400 0.24981
 C1301 C 0.06125 0.56620 0.22667
 C1302 C 0.08017 0.58551 0.22674
 C1303 C 0.11279 0.61335 0.24986
 C1304 C 0.12970 0.61618 0.22871
 C1305 C 0.14858 0.63553 0.22861
 C1306 C 0.15131 0.65218 0.24983
 C1307 C 0.13471 0.64932 0.27107
 C1308 C 0.11551 0.63028 0.27100
 C1309 C 0.17145 0.67250 0.24981
 C1310 C 0.18836 0.67504 0.27089
 C1311 C 0.20759 0.69403 0.27073
 C1312 C 0.20984 0.71116 0.24977
 C1313 C 0.19276 0.70881 0.22882
 C1314 C 0.17390 0.68946 0.22871
 H1315 H 0.09437 0.58526 0.29106
 H1316 H 0.06072 0.55256 0.29121
 H1317 H 0.05233 0.56114 0.20842
 H1318 H 0.08490 0.59490 0.20864
 H1319 H 0.12864 0.60323 0.21232
 H1320 H 0.16139 0.63722 0.21213
 H1321 H 0.13630 0.66215 0.28754
 H1322 H 0.10258 0.62913 0.28739
 H1323 H 0.18695 0.66204 0.28727
 H1324 H 0.22076 0.69536 0.28694
 H1325 H 0.19408 0.72197 0.21256
 H1326 H 0.16095 0.68796 0.21234
 C1327 C 0.90783 0.40804 0.24973
 C1328 C 0.91912 0.41636 0.27300
 C1329 C 0.93822 0.43549 0.27297
 C1330 C 0.94658 0.44669 0.24965
 C1331 C 0.93536 0.43834 0.22637
 C1332 C 0.91619 0.41928 0.22642
 C1333 C 0.88743 0.38775 0.24980
 C1334 C 0.88673 0.36870 0.23042
 C1335 C 0.86758 0.34962 0.23053
 C1336 C 0.84868 0.34908 0.25005
 C1337 C 0.84938 0.36812 0.26943
 C1338 C 0.86849 0.38724 0.26929
 C1339 C 0.82835 0.32874 0.25022
 C1340 C 0.80277 0.33483 0.25725
 C1341 C 0.78370 0.31569 0.25750
 C1342 C 0.78981 0.29017 0.25062
 C1343 C 0.81522 0.28396 0.24353
 C1344 C 0.83435 0.30305 0.24338
 H1345 H 0.91344 0.40784 0.29126
 H1346 H 0.94655 0.44138 0.29123
 H1347 H 0.94127 0.44666 0.20809
 H1348 H 0.90764 0.41360 0.20819
 H1349 H 0.90118 0.36835 0.21529
 H1350 H 0.86742 0.33543 0.21515
 H1351 H 0.83531 0.36810 0.28492
 H1352 H 0.86827 0.40179 0.28434
 H1353 H 0.79742 0.35447 0.26227
 H1354 H 0.76414 0.32075 0.26303
 H1355 H 0.82020 0.26431 0.23815
 H1356 H 0.85390 0.29762 0.23823
 C1357 C 0.09103 0.40627 0.75243
 C1358 C 0.07628 0.41123 0.77468
 C1359 C 0.05734 0.43059 0.77457
 C1360 C 0.05252 0.44514 0.75209
 C1361 C 0.06717 0.44003 0.72979
 C1362 C 0.08635 0.42092 0.73002
 C1363 C 0.11126 0.38590 0.75259
 C1364 C 0.13586 0.39089 0.74229
 C1365 C 0.15497 0.37172 0.74245
 C1366 C 0.14981 0.34696 0.75264
 C1367 C 0.12509 0.34201 0.76287
 C1368 C 0.10610 0.36131 0.76299
 C1369 C 0.17011 0.32644 0.75255
 C1370 C 0.17210 0.30865 0.77310
 C1371 C 0.19115 0.28941 0.77296
 C1372 C 0.20882 0.28778 0.75247
 C1373 C 0.20701 0.30551 0.73200
 C1374 C 0.18776 0.32451 0.73192
 H1375 H 0.07966 0.40034 0.79226
 H1376 H 0.04634 0.43404 0.79204
 H1377 H 0.06393 0.45093 0.71219
 H1378 H 0.09732 0.41733 0.71255
 H1379 H 0.14043 0.40981 0.73446
 H1380 H 0.17390 0.37644 0.73491
 H1381 H 0.12025 0.32308 0.77043
 H1382 H 0.08718 0.35688 0.77078
 H1383 H 0.15917 0.30977 0.78950
 H1384 H 0.19226 0.27588 0.78893
 H1385 H 0.22057 0.30463 0.71608
 H1386 H 0.18658 0.33754 0.71556
 C1387 C 0.90720 0.75006 0.40715
 C1388 C 0.90978 0.77119 0.42412
 C1389 C 0.92902 0.77133 0.44306
 C1390 C 0.94579 0.75012 0.44585
 C1391 C 0.94315 0.72887 0.42918
 C1392 C 0.92425 0.72894 0.40989
 C1393 C 0.88684 0.75003 0.38677
 C1394 C 0.87473 0.72683 0.37931
 C1395 C 0.85577 0.72679 0.36009
 C1396 C 0.84802 0.75001 0.34811
 C1397 C 0.85998 0.77323 0.35570
 C1398 C 0.87927 0.77321 0.37458
 C1399 C 0.82755 0.75000 0.32786
 C1400 C 0.82861 0.76750 0.30697
 C1401 C 0.80928 0.76761 0.28813
 C1402 C 0.78880 0.74998 0.28957
 C1403 C 0.78767 0.73236 0.31011
 C1404 C 0.80673 0.73250 0.32922
 H1405 H 0.89671 0.78755 0.42305
 H1406 H 0.93050 0.78786 0.45584
 H1407 H 0.95601 0.71236 0.43077
 H1408 H 0.92328 0.71256 0.39690
 H1409 H 0.87969 0.70864 0.38848
 H1410 H 0.84735 0.70846 0.35451
 H1411 H 0.85428 0.79156 0.34724
 H1412 H 0.88840 0.79141 0.37944
 H1413 H 0.84455 0.78089 0.30494
 H1414 H 0.81042 0.78122 0.27222
 H1415 H 0.77184 0.71871 0.31146
 H1416 H 0.80492 0.71911 0.34522
 C1417 C 0.90766 0.24933 0.59333
 C1418 C 0.92457 0.27051 0.59061
 C1419 C 0.94349 0.27063 0.57134
 C1420 C 0.94631 0.24939 0.55469
 C1421 C 0.92966 0.22813 0.55745
 C1422 C 0.91039 0.22820 0.57637
 C1423 C 0.88730 0.24928 0.61372
 C1424 C 0.87990 0.22607 0.62590
 C1425 C 0.86063 0.22598 0.64481
 C1426 C 0.84854 0.24917 0.65243
 C1427 C 0.85612 0.27241 0.64044
 C1428 C 0.87506 0.27243 0.62120
 C1429 C 0.82810 0.24910 0.67271
 C1430 C 0.80717 0.26653 0.67139
 C1431 C 0.78811 0.26658 0.69050
 C1432 C 0.78936 0.24891 0.71101
 C1433 C 0.80997 0.23136 0.71242
 C1434 C 0.82929 0.23158 0.69358
 H1435 H 0.92348 0.28689 0.60359
 H1436 H 0.95625 0.28718 0.56977
 H1437 H 0.93127 0.21159 0.54469
 H1438 H 0.89743 0.21180 0.57743
 H1439 H 0.88913 0.20790 0.62103
 H1440 H 0.85507 0.20764 0.65327
 H1441 H 0.84759 0.29072 0.64604
 H1442 H 0.87988 0.29065 0.61203
 H1443 H 0.80526 0.27994 0.65541
 H1444 H 0.77218 0.28016 0.68917
 H1445 H 0.81119 0.21772 0.72830
 H1446 H 0.84532 0.21823 0.69558
 C1447 C 0.09144 0.75027 0.59318
 C1448 C 0.07512 0.72877 0.58966
 C1449 C 0.05642 0.72875 0.57019
 C1450 C 0.05325 0.75041 0.55407
 C1451 C 0.06927 0.77203 0.55766
 C1452 C 0.08831 0.77187 0.57683
 C1453 C 0.11160 0.75013 0.61375
 C1454 C 0.11816 0.77303 0.62689
 C1455 C 0.13718 0.77290 0.64607
 C1456 C 0.14989 0.74978 0.65294
 C1457 C 0.14318 0.72685 0.63995
 C1458 C 0.12447 0.72706 0.62048
 C1459 C 0.17007 0.74961 0.67347
 C1460 C 0.19164 0.73302 0.67164
 C1461 C 0.21053 0.73283 0.69091
 C1462 C 0.20845 0.74951 0.71211
 C1463 C 0.18716 0.76614 0.71411
 C1464 C 0.16801 0.76607 0.69507
 H1465 H 0.07651 0.71201 0.60218
 H1466 H 0.04414 0.71192 0.56801
 H1467 H 0.06737 0.78891 0.54535
 H1468 H 0.10080 0.78857 0.57856
 H1469 H 0.10844 0.79110 0.62257
 H1470 H 0.14208 0.79103 0.65532
 H1471 H 0.15222 0.70859 0.64494
 H1472 H 0.12030 0.70911 0.61056
 H1473 H 0.19418 0.72044 0.65512
 H1474 H 0.22700 0.71996 0.68915
 H1475 H 0.18532 0.77903 0.73051
 H1476 H 0.15148 0.77871 0.69744
 C1477 C 0.74942 0.59202 0.09270
 C1478 C 0.72810 0.58919 0.07602
 C1479 C 0.72800 0.57003 0.05698
 C1480 C 0.74939 0.55359 0.05381
 C1481 C 0.77081 0.55649 0.07020
 C1482 C 0.77073 0.57530 0.08959
 C1483 C 0.74943 0.61227 0.11321
 C1484 C 0.77250 0.62472 0.12043
 C1485 C 0.77254 0.64357 0.13977
 C1486 C 0.74944 0.65087 0.15213
 C1487 C 0.72634 0.63857 0.14479
 C1488 C 0.72637 0.61938 0.12577
 C1489 C 0.74943 0.67123 0.17251
 C1490 C 0.73227 0.66976 0.19361
 C1491 C 0.73207 0.68903 0.21252
 C1492 C 0.74929 0.70986 0.21096
 C1493 C 0.76661 0.71138 0.19023
 C1494 C 0.76655 0.69238 0.17105
 H1495 H 0.71158 0.60199 0.07740
 H1496 H 0.71132 0.56835 0.04443
 H1497 H 0.78746 0.54389 0.06832
 H1498 H 0.78726 0.57645 0.10235
 H1499 H 0.79059 0.62012 0.11097
 H1500 H 0.79079 0.65226 0.14515
 H1501 H 0.70809 0.64390 0.15353
 H1502 H 0.70828 0.60999 0.12111
 H1503 H 0.71918 0.65356 0.19572
 H1504 H 0.71868 0.68761 0.22855
 H1505 H 0.77993 0.72749 0.18878
 H1506 H 0.77967 0.69450 0.15490
 C1507 C 0.24962 0.59275 0.90854
 C1508 C 0.22820 0.57639 0.91170
 C1509 C 0.22818 0.55739 0.93097
 C1510 C 0.24980 0.55406 0.94709
 C1511 C 0.27134 0.57028 0.94373
 C1512 C 0.27114 0.58962 0.92480
 C1513 C 0.24953 0.61303 0.88832
 C1514 C 0.25576 0.63874 0.89453
 C1515 C 0.25537 0.65796 0.87547
 C1516 C 0.24925 0.65167 0.84980
 C1517 C 0.24328 0.62591 0.84353
 C1518 C 0.24316 0.60679 0.86269
 C1519 C 0.24907 0.67194 0.82959
 C1520 C 0.26304 0.66843 0.80658
 C1521 C 0.26303 0.68769 0.78757
 C1522 C 0.24864 0.71042 0.79112
 C1523 C 0.23448 0.71390 0.81394
 C1524 C 0.23491 0.69489 0.83319
 H1525 H 0.21135 0.57856 0.89945
 H1526 H 0.21135 0.54510 0.93308
 H1527 H 0.28822 0.56819 0.95594
 H1528 H 0.28792 0.60195 0.92260
 H1529 H 0.26060 0.64399 0.91420
 H1530 H 0.26014 0.67770 0.88068
 H1531 H 0.23839 0.62068 0.82387
 H1532 H 0.23842 0.58706 0.85746
 H1533 H 0.27420 0.65094 0.80350
 H1534 H 0.27409 0.68484 0.77003
 H1535 H 0.22325 0.73138 0.81684
 H1536 H 0.22389 0.69791 0.85073
 C1537 C 0.74920 0.40716 0.90715
 C1538 C 0.72793 0.41013 0.92388
 C1539 C 0.72785 0.42941 0.94280
 C1540 C 0.74922 0.44584 0.94580
 C1541 C 0.77058 0.44283 0.92934
 C1542 C 0.77047 0.42389 0.91008
 C1543 C 0.74921 0.38674 0.88681
 C1544 C 0.77229 0.37422 0.87964
 C1545 C 0.77233 0.35521 0.86045
 C1546 C 0.74922 0.34783 0.84820
 C1547 C 0.72610 0.36020 0.85550
 C1548 C 0.72613 0.37953 0.87437
 C1549 C 0.74923 0.32734 0.82795
 C1550 C 0.73205 0.32870 0.80686
 C1551 C 0.73194 0.30937 0.78801
 C1552 C 0.74929 0.28859 0.78963
 C1553 C 0.76659 0.28714 0.81038
 C1554 C 0.76642 0.30621 0.82950
 H1555 H 0.71144 0.39732 0.92265
 H1556 H 0.71122 0.43117 0.95541
 H1557 H 0.78722 0.45542 0.93109
 H1558 H 0.78696 0.42264 0.89727
 H1559 H 0.79039 0.37889 0.88902
 H1560 H 0.79059 0.34648 0.85510
 H1561 H 0.70785 0.35480 0.84684
 H1562 H 0.70802 0.38897 0.87900
 H1563 H 0.71889 0.34488 0.80468
 H1564 H 0.71857 0.31074 0.77195
 H1565 H 0.78000 0.27108 0.81188
 H1566 H 0.77956 0.30416 0.84566
 C1567 C 0.59156 0.90763 0.24991
 C1568 C 0.58679 0.92247 0.22764
 C1569 C 0.56763 0.94159 0.22769
 C1570 C 0.55312 0.94649 0.25013
 C1571 C 0.55803 0.93174 0.27244
 C1572 C 0.57694 0.91238 0.27228
 C1573 C 0.61174 0.88725 0.24982
 C1574 C 0.60657 0.86261 0.26005
 C1575 C 0.62558 0.84336 0.25990
 C1576 C 0.65032 0.84843 0.24979
 C1577 C 0.65546 0.87320 0.23968
 C1578 C 0.63633 0.89234 0.23955
 C1579 C 0.67065 0.82800 0.24983
 C1580 C 0.68828 0.82597 0.22920
 C1581 C 0.70750 0.80694 0.22937
 C1582 C 0.70927 0.78934 0.24994
 C1583 C 0.69166 0.79112 0.27046
 C1584 C 0.67265 0.81036 0.27050
 H1585 H 0.59767 0.91903 0.21010
 H1586 H 0.56432 0.95268 0.21022
 H1587 H 0.54713 0.93503 0.29000
 H1588 H 0.58040 0.90133 0.28974
 H1589 H 0.58764 0.85812 0.26780
 H1590 H 0.62076 0.82439 0.26739
 H1591 H 0.67441 0.87797 0.23219
 H1592 H 0.64089 0.91130 0.23183
 H1593 H 0.68708 0.83891 0.21277
 H1594 H 0.72101 0.80589 0.21341
 H1595 H 0.69275 0.77765 0.28649
 H1596 H 0.65972 0.81159 0.28690
 C1597 C 0.59248 0.09123 0.74978
 C1598 C 0.58739 0.07651 0.77209
 C1599 C 0.56809 0.05760 0.77205
 C1600 C 0.55362 0.05277 0.74960
 C1601 C 0.55877 0.06732 0.72724
 C1602 C 0.57787 0.08642 0.72736
 C1603 C 0.61287 0.11153 0.74988
 C1604 C 0.62821 0.11591 0.72785
 C1605 C 0.64720 0.13513 0.72788
 C1606 C 0.65148 0.15019 0.75003
 C1607 C 0.63635 0.14578 0.77211
 C1608 C 0.61716 0.12677 0.77200
 C1609 C 0.67165 0.17047 0.75009
 C1610 C 0.68908 0.17241 0.77083
 C1611 C 0.70824 0.19143 0.77079
 C1612 C 0.71002 0.20908 0.75024
 C1613 C 0.69252 0.20731 0.72960
 C1614 C 0.67361 0.18803 0.72943
 H1615 H 0.59856 0.07934 0.78955
 H1616 H 0.56469 0.04657 0.78953
 H1617 H 0.54781 0.06416 0.70969
 H1618 H 0.58091 0.09769 0.70997
 H1619 H 0.62582 0.10424 0.71065
 H1620 H 0.65885 0.13797 0.71072
 H1621 H 0.63909 0.15737 0.78933
 H1622 H 0.60541 0.12430 0.78913
 H1623 H 0.68810 0.15893 0.78686
 H1624 H 0.72175 0.19238 0.78675
 H1625 H 0.69353 0.22090 0.71367
 H1626 H 0.66025 0.18707 0.71335
 C1627 C 0.40591 0.90726 0.74949
 C1628 C 0.42244 0.91037 0.77087
 C1629 C 0.44149 0.92952 0.77085
 C1630 C 0.44481 0.94569 0.74929
 C1631 C 0.42859 0.94248 0.72779
 C1632 C 0.40920 0.92365 0.72797
 C1633 C 0.38537 0.88704 0.74967
 C1634 C 0.37842 0.87407 0.72682
 C1635 C 0.35910 0.85518 0.72700
 C1636 C 0.34647 0.84844 0.75012
 C1637 C 0.35353 0.86129 0.77299
 C1638 C 0.37255 0.88047 0.77273
 C1639 C 0.32608 0.82809 0.75039
 C1640 C 0.30470 0.83011 0.76713
 C1641 C 0.28573 0.81090 0.76755
 C1642 C 0.28755 0.78957 0.75097
 C1643 C 0.30861 0.78745 0.73414
 C1644 C 0.32783 0.80642 0.73397
 H1645 H 0.42093 0.89780 0.78755
 H1646 H 0.45392 0.93140 0.78760
 H1647 H 0.43059 0.95484 0.71098
 H1648 H 0.39657 0.92222 0.71137
 H1649 H 0.38808 0.87827 0.70875
 H1650 H 0.35394 0.84603 0.70892
 H1651 H 0.34456 0.85639 0.79125
 H1652 H 0.37701 0.89029 0.79065
 H1653 H 0.30239 0.84670 0.77968
 H1654 H 0.26945 0.81276 0.78059
 H1655 H 0.31026 0.77094 0.72134
 H1656 H 0.34421 0.80390 0.72120
   
