data_POSCAR
  _audit_creation_date              2014-09-24
  _audit_creation_method            'ToBaCCo'
  _symmetry_space_group_name_H-M    'P1'
  _symmetry_Int_Tables_number       1
  _symmetry_cell_setting            triclinic
  loop_
  _symmetry_equiv_pos_as_xyz
 x,y,z
_cell_length_a 36.4983
_cell_length_b 36.3254
_cell_length_c 25.0020
_cell_angle_alpha 90.132800
_cell_angle_beta 89.961500
_cell_angle_gamma 89.986800
loop_
  _atom_site_label
  _atom_site_type_symbol
  _atom_site_fract_x
  _atom_site_fract_y
  _atom_site_fract_z
Zr1 Zr -0.06487 0.00337 -0.00285
 O2 O -0.10655 -0.02383 -0.04664
 O3 O -0.09559 0.03668 0.04943
 O4 O -0.09524 -0.03357 0.04536
 O5 O -0.05015 0.07132 -0.09661
 O6 O -0.05102 -0.06855 0.08496
 O7 O -0.09475 0.04014 -0.05143
 O8 O -0.05149 0.06645 0.09766
 O9 O -0.03422 -0.00043 0.06783
 O10 O -0.03256 0.05088 0.00087
 O11 O -0.03372 -0.04506 -0.01112
 O12 O -0.03399 0.00433 -0.07461
 Zr13 Zr 0.06374 0.00045 -0.00632
 Zr14 Zr -0.00113 -0.04707 0.05763
 Zr15 Zr -0.00013 0.05067 -0.06744
 Zr16 Zr -0.00088 0.04626 0.06937
 O17 O 0.00137 0.04884 -0.15199
 O18 O -0.00321 0.03265 0.15171
 O19 O 0.03289 0.04934 0.00130
 O20 O 0.03233 -0.00053 0.06443
 O21 O 0.03192 -0.04743 -0.01046
 O22 O 0.03271 0.00408 -0.07651
 C23 C -0.08507 0.06050 0.08433
 C24 C -0.08393 0.06483 -0.08483
 C25 C -0.08465 -0.06055 0.07503
 O26 O 0.00075 -0.04630 0.14217
 O27 O 0.04852 -0.07108 0.08154
 O28 O 0.09346 -0.03815 0.03998
 C29 C 0.08235 -0.06432 0.07082
 O30 O -0.04906 -0.05836 -0.11909
 Zr31 Zr -0.00023 -0.04252 -0.07886
 O32 O 0.09441 -0.03361 -0.05734
 O33 O -0.00320 -0.10468 0.04505
 O34 O -0.00532 -0.10057 -0.07341
 O35 O 0.00614 -0.03225 -0.16184
 O36 O 0.05014 -0.06683 -0.10004
 C37 C 0.08377 -0.06000 -0.08795
 O38 O 0.10527 0.02654 0.03910
 O39 O -0.00125 0.10855 -0.05717
 O40 O 0.09415 0.03888 -0.05224
 O41 O 0.04974 0.07483 -0.08953
 O42 O 0.00039 0.10454 0.06476
 O43 O 0.04775 0.06759 0.10449
 C44 C 0.08343 0.06669 -0.08028
 H45 H -0.04683 0.07403 0.00187
 H46 H 0.04812 -0.00188 0.09655
 H47 H 0.04825 0.00564 -0.10890
 H48 H -0.04975 -0.06691 -0.01442
 H49 H -0.01009 0.05529 0.17147
 H50 H -0.00026 -0.07230 0.15397
 H51 H -0.00238 -0.11648 0.08075
 H52 H 0.00110 -0.11106 -0.10883
 H53 H -0.00568 0.11436 0.10071
 H54 H -0.00193 0.11963 -0.09336
 H55 H 0.00252 0.07471 -0.16434
 H56 H 0.01260 -0.05600 -0.17901
 H57 H 0.04143 0.08145 0.13737
 H58 H 0.12916 0.01768 0.02510
 H59 H -0.13043 -0.01491 -0.03269
 H60 H -0.04316 -0.07652 -0.14742
 Zr61 Zr 0.56357 0.50026 0.49312
 O62 O 0.60501 0.52671 0.53828
 O63 O 0.59427 0.46592 0.44263
 O64 O 0.59323 0.46191 0.53995
 O65 O 0.54979 0.57381 0.40839
 O66 O 0.54824 0.42938 0.58205
 O67 O 0.59410 0.53817 0.44654
 O68 O 0.55005 0.43246 0.40022
 O69 O 0.53175 0.45235 0.48970
 O70 O 0.53259 0.50332 0.42281
 O71 O 0.53211 0.49987 0.56381
 O72 O 0.53276 0.54924 0.49979
 Zr73 Zr 0.43499 0.50323 0.49630
 Zr74 Zr 0.49866 0.45329 0.55773
 Zr75 Zr 0.49981 0.55000 0.43097
 Zr76 Zr 0.49964 0.45673 0.42118
 O77 O 0.49865 0.60795 0.44036
 O78 O 0.49473 0.39872 0.42771
 O79 O 0.46593 0.50362 0.42460
 O80 O 0.46612 0.45475 0.48890
 O81 O 0.46557 0.50001 0.56709
 O82 O 0.46728 0.55079 0.49921
 C83 C 0.58365 0.43941 0.41224
 C84 C 0.58348 0.56567 0.41781
 C85 C 0.58208 0.43597 0.57116
 O86 O 0.49656 0.39557 0.54621
 O87 O 0.44878 0.43198 0.58530
 O88 O 0.40459 0.46657 0.54492
 C89 C 0.41517 0.43982 0.57502
 O90 O 0.54755 0.56835 0.60258
 Zr91 Zr 0.49893 0.54672 0.56784
 O92 O 0.40423 0.53692 0.54805
 O93 O 0.50048 0.45481 0.64226
 O94 O 0.49662 0.53384 0.65043
 O95 O 0.50013 0.60496 0.56219
 O96 O 0.44831 0.56708 0.59580
 C97 C 0.41473 0.56098 0.58263
 O98 O 0.39328 0.47573 0.45296
 O99 O 0.50143 0.54761 0.34645
 O100 O 0.40517 0.53948 0.44688
 O101 O 0.44978 0.57018 0.40109
 O102 O 0.50587 0.46638 0.33803
 O103 O 0.45084 0.44044 0.38127
 C104 C 0.41598 0.56374 0.41282
 H105 H 0.54814 0.50460 0.39040
 H106 H 0.45011 0.43285 0.48592
 H107 H 0.45297 0.57392 0.49976
 H108 H 0.54789 0.49876 0.59597
 H109 H 0.50117 0.38794 0.39248
 H110 H 0.49737 0.38407 0.58211
 H111 H 0.49946 0.42891 0.65454
 H112 H 0.48975 0.55667 0.66978
 H113 H 0.51236 0.44252 0.32121
 H114 H 0.50257 0.57339 0.33372
 H115 H 0.49799 0.61873 0.40399
 H116 H 0.49404 0.61508 0.59797
 H117 H 0.45676 0.42199 0.35336
 H118 H 0.36940 0.48476 0.46677
 H119 H 0.62892 0.51772 0.52454
 H120 H 0.54122 0.58256 0.63515
 Zr121 Zr 0.56479 -0.00348 0.50049
 O122 O 0.60707 0.02423 0.45876
 O123 O 0.59488 -0.03767 0.55223
 O124 O 0.59461 0.03302 0.55054
 O125 O 0.55093 -0.06972 0.40338
 O126 O 0.54988 0.06696 0.59111
 O127 O 0.59513 -0.03945 0.45077
 O128 O 0.55022 -0.06817 0.59820
 O129 O 0.53333 -0.00082 0.57063
 O130 O 0.53238 -0.05100 0.50148
 O131 O 0.53367 0.04508 0.49360
 O132 O 0.53459 -0.00317 0.42813
 Zr133 Zr 0.43604 -0.00027 0.49439
 Zr134 Zr 0.50033 0.04598 0.56171
 Zr135 Zr 0.50060 -0.04957 0.43255
 Zr136 Zr 0.49993 -0.04750 0.56945
 O137 O 0.50008 -0.04640 0.34808
 O138 O 0.50125 -0.03531 0.65240
 O139 O 0.46683 -0.04932 0.50061
 O140 O 0.46675 -0.00061 0.56579
 O141 O 0.46798 0.04760 0.49296
 O142 O 0.46789 -0.00280 0.42479
 C143 C 0.58399 -0.06198 0.58609
 C144 C 0.58463 -0.06348 0.41597
 C145 C 0.58365 0.05943 0.58124
 O146 O 0.49744 0.04369 0.64613
 O147 O 0.45048 0.06978 0.58556
 O148 O 0.40590 0.03780 0.54157
 C149 C 0.41674 0.06345 0.57372
 O150 O 0.55015 0.06047 0.38677
 Zr151 Zr 0.50090 0.04377 0.42509
 O152 O 0.40600 0.03460 0.44392
 O153 O 0.50268 0.10379 0.55168
 O154 O 0.50570 0.10171 0.43335
 O155 O 0.49577 0.03478 0.34157
 O156 O 0.45076 0.06828 0.40327
 C157 C 0.41699 0.06127 0.41421
 O158 O 0.39397 -0.02693 0.53792
 O159 O 0.50148 -0.10759 0.44062
 O160 O 0.40610 -0.03801 0.44629
 O161 O 0.45090 -0.07317 0.40810
 O162 O 0.49873 -0.10567 0.56208
 O163 O 0.45096 -0.06942 0.60267
 C164 C 0.41708 -0.06525 0.41704
 H165 H 0.54667 -0.07414 0.50183
 H166 H 0.45061 0.00025 0.59761
 H167 H 0.45274 -0.00381 0.39198
 H168 H 0.54971 0.06699 0.49154
 H169 H 0.50790 -0.05829 0.67135
 H170 H 0.49839 0.06947 0.65911
 H171 H 0.50137 0.11498 0.58783
 H172 H 0.49971 0.11285 0.39827
 H173 H 0.50451 -0.11618 0.59765
 H174 H 0.50263 -0.11810 0.40403
 H175 H 0.49902 -0.07206 0.33466
 H176 H 0.48950 0.05876 0.32513
 H177 H 0.45697 -0.08406 0.63486
 H178 H 0.37028 -0.01781 0.52372
 H179 H 0.63075 0.01504 0.47295
 H180 H 0.54455 0.07919 0.35923
 Zr181 Zr -0.06410 0.49948 -0.01128
 O182 O -0.10644 0.47285 0.03172
 O183 O -0.09392 0.53435 -0.06211
 O184 O -0.09436 0.53752 0.03586
 O185 O -0.04900 0.42651 -0.09712
 O186 O -0.04984 0.56948 0.08005
 O187 O -0.09380 0.46178 -0.05988
 O188 O -0.04919 0.56850 -0.10128
 O189 O -0.03217 0.54736 -0.01238
 O190 O -0.03207 0.49697 -0.08066
 O191 O -0.03356 0.49909 0.06030
 O192 O -0.03338 0.45041 -0.00481
 Zr193 Zr 0.06459 0.49621 -0.00443
 Zr194 Zr 0.00005 0.54567 0.05650
 Zr195 Zr 0.00060 0.45018 -0.07261
 Zr196 Zr 0.00088 0.54356 -0.08005
 O197 O 0.00147 0.39215 -0.06475
 O198 O 0.00610 0.60147 -0.07186
 O199 O 0.03456 0.49660 -0.07692
 O200 O 0.03354 0.54479 -0.01144
 O201 O 0.03301 0.49885 0.06558
 O202 O 0.03222 0.44869 -0.00359
 C203 C -0.08318 0.56152 -0.09124
 C204 C -0.08299 0.43442 -0.08920
 C205 C -0.08355 0.56316 0.06805
 O206 O 0.00242 0.60349 0.04655
 O207 O 0.04955 0.56673 0.08606
 O208 O 0.09433 0.53268 0.04578
 C209 C 0.08334 0.55916 0.07636
 O210 O -0.04943 0.43037 0.09743
 Zr211 Zr -0.00041 0.45219 0.06419
 O212 O 0.09456 0.46190 0.04730
 O213 O -0.00303 0.54333 0.14090
 O214 O 0.00086 0.46435 0.14714
 O215 O -0.00180 0.39403 0.05663
 O216 O 0.04980 0.43132 0.09296
 C217 C 0.08359 0.43750 0.08096
 O218 O 0.10710 0.52389 -0.04572
 O219 O 0.00028 0.45338 -0.15709
 O220 O 0.09494 0.46038 -0.05437
 O221 O 0.05098 0.42995 -0.10149
 O222 O -0.00453 0.53485 -0.16360
 O223 O 0.05022 0.55994 -0.11845
 C224 C 0.08480 0.43618 -0.08928
 H225 H -0.04715 0.49598 -0.11355
 H226 H 0.04960 0.56669 -0.01342
 H227 H 0.04650 0.42554 -0.00330
 H228 H -0.04980 0.49995 0.09203
 H229 H 0.00014 0.61263 -0.10694
 H230 H 0.00101 0.61467 0.08271
 H231 H -0.00209 0.56910 0.15392
 H232 H 0.00750 0.44138 0.16609
 H233 H -0.01079 0.55891 -0.17981
 H234 H -0.00084 0.42773 -0.17053
 H235 H 0.00284 0.38168 -0.10136
 H236 H 0.00399 0.38344 0.09213
 H237 H 0.04471 0.57863 -0.14607
 H238 H 0.13071 0.51458 -0.03144
 H239 H -0.13004 0.48199 0.01719
 H240 H -0.04343 0.41562 0.12952
 Zr241 Zr 0.06527 0.50289 0.50312
 O242 O 0.10696 0.47495 0.54574
 O243 O 0.09604 0.53717 0.45240
 O244 O 0.09572 0.46672 0.45354
 O245 O 0.05038 0.56867 0.60048
 O246 O 0.05154 0.43275 0.41184
 O247 O 0.09503 0.53869 0.55356
 O248 O 0.05196 0.56812 0.40588
 O249 O 0.03473 0.50056 0.43219
 O250 O 0.03294 0.55045 0.50176
 O251 O 0.03411 0.45433 0.50886
 O252 O 0.03428 0.50229 0.57479
 Zr253 Zr -0.06332 0.49983 0.50603
 Zr254 Zr 0.00163 0.45374 0.43992
 Zr255 Zr 0.00040 0.54876 0.56994
 Zr256 Zr 0.00135 0.54727 0.43298
 O257 O -0.00124 0.54523 0.65435
 O258 O 0.00381 0.53544 0.34998
 O259 O -0.03251 0.54887 0.50106
 O260 O -0.03184 0.50039 0.43537
 O261 O -0.03153 0.45187 0.50787
 O262 O -0.03241 0.50201 0.57648
 C263 C 0.08554 0.56176 0.41875
 C264 C 0.08418 0.56254 0.58838
 C265 C 0.08514 0.44033 0.42261
 O266 O -0.00006 0.45636 0.35546
 O267 O -0.04795 0.43022 0.41460
 O268 O -0.09293 0.46199 0.45811
 C269 C -0.08179 0.43655 0.42588
 O270 O 0.04926 0.43838 0.61592
 Zr271 Zr 0.00052 0.45539 0.57658
 O272 O -0.09411 0.46505 0.55557
 O273 O 0.00367 0.39588 0.44943
 O274 O 0.00530 0.39747 0.56794
 O275 O -0.00560 0.46403 0.66004
 O276 O -0.04996 0.43099 0.59692
 C277 C -0.08357 0.43823 0.58528
 O278 O -0.10474 0.52674 0.46155
 O279 O 0.00150 0.60682 0.56261
 O280 O -0.09388 0.53728 0.55351
 O281 O -0.04959 0.57229 0.59312
 O282 O -0.00000 0.60542 0.44065
 O283 O -0.04724 0.56932 0.39881
 C284 C -0.08326 0.56441 0.58313
 H285 H 0.04722 0.57360 0.50199
 H286 H -0.04760 0.49968 0.40317
 H287 H -0.04797 0.50292 0.60891
 H288 H 0.05010 0.43239 0.51116
 H289 H 0.01068 0.55851 0.33142
 H290 H 0.00098 0.43063 0.34230
 H291 H 0.00290 0.38486 0.41312
 H292 H -0.00121 0.38621 0.60275
 H293 H 0.00618 0.61604 0.40529
 H294 H 0.00210 0.61712 0.59935
 H295 H -0.00248 0.57083 0.66797
 H296 H -0.01216 0.43999 0.67610
 H297 H -0.04087 0.58393 0.36674
 H298 H -0.12866 0.51761 0.47498
 H299 H 0.13084 0.48415 0.53228
 H300 H 0.04328 0.41956 0.64316
 Zr301 Zr 0.43697 -0.00025 0.00562
 O302 O 0.39570 0.02674 -0.03905
 O303 O 0.40602 -0.03526 0.05467
 O304 O 0.40756 -0.03796 -0.04271
 O305 O 0.45036 0.07206 0.09314
 O306 O 0.45267 -0.06963 -0.08612
 O307 O 0.40622 0.03714 0.05304
 O308 O 0.45007 -0.06951 0.09592
 O309 O 0.46879 -0.04819 0.00739
 O310 O 0.46760 0.00173 0.07634
 O311 O 0.46874 0.00048 -0.06479
 O312 O 0.46780 0.04880 0.00114
 Zr313 Zr 0.56555 0.00282 0.00371
 Zr314 Zr 0.50220 -0.04619 -0.06029
 Zr315 Zr 0.50043 0.04850 0.07031
 Zr316 Zr 0.50056 -0.04487 0.07639
 O317 O 0.50160 0.10659 0.06341
 O318 O 0.50554 -0.10277 0.06759
 O319 O 0.53430 0.00204 0.07514
 O320 O 0.53439 -0.04576 0.00894
 O321 O 0.53533 0.00068 -0.06753
 O322 O 0.53321 0.05038 0.00241
 C323 C 0.41650 -0.06226 0.08410
 C324 C 0.41673 0.06423 0.08283
 C325 C 0.41880 -0.06333 -0.07500
 O326 O 0.50410 -0.10409 -0.05114
 O327 O 0.55229 -0.06729 -0.08777
 O328 O 0.59624 -0.03322 -0.04571
 C329 C 0.58584 -0.05968 -0.07664
 O330 O 0.45350 0.06937 -0.10140
 Zr331 Zr 0.50193 0.04739 -0.06669
 O332 O 0.59652 0.03739 -0.04639
 O333 O 0.50093 -0.04331 -0.14475
 O334 O 0.50498 0.03574 -0.14970
 O335 O 0.50028 0.10551 -0.05869
 O336 O 0.55263 0.06862 -0.09289
 C337 C 0.58616 0.06225 -0.07971
 O338 O 0.60708 -0.02522 0.04650
 O339 O 0.49842 0.04470 0.15468
 O340 O 0.59510 0.03844 0.05457
 O341 O 0.55030 0.06830 0.10137
 O342 O 0.49396 -0.03650 0.15984
 O343 O 0.54918 -0.06183 0.11611
 C344 C 0.58413 0.06218 0.08943
 H345 H 0.45189 0.00255 0.10862
 H346 H 0.55038 -0.06769 0.01131
 H347 H 0.54744 0.07354 0.00297
 H348 H 0.45311 -0.00015 -0.09713
 H349 H 0.49894 -0.11410 0.10231
 H350 H 0.50350 -0.11499 -0.08752
 H351 H 0.50203 -0.06901 -0.15803
 H352 H 0.51195 0.05886 -0.16804
 H353 H 0.48739 -0.06060 0.17565
 H354 H 0.49716 0.07026 0.16846
 H355 H 0.50208 0.11677 0.10022
 H356 H 0.50663 0.11626 -0.09390
 H357 H 0.54313 -0.08068 0.14327
 H358 H 0.63102 -0.01597 0.03333
 H359 H 0.37174 0.01759 -0.02584
 H360 H 0.46002 0.08402 -0.13338
 Zr361 Zr 0.43501 0.49707 0.00236
 O362 O 0.39304 0.52447 0.04538
 O363 O 0.40462 0.46384 -0.05033
 O364 O 0.40520 0.53410 -0.04640
 O365 O 0.44873 0.42918 0.09651
 O366 O 0.44986 0.56869 -0.08571
 O367 O 0.40459 0.46052 0.05066
 O368 O 0.44899 0.43390 -0.09788
 O369 O 0.46626 0.50064 -0.06785
 O370 O 0.46720 0.44942 -0.00069
 O371 O 0.46622 0.54541 0.01086
 O372 O 0.46528 0.49611 0.07459
 Zr373 Zr 0.56355 0.49956 0.00779
 Zr374 Zr 0.49943 0.54718 -0.05736
 Zr375 Zr 0.49908 0.44965 0.06815
 Zr376 Zr 0.49945 0.45381 -0.06870
 O377 O 0.49972 0.45157 0.15271
 O378 O 0.49797 0.46725 -0.15114
 O379 O 0.53266 0.45073 -0.00009
 O380 O 0.53276 0.50050 -0.06347
 O381 O 0.53185 0.54755 0.01127
 O382 O 0.53192 0.49618 0.07750
 C383 C 0.41531 0.44001 -0.08515
 C384 C 0.41506 0.43582 0.08427
 C385 C 0.41613 0.56091 -0.07614
 O386 O 0.50217 0.54623 -0.14186
 O387 O 0.54938 0.57111 -0.08030
 O388 O 0.59384 0.53789 -0.03820
 C389 C 0.58310 0.56417 -0.06908
 O390 O 0.44993 0.55893 0.11845
 Zr391 Zr 0.49909 0.54287 0.07916
 O392 O 0.59385 0.53373 0.05900
 O393 O 0.49728 0.60483 -0.04510
 O394 O 0.49423 0.60093 0.07343
 O395 O 0.50470 0.53276 0.16228
 O396 O 0.54933 0.56703 0.10111
 C397 C 0.58302 0.56016 0.08943
 O398 O 0.60533 0.47311 -0.03681
 O399 O 0.49806 0.39177 0.05795
 O400 O 0.59351 0.46135 0.05455
 O401 O 0.54878 0.42563 0.09150
 O402 O 0.50035 0.39553 -0.06390
 O403 O 0.54832 0.43217 -0.10282
 C404 C 0.58257 0.43374 0.08282
 H405 H 0.45284 0.42634 -0.00187
 H406 H 0.54884 0.50175 -0.09532
 H407 H 0.54717 0.49469 0.11017
 H408 H 0.45024 0.56733 0.01381
 H409 H 0.49120 0.44459 -0.17093
 H410 H 0.50134 0.57221 -0.15378
 H411 H 0.49854 0.61655 -0.08083
 H412 H 0.50033 0.61145 0.10894
 H413 H 0.49458 0.38570 -0.09994
 H414 H 0.49701 0.38074 0.09415
 H415 H 0.50071 0.42572 0.16515
 H416 H 0.51103 0.55653 0.17947
 H417 H 0.54225 0.41826 -0.13575
 H418 H 0.62914 0.48192 -0.02255
 H419 H 0.36926 0.51564 0.03104
 H420 H 0.45561 0.57712 0.14682
 Zr421 Zr 0.06358 -0.00008 0.50789
 O422 O 0.10550 -0.02643 0.46344
 O423 O 0.09376 0.03434 0.55894
 O424 O 0.09365 0.03824 0.46152
 O425 O 0.04908 -0.07382 0.59207
 O426 O 0.04900 0.07095 0.41901
 O427 O 0.09369 -0.03813 0.55473
 O428 O 0.04912 0.06763 0.60079
 O429 O 0.03167 0.04779 0.51103
 O430 O 0.03199 -0.00334 0.57767
 O431 O 0.03274 0.00041 0.43668
 O432 O 0.03286 -0.04905 0.50048
 Zr433 Zr -0.06500 -0.00320 0.50262
 Zr434 Zr -0.00081 0.04695 0.44244
 Zr435 Zr -0.00070 -0.05003 0.56874
 Zr436 Zr -0.00104 0.04320 0.57899
 O437 O -0.00151 -0.10797 0.55909
 O438 O -0.00610 0.10122 0.57275
 O439 O -0.03469 -0.00370 0.57483
 O440 O -0.03396 0.04529 0.51072
 O441 O -0.03379 0.00024 0.43234
 O442 O -0.03260 -0.05070 0.49995
 C443 C 0.08283 0.06081 0.58923
 C444 C 0.08283 -0.06569 0.58315
 C445 C 0.08276 0.06427 0.43027
 O446 O -0.00308 0.10464 0.45426
 O447 O -0.05045 0.06825 0.41413
 O448 O -0.09498 0.03363 0.45373
 C449 C -0.08414 0.06044 0.42390
 O450 O 0.04857 -0.06793 0.39781
 Zr451 Zr -0.00038 -0.04643 0.43188
 O452 O -0.09523 -0.03686 0.45023
 O453 O 0.00175 0.04567 0.35794
 O454 O -0.00204 -0.03332 0.34933
 O455 O 0.00091 -0.10468 0.43724
 O456 O -0.05071 -0.06683 0.40300
 C457 C -0.08441 -0.06085 0.41571
 O458 O -0.10714 0.02413 0.54539
 O459 O 0.00003 -0.04773 0.65328
 O460 O -0.09523 -0.03967 0.55134
 O461 O -0.05093 -0.07063 0.59738
 O462 O 0.00460 0.03338 0.66219
 O463 O -0.05022 0.05929 0.61819
 C464 C -0.08464 -0.06419 0.58515
 H465 H 0.04727 -0.00468 0.61033
 H466 H -0.05002 0.06717 0.51356
 H467 H -0.04684 -0.07386 0.49902
 H468 H 0.04878 0.00161 0.40478
 H469 H -0.00001 0.11192 0.60815
 H470 H -0.00192 0.11624 0.41844
 H471 H 0.00082 0.07159 0.34580
 H472 H -0.00870 -0.05609 0.32974
 H473 H 0.01087 0.05722 0.67921
 H474 H 0.00116 -0.07353 0.66596
 H475 H -0.00249 -0.11884 0.59540
 H476 H -0.00483 -0.11472 0.40131
 H477 H -0.04458 0.07759 0.64642
 H478 H -0.13088 0.01511 0.53112
 H479 H 0.12926 -0.01745 0.47766
 H480 H 0.04254 -0.08199 0.36499
 Zr481 Zr 0.75335 0.18475 0.25370
 O482 O 0.72671 0.14271 0.29757
 O483 O 0.78664 0.15399 0.20142
 O484 O 0.71656 0.15388 0.20592
 O485 O 0.82106 0.20017 0.34727
 O486 O 0.68107 0.19796 0.16677
 O487 O 0.79006 0.15510 0.30245
 O488 O 0.81570 0.19839 0.15283
 O489 O 0.74901 0.21531 0.18295
 O490 O 0.80042 0.21749 0.24958
 O491 O 0.70500 0.21572 0.26231
 O492 O 0.75448 0.21594 0.32536
 Zr493 Zr 0.74959 0.31390 0.25684
 Zr494 Zr 0.70241 0.24827 0.19349
 Zr495 Zr 0.80032 0.25026 0.31778
 Zr496 Zr 0.79526 0.24912 0.18101
 O497 O 0.79899 0.25221 0.40233
 O498 O 0.78135 0.24637 0.09878
 O499 O 0.79842 0.28323 0.24894
 O500 O 0.74848 0.28217 0.18620
 O501 O 0.70218 0.28162 0.26151
 O502 O 0.75377 0.28295 0.32711
 C503 C 0.81017 0.16465 0.16639
 C504 C 0.81457 0.16616 0.33585
 C505 C 0.68935 0.16427 0.17675
 O506 O 0.70278 0.24986 0.10894
 O507 O 0.67803 0.29792 0.16963
 O508 O 0.71078 0.34337 0.21072
 C509 C 0.68464 0.33197 0.18016
 O510 O 0.69243 0.20041 0.37035
 Zr511 Zr 0.70766 0.24951 0.32995
 O512 O 0.71569 0.34457 0.30801
 O513 O 0.64514 0.24594 0.20652
 O514 O 0.64988 0.24405 0.32505
 O515 O 0.71831 0.25610 0.41282
 O516 O 0.68331 0.29997 0.35133
 C517 C 0.68974 0.33375 0.33898
 O518 O 0.77506 0.35570 0.21111
 O519 O 0.85788 0.24928 0.30709
 O520 O 0.78779 0.34488 0.30233
 O521 O 0.82421 0.30063 0.33924
 O522 O 0.85327 0.25092 0.18517
 O523 O 0.81590 0.29805 0.14551
 C524 C 0.81575 0.33440 0.33000
 H525 H 0.82353 0.20328 0.24857
 H526 H 0.74686 0.29794 0.15404
 H527 H 0.75539 0.29866 0.35944
 H528 H 0.68336 0.19949 0.26590
 H529 H 0.80386 0.23960 0.07888
 H530 H 0.67686 0.24864 0.09734
 H531 H 0.63321 0.24655 0.17092
 H532 H 0.63961 0.25045 0.36058
 H533 H 0.86294 0.24484 0.14916
 H534 H 0.86906 0.24879 0.34321
 H535 H 0.82480 0.25353 0.41442
 H536 H 0.69473 0.26244 0.43022
 H537 H 0.82956 0.29172 0.11252
 H538 H 0.76612 0.37967 0.22506
 H539 H 0.73572 0.11875 0.28364
 H540 H 0.67447 0.20626 0.39884
 Zr541 Zr 0.74778 0.81446 0.75392
 O542 O 0.77560 0.85672 0.79596
 O543 O 0.71330 0.84489 0.70294
 O544 O 0.78373 0.84467 0.70389
 O545 O 0.68236 0.80033 0.85138
 O546 O 0.81733 0.79993 0.66252
 O547 O 0.71217 0.84480 0.80387
 O548 O 0.68247 0.80018 0.65711
 O549 O 0.74991 0.78320 0.68337
 O550 O 0.70050 0.78190 0.75316
 O551 O 0.79613 0.78316 0.76003
 O552 O 0.74864 0.78386 0.82602
 Zr553 Zr 0.75076 0.68519 0.75865
 Zr554 Zr 0.79653 0.75003 0.69149
 Zr555 Zr 0.70235 0.74984 0.82183
 Zr556 Zr 0.70347 0.74961 0.68478
 O557 O 0.70640 0.74903 0.90621
 O558 O 0.71511 0.75145 0.60174
 O559 O 0.70201 0.71621 0.75337
 O560 O 0.75014 0.71628 0.68755
 O561 O 0.79846 0.71721 0.75977
 O562 O 0.74885 0.71679 0.82873
 C563 C 0.68869 0.83404 0.66956
 C564 C 0.68835 0.83417 0.83860
 C565 C 0.80990 0.83380 0.67293
 O566 O 0.79375 0.74733 0.60709
 O567 O 0.82020 0.70006 0.66740
 O568 O 0.78860 0.65513 0.71132
 C569 C 0.81404 0.66618 0.67930
 O570 O 0.81159 0.79902 0.86772
 Zr571 Zr 0.79532 0.74983 0.82813
 O572 O 0.78523 0.65462 0.80896
 O573 O 0.85413 0.75240 0.70087
 O574 O 0.85289 0.75569 0.81984
 O575 O 0.78730 0.74303 0.91156
 O576 O 0.82088 0.69929 0.84666
 C577 C 0.81296 0.66542 0.83649
 O578 O 0.72420 0.64315 0.71452
 O579 O 0.64452 0.75089 0.81500
 O580 O 0.71309 0.65498 0.80610
 O581 O 0.67873 0.69992 0.84565
 O582 O 0.64562 0.74822 0.69257
 O583 O 0.68157 0.70047 0.65131
 C584 C 0.68619 0.66598 0.83568
 H585 H 0.67742 0.79618 0.75322
 H586 H 0.75084 0.70016 0.65557
 H587 H 0.74798 0.70132 0.86126
 H588 H 0.81794 0.79928 0.76204
 H589 H 0.69211 0.75817 0.58313
 H590 H 0.81932 0.74832 0.59387
 H591 H 0.86505 0.75121 0.66458
 H592 H 0.86417 0.74920 0.85462
 H593 H 0.63497 0.75398 0.65710
 H594 H 0.63443 0.75183 0.85180
 H595 H 0.68100 0.74787 0.92010
 H596 H 0.81137 0.73640 0.92712
 H597 H 0.66704 0.70656 0.61909
 H598 H 0.73326 0.61926 0.72843
 H599 H 0.76642 0.88060 0.78215
 H600 H 0.83004 0.79320 0.89546
 Zr601 Zr 0.25253 0.31637 0.74622
 O602 O 0.22561 0.35828 0.70249
 O603 O 0.28630 0.34721 0.79770
 O604 O 0.21625 0.34748 0.79467
 O605 O 0.31965 0.30054 0.65169
 O606 O 0.18018 0.30375 0.83370
 O607 O 0.28902 0.34580 0.69677
 O608 O 0.31564 0.30287 0.84603
 O609 O 0.24857 0.28604 0.81723
 O610 O 0.29956 0.28352 0.74972
 O611 O 0.20406 0.28547 0.73851
 O612 O 0.25310 0.28492 0.67474
 Zr613 Zr 0.24866 0.18719 0.74390
 Zr614 Zr 0.20181 0.25319 0.80764
 Zr615 Zr 0.29898 0.25056 0.68171
 Zr616 Zr 0.29481 0.25213 0.81858
 O617 O 0.29699 0.24852 0.59719
 O618 O 0.28146 0.25522 0.90101
 O619 O 0.29755 0.21781 0.75081
 O620 O 0.24794 0.21922 0.81433
 O621 O 0.20118 0.21951 0.73988
 O622 O 0.25234 0.21792 0.67337
 C623 C 0.31008 0.33657 0.83235
 C624 C 0.31334 0.33459 0.66309
 C625 C 0.18891 0.33735 0.82381
 O626 O 0.20278 0.25234 0.89220
 O627 O 0.17789 0.20351 0.83263
 O628 O 0.21025 0.15795 0.79101
 C629 C 0.18448 0.16941 0.82223
 O630 O 0.19072 0.30031 0.63051
 Zr631 Zr 0.20621 0.25138 0.67113
 O632 O 0.21443 0.15636 0.69349
 O633 O 0.14444 0.25515 0.79545
 O634 O 0.14848 0.25691 0.67711
 O635 O 0.21623 0.24454 0.58811
 O636 O 0.18169 0.20083 0.65047
 C637 C 0.18828 0.16707 0.66283
 O638 O 0.27445 0.14554 0.78949
 O639 O 0.35661 0.25137 0.69147
 O640 O 0.28658 0.15599 0.69790
 O641 O 0.32262 0.20009 0.65986
 O642 O 0.35279 0.25015 0.81360
 O643 O 0.31554 0.20324 0.85405
 C644 C 0.31430 0.16634 0.66949
 H645 H 0.32272 0.29766 0.75028
 H646 H 0.24656 0.20359 0.84665
 H647 H 0.25371 0.20210 0.64112
 H648 H 0.18245 0.30175 0.73508
 H649 H 0.30412 0.26198 0.92049
 H650 H 0.17692 0.25346 0.90417
 H651 H 0.13275 0.25474 0.83125
 H652 H 0.13791 0.25032 0.64186
 H653 H 0.36269 0.25625 0.84946
 H654 H 0.36755 0.25180 0.65518
 H655 H 0.32271 0.24713 0.58464
 H656 H 0.19253 0.23813 0.57118
 H657 H 0.32938 0.20961 0.88684
 H658 H 0.26544 0.12152 0.77582
 H659 H 0.23474 0.38227 0.71612
 H660 H 0.17240 0.29439 0.60259
 Zr661 Zr 0.24643 0.68461 0.24695
 O662 O 0.27294 0.64193 0.20393
 O663 O 0.21315 0.65463 0.30002
 O664 O 0.28334 0.65435 0.29531
 O665 O 0.17846 0.69899 0.15337
 O666 O 0.31864 0.69895 0.33385
 O667 O 0.20956 0.65437 0.19876
 O668 O 0.18428 0.69971 0.34782
 O669 O 0.25082 0.71614 0.31703
 O670 O 0.19942 0.71751 0.25042
 O671 O 0.29482 0.71545 0.23778
 O672 O 0.24542 0.71492 0.17468
 Zr673 Zr 0.25045 0.81384 0.24121
 Zr674 Zr 0.29745 0.74893 0.30591
 Zr675 Zr 0.19961 0.74940 0.18154
 Zr676 Zr 0.20462 0.75005 0.31829
 O677 O 0.20101 0.74994 0.09696
 O678 O 0.21849 0.74853 0.40059
 O679 O 0.20157 0.78330 0.24967
 O680 O 0.25143 0.78297 0.31247
 O681 O 0.29782 0.78142 0.23722
 O682 O 0.24621 0.78192 0.17162
 C683 C 0.18977 0.66577 0.33508
 C684 C 0.18489 0.66509 0.16536
 C685 C 0.31046 0.66513 0.32447
 O686 O 0.29705 0.75163 0.39042
 O687 O 0.32191 0.79883 0.32892
 O688 O 0.28916 0.84386 0.28713
 C689 C 0.31529 0.83279 0.31794
 O690 O 0.30760 0.69876 0.13016
 Zr691 Zr 0.29229 0.74839 0.16947
 O692 O 0.28451 0.84375 0.18946
 O693 O 0.35472 0.74626 0.29291
 O694 O 0.35006 0.74300 0.17469
 O695 O 0.28163 0.75378 0.08646
 O696 O 0.31663 0.79854 0.14674
 C697 C 0.31032 0.83250 0.15844
 O698 O 0.22495 0.85631 0.28587
 O699 O 0.14205 0.74901 0.19237
 O700 O 0.21228 0.84423 0.19495
 O701 O 0.17603 0.79954 0.15858
 O702 O 0.14661 0.75174 0.31396
 O703 O 0.18391 0.79946 0.35261
 C704 C 0.18444 0.83343 0.16718
 H705 H 0.17629 0.70335 0.25182
 H706 H 0.25304 0.79914 0.34431
 H707 H 0.24466 0.79719 0.13894
 H708 H 0.31645 0.69915 0.23456
 H709 H 0.19597 0.74209 0.42064
 H710 H 0.32297 0.75050 0.40207
 H711 H 0.36665 0.74737 0.32849
 H712 H 0.36039 0.74891 0.13906
 H713 H 0.13691 0.74614 0.35008
 H714 H 0.13084 0.74799 0.15629
 H715 H 0.17522 0.75125 0.08480
 H716 H 0.30520 0.75984 0.06888
 H717 H 0.17015 0.79359 0.38565
 H718 H 0.23396 0.88007 0.27141
 H719 H 0.26390 0.61819 0.21843
 H720 H 0.32561 0.70423 0.10163
 Zr721 Zr 0.24973 0.81422 0.75660
 O722 O 0.27517 0.85604 0.71088
 O723 O 0.21585 0.84491 0.80782
 O724 O 0.21095 0.84372 0.71054
 O725 O 0.32449 0.80087 0.83870
 O726 O 0.17817 0.79831 0.66942
 O727 O 0.28803 0.84515 0.80198
 O728 O 0.18334 0.80030 0.85093
 O729 O 0.20230 0.78196 0.76126
 O730 O 0.25394 0.78324 0.82684
 O731 O 0.24856 0.78252 0.68592
 O732 O 0.29854 0.78354 0.74858
 Zr733 Zr 0.25345 0.68503 0.75326
 Zr734 Zr 0.20249 0.74862 0.69322
 Zr735 Zr 0.30047 0.75053 0.81737
 Zr736 Zr 0.20780 0.74983 0.82966
 O737 O 0.35803 0.74948 0.80666
 O738 O 0.15003 0.74428 0.82485
 O739 O 0.25461 0.71622 0.82495
 O740 O 0.20511 0.71603 0.76200
 O741 O 0.24907 0.71566 0.68258
 O742 O 0.30052 0.71779 0.74912
 C743 C 0.18981 0.83410 0.83868
 C744 C 0.31606 0.83464 0.82948
 C745 C 0.18481 0.83235 0.67997
 O746 O 0.14523 0.74629 0.70636
 O747 O 0.18113 0.69833 0.66639
 O748 O 0.21661 0.65420 0.70544
 C749 C 0.18940 0.66461 0.67625
 O750 O 0.31598 0.79844 0.64525
 Zr751 Zr 0.29532 0.74947 0.68062
 O752 O 0.28672 0.65432 0.70085
 O753 O 0.20279 0.75026 0.60867
 O754 O 0.28137 0.74688 0.59839
 O755 O 0.35334 0.75118 0.68473
 O756 O 0.31566 0.69878 0.65219
 C757 C 0.31016 0.66503 0.66568
 O758 O 0.22685 0.64296 0.79711
 O759 O 0.29914 0.75248 0.90192
 O760 O 0.29023 0.65538 0.80195
 O761 O 0.32123 0.70045 0.84679
 O762 O 0.21847 0.75649 0.91251
 O763 O 0.19264 0.70074 0.87014
 C764 C 0.31477 0.66644 0.83533
 H765 H 0.25559 0.79897 0.85915
 H766 H 0.18348 0.69980 0.76558
 H767 H 0.32363 0.70357 0.74803
 H768 H 0.24693 0.79830 0.65378
 H769 H 0.13976 0.75070 0.86038
 H770 H 0.13327 0.74696 0.67078
 H771 H 0.17685 0.74908 0.59712
 H772 H 0.30386 0.74014 0.57844
 H773 H 0.19490 0.76286 0.92991
 H774 H 0.32496 0.75381 0.91399
 H775 H 0.36922 0.74902 0.84277
 H776 H 0.36298 0.74517 0.64868
 H777 H 0.17472 0.70659 0.89868
 H778 H 0.23586 0.61902 0.78311
 H779 H 0.26626 0.88001 0.72489
 H780 H 0.32966 0.79214 0.61225
 Zr781 Zr 0.25015 0.18536 0.25702
 O782 O 0.22401 0.14288 0.21322
 O783 O 0.28489 0.15539 0.30776
 O784 O 0.28827 0.15523 0.21025
 O785 O 0.17717 0.20003 0.34234
 O786 O 0.32012 0.20013 0.16666
 O787 O 0.21250 0.15513 0.30454
 O788 O 0.31817 0.20058 0.34851
 O789 O 0.29763 0.21769 0.25883
 O790 O 0.24732 0.21736 0.32664
 O791 O 0.24988 0.21611 0.18560
 O792 O 0.20122 0.21603 0.25038
 Zr793 Zr 0.24637 0.31461 0.25081
 Zr794 Zr 0.29605 0.25009 0.19007
 Zr795 Zr 0.20066 0.25000 0.31845
 Zr796 Zr 0.29350 0.25078 0.32668
 O797 O 0.14293 0.25079 0.31014
 O798 O 0.35116 0.25596 0.31897
 O799 O 0.24665 0.28439 0.32322
 O800 O 0.29482 0.28363 0.25818
 O801 O 0.24933 0.28299 0.18067
 O802 O 0.19925 0.28182 0.24950
 C803 C 0.31139 0.16659 0.33753
 C804 C 0.18517 0.16609 0.33331
 C805 C 0.31390 0.16625 0.17851
 O806 O 0.35356 0.25276 0.20048
 O807 O 0.31685 0.29995 0.16097
 O808 O 0.28263 0.34473 0.20114
 C809 C 0.30915 0.33383 0.17085
 O810 O 0.18171 0.19982 0.14795
 Zr811 Zr 0.20305 0.24918 0.18154
 O812 O 0.21217 0.34460 0.19896
 O813 O 0.29401 0.24705 0.10563
 O814 O 0.21540 0.25071 0.09871
 O815 O 0.14515 0.24744 0.18847
 O816 O 0.18201 0.29952 0.15295
 C817 C 0.18794 0.33348 0.16518
 O818 O 0.27365 0.35732 0.29266
 O819 O 0.20364 0.24942 0.40294
 O820 O 0.21044 0.34495 0.30026
 O821 O 0.18044 0.30049 0.34754
 O822 O 0.28435 0.24558 0.41012
 O823 O 0.30970 0.30040 0.36520
 C824 C 0.18654 0.33432 0.33489
 H825 H 0.24627 0.20213 0.35940
 H826 H 0.31655 0.29986 0.26044
 H827 H 0.17613 0.29602 0.24908
 H828 H 0.25092 0.19986 0.15379
 H829 H 0.36216 0.25007 0.35416
 H830 H 0.36479 0.25145 0.16440
 H831 H 0.31970 0.24812 0.09286
 H832 H 0.19254 0.25725 0.07960
 H833 H 0.30820 0.23940 0.42673
 H834 H 0.17807 0.24826 0.41618
 H835 H 0.13242 0.25188 0.34668
 H836 H 0.13471 0.25313 0.15284
 H837 H 0.32824 0.29490 0.39295
 H838 H 0.26439 0.38106 0.27844
 H839 H 0.23316 0.11913 0.22751
 H840 H 0.16726 0.20577 0.11559
 Zr841 Zr 0.74990 0.68580 0.24256
 O842 O 0.77615 0.64390 0.28708
 O843 O 0.71538 0.65529 0.19222
 O844 O 0.71169 0.65608 0.28955
 O845 O 0.82289 0.69961 0.15709
 O846 O 0.67961 0.70134 0.33230
 O847 O 0.78746 0.65507 0.19527
 O848 O 0.68205 0.70002 0.15072
 O849 O 0.70236 0.71805 0.23996
 O850 O 0.75284 0.71713 0.17250
 O851 O 0.74981 0.71724 0.31353
 O852 O 0.79877 0.71654 0.24903
 Zr853 Zr 0.75335 0.81509 0.24692
 Zr854 Zr 0.70358 0.75113 0.30826
 Zr855 Zr 0.79945 0.74985 0.18050
 Zr856 Zr 0.70662 0.75049 0.17168
 O857 O 0.85715 0.75064 0.18931
 O858 O 0.64893 0.75576 0.17882
 O859 O 0.75342 0.78416 0.17494
 O860 O 0.70497 0.78401 0.23969
 O861 O 0.75023 0.78414 0.31747
 O862 O 0.80053 0.78234 0.24902
 C863 C 0.68887 0.66618 0.16234
 C864 C 0.81478 0.66574 0.16630
 C865 C 0.68596 0.66734 0.32103
 O866 O 0.64611 0.75349 0.29732
 O867 O 0.68254 0.80125 0.33644
 O868 O 0.71696 0.84568 0.29612
 C869 C 0.69034 0.83504 0.32637
 O870 O 0.81792 0.70133 0.35165
 Zr871 Zr 0.79657 0.75037 0.31740
 O872 O 0.78724 0.84562 0.29858
 O873 O 0.70534 0.74902 0.39275
 O874 O 0.78397 0.75259 0.40013
 O875 O 0.85450 0.74880 0.31110
 O876 O 0.81727 0.80102 0.34548
 C877 C 0.81132 0.83483 0.33268
 O878 O 0.72613 0.85730 0.20421
 O879 O 0.79675 0.74861 0.09600
 O880 O 0.78953 0.84497 0.19737
 O881 O 0.81979 0.80008 0.15098
 O882 O 0.71593 0.74433 0.08838
 O883 O 0.69058 0.79970 0.13225
 C884 C 0.81361 0.83404 0.16310
 H885 H 0.75397 0.70160 0.13995
 H886 H 0.68323 0.80020 0.23706
 H887 H 0.82363 0.79657 0.24945
 H888 H 0.74871 0.70130 0.34557
 H889 H 0.63807 0.74945 0.14365
 H890 H 0.63475 0.75263 0.33333
 H891 H 0.67961 0.75011 0.40530
 H892 H 0.80676 0.75935 0.41930
 H893 H 0.69211 0.73794 0.07179
 H894 H 0.82235 0.74734 0.08295
 H895 H 0.86780 0.75137 0.15285
 H896 H 0.86473 0.75476 0.34680
 H897 H 0.67211 0.79392 0.10447
 H898 H 0.73530 0.88118 0.21815
 H899 H 0.76706 0.61997 0.27321
 H900 H 0.83219 0.70755 0.38411
 Zr901 Zr 0.74992 0.31513 0.74306
 O902 O 0.72402 0.35759 0.78727
 O903 O 0.78395 0.34493 0.69108
 O904 O 0.78826 0.34579 0.78842
 O905 O 0.67544 0.30007 0.66099
 O906 O 0.82265 0.30132 0.82887
 O907 O 0.71170 0.34509 0.69640
 O908 O 0.81622 0.29963 0.64878
 O909 O 0.79748 0.28298 0.73911
 O910 O 0.74573 0.28283 0.67387
 O911 O 0.75146 0.28474 0.81475
 O912 O 0.70126 0.28440 0.75234
 Zr913 Zr 0.74677 0.18602 0.75039
 Zr914 Zr 0.79773 0.25099 0.80824
 Zr915 Zr 0.69932 0.25018 0.68457
 Zr916 Zr 0.79198 0.24952 0.67183
 O917 O 0.64181 0.24954 0.69586
 O918 O 0.84978 0.24424 0.67656
 O919 O 0.74529 0.21589 0.67776
 O920 O 0.79499 0.21705 0.74056
 O921 O 0.75130 0.21797 0.82008
 O922 O 0.69959 0.21866 0.75383
 C923 C 0.80986 0.33361 0.66028
 C924 C 0.68385 0.33404 0.66891
 C925 C 0.81521 0.33512 0.81788
 O926 O 0.85496 0.24791 0.79505
 O927 O 0.81896 0.20123 0.83707
 O928 O 0.78385 0.15626 0.79904
 C929 C 0.81089 0.16730 0.82816
 O930 O 0.68410 0.30100 0.85544
 Zr931 Zr 0.70486 0.25153 0.82135
 O932 O 0.71375 0.15608 0.80380
 O933 O 0.79767 0.25494 0.89264
 O934 O 0.71914 0.25031 0.90351
 O935 O 0.64682 0.25298 0.81769
 O936 O 0.68475 0.20118 0.85139
 C937 C 0.69037 0.16720 0.83884
 O938 O 0.77350 0.14332 0.70772
 O939 O 0.70041 0.25021 0.59997
 O940 O 0.70994 0.15530 0.70274
 O941 O 0.67841 0.19951 0.65714
 O942 O 0.78115 0.25464 0.58883
 O943 O 0.80717 0.19971 0.63293
 C944 C 0.68509 0.16572 0.66944
 H945 H 0.74403 0.29791 0.64103
 H946 H 0.81667 0.20082 0.73745
 H947 H 0.67654 0.20440 0.75552
 H948 H 0.75314 0.30113 0.84635
 H949 H 0.85994 0.24996 0.64075
 H950 H 0.86699 0.24965 0.83051
 H951 H 0.82364 0.25393 0.90405
 H952 H 0.69675 0.24383 0.92383
 H953 H 0.80469 0.26066 0.57113
 H954 H 0.67456 0.25128 0.58799
 H955 H 0.63047 0.24827 0.65988
 H956 H 0.63734 0.24754 0.85398
 H957 H 0.82503 0.20505 0.60414
 H958 H 0.76463 0.11960 0.72250
 H959 H 0.73277 0.38137 0.77257
 H960 H 0.67067 0.29522 0.88881
 C961 C 0.14863 0.41967 0.89714
 C962 C 0.11073 0.41493 0.88680
 C963 C 0.10024 0.38579 0.85251
 C964 C 0.12607 0.36127 0.83223
 C965 C 0.16332 0.36552 0.84386
 C966 C 0.17469 0.39540 0.87527
 H967 H 0.15828 0.44173 0.92274
 H968 H 0.07178 0.38079 0.84254
 H969 H 0.11683 0.33858 0.80744
 H970 H 0.20345 0.39915 0.88444
 C971 C 0.39917 0.62225 0.36809
 C972 C 0.38822 0.58777 0.38756
 C973 C 0.35086 0.57811 0.38520
 C974 C 0.32505 0.60272 0.36372
 C975 C 0.33626 0.63761 0.34593
 C976 C 0.37355 0.64686 0.34803
 H977 H 0.42759 0.63077 0.36960
 H978 H 0.34166 0.55168 0.40001
 H979 H 0.29642 0.59495 0.36221
 H980 H 0.38309 0.67333 0.33378
 C981 C 0.85049 0.92172 0.61466
 C982 C 0.88752 0.91134 0.60936
 C983 C 0.89811 0.87588 0.62516
 C984 C 0.87250 0.85114 0.64496
 C985 C 0.83556 0.86120 0.65053
 C986 C 0.82472 0.89694 0.63599
 H987 H 0.84158 0.94890 0.60262
 H988 H 0.92625 0.86681 0.62113
 H989 H 0.88184 0.82400 0.65659
 H990 H 0.79640 0.90539 0.64019
 C991 C 0.60058 0.12025 0.13603
 C992 C 0.61177 0.08615 0.11521
 C993 C 0.64930 0.07701 0.11614
 C994 C 0.67506 0.10185 0.13726
 C995 C 0.66360 0.13643 0.15610
 C996 C 0.62615 0.14512 0.15571
 H997 H 0.57203 0.12837 0.13565
 H998 H 0.65868 0.05090 0.10026
 H999 H 0.70383 0.09454 0.13750
 H1000 H 0.61651 0.17137 0.17085
 C1001 C 0.89830 0.12356 0.39789
 C1002 C 0.88857 0.08630 0.40201
 C1003 C 0.85332 0.07521 0.38620
 C1004 C 0.82872 0.10106 0.36484
 C1005 C 0.83879 0.13839 0.36066
 C1006 C 0.87371 0.14926 0.37796
 H1007 H 0.92506 0.13304 0.41057
 H1008 H 0.84518 0.04662 0.38930
 H1009 H 0.80195 0.09195 0.35169
 H1010 H 0.88251 0.17765 0.37491
 C1011 C 0.35256 0.42538 0.61278
 C1012 C 0.38768 0.41406 0.59663
 C1013 C 0.39712 0.37670 0.60032
 C1014 C 0.37238 0.35113 0.62024
 C1015 C 0.33761 0.36222 0.63799
 C1016 C 0.32782 0.39964 0.63415
 H1017 H 0.34464 0.45405 0.61003
 H1018 H 0.42379 0.36708 0.58736
 H1019 H 0.38099 0.32266 0.62300
 H1020 H 0.30117 0.40894 0.64766
 C1021 C 0.64873 0.92558 0.88658
 C1022 C 0.61346 0.91444 0.90221
 C1023 C 0.60408 0.87705 0.89903
 C1024 C 0.62905 0.85124 0.88020
 C1025 C 0.66399 0.86212 0.86296
 C1026 C 0.67370 0.89960 0.86617
 H1027 H 0.65661 0.95428 0.88903
 H1028 H 0.57730 0.86757 0.91166
 H1029 H 0.62049 0.82274 0.87779
 H1030 H 0.70045 0.90872 0.85295
 C1031 C 0.10034 0.62197 0.10582
 C1032 C 0.11053 0.58495 0.09930
 C1033 C 0.14623 0.57415 0.11342
 C1034 C 0.17086 0.60000 0.13508
 C1035 C 0.16039 0.63712 0.14121
 C1036 C 0.12494 0.64769 0.12597
 H1037 H 0.07324 0.63133 0.09460
 H1038 H 0.15479 0.54579 0.10854
 H1039 H 0.19803 0.59111 0.14665
 H1040 H 0.11581 0.67589 0.13063
 C1041 C 0.35229 0.92281 0.11336
 C1042 C 0.38860 0.91180 0.10361
 C1043 C 0.39826 0.87471 0.11016
 C1044 C 0.37230 0.84905 0.12619
 C1045 C 0.33616 0.85992 0.13706
 C1046 C 0.32631 0.89709 0.13081
 H1047 H 0.34421 0.95128 0.10823
 H1048 H 0.42591 0.86535 0.10210
 H1049 H 0.38085 0.82072 0.13134
 H1050 H 0.29862 0.90614 0.13923
 C1051 C 0.64797 0.42426 0.38380
 C1052 C 0.61141 0.41354 0.39206
 C1053 C 0.60143 0.37666 0.38408
 C1054 C 0.62737 0.35085 0.36844
 C1055 C 0.66381 0.36140 0.35940
 C1056 C 0.67396 0.39839 0.36671
 H1057 H 0.65628 0.45256 0.39007
 H1058 H 0.57357 0.36752 0.39096
 H1059 H 0.61864 0.32266 0.36231
 H1060 H 0.70191 0.40714 0.35962
 C1061 C 0.90224 0.61737 0.86223
 C1062 C 0.89133 0.58488 0.88884
 C1063 C 0.85336 0.57881 0.89646
 C1064 C 0.82753 0.60464 0.87884
 C1065 C 0.83912 0.63747 0.85491
 C1066 C 0.87653 0.64347 0.84645
 H1067 H 0.93084 0.62355 0.85487
 H1068 H 0.84342 0.55425 0.91624
 H1069 H 0.79862 0.59942 0.88506
 H1070 H 0.88592 0.66836 0.82695
 C1071 C 0.10009 0.12357 0.61829
 C1072 C 0.11037 0.08681 0.60979
 C1073 C 0.14704 0.07637 0.61777
 C1074 C 0.17285 0.10238 0.63496
 C1075 C 0.16242 0.13926 0.64267
 C1076 C 0.12586 0.14953 0.63404
 H1077 H 0.07215 0.13253 0.61166
 H1078 H 0.15560 0.04818 0.61112
 H1079 H 0.20089 0.09382 0.64171
 H1080 H 0.11693 0.17764 0.64047
 C1081 C 0.14765 0.42564 0.38444
 C1082 C 0.11255 0.41450 0.40085
 C1083 C 0.10302 0.37716 0.39743
 C1084 C 0.12765 0.35140 0.37760
 C1085 C 0.16241 0.36228 0.35966
 C1086 C 0.17230 0.39970 0.36311
 H1087 H 0.15562 0.45431 0.38702
 H1088 H 0.07636 0.36767 0.41060
 H1089 H 0.11897 0.32294 0.37510
 H1090 H 0.19894 0.40881 0.34942
 C1091 C 0.39867 0.62395 0.89709
 C1092 C 0.38888 0.58673 0.90172
 C1093 C 0.35357 0.57563 0.88619
 C1094 C 0.32895 0.60142 0.86469
 C1095 C 0.33906 0.63871 0.86008
 C1096 C 0.37406 0.64959 0.87702
 H1097 H 0.42549 0.63345 0.90951
 H1098 H 0.34537 0.54708 0.88966
 H1099 H 0.30212 0.59230 0.85181
 H1100 H 0.38290 0.67795 0.87362
 C1101 C 0.60047 0.12220 0.61095
 C1102 C 0.61083 0.08525 0.60412
 C1103 C 0.64665 0.07459 0.61785
 C1104 C 0.67125 0.10053 0.63937
 C1105 C 0.66061 0.13757 0.64573
 C1106 C 0.62502 0.14797 0.63097
 H1107 H 0.57328 0.13146 0.60004
 H1108 H 0.65533 0.04629 0.61273
 H1109 H 0.69854 0.09177 0.65058
 H1110 H 0.61576 0.17612 0.63583
 C1111 C 0.85291 0.92506 0.11358
 C1112 C 0.88783 0.91368 0.09659
 C1113 C 0.89709 0.87625 0.09953
 C1114 C 0.87238 0.85067 0.11951
 C1115 C 0.83781 0.86180 0.13809
 C1116 C 0.82820 0.89931 0.13502
 H1117 H 0.84514 0.95380 0.11144
 H1118 H 0.92360 0.86658 0.08595
 H1119 H 0.88087 0.82214 0.12165
 H1120 H 0.80172 0.90864 0.14917
 C1121 C 0.89919 0.12467 0.87445
 C1122 C 0.88837 0.08941 0.89094
 C1123 C 0.85121 0.07939 0.88649
 C1124 C 0.82551 0.10431 0.86547
 C1125 C 0.83657 0.13985 0.85027
 C1126 C 0.87366 0.14957 0.85488
 H1127 H 0.92745 0.13347 0.87779
 H1128 H 0.84212 0.05239 0.89908
 H1129 H 0.79708 0.09614 0.86201
 H1130 H 0.88315 0.17654 0.84272
 C1131 C 0.10070 0.62073 0.63466
 C1132 C 0.11187 0.58657 0.61400
 C1133 C 0.14938 0.57738 0.61521
 C1134 C 0.17512 0.60218 0.63656
 C1135 C 0.16367 0.63679 0.65535
 C1136 C 0.12624 0.64555 0.65456
 H1137 H 0.07216 0.62891 0.63408
 H1138 H 0.15876 0.55122 0.59947
 H1139 H 0.20387 0.59481 0.63705
 H1140 H 0.11658 0.67182 0.66960
 C1141 C 0.64988 0.92220 0.38796
 C1142 C 0.61255 0.91243 0.39076
 C1143 C 0.60170 0.87781 0.37144
 C1144 C 0.62732 0.85322 0.35101
 C1145 C 0.66457 0.86262 0.34831
 C1146 C 0.67570 0.89761 0.36604
 H1147 H 0.65903 0.94871 0.40264
 H1148 H 0.57333 0.86917 0.37331
 H1149 H 0.61782 0.82667 0.33690
 H1150 H 0.70428 0.90551 0.36413
 C1151 C 0.35002 0.42172 0.11297
 C1152 C 0.38709 0.41137 0.10821
 C1153 C 0.39762 0.37594 0.12424
 C1154 C 0.37191 0.35119 0.14372
 C1155 C 0.33491 0.36123 0.14872
 C1156 C 0.32413 0.39694 0.13396
 H1157 H 0.34117 0.44888 0.10074
 H1158 H 0.42579 0.36688 0.12064
 H1159 H 0.38121 0.32409 0.15555
 H1160 H 0.29578 0.40536 0.13774
 C1161 C 0.60037 0.62276 0.11910
 C1162 C 0.61064 0.58607 0.10997
 C1163 C 0.64740 0.57566 0.11711
 C1164 C 0.67331 0.60163 0.13403
 C1165 C 0.66289 0.63845 0.14234
 C1166 C 0.62623 0.64869 0.13460
 H1167 H 0.57236 0.63171 0.11312
 H1168 H 0.65596 0.54753 0.10995
 H1169 H 0.70143 0.59310 0.14012
 H1170 H 0.61730 0.67675 0.14153
 C1171 C 0.14814 0.92467 0.88377
 C1172 C 0.11150 0.91408 0.89174
 C1173 C 0.10144 0.87725 0.88341
 C1174 C 0.12736 0.85139 0.86777
 C1175 C 0.16387 0.86181 0.85906
 C1176 C 0.17410 0.89875 0.86666
 H1177 H 0.15654 0.95292 0.89030
 H1178 H 0.07353 0.86818 0.89006
 H1179 H 0.11856 0.82323 0.86142
 H1180 H 0.20210 0.90744 0.85982
 C1181 C 0.39956 0.12383 0.38418
 C1182 C 0.38940 0.08712 0.39324
 C1183 C 0.35280 0.07650 0.38490
 C1184 C 0.32700 0.10223 0.36684
 C1185 C 0.33731 0.13906 0.35848
 C1186 C 0.37380 0.14952 0.36750
 H1187 H 0.42743 0.13295 0.39098
 H1188 H 0.34428 0.04836 0.39189
 H1189 H 0.29903 0.09348 0.35987
 H1190 H 0.38269 0.17757 0.36067
 C1191 C 0.85209 0.42356 0.61423
 C1192 C 0.88851 0.41251 0.60538
 C1193 C 0.89820 0.37555 0.61316
 C1194 C 0.87214 0.35003 0.62931
 C1195 C 0.83586 0.36092 0.63906
 C1196 C 0.82600 0.39798 0.63180
 H1197 H 0.84398 0.45192 0.60818
 H1198 H 0.92593 0.36614 0.60588
 H1199 H 0.88070 0.32179 0.63535
 H1200 H 0.79820 0.40705 0.63941
 C1201 C 0.90055 0.62356 0.10861
 C1202 C 0.88912 0.58828 0.09276
 C1203 C 0.85241 0.57801 0.10171
 C1204 C 0.82791 0.60261 0.12680
 C1205 C 0.83966 0.63804 0.14201
 C1206 C 0.87623 0.64805 0.13249
 H1207 H 0.92848 0.63257 0.10206
 H1208 H 0.84286 0.55095 0.09001
 H1209 H 0.79979 0.59426 0.13341
 H1210 H 0.88630 0.67499 0.14392
 C1211 C 0.64598 0.42128 0.60456
 C1212 C 0.60925 0.41097 0.59602
 C1213 C 0.59780 0.37579 0.61210
 C1214 C 0.62220 0.35141 0.63578
 C1215 C 0.65882 0.36147 0.64478
 C1216 C 0.67054 0.39680 0.62938
 H1217 H 0.65553 0.44827 0.59267
 H1218 H 0.56984 0.36678 0.60586
 H1219 H 0.61218 0.32452 0.64742
 H1220 H 0.69869 0.40517 0.63565
 C1221 C 0.09903 0.12469 0.39059
 C1222 C 0.11017 0.08924 0.40581
 C1223 C 0.14676 0.07862 0.39665
 C1224 C 0.17148 0.10307 0.37199
 C1225 C 0.16007 0.13867 0.35742
 C1226 C 0.12359 0.14902 0.36711
 H1227 H 0.07119 0.13393 0.39732
 H1228 H 0.15606 0.05141 0.40787
 H1229 H 0.19950 0.09443 0.36516
 H1230 H 0.11377 0.17611 0.35610
 C1231 C 0.35436 0.92161 0.89418
 C1232 C 0.39159 0.91201 0.89931
 C1233 C 0.40329 0.87764 0.87990
 C1234 C 0.37857 0.85322 0.85687
 C1235 C 0.34141 0.86246 0.85181
 C1236 C 0.32947 0.89712 0.86996
 H1237 H 0.34458 0.94795 0.90867
 H1238 H 0.43164 0.86917 0.88335
 H1239 H 0.38867 0.82683 0.84292
 H1240 H 0.30089 0.90482 0.86669
 C1241 C 0.14564 0.92093 0.62145
 C1242 C 0.11022 0.90923 0.60712
 C1243 C 0.10007 0.87260 0.61699
 C1244 C 0.12447 0.84814 0.64047
 C1245 C 0.15974 0.85957 0.65545
 C1246 C 0.17014 0.89632 0.64606
 H1247 H 0.15408 0.94909 0.61448
 H1248 H 0.07311 0.86260 0.60616
 H1249 H 0.11543 0.82015 0.64739
 H1250 H 0.19722 0.90582 0.65710
 C1251 C 0.60119 0.62741 0.38460
 C1252 C 0.61108 0.59065 0.39404
 C1253 C 0.64638 0.57875 0.37930
 C1254 C 0.67100 0.60328 0.35465
 C1255 C 0.66085 0.64015 0.34568
 C1256 C 0.62571 0.65178 0.36113
 H1257 H 0.57433 0.63755 0.39573
 H1258 H 0.65462 0.55048 0.38591
 H1259 H 0.69797 0.59360 0.34324
 H1260 H 0.61683 0.67985 0.35453
 C1261 C 0.39912 0.12586 0.11685
 C1262 C 0.38908 0.08922 0.10661
 C1263 C 0.35355 0.07751 0.12033
 C1264 C 0.32882 0.10213 0.14471
 C1265 C 0.33911 0.13890 0.15436
 C1266 C 0.37451 0.15033 0.14001
 H1267 H 0.42617 0.13586 0.10649
 H1268 H 0.34520 0.04933 0.11306
 H1269 H 0.30165 0.09264 0.15530
 H1270 H 0.38347 0.17833 0.14721
 C1271 C 0.85371 0.41908 0.88995
 C1272 C 0.89184 0.41226 0.88677
 C1273 C 0.90347 0.38069 0.85806
 C1274 C 0.87832 0.35635 0.83566
 C1275 C 0.84069 0.36297 0.83955
 C1276 C 0.82844 0.39488 0.86589
 H1277 H 0.84324 0.44295 0.91106
 H1278 H 0.93222 0.37386 0.85372
 H1279 H 0.88840 0.33206 0.81514
 H1280 H 0.79938 0.40043 0.86935
 C1281 C 0.60431 0.12506 0.89389
 C1282 C 0.61386 0.08786 0.89917
 C1283 C 0.64981 0.07672 0.88709
 C1284 C 0.67538 0.10246 0.86806
 C1285 C 0.66557 0.13975 0.86292
 C1286 C 0.62989 0.15070 0.87658
 H1287 H 0.57701 0.13452 0.90394
 H1288 H 0.65782 0.04817 0.89141
 H1289 H 0.70268 0.09331 0.85742
 H1290 H 0.62128 0.17908 0.87233
 C1291 C 0.39715 0.62280 0.61446
 C1292 C 0.38712 0.58607 0.60541
 C1293 C 0.35073 0.57512 0.61483
 C1294 C 0.32506 0.60064 0.63439
 C1295 C 0.33531 0.63754 0.64262
 C1296 C 0.37153 0.64825 0.63226
 H1297 H 0.42480 0.63217 0.60664
 H1298 H 0.34237 0.54694 0.60767
 H1299 H 0.29730 0.59175 0.64257
 H1300 H 0.38041 0.67631 0.63914
 C1301 C 0.14757 0.42305 0.11301
 C1302 C 0.11102 0.41235 0.10422
 C1303 C 0.10074 0.37583 0.11439
 C1304 C 0.12627 0.35038 0.13252
 C1305 C 0.16267 0.36088 0.14210
 C1306 C 0.17314 0.39758 0.13282
 H1307 H 0.15619 0.45103 0.10506
 H1308 H 0.07297 0.36658 0.10718
 H1309 H 0.11722 0.32249 0.14015
 H1310 H 0.20102 0.40636 0.14034
 C1311 C 0.85149 0.92460 0.38445
 C1312 C 0.88817 0.91406 0.39242
 C1313 C 0.89860 0.87762 0.38173
 C1314 C 0.87308 0.85206 0.36397
 C1315 C 0.83655 0.86238 0.35531
 C1316 C 0.82591 0.89900 0.36498
 H1317 H 0.84279 0.95252 0.39286
 H1318 H 0.92649 0.86851 0.38834
 H1319 H 0.88223 0.82423 0.35593
 H1320 H 0.79789 0.90760 0.35810
 C1321 C 0.89923 0.62592 0.61759
 C1322 C 0.88915 0.58933 0.60713
 C1323 C 0.85361 0.57759 0.62072
 C1324 C 0.82888 0.60216 0.64519
 C1325 C 0.83920 0.63889 0.65502
 C1326 C 0.87462 0.65033 0.64085
 H1327 H 0.92630 0.63593 0.60734
 H1328 H 0.84524 0.54945 0.61327
 H1329 H 0.80169 0.59268 0.65568
 H1330 H 0.88361 0.67830 0.64825
 C1331 C 0.64540 0.42040 0.12116
 C1332 C 0.60994 0.40870 0.10701
 C1333 C 0.59976 0.37212 0.11727
 C1334 C 0.62419 0.34772 0.14087
 C1335 C 0.65951 0.35915 0.15561
 C1336 C 0.66992 0.39586 0.14590
 H1337 H 0.65387 0.44852 0.11392
 H1338 H 0.57277 0.36211 0.10663
 H1339 H 0.61514 0.31976 0.14805
 H1340 H 0.69703 0.40538 0.15675
 C1341 C 0.35410 0.92124 0.37863
 C1342 C 0.38979 0.90979 0.39202
 C1343 C 0.40029 0.87345 0.38030
 C1344 C 0.37598 0.84905 0.35622
 C1345 C 0.34040 0.86020 0.34238
 C1346 C 0.32968 0.89670 0.35338
 H1347 H 0.34533 0.94915 0.38697
 H1348 H 0.42744 0.86358 0.39026
 H1349 H 0.38528 0.82128 0.34807
 H1350 H 0.30237 0.90601 0.34329
 C1351 C 0.10109 0.12910 0.88934
 C1352 C 0.11087 0.09206 0.89655
 C1353 C 0.14572 0.08023 0.87973
 C1354 C 0.16993 0.10506 0.85492
 C1355 C 0.15984 0.14216 0.84779
 C1356 C 0.12523 0.15377 0.86567
 H1357 H 0.07455 0.13916 0.90218
 H1358 H 0.15384 0.05176 0.88463
 H1359 H 0.19650 0.09537 0.84169
 H1360 H 0.11640 0.18202 0.86067
 C1361 C 0.14639 0.92090 0.10369
 C1362 C 0.10960 0.91064 0.09546
 C1363 C 0.09818 0.87548 0.11163
 C1364 C 0.12266 0.85105 0.13501
 C1365 C 0.15935 0.86102 0.14360
 C1366 C 0.17105 0.89636 0.12820
 H1367 H 0.15592 0.94789 0.09174
 H1368 H 0.07018 0.86650 0.10567
 H1369 H 0.11266 0.82417 0.14669
 H1370 H 0.19924 0.90467 0.13417
 C1371 C 0.85382 0.42146 0.39479
 C1372 C 0.89100 0.41180 0.40038
 C1373 C 0.90273 0.37735 0.38135
 C1374 C 0.87811 0.35292 0.35815
 C1375 C 0.84100 0.36223 0.35256
 C1376 C 0.82901 0.39695 0.37042
 H1377 H 0.84403 0.44788 0.40897
 H1378 H 0.93104 0.36882 0.38517
 H1379 H 0.88825 0.32649 0.34446
 H1380 H 0.80047 0.40469 0.36675
 C1381 C 0.40090 0.12343 0.61583
 C1382 C 0.38936 0.08850 0.59851
 C1383 C 0.35235 0.07861 0.60562
 C1384 C 0.32761 0.10327 0.63006
 C1385 C 0.33944 0.13840 0.64646
 C1386 C 0.37635 0.14799 0.63907
 H1387 H 0.42906 0.13217 0.61079
 H1388 H 0.34269 0.05183 0.59279
 H1389 H 0.29924 0.09526 0.63506
 H1390 H 0.38645 0.17471 0.65152
 C1391 C 0.59989 0.62495 0.89297
 C1392 C 0.61067 0.58916 0.90697
 C1393 C 0.64709 0.57822 0.89714
 C1394 C 0.67198 0.60269 0.87294
 C1395 C 0.66092 0.63862 0.85955
 C1396 C 0.62463 0.64931 0.86997
 H1397 H 0.57218 0.63442 0.90028
 H1398 H 0.65609 0.55074 0.90744
 H1399 H 0.69985 0.59380 0.86551
 H1400 H 0.61510 0.67667 0.85986
 C1401 C 0.35097 0.42596 0.88419
 C1402 C 0.38771 0.41528 0.89121
 C1403 C 0.39798 0.37894 0.87949
 C1404 C 0.37222 0.35360 0.86188
 C1405 C 0.33560 0.36403 0.85440
 C1406 C 0.32513 0.40058 0.86484
 H1407 H 0.34239 0.45381 0.89337
 H1408 H 0.42591 0.36971 0.88530
 H1409 H 0.38120 0.32580 0.85314
 H1410 H 0.29704 0.40925 0.85882
 C1411 C 0.89748 0.12218 0.11692
 C1412 C 0.88733 0.08555 0.10722
 C1413 C 0.85079 0.07477 0.11573
 C1414 C 0.82505 0.10034 0.13494
 C1415 C 0.83542 0.13714 0.14370
 C1416 C 0.87181 0.14769 0.13436
 H1417 H 0.92526 0.13144 0.10980
 H1418 H 0.84233 0.04668 0.10803
 H1419 H 0.79716 0.09157 0.14239
 H1420 H 0.88074 0.17568 0.14172
 C1421 C 0.64824 0.92353 0.61713
 C1422 C 0.61150 0.91302 0.60956
 C1423 C 0.60106 0.87673 0.62110
 C1424 C 0.62663 0.85131 0.63913
 C1425 C 0.66326 0.86158 0.64723
 C1426 C 0.67388 0.89808 0.63683
 H1427 H 0.65698 0.95133 0.60817
 H1428 H 0.57313 0.86760 0.61494
 H1429 H 0.61747 0.82358 0.64771
 H1430 H 0.70195 0.90668 0.64323
 C1431 C 0.10353 0.62409 0.38998
 C1432 C 0.11319 0.58704 0.39669
 C1433 C 0.14919 0.57578 0.38512
 C1434 C 0.17476 0.60128 0.36542
 C1435 C 0.16485 0.63845 0.35909
 C1436 C 0.12909 0.64950 0.37199
 H1437 H 0.07618 0.63366 0.39954
 H1438 H 0.15727 0.54734 0.39049
 H1439 H 0.20214 0.59208 0.35536
 H1440 H 0.12042 0.67778 0.36677
   
