data_POSCAR
  _audit_creation_date              2014-09-24
  _audit_creation_method            'ToBaCCo'
  _symmetry_space_group_name_H-M    'P1'
  _symmetry_Int_Tables_number       1
  _symmetry_cell_setting            triclinic
  loop_
  _symmetry_equiv_pos_as_xyz
 x,y,z
_cell_length_a 69.2924
_cell_length_b 68.2704
_cell_length_c 73.0400
_cell_angle_alpha 88.746100
_cell_angle_beta 90.313300
_cell_angle_gamma 90.698000
loop_
  _atom_site_label
  _atom_site_type_symbol
  _atom_site_fract_x
  _atom_site_fract_y
  _atom_site_fract_z
C1 C 0.41526 0.01325 0.27689
 C2 C 0.39939 0.02867 0.27410
 C3 C 0.38811 0.02586 0.25900
 C4 C 0.39356 0.00777 0.24803
 C5 C 0.40425 -0.00631 0.27706
 C6 C 0.39296 -0.00942 0.26208
 C7 C 0.42629 0.01382 0.25878
 C8 C 0.41511 0.01097 0.24367
 H9 H 0.39766 0.04136 0.28245
 H10 H 0.38433 0.00552 0.23577
 H11 H 0.40463 -0.01639 0.28871
 H12 H 0.44175 0.01621 0.25809
 C13 C 0.08588 -0.00160 0.77260
 C14 C 0.10088 -0.01792 0.77177
 C15 C 0.11229 -0.01696 0.75667
 C16 C 0.10755 0.00037 0.74357
 C17 C 0.09759 0.01744 0.77055
 C18 C 0.10898 0.01868 0.75550
 C19 C 0.07512 -0.00329 0.75549
 C20 C 0.08690 -0.00202 0.73927
 H21 H 0.10143 -0.03001 0.78162
 H22 H 0.11744 0.00094 0.73173
 H23 H 0.09728 0.02877 0.78071
 H24 H 0.05968 -0.00538 0.75504
 C25 C 0.58677 0.49788 0.27243
 C26 C 0.60135 0.48126 0.27100
 C27 C 0.61243 0.48218 0.25567
 C28 C 0.60785 0.49973 0.24287
 C29 C 0.59880 0.51668 0.27023
 C30 C 0.60983 0.51785 0.25494
 C31 C 0.57498 0.49668 0.25454
 C32 C 0.58598 0.49776 0.23904
 H33 H 0.60211 0.46920 0.28086
 H34 H 0.61695 0.50046 0.23041
 H35 H 0.59891 0.52797 0.28043
 H36 H 0.55946 0.49504 0.25403
 C37 C 0.91475 0.51476 0.77643
 C38 C 0.89917 0.53052 0.77401
 C39 C 0.88777 0.52832 0.75889
 C40 C 0.89280 0.51036 0.74752
 C41 C 0.90332 0.49545 0.77627
 C42 C 0.89194 0.49288 0.76127
 C43 C 0.92571 0.51545 0.75829
 C44 C 0.91441 0.51321 0.74315
 H45 H 0.89749 0.54286 0.78281
 H46 H 0.88346 0.50856 0.73527
 H47 H 0.90356 0.48508 0.78771
 H48 H 0.94122 0.51743 0.75762
 C49 C 0.27431 0.36858 0.99028
 C50 C 0.27306 0.35138 1.00413
 C51 C 0.25652 0.34050 1.00310
 C52 C 0.24271 0.34745 0.98780
 C53 C 0.27141 0.35869 0.97168
 C54 C 0.25489 0.34785 0.97033
 C55 C 0.25566 0.38011 0.99314
 C56 C 0.23912 0.36916 0.99165
 H57 H 0.28399 0.34857 1.01448
 H58 H 0.22936 0.33838 0.98674
 H59 H 0.28181 0.35927 0.96070
 H60 H 0.25563 0.39576 0.99523
 C61 C 0.76942 0.13804 1.00478
 C62 C 0.76858 0.15494 0.99061
 C63 C 0.75227 0.16572 0.99123
 C64 C 0.73789 0.15846 1.00602
 C65 C 0.76603 0.14769 1.02326
 C66 C 0.74955 0.15836 1.02401
 C67 C 0.75186 0.12674 1.00124
 C68 C 0.73428 0.13766 1.00244
 H69 H 0.77862 0.15687 0.97942
 H70 H 0.72489 0.16773 1.00623
 H71 H 0.77559 0.14565 1.03491
 H72 H 0.75208 0.11104 0.99966
 C73 C 0.27369 0.63857 0.50609
 C74 C 0.27290 0.65471 0.49119
 C75 C 0.25665 0.66561 0.49121
 C76 C 0.24216 0.65923 0.50617
 C77 C 0.27010 0.64906 0.52407
 C78 C 0.25361 0.65976 0.52424
 C79 C 0.25508 0.62654 0.50283
 C80 C 0.23853 0.63720 0.50323
 H81 H 0.28327 0.65609 0.48019
 H82 H 0.22883 0.66809 0.50611
 H83 H 0.27937 0.64728 0.53597
 H84 H 0.25490 0.61079 0.50148
 C85 C 0.77388 0.86565 0.49197
 C86 C 0.77243 0.84855 0.50590
 C87 C 0.75570 0.83797 0.50502
 C88 C 0.74192 0.84504 0.48974
 C89 C 0.77070 0.85572 0.47343
 C90 C 0.75400 0.84514 0.47220
 C91 C 0.75545 0.87751 0.49487
 C92 C 0.73872 0.86684 0.49352
 H93 H 0.78330 0.84574 0.51631
 H94 H 0.72842 0.83619 0.48881
 H95 H 0.78101 0.85608 0.46238
 H96 H 0.75568 0.89317 0.49691
 C97 C -0.01631 0.27224 0.38166
 C98 C 0.00442 0.27260 0.37451
 C99 C 0.00863 0.25781 0.36300
 C100 C -0.00854 0.24357 0.36018
 C101 C -0.02848 0.27147 0.36543
 C102 C -0.02423 0.25586 0.35346
 C103 C -0.01879 0.25190 0.39082
 C104 C -0.01447 0.23683 0.37966
 H105 H 0.01478 0.28368 0.37858
 H106 H -0.00528 0.23135 0.35110
 H107 H -0.04179 0.27952 0.36408
 H108 H -0.02296 0.24967 0.40497
 C109 C 0.00720 0.75544 0.09549
 C110 C -0.01256 0.75781 0.10467
 C111 C -0.01512 0.74642 0.12005
 C112 C 0.00224 0.73348 0.12474
 C113 C 0.02160 0.75967 0.11108
 C114 C 0.01911 0.74802 0.12622
 C115 C 0.00893 0.73352 0.09215
 C116 C 0.00629 0.72209 0.10741
 H117 H -0.02295 0.76863 0.10023
 H118 H 0.00045 0.72409 0.13721
 H119 H 0.03271 0.77093 0.11034
 H120 H 0.01198 0.72761 0.07885
 C121 C 0.51169 0.25872 0.59762
 C122 C 0.49090 0.26086 0.60458
 C123 C 0.48648 0.24911 0.61934
 C124 C 0.50324 0.23607 0.62567
 C125 C 0.52404 0.26256 0.61478
 C126 C 0.51974 0.25054 0.62929
 C127 C 0.51390 0.23689 0.59406
 C128 C 0.50944 0.22509 0.60868
 H129 H 0.48103 0.27164 0.59904
 H130 H 0.50007 0.22638 0.63769
 H131 H 0.53513 0.27380 0.61556
 H132 H 0.51839 0.23130 0.58101
 C133 C 0.47994 0.77609 0.87911
 C134 C 0.50102 0.77680 0.87266
 C135 C 0.50603 0.76153 0.86212
 C136 C 0.48951 0.74682 0.85906
 C137 C 0.46805 0.77451 0.86133
 C138 C 0.47317 0.75920 0.85085
 C139 C 0.47744 0.75704 0.88814
 C140 C 0.48311 0.74080 0.87736
 H141 H 0.51079 0.78884 0.87561
 H142 H 0.49322 0.73468 0.85000
 H143 H 0.45563 0.78326 0.85787
 H144 H 0.47318 0.75557 0.90234
 C145 C -0.23440 0.66139 0.97318
 C146 C -0.21793 0.64667 0.97608
 C147 C -0.22036 0.63431 0.99081
 C148 C -0.23918 0.63762 1.00139
 C149 C -0.25256 0.64853 0.97221
 C150 C -0.25525 0.63610 0.98677
 C151 C -0.23576 0.67171 0.99155
 C152 C -0.23831 0.65952 1.00646
 H153 H -0.20512 0.64608 0.96780
 H154 H -0.24133 0.62714 1.01302
 H155 H -0.26266 0.64948 0.96086
 H156 H -0.23337 0.68734 0.99254
 C157 C -0.25034 0.34443 0.47968
 C158 C -0.26599 0.36011 0.48072
 C159 C -0.26439 0.37178 0.49552
 C160 C -0.24720 0.36660 0.50813
 C161 C -0.23128 0.35581 0.48079
 C162 C -0.22937 0.36739 0.49558
 C163 C -0.25191 0.33369 0.49710
 C164 C -0.25009 0.34575 0.51303
 H165 H -0.27827 0.36075 0.47150
 H166 H -0.24609 0.37684 0.51961
 H167 H -0.22035 0.35502 0.47028
 H168 H -0.25449 0.31808 0.49786
 C169 C 0.24766 -0.15642 -0.02185
 C170 C 0.23146 -0.14132 -0.02106
 C171 C 0.23242 -0.12955 -0.00627
 C172 C 0.24967 -0.13403 0.00654
 C173 C 0.26631 -0.14437 -0.02059
 C174 C 0.26764 -0.13265 -0.00584
 C175 C 0.24626 -0.16711 -0.00439
 C176 C 0.24748 -0.15494 0.01149
 H177 H 0.21935 -0.14113 -0.03050
 H178 H 0.25028 -0.12373 0.01800
 H179 H 0.27743 -0.14488 -0.03093
 H180 H 0.24419 -0.18278 -0.00355
 C181 C 0.26495 1.15874 0.46997
 C182 C 0.27991 1.14242 0.47258
 C183 C 0.27726 1.13098 0.48791
 C184 C 0.25967 1.13675 0.49934
 C185 C 0.24553 1.14789 0.47056
 C186 C 0.24244 1.13656 0.48582
 C187 C 0.26596 1.16995 0.48792
 C188 C 0.26327 1.15861 0.50332
 H189 H 0.29252 1.14080 0.46417
 H190 H 0.25754 1.12732 0.51174
 H191 H 0.23529 1.14874 0.45932
 H192 H 0.26853 1.18562 0.48827
 C193 C 0.11873 0.52133 0.25035
 C194 C 0.10311 0.51817 0.23572
 C195 C 0.09187 0.50193 0.23855
 C196 C 0.09741 0.48987 0.25577
 C197 C 0.10782 0.52082 0.26849
 C198 C 0.09650 0.50461 0.27139
 C199 C 0.13011 0.50208 0.25039
 C200 C 0.11903 0.48561 0.25323
 H201 H 0.10171 0.52748 0.22359
 H202 H 0.08820 0.47661 0.25791
 H203 H 0.10890 0.53262 0.27814
 H204 H 0.14533 0.50131 0.24736
 C205 C -0.11637 1.01798 0.24998
 C206 C -0.10045 1.01835 0.26453
 C207 C -0.08875 1.00252 0.26470
 C208 C -0.09417 0.98740 0.25003
 C209 C -0.10571 1.01520 0.23184
 C210 C -0.09408 0.99917 0.23177
 C211 C -0.12655 0.99944 0.25312
 C212 C -0.11455 0.98243 0.25303
 H213 H -0.09921 1.02987 0.27445
 H214 H -0.08431 0.97473 0.25024
 H215 H -0.10804 1.02448 0.21984
 H216 H -0.14189 0.99791 0.25088
 C217 C 0.38652 0.51937 -0.25309
 C218 C 0.40187 0.51984 -0.23798
 C219 C 0.41275 0.50346 -0.23642
 C220 C 0.40740 0.48775 -0.25049
 C221 C 0.39797 0.51490 -0.27054
 C222 C 0.40880 0.49841 -0.26914
 C223 C 0.37484 0.50050 -0.24925
 C224 C 0.38556 0.48385 -0.24821
 H225 H 0.40361 0.53211 -0.22893
 H226 H 0.41637 0.47441 -0.24939
 H227 H 0.39719 0.52317 -0.28328
 H228 H 0.35922 0.50020 -0.24972
 C229 C 0.61646 0.02470 -0.24930
 C230 C 0.60107 0.02152 -0.26415
 C231 C 0.58964 0.00542 -0.26133
 C232 C 0.59477 -0.00650 -0.24391
 C233 C 0.60522 0.02452 -0.23134
 C234 C 0.59369 0.00844 -0.22847
 C235 C 0.62766 0.00534 -0.24887
 C236 C 0.61639 -0.01098 -0.24602
 H237 H 0.59992 0.03076 -0.27634
 H238 H 0.58542 -0.01966 -0.24179
 H239 H 0.60623 0.03642 -0.22180
 H240 H 0.64292 0.00437 -0.25164
 C241 C 0.01931 0.23105 0.85694
 C242 C 0.02071 0.25184 0.86460
 C243 C 0.00610 0.25632 0.87608
 C244 C -0.00863 0.23958 0.87886
 C245 C 0.01824 0.21775 0.87423
 C246 C 0.00354 0.22225 0.88563
 C247 C 0.00027 0.22965 0.84868
 C248 C -0.01525 0.23464 0.86052
 H249 H 0.03285 0.26163 0.86197
 H250 H -0.02020 0.24284 0.88866
 H251 H 0.02802 0.20603 0.87758
 H252 H -0.00163 0.22700 0.83423
 C253 C 0.51105 0.25874 0.16287
 C254 C 0.51431 0.23879 0.15401
 C255 C 0.50384 0.23600 0.13845
 C256 C 0.49106 0.25338 0.13307
 C257 C 0.51568 0.27355 0.14727
 C258 C 0.50503 0.27087 0.13182
 C259 C 0.48923 0.25996 0.16553
 C260 C 0.47883 0.25706 0.14998
 H261 H 0.52526 0.22861 0.15860
 H262 H 0.48232 0.25122 0.12049
 H263 H 0.52630 0.28523 0.14829
 H264 H 0.48263 0.26258 0.17865
 C265 C 0.00876 0.75457 0.66531
 C266 C 0.01102 0.73420 0.65697
 C267 C 0.00073 0.73159 0.64125
 C268 C -0.01107 0.74957 0.63536
 C269 C 0.01442 0.76868 0.64945
 C270 C 0.00382 0.76627 0.63394
 C271 C -0.01296 0.75714 0.66760
 C272 C -0.02330 0.75450 0.65197
 H273 H 0.02083 0.72330 0.66234
 H274 H -0.01952 0.74778 0.62256
 H275 H 0.02539 0.78002 0.65053
 H276 H -0.01953 0.76082 0.68048
 C277 C 0.52214 0.73379 0.35695
 C278 C 0.52366 0.75458 0.36451
 C279 C 0.50912 0.75920 0.37602
 C280 C 0.49429 0.74261 0.37899
 C281 C 0.52091 0.72055 0.37426
 C282 C 0.50631 0.72521 0.38570
 C283 C 0.50200 0.73257 0.34830
 C284 C 0.48746 0.73730 0.35974
 H285 H 0.53586 0.76427 0.36183
 H286 H 0.48235 0.74619 0.38834
 H287 H 0.53070 0.70886 0.37770
 H288 H 0.49963 0.72917 0.33404
 Zr289 Zr 0.01554 -0.02113 1.02777
 O290 O 0.03305 -0.01593 1.05106
 O291 O 0.01452 -0.05191 1.02753
 O292 O 0.00186 -0.02963 1.05266
 O293 O 0.05283 -0.01508 0.99679
 O294 O -0.02838 -0.01704 1.04959
 O295 O 0.04452 -0.02973 1.02401
 O296 O -0.00530 -0.05864 1.00339
 O297 O -0.01310 -0.02680 1.01986
 O298 O 0.01607 -0.02673 0.99975
 O299 O 0.00019 0.00431 1.03401
 O300 O 0.02849 0.00394 1.01523
 Zr301 Zr -0.01614 0.01832 0.98408
 Zr302 Zr -0.02805 -0.00097 1.02480
 Zr303 Zr 0.02751 -0.00160 0.98712
 Zr304 Zr -0.01243 -0.03129 0.99171
 O305 O 0.05091 0.01852 0.98509
 O306 O -0.03874 -0.04599 0.99815
 O307 O -0.00065 -0.00696 0.97754
 O308 O -0.02889 -0.00653 0.99676
 O309 O -0.01681 0.02436 1.01203
 O310 O 0.01241 0.02394 0.99204
 C311 C 0.00559 -0.06384 1.01690
 C312 C 0.05671 -0.02566 1.01112
 C313 C -0.01538 -0.02664 1.05850
 O314 O -0.05294 -0.01924 1.02503
 O315 O -0.05215 0.01575 1.01687
 O316 O -0.04406 0.02906 0.98903
 C317 C -0.05571 0.02658 1.00262
 O318 O 0.03106 0.02841 1.04278
 Zr319 Zr 0.01178 0.02880 1.02004
 O320 O -0.01504 0.04897 0.98392
 O321 O -0.03520 0.01772 1.04642
 O322 O -0.00164 0.04390 1.04152
 O323 O 0.03708 0.04515 1.01331
 O324 O 0.00265 0.05616 1.00939
 C325 C -0.00756 0.06107 0.99528
 O326 O -0.03522 0.01324 0.96188
 O327 O 0.03647 -0.02181 0.96739
 O328 O -0.00359 0.02440 0.95815
 O329 O 0.02639 0.01109 0.96075
 O330 O 0.00074 -0.04803 0.97119
 O331 O -0.02927 -0.03059 0.96730
 C332 C 0.01310 0.02009 0.95169
 H333 H 0.02401 -0.03816 0.99671
 H334 H -0.04228 -0.00857 0.99235
 H335 H 0.01827 0.03521 0.98524
 H336 H 0.00055 0.00673 1.04732
 H337 H -0.03834 -0.05908 0.99257
 H338 H -0.06124 -0.01476 1.03508
 H339 H -0.04809 0.01347 1.05092
 H340 H 0.00473 0.05693 1.04235
 H341 H -0.00645 -0.06063 0.97047
 H342 H 0.04920 -0.01717 0.96282
 H343 H 0.05940 0.01384 0.97526
 H344 H 0.03603 0.05809 1.01910
 H345 H -0.03444 -0.04389 0.96493
 H346 H -0.03857 0.02621 0.95641
 H347 H 0.03671 -0.02889 1.05634
 H348 H 0.03342 0.04198 1.04684
 Zr349 Zr 0.52132 0.48270 0.52926
 O350 O 0.53851 0.48869 0.55260
 O351 O 0.52117 0.45191 0.52934
 O352 O 0.50777 0.47390 0.55408
 O353 O 0.55867 0.48928 0.49841
 O354 O 0.47722 0.48566 0.55084
 O355 O 0.55048 0.47474 0.52572
 O356 O 0.50171 0.44435 0.50518
 O357 O 0.49288 0.47617 0.52133
 O358 O 0.52215 0.47678 0.50132
 O359 O 0.50532 0.50778 0.53522
 O360 O 0.53376 0.50792 0.51655
 Zr361 Zr 0.48892 0.52080 0.48513
 Zr362 Zr 0.47726 0.50165 0.52597
 Zr363 Zr 0.53306 0.50203 0.48850
 Zr364 Zr 0.49380 0.47138 0.49324
 O365 O 0.55589 0.52281 0.48636
 O366 O 0.46787 0.45604 0.49980
 O367 O 0.50506 0.49585 0.47891
 O368 O 0.47671 0.49578 0.49798
 O369 O 0.48796 0.52712 0.51300
 O370 O 0.51731 0.52724 0.49310
 C371 C 0.51268 0.43960 0.51877
 C372 C 0.56265 0.47892 0.51286
 C373 C 0.49041 0.47638 0.55981
 O374 O 0.45280 0.48279 0.52617
 O375 O 0.45284 0.51778 0.51784
 O376 O 0.46082 0.53111 0.48997
 C377 C 0.44917 0.52849 0.50354
 O378 O 0.53549 0.53278 0.54392
 Zr379 Zr 0.51640 0.53240 0.52105
 O380 O 0.48942 0.55147 0.48450
 O381 O 0.46954 0.52026 0.54748
 O382 O 0.50248 0.54749 0.54225
 O383 O 0.54138 0.54924 0.51429
 O384 O 0.50669 0.55940 0.51001
 C385 C 0.49653 0.56390 0.49575
 O386 O 0.46994 0.51503 0.46301
 O387 O 0.54277 0.48186 0.46906
 O388 O 0.50135 0.52668 0.45911
 O389 O 0.53166 0.51419 0.46192
 O390 O 0.50741 0.45481 0.47286
 O391 O 0.47700 0.47138 0.46880
 C392 C 0.51812 0.52261 0.45269
 H393 H 0.53039 0.46553 0.49842
 H394 H 0.46338 0.49338 0.49354
 H395 H 0.52292 0.53855 0.48618
 H396 H 0.50555 0.51032 0.54851
 H397 H 0.46864 0.44290 0.49437
 H398 H 0.44430 0.48717 0.53612
 H399 H 0.45673 0.51569 0.55194
 H400 H 0.50858 0.56066 0.54298
 H401 H 0.50058 0.44200 0.47229
 H402 H 0.55541 0.48681 0.46453
 H403 H 0.56455 0.51828 0.47661
 H404 H 0.53997 0.56225 0.51986
 H405 H 0.47210 0.45795 0.46661
 H406 H 0.46634 0.52785 0.45739
 H407 H 0.54259 0.47591 0.55799
 H408 H 0.53752 0.54645 0.54782
 Zr409 Zr 0.48150 0.99802 0.53450
 O410 O 0.45794 0.98635 0.54971
 O411 O 0.48717 1.02424 0.54812
 O412 O 0.48962 0.99156 0.56187
 O413 O 0.45380 1.01597 0.49862
 O414 O 0.51603 0.97216 0.55928
 O415 O 0.45568 1.01398 0.52978
 O416 O 0.51520 1.03503 0.53493
 O417 O 0.51174 0.99906 0.53483
 O418 O 0.48982 1.01667 0.51281
 O419 O 0.49063 0.96886 0.53200
 O420 O 0.46942 0.98554 0.51081
 Zr421 Zr 0.51844 0.97603 0.48560
 Zr422 Zr 0.52083 0.97037 0.53097
 Zr423 Zr 0.47932 1.00362 0.48917
 Zr424 Zr 0.51985 1.01681 0.51259
 O425 O 0.45530 0.99359 0.47381
 O426 O 0.54616 1.01982 0.52730
 O427 O 0.50950 1.00535 0.48793
 O428 O 0.53031 0.98852 0.50928
 O429 O 0.51028 0.95717 0.50730
 O430 O 0.48827 0.97497 0.48540
 C431 C 0.50180 1.03597 0.54699
 C432 C 0.44696 1.01879 0.51467
 C433 C 0.50350 0.98128 0.56874
 O434 O 0.54653 0.98000 0.54394
 O435 O 0.54457 0.95471 0.52126
 O436 O 0.54297 0.95835 0.49018
 C437 C 0.55108 0.95190 0.50505
 O438 O 0.45532 0.95190 0.52399
 Zr439 Zr 0.48016 0.95720 0.50758
 O440 O 0.51315 0.94948 0.47249
 O441 O 0.51891 0.94157 0.54216
 O442 O 0.48441 0.93034 0.52209
 O443 O 0.45566 0.95264 0.49059
 O444 O 0.48779 0.93617 0.48835
 C445 C 0.50076 0.93570 0.47583
 O446 O 0.54295 0.98686 0.47125
 O447 O 0.47937 1.03326 0.48004
 O448 O 0.51179 0.98449 0.45823
 O449 O 0.48665 1.00542 0.46138
 O450 O 0.51456 1.04510 0.50121
 O451 O 0.54182 1.02421 0.49336
 C452 C 0.49924 0.99664 0.45174
 H453 H 0.48469 1.03005 0.51405
 H454 H 0.54457 0.98920 0.50862
 H455 H 0.48289 0.96984 0.47385
 H456 H 0.48612 0.96060 0.54247
 H457 H 0.54921 1.03401 0.52796
 H458 H 0.55095 0.96906 0.55200
 H459 H 0.53032 0.93982 0.55024
 H460 H 0.47631 0.92023 0.51613
 H461 H 0.52315 1.05443 0.50765
 H462 H 0.46808 1.03485 0.47178
 H463 H 0.45087 1.00481 0.46611
 H464 H 0.45309 0.93833 0.49036
 H465 H 0.54850 1.03641 0.49707
 H466 H 0.54597 0.97725 0.46171
 H467 H 0.45476 0.99606 0.55911
 H468 H 0.45007 0.93863 0.52162
 Zr469 Zr -0.01972 0.49473 1.03554
 O470 O -0.04288 0.48288 1.05118
 O471 O -0.01393 0.52096 1.04907
 O472 O -0.01087 0.48840 1.06273
 O473 O -0.04847 0.51234 1.00028
 O474 O 0.01562 0.46926 1.05954
 O475 O -0.04559 0.51076 1.03140
 O476 O 0.01359 0.53208 1.03516
 O477 O 0.01050 0.49607 1.03518
 O478 O -0.01211 0.51341 1.01363
 O479 O -0.01043 0.46566 1.03286
 O480 O -0.03232 0.48211 1.01215
 Zr481 Zr 0.01615 0.47302 0.98582
 Zr482 Zr 0.01972 0.46746 1.03114
 Zr483 Zr -0.02311 0.50021 0.99026
 Zr484 Zr 0.01789 0.51386 1.01274
 O485 O -0.04739 0.48983 0.97548
 O486 O 0.04451 0.51723 1.02687
 O487 O 0.00702 0.50226 0.98833
 O488 O 0.02849 0.48567 1.00922
 O489 O 0.00870 0.45412 1.00772
 O490 O -0.01400 0.47166 0.98630
 C491 C 0.00052 0.53286 1.04757
 C492 C -0.05475 0.51543 1.01649
 C493 C 0.00326 0.47826 1.06929
 O494 O 0.04563 0.47740 1.04349
 O495 O 0.04334 0.45206 1.02089
 O496 O 0.04103 0.45569 0.98985
 C497 C 0.04956 0.44938 1.00456
 O498 O -0.04577 0.44835 1.02567
 Zr499 Zr -0.02141 0.45386 1.00869
 O500 O 0.01076 0.44637 0.97289
 O501 O 0.01840 0.43868 1.04241
 O502 O -0.01651 0.42708 1.02313
 O503 O -0.04629 0.44903 0.99228
 O504 O -0.01411 0.43288 0.98931
 C505 C -0.00144 0.43249 0.97651
 O506 O 0.04018 0.48406 0.97087
 O507 O -0.02375 0.52982 0.98107
 O508 O 0.00879 0.48142 0.95859
 O509 O -0.01644 0.50211 0.96232
 O510 O 0.01205 0.54204 1.00140
 O511 O 0.03941 0.52136 0.99309
 C512 C -0.00399 0.49350 0.95239
 H513 H -0.01729 0.52675 1.01496
 H514 H 0.04272 0.48650 1.00825
 H515 H -0.01961 0.46646 0.97487
 H516 H -0.01460 0.45738 1.04345
 H517 H 0.04741 0.53146 1.02744
 H518 H 0.05040 0.46652 1.05143
 H519 H 0.03002 0.43710 1.05026
 H520 H -0.02466 0.41688 1.01737
 H521 H 0.02063 0.55150 1.00768
 H522 H -0.03528 0.53121 0.97308
 H523 H -0.05206 0.50092 0.96776
 H524 H -0.04878 0.43471 0.99218
 H525 H 0.04589 0.53377 0.99651
 H526 H 0.04305 0.47447 0.96126
 H527 H -0.04585 0.49252 1.06071
 H528 H -0.05094 0.43501 1.02346
 Zr529 Zr -0.01582 0.49381 0.48017
 O530 O -0.03528 0.50564 0.46053
 O531 O -0.01406 0.46469 0.47212
 O532 O -0.00390 0.49378 0.45351
 O533 O -0.05024 0.48649 0.51387
 O534 O 0.02503 0.50964 0.45701
 O535 O -0.04399 0.48197 0.48363
 O536 O 0.00800 0.45130 0.49182
 O537 O 0.01352 0.48798 0.48414
 O538 O -0.01359 0.47882 0.50534
 O539 O -0.00194 0.52139 0.47964
 O540 O -0.02816 0.51240 0.49955
 Zr541 Zr 0.01883 0.51929 0.52972
 Zr542 Zr 0.02711 0.51548 0.48504
 Zr543 Zr -0.02429 0.49763 0.52474
 Zr544 Zr 0.01562 0.47400 0.50975
 O545 O -0.04780 0.51418 0.53401
 O546 O 0.04153 0.46413 0.49789
 O547 O 0.00479 0.49162 0.53049
 O548 O 0.03075 0.50073 0.51022
 O549 O 0.01666 0.53454 0.50461
 O550 O -0.01052 0.52488 0.52553
 C551 C -0.00391 0.45032 0.47826
 C552 C -0.05507 0.48081 0.49778
 C553 C 0.01205 0.50112 0.44724
 O554 O 0.05188 0.49972 0.47762
 O555 O 0.05175 0.52968 0.49530
 O556 O 0.04620 0.53308 0.52581
 C557 C 0.05668 0.53543 0.51133
 O558 O -0.03397 0.54504 0.47979
 Zr559 Zr -0.01270 0.53909 0.50017
 O560 O 0.01700 0.54836 0.53793
 O561 O 0.03207 0.54154 0.46945
 O562 O -0.00156 0.56182 0.48286
 O563 O -0.03783 0.55033 0.51241
 O564 O -0.00364 0.56214 0.51709
 C565 C 0.00768 0.56297 0.53110
 O566 O 0.03953 0.50792 0.54840
 O567 O -0.03085 0.47084 0.53863
 O568 O 0.00779 0.51701 0.55677
 O569 O -0.02075 0.50050 0.55302
 O570 O 0.00466 0.45033 0.52603
 O571 O 0.03494 0.46746 0.53168
 C572 C -0.00770 0.50857 0.56301
 H573 H -0.02093 0.46629 0.50577
 H574 H 0.04454 0.49825 0.51289
 H575 H -0.01613 0.53288 0.53526
 H576 H -0.00368 0.52812 0.46761
 H577 H 0.04186 0.44971 0.49966
 H578 H 0.05914 0.50814 0.46876
 H579 H 0.04446 0.53994 0.46296
 H580 H -0.00817 0.57407 0.48604
 H581 H 0.01177 0.43843 0.52268
 H582 H -0.04314 0.47271 0.54521
 H583 H -0.05515 0.50562 0.54268
 H584 H -0.03769 0.56472 0.51026
 H585 H 0.04006 0.45410 0.53028
 H586 H 0.04319 0.51868 0.55669
 H587 H -0.03920 0.49481 0.45241
 H588 H -0.03672 0.55925 0.47941
 Zr589 Zr 0.47883 -0.00252 -0.02116
 O590 O 0.45912 0.01024 -0.04003
 O591 O 0.48014 -0.03139 -0.03014
 O592 O 0.49028 -0.00189 -0.04799
 O593 O 0.44501 -0.01078 0.01291
 O594 O 0.51932 0.01381 -0.04460
 O595 O 0.45070 -0.01439 -0.01756
 O596 O 0.50259 -0.04539 -0.01123
 O597 O 0.50821 -0.00863 -0.01789
 O598 O 0.48146 -0.01834 0.00353
 O599 O 0.49291 0.02498 -0.02112
 O600 O 0.46702 0.01551 -0.00102
 Zr601 Zr 0.51462 0.02101 0.02849
 Zr602 Zr 0.52203 0.01873 -0.01644
 Zr603 Zr 0.47124 -0.00014 0.02366
 Zr604 Zr 0.51072 -0.02346 0.00726
 O605 O 0.44808 0.01630 0.03382
 O606 O 0.53630 -0.03308 -0.00536
 O607 O 0.50039 -0.00654 0.02872
 O608 O 0.52605 0.00310 0.00824
 O609 O 0.51212 0.03716 0.00391
 O610 O 0.48526 0.02695 0.02502
 C611 C 0.49037 -0.04595 -0.02457
 C612 C 0.43988 -0.01600 -0.00325
 C613 C 0.50615 0.00555 -0.05434
 O614 O 0.54651 0.00310 -0.02485
 O615 O 0.54704 0.03230 -0.00620
 O616 O 0.54198 0.03481 0.02449
 C617 C 0.55226 0.03750 0.00992
 O618 O 0.46109 0.04886 -0.01967
 Zr619 Zr 0.48271 0.04207 0.00014
 O620 O 0.51302 0.04966 0.03777
 O621 O 0.52684 0.04529 -0.03129
 O622 O 0.49365 0.06526 -0.01673
 O623 O 0.45797 0.05308 0.01322
 O624 O 0.49239 0.06450 0.01757
 C625 C 0.50385 0.06465 0.03152
 O626 O 0.53564 0.00894 0.04645
 O627 O 0.46467 -0.02729 0.03690
 O628 O 0.50415 0.01783 0.05567
 O629 O 0.47539 0.00171 0.05198
 O630 O 0.49998 -0.04768 0.02296
 O631 O 0.53038 -0.03083 0.02869
 C632 C 0.48873 0.00932 0.06195
 H633 H 0.47406 -0.03083 0.00374
 H634 H 0.53987 0.00043 0.01059
 H635 H 0.47990 0.03465 0.03510
 H636 H 0.49099 0.03210 -0.03293
 H637 H 0.53657 -0.04755 -0.00402
 H638 H 0.55362 0.01177 -0.03362
 H639 H 0.53905 0.04383 -0.03810
 H640 H 0.48721 0.07744 -0.01307
 H641 H 0.50699 -0.05946 0.01910
 H642 H 0.45245 -0.02558 0.04363
 H643 H 0.44093 0.00757 0.04249
 H644 H 0.45822 0.06752 0.01153
 H645 H 0.53545 -0.04412 0.02676
 H646 H 0.53952 0.01939 0.05500
 H647 H 0.45495 -0.00022 -0.04846
 H648 H 0.45838 0.06307 -0.01951
 Zr649 Zr 0.52671 0.51516 -0.02949
 O650 O 0.54886 0.50749 -0.04776
 O651 O 0.51960 0.54330 -0.03954
 O652 O 0.51632 0.51203 -0.05674
 O653 O 0.55734 0.52904 0.00576
 O654 O 0.49043 0.49129 -0.05343
 O655 O 0.55281 0.53119 -0.02517
 O656 O 0.49419 0.55154 -0.02173
 O657 O 0.49659 0.51520 -0.02703
 O658 O 0.52062 0.52956 -0.00522
 O659 O 0.51807 0.48545 -0.02900
 O660 O 0.54113 0.49934 -0.00837
 Zr661 Zr 0.49478 0.48388 0.01998
 Zr662 Zr 0.48815 0.48570 -0.02523
 Zr663 Zr 0.53345 0.51317 0.01585
 Zr664 Zr 0.49080 0.52866 -0.00231
 O665 O 0.55930 0.50162 0.02697
 O666 O 0.46368 0.53331 -0.01519
 O667 O 0.50354 0.51364 0.01996
 O668 O 0.48072 0.49972 -0.00111
 O669 O 0.50091 0.46916 -0.00414
 O670 O 0.52485 0.48381 0.01745
 C671 C 0.50602 0.55491 -0.03495
 C672 C 0.56254 0.53468 -0.01040
 C673 C 0.50219 0.50170 -0.06323
 O674 O 0.46141 0.49653 -0.03490
 O675 O 0.46588 0.46735 -0.01531
 O676 O 0.46942 0.46675 0.01575
 C677 C 0.46051 0.46196 0.00088
 O678 O 0.55417 0.46871 -0.02570
 Zr679 Zr 0.53085 0.47025 -0.00701
 O680 O 0.50067 0.45519 0.02883
 O681 O 0.48876 0.45893 -0.03929
 O682 O 0.52539 0.44598 -0.02401
 O683 O 0.55673 0.46390 0.00747
 O684 O 0.52484 0.44565 0.01005
 C685 C 0.51256 0.44247 0.02297
 O686 O 0.47215 0.49148 0.03776
 O687 O 0.53400 0.54069 0.02866
 O688 O 0.50442 0.48768 0.04736
 O689 O 0.52951 0.50940 0.04414
 O690 O 0.49690 0.55442 0.01248
 O691 O 0.47006 0.53175 0.01874
 C692 C 0.51793 0.49874 0.05394
 H693 H 0.52554 0.54324 -0.00530
 H694 H 0.46657 0.49977 0.00072
 H695 H 0.53130 0.47689 0.02780
 H696 H 0.52160 0.47903 -0.04051
 H697 H 0.46059 0.54738 -0.01412
 H698 H 0.45609 0.48670 -0.04341
 H699 H 0.47658 0.45802 -0.04643
 H700 H 0.53409 0.43530 -0.01997
 H701 H 0.48783 0.56463 0.00808
 H702 H 0.54609 0.54132 0.03595
 H703 H 0.56447 0.51140 0.03559
 H704 H 0.55931 0.44977 0.00606
 H705 H 0.46293 0.54409 0.01669
 H706 H 0.46999 0.48018 0.04632
 H707 H 0.55095 0.51886 -0.05625
 H708 H 0.55976 0.45543 -0.02502
 Zr709 Zr 0.02737 1.00950 0.47071
 O710 O 0.04869 1.00137 0.45175
 O711 O 0.02062 1.03790 0.46106
 O712 O 0.01607 1.00701 0.44373
 O713 O 0.06026 1.02076 0.50489
 O714 O -0.01048 0.98728 0.44760
 O715 O 0.05393 1.02490 0.47438
 O716 O -0.00379 1.04678 0.47979
 O717 O -0.00260 1.01055 0.47412
 O718 O 0.02271 1.02379 0.49531
 O719 O 0.01774 0.98008 0.47115
 O720 O 0.04194 0.99281 0.49112
 Zr721 Zr -0.00390 0.97870 0.52083
 Zr722 Zr -0.01197 0.98134 0.47582
 Zr723 Zr 0.03570 1.00659 0.51572
 Zr724 Zr -0.00700 1.02387 0.49918
 O725 O 0.06120 0.99384 0.52644
 O726 O -0.03449 1.02967 0.48749
 O727 O 0.00600 1.00810 0.52081
 O728 O -0.01809 0.99527 0.50033
 O729 O 0.00087 0.96408 0.49635
 O730 O 0.02604 0.97757 0.51737
 C731 C 0.00753 1.04984 0.46612
 C732 C 0.06478 1.02692 0.48870
 C733 C 0.00136 0.99732 0.43756
 O734 O -0.03867 0.99325 0.46724
 O735 O -0.03436 0.96346 0.48616
 O736 O -0.02983 0.96225 0.51711
 C737 C -0.03928 0.95787 0.50242
 O738 O 0.05317 0.96175 0.47308
 Zr739 Zr 0.03069 0.96409 0.49258
 O740 O 0.00148 0.94982 0.52941
 O741 O -0.01280 0.95485 0.46129
 O742 O 0.02362 0.94022 0.47558
 O743 O 0.05688 0.95680 0.50611
 O744 O 0.02453 0.93958 0.50973
 C745 C 0.01273 0.93676 0.52310
 O746 O -0.02582 0.98673 0.53920
 O747 O 0.03806 1.03412 0.52837
 O748 O 0.00659 0.98228 0.54799
 O749 O 0.03236 1.00300 0.54407
 O750 O 0.00066 1.04925 0.51393
 O751 O -0.02666 1.02731 0.52108
 C752 C 0.02065 0.99289 0.55421
 H753 H 0.02813 1.03727 0.49517
 H754 H -0.03215 0.99575 0.50260
 H755 H 0.03257 0.97036 0.52749
 H756 H 0.02064 0.97369 0.45946
 H757 H -0.03708 1.04380 0.48896
 H758 H -0.04461 0.98378 0.45873
 H759 H -0.02526 0.95447 0.45455
 H760 H 0.03199 0.92914 0.47927
 H761 H -0.00823 1.05982 0.50998
 H762 H 0.05048 1.03422 0.53517
 H763 H 0.06703 1.00341 0.53492
 H764 H 0.05890 0.94258 0.50459
 H765 H -0.03331 1.04001 0.51958
 H766 H -0.02802 0.97543 0.54775
 H767 H 0.05087 1.01277 0.44332
 H768 H 0.05826 0.94826 0.47351
 Zr769 Zr 0.72817 0.26700 0.22715
 O770 O 0.73270 0.28393 0.20286
 O771 O 0.69789 0.26564 0.22840
 O772 O 0.71964 0.25207 0.20322
 O773 O 0.73394 0.30619 0.25597
 O774 O 0.73271 0.22176 0.20730
 O775 O 0.71919 0.29635 0.22969
 O776 O 0.69191 0.24651 0.25377
 O777 O 0.72308 0.23820 0.23666
 O778 O 0.72313 0.26863 0.25527
 O779 O 0.75333 0.25155 0.22093
 O780 O 0.75284 0.28106 0.23822
 Zr781 Zr 0.76824 0.23726 0.27115
 Zr782 Zr 0.74867 0.22321 0.23173
 Zr783 Zr 0.74789 0.28113 0.26650
 Zr784 Zr 0.71917 0.23999 0.26489
 O785 O 0.76742 0.30520 0.26661
 O786 O 0.70494 0.21287 0.26020
 O787 O 0.74320 0.25287 0.27765
 O788 O 0.74373 0.22345 0.25994
 O789 O 0.77366 0.23550 0.24309
 O790 O 0.77320 0.26598 0.26160
 C791 C 0.68644 0.25699 0.23990
 C792 C 0.72314 0.30930 0.24181
 C793 C 0.72293 0.23447 0.19803
 O794 O 0.73084 0.19785 0.23321
 O795 O 0.76533 0.19920 0.24054
 O796 O 0.77944 0.20902 0.26715
 C797 C 0.77658 0.19650 0.25443
 O798 O 0.77635 0.28303 0.20995
 Zr799 Zr 0.77749 0.26425 0.23352
 O800 O 0.79841 0.23892 0.27041
 O801 O 0.76698 0.21517 0.21011
 O802 O 0.79216 0.25016 0.21216
 O803 O 0.79348 0.29029 0.23855
 O804 O 0.80471 0.25552 0.24364
 C805 C 0.80999 0.24593 0.25816
 O806 O 0.76391 0.21860 0.29436
 O807 O 0.72825 0.29084 0.28637
 O808 O 0.77431 0.25107 0.29628
 O809 O 0.76075 0.28121 0.29254
 O810 O 0.70290 0.25392 0.28528
 O811 O 0.72051 0.22386 0.29008
 C812 C 0.76986 0.26817 0.30204
 H813 H 0.71181 0.27664 0.25827
 H814 H 0.74200 0.21002 0.26511
 H815 H 0.78432 0.27234 0.26774
 H816 H 0.75552 0.25142 0.20756
 H817 H 0.69212 0.21336 0.26611
 H818 H 0.73522 0.18904 0.22350
 H819 H 0.76288 0.20186 0.20642
 H820 H 0.80486 0.25679 0.21061
 H821 H 0.69061 0.24650 0.28676
 H822 H 0.73276 0.30400 0.29012
 H823 H 0.76288 0.31416 0.27613
 H824 H 0.80611 0.28914 0.23239
 H825 H 0.70754 0.21847 0.29306
 H826 H 0.77683 0.21565 0.29961
 H827 H 0.71982 0.28728 0.19777
 H828 H 0.78959 0.28552 0.20535
 Zr829 Zr 0.74984 0.73156 0.71425
 O830 O 0.73935 0.70780 0.69875
 O831 O 0.77574 0.73851 0.70076
 O832 O 0.74383 0.74048 0.68696
 O833 O 0.76775 0.70289 0.74976
 O834 O 0.72395 0.76662 0.68981
 O835 O 0.76635 0.70581 0.71862
 O836 O 0.78543 0.76674 0.71435
 O837 O 0.74993 0.76224 0.71424
 O838 O 0.76757 0.73991 0.73604
 O839 O 0.72077 0.73974 0.71684
 O840 O 0.73756 0.71813 0.73780
 Zr841 Zr 0.72619 0.76671 0.76358
 Zr842 Zr 0.72129 0.77036 0.71820
 Zr843 Zr 0.75467 0.72807 0.75956
 Zr844 Zr 0.76675 0.77035 0.73659
 O845 O 0.74522 0.70294 0.77463
 O846 O 0.76914 0.79746 0.72198
 O847 O 0.75540 0.75869 0.76115
 O848 O 0.73847 0.77990 0.74002
 O849 O 0.70826 0.75849 0.74178
 O850 O 0.72610 0.73609 0.76344
 C851 C 0.78698 0.75353 0.70217
 C852 C 0.77106 0.69662 0.73361
 C853 C 0.73351 0.75450 0.68021
 O854 O 0.73007 0.79727 0.70575
 O855 O 0.70465 0.79331 0.72828
 O856 O 0.70798 0.79110 0.75932
 C857 C 0.70142 0.79939 0.74454
 O858 O 0.70506 0.70319 0.72442
 Zr859 Zr 0.70923 0.72798 0.74117
 O860 O 0.70000 0.76007 0.77664
 O861 O 0.69331 0.76776 0.70674
 O862 O 0.68285 0.73199 0.72679
 O863 O 0.70525 0.70241 0.75781
 O864 O 0.68800 0.73435 0.76059
 C865 C 0.68691 0.74714 0.77322
 O866 O 0.73586 0.79147 0.77817
 O867 O 0.78371 0.72862 0.76869
 O868 O 0.73425 0.75936 0.79090
 O869 O 0.75575 0.73468 0.78744
 O870 O 0.79451 0.76561 0.74810
 O871 O 0.77287 0.79247 0.75588
 C872 C 0.74652 0.74683 0.79725
 H873 H 0.78094 0.73518 0.73477
 H874 H 0.73862 0.79435 0.74082
 H875 H 0.72103 0.73010 0.77493
 H876 H 0.71299 0.73524 0.70629
 H877 H 0.78303 0.80102 0.72132
 H878 H 0.71927 0.80168 0.69778
 H879 H 0.69139 0.77953 0.69879
 H880 H 0.67306 0.72326 0.73267
 H881 H 0.80359 0.77478 0.74176
 H882 H 0.78543 0.71696 0.77683
 H883 H 0.75627 0.69854 0.78229
 H884 H 0.69125 0.69930 0.75797
 H885 H 0.78480 0.79966 0.75228
 H886 H 0.72615 0.79393 0.78777
 H887 H 0.74916 0.70520 0.68928
 H888 H 0.69209 0.69743 0.72668
 Zr889 Zr 0.23956 0.23080 0.76664
 O890 O 0.24975 0.21329 0.78886
 O891 O 0.20994 0.23170 0.77178
 O892 O 0.23597 0.24498 0.79191
 O893 O 0.23762 0.19279 0.73608
 O894 O 0.24836 0.27558 0.78611
 O895 O 0.22917 0.20161 0.76486
 O896 O 0.19819 0.25149 0.74886
 O897 O 0.23286 0.25974 0.75919
 O898 O 0.22789 0.23013 0.74021
 O899 O 0.26581 0.24647 0.76825
 O900 O 0.26074 0.21759 0.75045
 Zr901 Zr 0.26895 0.26287 0.71648
 Zr902 Zr 0.25920 0.27497 0.75939
 Zr903 Zr 0.24917 0.21853 0.72388
 Zr904 Zr 0.22227 0.25896 0.73246
 O905 O 0.26775 0.19492 0.71875
 O906 O 0.21003 0.28560 0.74084
 O907 O 0.24261 0.24708 0.71475
 O908 O 0.24780 0.27569 0.73281
 O909 O 0.28081 0.26368 0.74289
 O910 O 0.27532 0.23389 0.72405
 C911 C 0.19613 0.24053 0.76332
 C912 C 0.22991 0.18919 0.75180
 C913 C 0.24002 0.26269 0.79656
 O914 O 0.24226 0.30034 0.76203
 O915 O 0.27389 0.29944 0.74837
 O916 O 0.28143 0.29131 0.71916
 C917 C 0.28164 0.30317 0.73272
 O918 O 0.29054 0.21547 0.77352
 Zr919 Zr 0.28621 0.23470 0.75063
 O920 O 0.29846 0.26156 0.71101
 O921 O 0.28201 0.28234 0.77745
 O922 O 0.30589 0.24872 0.76856
 O923 O 0.29986 0.20883 0.74208
 O924 O 0.31049 0.24359 0.73506
 C925 C 0.31242 0.25373 0.72009
 O926 O 0.25940 0.28204 0.69523
 O927 O 0.22503 0.20914 0.70832
 O928 O 0.26953 0.24959 0.69040
 O929 O 0.25507 0.21985 0.69585
 O930 O 0.20152 0.24531 0.71534
 O931 O 0.21767 0.27614 0.70825
 C932 C 0.26271 0.23290 0.68512
 H933 H 0.21597 0.22207 0.73932
 H934 H 0.24515 0.28927 0.72856
 H935 H 0.28455 0.22782 0.71564
 H936 H 0.27091 0.24626 0.78094
 H937 H 0.19608 0.28505 0.73780
 H938 H 0.24889 0.30877 0.77105
 H939 H 0.27905 0.29540 0.78233
 H940 H 0.31858 0.24238 0.76723
 H941 H 0.18915 0.25223 0.71685
 H942 H 0.22823 0.19620 0.70333
 H943 H 0.26084 0.18628 0.71010
 H944 H 0.31370 0.20992 0.74547
 H945 H 0.20428 0.28105 0.70811
 H946 H 0.27084 0.28548 0.68764
 H947 H 0.23836 0.20942 0.79633
 H948 H 0.30454 0.21331 0.77531
 Zr949 Zr 0.25931 0.77804 0.28069
 O950 O 0.25059 0.79721 0.30140
 O951 O 0.28817 0.77280 0.28817
 O952 O 0.25887 0.76409 0.30698
 O953 O 0.26607 0.81550 0.24854
 O954 O 0.24248 0.73551 0.30208
 O955 O 0.27272 0.80608 0.27805
 O956 O 0.29820 0.75169 0.26654
 O957 O 0.26309 0.74845 0.27472
 O958 O 0.27211 0.77741 0.25482
 O959 O 0.23145 0.76533 0.28137
 O960 O 0.24032 0.79323 0.26275
 Zr961 Zr 0.22893 0.74891 0.23025
 Zr962 Zr 0.23533 0.73614 0.27415
 Zr963 Zr 0.25276 0.79099 0.23680
 Zr964 Zr 0.27484 0.74810 0.24846
 O965 O 0.23724 0.81665 0.22991
 O966 O 0.28382 0.71984 0.25737
 O967 O 0.25675 0.76189 0.22911
 O968 O 0.24789 0.73415 0.24826
 O969 O 0.21583 0.74949 0.25601
 O970 O 0.22518 0.77844 0.23630
 C971 C 0.30086 0.76165 0.28110
 C972 C 0.27332 0.81855 0.26449
 C973 C 0.25121 0.74768 0.31257
 O974 O 0.25046 0.71001 0.28009
 O975 O 0.22027 0.71238 0.26294
 O976 O 0.21524 0.72098 0.23294
 C977 C 0.21381 0.70893 0.24678
 O978 O 0.21024 0.79926 0.28377
 Zr979 Zr 0.21322 0.77903 0.26228
 O980 O 0.19961 0.75222 0.22410
 O981 O 0.21014 0.73068 0.28978
 O982 O 0.19161 0.76778 0.28023
 O983 O 0.20255 0.80592 0.25150
 O984 O 0.18867 0.77202 0.24646
 C985 C 0.18616 0.76134 0.23233
 O986 O 0.23761 0.72961 0.20961
 O987 O 0.27834 0.79728 0.22197
 O988 O 0.22982 0.76257 0.20383
 O989 O 0.24703 0.79070 0.20860
 O990 O 0.29813 0.75985 0.23282
 O991 O 0.27868 0.73126 0.22464
 C992 C 0.23788 0.77877 0.19818
 H993 H 0.28488 0.78405 0.25444
 H994 H 0.24962 0.72038 0.24470
 H995 H 0.21679 0.78532 0.22730
 H996 H 0.22557 0.76636 0.29362
 H997 H 0.29782 0.71891 0.25487
 H998 H 0.24234 0.70211 0.28868
 H999 H 0.21154 0.71752 0.29561
 H1000 H 0.17979 0.77554 0.27806
 H1001 H 0.30948 0.75146 0.23526
 H1002 H 0.27679 0.81047 0.21625
 H1003 H 0.24538 0.82448 0.22128
 H1004 H 0.18858 0.80630 0.25428
 H1005 H 0.29166 0.72536 0.22492
 H1006 H 0.22618 0.72714 0.20171
 H1007 H 0.26199 0.79956 0.30938
 H1008 H 0.19656 0.80311 0.28471
 Zr1009 Zr 0.22620 0.76677 0.72688
 O1010 O 0.23020 0.78447 0.70299
 O1011 O 0.19594 0.76507 0.72843
 O1012 O 0.21761 0.75251 0.70259
 O1013 O 0.23199 0.80507 0.75674
 O1014 O 0.23073 0.72213 0.70589
 O1015 O 0.21714 0.79597 0.73028
 O1016 O 0.19044 0.74516 0.75338
 O1017 O 0.22150 0.73765 0.73566
 O1018 O 0.22146 0.76746 0.75511
 O1019 O 0.25144 0.75180 0.71998
 O1020 O 0.25087 0.78069 0.73810
 Zr1021 Zr 0.26699 0.73602 0.76974
 Zr1022 Zr 0.24719 0.72312 0.73004
 Zr1023 Zr 0.24624 0.77982 0.76643
 Zr1024 Zr 0.21787 0.73850 0.76398
 O1025 O 0.26555 0.80406 0.76699
 O1026 O 0.20377 0.71148 0.75863
 O1027 O 0.24191 0.75121 0.77689
 O1028 O 0.24251 0.72236 0.75832
 O1029 O 0.27214 0.73527 0.74156
 O1030 O 0.27163 0.76505 0.76088
 C1031 C 0.18470 0.75599 0.73984
 C1032 C 0.22111 0.80856 0.74272
 C1033 C 0.22088 0.73506 0.69699
 O1034 O 0.23000 0.69730 0.73125
 O1035 O 0.26489 0.69946 0.73768
 O1036 O 0.27800 0.70779 0.76516
 C1037 C 0.27583 0.69606 0.75168
 O1038 O 0.27400 0.78394 0.70977
 Zr1039 Zr 0.27561 0.76430 0.73269
 O1040 O 0.29714 0.73768 0.76848
 O1041 O 0.26503 0.71615 0.70773
 O1042 O 0.29006 0.75113 0.71068
 O1043 O 0.29157 0.79018 0.73838
 O1044 O 0.30297 0.75529 0.74214
 C1045 C 0.30849 0.74513 0.75623
 O1046 O 0.26303 0.71685 0.79265
 O1047 O 0.22674 0.78864 0.78681
 O1048 O 0.27337 0.74924 0.79512
 O1049 O 0.25948 0.77932 0.79228
 O1050 O 0.20174 0.75158 0.78497
 O1051 O 0.21968 0.72156 0.78868
 C1052 C 0.26889 0.76615 0.80132
 H1053 H 0.21012 0.77528 0.75844
 H1054 H 0.24096 0.70875 0.76309
 H1055 H 0.28280 0.77128 0.76706
 H1056 H 0.25347 0.75212 0.70657
 H1057 H 0.19105 0.71163 0.76475
 H1058 H 0.23442 0.68889 0.72125
 H1059 H 0.26106 0.70291 0.70372
 H1060 H 0.30269 0.75794 0.70916
 H1061 H 0.18953 0.74398 0.78639
 H1062 H 0.23108 0.80177 0.79081
 H1063 H 0.26108 0.81266 0.77682
 H1064 H 0.30410 0.78933 0.73198
 H1065 H 0.20681 0.71595 0.79166
 H1066 H 0.27601 0.71383 0.79770
 H1067 H 0.21721 0.78781 0.69814
 H1068 H 0.28715 0.78669 0.70507
 Zr1069 Zr 0.24918 0.22645 0.20896
 O1070 O 0.23763 0.20325 0.19338
 O1071 O 0.27544 0.23219 0.19560
 O1072 O 0.24364 0.23591 0.18172
 O1073 O 0.26583 0.19678 0.24428
 O1074 O 0.22459 0.26267 0.18475
 O1075 O 0.26480 0.20013 0.21315
 O1076 O 0.28607 0.26007 0.20925
 O1077 O 0.25049 0.25712 0.20913
 O1078 O 0.26717 0.23390 0.23085
 O1079 O 0.22047 0.23580 0.21161
 O1080 O 0.23632 0.21336 0.23241
 Zr1081 Zr 0.22701 0.26222 0.25848
 Zr1082 Zr 0.22221 0.26638 0.21315
 Zr1083 Zr 0.25378 0.22241 0.25426
 Zr1084 Zr 0.26762 0.26434 0.23154
 O1085 O 0.24329 0.19756 0.26913
 O1086 O 0.27115 0.29146 0.21714
 O1087 O 0.25583 0.25297 0.25602
 O1088 O 0.23978 0.27508 0.23501
 O1089 O 0.20875 0.25490 0.23665
 O1090 O 0.22559 0.23163 0.25819
 C1091 C 0.28720 0.24679 0.19708
 C1092 C 0.26909 0.19063 0.22809
 C1093 C 0.23376 0.25032 0.17508
 O1094 O 0.23202 0.29299 0.20081
 O1095 O 0.20647 0.28994 0.22336
 O1096 O 0.20972 0.28730 0.25439
 C1097 C 0.20342 0.29594 0.23969
 O1098 O 0.20315 0.19987 0.21901
 Zr1099 Zr 0.20842 0.22437 0.23586
 O1100 O 0.20052 0.25680 0.27134
 O1101 O 0.19412 0.26497 0.20174
 O1102 O 0.18225 0.22953 0.22145
 O1103 O 0.20351 0.19890 0.25240
 O1104 O 0.18744 0.23159 0.25529
 C1105 C 0.18688 0.24448 0.26788
 O1106 O 0.23771 0.28645 0.27323
 O1107 O 0.28277 0.22159 0.26351
 O1108 O 0.23473 0.25438 0.28578
 O1109 O 0.25512 0.22877 0.28218
 O1110 O 0.29520 0.25843 0.24294
 O1111 O 0.27461 0.28601 0.25104
 C1112 C 0.24647 0.24128 0.29205
 H1113 H 0.28034 0.22864 0.22960
 H1114 H 0.24050 0.28952 0.23590
 H1115 H 0.22026 0.22581 0.26966
 H1116 H 0.21252 0.23170 0.20102
 H1117 H 0.28518 0.29438 0.21649
 H1118 H 0.22142 0.29784 0.19282
 H1119 H 0.19259 0.27690 0.19392
 H1120 H 0.17208 0.22128 0.22734
 H1121 H 0.30459 0.26731 0.23667
 H1122 H 0.28396 0.20975 0.27151
 H1123 H 0.25411 0.19267 0.27681
 H1124 H 0.18939 0.19642 0.25267
 H1125 H 0.28678 0.29279 0.24748
 H1126 H 0.22810 0.28929 0.28281
 H1127 H 0.24727 0.20031 0.18386
 H1128 H 0.18998 0.19460 0.22134
 Zr1129 Zr 0.74144 0.72811 0.26890
 O1130 O 0.75046 0.71088 0.29175
 O1131 O 0.71152 0.72860 0.27234
 O1132 O 0.73624 0.74241 0.29386
 O1133 O 0.74176 0.68983 0.23856
 O1134 O 0.74818 0.77326 0.28843
 O1135 O 0.73163 0.69878 0.26680
 O1136 O 0.70089 0.74793 0.24860
 O1137 O 0.73464 0.75683 0.26075
 O1138 O 0.73156 0.72690 0.24183
 O1139 O 0.76722 0.74434 0.27188
 O1140 O 0.76392 0.71512 0.25415
 Zr1141 Zr 0.77332 0.76016 0.22030
 Zr1142 Zr 0.76061 0.77262 0.26234
 Zr1143 Zr 0.75413 0.71548 0.22693
 Zr1144 Zr 0.72584 0.75551 0.23346
 O1145 O 0.77322 0.69184 0.22384
 O1146 O 0.71260 0.78209 0.24060
 O1147 O 0.74752 0.74378 0.21709
 O1148 O 0.75092 0.77280 0.23516
 O1149 O 0.78346 0.76152 0.24729
 O1150 O 0.77987 0.73144 0.22857
 C1151 C 0.69811 0.73714 0.26306
 C1152 C 0.73316 0.68629 0.25388
 C1153 C 0.73969 0.76022 0.29861
 O1154 O 0.74301 0.79766 0.26369
 O1155 O 0.77570 0.79716 0.25187
 O1156 O 0.78516 0.78875 0.22325
 C1157 C 0.78443 0.80076 0.23665
 O1158 O 0.79209 0.71383 0.27896
 Zr1159 Zr 0.78898 0.73277 0.25568
 O1160 O 0.80316 0.75948 0.21661
 O1161 O 0.78205 0.78067 0.28160
 O1162 O 0.80710 0.74743 0.27459
 O1163 O 0.80388 0.70718 0.24831
 O1164 O 0.81408 0.74207 0.24150
 C1165 C 0.81671 0.75214 0.22657
 O1166 O 0.76473 0.77891 0.19834
 O1167 O 0.73149 0.70595 0.20956
 O1168 O 0.77593 0.74667 0.19454
 O1169 O 0.76309 0.71608 0.19956
 O1170 O 0.70627 0.74130 0.21553
 O1171 O 0.72265 0.77209 0.20869
 C1172 C 0.77101 0.72936 0.18926
 H1173 H 0.71983 0.71867 0.24033
 H1174 H 0.74831 0.78627 0.23059
 H1175 H 0.78985 0.72547 0.22089
 H1176 H 0.77150 0.74434 0.28483
 H1177 H 0.69889 0.78123 0.23674
 H1178 H 0.74893 0.80635 0.27291
 H1179 H 0.77854 0.79373 0.28611
 H1180 H 0.81998 0.74132 0.27413
 H1181 H 0.69379 0.74820 0.21617
 H1182 H 0.73516 0.69294 0.20503
 H1183 H 0.76722 0.68301 0.21478
 H1184 H 0.81740 0.70864 0.25260
 H1185 H 0.70925 0.77691 0.20769
 H1186 H 0.77654 0.78248 0.19135
 H1187 H 0.73868 0.70693 0.29863
 H1188 H 0.80598 0.71211 0.28174
 Zr1189 Zr 0.75796 0.28084 0.78228
 O1190 O 0.74958 0.29968 0.80339
 O1191 O 0.78699 0.27580 0.78924
 O1192 O 0.75790 0.26661 0.80851
 O1193 O 0.76355 0.31883 0.75040
 O1194 O 0.74220 0.23771 0.80333
 O1195 O 0.77102 0.30908 0.77966
 O1196 O 0.79704 0.25553 0.76693
 O1197 O 0.76203 0.25140 0.77588
 O1198 O 0.77024 0.28073 0.75617
 O1199 O 0.73029 0.26772 0.78325
 O1200 O 0.73844 0.29600 0.76483
 Zr1201 Zr 0.72699 0.25195 0.73199
 Zr1202 Zr 0.73443 0.23870 0.77559
 Zr1203 Zr 0.75039 0.29426 0.73861
 Zr1204 Zr 0.77327 0.25157 0.74940
 O1205 O 0.73439 0.31973 0.73217
 O1206 O 0.78284 0.22343 0.75802
 O1207 O 0.75460 0.26533 0.73054
 O1208 O 0.74650 0.23723 0.74947
 O1209 O 0.71441 0.25203 0.75800
 O1210 O 0.72296 0.28135 0.73842
 C1211 C 0.79979 0.26521 0.78163
 C1212 C 0.77118 0.32174 0.76622
 C1213 C 0.75068 0.24992 0.81393
 O1214 O 0.74995 0.21266 0.78088
 O1215 O 0.71936 0.21493 0.76441
 O1216 O 0.71363 0.22388 0.73462
 C1217 C 0.71256 0.21165 0.74833
 O1218 O 0.70880 0.30139 0.78639
 Zr1219 Zr 0.71153 0.28143 0.76465
 O1220 O 0.69748 0.25495 0.72641
 O1221 O 0.70964 0.23274 0.79167
 O1222 O 0.69041 0.26984 0.78295
 O1223 O 0.70025 0.30820 0.75422
 O1224 O 0.68674 0.27408 0.74936
 C1225 C 0.68405 0.26358 0.73513
 O1226 O 0.73542 0.23296 0.71102
 O1227 O 0.77566 0.30112 0.72350
 O1228 O 0.72746 0.26580 0.70567
 O1229 O 0.74431 0.29416 0.71045
 O1230 O 0.79596 0.26382 0.73329
 O1231 O 0.77691 0.23497 0.72540
 C1232 C 0.73529 0.28211 0.70004
 H1233 H 0.78291 0.28756 0.75562
 H1234 H 0.74833 0.22354 0.74571
 H1235 H 0.71432 0.28818 0.72961
 H1236 H 0.72460 0.26849 0.79561
 H1237 H 0.79681 0.22275 0.75531
 H1238 H 0.74209 0.20453 0.78951
 H1239 H 0.71130 0.21952 0.79729
 H1240 H 0.67850 0.27756 0.78112
 H1241 H 0.80750 0.25561 0.73539
 H1242 H 0.77386 0.31436 0.71797
 H1243 H 0.74226 0.32774 0.72346
 H1244 H 0.68632 0.30831 0.75723
 H1245 H 0.78993 0.22916 0.72548
 H1246 H 0.72386 0.23045 0.70329
 H1247 H 0.76115 0.30202 0.81116
 H1248 H 0.69514 0.30529 0.78747
 C1249 C 0.45270 1.01421 0.32503
 C1250 C 0.45454 0.99988 0.31170
 C1251 C 0.44280 1.00022 0.29611
 C1252 C 0.42872 1.01474 0.29344
 C1253 C 0.42736 1.02948 0.30655
 C1254 C 0.43925 1.02923 0.32209
 C1255 C 0.46391 1.01294 0.34236
 N1256 N 0.46370 1.02787 0.35431
 N1257 N 0.47247 1.02619 0.37052
 C1258 C 0.48181 1.00951 0.37552
 N1259 N 0.48230 0.99467 0.36344
 N1260 N 0.47356 0.99638 0.34718
 C1261 C 0.48957 1.00702 0.39440
 C1262 C 0.49754 0.98915 0.40057
 C1263 C 0.50202 0.98606 0.41915
 C1264 C 0.49843 1.00073 0.43183
 C1265 C 0.49171 1.01897 0.42545
 C1266 C 0.48743 1.02211 0.40697
 H1267 H 0.46486 0.98819 0.31344
 H1268 H 0.44437 0.98875 0.28623
 H1269 H 0.41703 1.04110 0.30529
 H1270 H 0.43747 1.04054 0.33208
 H1271 H 0.49951 0.97726 0.39122
 H1272 H 0.50717 0.97186 0.42376
 H1273 H 0.48905 1.03063 0.43491
 H1274 H 0.48159 1.03615 0.40273
 C1275 C -0.04809 0.51406 0.82482
 C1276 C -0.04699 0.49945 0.81166
 C1277 C -0.05854 0.50033 0.79593
 C1278 C -0.07173 0.51565 0.79299
 C1279 C -0.07215 0.53073 0.80584
 C1280 C -0.06047 0.52993 0.82150
 C1281 C -0.03733 0.51226 0.84238
 N1282 N -0.03767 0.52694 0.85459
 N1283 N -0.02947 0.52479 0.87101
 C1284 C -0.02057 0.50786 0.87600
 N1285 N -0.01989 0.49327 0.86367
 N1286 N -0.02808 0.49544 0.84719
 C1287 C -0.01344 0.50490 0.89506
 C1288 C -0.00503 0.48714 0.90095
 C1289 C -0.00080 0.48368 0.91955
 C1290 C -0.00512 0.49784 0.93251
 C1291 C -0.01249 0.51594 0.92645
 C1292 C -0.01649 0.51946 0.90799
 H1293 H -0.03749 0.48711 0.81366
 H1294 H -0.05760 0.48862 0.78620
 H1295 H -0.08155 0.54311 0.80425
 H1296 H -0.06156 0.54155 0.83128
 H1297 H -0.00239 0.47565 0.89132
 H1298 H 0.00487 0.46960 0.92388
 H1299 H -0.01574 0.52722 0.93613
 H1300 H -0.02276 0.53338 0.90400
 C1301 C 0.05759 0.00592 0.82498
 C1302 C 0.04681 0.00800 0.80871
 C1303 C 0.05531 0.00460 0.79168
 C1304 C 0.07468 -0.00147 0.79059
 C1305 C 0.08511 -0.00399 0.80706
 C1306 C 0.07671 -0.00048 0.82392
 C1307 C 0.04969 0.01133 0.84299
 N1308 N 0.06193 0.01461 0.85719
 N1309 N 0.05527 0.01925 0.87354
 C1310 C 0.03604 0.02085 0.87651
 N1311 N 0.02371 0.01770 0.86228
 N1312 N 0.03041 0.01314 0.84581
 C1313 C 0.02902 0.02451 0.89530
 C1314 C 0.00945 0.02201 0.90002
 C1315 C 0.00376 0.02227 0.91844
 C1316 C 0.01759 0.02489 0.93235
 C1317 C 0.03680 0.02891 0.92747
 C1318 C 0.04243 0.02883 0.90920
 H1319 H 0.03209 0.01312 0.80908
 H1320 H 0.04689 0.00769 0.77949
 H1321 H 0.10023 -0.00781 0.80691
 H1322 H 0.08547 -0.00227 0.83615
 H1323 H -0.00126 0.01879 0.88963
 H1324 H -0.01114 0.01901 0.92189
 H1325 H 0.04772 0.03114 0.93792
 H1326 H 0.05755 0.03120 0.90610
 C1327 C 0.55987 0.50541 0.32537
 C1328 C 0.54854 0.50685 0.30939
 C1329 C 0.55662 0.50335 0.29218
 C1330 C 0.57613 0.49798 0.29067
 C1331 C 0.58709 0.49590 0.30686
 C1332 C 0.57910 0.49946 0.32388
 C1333 C 0.55242 0.51105 0.34351
 N1334 N 0.56499 0.51451 0.35740
 N1335 N 0.55874 0.51949 0.37380
 C1336 C 0.53961 0.52128 0.37713
 N1337 N 0.52693 0.51792 0.36322
 N1338 N 0.53322 0.51301 0.34669
 C1339 C 0.53304 0.52541 0.39597
 C1340 C 0.51355 0.52329 0.40108
 C1341 C 0.50822 0.52408 0.41957
 C1342 C 0.52234 0.52687 0.43319
 C1343 C 0.54151 0.53051 0.42790
 C1344 C 0.54677 0.52989 0.40954
 H1345 H 0.53369 0.51151 0.31008
 H1346 H 0.54774 0.50583 0.28018
 H1347 H 0.60228 0.49240 0.30629
 H1348 H 0.58827 0.49807 0.33588
 H1349 H 0.50259 0.51997 0.39095
 H1350 H 0.49336 0.52111 0.42332
 H1351 H 0.55266 0.53286 0.43810
 H1352 H 0.56186 0.53199 0.40613
 C1353 C 0.56186 0.49753 0.18442
 C1354 C 0.57797 0.50938 0.18864
 C1355 C 0.58581 0.50929 0.20631
 C1356 C 0.57766 0.49748 0.22027
 C1357 C 0.56155 0.48561 0.21614
 C1358 C 0.55379 0.48556 0.19838
 C1359 C 0.55361 0.49788 0.16558
 N1360 N 0.54002 0.48456 0.16030
 N1361 N 0.53294 0.48494 0.14325
 C1362 C 0.53909 0.49872 0.13081
 N1363 N 0.55259 0.51203 0.13617
 N1364 N 0.55969 0.51162 0.15313
 C1365 C 0.53185 0.49915 0.11159
 C1366 C 0.53741 0.51467 0.09976
 C1367 C 0.53217 0.51472 0.08133
 C1368 C 0.52116 0.49927 0.07406
 C1369 C 0.51479 0.48409 0.08597
 C1370 C 0.52012 0.48402 0.10459
 H1371 H 0.58460 0.51878 0.17827
 H1372 H 0.59804 0.51880 0.20912
 H1373 H 0.55507 0.47619 0.22658
 H1374 H 0.54139 0.47626 0.19562
 H1375 H 0.54621 0.52672 0.10462
 H1376 H 0.53714 0.52681 0.07265
 H1377 H 0.50631 0.47197 0.08079
 H1378 H 0.51551 0.47187 0.11335
 C1379 C 0.06402 0.99522 0.68495
 C1380 C 0.05355 0.98741 0.69985
 C1381 C 0.06097 0.98840 0.71770
 C1382 C 0.07928 0.99698 0.72119
 C1383 C 0.08968 1.00468 0.70606
 C1384 C 0.08215 1.00387 0.68831
 C1385 C 0.05616 0.99476 0.66597
 N1386 N 0.06465 1.00573 0.65249
 N1387 N 0.05783 1.00555 0.63545
 C1388 C 0.04223 0.99436 0.63101
 N1389 N 0.03370 0.98328 0.64446
 N1390 N 0.04050 0.98353 0.66161
 C1391 C 0.03509 0.99436 0.61177
 C1392 C 0.02184 0.98019 0.60542
 C1393 C 0.01650 0.97986 0.58680
 C1394 C 0.02432 0.99371 0.57426
 C1395 C 0.03693 1.00825 0.58090
 C1396 C 0.04223 1.00855 0.59928
 H1397 H 0.03953 0.98062 0.69775
 H1398 H 0.05244 0.98178 0.72858
 H1399 H 0.10334 1.01224 0.70771
 H1400 H 0.09060 1.01018 0.67719
 H1401 H 0.01603 0.96907 0.61471
 H1402 H 0.00673 0.96848 0.58214
 H1403 H 0.04306 1.01938 0.57179
 H1404 H 0.05221 1.01988 0.60364
 C1405 C -0.06044 0.51300 0.68931
 C1406 C -0.05356 0.52599 0.70255
 C1407 C -0.06195 0.52629 0.71990
 C1408 C -0.07749 0.51367 0.72439
 C1409 C -0.08475 0.50106 0.71104
 C1410 C -0.07627 0.50066 0.69370
 C1411 C -0.05099 0.51204 0.67115
 N1412 N -0.05602 0.49778 0.65933
 N1413 N -0.04752 0.49672 0.64310
 C1414 C -0.03358 0.50985 0.63792
 N1415 N -0.02852 0.52415 0.64973
 N1416 N -0.03701 0.52518 0.66603
 C1417 C -0.02477 0.50880 0.61947
 C1418 C -0.01227 0.52362 0.61258
 C1419 C -0.00565 0.52319 0.59443
 C1420 C -0.01155 0.50799 0.58293
 C1421 C -0.02317 0.49274 0.59018
 C1422 C -0.02965 0.49311 0.60816
 H1423 H -0.04148 0.53577 0.69964
 H1424 H -0.05625 0.53643 0.72982
 H1425 H -0.09660 0.49108 0.71415
 H1426 H -0.08202 0.49053 0.68380
 H1427 H -0.00813 0.53586 0.62098
 H1428 H 0.00325 0.53516 0.58916
 H1429 H -0.02774 0.48067 0.58173
 H1430 H -0.03897 0.48127 0.61301
 C1431 C 0.43995 0.01058 0.18974
 C1432 C 0.44671 0.02384 0.20282
 C1433 C 0.43844 0.02416 0.22021
 C1434 C 0.42319 0.01127 0.22493
 C1435 C 0.41613 -0.00169 0.21178
 C1436 C 0.42446 -0.00209 0.19439
 C1437 C 0.44904 0.00984 0.17142
 N1438 N 0.44384 -0.00434 0.15958
 N1439 N 0.45184 -0.00504 0.14309
 C1440 C 0.46541 0.00837 0.13768
 N1441 N 0.47069 0.02255 0.14954
 N1442 N 0.46271 0.02323 0.16609
 C1443 C 0.47349 0.00784 0.11891
 C1444 C 0.48607 0.02264 0.11210
 C1445 C 0.49202 0.02275 0.09374
 C1446 C 0.48536 0.00815 0.08193
 C1447 C 0.47360 -0.00708 0.08902
 C1448 C 0.46780 -0.00726 0.10723
 H1449 H 0.45852 0.03387 0.19970
 H1450 H 0.44397 0.03457 0.22997
 H1451 H 0.40451 -0.01189 0.21508
 H1452 H 0.41883 -0.01244 0.18464
 H1453 H 0.49081 0.03444 0.12078
 H1454 H 0.50104 0.03469 0.08859
 H1455 H 0.46842 -0.01869 0.08032
 H1456 H 0.45835 -0.01904 0.11198
 C1457 C 0.32881 0.40086 -0.00381
 C1458 C 0.31810 0.39495 0.01167
 C1459 C 0.30020 0.38541 0.00971
 C1460 C 0.29271 0.38111 -0.00777
 C1461 C 0.30275 0.38861 -0.02317
 C1462 C 0.32061 0.39808 -0.02122
 C1463 C 0.34861 0.40936 -0.00208
 N1464 N 0.35965 0.41224 -0.01721
 N1465 N 0.37758 0.41929 -0.01589
 C1466 C 0.38536 0.42379 0.00062
 N1467 N 0.37432 0.42100 0.01582
 N1468 N 0.35634 0.41386 0.01450
 C1469 C 0.40537 0.43191 0.00167
 C1470 C 0.41296 0.43978 0.01791
 C1471 C 0.43133 0.44879 0.01807
 C1472 C 0.44240 0.45010 0.00199
 C1473 C 0.43510 0.44138 -0.01393
 C1474 C 0.41691 0.43246 -0.01409
 H1475 H 0.32373 0.39728 0.02532
 H1476 H 0.29244 0.38091 0.02195
 H1477 H 0.29704 0.38717 -0.03687
 H1478 H 0.32810 0.40304 -0.03348
 H1479 H 0.40450 0.43951 0.03033
 H1480 H 0.43651 0.45538 0.03055
 H1481 H 0.44328 0.44188 -0.02653
 H1482 H 0.41176 0.42632 -0.02678
 C1483 C -0.17121 0.89727 0.49793
 C1484 C -0.18221 0.89183 0.51338
 C1485 C -0.20020 0.88247 0.51136
 C1486 C -0.20752 0.87789 0.49387
 C1487 C -0.19713 0.88485 0.47848
 C1488 C -0.17918 0.89415 0.48048
 C1489 C -0.15137 0.90566 0.49974
 N1490 N -0.14009 0.90803 0.48471
 N1491 N -0.12215 0.91503 0.48608
 C1492 C -0.11457 0.91999 0.50256
 N1493 N -0.12584 0.91769 0.51767
 N1494 N -0.14384 0.91061 0.51629
 C1495 C -0.09454 0.92805 0.50362
 C1496 C -0.08701 0.93628 0.51973
 C1497 C -0.06859 0.94523 0.51981
 C1498 C -0.05745 0.94612 0.50376
 C1499 C -0.06468 0.93704 0.48801
 C1500 C -0.08289 0.92817 0.48794
 H1501 H -0.17674 0.89441 0.52704
 H1502 H -0.20819 0.87833 0.52357
 H1503 H -0.20263 0.88318 0.46474
 H1504 H -0.17146 0.89873 0.46824
 H1505 H -0.09556 0.93635 0.53209
 H1506 H -0.06344 0.95212 0.53215
 H1507 H -0.05643 0.93719 0.47545
 H1508 H -0.08797 0.92174 0.47535
 C1509 C -0.17775 0.10347 1.00484
 C1510 C -0.19439 0.09653 1.01394
 C1511 C -0.21119 0.10775 1.01405
 C1512 C -0.21196 0.12609 1.00482
 C1513 C -0.19484 0.13338 0.99664
 C1514 C -0.17815 0.12214 0.99642
 C1515 C -0.15999 0.09153 1.00415
 N1516 N -0.14511 0.09708 0.99308
 N1517 N -0.12912 0.08649 0.99240
 C1518 C -0.12727 0.06988 1.00280
 N1519 N -0.14216 0.06430 1.01387
 N1520 N -0.15820 0.07487 1.01450
 C1521 C -0.10926 0.05832 1.00230
 C1522 C -0.10597 0.04315 1.01521
 C1523 C -0.08872 0.03273 1.01516
 C1524 C -0.07437 0.03708 1.00208
 C1525 C -0.07781 0.05200 0.98893
 C1526 C -0.09500 0.06255 0.98910
 H1527 H -0.19449 0.08236 1.02089
 H1528 H -0.22368 0.10200 1.02131
 H1529 H -0.19393 0.14792 0.99058
 H1530 H -0.16543 0.12824 0.98976
 H1531 H -0.11660 0.03950 1.02558
 H1532 H -0.08661 0.02131 1.02547
 H1533 H -0.06708 0.05577 0.97868
 H1534 H -0.09707 0.07409 0.97889
 C1535 C 0.32680 0.60467 0.50670
 C1536 C 0.30973 0.59678 0.51431
 C1537 C 0.29278 0.60776 0.51438
 C1538 C 0.29235 0.62681 0.50657
 C1539 C 0.30985 0.63506 0.50010
 C1540 C 0.32670 0.62405 0.49988
 C1541 C 0.34465 0.59290 0.50586
 N1542 N 0.35990 0.59925 0.49561
 N1543 N 0.37592 0.58873 0.49473
 C1544 C 0.37743 0.57141 0.50409
 N1545 N 0.36219 0.56504 0.51434
 N1546 N 0.34612 0.57553 0.51516
 C1547 C 0.39546 0.55989 0.50339
 C1548 C 0.39857 0.54423 0.51582
 C1549 C 0.41585 0.53387 0.51566
 C1550 C 0.43041 0.53878 0.50295
 C1551 C 0.42711 0.55415 0.49023
 C1552 C 0.40989 0.56465 0.49052
 H1553 H 0.30939 0.58202 0.52005
 H1554 H 0.27999 0.60125 0.52052
 H1555 H 0.31072 0.65010 0.49521
 H1556 H 0.33973 0.63084 0.49444
 H1557 H 0.38778 0.54016 0.52593
 H1558 H 0.41786 0.52208 0.52563
 H1559 H 0.43799 0.55833 0.48026
 H1560 H 0.40795 0.57657 0.48068
 C1561 C 0.18296 0.60806 0.50627
 C1562 C 0.19727 0.60156 0.49429
 C1563 C 0.21509 0.61130 0.49295
 C1564 C 0.21905 0.62786 0.50346
 C1565 C 0.20463 0.63470 0.51510
 C1566 C 0.18680 0.62488 0.51653
 C1567 C 0.16433 0.59712 0.50809
 N1568 N 0.15087 0.60214 0.52060
 N1569 N 0.13426 0.59211 0.52215
 C1570 C 0.13043 0.57662 0.51126
 N1571 N 0.14392 0.57164 0.49882
 N1572 N 0.16047 0.58161 0.49729
 C1573 C 0.11180 0.56557 0.51235
 C1574 C 0.10753 0.55136 0.49926
 C1575 C 0.08985 0.54142 0.49937
 C1576 C 0.07587 0.54522 0.51266
 C1577 C 0.08022 0.55897 0.52618
 C1578 C 0.09800 0.56915 0.52596
 H1579 H 0.19484 0.58874 0.48609
 H1580 H 0.22584 0.60578 0.48374
 H1581 H 0.20734 0.64725 0.52359
 H1582 H 0.17613 0.63033 0.52585
 H1583 H 0.11773 0.54808 0.48861
 H1584 H 0.08708 0.53079 0.48885
 H1585 H 0.06969 0.56226 0.53655
 H1586 H 0.10086 0.57994 0.53631
 C1587 C 0.67943 0.10854 0.00564
 C1588 C 0.69493 0.10017 -0.00358
 C1589 C 0.71276 0.10990 -0.00492
 C1590 C 0.71573 0.12848 0.00279
 C1591 C 0.69990 0.13706 0.01160
 C1592 C 0.68211 0.12717 0.01310
 C1593 C 0.66071 0.09775 0.00741
 N1594 N 0.64647 0.10409 0.01852
 N1595 N 0.62975 0.09426 0.01999
 C1596 C 0.62654 0.07768 0.01037
 N1597 N 0.64080 0.07138 -0.00067
 N1598 N 0.65750 0.08114 -0.00207
 C1599 C 0.60774 0.06692 0.01125
 C1600 C 0.60345 0.05267 -0.00180
 C1601 C 0.58562 0.04300 -0.00183
 C1602 C 0.57155 0.04706 0.01130
 C1603 C 0.57593 0.06086 0.02477
 C1604 C 0.59382 0.07083 0.02465
 H1605 H 0.69340 0.08592 -0.00967
 H1606 H 0.72403 0.10282 -0.01242
 H1607 H 0.70127 0.15096 0.01830
 H1608 H 0.67048 0.13408 0.02029
 H1609 H 0.61374 0.04921 -0.01231
 H1610 H 0.58278 0.03234 -0.01232
 H1611 H 0.56534 0.06435 0.03501
 H1612 H 0.59670 0.08166 0.03495
 C1613 C 0.68181 0.89166 0.49639
 C1614 C 0.68600 0.87734 0.48350
 C1615 C 0.70445 0.86927 0.48267
 C1616 C 0.71923 0.87554 0.49450
 C1617 C 0.71516 0.89004 0.50723
 C1618 C 0.69662 0.89790 0.50826
 C1619 C 0.66210 0.89995 0.49753
 N1620 N 0.65665 0.90996 0.51248
 N1621 N 0.63896 0.91729 0.51359
 C1622 C 0.62595 0.91504 0.49978
 N1623 N 0.63141 0.90509 0.48479
 N1624 N 0.64908 0.89764 0.48372
 C1625 C 0.60632 0.92349 0.50106
 C1626 C 0.59452 0.92592 0.48545
 C1627 C 0.57642 0.93481 0.48670
 C1628 C 0.56960 0.94121 0.50364
 C1629 C 0.58122 0.93824 0.51930
 C1630 C 0.59935 0.92962 0.51801
 H1631 H 0.67497 0.87219 0.47416
 H1632 H 0.70723 0.85831 0.47255
 H1633 H 0.72624 0.89506 0.51659
 H1634 H 0.69393 0.90897 0.51830
 H1635 H 0.59943 0.92135 0.47218
 H1636 H 0.56786 0.93683 0.47437
 H1637 H 0.57654 0.94302 0.53258
 H1638 H 0.60796 0.92786 0.53034
 C1639 C 0.18170 0.39275 0.99446
 C1640 C 0.18621 0.37855 0.98155
 C1641 C 0.20484 0.37093 0.98070
 C1642 C 0.21947 0.37749 0.99256
 C1643 C 0.21508 0.39188 1.00529
 C1644 C 0.19638 0.39932 1.00632
 C1645 C 0.16179 0.40052 0.99570
 N1646 N 0.15620 0.41037 1.01068
 N1647 N 0.13834 0.41722 1.01193
 C1648 C 0.12528 0.41462 0.99822
 N1649 N 0.13088 0.40483 0.98318
 N1650 N 0.14873 0.39786 0.98198
 C1651 C 0.10543 0.42248 0.99973
 C1652 C 0.09337 0.42466 0.98426
 C1653 C 0.07505 0.43303 0.98576
 C1654 C 0.06828 0.43912 1.00283
 C1655 C 0.08017 0.43638 1.01833
 C1656 C 0.09850 0.42829 1.01679
 H1657 H 0.17529 0.37316 0.97221
 H1658 H 0.20786 0.36005 0.97056
 H1659 H 0.22604 0.39713 1.01467
 H1660 H 0.19344 0.41029 1.01639
 H1661 H 0.09827 0.42034 0.97090
 H1662 H 0.06629 0.43491 0.97354
 H1663 H 0.07555 0.44095 1.03170
 H1664 H 0.10730 0.42672 1.02901
 C1665 C -0.02075 0.32319 0.41580
 C1666 C -0.01294 0.30570 0.42285
 C1667 C -0.01229 0.28909 0.41206
 C1668 C -0.01966 0.28949 0.39405
 C1669 C -0.02744 0.30715 0.38710
 C1670 C -0.02825 0.32362 0.39792
 C1671 C -0.01982 0.34136 0.42636
 N1672 N -0.02865 0.35778 0.41996
 N1673 N -0.02667 0.37460 0.42863
 C1674 C -0.01573 0.37573 0.44404
 N1675 N -0.00710 0.35924 0.45061
 N1676 N -0.00910 0.34238 0.44194
 C1677 C -0.01277 0.39471 0.45300
 C1678 C -0.00030 0.39635 0.46814
 C1679 C 0.00278 0.41445 0.47625
 C1680 C -0.00657 0.43125 0.46939
 C1681 C -0.01902 0.42957 0.45425
 C1682 C -0.02207 0.41152 0.44615
 H1683 H -0.00684 0.30497 0.43652
 H1684 H -0.00536 0.27613 0.41762
 H1685 H -0.03218 0.30872 0.37303
 H1686 H -0.03403 0.33698 0.39193
 H1687 H 0.00714 0.38368 0.47370
 H1688 H 0.01240 0.41524 0.48795
 H1689 H -0.02649 0.44220 0.44862
 H1690 H -0.03174 0.41079 0.43448
 C1691 C 0.47344 -0.17334 -0.08660
 C1692 C 0.46308 -0.17439 -0.10312
 C1693 C 0.46436 -0.19085 -0.11401
 C1694 C 0.47591 -0.20681 -0.10851
 C1695 C 0.48572 -0.20589 -0.09162
 C1696 C 0.48442 -0.18945 -0.08076
 C1697 C 0.47410 -0.15499 -0.07628
 N1698 N 0.48534 -0.15351 -0.06109
 N1699 N 0.48726 -0.13655 -0.05263
 C1700 C 0.47804 -0.12034 -0.05902
 N1701 N 0.46655 -0.12187 -0.07405
 N1702 N 0.46464 -0.13885 -0.08252
 C1703 C 0.48105 -0.10130 -0.05019
 C1704 C 0.47133 -0.08455 -0.05662
 C1705 C 0.47451 -0.06650 -0.04845
 C1706 C 0.48751 -0.06484 -0.03371
 C1707 C 0.49727 -0.08160 -0.02734
 C1708 C 0.49406 -0.09962 -0.03548
 H1709 H 0.45452 -0.16217 -0.10803
 H1710 H 0.45688 -0.19038 -0.12697
 H1711 H 0.49503 -0.21770 -0.08710
 H1712 H 0.49262 -0.18914 -0.06810
 H1713 H 0.46125 -0.08534 -0.06796
 H1714 H 0.46672 -0.05389 -0.05366
 H1715 H 0.50733 -0.08086 -0.01597
 H1716 H 0.50184 -0.11222 -0.03023
 C1717 C 0.01517 -0.20363 1.05025
 C1718 C 0.03128 -0.21107 1.05966
 C1719 C 0.02892 -0.22549 1.07330
 C1720 C 0.01032 -0.23221 1.07818
 C1721 C -0.00531 -0.22690 1.06684
 C1722 C -0.00294 -0.21261 1.05307
 C1723 C 0.01659 -0.18473 1.04017
 N1724 N 0.00123 -0.17774 1.03057
 N1725 N 0.00092 -0.15917 1.02469
 C1726 C 0.01588 -0.14680 1.02831
 N1727 N 0.03154 -0.15396 1.03731
 N1728 N 0.03188 -0.17256 1.04313
 C1729 C 0.01414 -0.12561 1.02440
 C1730 C 0.02670 -0.11214 1.03279
 C1731 C 0.02380 -0.09203 1.03059
 C1732 C 0.00840 -0.08504 1.01984
 C1733 C -0.00391 -0.09852 1.01118
 C1734 C -0.00110 -0.11859 1.01348
 H1735 H 0.04556 -0.20495 1.05727
 H1736 H 0.04159 -0.23055 1.08061
 H1737 H -0.01960 -0.23299 1.06915
 H1738 H -0.01558 -0.20764 1.04562
 H1739 H 0.03852 -0.11711 1.04139
 H1740 H 0.03368 -0.08198 1.03722
 H1741 H -0.01586 -0.09359 1.00272
 H1742 H -0.01103 -0.12859 1.00686
 C1743 C 0.52400 0.30041 0.55381
 C1744 C 0.53899 0.29379 0.56526
 C1745 C 0.53546 0.27922 0.57852
 C1746 C 0.51670 0.27147 0.58097
 C1747 C 0.50256 0.27603 0.56771
 C1748 C 0.50612 0.29049 0.55434
 C1749 C 0.52592 0.31931 0.54379
 N1750 N 0.51161 0.32562 0.53244
 N1751 N 0.51130 0.34411 0.52635
 C1752 C 0.52520 0.35710 0.53148
 N1753 N 0.53990 0.35062 0.54227
 N1754 N 0.54024 0.33210 0.54830
 C1755 C 0.52308 0.37819 0.52720
 C1756 C 0.53444 0.39216 0.53632
 C1757 C 0.53097 0.41214 0.53377
 C1758 C 0.51617 0.41851 0.52193
 C1759 C 0.50513 0.40453 0.51251
 C1760 C 0.50852 0.38460 0.51514
 H1761 H 0.55317 0.30062 0.56469
 H1762 H 0.54727 0.27474 0.58733
 H1763 H 0.48840 0.26920 0.56823
 H1764 H 0.49442 0.29482 0.54530
 H1765 H 0.54572 0.38769 0.54578
 H1766 H 0.53989 0.42257 0.54104
 H1767 H 0.49369 0.40894 0.50319
 H1768 H 0.49952 0.37421 0.50791
 C1769 C 0.51148 1.16264 0.60591
 C1770 C 0.52707 1.17424 0.59957
 C1771 C 0.52651 1.19459 0.60061
 C1772 C 0.51049 1.20363 0.60824
 C1773 C 0.49526 1.19208 0.61520
 C1774 C 0.49569 1.17174 0.61398
 C1775 C 0.51094 1.14143 0.60256
 N1776 N 0.49402 1.13120 0.60342
 N1777 N 0.49301 1.11271 0.59803
 C1778 C 0.50891 1.10371 0.59165
 N1779 N 0.52593 1.11376 0.59137
 N1780 N 0.52693 1.13224 0.59670
 C1781 C 0.50732 1.08449 0.58285
 C1782 C 0.52366 1.07642 0.57478
 C1783 C 0.52182 1.06030 0.56358
 C1784 C 0.50364 1.05173 0.56034
 C1785 C 0.48745 1.05884 0.56943
 C1786 C 0.48926 1.07517 0.58056
 H1787 H 0.53943 1.16767 0.59321
 H1788 H 0.53851 1.20329 0.59535
 H1789 H 0.48269 1.19878 0.62092
 H1790 H 0.48345 1.16321 0.61896
 H1791 H 0.53782 1.08305 0.57643
 H1792 H 0.53464 1.05481 0.55710
 H1793 H 0.47330 1.05235 0.56730
 H1794 H 0.47641 1.08097 0.58671
 C1795 C 0.00978 0.65968 1.10588
 C1796 C -0.00543 0.66853 1.11511
 C1797 C -0.00630 0.68889 1.11597
 C1798 C 0.00782 0.70067 1.10739
 C1799 C 0.02330 0.69189 1.09861
 C1800 C 0.02436 0.67155 1.09798
 C1801 C 0.00957 0.63841 1.10289
 N1802 N -0.00708 0.62781 1.10445
 N1803 N -0.00792 0.60928 1.09916
 C1804 C 0.00789 0.60061 1.09219
 N1805 N 0.02467 0.61104 1.09126
 N1806 N 0.02550 0.62955 1.09648
 C1807 C 0.00636 0.58139 1.08339
 C1808 C 0.02254 0.57374 1.07469
 C1809 C 0.02062 0.55763 1.06349
 C1810 C 0.00252 0.54865 1.06087
 C1811 C -0.01345 0.55535 1.07056
 C1812 C -0.01157 0.57168 1.08169
 H1813 H -0.01686 0.65975 1.12131
 H1814 H -0.01840 0.69543 1.12272
 H1815 H 0.03449 0.70078 1.09212
 H1816 H 0.03623 0.66519 1.09069
 H1817 H 0.03661 0.58070 1.07585
 H1818 H 0.03330 0.55248 1.05653
 H1819 H -0.02754 0.54854 1.06891
 H1820 H -0.02430 0.57716 1.08831
 C1821 C 0.48733 0.68309 -0.10022
 C1822 C 0.49819 0.68877 -0.11561
 C1823 C 0.49658 0.70760 -0.12322
 C1824 C 0.48407 0.72138 -0.11559
 C1825 C 0.47297 0.71540 -0.10030
 C1826 C 0.47453 0.69653 -0.09279
 C1827 C 0.48973 0.66350 -0.09155
 N1828 N 0.47883 0.65797 -0.07693
 N1829 N 0.48137 0.64067 -0.06863
 C1830 C 0.49495 0.62815 -0.07455
 N1831 N 0.50581 0.63360 -0.08926
 N1832 N 0.50324 0.65094 -0.09760
 C1833 C 0.49794 0.60922 -0.06481
 C1834 C 0.51221 0.59612 -0.07032
 C1835 C 0.51500 0.57842 -0.06067
 C1836 C 0.50356 0.57355 -0.04535
 C1837 C 0.48931 0.58669 -0.03997
 C1838 C 0.48654 0.60424 -0.04955
 H1839 H 0.50828 0.67879 -0.12161
 H1840 H 0.50610 0.71140 -0.13445
 H1841 H 0.46266 0.72505 -0.09422
 H1842 H 0.46580 0.69259 -0.08099
 H1843 H 0.52124 0.59955 -0.08204
 H1844 H 0.52605 0.56858 -0.06520
 H1845 H 0.48019 0.58349 -0.02826
 H1846 H 0.47542 0.61394 -0.04489
 C1847 C -0.01186 1.17751 0.40025
 C1848 C 0.00157 1.18460 0.38733
 C1849 C 0.00039 1.20373 0.38039
 C1850 C -0.01423 1.21618 0.38613
 C1851 C -0.02798 1.20898 0.39869
 C1852 C -0.02683 1.18982 0.40567
 C1853 C -0.00967 1.15779 0.40871
 N1854 N -0.02181 1.15145 0.42214
 N1855 N -0.01923 1.13417 0.43049
 C1856 C -0.00441 1.12249 0.42580
 N1857 N 0.00762 1.12871 0.41221
 N1858 N 0.00505 1.14603 0.40385
 C1859 C -0.00122 1.10372 0.43576
 C1860 C 0.01352 1.09096 0.43066
 C1861 C 0.01654 1.07343 0.44051
 C1862 C 0.00492 1.06841 0.45565
 C1863 C -0.00977 1.08124 0.46066
 C1864 C -0.01281 1.09861 0.45085
 H1865 H 0.01333 1.17557 0.38290
 H1866 H 0.01143 1.20894 0.37112
 H1867 H -0.03955 1.21821 0.40320
 H1868 H -0.03749 1.18479 0.41554
 H1869 H 0.02271 1.09450 0.41909
 H1870 H 0.02793 1.06383 0.43626
 H1871 H -0.01907 1.07790 0.47221
 H1872 H -0.02425 1.10808 0.45521
 C1873 C 0.76504 0.70035 0.92502
 C1874 C 0.78095 0.68819 0.92837
 C1875 C 0.78174 0.67603 0.94401
 C1876 C 0.76663 0.67577 0.95685
 C1877 C 0.75119 0.68874 0.95385
 C1878 C 0.75033 0.70076 0.93813
 C1879 C 0.76332 0.71154 0.90743
 N1880 N 0.74653 0.72039 0.90249
 N1881 N 0.74452 0.72893 0.88600
 C1882 C 0.75923 0.72903 0.87377
 N1883 N 0.77611 0.72052 0.87888
 N1884 N 0.77811 0.71197 0.89531
 C1885 C 0.75655 0.73656 0.85469
 C1886 C 0.77145 0.73456 0.84192
 C1887 C 0.76833 0.73889 0.82342
 C1888 C 0.75032 0.74556 0.81717
 C1889 C 0.73575 0.74885 0.83000
 C1890 C 0.73881 0.74429 0.84862
 H1891 H 0.79261 0.68756 0.91860
 H1892 H 0.79408 0.66668 0.94551
 H1893 H 0.73937 0.68907 0.96349
 H1894 H 0.73792 0.71005 0.93608
 H1895 H 0.78535 0.72885 0.84604
 H1896 H 0.77991 0.73641 0.81386
 H1897 H 0.72171 0.75392 0.82552
 H1898 H 0.72705 0.74611 0.85811
 C1899 C 0.26494 0.19521 0.42017
 C1900 C 0.25161 0.19815 0.43421
 C1901 C 0.25236 0.18684 0.45039
 C1902 C 0.26630 0.17214 0.45296
 C1903 C 0.28001 0.16970 0.43904
 C1904 C 0.27937 0.18115 0.42295
 C1905 C 0.26329 0.20589 0.40232
 N1906 N 0.27745 0.20462 0.38966
 N1907 N 0.27548 0.21294 0.37312
 C1908 C 0.25927 0.22290 0.36845
 N1909 N 0.24517 0.22442 0.38119
 N1910 N 0.24716 0.21612 0.39779
 C1911 C 0.25660 0.23046 0.34939
 C1912 C 0.23907 0.23882 0.34347
 C1913 C 0.23599 0.24352 0.32488
 C1914 C 0.25034 0.23978 0.31194
 C1915 C 0.26817 0.23249 0.31804
 C1916 C 0.27129 0.22797 0.33649
 H1917 H 0.24038 0.20894 0.43260
 H1918 H 0.24157 0.18913 0.46078
 H1919 H 0.29103 0.15873 0.44003
 H1920 H 0.28988 0.17848 0.41241
 H1921 H 0.22748 0.24103 0.35306
 H1922 H 0.22209 0.24905 0.32050
 H1923 H 0.27958 0.22969 0.30839
 H1924 H 0.28504 0.22180 0.34050
 C1925 C 0.75597 0.31498 0.42791
 C1926 C 0.75955 0.30466 0.44441
 C1927 C 0.75646 0.31351 0.46130
 C1928 C 0.74918 0.33271 0.46208
 C1929 C 0.74521 0.34266 0.44540
 C1930 C 0.74839 0.33391 0.42867
 C1931 C 0.76109 0.30693 0.40989
 N1932 N 0.76277 0.31918 0.39509
 N1933 N 0.76727 0.31239 0.37877
 C1934 C 0.77034 0.29302 0.37643
 N1935 N 0.76876 0.28067 0.39124
 N1936 N 0.76434 0.28751 0.40768
 C1937 C 0.77399 0.28575 0.35775
 C1938 C 0.77264 0.26569 0.35376
 C1939 C 0.77297 0.25957 0.33553
 C1940 C 0.77454 0.27343 0.32108
 C1941 C 0.77741 0.29323 0.32522
 C1942 C 0.77721 0.29930 0.34329
 H1943 H 0.76561 0.29012 0.44427
 H1944 H 0.76072 0.30561 0.47363
 H1945 H 0.74056 0.35774 0.44517
 H1946 H 0.74546 0.34234 0.41625
 H1947 H 0.77027 0.25487 0.36459
 H1948 H 0.77061 0.24422 0.33269
 H1949 H 0.77882 0.30422 0.31436
 H1950 H 0.77868 0.31482 0.34582
 C1951 C 0.25511 0.81386 0.92660
 C1952 C 0.25784 0.80344 0.94319
 C1953 C 0.25448 0.81239 0.95999
 C1954 C 0.24776 0.83182 0.96055
 C1955 C 0.24460 0.84187 0.94378
 C1956 C 0.24809 0.83303 0.92713
 C1957 C 0.26045 0.80555 0.90874
 N1958 N 0.26303 0.81766 0.89397
 N1959 N 0.26765 0.81061 0.87777
 C1960 C 0.26992 0.79109 0.87554
 N1961 N 0.26745 0.77888 0.89034
 N1962 N 0.26292 0.78598 0.90665
 C1963 C 0.27360 0.78357 0.85697
 C1964 C 0.27135 0.76357 0.85300
 C1965 C 0.27158 0.75737 0.83478
 C1966 C 0.27396 0.77111 0.82034
 C1967 C 0.27776 0.79076 0.82446
 C1968 C 0.27768 0.79690 0.84252
 H1969 H 0.26344 0.78870 0.94323
 H1970 H 0.25809 0.80430 0.97239
 H1971 H 0.24027 0.85706 0.94347
 H1972 H 0.24578 0.84152 0.91463
 H1973 H 0.26829 0.75291 0.86382
 H1974 H 0.26846 0.74215 0.83193
 H1975 H 0.27976 0.80163 0.81358
 H1976 H 0.27984 0.81234 0.84503
 C1977 C 0.24296 0.82314 0.06665
 C1978 C 0.25096 0.84175 0.06276
 C1979 C 0.25261 0.84885 0.04475
 C1980 C 0.24620 0.83762 0.02983
 C1981 C 0.23844 0.81874 0.03386
 C1982 C 0.23683 0.81167 0.05196
 C1983 C 0.24113 0.81596 0.08595
 N1984 N 0.23448 0.79757 0.09017
 N1985 N 0.23303 0.79136 0.10759
 C1986 C 0.23813 0.80332 0.12151
 N1987 N 0.24470 0.82166 0.11722
 N1988 N 0.24616 0.82784 0.09989
 C1989 C 0.23699 0.79671 0.14103
 C1990 C 0.24223 0.80980 0.15481
 C1991 C 0.24210 0.80390 0.17317
 C1992 C 0.23671 0.78468 0.17848
 C1993 C 0.23097 0.77158 0.16481
 C1994 C 0.23115 0.77754 0.14623
 H1995 H 0.25616 0.85093 0.07369
 H1996 H 0.25963 0.86293 0.04283
 H1997 H 0.23285 0.80946 0.02324
 H1998 H 0.23055 0.79726 0.05442
 H1999 H 0.24667 0.82470 0.15147
 H2000 H 0.24643 0.81454 0.18324
 H2001 H 0.22673 0.75668 0.16842
 H2002 H 0.22696 0.76708 0.13597
 C2003 C 0.74421 0.32429 0.56822
 C2004 C 0.73785 0.31293 0.55354
 C2005 C 0.73993 0.31980 0.53541
 C2006 C 0.74840 0.33836 0.53137
 C2007 C 0.75517 0.34939 0.54628
 C2008 C 0.75303 0.34251 0.56431
 C2009 C 0.74168 0.31747 0.58756
 N2010 N 0.74628 0.32960 0.60144
 N2011 N 0.74412 0.32378 0.61881
 C2012 C 0.73727 0.30557 0.62318
 N2013 N 0.73263 0.29336 0.60932
 N2014 N 0.73476 0.29921 0.59186
 C2015 C 0.73538 0.29933 0.64275
 C2016 C 0.73001 0.28006 0.64804
 C2017 C 0.72937 0.27438 0.66667
 C2018 C 0.73416 0.28787 0.68031
 C2019 C 0.73894 0.30723 0.67492
 C2020 C 0.73953 0.31285 0.65649
 H2021 H 0.73096 0.29880 0.55603
 H2022 H 0.73410 0.31067 0.52478
 H2023 H 0.76279 0.36315 0.54437
 H2024 H 0.75848 0.35156 0.57524
 H2025 H 0.72665 0.26928 0.63781
 H2026 H 0.72564 0.25936 0.67035
 H2027 H 0.74251 0.31813 0.68498
 H2028 H 0.74353 0.32786 0.65306
 C2029 C 0.26479 0.18282 0.55745
 C2030 C 0.25237 0.16700 0.55336
 C2031 C 0.25204 0.15903 0.53588
 C2032 C 0.26406 0.16671 0.52203
 C2033 C 0.27666 0.18236 0.52614
 C2034 C 0.27703 0.19031 0.54364
 C2035 C 0.26475 0.19143 0.57598
 N2036 N 0.27706 0.20628 0.58049
 N2037 N 0.27682 0.21387 0.59719
 C2038 C 0.26421 0.20694 0.61005
 N2039 N 0.25194 0.19214 0.60545
 N2040 N 0.25219 0.18457 0.58884
 C2041 C 0.26376 0.21485 0.62886
 C2042 C 0.25034 0.20702 0.64143
 C2043 C 0.24999 0.21336 0.65936
 C2044 C 0.26303 0.22778 0.66547
 C2045 C 0.27614 0.23621 0.65287
 C2046 C 0.27656 0.22972 0.63469
 H2047 H 0.24275 0.16080 0.56364
 H2048 H 0.24203 0.14715 0.53311
 H2049 H 0.28637 0.18839 0.51586
 H2050 H 0.28685 0.20238 0.54631
 H2051 H 0.24012 0.19572 0.63753
 H2052 H 0.23941 0.20676 0.66853
 H2053 H 0.28632 0.24739 0.65716
 H2054 H 0.28703 0.23614 0.62531
 C2055 C 0.76522 0.68178 0.06150
 C2056 C 0.76886 0.66197 0.05813
 C2057 C 0.76708 0.65461 0.04047
 C2058 C 0.76174 0.66686 0.02561
 C2059 C 0.75725 0.68650 0.02920
 C2060 C 0.75907 0.69388 0.04686
 C2061 C 0.76797 0.68971 0.08015
 N2062 N 0.76531 0.70902 0.08347
 N2063 N 0.76776 0.71598 0.10026
 C2064 C 0.77301 0.70394 0.11444
 N2065 N 0.77575 0.68468 0.11106
 N2066 N 0.77334 0.67774 0.09431
 C2067 C 0.77473 0.71122 0.13342
 C2068 C 0.77747 0.69784 0.14806
 C2069 C 0.77715 0.70405 0.16610
 C2070 C 0.77431 0.72385 0.17005
 C2071 C 0.77267 0.73752 0.15549
 C2072 C 0.77276 0.73123 0.13730
 H2073 H 0.77340 0.65213 0.06910
 H2074 H 0.77042 0.63940 0.03860
 H2075 H 0.75236 0.69634 0.01838
 H2076 H 0.75579 0.70912 0.04898
 H2077 H 0.77919 0.68237 0.14567
 H2078 H 0.77863 0.69320 0.17705
 H2079 H 0.77038 0.75285 0.15817
 H2080 H 0.77077 0.74195 0.12633
 C2081 C 0.14965 0.57722 0.24375
 C2082 C 0.15964 0.56022 0.24918
 C2083 C 0.14997 0.54215 0.25113
 C2084 C 0.13001 0.54056 0.24758
 C2085 C 0.12001 0.55778 0.24266
 C2086 C 0.12971 0.57575 0.24050
 C2087 C 0.15978 0.59650 0.24227
 N2088 N 0.15120 0.61226 0.23409
 N2089 N 0.16005 0.62973 0.23345
 C2090 C 0.17783 0.63219 0.24105
 N2091 N 0.18645 0.61639 0.24908
 N2092 N 0.17766 0.59894 0.24963
 C2093 C 0.18732 0.65181 0.24157
 C2094 C 0.20224 0.65515 0.25423
 C2095 C 0.21074 0.67365 0.25565
 C2096 C 0.20481 0.68935 0.24427
 C2097 C 0.19027 0.68602 0.23119
 C2098 C 0.18143 0.66743 0.22998
 H2099 H 0.17497 0.56087 0.25207
 H2100 H 0.15818 0.52966 0.25585
 H2101 H 0.10453 0.55740 0.24061
 H2102 H 0.12147 0.58858 0.23667
 H2103 H 0.20712 0.64354 0.26340
 H2104 H 0.22207 0.67566 0.26575
 H2105 H 0.18543 0.69784 0.22224
 H2106 H 0.17001 0.66529 0.22002
 C2107 C 0.64784 0.08030 0.74424
 C2108 C 0.65769 0.06322 0.74968
 C2109 C 0.64788 0.04523 0.75156
 C2110 C 0.62793 0.04381 0.74793
 C2111 C 0.61808 0.06110 0.74294
 C2112 C 0.62792 0.07899 0.74085
 C2113 C 0.65810 0.09952 0.74292
 N2114 N 0.64965 0.11538 0.73479
 N2115 N 0.65859 0.13280 0.73433
 C2116 C 0.67633 0.13511 0.74206
 N2117 N 0.68481 0.11921 0.75004
 N2118 N 0.67593 0.10180 0.75041
 C2119 C 0.68589 0.15466 0.74276
 C2120 C 0.70071 0.15788 0.75556
 C2121 C 0.70927 0.17634 0.75713
 C2122 C 0.70350 0.19211 0.74576
 C2123 C 0.68904 0.18889 0.73256
 C2124 C 0.68015 0.17036 0.73121
 H2125 H 0.67301 0.06376 0.75265
 H2126 H 0.65598 0.03269 0.75631
 H2127 H 0.60261 0.06083 0.74078
 H2128 H 0.61979 0.09189 0.73699
 H2129 H 0.70547 0.14619 0.76472
 H2130 H 0.72051 0.17825 0.76733
 H2131 H 0.68432 0.20077 0.72362
 H2132 H 0.66881 0.16832 0.72115
 C2133 C 0.85082 0.07217 0.25202
 C2134 C 0.87027 0.07231 0.24672
 C2135 C 0.88045 0.05478 0.24581
 C2136 C 0.87157 0.03664 0.25033
 C2137 C 0.85214 0.03674 0.25609
 C2138 C 0.84189 0.05420 0.25662
 C2139 C 0.83983 0.09059 0.25292
 N2140 N 0.82027 0.09029 0.25158
 N2141 N 0.81027 0.10678 0.25238
 C2142 C 0.81939 0.12427 0.25476
 N2143 N 0.83896 0.12459 0.25620
 N2144 N 0.84898 0.10809 0.25523
 C2145 C 0.80821 0.14259 0.25538
 C2146 C 0.81572 0.15923 0.26405
 C2147 C 0.80517 0.17659 0.26430
 C2148 C 0.78712 0.17777 0.25551
 C2149 C 0.77959 0.16109 0.24694
 C2150 C 0.78992 0.14364 0.24704
 H2151 H 0.87757 0.08597 0.24314
 H2152 H 0.89545 0.05538 0.24172
 H2153 H 0.84468 0.02358 0.26064
 H2154 H 0.82701 0.05367 0.26109
 H2155 H 0.82973 0.15882 0.27068
 H2156 H 0.81135 0.18923 0.27093
 H2157 H 0.76569 0.16155 0.24009
 H2158 H 0.78377 0.13109 0.24021
 C2159 C 0.35157 0.57221 0.74856
 C2160 C 0.36023 0.56685 0.73209
 C2161 C 0.37129 0.54990 0.73121
 C2162 C 0.37397 0.53770 0.74682
 C2163 C 0.36475 0.54286 0.76316
 C2164 C 0.35387 0.55994 0.76407
 C2165 C 0.34023 0.59048 0.74946
 N2166 N 0.33564 0.59831 0.76581
 N2167 N 0.32560 0.61483 0.76651
 C2168 C 0.31963 0.62414 0.75088
 N2169 N 0.32419 0.61626 0.73457
 N2170 N 0.33431 0.59985 0.73386
 C2171 C 0.30826 0.64241 0.75147
 C2172 C 0.29805 0.64889 0.73586
 C2173 C 0.28740 0.66610 0.73610
 C2174 C 0.28680 0.67748 0.75191
 C2175 C 0.29705 0.67106 0.76757
 C2176 C 0.30756 0.65363 0.76738
 H2177 H 0.35869 0.57594 0.71984
 H2178 H 0.37757 0.54669 0.71817
 H2179 H 0.36621 0.53372 0.77538
 H2180 H 0.34720 0.56349 0.77694
 H2181 H 0.29820 0.64059 0.72339
 H2182 H 0.27979 0.67058 0.72375
 H2183 H 0.29694 0.67948 0.77996
 H2184 H 0.31534 0.64908 0.77962
 C2185 C 0.35642 0.42806 0.74555
 C2186 C 0.37442 0.43173 0.73725
 C2187 C 0.38432 0.44950 0.73993
 C2188 C 0.37640 0.46405 0.75088
 C2189 C 0.35873 0.46011 0.75963
 C2190 C 0.34890 0.44236 0.75704
 C2191 C 0.34520 0.40975 0.74204
 N2192 N 0.32747 0.40701 0.74955
 N2193 N 0.31719 0.39082 0.74646
 C2194 C 0.32408 0.37656 0.73567
 N2195 N 0.34182 0.37927 0.72807
 N2196 N 0.35214 0.39554 0.73116
 C2197 C 0.31256 0.35825 0.73297
 C2198 C 0.31928 0.34285 0.72223
 C2199 C 0.30875 0.32514 0.72112
 C2200 C 0.29145 0.32252 0.73088
 C2201 C 0.28444 0.33820 0.74094
 C2202 C 0.29476 0.35579 0.74191
 H2203 H 0.38067 0.42108 0.72834
 H2204 H 0.39777 0.45213 0.73277
 H2205 H 0.35232 0.47091 0.76829
 H2206 H 0.33520 0.44004 0.76384
 H2207 H 0.33290 0.34426 0.71510
 H2208 H 0.31457 0.31322 0.71340
 H2209 H 0.27109 0.33668 0.74852
 H2210 H 0.28897 0.36728 0.75018
 C2211 C 0.85837 0.92638 0.24822
 C2212 C 0.84954 0.94150 0.25772
 C2213 C 0.85880 0.95955 0.25980
 C2214 C 0.87731 0.96326 0.25249
 C2215 C 0.88663 0.94769 0.24382
 C2216 C 0.87719 0.92956 0.24159
 C2217 C 0.84755 0.90776 0.24512
 N2218 N 0.85503 0.89310 0.23511
 N2219 N 0.84490 0.87664 0.23229
 C2220 C 0.82685 0.87421 0.23931
 N2221 N 0.81946 0.88889 0.24925
 N2222 N 0.82954 0.90526 0.25205
 C2223 C 0.81547 0.85579 0.23691
 C2224 C 0.79774 0.85333 0.24600
 C2225 C 0.78743 0.83573 0.24516
 C2226 C 0.79439 0.82005 0.23508
 C2227 C 0.81164 0.82266 0.22523
 C2228 C 0.82217 0.84036 0.22623
 H2229 H 0.83521 0.93956 0.26337
 H2230 H 0.85131 0.97059 0.26735
 H2231 H 0.90071 0.94967 0.23770
 H2232 H 0.88448 0.91818 0.23431
 H2233 H 0.79197 0.86485 0.25424
 H2234 H 0.77411 0.83424 0.25279
 H2235 H 0.81740 0.81077 0.21744
 H2236 H 0.83571 0.84180 0.21896
 C2237 C 0.63890 0.93038 0.75197
 C2238 C 0.64509 0.94505 0.73943
 C2239 C 0.63786 0.96405 0.74017
 C2240 C 0.62406 0.96883 0.75332
 C2241 C 0.61762 0.95415 0.76568
 C2242 C 0.62509 0.93517 0.76514
 C2243 C 0.64688 0.91030 0.75114
 N2244 N 0.64537 0.89742 0.76556
 N2245 N 0.65295 0.87957 0.76478
 C2246 C 0.66223 0.87380 0.74949
 N2247 N 0.66361 0.88665 0.73508
 N2248 N 0.65616 0.90450 0.73590
 C2249 C 0.67104 0.85409 0.74845
 C2250 C 0.67658 0.84691 0.73141
 C2251 C 0.68583 0.82894 0.73021
 C2252 C 0.69002 0.81763 0.74605
 C2253 C 0.68413 0.82458 0.76312
 C2254 C 0.67463 0.84257 0.76429
 H2255 H 0.65570 0.94191 0.72910
 H2256 H 0.64289 0.97495 0.73026
 H2257 H 0.60706 0.95743 0.77598
 H2258 H 0.61995 0.92421 0.77495
 H2259 H 0.67392 0.85528 0.71891
 H2260 H 0.69013 0.82416 0.71681
 H2261 H 0.68710 0.81626 0.77559
 H2262 H 0.67056 0.84767 0.77765
 C2263 C 0.14183 0.42719 0.24982
 C2264 C 0.14799 0.44222 0.23765
 C2265 C 0.14066 0.46114 0.23884
 C2266 C 0.12683 0.46550 0.25210
 C2267 C 0.12044 0.45045 0.26411
 C2268 C 0.12799 0.43154 0.26310
 C2269 C 0.14988 0.40717 0.24850
 N2270 N 0.14803 0.39378 0.26248
 N2271 N 0.15560 0.37597 0.26127
 C2272 C 0.16522 0.37075 0.24598
 N2273 N 0.16696 0.38411 0.23201
 N2274 N 0.15950 0.40192 0.23326
 C2275 C 0.17397 0.35105 0.24450
 C2276 C 0.18011 0.34452 0.22740
 C2277 C 0.18913 0.32645 0.22587
 C2278 C 0.19248 0.31443 0.24143
 C2279 C 0.18604 0.32076 0.25853
 C2280 C 0.17677 0.33883 0.26003
 H2281 H 0.15862 0.43943 0.22725
 H2282 H 0.14564 0.47232 0.22917
 H2283 H 0.10985 0.45338 0.27448
 H2284 H 0.12287 0.42029 0.27263
 H2285 H 0.17808 0.35345 0.21513
 H2286 H 0.19388 0.32213 0.21247
 H2287 H 0.18831 0.31185 0.27079
 H2288 H 0.17221 0.34340 0.27342
 C2289 C 0.06667 0.22442 0.81905
 C2290 C 0.05321 0.23944 0.81661
 C2291 C 0.03770 0.24088 0.82852
 C2292 C 0.03527 0.22743 0.84324
 C2293 C 0.04804 0.21158 0.84483
 C2294 C 0.06359 0.21017 0.83292
 C2295 C 0.08462 0.22460 0.80830
 N2296 N 0.09890 0.21179 0.81244
 N2297 N 0.11593 0.21330 0.80419
 C2298 C 0.11939 0.22770 0.79149
 N2299 N 0.10498 0.24025 0.78704
 N2300 N 0.08795 0.23875 0.79530
 C2301 C 0.13883 0.23049 0.78366
 C2302 C 0.14232 0.24502 0.77011
 C2303 C 0.16095 0.24836 0.76351
 C2304 C 0.17645 0.23731 0.77040
 C2305 C 0.17290 0.22267 0.78382
 C2306 C 0.15429 0.21926 0.79034
 H2307 H 0.05501 0.25055 0.80593
 H2308 H 0.02787 0.25298 0.82663
 H2309 H 0.04651 0.20031 0.85529
 H2310 H 0.07353 0.19819 0.83494
 H2311 H 0.13071 0.25392 0.76470
 H2312 H 0.16322 0.25969 0.75311
 H2313 H 0.18449 0.21374 0.78929
 H2314 H 0.15211 0.20798 0.80080
 C2315 C 0.56842 0.72543 0.31826
 C2316 C 0.55562 0.74109 0.31617
 C2317 C 0.54048 0.74318 0.32841
 C2318 C 0.53784 0.72980 0.34314
 C2319 C 0.54991 0.71338 0.34442
 C2320 C 0.56507 0.71130 0.33216
 C2321 C 0.58606 0.72474 0.30708
 N2322 N 0.59958 0.71094 0.31062
 N2323 N 0.61648 0.71161 0.30209
 C2324 C 0.62056 0.72612 0.28966
 N2325 N 0.60686 0.73965 0.28577
 N2326 N 0.58996 0.73899 0.29432
 C2327 C 0.64006 0.72808 0.28177
 C2328 C 0.64424 0.74276 0.26855
 C2329 C 0.66308 0.74563 0.26230
 C2330 C 0.67810 0.73396 0.26926
 C2331 C 0.67382 0.71901 0.28218
 C2332 C 0.65500 0.71606 0.28832
 H2333 H 0.55764 0.75213 0.30545
 H2334 H 0.53109 0.75567 0.32671
 H2335 H 0.54807 0.70210 0.35483
 H2336 H 0.57447 0.69884 0.33393
 H2337 H 0.63303 0.75225 0.26323
 H2338 H 0.66592 0.75720 0.25227
 H2339 H 0.68503 0.70959 0.28763
 H2340 H 0.65229 0.70462 0.29851
 C2341 C 0.54898 0.26692 0.20916
 C2342 C 0.54042 0.24848 0.20629
 C2343 C 0.52704 0.24606 0.19216
 C2344 C 0.52224 0.26196 0.18051
 C2345 C 0.52840 0.28086 0.18543
 C2346 C 0.54189 0.28329 0.19944
 C2347 C 0.56732 0.26839 0.21940
 N2348 N 0.57923 0.28406 0.21644
 N2349 N 0.59751 0.28369 0.22209
 C2350 C 0.60460 0.26762 0.23093
 N2351 N 0.59247 0.25230 0.23463
 N2352 N 0.57421 0.25264 0.22891
 C2353 C 0.62551 0.26579 0.23431
 C2354 C 0.63258 0.25020 0.24514
 C2355 C 0.65238 0.24728 0.24683
 C2356 C 0.66551 0.25979 0.23759
 C2357 C 0.65847 0.27552 0.22693
 C2358 C 0.63865 0.27855 0.22539
 H2359 H 0.54511 0.23563 0.21395
 H2360 H 0.52133 0.23151 0.18978
 H2361 H 0.52365 0.29373 0.17786
 H2362 H 0.54767 0.29782 0.20186
 H2363 H 0.62281 0.24010 0.25216
 H2364 H 0.65739 0.23509 0.25525
 H2365 H 0.66827 0.28557 0.21989
 H2366 H 0.63365 0.29063 0.21683
 C2367 C 0.04667 0.76393 0.71137
 C2368 C 0.03854 0.74526 0.70873
 C2369 C 0.02515 0.74234 0.69470
 C2370 C 0.01987 0.75801 0.68296
 C2371 C 0.02554 0.77711 0.68773
 C2372 C 0.03909 0.78002 0.70160
 C2373 C 0.06511 0.76593 0.72135
 N2374 N 0.07680 0.78166 0.71785
 N2375 N 0.09518 0.78164 0.72320
 C2376 C 0.10261 0.76587 0.73226
 N2377 N 0.09071 0.75052 0.73652
 N2378 N 0.07235 0.75051 0.73110
 C2379 C 0.12359 0.76431 0.73528
 C2380 C 0.13100 0.74896 0.74619
 C2381 C 0.15085 0.74620 0.74753
 C2382 C 0.16371 0.75864 0.73787
 C2383 C 0.15633 0.77416 0.72714
 C2384 C 0.13646 0.77702 0.72593
 H2385 H 0.04360 0.73261 0.71648
 H2386 H 0.01973 0.72764 0.69260
 H2387 H 0.02045 0.78975 0.68001
 H2388 H 0.04456 0.79471 0.70382
 H2389 H 0.12146 0.73890 0.75354
 H2390 H 0.15609 0.73417 0.75601
 H2391 H 0.16591 0.78416 0.71976
 H2392 H 0.13118 0.78891 0.71729
 C2393 C 0.91542 0.76104 0.64988
 C2394 C 0.92417 0.74524 0.64133
 C2395 C 0.94418 0.74333 0.64176
 C2396 C 0.95571 0.75705 0.65087
 C2397 C 0.94709 0.77316 0.65895
 C2398 C 0.92710 0.77522 0.65835
 C2399 C 0.89426 0.76172 0.65160
 N2400 N 0.88570 0.77793 0.65802
 N2401 N 0.86703 0.77766 0.66214
 C2402 C 0.85617 0.76117 0.66005
 N2403 N 0.86460 0.74515 0.65304
 N2404 N 0.88327 0.74543 0.64887
 C2405 C 0.83658 0.75990 0.66782
 C2406 C 0.82653 0.74188 0.66885
 C2407 C 0.80983 0.73991 0.67940
 C2408 C 0.80303 0.75590 0.68915
 C2409 C 0.81230 0.77420 0.68703
 C2410 C 0.82884 0.77620 0.67643
 H2411 H 0.91555 0.73408 0.63471
 H2412 H 0.95053 0.73075 0.63557
 H2413 H 0.95580 0.78408 0.66581
 H2414 H 0.92080 0.78755 0.66511
 H2415 H 0.83206 0.72906 0.66227
 H2416 H 0.80283 0.72568 0.68063
 H2417 H 0.80711 0.78692 0.69404
 H2418 H 0.83606 0.79036 0.67574
 C2419 C 0.41714 0.25752 0.14862
 C2420 C 0.42725 0.24288 0.13964
 C2421 C 0.44739 0.24293 0.13984
 C2422 C 0.45766 0.25739 0.14933
 C2423 C 0.44762 0.27216 0.15808
 C2424 C 0.42752 0.27233 0.15760
 C2425 C 0.39595 0.25668 0.14988
 N2426 N 0.38606 0.27275 0.15476
 N2427 N 0.36727 0.27153 0.15821
 C2428 C 0.35758 0.25421 0.15698
 N2429 N 0.36736 0.23823 0.15158
 N2430 N 0.38618 0.23946 0.14803
 C2431 C 0.33766 0.25241 0.16396
 C2432 C 0.32871 0.23393 0.16646
 C2433 C 0.31160 0.23208 0.17647
 C2434 C 0.30337 0.24864 0.18420
 C2435 C 0.31155 0.26719 0.18052
 C2436 C 0.32843 0.26908 0.17042
 H2437 H 0.41960 0.23130 0.13262
 H2438 H 0.45494 0.23139 0.13302
 H2439 H 0.45534 0.28359 0.16526
 H2440 H 0.42013 0.28374 0.16475
 H2441 H 0.33541 0.22082 0.16156
 H2442 H 0.30544 0.21762 0.17902
 H2443 H 0.30522 0.28026 0.18598
 H2444 H 0.33475 0.28356 0.16851
 C2445 C 0.42908 0.74250 0.34070
 C2446 C 0.43653 0.75551 0.35366
 C2447 C 0.45542 0.75358 0.36012
 C2448 C 0.46717 0.73860 0.35373
 C2449 C 0.45959 0.72530 0.34115
 C2450 C 0.44073 0.72721 0.33470
 C2451 C 0.40959 0.74522 0.33284
 N2452 N 0.40326 0.73364 0.31915
 N2453 N 0.38610 0.73648 0.31143
 C2454 C 0.37450 0.75103 0.31704
 N2455 N 0.38071 0.76255 0.33086
 N2456 N 0.39794 0.75971 0.33859
 C2457 C 0.35570 0.75429 0.30794
 C2458 C 0.34238 0.76769 0.31470
 C2459 C 0.32455 0.77034 0.30595
 C2460 C 0.31983 0.75971 0.29024
 C2461 C 0.33333 0.74655 0.28342
 C2462 C 0.35098 0.74385 0.29216
 H2463 H 0.42795 0.76746 0.35852
 H2464 H 0.46100 0.76420 0.36965
 H2465 H 0.46827 0.71344 0.33623
 H2466 H 0.43540 0.71683 0.32482
 H2467 H 0.34564 0.77598 0.32683
 H2468 H 0.31446 0.78059 0.31154
 H2469 H 0.33024 0.73809 0.27135
 H2470 H 0.36092 0.73351 0.28649
 C2471 C 0.92771 0.24180 0.84026
 C2472 C 0.93361 0.25110 0.85630
 C2473 C 0.95221 0.24844 0.86327
 C2474 C 0.96547 0.23638 0.85433
 C2475 C 0.95914 0.22661 0.83855
 C2476 C 0.94056 0.22928 0.83164
 C2477 C 0.90855 0.24562 0.83208
 N2478 N 0.90381 0.23809 0.81560
 N2479 N 0.88688 0.24195 0.80781
 C2480 C 0.87393 0.25351 0.81613
 N2481 N 0.87859 0.26100 0.83267
 N2482 N 0.89560 0.25716 0.84047
 C2483 C 0.85519 0.25763 0.80723
 C2484 C 0.84063 0.26773 0.81631
 C2485 C 0.82268 0.27070 0.80790
 C2486 C 0.81903 0.26362 0.79027
 C2487 C 0.83382 0.25401 0.78108
 C2488 C 0.85163 0.25105 0.78944
 H2489 H 0.92406 0.26091 0.86323
 H2490 H 0.95625 0.25689 0.87505
 H2491 H 0.96832 0.21655 0.83153
 H2492 H 0.93638 0.22162 0.81939
 H2493 H 0.84297 0.27303 0.83002
 H2494 H 0.81156 0.27814 0.81534
 H2495 H 0.83160 0.24848 0.76743
 H2496 H 0.86255 0.24338 0.78196
 C2497 C 0.54900 0.99098 0.69643
 C2498 C 0.54997 1.01003 0.70333
 C2499 C 0.56261 1.01447 0.71762
 C2500 C 0.57439 0.99993 0.72548
 C2501 C 0.57256 0.98062 0.71950
 C2502 C 0.56006 0.97619 0.70499
 C2503 C 0.53797 0.98718 0.67939
 N2504 N 0.54047 0.97034 0.67017
 N2505 N 0.53239 0.96793 0.65377
 C2506 C 0.52144 0.98222 0.64589
 N2507 N 0.51856 0.99885 0.65531
 N2508 N 0.52667 1.00128 0.67168
 C2509 C 0.51449 0.98056 0.62673
 C2510 C 0.50267 0.99504 0.61870
 C2511 C 0.49826 0.99480 0.59997
 C2512 C 0.50573 0.98016 0.58890
 C2513 C 0.51677 0.96519 0.59710
 C2514 C 0.52101 0.96533 0.61580
 H2515 H 0.54162 1.02176 0.69717
 H2516 H 0.56359 1.02943 0.72220
 H2517 H 0.58155 0.96920 0.72536
 H2518 H 0.55957 0.96135 0.70008
 H2519 H 0.49733 1.00694 0.62674
 H2520 H 0.48975 1.00655 0.59404
 H2521 H 0.52258 0.95359 0.58896
 H2522 H 0.53008 0.95390 0.62150
 C2523 C 0.05104 0.48754 1.19645
 C2524 C 0.06241 0.47280 1.20471
 C2525 C 0.07497 0.47718 1.21918
 C2526 C 0.07654 0.49640 1.22545
 C2527 C 0.06446 0.51086 1.21790
 C2528 C 0.05177 0.50646 1.20364
 C2529 C 0.03988 0.48383 1.17946
 N2530 N 0.02830 0.49788 1.17205
 N2531 N 0.01999 0.49554 1.15575
 C2532 C 0.02294 0.47907 1.14611
 N2533 N 0.03418 0.46484 1.15369
 N2534 N 0.04246 0.46716 1.17002
 C2535 C 0.01567 0.47751 1.12705
 C2536 C 0.02206 0.46239 1.11592
 C2537 C 0.01739 0.46228 1.09731
 C2538 C 0.00603 0.47717 1.08939
 C2539 C -0.00127 0.49172 1.10067
 C2540 C 0.00358 0.49194 1.11930
 H2541 H 0.06211 0.45804 1.19957
 H2542 H 0.08420 0.46582 1.22478
 H2543 H 0.06526 0.52575 1.22270
 H2544 H 0.04319 0.51816 1.19772
 H2545 H 0.03134 0.45101 1.12139
 H2546 H 0.02309 0.45076 1.08901
 H2547 H -0.01000 0.50342 1.09495
 H2548 H -0.00167 0.50376 1.12750
 C2549 C -0.06761 -0.02078 1.18241
 C2550 C -0.05730 -0.02123 1.19907
 C2551 C -0.06594 -0.01498 1.21523
 C2552 C -0.08483 -0.00775 1.21490
 C2553 C -0.09511 -0.00741 1.19830
 C2554 C -0.08667 -0.01395 1.18230
 C2555 C -0.05868 -0.02681 1.16502
 N2556 N -0.07001 -0.03086 1.15033
 N2557 N -0.06226 -0.03483 1.13423
 C2558 C -0.04281 -0.03491 1.13202
 N2559 N -0.03142 -0.03118 1.14680
 N2560 N -0.03919 -0.02729 1.16299
 C2561 C -0.03458 -0.03698 1.11341
 C2562 C -0.01482 -0.03355 1.10996
 C2563 C -0.00801 -0.03193 1.09191
 C2564 C -0.02089 -0.03358 1.07708
 C2565 C -0.04024 -0.03859 1.08057
 C2566 C -0.04698 -0.04039 1.09848
 H2567 H -0.04262 -0.02646 1.19960
 H2568 H -0.05776 -0.01543 1.22791
 H2569 H -0.10983 -0.00225 1.19773
 H2570 H -0.09504 -0.01335 1.16974
 H2571 H -0.00484 -0.03099 1.12113
 H2572 H 0.00696 -0.02794 1.08957
 H2573 H -0.05044 -0.04009 1.06937
 H2574 H -0.06220 -0.04338 1.10055
 C2575 C 0.43689 0.47645 0.68334
 C2576 C 0.41692 0.47990 0.68332
 C2577 C 0.40788 0.48682 0.69887
 C2578 C 0.41850 0.49016 0.71489
 C2579 C 0.43828 0.48600 0.71533
 C2580 C 0.44748 0.47943 0.69958
 C2581 C 0.44646 0.47084 0.66613
 N2582 N 0.46583 0.47313 0.66386
 N2583 N 0.47395 0.47003 0.64767
 C2584 C 0.46305 0.46441 0.63310
 N2585 N 0.44380 0.46164 0.63557
 N2586 N 0.43569 0.46479 0.65169
 C2587 C 0.47135 0.46355 0.61442
 C2588 C 0.45911 0.46025 0.59934
 C2589 C 0.46580 0.46312 0.58151
 C2590 C 0.48497 0.46900 0.57824
 C2591 C 0.49774 0.47061 0.59316
 C2592 C 0.49094 0.46804 0.61113
 H2593 H 0.40829 0.47781 0.67110
 H2594 H 0.39254 0.48969 0.69837
 H2595 H 0.44666 0.48843 0.72765
 H2596 H 0.46287 0.47688 0.70004
 H2597 H 0.44402 0.45653 0.60127
 H2598 H 0.45571 0.46163 0.57023
 H2599 H 0.51258 0.47520 0.59099
 H2600 H 0.50079 0.47055 0.62242
 C2601 C 0.45260 0.49921 -0.19109
 C2602 C 0.44227 0.48252 -0.19690
 C2603 C 0.43004 0.48357 -0.21225
 C2604 C 0.42782 0.50134 -0.22200
 C2605 C 0.43896 0.51768 -0.21682
 C2606 C 0.45119 0.51663 -0.20157
 C2607 C 0.46360 0.49890 -0.17353
 N2608 N 0.47219 0.51546 -0.16716
 N2609 N 0.48058 0.51561 -0.15068
 C2610 C 0.48074 0.49919 -0.13984
 N2611 N 0.47245 0.48257 -0.14636
 N2612 N 0.46407 0.48242 -0.16281
 C2613 C 0.48837 0.49961 -0.12076
 C2614 C 0.48560 0.48323 -0.10907
 C2615 C 0.49072 0.48395 -0.09063
 C2616 C 0.49898 0.50099 -0.08328
 C2617 C 0.50271 0.51713 -0.09504
 C2618 C 0.49732 0.51650 -0.11362
 H2619 H 0.44307 0.46881 -0.18922
 H2620 H 0.42160 0.47077 -0.21589
 H2621 H 0.43786 0.53148 -0.22432
 H2622 H 0.45906 0.52970 -0.19768
 H2623 H 0.47887 0.46994 -0.11400
 H2624 H 0.48787 0.47116 -0.08198
 H2625 H 0.50903 0.53045 -0.08972
 H2626 H 0.49973 0.52938 -0.12226
 C2627 C -0.04847 0.99733 0.30954
 C2628 C -0.05834 0.98064 0.30310
 C2629 C -0.07061 0.98201 0.28780
 C2630 C -0.07334 1.00009 0.27874
 C2631 C -0.06261 1.01648 0.28449
 C2632 C -0.05031 1.01511 0.29967
 C2633 C -0.03759 0.99661 0.32716
 N2634 N -0.02877 1.01293 0.33377
 N2635 N -0.02052 1.01273 0.35033
 C2636 C -0.02078 0.99619 0.36101
 N2637 N -0.02931 0.97981 0.35425
 N2638 N -0.03752 0.98000 0.33772
 C2639 C -0.01328 0.99623 0.38014
 C2640 C -0.01704 0.98006 0.39185
 C2641 C -0.01179 0.98047 0.41028
 C2642 C -0.00241 0.99694 0.41757
 C2643 C 0.00219 1.01285 0.40581
 C2644 C -0.00334 1.01256 0.38726
 H2645 H -0.05719 0.96666 0.31028
 H2646 H -0.07876 0.96918 0.28371
 H2647 H -0.06418 1.03055 0.27755
 H2648 H -0.04281 1.02822 0.30407
 H2649 H -0.02458 0.96721 0.38694
 H2650 H -0.01532 0.96785 0.41893
 H2651 H 0.00941 1.02573 0.41107
 H2652 H -0.00016 1.02525 0.37859
 C2653 C 0.06069 0.49993 0.31949
 C2654 C 0.06344 0.51797 0.31016
 C2655 C 0.07464 0.51927 0.29438
 C2656 C 0.08347 0.50260 0.28743
 C2657 C 0.08004 0.48436 0.29618
 C2658 C 0.06880 0.48304 0.31212
 C2659 C 0.05040 0.49931 0.33730
 N2660 N 0.04652 0.48212 0.34641
 N2661 N 0.03847 0.48202 0.36300
 C2662 C 0.03409 0.49911 0.37116
 N2663 N 0.03773 0.51620 0.36192
 N2664 N 0.04565 0.51630 0.34538
 C2665 C 0.02700 0.49949 0.39027
 C2666 C 0.03012 0.51641 0.40053
 C2667 C 0.02486 0.51683 0.41888
 C2668 C 0.01595 0.50052 0.42742
 C2669 C 0.01208 0.48376 0.41711
 C2670 C 0.01781 0.48316 0.39870
 H2671 H 0.05722 0.53126 0.31521
 H2672 H 0.07647 0.53346 0.28766
 H2673 H 0.08655 0.47125 0.29112
 H2674 H 0.06694 0.46890 0.31893
 H2675 H 0.03722 0.52922 0.39454
 H2676 H 0.02792 0.52996 0.42651
 H2677 H 0.00530 0.47097 0.42347
 H2678 H 0.01517 0.46994 0.39110
 C2679 C 0.55671 0.00447 -0.18114
 C2680 C 0.56006 0.02247 -0.19036
 C2681 C 0.57166 0.02357 -0.20588
 C2682 C 0.58032 0.00672 -0.21266
 C2683 C 0.57633 -0.01145 -0.20401
 C2684 C 0.56468 -0.01258 -0.18835
 C2685 C 0.54591 0.00399 -0.16361
 N2686 N 0.54168 -0.01316 -0.15458
 N2687 N 0.53319 -0.01318 -0.13820
 C2688 C 0.52867 0.00396 -0.13019
 N2689 N 0.53266 0.02101 -0.13937
 N2690 N 0.54103 0.02102 -0.15570
 C2691 C 0.52112 0.00439 -0.11125
 C2692 C 0.52370 0.02143 -0.10103
 C2693 C 0.51830 0.02176 -0.08271
 C2694 C 0.50979 0.00523 -0.07420
 C2695 C 0.50632 -0.01161 -0.08449
 C2696 C 0.51218 -0.01211 -0.10286
 H2697 H 0.55397 0.03588 -0.18541
 H2698 H 0.57391 0.03774 -0.21253
 H2699 H 0.58268 -0.02470 -0.20895
 H2700 H 0.56235 -0.02669 -0.18163
 H2701 H 0.53057 0.03438 -0.10699
 H2702 H 0.52105 0.03494 -0.07505
 H2703 H 0.49986 -0.02456 -0.07813
 H2704 H 0.50995 -0.02542 -0.11042
 C2705 C 0.69232 0.60138 -0.01155
 C2706 C 0.70009 0.60925 0.00464
 C2707 C 0.71762 0.61979 0.00435
 C2708 C 0.72764 0.62278 -0.01214
 C2709 C 0.72032 0.61416 -0.02810
 C2710 C 0.70291 0.60363 -0.02782
 C2711 C 0.67305 0.59148 -0.01169
 N2712 N 0.66521 0.58484 -0.02755
 N2713 N 0.64772 0.57645 -0.02779
 C2714 C 0.63727 0.57436 -0.01218
 N2715 N 0.64513 0.58097 0.00367
 N2716 N 0.66259 0.58937 0.00391
 C2717 C 0.61777 0.56492 -0.01225
 C2718 C 0.60764 0.56231 0.00424
 C2719 C 0.58965 0.55293 0.00458
 C2720 C 0.58111 0.54585 -0.01155
 C2721 C 0.59095 0.54883 -0.02818
 C2722 C 0.60913 0.55822 -0.02852
 H2723 H 0.69240 0.60770 0.01746
 H2724 H 0.72287 0.62632 0.01683
 H2725 H 0.72792 0.61584 -0.04096
 H2726 H 0.69757 0.59760 -0.04049
 H2727 H 0.61370 0.56732 0.01703
 H2728 H 0.58250 0.55108 0.01767
 H2729 H 0.58483 0.54353 -0.04084
 H2730 H 0.61649 0.56004 -0.04150
 C2731 C 0.18938 1.10276 0.48890
 C2732 C 0.20649 1.09529 0.49675
 C2733 C 0.22367 1.10648 0.49647
 C2734 C 0.22404 1.12533 0.48837
 C2735 C 0.20669 1.13307 0.48139
 C2736 C 0.18967 1.12193 0.48155
 C2737 C 0.17134 1.09073 0.48799
 N2738 N 0.15641 1.09646 0.47703
 N2739 N 0.14016 1.08585 0.47617
 C2740 C 0.13808 1.06904 0.48628
 N2741 N 0.15304 1.06326 0.49719
 N2742 N 0.16934 1.07382 0.49798
 C2743 C 0.11965 1.05759 0.48597
 C2744 C 0.11595 1.04321 0.49957
 C2745 C 0.09830 1.03314 0.50010
 C2746 C 0.08385 1.03697 0.48693
 C2747 C 0.08769 1.05088 0.47292
 C2748 C 0.10536 1.06121 0.47253
 H2749 H 0.20675 1.08060 0.50263
 H2750 H 0.23678 1.10008 0.50192
 H2751 H 0.20629 1.14777 0.47553
 H2752 H 0.17674 1.12835 0.47574
 H2753 H 0.12655 1.03999 0.51013
 H2754 H 0.09592 1.02238 0.51100
 H2755 H 0.07685 1.05416 0.46259
 H2756 H 0.10777 1.07214 0.46179
 C2757 C 0.18419 -0.09222 1.00424
 C2758 C 0.19262 -0.10332 1.01858
 C2759 C 0.20891 -0.11477 1.01541
 C2760 C 0.21685 -0.11559 0.99779
 C2761 C 0.20877 -0.10410 0.98362
 C2762 C 0.19275 -0.09246 0.98682
 C2763 C 0.16621 -0.08098 1.00700
 N2764 N 0.16025 -0.06779 0.99405
 N2765 N 0.14369 -0.05836 0.99587
 C2766 C 0.13224 -0.06171 1.01067
 N2767 N 0.13823 -0.07482 1.02373
 N2768 N 0.15489 -0.08423 1.02195
 C2769 C 0.11334 -0.05168 1.01197
 C2770 C 0.09968 -0.05707 1.02544
 C2771 C 0.08142 -0.04833 1.02558
 C2772 C 0.07645 -0.03402 1.01226
 C2773 C 0.09038 -0.02829 0.99920
 C2774 C 0.10850 -0.03698 0.99905
 H2775 H 0.18647 -0.10338 1.03218
 H2776 H 0.21480 -0.12362 1.02655
 H2777 H 0.21470 -0.10437 0.96993
 H2778 H 0.18672 -0.08410 0.97544
 H2779 H 0.10293 -0.06834 1.03562
 H2780 H 0.07105 -0.05313 1.03583
 H2781 H 0.08722 -0.01724 0.98879
 H2782 H 0.11863 -0.03229 0.98856
 C2783 C 0.68915 0.41109 0.50645
 C2784 C 0.69715 0.39951 0.52069
 C2785 C 0.71291 0.38739 0.51739
 C2786 C 0.72071 0.38638 0.49974
 C2787 C 0.71311 0.39836 0.48567
 C2788 C 0.69763 0.41067 0.48901
 C2789 C 0.67158 0.42289 0.50931
 N2790 N 0.66609 0.43649 0.49654
 N2791 N 0.64976 0.44631 0.49837
 C2792 C 0.63809 0.44294 0.51301
 N2793 N 0.64363 0.42945 0.52591
 N2794 N 0.66006 0.41966 0.52412
 C2795 C 0.61931 0.45317 0.51424
 C2796 C 0.60552 0.44773 0.52755
 C2797 C 0.58727 0.45644 0.52753
 C2798 C 0.58245 0.47081 0.51421
 C2799 C 0.59653 0.47667 0.50135
 C2800 C 0.61466 0.46799 0.50136
 H2801 H 0.69103 0.39958 0.53430
 H2802 H 0.71844 0.37818 0.52844
 H2803 H 0.71897 0.39794 0.47197
 H2804 H 0.69191 0.41938 0.47771
 H2805 H 0.60861 0.43637 0.53768
 H2806 H 0.57678 0.45154 0.53761
 H2807 H 0.59345 0.48777 0.49096
 H2808 H 0.62492 0.47270 0.49100
 C2809 C -0.17805 0.40339 0.49926
 C2810 C -0.19581 0.41042 0.50555
 C2811 C -0.21248 0.39850 0.50516
 C2812 C -0.21162 0.37937 0.49853
 C2813 C -0.19364 0.37209 0.49325
 C2814 C -0.17714 0.38395 0.49350
 C2815 C -0.16058 0.41617 0.49810
 N2816 N -0.14535 0.41091 0.48773
 N2817 N -0.12956 0.42217 0.48657
 C2818 C -0.12826 0.43919 0.49577
 N2819 N -0.14352 0.44452 0.50612
 N2820 N -0.15939 0.43330 0.50719
 C2821 C -0.11023 0.45117 0.49513
 C2822 C -0.10663 0.46546 0.50831
 C2823 C -0.08894 0.47550 0.50876
 C2824 C -0.07450 0.47171 0.49588
 C2825 C -0.07838 0.45807 0.48219
 C2826 C -0.09601 0.44780 0.48189
 H2827 H -0.19697 0.42532 0.51017
 H2828 H -0.22613 0.40453 0.50926
 H2829 H -0.19236 0.35723 0.48854
 H2830 H -0.16366 0.37789 0.48894
 H2831 H -0.11724 0.46845 0.51868
 H2832 H -0.08642 0.48601 0.51943
 H2833 H -0.06752 0.45476 0.47214
 H2834 H -0.09837 0.43698 0.47147
 C2835 C 0.31800 -0.09527 -0.00176
 C2836 C 0.29999 -0.08867 0.00430
 C2837 C 0.28361 -0.10103 0.00380
 C2838 C 0.28504 -0.12018 -0.00270
 C2839 C 0.30328 -0.12702 -0.00771
 C2840 C 0.31947 -0.11473 -0.00737
 C2841 C 0.33518 -0.08207 -0.00290
 N2842 N 0.35039 -0.08681 -0.01354
 N2843 N 0.36597 -0.07525 -0.01466
 C2844 C 0.36709 -0.05842 -0.00514
 N2845 N 0.35185 -0.05360 0.00548
 N2846 N 0.33618 -0.06513 0.00651
 C2847 C 0.38493 -0.04613 -0.00576
 C2848 C 0.38866 -0.03229 0.00780
 C2849 C 0.40626 -0.02205 0.00822
 C2850 C 0.42047 -0.02518 -0.00507
 C2851 C 0.41641 -0.03834 -0.01913
 C2852 C 0.39889 -0.04881 -0.01940
 H2853 H 0.29840 -0.07377 0.00879
 H2854 H 0.26975 -0.09534 0.00771
 H2855 H 0.30501 -0.14187 -0.01228
 H2856 H 0.33316 -0.12046 -0.01175
 H2857 H 0.37826 -0.02984 0.01849
 H2858 H 0.40891 -0.01193 0.01919
 H2859 H 0.42707 -0.04115 -0.02951
 H2860 H 0.39642 -0.05927 -0.03012
 C2861 C 0.32229 1.09044 0.50254
 C2862 C 0.31432 1.10248 0.51590
 C2863 C 0.29894 1.11499 0.51146
 C2864 C 0.29146 1.11587 0.49354
 C2865 C 0.29896 1.10339 0.48042
 C2866 C 0.31406 1.09077 0.48487
 C2867 C 0.33958 1.07821 0.50640
 N2868 N 0.34564 1.06545 0.49373
 N2869 N 0.36173 1.05532 0.49631
 C2870 C 0.37264 1.05744 0.51166
 N2871 N 0.36649 1.07004 0.52453
 N2872 N 0.35029 1.08021 0.52195
 C2873 C 0.39126 1.04682 0.51354
 C2874 C 0.40294 1.04783 0.52938
 C2875 C 0.42091 1.03837 0.53021
 C2876 C 0.42758 1.02796 0.51511
 C2877 C 0.41563 1.02667 0.49956
 C2878 C 0.39781 1.03585 0.49881
 H2879 H 0.32023 1.10253 0.52965
 H2880 H 0.29349 1.12460 0.52179
 H2881 H 0.29336 1.10369 0.46654
 H2882 H 0.31968 1.08171 0.47420
 H2883 H 0.39831 1.05610 0.54102
 H2884 H 0.42976 1.03959 0.54241
 H2885 H 0.42008 1.01857 0.48776
 H2886 H 0.38931 1.03457 0.48640
 C2887 C -0.17544 0.59316 1.00424
 C2888 C -0.18275 0.60543 1.01773
 C2889 C -0.19785 0.61835 1.01359
 C2890 C -0.20579 0.61938 0.99588
 C2891 C -0.19873 0.60694 0.98250
 C2892 C -0.18386 0.59390 0.98665
 C2893 C -0.15875 0.58011 1.00803
 N2894 N -0.15345 0.56688 0.99547
 N2895 N -0.13802 0.55577 0.99820
 C2896 C -0.12707 0.55733 1.01360
 N2897 N -0.13244 0.57045 1.02632
 N2898 N -0.14797 0.58159 1.02360
 C2899 C -0.10922 0.54551 1.01574
 C2900 C -0.09668 0.54736 1.03091
 C2901 C -0.07919 0.53705 1.03175
 C2902 C -0.07390 0.52490 1.01735
 C2903 C -0.08681 0.52259 1.00262
 C2904 C -0.10416 0.53264 1.00186
 H2905 H -0.17662 0.60528 1.03139
 H2906 H -0.20272 0.62809 1.02401
 H2907 H -0.20462 0.60747 0.96873
 H2908 H -0.17866 0.58472 0.97587
 H2909 H -0.10015 0.55709 1.04189
 H2910 H -0.06953 0.53912 1.04327
 H2911 H -0.08335 0.51314 0.99141
 H2912 H -0.11342 0.53060 0.99004
 C2913 C 0.00610 0.68210 0.60631
 C2914 C 0.02154 0.68769 0.61765
 C2915 C 0.01977 0.70359 0.62919
 C2916 C 0.00245 0.71410 0.62975
 C2917 C -0.01300 0.70829 0.61854
 C2918 C -0.01120 0.69252 0.60693
 C2919 C 0.00789 0.66549 0.59388
 N2920 N -0.00569 0.66229 0.58080
 N2921 N -0.00445 0.64706 0.56985
 C2922 C 0.01042 0.63439 0.57154
 N2923 N 0.02410 0.63765 0.58454
 N2924 N 0.02289 0.65294 0.59547
 C2925 C 0.01103 0.61686 0.56011
 C2926 C 0.02400 0.60172 0.56420
 C2927 C 0.02328 0.58438 0.55445
 C2928 C 0.00963 0.58190 0.54035
 C2929 C -0.00278 0.59738 0.53576
 C2930 C -0.00212 0.61465 0.54557
 H2931 H 0.03511 0.68000 0.61739
 H2932 H 0.03218 0.70790 0.63728
 H2933 H -0.02660 0.71581 0.61867
 H2934 H -0.02344 0.68848 0.59849
 H2935 H 0.03435 0.60300 0.57529
 H2936 H 0.03316 0.57278 0.55821
 H2937 H -0.01340 0.59598 0.52493
 H2938 H -0.01220 0.62612 0.54197
 C2939 C 0.50894 0.18555 0.10486
 C2940 C 0.50568 0.20413 0.09689
 C2941 C 0.50425 0.22052 0.10782
 C2942 C 0.50588 0.21865 0.12694
 C2943 C 0.50935 0.20013 0.13492
 C2944 C 0.51092 0.18373 0.12398
 C2945 C 0.50982 0.16812 0.09332
 N2946 N 0.51568 0.15066 0.10047
 N2947 N 0.51589 0.13480 0.09022
 C2948 C 0.51020 0.13574 0.07241
 N2949 N 0.50444 0.15323 0.06522
 N2950 N 0.50430 0.16911 0.07546
 C2951 C 0.50957 0.11791 0.06135
 C2952 C 0.50016 0.11791 0.04426
 C2953 C 0.49850 0.10067 0.03440
 C2954 C 0.50636 0.08315 0.04139
 C2955 C 0.51622 0.08332 0.05825
 C2956 C 0.51776 0.10048 0.06814
 H2957 H 0.50429 0.20604 0.08219
 H2958 H 0.50210 0.23468 0.10122
 H2959 H 0.51051 0.19824 0.14964
 H2960 H 0.51335 0.16960 0.13054
 H2961 H 0.49370 0.13111 0.03865
 H2962 H 0.49090 0.10105 0.02140
 H2963 H 0.52246 0.07008 0.06404
 H2964 H 0.52520 0.10002 0.08121
 C2965 C -0.00683 0.18857 0.93479
 C2966 C -0.02236 0.19510 0.92389
 C2967 C -0.01900 0.20665 0.90819
 C2968 C -0.00008 0.21168 0.90307
 C2969 C 0.01535 0.20606 0.91444
 C2970 C 0.01201 0.19470 0.93021
 C2971 C -0.00992 0.17350 0.94931
 N2972 N 0.00489 0.16779 0.96036
 N2973 N 0.00316 0.15197 0.97122
 C2974 C -0.01343 0.14120 0.97144
 N2975 N -0.02849 0.14735 0.96092
 N2976 N -0.02678 0.16320 0.95010
 C2977 C -0.01393 0.12163 0.98044
 C2978 C -0.02795 0.10778 0.97519
 C2979 C -0.02620 0.08817 0.98056
 C2980 C -0.01059 0.08209 0.99151
 C2981 C 0.00260 0.09615 0.99795
 C2982 C 0.00101 0.11575 0.99235
 H2983 H -0.03704 0.19068 0.92708
 H2984 H -0.03113 0.21086 0.89962
 H2985 H 0.03004 0.21016 0.91093
 H2986 H 0.02429 0.18997 0.93832
 H2987 H -0.03967 0.11181 0.96606
 H2988 H -0.03675 0.07767 0.97566
 H2989 H 0.01469 0.09185 1.00653
 H2990 H 0.01196 0.12613 0.99671
 C2991 C 0.49591 0.69144 0.43477
 C2992 C 0.48038 0.69800 0.42388
 C2993 C 0.48374 0.70965 0.40825
 C2994 C 0.50266 0.71471 0.40317
 C2995 C 0.51809 0.70911 0.41455
 C2996 C 0.51473 0.69768 0.43029
 C2997 C 0.49284 0.67621 0.44915
 N2998 N 0.50751 0.67080 0.46049
 N2999 N 0.50589 0.65491 0.47128
 C3000 C 0.48955 0.64374 0.47110
 N3001 N 0.47462 0.64955 0.46026
 N3002 N 0.47621 0.66549 0.44953
 C3003 C 0.48926 0.62419 0.48014
 C3004 C 0.47579 0.60995 0.47456
 C3005 C 0.47782 0.59043 0.48013
 C3006 C 0.49316 0.58481 0.49165
 C3007 C 0.50578 0.59925 0.49836
 C3008 C 0.50392 0.61876 0.49255
 H3009 H 0.46571 0.69353 0.42704
 H3010 H 0.47163 0.71388 0.39966
 H3011 H 0.53277 0.71325 0.41107
 H3012 H 0.52701 0.69295 0.43840
 H3013 H 0.46429 0.61364 0.46503
 H3014 H 0.46771 0.57964 0.47497
 H3015 H 0.51767 0.59533 0.50735
 H3016 H 0.51444 0.62944 0.49718
 C3017 C 0.50660 0.81334 0.40454
 C3018 C 0.51407 0.81301 0.38671
 C3019 C 0.51492 0.79541 0.37738
 C3020 C 0.50839 0.77786 0.38575
 C3021 C 0.50110 0.77819 0.40361
 C3022 C 0.50015 0.79574 0.41289
 C3023 C 0.50551 0.83184 0.41451
 N3024 N 0.49561 0.83252 0.43045
 N3025 N 0.49467 0.84907 0.43963
 C3026 C 0.50362 0.86563 0.43328
 N3027 N 0.51352 0.86499 0.41731
 N3028 N 0.51441 0.84842 0.40808
 C3029 C 0.50269 0.88383 0.44374
 C3030 C 0.51429 0.90017 0.43904
 C3031 C 0.51366 0.91711 0.44939
 C3032 C 0.50134 0.91803 0.46457
 C3033 C 0.48959 0.90174 0.46908
 C3034 C 0.49029 0.88484 0.45882
 H3035 H 0.51909 0.82635 0.37990
 H3036 H 0.52043 0.79559 0.36353
 H3037 H 0.49642 0.76483 0.41061
 H3038 H 0.49451 0.79545 0.42669
 H3039 H 0.52401 0.89982 0.42750
 H3040 H 0.52285 0.92945 0.44553
 H3041 H 0.47992 0.90193 0.48067
 H3042 H 0.48110 0.87254 0.46277
 C3043 C 0.00347 0.31034 0.90481
 C3044 C 0.01079 0.31011 0.88692
 C3045 C 0.01163 0.29256 0.87751
 C3046 C 0.00524 0.27495 0.88587
 C3047 C -0.00195 0.27517 0.90377
 C3048 C -0.00289 0.29269 0.91312
 C3049 C 0.00247 0.32879 0.91487
 N3050 N -0.00708 0.32935 0.93101
 N3051 N -0.00791 0.34585 0.94027
 C3052 C 0.00081 0.36249 0.93381
 N3053 N 0.01037 0.36197 0.91765
 N3054 N 0.01116 0.34544 0.90834
 C3055 C 0.00003 0.38065 0.94436
 C3056 C 0.01128 0.39714 0.93932
 C3057 C 0.01081 0.41406 0.94971
 C3058 C -0.00101 0.41482 0.96526
 C3059 C -0.01240 0.39837 0.97012
 C3060 C -0.01185 0.38148 0.95982
 H3061 H 0.01573 0.32349 0.88012
 H3062 H 0.01706 0.29281 0.86364
 H3063 H -0.00653 0.26178 0.91075
 H3064 H -0.00843 0.29232 0.92696
 H3065 H 0.02059 0.39693 0.92748
 H3066 H 0.01971 0.42652 0.94557
 H3067 H -0.02166 0.39843 0.98202
 H3068 H -0.02076 0.36906 0.96404
 C3069 C 0.50748 0.31351 0.08811
 C3070 C 0.48978 0.30484 0.09326
 C3071 C 0.48911 0.29029 0.10696
 C3072 C 0.50610 0.28430 0.11581
 C3073 C 0.52390 0.29219 0.11004
 C3074 C 0.52460 0.30661 0.09623
 C3075 C 0.50791 0.33087 0.07573
 N3076 N 0.52490 0.33821 0.06921
 N3077 N 0.52546 0.35504 0.05966
 C3078 C 0.50907 0.36526 0.05637
 N3079 N 0.49205 0.35774 0.06260
 N3080 N 0.49149 0.34088 0.07207
 C3081 C 0.50985 0.38475 0.04727
 C3082 C 0.49419 0.39750 0.04863
 C3083 C 0.49521 0.41633 0.04091
 C3084 C 0.51181 0.42271 0.03148
 C3085 C 0.52738 0.40988 0.02988
 C3086 C 0.52646 0.39110 0.03781
 H3087 H 0.47635 0.30976 0.08717
 H3088 H 0.47520 0.28448 0.11125
 H3089 H 0.53723 0.28752 0.11650
 H3090 H 0.53848 0.31294 0.09252
 H3091 H 0.48123 0.39307 0.05591
 H3092 H 0.48290 0.42582 0.04219
 H3093 H 0.54034 0.41442 0.02265
 H3094 H 0.53874 0.38158 0.03654
 C3095 C 0.00697 0.80904 0.59032
 C3096 C 0.02398 0.80192 0.59849
 C3097 C 0.02307 0.78749 0.61230
 C3098 C 0.00516 0.77982 0.61802
 C3099 C -0.01175 0.78617 0.60921
 C3100 C -0.01086 0.80067 0.59551
 C3101 C 0.00759 0.82624 0.57774
 N3102 N -0.00879 0.83618 0.57374
 N3103 N -0.00813 0.85282 0.56394
 C3104 C 0.00894 0.86017 0.55769
 N3105 N 0.02530 0.85003 0.56135
 N3106 N 0.02465 0.83342 0.57123
 C3107 C 0.00977 0.87944 0.54819
 C3108 C 0.02627 0.88543 0.53838
 C3109 C 0.02724 0.90404 0.53009
 C3110 C 0.01184 0.91707 0.53173
 C3111 C -0.00467 0.91103 0.54149
 C3112 C -0.00574 0.89237 0.54953
 H3113 H 0.03794 0.80805 0.59477
 H3114 H 0.03632 0.78261 0.61876
 H3115 H -0.02576 0.78064 0.61350
 H3116 H -0.02422 0.80577 0.58942
 H3117 H 0.03843 0.87575 0.53711
 H3118 H 0.04013 0.90833 0.52262
 H3119 H -0.01685 0.92070 0.54280
 H3120 H -0.01861 0.88822 0.55708
 C3121 C 0.24392 0.29945 0.04695
 C3122 C 0.22918 0.31091 0.03905
 C3123 C 0.23303 0.32350 0.02411
 C3124 C 0.25171 0.32497 0.01685
 C3125 C 0.26617 0.31275 0.02407
 C3126 C 0.26231 0.30008 0.03891
 C3127 C 0.24063 0.28828 0.06435
 N3128 N 0.25483 0.27720 0.07201
 N3129 N 0.25259 0.26880 0.08852
 C3130 C 0.23607 0.27117 0.09810
 N3131 N 0.22173 0.28194 0.09028
 N3132 N 0.22396 0.29029 0.07377
 C3133 C 0.23435 0.26369 0.11726
 C3134 C 0.21899 0.26968 0.12823
 C3135 C 0.21849 0.26472 0.14686
 C3136 C 0.23321 0.25344 0.15497
 C3137 C 0.24805 0.24657 0.14385
 C3138 C 0.24867 0.25173 0.12520
 H3139 H 0.21482 0.31071 0.04482
 H3140 H 0.22164 0.33284 0.01891
 H3141 H 0.28064 0.31338 0.01854
 H3142 H 0.27398 0.29139 0.04453
 H3143 H 0.20768 0.27885 0.12261
 H3144 H 0.20677 0.27010 0.15503
 H3145 H 0.25962 0.23791 0.14973
 H3146 H 0.26066 0.24680 0.11713
 C3147 C 0.74261 0.79900 0.55032
 C3148 C 0.72808 0.81060 0.54224
 C3149 C 0.73202 0.82241 0.52677
 C3150 C 0.75058 0.82296 0.51918
 C3151 C 0.76477 0.81053 0.52658
 C3152 C 0.76081 0.79863 0.54194
 C3153 C 0.73938 0.78876 0.56821
 N3154 N 0.75335 0.77743 0.57596
 N3155 N 0.75126 0.76984 0.59281
 C3156 C 0.73514 0.77330 0.60267
 N3157 N 0.72103 0.78433 0.59479
 N3158 N 0.72310 0.79188 0.57794
 C3159 C 0.73364 0.76659 0.62209
 C3160 C 0.71872 0.77341 0.63315
 C3161 C 0.71839 0.76895 0.65189
 C3162 C 0.73286 0.75739 0.66004
 C3163 C 0.74730 0.74978 0.64888
 C3164 C 0.74773 0.75441 0.63011
 H3165 H 0.71387 0.81116 0.54827
 H3166 H 0.72085 0.83195 0.52144
 H3167 H 0.77914 0.81048 0.52083
 H3168 H 0.77231 0.78978 0.54769
 H3169 H 0.70759 0.78278 0.62746
 H3170 H 0.70697 0.77492 0.66007
 H3171 H 0.75868 0.74086 0.65476
 H3172 H 0.75939 0.74883 0.62198
 C3173 C 0.23145 0.68444 0.57355
 C3174 C 0.23954 0.66565 0.57374
 C3175 C 0.24687 0.65782 0.55776
 C3176 C 0.24606 0.66844 0.54112
 C3177 C 0.23761 0.68704 0.54073
 C3178 C 0.23057 0.69509 0.55686
 C3179 C 0.22452 0.69278 0.59089
 N3180 N 0.22259 0.71243 0.59280
 N3181 N 0.21788 0.71981 0.60894
 C3182 C 0.21475 0.70782 0.62378
 N3183 N 0.21628 0.68819 0.62168
 N3184 N 0.22107 0.68084 0.60564
 C3185 C 0.21186 0.71578 0.64234
 C3186 C 0.20906 0.70283 0.65736
 C3187 C 0.21030 0.70952 0.67523
 C3188 C 0.21415 0.72936 0.67859
 C3189 C 0.21506 0.74269 0.66368
 C3190 C 0.21399 0.73594 0.64567
 H3191 H 0.24051 0.65704 0.58633
 H3192 H 0.25296 0.64328 0.55838
 H3193 H 0.23678 0.69547 0.52802
 H3194 H 0.22438 0.70958 0.55626
 H3195 H 0.20704 0.68727 0.65537
 H3196 H 0.20937 0.69894 0.68648
 H3197 H 0.21813 0.75806 0.66589
 H3198 H 0.21603 0.74635 0.63443
 C3199 C 0.72933 0.18280 0.07419
 C3200 C 0.73735 0.16398 0.07400
 C3201 C 0.74396 0.15619 0.05772
 C3202 C 0.74250 0.16688 0.04116
 C3203 C 0.73409 0.18550 0.04115
 C3204 C 0.72775 0.19349 0.05757
 C3205 C 0.72328 0.19115 0.09182
 N3206 N 0.72113 0.21077 0.09373
 N3207 N 0.71720 0.21818 0.11004
 C3208 C 0.71510 0.20625 0.12508
 N3209 N 0.71686 0.18664 0.12302
 N3210 N 0.72086 0.17926 0.10679
 C3211 C 0.71298 0.21430 0.14371
 C3212 C 0.71117 0.20142 0.15890
 C3213 C 0.71287 0.20831 0.17667
 C3214 C 0.71622 0.22830 0.17976
 C3215 C 0.71630 0.24149 0.16471
 C3216 C 0.71476 0.23453 0.14681
 H3217 H 0.73885 0.15534 0.08652
 H3218 H 0.75005 0.14165 0.05807
 H3219 H 0.73279 0.19400 0.02853
 H3220 H 0.72160 0.20800 0.05726
 H3221 H 0.70948 0.18579 0.15711
 H3222 H 0.71258 0.19783 0.18802
 H3223 H 0.71897 0.25696 0.16670
 H3224 H 0.71606 0.24488 0.13542
 C3225 C 0.74520 0.20451 0.94487
 C3226 C 0.76167 0.20593 0.95608
 C3227 C 0.76333 0.19426 0.97195
 C3228 C 0.74848 0.18108 0.97710
 C3229 C 0.73136 0.18078 0.96680
 C3230 C 0.72976 0.19232 0.95076
 C3231 C 0.74500 0.21399 0.92634
 N3232 N 0.73142 0.20878 0.91385
 N3233 N 0.73235 0.21552 0.89664
 C3234 C 0.74687 0.22778 0.89109
 N3235 N 0.76025 0.23338 0.90365
 N3236 N 0.75937 0.22656 0.92090
 C3237 C 0.74851 0.23379 0.87148
 C3238 C 0.75996 0.24992 0.86561
 C3239 C 0.76104 0.25524 0.84691
 C3240 C 0.75095 0.24431 0.83375
 C3241 C 0.73987 0.22799 0.83977
 C3242 C 0.73859 0.22291 0.85827
 H3243 H 0.77378 0.21521 0.95208
 H3244 H 0.77665 0.19480 0.97977
 H3245 H 0.71978 0.17066 0.97044
 H3246 H 0.71678 0.19100 0.94254
 H3247 H 0.76783 0.25857 0.87549
 H3248 H 0.76964 0.26791 0.84278
 H3249 H 0.73179 0.21917 0.83018
 H3250 H 0.72984 0.21028 0.86221
 C3251 C 0.24925 0.70302 0.44380
 C3252 C 0.23370 0.69144 0.45044
 C3253 C 0.23553 0.68029 0.46670
 C3254 C 0.25300 0.68037 0.47648
 C3255 C 0.26805 0.69289 0.47052
 C3256 C 0.26617 0.70416 0.45443
 C3257 C 0.24854 0.71231 0.42521
 N3258 N 0.26319 0.72412 0.41903
 N3259 N 0.26344 0.73089 0.40176
 C3260 C 0.24909 0.72602 0.38988
 N3261 N 0.23433 0.71448 0.39616
 N3262 N 0.23404 0.70778 0.41342
 C3263 C 0.24991 0.73210 0.37023
 C3264 C 0.23800 0.72256 0.35755
 C3265 C 0.23880 0.72754 0.33898
 C3266 C 0.25139 0.74240 0.33243
 C3267 C 0.26329 0.75214 0.34507
 C3268 C 0.26267 0.74691 0.36380
 H3269 H 0.22038 0.69034 0.44269
 H3270 H 0.22377 0.67068 0.47096
 H3271 H 0.28162 0.69332 0.47794
 H3272 H 0.27838 0.71300 0.44986
 H3273 H 0.22809 0.71101 0.36192
 H3274 H 0.22926 0.71978 0.32976
 H3275 H 0.27310 0.76368 0.34049
 H3276 H 0.27206 0.75454 0.37324
 C3277 C 0.73845 0.81696 0.42195
 C3278 C 0.73619 0.80689 0.43884
 C3279 C 0.74072 0.81617 0.45532
 C3280 C 0.74800 0.83547 0.45511
 C3281 C 0.75001 0.84555 0.43828
 C3282 C 0.74516 0.83648 0.42193
 C3283 C 0.73448 0.80734 0.40427
 N3284 N 0.73215 0.81841 0.38878
 N3285 N 0.73000 0.81010 0.37259
 C3286 C 0.73012 0.79032 0.37107
 N3287 N 0.73217 0.77915 0.38660
 N3288 N 0.73424 0.78749 0.40289
 C3289 C 0.72960 0.78153 0.35261
 C3290 C 0.73264 0.76138 0.35013
 C3291 C 0.73475 0.75398 0.33244
 C3292 C 0.73402 0.76664 0.31703
 C3293 C 0.72983 0.78647 0.31952
 C3294 C 0.72755 0.79378 0.33702
 H3295 H 0.73099 0.79187 0.43930
 H3296 H 0.73908 0.80811 0.46817
 H3297 H 0.75536 0.86053 0.43777
 H3298 H 0.74712 0.84469 0.40921
 H3299 H 0.73418 0.75151 0.36183
 H3300 H 0.73801 0.73863 0.33089
 H3301 H 0.72893 0.79655 0.30789
 H3302 H 0.72493 0.80930 0.33830
 C3303 C 0.23985 0.31959 0.92003
 C3304 C 0.23749 0.30953 0.93691
 C3305 C 0.24190 0.31882 0.95340
 C3306 C 0.24914 0.33813 0.95320
 C3307 C 0.25126 0.34820 0.93638
 C3308 C 0.24655 0.33912 0.92002
 C3309 C 0.23597 0.30997 0.90236
 N3310 N 0.23365 0.32105 0.88688
 N3311 N 0.23155 0.31274 0.87069
 C3312 C 0.23172 0.29296 0.86916
 N3313 N 0.23377 0.28178 0.88468
 N3314 N 0.23580 0.29012 0.90097
 C3315 C 0.23115 0.28419 0.85071
 C3316 C 0.23384 0.26400 0.84821
 C3317 C 0.23567 0.25655 0.83051
 C3318 C 0.23505 0.26925 0.81511
 C3319 C 0.23129 0.28916 0.81764
 C3320 C 0.22929 0.29651 0.83515
 H3321 H 0.23228 0.29451 0.93735
 H3322 H 0.24016 0.31078 0.96624
 H3323 H 0.25657 0.36320 0.93590
 H3324 H 0.24858 0.34731 0.90731
 H3325 H 0.23523 0.25408 0.85990
 H3326 H 0.23854 0.24113 0.82892
 H3327 H 0.23043 0.29926 0.80602
 H3328 H 0.22695 0.31207 0.83643
 C3329 C 0.85439 0.44203 0.76095
 C3330 C 0.84815 0.45998 0.75322
 C3331 C 0.86057 0.47640 0.75251
 C3332 C 0.87944 0.47515 0.75952
 C3333 C 0.88590 0.45697 0.76639
 C3334 C 0.87355 0.44068 0.76716
 C3335 C 0.84106 0.42486 0.76298
 N3336 N 0.84634 0.40885 0.77313
 N3337 N 0.83452 0.39341 0.77505
 C3338 C 0.81686 0.39327 0.76692
 N3339 N 0.81153 0.40931 0.75682
 N3340 N 0.82334 0.42480 0.75494
 C3341 C 0.80404 0.37565 0.76832
 C3342 C 0.78770 0.37405 0.75696
 C3343 C 0.77662 0.35683 0.75694
 C3344 C 0.78141 0.34078 0.76843
 C3345 C 0.79715 0.34266 0.78049
 C3346 C 0.80843 0.35988 0.78035
 H3347 H 0.83350 0.46152 0.74821
 H3348 H 0.85516 0.49022 0.74722
 H3349 H 0.90051 0.45539 0.77152
 H3350 H 0.87900 0.42706 0.77290
 H3351 H 0.78381 0.38587 0.74758
 H3352 H 0.76449 0.35590 0.74756
 H3353 H 0.80126 0.33053 0.78942
 H3354 H 0.82083 0.36066 0.78939
 C3355 C 0.35600 0.93927 0.26149
 C3356 C 0.37484 0.93830 0.26862
 C3357 C 0.38701 0.95474 0.26810
 C3358 C 0.38066 0.97269 0.26056
 C3359 C 0.36211 0.97354 0.25277
 C3360 C 0.34989 0.95699 0.25322
 C3361 C 0.34283 0.92196 0.26308
 N3362 N 0.32553 0.92162 0.25424
 N3363 N 0.31382 0.90604 0.25572
 C3364 C 0.31880 0.89016 0.26620
 N3365 N 0.33603 0.89055 0.27513
 N3366 N 0.34778 0.90610 0.27360
 C3367 C 0.30608 0.87247 0.26720
 C3368 C 0.30998 0.85685 0.27955
 C3369 C 0.29877 0.83960 0.27940
 C3370 C 0.28357 0.83755 0.26675
 C3371 C 0.27926 0.85345 0.25490
 C3372 C 0.29028 0.87070 0.25519
 H3373 H 0.38017 0.92486 0.27482
 H3374 H 0.40139 0.95344 0.27384
 H3375 H 0.35674 0.98717 0.24698
 H3376 H 0.33549 0.95824 0.24752
 H3377 H 0.32196 0.85778 0.28909
 H3378 H 0.30249 0.82758 0.28863
 H3379 H 0.26755 0.85241 0.24507
 H3380 H 0.28676 0.88241 0.24556
 C3381 C 0.15092 0.93544 0.74711
 C3382 C 0.13972 0.94333 0.73265
 C3383 C 0.12776 0.95942 0.73549
 C3384 C 0.12656 0.96767 0.75289
 C3385 C 0.13812 0.96014 0.76716
 C3386 C 0.15023 0.94432 0.76428
 C3387 C 0.16273 0.91764 0.74474
 N3388 N 0.17576 0.91222 0.75778
 N3389 N 0.18570 0.89577 0.75634
 C3390 C 0.18303 0.88390 0.74184
 N3391 N 0.17009 0.88937 0.72868
 N3392 N 0.16017 0.90591 0.73008
 C3393 C 0.19357 0.86508 0.74097
 C3394 C 0.18899 0.85104 0.72775
 C3395 C 0.19819 0.83282 0.72795
 C3396 C 0.21220 0.82828 0.74136
 C3397 C 0.21711 0.84259 0.75421
 C3398 C 0.20794 0.86068 0.75402
 H3399 H 0.13998 0.93690 0.71924
 H3400 H 0.11888 0.96489 0.72430
 H3401 H 0.13756 0.96634 0.78067
 H3402 H 0.15864 0.93870 0.77573
 H3403 H 0.17799 0.85394 0.71749
 H3404 H 0.19403 0.82216 0.71785
 H3405 H 0.22789 0.83974 0.76470
 H3406 H 0.21199 0.87113 0.76434
 C3407 C 0.65155 0.43517 0.24550
 C3408 C 0.65107 0.44409 0.26267
 C3409 C 0.63871 0.45965 0.26575
 C3410 C 0.62673 0.46692 0.25169
 C3411 C 0.62769 0.45864 0.23429
 C3412 C 0.63987 0.44276 0.23126
 C3413 C 0.66368 0.41764 0.24295
 N3414 N 0.66081 0.40557 0.22859
 N3415 N 0.67101 0.38921 0.22712
 C3416 C 0.68455 0.38428 0.23991
 N3417 N 0.68753 0.39650 0.25410
 N3418 N 0.67732 0.41276 0.25561
 C3419 C 0.69533 0.36561 0.23907
 C3420 C 0.71041 0.36189 0.25157
 C3421 C 0.71972 0.34388 0.25200
 C3422 C 0.71426 0.32898 0.23994
 C3423 C 0.69960 0.33287 0.22699
 C3424 C 0.69024 0.35101 0.22656
 H3425 H 0.65984 0.43868 0.27395
 H3426 H 0.63836 0.46591 0.27924
 H3427 H 0.61849 0.46393 0.22327
 H3428 H 0.63997 0.43629 0.21786
 H3429 H 0.71487 0.37280 0.26132
 H3430 H 0.73102 0.34153 0.26208
 H3431 H 0.69499 0.32173 0.21753
 H3432 H 0.67869 0.35338 0.21675
 C3433 C 0.64862 0.56733 0.25034
 C3434 C 0.62932 0.56970 0.25553
 C3435 C 0.61653 0.55379 0.25593
 C3436 C 0.62268 0.53501 0.25130
 C3437 C 0.64163 0.53273 0.24505
 C3438 C 0.65453 0.54879 0.24457
 C3439 C 0.66243 0.58406 0.25179
 N3440 N 0.68008 0.58377 0.24379
 N3441 N 0.69230 0.59893 0.24532
 C3442 C 0.68746 0.61489 0.25506
 N3443 N 0.66987 0.61506 0.26314
 N3444 N 0.65765 0.60000 0.26154
 C3445 C 0.70061 0.63217 0.25625
 C3446 C 0.69686 0.64717 0.26862
 C3447 C 0.70814 0.66432 0.26860
 C3448 C 0.72331 0.66696 0.25606
 C3449 C 0.72756 0.65162 0.24422
 C3450 C 0.71642 0.63439 0.24439
 H3451 H 0.62414 0.58381 0.25970
 H3452 H 0.60186 0.55610 0.26039
 H3453 H 0.64675 0.51841 0.24146
 H3454 H 0.66928 0.54650 0.24038
 H3455 H 0.68490 0.64588 0.27806
 H3456 H 0.70439 0.67587 0.27782
 H3457 H 0.73919 0.65315 0.23443
 H3458 H 0.71976 0.62313 0.23472
 C3459 C 0.14715 0.06877 0.75088
 C3460 C 0.12784 0.07084 0.75616
 C3461 C 0.11528 0.05473 0.75663
 C3462 C 0.12167 0.03603 0.75199
 C3463 C 0.14067 0.03403 0.74576
 C3464 C 0.15332 0.05028 0.74519
 C3465 C 0.16068 0.08577 0.75203
 N3466 N 0.17827 0.08568 0.74389
 N3467 N 0.19022 0.10108 0.74508
 C3468 C 0.18518 0.11714 0.75459
 N3469 N 0.16766 0.11713 0.76282
 N3470 N 0.15569 0.10180 0.76156
 C3471 C 0.19805 0.13469 0.75536
 C3472 C 0.19424 0.14986 0.76753
 C3473 C 0.20529 0.16717 0.76713
 C3474 C 0.22027 0.16980 0.75439
 C3475 C 0.22456 0.15432 0.74272
 C3476 C 0.21367 0.13693 0.74328
 H3477 H 0.12245 0.08488 0.76028
 H3478 H 0.10058 0.05685 0.76108
 H3479 H 0.14601 0.01979 0.74218
 H3480 H 0.16809 0.04822 0.74095
 H3481 H 0.18240 0.14856 0.77712
 H3482 H 0.20152 0.17885 0.77621
 H3483 H 0.23605 0.15585 0.73278
 H3484 H 0.21706 0.12556 0.73376
 C3485 C 0.34631 0.06940 0.24338
 C3486 C 0.35834 0.06131 0.23012
 C3487 C 0.37143 0.04654 0.23501
 C3488 C 0.37297 0.03990 0.25330
 C3489 C 0.36067 0.04764 0.26642
 C3490 C 0.34743 0.06209 0.26151
 C3491 C 0.33310 0.08581 0.23878
 N3492 N 0.31939 0.09093 0.25090
 N3493 N 0.30821 0.10631 0.24758
 C3494 C 0.31020 0.11737 0.23201
 N3495 N 0.32379 0.11216 0.21971
 N3496 N 0.33499 0.09666 0.22302
 C3497 C 0.29842 0.13532 0.22934
 C3498 C 0.30123 0.14848 0.21441
 C3499 C 0.29113 0.16625 0.21333
 C3500 C 0.27825 0.17116 0.22726
 C3501 C 0.27491 0.15759 0.24166
 C3502 C 0.28475 0.13996 0.24265
 H3503 H 0.35778 0.06654 0.21602
 H3504 H 0.38085 0.04086 0.22466
 H3505 H 0.36145 0.04261 0.28058
 H3506 H 0.33841 0.06791 0.27211
 H3507 H 0.31159 0.14532 0.20387
 H3508 H 0.29398 0.17646 0.20208
 H3509 H 0.26485 0.16079 0.25247
 H3510 H 0.28194 0.13019 0.25423
 C3511 C 0.84679 0.57338 0.74517
 C3512 C 0.85841 0.56549 0.73147
 C3513 C 0.87117 0.55017 0.73570
 C3514 C 0.87275 0.54275 0.75374
 C3515 C 0.86078 0.55025 0.76726
 C3516 C 0.84791 0.56526 0.76302
 C3517 C 0.83404 0.59040 0.74139
 N3518 N 0.82116 0.59583 0.75420
 N3519 N 0.81043 0.61167 0.75162
 C3520 C 0.81205 0.62294 0.73614
 N3521 N 0.82478 0.61744 0.72315
 N3522 N 0.83554 0.60148 0.72572
 C3523 C 0.80069 0.64128 0.73424
 C3524 C 0.80217 0.65396 0.71878
 C3525 C 0.79215 0.67181 0.71807
 C3526 C 0.78069 0.67732 0.73290
 C3527 C 0.77886 0.66433 0.74799
 C3528 C 0.78860 0.64663 0.74863
 H3529 H 0.85786 0.57132 0.71758
 H3530 H 0.88034 0.54468 0.72505
 H3531 H 0.86158 0.54465 0.78123
 H3532 H 0.83919 0.57088 0.77395
 H3533 H 0.81130 0.65027 0.70742
 H3534 H 0.79381 0.68150 0.70624
 H3535 H 0.76992 0.66791 0.75954
 H3536 H 0.78687 0.63729 0.76070
 C3537 C 0.93855 0.75281 0.15821
 C3538 C 0.94738 0.73460 0.15615
 C3539 C 0.96212 0.73248 0.14348
 C3540 C 0.96844 0.74851 0.13265
 C3541 C 0.95963 0.76677 0.13476
 C3542 C 0.94478 0.76886 0.14735
 C3543 C 0.92252 0.75485 0.17119
 N3544 N 0.91130 0.77101 0.17058
 N3545 N 0.89604 0.77227 0.18145
 C3546 C 0.89147 0.75749 0.19345
 N3547 N 0.90292 0.74151 0.19432
 N3548 N 0.91814 0.74021 0.18341
 C3549 C 0.87335 0.75786 0.20390
 C3550 C 0.86953 0.74366 0.21768
 C3551 C 0.85132 0.74234 0.22574
 C3552 C 0.83660 0.75504 0.21998
 C3553 C 0.84074 0.76985 0.20689
 C3554 C 0.85896 0.77133 0.19902
 H3555 H 0.94278 0.72189 0.16419
 H3556 H 0.96844 0.71820 0.14215
 H3557 H 0.96447 0.77959 0.12703
 H3558 H 0.93832 0.78312 0.14869
 H3559 H 0.88040 0.73318 0.22183
 H3560 H 0.84854 0.73083 0.23585
 H3561 H 0.82971 0.77999 0.20234
 H3562 H 0.86146 0.78248 0.18850
 C3563 C 0.43545 0.25397 0.65204
 C3564 C 0.44508 0.23608 0.65102
 C3565 C 0.46131 0.23444 0.64004
 C3566 C 0.46838 0.25065 0.62988
 C3567 C 0.45862 0.26856 0.63079
 C3568 C 0.44226 0.27016 0.64169
 C3569 C 0.41838 0.25561 0.66384
 N3570 N 0.40654 0.27125 0.66221
 N3571 N 0.39079 0.27230 0.67246
 C3572 C 0.38634 0.25783 0.68484
 N3573 N 0.39833 0.24233 0.68662
 N3574 N 0.41403 0.24124 0.67633
 C3575 C 0.36818 0.25821 0.69524
 C3576 C 0.36473 0.24449 0.70950
 C3577 C 0.34681 0.24349 0.71807
 C3578 C 0.33195 0.25608 0.71242
 C3579 C 0.33565 0.27033 0.69867
 C3580 C 0.35362 0.27144 0.69022
 H3581 H 0.44007 0.22326 0.65868
 H3582 H 0.46822 0.22039 0.63961
 H3583 H 0.46388 0.28153 0.62357
 H3584 H 0.43517 0.28419 0.64226
 H3585 H 0.37573 0.23419 0.71377
 H3586 H 0.34439 0.23241 0.72867
 H3587 H 0.32453 0.28039 0.69417
 H3588 H 0.35586 0.28222 0.67932
 C3589 C 0.43912 0.74551 0.80379
 C3590 C 0.44564 0.76481 0.80648
 C3591 C 0.45735 0.76917 0.82145
 C3592 C 0.46295 0.75428 0.83381
 C3593 C 0.45777 0.73479 0.83036
 C3594 C 0.44586 0.73044 0.81549
 C3595 C 0.42315 0.74171 0.79084
 N3596 N 0.41236 0.72505 0.79259
 N3597 N 0.39569 0.72321 0.78365
 C3598 C 0.38914 0.73792 0.77256
 N3599 N 0.40036 0.75421 0.77015
 N3600 N 0.41701 0.75608 0.77914
 C3601 C 0.36903 0.73771 0.76583
 C3602 C 0.36252 0.75245 0.75365
 C3603 C 0.34285 0.75447 0.75001
 C3604 C 0.32934 0.74192 0.75864
 C3605 C 0.33591 0.72651 0.76999
 C3606 C 0.35557 0.72434 0.77346
 H3607 H 0.44077 0.77676 0.79770
 H3608 H 0.46153 0.78427 0.82371
 H3609 H 0.46195 0.72307 0.83973
 H3610 H 0.44116 0.71541 0.81371
 H3611 H 0.37256 0.76290 0.74748
 H3612 H 0.33819 0.76636 0.74105
 H3613 H 0.32582 0.71636 0.77652
 H3614 H 0.36009 0.71280 0.78287
 C3615 C 0.94030 0.24628 0.30716
 C3616 C 0.94388 0.26530 0.31327
 C3617 C 0.95589 0.26840 0.32828
 C3618 C 0.96505 0.25260 0.33734
 C3619 C 0.96256 0.23368 0.33026
 C3620 C 0.95007 0.23054 0.31549
 C3621 C 0.92441 0.24284 0.29410
 N3622 N 0.91411 0.22582 0.29499
 N3623 N 0.89744 0.22406 0.28600
 C3624 C 0.89049 0.23923 0.27569
 N3625 N 0.90123 0.25593 0.27415
 N3626 N 0.91783 0.25773 0.28323
 C3627 C 0.87041 0.23887 0.26893
 C3628 C 0.86416 0.25277 0.25580
 C3629 C 0.84454 0.25466 0.25180
 C3630 C 0.83082 0.24290 0.26111
 C3631 C 0.83717 0.22848 0.27368
 C3632 C 0.85678 0.22635 0.27740
 H3633 H 0.93657 0.27776 0.30712
 H3634 H 0.95796 0.28331 0.33273
 H3635 H 0.96892 0.22096 0.33686
 H3636 H 0.94747 0.21570 0.31105
 H3637 H 0.87439 0.26260 0.24905
 H3638 H 0.84007 0.26583 0.24197
 H3639 H 0.82695 0.21914 0.28099
 H3640 H 0.86112 0.21559 0.28768
 C3641 C 0.06354 0.25343 0.33594
 C3642 C 0.05745 0.27145 0.34257
 C3643 C 0.03964 0.27290 0.35120
 C3644 C 0.02756 0.25629 0.35363
 C3645 C 0.03369 0.23836 0.34671
 C3646 C 0.05144 0.23694 0.33802
 C3647 C 0.08228 0.25183 0.32666
 N3648 N 0.08707 0.23504 0.31827
 N3649 N 0.10383 0.23362 0.30966
 C3650 C 0.11652 0.24891 0.30914
 N3651 N 0.11179 0.26568 0.31761
 N3652 N 0.09499 0.26712 0.32619
 C3653 C 0.13488 0.24746 0.29918
 C3654 C 0.14889 0.26244 0.30017
 C3655 C 0.16595 0.26132 0.29025
 C3656 C 0.16927 0.24524 0.27904
 C3657 C 0.15537 0.23014 0.27824
 C3658 C 0.13838 0.23121 0.28825
 H3659 H 0.06633 0.28453 0.34093
 H3660 H 0.03532 0.28719 0.35563
 H3661 H 0.02506 0.22521 0.34794
 H3662 H 0.05567 0.22283 0.33299
 H3663 H 0.14664 0.27511 0.30853
 H3664 H 0.17638 0.27321 0.29112
 H3665 H 0.15756 0.21751 0.26981
 H3666 H 0.12787 0.21942 0.28719
 C3667 C 0.56199 0.75496 0.83846
 C3668 C 0.54531 0.74885 0.82906
 C3669 C 0.52716 0.75120 0.83671
 C3670 C 0.52530 0.75954 0.85398
 C3671 C 0.54194 0.76572 0.86339
 C3672 C 0.56014 0.76350 0.85567
 C3673 C 0.58112 0.75259 0.83013
 N3674 N 0.59696 0.76187 0.83694
 N3675 N 0.61406 0.76015 0.82896
 C3676 C 0.61600 0.74901 0.81391
 N3677 N 0.60019 0.73960 0.80725
 N3678 N 0.58310 0.74137 0.81518
 C3679 C 0.63466 0.74773 0.80444
 C3680 C 0.63682 0.73453 0.79015
 C3681 C 0.65393 0.73411 0.78029
 C3682 C 0.66926 0.74693 0.78445
 C3683 C 0.66731 0.75981 0.79906
 C3684 C 0.65017 0.76018 0.80899
 H3685 H 0.54623 0.74245 0.81567
 H3686 H 0.51458 0.74677 0.82891
 H3687 H 0.54093 0.77199 0.87684
 H3688 H 0.57275 0.76829 0.86325
 H3689 H 0.62519 0.72465 0.78638
 H3690 H 0.65496 0.72393 0.76918
 H3691 H 0.67890 0.76981 0.80267
 H3692 H 0.64893 0.77051 0.81995
 C3693 C 0.55619 0.25125 0.67655
 C3694 C 0.54934 0.23338 0.66969
 C3695 C 0.53659 0.23319 0.65486
 C3696 C 0.53067 0.25084 0.64658
 C3697 C 0.53647 0.26869 0.65416
 C3698 C 0.54903 0.26889 0.66912
 C3699 C 0.57260 0.25156 0.68948
 N3700 N 0.57818 0.26848 0.69750
 N3701 N 0.59473 0.26953 0.70679
 C3702 C 0.60640 0.25374 0.70828
 N3703 N 0.60054 0.23668 0.70072
 N3704 N 0.58396 0.23560 0.69152
 C3705 C 0.62590 0.25565 0.71622
 C3706 C 0.64020 0.24215 0.71183
 C3707 C 0.65914 0.24489 0.71781
 C3708 C 0.66409 0.26101 0.72855
 C3709 C 0.64971 0.27426 0.73333
 C3710 C 0.63080 0.27169 0.72709
 H3711 H 0.55451 0.21955 0.67523
 H3712 H 0.53230 0.21926 0.64920
 H3713 H 0.53175 0.28247 0.64814
 H3714 H 0.55400 0.28290 0.67413
 H3715 H 0.63689 0.22972 0.70335
 H3716 H 0.66989 0.23432 0.71409
 H3717 H 0.65314 0.28678 0.74166
 H3718 H 0.62006 0.28233 0.73066
 C3719 C 0.05937 0.75034 0.17066
 C3720 C 0.05201 0.73225 0.16479
 C3721 C 0.03829 0.73157 0.15078
 C3722 C 0.03186 0.74894 0.14233
 C3723 C 0.03845 0.76704 0.14877
 C3724 C 0.05202 0.76775 0.16291
 C3725 C 0.07602 0.75100 0.18329
 N3726 N 0.08193 0.76815 0.19067
 N3727 N 0.09832 0.76919 0.20020
 C3728 C 0.10950 0.75313 0.20261
 N3729 N 0.10337 0.73590 0.19557
 N3730 N 0.08694 0.73484 0.18613
 C3731 C 0.12870 0.75475 0.21121
 C3732 C 0.14271 0.74059 0.20788
 C3733 C 0.16141 0.74285 0.21466
 C3734 C 0.16639 0.75915 0.22514
 C3735 C 0.15227 0.77307 0.22890
 C3736 C 0.13362 0.77098 0.22185
 H3737 H 0.05733 0.71860 0.17057
 H3738 H 0.03344 0.71744 0.14596
 H3739 H 0.03339 0.78063 0.14262
 H3740 H 0.05738 0.78191 0.16716
 H3741 H 0.13939 0.72798 0.19964
 H3742 H 0.17195 0.73178 0.21173
 H3743 H 0.15574 0.78575 0.23700
 H3744 H 0.12308 0.78210 0.22463
   
