data_POSCAR
  _audit_creation_date              2014-09-24
  _audit_creation_method            'ToBaCCo'
  _symmetry_space_group_name_H-M    'P1'
  _symmetry_Int_Tables_number       1
  _symmetry_cell_setting            triclinic
  loop_
  _symmetry_equiv_pos_as_xyz
 x,y,z
_cell_length_a 46.8396
_cell_length_b 46.8847
_cell_length_c 46.8496
_cell_angle_alpha 90.065200
_cell_angle_beta 89.892800
_cell_angle_gamma 89.910800
loop_
  _atom_site_label
  _atom_site_type_symbol
  _atom_site_fract_x
  _atom_site_fract_y
  _atom_site_fract_z
C1 C 0.36435 1.36588 0.32765
 N2 N 0.37695 1.34320 0.34071
 C3 C 0.36256 1.32799 0.36083
 N4 N 0.33529 1.33515 0.36752
 C5 C 0.32241 1.35778 0.35491
 N6 N 0.33716 1.37303 0.33514
 C7 C 0.35730 0.85966 0.82285
 N8 N 0.36717 0.83430 0.83266
 C9 C 0.35501 0.82208 0.85593
 N10 N 0.33316 0.83549 0.86951
 C11 C 0.32385 0.86147 0.86055
 N12 N 0.33583 0.87324 0.83689
 C13 C 0.85888 1.35989 0.82169
 N14 N 0.83280 1.36921 0.83055
 C15 C 0.81797 1.35470 0.85072
 N16 N 0.82886 1.33025 0.86169
 C17 C 0.85458 1.32036 0.85259
 N18 N 0.86965 1.33541 0.83292
 C19 C 0.86210 0.86238 0.32464
 N20 N 0.87302 0.83774 0.33544
 C21 C 0.85927 0.82375 0.35680
 N22 N 0.83507 0.83499 0.36817
 C23 C 0.82415 0.85963 0.35770
 N24 N 0.83719 0.87276 0.33545
 C25 C 0.64242 0.64160 0.32247
 N26 N 0.66643 0.63014 0.33401
 C27 C 0.68084 0.64414 0.35487
 N28 N 0.67115 0.66969 0.36446
 C29 C 0.64749 0.68160 0.35275
 N30 N 0.63339 0.66763 0.33167
 C31 C 0.63876 0.13575 0.82728
 N32 N 0.66097 0.12265 0.84060
 C33 C 0.67304 0.13422 0.86435
 N34 N 0.66332 0.15975 0.87413
 C35 C 0.64203 0.17367 0.86028
 N36 N 0.62989 0.16166 0.83693
 C37 C 1.13552 0.63430 0.83010
 N38 N 1.12436 0.65852 0.84147
 C39 C 1.13617 0.67049 0.86504
 N40 N 1.15997 0.65868 0.87664
 C41 C 1.17126 0.63437 0.86549
 N42 N 1.15906 0.62230 0.84209
 C43 C 1.13703 0.13516 0.32899
 N44 N 1.16011 0.12302 0.34172
 C45 C 1.17131 0.13414 0.36609
 N46 N 1.15959 0.15824 0.37728
 C47 C 1.13696 0.17097 0.36444
 N48 N 1.12608 0.15966 0.34009
 C49 C 0.64886 1.35441 0.68032
 N50 N 0.66969 1.36862 0.66608
 C51 C 0.68130 1.35751 0.64188
 N52 N 0.67214 1.33162 0.63246
 C53 C 0.65106 1.31748 0.64643
 N54 N 0.63933 1.32902 0.67029
 C55 C 0.63685 0.86435 1.17085
 N56 N 0.62882 0.83766 1.16276
 C57 C 0.64268 0.82370 1.14147
 N58 N 0.66519 0.83630 1.12833
 C59 C 0.67361 0.86286 1.13616
 N60 N 0.65947 0.87678 1.15744
 C61 C 1.14490 1.35703 1.17652
 N62 N 1.13179 1.33468 1.16350
 C63 C 1.14178 1.32439 1.13828
 N64 N 1.16491 1.33671 1.12590
 C65 C 1.17712 1.36017 1.13775
 N66 N 1.16720 1.36995 1.16322
 C67 C 1.14147 0.86211 0.67148
 N68 N 1.13012 0.83821 0.65979
 C69 C 1.14075 0.82762 0.63497
 N70 N 1.16331 0.84070 0.62228
 C71 C 1.17419 0.86527 0.63326
 N72 N 1.16321 0.87575 0.65802
 C73 C 0.36331 0.63788 0.67124
 N74 N 0.37225 0.66395 0.66244
 C75 C 0.35854 0.67749 0.64085
 N76 N 0.33604 0.66469 0.62788
 C77 C 0.32739 0.63819 0.63595
 N78 N 0.34085 0.62521 0.65810
 C79 C 0.35593 0.14434 1.17889
 N80 N 0.33444 0.13085 1.16488
 C81 C 0.32394 0.14147 1.14005
 N82 N 0.33440 0.16652 1.12991
 C83 C 0.35639 0.17973 1.14329
 N84 N 0.36752 0.16827 1.16740
 C85 C 0.84854 0.65282 1.18647
 N86 N 0.82517 0.64076 1.17445
 C87 C 0.81334 0.65242 1.15074
 N88 N 0.82518 0.67600 1.13885
 C89 C 0.84858 0.68812 1.15085
 N90 N 0.86031 0.67640 1.17456
 C91 C 0.84116 0.15925 0.69452
 N92 N 0.81636 0.14898 0.68366
 C93 C 0.80329 0.16198 0.66127
 N94 N 0.81568 0.18532 0.64936
 C95 C 0.84105 0.19515 0.65936
 N96 N 0.85397 0.18175 0.68152
 C97 C 1.35684 0.35714 0.67884
 N98 N 1.33069 0.36624 0.67023
 C99 C 1.31526 0.35092 0.65122
 N100 N 1.32560 0.32573 0.64131
 C101 C 1.35150 0.31592 0.65006
 N102 N 1.36726 0.33218 0.66827
 C103 C 1.35302 0.85285 1.18165
 N104 N 1.36319 0.82746 1.17202
 C105 C 1.34803 0.81169 1.15291
 N106 N 1.32284 0.82217 1.14291
 C107 C 1.31280 0.84779 1.15212
 N108 N 1.32786 0.86295 1.17157
 C109 C 0.85852 0.35795 1.17781
 N110 N 0.83214 0.36645 1.16908
 C111 C 0.81756 0.35135 1.14913
 N112 N 0.82916 0.32711 1.13824
 C113 C 0.85521 0.31809 1.14720
 N114 N 0.86991 0.33367 1.16667
 C115 C 0.85890 0.85953 0.67464
 N116 N 0.87146 0.83663 0.66204
 C117 C 0.86125 0.82628 0.63701
 N118 N 0.83816 0.83873 0.62471
 C119 C 0.82600 0.86213 0.63680
 N120 N 0.83636 0.87244 0.66182
 C121 C 0.64003 0.64090 0.67417
 N122 N 0.63007 0.66594 0.66352
 C123 C 0.64417 0.67926 0.64198
 N124 N 0.66838 0.66748 0.63113
 C125 C 0.67870 0.64272 0.64202
 N126 N 0.66451 0.62951 0.66355
 C127 C 0.63294 1.13378 1.16781
 N128 N 0.65709 1.12245 1.15625
 C129 C 0.66995 1.13514 1.13357
 N130 N 0.65872 1.15945 1.12252
 C131 C 0.63418 1.17065 1.13332
 N132 N 0.62192 1.15809 1.15641
 C133 C 0.14516 0.64644 1.17886
 N134 N 0.13222 0.66884 1.16578
 C135 C 0.14165 0.67852 1.14011
 N136 N 0.16486 0.66599 1.12785
 C137 C 0.17717 0.64276 1.14008
 N138 N 0.16715 0.63302 1.16545
 C139 C 0.13757 1.13768 0.67045
 N140 N 0.12559 1.16100 0.65816
 C141 C 0.13599 1.17155 0.63320
 N142 N 0.15946 1.15918 0.62133
 C143 C 0.17197 1.13620 0.63379
 N144 N 0.16102 1.12554 0.65842
 C145 C 1.35217 0.65044 0.31526
 N146 N 1.36508 0.67272 0.32854
 C147 C 1.35519 0.68239 0.35405
 N148 N 1.33163 0.67035 0.36592
 C149 C 1.31860 0.64811 0.35272
 N150 N 1.32936 0.63781 0.32788
 C151 C 1.36779 1.13367 0.82996
 N152 N 1.38114 1.15504 0.84463
 C153 C 1.36710 1.16959 0.86576
 N154 N 1.33978 1.16215 0.87227
 C155 C 1.32670 1.14041 0.85848
 N156 N 1.34060 1.12663 0.83721
 C157 C 0.85819 0.64406 0.82208
 N158 N 0.83311 0.63384 0.83238
 C159 C 0.82141 0.64526 0.85632
 N160 N 0.83494 0.66687 0.87003
 C161 C 0.86031 0.67682 0.86012
 N162 N 0.87175 0.66552 0.83596
 C163 C 0.86105 1.14338 0.32249
 N164 N 0.83878 1.12999 0.33538
 C165 C 0.82818 1.13990 0.36048
 N166 N 0.84020 1.16308 0.37298
 C167 C 0.86379 1.17537 0.36140
 N168 N 0.87379 1.16565 0.33595
 C169 C 0.63781 0.36322 0.32724
 N170 N 0.66386 0.37189 0.33663
 C171 C 0.67612 0.35943 0.35969
 N172 N 0.66233 0.33806 0.37350
 C173 C 0.63665 0.32858 0.36397
 N174 N 0.62485 0.34094 0.34051
 C175 C 0.64636 0.85461 0.81891
 N176 N 0.63303 0.83263 0.83221
 C177 C 0.64396 0.82154 0.85662
 N178 N 0.66878 0.83201 0.86724
 C179 C 0.68217 0.85402 0.85404
 N180 N 0.67075 0.86551 0.83004
 C181 C 0.15355 0.35024 0.81334
 N182 N 0.14431 0.32443 0.82271
 C183 C 0.15426 0.31336 0.84761
 N184 N 0.17347 0.32864 0.86306
 C185 C 0.18304 0.35429 0.85370
 N186 N 0.17293 0.36510 0.82884
 C187 C 0.14982 0.85148 0.31535
 N188 N 0.13716 0.82900 0.32855
 C189 C 0.14695 0.81951 0.35411
 N190 N 0.17036 0.83177 0.36595
 C191 C 0.18332 0.85402 0.35276
 N192 N 0.17252 0.86429 0.32798
 O193 O 0.97334 0.89766 0.85598
 O194 O 0.97298 0.86420 0.82287
 C195 C 0.96345 0.88756 0.83288
 C196 C 0.94004 0.90272 0.81805
 C197 C 0.92907 0.89217 0.79228
 H198 H 0.93875 0.87368 0.78227
 O199 O 1.02836 1.10453 0.85675
 O200 O 1.02806 1.13764 0.82336
 C201 C 1.03784 1.11441 0.83333
 C202 C 1.06095 1.09903 0.81803
 C203 C 1.07061 1.10840 0.79122
 H204 H 1.06083 1.12680 0.78121
 O205 O 0.86003 0.97207 0.89574
 O206 O 0.82662 0.97192 0.86262
 C207 C 0.83702 0.96200 0.88559
 C208 C 0.82267 0.93799 0.90021
 C209 C 0.79784 0.92584 0.88867
 H210 H 0.78856 0.93450 0.86936
 O211 O 1.14244 1.02848 0.89369
 O212 O 1.17571 1.02818 0.86032
 C213 C 1.16562 1.03817 0.88344
 C214 C 1.18049 1.06186 0.89815
 C215 C 1.20573 1.07342 0.88677
 H216 H 1.21502 1.06448 0.86753
 O217 O 0.89915 0.85907 0.97234
 O218 O 0.86626 0.82545 0.97262
 C219 C 0.88942 0.83564 0.96284
 C220 C 0.90470 0.82054 0.93960
 C221 C 0.89563 0.79348 0.93055
 H222 H 0.87813 0.78297 0.94142
 O223 O 1.10540 1.14156 0.97028
 O224 O 1.13891 1.17456 0.97030
 C225 C 1.11587 1.16446 0.96026
 C226 C 1.10172 1.17887 0.93599
 C227 C 1.11486 1.20219 0.92256
 H228 H 1.13512 1.21007 0.93040
 O229 O 0.89824 1.02881 0.85735
 O230 O 0.86449 1.02919 0.82461
 C231 C 0.88768 1.03904 0.83460
 C232 C 0.90163 1.06365 0.82051
 C233 C 0.88867 1.07676 0.79692
 H234 H 0.86993 1.06725 0.78730
 O235 O 1.10295 0.97291 0.85484
 O236 O 1.13632 0.97253 0.82157
 C237 C 1.11305 0.96299 0.83166
 C238 C 1.09816 0.93941 0.81690
 C239 C 1.10860 0.92879 0.79087
 H240 H 1.12669 0.93890 0.78060
 O241 O 1.02892 0.85847 0.89484
 O242 O 1.02866 0.82475 0.86197
 C243 C 1.03849 0.83506 0.88503
 C244 C 1.06162 0.82007 0.90045
 C245 C 1.07091 0.79292 0.89170
 H246 H 1.06099 0.78266 0.87352
 O247 O 0.97357 1.14401 0.89700
 O248 O 0.97364 1.17755 0.86403
 C249 C 0.96387 1.16732 0.88717
 C250 C 0.94014 1.18198 0.90212
 C251 C 0.92836 1.20711 0.89085
 H252 H 0.93744 1.21667 0.87184
 O253 O 0.85918 1.10390 0.97105
 O254 O 0.82573 1.13705 0.97115
 C255 C 0.83597 1.11392 0.96126
 C256 C 0.82091 1.09834 0.93821
 C257 C 0.79367 1.10694 0.92900
 H258 H 0.78404 1.12596 0.93798
 O259 O 1.14118 0.89857 0.97150
 O260 O 1.17476 0.86554 0.97146
 C261 C 1.16464 0.88886 0.96195
 C262 C 1.17980 0.90434 0.93890
 C263 C 1.20735 0.89597 0.93049
 H264 H 1.21828 0.87930 0.94218
 O265 O 0.97242 1.10507 0.85804
 O266 O 0.97204 1.13860 0.82508
 C267 C 0.96199 1.11565 0.83539
 C268 C 0.93726 1.10171 0.82151
 C269 C 0.92296 1.11530 0.79895
 H270 H 0.93036 1.13582 0.79134
 O271 O 1.02890 0.89713 0.85553
 O272 O 1.02878 0.86364 0.82244
 C273 C 1.03861 0.88687 0.83236
 C274 C 1.06205 0.90182 0.81735
 C275 C 1.07312 0.89119 0.79153
 H276 H 1.06403 0.87224 0.78192
 O277 O 1.14120 0.97271 0.89465
 O278 O 1.17474 0.97229 0.86156
 C279 C 1.16440 0.96270 0.88477
 C280 C 1.17926 0.93956 0.90042
 C281 C 1.20612 0.92971 0.89136
 H282 H 1.21579 0.93857 0.87231
 O283 O 0.85917 1.02764 0.89677
 O284 O 0.82530 1.02743 0.86413
 C285 C 0.83548 1.03692 0.88739
 C286 C 0.82016 1.05967 0.90321
 C287 C 0.79217 1.06734 0.89573
 H288 H 0.78102 1.05507 0.87964
 O289 O 0.89789 1.14329 0.97182
 O290 O 0.86463 1.17663 0.97203
 C291 C 0.88789 1.16660 0.96226
 C292 C 0.90291 1.18159 0.93883
 C293 C 0.89158 1.20682 0.92731
 H294 H 0.87249 1.21628 0.93641
 O295 O 1.10300 0.85843 0.97080
 O296 O 1.13640 0.82523 0.97061
 C297 C 1.11316 0.83525 0.96096
 C298 C 1.09805 0.82013 0.93772
 C299 C 1.10686 0.79285 0.92888
 H300 H 1.12429 0.78225 0.93976
 O301 O 1.10261 1.02851 0.85550
 O302 O 1.13573 1.02819 0.82197
 C303 C 1.11258 1.03812 0.83221
 C304 C 1.09741 1.06157 0.81741
 C305 C 1.10650 1.07104 0.79047
 H306 H 1.12413 1.06047 0.77978
 O307 O 0.89862 0.97307 0.85629
 O308 O 0.86527 0.97335 0.82313
 C309 C 0.88850 0.96349 0.83304
 C310 C 0.90336 0.93991 0.81807
 C311 C 0.89252 0.92886 0.79239
 H312 H 0.87374 0.93829 0.78276
 O313 O 1.02926 1.14327 0.89630
 O314 O 1.02940 1.17649 0.86302
 C315 C 1.03932 1.16623 0.88605
 C316 C 1.06379 1.18026 0.90026
 C317 C 1.07651 1.20447 0.88805
 H318 H 1.06684 1.21452 0.86962
 O319 O 0.97331 0.85891 0.89537
 O320 O 0.97295 0.82523 0.86247
 C321 C 0.96347 0.83560 0.88572
 C322 C 0.94052 0.82070 0.90154
 C323 C 0.93076 0.79386 0.89250
 H324 H 0.94011 0.78377 0.87386
 O325 O 1.14396 1.10232 0.97004
 O326 O 1.17748 1.13533 0.97011
 C327 C 1.16710 1.11238 0.96011
 C328 C 1.18140 1.09786 0.93593
 C329 C 1.20685 1.10880 0.92452
 H330 H 1.21715 1.12691 0.93451
 O331 O 0.85983 0.89796 0.97189
 O332 O 0.82687 0.86442 0.97175
 C333 C 0.83690 0.88756 0.96189
 C334 C 0.82240 0.90189 0.93781
 C335 C 0.79729 0.89039 0.92626
 H336 H 0.78742 0.87190 0.93600
 Cu337 Cu 1.00115 0.88140 0.87872
 Cu338 Cu 1.00077 0.84109 0.83908
 Cu339 Cu 1.00099 1.12085 0.88031
 Cu340 Cu 1.00084 1.16090 0.84052
 Cu341 Cu 0.88241 1.00043 0.87980
 Cu342 Cu 0.84210 1.00057 0.84025
 Cu343 Cu 1.11900 1.00068 0.87801
 Cu344 Cu 1.15899 1.00024 0.83803
 C345 C 0.92726 0.92681 0.83060
 H346 H 0.93534 0.93480 0.85072
 C347 C 0.90508 0.90484 0.77959
 C348 C 1.07438 1.07546 0.83081
 H349 H 1.06740 1.06841 0.85170
 C350 C 1.09300 1.09419 0.77713
 C351 C 0.83475 0.92590 0.92484
 H352 H 0.85429 0.93470 0.93345
 C353 C 0.78532 0.90185 0.90137
 C354 C 1.16856 1.07419 0.92278
 H355 H 1.14875 1.06584 0.93130
 C356 C 1.21879 1.09707 0.89966
 C357 C 0.92747 0.83377 0.92525
 H358 H 0.93446 0.85473 0.93200
 C359 C 0.90867 0.77995 0.90719
 C360 C 1.07626 1.16794 0.92457
 H361 H 1.06663 1.14923 0.93409
 C362 C 1.10265 1.21483 0.89833
 C363 C 0.92627 1.07599 0.83232
 H364 H 0.93639 1.06603 0.85055
 C365 C 0.89832 1.10327 0.78693
 C366 C 1.07465 0.92602 0.82977
 H367 H 1.06671 0.93394 0.85001
 C368 C 1.09658 0.90439 0.77843
 C369 C 1.07519 0.83337 0.92361
 H370 H 1.06843 0.85448 0.93022
 C371 C 1.09323 0.77899 0.90608
 C372 C 0.92741 1.16952 0.92628
 H373 H 0.93596 1.14977 0.93469
 C374 C 0.90393 1.21932 0.90309
 C375 C 0.83400 1.07478 0.92503
 H376 H 0.85542 1.06865 0.93122
 C377 C 0.77857 1.09090 0.90856
 C378 C 1.16624 0.92666 0.92419
 H379 H 1.14510 0.93344 0.93075
 C380 C 1.22079 0.90859 0.90681
 O381 O 1.02847 0.89973 1.14306
 O382 O 1.02857 0.86651 1.17635
 C383 C 1.03828 0.88969 1.16622
 C384 C 1.06240 0.90411 1.18059
 C385 C 1.07453 0.89218 1.20521
 H386 H 1.06427 0.87424 1.21554
 O387 O 0.97434 1.10265 1.14184
 O388 O 0.97428 1.13621 1.17487
 C389 C 0.96448 1.11298 1.16491
 C390 C 0.94043 1.09861 1.17951
 C391 C 0.92976 1.10932 1.20540
 H392 H 0.94082 1.12652 1.21614
 O393 O 0.85773 1.02866 1.10194
 O394 O 0.82409 1.02876 1.13496
 C395 C 0.83421 1.03818 1.11161
 C396 C 0.81899 1.06096 1.09589
 C397 C 0.79152 1.06969 1.10427
 H398 H 0.78075 1.05889 1.12166
 O399 O 1.14319 0.97317 1.10238
 O400 O 1.17694 0.97292 1.13515
 C401 C 1.16627 0.96299 1.11228
 C402 C 1.18007 0.93847 1.09784
 C403 C 1.20420 0.92549 1.10998
 H404 H 1.21370 0.93422 1.12916
 O405 O 1.10188 0.85875 1.02651
 O406 O 1.13501 0.82527 1.02623
 C407 C 1.11180 0.83542 1.03606
 C408 C 1.09679 0.82064 1.05966
 C409 C 1.10567 0.79351 1.06873
 H410 H 1.12220 0.78238 1.05694
 O411 O 0.89817 1.14180 1.02748
 O412 O 0.86495 1.17518 1.02790
 C413 C 0.88811 1.16484 1.03761
 C414 C 0.90307 1.17927 1.06144
 C415 C 0.89196 1.20453 1.07319
 H416 H 0.87288 1.21415 1.06434
 O417 O 0.89766 0.97455 1.14221
 O418 O 0.86455 0.97490 1.17572
 C419 C 0.88797 0.96535 1.16580
 C420 C 0.90367 0.94264 1.18122
 C421 C 0.89533 0.93420 1.20877
 H422 H 0.87844 0.94571 1.21964
 O423 O 1.10539 1.02917 1.14224
 O424 O 1.13885 1.02894 1.17529
 C425 C 1.11566 1.03887 1.16536
 C426 C 1.10049 1.06215 1.18049
 C427 C 1.10957 1.07165 1.20742
 H428 H 1.12838 1.06230 1.21708
 O429 O 0.97333 0.86011 1.10386
 O430 O 0.97311 0.82709 1.13735
 C431 C 0.96335 0.83714 1.11416
 C432 C 0.93937 0.82263 1.09963
 C433 C 0.92656 0.79850 1.11193
 H434 H 0.93489 0.78965 1.13159
 O435 O 1.03014 1.14115 1.10232
 O436 O 1.03018 1.17482 1.13523
 C437 C 1.03986 1.16448 1.11204
 C438 C 1.06309 1.17937 1.09655
 C439 C 1.07253 1.20630 1.10563
 H440 H 1.06217 1.21681 1.12348
 O441 O 0.85928 0.89818 1.02768
 O442 O 0.82596 0.86498 1.02749
 C443 C 0.83597 0.88817 1.03730
 C444 C 0.82083 0.90330 1.06062
 C445 C 0.79388 0.89407 1.06997
 H446 H 0.78350 0.87623 1.05957
 O447 O 1.14449 1.10204 1.02559
 O448 O 1.17798 1.13506 1.02564
 C449 C 1.16790 1.11179 1.03512
 C450 C 1.18298 1.09647 1.05820
 C451 C 1.21026 1.10516 1.06698
 H452 H 1.22119 1.12189 1.05539
 O453 O 1.02993 1.10307 1.14259
 O454 O 1.02986 1.13655 1.17570
 C455 C 1.03945 1.11316 1.16590
 C456 C 1.06250 1.09785 1.18117
 C457 C 1.07087 1.10605 1.20878
 H458 H 1.05925 1.12278 1.21978
 O459 O 0.97276 0.89927 1.14265
 O460 O 0.97281 0.86637 1.17626
 C461 C 0.96290 0.88937 1.16588
 C462 C 0.93951 0.90471 1.18072
 C463 C 0.92966 0.89548 1.20747
 H464 H 0.93870 0.87645 1.21697
 O465 O 1.14377 1.02885 1.10255
 O466 O 1.17747 1.02875 1.13536
 C467 C 1.16711 1.03851 1.11230
 C468 C 1.18209 1.06152 1.09676
 C469 C 1.20857 1.07172 1.10631
 H470 H 1.21781 1.06318 1.12569
 O471 O 0.85858 0.97314 1.10302
 O472 O 0.82517 0.97315 1.13625
 C473 C 0.83542 0.96330 1.11310
 C474 C 0.82061 0.93992 1.09787
 C475 C 0.79363 0.93041 1.10688
 H476 H 0.78310 0.94046 1.12490
 O477 O 1.10520 1.14119 1.02623
 O478 O 1.13849 1.17440 1.02631
 C479 C 1.11528 1.16431 1.03610
 C480 C 1.10010 1.17923 1.05959
 C481 C 1.10946 1.20599 1.06929
 H482 H 1.12774 1.21612 1.05938
 O483 O 0.89887 0.85961 1.02803
 O484 O 0.86560 0.82637 1.02825
 C485 C 0.88868 0.83661 1.03806
 C486 C 0.90307 0.82230 1.06220
 C487 C 0.89092 0.79791 1.07454
 H488 H 0.87197 0.78842 1.06531
 O489 O 1.10487 0.97343 1.14189
 O490 O 1.13857 0.97303 1.17471
 C491 C 1.11536 0.96325 1.16470
 C492 C 1.10090 0.93919 1.17914
 C493 C 1.11368 0.92574 1.20266
 H494 H 1.13406 0.93328 1.21052
 O495 O 0.89676 1.03007 1.14085
 O496 O 0.86332 1.03061 1.17405
 C497 C 0.88646 1.04035 1.16375
 C498 C 0.90142 1.06407 1.17827
 C499 C 0.89015 1.07621 1.20330
 H500 H 0.87030 1.06822 1.21207
 O501 O 0.97428 1.14149 1.10269
 O502 O 0.97432 1.17512 1.13563
 C503 C 0.96441 1.16473 1.11263
 C504 C 0.94049 1.17930 1.09793
 C505 C 0.92905 1.20464 1.10921
 H506 H 0.93835 1.21427 1.12806
 O507 O 1.02916 0.86040 1.10420
 O508 O 1.02909 0.82707 1.13737
 C509 C 1.03900 0.83723 1.11424
 C510 C 1.06227 0.82217 1.09883
 C511 C 1.07278 0.79589 1.10868
 H512 H 1.06450 0.78696 1.12833
 O513 O 1.14141 0.89723 1.02727
 O514 O 1.17459 0.86380 1.02718
 C515 C 1.16441 0.88684 1.03722
 C516 C 1.17897 0.90110 1.06135
 C517 C 1.20307 0.88845 1.07391
 H518 H 1.21183 0.86882 1.06532
 O519 O 0.85807 1.10381 1.02681
 O520 O 0.82467 1.13701 1.02693
 C521 C 0.83468 1.11372 1.03647
 C522 C 0.81936 1.09821 1.05939
 C523 C 0.79209 1.10698 1.06844
 H524 H 0.78188 1.12516 1.05845
 Cu525 Cu 1.00096 0.88317 1.12009
 Cu526 Cu 1.00092 0.84342 1.16018
 Cu527 Cu 1.00228 1.11874 1.11906
 Cu528 Cu 1.00222 1.15909 1.15862
 Cu529 Cu 0.88258 0.88208 0.99997
 Cu530 Cu 0.84285 0.84194 1.00001
 Cu531 Cu 1.11853 0.88157 0.99897
 Cu532 Cu 1.15857 0.84166 0.99877
 Cu533 Cu 0.88162 1.11986 0.99925
 Cu534 Cu 0.84171 1.15986 0.99953
 Cu535 Cu 1.12137 1.11851 0.99814
 Cu536 Cu 1.16152 1.15823 0.99824
 Cu537 Cu 0.88101 1.00153 1.11869
 Cu538 Cu 0.84094 1.00182 1.15862
 Cu539 Cu 1.12091 1.00128 1.11900
 Cu540 Cu 1.16137 1.00096 1.15843
 C541 C 1.07537 0.92804 1.16808
 H542 H 1.06610 0.93740 1.14911
 C543 C 1.10086 0.90193 1.21557
 C544 C 0.92645 1.07558 1.16641
 H545 H 0.93464 1.06711 1.14649
 C546 C 0.90401 1.09906 1.21684
 C547 C 0.83250 1.07504 1.07313
 H548 H 0.85375 1.06852 1.06667
 C549 C 0.77781 1.09245 1.09045
 C550 C 1.16772 0.92624 1.07336
 H551 H 1.14877 0.93578 1.06418
 C552 C 1.21543 0.90037 1.09834
 C553 C 1.07454 0.83441 1.07437
 H554 H 1.06731 0.85517 1.06723
 C555 C 1.09371 0.78079 1.09317
 C556 C 0.92751 1.16691 1.07384
 H557 H 0.93589 1.14711 1.06531
 C558 C 0.90474 1.21705 1.09711
 C559 C 0.92632 0.92826 1.16775
 H560 H 0.93312 0.93487 1.14666
 C561 C 0.90833 0.91069 1.22222
 C562 C 1.07699 1.07543 1.16758
 H563 H 1.07042 1.06881 1.14643
 C564 C 1.09423 1.09282 1.22229
 C565 C 0.92752 0.83432 1.07467
 H566 H 0.93676 0.85340 1.06550
 C567 C 0.90209 0.78643 1.09974
 C568 C 1.07675 1.16619 1.07325
 H569 H 1.06972 1.14533 1.06625
 C570 C 1.09548 1.21983 1.09195
 C571 C 0.83387 0.92641 1.07454
 H572 H 0.85480 0.93342 1.06767
 C573 C 0.78010 0.90771 1.09283
 C574 C 1.16943 1.07409 1.07271
 H575 H 1.14852 1.06707 1.06584
 C576 C 1.22332 1.09286 1.09101
 O577 O 0.97355 0.39665 0.35647
 O578 O 0.97341 0.36329 0.32326
 C579 C 0.96377 0.38661 0.33329
 C580 C 0.94074 0.40218 0.31821
 C581 C 0.93054 0.39271 0.29166
 H582 H 0.93916 0.37338 0.28230
 O583 O 1.02876 0.60327 0.35658
 O584 O 1.02882 0.63666 0.32346
 C585 C 1.03851 0.61339 0.33339
 C586 C 1.06240 0.59876 0.31868
 C587 C 1.07397 0.61011 0.29348
 H588 H 1.06355 0.62796 0.28314
 O589 O 0.85990 0.47125 0.39512
 O590 O 0.82672 0.47119 0.36180
 C591 C 0.83694 0.46121 0.38480
 C592 C 0.82242 0.43729 0.39941
 C593 C 0.79685 0.42599 0.38857
 H594 H 0.78721 0.43515 0.36968
 O595 O 1.14281 0.52645 0.39568
 O596 O 1.17631 0.52625 0.36254
 C597 C 1.16623 0.53592 0.38583
 C598 C 1.18116 0.55934 0.40090
 C599 C 1.20647 0.57085 0.38965
 H600 H 1.21617 0.56157 0.37077
 O601 O 0.89934 0.35819 0.47245
 O602 O 0.86615 0.32487 0.47275
 C603 C 0.88957 0.33470 0.46320
 C604 C 0.90509 0.31934 0.44030
 C605 C 0.89685 0.29177 0.43203
 H606 H 0.88035 0.28081 0.44395
 O607 O 1.10465 0.64142 0.47133
 O608 O 1.13806 0.67452 0.47102
 C609 C 1.11480 0.66449 0.46140
 C610 C 1.09975 0.67937 0.43797
 C611 C 1.10998 0.70548 0.42748
 H612 H 1.12874 0.71519 0.43685
 O613 O 0.89801 0.52844 0.35741
 O614 O 0.86463 0.52863 0.32425
 C615 C 0.88758 0.53864 0.33458
 C616 C 0.90170 0.56304 0.32045
 C617 C 0.88917 0.57591 0.29649
 H618 H 0.86962 0.56740 0.28758
 O619 O 1.10245 0.47276 0.35513
 O620 O 1.13572 0.47276 0.32176
 C621 C 1.11238 0.46320 0.33174
 C622 C 1.09757 0.43950 0.31699
 C623 C 1.10849 0.42836 0.29137
 H624 H 1.12594 0.43911 0.28066
 O625 O 1.02891 0.35771 0.39597
 O626 O 1.02877 0.32390 0.36320
 C627 C 1.03854 0.33427 0.38628
 C628 C 1.06171 0.31934 0.40181
 C629 C 1.07106 0.29222 0.39307
 H630 H 1.06118 0.28188 0.37490
 O631 O 0.97347 0.64262 0.39619
 O632 O 0.97358 0.67610 0.36315
 C633 C 0.96373 0.66588 0.38624
 C634 C 0.94001 0.68060 0.40113
 C635 C 0.92880 0.70618 0.39028
 H636 H 0.93819 0.71592 0.37152
 O637 O 0.85974 0.60288 0.47164
 O638 O 0.82620 0.63594 0.47182
 C639 C 0.83646 0.61283 0.46194
 C640 C 0.82172 0.59786 0.43831
 C641 C 0.79652 0.60914 0.42661
 H642 H 0.78715 0.62837 0.43544
 O643 O 1.14304 0.39693 0.47130
 O644 O 1.17643 0.36374 0.47121
 C645 C 1.16613 0.38675 0.46126
 C646 C 1.18025 0.40105 0.43680
 C647 C 1.20557 0.38989 0.42509
 H648 H 1.21634 0.37234 0.43560
 O649 O 0.97309 0.60347 0.35738
 O650 O 0.97303 0.63692 0.32430
 C651 C 0.96308 0.61386 0.33447
 C652 C 0.93879 0.59966 0.32022
 C653 C 0.92610 0.61203 0.29610
 H654 H 0.93503 0.63120 0.28678
 O655 O 1.02923 0.39624 0.35650
 O656 O 1.02937 0.36263 0.32353
 C657 C 1.03919 0.38585 0.33349
 C658 C 1.06281 0.40069 0.31860
 C659 C 1.07520 0.38892 0.29390
 H660 H 1.06732 0.36888 0.28555
 O661 O 1.14131 0.47070 0.39432
 O662 O 1.17461 0.47046 0.36098
 C663 C 1.16417 0.46040 0.38391
 C664 C 1.17851 0.43617 0.39828
 C665 C 1.20290 0.42365 0.38609
 H666 H 1.21120 0.43175 0.36609
 O667 O 0.85948 0.52697 0.39689
 O668 O 0.82609 0.52699 0.36375
 C669 C 0.83618 0.53666 0.38699
 C670 C 0.82140 0.56033 0.40195
 C671 C 0.79600 0.57171 0.39087
 H672 H 0.78611 0.56208 0.37233
 O673 O 0.89828 0.64246 0.47130
 O674 O 0.86481 0.67560 0.47141
 C675 C 0.88804 0.66559 0.46154
 C676 C 0.90290 0.68045 0.43792
 C677 C 0.89208 0.70612 0.42683
 H678 H 0.87336 0.71594 0.43630
 O679 O 1.10375 0.35804 0.47174
 O680 O 1.13697 0.32465 0.47172
 C681 C 1.11366 0.33468 0.46212
 C682 C 1.09823 0.31944 0.43911
 C683 C 1.10690 0.29208 0.43037
 H684 H 1.12438 0.28149 0.44119
 O685 O 1.10410 0.52849 0.35645
 O686 O 1.13758 0.52852 0.32330
 C687 C 1.11467 0.53872 0.33367
 C688 C 1.10049 0.56314 0.31952
 C689 C 1.11274 0.57592 0.29532
 H690 H 1.13269 0.56779 0.28685
 O691 O 0.89964 0.47287 0.35651
 O692 O 0.86660 0.47309 0.32303
 C693 C 0.88999 0.46359 0.33295
 C694 C 0.90555 0.44071 0.31759
 C695 C 0.89683 0.43197 0.29032
 H696 H 0.87995 0.44351 0.27955
 O697 O 1.02918 0.64186 0.39626
 O698 O 1.02928 0.67536 0.36325
 C699 C 1.03902 0.66506 0.38635
 C700 C 1.06255 0.67973 0.40142
 C701 C 1.07287 0.70602 0.39150
 H702 H 1.06287 0.71630 0.37338
 O703 O 0.97318 0.35805 0.39580
 O704 O 0.97291 0.32443 0.36285
 C705 C 0.96323 0.33486 0.38597
 C706 C 0.94011 0.32003 0.40161
 C707 C 0.93026 0.29327 0.39251
 H708 H 0.93898 0.28381 0.37327
 O709 O 1.14314 0.60178 0.47120
 O710 O 1.17661 0.63481 0.47074
 C711 C 1.16630 0.61164 0.46117
 C712 C 1.18094 0.59658 0.43753
 C713 C 1.20609 0.60785 0.42579
 H714 H 1.21543 0.62705 0.43464
 O715 O 0.85966 0.39681 0.47087
 O716 O 0.82632 0.36364 0.47087
 C717 C 0.83661 0.38659 0.46089
 C718 C 0.82212 0.40106 0.43688
 C719 C 0.79631 0.39040 0.42605
 H720 H 0.78608 0.37233 0.43618
 Cu721 Cu 1.00122 0.38051 0.37947
 Cu722 Cu 1.00110 0.34019 0.33988
 Cu723 Cu 1.00117 0.61944 0.37992
 Cu724 Cu 1.00125 0.65960 0.34018
 Cu725 Cu 0.88257 0.49979 0.37984
 Cu726 Cu 0.84264 0.49990 0.33989
 Cu727 Cu 1.11931 0.49961 0.37871
 Cu728 Cu 1.15941 0.49946 0.33882
 C729 C 0.92805 0.42619 0.33099
 H730 H 0.93503 0.43300 0.35194
 C731 C 0.90916 0.40797 0.27709
 C732 C 1.07545 0.57489 0.33119
 H733 H 1.06656 0.56594 0.35056
 C734 C 1.09981 0.59965 0.28233
 C735 C 0.83484 0.42470 0.42360
 H736 H 0.85485 0.43289 0.43172
 C737 C 0.78389 0.40238 0.40161
 C738 C 1.16874 0.57217 0.42509
 H739 H 1.14894 0.56380 0.43359
 C740 C 1.21863 0.59537 0.40170
 C741 C 0.92731 0.33293 0.42548
 H742 H 0.93405 0.35405 0.43200
 C743 C 0.90943 0.27841 0.40821
 C744 C 1.07588 0.66677 0.42493
 H745 H 1.06820 0.64636 0.43254
 C746 C 1.09640 0.71907 0.40455
 C747 C 0.92660 0.57498 0.33209
 H748 H 0.93601 0.56556 0.35097
 C749 C 0.90104 0.60057 0.28458
 C750 C 1.07429 0.42588 0.33007
 H751 H 1.06571 0.43439 0.34981
 C752 C 1.09833 0.40240 0.28035
 C753 C 1.07532 0.33267 0.42498
 H754 H 1.06860 0.35381 0.43152
 C755 C 1.09322 0.27822 0.40761
 C756 C 0.92706 0.66804 0.42509
 H757 H 0.93526 0.64802 0.43321
 C758 C 0.90472 0.71881 0.40282
 C759 C 0.83391 0.57335 0.42591
 H760 H 0.85374 0.56496 0.43432
 C761 C 0.78386 0.59640 0.40270
 C762 C 1.16719 0.42456 0.42351
 H763 H 1.14774 0.43341 0.43244
 C764 C 1.21649 0.40038 0.39918
 O765 O 1.02976 0.39634 0.64067
 O766 O 1.03022 0.36293 0.67375
 C767 C 1.04003 0.38602 0.66351
 C768 C 1.06412 0.40056 0.67786
 C769 C 1.07671 0.38852 0.70223
 H770 H 1.06833 0.36897 0.71126
 O771 O 0.97395 0.60459 0.64162
 O772 O 0.97375 0.63814 0.67466
 C773 C 0.96404 0.61488 0.66469
 C774 C 0.94042 0.60005 0.67952
 C775 C 0.92941 0.61077 0.70529
 H776 H 0.93877 0.62950 0.71508
 O777 O 0.86045 0.52782 0.60265
 O778 O 0.82705 0.52777 0.63589
 C779 C 0.83707 0.53739 0.61257
 C780 C 0.82202 0.56075 0.59750
 C781 C 0.79607 0.57143 0.60812
 H782 H 0.78592 0.56132 0.62628
 O783 O 1.14276 0.47326 0.60251
 O784 O 1.17607 0.47311 0.63572
 C785 C 1.16581 0.46323 0.61264
 C786 C 1.18012 0.43897 0.59819
 C787 C 1.20443 0.42641 0.61041
 H788 H 1.21368 0.43527 0.62966
 O789 O 1.10434 0.35794 0.52738
 O790 O 1.13755 0.32454 0.52730
 C791 C 1.11434 0.33468 0.53708
 C792 C 1.09880 0.31945 0.56003
 C793 C 1.10774 0.29237 0.56923
 H794 H 1.12669 0.28278 0.56001
 O795 O 0.89903 0.64232 0.52690
 O796 O 0.86569 0.67559 0.52701
 C797 C 0.88906 0.66564 0.53652
 C798 C 0.90443 0.68093 0.55949
 C799 C 0.89523 0.70797 0.56856
 H800 H 0.87748 0.71832 0.55795
 O801 O 0.90062 0.47365 0.64271
 O802 O 0.86748 0.47374 0.67621
 C803 C 0.89093 0.46433 0.66625
 C804 C 0.90655 0.44155 0.68157
 C805 C 0.89787 0.43290 0.70890
 H806 H 0.88100 0.44448 0.71973
 O807 O 1.10386 0.52879 0.64223
 O808 O 1.13701 0.52863 0.67560
 C809 C 1.11379 0.53838 0.66555
 C810 C 1.09845 0.56154 0.68069
 C811 C 1.10701 0.57039 0.70801
 H812 H 1.12478 0.55996 0.71849
 O813 O 0.97251 0.35820 0.60306
 O814 O 0.97236 0.32518 0.63656
 C815 C 0.96223 0.33549 0.61365
 C816 C 0.93750 0.32163 0.59982
 C817 C 0.92385 0.29845 0.61298
 H818 H 0.93208 0.28977 0.63276
 O819 O 1.02985 0.64307 0.60244
 O820 O 1.02995 0.67674 0.63534
 C821 C 1.03966 0.66634 0.61221
 C822 C 1.06304 0.68099 0.59677
 C823 C 1.07256 0.70803 0.60548
 H824 H 1.06217 0.71887 0.62311
 O825 O 0.85962 0.39880 0.52656
 O826 O 0.82586 0.36605 0.52653
 C827 C 0.83616 0.38922 0.53614
 C828 C 0.82141 0.40450 0.55959
 C829 C 0.79434 0.39565 0.56885
 H830 H 0.78327 0.37897 0.55732
 O831 O 1.14385 0.60228 0.52675
 O832 O 1.17753 0.63511 0.52629
 C833 C 1.16733 0.61202 0.53611
 C834 C 1.18239 0.59679 0.55927
 C835 C 1.20983 0.60518 0.56777
 H836 H 1.22080 0.62188 0.55617
 O837 O 1.02948 0.60442 0.64195
 O838 O 1.02946 0.63779 0.67516
 C839 C 1.03901 0.61439 0.66527
 C840 C 1.06181 0.59875 0.68059
 C841 C 1.07047 0.60714 0.70803
 H842 H 1.05990 0.62479 0.71865
 O843 O 0.97406 0.39705 0.64207
 O844 O 0.97435 0.36413 0.67566
 C845 C 0.96462 0.38734 0.66556
 C846 C 0.94178 0.40308 0.68084
 C847 C 0.93159 0.39365 0.70744
 H848 H 0.94015 0.37430 0.71672
 O849 O 1.14316 0.52898 0.60320
 O850 O 1.17652 0.52891 0.63634
 C851 C 1.16641 0.53866 0.61317
 C852 C 1.18156 0.56163 0.59768
 C853 C 1.20846 0.57126 0.60677
 H854 H 1.21812 0.56220 0.62570
 O855 O 0.86112 0.47215 0.60390
 O856 O 0.82781 0.47202 0.63721
 C857 C 0.83801 0.46221 0.61404
 C858 C 0.82295 0.43905 0.59866
 C859 C 0.79658 0.42872 0.60856
 H860 H 0.78752 0.43713 0.62814
 O861 O 1.10492 0.64164 0.52710
 O862 O 1.13842 0.67464 0.52678
 C863 C 1.11518 0.66480 0.53670
 C864 C 1.10014 0.68011 0.55996
 C865 C 1.10958 0.70698 0.56921
 H866 H 1.12786 0.71691 0.55911
 O867 O 0.89750 0.35872 0.52810
 O868 O 0.86379 0.32593 0.52836
 C869 C 0.88682 0.33603 0.53837
 C870 C 0.90065 0.32191 0.56295
 C871 C 0.88740 0.29865 0.57636
 H872 H 0.86767 0.29001 0.56796
 O873 O 1.10394 0.47302 0.64160
 O874 O 1.13723 0.47284 0.67484
 C875 C 1.11423 0.46287 0.66451
 C876 C 1.10009 0.43840 0.67857
 C877 C 1.11219 0.42607 0.70303
 H878 H 1.13115 0.43524 0.71256
 O879 O 0.89916 0.52920 0.64199
 O880 O 0.86585 0.52928 0.67533
 C881 C 0.88889 0.53922 0.66504
 C882 C 0.90354 0.56313 0.67959
 C883 C 0.89277 0.57428 0.70528
 H884 H 0.87405 0.56493 0.71515
 O885 O 0.97413 0.64323 0.60235
 O886 O 0.97407 0.67699 0.63517
 C887 C 0.96434 0.66656 0.61210
 C888 C 0.94100 0.68130 0.59668
 C889 C 0.93110 0.70811 0.60580
 H890 H 0.94072 0.71838 0.62414
 O891 O 1.02815 0.35714 0.60161
 O892 O 1.02809 0.32354 0.63451
 C893 C 1.03753 0.33359 0.61115
 C894 C 1.06040 0.31841 0.59538
 C895 C 1.06864 0.29068 0.60315
 H896 H 1.05687 0.27953 0.61964
 O897 O 1.14275 0.39748 0.52725
 O898 O 1.17604 0.36418 0.52736
 C899 C 1.16576 0.38727 0.53728
 C900 C 1.18003 0.40174 0.56148
 C901 C 1.20425 0.38947 0.57419
 H902 H 1.21343 0.37004 0.56559
 O903 O 0.85991 0.60327 0.52746
 O904 O 0.82643 0.63638 0.52776
 C905 C 0.83676 0.61329 0.53751
 C906 C 0.82217 0.59831 0.56126
 C907 C 0.79661 0.60912 0.57276
 H908 H 0.78706 0.62820 0.56386
 Cu909 Cu 1.00115 0.38050 0.61852
 Cu910 Cu 1.00136 0.34060 0.65847
 Cu911 Cu 1.00192 0.62050 0.61877
 Cu912 Cu 1.00185 0.66082 0.65839
 Cu913 Cu 0.88239 0.38144 0.49941
 Cu914 Cu 0.84216 0.34181 0.49957
 Cu915 Cu 1.12020 0.38097 0.49940
 Cu916 Cu 1.16020 0.34105 0.49935
 Cu917 Cu 0.88256 0.61940 0.49931
 Cu918 Cu 0.84237 0.65915 0.49956
 Cu919 Cu 1.12074 0.61850 0.49918
 Cu920 Cu 1.16102 0.65810 0.49870
 Cu921 Cu 0.88366 0.50065 0.61947
 Cu922 Cu 0.84369 0.50064 0.65949
 Cu923 Cu 1.12009 0.50117 0.61907
 Cu924 Cu 1.16005 0.50095 0.65897
 C925 C 1.07587 0.42564 0.66627
 H926 H 1.06668 0.43473 0.64713
 C927 C 1.10080 0.40107 0.71463
 C928 C 0.92753 0.57603 0.66700
 H929 H 0.93566 0.56788 0.64692
 C930 C 0.90554 0.59810 0.71803
 C931 C 0.83468 0.57408 0.57378
 H932 H 0.85483 0.56612 0.56561
 C933 C 0.78371 0.59604 0.59640
 C934 C 1.16821 0.42663 0.57355
 H935 H 1.14915 0.43586 0.56430
 C936 C 1.21624 0.40158 0.59871
 C937 C 1.07514 0.33228 0.57329
 H938 H 1.06870 0.35356 0.56697
 C939 C 1.09218 0.27732 0.59003
 C940 C 0.92762 0.66798 0.57338
 H941 H 0.93472 0.64704 0.56658
 C942 C 0.90860 0.72178 0.59150
 C943 C 0.92906 0.42703 0.66810
 H944 H 0.93600 0.43377 0.64710
 C945 C 0.91020 0.40893 0.72209
 C946 C 1.07568 0.57569 0.66730
 H947 H 1.06926 0.56925 0.64605
 C948 C 1.09278 0.59280 0.72199
 C949 C 0.92585 0.33310 0.57468
 H950 H 0.93589 0.35137 0.56475
 C951 C 0.89862 0.28726 0.60159
 C952 C 1.07673 0.66741 0.57374
 H953 H 1.06963 0.64648 0.56702
 C954 C 1.09558 0.72127 0.59157
 C955 C 0.83521 0.42672 0.57418
 H956 H 0.85600 0.43384 0.56698
 C957 C 0.78167 0.40763 0.59330
 C958 C 1.16873 0.57457 0.57392
 H959 H 1.14764 0.56786 0.56730
 C960 C 1.22317 0.59242 0.59140
 O961 O 0.60370 1.02886 0.64226
 O962 O 0.63682 1.02832 0.67567
 C963 C 0.61368 1.03827 0.66563
 C964 C 0.59842 1.06142 0.68084
 C965 C 0.60765 1.07088 0.70771
 H966 H 0.62634 1.06133 0.71741
 O967 O 0.39835 0.97384 0.64211
 O968 O 0.36478 0.97390 0.67519
 C969 C 0.38809 0.96412 0.66524
 C970 C 0.40292 0.94056 0.68014
 C971 C 0.39213 0.92976 0.70591
 H972 H 0.37370 0.93964 0.71588
 O973 O 0.52962 1.14230 0.60286
 O974 O 0.52989 1.17564 0.63607
 C975 C 0.53977 1.16527 0.61298
 C976 C 0.56398 1.17948 0.59829
 C977 C 0.57652 1.20398 0.61015
 H978 H 0.56770 1.21346 0.62934
 O979 O 0.47256 0.85924 0.60310
 O980 O 0.47269 0.82592 0.63629
 C981 C 0.46268 0.83617 0.61329
 C982 C 0.43869 0.82172 0.59872
 C983 C 0.42699 0.79651 0.60990
 H984 H 0.43610 0.78691 0.62885
 O985 O 0.64423 1.10390 0.52666
 O986 O 0.67737 1.13727 0.52675
 C987 C 0.66707 1.11434 0.53685
 C988 C 0.68063 1.10076 0.56193
 C989 C 0.70317 1.11447 0.57613
 H990 H 0.71281 1.13333 0.56690
 O991 O 0.35973 0.89959 0.52673
 O992 O 0.32599 0.86682 0.52646
 C993 C 0.33609 0.89011 0.53599
 C994 C 0.32069 0.90587 0.55872
 C995 C 0.29283 0.89810 0.56653
 H996 H 0.28185 0.88175 0.55445
 O997 O 0.47329 1.10432 0.64213
 O998 O 0.47342 1.13751 0.67554
 C999 C 0.46359 1.11438 0.66540
 C1000 C 0.44052 1.09904 0.68057
 C1001 C 0.43179 1.10744 0.70802
 H1002 H 0.44168 1.12570 0.71817
 O1003 O 0.52850 0.89831 0.64162
 O1004 O 0.52869 0.86507 0.67489
 C1005 C 0.53845 0.88819 0.66469
 C1006 C 0.56241 0.90279 0.67913
 C1007 C 0.57401 0.89149 0.70430
 H1008 H 0.56441 0.87295 0.71421
 O1009 O 0.64290 0.97430 0.60175
 O1010 O 0.67663 0.97414 0.63453
 C1011 C 0.66634 0.96463 0.61131
 C1012 C 0.68129 0.94157 0.59560
 C1013 C 0.70815 0.93180 0.60463
 H1014 H 0.71834 0.94142 0.62301
 O1015 O 0.35970 1.02960 0.60274
 O1016 O 0.32610 1.02989 0.63576
 C1017 C 0.33638 1.03944 0.61254
 C1018 C 0.32129 1.06242 0.59687
 C1019 C 0.29394 1.07139 0.60543
 H1020 H 0.28367 1.06150 0.62363
 O1021 O 0.39858 1.14359 0.52699
 O1022 O 0.36515 1.17676 0.52752
 C1023 C 0.38842 1.16662 0.53712
 C1024 C 0.40312 1.18102 0.56114
 C1025 C 0.39141 1.20581 0.57332
 H1026 H 0.37287 1.21576 0.56374
 O1027 O 0.60335 0.85976 0.52659
 O1028 O 0.63689 0.82671 0.52653
 C1029 C 0.61366 0.83672 0.53644
 C1030 C 0.59902 0.82196 0.56030
 C1031 C 0.61018 0.79648 0.57146
 H1032 H 0.62883 0.78670 0.56181
 O1033 O 0.39850 1.02927 0.64225
 O1034 O 0.36519 1.02944 0.67559
 C1035 C 0.38862 1.03884 0.66564
 C1036 C 0.40433 1.06156 0.68095
 C1037 C 0.39668 1.06949 0.70884
 H1038 H 0.37986 1.05804 0.71982
 O1039 O 0.60411 0.97320 0.64126
 O1040 O 0.63770 0.97265 0.67417
 C1041 C 0.61449 0.96298 0.66411
 C1042 C 0.59988 0.93905 0.67864
 C1043 C 0.61143 0.92710 0.70358
 H1044 H 0.63072 0.93587 0.71281
 O1045 O 0.52839 0.85936 0.60248
 O1046 O 0.52865 0.82601 0.63564
 C1047 C 0.53840 0.83625 0.61248
 C1048 C 0.56227 0.82174 0.59753
 C1049 C 0.57393 0.79640 0.60848
 H1050 H 0.56485 0.78671 0.62742
 O1051 O 0.47360 1.14285 0.60284
 O1052 O 0.47361 1.17617 0.63608
 C1053 C 0.46361 1.16590 0.61306
 C1054 C 0.43941 1.18030 0.59866
 C1055 C 0.42654 1.20434 0.61117
 H1056 H 0.43477 1.21282 0.63104
 O1057 O 0.35947 1.10448 0.52652
 O1058 O 0.32586 1.13747 0.52674
 C1059 C 0.33606 1.11420 0.53624
 C1060 C 0.32095 1.09863 0.55927
 C1061 C 0.29339 1.10688 0.56781
 H1062 H 0.28255 1.12408 0.55681
 O1063 O 0.64231 0.89917 0.52597
 O1064 O 0.67595 0.86620 0.52581
 C1065 C 0.66580 0.88946 0.53542
 C1066 C 0.68108 0.90498 0.55832
 C1067 C 0.70819 0.89592 0.56733
 H1068 H 0.71861 0.87817 0.55671
 O1069 O 0.47284 0.89828 0.64210
 O1070 O 0.47292 0.86508 0.67540
 C1071 C 0.46309 0.88824 0.66531
 C1072 C 0.43944 0.90322 0.68011
 C1073 C 0.42802 0.89242 0.70566
 H1074 H 0.43705 0.87345 0.71528
 O1075 O 0.52877 1.10371 0.64260
 O1076 O 0.52885 1.13691 0.67598
 C1077 C 0.53825 1.11348 0.66605
 C1078 C 0.56101 1.09778 0.68136
 C1079 C 0.56964 1.10604 0.70887
 H1080 H 0.55847 1.12315 0.71975
 O1081 O 0.35945 0.97383 0.60305
 O1082 O 0.32569 0.97402 0.63593
 C1083 C 0.33609 0.96415 0.61285
 C1084 C 0.32111 0.94112 0.59719
 C1085 C 0.29397 0.93170 0.60586
 H1086 H 0.28423 0.94069 0.62484
 O1087 O 0.64223 1.03014 0.60302
 O1088 O 0.67536 1.03009 0.63641
 C1089 C 0.66491 1.04043 0.61365
 C1090 C 0.67867 1.06540 0.60014
 C1091 C 0.70002 1.08043 0.61479
 H1092 H 0.70666 1.07336 0.63577
 O1093 O 0.39800 0.85948 0.52776
 O1094 O 0.36442 0.82657 0.52783
 C1095 C 0.38757 0.83653 0.53771
 C1096 C 0.40205 0.82184 0.56162
 C1097 C 0.39094 0.79639 0.57285
 H1098 H 0.37249 0.78649 0.56307
 O1099 O 0.60465 1.14218 0.52636
 O1100 O 0.63783 1.17551 0.52630
 C1101 C 0.61482 1.16520 0.53637
 C1102 C 0.60054 1.17945 0.56080
 C1103 C 0.61278 1.20382 0.57317
 H1104 H 0.63198 1.21301 0.56411
 Cu1105 Cu 0.61990 1.00158 0.61874
 Cu1106 Cu 0.66006 1.00116 0.65846
 Cu1107 Cu 0.38231 1.00167 0.61920
 Cu1108 Cu 0.34204 1.00191 0.65892
 Cu1109 Cu 0.50138 1.12003 0.61923
 Cu1110 Cu 0.50152 1.16007 0.65910
 Cu1111 Cu 0.50054 0.88210 0.61897
 Cu1112 Cu 0.50078 0.84215 0.65888
 C1113 C 0.57508 1.07500 0.66788
 H1114 H 0.56841 1.06839 0.64676
 C1115 C 0.59279 1.09249 0.72239
 C1116 C 0.42682 0.92738 0.66762
 H1117 H 0.43505 0.93541 0.64756
 C1118 C 0.40416 0.90538 0.71840
 C1119 C 0.57603 1.16749 0.57345
 H1120 H 0.56684 1.14832 0.56443
 C1121 C 0.60115 1.21587 0.59797
 C1122 C 0.42612 0.83414 0.57452
 H1123 H 0.43462 0.85392 0.56616
 C1124 C 0.40295 0.78395 0.59728
 C1125 C 0.66889 1.07588 0.57384
 H1126 H 0.65148 1.06518 0.56308
 C1127 C 0.71206 1.10526 0.60322
 C1128 C 0.33432 0.92794 0.57366
 H1129 H 0.35567 0.93431 0.56746
 C1130 C 0.27915 0.91091 0.59004
 C1131 C 0.42667 1.07606 0.66726
 H1132 H 0.43281 1.06994 0.64580
 C1133 C 0.41049 1.09224 0.72269
 C1134 C 0.57528 0.92681 0.66664
 H1135 H 0.56666 0.93544 0.64702
 C1136 C 0.59883 0.90313 0.71621
 C1137 C 0.66802 0.92814 0.57228
 H1138 H 0.64703 0.93512 0.56557
 C1139 C 0.72194 0.90935 0.59028
 C1140 C 0.33453 1.07607 0.57364
 H1141 H 0.35582 1.06964 0.56725
 C1142 C 0.27962 1.09316 0.59063
 C1143 C 0.42746 1.16871 0.57369
 H1144 H 0.43655 1.14950 0.56453
 C1145 C 0.40226 1.21689 0.59894
 C1146 C 0.57488 0.83426 0.57332
 H1147 H 0.56640 0.85412 0.56510
 C1148 C 0.59802 0.78391 0.59577
 O1149 O 0.60385 0.97451 0.35541
 O1150 O 0.63703 0.97422 0.32196
 C1151 C 0.61380 0.96463 0.33216
 C1152 C 0.59831 0.94152 0.31716
 C1153 C 0.60747 0.93188 0.29025
 H1154 H 0.62639 0.94107 0.28068
 O1155 O 0.39830 1.02968 0.35743
 O1156 O 0.36476 1.03001 0.32447
 C1157 C 0.38810 1.03957 0.33439
 C1158 C 0.40282 1.06330 0.31969
 C1159 C 0.39200 1.07419 0.29401
 H1160 H 0.37451 1.06340 0.28345
 O1161 O 0.47373 1.14450 0.39640
 O1162 O 0.47389 1.17813 0.36350
 C1163 C 0.46424 1.16797 0.38671
 C1164 C 0.44119 1.18307 0.40222
 C1165 C 0.43168 1.20996 0.39310
 H1166 H 0.44182 1.22040 0.37512
 O1167 O 0.52931 0.86024 0.39443
 O1168 O 0.52947 0.82711 0.36099
 C1169 C 0.53937 0.83726 0.38410
 C1170 C 0.56332 0.82270 0.39871
 C1171 C 0.57556 0.79792 0.38700
 H1172 H 0.56698 0.78878 0.36757
 O1173 O 0.64182 0.89874 0.47026
 O1174 O 0.67541 0.86572 0.47022
 C1175 C 0.66504 0.88873 0.46035
 C1176 C 0.67981 0.90367 0.43673
 C1177 C 0.70624 0.89370 0.42660
 H1178 H 0.71614 0.87518 0.43627
 O1179 O 0.35935 1.10543 0.47076
 O1180 O 0.32591 1.13860 0.47098
 C1181 C 0.33610 1.11548 0.46105
 C1182 C 0.32093 1.10000 0.43803
 C1183 C 0.29358 1.10854 0.42908
 H1184 H 0.28384 1.12736 0.43837
 O1185 O 0.52828 1.10469 0.35628
 O1186 O 0.52822 1.13787 0.32295
 C1187 C 0.53764 1.11442 0.33275
 C1188 C 0.56027 1.09860 0.31718
 C1189 C 0.56773 1.10592 0.28906
 H1190 H 0.55561 1.12219 0.27802
 O1191 O 0.47278 0.89879 0.35617
 O1192 O 0.47260 0.86557 0.32280
 C1193 C 0.46285 0.88872 0.33305
 C1194 C 0.43939 0.90383 0.31831
 C1195 C 0.42872 0.89364 0.29224
 H1196 H 0.43781 0.87466 0.28261
 O1197 O 0.64347 1.02962 0.39450
 O1198 O 0.67686 1.02948 0.36125
 C1199 C 0.66685 1.03910 0.38458
 C1200 C 0.68217 1.06185 0.40020
 C1201 C 0.70911 1.07132 0.39104
 H1202 H 0.71903 1.06186 0.37238
 O1203 O 0.35956 0.97375 0.39628
 O1204 O 0.32619 0.97369 0.36313
 C1205 C 0.33645 0.96387 0.38620
 C1206 C 0.32193 0.94005 0.40091
 C1207 C 0.29662 0.92858 0.38978
 H1208 H 0.28680 0.93798 0.37109
 O1209 O 0.60559 1.14258 0.47038
 O1210 O 0.63873 1.17593 0.47028
 C1211 C 0.61562 1.16574 0.46050
 C1212 C 0.60017 1.18081 0.43738
 C1213 C 0.60886 1.20800 0.42822
 H1214 H 0.62784 1.21753 0.43728
 O1215 O 0.39942 0.85960 0.47198
 O1216 O 0.36613 0.82639 0.47200
 C1217 C 0.38942 0.83639 0.46228
 C1218 C 0.40447 0.82146 0.43876
 C1219 C 0.39442 0.79516 0.42857
 H1220 H 0.37643 0.78493 0.43888
 O1221 O 0.39806 0.97416 0.35663
 O1222 O 0.36477 0.97444 0.32339
 C1223 C 0.38801 0.96464 0.33332
 C1224 C 0.40308 0.94131 0.31820
 C1225 C 0.39306 0.93116 0.29185
 H1226 H 0.37491 0.94131 0.28173
 O1227 O 0.60409 1.03025 0.35582
 O1228 O 0.63719 1.03009 0.32229
 C1229 C 0.61406 1.03998 0.33257
 C1230 C 0.59848 1.06304 0.31755
 C1231 C 0.60674 1.07186 0.29010
 H1232 H 0.62540 1.06242 0.28016
 O1233 O 0.47352 0.86000 0.39540
 O1234 O 0.47348 0.82664 0.36219
 C1235 C 0.46380 0.83675 0.38548
 C1236 C 0.44054 0.82180 0.40088
 C1237 C 0.42978 0.79575 0.39070
 H1238 H 0.43877 0.78614 0.37165
 O1239 O 0.52919 1.14334 0.39622
 O1240 O 0.52935 1.17689 0.36326
 C1241 C 0.53886 1.16668 0.38651
 C1242 C 0.56183 1.18171 0.40212
 C1243 C 0.56953 1.20967 0.39473
 H1244 H 0.55731 1.22090 0.37866
 O1245 O 0.35994 0.89825 0.47118
 O1246 O 0.32660 0.86509 0.47100
 C1247 C 0.33687 0.88813 0.46119
 C1248 C 0.32227 0.90285 0.43742
 C1249 C 0.29711 0.89152 0.42577
 H1250 H 0.28776 0.87235 0.43468
 O1251 O 0.64436 1.10306 0.47097
 O1252 O 0.67774 1.13618 0.47101
 C1253 C 0.66771 1.11292 0.46139
 C1254 C 0.68278 1.09761 0.43819
 C1255 C 0.70995 1.10638 0.42913
 H1256 H 0.72068 1.12371 0.44003
 O1257 O 0.52831 0.89966 0.35566
 O1258 O 0.52816 0.86669 0.32204
 C1259 C 0.53770 0.89000 0.33210
 C1260 C 0.56056 0.90560 0.31679
 C1261 C 0.56920 0.89715 0.28933
 H1262 H 0.55780 0.88021 0.27853
 O1263 O 0.47257 1.10552 0.35758
 O1264 O 0.47233 1.13902 0.32458
 C1265 C 0.46233 1.11601 0.33481
 C1266 C 0.43820 1.10152 0.32051
 C1267 C 0.42578 1.11321 0.29586
 H1268 H 0.43392 1.13302 0.28721
 O1269 O 0.35892 1.02931 0.39656
 O1270 O 0.32518 1.02923 0.36377
 C1271 C 0.33535 1.03875 0.38703
 C1272 C 0.32012 1.06161 0.40275
 C1273 C 0.29212 1.06932 0.39535
 H1274 H 0.28094 1.05721 0.37916
 O1275 O 0.64242 0.97415 0.39476
 O1276 O 0.67586 0.97381 0.36156
 C1277 C 0.66558 0.96418 0.38476
 C1278 C 0.68024 0.94067 0.39995
 C1279 C 0.70689 0.93064 0.39045
 H1280 H 0.71741 0.94078 0.37253
 O1281 O 0.60320 0.85950 0.47069
 O1282 O 0.63673 0.82643 0.47060
 C1283 C 0.61358 0.83650 0.46072
 C1284 C 0.59929 0.82207 0.43651
 C1285 C 0.61096 0.79710 0.42468
 H1286 H 0.62950 0.78721 0.43433
 O1287 O 0.39855 1.14428 0.47138
 O1288 O 0.36534 1.17768 0.47175
 C1289 C 0.38860 1.16765 0.46195
 C1290 C 0.40399 1.18284 0.43892
 C1291 C 0.39466 1.20966 0.42939
 H1292 H 0.37647 1.21993 0.43940
 Cu1293 Cu 0.62010 1.00221 0.37842
 Cu1294 Cu 0.66007 1.00189 0.33839
 Cu1295 Cu 0.38207 1.00176 0.38004
 Cu1296 Cu 0.34186 1.00194 0.34035
 Cu1297 Cu 0.62138 1.11961 0.49846
 Cu1298 Cu 0.66123 1.15959 0.49845
 Cu1299 Cu 0.61927 0.88256 0.49846
 Cu1300 Cu 0.65955 0.84289 0.49837
 Cu1301 Cu 0.38230 1.12112 0.49884
 Cu1302 Cu 0.34224 1.16099 0.49931
 Cu1303 Cu 0.38267 0.88250 0.49947
 Cu1304 Cu 0.34247 0.84285 0.49938
 Cu1305 Cu 0.50105 1.12113 0.37988
 Cu1306 Cu 0.50113 1.16129 0.34018
 Cu1307 Cu 0.50100 0.88295 0.37879
 Cu1308 Cu 0.50095 0.84310 0.33871
 C1309 C 0.57482 0.92825 0.33022
 H1310 H 0.56818 0.93499 0.35134
 C1311 C 0.59263 0.91018 0.27577
 C1312 C 0.42635 1.07672 0.33243
 H1313 H 0.43495 1.06829 0.35214
 C1314 C 0.40240 1.09987 0.28267
 C1315 C 0.42745 1.16987 0.42538
 H1316 H 0.43447 1.14897 0.43229
 C1317 C 0.40860 1.22335 0.40672
 C1318 C 0.57527 0.83453 0.42355
 H1319 H 0.56638 0.85400 0.43233
 C1320 C 0.59956 0.78530 0.39965
 C1321 C 0.66706 0.92729 0.42337
 H1322 H 0.64643 0.93478 0.43072
 C1323 C 0.72009 0.90739 0.40387
 C1324 C 0.33402 1.07658 0.42462
 H1325 H 0.35547 1.07044 0.43071
 C1326 C 0.27848 1.09267 0.40852
 C1327 C 0.57528 1.07662 0.33090
 H1328 H 0.56938 1.07059 0.35243
 C1329 C 0.59081 1.09248 0.27514
 C1330 C 0.42657 0.92780 0.33099
 H1331 H 0.43429 0.93538 0.35141
 C1332 C 0.40587 0.90745 0.27868
 C1333 C 0.66930 1.07501 0.42392
 H1334 H 0.64827 1.06824 0.43073
 C1335 C 0.72335 1.09319 0.40575
 C1336 C 0.33443 0.92724 0.42496
 H1337 H 0.35417 0.93572 0.43343
 C1338 C 0.28451 0.90405 0.40179
 C1339 C 0.57674 1.16780 0.42404
 H1340 H 0.57053 1.14643 0.43023
 C1341 C 0.59298 1.22318 0.40772
 C1342 C 0.42785 0.83436 0.42506
 H1343 H 0.43555 0.85477 0.43266
 C1344 C 0.40704 0.78212 0.40470
 O1345 O 0.47262 0.39579 0.85682
 O1346 O 0.47267 0.36283 0.82320
 C1347 C 0.46289 0.38595 0.83353
 C1348 C 0.43985 0.40158 0.81856
 C1349 C 0.42970 0.39217 0.79196
 H1350 H 0.43817 0.37275 0.78269
 O1351 O 0.52733 0.60356 0.85677
 O1352 O 0.52759 0.63685 0.82354
 C1353 C 0.53707 0.61349 0.83351
 C1354 C 0.56009 0.59801 0.81833
 C1355 C 0.56932 0.60699 0.79128
 H1356 H 0.55884 0.62476 0.78085
 O1357 O 0.36011 0.47247 0.89541
 O1358 O 0.32662 0.47213 0.86240
 C1359 C 0.33697 0.46246 0.88551
 C1360 C 0.32232 0.43900 0.90078
 C1361 C 0.29582 0.42878 0.89123
 H1362 H 0.28583 0.43815 0.87262
 O1363 O 0.64136 0.52874 0.89586
 O1364 O 0.67470 0.52878 0.86257
 C1365 C 0.66445 0.53867 0.88568
 C1366 C 0.67898 0.56257 0.90038
 C1367 C 0.70405 0.57447 0.88896
 H1368 H 0.71344 0.56562 0.86973
 O1369 O 0.39908 0.35661 0.97130
 O1370 O 0.36586 0.32334 0.97163
 C1371 C 0.38918 0.33318 0.96194
 C1372 C 0.40460 0.31773 0.93901
 C1373 C 0.39647 0.29008 0.93083
 H1374 H 0.37954 0.27928 0.94229
 O1375 O 0.60205 0.64220 0.97217
 O1376 O 0.63520 0.67554 0.97212
 C1377 C 0.61200 0.66542 0.96243
 C1378 C 0.59694 0.68034 0.93901
 C1379 C 0.60689 0.70673 0.92897
 H1380 H 0.62491 0.71694 0.93922
 O1381 O 0.39831 0.52837 0.85606
 O1382 O 0.36498 0.52819 0.82286
 C1383 C 0.38824 0.53789 0.83278
 C1384 C 0.40352 0.56089 0.81755
 C1385 C 0.39511 0.56941 0.79011
 H1386 H 0.37788 0.55835 0.77939
 O1387 O 0.60240 0.47275 0.85701
 O1388 O 0.63584 0.47268 0.82381
 C1389 C 0.61269 0.46283 0.83394
 C1390 C 0.59829 0.43880 0.81933
 C1391 C 0.61002 0.42720 0.79428
 H1392 H 0.62868 0.43684 0.78459
 O1393 O 0.52854 0.35682 0.89541
 O1394 O 0.52885 0.32364 0.86201
 C1395 C 0.53859 0.33379 0.88519
 C1396 C 0.56239 0.31924 0.90007
 C1397 C 0.57396 0.29373 0.88927
 H1398 H 0.56502 0.28407 0.87027
 O1399 O 0.47157 0.64258 0.89586
 O1400 O 0.47157 0.67594 0.86272
 C1401 C 0.46163 0.66567 0.88578
 C1402 C 0.43769 0.68015 0.90058
 C1403 C 0.42559 0.70509 0.88922
 H1404 H 0.43434 0.71444 0.86996
 O1405 O 0.35901 0.60281 0.97177
 O1406 O 0.32523 0.63563 0.97214
 C1407 C 0.33558 0.61257 0.96223
 C1408 C 0.32062 0.59723 0.93896
 C1409 C 0.29324 0.60574 0.93017
 H1410 H 0.28244 0.62311 0.94102
 O1411 O 0.64143 0.39679 0.97136
 O1412 O 0.67490 0.36366 0.97105
 C1413 C 0.66453 0.38674 0.96125
 C1414 C 0.67888 0.40149 0.93718
 C1415 C 0.70374 0.38995 0.92489
 H1416 H 0.71325 0.37076 0.93358
 O1417 O 0.47190 0.60403 0.85641
 O1418 O 0.47208 0.63722 0.82308
 C1419 C 0.46238 0.61400 0.83309
 C1420 C 0.43953 0.59850 0.81785
 C1421 C 0.43039 0.60722 0.79068
 H1422 H 0.44008 0.62561 0.78059
 O1423 O 0.52829 0.39614 0.85690
 O1424 O 0.52861 0.36312 0.82333
 C1425 C 0.53832 0.38621 0.83373
 C1426 C 0.56217 0.40115 0.81933
 C1427 C 0.57453 0.38966 0.79450
 H1428 H 0.56602 0.37031 0.78515
 O1429 O 0.64118 0.47287 0.89626
 O1430 O 0.67464 0.47287 0.86309
 C1431 C 0.66434 0.46295 0.88615
 C1432 C 0.67885 0.43889 0.90067
 C1433 C 0.70383 0.42710 0.88894
 H1434 H 0.71336 0.43634 0.87000
 O1435 O 0.35962 0.52823 0.89568
 O1436 O 0.32606 0.52800 0.86274
 C1437 C 0.33622 0.53779 0.88590
 C1438 C 0.32101 0.56082 0.90148
 C1439 C 0.29376 0.56987 0.89281
 H1440 H 0.28346 0.55982 0.87471
 O1441 O 0.39745 0.64246 0.97188
 O1442 O 0.36383 0.67542 0.97221
 C1443 C 0.38703 0.66552 0.96219
 C1444 C 0.40144 0.68028 0.93823
 C1445 C 0.38998 0.70551 0.92685
 H1446 H 0.37149 0.71537 0.93670
 O1447 O 0.60297 0.35718 0.97128
 O1448 O 0.63642 0.32402 0.97109
 C1449 C 0.61319 0.33405 0.96140
 C1450 C 0.59851 0.31923 0.93769
 C1451 C 0.60930 0.29339 0.92699
 H1452 H 0.62739 0.28325 0.93723
 O1453 O 0.60244 0.52845 0.85664
 O1454 O 0.63570 0.52832 0.82326
 C1455 C 0.61245 0.53807 0.83334
 C1456 C 0.59717 0.56127 0.81829
 C1457 C 0.60647 0.57091 0.79144
 H1458 H 0.62487 0.56114 0.78132
 O1459 O 0.39930 0.47300 0.85633
 O1460 O 0.36602 0.47280 0.82307
 C1461 C 0.38945 0.46338 0.83299
 C1462 C 0.40490 0.44031 0.81781
 C1463 C 0.39634 0.43170 0.79044
 H1464 H 0.37967 0.44344 0.77956
 O1465 O 0.52733 0.64241 0.89612
 O1466 O 0.52756 0.67592 0.86314
 C1467 C 0.53719 0.66562 0.88629
 C1468 C 0.56055 0.68034 0.90163
 C1469 C 0.57103 0.70658 0.89174
 H1470 H 0.56176 0.71637 0.87297
 O1471 O 0.47291 0.35640 0.89544
 O1472 O 0.47301 0.32313 0.86213
 C1473 C 0.46332 0.33313 0.88543
 C1474 C 0.44043 0.31795 0.90104
 C1475 C 0.43140 0.29067 0.89253
 H1476 H 0.44110 0.28051 0.87412
 O1477 O 0.64147 0.60335 0.97178
 O1478 O 0.67470 0.63663 0.97169
 C1479 C 0.66458 0.61350 0.96186
 C1480 C 0.67919 0.59891 0.93788
 C1481 C 0.70451 0.61013 0.92644
 H1482 H 0.71444 0.62856 0.93623
 O1483 O 0.36096 0.39695 0.97077
 O1484 O 0.32755 0.36385 0.97073
 C1485 C 0.33769 0.38707 0.96107
 C1486 C 0.32260 0.40238 0.93793
 C1487 C 0.29582 0.39294 0.92846
 H1488 H 0.28560 0.37499 0.93883
 Cu1489 Cu 0.50049 0.37958 0.87950
 Cu1490 Cu 0.50075 0.33987 0.83926
 Cu1491 Cu 0.49952 0.61984 0.87965
 Cu1492 Cu 0.49978 0.65994 0.83986
 Cu1493 Cu 0.38263 0.50058 0.87922
 Cu1494 Cu 0.34250 0.50024 0.83949
 Cu1495 Cu 0.61852 0.50078 0.87979
 Cu1496 Cu 0.65862 0.50066 0.83990
 C1497 C 0.42722 0.42563 0.83133
 H1498 H 0.43415 0.43238 0.85232
 C1499 C 0.40854 0.40758 0.77728
 C1500 C 0.57383 0.57484 0.83143
 H1501 H 0.56690 0.56793 0.85237
 C1502 C 0.59233 0.59342 0.77761
 C1503 C 0.33546 0.42575 0.92426
 H1504 H 0.35619 0.43308 0.93137
 C1505 C 0.28226 0.40606 0.90524
 C1506 C 0.66677 0.57491 0.92491
 H1507 H 0.64706 0.56634 0.93342
 C1508 C 0.71665 0.59845 0.90166
 C1509 C 0.42695 0.33120 0.92434
 H1510 H 0.43334 0.35250 0.93059
 C1511 C 0.40997 0.27624 0.90780
 C1512 C 0.57350 0.66750 0.92544
 H1513 H 0.56590 0.64700 0.93287
 C1514 C 0.59398 0.72002 0.90546
 C1515 C 0.42606 0.57523 0.83099
 H1516 H 0.43260 0.56877 0.85219
 C1517 C 0.40862 0.59238 0.77641
 C1518 C 0.57415 0.42581 0.83154
 H1519 H 0.56522 0.43439 0.85110
 C1520 C 0.59866 0.40234 0.78221
 C1521 C 0.57482 0.33179 0.92432
 H1522 H 0.56654 0.35185 0.93233
 C1523 C 0.59762 0.28092 0.90243
 C1524 C 0.42552 0.66797 0.92515
 H1525 H 0.43428 0.64834 0.93361
 C1526 C 0.40156 0.71763 0.90202
 C1527 C 0.33414 0.57451 0.92471
 H1528 H 0.35532 0.56795 0.93125
 C1529 C 0.27956 0.59194 0.90738
 C1530 C 0.66667 0.42610 0.92498
 H1531 H 0.64715 0.43479 0.93388
 C1532 C 0.71609 0.40261 0.90078
 O1533 O 0.52950 0.39705 1.14298
 O1534 O 0.52950 0.36387 1.17631
 C1535 C 0.53929 0.38700 1.16615
 C1536 C 0.56246 0.40235 1.18113
 C1537 C 0.57208 0.39329 1.20801
 H1538 H 0.56285 0.37450 1.21776
 O1539 O 0.47296 0.60204 1.14264
 O1540 O 0.47273 0.63516 1.17613
 C1541 C 0.46299 0.61209 1.16579
 C1542 C 0.43866 0.59783 1.17990
 C1543 C 0.42643 0.60977 1.20451
 H1544 H 0.43673 0.62759 1.21500
 O1545 O 0.35820 0.52637 1.10189
 O1546 O 0.32442 0.52599 1.13475
 C1547 C 0.33463 0.53575 1.11157
 C1548 C 0.31962 0.55901 1.09628
 C1549 C 0.29284 0.56884 1.10573
 H1550 H 0.28230 0.55851 1.12353
 O1551 O 0.64215 0.47131 1.10314
 O1552 O 0.67562 0.47120 1.13617
 C1553 C 0.66514 0.46116 1.11326
 C1554 C 0.67929 0.43682 1.09879
 C1555 C 0.70377 0.42431 1.11071
 H1556 H 0.71299 0.43303 1.13004
 O1557 O 0.60261 0.35720 1.02692
 O1558 O 0.63579 0.32377 1.02660
 C1559 C 0.61251 0.33382 1.03637
 C1560 C 0.59723 0.31874 1.05958
 C1561 C 0.60525 0.29105 1.06775
 H1562 H 0.62171 0.27991 1.05585
 O1563 O 0.39794 0.64175 1.02772
 O1564 O 0.36432 0.67472 1.02817
 C1565 C 0.38759 0.66467 1.03788
 C1566 C 0.40194 0.67893 1.06222
 C1567 C 0.38964 0.70317 1.07495
 H1568 H 0.37102 0.71303 1.06543
 O1569 O 0.39889 0.47290 1.14238
 O1570 O 0.36567 0.47294 1.17580
 C1571 C 0.38929 0.46373 1.16601
 C1572 C 0.40530 0.44143 1.18168
 C1573 C 0.39746 0.43376 1.20956
 H1574 H 0.38073 0.44556 1.22038
 O1575 O 0.60447 0.52812 1.14208
 O1576 O 0.63793 0.52825 1.17514
 C1577 C 0.61474 0.53807 1.16510
 C1578 C 0.59955 0.56137 1.18013
 C1579 C 0.60919 0.57151 1.20664
 H1580 H 0.62848 0.56275 1.21590
 O1581 O 0.47364 0.35866 1.10376
 O1582 O 0.47322 0.32544 1.13704
 C1583 C 0.46355 0.33566 1.11386
 C1584 C 0.43976 0.32118 1.09893
 C1585 C 0.42788 0.29609 1.11015
 H1586 H 0.43658 0.28670 1.12939
 O1587 O 0.52862 0.64154 1.10405
 O1588 O 0.52850 0.67460 1.13755
 C1589 C 0.53843 0.66459 1.11437
 C1590 C 0.56224 0.67932 1.09969
 C1591 C 0.57401 0.70440 1.11112
 H1592 H 0.56510 0.71371 1.13036
 O1593 O 0.35986 0.39671 1.02638
 O1594 O 0.32620 0.36385 1.02622
 C1595 C 0.33637 0.38701 1.03589
 C1596 C 0.32130 0.40227 1.05914
 C1597 C 0.29380 0.39389 1.06763
 H1598 H 0.28273 0.37751 1.05568
 O1599 O 0.64145 0.60296 1.02755
 O1600 O 0.67463 0.63628 1.02749
 C1601 C 0.66456 0.61313 1.03735
 C1602 C 0.67928 0.59856 1.06120
 C1603 C 0.70348 0.61095 1.07377
 H1604 H 0.71215 0.63065 1.06537
 O1605 O 0.52846 0.60203 1.14275
 O1606 O 0.52814 0.63497 1.17641
 C1607 C 0.53788 0.61180 1.16621
 C1608 C 0.56111 0.59656 1.18117
 C1609 C 0.57001 0.60528 1.20840
 H1610 H 0.55850 0.62210 1.21937
 O1611 O 0.47383 0.39737 1.14314
 O1612 O 0.47366 0.36438 1.17666
 C1613 C 0.46405 0.38760 1.16647
 C1614 C 0.44108 0.40341 1.18156
 C1615 C 0.43185 0.39505 1.20886
 H1616 H 0.44116 0.37640 1.21884
 O1617 O 0.64272 0.52714 1.10232
 O1618 O 0.67628 0.52724 1.13527
 C1619 C 0.66592 0.53702 1.11220
 C1620 C 0.68017 0.56110 1.09755
 C1621 C 0.70456 0.57367 1.10953
 H1622 H 0.71417 0.56465 1.12851
 O1623 O 0.35980 0.47064 1.10324
 O1624 O 0.32633 0.47018 1.13640
 C1625 C 0.33683 0.46039 1.11336
 C1626 C 0.32220 0.43697 1.09803
 C1627 C 0.29554 0.42693 1.10737
 H1628 H 0.28617 0.43551 1.12672
 O1629 O 0.60272 0.64235 1.02798
 O1630 O 0.63591 0.67566 1.02784
 C1631 C 0.61289 0.66544 1.03786
 C1632 C 0.59844 0.67989 1.06202
 C1633 C 0.60963 0.70517 1.07352
 H1634 H 0.62797 0.71524 1.06367
 O1635 O 0.39955 0.35822 1.02701
 O1636 O 0.36599 0.32527 1.02735
 C1637 C 0.38919 0.33535 1.03713
 C1638 C 0.40368 0.32089 1.06120
 C1639 C 0.39249 0.29554 1.07248
 H1640 H 0.37413 0.28556 1.06261
 O1641 O 0.60357 0.47262 1.14282
 O1642 O 0.63689 0.47278 1.17603
 C1643 C 0.61348 0.46326 1.16624
 C1644 C 0.59806 0.44037 1.18161
 C1645 C 0.60645 0.43190 1.20910
 H1646 H 0.62333 0.44336 1.21995
 O1647 O 0.39669 0.52839 1.14114
 O1648 O 0.36298 0.52851 1.17408
 C1649 C 0.38594 0.53867 1.16385
 C1650 C 0.40002 0.56302 1.17811
 C1651 C 0.38710 0.57647 1.20163
 H1652 H 0.36667 0.56894 1.20945
 O1653 O 0.47264 0.64090 1.10370
 O1654 O 0.47238 0.67398 1.13720
 C1655 C 0.46240 0.66374 1.11415
 C1656 C 0.43795 0.67795 1.09999
 C1657 C 0.42446 0.70133 1.11307
 H1658 H 0.43236 0.70940 1.13324
 O1659 O 0.52937 0.35810 1.10396
 O1660 O 0.52921 0.32463 1.13699
 C1661 C 0.53904 0.33480 1.11384
 C1662 C 0.56206 0.31965 1.09819
 C1663 C 0.57144 0.29259 1.10698
 H1664 H 0.56226 0.28290 1.12586
 O1665 O 0.64186 0.39611 1.02737
 O1666 O 0.67517 0.36284 1.02720
 C1667 C 0.66493 0.38586 1.03728
 C1668 C 0.67935 0.40017 1.06152
 C1669 C 0.70403 0.38821 1.07366
 H1670 H 0.71359 0.36927 1.06438
 O1671 O 0.35884 0.60261 1.02746
 O1672 O 0.32515 0.63552 1.02775
 C1673 C 0.33543 0.61231 1.03724
 C1674 C 0.32029 0.59674 1.06022
 C1675 C 0.29368 0.60638 1.07019
 H1676 H 0.28386 0.62508 1.06080
 Cu1677 Cu 0.50161 0.38110 1.12015
 Cu1678 Cu 0.50137 0.34119 1.16006
 Cu1679 Cu 0.50080 0.61836 1.11986
 Cu1680 Cu 0.50050 0.65810 1.16011
 Cu1681 Cu 0.38324 0.38040 0.99878
 Cu1682 Cu 0.34308 0.34073 0.99893
 Cu1683 Cu 0.61893 0.38019 0.99928
 Cu1684 Cu 0.65901 0.34035 0.99899
 Cu1685 Cu 0.38171 0.61916 0.99967
 Cu1686 Cu 0.34133 0.65870 1.00011
 Cu1687 Cu 0.61858 0.61938 0.99986
 Cu1688 Cu 0.65846 0.65935 0.99973
 Cu1689 Cu 0.38172 0.49951 1.11883
 Cu1690 Cu 0.34146 0.49925 1.15858
 Cu1691 Cu 0.61991 0.49977 1.11925
 Cu1692 Cu 0.66018 0.49982 1.15885
 C1693 C 0.57560 0.42590 1.16814
 H1694 H 0.56888 0.43247 1.14704
 C1695 C 0.59339 0.40852 1.22263
 C1696 C 0.42566 0.57406 1.16720
 H1697 H 0.43509 0.56465 1.14826
 C1698 C 0.39997 0.60015 1.21470
 C1699 C 0.33295 0.57287 1.07322
 H1700 H 0.35373 0.56566 1.06600
 C1701 C 0.27967 0.59232 1.09260
 C1702 C 0.66729 0.42466 1.07411
 H1703 H 0.64803 0.43378 1.06516
 C1704 C 0.71595 0.39985 1.09851
 C1705 C 0.57515 0.33254 1.07451
 H1706 H 0.56865 0.35378 1.06812
 C1707 C 0.59225 0.27761 1.09125
 C1708 C 0.42643 0.66678 1.07463
 H1709 H 0.43599 0.64802 1.06504
 C1710 C 0.40005 0.71377 1.10097
 C1711 C 0.42764 0.42662 1.16819
 H1712 H 0.43395 0.43259 1.14676
 C1713 C 0.41066 0.41065 1.22346
 C1714 C 0.57554 0.57411 1.16756
 H1715 H 0.56856 0.56708 1.14668
 C1716 C 0.59401 0.59282 1.22142
 C1717 C 0.42755 0.33339 1.07438
 H1718 H 0.43612 0.35313 1.06600
 C1719 C 0.40405 0.28346 1.09726
 C1720 C 0.57455 0.66732 1.07506
 H1721 H 0.56602 0.64763 1.06650
 C1722 C 0.59788 0.71720 1.09834
 C1723 C 0.33498 0.42438 1.07398
 H1724 H 0.35599 0.43128 1.06724
 C1725 C 0.28059 0.40619 1.09167
 C1726 C 0.66786 0.57352 1.07316
 H1727 H 0.64873 0.56428 1.06408
 C1728 C 0.71583 0.59889 1.09814
 C1729 C 1.10553 1.13155 1.25674
 C1730 C 1.11530 1.14178 1.28282
 C1731 C 1.12497 1.12313 1.30418
 C1732 C 1.12173 1.09315 1.29987
 C1733 C 1.11031 1.08280 1.27365
 C1734 C 1.10344 1.10221 1.25136
 C1735 C 1.10479 1.05337 1.27115
 N1736 N 1.11108 1.03548 1.29292
 N1737 N 1.12187 1.04503 1.31735
 C1738 C 1.12707 1.07311 1.32172
 H1739 H 1.10014 1.14687 1.24031
 H1740 H 1.11696 1.16468 1.28555
 H1741 H 1.09469 1.04437 1.25252
 H1742 H 1.13416 1.07929 1.34269
 C1743 C 1.11131 0.63063 0.75379
 C1744 C 1.12158 0.64058 0.77982
 C1745 C 1.12335 0.62251 0.80352
 C1746 C 1.11345 0.59406 0.80121
 C1747 C 1.10281 0.58392 0.77470
 C1748 C 1.10228 0.60232 0.75066
 C1749 C 1.09223 0.55586 0.77345
 N1750 N 1.09267 0.53917 0.79706
 N1751 N 1.10265 0.54870 0.82189
 C1752 C 1.11288 0.57557 0.82480
 H1753 H 1.11091 0.64504 0.73573
 H1754 H 1.12881 0.66248 0.78130
 H1755 H 1.08319 0.54715 0.75412
 H1756 H 1.11987 0.58240 0.84564
 C1757 C 0.60597 1.13153 0.75564
 C1758 C 0.61662 1.14199 0.78126
 C1759 C 0.62575 1.12351 0.80304
 C1760 C 0.62113 1.09359 0.79960
 C1761 C 0.60902 1.08308 0.77375
 C1762 C 0.60260 1.10220 0.75110
 C1763 C 0.60245 1.05381 0.77195
 N1764 N 0.60821 1.03622 0.79410
 N1765 N 0.61950 1.04593 0.81824
 C1766 C 0.62580 1.07389 0.82190
 H1767 H 0.60098 1.14662 0.73887
 H1768 H 0.61933 1.16486 0.78326
 H1769 H 0.59198 1.04477 0.75354
 H1770 H 0.63323 1.08029 0.84268
 C1771 C 0.60603 0.63340 1.25316
 C1772 C 0.61697 0.64520 1.27802
 C1773 C 0.62825 0.62793 1.29974
 C1774 C 0.62539 0.59772 1.29729
 C1775 C 0.61285 0.58574 1.27232
 C1776 C 0.60437 0.60378 1.24947
 C1777 C 0.60803 0.55609 1.27161
 N1778 N 0.61590 0.53955 1.29394
 N1779 N 0.62768 0.55065 1.31724
 C1780 C 0.63238 0.57904 1.31984
 H1781 H 0.59953 0.64772 1.23624
 H1782 H 0.61841 0.66825 1.27925
 H1783 H 0.59732 0.54589 1.25397
 H1784 H 0.64040 0.58658 1.34003
 C1785 C 0.86849 0.89906 1.25524
 C1786 C 0.85735 0.88789 1.28034
 C1787 C 0.87520 0.87621 1.30137
 C1788 C 0.90535 0.87889 1.29805
 C1789 C 0.91667 0.89191 1.27300
 C1790 C 0.89803 0.90066 1.25070
 C1791 C 0.94630 0.89689 1.27168
 N1792 N 0.96344 0.88853 1.29337
 N1793 N 0.95297 0.87611 1.31664
 C1794 C 0.92464 0.87129 1.31988
 H1795 H 0.85368 0.90572 1.23880
 H1796 H 0.83432 0.88661 1.28232
 H1797 H 0.95601 0.90814 1.25408
 H1798 H 0.91763 0.86265 1.34002
 C1799 C 0.86894 0.39728 0.75318
 C1800 C 0.85654 0.38625 0.77772
 C1801 C 0.87325 0.37428 0.79950
 C1802 C 0.90357 0.37655 0.79751
 C1803 C 0.91620 0.38927 0.77291
 C1804 C 0.89867 0.39845 0.74992
 C1805 C 0.94596 0.39351 0.77273
 N1806 N 0.96201 0.38492 0.79516
 N1807 N 0.95031 0.37294 0.81807
 C1808 C 0.92177 0.36876 0.82018
 H1809 H 0.85495 0.40422 0.73616
 H1810 H 0.83343 0.38523 0.77856
 H1811 H 0.95664 0.40434 0.75543
 H1812 H 0.91374 0.36049 0.84009
 C1813 C 0.40808 0.89050 0.76897
 C1814 C 0.39677 0.87962 0.79423
 C1815 C 0.36818 0.87116 0.79573
 C1816 C 0.35083 0.87273 0.77103
 C1817 C 0.36246 0.88332 0.74517
 C1818 C 0.39120 0.89287 0.74440
 C1819 C 0.34507 0.88314 0.72067
 N1820 N 0.31778 0.87367 0.72233
 N1821 N 0.30677 0.86408 0.74670
 C1822 C 0.32235 0.86316 0.77104
 H1823 H 0.43014 0.89742 0.76864
 H1824 H 0.41033 0.87813 0.81289
 H1825 H 0.35295 0.88995 0.70010
 H1826 H 0.31239 0.85460 0.79001
 C1827 C 0.37095 0.39958 1.25667
 C1828 C 0.35978 0.38968 1.28227
 C1829 C 0.37759 0.37979 1.30430
 C1830 C 0.40773 0.38321 1.30108
 C1831 C 0.41906 0.39453 1.27517
 C1832 C 0.40046 0.40152 1.25227
 C1833 C 0.44864 0.39968 1.27356
 N1834 N 0.46573 0.39336 1.29596
 N1835 N 0.45523 0.38286 1.32015
 C1836 C 0.42694 0.37791 1.32358
 H1837 H 0.35618 0.40496 1.23974
 H1838 H 0.33676 0.38786 1.28382
 H1839 H 0.45836 0.40944 1.25509
 H1840 H 0.41984 0.37115 1.34430
 C1841 C 0.89749 1.12969 0.74110
 C1842 C 0.88369 1.14389 0.71902
 C1843 C 0.85383 1.14659 0.71861
 C1844 C 0.83787 1.13706 0.74279
 C1845 C 0.85228 1.12379 0.76599
 C1846 C 0.88222 1.11890 0.76442
 C1847 C 0.83640 1.11721 0.79072
 N1848 N 0.80803 1.12269 0.79178
 N1849 N 0.79448 1.13496 0.77011
 C1850 C 0.80837 1.14263 0.74592
 H1851 H 0.92040 1.12672 0.73970
 H1852 H 0.89648 1.15141 0.70126
 H1853 H 0.84625 1.10860 0.80965
 H1854 H 0.79620 1.15403 0.73012
 C1855 C 0.88359 0.59970 0.23488
 C1856 C 0.87080 0.61227 0.21125
 C1857 C 0.86095 0.64044 0.21246
 C1858 C 0.86297 0.65595 0.23835
 C1859 C 0.87567 0.64303 0.26255
 C1860 C 0.88662 0.61487 0.26046
 C1861 C 0.87621 0.65853 0.28831
 N1862 N 0.86519 0.68527 0.28941
 N1863 N 0.85344 0.69746 0.26661
 C1864 C 0.85185 0.68372 0.24118
 H1865 H 0.89154 0.57806 0.23311
 H1866 H 0.86908 0.60011 0.19164
 H1867 H 0.88487 0.64957 0.30770
 H1868 H 0.84153 0.69450 0.22362
 C1869 C 0.40664 1.12241 0.23493
 C1870 C 0.39533 1.13370 0.20996
 C1871 C 0.36577 1.13420 0.20528
 C1872 C 0.34709 1.12569 0.22778
 C1873 C 0.35876 1.11590 0.25403
 C1874 C 0.38884 1.11284 0.25700
 C1875 C 0.33991 1.11091 0.27699
 N1876 N 0.31141 1.11424 0.27350
 N1877 N 0.30041 1.12295 0.24886
 C1878 C 0.31716 1.12909 0.22609
 H1879 H 0.42963 1.12074 0.23680
 H1880 H 0.41001 1.14061 0.19344
 H1881 H 0.34744 1.10527 0.29800
 H1882 H 0.30675 1.13760 0.20745
 C1883 C 0.36909 0.60810 0.74519
 C1884 C 0.35817 0.61884 0.71981
 C1885 C 0.37614 0.62457 0.69665
 C1886 C 0.40562 0.61812 0.69866
 C1887 C 0.41671 0.60648 0.72434
 C1888 C 0.39831 0.60221 0.74810
 C1889 C 0.44576 0.59883 0.72501
 N1890 N 0.46254 0.60336 0.70183
 N1891 N 0.45221 0.61471 0.67794
 C1892 C 0.42434 0.62214 0.67551
 H1893 H 0.35464 0.60494 0.76299
 H1894 H 0.33555 0.62359 0.71854
 H1895 H 0.45525 0.58885 0.74348
 H1896 H 0.41704 0.63070 0.65538
 C1897 C 1.09152 0.89017 0.72776
 C1898 C 1.10237 0.88014 0.70193
 C1899 C 1.13112 0.87235 0.69938
 C1900 C 1.14909 0.87359 0.72366
 C1901 C 1.13793 0.88337 0.75010
 C1902 C 1.10902 0.89236 0.75189
 C1903 C 1.15597 0.88298 0.77412
 N1904 N 1.18338 0.87402 0.77151
 N1905 N 1.19392 0.86511 0.74664
 C1906 C 1.17772 0.86445 0.72270
 H1907 H 1.06934 0.89669 0.72885
 H1908 H 1.08834 0.87890 0.68361
 H1909 H 1.14850 0.88923 0.79504
 H1910 H 1.18733 0.85638 0.70332
 C1911 C 1.09419 0.37933 0.23281
 C1912 C 1.10550 0.36766 0.20793
 C1913 C 1.13510 0.36679 0.20322
 C1914 C 1.15372 0.37533 0.22574
 C1915 C 1.14201 0.38577 0.25182
 C1916 C 1.11195 0.38913 0.25475
 C1917 C 1.16080 0.39112 0.27469
 N1918 N 1.18926 0.38731 0.27135
 N1919 N 1.20028 0.37783 0.24694
 C1920 C 1.18360 0.37140 0.22425
 H1921 H 1.07120 0.38118 0.23468
 H1922 H 1.09078 0.36084 0.19146
 H1923 H 1.15322 0.39741 0.29554
 H1924 H 1.19400 0.36220 0.20588
 C1925 C 0.60375 0.87047 0.24230
 C1926 C 0.61352 0.85950 0.21653
 C1927 C 0.62356 0.87743 0.19467
 C1928 C 0.62073 0.90757 0.19832
 C1929 C 0.61022 0.91872 0.22471
 C1930 C 0.60247 0.89992 0.24714
 C1931 C 0.60626 0.94825 0.22847
 N1932 N 0.61300 0.96565 0.20542
 N1933 N 0.62212 0.95504 0.17969
 C1934 C 0.62571 0.92674 0.17579
 H1935 H 0.59790 0.85560 0.25899
 H1936 H 0.61490 0.83650 0.21459
 H1937 H 0.60866 0.96865 0.21874
 H1938 H 0.63121 0.91958 0.15469
 C1939 C 0.59635 0.38600 0.73205
 C1940 C 0.60846 0.37450 0.70743
 C1941 C 0.63713 0.36611 0.70700
 C1942 C 0.65375 0.36841 0.73212
 C1943 C 0.64130 0.37964 0.75736
 C1944 C 0.61250 0.38912 0.75701
 C1945 C 0.65797 0.38019 0.78235
 N1946 N 0.68535 0.37078 0.78170
 N1947 N 0.69713 0.36062 0.75788
 C1948 C 0.68228 0.35902 0.73312
 H1949 H 0.57426 0.39287 0.73154
 H1950 H 0.59549 0.37252 0.68841
 H1951 H 0.64945 0.38757 0.80249
 H1952 H 0.69282 0.35010 0.71459
 C1953 C 1.25517 1.13344 1.10271
 C1954 C 1.27991 1.14521 1.11396
 C1955 C 1.30120 1.12790 1.12597
 C1956 C 1.29861 1.09768 1.12354
 C1957 C 1.27392 1.08572 1.11052
 C1958 C 1.25134 1.10382 1.10138
 C1959 C 1.27324 1.05602 1.10593
 N1960 N 1.29525 1.03942 1.11459
 N1961 N 1.31825 1.05049 1.12695
 C1962 C 1.32085 1.07893 1.13142
 H1963 H 1.23847 1.14781 1.09572
 H1964 H 1.28136 1.16826 1.11506
 H1965 H 1.25587 1.04583 1.09477
 H1966 H 1.34081 1.08643 1.14001
 C1967 C 1.25581 0.63216 0.60353
 C1968 C 1.28139 0.64329 0.61351
 C1969 C 1.30361 0.62536 0.62271
 C1970 C 1.30067 0.59529 0.61871
 C1971 C 1.27477 0.58406 0.60745
 C1972 C 1.25171 0.60268 0.60097
 C1973 C 1.27329 0.55458 0.60177
 N1974 N 1.29591 0.53750 0.60743
 N1975 N 1.32017 0.54790 0.61778
 C1976 C 1.32347 0.57608 0.62326
 H1977 H 1.23872 0.64688 0.59842
 H1978 H 1.28295 0.66624 0.61578
 H1979 H 1.25476 0.54495 0.59210
 H1980 H 1.34434 0.58305 0.62991
 C1981 C 0.75617 1.10609 0.63231
 C1982 C 0.77767 1.11979 0.64737
 C1983 C 0.77875 1.14968 0.64908
 C1984 C 0.75554 1.16581 0.63779
 C1985 C 0.73264 1.15154 0.62382
 C1986 C 0.73384 1.12148 0.61976
 C1987 C 0.70864 1.16775 0.61566
 N1988 N 0.70808 1.19628 0.62025
 N1989 N 0.72957 1.20968 0.63300
 C1990 C 0.75303 1.19546 0.64214
 H1991 H 0.75737 1.08312 0.62998
 H1992 H 0.79474 1.10679 0.65603
 H1993 H 0.68988 1.15807 0.60650
 H1994 H 0.76878 1.20741 0.65378
 C1995 C 0.76528 0.61725 1.09725
 C1996 C 0.78875 0.63032 1.10989
 C1997 C 0.78749 0.63978 1.13821
 C1998 C 0.76169 0.63708 1.15381
 C1999 C 0.73766 0.62408 1.14084
 C2000 C 0.73982 0.61351 1.11251
 C2001 C 0.71198 0.62288 1.15646
 N2002 N 0.71079 0.63352 1.18336
 N2003 N 0.73341 0.64554 1.19559
 C2004 C 0.75874 0.64780 1.18174
 H2005 H 0.76711 0.60963 1.07548
 H2006 H 0.80827 0.63257 1.09765
 H2007 H 0.69270 0.61401 1.14748
 H2008 H 0.77612 0.65837 1.19257
 C2009 C 1.25343 0.86849 0.89531
 C2010 C 1.27876 0.85708 0.88489
 C2011 C 1.30053 0.87471 0.87427
 C2012 C 1.29757 0.90487 0.87731
 C2013 C 1.27208 0.91645 0.88930
 C2014 C 1.24927 0.89805 0.89708
 C2015 C 1.27080 0.94606 0.89429
 N2016 N 1.29311 0.96294 0.88711
 N2017 N 1.31691 0.95222 0.87586
 C2018 C 1.32005 0.92389 0.87103
 H2019 H 1.23654 0.85391 0.90131
 H2020 H 1.28036 0.83406 0.88331
 H2021 H 1.25270 0.95596 0.90462
 H2022 H 1.34058 0.91667 0.86347
 C2023 C 1.26399 0.40616 0.37650
 C2024 C 1.28924 0.39584 0.36475
 C2025 C 1.29479 0.36643 0.36325
 C2026 C 1.27262 0.34705 0.37099
 C2027 C 1.24621 0.35777 0.38174
 C2028 C 1.24248 0.38761 0.38582
 C2029 C 1.22390 0.33827 0.38675
 N2030 N 1.22797 0.31005 0.38209
 N2031 N 1.25261 0.29997 0.37214
 C2032 C 1.27485 0.31741 0.36613
 H2033 H 1.26156 0.42901 0.37892
 H2034 H 1.30538 0.41122 0.35867
 H2035 H 1.20292 0.34513 0.39346
 H2036 H 1.29346 0.30785 0.35647
 C2037 C 0.74948 0.88805 0.36437
 C2038 C 0.77449 0.87642 0.35325
 C2039 C 0.79842 0.87237 0.37060
 C2040 C 0.79753 0.88122 0.39953
 C2041 C 0.77219 0.89354 0.41076
 C2042 C 0.74778 0.89637 0.39308
 C2043 C 0.77249 0.90339 0.43915
 N2044 N 0.79635 0.90046 0.45522
 N2045 N 0.82003 0.88865 0.44476
 C2046 C 0.82150 0.87907 0.41748
 H2047 H 0.73109 0.89020 0.35052
 H2048 H 0.77503 0.87003 0.33102
 H2049 H 0.75420 0.91381 0.44865
 H2050 H 0.84152 0.87027 0.41006
 C2051 C 0.76770 0.40326 0.89000
 C2052 C 0.79221 0.39183 0.87758
 C2053 C 0.79101 0.36640 0.86193
 C2054 C 0.76442 0.35268 0.85790
 C2055 C 0.73944 0.36432 0.87053
 C2056 C 0.74133 0.38957 0.88705
 C2057 C 0.71324 0.35058 0.86559
 N2058 N 0.71231 0.32688 0.84901
 N2059 N 0.73576 0.31601 0.83708
 C2060 C 0.76176 0.32810 0.84094
 H2061 H 0.76932 0.42280 0.90226
 H2062 H 0.81241 0.40265 0.88062
 H2063 H 0.69347 0.35861 0.87448
 H2064 H 0.77997 0.31874 0.83027
 C2065 C 0.75049 0.86974 1.11420
 C2066 C 0.72477 0.85889 1.12440
 C2067 C 0.69971 0.87522 1.12344
 C2068 C 0.70046 0.90270 1.11089
 C2069 C 0.72676 0.91393 1.10084
 C2070 C 0.75198 0.89730 1.10282
 C2071 C 0.72671 0.94118 1.08831
 N2072 N 0.70191 0.95594 1.08587
 N2073 N 0.67718 0.94517 1.09481
 C2074 C 0.67558 0.91902 1.10702
 H2075 H 0.76954 0.85667 1.11562
 H2076 H 0.72455 0.83772 1.13366
 H2077 H 0.74602 0.95075 1.08008
 H2078 H 0.65483 0.91091 1.11284
 C2079 C 0.75052 0.36667 0.60535
 C2080 C 0.72579 0.35452 0.61626
 C2081 C 0.70390 0.37149 0.62781
 C2082 C 0.70604 0.40176 0.62532
 C2083 C 0.73089 0.41410 0.61285
 C2084 C 0.75387 0.39634 0.60398
 C2085 C 0.73132 0.44382 0.60848
 N2086 N 0.70883 0.46009 0.61666
 N2087 N 0.68563 0.44866 0.62834
 C2088 C 0.68330 0.42018 0.63263
 H2089 H 0.76758 0.35256 0.59856
 H2090 H 0.72480 0.33146 0.61744
 H2091 H 0.74888 0.45431 0.59788
 H2092 H 0.66316 0.41239 0.64060
 C2093 C 0.24520 0.87141 0.59965
 C2094 C 0.21937 0.86040 0.60918
 C2095 C 0.19804 0.87826 0.62038
 C2096 C 0.20194 0.90839 0.61882
 C2097 C 0.22780 0.91967 0.60740
 C2098 C 0.25024 0.90090 0.59912
 C2099 C 0.22975 0.94939 0.60345
 N2100 N 0.20788 0.96662 0.61134
 N2101 N 0.18387 0.95619 0.62229
 C2102 C 0.18001 0.92780 0.62601
 H2103 H 0.26173 0.85651 0.59333
 H2104 H 0.21702 0.83740 0.60971
 H2105 H 0.24803 0.95915 0.59338
 H2106 H 0.15936 0.92085 0.63345
 C2107 C 0.24697 0.36648 1.10178
 C2108 C 0.22152 0.35537 1.11224
 C2109 C 0.20072 0.37315 1.12450
 C2110 C 0.20455 0.40328 1.12311
 C2111 C 0.22985 0.41465 1.11067
 C2112 C 0.25197 0.39597 1.10137
 C2113 C 0.23157 0.44440 1.10676
 N2114 N 0.21006 0.46156 1.11572
 N2115 N 0.18659 0.45103 1.12772
 C2116 C 0.18294 0.42261 1.13143
 H2117 H 0.26325 0.35166 1.09464
 H2118 H 0.21907 0.33238 1.11257
 H2119 H 0.24934 0.45423 1.09588
 H2120 H 0.16267 0.41561 1.13980
 C2121 C 0.74359 1.09957 0.86960
 C2122 C 0.71757 1.10907 0.85898
 C2123 C 0.69688 1.12108 0.87708
 C2124 C 0.70152 1.12028 0.90714
 C2125 C 0.72744 1.10870 0.91808
 C2126 C 0.74938 1.09976 0.89899
 C2127 C 0.72995 1.10531 0.94785
 N2128 N 0.70862 1.11401 0.96540
 N2129 N 0.68461 1.12524 0.95525
 C2130 C 0.68020 1.12840 0.92686
 H2131 H 0.75969 1.09276 0.85442
 H2132 H 0.71463 1.10905 0.83603
 H2133 H 0.74821 1.09505 0.95743
 H2134 H 0.65959 1.13617 0.92016
 C2135 C 0.73350 0.61220 0.40607
 C2136 C 0.70861 0.62365 0.39454
 C2137 C 0.70773 0.63238 0.36602
 C2138 C 0.73266 0.63050 0.34897
 C2139 C 0.75817 0.61932 0.36082
 C2140 C 0.75830 0.60950 0.38947
 C2141 C 0.78294 0.61916 0.34373
 N2142 N 0.78186 0.62890 0.31651
 N2143 N 0.75781 0.63902 0.30529
 C2144 C 0.73323 0.64026 0.32057
 H2145 H 0.73336 0.60509 0.42807
 H2146 H 0.68974 0.62533 0.40786
 H2147 H 0.80326 0.61183 0.35180
 H2148 H 0.71450 0.64917 0.31047
 C2149 C 0.24327 1.10208 0.37001
 C2150 C 0.21696 1.11122 0.35979
 C2151 C 0.19587 1.12180 0.37835
 C2152 C 0.20065 1.12002 0.40837
 C2153 C 0.22706 1.10905 0.41881
 C2154 C 0.24914 1.10138 0.39934
 C2155 C 0.22992 1.10487 0.44844
 N2156 N 0.20837 1.11208 0.46637
 N2157 N 0.18383 1.12258 0.45672
 C2158 C 0.17910 1.12648 0.42847
 H2159 H 0.25950 1.09616 0.35459
 H2160 H 0.21396 1.11188 0.33686
 H2161 H 0.24866 1.09510 0.45760
 H2162 H 0.15809 1.13347 0.42221
 C2163 C 0.24763 0.63020 0.88979
 C2164 C 0.22154 0.64042 0.87987
 C2165 C 0.19786 0.62237 0.87756
 C2166 C 0.20031 0.59360 0.88657
 C2167 C 0.22688 0.58319 0.89685
 C2168 C 0.25087 0.60162 0.89794
 C2169 C 0.22824 0.55481 0.90654
 N2170 N 0.20468 0.53807 0.90562
 N2171 N 0.17980 0.54784 0.89601
 C2172 C 0.17677 0.57503 0.88664
 H2173 H 0.26564 0.64466 0.89065
 H2174 H 0.22000 0.66253 0.87330
 H2175 H 0.24760 0.54586 0.91529
 H2176 H 0.15588 0.58200 0.87998
 C2177 C 1.11419 1.24953 1.13135
 C2178 C 1.12517 1.27473 1.14252
 C2179 C 1.12857 1.29889 1.12532
 C2180 C 1.11957 1.29793 1.09643
 C2181 C 1.10808 1.27229 1.08510
 C2182 C 1.10596 1.24772 1.10266
 C2183 C 1.09829 1.27241 1.05672
 N2184 N 1.10035 1.29644 1.04078
 N2185 N 1.11122 1.32043 1.05137
 C2186 C 1.12075 1.32206 1.07863
 H2187 H 1.11258 1.23106 1.14513
 H2188 H 1.13176 1.27515 1.16468
 H2189 H 1.08860 1.25383 1.04713
 H2190 H 1.12862 1.34235 1.08617
 C2191 C 1.11457 0.75205 0.63000
 C2192 C 1.12549 0.77761 0.64040
 C2193 C 1.12845 0.80138 0.62257
 C2194 C 1.11918 0.79959 0.59380
 C2195 C 1.10779 0.77357 0.58325
 C2196 C 1.10599 0.74947 0.60148
 C2197 C 1.09773 0.77285 0.55497
 N2198 N 1.09941 0.79647 0.53838
 N2199 N 1.11014 0.82083 0.54824
 C2200 C 1.11990 0.82327 0.57535
 H2201 H 1.11321 0.73393 0.64427
 H2202 H 1.13221 0.77868 0.66250
 H2203 H 1.08811 0.75395 0.54596
 H2204 H 1.12762 0.84384 0.58226
 C2205 C 0.61747 1.26590 0.59527
 C2206 C 0.62982 1.29027 0.60685
 C2207 C 0.64001 1.29039 0.63492
 C2208 C 0.63887 1.26500 0.65128
 C2209 C 0.62659 1.24003 0.63936
 C2210 C 0.61518 1.24082 0.61133
 C2211 C 0.62691 1.21486 0.65570
 N2212 N 0.63833 1.21498 0.68227
 N2213 N 0.64967 1.23846 0.69351
 C2214 C 0.65043 1.26341 0.67893
 H2215 H 0.60921 1.26673 0.57370
 H2216 H 0.63076 1.30946 0.59402
 H2217 H 0.61860 1.19498 0.64751
 H2218 H 0.66051 1.28157 0.68894
 C2219 C 0.59287 0.76738 1.11396
 C2220 C 0.60367 0.79295 1.12444
 C2221 C 0.63247 0.79546 1.13196
 C2222 C 0.65053 0.77123 1.13004
 C2223 C 0.63943 0.74501 1.11971
 C2224 C 0.61046 0.74337 1.11093
 C2225 C 0.65758 0.72105 1.11932
 N2226 N 0.68502 0.72347 1.12816
 N2227 N 0.69547 0.74810 1.13765
 C2228 C 0.67918 0.77199 1.13902
 H2229 H 0.57065 0.76646 1.10762
 H2230 H 0.58953 0.81121 1.12601
 H2231 H 0.65018 0.70030 1.11256
 H2232 H 0.68869 0.79114 1.14761
 C2233 C 0.90562 1.27000 0.88855
 C2234 C 0.89380 1.29426 0.87612
 C2235 C 0.86635 1.29361 0.86433
 C2236 C 0.85092 1.26759 0.86406
 C2237 C 0.86298 1.24286 0.87669
 C2238 C 0.89037 1.24435 0.88945
 C2239 C 0.84749 1.21717 0.87530
 N2240 N 0.82167 1.21651 0.86231
 N2241 N 0.81042 1.23967 0.85035
 C2242 C 0.82419 1.26508 0.85063
 H2243 H 0.92674 1.27131 0.89785
 H2244 H 0.90599 1.31389 0.87620
 H2245 H 0.85578 1.19751 0.88400
 H2246 H 0.81437 1.28283 0.83980
 C2247 C 0.90881 0.76970 0.38937
 C2248 C 0.89796 0.79495 0.37802
 C2249 C 0.87014 0.79613 0.36724
 C2250 C 0.85328 0.77102 0.36677
 C2251 C 0.86441 0.74525 0.37810
 C2252 C 0.89220 0.74486 0.39006
 C2253 C 0.84756 0.72047 0.37629
 N2254 N 0.82128 0.72166 0.36428
 N2255 N 0.81080 0.74585 0.35373
 C2256 C 0.82589 0.77049 0.35444
 H2257 H 0.93023 0.76961 0.39804
 H2258 H 0.91119 0.81389 0.37820
 H2259 H 0.85513 0.70006 0.38389
 H2260 H 0.81647 0.78924 0.34490
 C2261 C 0.37099 1.25153 0.38305
 C2262 C 0.35996 1.27676 0.37201
 C2263 C 0.37538 1.30228 0.37376
 C2264 C 0.40213 1.30249 0.38786
 C2265 C 0.41361 1.27665 0.39870
 C2266 C 0.39785 1.25101 0.39607
 C2267 C 0.44017 1.27753 0.41262
 N2268 N 0.45400 1.30273 0.41572
 N2269 N 0.44293 1.32707 0.40613
 C2270 C 0.41741 1.32783 0.39251
 H2271 H 0.35865 1.23210 0.38105
 H2272 H 0.33934 1.27625 0.36158
 H2273 H 0.44990 1.25854 0.42138
 H2274 H 0.40899 1.34829 0.38617
 C2275 C 0.40569 0.76756 0.88549
 C2276 C 0.39453 0.79265 0.87419
 C2277 C 0.36571 0.79450 0.86658
 C2278 C 0.34798 0.77019 0.86934
 C2279 C 0.35947 0.74443 0.88038
 C2280 C 0.38846 0.74342 0.88917
 C2281 C 0.34166 0.72028 0.88139
 N2282 N 0.31415 0.72217 0.87262
 N2283 N 0.30331 0.74642 0.86259
 C2284 C 0.31928 0.77043 0.86052
 H2285 H 0.42793 0.76709 0.89180
 H2286 H 0.40838 0.81101 0.87197
 H2287 H 0.34937 0.69980 0.88859
 H2288 H 0.30946 0.78926 0.85156
 C2289 C 1.13219 0.74632 0.89083
 C2290 C 1.14250 0.72013 0.88128
 C2291 C 1.12404 0.69705 0.87709
 C2292 C 1.09462 0.70012 0.88386
 C2293 C 1.08411 0.72693 0.89361
 C2294 C 1.10309 0.75026 0.89667
 C2295 C 1.05517 0.73037 0.90101
 N2296 N 1.03778 0.70650 0.89811
 N2297 N 1.04788 0.68054 0.88903
 C2298 C 1.07565 0.67701 0.88209
 H2299 H 1.14703 0.76387 0.89315
 H2300 H 1.16503 0.71809 0.87639
 H2301 H 1.03503 0.71992 0.90220
 H2302 H 1.08266 0.65597 0.87574
 C2303 C 1.13218 0.24654 0.39081
 C2304 C 1.14272 0.22072 0.38049
 C2305 C 1.12464 0.19732 0.37661
 C2306 C 1.09547 0.19963 0.38447
 C2307 C 1.08479 0.22581 0.39548
 C2308 C 1.10326 0.24968 0.39800
 C2309 C 1.05608 0.22689 0.40438
 N2310 N 1.03923 0.20355 0.40175
 N2311 N 1.04917 0.17912 0.39117
 C2312 C 1.07669 0.17630 0.38258
 H2313 H 1.14667 0.26443 0.39273
 H2314 H 1.16511 0.21921 0.37481
 H2315 H 1.04694 0.24584 0.41385
 H2316 H 1.08366 0.15572 0.37483
 C2317 C 0.59621 0.73526 0.38330
 C2318 C 0.60775 0.71036 0.37188
 C2319 C 0.63644 0.70912 0.36348
 C2320 C 0.65358 0.73394 0.36556
 C2321 C 0.64173 0.75943 0.37695
 C2322 C 0.61293 0.75979 0.38646
 C2323 C 0.65896 0.78400 0.37761
 N2324 N 0.68624 0.78285 0.36795
 N2325 N 0.69737 0.75892 0.35737
 C2326 C 0.68198 0.73451 0.35570
 H2327 H 0.57411 0.73526 0.39017
 H2328 H 0.59430 0.69165 0.37019
 H2329 H 0.65095 0.80425 0.38526
 H2330 H 0.69200 0.71603 0.34619
 C2331 C 0.59231 0.23064 0.88714
 C2332 C 0.60303 0.20480 0.87709
 C2333 C 0.63202 0.20173 0.87044
 C2334 C 0.65044 0.22556 0.87292
 C2335 C 0.63942 0.25208 0.88266
 C2336 C 0.61017 0.25436 0.89047
 C2337 C 0.65798 0.27567 0.88339
 N2338 N 0.68572 0.27255 0.87569
 N2339 N 0.69611 0.24761 0.86687
 C2340 C 0.67942 0.22409 0.86503
 H2341 H 0.56991 0.23202 0.89278
 H2342 H 0.58866 0.18683 0.87499
 H2343 H 0.65072 0.29669 0.88950
 H2344 H 0.68894 0.20466 0.85702
 C2345 C 0.90277 0.73692 1.11784
 C2346 C 0.88981 0.71319 1.13008
 C2347 C 0.86113 0.71408 1.13847
 C2348 C 0.84543 0.73977 1.13555
 C2349 C 0.85874 0.76408 1.12346
 C2350 C 0.88749 0.76231 1.11394
 C2351 C 0.84298 0.78966 1.12211
 N2352 N 0.81566 0.79046 1.13169
 N2353 N 0.80312 0.76757 1.14283
 C2354 C 0.81706 0.74233 1.14523
 H2355 H 0.92481 0.73534 1.11096
 H2356 H 0.90214 0.69378 1.13256
 H2357 H 0.85218 0.80916 1.11399
 H2358 H 0.80594 0.72472 1.15508
 C2359 C 0.89593 0.23779 0.61953
 C2360 C 0.88209 0.21564 0.63365
 C2361 C 0.85501 0.21974 0.64570
 C2362 C 0.84205 0.24702 0.64442
 C2363 C 0.85604 0.26955 0.62991
 C2364 C 0.88306 0.26464 0.61707
 C2365 C 0.84282 0.29654 0.62951
 N2366 N 0.81735 0.30047 0.64276
 N2367 N 0.80438 0.27937 0.65664
 C2368 C 0.81593 0.25287 0.65809
 H2369 H 0.91673 0.23388 0.61013
 H2370 H 0.89240 0.19496 0.63479
 H2371 H 0.85261 0.31466 0.61917
 H2372 H 0.80493 0.23687 0.67046
 C2373 C 0.40805 0.73364 0.61236
 C2374 C 0.39738 0.70807 0.62300
 C2375 C 0.36867 0.70561 0.63100
 C2376 C 0.35059 0.72983 0.62936
 C2377 C 0.36158 0.75605 0.61893
 C2378 C 0.39044 0.75768 0.60971
 C2379 C 0.34343 0.78002 0.61892
 N2380 N 0.31609 0.77759 0.62815
 N2381 N 0.30574 0.75295 0.63769
 C2382 C 0.32204 0.72906 0.63876
 H2383 H 0.43019 0.73456 0.60570
 H2384 H 0.41152 0.68981 0.62437
 H2385 H 0.35076 0.80078 0.61216
 H2386 H 0.31262 0.70991 0.64741
 C2387 C 0.40774 0.23335 1.11336
 C2388 C 0.39626 0.20833 1.12447
 C2389 C 0.36746 0.20695 1.13230
 C2390 C 0.35007 0.23160 1.12999
 C2391 C 0.36187 0.25724 1.11913
 C2392 C 0.39083 0.25781 1.11011
 C2393 C 0.34443 0.28173 1.11850
 N2394 N 0.31694 0.28026 1.12750
 N2395 N 0.30580 0.25612 1.13740
 C2396 C 0.32141 0.23181 1.13909
 H2397 H 0.42996 0.23352 1.10686
 H2398 H 0.40984 0.18971 1.12647
 H2399 H 0.35240 0.30214 1.11142
 H2400 H 0.31134 0.21307 1.14794
 C2401 C 1.13198 1.11244 0.74639
 C2402 C 1.14277 1.12277 0.72069
 C2403 C 1.12514 1.12560 0.69677
 C2404 C 1.09623 1.11676 0.69850
 C2405 C 1.08531 1.10591 0.72461
 C2406 C 1.10329 1.10430 0.74891
 C2407 C 1.05689 1.09620 0.72523
 N2408 N 1.04054 1.09776 0.70143
 N2409 N 1.05074 1.10804 0.67699
 C2410 C 1.07800 1.11744 0.67465
 H2411 H 1.14608 1.11115 0.76465
 H2412 H 1.16496 1.12919 0.71962
 H2413 H 1.04759 1.08697 0.74420
 H2414 H 1.08519 1.12486 0.65404
 C2415 C 1.12285 0.59566 0.23475
 C2416 C 1.13448 0.60702 0.20995
 C2417 C 1.13555 0.63661 0.20555
 C2418 C 1.12730 0.65514 0.22831
 C2419 C 1.11693 0.64335 0.25435
 C2420 C 1.11331 0.61334 0.25695
 C2421 C 1.11190 0.66199 0.27746
 N2422 N 1.11591 0.69041 0.27439
 N2423 N 1.12529 0.70151 0.25002
 C2424 C 1.13141 0.68495 0.22709
 H2425 H 1.12075 0.57270 0.23633
 H2426 H 1.14106 0.59235 0.19327
 H2427 H 1.10569 0.65430 0.29827
 H2428 H 1.14051 0.69537 0.20871
 C2429 C 0.60028 1.13064 0.23956
 C2430 C 0.60974 1.14057 0.21325
 C2431 C 0.62041 1.12179 0.19241
 C2432 C 0.61832 1.09185 0.19739
 C2433 C 0.60699 1.08172 0.22377
 C2434 C 0.59935 1.10139 0.24567
 C2435 C 0.60244 1.05218 0.22679
 N2436 N 0.60968 1.03405 0.20544
 N2437 N 0.62055 1.04341 0.18095
 C2438 C 0.62482 1.07156 0.17606
 H2439 H 0.59437 1.14621 0.25563
 H2440 H 0.61059 1.16345 0.21007
 H2441 H 0.59238 1.04326 0.24550
 H2442 H 0.63213 1.07761 0.15509
 C2443 C 0.61017 0.63334 0.74813
 C2444 C 0.62134 0.64483 0.72315
 C2445 C 0.62597 0.62771 0.69909
 C2446 C 0.61798 0.59856 0.69987
 C2447 C 0.60614 0.58691 0.72525
 C2448 C 0.60289 0.60440 0.74981
 C2449 C 0.59724 0.55826 0.72486
 N2450 N 0.60057 0.54236 0.70089
 N2451 N 0.61189 0.55322 0.67719
 C2452 C 0.62058 0.58076 0.67581
 H2453 H 0.60775 0.64710 0.76658
 H2454 H 0.62728 0.66716 0.72290
 H2455 H 0.58725 0.54842 0.74317
 H2456 H 0.62893 0.58853 0.65576
 C2457 C 0.88870 0.90974 0.72948
 C2458 C 0.87737 0.89882 0.70430
 C2459 C 0.86949 0.87010 0.70232
 C2460 C 0.87196 0.85221 0.72661
 C2461 C 0.88357 0.86339 0.75229
 C2462 C 0.89239 0.89228 0.75343
 C2463 C 0.88566 0.84633 0.77691
 N2464 N 0.87602 0.81836 0.77457
 N2465 N 0.86454 0.80755 0.74991
 C2466 C 0.86228 0.82385 0.72628
 H2467 H 0.89510 0.93193 0.73015
 H2468 H 0.87528 0.91276 0.68599
 H2469 H 0.88195 0.82559 0.78537
 H2470 H 0.85247 0.81454 0.70763
 C2471 C 0.86802 0.39612 0.24601
 C2472 C 0.85576 0.38486 0.22152
 C2473 C 0.87263 0.37291 0.19976
 C2474 C 0.90293 0.37560 0.20163
 C2475 C 0.91539 0.38846 0.22622
 C2476 C 0.89774 0.39748 0.24925
 C2477 C 0.94511 0.39299 0.22635
 N2478 N 0.96127 0.38457 0.20386
 N2479 N 0.94973 0.37251 0.18093
 C2480 C 0.92123 0.36804 0.17888
 H2481 H 0.85395 0.40301 0.26306
 H2482 H 0.83267 0.38359 0.22074
 H2483 H 0.95565 0.40389 0.24368
 H2484 H 0.91331 0.35974 0.15895
 C2485 C 0.36438 0.88838 0.25241
 C2486 C 0.35172 0.87525 0.22905
 C2487 C 0.36776 0.86826 0.20478
 C2488 C 0.39701 0.87582 0.20357
 C2489 C 0.40987 0.88969 0.22726
 C2490 C 0.39346 0.89535 0.25217
 C2491 C 0.43860 0.89808 0.22486
 N2492 N 0.45344 0.89238 0.20063
 N2493 N 0.44145 0.87916 0.17854
 C2494 C 0.41376 0.87080 0.17912
 H2495 H 0.35145 0.89250 0.27118
 H2496 H 0.32929 0.86972 0.23028
 H2497 H 0.44931 0.90953 0.24176
 H2498 H 0.40504 0.86078 0.16027
 C2499 C 0.36727 0.39626 0.74627
 C2500 C 0.35480 0.38487 0.72198
 C2501 C 0.37140 0.37212 0.70046
 C2502 C 0.40173 0.37407 0.70235
 C2503 C 0.41447 0.38717 0.72667
 C2504 C 0.39699 0.39703 0.74951
 C2505 C 0.44427 0.39104 0.72670
 N2506 N 0.46024 0.38174 0.70442
 N2507 N 0.44843 0.36939 0.68177
 C2508 C 0.41984 0.36552 0.67981
 H2509 H 0.35331 0.40369 0.76318
 H2510 H 0.33168 0.38414 0.72124
 H2511 H 0.45505 0.40213 0.74378
 H2512 H 0.41168 0.35693 0.66010
 C2513 C 1.12580 0.90415 1.26211
 C2514 C 1.13834 0.89188 1.28597
 C2515 C 1.13924 0.86215 1.28942
 C2516 C 1.12980 0.84442 1.26657
 C2517 C 1.11850 0.85713 1.24141
 C2518 C 1.11514 0.88727 1.23989
 C2519 C 1.11229 0.83926 1.21802
 N2520 N 1.11607 0.81070 1.22008
 N2521 N 1.12631 0.79875 1.24367
 C2522 C 1.13359 0.81454 1.26676
 H2523 H 1.12392 0.92717 1.26132
 H2524 H 1.14578 0.90595 1.30275
 H2525 H 1.10531 0.84764 1.19774
 H2526 H 1.14330 0.80349 1.28442
 C2527 C 1.11342 0.40053 0.76576
 C2528 C 1.12648 0.38839 0.78950
 C2529 C 1.14162 0.36272 0.78712
 C2530 C 1.14457 0.34954 0.76007
 C2531 C 1.13108 0.36175 0.73592
 C2532 C 1.11512 0.38727 0.73903
 C2533 C 1.13467 0.34833 0.70927
 N2534 N 1.15089 0.32443 0.70713
 N2535 N 1.16389 0.31320 0.72974
 C2536 C 1.16141 0.32501 0.75608
 H2537 H 1.10161 0.42026 0.76829
 H2538 H 1.12434 0.39886 0.81003
 H2539 H 1.12505 0.35676 0.69008
 H2540 H 1.17314 0.31551 0.77348
 C2541 C 0.61521 0.90631 0.76630
 C2542 C 0.62666 0.89462 0.79108
 C2543 C 0.63499 0.86596 0.79195
 C2544 C 0.63279 0.84896 0.76702
 C2545 C 0.62157 0.86098 0.74163
 C2546 C 0.61208 0.88975 0.74158
 C2547 C 0.62104 0.84393 0.71686
 N2548 N 0.63051 0.81660 0.71783
 N2549 N 0.64075 0.80525 0.74175
 C2550 C 0.64233 0.82048 0.76631
 H2551 H 0.60835 0.92839 0.76651
 H2552 H 0.62856 0.90790 0.80992
 H2553 H 0.61366 0.85210 0.69663
 H2554 H 0.65143 0.81027 0.78486
 C2555 C 0.63278 0.39614 1.25574
 C2556 C 0.64354 0.38576 1.28133
 C2557 C 0.62529 0.37635 1.30322
 C2558 C 0.59524 0.38052 1.29995
 C2559 C 0.58439 0.39229 1.27409
 C2560 C 0.60334 0.39893 1.25132
 C2561 C 0.55496 0.39830 1.27240
 N2562 N 0.53754 0.39238 1.29470
 N2563 N 0.54756 0.38147 1.31888
 C2564 C 0.57569 0.37569 1.32242
 H2565 H 0.64774 0.40134 1.23887
 H2566 H 0.66649 0.38340 1.28319
 H2567 H 0.54563 0.40845 1.25397
 H2568 H 0.58232 0.36857 1.34323
 C2569 C 0.88261 1.09390 1.26499
 C2570 C 0.87162 1.10467 1.29039
 C2571 C 0.87057 1.13415 1.29555
 C2572 C 0.87828 1.15323 1.27310
 C2573 C 0.88807 1.14206 1.24655
 C2574 C 0.89152 1.11212 1.24304
 C2575 C 0.89264 1.16123 1.22383
 N2576 N 0.88866 1.18958 1.22772
 N2577 N 0.87974 1.20011 1.25254
 C2578 C 0.87411 1.18302 1.27515
 H2579 H 0.88460 1.07099 1.26268
 H2580 H 0.86539 1.08963 1.30682
 H2581 H 0.89847 1.15405 1.20271
 H2582 H 0.86534 1.19304 1.29393
 C2583 C 0.90753 0.60817 0.76984
 C2584 C 0.89611 0.61933 0.79499
 C2585 C 0.86964 0.63324 0.79488
 C2586 C 0.85486 0.63698 0.76880
 C2587 C 0.86657 0.62580 0.74321
 C2588 C 0.89285 0.61084 0.74397
 C2589 C 0.85188 0.63066 0.71750
 N2590 N 0.82717 0.64575 0.71763
 N2591 N 0.81612 0.65621 0.74167
 C2592 C 0.82908 0.65236 0.76723
 H2593 H 0.92784 0.59711 0.77059
 H2594 H 0.90779 0.61672 0.81476
 H2595 H 0.85996 0.62299 0.69727
 H2596 H 0.81932 0.66177 0.78593
 C2597 C 0.37190 1.10513 0.75642
 C2598 C 0.36155 1.11436 0.78264
 C2599 C 0.38007 1.12116 0.80529
 C2600 C 0.40980 1.11566 0.80163
 C2601 C 0.42031 1.10561 0.77485
 C2602 C 0.40115 1.10122 0.75177
 C2603 C 0.44955 1.09887 0.77256
 N2604 N 0.46696 1.10200 0.79539
 N2605 N 0.45705 1.11074 0.82055
 C2606 C 0.42912 1.11723 0.82449
 H2607 H 0.35678 1.10167 0.73929
 H2608 H 0.33874 1.11782 0.78447
 H2609 H 0.45868 1.09031 0.75318
 H2610 H 0.42208 1.12192 0.84577
 C2611 C 0.37517 0.59784 1.26136
 C2612 C 0.36304 0.61010 1.28549
 C2613 C 0.36253 0.63982 1.28918
 C2614 C 0.37190 0.65759 1.26635
 C2615 C 0.38278 0.64490 1.24094
 C2616 C 0.38579 0.61475 1.23915
 C2617 C 0.38896 0.66282 1.21759
 N2618 N 0.38550 0.69141 1.21991
 N2619 N 0.37566 0.70334 1.24374
 C2620 C 0.36846 0.68751 1.26683
 H2621 H 0.37682 0.57481 1.26035
 H2622 H 0.35560 0.59601 1.30226
 H2623 H 0.39565 0.65445 1.19716
 H2624 H 0.35911 0.69859 1.28472
 C2625 C 1.12705 1.26159 0.90046
 C2626 C 1.14038 1.28503 0.88822
 C2627 C 1.14360 1.28738 0.85846
 C2628 C 1.13555 1.26369 0.84104
 C2629 C 1.12298 1.23918 0.85386
 C2630 C 1.11754 1.23879 0.88372
 C2631 C 1.11756 1.21523 0.83649
 N2632 N 1.12362 1.21601 0.80823
 N2633 N 1.13536 1.23884 0.79621
 C2634 C 1.14183 1.26243 0.81160
 H2635 H 1.12362 1.26156 0.92334
 H2636 H 1.14659 1.30233 0.90225
 H2637 H 1.10938 1.19551 0.84508
 H2638 H 1.15293 1.27925 0.80072
 C2639 C 1.11638 0.74623 0.36403
 C2640 C 1.12850 0.77041 0.35189
 C2641 C 1.13297 0.79506 0.36816
 C2642 C 1.12396 0.79569 0.39709
 C2643 C 1.11133 0.77107 0.40941
 C2644 C 1.10806 0.74599 0.39277
 C2645 C 1.10163 0.77272 0.43782
 N2646 N 1.10478 0.79724 0.45285
 N2647 N 1.11666 0.82030 0.44133
 C2648 C 1.12619 0.82044 0.41398
 H2649 H 1.11392 0.72731 0.35096
 H2650 H 1.13507 0.76964 0.32971
 H2651 H 1.09116 0.75498 0.44813
 H2652 H 1.13491 0.84006 0.40568
 C2653 C 0.60177 1.25831 0.36894
 C2654 C 0.61141 1.28428 0.35844
 C2655 C 0.62354 1.30472 0.37661
 C2656 C 0.62272 1.29993 0.40664
 C2657 C 0.61093 1.27410 0.41747
 C2658 C 0.60191 1.25235 0.39829
 C2659 C 0.60741 1.27151 0.44723
 N2660 N 0.61623 1.29263 0.46486
 N2661 N 0.62773 1.31652 0.45481
 C2662 C 0.63101 1.32103 0.42643
 H2663 H 0.59489 1.24238 0.35368
 H2664 H 0.61139 1.28738 0.33551
 H2665 H 0.59692 1.25335 0.45673
 H2666 H 0.63900 1.34156 0.41981
 C2667 C 0.63492 0.74847 0.88783
 C2668 C 0.64690 0.77299 0.87627
 C2669 C 0.63004 0.79698 0.87052
 C2670 C 0.60058 0.79665 0.87767
 C2671 C 0.58835 0.77154 0.88950
 C2672 C 0.60570 0.74720 0.89417
 C2673 C 0.55934 0.77078 0.89731
 N2674 N 0.54363 0.79558 0.89272
 N2675 N 0.55540 0.81995 0.88160
 C2676 C 0.58327 0.82088 0.87422
 H2677 H 0.64849 0.73007 0.89129
 H2678 H 0.66946 0.77298 0.87108
 H2679 H 0.54001 0.78276 0.89784
 H2680 H 0.59166 0.84077 0.86620
 C2681 C 0.90518 1.26856 1.10849
 C2682 C 0.89332 1.29292 1.12084
 C2683 C 0.86749 1.29144 1.13585
 C2684 C 0.85390 1.26471 1.13949
 C2685 C 0.86581 1.23999 1.12672
 C2686 C 0.89147 1.24215 1.11082
 C2687 C 0.85195 1.21371 1.13093
 N2688 N 0.82792 1.21246 1.14706
 N2689 N 0.81697 1.23562 1.15941
 C2690 C 0.82921 1.26163 1.15631
 H2691 H 0.92502 1.27037 1.09671
 H2692 H 0.90413 1.31317 1.11824
 H2693 H 0.86014 1.19411 1.12187
 H2694 H 0.81992 1.27948 1.16756
 C2695 C 0.86859 0.75169 0.60887
 C2696 C 0.85712 0.77690 0.61963
 C2697 C 0.87438 0.80082 0.62396
 C2698 C 0.90362 0.79971 0.61618
 C2699 C 0.91523 0.77416 0.60469
 C2700 C 0.89761 0.74972 0.60169
 C2701 C 0.94397 0.77425 0.59586
 N2702 N 0.95998 0.79811 0.59902
 N2703 N 0.94917 0.82196 0.61010
 C2704 C 0.92155 0.82363 0.61867
 H2705 H 0.85475 0.73332 0.60661
 H2706 H 0.83470 0.77750 0.62536
 H2707 H 0.95378 0.75582 0.58604
 H2708 H 0.91383 0.84376 0.62689
 C2709 C 0.40447 1.26457 0.62164
 C2710 C 0.39227 1.28820 0.63484
 C2711 C 0.36265 1.28997 0.63947
 C2712 C 0.34549 1.26561 0.63304
 C2713 C 0.35827 1.24109 0.62034
 C2714 C 0.38784 1.24116 0.61355
 C2715 C 0.34123 1.21666 0.61620
 N2716 N 0.31333 1.21692 0.62379
 N2717 N 0.30140 1.23967 0.63589
 C2718 C 0.31651 1.26372 0.64110
 H2719 H 0.42719 1.26481 0.61722
 H2720 H 0.40611 1.30599 0.63992
 H2721 H 0.34985 1.19699 0.60784
 H2722 H 0.30587 1.28041 0.65270
 C2723 C 0.40167 0.76073 1.12523
 C2724 C 0.38914 0.78404 1.13869
 C2725 C 0.35939 0.78584 1.14235
 C2726 C 0.34238 0.76175 1.13473
 C2727 C 0.35547 0.73744 1.12195
 C2728 C 0.38523 0.73759 1.11599
 C2729 C 0.33851 0.71316 1.11685
 N2730 N 0.31037 0.71342 1.12350
 N2731 N 0.29811 0.73603 1.13553
 C2732 C 0.31312 0.75993 1.14166
 H2733 H 0.42450 0.76106 1.12146
 H2734 H 0.40287 0.80166 1.14464
 H2735 H 0.34736 0.69359 1.10847
 H2736 H 0.30217 0.77655 1.15308
 C2737 C 0.86844 0.75060 0.89000
 C2738 C 0.85677 0.72571 0.87891
 C2739 C 0.87384 0.70168 0.87392
 C2740 C 0.90315 0.70239 0.88145
 C2741 C 0.91500 0.72772 0.89313
 C2742 C 0.89752 0.75222 0.89680
 C2743 C 0.94386 0.72734 0.90146
 N2744 N 0.95973 0.70340 0.89782
 N2745 N 0.94866 0.67973 0.88673
 C2746 C 0.92094 0.67834 0.87857
 H2747 H 0.85471 0.76904 0.89272
 H2748 H 0.83432 0.72552 0.87336
 H2749 H 0.95387 0.74564 0.91126
 H2750 H 0.91303 0.65829 0.87043
 C2751 C 0.86977 0.24485 0.39787
 C2752 C 0.85874 0.21952 0.38715
 C2753 C 0.87665 0.19883 0.37491
 C2754 C 0.90680 0.20259 0.37663
 C2755 C 0.91807 0.22776 0.38934
 C2756 C 0.89928 0.24981 0.39855
 C2757 C 0.94780 0.22943 0.39355
 N2758 N 0.96506 0.20799 0.38463
 N2759 N 0.95463 0.18463 0.37239
 C2760 C 0.92622 0.18104 0.36837
 H2761 H 0.85487 0.26109 0.40493
 H2762 H 0.83573 0.21709 0.38657
 H2763 H 0.95754 0.24713 0.40461
 H2764 H 0.91928 0.16086 0.35980
 C2765 C 0.36572 0.75495 0.38626
 C2766 C 0.35317 0.73090 0.37422
 C2767 C 0.36943 0.70655 0.36827
 C2768 C 0.39876 0.70600 0.37569
 C2769 C 0.41148 0.73036 0.38842
 C2770 C 0.39487 0.75528 0.39311
 C2771 C 0.44028 0.72859 0.39677
 N2772 N 0.45531 0.70430 0.39204
 N2773 N 0.44346 0.68157 0.37985
 C2774 C 0.41572 0.68152 0.37164
 H2775 H 0.35264 0.77371 0.38977
 H2776 H 0.33070 0.73157 0.36880
 H2777 H 0.45090 0.74604 0.40741
 H2778 H 0.40715 0.66219 0.36248
 C2779 C 0.37111 0.24309 0.89441
 C2780 C 0.36065 0.21697 0.88505
 C2781 C 0.37908 0.19408 0.87872
 C2782 C 0.40866 0.19725 0.88502
 C2783 C 0.41932 0.22395 0.89491
 C2784 C 0.40036 0.24732 0.89876
 C2785 C 0.44845 0.22585 0.90208
 N2786 N 0.46556 0.20263 0.89977
 N2787 N 0.45542 0.17748 0.89145
 C2788 C 0.42759 0.17396 0.88447
 H2789 H 0.35616 0.26046 0.89760
 H2790 H 0.33791 0.21541 0.88110
 H2791 H 0.45771 0.24523 0.91035
 H2792 H 0.42020 0.15270 0.88030
 C2793 C 1.13409 0.74789 1.10366
 C2794 C 1.14567 0.72272 1.11428
 C2795 C 1.12827 0.70189 1.12687
 C2796 C 1.09804 0.70539 1.12572
 C2797 C 1.08618 0.73038 1.11313
 C2798 C 1.10448 0.75255 1.10340
 C2799 C 1.05635 0.73171 1.10949
 N2800 N 1.03956 0.71015 1.11882
 N2801 N 1.05054 0.68698 1.13094
 C2802 C 1.07906 0.68369 1.13442
 H2803 H 1.14862 0.76422 1.09619
 H2804 H 1.16871 0.72050 1.11442
 H2805 H 1.04615 0.74919 1.09852
 H2806 H 1.08642 0.66362 1.14290
 C2807 C 1.10323 0.24313 0.62890
 C2808 C 1.11314 0.21722 0.63932
 C2809 C 1.12338 0.19590 0.62084
 C2810 C 1.12058 0.20004 0.59079
 C2811 C 1.10902 0.22611 0.58021
 C2812 C 1.10155 0.24837 0.59950
 C2813 C 1.10405 0.22849 0.55066
 N2814 N 1.11094 0.20673 0.53290
 N2815 N 1.12184 0.18244 0.54267
 C2816 C 1.12657 0.17821 0.57087
 H2817 H 1.09746 0.25956 0.64414
 H2818 H 1.11454 0.21468 0.66227
 H2819 H 1.09394 0.24702 0.54146
 H2820 H 1.13383 0.15735 0.57725
 C2821 C 0.59428 0.73317 0.60976
 C2822 C 0.60539 0.70800 0.62096
 C2823 C 0.63352 0.70677 0.63094
 C2824 C 0.65051 0.73179 0.63061
 C2825 C 0.63911 0.75751 0.61941
 C2826 C 0.61091 0.75795 0.60840
 C2827 C 0.65611 0.78223 0.62046
 N2828 N 0.68277 0.78102 0.63161
 N2829 N 0.69348 0.75689 0.64205
 C2830 C 0.67827 0.73231 0.64208
 H2831 H 0.57259 0.73326 0.60176
 H2832 H 0.59204 0.68914 0.62141
 H2833 H 0.64839 0.80261 0.61296
 H2834 H 0.68791 0.71364 0.65153
 C2835 C 0.63088 0.24290 1.10198
 C2836 C 0.64102 0.21671 1.11153
 C2837 C 0.62227 0.19545 1.12121
 C2838 C 0.59226 0.19995 1.11816
 C2839 C 0.58200 0.22631 1.10703
 C2840 C 0.60152 0.24847 1.10018
 C2841 C 0.55250 0.22907 1.10179
 N2842 N 0.53451 0.20738 1.10803
 N2843 N 0.54399 0.18279 1.11850
 C2844 C 0.57211 0.17819 1.12344
 H2845 H 0.64627 0.25926 1.09658
 H2846 H 0.66393 0.21383 1.11305
 H2847 H 0.54354 0.24787 1.09198
 H2848 H 0.57824 0.15712 1.13027
 C2849 C 1.26894 1.09131 0.88416
 C2850 C 1.29487 1.10179 0.87421
 C2851 C 1.29809 1.13069 0.86740
 C2852 C 1.27422 1.14919 0.86945
 C2853 C 1.24761 1.13841 0.87921
 C2854 C 1.24527 1.10932 0.88733
 C2855 C 1.22401 1.15703 0.87971
 N2856 N 1.22713 1.18459 0.87155
 N2857 N 1.25213 1.19473 0.86264
 C2858 C 1.27572 1.17799 0.86118
 H2859 H 1.26751 1.06901 0.89004
 H2860 H 1.31286 1.08732 0.87253
 H2861 H 1.20299 1.14991 0.88601
 H2862 H 1.29521 1.18727 0.85307
 C2863 C 1.26885 0.61145 0.40381
 C2864 C 1.29285 0.62462 0.39221
 C2865 C 1.29220 0.63580 0.36455
 C2866 C 1.26652 0.63466 0.34858
 C2867 C 1.24203 0.62143 0.36046
 C2868 C 1.24351 0.60927 0.38812
 C2869 C 1.21657 0.62162 0.34450
 N2870 N 1.21597 0.63391 0.31834
 N2871 N 1.23897 0.64629 0.30716
 C2872 C 1.26412 0.64722 0.32138
 H2873 H 1.27011 0.60267 0.42516
 H2874 H 1.31227 0.62559 0.40471
 H2875 H 1.19702 0.61253 0.35265
 H2876 H 1.28177 0.65824 0.31146
 C2877 C 0.75370 1.13298 0.38912
 C2878 C 0.77897 1.14425 0.37839
 C2879 C 0.80261 1.12672 0.37322
 C2880 C 0.80112 1.09732 0.38009
 C2881 C 0.77550 1.08588 0.39156
 C2882 C 0.75137 1.10385 0.39546
 C2883 C 0.77525 1.05694 0.39952
 N2884 N 0.79883 1.04059 0.39555
 N2885 N 0.82273 1.05125 0.38449
 C2886 C 0.82475 1.07903 0.37675
 H2887 H 0.73558 1.14708 0.39204
 H2888 H 0.77984 1.16680 0.37338
 H2889 H 0.75676 1.04722 0.40928
 H2890 H 0.84494 1.08658 0.36854
 C2891 C 0.76683 0.59438 0.88545
 C2892 C 0.79207 0.60566 0.87455
 C2893 C 0.79386 0.63448 0.86704
 C2894 C 0.76936 0.65209 0.86946
 C2895 C 0.74347 0.64049 0.88010
 C2896 C 0.74250 0.61149 0.88882
 C2897 C 0.71916 0.65819 0.88081
 N2898 N 0.72100 0.68570 0.87211
 N2899 N 0.74538 0.69665 0.86244
 C2900 C 0.76955 0.68079 0.86069
 H2901 H 0.76640 0.57215 0.89174
 H2902 H 0.81057 0.59190 0.87249
 H2903 H 0.69859 0.65039 0.88770
 H2904 H 0.78849 0.69071 0.85204
 C2905 C 1.26621 0.89908 1.11212
 C2906 C 1.28960 0.88645 1.12533
 C2907 C 1.28688 0.86030 1.13950
 C2908 C 1.25980 0.84703 1.14115
 C2909 C 1.23600 0.85973 1.12743
 C2910 C 1.23946 0.88586 1.11262
 C2911 C 1.20930 0.84620 1.12975
 N2912 N 1.20678 0.82174 1.14496
 N2913 N 1.22905 0.81007 1.15821
 C2914 C 1.25539 0.82197 1.15697
 H2915 H 1.26903 0.91922 1.10116
 H2916 H 1.31014 0.89700 1.12416
 H2917 H 1.19035 0.85498 1.11995
 H2918 H 1.27245 0.81215 1.16893
 C2919 C 1.26722 0.40120 0.61172
 C2920 C 1.29099 0.38906 0.62471
 C2921 C 1.28885 0.36311 0.63933
 C2922 C 1.26196 0.34959 0.64176
 C2923 C 1.23776 0.36181 0.62831
 C2924 C 1.24065 0.38767 0.61294
 C2925 C 1.21126 0.34805 0.63137
 N2926 N 1.20930 0.32383 0.64705
 N2927 N 1.23196 0.31260 0.66002
 C2928 C 1.25816 0.32472 0.65802
 H2929 H 1.26961 0.42116 0.60034
 H2930 H 1.31140 0.39979 0.62291
 H2931 H 1.19205 0.35645 0.62175
 H2932 H 1.27560 0.31524 0.66971
 C2933 C 0.75175 0.86941 0.60774
 C2934 C 0.77682 0.85802 0.61884
 C2935 C 0.80066 0.87532 0.62359
 C2936 C 0.79962 0.90451 0.61585
 C2937 C 0.77422 0.91605 0.60400
 C2938 C 0.74984 0.89840 0.60060
 C2939 C 0.77441 0.94474 0.59522
 N2940 N 0.79820 0.96080 0.59875
 N2941 N 0.82189 0.95006 0.61017
 C2942 C 0.82348 0.92248 0.61871
 H2943 H 0.73344 0.85555 0.60522
 H2944 H 0.77736 0.83562 0.62450
 H2945 H 0.75611 0.95449 0.58515
 H2946 H 0.84351 0.91483 0.62721
 C2947 C 0.76592 0.40240 1.11520
 C2948 C 0.79020 0.39081 1.12777
 C2949 C 0.79040 0.36263 1.13768
 C2950 C 0.76512 0.34612 1.13580
 C2951 C 0.74028 0.35799 1.12312
 C2952 C 0.74097 0.38624 1.11227
 C2953 C 0.71526 0.34139 1.12257
 N2954 N 0.71537 0.31469 1.13365
 N2955 N 0.73866 0.30359 1.14553
 C2956 C 0.76343 0.31843 1.14713
 H2957 H 0.76670 0.42411 1.10734
 H2958 H 0.80926 0.40380 1.12917
 H2959 H 0.69548 0.34945 1.11389
 H2960 H 0.78129 0.30866 1.15780
 C2961 C 0.74577 1.10915 1.12919
 C2962 C 0.71978 1.11923 1.13962
 C2963 C 0.69643 1.12297 1.12142
 C2964 C 0.69899 1.11523 1.09225
 C2965 C 0.72535 1.10447 1.08169
 C2966 C 0.74915 1.10206 1.10028
 C2967 C 0.72668 1.09569 1.05297
 N2968 N 0.70339 1.09817 1.03601
 N2969 N 0.67879 1.10852 1.04584
 C2970 C 0.67573 1.11699 1.07336
 H2971 H 0.76360 1.10731 1.14378
 H2972 H 0.71810 1.12487 1.16200
 H2973 H 0.74578 1.08642 1.04391
 H2974 H 0.65502 1.12454 1.08023
 C2975 C 0.73365 0.61262 0.59173
 C2976 C 0.70836 0.62389 0.60268
 C2977 C 0.70606 0.63113 0.63157
 C2978 C 0.73006 0.62788 0.64966
 C2979 C 0.75601 0.61689 0.63842
 C2980 C 0.75755 0.60861 0.60927
 C2981 C 0.77984 0.61544 0.65666
 N2982 N 0.77740 0.62356 0.68432
 N2983 N 0.75299 0.63357 0.69493
 C2984 C 0.72933 0.63622 0.67854
 H2985 H 0.73450 0.60669 0.56938
 H2986 H 0.69025 0.62658 0.58857
 H2987 H 0.80052 0.60843 0.64923
 H2988 H 0.71040 0.64520 0.68822
 C2989 C 0.24742 1.13189 0.60687
 C2990 C 0.22150 1.14225 0.61711
 C2991 C 0.19830 1.12396 0.62141
 C2992 C 0.20095 1.09474 0.61403
 C2993 C 0.22726 1.08423 0.60306
 C2994 C 0.25092 1.10293 0.60014
 C2995 C 0.22865 1.05544 0.59461
 N2996 N 0.20551 1.03836 0.59762
 N2997 N 0.18098 1.04815 0.60820
 C2998 C 0.17785 1.07573 0.61636
 H2999 H 0.26514 1.14656 0.60468
 H3000 H 0.21976 1.16467 0.62248
 H3001 H 0.24770 1.04640 0.58519
 H3002 H 0.15721 1.08257 0.62414
 C3003 C 0.25094 0.61201 1.13239
 C3004 C 0.22633 0.62429 1.14372
 C3005 C 0.20219 0.62881 1.12670
 C3006 C 0.20253 0.61962 1.09784
 C3007 C 0.22758 0.60686 1.08634
 C3008 C 0.25216 0.60358 1.10372
 C3009 C 0.22688 0.59704 1.05795
 N3010 N 0.20284 0.60014 1.04219
 N3011 N 0.17938 0.61212 1.05294
 C3012 C 0.17833 0.62180 1.08020
 H3013 H 0.26945 0.60960 1.14602
 H3014 H 0.22637 0.63093 1.16588
 H3015 H 0.24499 0.58649 1.04825
 H3016 H 0.15841 0.63060 1.08786
 C3017 C 0.73534 0.90534 0.88473
 C3018 C 0.71050 0.89384 0.87326
 C3019 C 0.70929 0.86508 0.86536
 C3020 C 0.73396 0.84776 0.86802
 C3021 C 0.75945 0.85959 0.87924
 C3022 C 0.75983 0.88851 0.88828
 C3023 C 0.78398 0.84221 0.88019
 N3024 N 0.78270 0.81476 0.87115
 N3025 N 0.75869 0.80358 0.86093
 C3026 C 0.73435 0.81913 0.85892
 H3027 H 0.73537 0.92753 0.89124
 H3028 H 0.69186 0.90737 0.87104
 H3029 H 0.80429 0.85021 0.88754
 H3030 H 0.71574 0.80904 0.84982
 C3031 C 0.73342 0.40826 0.38708
 C3032 C 0.70746 0.39790 0.37703
 C3033 C 0.70436 0.36915 0.36960
 C3034 C 0.72825 0.35064 0.37129
 C3035 C 0.75486 0.36129 0.38108
 C3036 C 0.75719 0.39025 0.38968
 C3037 C 0.77849 0.34269 0.38105
 N3038 N 0.77537 0.31525 0.37246
 N3039 N 0.75035 0.30521 0.36358
 C3040 C 0.72675 0.32195 0.36256
 H3041 H 0.73487 0.43047 0.39331
 H3042 H 0.68945 0.41236 0.37555
 H3043 H 0.79953 0.34973 0.38728
 H3044 H 0.70723 0.31272 0.35451
 C3045 C 0.23408 0.88862 0.40418
 C3046 C 0.20969 0.87642 0.39241
 C3047 C 0.20992 0.86597 0.36442
 C3048 C 0.23558 0.86677 0.34828
 C3049 C 0.26045 0.87903 0.36033
 C3050 C 0.25940 0.89052 0.38833
 C3051 C 0.28585 0.87857 0.34419
 N3052 N 0.28605 0.86691 0.31770
 N3053 N 0.26270 0.85542 0.30637
 C3054 C 0.23757 0.85479 0.32076
 H3055 H 0.23313 0.89696 0.42574
 H3056 H 0.19033 0.87556 0.40507
 H3057 H 0.30567 0.88692 0.35245
 H3058 H 0.21964 0.84445 0.31066
 C3059 C 0.25484 0.36492 0.88713
 C3060 C 0.23086 0.35244 0.87500
 C3061 C 0.20656 0.36869 0.86886
 C3062 C 0.20597 0.39800 0.87637
 C3063 C 0.23032 0.41068 0.88922
 C3064 C 0.25522 0.39403 0.89394
 C3065 C 0.22856 0.43947 0.89756
 N3066 N 0.20431 0.45453 0.89277
 N3067 N 0.18159 0.44270 0.88051
 C3068 C 0.18153 0.41497 0.87227
 H3069 H 0.27358 0.35180 0.89058
 H3070 H 0.23169 0.33001 0.86944
 H3071 H 0.24601 0.45006 0.90826
 H3072 H 0.16220 0.40640 0.86310
   
