data_POSCAR
  _audit_creation_date              2014-09-24
  _audit_creation_method            'ToBaCCo'
  _symmetry_space_group_name_H-M    'P1'
  _symmetry_Int_Tables_number       1
  _symmetry_cell_setting            triclinic
  loop_
  _symmetry_equiv_pos_as_xyz
 x,y,z
_cell_length_a 37.3552
_cell_length_b 37.6798
_cell_length_c 36.9697
_cell_angle_alpha 90.827500
_cell_angle_beta 87.904700
_cell_angle_gamma 87.757800
loop_
  _atom_site_label
  _atom_site_type_symbol
  _atom_site_fract_x
  _atom_site_fract_y
  _atom_site_fract_z
C1 C 0.13060 -0.00786 0.20995
 C2 C 0.14554 0.02798 0.21972
 C3 C 0.15016 0.03306 0.25569
 C4 C 0.14107 0.00054 0.27891
 C5 C 0.15672 -0.03546 0.22506
 C6 C 0.16278 -0.03136 0.26084
 C7 C 0.09655 -0.01033 0.23401
 C8 C 0.10175 -0.00605 0.27027
 H9 H 0.14798 0.04910 0.20029
 H10 H 0.14569 0.00414 0.30820
 H11 H 0.16896 -0.05703 0.20864
 H12 H 0.07075 -0.01484 0.22285
 C13 C 0.39711 0.00313 0.72689
 C14 C 0.37397 -0.02885 0.71962
 C15 C 0.34506 -0.03056 0.74250
 C16 C 0.34169 -0.00053 0.77070
 C17 C 0.37100 0.03602 0.72574
 C18 C 0.34183 0.03398 0.74903
 C19 C 0.40598 0.00061 0.76502
 C20 C 0.37540 -0.00134 0.78919
 H21 H 0.37876 -0.04708 0.69685
 H22 H 0.31763 -0.00305 0.78852
 H23 H 0.37616 0.05922 0.70970
 H24 H 0.43257 0.00374 0.77492
 C25 C 0.88451 0.48846 0.21813
 C26 C 0.87051 0.45452 0.23390
 C27 C 0.86357 0.45598 0.26993
 C28 C 0.87173 0.49151 0.28785
 C29 C 0.85709 0.51776 0.23050
 C30 C 0.85044 0.51930 0.26683
 C31 C 0.91787 0.49639 0.23979
 C32 C 0.91075 0.49871 0.27660
 H33 H 0.86583 0.43121 0.21742
 H34 H 0.86593 0.49266 0.31752
 H35 H 0.84616 0.53734 0.21230
 H36 H 0.94312 0.50333 0.22704
 C37 C 0.60301 0.49500 0.71943
 C38 C 0.61336 0.53369 0.72350
 C39 C 0.63635 0.53927 0.75029
 C40 C 0.64780 0.50545 0.77022
 C41 C 0.63856 0.47344 0.71406
 C42 C 0.66195 0.47861 0.74095
 C43 C 0.58900 0.48458 0.75751
 C44 C 0.61282 0.48942 0.78372
 H45 H 0.60041 0.55529 0.70924
 H46 H 0.66675 0.51039 0.79201
 H47 H 0.64229 0.45196 0.69432
 H48 H 0.56540 0.46952 0.76279
 C49 C 0.21964 0.09309 0.98673
 C50 C 0.20676 0.11062 1.02261
 C51 C 0.22591 0.13832 1.03271
 C52 C 0.25685 0.14653 1.00637
 C53 C 0.21987 0.12354 0.95933
 C54 C 0.23959 0.15156 0.96955
 C55 C 0.25983 0.08339 0.99168
 C56 C 0.27942 0.11158 1.00161
 H57 H 0.18282 0.10325 1.03771
 H58 H 0.27174 0.16941 1.01587
 H59 H 0.20715 0.12214 0.93352
 H60 H 0.27220 0.05746 0.98568
 C61 C 0.73080 0.38950 1.01613
 C62 C 0.72489 0.36295 0.98778
 C63 C 0.75379 0.33703 0.98286
 C64 C 0.78263 0.34261 1.00777
 C65 C 0.73761 0.36938 1.04884
 C66 C 0.76719 0.34432 1.04473
 C67 C 0.76531 0.40473 1.00570
 C68 C 0.79381 0.37844 1.00029
 H69 H 0.70361 0.36544 0.96872
 H70 H 0.80460 0.32250 1.00473
 H71 H 0.72478 0.37600 1.07500
 H72 H 0.76839 0.43238 0.99896
 C73 C 0.21960 0.89837 0.48203
 C74 C 0.23534 0.87208 0.45390
 C75 C 0.26886 0.85977 0.45934
 C76 C 0.28509 0.87619 0.49305
 C77 C 0.22340 0.87863 0.51819
 C78 C 0.25811 0.86668 0.52360
 C79 C 0.24614 0.92808 0.48378
 C80 C 0.28027 0.91693 0.49059
 H81 H 0.21883 0.86061 0.43354
 H82 H 0.31336 0.86750 0.49686
 H83 H 0.20092 0.87246 0.53599
 H84 H 0.23745 0.95584 0.48420
 C85 C 0.71758 0.59076 0.49370
 C86 C 0.70286 0.61023 0.52799
 C87 C 0.72133 0.63872 0.53714
 C88 C 0.75339 0.64545 0.51195
 C89 C 0.71892 0.61952 0.46455
 C90 C 0.73811 0.64814 0.47418
 C91 C 0.75741 0.58176 0.50065
 C92 C 0.77618 0.61063 0.50993
 H93 H 0.67797 0.60392 0.54202
 H94 H 0.76784 0.66890 0.52070
 H95 H 0.70838 0.61611 0.43787
 H96 H 0.77047 0.55606 0.49503
 C97 C 0.01597 0.20988 0.11887
 C98 C 0.04705 0.22759 0.13644
 C99 C 0.03992 0.26127 0.14848
 C100 C 0.00242 0.27580 0.13944
 C101 C -0.01593 0.21495 0.14617
 C102 C -0.02291 0.24921 0.15721
 C103 C 0.00669 0.23426 0.08768
 C104 C -0.00019 0.26907 0.09816
 H105 H 0.07188 0.21312 0.14187
 H106 H -0.00327 0.30387 0.14799
 H107 H -0.03055 0.19300 0.15709
 H108 H 0.00694 0.22495 0.05985
 C109 C 0.00371 0.72445 0.40564
 C110 C -0.02365 0.71600 0.38012
 C111 C -0.02645 0.74040 0.35122
 C112 C -0.00195 0.76940 0.35364
 C113 C 0.03882 0.72835 0.38289
 C114 C 0.03611 0.75289 0.35630
 C115 C -0.00672 0.76285 0.41875
 C116 C -0.00995 0.78618 0.39120
 H117 H -0.04129 0.69402 0.38338
 H118 H -0.00457 0.78884 0.33168
 H119 H 0.06437 0.71690 0.39074
 H120 H -0.01267 0.77074 0.44663
 C121 C 0.50001 0.20939 0.88329
 C122 C 0.46552 0.21982 0.86523
 C123 C 0.46081 0.25486 0.85931
 C124 C 0.49107 0.27743 0.87393
 C125 C 0.53000 0.22563 0.86046
 C126 C 0.52552 0.26116 0.85567
 C127 C 0.49880 0.23102 0.91885
 C128 C 0.49513 0.26710 0.91404
 H129 H 0.44776 0.20030 0.85487
 H130 H 0.48698 0.30641 0.86988
 H131 H 0.55395 0.21058 0.85110
 H132 H 0.50497 0.21909 0.94442
 C133 C 0.51061 0.72601 0.60039
 C134 C 0.53958 0.73698 0.62602
 C135 C 0.52975 0.76501 0.64812
 C136 C 0.49192 0.78023 0.64214
 C137 C 0.47737 0.71985 0.62531
 C138 C 0.46796 0.74856 0.64711
 C139 C 0.50066 0.75975 0.57980
 C140 C 0.49092 0.78790 0.60173
 H141 H 0.56477 0.72204 0.62822
 H142 H 0.48376 0.80363 0.65960
 H143 H 0.46352 0.69515 0.62638
 H144 H 0.49877 0.76051 0.55064
 C145 C 0.87230 1.00423 0.79574
 C146 C 0.84727 1.03078 0.78245
 C147 C 0.84017 1.02726 0.74504
 C148 C 0.86044 0.99737 0.72700
 C149 C 0.85747 0.96838 0.78547
 C150 C 0.85189 0.96409 0.74961
 C151 C 0.90609 1.00727 0.77117
 C152 C 0.90010 1.00415 0.73478
 H153 H 0.83599 1.05260 0.79923
 H154 H 0.85548 0.99425 0.69775
 H155 H 0.85535 0.94681 0.80441
 H156 H 0.93177 1.01307 0.78190
 C157 C 0.37445 0.49659 0.28677
 C158 C 0.34317 0.52063 0.27523
 C159 C 0.33581 0.51762 0.23962
 C160 C 0.36017 0.48981 0.21868
 C161 C 0.36496 0.45940 0.27583
 C162 C 0.35801 0.45543 0.24053
 C163 C 0.40569 0.50606 0.26088
 C164 C 0.39778 0.50306 0.22500
 H165 H 0.33147 0.54179 0.29258
 H166 H 0.35387 0.48662 0.18972
 H167 H 0.36601 0.43731 0.29432
 H168 H 0.42991 0.51757 0.27008
 C169 C 0.60644 0.99817 0.26739
 C170 C 0.63299 0.96620 0.27087
 C171 C 0.66125 0.96665 0.24647
 C172 C 0.66003 0.99861 0.22115
 C173 C 0.62784 1.02947 0.27010
 C174 C 0.65642 1.03042 0.24377
 C175 C 0.59557 0.99611 0.22725
 C176 C 0.62403 0.99626 0.20306
 H177 H 0.62873 0.94450 0.28921
 H178 H 0.68350 0.99836 0.20221
 H179 H 0.61936 1.05259 0.28651
 H180 H 0.56841 0.99334 0.21875
 C181 C 0.11170 0.51242 0.77933
 C182 C 0.13993 0.48353 0.76779
 C183 C 0.14712 0.48125 0.73167
 C184 C 0.12578 0.50831 0.70989
 C185 C 0.12437 0.54660 0.76302
 C186 C 0.13343 0.54440 0.72735
 C187 C 0.07892 0.50335 0.75758
 C188 C 0.08645 0.50073 0.72082
 H189 H 0.15118 0.46466 0.78656
 H190 H 0.13183 0.50693 0.68026
 H191 H 0.13190 0.56871 0.77993
 H192 H 0.05343 0.49706 0.77023
 C193 C 0.77952 0.90008 0.01187
 C194 C 0.77670 0.87025 0.03953
 C195 C 0.75817 0.84200 0.02793
 C196 C 0.74455 0.84614 -0.01068
 C197 C 0.79596 0.88194 -0.02239
 C198 C 0.77792 0.85394 -0.03404
 C199 C 0.74019 0.90951 0.00272
 C200 C 0.72174 0.88113 -0.00889
 H201 H 0.78701 0.87219 0.06645
 H202 H 0.73068 0.82290 -0.02094
 H203 H 0.82040 0.89015 -0.03602
 H204 H 0.72752 0.93562 0.00667
 C205 C 0.27457 0.41130 0.50117
 C206 C 0.27473 0.38383 0.53175
 C207 C 0.25663 0.35397 0.52382
 C208 C 0.24072 0.35437 0.48609
 C209 C 0.28969 0.39080 0.46755
 C210 C 0.27223 0.36110 0.45992
 C211 C 0.23452 0.41831 0.49441
 C212 C 0.21676 0.38845 0.48686
 H213 H 0.28574 0.38877 0.55796
 H214 H 0.22675 0.33020 0.47861
 H215 H 0.31418 0.39749 0.45300
 H216 H 0.22050 0.44370 0.49905
 C217 C 0.27694 0.59703 -0.01285
 C218 C 0.26704 0.61912 -0.04624
 C219 C 0.23903 0.64313 -0.03975
 C220 C 0.22425 0.64311 -0.00035
 C221 C 0.28380 0.62449 0.01685
 C222 C 0.25635 0.64837 0.02310
 C223 C 0.24146 0.58034 -0.00047
 C224 C 0.21403 0.60470 0.00620
 H225 H 0.28013 0.61512 -0.07267
 H226 H 0.20222 0.66288 0.00618
 H227 H 0.30828 0.62519 0.03163
 H228 H 0.23869 0.55217 0.00365
 C229 C 0.78673 0.10918 0.49865
 C230 C 0.77208 0.12874 0.46828
 C231 C 0.73403 0.13534 0.47145
 C232 C 0.71791 0.12062 0.50429
 C233 C 0.77480 0.12878 0.53095
 C234 C 0.73743 0.13585 0.53408
 C235 C 0.76725 0.07641 0.49964
 C236 C 0.72876 0.08266 0.50185
 H237 H 0.78798 0.13586 0.44454
 H238 H 0.68849 0.12534 0.50722
 H239 H 0.79304 0.13832 0.55082
 H240 H 0.78024 0.05053 0.49468
 C241 C 0.97544 0.78041 0.89427
 C242 C 1.00911 0.77984 0.86868
 C243 C 1.01687 0.74701 0.85298
 C244 C 0.99110 0.71810 0.86501
 C245 C 0.94626 0.76603 0.87111
 C246 C 0.95425 0.73397 0.85528
 C247 C 0.98328 0.75145 0.92152
 C248 C 0.99188 0.71893 0.90665
 H249 H 1.02315 0.80340 0.86122
 H250 H 0.99774 0.69139 0.85298
 H251 H 0.92283 0.78221 0.86445
 H252 H 0.98417 0.75702 0.95031
 C253 C 0.48007 0.28513 0.40240
 C254 C 0.51166 0.29259 0.37586
 C255 C 0.52341 0.26330 0.35590
 C256 C 0.50295 0.22969 0.36407
 C257 C 0.45177 0.26944 0.37865
 C258 C 0.46378 0.24094 0.35809
 C259 C 0.49394 0.25414 0.42497
 C260 C 0.50573 0.22517 0.40504
 H261 H 0.52249 0.31856 0.37208
 H262 H 0.51290 0.20596 0.34799
 H263 H 0.42575 0.28250 0.37530
 H264 H 0.49610 0.25574 0.45409
 C265 C 0.98762 0.27823 0.59369
 C266 C 0.95530 0.27002 0.61858
 C267 C 0.96349 0.24790 0.64627
 C268 C 1.00402 0.23771 0.64752
 C269 C 1.01505 0.29361 0.61865
 C270 C 1.02403 0.27243 0.64633
 C271 C 1.00393 0.24135 0.58206
 C272 C 1.01242 0.22033 0.61041
 H273 H 0.92797 0.27716 0.61198
 H274 H 1.01140 0.22116 0.67082
 H275 H 1.02783 0.31852 0.61376
 H276 H 1.00684 0.23188 0.55432
 C277 C 0.50346 0.78308 0.11010
 C278 C 0.47346 0.76849 0.13420
 C279 C 0.47741 0.73331 0.14092
 C280 C 0.51151 0.71571 0.12338
 C281 C 0.53810 0.77318 0.12823
 C282 C 0.54223 0.73850 0.13614
 C283 C 0.50400 0.75966 0.07585
 C284 C 0.50737 0.72395 0.08283
 H285 H 0.44958 0.78419 0.14256
 H286 H 0.51544 0.68703 0.12914
 H287 H 0.55571 0.79299 0.13836
 H288 H 0.49799 0.77019 0.04961
 O289 O -0.04414 0.98823 0.90932
 O290 O 0.01394 0.99776 0.89336
 O291 O -0.04088 0.90365 0.98478
 O292 O -0.01384 0.89251 1.03958
 O293 O -0.10601 0.99871 1.01163
 O294 O -0.09397 1.05653 1.02963
 O295 O 0.08424 0.97312 1.06015
 O296 O 0.08077 0.92058 1.03022
 O297 O 0.08527 1.05133 0.98740
 O298 O 0.05037 1.07376 0.94283
 O299 O 0.01981 1.06329 1.08196
 O300 O -0.03571 1.04281 1.10387
 O301 O 0.04414 1.00182 1.09918
 O302 O -0.02176 0.99237 1.11478
 O303 O 0.03566 1.08986 1.02927
 O304 O 0.00609 1.09648 0.96738
 O305 O 0.10386 0.99406 0.99627
 O306 O 0.08319 0.93107 0.97579
 O307 O -0.08319 1.02063 0.94672
 O308 O -0.07348 1.07567 0.98137
 O309 O -0.08779 0.94255 1.02604
 O310 O -0.04701 0.92480 1.07402
 O311 O -0.01850 0.92345 0.93097
 O312 O 0.04051 0.94738 0.91360
 Zr313 Zr -0.00165 0.97530 0.94342
 O314 O 0.04240 0.99879 0.96711
 Zr315 Zr -0.03107 0.94344 1.02245
 O316 O 0.01331 0.96289 1.04877
 Zr317 Zr -0.05843 1.02356 0.99702
 O318 O -0.01689 1.04715 1.02446
 Zr319 Zr 0.05684 0.96849 1.01189
 O320 O 0.01434 0.94345 0.98682
 Zr321 Zr 0.02854 1.04952 0.98943
 O322 O -0.01427 1.02821 0.96069
 Zr323 Zr 0.00005 1.01470 1.06698
 O324 O -0.04563 0.99424 1.04326
 O325 O -0.04673 0.97219 0.97786
 O326 O 0.04546 1.01958 1.03297
 C327 C -0.07371 1.00620 0.91587
 C328 C -0.03311 0.89986 0.95088
 C329 C -0.11223 0.96705 1.02176
 C330 C 0.07485 0.98653 1.09135
 C331 C 0.10985 1.02648 0.98870
 C332 C 0.03084 1.08971 1.06397
 H333 H 0.06200 0.99972 0.94849
 H334 H -0.02592 1.07090 1.03311
 H335 H -0.06703 0.96127 0.96598
 H336 H 0.01980 0.94708 1.06881
 H337 H 0.06188 0.90812 1.04380
 H338 H 0.00874 0.88638 1.02564
 H339 H -0.00992 1.10802 0.98636
 H340 H -0.06045 1.08004 0.95815
 H341 H 0.09449 0.94450 0.95591
 H342 H 0.03059 0.93569 0.89213
 H343 H -0.04722 1.06245 1.09050
 H344 H -0.09313 1.04709 1.05446
 H345 H 0.01059 1.02382 0.89646
 H346 H 0.05425 1.05483 0.92415
 H347 H -0.06104 0.94451 1.08647
 H348 H -0.00890 0.96935 1.11861
 O349 O 0.50812 0.58904 0.56333
 O350 O 0.44972 0.57656 0.57751
 O351 O 0.56125 0.48301 0.57533
 O352 O 0.56552 0.43183 0.54617
 O353 O 0.58486 0.55137 0.47876
 O354 O 0.55201 0.56211 0.42560
 O355 O 0.45007 0.41288 0.49269
 O356 O 0.47371 0.41119 0.54943
 O357 O 0.38899 0.51186 0.49319
 O358 O 0.40375 0.57432 0.50363
 O359 O 0.45798 0.48139 0.40483
 O360 O 0.52471 0.48483 0.39361
 O361 O 0.47890 0.42270 0.43858
 O362 O 0.53736 0.43986 0.41799
 O363 O 0.41793 0.52144 0.43168
 O364 O 0.42684 0.58224 0.45519
 O365 O 0.40293 0.45799 0.51700
 O366 O 0.43320 0.45588 0.57568
 O367 O 0.53570 0.59894 0.50859
 O368 O 0.51530 0.59930 0.44831
 O369 O 0.59784 0.50067 0.50903
 O370 O 0.58222 0.43950 0.49408
 O371 O 0.52346 0.52728 0.59827
 O372 O 0.45913 0.52402 0.60483
 Zr373 Zr 0.48821 0.53788 0.55691
 O374 O 0.44549 0.51315 0.53273
 Zr375 Zr 0.54793 0.47869 0.52036
 O376 O 0.50762 0.45184 0.49434
 Zr377 Zr 0.52847 0.55296 0.47732
 O378 O 0.48690 0.52941 0.44947
 Zr379 Zr 0.45852 0.45891 0.52350
 O380 O 0.49974 0.48269 0.55165
 Zr381 Zr 0.43901 0.53377 0.48123
 O382 O 0.47948 0.56118 0.50665
 Zr383 Zr 0.49802 0.47448 0.44366
 O384 O 0.54171 0.49880 0.46801
 O385 O 0.53754 0.53283 0.52854
 O386 O 0.44909 0.47937 0.47257
 C387 C 0.52486 0.60869 0.54073
 C388 C 0.54750 0.50253 0.60151
 C389 C 0.60699 0.52825 0.49155
 C390 C 0.46132 0.40316 0.46061
 C391 C 0.38045 0.48171 0.50605
 C392 C 0.42858 0.50043 0.40576
 H393 H 0.42357 0.51669 0.54841
 H394 H 0.48423 0.54079 0.42576
 H395 H 0.55684 0.54443 0.54145
 H396 H 0.51535 0.42647 0.49235
 H397 H 0.48767 0.41804 0.57053
 H398 H 0.54474 0.41640 0.54775
 H399 H 0.44088 0.58237 0.43199
 H400 H 0.49201 0.60870 0.45877
 H401 H 0.41710 0.43557 0.57549
 H402 H 0.46642 0.53902 0.62540
 H403 H 0.51505 0.50776 0.38469
 H404 H 0.56170 0.53878 0.41628
 H405 H 0.44314 0.59198 0.55715
 H406 H 0.39565 0.56679 0.52802
 H407 H 0.58921 0.44884 0.47005
 H408 H 0.54530 0.42265 0.43627
 O409 O 0.54376 0.09786 0.48362
 O410 O 0.52910 0.09883 0.54462
 O411 O 0.60567 0.00033 0.46631
 O412 O 0.59884 -0.05673 0.46550
 O413 O 0.51337 0.02848 0.39567
 O414 O 0.45143 0.02964 0.40422
 O415 O 0.50309 -0.07913 0.56157
 O416 O 0.56203 -0.06827 0.55850
 O417 O 0.44553 0.01475 0.58858
 O418 O 0.44044 0.07203 0.56640
 O419 O 0.41427 -0.04774 0.49558
 O420 O 0.43861 -0.05902 0.43680
 O421 O 0.46378 -0.08838 0.51702
 O422 O 0.48210 -0.09033 0.44823
 O423 O 0.40368 0.00086 0.53212
 O424 O 0.41406 0.06669 0.52061
 O425 O 0.49346 -0.02203 0.59980
 O426 O 0.55794 -0.01158 0.58862
 O427 O 0.50532 0.08907 0.43824
 O428 O 0.44307 0.07239 0.43829
 O429 O 0.56120 -0.00864 0.40614
 O430 O 0.55805 -0.06973 0.43288
 O431 O 0.59563 0.05141 0.49928
 O432 O 0.57042 0.05679 0.56146
 Zr433 Zr 0.54060 0.05153 0.51396
 O434 O 0.50620 0.02535 0.55011
 Zr435 Zr 0.55448 -0.02066 0.46169
 O436 O 0.52235 -0.05036 0.49719
 Zr437 Zr 0.48732 0.03702 0.44635
 O438 O 0.45162 0.00845 0.47921
 Zr439 Zr 0.52154 -0.02873 0.54981
 O440 O 0.55787 -0.00232 0.51555
 Zr441 Zr 0.45308 0.02690 0.53303
 O442 O 0.48670 0.05777 0.49935
 Zr443 Zr 0.46894 -0.04525 0.48174
 O444 O 0.50145 -0.01769 0.44425
 O445 O 0.54072 0.03325 0.46046
 O446 O 0.46797 -0.02668 0.53521
 C447 C 0.52704 0.10812 0.45565
 C448 C 0.61641 0.02824 0.48249
 C449 C 0.54105 0.00937 0.38504
 C450 C 0.47964 -0.09735 0.54598
 C451 C 0.46513 -0.00363 0.60996
 C452 C 0.39349 -0.02702 0.51526
 H453 H 0.50801 0.03633 0.57440
 H454 H 0.42750 0.01124 0.46923
 H455 H 0.55726 0.04593 0.44406
 H456 H 0.53126 -0.07542 0.49712
 H457 H 0.58482 -0.05877 0.54909
 H458 H 0.59641 -0.06764 0.48957
 H459 H 0.40054 0.05781 0.50004
 H460 H 0.44148 0.08912 0.45924
 H461 H 0.55625 -0.02731 0.60985
 H462 H 0.58749 0.07611 0.55808
 H463 H 0.42471 -0.03739 0.43005
 H464 H 0.45339 0.00411 0.39743
 H465 H 0.50437 0.10701 0.53930
 H466 H 0.46310 0.07931 0.57678
 H467 H 0.53898 -0.06892 0.41497
 H468 H 0.49677 -0.10740 0.46208
 O469 O -0.00100 0.40767 1.06019
 O470 O 0.04934 0.43541 1.07901
 O471 O -0.08406 0.48944 1.06327
 O472 O -0.09899 0.53950 1.03687
 O473 O -0.06340 0.42105 0.96692
 O474 O -0.02037 0.42054 0.91845
 O475 O 0.01489 0.59619 0.99769
 O476 O -0.02088 0.59030 1.04998
 O477 O 0.10011 0.52434 0.99891
 O478 O 0.10917 0.46389 1.00807
 O479 O 0.03638 0.52698 0.90469
 O480 O -0.01950 0.51244 0.88941
 O481 O 0.00153 0.58013 0.94026
 O482 O -0.05309 0.54514 0.91939
 O483 O 0.08400 0.50357 0.93419
 O484 O 0.09238 0.44152 0.96135
 O485 O 0.06524 0.56666 1.02907
 O486 O 0.02407 0.55782 1.08194
 O487 O -0.01080 0.39120 1.00198
 O488 O 0.02314 0.39953 0.94490
 O489 O -0.09901 0.46271 0.99717
 O490 O -0.10188 0.52804 0.98164
 O491 O -0.03756 0.46484 1.09368
 O492 O 0.02267 0.48458 1.10527
 Zr493 Zr 0.00591 0.46326 1.05542
 O494 O 0.04155 0.50112 1.03546
 Zr495 Zr -0.06256 0.50139 1.01221
 O496 O -0.03004 0.54177 0.99267
 Zr497 Zr -0.01133 0.43806 0.97182
 O498 O 0.02211 0.47554 0.94848
 Zr499 Zr 0.01288 0.54898 1.02670
 O500 O -0.02254 0.51230 1.04920
 Zr501 Zr 0.06309 0.48616 0.98411
 O502 O 0.03132 0.44574 1.00612
 Zr503 Zr -0.00596 0.52467 0.94306
 O504 O -0.04100 0.48512 0.96110
 O505 O -0.03574 0.45325 1.02136
 O506 O 0.03652 0.53489 0.97632
 C507 C -0.00685 0.38414 1.03557
 C508 C -0.07013 0.47674 1.09176
 C509 C -0.09396 0.43336 0.97924
 C510 C 0.00966 0.60321 0.96432
 C511 C 0.09566 0.55380 1.01678
 C512 C 0.06945 0.51726 0.90642
 H513 H 0.06063 0.50443 1.05293
 H514 H 0.03134 0.46558 0.92491
 H515 H -0.05214 0.43589 1.03202
 H516 H -0.04453 0.56412 0.99045
 H517 H -0.03638 0.57924 1.06858
 H518 H -0.08540 0.56111 1.04083
 H519 H 0.08476 0.43826 0.93621
 H520 H 0.04299 0.39413 0.96123
 H521 H 0.03286 0.58220 1.08454
 H522 H 0.01590 0.46841 1.12514
 H523 H -0.01220 0.48720 0.88490
 H524 H -0.03731 0.43819 0.90814
 H525 H 0.06382 0.42362 1.05899
 H526 H 0.10386 0.46342 1.03444
 H527 H -0.10270 0.51514 0.95818
 H528 H -0.06114 0.56713 0.93276
 O529 O -0.00076 0.39526 0.49571
 O530 O -0.01330 0.41002 0.43630
 O531 O 0.09166 0.45621 0.51746
 O532 O 0.10355 0.51778 0.51315
 O533 O 0.00117 0.46212 0.59687
 O534 O -0.05861 0.48501 0.59605
 O535 O 0.01653 0.58704 0.44565
 O536 O 0.06929 0.55509 0.43281
 O537 O -0.06283 0.51885 0.41458
 O538 O -0.08448 0.46075 0.43959
 O539 O -0.07055 0.58035 0.51683
 O540 O -0.04475 0.57071 0.57636
 O541 O -0.00800 0.60332 0.50080
 O542 O 0.00245 0.58904 0.56388
 O543 O -0.09825 0.54311 0.47895
 O544 O -0.11274 0.48559 0.47973
 O545 O -0.00735 0.53873 0.40093
 O546 O 0.05574 0.51036 0.40590
 O547 O -0.02587 0.41213 0.55062
 O548 O -0.07897 0.44869 0.56179
 O549 O 0.05627 0.48290 0.58302
 O550 O 0.07951 0.53474 0.56068
 O551 O 0.06357 0.41838 0.48043
 O552 O 0.04102 0.43217 0.42174
 Zr553 Zr 0.01362 0.44330 0.47228
 O554 O -0.00998 0.48562 0.44407
 Zr555 Zr 0.05302 0.49808 0.52828
 O556 O 0.03058 0.54294 0.50267
 Zr557 Zr -0.02777 0.46827 0.54937
 O558 O -0.05358 0.51160 0.52434
 Zr559 Zr 0.02103 0.53093 0.44830
 O560 O 0.04722 0.48704 0.47296
 Zr561 Zr -0.05972 0.50117 0.46883
 O562 O -0.03778 0.45595 0.49512
 Zr563 Zr -0.02067 0.55551 0.52544
 O564 O 0.00340 0.51339 0.55391
 O565 O 0.02238 0.45321 0.52692
 O566 O -0.02948 0.54659 0.47045
 C567 C -0.01587 0.38851 0.52645
 C568 C 0.09090 0.42802 0.49743
 C569 C 0.03253 0.47139 0.60557
 C570 C 0.00563 0.61053 0.46960
 C571 C -0.03898 0.53069 0.39222
 C572 C -0.09762 0.57113 0.49916
 H573 H -0.01192 0.47689 0.41892
 H574 H -0.07698 0.51663 0.53710
 H575 H 0.03376 0.43319 0.53993
 H576 H 0.04668 0.56300 0.50486
 H577 H 0.08271 0.55873 0.45502
 H578 H 0.10762 0.51220 0.48703
 H579 H -0.11498 0.48146 0.50606
 H580 H -0.08709 0.43739 0.53934
 H581 H 0.04197 0.49365 0.39153
 H582 H 0.04881 0.40667 0.42039
 H583 H -0.06818 0.55944 0.57872
 H584 H -0.04805 0.50703 0.60493
 H585 H -0.03839 0.40870 0.44561
 H586 H -0.06932 0.45520 0.41756
 H587 H 0.06064 0.54763 0.57573
 H588 H 0.02672 0.59461 0.55456
 O589 O 0.50958 0.89837 0.03003
 O590 O 0.48027 0.88977 -0.02423
 O591 O 0.60078 0.95855 -0.00648
 O592 O 0.60511 1.01524 -0.03700
 O593 O 0.54105 0.98979 0.09101
 O594 O 0.48538 1.02126 0.10304
 O595 O 0.50041 1.05574 -0.09099
 O596 O 0.54776 1.01789 -0.10413
 O597 O 0.41315 0.99323 -0.06067
 O598 O 0.40501 0.94495 -0.01695
 O599 O 0.43558 1.08003 0.00235
 O600 O 0.48181 1.09073 0.04969
 O601 O 0.49025 1.09238 -0.04180
 O602 O 0.51951 1.10273 0.01265
 O603 O 0.40018 1.03301 -0.00537
 O604 O 0.39621 0.97595 0.02725
 O605 O 0.45844 1.00468 -0.10107
 O606 O 0.51204 0.96617 -0.11142
 O607 O 0.49876 0.93529 0.07885
 O608 O 0.45264 0.97875 0.09467
 O609 O 0.58695 0.99957 0.05070
 O610 O 0.59459 1.04677 0.00804
 O611 O 0.56577 0.91158 -0.01632
 O612 O 0.52085 0.90122 -0.06103
 Zr613 Zr 0.51263 0.93326 -0.01378
 O614 O 0.47673 0.96369 -0.04450
 Zr615 Zr 0.56352 1.00178 0.00007
 O616 O 0.53011 1.03478 -0.03043
 Zr617 Zr 0.49641 0.98664 0.05817
 O618 O 0.46012 1.01934 0.03036
 Zr619 Zr 0.50415 1.00485 -0.06923
 O620 O 0.54138 0.97199 -0.04173
 Zr621 Zr 0.43723 0.98945 -0.01053
 O622 O 0.47057 0.95564 0.01996
 Zr623 Zr 0.48843 1.05815 0.00256
 O624 O 0.52438 1.02814 0.03424
 O625 O 0.53723 0.96148 0.02636
 O626 O 0.46306 1.03006 -0.03741
 C627 C 0.50321 0.90439 0.06396
 C628 C 0.59650 0.92552 -0.01316
 C629 C 0.57411 0.99499 0.08290
 C630 C 0.49599 1.08658 -0.07584
 C631 C 0.42546 0.99919 -0.09275
 C632 C 0.40476 1.06625 -0.00056
 H633 H 0.46631 0.94819 -0.06284
 H634 H 0.44182 1.02986 0.04774
 H635 H 0.55330 0.94597 0.04052
 H636 H 0.54525 1.05266 -0.04202
 H637 H 0.56619 0.99844 -0.10256
 H638 H 0.60481 0.99823 -0.05759
 H639 H 0.39537 0.99382 0.04717
 H640 H 0.43702 0.96194 0.08264
 H641 H 0.50899 0.97820 -0.13487
 H642 H 0.53827 0.91334 -0.07692
 H643 H 0.46013 1.08343 0.06336
 H644 H 0.49865 1.04302 0.09819
 H645 H 0.45728 0.89473 -0.01061
 H646 H 0.41399 0.93158 -0.03888
 H647 H 0.58249 1.06104 0.02796
 H648 H 0.54251 1.09890 -0.00123
 O649 O 0.58145 0.48311 -0.07345
 O650 O 0.58083 0.54452 -0.06087
 O651 O 0.58910 0.43222 0.02469
 O652 O 0.55886 0.42839 0.07696
 O653 O 0.50554 0.40197 -0.05047
 O654 O 0.45265 0.42788 -0.06785
 O655 O 0.48110 0.53960 0.09696
 O656 O 0.53850 0.52073 0.10362
 O657 O 0.47584 0.59507 -0.00048
 O658 O 0.49214 0.58550 -0.05997
 O659 O 0.40172 0.51110 0.01791
 O660 O 0.40287 0.45327 0.02225
 O661 O 0.43578 0.50333 0.08419
 O662 O 0.43487 0.43735 0.06105
 O663 O 0.42093 0.55448 -0.01937
 O664 O 0.45801 0.54998 -0.07802
 O665 O 0.50289 0.58704 0.05304
 O666 O 0.56237 0.56243 0.06129
 O667 O 0.53398 0.45345 -0.09359
 O668 O 0.46940 0.46956 -0.09780
 O669 O 0.53055 0.39202 0.00372
 O670 O 0.51088 0.40829 0.06792
 O671 O 0.60928 0.47875 -0.00765
 O672 O 0.60249 0.54185 -0.01153
 Zr673 Zr 0.56273 0.50573 -0.02445
 O674 O 0.52717 0.54471 -0.00123
 Zr675 Zr 0.53310 0.44277 0.02913
 O676 O 0.49812 0.48022 0.05671
 Zr677 Zr 0.49575 0.45721 -0.04960
 O678 O 0.45731 0.49283 -0.02447
 Zr679 Zr 0.51660 0.53211 0.05281
 O680 O 0.55458 0.49400 0.03048
 Zr681 Zr 0.47698 0.54430 -0.02507
 O682 O 0.51472 0.50890 -0.05267
 Zr683 Zr 0.44897 0.48249 0.03107
 O684 O 0.48321 0.44299 0.00441
 O685 O 0.54478 0.45395 -0.02461
 O686 O 0.46614 0.53456 0.02972
 C687 C 0.56584 0.46510 -0.09732
 C688 C 0.61428 0.45089 0.01127
 C689 C 0.51781 0.38124 -0.02630
 C690 C 0.45203 0.52443 0.10545
 C691 C 0.48836 0.60678 0.02915
 C692 C 0.39610 0.53730 -0.00327
 H693 H 0.53837 0.56797 -0.00348
 H694 H 0.43502 0.49096 -0.03785
 H695 H 0.56203 0.43588 -0.03556
 H696 H 0.49559 0.47309 0.08228
 H697 H 0.56268 0.50968 0.09857
 H698 H 0.56002 0.45049 0.09151
 H699 H 0.43820 0.53359 -0.08074
 H700 H 0.48131 0.49016 -0.10851
 H701 H 0.55776 0.57742 0.08339
 H702 H 0.60637 0.53979 0.01470
 H703 H 0.40376 0.44665 -0.00377
 H704 H 0.44037 0.41873 -0.04593
 H705 H 0.56267 0.54697 -0.07963
 H706 H 0.51832 0.58755 -0.05815
 H707 H 0.49075 0.39659 0.05655
 H708 H 0.44557 0.43931 0.08506
 O709 O 0.05764 0.00554 0.40994
 O710 O 0.07616 0.05742 0.44435
 O711 O 0.06955 -0.07648 0.49018
 O712 O 0.04396 -0.09135 0.54253
 O713 O -0.02951 -0.06258 0.42709
 O714 O -0.08064 -0.02110 0.43428
 O715 O -0.00136 0.01631 0.60735
 O716 O 0.05150 -0.01741 0.59493
 O717 O 0.00099 0.10260 0.53645
 O718 O 0.00939 0.10611 0.46771
 O719 O -0.09511 0.03955 0.53600
 O720 O -0.10241 -0.02630 0.51909
 O721 O -0.05883 0.00619 0.59287
 O722 O -0.08217 -0.04079 0.56656
 O723 O -0.06288 0.08724 0.52101
 O724 O -0.04288 0.09911 0.46133
 O725 O 0.02764 0.06858 0.57883
 O726 O 0.08058 0.03094 0.56682
 O727 O 0.00094 -0.00807 0.39625
 O728 O -0.05598 0.02014 0.40854
 O729 O 0.00235 -0.09563 0.46661
 O730 O -0.01073 -0.09936 0.53193
 O731 O 0.09230 -0.02925 0.46066
 O732 O 0.10600 0.02709 0.47998
 Zr733 Zr 0.05415 0.01157 0.46718
 O734 O 0.03544 0.04560 0.50975
 Zr735 Zr 0.01676 -0.05811 0.50600
 O736 O -0.00551 -0.02606 0.54906
 Zr737 Zr -0.02718 -0.01019 0.44628
 O738 O -0.04997 0.02435 0.48637
 Zr739 Zr 0.02711 0.01702 0.55747
 O740 O 0.05108 -0.01640 0.51641
 Zr741 Zr -0.01543 0.06568 0.49752
 O742 O 0.00466 0.03413 0.45293
 Zr743 Zr -0.05530 -0.00245 0.53579
 O744 O -0.03524 -0.03866 0.49435
 O745 O 0.02309 -0.03187 0.45725
 O746 O -0.02307 0.04006 0.54665
 C747 C 0.03357 -0.00179 0.38721
 C748 C 0.09456 -0.06093 0.47234
 C749 C -0.01654 -0.09223 0.43839
 C750 C -0.03454 0.01188 0.61599
 C751 C 0.01714 0.09854 0.56629
 C752 C -0.09253 0.07242 0.52764
 H753 H 0.05282 0.06442 0.51303
 H754 H -0.07301 0.03290 0.47669
 H755 H 0.03390 -0.04773 0.43787
 H756 H -0.00792 -0.04041 0.57115
 H757 H 0.07105 -0.03096 0.58141
 H758 H 0.04113 -0.07990 0.56674
 H759 H -0.06205 0.08523 0.45093
 H760 H -0.04395 0.04300 0.40643
 H761 H 0.08218 0.03778 0.59272
 H762 H 0.10993 0.01896 0.50491
 H763 H -0.11314 -0.01068 0.50075
 H764 H -0.08794 -0.04081 0.44999
 H765 H 0.05754 0.06852 0.42931
 H766 H 0.03318 0.10955 0.47784
 H767 H -0.03559 -0.09819 0.52345
 H768 H -0.06516 -0.06142 0.56837
 O769 O 0.84697 0.23731 0.21021
 O770 O 0.81927 0.18238 0.19866
 O771 O 0.76714 0.31706 0.18716
 O772 O 0.71041 0.33467 0.21012
 O773 O 0.81651 0.31704 0.30024
 O774 O 0.82073 0.27907 0.34545
 O775 O 0.64943 0.23671 0.25985
 O776 O 0.66855 0.25796 0.19716
 O777 O 0.72198 0.14945 0.27346
 O778 O 0.78250 0.13881 0.27131
 O779 O 0.70255 0.22611 0.35569
 O780 O 0.72799 0.28792 0.36508
 O781 O 0.65936 0.26019 0.31539
 O782 O 0.68933 0.31052 0.33592
 O783 O 0.73576 0.17650 0.33844
 O784 O 0.80017 0.16354 0.31549
 O785 O 0.68537 0.17709 0.23380
 O786 O 0.68893 0.20850 0.18324
 O787 O 0.85663 0.26276 0.26506
 O788 O 0.84147 0.23270 0.32427
 O789 O 0.78469 0.34455 0.25666
 O790 O 0.72027 0.35275 0.25984
 O791 O 0.79879 0.26657 0.16964
 O792 O 0.77864 0.20696 0.16197
 Zr793 Zr 0.79123 0.23114 0.21193
 O794 O 0.74973 0.20066 0.23280
 Zr795 Zr 0.74833 0.30603 0.24054
 O796 O 0.70494 0.27839 0.26252
 Zr797 Zr 0.80594 0.26362 0.29308
 O798 O 0.76482 0.23474 0.31795
 Zr799 Zr 0.70070 0.23011 0.23427
 O800 O 0.74162 0.25959 0.20942
 Zr801 Zr 0.75806 0.18844 0.28721
 O802 O 0.80221 0.21544 0.26479
 Zr803 Zr 0.71535 0.26305 0.31566
 O804 O 0.75717 0.29398 0.29506
 O805 O 0.79753 0.27872 0.23996
 O806 O 0.70803 0.21538 0.28784
 C807 C 0.86734 0.25130 0.23325
 C808 C 0.78598 0.29791 0.16383
 C809 C 0.80692 0.34444 0.28252
 C810 C 0.63862 0.24975 0.29086
 C811 C 0.69746 0.14951 0.25008
 C812 C 0.71470 0.19436 0.36073
 H813 H 0.74898 0.17910 0.21732
 H814 H 0.77131 0.22966 0.34309
 H815 H 0.81588 0.29397 0.22902
 H816 H 0.68294 0.29371 0.26138
 H817 H 0.65555 0.27782 0.21040
 H818 H 0.70064 0.31736 0.19309
 H819 H 0.80209 0.17655 0.33872
 H820 H 0.85146 0.21303 0.30844
 H821 H 0.71176 0.20759 0.16879
 H822 H 0.79931 0.20880 0.14452
 H823 H 0.74082 0.27017 0.37983
 H824 H 0.79829 0.28734 0.35854
 H825 H 0.83211 0.17468 0.22035
 H826 H 0.78656 0.13929 0.24474
 H827 H 0.72412 0.35435 0.28616
 H828 H 0.67922 0.32312 0.31510
 O829 O 0.72351 0.68615 0.66970
 O830 O 0.77898 0.66260 0.68753
 O831 O 0.66671 0.68929 0.77639
 O832 O 0.66417 0.72210 0.82616
 O833 O 0.65784 0.77730 0.69745
 O834 O 0.69606 0.82523 0.68431
 O835 O 0.78993 0.75977 0.84292
 O836 O 0.75536 0.71069 0.85035
 O837 O 0.84982 0.74720 0.74642
 O838 O 0.84023 0.73486 0.68649
 O839 O 0.78697 0.84388 0.76542
 O840 O 0.72669 0.86081 0.76537
 O841 O 0.76739 0.81467 0.82875
 O842 O 0.70620 0.83797 0.80901
 O843 O 0.82384 0.81295 0.72491
 O844 O 0.81487 0.77756 0.66745
 O845 O 0.83083 0.72490 0.80038
 O846 O 0.79301 0.67499 0.80827
 O847 O 0.70254 0.74110 0.65420
 O848 O 0.73231 0.79626 0.64965
 O849 O 0.63908 0.75575 0.75181
 O850 O 0.65594 0.77413 0.81397
 O851 O 0.70172 0.65855 0.73407
 O852 O 0.76498 0.64365 0.73783
 Zr853 Zr 0.74299 0.69335 0.72184
 O854 O 0.78805 0.71432 0.74540
 Zr855 Zr 0.68691 0.74082 0.77720
 O856 O 0.72984 0.76281 0.80387
 Zr857 Zr 0.71375 0.77347 0.69848
 O858 O 0.75703 0.79785 0.72185
 Zr859 Zr 0.77512 0.72825 0.79952
 O860 O 0.73087 0.70403 0.77719
 Zr861 Zr 0.80176 0.76220 0.72104
 O862 O 0.75928 0.73869 0.69400
 Zr863 Zr 0.74564 0.80876 0.77712
 O864 O 0.70003 0.78874 0.75229
 O865 O 0.69760 0.72707 0.72313
 O866 O 0.79151 0.77531 0.77559
 C867 C 0.70941 0.70805 0.64753
 C868 C 0.67594 0.66090 0.75800
 C869 C 0.63342 0.76974 0.72096
 C870 C 0.78341 0.79285 0.84982
 C871 C 0.85528 0.73264 0.77711
 C872 C 0.81369 0.84154 0.74252
 H873 H 0.80797 0.69623 0.74349
 H874 H 0.76148 0.81960 0.70803
 H875 H 0.67717 0.71583 0.71178
 H876 H 0.72250 0.76754 0.82951
 H877 H 0.73906 0.69127 0.84529
 H878 H 0.68416 0.71827 0.84264
 H879 H 0.80399 0.80160 0.66405
 H880 H 0.75152 0.77999 0.63915
 H881 H 0.80741 0.67456 0.83030
 H882 H 0.75770 0.64077 0.76361
 H883 H 0.72790 0.86301 0.73873
 H884 H 0.68425 0.83621 0.70637
 H885 H 0.78953 0.67918 0.66996
 H886 H 0.83704 0.70921 0.69004
 H887 H 0.65141 0.79695 0.80166
 H888 H 0.70199 0.82486 0.83166
 O889 O 0.30489 0.17219 0.75202
 O890 O 0.31767 0.18858 0.69612
 O891 O 0.32688 0.27343 0.81151
 O892 O 0.30156 0.32453 0.82224
 O893 O 0.23479 0.20565 0.84008
 O894 O 0.17747 0.20369 0.81763
 O895 O 0.23768 0.35516 0.70670
 O896 O 0.29527 0.35285 0.72889
 O897 O 0.22047 0.26552 0.64845
 O898 O 0.22545 0.20468 0.65424
 O899 O 0.14683 0.29700 0.73510
 O900 O 0.14450 0.29433 0.79646
 O901 O 0.18835 0.34923 0.74384
 O902 O 0.18078 0.33008 0.81153
 O903 O 0.16043 0.25728 0.68939
 O904 O 0.18704 0.19269 0.69091
 O905 O 0.25605 0.31189 0.65902
 O906 O 0.31548 0.30880 0.68355
 O907 O 0.25199 0.16276 0.78194
 O908 O 0.18831 0.17195 0.77316
 O909 O 0.26749 0.25352 0.85302
 O910 O 0.25056 0.31914 0.84221
 O911 O 0.34533 0.23456 0.76631
 O912 O 0.34122 0.23515 0.69901
 Zr913 Zr 0.29855 0.22559 0.73645
 O914 O 0.26873 0.25420 0.69843
 Zr915 Zr 0.27241 0.28132 0.80376
 O916 O 0.24513 0.31443 0.76757
 Zr917 Zr 0.22407 0.21228 0.78526
 O918 O 0.19183 0.24317 0.75113
 Zr919 Zr 0.26648 0.30780 0.71434
 O920 O 0.29774 0.27956 0.75152
 Zr921 Zr 0.21458 0.24012 0.69847
 O922 O 0.24595 0.20714 0.73218
 Zr923 Zr 0.19276 0.29744 0.76522
 O924 O 0.21935 0.26556 0.80347
 O925 O 0.27693 0.22764 0.78908
 O926 O 0.21300 0.29388 0.71201
 C927 C 0.28227 0.15191 0.76734
 C928 C 0.35117 0.25570 0.79310
 C929 C 0.25145 0.22510 0.86204
 C930 C 0.20776 0.36654 0.72118
 C931 C 0.23807 0.29245 0.63815
 C932 C 0.13874 0.27953 0.70684
 H933 H 0.28068 0.25067 0.67425
 H934 H 0.16718 0.23449 0.75243
 H935 H 0.29190 0.21305 0.80526
 H936 H 0.24591 0.33947 0.77582
 H937 H 0.31725 0.34375 0.74041
 H938 H 0.30480 0.34025 0.80128
 H939 H 0.16424 0.19486 0.70540
 H940 H 0.19679 0.16091 0.74979
 H941 H 0.31538 0.33099 0.66944
 H942 H 0.35147 0.25792 0.70618
 H943 H 0.14025 0.26877 0.79937
 H944 H 0.17155 0.22619 0.83110
 H945 H 0.29613 0.17950 0.68484
 H946 H 0.25180 0.20299 0.65038
 H947 H 0.23012 0.30820 0.85500
 H948 H 0.19457 0.35185 0.80907
 O949 O 0.20974 0.84017 0.25687
 O950 O 0.19672 0.82203 0.19865
 O951 O 0.17740 0.74942 0.31928
 O952 O 0.19470 0.69489 0.32755
 O953 O 0.29093 0.79222 0.33735
 O954 O 0.33388 0.81033 0.30641
 O955 O 0.25706 0.64969 0.20871
 O956 O 0.19955 0.65973 0.23263
 O957 O 0.28220 0.73835 0.14602
 O958 O 0.28445 0.79735 0.15188
 O959 O 0.35268 0.69765 0.22542
 O960 O 0.35772 0.70884 0.28657
 O961 O 0.30685 0.65227 0.24219
 O962 O 0.31872 0.67298 0.30591
 O963 O 0.34252 0.73859 0.18199
 O964 O 0.32445 0.80622 0.18574
 O965 O 0.24481 0.69394 0.16011
 O966 O 0.18441 0.70409 0.18929
 O967 O 0.25869 0.84458 0.29113
 O968 O 0.32205 0.83088 0.25796
 O969 O 0.24491 0.75797 0.35503
 O970 O 0.24602 0.69159 0.34286
 O971 O 0.16539 0.78929 0.27535
 O972 O 0.16469 0.78022 0.20969
 Zr973 Zr 0.21080 0.78684 0.24029
 O974 O 0.23633 0.75368 0.20026
 Zr975 Zr 0.23079 0.73167 0.30627
 O976 O 0.25418 0.69448 0.26825
 Zr977 Zr 0.28673 0.79452 0.28175
 O978 O 0.31518 0.75863 0.24592
 Zr979 Zr 0.23348 0.70077 0.21640
 O980 O 0.20553 0.73381 0.25593
 Zr981 Zr 0.29154 0.76263 0.19565
 O982 O 0.26444 0.80039 0.23099
 Zr983 Zr 0.30840 0.70542 0.26081
 O984 O 0.28560 0.74153 0.30001
 O985 O 0.23273 0.78452 0.29137
 O986 O 0.28803 0.70940 0.20934
 C987 C 0.22986 0.85770 0.27733
 C988 C 0.15648 0.77177 0.30357
 C989 C 0.27129 0.77804 0.36156
 C990 C 0.28543 0.63571 0.22201
 C991 C 0.26322 0.71218 0.13748
 C992 C 0.36172 0.71403 0.19671
 H993 H 0.22432 0.75772 0.17718
 H994 H 0.34082 0.76429 0.24482
 H995 H 0.22042 0.79994 0.31028
 H996 H 0.25054 0.67017 0.27702
 H997 H 0.17924 0.67134 0.24682
 H998 H 0.18882 0.67936 0.30698
 H999 H 0.34785 0.80100 0.19663
 H1000 H 0.30729 0.84820 0.24444
 H1001 H 0.18288 0.68228 0.17416
 H1002 H 0.15334 0.75850 0.21846
 H1003 H 0.35464 0.72914 0.30383
 H1004 H 0.35159 0.79015 0.30329
 H1005 H 0.21912 0.83304 0.19028
 H1006 H 0.25841 0.80291 0.15104
 H1007 H 0.26995 0.69735 0.35141
 H1008 H 0.29985 0.65531 0.30774
 O1009 O 0.13856 0.72620 0.74840
 O1010 O 0.14562 0.74693 0.68754
 O1011 O 0.23011 0.65260 0.75451
 O1012 O 0.29338 0.65805 0.75627
 O1013 O 0.20352 0.73671 0.84025
 O1014 O 0.21483 0.80011 0.84071
 O1015 O 0.32990 0.74936 0.68448
 O1016 O 0.30498 0.69108 0.67374
 O1017 O 0.24001 0.81848 0.65830
 O1018 O 0.17570 0.82179 0.68204
 O1019 O 0.29720 0.83812 0.75091
 O1020 O 0.29553 0.81029 0.81402
 O1021 O 0.33898 0.78015 0.73645
 O1022 O 0.33123 0.77235 0.79831
 O1023 O 0.24944 0.85431 0.71765
 O1024 O 0.18669 0.85242 0.72446
 O1025 O 0.27874 0.77178 0.64459
 O1026 O 0.26439 0.71188 0.63981
 O1027 O 0.14843 0.75798 0.79970
 O1028 O 0.17027 0.81418 0.81139
 O1029 O 0.23784 0.68773 0.82311
 O1030 O 0.29775 0.68351 0.80302
 O1031 O 0.18081 0.67155 0.72490
 O1032 O 0.17986 0.70024 0.66806
 Zr1033 Zr 0.18777 0.72573 0.71868
 O1034 O 0.22158 0.75751 0.68744
 Zr1035 Zr 0.25533 0.69962 0.76987
 O1036 O 0.29118 0.73213 0.74220
 Zr1037 Zr 0.20299 0.76951 0.79457
 O1038 O 0.23567 0.80494 0.76616
 Zr1039 Zr 0.27508 0.73830 0.68882
 O1040 O 0.24065 0.70340 0.71569
 Zr1041 Zr 0.22151 0.80800 0.71167
 O1042 O 0.18536 0.77700 0.74167
 Zr1043 Zr 0.28868 0.78425 0.76374
 O1044 O 0.25650 0.75013 0.79517
 O1045 O 0.20233 0.71855 0.77208
 O1046 O 0.27525 0.79002 0.70985
 C1047 C 0.12817 0.74091 0.77885
 C1048 C 0.20196 0.64719 0.73644
 C1049 C 0.21884 0.70636 0.84660
 C1050 C 0.35012 0.76453 0.70681
 C1051 C 0.26268 0.80126 0.63701
 C1052 C 0.27813 0.86111 0.73378
 H1053 H 0.21337 0.75815 0.66232
 H1054 H 0.23361 0.82845 0.77843
 H1055 H 0.18654 0.70224 0.78532
 H1056 H 0.31534 0.72068 0.74358
 H1057 H 0.32304 0.68659 0.69223
 H1058 H 0.29075 0.65219 0.73035
 H1059 H 0.18932 0.85836 0.75035
 H1060 H 0.15807 0.82262 0.78962
 H1061 H 0.24438 0.69615 0.64543
 H1062 H 0.15729 0.68712 0.66942
 H1063 H 0.27936 0.83173 0.81530
 H1064 H 0.23831 0.79095 0.84893
 H1065 H 0.13610 0.76910 0.69969
 H1066 H 0.17554 0.80564 0.66072
 H1067 H 0.30190 0.70391 0.81930
 H1068 H 0.33742 0.74672 0.79507
 O1069 O 0.23252 0.17860 0.17057
 O1070 O 0.28731 0.15723 0.18718
 O1071 O 0.17505 0.18522 0.27755
 O1072 O 0.17212 0.21980 0.32576
 O1073 O 0.16868 0.27505 0.19664
 O1074 O 0.20900 0.31862 0.18001
 O1075 O 0.29442 0.25634 0.34466
 O1076 O 0.26319 0.20550 0.35068
 O1077 O 0.35889 0.24161 0.24829
 O1078 O 0.35087 0.22534 0.18895
 O1079 O 0.29820 0.33693 0.26162
 O1080 O 0.23188 0.35295 0.25912
 O1081 O 0.27609 0.31152 0.32688
 O1082 O 0.22220 0.33767 0.30909
 O1083 O 0.33450 0.30441 0.22186
 O1084 O 0.32496 0.26598 0.16646
 O1085 O 0.33894 0.22401 0.30382
 O1086 O 0.30153 0.17083 0.30932
 O1087 O 0.21108 0.23345 0.15487
 O1088 O 0.24369 0.28688 0.14747
 O1089 O 0.14822 0.25275 0.25000
 O1090 O 0.16401 0.27089 0.31207
 O1091 O 0.20994 0.15327 0.23607
 O1092 O 0.27405 0.13932 0.24406
 Zr1093 Zr 0.25171 0.18707 0.22288
 O1094 O 0.29687 0.20788 0.24683
 Zr1095 Zr 0.19537 0.23683 0.27637
 O1096 O 0.23825 0.25903 0.30271
 Zr1097 Zr 0.22411 0.26713 0.19739
 O1098 O 0.26771 0.29122 0.22022
 Zr1099 Zr 0.28325 0.22394 0.30033
 O1100 O 0.23900 0.19981 0.27776
 Zr1101 Zr 0.31154 0.25448 0.22103
 O1102 O 0.26887 0.23148 0.19430
 Zr1103 Zr 0.25554 0.30391 0.27498
 O1104 O 0.20977 0.28390 0.25065
 O1105 O 0.20668 0.22161 0.22288
 O1106 O 0.30074 0.26980 0.27501
 C1107 C 0.21788 0.20034 0.14843
 C1108 C 0.18454 0.15619 0.26035
 C1109 C 0.14368 0.26825 0.21967
 C1110 C 0.28889 0.28986 0.35015
 C1111 C 0.36388 0.23070 0.28057
 C1112 C 0.32463 0.33345 0.23843
 H1113 H 0.31685 0.18984 0.24603
 H1114 H 0.27256 0.31227 0.20545
 H1115 H 0.18588 0.21076 0.21179
 H1116 H 0.23031 0.26463 0.32803
 H1117 H 0.24660 0.18645 0.34515
 H1118 H 0.19218 0.21524 0.34201
 H1119 H 0.31474 0.29000 0.16162
 H1120 H 0.26173 0.26913 0.13736
 H1121 H 0.31696 0.17092 0.33059
 H1122 H 0.26368 0.11866 0.23185
 H1123 H 0.24286 0.35896 0.23533
 H1124 H 0.19899 0.33185 0.20164
 H1125 H 0.29945 0.17447 0.17146
 H1126 H 0.34873 0.19996 0.19478
 H1127 H 0.16121 0.29402 0.29990
 H1128 H 0.20896 0.32233 0.32597
 O1129 O 0.65386 0.76471 0.23363
 O1130 O 0.65627 0.76859 0.29846
 O1131 O 0.74910 0.83677 0.21699
 O1132 O 0.80764 0.83070 0.21593
 O1133 O 0.73131 0.74180 0.14601
 O1134 O 0.74505 0.67916 0.15692
 O1135 O 0.83710 0.74779 0.31192
 O1136 O 0.81588 0.80613 0.30696
 O1137 O 0.74220 0.69097 0.34159
 O1138 O 0.68275 0.68659 0.31343
 O1139 O 0.81300 0.65255 0.25841
 O1140 O 0.82125 0.66919 0.19149
 O1141 O 0.85360 0.70906 0.26580
 O1142 O 0.85480 0.70691 0.20381
 O1143 O 0.76302 0.64632 0.29437
 O1144 O 0.70029 0.64920 0.27683
 O1145 O 0.77928 0.73627 0.35136
 O1146 O 0.76253 0.79800 0.34230
 O1147 O 0.67261 0.72810 0.18661
 O1148 O 0.69754 0.67105 0.18626
 O1149 O 0.76229 0.79111 0.15764
 O1150 O 0.82360 0.78976 0.18193
 O1151 O 0.69505 0.82805 0.24491
 O1152 O 0.68330 0.81240 0.30305
 Zr1153 Zr 0.70069 0.77507 0.26233
 O1154 O 0.72952 0.74680 0.30124
 Zr1155 Zr 0.77474 0.78650 0.21238
 O1156 O 0.80629 0.75810 0.24875
 Zr1157 Zr 0.72637 0.71703 0.19672
 O1158 O 0.75499 0.68542 0.23332
 Zr1159 Zr 0.78315 0.76188 0.30133
 O1160 O 0.75321 0.79359 0.26554
 Zr1161 Zr 0.73285 0.69297 0.28611
 O1162 O 0.70136 0.72070 0.24885
 Zr1163 Zr 0.80718 0.70354 0.23604
 O1164 O 0.77959 0.73279 0.19629
 O1165 O 0.72190 0.77122 0.20956
 O1166 O 0.78605 0.70773 0.28894
 C1167 C 0.64820 0.74489 0.20585
 C1168 C 0.71854 0.84802 0.23045
 C1169 C 0.74622 0.77049 0.13623
 C1170 C 0.86048 0.72826 0.29349
 C1171 C 0.76092 0.71004 0.36203
 C1172 C 0.79329 0.63515 0.28058
 H1173 H 0.71742 0.75099 0.32526
 H1174 H 0.75496 0.66026 0.22543
 H1175 H 0.70698 0.78548 0.19307
 H1176 H 0.83049 0.76784 0.24753
 H1177 H 0.80178 0.82711 0.29874
 H1178 H 0.81920 0.82923 0.23951
 H1179 H 0.71156 0.63464 0.25671
 H1180 H 0.68417 0.66589 0.20906
 H1181 H 0.78013 0.79895 0.36173
 H1182 H 0.70532 0.82127 0.31352
 H1183 H 0.80540 0.64878 0.19258
 H1184 H 0.76931 0.68599 0.14874
 H1185 H 0.64870 0.74390 0.29522
 H1186 H 0.67965 0.70529 0.33248
 H1187 H 0.82496 0.76961 0.16437
 H1188 H 0.85953 0.73245 0.20170
 O1189 O 0.66105 0.26243 0.81911
 O1190 O 0.67977 0.19995 0.82634
 O1191 O 0.76750 0.30638 0.83464
 O1192 O 0.81895 0.31010 0.80296
 O1193 O 0.69737 0.34435 0.74435
 O1194 O 0.68213 0.31597 0.68900
 O1195 O 0.83891 0.20418 0.73139
 O1196 O 0.84069 0.22053 0.79143
 O1197 O 0.74406 0.14898 0.71927
 O1198 O 0.68067 0.16322 0.75236
 O1199 O 0.75860 0.22357 0.64859
 O1200 O 0.75846 0.29203 0.65103
 O1201 O 0.82485 0.23611 0.68164
 O1202 O 0.80792 0.29173 0.66797
 O1203 O 0.71506 0.18864 0.67124
 O1204 O 0.66503 0.18709 0.70610
 O1205 O 0.79508 0.15617 0.74966
 O1206 O 0.79925 0.17809 0.81160
 O1207 O 0.65038 0.29984 0.77263
 O1208 O 0.64571 0.28206 0.71103
 O1209 O 0.74746 0.35086 0.77635
 O1210 O 0.80855 0.33380 0.75523
 O1211 O 0.72336 0.27078 0.85472
 O1212 O 0.72465 0.21027 0.85462
 Zr1213 Zr 0.71338 0.24061 0.80849
 O1214 O 0.73879 0.19925 0.77673
 Zr1215 Zr 0.77067 0.29914 0.77767
 O1216 O 0.79685 0.26080 0.74323
 Zr1217 Zr 0.69448 0.28908 0.73711
 O1218 O 0.71698 0.24914 0.70228
 Zr1219 Zr 0.79263 0.21006 0.76526
 O1220 O 0.76882 0.24885 0.80147
 Zr1221 Zr 0.71551 0.19871 0.72630
 O1222 O 0.68773 0.23821 0.75905
 Zr1223 Zr 0.77195 0.25697 0.69308
 O1224 O 0.74861 0.29938 0.72591
 O1225 O 0.71658 0.29168 0.78789
 O1226 O 0.76983 0.20634 0.71457
 C1227 C 0.64116 0.28481 0.80218
 C1228 C 0.74793 0.29280 0.85990
 C1229 C 0.72005 0.36339 0.76011
 C1230 C 0.84695 0.21769 0.70053
 C1231 C 0.77422 0.13734 0.73125
 C1232 C 0.73379 0.20086 0.64515
 H1233 H 0.73683 0.17623 0.78902
 H1234 H 0.70320 0.25066 0.68001
 H1235 H 0.70533 0.31027 0.80432
 H1236 H 0.82204 0.26770 0.74041
 H1237 H 0.83368 0.23149 0.81530
 H1238 H 0.83535 0.28915 0.79849
 H1239 H 0.65494 0.20956 0.69650
 H1240 H 0.63437 0.26149 0.72244
 H1241 H 0.82084 0.16220 0.80728
 H1242 H 0.75107 0.20703 0.85469
 H1243 H 0.73564 0.28448 0.64117
 H1244 H 0.70430 0.32724 0.68039
 H1245 H 0.66066 0.19818 0.80862
 H1246 H 0.69533 0.14368 0.76269
 H1247 H 0.79860 0.34299 0.73258
 H1248 H 0.82002 0.30389 0.68772
 C1249 C 0.12553 0.98762 1.16985
 C1250 C 0.15345 0.98123 1.14481
 C1251 C 0.13791 0.97908 1.11219
 C1252 C 0.10169 0.98500 1.11951
 O1253 O 0.09402 0.99035 1.15449
 H1254 H 0.18178 0.97845 1.14986
 H1255 H 0.15141 0.97448 1.08604
 C1256 C 0.57733 0.48998 0.68945
 C1257 C 0.54227 0.48000 0.69458
 C1258 C 0.52784 0.48210 0.66165
 C1259 C 0.55484 0.49303 0.63869
 O1260 O 0.58501 0.49814 0.65527
 H1261 H 0.52792 0.47351 0.71933
 H1262 H 0.50036 0.47749 0.65519
 C1263 C 0.42855 0.00280 0.69970
 C1264 C 0.46323 -0.00818 0.70722
 C1265 C 0.48107 -0.01158 0.67464
 C1266 C 0.45629 -0.00265 0.64926
 O1267 O 0.42433 0.00614 0.66428
 H1268 H 0.47410 -0.01499 0.73302
 H1269 H 0.50882 -0.02027 0.66985
 C1270 C -0.11267 0.48486 1.17757
 C1271 C -0.14274 0.48169 1.15723
 C1272 C -0.13036 0.47702 1.12261
 C1273 C -0.09361 0.47704 1.12425
 O1274 O -0.08253 0.48174 1.15762
 H1275 H -0.17050 0.48269 1.16680
 H1276 H -0.14619 0.47435 1.09884
 C1277 C -0.06533 0.51423 0.30318
 C1278 C -0.03500 0.53255 0.29464
 C1279 C -0.02260 0.54349 0.32705
 C1280 C -0.04628 0.53123 0.35316
 O1281 O -0.07226 0.51350 0.33867
 H1282 H -0.02323 0.53738 0.26809
 H1283 H 0.00168 0.55750 0.33123
 C1284 C 0.37778 0.99870 -0.17300
 C1285 C 0.34888 0.99772 -0.14848
 C1286 C 0.36316 0.99809 -0.11528
 C1287 C 0.39961 0.99942 -0.12166
 O1288 O 0.40869 0.99981 -0.15658
 H1289 H 0.32062 0.99670 -0.15342
 H1290 H 0.34870 0.99733 -0.08940
 C1291 C 0.60887 0.47278 -0.18085
 C1292 C 0.63682 0.45660 -0.16327
 C1293 C 0.62253 0.44731 -0.13062
 C1294 C 0.58689 0.45834 -0.13081
 O1295 O 0.57847 0.47382 -0.16136
 H1296 H 0.66457 0.45332 -0.17249
 H1297 H 0.63696 0.43656 -0.10812
 C1298 C 0.07204 -0.00677 0.29811
 C1299 C 0.03695 -0.01314 0.29028
 C1300 C 0.01843 -0.01164 0.32252
 C1301 C 0.04323 -0.00443 0.34807
 O1302 O 0.07598 -0.00146 0.33340
 H1303 H 0.02581 -0.01851 0.26428
 H1304 H -0.00992 -0.01564 0.32694
 C1305 C 0.19503 1.06340 0.97791
 C1306 C 0.20561 1.02830 0.97132
 C1307 C 0.17483 1.00998 0.97327
 C1308 C 0.14758 1.03509 0.98075
 O1309 O 0.15969 1.06750 0.98318
 H1310 H 0.23250 1.01691 0.96748
 H1311 H 0.17265 0.98150 0.97082
 C1312 C 0.69387 0.56041 0.48564
 C1313 C 0.70342 0.52478 0.48861
 C1314 C 0.67192 0.50768 0.48948
 C1315 C 0.64552 0.53399 0.48685
 O1316 O 0.65869 0.56586 0.48417
 H1317 H 0.72966 0.51271 0.49266
 H1318 H 0.66845 0.47960 0.49346
 C1319 C 0.70193 0.41558 0.02157
 C1320 C 0.70475 0.44715 0.04068
 C1321 C 0.67215 0.46428 0.03898
 C1322 C 0.65145 0.44167 0.01993
 O1323 O 0.66921 0.41204 0.00931
 H1324 H 0.72804 0.45669 0.05381
 H1325 H 0.66423 0.49015 0.05040
 C1326 C 0.18360 -0.08912 0.46900
 C1327 C 0.18006 -0.07834 0.43365
 C1328 C 0.14472 -0.07281 0.42955
 C1329 C 0.12888 -0.07893 0.46302
 O1330 O 0.15243 -0.08908 0.48731
 H1331 H 0.20111 -0.07529 0.41313
 H1332 H 0.13216 -0.06185 0.40601
 C1333 C 0.30663 -0.05801 0.50426
 C1334 C 0.29716 -0.02682 0.52302
 C1335 C 0.32856 -0.01191 0.53110
 C1336 C 0.35508 -0.03487 0.51668
 O1337 O 0.34191 -0.06305 0.50052
 H1338 H 0.27047 -0.01619 0.53015
 H1339 H 0.33174 0.01326 0.54486
 C1340 C -0.17215 0.38537 0.98574
 C1341 C -0.15007 0.36015 0.96763
 C1342 C -0.11911 0.37633 0.96019
 C1343 C -0.12403 0.41011 0.97473
 O1344 O -0.15649 0.41606 0.98979
 H1345 H -0.15546 0.33303 0.96048
 H1346 H -0.09497 0.36419 0.94752
 C1347 C -0.18433 0.61008 0.51132
 C1348 C -0.16533 0.63796 0.52431
 C1349 C -0.13029 0.62740 0.51988
 C1350 C -0.13026 0.59393 0.50434
 O1351 O -0.16304 0.58318 0.49916
 H1352 H -0.17544 0.66285 0.53632
 H1353 H -0.10741 0.64200 0.52792
 C1354 C 0.31913 1.10986 0.00371
 C1355 C 0.33959 1.13917 0.00886
 C1356 C 0.37422 1.12660 0.00788
 C1357 C 0.37274 1.09053 0.00213
 O1358 O 0.33931 1.08015 -0.00050
 H1359 H 0.33082 1.16670 0.01242
 H1360 H 0.39783 1.14200 0.01088
 C1361 C 0.02628 1.17123 1.11102
 C1362 C 0.03964 1.14967 1.13766
 C1363 C 0.04682 1.11767 1.12164
 C1364 C 0.03683 1.12134 1.08632
 O1365 O 0.02424 1.15403 1.07954
 H1366 H 0.04325 1.15660 1.16577
 H1367 H 0.05596 1.09362 1.13478
 C1368 C 0.52399 0.69569 0.57591
 C1369 C 0.55179 0.69861 0.55060
 C1370 C 0.55637 0.66597 0.53463
 C1371 C 0.53141 0.64535 0.55172
 O1372 O 0.51165 0.66325 0.57685
 H1373 H 0.56675 0.72194 0.54449
 H1374 H 0.57538 0.65815 0.51290
 C1375 C 0.00749 0.69734 0.43526
 C1376 C 0.01112 0.70554 0.47147
 C1377 C 0.01156 0.67393 0.48865
 C1378 C 0.00882 0.64852 0.46184
 O1379 O 0.00660 0.66250 0.42929
 H1380 H 0.01301 0.73137 0.48419
 H1381 H 0.01340 0.66982 0.51745
 C1382 C 0.50411 1.16967 -0.11551
 C1383 C 0.50978 1.14891 -0.14650
 C1384 C 0.50700 1.11491 -0.13567
 C1385 C 0.49949 1.11740 -0.09897
 O1386 O 0.49761 1.15058 -0.08650
 H1387 H 0.51441 1.15778 -0.17393
 H1388 H 0.50994 1.09115 -0.15248
 C1389 C 0.50388 0.29370 -0.05763
 C1390 C 0.51563 0.28546 -0.02360
 C1391 C 0.52343 0.31704 -0.00779
 C1392 C 0.51591 0.34250 -0.03308
 O1393 O 0.50402 0.32845 -0.06336
 H1394 H 0.51870 0.25956 -0.01163
 H1395 H 0.53298 0.32108 0.01919
 C1396 C -0.02042 -0.17606 0.39629
 C1397 C -0.03929 -0.15676 0.37139
 C1398 C -0.04115 -0.12290 0.38457
 C1399 C -0.02303 -0.12396 0.41643
 O1400 O -0.01052 -0.15630 0.42380
 H1401 H -0.05016 -0.16621 0.34644
 H1402 H -0.05355 -0.09996 0.37205
 C1403 C 0.47498 -0.17941 0.58778
 C1404 C 0.43872 -0.17356 0.58400
 C1405 C 0.43550 -0.14165 0.56725
 C1406 C 0.47008 -0.13061 0.56267
 O1407 O 0.49417 -0.15340 0.57513
 H1408 H 0.41748 -0.19085 0.59204
 H1409 H 0.41106 -0.12777 0.55968
 C1410 C -0.00829 0.29729 1.07168
 C1411 C -0.02165 0.29023 1.03815
 C1412 C -0.02321 0.32183 1.02113
 C1413 C -0.01074 0.34635 1.04526
 O1414 O -0.00183 0.33158 1.07632
 H1415 H -0.02921 0.26494 1.02719
 H1416 H -0.03212 0.32645 0.99400
 C1417 C 0.78388 0.32855 0.07449
 C1418 C 0.81711 0.31075 0.07260
 C1419 C 0.82296 0.29953 0.10660
 C1420 C 0.79331 0.31125 0.12721
 O1421 O 0.76949 0.32909 0.10796
 H1422 H 0.83546 0.30603 0.04962
 H1423 H 0.84563 0.28338 0.11516
 C1424 C 0.26924 0.84270 0.55263
 C1425 C 0.29934 0.82025 0.54910
 C1426 C 0.30084 0.80267 0.58060
 C1427 C 0.27157 0.81541 0.60124
 O1428 O 0.25204 0.83976 0.58438
 H1429 H 0.31774 0.81620 0.52603
 H1430 H 0.32071 0.78249 0.58760
 C1431 C 0.70728 0.66484 0.56389
 C1432 C 0.68460 0.69309 0.55592
 C1433 C 0.68094 0.71270 0.58715
 C1434 C 0.70170 0.69465 0.61156
 O1435 O 0.71782 0.66563 0.59747
 H1436 H 0.67325 0.69919 0.53010
 H1437 H 0.66596 0.73769 0.59134
 C1438 C 0.21325 0.16195 0.06244
 C1439 C 0.18436 0.18552 0.06015
 C1440 C 0.18149 0.20233 0.09297
 C1441 C 0.20854 0.18721 0.11280
 O1442 O 0.22803 0.16269 0.09431
 H1443 H 0.16789 0.19019 0.03708
 H1444 H 0.16243 0.22353 0.10132
 C1445 C 0.24680 0.18232 0.94613
 C1446 C 0.26315 0.21265 0.95739
 C1447 C 0.26698 0.23284 0.92735
 C1448 C 0.25268 0.21354 0.89988
 O1449 O 0.24026 0.18292 0.91114
 H1450 H 0.27155 0.21952 0.98418
 H1451 H 0.27888 0.25852 0.92562
 C1452 C 0.74868 0.67606 0.44891
 C1453 C 0.76673 0.70598 0.45845
 C1454 C 0.77430 0.72258 0.42685
 C1455 C 0.76027 0.70169 0.40047
 O1456 O 0.74458 0.67357 0.41367
 H1457 H 0.77388 0.71490 0.48504
 H1458 H 0.78810 0.74711 0.42344
 C1459 C 0.28115 0.82747 0.43897
 C1460 C 0.31451 0.81071 0.43882
 C1461 C 0.31365 0.78533 0.41193
 C1462 C 0.27951 0.78804 0.39853
 O1463 O 0.26019 0.81356 0.41491
 H1464 H 0.33734 0.81785 0.45417
 H1465 H 0.33623 0.76926 0.40093
 C1466 C 0.75902 0.31544 0.95150
 C1467 C 0.78609 0.28936 0.94678
 C1468 C 0.78532 0.27864 0.91172
 C1469 C 0.75784 0.29841 0.89739
 O1470 O 0.74114 0.32039 0.92140
 H1471 H 0.80452 0.27893 0.96620
 H1472 H 0.80251 0.25842 0.89813
 C1473 C 0.84713 0.42614 0.28789
 C1474 C 0.85023 0.41757 0.32374
 C1475 C 0.83465 0.38554 0.32691
 C1476 C 0.82285 0.37765 0.29284
 O1477 O 0.83036 0.40216 0.26924
 H1478 H 0.86374 0.43191 0.34446
 H1479 H 0.83279 0.36946 0.35088
 C1480 C 0.31641 0.94475 0.73725
 C1481 C 0.28182 0.95610 0.73093
 C1482 C 0.26340 0.92596 0.72796
 C1483 C 0.28806 0.89844 0.73330
 O1484 O 0.32053 0.90973 0.73892
 H1485 H 0.27145 0.98315 0.72861
 H1486 H 0.23509 0.92420 0.72321
 C1487 C 0.18660 0.94235 0.27872
 C1488 C 0.20435 0.94687 0.31047
 C1489 C 0.22463 0.91591 0.31438
 C1490 C 0.21732 0.89486 0.28488
 O1491 O 0.19440 0.91089 0.26353
 H1492 H 0.20311 0.96997 0.32827
 H1493 H 0.24189 0.90927 0.33637
 C1494 C 0.69039 0.45202 0.74888
 C1495 C 0.71978 0.45885 0.76901
 C1496 C 0.73544 0.42638 0.77554
 C1497 C 0.71413 0.40217 0.75930
 O1498 O 0.68688 0.41765 0.74299
 H1499 H 0.72808 0.48435 0.77876
 H1500 H 0.75902 0.42093 0.79102
 C1501 C 0.64257 0.57522 0.76401
 C1502 C 0.63078 0.58753 0.79779
 C1503 C 0.63995 0.62218 0.79917
 C1504 C 0.65710 0.62824 0.76627
 O1505 O 0.65864 0.59975 0.74474
 H1506 H 0.61691 0.57298 0.81870
 H1507 H 0.63589 0.64048 0.82191
 C1508 C 0.15536 0.06918 0.27000
 C1509 C 0.14117 0.08257 0.30257
 C1510 C 0.14859 0.11784 0.30271
 C1511 C 0.16689 0.12323 0.27026
 O1512 O 0.17097 0.09377 0.25043
 H1513 H 0.12638 0.06856 0.32324
 H1514 H 0.14224 0.13709 0.32422
 C1515 C 0.31450 0.06287 0.75682
 C1516 C 0.28113 0.05690 0.77234
 C1517 C 0.26549 0.08946 0.77906
 C1518 C 0.29020 0.11328 0.76714
 O1519 O 0.32007 0.09728 0.75329
 H1520 H 0.26928 0.03180 0.77820
 H1521 H 0.23888 0.09521 0.79078
 C1522 C 0.82988 0.54913 0.28381
 C1523 C 0.81215 0.54891 0.31716
 C1524 C 0.79590 0.58190 0.32097
 C1525 C 0.80574 0.59953 0.28992
 O1526 O 0.82620 0.57976 0.26741
 H1527 H 0.81045 0.52716 0.33585
 H1528 H 0.77877 0.59184 0.34340
 C1529 C 0.95035 0.25870 0.18655
 C1530 C 0.95450 0.28472 0.21247
 C1531 C 0.92480 0.28384 0.23495
 C1532 C 0.90442 0.25763 0.22083
 O1533 O 0.91989 0.24225 0.19147
 H1534 H 0.97652 0.30218 0.21490
 H1535 H 0.91806 0.30124 0.25795
 C1536 C 0.43936 0.75000 0.67529
 C1537 C 0.44586 0.75888 0.71061
 C1538 C 0.41318 0.76633 0.72669
 C1539 C 0.38902 0.76148 0.69993
 O1540 O 0.40477 0.75147 0.66853
 H1541 H 0.47155 0.76059 0.72289
 H1542 H 0.40756 0.77414 0.75467
 C1543 C 0.43261 0.26651 0.83482
 C1544 C 0.43337 0.29622 0.81364
 C1545 C 0.40403 0.29421 0.79279
 C1546 C 0.38793 0.26320 0.80246
 O1547 O 0.40490 0.24666 0.82833
 H1548 H 0.45299 0.31660 0.81316
 H1549 H 0.39459 0.31374 0.77380
 C1550 C 0.94742 0.73917 0.32497
 C1551 C 0.95160 0.75362 0.29101
 C1552 C 0.92019 0.74887 0.27472
 C1553 C 0.89863 0.73271 0.29998
 O1554 O 0.91500 0.72641 0.33064
 H1555 H 0.97490 0.76586 0.27918
 H1556 H 0.91314 0.75760 0.24804
 C1557 C 0.06753 0.76930 0.33850
 C1558 C 0.06585 0.80268 0.32348
 C1559 C 0.09932 0.80819 0.30994
 C1560 C 0.11942 0.77807 0.31782
 O1561 O 0.10033 0.75431 0.33542
 H1562 H 0.04312 0.82125 0.32248
 H1563 H 0.10800 0.83127 0.29543
 C1564 C 0.55414 0.28152 0.83882
 C1565 C 0.55015 0.31478 0.82407
 C1566 C 0.58316 0.32155 0.80911
 C1567 C 0.60466 0.29215 0.81664
 O1568 O 0.58712 0.26794 0.83449
 H1569 H 0.52591 0.33133 0.82289
 H1570 H 0.59043 0.34453 0.79365
 C1571 C 0.55230 0.77565 0.67778
 C1572 C 0.54062 0.79352 0.70918
 C1573 C 0.56962 0.79315 0.73070
 C1574 C 0.59666 0.77580 0.71029
 O1575 O 0.58635 0.76530 0.67836
 H1576 H 0.51413 0.80472 0.71604
 H1577 H 0.57105 0.80446 0.75766
 C1578 C 0.06411 0.27649 0.17446
 C1579 C 0.05641 0.30411 0.19878
 C1580 C 0.08500 0.30413 0.22105
 C1581 C 0.10758 0.27660 0.20827
 O1582 O 0.09530 0.26038 0.18000
 H1583 H 0.03289 0.32173 0.20048
 H1584 H 0.08925 0.32239 0.24319
 C1585 C -0.12277 1.00771 0.83612
 C1586 C -0.15108 1.01323 0.86100
 C1587 C -0.13608 1.01446 0.89391
 C1588 C -0.09976 1.00891 0.88698
 O1589 O -0.09148 1.00450 0.85193
 H1590 H -0.17938 1.01598 0.85559
 H1591 H -0.15001 1.01804 0.92003
 C1592 C 0.37998 0.49853 0.32666
 C1593 C 0.35178 0.49702 0.35172
 C1594 C 0.36691 0.49679 0.38434
 C1595 C 0.40328 0.49734 0.37688
 O1596 O 0.41160 0.49824 0.34181
 H1597 H 0.32350 0.49602 0.34660
 H1598 H 0.35317 0.49631 0.41063
 C1599 C 0.57566 0.00021 0.29511
 C1600 C 0.54159 0.01324 0.28792
 C1601 C 0.52436 0.01794 0.32068
 C1602 C 0.54903 0.00776 0.34573
 O1603 O 0.58028 -0.00293 0.33041
 H1604 H 0.53097 0.02052 0.26212
 H1605 H 0.49720 0.02834 0.32581
 C1606 C 0.10961 0.51637 0.81987
 C1607 C 0.13986 0.52186 0.83946
 C1608 C 0.12843 0.52392 0.87457
 C1609 C 0.09203 0.52015 0.87385
 O1610 O 0.08025 0.51556 0.84074
 H1611 H 0.16719 0.52366 0.82907
 H1612 H 0.14462 0.52731 0.89798
 C1613 C 0.06172 0.48617 0.69424
 C1614 C 0.03066 0.46913 0.70322
 C1615 C 0.01683 0.45947 0.67108
 C1616 C 0.04037 0.47112 0.64459
 O1617 O 0.06772 0.48731 0.65861
 H1618 H 0.01924 0.46434 0.72993
 H1619 H -0.00819 0.44659 0.66735
 C1620 C 0.62112 0.99457 0.16335
 C1621 C 0.65021 0.99316 0.13904
 C1622 C 0.63617 0.99338 0.10579
 C1623 C 0.59960 0.99462 0.11202
 O1624 O 0.59021 0.99524 0.14690
 H1625 H 0.67847 0.99209 0.14427
 H1626 H 0.65085 0.99249 0.07998
 C1627 C 0.41896 0.51885 0.19538
 C1628 C 0.44060 0.54724 0.19993
 C1629 C 0.45350 0.55462 0.16618
 C1630 C 0.43889 0.53020 0.14328
 O1631 O 0.41760 0.50855 0.16096
 H1632 H 0.44619 0.56104 0.22483
 H1633 H 0.47253 0.57458 0.15920
 C1634 C -0.07143 0.00941 0.70611
 C1635 C -0.03697 0.01861 0.71350
 C1636 C -0.01947 0.02101 0.68090
 C1637 C -0.04417 0.01329 0.65540
 O1638 O -0.07596 0.00620 0.67058
 H1639 H -0.02557 0.02322 0.73952
 H1640 H 0.00834 0.02735 0.67625
 C1641 C -0.19727 0.92991 1.02344
 C1642 C -0.20864 0.96485 1.02980
 C1643 C -0.17802 0.98324 1.03201
 C1644 C -0.15017 0.95828 1.02714
 O1645 O -0.16176 0.92594 1.02227
 H1646 H -0.23573 0.97610 1.03082
 H1647 H -0.17619 1.01173 1.03508
 C1648 C 0.29631 0.44352 0.50772
 C1649 C 0.28444 0.47853 0.50418
 C1650 C 0.31450 0.49789 0.50426
 C1651 C 0.34242 0.47343 0.50795
 O1652 O 0.33153 0.44058 0.51026
 H1653 H 0.25762 0.48889 0.49973
 H1654 H 0.31602 0.52625 0.50066
 C1655 C 0.30838 0.57075 -0.01872
 C1656 C 0.30672 0.53864 -0.03682
 C1657 C 0.33936 0.52192 -0.03278
 C1658 C 0.35876 0.54519 -0.01299
 O1659 O 0.34021 0.57494 -0.00451
 H1660 H 0.28409 0.52832 -0.05045
 H1661 H 0.34815 0.49589 -0.04313
 C1662 C -0.17500 0.10618 0.49807
 C1663 C -0.15437 0.13525 0.49102
 C1664 C -0.12194 0.12720 0.50431
 C1665 C -0.12455 0.09379 0.51869
 O1666 O -0.15681 0.08093 0.51523
 H1667 H -0.16277 0.16041 0.47965
 H1668 H -0.09867 0.14345 0.50269
 C1669 C 0.70413 0.05648 0.49430
 C1670 C 0.71299 0.02179 0.48370
 C1671 C 0.68126 0.00693 0.47636
 C1672 C 0.65529 0.03337 0.48336
 O1673 O 0.66903 0.06338 0.49430
 H1674 H 0.73930 0.00881 0.48088
 H1675 H 0.67744 -0.02018 0.46771
 C1676 C 0.17787 0.59633 1.01995
 C1677 C 0.15807 0.61847 1.04373
 C1678 C 0.12513 0.60462 1.04635
 C1679 C 0.12704 0.57499 1.02390
 O1680 O 0.15920 0.56966 1.00784
 H1681 H 0.16644 0.64242 1.05694
 H1682 H 0.10209 0.61538 1.06205
 C1683 C 0.17731 0.38829 0.48621
 C1684 C 0.15822 0.35966 0.47529
 C1685 C 0.12317 0.37056 0.47927
 C1686 C 0.12334 0.40491 0.49267
 O1687 O 0.15615 0.41584 0.49685
 H1688 H 0.16834 0.33406 0.46497
 H1689 H 0.10016 0.35553 0.47254
 C1690 C 0.68266 0.88300 -0.01560
 C1691 C 0.66344 0.85453 -0.02700
 C1692 C 0.62871 0.86679 -0.02770
 C1693 C 0.62896 0.90188 -0.01685
 O1694 O 0.66166 0.91190 -0.00951
 H1695 H 0.67311 0.82777 -0.03376
 H1696 H 0.60583 0.85186 -0.03511
 C1697 C -0.03806 0.81454 0.91287
 C1698 C -0.07015 0.81623 0.93276
 C1699 C -0.07329 0.84947 0.94690
 C1700 C -0.04292 0.86595 0.93490
 O1701 O -0.02116 0.84485 0.91414
 H1702 H -0.08857 0.79510 0.93719
 H1703 H -0.09438 0.86007 0.96531
 C1704 C 0.46458 0.31586 0.42542
 C1705 C 0.43668 0.31241 0.45051
 C1706 C 0.43090 0.34511 0.46615
 C1707 C 0.45542 0.36634 0.44926
 O1708 O 0.47598 0.34871 0.42445
 H1709 H 0.42269 0.28857 0.45696
 H1710 H 0.41165 0.35248 0.48781
 C1711 C -0.02072 0.30341 0.56341
 C1712 C -0.02426 0.29369 0.52756
 C1713 C -0.02409 0.32464 0.50892
 C1714 C -0.02097 0.35100 0.53472
 O1715 O -0.01917 0.33830 0.56772
 H1716 H -0.02520 0.26724 0.51600
 H1717 H -0.02501 0.32760 0.47989
 C1718 C 0.49936 0.82260 0.10709
 C1719 C 0.49454 0.84445 0.13735
 C1720 C 0.49519 0.87794 0.12490
 C1721 C 0.50074 0.87415 0.08798
 O1722 O 0.50336 0.84054 0.07687
 H1723 H 0.49165 0.83660 0.16533
 H1724 H 0.49240 0.90227 0.14085
 C1725 C 0.49858 0.69592 0.05636
 C1726 C 0.48471 0.70223 0.02281
 C1727 C 0.47779 0.66967 0.00889
 C1728 C 0.48792 0.64568 0.03477
 O1729 O 0.50056 0.66150 0.06365
 H1730 H 0.47969 0.72747 0.01001
 H1731 H 0.46725 0.66402 -0.01738
 C1732 C 0.02332 0.18268 0.60631
 C1733 C 0.04118 0.16354 0.63208
 C1734 C 0.04192 0.12930 0.61997
 C1735 C 0.02429 0.13017 0.58784
 O1736 O 0.01311 0.16254 0.57932
 H1737 H 0.05176 0.17319 0.65706
 H1738 H 0.05322 0.10631 0.63333
 C1739 C 0.52412 0.19468 0.42159
 C1740 C 0.55356 0.19788 0.44259
 C1741 C 0.55966 0.16514 0.45662
 C1742 C 0.53328 0.14441 0.44334
 O1743 O 0.51166 0.16227 0.42186
 H1744 H 0.56803 0.22162 0.44793
 H1745 H 0.58005 0.15758 0.47543
 C1746 C 0.00623 0.68985 0.92914
 C1747 C 0.02671 0.69610 0.95874
 C1748 C 0.03148 0.66420 0.97468
 C1749 C 0.01369 0.64051 0.95379
 O1750 O -0.00155 0.65588 0.92575
 H1751 H 0.03636 0.72122 0.96809
 H1752 H 0.04554 0.65892 0.99924
 C1753 C 0.22273 0.66603 0.93223
 C1754 C 0.19246 0.68788 0.93865
 C1755 C 0.18690 0.70503 0.90723
 C1756 C 0.21380 0.69244 0.88348
 O1757 O 0.23568 0.66861 0.89842
 H1758 H 0.17606 0.69150 0.96319
 H1759 H 0.16584 0.72472 0.90225
 C1760 C 0.71523 0.15269 0.44440
 C1761 C 0.67965 0.16462 0.44658
 C1762 C 0.67409 0.18181 0.41482
 C1763 C 0.70629 0.17814 0.39548
 O1764 O 0.73115 0.16077 0.41331
 H1765 H 0.66036 0.16255 0.46890
 H1766 H 0.64975 0.19566 0.40690
 C1767 C 0.28698 0.33417 0.43396
 C1768 C 0.30752 0.30496 0.44368
 C1769 C 0.31295 0.28518 0.41268
 C1770 C 0.29524 0.30392 0.38647
 O1771 O 0.27937 0.33372 0.39936
 H1772 H 0.31638 0.29841 0.47041
 H1773 H 0.32679 0.25946 0.40983
 C1774 C 0.79122 0.83190 0.93510
 C1775 C 0.82436 0.81442 0.93317
 C1776 C 0.82604 0.79720 0.90045
 C1777 C 0.79410 0.80634 0.88480
 O1778 O 0.77279 0.82723 0.90579
 H1779 H 0.84452 0.81398 0.95345
 H1780 H 0.84786 0.78021 0.88924
 C1781 C 0.74964 0.81188 0.05159
 C1782 C 0.73178 0.78218 0.04115
 C1783 C 0.72829 0.76231 0.07154
 C1784 C 0.74419 0.78130 0.09827
 O1785 O 0.75720 0.81129 0.08628
 H1786 H 0.72212 0.77562 0.01477
 H1787 H 0.71547 0.73715 0.07400
 C1788 C 0.24813 0.32618 0.55031
 C1789 C 0.23219 0.29484 0.54154
 C1790 C 0.22588 0.27846 0.57345
 C1791 C 0.23854 0.30073 0.59947
 O1792 O 0.25226 0.32969 0.58561
 H1793 H 0.22563 0.28477 0.51519
 H1794 H 0.21378 0.25308 0.57730
 C1795 C 0.72368 0.15793 0.56218
 C1796 C 0.68819 0.16831 0.56861
 C1797 C 0.68796 0.18820 0.59972
 C1798 C 0.72329 0.18901 0.60943
 O1799 O 0.74490 0.17056 0.58690
 H1800 H 0.66514 0.16140 0.55351
 H1801 H 0.66464 0.19949 0.61461
 C1802 C 0.25770 0.67714 0.04973
 C1803 C 0.25957 0.71226 0.04059
 C1804 C 0.26251 0.72994 0.07259
 C1805 C 0.26149 0.70419 0.09876
 O1806 O 0.25866 0.67195 0.08499
 H1807 H 0.25954 0.72339 0.01376
 H1808 H 0.26475 0.75827 0.07656
 C1809 C 0.16184 0.56769 0.71549
 C1810 C 0.19698 0.55541 0.70992
 C1811 C 0.21741 0.58369 0.71755
 C1812 C 0.19311 0.61097 0.72693
 O1813 O 0.15966 0.60155 0.72528
 H1814 H 0.20661 0.52825 0.70506
 H1815 H 0.24636 0.58415 0.71728
 C1816 C 0.67240 0.06222 0.23463
 C1817 C 0.68836 0.06871 0.20110
 C1818 C 0.69733 0.10318 0.20241
 C1819 C 0.68687 0.11512 0.23661
 O1820 O 0.67178 0.09050 0.25647
 H1821 H 0.69206 0.05115 0.17778
 H1822 H 0.71109 0.11768 0.18138
 C1823 C 0.81764 0.05271 0.72877
 C1824 C 0.80395 0.05094 0.69458
 C1825 C 0.78362 0.08185 0.69127
 C1826 C 0.78693 0.10033 0.72340
 O1827 O 0.80734 0.08269 0.74597
 H1828 H 0.80803 0.02985 0.67451
 H1829 H 0.76945 0.09051 0.66775
 C1830 C 0.31554 0.54662 0.22246
 C1831 C 0.29804 0.54463 0.19035
 C1832 C 0.28347 0.57813 0.18559
 C1833 C 0.29395 0.59788 0.21484
 O1834 O 0.31327 0.57884 0.23707
 H1835 H 0.29588 0.52161 0.17285
 H1836 H 0.26763 0.58717 0.16333
 C1837 C 0.35254 0.41981 0.22623
 C1838 C 0.36585 0.40632 0.19342
 C1839 C 0.35913 0.37092 0.19434
 C1840 C 0.34215 0.36587 0.22760
 O1841 O 0.33810 0.39545 0.24682
 H1842 H 0.37965 0.42033 0.17207
 H1843 H 0.36486 0.35139 0.17295
 C1844 C 0.84489 0.92842 0.73482
 C1845 C 0.85647 0.91593 0.70102
 C1846 C 0.84807 0.88094 0.70021
 C1847 C 0.83179 0.87466 0.73351
 O1848 O 0.82978 0.90347 0.75453
 H1849 H 0.86997 0.93038 0.67979
 H1850 H 0.85210 0.86250 0.67758
 C1851 C 0.68834 0.93749 0.24029
 C1852 C 0.72207 0.94285 0.22549
 C1853 C 0.73714 0.90998 0.21915
 C1854 C 0.71162 0.88672 0.23058
 O1855 O 0.68186 0.90330 0.24374
 H1856 H 0.73426 0.96781 0.21965
 H1857 H 0.76380 0.90368 0.20783
 C1858 C 0.16901 0.45171 0.71579
 C1859 C 0.18716 0.45165 0.68266
 C1860 C 0.20458 0.41914 0.67996
 C1861 C 0.19503 0.40201 0.71142
 O1862 O 0.17359 0.42166 0.73312
 H1863 H 0.18825 0.47288 0.66330
 H1864 H 0.22205 0.40909 0.65783
 C1865 C 0.04311 0.74011 0.82266
 C1866 C 0.03644 0.71842 0.79351
 C1867 C 0.06723 0.71656 0.77286
 C1868 C 0.09069 0.73706 0.79100
 O1869 O 0.07615 0.75164 0.82127
 H1870 H 0.01205 0.70529 0.78795
 H1871 H 0.07223 0.70151 0.74790
 C1872 C 0.55053 0.26346 0.32622
 C1873 C 0.54237 0.25872 0.29049
 C1874 C 0.57445 0.25276 0.27233
 C1875 C 0.59981 0.25417 0.29844
 O1876 O 0.58538 0.26061 0.33126
 H1877 H 0.51606 0.25871 0.27923
 H1878 H 0.57886 0.24779 0.24357
 C1879 C 0.56774 0.72907 0.16392
 C1880 C 0.55727 0.71886 0.19824
 C1881 C 0.58576 0.72519 0.21925
 C1882 C 0.61135 0.73873 0.19609
 O1883 O 0.60063 0.74095 0.16258
 H1884 H 0.53113 0.71041 0.20732
 H1885 H 0.58781 0.72030 0.24790
 C1886 C 0.05190 0.28245 0.67124
 C1887 C 0.04887 0.31316 0.69184
 C1888 C 0.08097 0.31568 0.70749
 C1889 C 0.10172 0.28657 0.69493
 O1890 O 0.08408 0.26615 0.67268
 H1891 H 0.02609 0.33180 0.69450
 H1892 H 0.08861 0.33662 0.72566
 C1893 C 0.93539 0.22911 0.66716
 C1894 C 0.94220 0.20039 0.68901
 C1895 C 0.90961 0.19099 0.70258
 C1896 C 0.88498 0.21435 0.68795
 O1897 O 0.90053 0.23753 0.66635
 H1898 H 0.96778 0.18776 0.69481
 H1899 H 0.90447 0.17031 0.72189
 C1900 C 0.44817 0.71418 0.15823
 C1901 C 0.45061 0.68018 0.17149
 C1902 C 0.41749 0.67463 0.18673
 C1903 C 0.39747 0.70548 0.18095
 O1904 O 0.41598 0.72937 0.16376
 H1905 H 0.47389 0.66217 0.17134
 H1906 H 0.40922 0.65141 0.20126
 C1907 C 0.44302 0.22850 0.32770
 C1908 C 0.45722 0.21262 0.29616
 C1909 C 0.42934 0.21174 0.27325
 C1910 C 0.40036 0.22648 0.29297
 O1911 O 0.40849 0.23653 0.32582
 H1912 H 0.48476 0.20407 0.28998
 H1913 H 0.42997 0.20151 0.24573
 C1914 C 0.93248 0.72228 0.82532
 C1915 C 0.93940 0.69354 0.80224
 C1916 C 0.91252 0.69525 0.77797
 C1917 C 0.89165 0.72497 0.78820
 O1918 O 0.90335 0.74082 0.81702
 H1919 H 0.96070 0.67335 0.80338
 H1920 H 0.90748 0.67600 0.75694
   
