data_POSCAR
  _audit_creation_date              2014-09-24
  _audit_creation_method            'ToBaCCo'
  _symmetry_space_group_name_H-M    'P1'
  _symmetry_Int_Tables_number       1
  _symmetry_cell_setting            triclinic
  loop_
  _symmetry_equiv_pos_as_xyz
 x,y,z
_cell_length_a 72.7948
_cell_length_b 71.6569
_cell_length_c 74.1730
_cell_angle_alpha 89.635300
_cell_angle_beta 90.320000
_cell_angle_gamma 90.211600
loop_
  _atom_site_label
  _atom_site_type_symbol
  _atom_site_fract_x
  _atom_site_fract_y
  _atom_site_fract_z
C1 C 0.32346 0.45860 0.93216
 C2 C 0.31430 0.46890 0.91873
 C3 C 0.29781 0.46224 0.91109
 C4 C 0.28990 0.44577 0.91794
 C5 C 0.29878 0.43548 0.93148
 C6 C 0.31576 0.44174 0.93843
 C7 C 0.34056 0.46454 0.93884
 C8 C 0.35048 0.45366 0.95153
 C9 C 0.34244 0.43679 0.95764
 C10 C 0.32529 0.43083 0.95121
 C11 C 0.31792 0.41365 0.95681
 C12 C 0.30101 0.40731 0.94992
 C13 C 0.29138 0.41852 0.93748
 H14 H 0.32037 0.48174 0.91372
 H15 H 0.27738 0.44030 0.91198
 H16 H 0.34585 0.47787 0.93423
 H17 H 0.34985 0.42751 0.96663
 H18 H 0.32567 0.40496 0.96611
 H19 H 0.27822 0.41390 0.93223
 C20 C 0.45036 0.82077 0.42134
 C21 C 0.45675 0.83690 0.43009
 C22 C 0.44936 0.84255 0.44681
 C23 C 0.43579 0.83105 0.45474
 C24 C 0.42924 0.81503 0.44609
 C25 C 0.43644 0.80986 0.42930
 C26 C 0.45736 0.81571 0.40449
 C27 C 0.45035 0.80014 0.39515
 C28 C 0.43644 0.78928 0.40332
 C29 C 0.42952 0.79397 0.42036
 C30 C 0.41549 0.78329 0.42845
 C31 C 0.40815 0.78846 0.44526
 C32 C 0.41522 0.80436 0.45391
 H33 H 0.46672 0.84551 0.42314
 H34 H 0.43044 0.83415 0.46797
 H35 H 0.46833 0.82398 0.39866
 H36 H 0.43063 0.77744 0.39625
 H37 H 0.41029 0.77102 0.42164
 H38 H 0.40934 0.80893 0.46652
 C39 C 0.94627 0.92751 0.82905
 C40 C 0.95684 0.91236 0.82313
 C41 C 0.95178 0.90207 0.80764
 C42 C 0.93574 0.90759 0.79816
 C43 C 0.92501 0.92256 0.80402
 C44 C 0.93026 0.93253 0.81953
 C45 C 0.95143 0.93753 0.84450
 C46 C 0.94084 0.95269 0.85080
 C47 C 0.92475 0.95740 0.84097
 C48 C 0.91938 0.94741 0.82559
 C49 C 0.90316 0.95204 0.81626
 C50 C 0.89768 0.94207 0.80083
 C51 C 0.90886 0.92746 0.79472
 H52 H 0.96937 0.90913 0.83040
 H53 H 0.93082 0.89968 0.78672
 H54 H 0.96334 0.93275 0.85197
 H55 H 0.91654 0.96929 0.84473
 H56 H 0.89456 0.96313 0.82133
 H57 H 0.90505 0.91989 0.78266
 C58 C 0.44032 -0.08152 0.32487
 C59 C 0.44714 -0.09795 0.31718
 C60 C 0.43808 -0.10630 0.30248
 C61 C 0.42215 -0.09787 0.29547
 C62 C 0.41490 -0.08185 0.30337
 C63 C 0.42401 -0.07352 0.31807
 C64 C 0.44937 -0.07323 0.33949
 C65 C 0.44262 -0.05680 0.34735
 C66 C 0.42616 -0.04899 0.34053
 C67 C 0.41667 -0.05738 0.32609
 C68 C 0.39977 -0.05022 0.31977
 C69 C 0.39028 -0.05900 0.30549
 C70 C 0.39836 -0.07439 0.29703
 H71 H 0.45930 -0.10440 0.32291
 H72 H 0.41521 -0.10390 0.28391
 H73 H 0.46157 -0.07984 0.34494
 H74 H 0.42075 -0.03634 0.34635
 H75 H 0.39374 -0.03829 0.32636
 H76 H 0.39154 -0.08087 0.28564
 C77 C 0.82617 0.30670 0.32451
 C78 C 0.81649 0.29873 0.33882
 C79 C 0.80235 0.30856 0.34736
 C80 C 0.79682 0.32592 0.34022
 C81 C 0.80598 0.33378 0.32532
 C82 C 0.82100 0.32430 0.31771
 C83 C 0.84164 0.29776 0.31765
 C84 C 0.85274 0.30658 0.30469
 C85 C 0.84709 0.32380 0.29734
 C86 C 0.83120 0.33263 0.30368
 C87 C 0.82578 0.35000 0.29673
 C88 C 0.81062 0.35948 0.30396
 C89 C 0.80092 0.35129 0.31840
 H90 H 0.82054 0.28511 0.34387
 H91 H 0.78596 0.33367 0.34669
 H92 H 0.84550 0.28422 0.32302
 H93 H 0.85549 0.33081 0.28735
 H94 H 0.83338 0.35611 0.28563
 H95 H 0.78965 0.35872 0.32454
 C96 C -0.19320 0.81585 0.82205
 C97 C -0.20142 0.83243 0.81606
 C98 C -0.19515 0.84195 0.80046
 C99 C -0.18054 0.83380 0.79072
 C100 C -0.17232 0.81705 0.79646
 C101 C -0.17862 0.80812 0.81224
 C102 C -0.19918 0.80704 0.83794
 C103 C -0.19071 0.79061 0.84423
 C104 C -0.17631 0.78289 0.83422
 C105 C -0.17016 0.79158 0.81838
 C106 C -0.15537 0.78418 0.80885
 C107 C -0.14886 0.79293 0.79309
 C108 C -0.15757 0.80933 0.78691
 H109 H -0.21313 0.83747 0.82348
 H110 H -0.17471 0.84080 0.77911
 H111 H -0.21007 0.81333 0.84572
 H112 H -0.16984 0.77009 0.83878
 H113 H -0.14854 0.77187 0.81412
 H114 H -0.15284 0.81613 0.77470
 C115 C 0.91785 0.32427 0.44763
 C116 C 0.92659 0.33961 0.45583
 C117 C 0.94484 0.34470 0.45132
 C118 C 0.95434 0.33318 0.43909
 C119 C 0.94563 0.31827 0.43042
 C120 C 0.92733 0.31381 0.43462
 C121 C 0.89953 0.31965 0.45169
 C122 C 0.89061 0.30473 0.44291
 C123 C 0.90027 0.29452 0.42991
 C124 C 0.91841 0.29910 0.42552
 C125 C 0.92754 0.28961 0.41173
 C126 C 0.94567 0.29440 0.40703
 C127 C 0.95482 0.30827 0.41703
 H128 H 0.91858 0.34808 0.46487
 H129 H 0.96869 0.33561 0.43615
 H130 H 0.89210 0.32791 0.46141
 H131 H 0.89369 0.28288 0.42317
 H132 H 0.92017 0.27908 0.40413
 H133 H 0.96896 0.31178 0.41397
 C134 C 0.42576 0.44655 0.83593
 C135 C 0.43138 0.45136 0.85340
 C136 C 0.44479 0.44086 0.86261
 C137 C 0.45263 0.42540 0.85396
 C138 C 0.44735 0.42060 0.83633
 C139 C 0.43386 0.43123 0.82724
 C140 C 0.41196 0.45677 0.82716
 C141 C 0.40602 0.45205 0.80971
 C142 C 0.41448 0.43693 0.80091
 C143 C 0.42836 0.42645 0.80958
 C144 C 0.43671 0.41120 0.80101
 C145 C 0.45022 0.40040 0.80999
 C146 C 0.45524 0.40523 0.82774
 H147 H 0.42541 0.46347 0.85974
 H148 H 0.46274 0.41696 0.86100
 H149 H 0.40539 0.46809 0.83426
 H150 H 0.41021 0.43326 0.78737
 H151 H 0.43275 0.40785 0.78731
 H152 H 0.46516 0.39685 0.83509
 C153 C 0.82575 0.92319 0.94033
 C154 C 0.81800 0.90704 0.94769
 C155 C 0.80562 0.89584 0.93776
 C156 C 0.79966 0.90259 0.92070
 C157 C 0.80691 0.91930 0.91340
 C158 C 0.82034 0.92935 0.92315
 C159 C 0.83937 0.93282 0.94987
 C160 C 0.84887 0.94807 0.94214
 C161 C 0.84270 0.95469 0.92512
 C162 C 0.82850 0.94549 0.91571
 C163 C 0.82274 0.95189 0.89870
 C164 C 0.80917 0.94222 0.88884
 C165 C 0.80142 0.92583 0.89627
 H166 H 0.82181 0.90332 0.96137
 H167 H 0.79021 0.89452 0.91254
 H168 H 0.84252 0.92815 0.96344
 H169 H 0.84954 0.96623 0.91847
 H170 H 0.82872 0.96457 0.89323
 H171 H 0.79132 0.91799 0.88863
 C172 C 0.33007 0.82630 0.30119
 C173 C 0.32270 0.84210 0.29252
 C174 C 0.30649 0.85073 0.29884
 C175 C 0.29777 0.84266 0.31403
 C176 C 0.30480 0.82672 0.32255
 C177 C 0.32102 0.81853 0.31621
 C178 C 0.34654 0.81834 0.29525
 C179 C 0.35405 0.80261 0.30405
 C180 C 0.34465 0.79478 0.31883
 C181 C 0.32835 0.80274 0.32508
 C182 C 0.31951 0.79542 0.34034
 C183 C 0.30340 0.80369 0.34689
 C184 C 0.29602 0.81919 0.33772
 H185 H 0.32956 0.84720 0.28057
 H186 H 0.28598 0.84917 0.32011
 H187 H 0.35377 0.82474 0.28407
 H188 H 0.35001 0.78246 0.32553
 H189 H 0.32553 0.78366 0.34745
 H190 H 0.28342 0.82547 0.34243
 C191 C 0.81607 0.43473 0.46006
 C192 C 0.80554 0.42012 0.46732
 C193 C 0.78926 0.41409 0.45878
 C194 C 0.78350 0.42325 0.44284
 C195 C 0.79407 0.43772 0.43525
 C196 C 0.81037 0.44351 0.44398
 C197 C 0.83258 0.44019 0.46837
 C198 C 0.84404 0.45407 0.46064
 C199 C 0.83780 0.46296 0.44467
 C200 C 0.82120 0.45779 0.43641
 C201 C 0.81576 0.46622 0.42018
 C202 C 0.79994 0.46016 0.41092
 C203 C 0.78899 0.44603 0.41873
 H204 H 0.81053 0.41293 0.47925
 H205 H 0.77089 0.41901 0.43617
 H206 H 0.83617 0.43363 0.48108
 H207 H 0.84626 0.47309 0.43772
 H208 H 0.82406 0.47743 0.41464
 H209 H 0.77690 0.44098 0.41169
 C210 C 0.94605 0.83667 -0.08439
 C211 C 0.95400 0.85230 -0.07629
 C212 C 0.94504 0.86167 -0.06234
 C213 C 0.92858 0.85418 -0.05548
 C214 C 0.92073 0.83806 -0.06317
 C215 C 0.92933 0.82950 -0.07797
 C216 C 0.95441 0.82867 -0.09930
 C217 C 0.94601 0.81397 -0.10890
 C218 C 0.92950 0.80629 -0.10190
 C219 C 0.92113 0.81399 -0.08651
 C220 C 0.90438 0.80691 -0.07987
 C221 C 0.89578 0.81517 -0.06489
 C222 C 0.90418 0.83071 -0.05665
 H223 H 0.96699 0.85759 -0.08130
 H224 H 0.92151 0.86125 -0.04469
 H225 H 0.96771 0.83404 -0.10328
 H226 H 0.92252 0.79506 -0.10884
 H227 H 0.89787 0.79522 -0.08658
 H228 H 0.89787 0.83709 -0.04502
 C229 C 0.32319 0.32774 0.80301
 C230 C 0.31367 0.34245 0.79484
 C231 C 0.29852 0.35057 0.80331
 C232 C 0.29258 0.34334 0.82002
 C233 C 0.30197 0.32846 0.82835
 C234 C 0.31741 0.32070 0.81982
 C235 C 0.33891 0.32057 0.79491
 C236 C 0.34943 0.30678 0.80359
 C237 C 0.34334 0.29936 0.82014
 C238 C 0.32737 0.30623 0.82829
 C239 C 0.32158 0.29930 0.84503
 C240 C 0.30631 0.30703 0.85385
 C241 C 0.29659 0.32165 0.84533
 H242 H 0.31870 0.34823 0.78224
 H243 H 0.28084 0.34947 0.82665
 H244 H 0.34318 0.32604 0.78193
 H245 H 0.35140 0.28879 0.82704
 H246 H 0.32906 0.28786 0.85120
 H247 H 0.28511 0.32811 0.85207
 C248 C 0.17823 0.54040 0.57757
 C249 C 0.16390 0.53139 0.56840
 C250 C 0.15734 0.53837 0.55181
 C251 C 0.16625 0.55379 0.54385
 C252 C 0.18093 0.56265 0.55268
 C253 C 0.18671 0.55619 0.56978
 C254 C 0.18376 0.53420 0.59469
 C255 C 0.19738 0.54384 0.60444
 C256 C 0.20587 0.55956 0.59652
 C257 C 0.20069 0.56572 0.57923
 C258 C 0.20895 0.58154 0.57141
 C259 C 0.20349 0.58791 0.55419
 C260 C 0.18951 0.57826 0.54492
 H261 H 0.15752 0.51921 0.57446
 H262 H 0.16126 0.55947 0.53118
 H263 H 0.17731 0.52193 0.60053
 H264 H 0.21620 0.56727 0.60399
 H265 H 0.21937 0.58908 0.57892
 H266 H 0.18528 0.58285 0.53159
 C267 C 0.58333 0.68686 0.08149
 C268 C 0.59890 0.69595 0.07451
 C269 C 0.60864 0.68840 0.05990
 C270 C 0.60230 0.67163 0.05218
 C271 C 0.58661 0.66253 0.05882
 C272 C 0.57711 0.67014 0.07355
 C273 C 0.57411 0.69403 0.09653
 C274 C 0.55856 0.68488 0.10366
 C275 C 0.55224 0.66844 0.09525
 C276 C 0.56154 0.66088 0.08049
 C277 C 0.55572 0.64396 0.07283
 C278 C 0.56516 0.63614 0.05817
 C279 C 0.58049 0.64574 0.05114
 H280 H 0.60337 0.70897 0.08046
 H281 H 0.60985 0.66531 0.04127
 H282 H 0.57945 0.70647 0.10296
 H283 H 0.54006 0.66141 0.10019
 H284 H 0.54415 0.63662 0.07869
 H285 H 0.58771 0.64019 0.03964
 C286 C 0.68389 0.16344 0.65582
 C287 C 0.68885 0.17192 0.63933
 C288 C 0.67896 0.18732 0.63246
 C289 C 0.66410 0.19422 0.64240
 C290 C 0.65905 0.18599 0.65884
 C291 C 0.66900 0.17059 0.66562
 C292 C 0.69352 0.14786 0.66253
 C293 C 0.68841 0.13881 0.67888
 C294 C 0.67354 0.14658 0.68856
 C295 C 0.66396 0.16232 0.68214
 C296 C 0.64915 0.16971 0.69189
 C297 C 0.63892 0.18496 0.68513
 C298 C 0.64404 0.19288 0.66847
 H299 H 0.70016 0.16628 0.63168
 H300 H 0.65658 0.20626 0.63748
 H301 H 0.70533 0.14327 0.65502
 H302 H 0.66852 0.14002 0.70074
 H303 H 0.64570 0.16356 0.70481
 H304 H 0.63611 0.20421 0.66269
 C305 C 1.06939 0.05461 0.17131
 C306 C 1.08424 0.04576 0.17970
 C307 C 1.09335 0.05403 0.19436
 C308 C 1.08645 0.07077 0.20149
 C309 C 1.07109 0.07949 0.19354
 C310 C 1.06275 0.07150 0.17817
 C311 C 1.06167 0.04709 0.15567
 C312 C 1.04790 0.05664 0.14585
 C313 C 1.04072 0.07317 0.15340
 C314 C 1.04802 0.08055 0.16944
 C315 C 1.04126 0.09726 0.17649
 C316 C 1.04934 0.10537 0.19188
 C317 C 1.06434 0.09639 0.20027
 H318 H 1.08915 0.03264 0.17438
 H319 H 1.09339 0.07733 0.21276
 H320 H 1.06663 0.03367 0.15124
 H321 H 1.03032 0.08118 0.14637
 H322 H 1.02965 0.10394 0.16997
 H323 H 1.07102 0.10273 0.21181
 C324 C 0.05409 0.18080 1.08540
 C325 C 0.04323 0.16643 1.07807
 C326 C 0.04752 0.15837 1.06122
 C327 C 0.06291 0.16551 1.05185
 C328 C 0.07368 0.17992 1.05895
 C329 C 0.06938 0.18756 1.07580
 C330 C 0.04999 0.18837 1.10231
 C331 C 0.06092 0.20269 1.10974
 C332 C 0.07616 0.20933 1.09998
 C333 C 0.08053 0.20179 1.08315
 C334 C 0.09605 0.20802 1.07366
 C335 C 0.10051 0.20025 1.05686
 C336 C 0.08904 0.18642 1.04953
 H337 H 0.03121 0.16201 1.08547
 H338 H 0.06745 0.15926 1.03943
 H339 H 0.03848 0.18280 1.10985
 H340 H 0.08457 0.22050 1.10541
 H341 H 0.10492 0.21852 1.07959
 H342 H 0.09210 0.18063 1.03643
 C343 C 0.18667 0.68750 0.69833
 C344 C 0.17208 0.69615 0.70736
 C345 C 0.16188 0.71051 0.69896
 C346 C 0.16698 0.71653 0.68155
 C347 C 0.18159 0.70813 0.67242
 C348 C 0.19127 0.69337 0.68073
 C349 C 0.19651 0.67279 0.70644
 C350 C 0.21055 0.66355 0.69700
 C351 C 0.21479 0.66943 0.67942
 C352 C 0.20535 0.68426 0.67129
 C353 C 0.20957 0.68979 0.65367
 C354 C 0.20045 0.70487 0.64535
 C355 C 0.18646 0.71401 0.65496
 H356 H 0.16859 0.69160 0.72087
 H357 H 0.15916 0.72737 0.67477
 H358 H 0.19312 0.66845 0.72004
 H359 H 0.22519 0.66213 0.67182
 H360 H 0.21982 0.68202 0.64637
 H361 H 0.17935 0.72577 0.64895
 C362 C 1.19886 0.18042 0.17498
 C363 C 1.20625 0.16362 0.18151
 C364 C 1.20004 0.15542 0.19783
 C365 C 1.18657 0.16514 0.20771
 C366 C 1.17931 0.18208 0.20147
 C367 C 1.18539 0.18971 0.18502
 C368 C 1.20437 0.18779 0.15826
 C369 C 1.19659 0.20438 0.15147
 C370 C 1.18347 0.21377 0.16186
 C371 C 1.17765 0.20642 0.17840
 C372 C 1.16368 0.21517 0.18807
 C373 C 1.15726 0.20746 0.20434
 C374 C 1.16546 0.19110 0.21113
 H375 H 1.21714 0.15729 0.17384
 H376 H 1.18066 0.15918 0.21980
 H377 H 1.21424 0.18021 0.15028
 H378 H 1.17762 0.22675 0.15701
 H379 H 1.15725 0.22754 0.18246
 H380 H 1.16085 0.18519 0.22381
 C381 C 0.67551 1.07524 0.54766
 C382 C 0.65850 1.06828 0.54161
 C383 C 0.65057 1.05231 0.54965
 C384 C 0.65997 1.04341 0.56398
 C385 C 0.67675 1.05042 0.57043
 C386 C 0.68466 1.06620 0.56204
 C387 C 0.68311 1.09158 0.54010
 C388 C 0.69984 1.09912 0.54674
 C389 C 0.70917 1.08919 0.56046
 C390 C 0.70156 1.07321 0.56833
 C391 C 0.71031 1.06471 0.58304
 C392 C 0.70195 1.04986 0.59235
 C393 C 0.68537 1.04238 0.58561
 H394 H 0.65123 1.07561 0.53095
 H395 H 0.65423 1.03100 0.57021
 H396 H 0.67528 1.09888 0.52984
 H397 H 0.72254 1.09375 0.56517
 H398 H 0.72337 1.07021 0.58772
 H399 H 0.67872 1.03094 0.59265
 C400 C 0.54227 0.56211 0.18801
 C401 C 0.53318 0.55351 0.17357
 C402 C 0.54201 0.53974 0.16335
 C403 C 0.55961 0.53365 0.16864
 C404 C 0.56869 0.54183 0.18332
 C405 C 0.56015 0.55638 0.19281
 C406 C 0.53418 0.57710 0.19703
 C407 C 0.54400 0.58689 0.21037
 C408 C 0.56166 0.58083 0.21532
 C409 C 0.56975 0.56566 0.20666
 C410 C 0.58764 0.56021 0.21110
 C411 C 0.59614 0.54541 0.20204
 C412 C 0.58652 0.53626 0.18815
 H413 H 0.51948 0.55805 0.16988
 H414 H 0.56672 0.52327 0.16077
 H415 H 0.52049 0.58158 0.19320
 H416 H 0.56951 0.58848 0.22532
 H417 H 0.59512 0.56788 0.22135
 H418 H 0.59289 0.52483 0.18105
 C419 C 0.68067 0.71182 0.17243
 C420 C 0.66532 0.71989 0.18066
 C421 C 0.65914 0.71345 0.19755
 C422 C 0.66913 0.69939 0.20653
 C423 C 0.68429 0.69098 0.19832
 C424 C 0.68994 0.69703 0.18111
 C425 C 0.68646 0.71791 0.15539
 C426 C 0.70101 0.70900 0.14646
 C427 C 0.70995 0.69397 0.15512
 C428 C 0.70459 0.68801 0.17240
 C429 C 0.71325 0.67277 0.18087
 C430 C 0.70767 0.66661 0.19808
 C431 C 0.69343 0.67616 0.20683
 H432 H 0.65771 0.73060 0.17348
 H433 H 0.66482 0.69461 0.21974
 H434 H 0.67954 0.72963 0.14907
 H435 H 0.72083 0.68661 0.14828
 H436 H 0.72397 0.66541 0.17380
 H437 H 0.68920 0.67188 0.22022
 C438 C 0.16730 0.05938 1.08555
 C439 C 0.15079 0.05175 1.07887
 C440 C 0.14289 0.05799 1.06235
 C441 C 0.15261 0.07185 1.05249
 C442 C 0.16921 0.07941 1.05889
 C443 C 0.17640 0.07336 1.07559
 C444 C 0.17474 0.05338 1.10219
 C445 C 0.19099 0.06153 1.10933
 C446 C 0.19974 0.07557 1.09904
 C447 C 0.19265 0.08142 1.08239
 C448 C 0.20165 0.09540 1.07252
 C449 C 0.19487 0.10140 1.05569
 C450 C 0.17858 0.09325 1.04896
 H451 H 0.14451 0.04055 1.08652
 H452 H 0.14700 0.07771 1.04019
 H453 H 0.16724 0.04301 1.10989
 H454 H 0.21265 0.08156 1.10350
 H455 H 0.21378 0.10191 1.07825
 H456 H 0.17319 0.09758 1.03595
 C457 C 0.56343 0.17819 0.54676
 C458 C 0.57733 0.18677 0.53658
 C459 C 0.58486 0.20403 0.54187
 C460 C 0.57785 0.21288 0.55722
 C461 C 0.56386 0.20457 0.56738
 C462 C 0.55670 0.18710 0.56226
 C463 C 0.55651 0.16061 0.54198
 C464 C 0.54289 0.15179 0.55246
 C465 C 0.53619 0.16087 0.56782
 C466 C 0.54310 0.17836 0.57285
 C467 C 0.53698 0.18701 0.58861
 C468 C 0.54420 0.20439 0.59390
 C469 C 0.55740 0.21321 0.58297
 H470 H 0.58242 0.17989 0.52464
 H471 H 0.58379 0.22593 0.56176
 H472 H 0.56211 0.15358 0.53036
 H473 H 0.52556 0.15433 0.57588
 H474 H 0.52707 0.17987 0.59706
 H475 H 0.56284 0.22674 0.58672
 C476 C 0.07812 0.54935 0.67741
 C477 C 0.09492 0.54338 0.68467
 C478 C 0.10430 0.55412 0.69766
 C479 C 0.09633 0.57080 0.70367
 C480 C 0.07932 0.57678 0.69678
 C481 C 0.07018 0.56600 0.68362
 C482 C 0.06952 0.53931 0.66351
 C483 C 0.05298 0.54566 0.65575
 C484 C 0.04467 0.56176 0.66274
 C485 C 0.05330 0.57211 0.67635
 C486 C 0.04563 0.58888 0.68228
 C487 C 0.05483 0.59994 0.69507
 C488 C 0.07163 0.59369 0.70237
 H489 H 0.10075 0.53037 0.68006
 H490 H 0.10357 0.57944 0.71334
 H491 H 0.07620 0.52705 0.65817
 H492 H 0.03169 0.56656 0.65724
 H493 H 0.03259 0.59345 0.67672
 H494 H 0.07899 0.60225 0.71202
 C495 C 0.68047 0.56702 0.05456
 C496 C 0.66508 0.55810 0.04720
 C497 C 0.65545 0.54444 0.05705
 C498 C 0.66246 0.53866 0.07391
 C499 C 0.67840 0.54698 0.08112
 C500 C 0.68721 0.56153 0.07159
 C501 C 0.68856 0.58206 0.04550
 C502 C 0.70269 0.59254 0.05359
 C503 C 0.71003 0.58647 0.07024
 C504 C 0.70244 0.57090 0.07924
 C505 C 0.70938 0.56491 0.09601
 C506 C 0.70101 0.55002 0.10545
 C507 C 0.68531 0.54141 0.09797
 H508 H 0.66021 0.56234 0.03396
 H509 H 0.65519 0.52820 0.08174
 H510 H 0.68323 0.58615 0.03239
 H511 H 0.72101 0.59434 0.07659
 H512 H 0.72140 0.57176 0.10160
 H513 H 0.67826 0.53048 0.10539
 C514 C 0.05729 0.67242 0.57942
 C515 C 0.04971 0.68038 0.59492
 C516 C 0.05735 0.69665 0.60247
 C517 C 0.07280 0.70483 0.59427
 C518 C 0.08080 0.69673 0.57907
 C519 C 0.07299 0.68051 0.57153
 C520 C 0.04945 0.65639 0.57182
 C521 C 0.05684 0.64838 0.55618
 C522 C 0.07276 0.65639 0.54854
 C523 C 0.08097 0.67231 0.55620
 C524 C 0.09713 0.68008 0.54895
 C525 C 0.10527 0.69604 0.55672
 C526 C 0.09666 0.70449 0.57149
 H527 H 0.03800 0.67370 0.60124
 H528 H 0.07866 0.71754 0.59970
 H529 H 0.03760 0.65007 0.57822
 H530 H 0.07864 0.65042 0.53650
 H531 H 0.10362 0.67337 0.53761
 H532 H 0.10245 0.71707 0.57727
 C533 C 0.55166 1.07511 0.66829
 C534 C 0.54442 1.06873 0.65185
 C535 C 0.55155 1.05270 0.64321
 C536 C 0.56673 1.04362 0.65149
 C537 C 0.57434 1.05006 0.66775
 C538 C 0.56647 1.06556 0.67636
 C539 C 0.54473 1.09131 0.67651
 C540 C 0.55228 1.09779 0.69286
 C541 C 0.56633 1.08747 0.70121
 C542 C 0.57373 1.07179 0.69289
 C543 C 0.58892 1.06286 0.70053
 C544 C 0.59779 1.04834 0.69144
 C545 C 0.59005 1.04156 0.67531
 H546 H 0.53364 1.07691 0.64561
 H547 H 0.57247 1.03109 0.64583
 H548 H 0.53389 1.09915 0.66990
 H549 H 0.57197 1.09201 0.71402
 H550 H 0.59436 1.06778 0.71328
 H551 H 0.59671 1.03030 0.66821
 C552 C 0.42809 0.31299 0.94412
 C553 C 0.43658 0.32868 0.95190
 C554 C 0.45391 0.33520 0.94585
 C555 C 0.46265 0.32510 0.93201
 C556 C 0.45421 0.30962 0.92397
 C557 C 0.43692 0.30350 0.93005
 C558 C 0.41061 0.30702 0.94977
 C559 C 0.40194 0.29156 0.94163
 C560 C 0.41106 0.28210 0.92778
 C561 C 0.42829 0.28811 0.92178
 C562 C 0.43668 0.27934 0.90717
 C563 C 0.45368 0.28570 0.90065
 C564 C 0.46261 0.30051 0.90951
 H565 H 0.42902 0.33625 0.96200
 H566 H 0.47627 0.32893 0.92751
 H567 H 0.40360 0.31467 0.96022
 H568 H 0.40473 0.27001 0.92158
 H569 H 0.42950 0.26814 0.90033
 H570 H 0.47590 0.30532 0.90481
 C571 C 0.92696 0.45463 0.32924
 C572 C 0.93418 0.46120 0.34556
 C573 C 0.95010 0.45322 0.35346
 C574 C 0.95825 0.43787 0.34462
 C575 C 0.95112 0.43110 0.32826
 C576 C 0.93570 0.43983 0.32037
 C577 C 0.91070 0.46221 0.32199
 C578 C 0.90335 0.45548 0.30566
 C579 C 0.91298 0.44163 0.29631
 C580 C 0.92871 0.43344 0.30378
 C581 C 0.93694 0.41829 0.29529
 C582 C 0.95145 0.40855 0.30360
 C583 C 0.95883 0.41539 0.31990
 H584 H 0.92673 0.47209 0.35240
 H585 H 0.97059 0.43146 0.34994
 H586 H 0.90346 0.47283 0.32942
 H587 H 0.90786 0.43670 0.28344
 H588 H 0.93151 0.41362 0.28244
 H589 H 0.97001 0.40806 0.32650
 C590 C 0.32087 0.94976 0.42753
 C591 C 0.31096 0.95985 0.41448
 C592 C 0.29477 0.95251 0.40693
 C593 C 0.28797 0.93536 0.41349
 C594 C 0.29792 0.92502 0.42633
 C595 C 0.31458 0.93213 0.43325
 C596 C 0.33743 0.95680 0.43424
 C597 C 0.34861 0.94628 0.44614
 C598 C 0.34200 0.92859 0.45193
 C599 C 0.32515 0.92144 0.44549
 C600 C 0.31905 0.90344 0.45043
 C601 C 0.30252 0.89613 0.44334
 C602 C 0.29187 0.90729 0.43166
 H603 H 0.31652 0.97291 0.40942
 H604 H 0.27527 0.92971 0.40809
 H605 H 0.34129 0.97082 0.43026
 H606 H 0.35029 0.91980 0.46064
 H607 H 0.32747 0.89492 0.45929
 H608 H 0.27895 0.90202 0.42640
 O609 O 0.20800 0.53595 0.75779
 O610 O 0.21797 0.53529 0.78983
 O611 O 0.25449 0.55744 0.73090
 O612 O 0.28570 0.55086 0.73201
 O613 O 0.22907 0.50877 0.71086
 O614 O 0.22876 0.47601 0.72051
 O615 O 0.30521 0.50440 0.77722
 O616 O 0.30160 0.53838 0.77101
 O617 O 0.25884 0.48959 0.80651
 O618 O 0.22425 0.49390 0.80074
 O619 O 0.27443 0.45858 0.76121
 O620 O 0.27012 0.46415 0.72729
 O621 O 0.30074 0.48052 0.75770
 O622 O 0.29273 0.48061 0.72588
 O623 O 0.25545 0.46287 0.78506
 O624 O 0.22377 0.47009 0.78575
 O625 O 0.28337 0.50886 0.80249
 O626 O 0.28419 0.54021 0.79598
 O627 O 0.20538 0.51268 0.73718
 O628 O 0.20902 0.47994 0.74074
 O629 O 0.25292 0.52921 0.70805
 O630 O 0.28479 0.52634 0.71302
 O631 O 0.23455 0.55967 0.75431
 O632 O 0.23823 0.55578 0.78590
 Zr633 Zr 0.23545 0.53377 0.76721
 O634 O 0.25235 0.51782 0.78442
 Zr635 Zr 0.26517 0.52993 0.73367
 O636 O 0.28290 0.51265 0.74905
 Zr637 Zr 0.23085 0.49924 0.73785
 O638 O 0.24653 0.48130 0.75429
 Zr639 Zr 0.28004 0.51929 0.77633
 O640 O 0.26349 0.53790 0.76090
 Zr641 Zr 0.24508 0.48972 0.78139
 O642 O 0.22699 0.50580 0.76526
 Zr643 Zr 0.27426 0.48455 0.74745
 O644 O 0.25840 0.50148 0.72989
 O645 O 0.23760 0.52722 0.74007
 O646 O 0.27277 0.49128 0.77463
 C647 C 0.19901 0.52676 0.74572
 C648 C 0.24227 0.56621 0.74012
 C649 C 0.23908 0.52020 0.70168
 C650 C 0.31040 0.48928 0.76943
 C651 C 0.27375 0.49748 0.81195
 C652 C 0.26674 0.45311 0.77593
 H653 H 0.25077 0.52210 0.79696
 H654 H 0.24226 0.46830 0.75270
 H655 H 0.22974 0.53496 0.73211
 H656 H 0.29577 0.51431 0.74515
 H657 H 0.29581 0.55025 0.76712
 H658 H 0.29725 0.54548 0.73680
 H659 H 0.22112 0.46406 0.77407
 H660 H 0.20420 0.48157 0.75308
 H661 H 0.27199 0.54534 0.79885
 H662 H 0.25026 0.56179 0.78352
 H663 H 0.26008 0.45579 0.73131
 H664 H 0.23988 0.47616 0.71289
 H665 H 0.20944 0.52453 0.78910
 H666 H 0.22844 0.50389 0.80896
 H667 H 0.28356 0.51329 0.70888
 H668 H 0.30117 0.49146 0.72557
 O669 O 0.23847 0.05076 0.23451
 O670 O 0.27045 0.04471 0.23540
 O671 O 0.21707 0.00181 0.20880
 O672 O 0.21556 -0.02853 0.21380
 O673 O 0.19101 0.02427 0.25653
 O674 O 0.19762 0.02242 0.28758
 O675 O 0.26491 -0.04734 0.25748
 O676 O 0.26275 -0.04144 0.22666
 O677 O 0.28835 0.00073 0.28043
 O678 O 0.28139 0.03282 0.28113
 O679 O 0.24199 -0.02548 0.30286
 O680 O 0.20931 -0.02438 0.29751
 O681 O 0.24211 -0.04887 0.27824
 O682 O 0.20783 -0.04161 0.27595
 O683 O 0.26355 -0.00249 0.30429
 O684 O 0.25965 0.03301 0.29815
 O685 O 0.28838 -0.02245 0.25962
 O686 O 0.28251 -0.01797 0.22589
 O687 O 0.21684 0.05054 0.25656
 O688 O 0.21883 0.04229 0.28872
 O689 O 0.19133 0.00292 0.23394
 O690 O 0.19886 -0.03152 0.23724
 O691 O 0.23788 0.02554 0.20922
 O692 O 0.27107 0.02327 0.21606
 Zr693 Zr 0.24977 0.02393 0.23532
 O694 O 0.26765 0.00790 0.25154
 Zr695 Zr 0.21775 -0.00909 0.23503
 O696 O 0.23469 -0.02719 0.25010
 Zr697 Zr 0.21776 0.02312 0.26717
 O698 O 0.23373 0.00598 0.28424
 Zr699 Zr 0.26259 -0.02044 0.24655
 O700 O 0.24572 -0.00439 0.22903
 Zr701 Zr 0.26155 0.01129 0.27902
 O702 O 0.24560 0.02966 0.26290
 Zr703 Zr 0.22983 -0.02226 0.27750
 O704 O 0.21166 -0.00523 0.26240
 O705 O 0.22208 0.01907 0.23982
 O706 O 0.25772 -0.01699 0.27391
 C707 C 0.22582 0.05858 0.24375
 C708 C 0.22539 0.01565 0.20137
 C709 C 0.18343 0.01561 0.24333
 C710 C 0.25581 -0.05589 0.26980
 C711 C 0.29600 -0.01290 0.27229
 C712 C 0.25511 -0.01680 0.31082
 H713 H 0.28048 0.01148 0.24892
 H714 H 0.23063 0.00840 0.29696
 H715 H 0.21423 0.02714 0.23216
 H716 H 0.23216 -0.04026 0.24667
 H717 H 0.25600 -0.03635 0.21612
 H718 H 0.22529 -0.03790 0.21582
 H719 H 0.25106 0.02895 0.30770
 H720 H 0.23032 0.04957 0.28728
 H721 H 0.29173 -0.00854 0.22956
 H722 H 0.26950 0.01153 0.20925
 H723 H 0.20946 -0.01264 0.30444
 H724 H 0.19252 0.00959 0.28764
 H725 H 0.27020 0.05046 0.24750
 H726 H 0.28703 0.03433 0.26911
 H727 H 0.19053 -0.02860 0.24733
 H728 H 0.21069 -0.05062 0.26633
 O729 O 0.50014 0.70020 0.22061
 O730 O 0.46878 0.70932 0.21992
 O731 O 0.52724 0.74873 0.19903
 O732 O 0.52801 0.77939 0.20558
 O733 O 0.54882 0.72174 0.24586
 O734 O 0.54075 0.72178 0.27710
 O735 O 0.47920 0.79737 0.24989
 O736 O 0.48491 0.79522 0.21815
 O737 O 0.45295 0.75204 0.26748
 O738 O 0.45675 0.71728 0.26312
 O739 O 0.49813 0.76970 0.29394
 O740 O 0.53223 0.76590 0.28933
 O741 O 0.50146 0.79563 0.27148
 O742 O 0.53430 0.78715 0.27137
 O743 O 0.47615 0.74714 0.29218
 O744 O 0.47540 0.71418 0.28306
 O745 O 0.45428 0.77429 0.24553
 O746 O 0.46253 0.77445 0.21382
 O747 O 0.52113 0.69725 0.24328
 O748 O 0.51914 0.70247 0.27524
 O749 O 0.55139 0.74584 0.22591
 O750 O 0.54586 0.77914 0.22990
 O751 O 0.50457 0.72684 0.19709
 O752 O 0.47170 0.73159 0.20131
 Zr753 Zr 0.49127 0.72790 0.22219
 O754 O 0.47371 0.74400 0.23820
 Zr755 Zr 0.52534 0.75854 0.22574
 O756 O 0.50916 0.77634 0.24171
 Zr757 Zr 0.52175 0.72374 0.25552
 O758 O 0.50572 0.74000 0.27293
 Zr759 Zr 0.48121 0.77220 0.23577
 O760 O 0.49750 0.75631 0.21800
 Zr761 Zr 0.47792 0.73748 0.26556
 O762 O 0.49378 0.71952 0.24939
 Zr763 Zr 0.51185 0.76844 0.26898
 O764 O 0.52963 0.75196 0.25317
 O765 O 0.51902 0.73038 0.22841
 O766 O 0.48402 0.76574 0.26305
 C767 C 0.51182 0.69076 0.22990
 C768 C 0.51832 0.73590 0.19056
 C769 C 0.55795 0.73168 0.23449
 C770 C 0.48818 0.80400 0.26337
 C771 C 0.44611 0.76577 0.25850
 C772 C 0.48474 0.76016 0.30057
 H773 H 0.46084 0.74180 0.23449
 H774 H 0.50793 0.73596 0.28552
 H775 H 0.52682 0.72230 0.22089
 H776 H 0.51272 0.78951 0.23967
 H777 H 0.49101 0.79038 0.20724
 H778 H 0.52160 0.79064 0.20990
 H779 H 0.48617 0.71420 0.29125
 H780 H 0.50679 0.69689 0.27356
 H781 H 0.45490 0.76301 0.21357
 H782 H 0.47454 0.74370 0.19544
 H783 H 0.52900 0.75505 0.29700
 H784 H 0.54697 0.73406 0.27783
 H785 H 0.46737 0.70335 0.23191
 H786 H 0.44842 0.72125 0.25325
 H787 H 0.55186 0.77624 0.24159
 H788 H 0.53380 0.79586 0.26098
 O789 O -0.04341 0.75591 0.76512
 O790 O -0.03722 0.72268 0.76371
 O791 O 0.00052 0.77595 0.79776
 O792 O 0.03170 0.77470 0.79743
 O793 O -0.01326 0.80420 0.74859
 O794 O -0.00728 0.79791 0.71728
 O795 O 0.05521 0.72752 0.75367
 O796 O 0.04645 0.73143 0.78480
 O797 O 0.01236 0.70570 0.72614
 O798 O -0.02137 0.71329 0.72340
 O799 O 0.03882 0.75238 0.70687
 O800 O 0.03655 0.78688 0.71387
 O801 O 0.05932 0.75143 0.73382
 O802 O 0.05391 0.78517 0.73529
 O803 O 0.01571 0.73138 0.70283
 O804 O -0.01766 0.73309 0.70439
 O805 O 0.03019 0.70413 0.75134
 O806 O 0.02433 0.71005 0.78299
 O807 O -0.03928 0.77947 0.74477
 O808 O -0.02835 0.77772 0.71408
 O809 O 0.00450 0.80276 0.77388
 O810 O 0.03724 0.79536 0.77530
 O811 O -0.02193 0.75410 0.79392
 O812 O -0.02038 0.72170 0.78682
 Zr813 Zr -0.01720 0.74368 0.76793
 O814 O 0.00076 0.72576 0.75429
 Zr815 Zr 0.01560 0.77559 0.77358
 O816 O 0.03508 0.75900 0.76009
 Zr817 Zr -0.01152 0.77735 0.73740
 O818 O 0.00657 0.76086 0.72231
 Zr819 Zr 0.02797 0.73072 0.76271
 O820 O 0.00974 0.74710 0.77814
 Zr821 Zr 0.00054 0.73250 0.72673
 O822 O -0.01910 0.74908 0.74005
 Zr823 Zr 0.03347 0.76432 0.73220
 O824 O 0.01560 0.78262 0.74595
 O825 O -0.01126 0.77185 0.76490
 O826 O 0.02766 0.73601 0.73510
 C827 C -0.04921 0.76996 0.75581
 C828 C -0.01371 0.76678 0.80314
 C829 C -0.00648 0.81137 0.76303
 C830 C 0.06497 0.73682 0.74228
 C831 C 0.02345 0.69710 0.73686
 C832 C 0.03038 0.73979 0.69769
 H833 H -0.00305 0.71269 0.75646
 H834 H 0.00555 0.76433 0.70943
 H835 H -0.01994 0.77978 0.77159
 H836 H 0.04757 0.76131 0.76491
 H837 H 0.03979 0.73723 0.79492
 H838 H 0.04337 0.76838 0.79454
 H839 H -0.01573 0.74506 0.69795
 H840 H -0.03520 0.76576 0.71403
 H841 H 0.01294 0.70305 0.78022
 H842 H -0.00923 0.72181 0.79453
 H843 H 0.02782 0.78494 0.70378
 H844 H 0.00485 0.80364 0.71983
 H845 H -0.04158 0.72414 0.75111
 H846 H -0.02085 0.70421 0.73349
 H847 H 0.03731 0.80240 0.76377
 H848 H 0.05943 0.78363 0.74741
 O849 O -0.00376 -0.01194 -0.05135
 O850 O 0.02776 -0.01103 -0.04242
 O851 O -0.02924 -0.03598 -0.00410
 O852 O -0.03263 -0.02910 0.02465
 O853 O -0.05301 0.01273 -0.03086
 O854 O -0.04540 0.04509 -0.03067
 O855 O 0.01483 0.01692 0.04397
 O856 O 0.01176 -0.01588 0.04014
 O857 O 0.04277 0.03691 -0.00077
 O858 O 0.03842 0.03511 -0.03332
 O859 O -0.00468 0.06273 0.01763
 O860 O -0.03798 0.05718 0.01322
 O861 O -0.00746 0.03895 0.04191
 O862 O -0.04047 0.03710 0.03243
 O863 O 0.01835 0.06227 -0.00294
 O864 O 0.01843 0.05414 -0.03606
 O865 O 0.04070 0.01605 0.02234
 O866 O 0.03451 -0.01783 0.02071
 O867 O -0.02615 0.01004 -0.05383
 O868 O -0.02304 0.04369 -0.04886
 O869 O -0.05457 -0.00952 -0.00891
 O870 O -0.04987 -0.00461 0.02422
 O871 O -0.00675 -0.03677 -0.02530
 O872 O 0.02598 -0.03047 -0.02104
 Zr873 Zr 0.00537 -0.01002 -0.02445
 O874 O 0.02220 0.00703 -0.00824
 Zr875 Zr -0.02908 -0.00820 0.00469
 O876 O -0.01357 0.00841 0.02250
 Zr877 Zr -0.02612 0.02320 -0.02845
 O878 O -0.01095 0.04155 -0.01194
 Zr879 Zr 0.01463 0.00369 0.01886
 O880 O -0.00097 -0.01499 0.00286
 Zr881 Zr 0.01712 0.03528 -0.01401
 O882 O 0.00209 0.01815 -0.03207
 Zr883 Zr -0.01732 0.03654 0.01530
 O884 O -0.03437 0.01998 -0.00142
 O885 O -0.02255 -0.00486 -0.02232
 O886 O 0.01082 0.03186 0.01315
 C887 C -0.01645 -0.00336 -0.06020
 C888 C -0.01997 -0.04429 -0.01634
 C889 C -0.06145 -0.00035 -0.02229
 C890 C 0.00540 0.03039 0.05047
 C891 C 0.04932 0.02867 0.01331
 C892 C 0.00910 0.07017 0.00958
 H893 H 0.03522 0.00384 -0.01026
 H894 H -0.01353 0.05458 -0.01552
 H895 H -0.02997 -0.01313 -0.03014
 H896 H -0.01725 0.00576 0.03507
 H897 H 0.00592 -0.02713 0.03490
 H898 H -0.02481 -0.02561 0.03504
 H899 H 0.00808 0.06297 -0.03502
 H900 H -0.01084 0.04167 -0.05432
 H901 H 0.04312 -0.01642 0.01054
 H902 H 0.02389 -0.03632 -0.00909
 H903 H -0.03532 0.06500 0.00250
 H904 H -0.05168 0.04573 -0.01888
 H905 H 0.02815 0.00123 -0.04864
 H906 H 0.04520 0.02326 -0.03183
 H907 H -0.05717 0.00639 0.02045
 H908 H -0.03922 0.02675 0.04124
 O909 O 0.00042 0.46624 0.46085
 O910 O 0.03205 0.46413 0.47078
 O911 O -0.02951 0.44949 0.50736
 O912 O -0.03036 0.45800 0.53665
 O913 O -0.04539 0.49888 0.47848
 O914 O -0.03329 0.53014 0.47686
 O915 O 0.02034 0.49917 0.55504
 O916 O 0.01243 0.46688 0.55289
 O917 O 0.05217 0.51143 0.50988
 O918 O 0.04788 0.50717 0.47680
 O919 O 0.00824 0.54586 0.52374
 O920 O -0.02592 0.54368 0.51892
 O921 O 0.00258 0.52466 0.54973
 O922 O -0.03018 0.52689 0.54049
 O923 O 0.03250 0.53948 0.50568
 O924 O 0.03205 0.53006 0.47323
 O925 O 0.04616 0.49327 0.53440
 O926 O 0.03581 0.46051 0.53488
 O927 O -0.01770 0.49160 0.45606
 O928 O -0.01177 0.52431 0.45911
 O929 O -0.05042 0.47890 0.50193
 O930 O -0.04614 0.48454 0.53392
 O931 O -0.00581 0.44404 0.48828
 O932 O 0.02689 0.44601 0.49269
 Zr933 Zr 0.00937 0.46898 0.48778
 O934 O 0.02786 0.48443 0.50373
 Zr935 Zr -0.02516 0.47733 0.51557
 O936 O -0.00827 0.49337 0.53275
 Zr937 Zr -0.01729 0.50588 0.48078
 O938 O 0.00009 0.52310 0.49631
 Zr939 Zr 0.01898 0.48428 0.53068
 O940 O 0.00176 0.46670 0.51510
 Zr941 Zr 0.02701 0.51258 0.49581
 O942 O 0.01005 0.49673 0.47836
 Zr943 Zr -0.00765 0.52120 0.52348
 O944 O -0.02640 0.50562 0.50764
 O945 O -0.01765 0.47804 0.48862
 O946 O 0.01945 0.51220 0.52281
 C947 C -0.01011 0.47638 0.45085
 C948 C -0.02062 0.43906 0.49638
 C949 C -0.05577 0.48805 0.48793
 C950 C 0.01345 0.51492 0.55968
 C951 C 0.05674 0.50379 0.52496
 C952 C 0.02373 0.55011 0.51652
 H953 H 0.04033 0.47923 0.50248
 H954 H -0.00050 0.53607 0.49176
 H955 H -0.02597 0.47048 0.48098
 H956 H -0.01262 0.49238 0.54532
 H957 H 0.00580 0.45592 0.54799
 H958 H -0.02436 0.46282 0.54768
 H959 H 0.02291 0.54023 0.47330
 H960 H 0.00097 0.52174 0.45529
 H961 H 0.04477 0.45986 0.52494
 H962 H 0.02450 0.44184 0.50521
 H963 H -0.02158 0.55070 0.50822
 H964 H -0.04033 0.53193 0.48809
 H965 H 0.03355 0.47550 0.46326
 H966 H 0.05392 0.49535 0.48033
 H967 H -0.05036 0.49721 0.53053
 H968 H -0.03090 0.51679 0.54960
 O969 O 0.45013 -0.00740 0.47856
 O970 O 0.45446 0.02613 0.48150
 O971 O 0.49464 -0.02347 0.44570
 O972 O 0.52573 -0.01942 0.44644
 O973 O 0.48240 -0.05439 0.49324
 O974 O 0.48830 -0.04929 0.52508
 O975 O 0.54719 0.02606 0.49202
 O976 O 0.53801 0.02337 0.46095
 O977 O 0.50273 0.04448 0.52043
 O978 O 0.46934 0.03430 0.52231
 O979 O 0.53135 -0.00191 0.53856
 O980 O 0.53136 -0.03571 0.52968
 O981 O 0.55157 0.00264 0.51242
 O982 O 0.54844 -0.03181 0.50850
 O983 O 0.50785 0.01832 0.54274
 O984 O 0.47469 0.01444 0.54105
 O985 O 0.52053 0.04817 0.49554
 O986 O 0.51535 0.04375 0.46406
 O987 O 0.45491 -0.03131 0.49833
 O988 O 0.46588 -0.03088 0.52887
 O989 O 0.50135 -0.05081 0.46913
 O990 O 0.53283 -0.04073 0.46756
 O991 O 0.47100 -0.00348 0.45065
 O992 O 0.47128 0.02897 0.45860
 Zr993 Zr 0.47553 0.00655 0.47680
 O994 O 0.49245 0.02490 0.49142
 Zr995 Zr 0.50993 -0.02281 0.47012
 O996 O 0.52844 -0.00583 0.48476
 Zr997 Zr 0.48271 -0.02810 0.50587
 O998 O 0.49983 -0.01120 0.52200
 Zr999 Zr 0.51988 0.02203 0.48311
 O1000 O 0.50253 0.00540 0.46668
 Zr1001 Zr 0.49252 0.01697 0.51871
 O1002 O 0.47379 -0.00019 0.50439
 Zr1003 Zr 0.52688 -0.01252 0.51241
 O1004 O 0.51010 -0.03112 0.49747
 O1005 O 0.48290 -0.02133 0.47866
 O1006 O 0.51976 0.01551 0.51053
 C1007 C 0.44475 -0.02198 0.48729
 C1008 C 0.47963 -0.01526 0.44087
 C1009 C 0.49056 -0.06057 0.47913
 C1010 C 0.55687 0.01736 0.50393
 C1011 C 0.51326 0.05419 0.51009
 C1012 C 0.52268 0.01021 0.54795
 H1013 H 0.48791 0.03776 0.48972
 H1014 H 0.49898 -0.01530 0.53471
 H1015 H 0.47470 -0.02960 0.47162
 H1016 H 0.54105 -0.00717 0.48007
 H1017 H 0.53132 0.01814 0.45046
 H1018 H 0.53707 -0.01258 0.44977
 H1019 H 0.47712 0.00225 0.54689
 H1020 H 0.45897 -0.01906 0.52987
 H1021 H 0.50295 0.04886 0.46612
 H1022 H 0.48217 0.02943 0.45065
 H1023 H 0.52205 -0.03531 0.53933
 H1024 H 0.50053 -0.05437 0.52208
 H1025 H 0.44997 0.02372 0.49387
 H1026 H 0.46957 0.04407 0.51282
 H1027 H 0.53416 -0.04747 0.47918
 H1028 H 0.55504 -0.02815 0.49740
 O1029 O 0.50635 0.53204 0.03477
 O1030 O 0.47422 0.52605 0.03276
 O1031 O 0.52549 0.48153 0.06113
 O1032 O 0.52617 0.45122 0.05557
 O1033 O 0.55396 0.50485 0.01504
 O1034 O 0.54838 0.50365 -0.01686
 O1035 O 0.47873 0.43458 0.00965
 O1036 O 0.48148 0.43933 0.04113
 O1037 O 0.45707 0.48295 -0.01245
 O1038 O 0.46511 0.51637 -0.01138
 O1039 O 0.50420 0.45897 -0.03530
 O1040 O 0.53660 0.45849 -0.02760
 O1041 O 0.50117 0.43412 -0.01151
 O1042 O 0.53563 0.43943 -0.00738
 O1043 O 0.48182 0.48100 -0.03556
 O1044 O 0.48545 0.51543 -0.02973
 O1045 O 0.45550 0.46038 0.00914
 O1046 O 0.46100 0.46192 0.04175
 O1047 O 0.52954 0.53145 0.01433
 O1048 O 0.52820 0.52484 -0.01771
 O1049 O 0.55278 0.48235 0.03677
 O1050 O 0.54465 0.44893 0.03276
 O1051 O 0.50504 0.50545 0.06003
 O1052 O 0.47282 0.50499 0.05227
 Zr1053 Zr 0.49463 0.50515 0.03357
 O1054 O 0.47695 0.48952 0.01699
 Zr1055 Zr 0.52590 0.47137 0.03459
 O1056 O 0.50928 0.45403 0.01833
 Zr1057 Zr 0.52777 0.50453 0.00308
 O1058 O 0.51171 0.48851 -0.01483
 Zr1059 Zr 0.48150 0.46094 0.02156
 O1060 O 0.49788 0.47657 0.03967
 Zr1061 Zr 0.48380 0.49382 -0.01018
 O1062 O 0.49994 0.51150 0.00635
 Zr1063 Zr 0.51481 0.45996 -0.00890
 O1064 O 0.53287 0.47595 0.00741
 O1065 O 0.52239 0.49980 0.03019
 O1066 O 0.48695 0.46532 -0.00567
 C1067 C 0.51991 0.53965 0.02642
 C1068 C 0.51671 0.49506 0.06839
 C1069 C 0.56113 0.49539 0.02805
 C1070 C 0.48738 0.42676 -0.00331
 C1071 C 0.44853 0.46996 -0.00388
 C1072 C 0.49091 0.46778 -0.04294
 H1073 H 0.46413 0.49314 0.01945
 H1074 H 0.51525 0.49145 -0.02737
 H1075 H 0.53011 0.50747 0.03831
 H1076 H 0.51142 0.44076 0.02138
 H1077 H 0.48747 0.44445 0.05206
 H1078 H 0.51797 0.44090 0.05183
 H1079 H 0.49588 0.51269 -0.03776
 H1080 H 0.51620 0.53128 -0.01734
 H1081 H 0.45373 0.47342 0.03993
 H1082 H 0.47314 0.49269 0.05842
 H1083 H 0.53696 0.47048 -0.03427
 H1084 H 0.55405 0.49114 -0.01597
 H1085 H 0.47501 0.53199 0.02070
 H1086 H 0.45707 0.51545 -0.00071
 H1087 H 0.55234 0.45130 0.02201
 H1088 H 0.53207 0.43019 0.00195
 O1089 O 0.75441 0.30663 0.49182
 O1090 O 0.75184 0.29793 0.52338
 O1091 O 0.78534 0.26228 0.46967
 O1092 O 0.78353 0.23106 0.46818
 O1093 O 0.73592 0.28100 0.44322
 O1094 O 0.70373 0.27546 0.44904
 O1095 O 0.73822 0.20477 0.51140
 O1096 O 0.77035 0.21346 0.50898
 O1097 O 0.71104 0.24634 0.53606
 O1098 O 0.71035 0.28178 0.53171
 O1099 O 0.69123 0.22493 0.48911
 O1100 O 0.69812 0.23018 0.45635
 O1101 O 0.71776 0.20351 0.48819
 O1102 O 0.71976 0.21243 0.45604
 O1103 O 0.68751 0.24689 0.51077
 O1104 O 0.69071 0.28053 0.51242
 O1105 O 0.73633 0.22782 0.53633
 O1106 O 0.76851 0.23329 0.53164
 O1107 O 0.73340 0.30519 0.46900
 O1108 O 0.70159 0.29538 0.47007
 O1109 O 0.76061 0.26164 0.44366
 O1110 O 0.76089 0.22780 0.44841
 O1111 O 0.78259 0.28306 0.49260
 O1112 O 0.77445 0.27981 0.52370
 Zr1113 Zr 0.75556 0.27900 0.50198
 O1114 O 0.74073 0.25972 0.51787
 Zr1115 Zr 0.75996 0.24824 0.46889
 O1116 O 0.74536 0.22764 0.48328
 Zr1117 Zr 0.72444 0.27730 0.46905
 O1118 O 0.70819 0.25808 0.48353
 Zr1119 Zr 0.74822 0.23237 0.51102
 O1120 O 0.76478 0.25168 0.49673
 Zr1121 Zr 0.71268 0.26131 0.51138
 O1122 O 0.72723 0.28224 0.49691
 Zr1123 Zr 0.71713 0.23086 0.47806
 O1124 O 0.73196 0.25003 0.46189
 O1125 O 0.75241 0.27546 0.47440
 O1126 O 0.72015 0.23398 0.50581
 C1127 C 0.74530 0.31398 0.47863
 C1128 C 0.79166 0.27533 0.47982
 C1129 C 0.75031 0.27393 0.43601
 C1130 C 0.72632 0.19613 0.50160
 C1131 C 0.72159 0.23405 0.54347
 C1132 C 0.68199 0.23275 0.50165
 H1133 H 0.74297 0.26229 0.53076
 H1134 H 0.69514 0.25988 0.48024
 H1135 H 0.75981 0.28454 0.46741
 H1136 H 0.74979 0.21507 0.48006
 H1137 H 0.78094 0.22065 0.50424
 H1138 H 0.78032 0.21905 0.47403
 H1139 H 0.68463 0.28052 0.50047
 H1140 H 0.70191 0.30132 0.48209
 H1141 H 0.76635 0.24454 0.53898
 H1142 H 0.78176 0.26821 0.52301
 H1143 H 0.68844 0.23948 0.45875
 H1144 H 0.70584 0.26363 0.44257
 H1145 H 0.73907 0.30253 0.52237
 H1146 H 0.72002 0.27942 0.54085
 H1147 H 0.74939 0.22895 0.44131
 H1148 H 0.73146 0.20561 0.45755
 O1149 O 0.75783 0.69648 0.02021
 O1150 O 0.78919 0.70591 0.01654
 O1151 O 0.73260 0.74521 0.04128
 O1152 O 0.73023 0.77549 0.03340
 O1153 O 0.70675 0.71621 -0.00247
 O1154 O 0.71239 0.71424 -0.03398
 O1155 O 0.77301 0.79363 -0.01524
 O1156 O 0.77213 0.79147 0.01675
 O1157 O 0.80051 0.74633 -0.03293
 O1158 O 0.79670 0.71290 -0.02866
 O1159 O 0.75062 0.76275 -0.05685
 O1160 O 0.71773 0.75876 -0.04834
 O1161 O 0.74999 0.78976 -0.03570
 O1162 O 0.71732 0.78068 -0.03121
 O1163 O 0.77518 0.74328 -0.05550
 O1164 O 0.77528 0.70891 -0.04582
 O1165 O 0.79897 0.77175 -0.01484
 O1166 O 0.79528 0.77168 0.01870
 O1167 O 0.73450 0.69262 -0.00003
 O1168 O 0.73481 0.69598 -0.03273
 O1169 O 0.70613 0.73993 0.01777
 O1170 O 0.71001 0.77350 0.01097
 O1171 O 0.75672 0.72510 0.04263
 O1172 O 0.78850 0.72896 0.03409
 Zr1173 Zr 0.76651 0.72426 0.01593
 O1174 O 0.78195 0.74031 -0.00248
 Zr1175 Zr 0.73147 0.75386 0.01417
 O1176 O 0.74554 0.77151 -0.00402
 Zr1177 Zr 0.73299 0.71814 -0.01415
 O1178 O 0.74675 0.73421 -0.03377
 Zr1179 Zr 0.77405 0.76840 -0.00077
 O1180 O 0.76001 0.75268 0.01920
 Zr1181 Zr 0.77519 0.73268 -0.02899
 O1182 O 0.76151 0.71487 -0.01052
 Zr1183 Zr 0.74022 0.76255 -0.03049
 O1184 O 0.72454 0.74612 -0.01235
 O1185 O 0.73825 0.72587 0.01230
 O1186 O 0.76859 0.76083 -0.02726
 C1187 C 0.74491 0.68679 0.01289
 C1188 C 0.74322 0.73385 0.04983
 C1189 C 0.69888 0.72570 0.00993
 C1190 C 0.76311 0.79931 -0.02858
 C1191 C 0.80699 0.76174 -0.02677
 C1192 C 0.76469 0.75490 -0.06384
 H1193 H 0.79518 0.73862 -0.00000
 H1194 H 0.74342 0.72972 -0.04592
 H1195 H 0.73144 0.71812 0.02112
 H1196 H 0.74187 0.78463 -0.00219
 H1197 H 0.76710 0.78665 0.02826
 H1198 H 0.73617 0.78662 0.02803
 H1199 H 0.76520 0.71027 -0.05473
 H1200 H 0.74737 0.69085 -0.03153
 H1201 H 0.80456 0.76187 0.01677
 H1202 H 0.78710 0.74187 0.03853
 H1203 H 0.72010 0.74746 -0.05554
 H1204 H 0.70567 0.72619 -0.03493
 H1205 H 0.78855 0.69858 0.00528
 H1206 H 0.80415 0.71511 -0.01769
 H1207 H 0.70274 0.76963 0.00030
 H1208 H 0.71898 0.78999 -0.02155
 O1209 O 0.95660 0.26016 0.27812
 O1210 O 0.96035 0.22704 0.27759
 O1211 O 1.00538 0.27853 0.30514
 O1212 O 1.03589 0.27516 0.30147
 O1213 O 0.98666 0.30593 0.25789
 O1214 O 0.98979 0.29945 0.22613
 O1215 O 1.05121 0.22558 0.25784
 O1216 O 1.04561 0.22980 0.28908
 O1217 O 1.00506 0.20630 0.23362
 O1218 O 0.97136 0.21492 0.23535
 O1219 O 1.03108 0.25016 0.21136
 O1220 O 1.03249 0.28417 0.21715
 O1221 O 1.05450 0.24846 0.23670
 O1222 O 1.05088 0.28294 0.23750
 O1223 O 1.00592 0.23131 0.21012
 O1224 O 0.97294 0.23487 0.21620
 O1225 O 1.02505 0.20361 0.25714
 O1226 O 1.02194 0.21023 0.28965
 O1227 O 0.95914 0.28185 0.25571
 O1228 O 0.96761 0.28069 0.22466
 O1229 O 1.00850 0.30432 0.27991
 O1230 O 1.04054 0.29414 0.27819
 O1231 O 0.98143 0.25802 0.30461
 O1232 O 0.98010 0.22517 0.29820
 Zr1233 Zr 0.98217 0.24654 0.27853
 O1234 O 0.99699 0.22706 0.26331
 Zr1235 Zr 1.01727 0.27634 0.27948
 O1236 O 1.03381 0.25799 0.26455
 Zr1237 Zr 0.98625 0.27908 0.24657
 O1238 O 1.00141 0.26115 0.23003
 Zr1239 Zr 1.02514 0.23031 0.26873
 O1240 O 1.01019 0.24842 0.28559
 Zr1241 Zr 0.99417 0.23335 0.23576
 O1242 O 0.97739 0.25141 0.25085
 Zr1243 Zr 1.02943 0.26291 0.23687
 O1244 O 1.01444 0.28273 0.25187
 O1245 O 0.98933 0.27423 0.27403
 O1246 O 1.02220 0.23515 0.24114
 C1247 C 0.95011 0.27336 0.26815
 C1248 C 0.99148 0.27041 0.31244
 C1249 C 0.99619 0.31312 0.27076
 C1250 C 1.06027 0.23410 0.24545
 C1251 C 1.01693 0.19721 0.24305
 C1252 C 1.02049 0.23847 0.20325
 H1253 H 0.99265 0.21430 0.26608
 H1254 H 0.99908 0.26446 0.21727
 H1255 H 0.98182 0.28277 0.28137
 H1256 H 1.04684 0.25959 0.26804
 H1257 H 1.04046 0.23636 0.29961
 H1258 H 1.04624 0.26711 0.29790
 H1259 H 0.97538 0.24590 0.20848
 H1260 H 0.96031 0.26901 0.22489
 H1261 H 1.01060 0.20299 0.28728
 H1262 H 0.99209 0.22476 0.30456
 H1263 H 1.02142 0.28400 0.20937
 H1264 H 1.00242 0.30440 0.22753
 H1265 H 0.95568 0.22720 0.26503
 H1266 H 0.97318 0.20540 0.24491
 H1267 H 1.03958 0.30128 0.26676
 H1268 H 1.05830 0.28060 0.24850
 O1269 O 0.74227 1.04036 0.71768
 O1270 O 0.77503 1.03740 0.72097
 O1271 O 0.72661 0.98944 0.69256
 O1272 O 0.72813 0.95906 0.69804
 O1273 O 0.69746 1.01053 0.73831
 O1274 O 0.70280 1.00895 0.77030
 O1275 O 0.77575 0.94451 0.74286
 O1276 O 0.77428 0.95073 0.71196
 O1277 O 0.79538 0.99491 0.76604
 O1278 O 0.78582 1.02666 0.76593
 O1279 O 0.74939 0.96675 0.78876
 O1280 O 0.71759 0.96403 0.78135
 O1281 O 0.75408 0.94257 0.76476
 O1282 O 0.71911 0.94593 0.76046
 O1283 O 0.77076 0.98995 0.78917
 O1284 O 0.76404 1.02491 0.78299
 O1285 O 0.79753 0.97107 0.74610
 O1286 O 0.79302 0.97491 0.71238
 O1287 O 0.72051 1.03857 0.73954
 O1288 O 0.72186 1.03113 0.77162
 O1289 O 0.69974 0.98807 0.71688
 O1290 O 0.71001 0.95503 0.72092
 O1291 O 0.74601 1.01440 0.69340
 O1292 O 0.77844 1.01617 0.70155
 Zr1293 Zr 0.75639 1.01473 0.71995
 O1294 O 0.77500 1.00015 0.73668
 Zr1295 Zr 0.72720 0.97886 0.71903
 O1296 O 0.74489 0.96249 0.73516
 Zr1297 Zr 0.72351 1.01147 0.75056
 O1298 O 0.74037 0.99615 0.76845
 Zr1299 Zr 0.77224 0.97138 0.73208
 O1300 O 0.75487 0.98603 0.71393
 Zr1301 Zr 0.76790 1.00345 0.76389
 O1302 O 0.75087 1.02033 0.74724
 Zr1303 Zr 0.73893 0.96754 0.76238
 O1304 O 0.71996 0.98264 0.74620
 O1305 O 0.72910 1.00738 0.72348
 O1306 O 0.76641 0.97487 0.75928
 C1307 C 0.72870 1.04716 0.72654
 C1308 C 0.73456 1.00360 0.68524
 C1309 C 0.69083 1.00076 0.72532
 C1310 C 0.76775 0.93598 0.75593
 C1311 C 0.80412 0.98146 0.75867
 C1312 C 0.76228 0.97606 0.79646
 H1313 H 0.78761 1.00466 0.73436
 H1314 H 0.73666 0.99861 0.78101
 H1315 H 0.72092 1.01455 0.71533
 H1316 H 0.74347 0.94918 0.73199
 H1317 H 0.76786 0.95567 0.70114
 H1318 H 0.73753 0.94974 0.70144
 H1319 H 0.75544 1.02026 0.79228
 H1320 H 0.73327 1.03867 0.77111
 H1321 H 0.80126 0.98518 0.71618
 H1322 H 0.77906 1.00383 0.69567
 H1323 H 0.71568 0.97623 0.78718
 H1324 H 0.69768 0.99618 0.76919
 H1325 H 0.77305 1.04361 0.73269
 H1326 H 0.79168 1.02834 0.75403
 H1327 H 0.70179 0.95695 0.73133
 H1328 H 0.72352 0.93676 0.75158
 O1329 O 0.74973 0.48841 0.30749
 O1330 O 0.71821 0.48840 0.29855
 O1331 O 0.77609 0.46504 0.26120
 O1332 O 0.77730 0.47151 0.23148
 O1333 O 0.79884 0.51396 0.28606
 O1334 O 0.79074 0.54612 0.28570
 O1335 O 0.73026 0.51651 0.21169
 O1336 O 0.73423 0.48400 0.21599
 O1337 O 0.70201 0.53487 0.25754
 O1338 O 0.70774 0.53363 0.29017
 O1339 O 0.74920 0.56357 0.23847
 O1340 O 0.78270 0.55808 0.24201
 O1341 O 0.75103 0.54016 0.21403
 O1342 O 0.78453 0.53871 0.22233
 O1343 O 0.72519 0.56116 0.25775
 O1344 O 0.72633 0.55431 0.29105
 O1345 O 0.70446 0.51465 0.23418
 O1346 O 0.71152 0.48131 0.23535
 O1347 O 0.77170 0.51102 0.30958
 O1348 O 0.76874 0.54435 0.30407
 O1349 O 0.80052 0.49199 0.26413
 O1350 O 0.79561 0.49630 0.23165
 O1351 O 0.75249 0.46319 0.28114
 O1352 O 0.72023 0.46897 0.27795
 Zr1353 Zr 0.74062 0.48988 0.28057
 O1354 O 0.72346 0.50640 0.26426
 Zr1355 Zr 0.77478 0.49257 0.25118
 O1356 O 0.75895 0.50906 0.23332
 Zr1357 Zr 0.77169 0.52387 0.28392
 O1358 O 0.75591 0.54191 0.26751
 Zr1359 Zr 0.73093 0.50339 0.23709
 O1360 O 0.74683 0.48507 0.25328
 Zr1361 Zr 0.72804 0.53472 0.26986
 O1362 O 0.74362 0.51807 0.28789
 Zr1363 Zr 0.76200 0.53733 0.24023
 O1364 O 0.77953 0.52095 0.25681
 O1365 O 0.76847 0.49570 0.27825
 O1366 O 0.73405 0.53167 0.24263
 C1367 C 0.76200 0.49762 0.31623
 C1368 C 0.76620 0.45616 0.27276
 C1369 C 0.80743 0.50129 0.27730
 C1370 C 0.73877 0.53083 0.20534
 C1371 C 0.69549 0.52638 0.24371
 C1372 C 0.73458 0.56996 0.24578
 H1373 H 0.71057 0.50271 0.26649
 H1374 H 0.75823 0.55500 0.27096
 H1375 H 0.77606 0.48764 0.28618
 H1376 H 0.76258 0.50666 0.22073
 H1377 H 0.74024 0.47287 0.22133
 H1378 H 0.77095 0.47595 0.22045
 H1379 H 0.73633 0.56355 0.28950
 H1380 H 0.75619 0.54283 0.30895
 H1381 H 0.70326 0.48204 0.24585
 H1382 H 0.72179 0.46348 0.26584
 H1383 H 0.78017 0.56574 0.25275
 H1384 H 0.79700 0.54680 0.27390
 H1385 H 0.71796 0.50042 0.30504
 H1386 H 0.70059 0.52201 0.28846
 H1387 H 0.80175 0.50833 0.23430
 H1388 H 0.78319 0.52843 0.21358
 O1389 O 0.54399 0.22637 0.73847
 O1390 O 0.54157 0.22781 0.77036
 O1391 O 0.49408 0.19972 0.72252
 O1392 O 0.46426 0.20436 0.72444
 O1393 O 0.51339 0.24919 0.69502
 O1394 O 0.51215 0.28160 0.70137
 O1395 O 0.45031 0.24854 0.77349
 O1396 O 0.45638 0.21692 0.77078
 O1397 O 0.49886 0.27375 0.79174
 O1398 O 0.53025 0.27442 0.78254
 O1399 O 0.46982 0.29703 0.74879
 O1400 O 0.46735 0.29125 0.71702
 O1401 O 0.44724 0.27133 0.75221
 O1402 O 0.45026 0.26877 0.71772
 O1403 O 0.49400 0.29831 0.76819
 O1404 O 0.52842 0.29247 0.76114
 O1405 O 0.47759 0.25061 0.79454
 O1406 O 0.48084 0.21651 0.78829
 O1407 O 0.54158 0.24934 0.71728
 O1408 O 0.53402 0.28260 0.72018
 O1409 O 0.49171 0.22631 0.69707
 O1410 O 0.45931 0.22875 0.70802
 O1411 O 0.51910 0.20031 0.74104
 O1412 O 0.52070 0.20747 0.77353
 Zr1413 Zr 0.51896 0.22731 0.75237
 O1414 O 0.50488 0.24372 0.77122
 Zr1415 Zr 0.48328 0.22673 0.72423
 O1416 O 0.46727 0.24210 0.74235
 Zr1417 Zr 0.51491 0.26033 0.72106
 O1418 O 0.49965 0.27780 0.73815
 Zr1419 Zr 0.47667 0.23804 0.76893
 O1420 O 0.49087 0.22033 0.75108
 Zr1421 Zr 0.50742 0.27231 0.76489
 O1422 O 0.52401 0.25596 0.74769
 Zr1423 Zr 0.47163 0.27059 0.73711
 O1424 O 0.48652 0.25518 0.71785
 O1425 O 0.51130 0.23197 0.72576
 O1426 O 0.47942 0.26654 0.76385
 C1427 C 0.55030 0.23590 0.72512
 C1428 C 0.50831 0.19212 0.72973
 C1429 C 0.50365 0.23595 0.68827
 C1430 C 0.44140 0.26182 0.76579
 C1431 C 0.48691 0.26445 0.80076
 C1432 C 0.47933 0.30523 0.76103
 H1433 H 0.50965 0.24100 0.78345
 H1434 H 0.50171 0.29102 0.73482
 H1435 H 0.51829 0.22413 0.71730
 H1436 H 0.45421 0.23846 0.74110
 H1437 H 0.46098 0.20614 0.76386
 H1438 H 0.45543 0.20686 0.73421
 H1439 H 0.52366 0.30227 0.75292
 H1440 H 0.54209 0.28117 0.73088
 H1441 H 0.49187 0.21957 0.79554
 H1442 H 0.50913 0.20017 0.77323
 H1443 H 0.47902 0.29817 0.71556
 H1444 H 0.49920 0.28119 0.69724
 H1445 H 0.54702 0.24045 0.76939
 H1446 H 0.53217 0.26195 0.78799
 H1447 H 0.46092 0.23972 0.69999
 H1448 H 0.44141 0.25918 0.72189
 O1449 O 0.25583 0.76363 0.44424
 O1450 O 0.22399 0.76549 0.45165
 O1451 O 0.28173 0.78553 0.49170
 O1452 O 0.28557 0.77801 0.52031
 O1453 O 0.30093 0.73509 0.46509
 O1454 O 0.29157 0.70316 0.46737
 O1455 O 0.23232 0.73845 0.53956
 O1456 O 0.23769 0.77013 0.53478
 O1457 O 0.20344 0.71992 0.49347
 O1458 O 0.20864 0.72012 0.46189
 O1459 O 0.24825 0.68962 0.51462
 O1460 O 0.28021 0.69103 0.51262
 O1461 O 0.25273 0.71453 0.53887
 O1462 O 0.28658 0.71292 0.52902
 O1463 O 0.22491 0.69270 0.49437
 O1464 O 0.22769 0.69955 0.46025
 O1465 O 0.20718 0.73994 0.51685
 O1466 O 0.21662 0.77412 0.51369
 O1467 O 0.27420 0.73810 0.44225
 O1468 O 0.26913 0.70502 0.44914
 O1469 O 0.30506 0.75648 0.48732
 O1470 O 0.29916 0.75214 0.52094
 O1471 O 0.25966 0.78841 0.47002
 O1472 O 0.22654 0.78472 0.47287
 Zr1473 Zr 0.24556 0.76263 0.47065
 O1474 O 0.22688 0.74745 0.48663
 Zr1475 Zr 0.27937 0.75773 0.50061
 O1476 O 0.26180 0.74327 0.51843
 Zr1477 Zr 0.27366 0.72629 0.46830
 O1478 O 0.25675 0.70980 0.48500
 Zr1479 Zr 0.23417 0.75053 0.51386
 O1480 O 0.25200 0.76725 0.49799
 Zr1481 Zr 0.22952 0.71874 0.48179
 O1482 O 0.24621 0.73414 0.46374
 Zr1483 Zr 0.26299 0.71473 0.51230
 O1484 O 0.28190 0.72903 0.49545
 O1485 O 0.27277 0.75474 0.47357
 O1486 O 0.23550 0.72201 0.50910
 C1487 C 0.26682 0.75293 0.43562
 C1488 C 0.27314 0.79485 0.47945
 C1489 C 0.31069 0.74714 0.47362
 C1490 C 0.24072 0.72462 0.54689
 C1491 C 0.19759 0.72832 0.50751
 C1492 C 0.23351 0.68376 0.50688
 H1493 H 0.21426 0.75182 0.48408
 H1494 H 0.25817 0.69648 0.48195
 H1495 H 0.28084 0.76235 0.46573
 H1496 H 0.26556 0.74591 0.53099
 H1497 H 0.24528 0.78041 0.52979
 H1498 H 0.27580 0.77716 0.52948
 H1499 H 0.23537 0.68860 0.46331
 H1500 H 0.25732 0.70788 0.44307
 H1501 H 0.20649 0.77187 0.50502
 H1502 H 0.22875 0.79050 0.48477
 H1503 H 0.28133 0.68679 0.50002
 H1504 H 0.29866 0.70321 0.47880
 H1505 H 0.22299 0.75340 0.44533
 H1506 H 0.20411 0.73311 0.46159
 H1507 H 0.30627 0.74115 0.51701
 H1508 H 0.28545 0.72249 0.53851
 O1509 O 0.22787 0.24934 1.04950
 O1510 O 0.23287 0.28258 1.04587
 O1511 O 0.19818 0.23482 1.00234
 O1512 O 0.20201 0.23829 0.97207
 O1513 O 0.24338 0.20199 1.01961
 O1514 O 0.27632 0.20549 1.01637
 O1515 O 0.25004 0.28177 0.95568
 O1516 O 0.21872 0.28180 0.96275
 O1517 O 0.27723 0.29990 1.00304
 O1518 O 0.27596 0.28945 1.03536
 O1519 O 0.29623 0.25330 0.97615
 O1520 O 0.28615 0.21987 0.97479
 O1521 O 0.27111 0.25856 0.95338
 O1522 O 0.26629 0.22432 0.95617
 O1523 O 0.29930 0.27272 1.00008
 O1524 O 0.29397 0.26865 1.03233
 O1525 O 0.25521 0.30362 0.98147
 O1526 O 0.22140 0.30119 0.98538
 O1527 O 0.24838 0.22561 1.04687
 O1528 O 0.27987 0.22356 1.03825
 O1529 O 0.22047 0.20672 0.99912
 O1530 O 0.22316 0.21627 0.96770
 O1531 O 0.20137 0.25529 1.02552
 O1532 O 0.21153 0.28673 1.02723
 Zr1533 Zr 0.22905 0.26346 1.02457
 O1534 O 0.24617 0.28134 1.00964
 Zr1535 Zr 0.22425 0.23432 0.99018
 O1536 O 0.24130 0.25092 0.97367
 Zr1537 Zr 0.25771 0.22769 1.02014
 O1538 O 0.27625 0.24415 1.00515
 Zr1539 Zr 0.24002 0.27876 0.98204
 O1540 O 0.22122 0.26258 0.99718
 Zr1541 Zr 0.27343 0.27233 1.01231
 O1542 O 0.25655 0.25558 1.02895
 Zr1543 Zr 0.26895 0.24340 0.97771
 O1544 O 0.25161 0.22509 0.99252
 O1545 O 0.23041 0.23553 1.01751
 O1546 O 0.26757 0.27138 0.98478
 C1547 C 0.23663 0.23514 1.05579
 C1548 C 0.19196 0.24378 1.01599
 C1549 C 0.22904 0.19661 1.01077
 C1550 C 0.26254 0.27289 0.94715
 C1551 C 0.26908 0.30940 0.99065
 C1552 C 0.30555 0.26465 0.98602
 H1553 H 0.24468 0.29427 1.01391
 H1554 H 0.28888 0.23960 1.00726
 H1555 H 0.22210 0.22775 1.02495
 H1556 H 0.23746 0.24970 0.96093
 H1557 H 0.20755 0.27614 0.96809
 H1558 H 0.20666 0.24542 0.96157
 H1559 H 0.30031 0.25676 1.02987
 H1560 H 0.28125 0.23530 1.04510
 H1561 H 0.22527 0.30852 0.99600
 H1562 H 0.20576 0.28874 1.01526
 H1563 H 0.29467 0.21955 0.98521
 H1564 H 0.27411 0.20074 1.00404
 H1565 H 0.24491 0.27964 1.05145
 H1566 H 0.26639 0.29919 1.03460
 H1567 H 0.23441 0.20856 0.96815
 H1568 H 0.25504 0.22758 0.94933
 C1569 C 0.28832 0.36961 0.77652
 C1570 C 0.29022 0.36765 0.79534
 C1571 C 0.28595 0.38284 0.80641
 C1572 C 0.28065 0.39994 0.79881
 C1573 C 0.27958 0.40202 0.77984
 C1574 C 0.28312 0.38665 0.76884
 C1575 C 0.27520 0.41947 0.77225
 C1576 C 0.27145 0.43468 0.78346
 C1577 C 0.27215 0.43232 0.80228
 C1578 C 0.27683 0.41516 0.80989
 H1579 H 0.28757 0.38164 0.82091
 H1580 H 0.28216 0.38788 0.75430
 H1581 H 0.27453 0.42118 0.75773
 H1582 H 0.27757 0.41381 0.82444
 H1583 H 0.29124 0.35802 0.76770
 H1584 H 0.26941 0.44392 0.81116
 C1585 C 0.31083 -0.12054 0.28050
 C1586 C 0.29943 -0.13265 0.29069
 C1587 C 0.28087 -0.12730 0.29305
 C1588 C 0.27434 -0.11012 0.28661
 C1589 C 0.28610 -0.09823 0.27678
 C1590 C 0.30418 -0.10372 0.27351
 C1591 C 0.27972 -0.08084 0.27072
 C1592 C 0.26184 -0.07490 0.27487
 C1593 C 0.25017 -0.08692 0.28457
 C1594 C 0.25630 -0.10447 0.29020
 H1595 H 0.27115 -0.13645 0.29968
 H1596 H 0.31340 -0.09472 0.26597
 H1597 H 0.28888 -0.07172 0.26328
 H1598 H 0.24706 -0.11344 0.29773
 H1599 H 0.32525 -0.12332 0.27854
 H1600 H 0.23632 -0.08272 0.28787
 C1601 C 0.78770 0.87079 0.80749
 C1602 C 0.79685 0.85927 0.79496
 C1603 C 0.79787 0.86568 0.77689
 C1604 C 0.79020 0.88285 0.77162
 C1605 C 0.78096 0.89388 0.78437
 C1606 C 0.77980 0.88771 0.80223
 C1607 C 0.77324 0.91101 0.77909
 C1608 C 0.77498 0.91748 0.76125
 C1609 C 0.78432 0.90645 0.74868
 C1610 C 0.79170 0.88922 0.75377
 H1611 H 0.80406 0.85721 0.76656
 H1612 H 0.77302 0.89615 0.81227
 H1613 H 0.76629 0.91952 0.78897
 H1614 H 0.79877 0.88099 0.74378
 H1615 H 0.78715 0.86735 0.82167
 H1616 H 0.78584 0.91113 0.73486
 C1617 C 0.43226 0.86247 0.28839
 C1618 C 0.44485 0.87596 0.29464
 C1619 C 0.46380 0.87236 0.29331
 C1620 C 0.47003 0.85563 0.28577
 C1621 C 0.45718 0.84251 0.27909
 C1622 C 0.43836 0.84602 0.28054
 C1623 C 0.46334 0.82596 0.27129
 C1624 C 0.48218 0.82203 0.27054
 C1625 C 0.49490 0.83489 0.27754
 C1626 C 0.48888 0.85171 0.28488
 H1627 H 0.47370 0.88261 0.29793
 H1628 H 0.42834 0.83595 0.27575
 H1629 H 0.45345 0.81586 0.26628
 H1630 H 0.49893 0.86153 0.29004
 H1631 H 0.41761 0.86454 0.28969
 H1632 H 0.50948 0.83196 0.27718
 C1633 C -0.02747 0.87560 0.81440
 C1634 C -0.03786 0.88633 0.80196
 C1635 C -0.03808 0.88055 0.78374
 C1636 C -0.02907 0.86425 0.77834
 C1637 C -0.01928 0.85347 0.79112
 C1638 C -0.01834 0.85943 0.80904
 C1639 C -0.01106 0.83665 0.78587
 C1640 C -0.01278 0.83030 0.76800
 C1641 C -0.02211 0.84148 0.75530
 C1642 C -0.03006 0.85833 0.76039
 H1643 H -0.04498 0.88881 0.77350
 H1644 H -0.01092 0.85132 0.81905
 H1645 H -0.00402 0.82816 0.79587
 H1646 H -0.03744 0.86648 0.75036
 H1647 H -0.02710 0.87891 0.82859
 H1648 H -0.02361 0.83701 0.74145
 C1649 C -0.03982 -0.10760 -0.06862
 C1650 C -0.04748 -0.12016 -0.05602
 C1651 C -0.04779 -0.11519 -0.03770
 C1652 C -0.04033 -0.09803 -0.03208
 C1653 C -0.03227 -0.08586 -0.04490
 C1654 C -0.03215 -0.09074 -0.06311
 C1655 C -0.02482 -0.06877 -0.03941
 C1656 C -0.02582 -0.06328 -0.02134
 C1657 C -0.03396 -0.07533 -0.00864
 C1658 C -0.04095 -0.09269 -0.01393
 H1659 H -0.05364 -0.12469 -0.02784
 H1660 H -0.02630 -0.08143 -0.07313
 H1661 H -0.01895 -0.05937 -0.04937
 H1662 H -0.04714 -0.10176 -0.00390
 H1663 H -0.03988 -0.11074 -0.08288
 H1664 H -0.03499 -0.07126 0.00536
 C1665 C -0.03251 0.37020 0.44829
 C1666 C -0.04675 0.36130 0.45808
 C1667 C -0.05256 0.36983 0.47429
 C1668 C -0.04442 0.38654 0.48034
 C1669 C -0.03014 0.39483 0.47030
 C1670 C -0.02428 0.38655 0.45438
 C1671 C -0.02213 0.41155 0.47604
 C1672 C -0.02835 0.42054 0.49164
 C1673 C -0.04257 0.41223 0.50167
 C1674 C -0.05043 0.39529 0.49615
 H1675 H -0.06302 0.36341 0.48258
 H1676 H -0.01354 0.39296 0.44635
 H1677 H -0.01136 0.41785 0.46796
 H1678 H -0.06141 0.38920 0.50408
 H1679 H -0.02807 0.36524 0.43530
 H1680 H -0.04769 0.41889 0.51370
 C1681 C 0.44305 -0.13095 0.46702
 C1682 C 0.45494 -0.14048 0.45518
 C1683 C 0.47229 -0.13231 0.45164
 C1684 C 0.47732 -0.11512 0.45924
 C1685 C 0.46512 -0.10590 0.47089
 C1686 C 0.44812 -0.11402 0.47480
 C1687 C 0.46988 -0.08846 0.47804
 C1688 C 0.48657 -0.07986 0.47335
 C1689 C 0.49877 -0.08927 0.46197
 C1690 C 0.49427 -0.10682 0.45511
 H1691 H 0.48223 -0.13934 0.44332
 H1692 H 0.43849 -0.10702 0.48354
 H1693 H 0.46027 -0.08125 0.48665
 H1694 H 0.50385 -0.11369 0.44623
 H1695 H 0.42929 -0.13590 0.46973
 H1696 H 0.51175 -0.08295 0.45819
 C1697 C 0.47459 0.36246 -0.05730
 C1698 C 0.46212 0.35168 -0.04695
 C1699 C 0.45788 0.35806 -0.02943
 C1700 C 0.46563 0.37461 -0.02265
 C1701 C 0.47800 0.38504 -0.03331
 C1702 C 0.48242 0.37881 -0.05055
 C1703 C 0.48550 0.40174 -0.02670
 C1704 C 0.48061 0.40837 -0.00959
 C1705 C 0.46840 0.39777 0.00100
 C1706 C 0.46108 0.38100 -0.00541
 H1707 H 0.44899 0.35001 -0.02067
 H1708 H 0.49172 0.38678 -0.05901
 H1709 H 0.49475 0.40983 -0.03512
 H1710 H 0.45163 0.37318 0.00300
 H1711 H 0.47782 0.35896 -0.07107
 H1712 H 0.46439 0.40251 0.01424
 C1713 C 0.77903 0.39329 0.48450
 C1714 C 0.77919 0.39740 0.46589
 C1715 C 0.77072 0.38474 0.45398
 C1716 C 0.76298 0.36804 0.46041
 C1717 C 0.76391 0.36360 0.47898
 C1718 C 0.77164 0.37651 0.49095
 C1719 C 0.75754 0.34614 0.48516
 C1720 C 0.74993 0.33325 0.47298
 C1721 C 0.74826 0.33826 0.45467
 C1722 C 0.75483 0.35541 0.44843
 H1723 H 0.77082 0.38740 0.43959
 H1724 H 0.77221 0.37352 0.50529
 H1725 H 0.75882 0.34245 0.49931
 H1726 H 0.75390 0.35862 0.43416
 H1727 H 0.78489 0.40294 0.49414
 H1728 H 0.74260 0.32854 0.44497
 C1729 C 0.81149 0.86857 -0.04271
 C1730 C 0.80004 0.87816 -0.05517
 C1731 C 0.78325 0.86949 -0.06019
 C1732 C 0.77793 0.85227 -0.05244
 C1733 C 0.78945 0.84354 -0.03959
 C1734 C 0.80618 0.85174 -0.03493
 C1735 C 0.78425 0.82659 -0.03165
 C1736 C 0.76768 0.81781 -0.03649
 C1737 C 0.75623 0.82647 -0.04939
 C1738 C 0.76126 0.84361 -0.05721
 H1739 H 0.77390 0.87629 -0.06950
 H1740 H 0.81531 0.84502 -0.02532
 H1741 H 0.79335 0.82010 -0.02186
 H1742 H 0.75217 0.85002 -0.06705
 H1743 H 0.82506 0.87360 -0.03923
 H1744 H 0.74341 0.82000 -0.05344
 C1745 C 0.80662 0.29243 0.37699
 C1746 C 0.79474 0.30122 0.36456
 C1747 C 0.77600 0.30298 0.36888
 C1748 C 0.76926 0.29575 0.38526
 C1749 C 0.78139 0.28651 0.39724
 C1750 C 0.79999 0.28497 0.39302
 C1751 C 0.77486 0.27912 0.41344
 C1752 C 0.75635 0.28105 0.41826
 C1753 C 0.74432 0.29046 0.40645
 C1754 C 0.75069 0.29761 0.38998
 H1755 H 0.76668 0.30975 0.35948
 H1756 H 0.80946 0.27810 0.40218
 H1757 H 0.78440 0.27219 0.42253
 H1758 H 0.74117 0.30471 0.38103
 H1759 H 0.82120 0.29141 0.37440
 H1760 H 0.73000 0.29222 0.40992
 C1761 C 0.81683 0.77447 -0.12654
 C1762 C 0.80358 0.78189 -0.13844
 C1763 C 0.78496 0.78136 -0.13345
 C1764 C 0.77971 0.77392 -0.11670
 C1765 C 0.79318 0.76655 -0.10489
 C1766 C 0.81168 0.76677 -0.10998
 C1767 C 0.78802 0.75955 -0.08796
 C1768 C 0.76960 0.76025 -0.08245
 C1769 C 0.75627 0.76748 -0.09434
 C1770 C 0.76125 0.77408 -0.11139
 H1771 H 0.77455 0.78681 -0.14255
 H1772 H 0.82220 0.76133 -0.10102
 H1773 H 0.79847 0.75428 -0.07879
 H1774 H 0.75073 0.77969 -0.12027
 H1775 H 0.83129 0.77498 -0.12984
 H1776 H 0.74200 0.76818 -0.09036
 C1777 C 0.27091 0.47164 0.89166
 C1778 C 0.29002 0.47103 0.89459
 C1779 C 0.30184 0.47711 0.88083
 C1780 C 0.29479 0.48299 0.86417
 C1781 C 0.27561 0.48279 0.86107
 C1782 C 0.26377 0.47743 0.87502
 C1783 C 0.26867 0.48762 0.84398
 C1784 C 0.28070 0.49293 0.83011
 C1785 C 0.29970 0.49358 0.83353
 C1786 C 0.30670 0.48856 0.85038
 H1787 H 0.31660 0.47642 0.88272
 H1788 H 0.24902 0.47738 0.87297
 H1789 H 0.25399 0.48723 0.84147
 H1790 H 0.32143 0.48881 0.85255
 H1791 H 0.26149 0.46729 0.90213
 H1792 H 0.30923 0.49755 0.82300
 C1793 C 0.28606 -0.01878 0.38895
 C1794 C 0.28624 -0.03834 0.39089
 C1795 C 0.27955 -0.04936 0.37668
 C1796 C 0.27314 -0.04112 0.36071
 C1797 C 0.27356 -0.02150 0.35862
 C1798 C 0.27986 -0.01044 0.37293
 C1799 C 0.26781 -0.01337 0.34223
 C1800 C 0.26124 -0.02470 0.32820
 C1801 C 0.26059 -0.04416 0.33064
 C1802 C 0.26661 -0.05231 0.34667
 H1803 H 0.27994 -0.06445 0.37772
 H1804 H 0.28012 0.00463 0.37169
 H1805 H 0.26825 0.00166 0.34045
 H1806 H 0.26620 -0.06737 0.34806
 H1807 H 0.29090 -0.00991 0.39975
 H1808 H 0.25574 -0.05317 0.31993
 C1809 C -0.06711 -0.02759 -0.12306
 C1810 C -0.05395 -0.03730 -0.13336
 C1811 C -0.03548 -0.03691 -0.12721
 C1812 C -0.03050 -0.02767 -0.11125
 C1813 C -0.04395 -0.01819 -0.10124
 C1814 C -0.06215 -0.01813 -0.10734
 C1815 C -0.03906 -0.00937 -0.08503
 C1816 C -0.02094 -0.01034 -0.07843
 C1817 C -0.00761 -0.01965 -0.08860
 C1818 C -0.01229 -0.02805 -0.10496
 H1819 H -0.02468 -0.04335 -0.13492
 H1820 H -0.07271 -0.01112 -0.09970
 H1821 H -0.04954 -0.00249 -0.07716
 H1822 H -0.00176 -0.03525 -0.11245
 H1823 H -0.08156 -0.02787 -0.12645
 H1824 H 0.00643 -0.02063 -0.08377
 C1825 C -0.04568 0.47910 0.37494
 C1826 C -0.04261 0.46035 0.36993
 C1827 C -0.03231 0.44898 0.38194
 C1828 C -0.02592 0.45593 0.39853
 C1829 C -0.02965 0.47455 0.40333
 C1830 C -0.03934 0.48604 0.39136
 C1831 C -0.02395 0.48131 0.42017
 C1832 C -0.01458 0.46968 0.43246
 C1833 C -0.01055 0.45125 0.42739
 C1834 C -0.01618 0.44445 0.41060
 H1835 H -0.03000 0.43440 0.37906
 H1836 H -0.04207 0.50046 0.39472
 H1837 H -0.02712 0.49557 0.42381
 H1838 H -0.01316 0.43011 0.40718
 H1839 H -0.05253 0.48884 0.36599
 H1840 H -0.00345 0.44191 0.43657
 C1841 C 0.47189 -0.04936 0.36432
 C1842 C 0.45258 -0.04833 0.36299
 C1843 C 0.44288 -0.03982 0.37707
 C1844 C 0.45217 -0.03294 0.39230
 C1845 C 0.47146 -0.03480 0.39379
 C1846 C 0.48119 -0.04284 0.37960
 C1847 C 0.48061 -0.02879 0.40952
 C1848 C 0.47070 -0.02055 0.42360
 C1849 C 0.45159 -0.01821 0.42159
 C1850 C 0.44242 -0.02447 0.40621
 H1851 H 0.42803 -0.03903 0.37650
 H1852 H 0.49600 -0.04417 0.38033
 H1853 H 0.49533 -0.03060 0.41084
 H1854 H 0.42764 -0.02283 0.40529
 H1855 H 0.47990 -0.05530 0.35354
 H1856 H 0.44356 -0.01197 0.43218
 C1857 C 0.43763 0.45323 -0.10657
 C1858 C 0.45056 0.44619 -0.11881
 C1859 C 0.46904 0.44466 -0.11329
 C1860 C 0.47453 0.45028 -0.09596
 C1861 C 0.46146 0.45779 -0.08403
 C1862 C 0.44304 0.45909 -0.08942
 C1863 C 0.46700 0.46381 -0.06688
 C1864 C 0.48539 0.46203 -0.06128
 C1865 C 0.49823 0.45420 -0.07308
 C1866 C 0.49289 0.44854 -0.09034
 H1867 H 0.47924 0.43945 -0.12255
 H1868 H 0.43279 0.46458 -0.08035
 H1869 H 0.45692 0.46952 -0.05775
 H1870 H 0.50309 0.44273 -0.09927
 H1871 H 0.42324 0.45417 -0.11022
 H1872 H 0.51245 0.45264 -0.06901
 C1873 C 0.46274 0.80991 0.36482
 C1874 C 0.45738 0.79556 0.37679
 C1875 C 0.45877 0.77691 0.37104
 C1876 C 0.46537 0.77271 0.35376
 C1877 C 0.47112 0.78728 0.34212
 C1878 C 0.46969 0.80582 0.34778
 C1879 C 0.47796 0.78308 0.32494
 C1880 C 0.47858 0.76451 0.31901
 C1881 C 0.47253 0.75015 0.33054
 C1882 C 0.46620 0.75419 0.34784
 H1883 H 0.45492 0.76560 0.38004
 H1884 H 0.47378 0.81719 0.33895
 H1885 H 0.48231 0.79426 0.31599
 H1886 H 0.46177 0.74283 0.35651
 H1887 H 0.46138 0.82443 0.36851
 H1888 H 0.47284 0.73576 0.32619
 C1889 C -0.03508 0.82013 0.86428
 C1890 C -0.04599 0.80776 0.87471
 C1891 C -0.04848 0.78936 0.86827
 C1892 C -0.03968 0.78344 0.85243
 C1893 C -0.02835 0.79599 0.84277
 C1894 C -0.02631 0.81429 0.84871
 C1895 C -0.01943 0.79020 0.82711
 C1896 C -0.02190 0.77203 0.82059
 C1897 C -0.03328 0.75957 0.83015
 C1898 C -0.04196 0.76517 0.84603
 H1899 H -0.05654 0.77932 0.87583
 H1900 H -0.01803 0.82422 0.84121
 H1901 H -0.01099 0.80006 0.81968
 H1902 H -0.05061 0.75529 0.85317
 H1903 H -0.03364 0.83472 0.86766
 H1904 H -0.03549 0.74551 0.82532
 C1905 C 0.38435 0.78737 0.31101
 C1906 C 0.37191 0.79463 0.29819
 C1907 C 0.37675 0.79438 0.27983
 C1908 C 0.39371 0.78711 0.27441
 C1909 C 0.40586 0.77954 0.28744
 C1910 C 0.40106 0.77976 0.30568
 C1911 C 0.42273 0.77211 0.28204
 C1912 C 0.42787 0.77260 0.26383
 C1913 C 0.41587 0.78043 0.25099
 C1914 C 0.39882 0.78743 0.25621
 H1915 H 0.36731 0.79971 0.26972
 H1916 H 0.41033 0.77423 0.31587
 H1917 H 0.43209 0.76642 0.29208
 H1918 H 0.38974 0.79327 0.24604
 H1919 H 0.38131 0.78778 0.32527
 H1920 H 0.41965 0.78101 0.23689
 C1921 C -0.12909 0.76601 0.78355
 C1922 C -0.13235 0.78537 0.78387
 C1923 C -0.11907 0.79749 0.77649
 C1924 C -0.10249 0.79048 0.76978
 C1925 C -0.09897 0.77110 0.77057
 C1926 C -0.11253 0.75896 0.77710
 C1927 C -0.08176 0.76427 0.76533
 C1928 C -0.06810 0.77656 0.75906
 C1929 C -0.07209 0.79569 0.75746
 C1930 C -0.08909 0.80261 0.76287
 H1931 H -0.12119 0.81244 0.77671
 H1932 H -0.11021 0.74404 0.77753
 H1933 H -0.07884 0.74948 0.76651
 H1934 H -0.09157 0.81749 0.76206
 H1935 H -0.13924 0.75625 0.78861
 H1936 H -0.06175 0.80547 0.75279
 C1937 C 0.85935 0.29378 0.43310
 C1938 C 0.87117 0.29981 0.44700
 C1939 C 0.86441 0.30054 0.46474
 C1940 C 0.84633 0.29484 0.46857
 C1941 C 0.83494 0.28814 0.45452
 C1942 C 0.84151 0.28788 0.43684
 C1943 C 0.81717 0.28173 0.45837
 C1944 C 0.81039 0.28224 0.47605
 C1945 C 0.82157 0.28943 0.48988
 C1946 C 0.83947 0.29552 0.48620
 H1947 H 0.87331 0.30507 0.47564
 H1948 H 0.83286 0.28303 0.42589
 H1949 H 0.80854 0.27650 0.44755
 H1950 H 0.84794 0.30071 0.49714
 H1951 H 0.86392 0.29358 0.41923
 H1952 H 0.81658 0.29000 0.50360
 C1953 C 0.86459 0.82033 -0.05139
 C1954 C 0.87793 0.80789 -0.05785
 C1955 C 0.87422 0.78857 -0.05709
 C1956 C 0.85769 0.78185 -0.04966
 C1957 C 0.84474 0.79455 -0.04274
 C1958 C 0.84826 0.81374 -0.04383
 C1959 C 0.82843 0.78787 -0.03493
 C1960 C 0.82462 0.76862 -0.03427
 C1961 C 0.83743 0.75612 -0.04150
 C1962 C 0.85388 0.76265 -0.04897
 H1963 H 0.88433 0.77875 -0.06191
 H1964 H 0.83838 0.82369 -0.03884
 H1965 H 0.81853 0.79768 -0.02969
 H1966 H 0.86358 0.75269 -0.05428
 H1967 H 0.86674 0.83527 -0.05220
 H1968 H 0.83478 0.74124 -0.04124
 C1969 C -0.12501 -0.05529 -0.03677
 C1970 C -0.13536 -0.04428 -0.04907
 C1971 C -0.12903 -0.02593 -0.05270
 C1972 C -0.11292 -0.01903 -0.04453
 C1973 C -0.10302 -0.03038 -0.03230
 C1974 C -0.10925 -0.04838 -0.02844
 C1975 C -0.08671 -0.02381 -0.02449
 C1976 C -0.07978 -0.00609 -0.02901
 C1977 C -0.08979 0.00527 -0.04104
 C1978 C -0.10631 -0.00107 -0.04861
 H1979 H -0.13667 -0.01670 -0.06154
 H1980 H -0.10162 -0.05737 -0.01931
 H1981 H -0.07905 -0.03285 -0.01542
 H1982 H -0.11368 0.00789 -0.05795
 H1983 H -0.12831 -0.06974 -0.03407
 H1984 H -0.08474 0.01899 -0.04478
 C1985 C -0.12891 0.44521 0.47907
 C1986 C -0.13836 0.45833 0.46813
 C1987 C -0.12932 0.47546 0.46427
 C1988 C -0.11136 0.47891 0.47037
 C1989 C -0.10230 0.46548 0.48112
 C1990 C -0.11125 0.44881 0.48555
 C1991 C -0.08429 0.46877 0.48703
 C1992 C -0.07498 0.48522 0.48205
 C1993 C -0.08404 0.49852 0.47128
 C1994 C -0.10217 0.49549 0.46564
 H1995 H -0.13617 0.48644 0.45680
 H1996 H -0.10438 0.43828 0.49366
 H1997 H -0.07738 0.45828 0.49517
 H1998 H -0.10889 0.50597 0.45736
 H1999 H -0.13453 0.43156 0.48202
 H2000 H -0.07715 0.51132 0.46732
 C2001 C 0.37557 -0.03368 0.44051
 C2002 C 0.36611 -0.04666 0.45158
 C2003 C 0.37466 -0.05221 0.46796
 C2004 C 0.39172 -0.04458 0.47323
 C2005 C 0.40039 -0.03119 0.46211
 C2006 C 0.39229 -0.02597 0.44577
 C2007 C 0.41724 -0.02341 0.46726
 C2008 C 0.42606 -0.02912 0.48323
 C2009 C 0.41746 -0.04254 0.49427
 C2010 C 0.40034 -0.05006 0.48941
 H2011 H 0.36791 -0.06188 0.47705
 H2012 H 0.39904 -0.01607 0.43687
 H2013 H 0.42373 -0.01323 0.45848
 H2014 H 0.39397 -0.06035 0.49816
 H2015 H 0.37055 -0.02978 0.42727
 H2016 H 0.42400 -0.04728 0.50662
 C2017 C 0.37980 0.47040 -0.05334
 C2018 C 0.36828 0.45911 -0.04247
 C2019 C 0.37527 0.45291 -0.02563
 C2020 C 0.39320 0.45729 -0.02014
 C2021 C 0.40448 0.46839 -0.03133
 C2022 C 0.39762 0.47496 -0.04782
 C2023 C 0.42248 0.47261 -0.02590
 C2024 C 0.42945 0.46574 -0.00943
 C2025 C 0.41807 0.45470 0.00162
 C2026 C 0.40008 0.45061 -0.00365
 H2027 H 0.36672 0.44506 -0.01639
 H2028 H 0.40616 0.48337 -0.05664
 H2029 H 0.43110 0.48106 -0.03461
 H2030 H 0.39160 0.44207 0.00512
 H2031 H 0.37559 0.47505 -0.06662
 H2032 H 0.42305 0.44929 0.01440
 C2033 C 0.38816 0.48171 0.80420
 C2034 C 0.39031 0.46241 0.80135
 C2035 C 0.37660 0.45283 0.79166
 C2036 C 0.36076 0.46215 0.78555
 C2037 C 0.35843 0.48137 0.78912
 C2038 C 0.37239 0.49106 0.79823
 C2039 C 0.34209 0.49044 0.78375
 C2040 C 0.32819 0.48054 0.77460
 C2041 C 0.33098 0.46150 0.77083
 C2042 C 0.34700 0.45242 0.77628
 H2043 H 0.37786 0.43795 0.78949
 H2044 H 0.37101 0.50583 0.80094
 H2045 H 0.34019 0.50509 0.78674
 H2046 H 0.34853 0.43770 0.77342
 H2047 H 0.39863 0.48960 0.81128
 H2048 H 0.32053 0.45337 0.76397
 C2049 C 0.35837 -0.06644 0.29488
 C2050 C 0.37162 -0.05292 0.29961
 C2051 C 0.36697 -0.03391 0.29821
 C2052 C 0.34955 -0.02856 0.29168
 C2053 C 0.33670 -0.04236 0.28637
 C2054 C 0.34119 -0.06123 0.28822
 C2055 C 0.31948 -0.03710 0.27949
 C2056 C 0.31464 -0.01821 0.27831
 C2057 C 0.32730 -0.00455 0.28393
 C2058 C 0.34470 -0.00966 0.29036
 H2059 H 0.37698 -0.02332 0.30181
 H2060 H 0.33139 -0.07198 0.28455
 H2061 H 0.30964 -0.04772 0.27555
 H2062 H 0.35428 0.00114 0.29444
 H2063 H 0.36129 -0.08118 0.29632
 H2064 H 0.32375 0.01011 0.28324
 C2065 C 0.13510 0.53966 0.69240
 C2066 C 0.12276 0.54822 0.70429
 C2067 C 0.12826 0.55116 0.72232
 C2068 C 0.14571 0.54545 0.72836
 C2069 C 0.15764 0.53641 0.71630
 C2070 C 0.15227 0.53368 0.69838
 C2071 C 0.17483 0.53028 0.72229
 C2072 C 0.18061 0.53328 0.74015
 C2073 C 0.16895 0.54271 0.75201
 C2074 C 0.15152 0.54858 0.74621
 H2075 H 0.11893 0.55765 0.73171
 H2076 H 0.16140 0.52700 0.68893
 H2077 H 0.18388 0.52338 0.71289
 H2078 H 0.14263 0.55561 0.75563
 H2079 H 0.13157 0.53772 0.67834
 H2080 H 0.17320 0.54528 0.76578
 C2081 C 0.12325 0.03801 0.18893
 C2082 C 0.11068 0.04562 0.20120
 C2083 C 0.11487 0.04512 0.21974
 C2084 C 0.13135 0.03705 0.22588
 C2085 C 0.14362 0.02917 0.21335
 C2086 C 0.13945 0.02973 0.19494
 C2087 C 0.16014 0.02129 0.21934
 C2088 C 0.16494 0.02168 0.23768
 C2089 C 0.15272 0.02953 0.25010
 C2090 C 0.13594 0.03695 0.24427
 H2091 H 0.10532 0.05089 0.22936
 H2092 H 0.14884 0.02399 0.18515
 H2093 H 0.16966 0.01562 0.20961
 H2094 H 0.12676 0.04296 0.25409
 H2095 H 0.12068 0.03864 0.17455
 H2096 H 0.15624 0.03006 0.26430
 C2097 C 0.63627 0.73916 0.20282
 C2098 C 0.64156 0.72043 0.20516
 C2099 C 0.62946 0.70805 0.21399
 C2100 C 0.61226 0.71412 0.21998
 C2101 C 0.60688 0.73281 0.21700
 C2102 C 0.61909 0.74528 0.20863
 C2103 C 0.58928 0.73862 0.22214
 C2104 C 0.57699 0.72599 0.23035
 C2105 C 0.58274 0.70759 0.23376
 C2106 C 0.60017 0.70168 0.22854
 H2107 H 0.63311 0.69349 0.21566
 H2108 H 0.61526 0.75971 0.20639
 H2109 H 0.58508 0.75289 0.21955
 H2110 H 0.60410 0.68731 0.23098
 H2111 H 0.64539 0.74911 0.19639
 H2112 H 0.57355 0.69756 0.23999
 C2113 C 0.14133 0.73782 0.70562
 C2114 C 0.14550 0.71878 0.70796
 C2115 C 0.13342 0.70756 0.71820
 C2116 C 0.11721 0.71507 0.72539
 C2117 C 0.11291 0.73403 0.72230
 C2118 C 0.12520 0.74533 0.71264
 C2119 C 0.09618 0.74127 0.72850
 C2120 C 0.08361 0.72982 0.73784
 C2121 C 0.08836 0.71114 0.74142
 C2122 C 0.10496 0.70383 0.73522
 H2123 H 0.13624 0.69283 0.72002
 H2124 H 0.12223 0.75996 0.71030
 H2125 H 0.09278 0.75571 0.72567
 H2126 H 0.10803 0.68926 0.73779
 H2127 H 0.15050 0.74695 0.69822
 H2128 H 0.07893 0.70195 0.74845
 C2129 C 0.60274 0.23183 0.53072
 C2130 C 0.60082 0.21232 0.53224
 C2131 C 0.61490 0.20085 0.52566
 C2132 C 0.63095 0.20871 0.51845
 C2133 C 0.63309 0.22832 0.51795
 C2134 C 0.61877 0.23975 0.52377
 C2135 C 0.64968 0.23616 0.51204
 C2136 C 0.66402 0.22464 0.50628
 C2137 C 0.66149 0.20521 0.50603
 C2138 C 0.64512 0.19728 0.51221
 H2139 H 0.61379 0.18581 0.52686
 H2140 H 0.62007 0.25481 0.52322
 H2141 H 0.65153 0.25118 0.51210
 H2142 H 0.64368 0.18222 0.51240
 H2143 H 0.59195 0.24103 0.53520
 H2144 H 0.67246 0.19611 0.50171
 C2145 C 0.63775 0.70690 0.06491
 C2146 C 0.62567 0.69766 0.05301
 C2147 C 0.63030 0.69685 0.03460
 C2148 C 0.64684 0.70460 0.02831
 C2149 C 0.65875 0.71389 0.04042
 C2150 C 0.65399 0.71508 0.05865
 C2151 C 0.67541 0.72143 0.03418
 C2152 C 0.68061 0.71927 0.01608
 C2153 C 0.66869 0.70995 0.00417
 C2154 C 0.65186 0.70289 0.01017
 H2155 H 0.62110 0.69012 0.02511
 H2156 H 0.66301 0.72201 0.06815
 H2157 H 0.68462 0.72835 0.04354
 H2158 H 0.64293 0.69576 0.00069
 H2159 H 0.63491 0.70749 0.07920
 H2160 H 0.67242 0.70812 -0.00983
 C2161 C 0.11276 0.04266 0.06803
 C2162 C 0.12559 0.05089 0.05603
 C2163 C 0.12037 0.05219 0.03760
 C2164 C 0.10303 0.04608 0.03157
 C2165 C 0.09057 0.03796 0.04384
 C2166 C 0.09563 0.03623 0.06199
 C2167 C 0.07319 0.03191 0.03778
 C2168 C 0.06793 0.03427 0.01960
 C2169 C 0.08046 0.04247 0.00753
 C2170 C 0.09787 0.04814 0.01340
 H2171 H 0.12983 0.05746 0.02759
 H2172 H 0.08617 0.03022 0.07167
 H2173 H 0.06363 0.02577 0.04729
 H2174 H 0.10724 0.05436 0.00376
 H2175 H 0.11534 0.04182 0.08236
 H2176 H 0.07681 0.04440 -0.00653
 C2177 C 0.13795 0.52984 0.52478
 C2178 C 0.14029 0.53057 0.54361
 C2179 C 0.12575 0.52475 0.55476
 C2180 C 0.10912 0.51861 0.54732
 C2181 C 0.10669 0.51854 0.52841
 C2182 C 0.12126 0.52397 0.51725
 C2183 C 0.08963 0.51335 0.52104
 C2184 C 0.07512 0.50795 0.53238
 C2185 C 0.07792 0.50751 0.55114
 C2186 C 0.09473 0.51290 0.55855
 H2187 H 0.12709 0.52557 0.56929
 H2188 H 0.11972 0.52384 0.50271
 H2189 H 0.08761 0.51364 0.50654
 H2190 H 0.09640 0.51283 0.57308
 H2191 H 0.14897 0.53392 0.51584
 H2192 H 0.06689 0.50356 0.56016
 C2193 C 0.61998 0.03741 0.55621
 C2194 C 0.63222 0.04525 0.54360
 C2195 C 0.62674 0.04629 0.52533
 C2196 C 0.60947 0.03946 0.51981
 C2197 C 0.59769 0.03111 0.53263
 C2198 C 0.60301 0.03026 0.55077
 C2199 C 0.58071 0.02381 0.52714
 C2200 C 0.57499 0.02506 0.50907
 C2201 C 0.58647 0.03386 0.49644
 C2202 C 0.60369 0.04081 0.50173
 H2203 H 0.63595 0.05216 0.51536
 H2204 H 0.59398 0.02417 0.56080
 H2205 H 0.57176 0.01739 0.53704
 H2206 H 0.61246 0.04729 0.49171
 H2207 H 0.62341 0.03692 0.57042
 H2208 H 0.58224 0.03506 0.48245
 C2209 C 0.62568 0.54962 0.04074
 C2210 C 0.63748 0.53739 0.05014
 C2211 C 0.63177 0.51880 0.05307
 C2212 C 0.61458 0.51261 0.04665
 C2213 C 0.60318 0.52505 0.03690
 C2214 C 0.60886 0.54346 0.03400
 C2215 C 0.58609 0.51904 0.03046
 C2216 C 0.57982 0.50083 0.03396
 C2217 C 0.59110 0.48852 0.04380
 C2218 C 0.60844 0.49430 0.04993
 H2219 H 0.64066 0.50914 0.06022
 H2220 H 0.60019 0.55319 0.02669
 H2221 H 0.57742 0.52878 0.02313
 H2222 H 0.61693 0.48455 0.05743
 H2223 H 0.62929 0.56415 0.03876
 H2224 H 0.58653 0.47442 0.04671
 C2225 C 0.05410 0.03905 0.11810
 C2226 C 0.04221 0.05016 0.12858
 C2227 C 0.02494 0.05497 0.12101
 C2228 C 0.01984 0.04888 0.10371
 C2229 C 0.03193 0.03759 0.09381
 C2230 C 0.04896 0.03277 0.10110
 C2231 C 0.02694 0.03143 0.07662
 C2232 C 0.01004 0.03658 0.06891
 C2233 C -0.00193 0.04796 0.07875
 C2234 C 0.00287 0.05395 0.09607
 H2235 H 0.01508 0.06295 0.12860
 H2236 H 0.05852 0.02436 0.09351
 H2237 H 0.03642 0.02284 0.06913
 H2238 H -0.00660 0.06266 0.10342
 H2239 H 0.06790 0.03574 0.12247
 H2240 H -0.01503 0.05217 0.07309
 C2241 C 0.04622 0.51704 0.63713
 C2242 C 0.04519 0.53649 0.63944
 C2243 C 0.03741 0.54743 0.62558
 C2244 C 0.03088 0.53922 0.60971
 C2245 C 0.03235 0.51974 0.60733
 C2246 C 0.03992 0.50875 0.62120
 C2247 C 0.02642 0.51168 0.59106
 C2248 C 0.01882 0.52288 0.57729
 C2249 C 0.01711 0.54220 0.58006
 C2250 C 0.02316 0.55030 0.59606
 H2251 H 0.03687 0.56248 0.62688
 H2252 H 0.04105 0.49377 0.61969
 H2253 H 0.02779 0.49677 0.58910
 H2254 H 0.02193 0.56526 0.59769
 H2255 H 0.05191 0.50820 0.64763
 H2256 H 0.01150 0.55121 0.56963
 C2257 C 0.52545 0.05050 0.62168
 C2258 C 0.54373 0.04602 0.62670
 C2259 C 0.55384 0.03463 0.61474
 C2260 C 0.54603 0.02806 0.59858
 C2261 C 0.52793 0.03309 0.59385
 C2262 C 0.51778 0.04426 0.60550
 C2263 C 0.52028 0.02696 0.57749
 C2264 C 0.53043 0.01564 0.56575
 C2265 C 0.54833 0.01034 0.57082
 C2266 C 0.55610 0.01661 0.58699
 H2267 H 0.56808 0.03130 0.61739
 H2268 H 0.50375 0.04804 0.60219
 H2269 H 0.50643 0.03113 0.57389
 H2270 H 0.57002 0.01252 0.59040
 H2271 H 0.51654 0.05829 0.63043
 H2272 H 0.55648 0.00158 0.56215
 C2273 C 0.52420 0.54573 0.13489
 C2274 C 0.53372 0.53313 0.14615
 C2275 C 0.53653 0.51475 0.14016
 C2276 C 0.53074 0.50937 0.12288
 C2277 C 0.52146 0.52230 0.11166
 C2278 C 0.51798 0.54032 0.11791
 C2279 C 0.51635 0.51725 0.09415
 C2280 C 0.52078 0.49955 0.08741
 C2281 C 0.52981 0.48667 0.09872
 C2282 C 0.53460 0.49148 0.11637
 H2283 H 0.54360 0.50477 0.14873
 H2284 H 0.51097 0.55043 0.10943
 H2285 H 0.50953 0.52740 0.08554
 H2286 H 0.54171 0.48137 0.12477
 H2287 H 0.52216 0.56008 0.13887
 H2288 H 0.53330 0.47291 0.09388
 C2289 C 0.18867 0.53148 0.63503
 C2290 C 0.20233 0.53776 0.62304
 C2291 C 0.22068 0.53843 0.62900
 C2292 C 0.22529 0.53322 0.64671
 C2293 C 0.21146 0.52692 0.65862
 C2294 C 0.19321 0.52602 0.65261
 C2295 C 0.21608 0.52200 0.67644
 C2296 C 0.23429 0.52376 0.68259
 C2297 C 0.24793 0.52992 0.67057
 C2298 C 0.24350 0.53447 0.65276
 H2299 H 0.23139 0.54299 0.61987
 H2300 H 0.18240 0.52133 0.66156
 H2301 H 0.20543 0.51743 0.68565
 H2302 H 0.25428 0.53925 0.64381
 H2303 H 0.17438 0.53110 0.63093
 H2304 H 0.26208 0.53130 0.67497
 C2305 C 0.20916 0.06836 0.13677
 C2306 C 0.19850 0.05586 0.12627
 C2307 C 0.19584 0.03758 0.13307
 C2308 C 0.20382 0.03193 0.14951
 C2309 C 0.21452 0.04464 0.15962
 C2310 C 0.21702 0.06282 0.15314
 C2311 C 0.22226 0.03907 0.17620
 C2312 C 0.21926 0.02094 0.18294
 C2313 C 0.20883 0.00832 0.17259
 C2314 C 0.20126 0.01372 0.15603
 H2315 H 0.18826 0.02735 0.12531
 H2316 H 0.22496 0.07286 0.16083
 H2317 H 0.23009 0.04903 0.18410
 H2318 H 0.19316 0.00373 0.14846
 H2319 H 0.21098 0.08279 0.13280
 H2320 H 0.20627 -0.00574 0.17742
 C2321 C 0.67024 0.20289 0.60310
 C2322 C 0.68401 0.19636 0.61496
 C2323 C 0.70253 0.19896 0.61018
 C2324 C 0.70721 0.20807 0.59398
 C2325 C 0.69323 0.21483 0.58236
 C2326 C 0.67479 0.21208 0.58704
 C2327 C 0.69794 0.22398 0.56616
 C2328 C 0.71646 0.22606 0.56124
 C2329 C 0.73022 0.21922 0.57290
 C2330 C 0.72565 0.21047 0.58916
 H2331 H 0.71332 0.19420 0.61920
 H2332 H 0.66387 0.21697 0.57823
 H2333 H 0.68721 0.22892 0.55714
 H2334 H 0.73656 0.20537 0.59786
 H2335 H 0.65586 0.20080 0.60619
 H2336 H 0.74459 0.22062 0.56941
 C2337 C 0.69293 0.72144 0.11564
 C2338 C 0.70637 0.71503 0.12791
 C2339 C 0.72481 0.71429 0.12223
 C2340 C 0.72965 0.71965 0.10460
 C2341 C 0.71599 0.72630 0.09262
 C2342 C 0.69772 0.72721 0.09829
 C2343 C 0.72072 0.73158 0.07501
 C2344 C 0.73888 0.72980 0.06893
 C2345 C 0.75240 0.72308 0.08089
 C2346 C 0.74787 0.71826 0.09865
 H2347 H 0.73543 0.70963 0.13148
 H2348 H 0.68707 0.73217 0.08923
 H2349 H 0.71011 0.73647 0.06585
 H2350 H 0.75854 0.71314 0.10762
 H2351 H 0.67856 0.72175 0.11931
 H2352 H 0.76648 0.72155 0.07651
 C2353 C 0.54144 0.67934 0.13265
 C2354 C 0.54935 0.69197 0.12026
 C2355 C 0.54874 0.71123 0.12413
 C2356 C 0.54069 0.71764 0.14015
 C2357 C 0.53257 0.70473 0.15219
 C2358 C 0.53297 0.68566 0.14829
 C2359 C 0.52460 0.71103 0.16820
 C2360 C 0.52517 0.73003 0.17276
 C2361 C 0.53346 0.74279 0.16085
 C2362 C 0.54090 0.73670 0.14454
 H2363 H 0.55452 0.72128 0.11477
 H2364 H 0.52704 0.67555 0.15753
 H2365 H 0.51860 0.70101 0.17748
 H2366 H 0.54716 0.74682 0.13554
 H2367 H 0.54209 0.66444 0.13052
 H2368 H 0.53416 0.75748 0.16418
 C2369 C 0.03027 0.70451 0.62188
 C2370 C 0.04936 0.70492 0.61904
 C2371 C 0.06079 0.71308 0.63224
 C2372 C 0.05331 0.72051 0.64803
 C2373 C 0.03416 0.71952 0.65087
 C2374 C 0.02276 0.71162 0.63768
 C2375 C 0.02674 0.72623 0.66696
 C2376 C 0.03816 0.73416 0.68022
 C2377 C 0.05713 0.73561 0.67705
 C2378 C 0.06466 0.72874 0.66113
 H2379 H 0.07556 0.71330 0.63046
 H2380 H 0.00802 0.71091 0.63958
 H2381 H 0.01206 0.72516 0.66921
 H2382 H 0.07937 0.72968 0.65915
 H2383 H 0.02106 0.69875 0.61183
 H2384 H 0.06621 0.74154 0.68714
 C2385 C 0.54001 0.60953 0.23581
 C2386 C 0.53679 0.60460 0.21773
 C2387 C 0.52802 0.61742 0.20618
 C2388 C 0.52316 0.63513 0.21234
 C2389 C 0.52710 0.64023 0.23033
 C2390 C 0.53524 0.62721 0.24205
 C2391 C 0.52318 0.65837 0.23616
 C2392 C 0.51518 0.67137 0.22424
 C2393 C 0.51081 0.66590 0.20655
 C2394 C 0.51486 0.64799 0.20062
 H2395 H 0.52573 0.61398 0.19213
 H2396 H 0.53820 0.63081 0.25593
 H2397 H 0.52645 0.66239 0.24988
 H2398 H 0.51170 0.64428 0.18680
 H2399 H 0.54651 0.59981 0.24505
 H2400 H 0.50464 0.67564 0.19710
 C2401 C 0.03918 0.63007 0.68715
 C2402 C 0.04724 0.61835 0.70025
 C2403 C 0.04837 0.62450 0.71819
 C2404 C 0.04177 0.64216 0.72293
 C2405 C 0.03369 0.65379 0.70965
 C2406 C 0.03239 0.64758 0.69182
 C2407 C 0.02730 0.67154 0.71435
 C2408 C 0.02915 0.67797 0.73213
 C2409 C 0.03718 0.66626 0.74524
 C2410 C 0.04332 0.64847 0.74071
 H2411 H 0.05436 0.61555 0.72846
 H2412 H 0.02636 0.65636 0.68143
 H2413 H 0.02131 0.68049 0.70406
 H2414 H 0.04949 0.63975 0.75107
 H2415 H 0.03842 0.62586 0.67317
 H2416 H 0.03874 0.67085 0.75905
 C2417 C 0.02735 0.13081 0.06557
 C2418 C 0.03731 0.14303 0.05414
 C2419 C 0.03755 0.13892 0.03548
 C2420 C 0.02952 0.12257 0.02875
 C2421 C 0.02015 0.11037 0.04053
 C2422 C 0.01881 0.11480 0.05882
 C2423 C 0.01276 0.09366 0.03394
 C2424 C 0.01515 0.08869 0.01579
 C2425 C 0.02435 0.10100 0.00411
 C2426 C 0.03125 0.11795 0.01048
 H2427 H 0.04387 0.14838 0.02591
 H2428 H 0.01173 0.10551 0.06806
 H2429 H 0.00588 0.08412 0.04312
 H2430 H 0.03842 0.12716 0.00124
 H2431 H 0.02691 0.13275 0.07999
 H2432 H 0.02630 0.09744 -0.00992
 C2433 C 0.02857 0.62977 0.54831
 C2434 C 0.04784 0.63165 0.54806
 C2435 C 0.05833 0.61722 0.54049
 C2436 C 0.04976 0.60107 0.53374
 C2437 C 0.03045 0.59915 0.53470
 C2438 C 0.01999 0.61368 0.54183
 C2439 C 0.02194 0.58266 0.52873
 C2440 C 0.03245 0.56808 0.52156
 C2441 C 0.05160 0.57036 0.52020
 C2442 C 0.06018 0.58664 0.52631
 H2443 H 0.07318 0.61829 0.54028
 H2444 H 0.00516 0.61256 0.54247
 H2445 H 0.00716 0.58112 0.52980
 H2446 H 0.07499 0.58785 0.52541
 H2447 H 0.02004 0.64080 0.55357
 H2448 H 0.06006 0.55930 0.51488
 C2449 C 0.53215 0.11954 0.56101
 C2450 C 0.53598 0.13294 0.54756
 C2451 C 0.53355 0.12810 0.52937
 C2452 C 0.52787 0.11008 0.52463
 C2453 C 0.52406 0.09674 0.53825
 C2454 C 0.52612 0.10166 0.55640
 C2455 C 0.51865 0.07861 0.53346
 C2456 C 0.51751 0.07355 0.51522
 C2457 C 0.52130 0.08693 0.50181
 C2458 C 0.52625 0.10509 0.50647
 H2459 H 0.53615 0.13833 0.51885
 H2460 H 0.52340 0.09158 0.56702
 H2461 H 0.51595 0.06829 0.54388
 H2462 H 0.52914 0.11514 0.49586
 H2463 H 0.53418 0.12275 0.57512
 H2464 H 0.52043 0.08332 0.48767
 C2465 C 0.57262 0.60512 0.04415
 C2466 C 0.55940 0.61772 0.05059
 C2467 C 0.54074 0.61237 0.05011
 C2468 C 0.53546 0.59470 0.04372
 C2469 C 0.54891 0.58233 0.03718
 C2470 C 0.56742 0.58773 0.03737
 C2471 C 0.54366 0.56461 0.03092
 C2472 C 0.52519 0.55885 0.03163
 C2473 C 0.51194 0.57123 0.03825
 C2474 C 0.51699 0.58907 0.04404
 H2475 H 0.53028 0.62190 0.05473
 H2476 H 0.57793 0.57836 0.03257
 H2477 H 0.55403 0.55508 0.02608
 H2478 H 0.50649 0.59834 0.04906
 H2479 H 0.58711 0.60851 0.04468
 H2480 H 0.49763 0.56710 0.03893
 C2481 C 0.71786 0.12781 0.55190
 C2482 C 0.70681 0.11656 0.54050
 C2483 C 0.70266 0.12347 0.52305
 C2484 C 0.70924 0.14097 0.51730
 C2485 C 0.72021 0.15184 0.52900
 C2486 C 0.72448 0.14510 0.54620
 C2487 C 0.72638 0.16951 0.52351
 C2488 C 0.72153 0.17668 0.50648
 C2489 C 0.71085 0.16563 0.49478
 C2490 C 0.70486 0.14790 0.50010
 H2491 H 0.69476 0.11517 0.51363
 H2492 H 0.73267 0.15339 0.55543
 H2493 H 0.73444 0.17791 0.53276
 H2494 H 0.69650 0.13977 0.49089
 H2495 H 0.72079 0.12386 0.56571
 H2496 H 0.70690 0.17080 0.48157
 C2497 C 0.69491 0.62191 0.03693
 C2498 C 0.70835 0.61056 0.04515
 C2499 C 0.72676 0.61671 0.04531
 C2500 C 0.73162 0.63379 0.03707
 C2501 C 0.71794 0.64464 0.02844
 C2502 C 0.69966 0.63863 0.02852
 C2503 C 0.72262 0.66155 0.02011
 C2504 C 0.74077 0.66820 0.02060
 C2505 C 0.75433 0.65753 0.02940
 C2506 C 0.74983 0.64034 0.03740
 H2507 H 0.73728 0.60819 0.05163
 H2508 H 0.68898 0.64696 0.02222
 H2509 H 0.71197 0.66985 0.01370
 H2510 H 0.76052 0.63230 0.04401
 H2511 H 0.68054 0.61796 0.03711
 H2512 H 0.76839 0.66246 0.03004
 C2513 C 0.23876 0.64360 0.70156
 C2514 C 0.22002 0.64699 0.70488
 C2515 C 0.20999 0.63382 0.71490
 C2516 C 0.21834 0.61747 0.72125
 C2517 C 0.23704 0.61389 0.71749
 C2518 C 0.24717 0.62719 0.70774
 C2519 C 0.24515 0.59709 0.72348
 C2520 C 0.23476 0.58416 0.73351
 C2521 C 0.21622 0.58811 0.73721
 C2522 C 0.20810 0.60449 0.73110
 H2523 H 0.19548 0.63599 0.71731
 H2524 H 0.26154 0.62487 0.70482
 H2525 H 0.25942 0.59417 0.72053
 H2526 H 0.19375 0.60698 0.73405
 H2527 H 0.24693 0.65362 0.69409
 H2528 H 0.20776 0.57828 0.74463
 C2529 C 0.21409 0.12478 0.19147
 C2530 C 0.20659 0.13766 0.20379
 C2531 C 0.20527 0.13200 0.22210
 C2532 C 0.21057 0.11405 0.22769
 C2533 C 0.21800 0.10159 0.21507
 C2534 C 0.21983 0.10712 0.19707
 C2535 C 0.22325 0.08367 0.22057
 C2536 C 0.22080 0.07779 0.23851
 C2537 C 0.21322 0.09018 0.25100
 C2538 C 0.20835 0.10826 0.24568
 H2539 H 0.20052 0.14150 0.23232
 H2540 H 0.22531 0.09760 0.18718
 H2541 H 0.22883 0.07411 0.21075
 H2542 H 0.20261 0.11763 0.25556
 H2543 H 0.21483 0.12771 0.17719
 H2544 H 0.21123 0.08592 0.26489
 C2545 C 0.70782 1.11095 0.67322
 C2546 C 0.69766 1.12228 0.68516
 C2547 C 0.69673 1.11628 0.70344
 C2548 C 0.70513 1.09961 0.70933
 C2549 C 0.71517 1.08873 0.69709
 C2550 C 0.71651 1.09461 0.67912
 C2551 C 0.72342 1.07198 0.70292
 C2552 C 0.72138 1.06565 0.72083
 C2553 C 0.71130 1.07661 0.73290
 C2554 C 0.70344 1.09350 0.72727
 H2555 H 0.68992 1.12462 0.71346
 H2556 H 0.72399 1.08634 0.66947
 H2557 H 0.73092 1.06357 0.69336
 H2558 H 0.69576 1.10162 0.73691
 H2559 H 0.70858 1.11398 0.65897
 H2560 H 0.70947 1.07210 0.74674
 C2561 C 0.73471 0.64545 0.20421
 C2562 C 0.71601 0.64969 0.20658
 C2563 C 0.70510 0.63743 0.21692
 C2564 C 0.71265 0.62132 0.22474
 C2565 C 0.73133 0.61700 0.22194
 C2566 C 0.74226 0.62922 0.21172
 C2567 C 0.73865 0.60043 0.22920
 C2568 C 0.72754 0.58824 0.23941
 C2569 C 0.70910 0.59302 0.24249
 C2570 C 0.70172 0.60934 0.23515
 H2571 H 0.69059 0.64014 0.21861
 H2572 H 0.75665 0.62622 0.20953
 H2573 H 0.75289 0.59695 0.22673
 H2574 H 0.68737 0.61248 0.23748
 H2575 H 0.74357 0.65472 0.19661
 H2576 H 0.70017 0.58386 0.25014
 C2577 C 0.55977 0.12759 0.70883
 C2578 C 0.54650 0.11581 0.70091
 C2579 C 0.52797 0.12137 0.70090
 C2580 C 0.52284 0.13839 0.70875
 C2581 C 0.53634 0.14988 0.71687
 C2582 C 0.55472 0.14431 0.71687
 C2583 C 0.53135 0.16698 0.72449
 C2584 C 0.51306 0.17309 0.72372
 C2585 C 0.49967 0.16151 0.71574
 C2586 C 0.50449 0.14425 0.70847
 H2587 H 0.51757 0.11244 0.69494
 H2588 H 0.56525 0.15295 0.72296
 H2589 H 0.54185 0.17586 0.73037
 H2590 H 0.49392 0.13567 0.70233
 H2591 H 0.57419 0.12397 0.70868
 H2592 H 0.48547 0.16590 0.71496
 C2593 C 1.03625 0.13740 0.18680
 C2594 C 1.04232 0.12343 0.19885
 C2595 C 1.04163 0.12687 0.21751
 C2596 C 1.03506 0.14396 0.22400
 C2597 C 1.02873 0.15768 0.21171
 C2598 C 1.02940 0.15427 0.19316
 C2599 C 1.02216 0.17474 0.21813
 C2600 C 1.02228 0.17854 0.23669
 C2601 C 1.02874 0.16490 0.24883
 C2602 C 1.03487 0.14766 0.24255
 H2603 H 1.04608 0.11624 0.22701
 H2604 H 1.02482 0.16474 0.18355
 H2605 H 1.01756 0.18533 0.20863
 H2606 H 1.03974 0.13734 0.25218
 H2607 H 1.03700 0.13540 0.17237
 H2608 H 1.02904 0.16760 0.26318
 C2609 C 0.23093 0.60857 0.54852
 C2610 C 0.21210 0.60482 0.54602
 C2611 C 0.20150 0.61737 0.53565
 C2612 C 0.20953 0.63332 0.52793
 C2613 C 0.22838 0.63707 0.53081
 C2614 C 0.23897 0.62458 0.54107
 C2615 C 0.23626 0.65334 0.52356
 C2616 C 0.22558 0.66589 0.51331
 C2617 C 0.20694 0.66177 0.51018
 C2618 C 0.19897 0.64568 0.51748
 H2619 H 0.18691 0.61493 0.53382
 H2620 H 0.25347 0.62717 0.54332
 H2621 H 0.25067 0.65631 0.52603
 H2622 H 0.18450 0.64300 0.51511
 H2623 H 0.23954 0.59904 0.55612
 H2624 H 0.19835 0.67126 0.50247
 C2625 C 0.22373 0.11873 1.04704
 C2626 C 0.20450 0.11672 1.04575
 C2627 C 0.19449 0.13011 1.03586
 C2628 C 0.20338 0.14563 1.02817
 C2629 C 0.22251 0.14806 1.03059
 C2630 C 0.23261 0.13431 1.03970
 C2631 C 0.23112 0.16441 1.02428
 C2632 C 0.22085 0.17824 1.01530
 C2633 C 0.20202 0.17510 1.01204
 C2634 C 0.19334 0.15906 1.01857
 H2635 H 0.17968 0.12898 1.03477
 H2636 H 0.24734 0.13574 1.04141
 H2637 H 0.24567 0.16657 1.02672
 H2638 H 0.17869 0.15736 1.01641
 H2639 H 0.23198 0.10837 1.05398
 H2640 H 0.19379 0.18542 1.00505
 C2641 C 0.19205 0.71818 0.61478
 C2642 C 0.20537 0.71062 0.62656
 C2643 C 0.22336 0.70801 0.62005
 C2644 C 0.22773 0.71209 0.60206
 C2645 C 0.21426 0.71985 0.59052
 C2646 C 0.19654 0.72302 0.59707
 C2647 C 0.21868 0.72411 0.57258
 C2648 C 0.23624 0.72014 0.56582
 C2649 C 0.24945 0.71209 0.57730
 C2650 C 0.24531 0.70832 0.59534
 H2651 H 0.23405 0.70274 0.62889
 H2652 H 0.18604 0.72893 0.58839
 H2653 H 0.20837 0.73022 0.56380
 H2654 H 0.25579 0.70229 0.60399
 H2655 H 0.17801 0.72005 0.61906
 H2656 H 0.26309 0.70901 0.57240
 C2657 C 0.18802 0.21994 1.12219
 C2658 C 0.20150 0.21156 1.13324
 C2659 C 0.21950 0.20984 1.12663
 C2660 C 0.22391 0.21626 1.10926
 C2661 C 0.21029 0.22494 1.09849
 C2662 C 0.19241 0.22672 1.10508
 C2663 C 0.21468 0.23146 1.08120
 C2664 C 0.23241 0.22897 1.07429
 C2665 C 0.24582 0.22010 1.08496
 C2666 C 0.24167 0.21398 1.10239
 H2667 H 0.23011 0.20360 1.13498
 H2668 H 0.18175 0.23312 1.09691
 H2669 H 0.20417 0.23803 1.07293
 H2670 H 0.25227 0.20729 1.11042
 H2671 H 0.17393 0.22103 1.12664
 H2672 H 0.25958 0.21806 1.07985
 C2673 C 0.70773 0.52437 0.12779
 C2674 C 0.70840 0.54346 0.12318
 C2675 C 0.71585 0.55613 0.13573
 C2676 C 0.72219 0.54987 0.15265
 C2677 C 0.72085 0.53075 0.15724
 C2678 C 0.71375 0.51811 0.14466
 C2679 C 0.72649 0.52458 0.17438
 C2680 C 0.73378 0.53722 0.18696
 C2681 C 0.73554 0.55614 0.18211
 C2682 C 0.72968 0.56244 0.16515
 H2683 H 0.71635 0.57090 0.13255
 H2684 H 0.71282 0.50336 0.14788
 H2685 H 0.72520 0.50993 0.17794
 H2686 H 0.73087 0.57715 0.16187
 H2687 H 0.70256 0.51418 0.11830
 H2688 H 0.74099 0.56617 0.19163
 C2689 C 0.71772 1.05662 0.62168
 C2690 C 0.70986 1.04346 0.60986
 C2691 C 0.70924 1.02457 0.61518
 C2692 C 0.71625 1.01900 0.63207
 C2693 C 0.72428 1.03242 0.64361
 C2694 C 0.72502 1.05113 0.63825
 C2695 C 0.73098 1.02705 0.66058
 C2696 C 0.72934 1.00849 0.66653
 C2697 C 0.72143 0.99517 0.65498
 C2698 C 0.71511 1.00034 0.63781
 H2699 H 0.70330 1.01424 0.60625
 H2700 H 0.73098 1.06160 0.64701
 H2701 H 0.73680 1.03753 0.66945
 H2702 H 0.70899 0.98984 0.62919
 H2703 H 0.71793 1.07133 0.61829
 H2704 H 0.72000 0.98077 0.65928
 C2705 C 0.55199 0.22207 0.62197
 C2706 C 0.53879 0.21283 0.61131
 C2707 C 0.52070 0.21108 0.61773
 C2708 C 0.51602 0.21800 0.63474
 C2709 C 0.52945 0.22727 0.64524
 C2710 C 0.54732 0.22938 0.63868
 C2711 C 0.52497 0.23380 0.66237
 C2712 C 0.50738 0.23071 0.66948
 C2713 C 0.49405 0.22154 0.65899
 C2714 C 0.49827 0.21542 0.64164
 H2715 H 0.51030 0.20420 0.60962
 H2716 H 0.55781 0.23629 0.64666
 H2717 H 0.53546 0.24058 0.67048
 H2718 H 0.48781 0.20831 0.63381
 H2719 H 0.56612 0.22326 0.61763
 H2720 H 0.48041 0.21901 0.66425
 C2721 C 1.07054 0.21567 0.13987
 C2722 C 1.05648 0.21057 0.12773
 C2723 C 1.03808 0.21281 0.13298
 C2724 C 1.03378 0.21964 0.15011
 C2725 C 1.04802 0.22480 0.16214
 C2726 C 1.06636 0.22282 0.15685
 C2727 C 1.04365 0.23153 0.17935
 C2728 C 1.02523 0.23267 0.18480
 C2729 C 1.01122 0.22743 0.17272
 C2730 C 1.01543 0.22115 0.15548
 H2731 H 1.02705 0.20928 0.12373
 H2732 H 1.07747 0.22656 0.16594
 H2733 H 1.05456 0.23532 0.18866
 H2734 H 1.00435 0.21722 0.14644
 H2735 H 1.08484 0.21382 0.13639
 H2736 H 0.99692 0.22823 0.17663
 C2737 C 0.61160 0.18014 0.70549
 C2738 C 0.62257 0.19225 0.69504
 C2739 C 0.61735 0.21120 0.69362
 C2740 C 0.60125 0.21767 0.70187
 C2741 C 0.59054 0.20528 0.71233
 C2742 C 0.59596 0.18664 0.71423
 C2743 C 0.57433 0.21160 0.72038
 C2744 C 0.56827 0.23006 0.71772
 C2745 C 0.57897 0.24228 0.70722
 C2746 C 0.59544 0.23621 0.69955
 H2747 H 0.62570 0.22096 0.68602
 H2748 H 0.58789 0.17697 0.72220
 H2749 H 0.56610 0.20190 0.72822
 H2750 H 0.60343 0.24592 0.69151
 H2751 H 0.61479 0.16544 0.70663
 H2752 H 0.57460 0.25654 0.70493
 C2753 C 1.13837 0.23513 0.21342
 C2754 C 1.14110 0.21570 0.21343
 C2755 C 1.12767 0.20402 0.22116
 C2756 C 1.11155 0.21153 0.22826
 C2757 C 1.10862 0.23100 0.22747
 C2758 C 1.12224 0.24270 0.22029
 C2759 C 1.09197 0.23839 0.23349
 C2760 C 1.07832 0.22657 0.24054
 C2761 C 1.08163 0.20731 0.24192
 C2762 C 1.09808 0.19983 0.23572
 H2763 H 1.12937 0.18900 0.22104
 H2764 H 1.12031 0.25768 0.21978
 H2765 H 1.08955 0.25329 0.23253
 H2766 H 1.10013 0.18487 0.23649
 H2767 H 1.14863 0.24449 0.20791
 H2768 H 1.07123 0.19796 0.24721
 C2769 C 0.13618 0.71065 0.56226
 C2770 C 0.12307 0.70363 0.55000
 C2771 C 0.12719 0.70382 0.53147
 C2772 C 0.14415 0.71078 0.52537
 C2773 C 0.15707 0.71795 0.53786
 C2774 C 0.15290 0.71788 0.55625
 C2775 C 0.17414 0.72460 0.53183
 C2776 C 0.17876 0.72364 0.51351
 C2777 C 0.16577 0.71662 0.50116
 C2778 C 0.14856 0.71043 0.50700
 H2779 H 0.11722 0.69863 0.52181
 H2780 H 0.16268 0.72316 0.56602
 H2781 H 0.18410 0.72979 0.54150
 H2782 H 0.13886 0.70500 0.49721
 H2783 H 0.13366 0.71032 0.57663
 H2784 H 0.16900 0.71574 0.48696
 C2785 C 0.12788 0.19262 1.03795
 C2786 C 0.11743 0.20600 1.04715
 C2787 C 0.12335 0.22471 1.04714
 C2788 C 0.13962 0.22990 1.03834
 C2789 C 0.14987 0.21631 1.02905
 C2790 C 0.14383 0.19775 1.02885
 C2791 C 0.16635 0.22134 1.02067
 C2792 C 0.17317 0.23960 1.02207
 C2793 C 0.16287 0.25309 1.03118
 C2794 C 0.14608 0.24834 1.03904
 H2795 H 0.11538 0.23521 1.05401
 H2796 H 0.15166 0.18713 1.02199
 H2797 H 0.17438 0.21080 1.01394
 H2798 H 0.13843 0.25894 1.04613
 H2799 H 0.12392 0.17804 1.03805
 H2800 H 0.16797 0.26724 1.03247
 C2801 C 0.62778 0.53460 0.19358
 C2802 C 0.61521 0.53998 0.20691
 C2803 C 0.62113 0.54086 0.22495
 C2804 C 0.63941 0.53714 0.22957
 C2805 C 0.65194 0.53175 0.21609
 C2806 C 0.64595 0.53037 0.19816
 C2807 C 0.67026 0.52806 0.22078
 C2808 C 0.67627 0.53015 0.23869
 C2809 C 0.66373 0.53572 0.25192
 C2810 C 0.64542 0.53902 0.24743
 H2811 H 0.61156 0.54458 0.23546
 H2812 H 0.65539 0.52637 0.18763
 H2813 H 0.67989 0.52391 0.21046
 H2814 H 0.63599 0.54320 0.25791
 H2815 H 0.62373 0.53409 0.17953
 H2816 H 0.66805 0.53728 0.26583
 C2817 C 0.62837 1.05467 0.70556
 C2818 C 0.61587 1.04166 0.69829
 C2819 C 0.62088 1.02270 0.69767
 C2820 C 0.63797 1.01687 0.70462
 C2821 C 0.64999 1.03013 0.71243
 C2822 C 0.64513 1.04896 0.71271
 C2823 C 0.66686 1.02448 0.71961
 C2824 C 0.67233 1.00577 0.71876
 C2825 C 0.66058 0.99261 0.71069
 C2826 C 0.64340 0.99808 0.70387
 H2827 H 0.61145 1.01252 0.69203
 H2828 H 0.65436 1.05933 0.71835
 H2829 H 0.67604 1.03483 0.72540
 H2830 H 0.63447 0.98770 0.69785
 H2831 H 0.62524 1.06943 0.70565
 H2832 H 0.66465 0.97813 0.70976
 C2833 C 0.87323 0.44898 0.29035
 C2834 C 0.88506 0.46180 0.29891
 C2835 C 0.87904 0.48030 0.30131
 C2836 C 0.86151 0.48579 0.29528
 C2837 C 0.85006 0.47278 0.28637
 C2838 C 0.85605 0.45446 0.28397
 C2839 C 0.83266 0.47816 0.28023
 C2840 C 0.82619 0.49630 0.28321
 C2841 C 0.83749 0.50915 0.29231
 C2842 C 0.85511 0.50399 0.29812
 H2843 H 0.88794 0.49042 0.30777
 H2844 H 0.84734 0.44427 0.27735
 H2845 H 0.82396 0.46803 0.27348
 H2846 H 0.86363 0.51416 0.30500
 H2847 H 0.87709 0.43451 0.28881
 H2848 H 0.83275 0.52320 0.29480
 C2849 C 0.86914 0.93229 0.78396
 C2850 C 0.88011 0.94660 0.79133
 C2851 C 0.87399 0.96517 0.78987
 C2852 C 0.85712 0.96934 0.78153
 C2853 C 0.84632 0.95483 0.77410
 C2854 C 0.85251 0.93637 0.77533
 C2855 C 0.82934 0.95897 0.76596
 C2856 C 0.82277 0.97739 0.76559
 C2857 C 0.83360 0.99171 0.77303
 C2858 C 0.85071 0.98775 0.78075
 H2859 H 0.88233 0.97643 0.79523
 H2860 H 0.84433 0.92504 0.76987
 H2861 H 0.82095 0.94779 0.76052
 H2862 H 0.85877 0.99905 0.78641
 H2863 H 0.87322 0.91782 0.78516
 H2864 H 0.82878 1.00599 0.77293
 C2865 C 0.37853 0.31434 0.78725
 C2866 C 0.36718 0.30098 0.79566
 C2867 C 0.37295 0.28227 0.79646
 C2868 C 0.38972 0.27701 0.78879
 C2869 C 0.40072 0.29055 0.78000
 C2870 C 0.39505 0.30916 0.77937
 C2871 C 0.41733 0.28533 0.77215
 C2872 C 0.42343 0.26683 0.77333
 C2873 C 0.41260 0.25346 0.78231
 C2874 C 0.39577 0.25847 0.78983
 H2875 H 0.36434 0.27181 0.80283
 H2876 H 0.40345 0.31975 0.77290
 H2877 H 0.42574 0.29578 0.76549
 H2878 H 0.38759 0.24791 0.79658
 H2879 H 0.37473 0.32894 0.78688
 H2880 H 0.41711 0.23910 0.78340
 C2881 C 0.88147 0.28968 0.31367
 C2882 C 0.87089 0.29846 0.30013
 C2883 C 0.87811 0.30001 0.28262
 C2884 C 0.89566 0.29306 0.27879
 C2885 C 0.90597 0.28409 0.29251
 C2886 C 0.89872 0.28241 0.30986
 C2887 C 0.92353 0.27726 0.28879
 C2888 C 0.93120 0.27965 0.27161
 C2889 C 0.92093 0.28867 0.25804
 C2890 C 0.90323 0.29517 0.26155
 H2891 H 0.87014 0.30662 0.27200
 H2892 H 0.90654 0.27577 0.32058
 H2893 H 0.93143 0.27055 0.29943
 H2894 H 0.89558 0.30205 0.25086
 H2895 H 0.87660 0.28875 0.32741
 H2896 H 0.92657 0.29065 0.24468
 C2897 C 0.39068 0.77682 0.47235
 C2898 C 0.39235 0.77822 0.45346
 C2899 C 0.37808 0.77116 0.44257
 C2900 C 0.36207 0.76380 0.45038
 C2901 C 0.36010 0.76362 0.46934
 C2902 C 0.37468 0.76976 0.48020
 C2903 C 0.34345 0.75773 0.47708
 C2904 C 0.32891 0.75162 0.46605
 C2905 C 0.33135 0.75103 0.44727
 C2906 C 0.34771 0.75720 0.43949
 H2907 H 0.37899 0.77219 0.42802
 H2908 H 0.37359 0.76942 0.49476
 H2909 H 0.34171 0.75812 0.49158
 H2910 H 0.34898 0.75714 0.42494
 H2911 H 0.40164 0.78156 0.48114
 H2912 H 0.32028 0.74652 0.43848
 C2913 C 0.37061 0.27866 0.93436
 C2914 C 0.38326 0.28540 0.94724
 C2915 C 0.37795 0.28608 0.96543
 C2916 C 0.36033 0.28023 0.97065
 C2917 C 0.34790 0.27325 0.95760
 C2918 C 0.35321 0.27247 0.93952
 C2919 C 0.33025 0.26748 0.96279
 C2920 C 0.32464 0.26911 0.98080
 C2921 C 0.33714 0.27604 0.99368
 C2922 C 0.35487 0.28138 0.98868
 H2923 H 0.38755 0.29099 0.97557
 H2924 H 0.34385 0.26723 0.92932
 H2925 H 0.32072 0.26226 0.95273
 H2926 H 0.36420 0.28669 0.99888
 H2927 H 0.37409 0.27833 0.92020
 H2928 H 0.33317 0.27737 1.00766
 C2929 C 0.80982 0.47317 0.38094
 C2930 C 0.79553 0.46810 0.39277
 C2931 C 0.77721 0.47052 0.38701
 C2932 C 0.77329 0.47778 0.36978
 C2933 C 0.78784 0.48320 0.35829
 C2934 C 0.80602 0.48085 0.36401
 C2935 C 0.78398 0.49046 0.34109
 C2936 C 0.76578 0.49172 0.33493
 C2937 C 0.75139 0.48611 0.34628
 C2938 C 0.75509 0.47945 0.36369
 H2939 H 0.76600 0.46683 0.39592
 H2940 H 0.81733 0.48465 0.35527
 H2941 H 0.79515 0.49444 0.33223
 H2942 H 0.74375 0.47529 0.37224
 H2943 H 0.82406 0.47097 0.38462
 H2944 H 0.73726 0.48691 0.34167
 C2945 C 0.81609 0.95744 0.85893
 C2946 C 0.80324 0.94934 0.87079
 C2947 C 0.78467 0.94847 0.86543
 C2948 C 0.77904 0.95566 0.84862
 C2949 C 0.79205 0.96408 0.83702
 C2950 C 0.81055 0.96482 0.84229
 C2951 C 0.78640 0.97138 0.82026
 C2952 C 0.76795 0.96993 0.81473
 C2953 C 0.75515 0.96140 0.82630
 C2954 C 0.76060 0.95450 0.84316
 H2955 H 0.77454 0.94246 0.87442
 H2956 H 0.82077 0.97100 0.83349
 H2957 H 0.79643 0.97762 0.81129
 H2958 H 0.75043 0.94806 0.85183
 H2959 H 0.83053 0.95797 0.86246
 H2960 H 0.74088 0.96006 0.82228
 C2961 C 0.28733 0.80946 0.37611
 C2962 C 0.29467 0.79675 0.36372
 C2963 C 0.29400 0.77753 0.36773
 C2964 C 0.28641 0.77116 0.38400
 C2965 C 0.27904 0.78412 0.39625
 C2966 C 0.27946 0.80320 0.39214
 C2967 C 0.27183 0.77788 0.41268
 C2968 C 0.27234 0.75885 0.41734
 C2969 C 0.27961 0.74601 0.40507
 C2970 C 0.28640 0.75210 0.38844
 H2971 H 0.29943 0.76754 0.35825
 H2972 H 0.27402 0.81333 0.40148
 H2973 H 0.26655 0.78796 0.42215
 H2974 H 0.29203 0.74195 0.37923
 H2975 H 0.28800 0.82435 0.37361
 H2976 H 0.28020 0.73129 0.40842
 C2977 C 0.31435 0.29399 0.88449
 C2978 C 0.30088 0.30011 0.87211
 C2979 C 0.28230 0.29963 0.87736
 C2980 C 0.27731 0.29314 0.89457
 C2981 C 0.29099 0.28653 0.90658
 C2982 C 0.30944 0.28710 0.90144
 C2983 C 0.28600 0.27961 0.92361
 C2984 C 0.26756 0.27974 0.92904
 C2985 C 0.25409 0.28678 0.91724
 C2986 C 0.25889 0.29320 0.90004
 H2987 H 0.27166 0.30410 0.86804
 H2988 H 0.32012 0.28239 0.91059
 H2989 H 0.29649 0.27449 0.93279
 H2990 H 0.24822 0.29833 0.89108
 H2991 H 0.32881 0.29469 0.88120
 H2992 H 0.23980 0.28704 0.92123
 C2993 C 0.45909 0.25905 0.87938
 C2994 C 0.46116 0.27806 0.88362
 C2995 C 0.46916 0.29013 0.87086
 C2996 C 0.47446 0.28352 0.85395
 C2997 C 0.47165 0.26455 0.84956
 C2998 C 0.46423 0.25237 0.86248
 C2999 C 0.47598 0.25822 0.83223
 C3000 C 0.48330 0.27059 0.81935
 C3001 C 0.48654 0.28929 0.82408
 C3002 C 0.48207 0.29572 0.84119
 H3003 H 0.47058 0.30488 0.87374
 H3004 H 0.46215 0.23774 0.85944
 H3005 H 0.47354 0.24374 0.82874
 H3006 H 0.48434 0.31030 0.84435
 H3007 H 0.45325 0.24936 0.88905
 H3008 H 0.49206 0.29913 0.81434
 C3009 C 0.95076 0.26763 0.38564
 C3010 C 0.95445 0.28615 0.39081
 C3011 C 0.96585 0.29723 0.37977
 C3012 C 0.97310 0.29014 0.36376
 C3013 C 0.96873 0.27178 0.35838
 C3014 C 0.95774 0.26056 0.36954
 C3015 C 0.97512 0.26513 0.34177
 C3016 C 0.98605 0.27656 0.33063
 C3017 C 0.99084 0.29456 0.33649
 C3018 C 0.98434 0.30133 0.35284
 H3019 H 0.96860 0.31164 0.38322
 H3020 H 0.95439 0.24637 0.36573
 H3021 H 0.97141 0.25119 0.33744
 H3022 H 0.98789 0.31543 0.35681
 H3023 H 0.94235 0.25860 0.39398
 H3024 H 0.99912 0.30370 0.32813
 C3025 C 0.47730 0.37905 0.80498
 C3026 C 0.45890 0.38387 0.80117
 C3027 C 0.44876 0.37242 0.78935
 C3028 C 0.45667 0.35638 0.78181
 C3029 C 0.47492 0.35139 0.78627
 C3030 C 0.48515 0.36295 0.79775
 C3031 C 0.48253 0.33486 0.77931
 C3032 C 0.47219 0.32342 0.76764
 C3033 C 0.45423 0.32897 0.76292
 C3034 C 0.44652 0.34513 0.77002
 H3035 H 0.43454 0.37564 0.78634
 H3036 H 0.49923 0.35953 0.80119
 H3037 H 0.49639 0.33088 0.78307
 H3038 H 0.43254 0.34875 0.76636
 H3039 H 0.48574 0.38775 0.81358
 H3040 H 0.44586 0.32060 0.75395
 C3041 C 0.94471 0.37855 0.28767
 C3042 C 0.95767 0.39052 0.29582
 C3043 C 0.97617 0.38486 0.29678
 C3044 C 0.98155 0.36754 0.28973
 C3045 C 0.96835 0.35596 0.28129
 C3046 C 0.95002 0.36160 0.28030
 C3047 C 0.97353 0.33864 0.27438
 C3048 C 0.99166 0.33231 0.27629
 C3049 C 1.00475 0.34379 0.28478
 C3050 C 0.99979 0.36139 0.29124
 H3051 H 0.98636 0.39387 0.30297
 H3052 H 0.93969 0.35274 0.27412
 H3053 H 0.96323 0.32972 0.26820
 H3054 H 1.01011 0.37000 0.29773
 H3055 H 0.93027 0.38209 0.28724
 H3056 H 1.01878 0.33912 0.28649
 C3057 C 0.28825 0.86578 0.43378
 C3058 C 0.29651 0.87664 0.44738
 C3059 C 0.29872 0.86880 0.46471
 C3060 C 0.29246 0.85059 0.46843
 C3061 C 0.28374 0.84010 0.45472
 C3062 C 0.28183 0.84779 0.43743
 C3063 C 0.27716 0.82206 0.45849
 C3064 C 0.27951 0.81412 0.47571
 C3065 C 0.28846 0.82453 0.48918
 C3066 C 0.29473 0.84265 0.48563
 H3067 H 0.30499 0.87696 0.47537
 H3068 H 0.27540 0.83987 0.42669
 H3069 H 0.27053 0.81406 0.44791
 H3070 H 0.30143 0.85042 0.49630
 H3071 H 0.28680 0.87118 0.42018
 H3072 H 0.29045 0.81871 0.50256
 C3073 C 0.28500 0.37745 0.94202
 C3074 C 0.29380 0.38863 0.95501
 C3075 C 0.29598 0.38170 0.97269
 C3076 C 0.28952 0.36385 0.97728
 C3077 C 0.28042 0.35295 0.96415
 C3078 C 0.27825 0.35985 0.94658
 C3079 C 0.27373 0.33526 0.96873
 C3080 C 0.27623 0.32809 0.98622
 C3081 C 0.28559 0.33880 0.99915
 C3082 C 0.29206 0.35664 0.99475
 H3083 H 0.30259 0.39019 0.98289
 H3084 H 0.27149 0.35155 0.93632
 H3085 H 0.26678 0.32695 0.95857
 H3086 H 0.29908 0.36477 1.00497
 H3087 H 0.28355 0.38219 0.92820
 H3088 H 0.28766 0.33348 1.01270
 C3089 C 0.81860 0.39104 0.29109
 C3090 C 0.80518 0.37808 0.29670
 C3091 C 0.78653 0.38309 0.29551
 C3092 C 0.78139 0.40082 0.28917
 C3093 C 0.79502 0.41363 0.28348
 C3094 C 0.81356 0.40856 0.28441
 C3095 C 0.78990 0.43145 0.27737
 C3096 C 0.77136 0.43683 0.27742
 C3097 C 0.75791 0.42400 0.28310
 C3098 C 0.76286 0.40606 0.28873
 H3099 H 0.77598 0.37322 0.29952
 H3100 H 0.82420 0.41826 0.28025
 H3101 H 0.80038 0.44135 0.27325
 H3102 H 0.75224 0.39643 0.29307
 H3103 H 0.83308 0.38778 0.29215
 H3104 H 0.74355 0.42788 0.28324
   
