data_POSCAR
  _audit_creation_date              2014-09-24
  _audit_creation_method            'ToBaCCo'
  _symmetry_space_group_name_H-M    'P1'
  _symmetry_Int_Tables_number       1
  _symmetry_cell_setting            triclinic
  loop_
  _symmetry_equiv_pos_as_xyz
 x,y,z
_cell_length_a 73.0256
_cell_length_b 72.9498
_cell_length_c 71.8249
_cell_angle_alpha 89.994200
_cell_angle_beta 90.094600
_cell_angle_gamma 90.066800
loop_
  _atom_site_label
  _atom_site_type_symbol
  _atom_site_fract_x
  _atom_site_fract_y
  _atom_site_fract_z
C1 C 0.35987 0.27871 -0.00971
 C2 C 0.35996 0.27896 0.00938
 C3 C 0.35067 0.29467 0.01472
 N4 N 0.34502 0.30405 -0.00047
 C5 C 0.35052 0.29429 -0.01544
 C6 C 0.34879 0.30075 0.03328
 C7 C 0.33807 0.31596 0.03863
 C8 C 0.33858 0.32414 0.05606
 C9 C 0.32560 0.33779 0.05596
 C10 C 0.31750 0.33759 0.03846
 N11 N 0.32507 0.32413 0.02807
 C12 C 0.30287 0.34901 0.03292
 C13 C 0.29693 0.35101 0.01432
 C14 C 0.28168 0.36095 0.00880
 C15 C 0.28144 0.36064 -0.01029
 C16 C 0.29658 0.35053 -0.01585
 N17 N 0.30606 0.34477 -0.00076
 C18 C 0.30213 0.34798 -0.03452
 C19 C 0.31684 0.33654 -0.03992
 C20 C 0.32476 0.33640 -0.05749
 C21 C 0.33783 0.32286 -0.05738
 C22 C 0.33758 0.31503 -0.03976
 N23 N 0.32464 0.32337 -0.02928
 C24 C 0.34844 0.29995 -0.03416
 H25 H 0.36620 0.26839 -0.01839
 H26 H 0.36637 0.26887 0.01830
 H27 H 0.32001 0.31898 -0.01637
 H28 H 0.34732 0.32058 0.06769
 H29 H 0.32241 0.34677 0.06750
 H30 H 0.27188 0.36790 0.01761
 H31 H 0.27142 0.36732 -0.01908
 H32 H 0.34645 0.31910 -0.06902
 H33 H 0.32029 0.31949 0.01530
 H34 H 0.32138 0.34509 -0.06922
 C35 C 0.72081 0.64103 0.00952
 C36 C 0.72093 0.64118 -0.00958
 C37 C 0.70552 0.65084 -0.01516
 N38 N 0.69597 0.65648 -0.00012
 C39 C 0.70533 0.65061 0.01499
 C40 C 0.69986 0.65312 -0.03382
 C41 C 0.68490 0.66412 -0.03936
 C42 C 0.67708 0.66394 -0.05697
 C43 C 0.66362 0.67712 -0.05703
 C44 C 0.66357 0.68502 -0.03944
 N45 N 0.67671 0.67711 -0.02884
 C46 C 0.65225 0.69978 -0.03395
 C47 C 0.64994 0.70542 -0.01527
 C48 C 0.64007 0.72070 -0.00965
 C49 C 0.63996 0.72053 0.00944
 C50 C 0.64978 0.70518 0.01490
 N51 N 0.65576 0.69593 -0.00022
 C52 C 0.65187 0.69927 0.03350
 C53 C 0.66314 0.68450 0.03900
 C54 C 0.66297 0.67645 0.05650
 C55 C 0.67642 0.66327 0.05653
 C56 C 0.68445 0.66360 0.03904
 N57 N 0.67639 0.67670 0.02852
 C58 C 0.69944 0.65262 0.03359
 H59 H 0.73084 0.63441 0.01836
 H60 H 0.73108 0.63470 -0.01835
 H61 H 0.68098 0.68140 0.01571
 H62 H 0.68075 0.65529 -0.06863
 H63 H 0.65493 0.68057 -0.06874
 H64 H 0.63340 0.73077 -0.01840
 H65 H 0.63320 0.73045 0.01828
 H66 H 0.67995 0.65450 0.06815
 H67 H 0.68117 0.68167 -0.01592
 H68 H 0.65414 0.67981 0.06810
 C69 C 0.71469 0.36739 1.01122
 C70 C 0.71441 0.36800 0.99216
 C71 C 0.70117 0.35559 0.98637
 N72 N 0.69339 0.34748 1.00132
 C73 C 0.70157 0.35464 1.01656
 C74 C 0.69684 0.35188 0.96752
 C75 C 0.68386 0.33875 0.96137
 C76 C 0.68137 0.33376 0.94290
 C77 C 0.66796 0.32053 0.94260
 C78 C 0.66256 0.31773 0.96090
 N79 N 0.67213 0.32911 0.97219
 C80 C 0.64916 0.30478 0.96646
 C81 C 0.64522 0.29996 0.98512
 C82 C 0.63269 0.28663 0.99037
 C83 C 0.63313 0.28582 1.00943
 C84 C 0.64587 0.29872 1.01528
 N85 N 0.65323 0.30729 1.00038
 C86 C 0.64975 0.30285 1.03411
 C87 C 0.66223 0.31648 1.04020
 C88 C 0.66363 0.32249 1.05848
 C89 C 0.67683 0.33588 1.05881
 C90 C 0.68326 0.33779 1.04071
 N91 N 0.67448 0.32566 1.02953
 C92 C 0.69691 0.35055 1.03524
 H93 H 0.72345 0.37555 1.02014
 H94 H 0.72304 0.37660 0.98357
 H95 H 0.67764 0.32280 1.01578
 H96 H 0.68861 0.33892 0.93085
 H97 H 0.66295 0.31359 0.93028
 H98 H 0.62413 0.27829 0.98142
 H99 H 0.62485 0.27686 1.01800
 H100 H 0.68106 0.34352 1.07100
 H101 H 0.66992 0.33107 0.98626
 H102 H 0.65577 0.31789 1.07036
 C103 C 0.28070 0.63868 0.99066
 C104 C 0.28065 0.63877 1.00976
 C105 C 0.29586 0.64882 1.01532
 N106 N 0.30521 0.65475 1.00024
 C107 C 0.29592 0.64867 0.98516
 C108 C 0.30161 0.65118 1.03398
 C109 C 0.31635 0.66262 1.03940
 C110 C 0.32443 0.66263 1.05692
 C111 C 0.33747 0.67623 1.05687
 C112 C 0.33705 0.68421 1.03932
 N113 N 0.32404 0.67592 1.02884
 C114 C 0.34785 0.69939 1.03380
 C115 C 0.34984 0.70517 1.01512
 C116 C 0.35919 0.72079 1.00948
 C117 C 0.35919 0.72067 0.99038
 C118 C 0.34983 0.70500 0.98496
 N119 N 0.34424 0.69551 1.00010
 C120 C 0.34782 0.69904 0.96637
 C121 C 0.33701 0.68387 0.96096
 C122 C 0.33735 0.67582 0.94347
 C123 C 0.32431 0.66220 0.94351
 C124 C 0.31634 0.66229 0.96104
 N125 N 0.32405 0.67565 0.97151
 C126 C 0.30169 0.65086 0.96654
 H127 H 0.27080 0.63182 0.98185
 H128 H 0.27071 0.63198 1.01855
 H129 H 0.31936 0.68020 0.98433
 H130 H 0.32117 0.65382 1.06858
 H131 H 0.34619 0.67991 1.06848
 H132 H 0.36559 0.73106 1.01822
 H133 H 0.36557 0.73082 0.98152
 H134 H 0.32100 0.65332 0.93191
 H135 H 0.31930 0.68042 1.01600
 H136 H 0.34602 0.67945 0.93182
 C137 C -0.00926 0.29160 0.37162
 C138 C 0.00951 0.29163 0.37131
 C139 C 0.01466 0.30135 0.35557
 N140 N -0.00034 0.30711 0.34620
 C141 C -0.01500 0.30130 0.35604
 C142 C 0.03291 0.30370 0.34953
 C143 C 0.03806 0.31487 0.33435
 C144 C 0.05528 0.31495 0.32621
 C145 C 0.05507 0.32837 0.31275
 C146 C 0.03773 0.33612 0.31302
 N147 N 0.02751 0.32789 0.32631
 C148 C 0.03219 0.35113 0.30194
 C149 C 0.01382 0.35684 0.29990
 C150 C 0.00829 0.37238 0.29032
 C151 C -0.01049 0.37243 0.29062
 C152 C -0.01585 0.35689 0.30037
 N153 N -0.00095 0.34734 0.30588
 C154 C -0.03419 0.35121 0.30296
 C155 C -0.03941 0.33612 0.31417
 C156 C -0.05674 0.32826 0.31433
 C157 C -0.05653 0.31482 0.32776
 C158 C -0.03909 0.31480 0.33548
 N159 N -0.02881 0.32790 0.32719
 C160 C -0.03347 0.30360 0.35053
 H161 H -0.01773 0.28500 0.38202
 H162 H 0.01835 0.28508 0.38143
 H163 H -0.01605 0.33240 0.33163
 H164 H 0.06685 0.30636 0.32973
 H165 H 0.06646 0.33210 0.30390
 H166 H 0.01688 0.38254 0.28365
 H167 H -0.01920 0.38264 0.28420
 H168 H -0.06799 0.30617 0.33154
 H169 H 0.01488 0.33234 0.33107
 H170 H -0.06838 0.33195 0.30578
 C171 C -0.00846 0.64052 0.72191
 C172 C 0.01032 0.64041 0.72191
 C173 C 0.01580 0.65018 0.70631
 N174 N 0.00099 0.65612 0.69674
 C175 C -0.01387 0.65034 0.70629
 C176 C 0.03413 0.65227 0.70047
 C177 C 0.03961 0.66347 0.68543
 C178 C 0.05687 0.66325 0.67739
 C179 C 0.05698 0.67667 0.66393
 C180 C 0.03978 0.68472 0.66410
 N181 N 0.02935 0.67670 0.67736
 C182 C 0.03451 0.69972 0.65286
 C183 C 0.01624 0.70565 0.65064
 C184 C 0.01093 0.72113 0.64082
 C185 C -0.00785 0.72130 0.64083
 C186 C -0.01342 0.70591 0.65066
 N187 N 0.00133 0.69632 0.65653
 C188 C -0.03179 0.70028 0.65288
 C189 C -0.03731 0.68532 0.66405
 C190 C -0.05464 0.67751 0.66376
 C191 C -0.05477 0.66404 0.67716
 C192 C -0.03751 0.66398 0.68531
 N193 N -0.02703 0.67711 0.67733
 C194 C -0.03221 0.65266 0.70039
 H195 H -0.01714 0.63390 0.73210
 H196 H 0.01895 0.63370 0.73210
 H197 H -0.01435 0.68157 0.68205
 H198 H 0.06826 0.65442 0.68093
 H199 H 0.06847 0.68016 0.65510
 H200 H 0.01968 0.73113 0.63413
 H201 H -0.01643 0.73145 0.63415
 H202 H -0.06631 0.65536 0.68060
 H203 H 0.01674 0.68133 0.68202
 H204 H -0.06605 0.68119 0.65489
 C205 C 1.00962 0.63943 0.27872
 C206 C 0.99084 0.63976 0.27895
 C207 C 0.98580 0.64963 0.29461
 N208 N 1.00086 0.65523 0.30400
 C209 C 1.01547 0.64912 0.29428
 C210 C 0.96759 0.65217 0.30066
 C211 C 0.96257 0.66352 0.31574
 C212 C 0.94538 0.66375 0.32394
 C213 C 0.94576 0.67721 0.33735
 C214 C 0.96318 0.68483 0.33699
 N215 N 0.97326 0.67651 0.32366
 C216 C 0.96896 0.69973 0.34810
 C217 C 0.98741 0.70521 0.35010
 C218 C 0.99320 0.72063 0.35974
 C219 C 1.01198 0.72033 0.35958
 C220 C 1.01707 0.70470 0.34985
 N221 N 1.00202 0.69545 0.34419
 C222 C 1.03530 0.69857 0.34754
 C223 C 1.04028 0.68343 0.33633
 C224 C 1.05737 0.67510 0.33645
 C225 C 1.05699 0.66168 0.32302
 C226 C 1.03967 0.66213 0.31501
 N227 N 1.02965 0.67553 0.32312
 C228 C 1.03393 0.65100 0.29995
 H229 H 1.01801 0.63261 0.26843
 H230 H 0.98193 0.63326 0.26886
 H231 H 1.01708 0.68034 0.31850
 H232 H 0.93372 0.65521 0.32053
 H233 H 0.93446 0.68103 0.34627
 H234 H 0.98478 0.73092 0.36640
 H235 H 1.02087 0.73033 0.36611
 H236 H 1.06823 0.65269 0.31946
 H237 H 0.98595 0.68082 0.31887
 H238 H 1.06897 0.67843 0.34523
 C239 C 1.00970 0.36545 0.71666
 C240 C 0.99098 0.36470 0.71761
 C241 C 0.98538 0.35141 0.70502
 N242 N 1.00011 0.34399 0.69651
 C243 C 1.01504 0.35252 0.70356
 C244 C 0.96689 0.34702 0.70115
 C245 C 0.96098 0.33399 0.68781
 C246 C 0.94293 0.33192 0.68207
 C247 C 0.94274 0.31834 0.66884
 C248 C 0.96067 0.31240 0.66677
 N249 N 0.97164 0.32179 0.67865
 C250 C 0.96619 0.29864 0.65405
 C251 C 0.98457 0.29433 0.64970
 C252 C 0.98985 0.28119 0.63682
 C253 C 1.00859 0.28179 0.63597
 C254 C 1.01421 0.29524 0.64838
 N255 N 0.99949 0.30284 0.65673
 C256 C 1.03270 0.29988 0.65197
 C257 C 1.03864 0.31311 0.66511
 C258 C 1.05679 0.31575 0.67020
 C259 C 1.05702 0.32943 0.68332
 C260 C 1.03899 0.33489 0.68598
 N261 N 1.02793 0.32503 0.67459
 C262 C 1.03344 0.34865 0.69874
 H263 H 1.01840 0.37445 0.72477
 H264 H 0.98247 0.37315 0.72646
 H265 H 1.01411 0.32724 0.67239
 H266 H 0.93112 0.33959 0.68673
 H267 H 0.93074 0.31358 0.66139
 H268 H 0.98112 0.27219 0.62874
 H269 H 1.01709 0.27322 0.62724
 H270 H 1.06912 0.33463 0.69028
 H271 H 0.98531 0.31911 0.68134
 H272 H 1.06868 0.30842 0.66516
 C273 C 0.35763 0.00913 0.27660
 C274 C 0.35766 -0.00968 0.27664
 C275 C 0.34761 -0.01513 0.29205
 N276 N 0.34155 -0.00029 0.30145
 C277 C 0.34755 0.01456 0.29199
 C278 C 0.34539 -0.03346 0.29793
 C279 C 0.33398 -0.03890 0.31281
 C280 C 0.33410 -0.05616 0.32092
 C281 C 0.32057 -0.05623 0.33421
 C282 C 0.31251 -0.03899 0.33388
 N283 N 0.32067 -0.02860 0.32066
 C284 C 0.29742 -0.03363 0.34495
 C285 C 0.29157 -0.01526 0.34701
 C286 C 0.27602 -0.00978 0.35661
 C287 C 0.27605 0.00902 0.35658
 C288 C 0.29159 0.01444 0.34697
 N289 N 0.30109 -0.00041 0.34124
 C290 C 0.29742 0.03278 0.34487
 C291 C 0.31244 0.03821 0.33380
 C292 C 0.32038 0.05550 0.33411
 C293 C 0.33389 0.05554 0.32079
 C294 C 0.33385 0.03827 0.31270
 N295 N 0.32063 0.02787 0.32059
 C296 C 0.34525 0.03289 0.29780
 H297 H 0.36447 0.01780 0.26655
 H298 H 0.36454 -0.01834 0.26662
 H299 H 0.31612 0.01520 0.31586
 H300 H 0.34296 -0.06757 0.31755
 H301 H 0.31699 -0.06770 0.34305
 H302 H 0.26587 -0.01844 0.36318
 H303 H 0.26592 0.01770 0.36313
 H304 H 0.34267 0.06702 0.31739
 H305 H 0.31613 -0.01597 0.31590
 H306 H 0.31674 0.06695 0.34294
 C307 C 0.63809 0.00903 0.71978
 C308 C 0.63798 -0.00977 0.71997
 C309 C 0.64782 -0.01543 0.70448
 N310 N 0.65381 -0.00069 0.69483
 C311 C 0.64800 0.01428 0.70421
 C312 C 0.65000 -0.03387 0.69881
 C313 C 0.66125 -0.03940 0.68379
 C314 C 0.66112 -0.05675 0.67581
 C315 C 0.67457 -0.05687 0.66243
 C316 C 0.68258 -0.03962 0.66258
 N317 N 0.67448 -0.02913 0.67573
 C318 C 0.69761 -0.03437 0.65141
 C319 C 0.70352 -0.01607 0.64912
 C320 C 0.71903 -0.01078 0.63937
 C321 C 0.71917 0.00802 0.63926
 C322 C 0.70373 0.01361 0.64894
 N323 N 0.69415 -0.00114 0.65484
 C324 C 0.69810 0.03200 0.65101
 C325 C 0.68313 0.03757 0.66210
 C326 C 0.67537 0.05491 0.66177
 C327 C 0.66188 0.05507 0.67512
 C328 C 0.66175 0.03781 0.68324
 N329 N 0.67486 0.02730 0.67534
 C330 C 0.65040 0.03257 0.69824
 H331 H 0.63144 0.01783 0.72984
 H332 H 0.63122 -0.01830 0.73020
 H333 H 0.67925 0.01462 0.68010
 H334 H 0.65232 -0.06818 0.67935
 H335 H 0.67813 -0.06841 0.65369
 H336 H 0.72908 -0.01955 0.63281
 H337 H 0.72934 0.01659 0.63259
 H338 H 0.65323 0.06663 0.67853
 H339 H 0.67907 -0.01645 0.68035
 H340 H 0.67911 0.06632 0.65292
 C341 C 0.36022 0.99065 0.72173
 C342 C 0.36000 1.00944 0.72212
 C343 C 0.34972 1.01508 0.70688
 N344 N 0.34376 1.00034 0.69721
 C345 C 0.35005 0.98539 0.70630
 C346 C 0.34719 1.03353 0.70140
 C347 C 0.33559 1.03902 0.68661
 C348 C 0.33538 1.05639 0.67870
 C349 C 0.32173 1.05640 0.66548
 C350 C 0.31394 1.03905 0.66566
 N351 N 0.32235 1.02862 0.67869
 C352 C 0.29885 1.03363 0.65461
 C353 C 0.29309 1.01528 0.65239
 C354 C 0.27749 1.00985 0.64281
 C355 C 0.27758 0.99105 0.64261
 C356 C 0.29322 0.98560 0.65207
 N357 N 0.30272 1.00044 0.65792
 C358 C 0.29916 0.96728 0.65390
 C359 C 0.31441 0.96185 0.66469
 C360 C 0.32248 0.94466 0.66402
 C361 C 0.33628 0.94463 0.67708
 C362 C 0.33626 0.96180 0.68539
 N363 N 0.32277 0.97213 0.67788
 C364 C 0.34791 0.96713 0.70016
 H365 H 0.36727 0.98187 0.73155
 H366 H 0.36687 1.01799 0.73229
 H367 H 0.31827 0.98469 0.68285
 H368 H 0.34411 1.06791 0.68216
 H369 H 0.31792 1.06792 0.65680
 H370 H 0.26725 1.01852 0.63640
 H371 H 0.26742 0.98239 0.63602
 H372 H 0.34524 0.93321 0.68017
 H373 H 0.31800 1.01586 0.68330
 H374 H 0.31877 0.93328 0.65510
 C375 C 0.72300 1.00912 0.35765
 C376 C 0.72289 0.99032 0.35769
 C377 C 0.70714 0.98494 0.34836
 N378 N 0.69759 0.99982 0.34274
 C379 C 0.70729 1.01464 0.34830
 C380 C 0.70120 0.96661 0.34638
 C381 C 0.68596 0.96123 0.33555
 C382 C 0.67799 0.94396 0.33597
 C383 C 0.66424 0.94396 0.32285
 C384 C 0.66418 0.96124 0.31477
 N385 N 0.67757 0.97160 0.32247
 C386 C 0.65257 0.96665 0.30002
 C387 C 0.65025 0.98499 0.29421
 C388 C 0.64003 0.99040 0.27888
 C389 C 0.64005 1.00919 0.27885
 C390 C 0.65027 1.01469 0.29418
 N391 N 0.65639 0.99985 0.30358
 C392 C 0.65262 1.03306 0.30001
 C393 C 0.66429 1.03845 0.31478
 C394 C 0.66440 1.05571 0.32294
 C395 C 0.67819 1.05570 0.33600
 C396 C 0.68618 1.03843 0.33550
 N397 N 0.67771 1.02809 0.32242
 C398 C 0.70149 1.03303 0.34628
 H399 H 0.73332 1.01774 0.36402
 H400 H 0.73311 0.98161 0.36408
 H401 H 0.68213 1.01545 0.31758
 H402 H 0.68175 0.93249 0.34474
 H403 H 0.65537 0.93251 0.31956
 H404 H 0.63307 0.98172 0.26889
 H405 H 0.63309 1.01784 0.26884
 H406 H 0.68199 1.06715 0.34478
 H407 H 0.68201 0.98426 0.31767
 H408 H 0.65554 1.06717 0.31973
 O409 O 0.84523 0.81944 0.48261
 O410 O 0.81858 0.84390 0.51822
 O411 O 0.84439 0.81927 0.51874
 O412 O 0.81940 0.84408 0.48205
 O413 O 0.79848 0.82215 0.48137
 O414 O 0.82351 0.79729 0.51814
 O415 O 0.79764 0.82198 0.51762
 O416 O 0.82436 0.79745 0.48193
 Cu417 Cu 0.83399 0.83389 0.50047
 Cu418 Cu 0.80888 0.80751 0.49970
 C419 C 0.83937 0.80427 0.47634
 C420 C 0.80359 0.83713 0.52389
 C421 C 0.83824 0.80405 0.52456
 C422 C 0.80469 0.83736 0.47557
 O423 O 0.17980 0.15433 0.51710
 O424 O 0.15469 0.18003 0.48117
 O425 O 0.17997 0.15488 0.48094
 O426 O 0.15449 0.17945 0.51732
 O427 O 0.17581 0.20100 0.51786
 O428 O 0.20135 0.17636 0.48139
 O429 O 0.17601 0.20158 0.48162
 O430 O 0.20118 0.17581 0.51764
 Cu431 Cu 0.16509 0.16500 0.49908
 Cu432 Cu 0.19075 0.19087 0.49968
 C433 C 0.19475 0.16068 0.52340
 C434 C 0.16105 0.19517 0.47538
 C435 C 0.19498 0.16142 0.47506
 C436 C 0.16079 0.19440 0.52368
 O437 O 0.15693 0.81749 0.51750
 O438 O 0.18121 0.84346 0.48124
 O439 O 0.15694 0.81728 0.48134
 O440 O 0.18126 0.84363 0.51738
 O441 O 0.20346 0.82304 0.51757
 O442 O 0.17908 0.79662 0.48143
 O443 O 0.20342 0.82288 0.48133
 O444 O 0.17906 0.79682 0.51769
 Cu445 Cu 0.16685 0.83254 0.49935
 Cu446 Cu 0.19349 0.80775 0.49952
 C447 C 0.16383 0.80275 0.52367
 C448 C 0.19644 0.83763 0.47522
 C449 C 0.16385 0.80248 0.47534
 C450 C 0.19650 0.83786 0.52349
 O451 O 0.84424 0.18040 0.51833
 O452 O 0.82039 0.15504 0.48125
 O453 O 0.84521 0.18074 0.48220
 O454 O 0.81943 0.15474 0.51736
 O455 O 0.79764 0.17577 0.51696
 O456 O 0.82350 0.20185 0.48169
 O457 O 0.79861 0.17607 0.48075
 O458 O 0.82253 0.20151 0.51793
 Cu459 Cu 0.83451 0.16561 0.49982
 Cu460 Cu 0.80837 0.19094 0.49928
 C461 C 0.83747 0.19526 0.52435
 C462 C 0.80543 0.16119 0.47481
 C463 C 0.83878 0.19572 0.47608
 C464 C 0.80415 0.16080 0.52304
 O465 O 0.48231 0.84245 0.81690
 O466 O 0.51738 0.81716 0.84319
 O467 O 0.51783 0.84246 0.81759
 O468 O 0.48180 0.81715 0.84252
 O469 O 0.48212 0.79572 0.82075
 O470 O 0.51823 0.82108 0.79577
 O471 O 0.51779 0.79571 0.82144
 O472 O 0.48262 0.82108 0.79506
 Cu473 Cu 0.49979 0.83195 0.83225
 Cu474 Cu 0.50022 0.80622 0.80606
 C475 C 0.47663 0.83612 0.80149
 C476 C 0.52347 0.80215 0.83681
 C477 C 0.52404 0.83611 0.80243
 C478 C 0.47592 0.80214 0.83589
 O479 O 0.51830 0.18150 0.15775
 O480 O 0.48213 0.15617 0.18243
 O481 O 0.48277 0.18174 0.15714
 O482 O 0.51769 0.15589 0.18306
 O483 O 0.51759 0.17699 0.20517
 O484 O 0.48255 0.20293 0.17915
 O485 O 0.48192 0.17729 0.20451
 O486 O 0.51818 0.20267 0.17979
 Cu487 Cu 0.50025 0.16669 0.16788
 Cu488 Cu 0.50005 0.19211 0.19439
 C489 C 0.52426 0.19641 0.16452
 C490 C 0.47595 0.16241 0.19765
 C491 C 0.47681 0.19672 0.16370
 C492 C 0.52348 0.16200 0.19852
 O493 O 0.51856 0.15679 0.81785
 O494 O 0.48306 0.18158 0.84396
 O495 O 0.48301 0.15595 0.81872
 O496 O 0.51861 0.18246 0.84308
 O497 O 0.51760 0.20357 0.82101
 O498 O 0.48191 0.17700 0.79659
 O499 O 0.48196 0.20270 0.82190
 O500 O 0.51755 0.17783 0.79571
 Cu501 Cu 0.50092 0.16707 0.83313
 Cu502 Cu 0.49965 0.19241 0.80656
 C503 C 0.52399 0.16306 0.80234
 C504 C 0.47656 0.19635 0.83740
 C505 C 0.47649 0.16194 0.80351
 C506 C 0.52406 0.19752 0.83622
 O507 O 0.48183 0.81764 0.15677
 O508 O 0.51755 0.84267 0.18246
 O509 O 0.51736 0.81713 0.15707
 O510 O 0.48203 0.84307 0.18218
 O511 O 0.48155 0.82188 0.20420
 O512 O 0.51699 0.79586 0.17900
 O513 O 0.51718 0.82149 0.20449
 O514 O 0.48134 0.79636 0.17869
 Cu515 Cu 0.49975 0.83226 0.16740
 Cu516 Cu 0.49924 0.80674 0.19382
 C517 C 0.47560 0.80275 0.16333
 C518 C 0.52330 0.83641 0.19787
 C519 C 0.52306 0.80207 0.16370
 C520 C 0.47589 0.83692 0.19746
 O521 O 0.81946 0.48359 0.84464
 O522 O 0.84552 0.51864 0.81910
 O523 O 0.81991 0.51915 0.84425
 O524 O 0.84513 0.48304 0.81950
 O525 O 0.82413 0.48297 0.79727
 O526 O 0.79881 0.51920 0.82212
 O527 O 0.82452 0.51868 0.79688
 O528 O 0.79837 0.48353 0.82250
 Cu529 Cu 0.83463 0.50110 0.83409
 Cu530 Cu 0.80933 0.50108 0.80744
 C531 C 0.80447 0.47772 0.83797
 C532 C 0.83947 0.52454 0.80366
 C533 C 0.80507 0.52521 0.83745
 C534 C 0.83896 0.47696 0.80418
 O535 O 0.18311 0.48221 0.15566
 O536 O 0.15644 0.51731 0.18044
 O537 O 0.18249 0.51781 0.15568
 O538 O 0.15705 0.48172 0.18042
 O539 O 0.17771 0.48205 0.20296
 O540 O 0.20321 0.51822 0.17817
 O541 O 0.17709 0.51772 0.20298
 O542 O 0.20383 0.48254 0.17815
 Cu543 Cu 0.16769 0.49972 0.16578
 Cu544 Cu 0.19255 0.50017 0.19284
 C545 C 0.19801 0.47651 0.16266
 C546 C 0.16220 0.52338 0.19593
 C547 C 0.19718 0.52405 0.16269
 C548 C 0.16302 0.47586 0.19591
 O549 O 0.81672 0.51795 0.15780
 O550 O 0.84199 0.48227 0.18333
 O551 O 0.81614 0.48234 0.15829
 O552 O 0.84259 0.51787 0.18282
 O553 O 0.82178 0.51855 0.20514
 O554 O 0.79525 0.48293 0.18055
 O555 O 0.82116 0.48286 0.20564
 O556 O 0.79584 0.51862 0.18006
 Cu557 Cu 0.83146 0.50005 0.16832
 Cu558 Cu 0.80640 0.50080 0.19510
 C559 C 0.80199 0.52426 0.16457
 C560 C 0.83589 0.47659 0.19882
 C561 C 0.80120 0.47668 0.16523
 C562 C 0.83671 0.52416 0.19814
 O563 O 0.15754 0.48042 0.81781
 O564 O 0.18299 0.51600 0.84338
 O565 O 0.15710 0.51601 0.81837
 O566 O 0.18343 0.48039 0.84282
 O567 O 0.20431 0.48098 0.82056
 O568 O 0.17791 0.51669 0.79604
 O569 O 0.20385 0.51667 0.82111
 O570 O 0.17836 0.48102 0.79549
 Cu571 Cu 0.16817 0.49814 0.83284
 Cu572 Cu 0.19322 0.49890 0.80605
 C573 C 0.16360 0.47477 0.80230
 C574 C 0.19774 0.52230 0.83661
 C575 C 0.16300 0.52232 0.80305
 C576 C 0.19834 0.47471 0.83588
 C577 C 0.29388 0.35999 0.04703
 C578 C 0.28631 0.36938 0.05848
 C579 C 0.27718 0.38092 0.07179
 C580 C 0.27883 0.39998 0.07047
 C581 C 0.26955 0.41131 0.08298
 C582 C 0.25845 0.40371 0.09700
 C583 C 0.25698 0.38451 0.09830
 C584 C 0.26629 0.37320 0.08577
 C585 C 0.24813 0.41581 0.10989
 C586 C 0.22993 0.41168 0.11477
 C587 C 0.21996 0.42354 0.12619
 C588 C 0.22804 0.43963 0.13293
 C589 C 0.24622 0.44371 0.12841
 C590 C 0.25622 0.43189 0.11697
 C591 C 0.21748 0.45233 0.14386
 C592 C 0.20860 0.46323 0.15265
 H593 H 0.28715 0.40610 0.05964
 H594 H 0.27075 0.42602 0.08142
 H595 H 0.24869 0.37825 0.10906
 H596 H 0.26493 0.35845 0.08692
 H597 H 0.22325 0.39954 0.10935
 H598 H 0.20585 0.42030 0.12953
 H599 H 0.25262 0.45613 0.13354
 H600 H 0.27027 0.43532 0.11367
 C601 C 0.70888 0.64213 0.04779
 C602 C 0.71687 0.63316 0.05931
 C603 C 0.72657 0.62216 0.07270
 C604 C 0.74478 0.61723 0.06936
 C605 C 0.75409 0.60597 0.08195
 C606 C 0.74528 0.59946 0.09806
 C607 C 0.72701 0.60464 0.10138
 C608 C 0.71773 0.61592 0.08877
 C609 C 0.75499 0.58693 0.11104
 C610 C 0.74589 0.57170 0.11875
 C611 C 0.75526 0.55943 0.13028
 C612 C 0.77381 0.56223 0.13430
 C613 C 0.78291 0.57748 0.12695
 C614 C 0.77357 0.58976 0.11540
 C615 C 0.78367 0.54908 0.14539
 C616 C 0.79200 0.53786 0.15434
 H617 H 0.75172 0.62189 0.05690
 H618 H 0.76804 0.60202 0.07885
 H619 H 0.71993 0.60002 0.11376
 H620 H 0.70363 0.61967 0.09148
 H621 H 0.73166 0.56901 0.11546
 H622 H 0.74811 0.54761 0.13581
 H623 H 0.79727 0.57978 0.12998
 H624 H 0.78089 0.60148 0.10988
 C625 C 0.70690 0.36203 0.95349
 C626 C 0.71546 0.37086 0.94229
 C627 C 0.72592 0.38187 0.92954
 C628 C 0.74161 0.39097 0.93587
 C629 C 0.75146 0.40233 0.92385
 C630 C 0.74573 0.40480 0.90531
 C631 C 0.73008 0.39537 0.89898
 C632 C 0.72022 0.38400 0.91105
 C633 C 0.75585 0.41746 0.89282
 C634 C 0.75908 0.41285 0.87408
 C635 C 0.76878 0.42482 0.86246
 C636 C 0.77530 0.44153 0.86942
 C637 C 0.77205 0.44625 0.88800
 C638 C 0.76240 0.43433 0.89961
 C639 C 0.78546 0.45387 0.85770
 C640 C 0.79409 0.46457 0.84840
 H641 H 0.74615 0.38939 0.95015
 H642 H 0.76360 0.40917 0.92906
 H643 H 0.72523 0.39714 0.88484
 H644 H 0.70804 0.37707 0.90603
 H645 H 0.75437 0.39989 0.86850
 H646 H 0.77126 0.42101 0.84811
 H647 H 0.77698 0.45918 0.89351
 H648 H 0.75988 0.43841 0.91388
 C649 C 0.29250 0.64010 0.95236
 C650 C 0.28476 0.63091 0.94081
 C651 C 0.27543 0.61965 0.92736
 C652 C 0.28222 0.60224 0.92305
 C653 C 0.27278 0.59093 0.91059
 C654 C 0.25637 0.59690 0.90228
 C655 C 0.24977 0.61453 0.90653
 C656 C 0.25925 0.62581 0.91900
 C657 C 0.24595 0.58458 0.88965
 C658 C 0.22673 0.58355 0.89076
 C659 C 0.21697 0.57139 0.87942
 C660 C 0.22625 0.56014 0.86681
 C661 C 0.24533 0.56123 0.86541
 C662 C 0.25513 0.57337 0.87674
 C663 C 0.21623 0.54704 0.85578
 C664 C 0.20780 0.53586 0.84686
 H665 H 0.29468 0.59729 0.92953
 H666 H 0.27808 0.57735 0.90781
 H667 H 0.23730 0.61960 0.90020
 H668 H 0.25387 0.63928 0.92224
 H669 H 0.21929 0.59180 0.90072
 H670 H 0.20221 0.57059 0.88069
 H671 H 0.25265 0.55258 0.85568
 H672 H 0.26988 0.57400 0.87539
 C673 C 0.04711 0.29368 0.35929
 C674 C 0.05860 0.28520 0.36774
 C675 C 0.07189 0.27492 0.37820
 C676 C 0.07255 0.25582 0.37655
 C677 C 0.08469 0.24568 0.38753
 C678 C 0.09631 0.25452 0.40035
 C679 C 0.09578 0.27376 0.40165
 C680 C 0.08362 0.28388 0.39066
 C681 C 0.10846 0.24369 0.41277
 C682 C 0.12631 0.24976 0.41692
 C683 C 0.13745 0.23981 0.42915
 C684 C 0.13089 0.22370 0.43737
 C685 C 0.11323 0.21748 0.43320
 C686 C 0.10209 0.22738 0.42099
 C687 C 0.14200 0.21376 0.45048
 C688 C 0.15092 0.20532 0.46172
 H689 H 0.06352 0.24875 0.36696
 H690 H 0.08495 0.23091 0.38603
 H691 H 0.10437 0.28096 0.41155
 H692 H 0.08313 0.29865 0.39212
 H693 H 0.13168 0.26215 0.41066
 H694 H 0.15111 0.24475 0.43228
 H695 H 0.10798 0.20508 0.43956
 H696 H 0.08832 0.22249 0.41831
 C697 C 0.04857 0.70915 0.64234
 C698 C 0.06002 0.71711 0.63335
 C699 C 0.07336 0.72676 0.62236
 C700 C 0.07058 0.74522 0.61792
 C701 C 0.08313 0.75449 0.60666
 C702 C 0.09864 0.74540 0.59965
 C703 C 0.10141 0.72688 0.60435
 C704 C 0.08884 0.71763 0.61564
 C705 C 0.11154 0.75509 0.58706
 C706 C 0.11865 0.74622 0.57125
 C707 C 0.13005 0.75564 0.55888
 C708 C 0.13454 0.77401 0.56217
 C709 C 0.12781 0.78286 0.57802
 C710 C 0.11639 0.77348 0.59040
 C711 C 0.14537 0.78400 0.54886
 C712 C 0.15403 0.79249 0.53748
 H713 H 0.05858 0.75238 0.62296
 H714 H 0.08046 0.76866 0.60307
 H715 H 0.11332 0.71957 0.59934
 H716 H 0.09113 0.70333 0.61901
 H717 H 0.11498 0.73216 0.56816
 H718 H 0.13509 0.74868 0.54659
 H719 H 0.13119 0.79709 0.58070
 H720 H 0.11134 0.78061 0.60257
 C721 C 0.95528 0.70958 0.35873
 C722 C 0.94424 0.71795 0.36784
 C723 C 0.93150 0.72815 0.37903
 C724 C 0.93641 0.74546 0.38580
 C725 C 0.92443 0.75517 0.39727
 C726 C 0.90733 0.74769 0.40217
 C727 C 0.90240 0.73037 0.39510
 C728 C 0.91444 0.72066 0.38362
 C729 C 0.89490 0.75776 0.41493
 C730 C 0.87587 0.75804 0.41179
 C731 C 0.86426 0.76749 0.42394
 C732 C 0.87151 0.77672 0.43937
 C733 C 0.89040 0.77649 0.44260
 C734 C 0.90202 0.76709 0.43049
 C735 C 0.85968 0.78636 0.45203
 C736 C 0.85017 0.79451 0.46295
 H737 H 0.94958 0.75139 0.38231
 H738 H 0.92851 0.76858 0.40226
 H739 H 0.88944 0.72416 0.39879
 H740 H 0.91054 0.70724 0.37851
 H741 H 0.87000 0.75115 0.39983
 H742 H 0.84965 0.76760 0.42129
 H743 H 0.89615 0.78352 0.45455
 H744 H 0.91656 0.76689 0.43347
 C745 C 0.95200 0.28895 0.64387
 C746 C 0.94050 0.28080 0.63509
 C747 C 0.92714 0.27097 0.62424
 C748 C 0.93055 0.25283 0.61897
 C749 C 0.91804 0.24346 0.60771
 C750 C 0.90194 0.25214 0.60151
 C751 C 0.89853 0.27032 0.60708
 C752 C 0.91107 0.27966 0.61837
 C753 C 0.88911 0.24243 0.58882
 C754 C 0.88121 0.25164 0.57359
 C755 C 0.86993 0.24225 0.56105
 C756 C 0.86635 0.22357 0.56359
 C757 C 0.87387 0.21436 0.57888
 C758 C 0.88517 0.22371 0.59143
 C759 C 0.85567 0.21368 0.55005
 C760 C 0.84713 0.20531 0.53845
 H761 H 0.94301 0.24601 0.62335
 H762 H 0.92120 0.22958 0.60345
 H763 H 0.88617 0.27729 0.60270
 H764 H 0.90831 0.29371 0.62237
 H765 H 0.88417 0.26597 0.57106
 H766 H 0.86426 0.24949 0.54920
 H767 H 0.87120 0.19989 0.58097
 H768 H 0.89086 0.21630 0.60314
 C769 C 0.35591 0.04689 0.28844
 C770 C 0.36504 0.05825 0.28055
 C771 C 0.37624 0.07147 0.27100
 C772 C 0.38162 0.08764 0.27996
 C773 C 0.39310 0.10012 0.27088
 C774 C 0.39934 0.09655 0.25270
 C775 C 0.39368 0.08033 0.24377
 C776 C 0.38223 0.06788 0.25288
 C777 C 0.41209 0.10940 0.24325
 C778 C 0.41018 0.11319 0.22414
 C779 C 0.42270 0.12463 0.21508
 C780 C 0.43726 0.13243 0.22499
 C781 C 0.43913 0.12896 0.24406
 C782 C 0.42662 0.11755 0.25315
 C783 C 0.45067 0.14341 0.21545
 C784 C 0.46211 0.15227 0.20736
 H785 H 0.37705 0.09054 0.29400
 H786 H 0.39705 0.11257 0.27804
 H787 H 0.39846 0.07706 0.22990
 H788 H 0.37823 0.05535 0.24586
 H789 H 0.39901 0.10732 0.21619
 H790 H 0.42112 0.12722 0.20031
 H791 H 0.45041 0.13485 0.25184
 H792 H 0.42860 0.11471 0.26781
 C793 C 0.64003 0.04670 0.70769
 C794 C 0.63118 0.05819 0.71572
 C795 C 0.62036 0.07153 0.72551
 C796 C 0.61443 0.08746 0.71647
 C797 C 0.60338 0.10007 0.72586
 C798 C 0.59813 0.09691 0.74444
 C799 C 0.60433 0.08094 0.75344
 C800 C 0.61535 0.06834 0.74402
 C801 C 0.58587 0.10992 0.75428
 C802 C 0.58877 0.11414 0.77318
 C803 C 0.57669 0.12568 0.78267
 C804 C 0.56158 0.13319 0.77341
 C805 C 0.55874 0.12932 0.75454
 C806 C 0.57080 0.11779 0.74502
 C807 C 0.54858 0.14419 0.78347
 C808 C 0.53747 0.15303 0.79202
 H809 H 0.61825 0.09006 0.70214
 H810 H 0.59900 0.11233 0.71863
 H811 H 0.60031 0.07796 0.76762
 H812 H 0.61979 0.05601 0.75111
 H813 H 0.60036 0.10849 0.78063
 H814 H 0.57902 0.12858 0.79728
 H815 H 0.54702 0.13497 0.74727
 H816 H 0.56806 0.11463 0.73055
 C817 C 0.35905 0.95318 0.70901
 C818 C 0.36866 0.94195 0.71648
 C819 C 0.38056 0.92901 0.72554
 C820 C 0.39724 0.93500 0.73297
 C821 C 0.40893 0.92260 0.74181
 C822 C 0.40408 0.90399 0.74335
 C823 C 0.38725 0.89808 0.73588
 C824 C 0.37557 0.91054 0.72700
 C825 C 0.41654 0.89089 0.75283
 C826 C 0.40959 0.87749 0.76504
 C827 C 0.42147 0.86569 0.77452
 C828 C 0.44040 0.86708 0.77188
 C829 C 0.44741 0.88017 0.75955
 C830 C 0.43559 0.89198 0.75008
 C831 C 0.45277 0.85560 0.78224
 C832 C 0.46348 0.84644 0.79100
 H833 H 0.40120 0.94929 0.73199
 H834 H 0.42165 0.92762 0.74768
 H835 H 0.38322 0.88382 0.73669
 H836 H 0.36269 0.90576 0.72126
 H837 H 0.39502 0.87645 0.76759
 H838 H 0.41590 0.85566 0.78411
 H839 H 0.46205 0.88136 0.75739
 H840 H 0.44133 0.90196 0.74058
 C841 C 0.64169 0.95271 0.29080
 C842 C 0.63228 0.94155 0.28292
 C843 C 0.62063 0.92878 0.27327
 C844 C 0.60879 0.93515 0.25939
 C845 C 0.59704 0.92300 0.25023
 C846 C 0.59696 0.90425 0.25486
 C847 C 0.60906 0.89792 0.26870
 C848 C 0.62080 0.91013 0.27788
 C849 C 0.58413 0.89149 0.24538
 C850 C 0.58985 0.87390 0.23983
 C851 C 0.57777 0.86213 0.23051
 C852 C 0.55984 0.86778 0.22670
 C853 C 0.55398 0.88515 0.23235
 C854 C 0.56601 0.89693 0.24163
 C855 C 0.54742 0.85603 0.21668
 C856 C 0.53662 0.84674 0.20815
 H857 H 0.60858 0.94955 0.25568
 H858 H 0.58810 0.92825 0.23944
 H859 H 0.60919 0.88360 0.27269
 H860 H 0.62989 0.90507 0.28865
 H861 H 0.60376 0.86940 0.24236
 H862 H 0.58246 0.84873 0.22614
 H863 H 0.54012 0.88964 0.22952
 H864 H 0.56111 0.91025 0.24598
 C865 C 0.35820 0.29071 0.95251
 C866 C 0.36707 0.28241 0.94115
 C867 C 0.37805 0.27229 0.92811
 C868 C 0.38137 0.25364 0.93111
 C869 C 0.39283 0.24393 0.91908
 C870 C 0.40118 0.25277 0.90387
 C871 C 0.39750 0.27146 0.90079
 C872 C 0.38603 0.28116 0.91286
 C873 C 0.41407 0.24264 0.89164
 C874 C 0.41405 0.24545 0.87225
 C875 C 0.42642 0.23605 0.86087
 C876 C 0.43897 0.22378 0.86872
 C877 C 0.43906 0.22088 0.88797
 C878 C 0.42671 0.23023 0.89936
 C879 C 0.45194 0.21425 0.85717
 C880 C 0.46305 0.20614 0.84791
 H881 H 0.37527 0.24665 0.94287
 H882 H 0.39517 0.22950 0.92167
 H883 H 0.40388 0.27871 0.88934
 H884 H 0.38362 0.29562 0.91047
 H885 H 0.40436 0.25477 0.86588
 H886 H 0.42622 0.23838 0.84597
 H887 H 0.44877 0.21147 0.89421
 H888 H 0.42728 0.22799 0.91425
 C889 C 0.64230 0.70872 0.95262
 C890 C 0.63326 0.71680 0.94122
 C891 C 0.62208 0.72674 0.92818
 C892 C 0.61517 0.71806 0.91227
 C893 C 0.60353 0.72756 0.90015
 C894 C 0.59862 0.74585 0.90387
 C895 C 0.60589 0.75452 0.91975
 C896 C 0.61751 0.74501 0.93182
 C897 C 0.58561 0.75574 0.89154
 C898 C 0.57198 0.76705 0.89925
 C899 C 0.55963 0.77631 0.88775
 C900 C 0.56070 0.77442 0.86840
 C901 C 0.57418 0.76320 0.86057
 C902 C 0.58656 0.75389 0.87206
 C903 C 0.54784 0.78400 0.85673
 C904 C 0.53684 0.79220 0.84739
 H905 H 0.61854 0.70389 0.90938
 H906 H 0.59800 0.72046 0.88816
 H907 H 0.60259 0.76866 0.92285
 H908 H 0.62279 0.75185 0.94410
 H909 H 0.57070 0.76852 0.91419
 H910 H 0.54920 0.78489 0.89396
 H911 H 0.57514 0.76167 0.84560
 H912 H 0.59701 0.74544 0.86572
 C913 C 0.35760 0.70859 0.04721
 C914 C 0.36643 0.71682 0.05869
 C915 C 0.37732 0.72683 0.07195
 C916 C 0.37941 0.74580 0.07005
 C917 C 0.39075 0.75548 0.08228
 C918 C 0.40021 0.74628 0.09658
 C919 C 0.39778 0.72724 0.09857
 C920 C 0.38642 0.71758 0.08631
 C921 C 0.41300 0.75643 0.10895
 C922 C 0.41399 0.75244 0.12811
 C923 C 0.42633 0.76183 0.13960
 C924 C 0.43785 0.77528 0.13208
 C925 C 0.43691 0.77937 0.11308
 C926 C 0.42460 0.77003 0.10159
 C927 C 0.45085 0.78476 0.14368
 C928 C 0.46201 0.79289 0.15293
 H929 H 0.37242 0.75309 0.05898
 H930 H 0.39213 0.77016 0.08055
 H931 H 0.40504 0.71973 0.10929
 H932 H 0.38497 0.70287 0.08784
 H933 H 0.40512 0.74219 0.13422
 H934 H 0.42693 0.75857 0.15430
 H935 H 0.44582 0.78969 0.10710
 H936 H 0.42439 0.77321 0.08686
 C937 C 0.63931 0.29317 0.04819
 C938 C 0.63042 0.28511 0.05973
 C939 C 0.61954 0.27548 0.07324
 C940 C 0.62621 0.25949 0.08160
 C941 C 0.61532 0.24980 0.09424
 C942 C 0.59761 0.25599 0.09867
 C943 C 0.59113 0.27220 0.09033
 C944 C 0.60202 0.28185 0.07769
 C945 C 0.58573 0.24537 0.11151
 C946 C 0.57448 0.25440 0.12449
 C947 C 0.56266 0.24441 0.13595
 C948 C 0.56194 0.22528 0.13462
 C949 C 0.57327 0.21615 0.12197
 C950 C 0.58511 0.22611 0.11051
 C951 C 0.54901 0.21509 0.14563
 C952 C 0.53788 0.20655 0.15448
 H953 H 0.63976 0.25445 0.07826
 H954 H 0.62078 0.23749 0.10059
 H955 H 0.57747 0.27718 0.09323
 H956 H 0.59669 0.29417 0.07123
 H957 H 0.57481 0.26918 0.12575
 H958 H 0.55393 0.25161 0.14569
 H959 H 0.57274 0.20136 0.12075
 H960 H 0.59341 0.21878 0.10050
 C961 C 0.28915 0.04758 0.64416
 C962 C 0.28088 0.05876 0.63510
 C963 C 0.27076 0.07157 0.62387
 C964 C 0.25234 0.06813 0.61977
 C965 C 0.24267 0.07993 0.60802
 C966 C 0.25131 0.09534 0.60016
 C967 C 0.26976 0.09886 0.60462
 C968 C 0.27943 0.08702 0.61638
 C969 C 0.24125 0.10734 0.58695
 C970 C 0.24341 0.12651 0.58751
 C971 C 0.23402 0.13770 0.57487
 C972 C 0.22241 0.12988 0.56154
 C973 C 0.22018 0.11084 0.56090
 C974 C 0.22952 0.09964 0.57350
 C975 C 0.21282 0.14124 0.54837
 C976 C 0.20464 0.15034 0.53709
 H977 H 0.24551 0.05620 0.62549
 H978 H 0.22842 0.07700 0.60508
 H979 H 0.27685 0.11048 0.59863
 H980 H 0.29372 0.08974 0.61939
 H981 H 0.25220 0.13285 0.59782
 H982 H 0.23583 0.15244 0.57551
 H983 H 0.21128 0.10463 0.55058
 H984 H 0.22779 0.08493 0.57251
 C985 C 0.71084 0.04625 0.35600
 C986 C 0.71921 0.05759 0.36479
 C987 C 0.72939 0.07070 0.37563
 C988 C 0.72031 0.08492 0.38486
 C989 C 0.73013 0.09706 0.39618
 C990 C 0.74918 0.09509 0.39843
 C991 C 0.75820 0.08093 0.38882
 C992 C 0.74836 0.06882 0.37752
 C993 C 0.75950 0.10735 0.41120
 C994 C 0.77321 0.10016 0.42290
 C995 C 0.78263 0.11153 0.43530
 C996 C 0.77852 0.13024 0.43620
 C997 C 0.76500 0.13757 0.42456
 C998 C 0.75554 0.12621 0.41213
 C999 C 0.78793 0.14169 0.44944
 C1000 C 0.79589 0.15085 0.46085
 H1001 H 0.70560 0.08644 0.38356
 H1002 H 0.72276 0.10767 0.40356
 H1003 H 0.77288 0.07921 0.39006
 H1004 H 0.75552 0.05786 0.37043
 H1005 H 0.77638 0.08567 0.42275
 H1006 H 0.79299 0.10569 0.44433
 H1007 H 0.76171 0.15204 0.42514
 H1008 H 0.74520 0.13218 0.40317
 C1009 C 0.70714 0.95153 0.64104
 C1010 C 0.71527 0.94011 0.63217
 C1011 C 0.72519 0.92689 0.62128
 C1012 C 0.71629 0.91140 0.61417
 C1013 C 0.72584 0.89897 0.60298
 C1014 C 0.74443 0.90190 0.59877
 C1015 C 0.75329 0.91743 0.60617
 C1016 C 0.74372 0.92983 0.61733
 C1017 C 0.75447 0.88915 0.58632
 C1018 C 0.77278 0.88440 0.59007
 C1019 C 0.78248 0.87311 0.57784
 C1020 C 0.77403 0.86640 0.56173
 C1021 C 0.75573 0.87080 0.55801
 C1022 C 0.74600 0.88207 0.57023
 C1023 C 0.78433 0.85563 0.54863
 C1024 C 0.79307 0.84698 0.53745
 H1025 H 0.70195 0.90900 0.61715
 H1026 H 0.71870 0.88705 0.59766
 H1027 H 0.76750 0.92023 0.60297
 H1028 H 0.75071 0.94184 0.62267
 H1029 H 0.77960 0.88943 0.60246
 H1030 H 0.79664 0.86979 0.58086
 H1031 H 0.74909 0.86576 0.54552
 H1032 H 0.73201 0.88567 0.56682
 C1033 C 0.28838 0.95315 0.35494
 C1034 C 0.28029 0.94185 0.36402
 C1035 C 0.27042 0.92885 0.37523
 C1036 C 0.25202 0.93204 0.37954
 C1037 C 0.24258 0.91997 0.39121
 C1038 C 0.25145 0.90455 0.39877
 C1039 C 0.26987 0.90130 0.39411
 C1040 C 0.27930 0.91340 0.38243
 C1041 C 0.24164 0.89224 0.41188
 C1042 C 0.24398 0.87311 0.41103
 C1043 C 0.23484 0.86163 0.42358
 C1044 C 0.22330 0.86913 0.43712
 C1045 C 0.22089 0.88812 0.43805
 C1046 C 0.22998 0.89961 0.42553
 C1047 C 0.21399 0.85748 0.45023
 C1048 C 0.20606 0.84816 0.46149
 H1049 H 0.24502 0.94396 0.37404
 H1050 H 0.22834 0.92271 0.39431
 H1051 H 0.27713 0.88967 0.39988
 H1052 H 0.29357 0.91086 0.37925
 H1053 H 0.25272 0.86702 0.40056
 H1054 H 0.23679 0.84693 0.42272
 H1055 H 0.21205 0.89408 0.44853
 H1056 H 0.22812 0.91428 0.42675
 C1057 C 0.04688 0.35864 0.70747
 C1058 C 0.05848 0.36767 0.71518
 C1059 C 0.07200 0.37878 0.72443
 C1060 C 0.08175 0.37182 0.73965
 C1061 C 0.09437 0.38291 0.74906
 C1062 C 0.09738 0.40113 0.74335
 C1063 C 0.08765 0.40791 0.72789
 C1064 C 0.07504 0.39680 0.71852
 C1065 C 0.11023 0.41319 0.75373
 C1066 C 0.12170 0.42553 0.74419
 C1067 C 0.13316 0.43747 0.75403
 C1068 C 0.13334 0.43723 0.77351
 C1069 C 0.12218 0.42483 0.78313
 C1070 C 0.11072 0.41287 0.77332
 C1071 C 0.14440 0.45018 0.78364
 C1072 C 0.15335 0.46127 0.79215
 H1073 H 0.07950 0.35788 0.74433
 H1074 H 0.10180 0.37724 0.76077
 H1075 H 0.08945 0.42193 0.72331
 H1076 H 0.06749 0.40235 0.70681
 H1077 H 0.12180 0.42594 0.72912
 H1078 H 0.14174 0.44701 0.74645
 H1079 H 0.12214 0.42460 0.79821
 H1080 H 0.10188 0.40372 0.78107
 C1081 C 0.04687 0.64088 0.29072
 C1082 C 0.05792 0.63175 0.28241
 C1083 C 0.07065 0.62053 0.27226
 C1084 C 0.08705 0.61486 0.28055
 C1085 C 0.09904 0.60336 0.27085
 C1086 C 0.09472 0.59737 0.25274
 C1087 C 0.07830 0.60335 0.24447
 C1088 C 0.06636 0.61484 0.25418
 C1089 C 0.10705 0.58460 0.24265
 C1090 C 0.09972 0.57006 0.23213
 C1091 C 0.11124 0.55795 0.22271
 C1092 C 0.13025 0.56017 0.22363
 C1093 C 0.13772 0.57459 0.23404
 C1094 C 0.12619 0.58673 0.24351
 C1095 C 0.14198 0.54752 0.21396
 C1096 C 0.15143 0.53665 0.20576
 H1097 H 0.09047 0.61913 0.29459
 H1098 H 0.11146 0.59883 0.27768
 H1099 H 0.07471 0.59920 0.23045
 H1100 H 0.05371 0.61917 0.24762
 H1101 H 0.08506 0.56787 0.23143
 H1102 H 0.10532 0.54679 0.21476
 H1103 H 0.15242 0.57645 0.23483
 H1104 H 0.13224 0.59790 0.25133
 C1105 C 0.95237 0.36065 0.29369
 C1106 C 0.94084 0.36924 0.28541
 C1107 C 0.92749 0.37986 0.27538
 C1108 C 0.93148 0.38614 0.25744
 C1109 C 0.91891 0.39711 0.24788
 C1110 C 0.90217 0.40198 0.25618
 C1111 C 0.89820 0.39543 0.27417
 C1112 C 0.91079 0.38444 0.28369
 C1113 C 0.88919 0.41426 0.24629
 C1114 C 0.88011 0.42837 0.25592
 C1115 C 0.86861 0.44052 0.24643
 C1116 C 0.86598 0.43869 0.22722
 C1117 C 0.87469 0.42452 0.21756
 C1118 C 0.88621 0.41237 0.22702
 C1119 C 0.85495 0.45180 0.21729
 C1120 C 0.84605 0.46300 0.20889
 H1121 H 0.94442 0.38277 0.25092
 H1122 H 0.92249 0.40215 0.23418
 H1123 H 0.88535 0.39878 0.28084
 H1124 H 0.90758 0.37964 0.29759
 H1125 H 0.88230 0.43033 0.27070
 H1126 H 0.86201 0.45150 0.25402
 H1127 H 0.87275 0.42299 0.20268
 H1128 H 0.89281 0.40151 0.21926
 C1129 C 0.95451 0.64276 0.70939
 C1130 C 0.94318 0.63378 0.71752
 C1131 C 0.93017 0.62271 0.72749
 C1132 C 0.91548 0.61450 0.71811
 C1133 C 0.90342 0.60299 0.72770
 C1134 C 0.90595 0.59950 0.74681
 C1135 C 0.92059 0.60806 0.75615
 C1136 C 0.93262 0.61956 0.74654
 C1137 C 0.89372 0.58660 0.75687
 C1138 C 0.90103 0.57411 0.76982
 C1139 C 0.88963 0.56181 0.77918
 C1140 C 0.87077 0.56177 0.77575
 C1141 C 0.86333 0.57413 0.76290
 C1142 C 0.87472 0.58647 0.75350
 C1143 C 0.85922 0.54891 0.78537
 C1144 C 0.84996 0.53790 0.79362
 H1145 H 0.91353 0.61678 0.70333
 H1146 H 0.89241 0.59643 0.72008
 H1147 H 0.92275 0.60587 0.77090
 H1148 H 0.94395 0.62585 0.75393
 H1149 H 0.91562 0.57366 0.77251
 H1150 H 0.89555 0.55224 0.78903
 H1151 H 0.84873 0.57424 0.76016
 H1152 H 0.86867 0.59603 0.74374
 C1153 C 0.70954 0.64288 0.95199
 C1154 C 0.71776 0.63411 0.94051
 C1155 C 0.72781 0.62333 0.92724
 C1156 C 0.71850 0.61249 0.91423
 C1157 C 0.72830 0.60124 0.90203
 C1158 C 0.74755 0.60068 0.90274
 C1159 C 0.75678 0.61189 0.91567
 C1160 C 0.74695 0.62311 0.92784
 C1161 C 0.75796 0.58801 0.89052
 C1162 C 0.77299 0.57818 0.89762
 C1163 C 0.78253 0.56588 0.88634
 C1164 C 0.77722 0.56323 0.86781
 C1165 C 0.76236 0.57301 0.86055
 C1166 C 0.75277 0.58534 0.87183
 C1167 C 0.78685 0.55013 0.85651
 C1168 C 0.79509 0.53889 0.84752
 H1169 H 0.70367 0.61249 0.91372
 H1170 H 0.72080 0.59262 0.89240
 H1171 H 0.77159 0.61196 0.91638
 H1172 H 0.75429 0.63146 0.93787
 H1173 H 0.77714 0.57970 0.91201
 H1174 H 0.79395 0.55830 0.89213
 H1175 H 0.75814 0.57106 0.84622
 H1176 H 0.74138 0.59285 0.86591
 C1177 C 0.29318 0.35776 0.95194
 C1178 C 0.28517 0.36657 0.94029
 C1179 C 0.27543 0.37738 0.92678
 C1180 C 0.28460 0.38467 0.91137
 C1181 C 0.27524 0.39582 0.89869
 C1182 C 0.25656 0.39981 0.90129
 C1183 C 0.24743 0.39222 0.91672
 C1184 C 0.25682 0.38111 0.92938
 C1185 C 0.24674 0.41226 0.88833
 C1186 C 0.22855 0.40858 0.88300
 C1187 C 0.21901 0.42081 0.87156
 C1188 C 0.22752 0.43685 0.86528
 C1189 C 0.24570 0.44049 0.87025
 C1190 C 0.25526 0.42828 0.88168
 C1191 C 0.21735 0.44995 0.85443
 C1192 C 0.20872 0.46115 0.84574
 H1193 H 0.29901 0.38187 0.90924
 H1194 H 0.28259 0.40129 0.88685
 H1195 H 0.23314 0.39525 0.91927
 H1196 H 0.24962 0.37562 0.94133
 H1197 H 0.22169 0.39626 0.88770
 H1198 H 0.20494 0.41786 0.86780
 H1199 H 0.25238 0.45293 0.86556
 H1200 H 0.26916 0.43163 0.88573
 C1201 C 0.29286 0.64117 0.04747
 C1202 C 0.28507 0.63215 0.05910
 C1203 C 0.27566 0.62109 0.07264
 C1204 C 0.25937 0.62732 0.08066
 C1205 C 0.24979 0.61619 0.09316
 C1206 C 0.25639 0.59865 0.09779
 C1207 C 0.27293 0.59262 0.08983
 C1208 C 0.28247 0.60377 0.07733
 C1209 C 0.24584 0.58644 0.11039
 C1210 C 0.25488 0.57540 0.12358
 C1211 C 0.24496 0.56331 0.13484
 C1212 C 0.22591 0.56211 0.13309
 C1213 C 0.21677 0.57321 0.12020
 C1214 C 0.22665 0.58532 0.10894
 C1215 C 0.21580 0.54898 0.14396
 C1216 C 0.20731 0.53773 0.15271
 H1217 H 0.25398 0.64071 0.07712
 H1218 H 0.23722 0.62130 0.09922
 H1219 H 0.27824 0.57910 0.09289
 H1220 H 0.29502 0.59878 0.07112
 H1221 H 0.26960 0.57611 0.12520
 H1222 H 0.25218 0.55477 0.14477
 H1223 H 0.20204 0.57232 0.11864
 H1224 H 0.21932 0.59343 0.09875
 C1225 C 0.70555 0.36042 0.04896
 C1226 C 0.71318 0.36939 0.06076
 C1227 C 0.72236 0.38048 0.07446
 C1228 C 0.71719 0.39878 0.07690
 C1229 C 0.72656 0.40988 0.08960
 C1230 C 0.74128 0.40282 0.10003
 C1231 C 0.74623 0.38433 0.09763
 C1232 C 0.73682 0.37324 0.08492
 C1233 C 0.75174 0.41488 0.11288
 C1234 C 0.77097 0.41385 0.11373
 C1235 C 0.78089 0.42585 0.12509
 C1236 C 0.77175 0.43900 0.13579
 C1237 C 0.75262 0.43994 0.13528
 C1238 C 0.74267 0.42796 0.12392
 C1239 C 0.78205 0.45201 0.14663
 C1240 C 0.79076 0.46316 0.15534
 H1241 H 0.70607 0.40455 0.06879
 H1242 H 0.72258 0.42412 0.09091
 H1243 H 0.75737 0.37844 0.10560
 H1244 H 0.74093 0.35909 0.08314
 H1245 H 0.77837 0.40412 0.10522
 H1246 H 0.79571 0.42508 0.12530
 H1247 H 0.74541 0.45007 0.14350
 H1248 H 0.72787 0.42894 0.12374
 C1249 C 0.95429 0.70999 0.64240
 C1250 C 0.94298 0.71820 0.63345
 C1251 C 0.92981 0.72815 0.62250
 C1252 C 0.91271 0.72042 0.61848
 C1253 C 0.90018 0.72991 0.60732
 C1254 C 0.90462 0.74728 0.60007
 C1255 C 0.92179 0.75499 0.60436
 C1256 C 0.93429 0.74547 0.61548
 C1257 C 0.89163 0.75715 0.58769
 C1258 C 0.88943 0.77626 0.58917
 C1259 C 0.87787 0.78566 0.57693
 C1260 C 0.86833 0.77610 0.56307
 C1261 C 0.87020 0.75706 0.56167
 C1262 C 0.88174 0.74763 0.57391
 C1263 C 0.85727 0.78591 0.54981
 C1264 C 0.84837 0.79418 0.53843
 H1265 H 0.90910 0.70702 0.62386
 H1266 H 0.88700 0.72371 0.60444
 H1267 H 0.92573 0.76820 0.59876
 H1268 H 0.94753 0.75154 0.61844
 H1269 H 0.89667 0.78395 0.59978
 H1270 H 0.87653 0.80040 0.57813
 H1271 H 0.86296 0.74953 0.55093
 H1272 H 0.88332 0.73296 0.57226
 C1273 C 0.95342 0.29399 0.36011
 C1274 C 0.94229 0.28535 0.36887
 C1275 C 0.92956 0.27479 0.37976
 C1276 C 0.93485 0.25769 0.38673
 C1277 C 0.92294 0.24768 0.39805
 C1278 C 0.90556 0.25466 0.40260
 C1279 C 0.90025 0.27175 0.39528
 C1280 C 0.91221 0.28177 0.38395
 C1281 C 0.89327 0.24433 0.41529
 C1282 C 0.87430 0.24335 0.41187
 C1283 C 0.86283 0.23358 0.42392
 C1284 C 0.87017 0.22472 0.43953
 C1285 C 0.88899 0.22568 0.44306
 C1286 C 0.90046 0.23540 0.43105
 C1287 C 0.85853 0.21463 0.45204
 C1288 C 0.84925 0.20605 0.46284
 H1289 H 0.94825 0.25216 0.38356
 H1290 H 0.92733 0.23445 0.40323
 H1291 H 0.88705 0.27758 0.39870
 H1292 H 0.90802 0.29504 0.37869
 H1293 H 0.86839 0.24993 0.39977
 H1294 H 0.84828 0.23290 0.42105
 H1295 H 0.89480 0.21894 0.45514
 H1296 H 0.91494 0.23615 0.43424
 C1297 C 0.04661 0.28991 0.64176
 C1298 C 0.05793 0.28155 0.63301
 C1299 C 0.07109 0.27147 0.62222
 C1300 C 0.07144 0.25232 0.62307
 C1301 C 0.08356 0.24244 0.61188
 C1302 C 0.09549 0.25162 0.59964
 C1303 C 0.09524 0.27090 0.59911
 C1304 C 0.08309 0.28075 0.61032
 C1305 C 0.10770 0.24112 0.58704
 C1306 C 0.12569 0.24711 0.58349
 C1307 C 0.13690 0.23750 0.57111
 C1308 C 0.13029 0.22179 0.56214
 C1309 C 0.11249 0.21564 0.56570
 C1310 C 0.10126 0.22521 0.57806
 C1311 C 0.14150 0.21222 0.54887
 C1312 C 0.15052 0.20412 0.53750
 H1313 H 0.06219 0.24501 0.63224
 H1314 H 0.08360 0.22763 0.61279
 H1315 H 0.10407 0.27835 0.58967
 H1316 H 0.08286 0.29558 0.60949
 H1317 H 0.13110 0.25918 0.59034
 H1318 H 0.15067 0.24237 0.56845
 H1319 H 0.10720 0.20356 0.55875
 H1320 H 0.08740 0.22041 0.58027
 C1321 C 0.04879 0.70745 0.35734
 C1322 C 0.06034 0.71544 0.36619
 C1323 C 0.07370 0.72524 0.37707
 C1324 C 0.08941 0.71634 0.38360
 C1325 C 0.10196 0.72576 0.39482
 C1326 C 0.09894 0.74421 0.39963
 C1327 C 0.08319 0.75307 0.39280
 C1328 C 0.07066 0.74363 0.38162
 C1329 C 0.11181 0.75407 0.41215
 C1330 C 0.11629 0.77256 0.40886
 C1331 C 0.12763 0.78211 0.42120
 C1332 C 0.13468 0.77332 0.43698
 C1333 C 0.13057 0.75485 0.44021
 C1334 C 0.11924 0.74527 0.42787
 C1335 C 0.14544 0.78346 0.45025
 C1336 C 0.15406 0.79208 0.46159
 H1337 H 0.09188 0.70210 0.38015
 H1338 H 0.11405 0.71863 0.39969
 H1339 H 0.08032 0.76717 0.39648
 H1340 H 0.05848 0.75062 0.37673
 H1341 H 0.11098 0.77965 0.39675
 H1342 H 0.13072 0.79640 0.41857
 H1343 H 0.13586 0.74794 0.45244
 H1344 H 0.11586 0.73113 0.43092
 C1345 C 0.64011 0.95296 0.70800
 C1346 C 0.63123 0.94160 0.71620
 C1347 C 0.62039 0.92836 0.72614
 C1348 C 0.61592 0.91156 0.71789
 C1349 C 0.60490 0.89897 0.72739
 C1350 C 0.59822 0.90304 0.74529
 C1351 C 0.60293 0.91991 0.75351
 C1352 C 0.61393 0.93248 0.74398
 C1353 C 0.58601 0.88999 0.75519
 C1354 C 0.58784 0.88719 0.77450
 C1355 C 0.57580 0.87555 0.78394
 C1356 C 0.56181 0.86653 0.77425
 C1357 C 0.56004 0.86901 0.75501
 C1358 C 0.57207 0.88064 0.74552
 C1359 C 0.54881 0.85536 0.78415
 C1360 C 0.53765 0.84636 0.79248
 H1361 H 0.62087 0.90823 0.70408
 H1362 H 0.60168 0.88602 0.72078
 H1363 H 0.59779 0.92358 0.76714
 H1364 H 0.61723 0.94549 0.75045
 H1365 H 0.59857 0.89401 0.78228
 H1366 H 0.57729 0.87373 0.79884
 H1367 H 0.54919 0.86218 0.74738
 H1368 H 0.57015 0.88269 0.73072
 C1369 C 0.35625 0.95266 0.28868
 C1370 C 0.36566 0.94155 0.28080
 C1371 C 0.37733 0.92884 0.27117
 C1372 C 0.38786 0.93496 0.25615
 C1373 C 0.39974 0.92293 0.24708
 C1374 C 0.40127 0.90459 0.25293
 C1375 C 0.39045 0.89849 0.26791
 C1376 C 0.37858 0.91058 0.27700
 C1377 C 0.41432 0.89202 0.24358
 C1378 C 0.40942 0.87376 0.23965
 C1379 C 0.42170 0.86209 0.23055
 C1380 C 0.43902 0.86853 0.22535
 C1381 C 0.44405 0.88661 0.22935
 C1382 C 0.43181 0.89828 0.23840
 C1383 C 0.45164 0.85679 0.21568
 C1384 C 0.46254 0.84745 0.20743
 H1385 H 0.38698 0.94907 0.25152
 H1386 H 0.40767 0.92796 0.23542
 H1387 H 0.39147 0.88451 0.27285
 H1388 H 0.37053 0.90573 0.28867
 H1389 H 0.39599 0.86860 0.24331
 H1390 H 0.41765 0.84813 0.22748
 H1391 H 0.45744 0.89172 0.22543
 H1392 H 0.43609 0.91217 0.24149
 C1393 C 0.64237 0.04626 0.29127
 C1394 C 0.63304 0.05746 0.28337
 C1395 C 0.62149 0.07024 0.27364
 C1396 C 0.61292 0.06488 0.25708
 C1397 C 0.60113 0.07691 0.24785
 C1398 C 0.59771 0.09450 0.25508
 C1399 C 0.60659 0.09987 0.27162
 C1400 C 0.61838 0.08779 0.28086
 C1401 C 0.58469 0.10700 0.24553
 C1402 C 0.58853 0.12584 0.24381
 C1403 C 0.57629 0.13746 0.23456
 C1404 C 0.56007 0.13041 0.22698
 C1405 C 0.55609 0.11173 0.22876
 C1406 C 0.56829 0.10010 0.23796
 C1407 C 0.54750 0.14216 0.21718
 C1408 C 0.53668 0.15150 0.20876
 H1409 H 0.61526 0.05134 0.25136
 H1410 H 0.59473 0.07247 0.23500
 H1411 H 0.60409 0.11325 0.27762
 H1412 H 0.62490 0.09204 0.29371
 H1413 H 0.60112 0.13151 0.24933
 H1414 H 0.57952 0.15190 0.23322
 H1415 H 0.54355 0.10614 0.22300
 H1416 H 0.56480 0.08574 0.23931
 C1417 C 0.35718 0.04672 0.71047
 C1418 C 0.36625 0.05798 0.71864
 C1419 C 0.37743 0.07091 0.72864
 C1420 C 0.38166 0.06774 0.74736
 C1421 C 0.39326 0.07973 0.75694
 C1422 C 0.40084 0.09507 0.74788
 C1423 C 0.39627 0.09830 0.72912
 C1424 C 0.38466 0.08627 0.71956
 C1425 C 0.41382 0.10732 0.75784
 C1426 C 0.41315 0.12645 0.75536
 C1427 C 0.42558 0.13788 0.76463
 C1428 C 0.43883 0.13033 0.77646
 C1429 C 0.43958 0.11134 0.77902
 C1430 C 0.42719 0.09991 0.76979
 C1431 C 0.45182 0.14194 0.78588
 C1432 C 0.46296 0.15129 0.79388
 H1433 H 0.37614 0.05589 0.75452
 H1434 H 0.39630 0.07701 0.77144
 H1435 H 0.40204 0.10986 0.72170
 H1436 H 0.38154 0.08879 0.70503
 H1437 H 0.40290 0.13258 0.74640
 H1438 H 0.42486 0.15257 0.76257
 H1439 H 0.44984 0.10535 0.78808
 H1440 H 0.42826 0.08523 0.77177
 C1441 C 0.64108 0.70845 0.04760
 C1442 C 0.63171 0.71632 0.05884
 C1443 C 0.62006 0.72600 0.07162
 C1444 C 0.62026 0.72181 0.09064
 C1445 C 0.60852 0.73104 0.10284
 C1446 C 0.59642 0.74452 0.09611
 C1447 C 0.59648 0.74871 0.07699
 C1448 C 0.60822 0.73951 0.06485
 C1449 C 0.58360 0.75407 0.10886
 C1450 C 0.56548 0.75761 0.10323
 C1451 C 0.55349 0.76699 0.11495
 C1452 C 0.55939 0.77297 0.13247
 C1453 C 0.57732 0.76936 0.13831
 C1454 C 0.58937 0.75994 0.12659
 C1455 C 0.54702 0.78310 0.14415
 C1456 C 0.53628 0.79171 0.15339
 H1457 H 0.62934 0.71133 0.09600
 H1458 H 0.60866 0.72740 0.11745
 H1459 H 0.58754 0.75921 0.07143
 H1460 H 0.60800 0.74288 0.05016
 H1461 H 0.56055 0.75302 0.08979
 H1462 H 0.53962 0.76966 0.11031
 H1463 H 0.58204 0.77398 0.15183
 H1464 H 0.60328 0.75757 0.13123
 C1465 C 0.35921 0.29126 0.04750
 C1466 C 0.36821 0.28311 0.05889
 C1467 C 0.37934 0.27308 0.07191
 C1468 C 0.38505 0.28121 0.08858
 C1469 C 0.39659 0.27166 0.10075
 C1470 C 0.40260 0.25386 0.09632
 C1471 C 0.39653 0.24573 0.07964
 C1472 C 0.38500 0.25529 0.06753
 C1473 C 0.41550 0.24395 0.10875
 C1474 C 0.43002 0.23375 0.10116
 C1475 C 0.44220 0.22439 0.11276
 C1476 C 0.44008 0.22508 0.13209
 C1477 C 0.42571 0.23522 0.13982
 C1478 C 0.41349 0.24462 0.12823
 C1479 C 0.45271 0.21531 0.14385
 C1480 C 0.46357 0.20692 0.15320
 H1481 H 0.38080 0.29502 0.09206
 H1482 H 0.40118 0.27835 0.11338
 H1483 H 0.40069 0.23195 0.07597
 H1484 H 0.38065 0.24886 0.05466
 H1485 H 0.43212 0.23320 0.08625
 H1486 H 0.45332 0.21664 0.10663
 H1487 H 0.42393 0.23581 0.15478
 H1488 H 0.40235 0.25222 0.13447
 C1489 C 0.63901 0.29535 0.95196
 C1490 C 0.63025 0.28745 0.94019
 C1491 C 0.61941 0.27795 0.92650
 C1492 C 0.62645 0.26255 0.91737
 C1493 C 0.61555 0.25284 0.90472
 C1494 C 0.59745 0.25842 0.90106
 C1495 C 0.59061 0.27406 0.91015
 C1496 C 0.60152 0.28374 0.92278
 C1497 C 0.58553 0.24767 0.88832
 C1498 C 0.57339 0.25657 0.87606
 C1499 C 0.56151 0.24641 0.86477
 C1500 C 0.56162 0.22724 0.86555
 C1501 C 0.57385 0.21826 0.87747
 C1502 C 0.58574 0.22838 0.88876
 C1503 C 0.54867 0.21681 0.85475
 C1504 C 0.53757 0.20803 0.84607
 H1505 H 0.64029 0.25795 0.92015
 H1506 H 0.62128 0.24098 0.89779
 H1507 H 0.57666 0.27855 0.90785
 H1508 H 0.59590 0.29557 0.92986
 H1509 H 0.57306 0.27139 0.87523
 H1510 H 0.55210 0.25351 0.85560
 H1511 H 0.57397 0.20342 0.87826
 H1512 H 0.59474 0.22113 0.89822
 C1513 C 0.35814 0.70860 0.95214
 C1514 C 0.36700 0.71668 0.94060
 C1515 C 0.37788 0.72647 0.92720
 C1516 C 0.38319 0.74456 0.93081
 C1517 C 0.39437 0.75393 0.91822
 C1518 C 0.40044 0.74530 0.90184
 C1519 C 0.39487 0.72716 0.89824
 C1520 C 0.38366 0.71782 0.91085
 C1521 C 0.41294 0.75504 0.88887
 C1522 C 0.42786 0.74583 0.88077
 C1523 C 0.44015 0.75522 0.86929
 C1524 C 0.43768 0.77391 0.86572
 C1525 C 0.42273 0.78314 0.87347
 C1526 C 0.41043 0.77378 0.88495
 C1527 C 0.45090 0.78379 0.85476
 C1528 C 0.46220 0.79213 0.84594
 H1529 H 0.37888 0.75135 0.94349
 H1530 H 0.39864 0.76777 0.92154
 H1531 H 0.39915 0.72022 0.88565
 H1532 H 0.37962 0.70382 0.90793
 H1533 H 0.43031 0.73148 0.88371
 H1534 H 0.45174 0.74797 0.86346
 H1535 H 0.42069 0.79761 0.87079
 H1536 H 0.39896 0.78119 0.89079
 C1537 C 0.71090 0.95263 0.35678
 C1538 C 0.71907 0.94126 0.36570
 C1539 C 0.72895 0.92804 0.37665
 C1540 C 0.72061 0.91155 0.38188
 C1541 C 0.73002 0.89906 0.39315
 C1542 C 0.74792 0.90292 0.39932
 C1543 C 0.75624 0.91946 0.39380
 C1544 C 0.74681 0.93192 0.38256
 C1545 C 0.75771 0.89005 0.41189
 C1546 C 0.77657 0.88678 0.40965
 C1547 C 0.78595 0.87536 0.42205
 C1548 C 0.77661 0.86705 0.43682
 C1549 C 0.75780 0.86999 0.43899
 C1550 C 0.74840 0.88139 0.42660
 C1551 C 0.78647 0.85614 0.45019
 C1552 C 0.79477 0.84736 0.46164
 H1553 H 0.70679 0.90841 0.37737
 H1554 H 0.72333 0.88636 0.39699
 H1555 H 0.76988 0.92296 0.39854
 H1556 H 0.75335 0.94470 0.37867
 H1557 H 0.78407 0.89306 0.39833
 H1558 H 0.80051 0.87318 0.42024
 H1559 H 0.75047 0.86371 0.45044
 H1560 H 0.73394 0.88382 0.42885
 C1561 C 0.28951 0.95338 0.64329
 C1562 C 0.28130 0.94220 0.63416
 C1563 C 0.27128 0.92933 0.62289
 C1564 C 0.27957 0.91310 0.61686
 C1565 C 0.27003 0.90105 0.60519
 C1566 C 0.25208 0.90514 0.59937
 C1567 C 0.24379 0.92137 0.60574
 C1568 C 0.25335 0.93338 0.61740
 C1569 C 0.24218 0.89281 0.58632
 C1570 C 0.23162 0.90018 0.57173
 C1571 C 0.22241 0.88866 0.55932
 C1572 C 0.22360 0.86962 0.56128
 C1573 C 0.23405 0.86212 0.57575
 C1574 C 0.24330 0.87363 0.58819
 C1575 C 0.21416 0.85791 0.54829
 C1576 C 0.20615 0.84852 0.53712
 H1577 H 0.29349 0.90989 0.62096
 H1578 H 0.27685 0.88878 0.60035
 H1579 H 0.22991 0.92478 0.60173
 H1580 H 0.24680 0.94590 0.62200
 H1581 H 0.23072 0.91486 0.56973
 H1582 H 0.21443 0.89461 0.54812
 H1583 H 0.23504 0.84739 0.57740
 H1584 H 0.25117 0.86756 0.59939
 C1585 C 0.28788 0.04674 0.35541
 C1586 C 0.27987 0.05811 0.36443
 C1587 C 0.27019 0.07135 0.37551
 C1588 C 0.25193 0.06817 0.38038
 C1589 C 0.24266 0.08062 0.39176
 C1590 C 0.25159 0.09641 0.39845
 C1591 C 0.26991 0.09958 0.39331
 C1592 C 0.27914 0.08711 0.38190
 C1593 C 0.24195 0.10920 0.41118
 C1594 C 0.25104 0.11663 0.42673
 C1595 C 0.24172 0.12795 0.43923
 C1596 C 0.22321 0.13203 0.43632
 C1597 C 0.21412 0.12496 0.42073
 C1598 C 0.22341 0.11362 0.40822
 C1599 C 0.21337 0.14284 0.44973
 C1600 C 0.20503 0.15153 0.46118
 H1601 H 0.24491 0.05595 0.37559
 H1602 H 0.22866 0.07765 0.39569
 H1603 H 0.27708 0.11171 0.39807
 H1604 H 0.29329 0.08969 0.37820
 H1605 H 0.26523 0.11329 0.42953
 H1606 H 0.24886 0.13327 0.45131
 H1607 H 0.19979 0.12803 0.41835
 H1608 H 0.21611 0.10830 0.39626
 C1609 C 0.70784 0.04586 0.64048
 C1610 C 0.71619 0.05700 0.63144
 C1611 C 0.72643 0.06979 0.62031
 C1612 C 0.71835 0.08610 0.61417
 C1613 C 0.72814 0.09810 0.60269
 C1614 C 0.74614 0.09388 0.59717
 C1615 C 0.75420 0.07756 0.60366
 C1616 C 0.74440 0.06562 0.61512
 C1617 C 0.75634 0.10617 0.58436
 C1618 C 0.76707 0.09876 0.56996
 C1619 C 0.77664 0.11024 0.55782
 C1620 C 0.77563 0.12928 0.55986
 C1621 C 0.76499 0.13683 0.57412
 C1622 C 0.75538 0.12535 0.58630
 C1623 C 0.78552 0.14094 0.54721
 C1624 C 0.79395 0.15026 0.53633
 H1625 H 0.70441 0.08942 0.61805
 H1626 H 0.72149 0.11044 0.59776
 H1627 H 0.76811 0.07406 0.59988
 H1628 H 0.75078 0.05303 0.61982
 H1629 H 0.76786 0.08408 0.56791
 H1630 H 0.78477 0.10426 0.54678
 H1631 H 0.76414 0.15155 0.57584
 H1632 H 0.74738 0.13146 0.59736
 C1633 C 0.95334 0.64189 0.29123
 C1634 C 0.94182 0.63306 0.28319
 C1635 C 0.92851 0.62218 0.27335
 C1636 C 0.92930 0.62093 0.25393
 C1637 C 0.91704 0.60962 0.24435
 C1638 C 0.90383 0.59935 0.25408
 C1639 C 0.90296 0.60094 0.27359
 C1640 C 0.91524 0.61227 0.28315
 C1641 C 0.89143 0.58662 0.24397
 C1642 C 0.87291 0.58491 0.24909
 C1643 C 0.86141 0.57259 0.23975
 C1644 C 0.86829 0.56183 0.22522
 C1645 C 0.88666 0.56350 0.21999
 C1646 C 0.89815 0.57580 0.22928
 C1647 C 0.85668 0.54882 0.21583
 C1648 C 0.84735 0.53769 0.20782
 H1649 H 0.93952 0.62855 0.24621
 H1650 H 0.91790 0.60889 0.22932
 H1651 H 0.89310 0.59305 0.28150
 H1652 H 0.91458 0.61307 0.29820
 H1653 H 0.86728 0.59319 0.26020
 H1654 H 0.84720 0.57142 0.24390
 H1655 H 0.89214 0.55518 0.20883
 H1656 H 0.91240 0.57657 0.22521
 C1657 C 0.95297 0.35746 0.71086
 C1658 C 0.94174 0.36644 0.71908
 C1659 C 0.92879 0.37752 0.72908
 C1660 C 0.93151 0.38104 0.74803
 C1661 C 0.91954 0.39258 0.75761
 C1662 C 0.90468 0.40082 0.74835
 C1663 C 0.90188 0.39696 0.72936
 C1664 C 0.91389 0.38539 0.71979
 C1665 C 0.89253 0.41382 0.75833
 C1666 C 0.87349 0.41374 0.75526
 C1667 C 0.86218 0.42623 0.76452
 C1668 C 0.86976 0.43894 0.77693
 C1669 C 0.88867 0.43910 0.78010
 C1670 C 0.89998 0.42664 0.77088
 C1671 C 0.85832 0.45203 0.78634
 C1672 C 0.84920 0.46327 0.79439
 H1673 H 0.94301 0.37501 0.75535
 H1674 H 0.92192 0.39508 0.77228
 H1675 H 0.89070 0.40325 0.72179
 H1676 H 0.91171 0.38283 0.70509
 H1677 H 0.86734 0.40392 0.74583
 H1678 H 0.84755 0.42598 0.76199
 H1679 H 0.89469 0.44894 0.78961
 H1680 H 0.91460 0.42726 0.77332
 C1681 C 0.04801 0.64165 0.71006
 C1682 C 0.05919 0.63254 0.71823
 C1683 C 0.07208 0.62131 0.72820
 C1684 C 0.08742 0.61411 0.71912
 C1685 C 0.09943 0.60250 0.72867
 C1686 C 0.09621 0.59790 0.74742
 C1687 C 0.08090 0.60545 0.75647
 C1688 C 0.06892 0.61705 0.74691
 C1689 C 0.10846 0.58493 0.75736
 C1690 C 0.10106 0.57153 0.76928
 C1691 C 0.11249 0.55914 0.77850
 C1692 C 0.13146 0.55994 0.77596
 C1693 C 0.13899 0.57323 0.76417
 C1694 C 0.12756 0.58565 0.75490
 C1695 C 0.14306 0.54697 0.78537
 C1696 C 0.15239 0.53585 0.79338
 H1697 H 0.08994 0.61726 0.70461
 H1698 H 0.11097 0.59674 0.72125
 H1699 H 0.07819 0.60240 0.77096
 H1700 H 0.05709 0.62256 0.75407
 H1701 H 0.08640 0.57042 0.77124
 H1702 H 0.10651 0.54886 0.78753
 H1703 H 0.15366 0.57399 0.76212
 H1704 H 0.13368 0.59592 0.74598
 C1705 C 0.04611 0.36108 0.29172
 C1706 C 0.05745 0.36963 0.28315
 C1707 C 0.07064 0.38017 0.27283
 C1708 C 0.06552 0.38847 0.25606
 C1709 C 0.07806 0.39926 0.24627
 C1710 C 0.09592 0.40192 0.25315
 C1711 C 0.10099 0.39336 0.26995
 C1712 C 0.08842 0.38256 0.27971
 C1713 C 0.10898 0.41395 0.24306
 C1714 C 0.12027 0.42626 0.25289
 C1715 C 0.13192 0.43822 0.24335
 C1716 C 0.13248 0.43801 0.22387
 C1717 C 0.12154 0.42562 0.21398
 C1718 C 0.10987 0.41366 0.22349
 C1719 C 0.14369 0.45103 0.21403
 C1720 C 0.15271 0.46222 0.20576
 H1721 H 0.05175 0.38679 0.25066
 H1722 H 0.07364 0.40587 0.23353
 H1723 H 0.11470 0.39499 0.27549
 H1724 H 0.09252 0.37617 0.29269
 H1725 H 0.11973 0.42699 0.26794
 H1726 H 0.14025 0.44783 0.25114
 H1727 H 0.12186 0.42535 0.19890
 H1728 H 0.10153 0.40418 0.21554
   
