data_POSCAR
  _audit_creation_date              2014-09-24
  _audit_creation_method            'ToBaCCo'
  _symmetry_space_group_name_H-M    'P1'
  _symmetry_Int_Tables_number       1
  _symmetry_cell_setting            triclinic
  loop_
  _symmetry_equiv_pos_as_xyz
 x,y,z
_cell_length_a 96.6522
_cell_length_b 97.1939
_cell_length_c 97.5796
_cell_angle_alpha 89.897700
_cell_angle_beta 90.039200
_cell_angle_gamma 89.837400
loop_
  _atom_site_label
  _atom_site_type_symbol
  _atom_site_fract_x
  _atom_site_fract_y
  _atom_site_fract_z
N1 N 0.35696 0.31811 0.32915
 N2 N 0.35775 0.32809 0.32011
 C3 C 0.36878 0.32583 0.31194
 C4 C 0.37520 0.31375 0.31613
 C5 C 0.36736 0.30916 0.32707
 H6 H 0.37188 0.33243 0.30357
 H7 H 0.36925 0.30014 0.33329
 Cu8 Cu 0.34428 0.34302 0.32019
 Cu9 Cu 0.34298 0.31770 0.34340
 Cu10 Cu 0.31902 0.34432 0.34406
 N11 N 0.33043 0.35755 0.32022
 N12 N 0.32069 0.35816 0.32959
 C13 C 0.31262 0.36924 0.32712
 C14 C 0.31755 0.37587 0.31552
 C15 C 0.32887 0.36814 0.31147
 H16 H 0.30368 0.37208 0.33315
 H17 H 0.33554 0.37012 0.30280
 N18 N 0.31921 0.32919 0.35768
 N19 N 0.32822 0.31898 0.35711
 C20 C 0.32576 0.31018 0.36744
 C21 C 0.31468 0.31499 0.37497
 C22 C 0.31078 0.32713 0.36852
 H23 H 0.33178 0.30103 0.36950
 H24 H 0.30234 0.33384 0.37142
 H25 H 0.32792 0.32887 0.33285
 H26 H 0.33957 0.33886 0.34439
 N27 N 0.35843 0.82070 -0.17067
 N28 N 0.35773 0.83025 -0.18020
 C29 C 0.36860 0.82889 -0.18869
 C30 C 0.37662 0.81781 -0.18436
 C31 C 0.36977 0.81291 -0.17281
 H32 H 0.37045 0.83550 -0.19742
 H33 H 0.37261 0.80423 -0.16648
 Cu34 Cu 0.34268 0.84355 -0.18093
 Cu35 Cu 0.34435 0.81892 -0.15648
 Cu36 Cu 0.31740 0.84246 -0.15734
 N37 N 0.32795 0.85727 -0.18051
 N38 N 0.31790 0.85651 -0.17150
 C39 C 0.30914 0.86708 -0.17343
 C40 C 0.31394 0.87511 -0.18422
 C41 C 0.32598 0.86848 -0.18844
 H42 H 0.30012 0.86886 -0.16716
 H43 H 0.33284 0.87155 -0.19664
 N44 N 0.31867 0.82763 -0.14368
 N45 N 0.32906 0.81882 -0.14305
 C46 C 0.32715 0.81044 -0.13216
 C47 C 0.31494 0.81417 -0.12569
 C48 C 0.30989 0.82509 -0.13332
 H49 H 0.33408 0.80220 -0.12921
 H50 H 0.30064 0.83099 -0.13126
 H51 H 0.32857 0.82750 -0.16774
 H52 H 0.33866 0.83940 -0.15660
 N53 N 0.85594 0.31793 -0.17159
 N54 N 0.85650 0.32787 -0.18071
 C55 C 0.86748 0.32573 -0.18895
 C56 C 0.87413 0.31378 -0.18476
 C57 C 0.86646 0.30912 -0.17372
 H58 H 0.87044 0.33236 -0.19735
 H59 H 0.86856 0.30018 -0.16745
 Cu60 Cu 0.84295 0.34270 -0.18047
 Cu61 Cu 0.84217 0.31752 -0.15709
 Cu62 Cu 0.81835 0.34427 -0.15611
 N63 N 0.82926 0.35740 -0.18024
 N64 N 0.81984 0.35811 -0.17057
 C65 C 0.81193 0.36934 -0.17265
 C66 C 0.81658 0.37609 -0.18435
 C67 C 0.82763 0.36810 -0.18885
 H68 H 0.80334 0.37221 -0.16618
 H69 H 0.83412 0.36995 -0.19766
 N70 N 0.81864 0.32917 -0.14251
 N71 N 0.82756 0.31889 -0.14315
 C72 C 0.82519 0.31019 -0.13271
 C73 C 0.81426 0.31517 -0.12504
 C74 C 0.81037 0.32727 -0.13153
 H75 H 0.83116 0.30100 -0.13068
 H76 H 0.80205 0.33409 -0.12856
 H77 H 0.82694 0.32861 -0.16732
 H78 H 0.83889 0.33864 -0.15614
 N79 N 0.85648 0.81883 0.32853
 N80 N 0.85720 0.82921 0.31992
 C81 C 0.86805 0.82715 0.31144
 C82 C 0.87432 0.81476 0.31495
 C83 C 0.86667 0.80985 0.32584
 H84 H 0.87107 0.83402 0.30325
 H85 H 0.86854 0.80051 0.33159
 Cu86 Cu 0.84367 0.84420 0.32073
 Cu87 Cu 0.84289 0.81770 0.34303
 Cu88 Cu 0.81811 0.84321 0.34438
 N89 N 0.82897 0.85805 0.32121
 N90 N 0.81901 0.85738 0.33034
 C91 C 0.81025 0.86796 0.32847
 C92 C 0.81490 0.87589 0.31756
 C93 C 0.82687 0.86920 0.31321
 H94 H 0.80125 0.86973 0.33477
 H95 H 0.83354 0.87214 0.30483
 N96 N 0.81896 0.82801 0.35772
 N97 N 0.82840 0.81822 0.35707
 C98 C 0.82654 0.80944 0.36756
 C99 C 0.81540 0.81390 0.37527
 C100 C 0.81084 0.82573 0.36872
 H101 H 0.83302 0.80060 0.36961
 H102 H 0.80224 0.83218 0.37172
 H103 H 0.82785 0.82871 0.33246
 H104 H 0.83892 0.83865 0.34467
 N105 N 0.64396 0.68219 0.33102
 N106 N 0.64306 0.67309 0.32111
 C107 C 0.63188 0.67602 0.31337
 C108 C 0.62546 0.68762 0.31869
 C109 C 0.63346 0.69124 0.32989
 H110 H 0.62872 0.67026 0.30444
 H111 H 0.63169 0.69972 0.33682
 Cu112 Cu 0.65662 0.65831 0.31933
 Cu113 Cu 0.65848 0.68155 0.34483
 Cu114 Cu 0.68227 0.65497 0.34247
 N115 N 0.66989 0.64318 0.31847
 N116 N 0.67982 0.64194 0.32760
 C117 C 0.68732 0.63061 0.32484
 C118 C 0.68185 0.62434 0.31332
 C119 C 0.67079 0.63266 0.30953
 H120 H 0.69621 0.62728 0.33072
 H121 H 0.66383 0.63108 0.30102
 N122 N 0.68305 0.66912 0.35684
 N123 N 0.67390 0.67917 0.35785
 C124 C 0.67697 0.68686 0.36891
 C125 C 0.68863 0.68141 0.37515
 C126 C 0.69221 0.67019 0.36718
 H127 H 0.67121 0.69582 0.37215
 H128 H 0.70071 0.66316 0.36896
 H129 H 0.67300 0.67161 0.33292
 H130 H 0.66160 0.66052 0.34372
 N131 N 0.64407 0.18022 -0.17121
 N132 N 0.64601 0.17236 -0.18199
 C133 C 0.63566 0.17433 -0.19096
 C134 C 0.62663 0.18400 -0.18563
 C135 C 0.63231 0.18753 -0.17302
 H136 H 0.63471 0.16889 -0.20056
 H137 H 0.62828 0.19493 -0.16578
 Cu138 Cu 0.66155 0.15991 -0.18350
 Cu139 Cu 0.65721 0.18030 -0.15590
 Cu140 Cu 0.68210 0.15453 -0.15644
 N141 N 0.67322 0.14374 -0.18226
 N142 N 0.68121 0.14155 -0.17160
 C143 C 0.68797 0.12955 -0.17328
 C144 C 0.68399 0.12382 -0.18573
 C145 C 0.67457 0.13324 -0.19111
 H146 H 0.69524 0.12541 -0.16593
 H147 H 0.66898 0.13258 -0.20068
 N148 N 0.68125 0.16864 -0.14204
 N149 N 0.67171 0.17837 -0.14162
 C150 C 0.67417 0.18648 -0.13067
 C151 C 0.68589 0.18164 -0.12398
 C152 C 0.69004 0.17032 -0.13150
 H153 H 0.66815 0.19547 -0.12801
 H154 H 0.69887 0.16379 -0.12947
 H155 H 0.67416 0.17232 -0.16585
 H156 H 0.66131 0.15984 -0.15872
 N157 N 0.14297 0.68119 -0.16902
 N158 N 0.14228 0.67144 -0.17832
 C159 C 0.13128 0.67388 -0.18650
 C160 C 0.12478 0.68581 -0.18209
 C161 C 0.13252 0.69013 -0.17097
 H162 H 0.12835 0.66758 -0.19514
 H163 H 0.13065 0.69907 -0.16466
 Cu164 Cu 0.15600 0.65668 -0.17892
 Cu165 Cu 0.15719 0.68173 -0.15496
 Cu166 Cu 0.18250 0.65667 -0.15645
 N167 N 0.17072 0.64290 -0.17976
 N168 N 0.18110 0.64322 -0.17107
 C169 C 0.18981 0.63279 -0.17380
 C170 C 0.18468 0.62543 -0.18479
 C171 C 0.17249 0.63214 -0.18832
 H172 H 0.19908 0.63058 -0.16799
 H173 H 0.16553 0.62946 -0.19657
 N174 N 0.18218 0.67106 -0.14233
 N175 N 0.17244 0.68055 -0.14163
 C176 C 0.17484 0.68859 -0.13064
 C177 C 0.18670 0.68395 -0.12412
 C178 C 0.19106 0.67282 -0.13185
 H179 H 0.16848 0.69724 -0.12766
 H180 H 0.19991 0.66631 -0.12985
 H181 H 0.17179 0.67197 -0.16686
 H182 H 0.16153 0.66096 -0.15488
 N183 N 0.14283 0.17931 0.32736
 N184 N 0.14390 0.16927 0.31842
 C185 C 0.13339 0.17025 0.30939
 C186 C 0.12526 0.18149 0.31289
 C187 C 0.13161 0.18698 0.32436
 H188 H 0.13165 0.16320 0.30102
 H189 H 0.12839 0.19596 0.33006
 Cu190 Cu 0.15875 0.15575 0.31979
 Cu191 Cu 0.15589 0.18157 0.34240
 Cu192 Cu 0.18258 0.15773 0.34477
 N193 N 0.17378 0.14242 0.32112
 N194 N 0.18315 0.14338 0.33083
 C195 C 0.19228 0.13298 0.32953
 C196 C 0.18838 0.12498 0.31845
 C197 C 0.17658 0.13131 0.31336
 H198 H 0.20095 0.13122 0.33631
 H199 H 0.17055 0.12810 0.30461
 N200 N 0.18019 0.17299 0.35787
 N201 N 0.17010 0.18211 0.35689
 C202 C 0.17116 0.19110 0.36731
 C203 C 0.18243 0.18745 0.37530
 C204 C 0.18791 0.17592 0.36899
 H205 H 0.16410 0.19954 0.36910
 H206 H 0.19691 0.17013 0.37221
 H207 H 0.17247 0.17216 0.33285
 H208 H 0.16148 0.16108 0.34403
 N209 N 0.64314 0.31889 0.67150
 N210 N 0.64276 0.32923 0.68015
 C211 C 0.63198 0.32743 0.68876
 C212 C 0.62534 0.31527 0.68530
 C213 C 0.63275 0.31019 0.67429
 H214 H 0.62925 0.33434 0.69700
 H215 H 0.63062 0.30095 0.66854
 Cu216 Cu 0.65655 0.34388 0.67921
 Cu217 Cu 0.65664 0.31747 0.65687
 Cu218 Cu 0.68170 0.34263 0.65520
 N219 N 0.67136 0.35751 0.67852
 N220 N 0.68117 0.35679 0.66922
 C221 C 0.69014 0.36714 0.67113
 C222 C 0.68579 0.37487 0.68222
 C223 C 0.67379 0.36845 0.68666
 H224 H 0.69913 0.36898 0.66481
 H225 H 0.66745 0.37140 0.69530
 N226 N 0.68054 0.32745 0.64192
 N227 N 0.67107 0.31775 0.64272
 C228 C 0.67285 0.30890 0.63228
 C229 C 0.68395 0.31324 0.62446
 C230 C 0.68858 0.32506 0.63089
 H231 H 0.66635 0.30009 0.63034
 H232 H 0.69721 0.33139 0.62781
 H233 H 0.67195 0.32811 0.66719
 H234 H 0.66079 0.33829 0.65518
 N235 N 0.64243 0.82072 1.17052
 N236 N 0.64296 0.83035 1.17995
 C237 C 0.63231 0.82870 1.18867
 C238 C 0.62464 0.81744 1.18451
 C239 C 0.63138 0.81265 1.17292
 H240 H 0.63024 0.83526 1.19736
 H241 H 0.62862 0.80379 1.16683
 Cu242 Cu 0.65752 0.84411 1.18000
 Cu243 Cu 0.65634 0.81922 1.15604
 Cu244 Cu 0.68276 0.84336 1.15662
 N245 N 0.67218 0.85780 1.18006
 N246 N 0.68215 0.85726 1.17095
 C247 C 0.69094 0.86774 1.17310
 C248 C 0.68623 0.87536 1.18415
 C249 C 0.67426 0.86872 1.18831
 H250 H 0.69996 0.86979 1.16689
 H251 H 0.66763 0.87159 1.19676
 N252 N 0.68163 0.82861 1.14287
 N253 N 0.67149 0.81954 1.14238
 C254 C 0.67361 0.81114 1.13157
 C255 C 0.68569 0.81509 1.12501
 C256 C 0.69043 0.82620 1.13248
 H257 H 0.66697 0.80267 1.12877
 H258 H 0.69954 0.83225 1.13037
 H259 H 0.67197 0.82815 1.16711
 H260 H 0.66160 0.83970 1.15575
 N261 N 0.14308 0.31986 1.17036
 N262 N 0.14335 0.32908 1.18019
 C263 C 0.13275 0.32680 1.18880
 C264 C 0.12534 0.31557 1.18414
 C265 C 0.13221 0.31143 1.17236
 H266 H 0.13043 0.33300 1.19768
 H267 H 0.12960 0.30283 1.16584
 Cu268 Cu 0.15733 0.34340 1.18067
 Cu269 Cu 0.15701 0.31949 1.15581
 Cu270 Cu 0.18223 0.34492 1.15696
 N271 N 0.17134 0.35772 1.18115
 N272 N 0.18104 0.35830 1.17174
 C273 C 0.18913 0.36929 1.17412
 C274 C 0.18428 0.37598 1.18568
 C275 C 0.17298 0.36830 1.18989
 H276 H 0.19794 0.37214 1.16792
 H277 H 0.16628 0.37044 1.19848
 N278 N 0.18173 0.33054 1.14280
 N279 N 0.17208 0.32097 1.14215
 C280 C 0.17460 0.31290 1.13119
 C281 C 0.18645 0.31759 1.12471
 C282 C 0.19063 0.32878 1.13237
 H283 H 0.16843 0.30413 1.12826
 H284 H 0.19946 0.33527 1.13039
 H285 H 0.17236 0.32885 1.16691
 H286 H 0.16122 0.34030 1.15617
 N287 N 0.14194 0.82094 0.67119
 N288 N 0.14270 0.83066 0.68053
 C289 C 0.13231 0.82910 0.68953
 C290 C 0.12454 0.81782 0.68571
 C291 C 0.13093 0.81290 0.67396
 H292 H 0.13048 0.83573 0.69822
 H293 H 0.12800 0.80397 0.66806
 Cu294 Cu 0.15720 0.84443 0.68023
 Cu295 Cu 0.15562 0.81930 0.65648
 Cu296 Cu 0.18209 0.84339 0.65652
 N297 N 0.17191 0.85801 0.67997
 N298 N 0.18175 0.85737 0.67072
 C299 C 0.19060 0.86784 0.67266
 C300 C 0.18606 0.87554 0.68371
 C301 C 0.17415 0.86897 0.68811
 H302 H 0.19953 0.86982 0.66631
 H303 H 0.16765 0.87192 0.69663
 N304 N 0.18071 0.82860 0.64291
 N305 N 0.17058 0.81953 0.64259
 C306 C 0.17260 0.81106 0.63180
 C307 C 0.18462 0.81500 0.62511
 C308 C 0.18941 0.82615 0.63246
 H309 H 0.16595 0.80255 0.62912
 H310 H 0.19849 0.83219 0.63023
 H311 H 0.17139 0.82827 0.66731
 H312 H 0.16090 0.83974 0.65598
 N313 N 0.35712 0.67895 0.67131
 N314 N 0.35622 0.66962 0.68103
 C315 C 0.36690 0.67117 0.68974
 C316 C 0.37494 0.68206 0.68527
 C317 C 0.36840 0.68674 0.67351
 H318 H 0.36873 0.66477 0.69863
 H319 H 0.37147 0.69531 0.66714
 Cu320 Cu 0.34134 0.65620 0.68150
 Cu321 Cu 0.34349 0.68041 0.65668
 Cu322 Cu 0.31707 0.65645 0.65683
 N323 N 0.32688 0.64232 0.68079
 N324 N 0.31735 0.64262 0.67120
 C325 C 0.30873 0.63194 0.67296
 C326 C 0.31308 0.62444 0.68425
 C327 C 0.32467 0.63135 0.68896
 H328 H 0.30008 0.62967 0.66631
 H329 H 0.33097 0.62863 0.69772
 N330 N 0.31851 0.67114 0.64306
 N331 N 0.32867 0.68017 0.64279
 C332 C 0.32686 0.68858 0.63192
 C333 C 0.31495 0.68466 0.62506
 C334 C 0.30997 0.67357 0.63244
 H335 H 0.33361 0.69702 0.62927
 H336 H 0.30088 0.66756 0.63013
 H337 H 0.32744 0.67178 0.66746
 H338 H 0.33829 0.65984 0.65696
 N339 N 0.35784 0.17990 1.17240
 N340 N 0.35631 0.17089 1.18233
 C341 C 0.36681 0.17217 1.19128
 C342 C 0.37544 0.18260 1.18677
 C343 C 0.36940 0.18726 1.17471
 H344 H 0.36807 0.16590 1.20035
 H345 H 0.37301 0.19552 1.16820
 Cu346 Cu 0.34067 0.15845 1.18283
 Cu347 Cu 0.34461 0.18131 1.15736
 Cu348 Cu 0.31914 0.15621 1.15585
 N349 N 0.32799 0.14318 1.18078
 N350 N 0.31949 0.14227 1.17031
 C351 C 0.31170 0.13087 1.17177
 C352 C 0.31554 0.12430 1.18385
 C353 C 0.32596 0.13244 1.18921
 H354 H 0.30366 0.12778 1.16473
 H355 H 0.33169 0.13074 1.19858
 N356 N 0.32065 0.17127 1.14229
 N357 N 0.33026 0.18087 1.14299
 C358 C 0.32849 0.18974 1.13253
 C359 C 0.31725 0.18554 1.12481
 C360 C 0.31255 0.17377 1.13132
 H361 H 0.33499 0.19856 1.13060
 H362 H 0.30374 0.16761 1.12840
 H363 H 0.32748 0.17245 1.16665
 H364 H 0.33992 0.16052 1.15805
 N365 N 0.85733 0.68050 1.17093
 N366 N 0.85561 0.67277 1.18185
 C367 C 0.86610 0.67488 1.19062
 C368 C 0.87496 0.68452 1.18497
 C369 C 0.86904 0.68785 1.17241
 H370 H 0.86721 0.66963 1.20033
 H371 H 0.87279 0.69525 1.16502
 Cu372 Cu 0.84011 0.66038 1.18366
 Cu373 Cu 0.84383 0.68073 1.15601
 Cu374 Cu 0.81592 0.65841 1.15935
 N375 N 0.82821 0.64444 1.18213
 N376 N 0.81870 0.64363 1.17256
 C377 C 0.81166 0.63179 1.17413
 C378 C 0.81714 0.62475 1.18528
 C379 C 0.82766 0.63315 1.19007
 H380 H 0.80302 0.62874 1.16780
 H381 H 0.83439 0.63130 1.19873
 N382 N 0.81810 0.67116 1.14381
 N383 N 0.82882 0.67941 1.14229
 C384 C 0.82715 0.68673 1.13066
 C385 C 0.81478 0.68289 1.12456
 C386 C 0.80938 0.67296 1.13322
 H387 H 0.83423 0.69453 1.12707
 H388 H 0.79981 0.66740 1.13194
 H389 H 0.82716 0.67493 1.16745
 H390 H 0.83693 0.66074 1.15901
 N391 N 0.85749 0.17875 0.67161
 N392 N 0.85655 0.16942 0.68134
 C393 C 0.86710 0.17103 0.69017
 C394 C 0.87514 0.18194 0.68581
 C395 C 0.86873 0.18659 0.67395
 H396 H 0.86888 0.16463 0.69908
 H397 H 0.87184 0.19520 0.66764
 Cu398 Cu 0.84176 0.15591 0.68175
 Cu399 Cu 0.84385 0.18022 0.65689
 Cu400 Cu 0.81756 0.15611 0.65710
 N401 N 0.82742 0.14190 0.68094
 N402 N 0.81789 0.14222 0.67136
 C403 C 0.80926 0.13155 0.67307
 C404 C 0.81359 0.12403 0.68434
 C405 C 0.82520 0.13090 0.68908
 H406 H 0.80059 0.12931 0.66645
 H407 H 0.83147 0.12816 0.69785
 N408 N 0.81881 0.17081 0.64341
 N409 N 0.82892 0.17989 0.64299
 C410 C 0.82684 0.18831 0.63214
 C411 C 0.81477 0.18433 0.62555
 C412 C 0.81004 0.17321 0.63299
 H413 H 0.83345 0.19682 0.62937
 H414 H 0.80094 0.16717 0.63084
 H415 H 0.82799 0.17159 0.66771
 H416 H 0.83889 0.15970 0.65721
 N417 N 0.31893 0.35754 0.67015
 N418 N 0.32766 0.35668 0.68045
 C419 C 0.32559 0.36731 0.68897
 C420 C 0.31490 0.37533 0.68388
 C421 C 0.31094 0.36883 0.67185
 H422 H 0.33148 0.36905 0.69822
 H423 H 0.30268 0.37188 0.66500
 Cu424 Cu 0.34065 0.34159 0.68236
 Cu425 Cu 0.31859 0.34367 0.65567
 Cu426 Cu 0.34421 0.31861 0.65700
 N427 N 0.35622 0.32900 0.68169
 N428 N 0.35756 0.31989 0.67187
 C429 C 0.36905 0.31235 0.67415
 C430 C 0.37526 0.31701 0.68608
 C431 C 0.36680 0.32762 0.69054
 H432 H 0.37250 0.30398 0.66772
 H433 H 0.36822 0.33393 0.69953
 N434 N 0.32981 0.31909 0.64276
 N435 N 0.32013 0.32868 0.64207
 C436 C 0.31204 0.32616 0.63109
 C437 C 0.31684 0.31439 0.62463
 C438 C 0.32811 0.31023 0.63234
 H439 H 0.30317 0.33229 0.62815
 H440 H 0.33469 0.30144 0.63042
 H441 H 0.32720 0.32759 0.66652
 H442 H 0.33944 0.33947 0.65760
 N443 N 0.32043 0.85875 0.17274
 N444 N 0.33042 0.85745 0.18180
 C445 C 0.32952 0.86782 0.19089
 C446 C 0.31839 0.87610 0.18733
 C447 C 0.31287 0.87000 0.17574
 H448 H 0.33654 0.86934 0.19938
 H449 H 0.30394 0.87341 0.16999
 Cu450 Cu 0.34374 0.84244 0.18078
 Cu451 Cu 0.31799 0.84581 0.15775
 Cu452 Cu 0.34188 0.81928 0.15519
 N453 N 0.35733 0.82776 0.17887
 N454 N 0.35646 0.81865 0.16898
 C455 C 0.36703 0.80967 0.17013
 C456 C 0.37503 0.81338 0.18131
 C457 C 0.36854 0.82493 0.18660
 H458 H 0.36886 0.80120 0.16319
 H459 H 0.37166 0.83073 0.19551
 N460 N 0.32640 0.82168 0.14222
 N461 N 0.31724 0.83172 0.14327
 C462 C 0.30804 0.83064 0.13295
 C463 C 0.31161 0.81943 0.12495
 C464 C 0.32330 0.81401 0.13115
 H465 H 0.29950 0.83763 0.13124
 H466 H 0.32907 0.80505 0.12790
 H467 H 0.32735 0.82914 0.16715
 H468 H 0.33867 0.84029 0.15635
 N469 N 0.81786 0.35713 0.16838
 N470 N 0.82660 0.35729 0.17870
 C471 C 0.82414 0.36849 0.18644
 C472 C 0.81319 0.37572 0.18072
 C473 C 0.80947 0.36817 0.16926
 H474 H 0.82973 0.37102 0.19570
 H475 H 0.80132 0.37056 0.16203
 Cu476 Cu 0.84004 0.34266 0.18136
 Cu477 Cu 0.81815 0.34268 0.15454
 Cu478 Cu 0.84458 0.31862 0.15701
 N479 N 0.85592 0.33038 0.18152
 N480 N 0.85767 0.32098 0.17202
 C481 C 0.86933 0.31385 0.17473
 C482 C 0.87521 0.31906 0.18660
 C483 C 0.86638 0.32958 0.19059
 H484 H 0.87308 0.30535 0.16863
 H485 H 0.86749 0.33621 0.19940
 N486 N 0.83030 0.31804 0.14256
 N487 N 0.82029 0.32726 0.14155
 C488 C 0.81243 0.32427 0.13055
 C489 C 0.81769 0.31257 0.12434
 C490 C 0.82901 0.30891 0.13228
 H491 H 0.80346 0.33011 0.12735
 H492 H 0.83594 0.30034 0.13055
 H493 H 0.82733 0.32734 0.16608
 H494 H 0.83917 0.33925 0.15670
 N495 N 0.81833 0.85628 0.67168
 N496 N 0.82928 0.85744 0.67958
 C497 C 0.82750 0.86835 0.68794
 C498 C 0.81473 0.87430 0.68509
 C499 C 0.80926 0.86631 0.67471
 H500 H 0.83490 0.87168 0.69555
 H501 H 0.79958 0.86792 0.66940
 Cu502 Cu 0.84471 0.84451 0.67812
 Cu503 Cu 0.81694 0.84279 0.65713
 Cu504 Cu 0.84488 0.82109 0.65261
 N505 N 0.85794 0.82928 0.67773
 N506 N 0.85769 0.82010 0.66786
 C507 C 0.86779 0.81081 0.66992
 C508 C 0.87486 0.81429 0.68173
 C509 C 0.86834 0.82612 0.68643
 H510 H 0.86997 0.80229 0.66314
 H511 H 0.87089 0.83191 0.69553
 N512 N 0.82849 0.82069 0.64073
 N513 N 0.81764 0.82866 0.64278
 C514 C 0.80815 0.82608 0.63305
 C515 C 0.81323 0.81596 0.62443
 C516 C 0.82617 0.81276 0.62966
 H517 H 0.79842 0.83149 0.63207
 H518 H 0.83338 0.80522 0.62573
 H519 H 0.83016 0.82828 0.66587
 H520 H 0.83780 0.84141 0.65408
 N521 N 0.68091 0.64271 0.67169
 N522 N 0.67054 0.64230 0.68039
 C523 C 0.67234 0.63147 0.68889
 C524 C 0.68450 0.62478 0.68531
 C525 C 0.68963 0.63225 0.67435
 H526 H 0.66539 0.62871 0.69711
 H527 H 0.69889 0.63009 0.66853
 Cu528 Cu 0.65578 0.65602 0.67967
 Cu529 Cu 0.68216 0.65628 0.65711
 Cu530 Cu 0.65657 0.68114 0.65576
 N531 N 0.64190 0.67062 0.67916
 N532 N 0.64241 0.68040 0.66986
 C533 C 0.63183 0.68917 0.67182
 C534 C 0.62420 0.68471 0.68296
 C535 C 0.63091 0.67286 0.68737
 H536 H 0.62980 0.69809 0.66550
 H537 H 0.62811 0.66649 0.69601
 N538 N 0.67177 0.68017 0.64239
 N539 N 0.68163 0.67080 0.64304
 C540 C 0.69040 0.67269 0.63251
 C541 C 0.68583 0.68377 0.62478
 C542 C 0.67397 0.68826 0.63138
 H543 H 0.69931 0.66628 0.63043
 H544 H 0.66746 0.69681 0.62840
 H545 H 0.67142 0.67144 0.66755
 H546 H 0.66119 0.66037 0.65562
 N547 N 0.68293 0.14294 0.16867
 N548 N 0.67413 0.14235 0.17892
 C549 C 0.67695 0.13113 0.18656
 C550 C 0.68820 0.12438 0.18086
 C551 C 0.69171 0.13221 0.16952
 H552 H 0.67138 0.12822 0.19572
 H553 H 0.69997 0.13020 0.16233
 Cu554 Cu 0.65998 0.15641 0.18161
 Cu555 Cu 0.68234 0.15747 0.15495
 Cu556 Cu 0.65568 0.18105 0.15758
 N557 N 0.64423 0.16897 0.18186
 N558 N 0.64264 0.17851 0.17244
 C559 C 0.63103 0.18570 0.17501
 C560 C 0.62492 0.18041 0.18670
 C561 C 0.63363 0.16979 0.19080
 H562 H 0.62744 0.19429 0.16892
 H563 H 0.63231 0.16309 0.19955
 N564 N 0.66985 0.18200 0.14320
 N565 N 0.67997 0.17294 0.14206
 C566 C 0.68771 0.17619 0.13104
 C567 C 0.68221 0.18789 0.12498
 C568 C 0.67091 0.19127 0.13300
 H569 H 0.69674 0.17052 0.12773
 H570 H 0.66382 0.19973 0.13137
 H571 H 0.67288 0.17217 0.16685
 H572 H 0.66130 0.16037 0.15699
 N573 N 0.17986 0.64192 0.17279
 N574 N 0.16975 0.64321 0.18171
 C575 C 0.17061 0.63294 0.19094
 C576 C 0.18183 0.62472 0.18762
 C577 C 0.18745 0.63075 0.17602
 H578 H 0.16349 0.63141 0.19934
 H579 H 0.19647 0.62734 0.17041
 Cu580 Cu 0.15633 0.65806 0.18011
 Cu581 Cu 0.18235 0.65479 0.15764
 Cu582 Cu 0.15846 0.68140 0.15484
 N583 N 0.14292 0.67289 0.17852
 N584 N 0.14389 0.68208 0.16865
 C585 C 0.13339 0.69113 0.16982
 C586 C 0.12535 0.68740 0.18098
 C587 C 0.13175 0.67576 0.18624
 H588 H 0.13164 0.69966 0.16290
 H589 H 0.12855 0.66990 0.19510
 N590 N 0.17395 0.67890 0.14189
 N591 N 0.18309 0.66884 0.14303
 C592 C 0.19232 0.66990 0.13274
 C593 C 0.18879 0.68111 0.12467
 C594 C 0.17709 0.68656 0.13080
 H595 H 0.20087 0.66291 0.13111
 H596 H 0.17136 0.69554 0.12750
 H597 H 0.17292 0.67145 0.16690
 H598 H 0.16178 0.66043 0.15584
 N599 N 0.18081 0.14257 0.67029
 N600 N 0.17231 0.14365 0.68073
 C601 C 0.17430 0.13301 0.68929
 C602 C 0.18470 0.12473 0.68405
 C603 C 0.18857 0.13112 0.67191
 H604 H 0.16852 0.13143 0.69863
 H605 H 0.19658 0.12784 0.66490
 Cu606 Cu 0.15951 0.15888 0.68264
 Cu607 Cu 0.18117 0.15633 0.65566
 Cu608 Cu 0.15555 0.18134 0.65682
 N609 N 0.14377 0.17123 0.68179
 N610 N 0.14227 0.18006 0.67170
 C611 C 0.13061 0.18739 0.67370
 C612 C 0.12445 0.18290 0.68572
 C613 C 0.13314 0.17262 0.69056
 H614 H 0.12701 0.19550 0.66698
 H615 H 0.13183 0.16651 0.69973
 N616 N 0.16991 0.18085 0.64259
 N617 N 0.17959 0.17127 0.64195
 C618 C 0.18765 0.17376 0.63095
 C619 C 0.18283 0.18552 0.62443
 C620 C 0.17158 0.18969 0.63213
 H621 H 0.19651 0.16762 0.62802
 H622 H 0.16498 0.19847 0.63017
 H623 H 0.17273 0.17255 0.66633
 H624 H 0.16037 0.16048 0.65783
 N625 N 0.31928 0.64325 0.32829
 N626 N 0.32969 0.64288 0.31965
 C627 C 0.32795 0.63213 0.31108
 C628 C 0.31575 0.62548 0.31457
 C629 C 0.31060 0.63286 0.32555
 H630 H 0.33492 0.62942 0.30285
 H631 H 0.30130 0.63072 0.33131
 Cu632 Cu 0.34432 0.65666 0.32057
 Cu633 Cu 0.31778 0.65677 0.34279
 Cu634 Cu 0.34309 0.68173 0.34458
 N635 N 0.35810 0.67126 0.32129
 N636 N 0.35747 0.68104 0.33058
 C637 C 0.36802 0.68982 0.32862
 C638 C 0.37575 0.68534 0.31752
 C639 C 0.36912 0.67351 0.31314
 H640 H 0.36995 0.69878 0.33488
 H641 H 0.37197 0.66716 0.30451
 N642 N 0.32762 0.68060 0.35777
 N643 N 0.31788 0.67117 0.35684
 C644 C 0.30879 0.67293 0.36712
 C645 C 0.31297 0.68397 0.37499
 C646 C 0.32499 0.68859 0.36876
 H647 H 0.29992 0.66644 0.36894
 H648 H 0.33128 0.69718 0.37196
 H649 H 0.32862 0.67216 0.33257
 H650 H 0.33880 0.66105 0.34459
 N651 N 0.31935 0.14212 0.82865
 N652 N 0.32831 0.14352 0.81865
 C653 C 0.32688 0.13299 0.80985
 C654 C 0.31641 0.12449 0.81455
 C655 C 0.31188 0.13065 0.82655
 H656 H 0.33308 0.13163 0.80073
 H657 H 0.30364 0.12717 0.83318
 Cu658 Cu 0.34085 0.15906 0.81784
 Cu659 Cu 0.31810 0.15535 0.84354
 Cu660 Cu 0.34312 0.18082 0.84462
 N661 N 0.35600 0.17196 0.81964
 N662 N 0.35693 0.18050 0.83001
 C663 C 0.36829 0.18836 0.82838
 C664 C 0.37481 0.18452 0.81630
 C665 C 0.36668 0.17404 0.81109
 H666 H 0.37141 0.19643 0.83533
 H667 H 0.36840 0.16829 0.80177
 N668 N 0.32817 0.17928 0.85835
 N669 N 0.31860 0.16965 0.85778
 C670 C 0.30977 0.17134 0.86829
 C671 C 0.31395 0.18257 0.87592
 C672 C 0.32569 0.18735 0.86931
 H673 H 0.30099 0.16479 0.87031
 H674 H 0.33182 0.19617 0.87216
 H675 H 0.32686 0.17234 0.83391
 H676 H 0.33901 0.16012 0.84263
 N677 N 0.81922 0.64116 0.82781
 N678 N 0.82841 0.64252 0.81800
 C679 C 0.82708 0.63205 0.80910
 C680 C 0.81642 0.62364 0.81351
 C681 C 0.81169 0.62976 0.82547
 H682 H 0.83346 0.63064 0.80012
 H683 H 0.80326 0.62630 0.83187
 Cu684 Cu 0.84095 0.65802 0.81753
 Cu685 Cu 0.81785 0.65442 0.84276
 Cu686 Cu 0.84296 0.68002 0.84397
 N687 N 0.85605 0.67094 0.81915
 N688 N 0.85687 0.67971 0.82935
 C689 C 0.86813 0.68770 0.82750
 C690 C 0.87465 0.68368 0.81546
 C691 C 0.86669 0.67296 0.81055
 H692 H 0.87116 0.69599 0.83423
 H693 H 0.86849 0.66701 0.80138
 N694 N 0.82790 0.67840 0.85768
 N695 N 0.81830 0.66876 0.85704
 C696 C 0.80939 0.67047 0.86748
 C697 C 0.81352 0.68168 0.87516
 C698 C 0.82533 0.68644 0.86866
 H699 H 0.80057 0.66394 0.86943
 H700 H 0.83145 0.69525 0.87158
 H701 H 0.82673 0.67141 0.83332
 H702 H 0.83873 0.65931 0.84229
 N703 N 0.82057 0.14213 0.32762
 N704 N 0.83055 0.14300 0.31852
 C705 C 0.82944 0.13245 0.30966
 C706 C 0.81818 0.12450 0.31344
 C707 C 0.81280 0.13099 0.32488
 H708 H 0.83644 0.13056 0.30124
 H709 H 0.80386 0.12791 0.33075
 Cu710 Cu 0.84423 0.15765 0.31952
 Cu711 Cu 0.81851 0.15528 0.34252
 Cu712 Cu 0.84266 0.18156 0.34425
 N713 N 0.85772 0.17246 0.32050
 N714 N 0.85694 0.18183 0.33017
 C715 C 0.86745 0.19075 0.32868
 C716 C 0.87533 0.18675 0.31752
 C717 C 0.86881 0.17508 0.31258
 H718 H 0.86934 0.19937 0.33541
 H719 H 0.87188 0.16901 0.30382
 N720 N 0.82747 0.17950 0.35755
 N721 N 0.81822 0.16956 0.35685
 C722 C 0.80938 0.17082 0.36744
 C723 C 0.81329 0.18204 0.37524
 C724 C 0.82478 0.18730 0.36862
 H725 H 0.80089 0.16390 0.36949
 H726 H 0.83072 0.19620 0.37163
 H727 H 0.82795 0.17155 0.33264
 H728 H 0.83916 0.16061 0.34380
 N729 N 0.68246 0.35752 0.32920
 N730 N 0.67293 0.35784 0.31962
 C731 C 0.67508 0.36890 0.31153
 C732 C 0.68665 0.37581 0.31630
 C733 C 0.69104 0.36825 0.32753
 H734 H 0.66880 0.37163 0.30277
 H735 H 0.69970 0.37051 0.33415
 Cu736 Cu 0.65864 0.34381 0.31862
 Cu737 Cu 0.68283 0.34352 0.34336
 Cu738 Cu 0.65637 0.31963 0.34363
 N739 N 0.64362 0.33059 0.31935
 N740 N 0.64259 0.32130 0.32910
 C741 C 0.63122 0.31361 0.32684
 C742 C 0.62481 0.31833 0.31500
 C743 C 0.63298 0.32914 0.31060
 H744 H 0.62805 0.30504 0.33316
 H745 H 0.63130 0.33552 0.30167
 N746 N 0.67142 0.31972 0.35738
 N747 N 0.68159 0.32872 0.35696
 C748 C 0.69038 0.32618 0.36733
 C749 C 0.68559 0.31505 0.37473
 C750 C 0.67348 0.31121 0.36815
 H751 H 0.69953 0.33216 0.36948
 H752 H 0.66680 0.30274 0.37090
 H753 H 0.67231 0.32809 0.33275
 H754 H 0.66147 0.34013 0.34317
 N755 N 0.67892 0.85762 0.82935
 N756 N 0.66928 0.85694 0.81985
 C757 C 0.67083 0.86754 0.81111
 C758 C 0.68204 0.87530 0.81531
 C759 C 0.68690 0.86869 0.82696
 H760 H 0.66425 0.86950 0.80236
 H761 H 0.69575 0.87157 0.83310
 Cu762 Cu 0.65566 0.84229 0.81986
 Cu763 Cu 0.68058 0.84384 0.84389
 Cu764 Cu 0.65664 0.81728 0.84340
 N765 N 0.64205 0.82761 0.81982
 N766 N 0.64269 0.81773 0.82901
 C767 C 0.63225 0.80890 0.82694
 C768 C 0.62452 0.81346 0.81586
 C769 C 0.63106 0.82541 0.81160
 H770 H 0.63025 0.79997 0.83324
 H771 H 0.62809 0.83195 0.80312
 N772 N 0.67143 0.81865 0.85716
 N773 N 0.68044 0.82882 0.85760
 C774 C 0.68888 0.82687 0.86847
 C775 C 0.68500 0.81487 0.87512
 C776 C 0.67391 0.80999 0.86764
 H777 H 0.69732 0.83360 0.87125
 H778 H 0.66790 0.80089 0.86981
 H779 H 0.67176 0.82809 0.83293
 H780 H 0.66000 0.83831 0.84416
 N781 N 0.17910 0.35714 0.82784
 N782 N 0.16919 0.35613 0.81868
 C783 C 0.17027 0.36667 0.80975
 C784 C 0.18142 0.37474 0.81357
 C785 C 0.18677 0.36833 0.82511
 H786 H 0.16333 0.36844 0.80123
 H787 H 0.19563 0.37153 0.83107
 Cu788 Cu 0.15570 0.34133 0.81974
 Cu789 Cu 0.18120 0.34404 0.84289
 Cu790 Cu 0.15712 0.31769 0.84473
 N791 N 0.14212 0.32661 0.82081
 N792 N 0.14287 0.31733 0.83058
 C793 C 0.13238 0.30838 0.82920
 C794 C 0.12453 0.31227 0.81795
 C795 C 0.13103 0.32390 0.81287
 H796 H 0.13045 0.29984 0.83604
 H797 H 0.12798 0.32986 0.80401
 N798 N 0.17228 0.31984 0.85806
 N799 N 0.18151 0.32979 0.85731
 C800 C 0.19037 0.32854 0.86791
 C801 C 0.18649 0.31730 0.87575
 C802 C 0.17499 0.31204 0.86916
 H803 H 0.19887 0.33544 0.86992
 H804 H 0.16908 0.30312 0.87219
 H805 H 0.17192 0.32765 0.83318
 H806 H 0.16058 0.33867 0.84409
 N807 N 0.18089 0.85794 0.33024
 N808 N 0.17104 0.85840 0.32096
 C809 C 0.17314 0.86937 0.31275
 C810 C 0.18496 0.87612 0.31711
 C811 C 0.18958 0.86854 0.32825
 H812 H 0.16670 0.87210 0.30410
 H813 H 0.19855 0.87060 0.33453
 Cu814 Cu 0.15654 0.84450 0.32037
 Cu815 Cu 0.18177 0.84377 0.34434
 Cu816 Cu 0.15701 0.81823 0.34287
 N817 N 0.14290 0.82977 0.31959
 N818 N 0.14341 0.81944 0.32828
 C819 C 0.13303 0.81069 0.32558
 C820 C 0.12550 0.81576 0.31460
 C821 C 0.13208 0.82793 0.31105
 H822 H 0.13096 0.80145 0.33138
 H823 H 0.12926 0.83483 0.30281
 N824 N 0.17152 0.81874 0.35697
 N825 N 0.18089 0.82855 0.35769
 C826 C 0.18897 0.82626 0.36873
 C827 C 0.18447 0.81442 0.37526
 C828 C 0.17340 0.80995 0.36747
 H829 H 0.19752 0.83271 0.37178
 H830 H 0.16697 0.80110 0.36948
 H831 H 0.17224 0.82905 0.33252
 H832 H 0.16097 0.83913 0.34443
 C833 C 0.24752 1.03687 0.24823
 C834 C 0.25442 1.03005 0.23768
 C835 C 0.25328 1.01571 0.23654
 C836 C 0.24609 1.00795 0.24658
 C837 C 0.23922 1.01523 0.25719
 C838 C 0.23977 1.02963 0.25787
 C839 C 0.24650 0.99243 0.24654
 C840 C 0.23679 0.98462 0.25417
 C841 C 0.23829 0.97032 0.25555
 C842 C 0.24889 0.96356 0.24854
 C843 C 0.25819 0.97084 0.24038
 C844 C 0.25714 0.98521 0.23955
 H845 H 0.24811 1.04800 0.24887
 H846 H 0.25837 1.01079 0.22800
 H847 H 0.23384 1.00993 0.26531
 H848 H 0.22822 0.98947 0.25936
 H849 H 0.24976 0.95246 0.24929
 H850 H 0.26501 0.99057 0.23381
 C851 C 0.24852 0.53628 0.74992
 C852 C 0.25833 0.52917 0.74223
 C853 C 0.25850 0.51476 0.74244
 C854 C 0.24811 0.50726 0.74949
 C855 C 0.23794 0.51486 0.75679
 C856 C 0.23851 0.52926 0.75742
 C857 C 0.24785 0.49173 0.74915
 C858 C 0.24017 0.48410 0.75895
 C859 C 0.23948 0.46971 0.75824
 C860 C 0.24732 0.46271 0.74849
 C861 C 0.25543 0.46985 0.73908
 C862 C 0.25527 0.48427 0.73903
 H863 H 0.24865 0.54745 0.75003
 H864 H 0.26671 0.50966 0.73691
 H865 H 0.22959 0.50984 0.76215
 H866 H 0.23456 0.48909 0.76711
 H867 H 0.24717 0.45155 0.74827
 H868 H 0.26111 0.48940 0.73111
 C869 C 0.74896 -0.03681 0.25257
 C870 C 0.75883 -0.02965 0.26009
 C871 C 0.75925 -0.01526 0.25938
 C872 C 0.74913 -0.00776 0.25187
 C873 C 0.73892 -0.01541 0.24471
 C874 C 0.73924 -0.02983 0.24460
 C875 C 0.74956 0.00777 0.25111
 C876 C 0.74226 0.01508 0.24077
 C877 C 0.74320 0.02944 0.23969
 C878 C 0.75183 0.03663 0.24861
 C879 C 0.75913 0.02980 0.25892
 C880 C 0.75763 0.01553 0.26047
 H881 H 0.74900 -0.04798 0.25274
 H882 H 0.76758 -0.01019 0.26471
 H883 H 0.73082 -0.01043 0.23890
 H884 H 0.73607 0.00987 0.23320
 H885 H 0.75260 0.04773 0.24775
 H886 H 0.76299 0.01071 0.26891
 C887 C 0.74735 0.46236 0.75187
 C888 C 0.75455 0.46921 0.76218
 C889 C 0.75310 0.48349 0.76356
 C890 C 0.74523 0.49126 0.75399
 C891 C 0.73796 0.48393 0.74368
 C892 C 0.73885 0.46954 0.74278
 C893 C 0.74525 0.50682 0.75429
 C894 C 0.73543 0.51459 0.74670
 C895 C 0.73656 0.52894 0.74562
 C896 C 0.74687 0.53578 0.75290
 C897 C 0.75629 0.52855 0.76100
 C898 C 0.75563 0.51415 0.76154
 H899 H 0.74818 0.45125 0.75111
 H900 H 0.75843 0.48833 0.77198
 H901 H 0.73194 0.48916 0.73594
 H902 H 0.72704 0.50973 0.74127
 H903 H 0.74747 0.54691 0.75233
 H904 H 0.76362 0.50893 0.76727
 C905 C 0.25273 0.46357 0.24833
 C906 C 0.26065 0.47070 0.25789
 C907 C 0.26025 0.48512 0.25810
 C908 C 0.25272 0.49259 0.24804
 C909 C 0.24526 0.48499 0.23809
 C910 C 0.24479 0.47060 0.23863
 C911 C 0.25227 0.50809 0.24821
 C912 C 0.24147 0.51541 0.24153
 C913 C 0.24073 0.52980 0.24212
 C914 C 0.25046 0.53701 0.24981
 C915 C 0.26119 0.53014 0.25655
 C916 C 0.26237 0.51581 0.25538
 H917 H 0.25263 0.45241 0.24851
 H918 H 0.26587 0.49027 0.26616
 H919 H 0.23952 0.49003 0.23001
 H920 H 0.23330 0.51015 0.23614
 H921 H 0.24985 0.54814 0.25036
 H922 H 0.27109 0.51089 0.26030
 C923 C 0.75183 1.03603 0.75291
 C924 C 0.76104 1.02895 0.74449
 C925 C 0.76207 1.01459 0.74550
 C926 C 0.75400 1.00707 0.75509
 C927 C 0.74529 1.01477 0.76398
 C928 C 0.74394 1.02908 0.76263
 C929 C 0.75405 0.99144 0.75526
 C930 C 0.74427 0.98392 0.76314
 C931 C 0.74349 0.96954 0.76234
 C932 C 0.75233 0.96245 0.75356
 C933 C 0.76217 0.96941 0.74578
 C934 C 0.76331 0.98374 0.74692
 H935 H 0.75101 1.04714 0.75208
 H936 H 0.76894 1.00963 0.73836
 H937 H 0.73918 1.00996 0.77186
 H938 H 0.73681 0.98889 0.76965
 H939 H 0.75166 0.95133 0.75290
 H940 H 0.77128 0.98857 0.74090
 C941 C 0.74950 0.53728 0.24810
 C942 C 0.75772 0.53011 0.23881
 C943 C 0.75737 0.51570 0.23858
 C944 C 0.74955 0.50819 0.24836
 C945 C 0.74173 0.51587 0.25804
 C946 C 0.74131 0.53029 0.25755
 C947 C 0.74953 0.49260 0.24844
 C948 C 0.73976 0.48510 0.25633
 C949 C 0.74007 0.47070 0.25677
 C950 C 0.74939 0.46351 0.24856
 C951 C 0.75878 0.47049 0.24028
 C952 C 0.75923 0.48491 0.24060
 H953 H 0.74951 0.54844 0.24800
 H954 H 0.76341 0.51067 0.23077
 H955 H 0.73574 0.51097 0.26597
 H956 H 0.73190 0.49013 0.26235
 H957 H 0.74933 0.45235 0.24862
 H958 H 0.76714 0.48979 0.23454
 C959 C 0.25010 -0.03674 0.75017
 C960 C 0.26008 -0.02970 0.75769
 C961 C 0.26054 -0.01530 0.75715
 C962 C 0.25033 -0.00773 0.74987
 C963 C 0.24000 -0.01521 0.74275
 C964 C 0.24027 -0.02962 0.74247
 C965 C 0.25049 0.00777 0.74965
 C966 C 0.24337 0.01527 0.73932
 C967 C 0.24312 0.02968 0.73945
 C968 C 0.25085 0.03678 0.74919
 C969 C 0.25840 0.02972 0.75916
 C970 C 0.25778 0.01533 0.75975
 H971 H 0.25005 -0.04791 0.75026
 H972 H 0.26887 -0.01025 0.76251
 H973 H 0.23180 -0.01009 0.73721
 H974 H 0.23784 0.01015 0.73119
 H975 H 0.25097 0.04794 0.74903
 H976 H 0.26316 0.01026 0.76805
 C977 C 0.24987 0.25003 1.03704
 C978 C 0.24125 0.25905 1.02992
 C979 C 0.24064 0.25842 1.01558
 C980 C 0.24839 0.24848 1.00814
 C981 C 0.25651 0.23901 1.01585
 C982 C 0.25756 0.24007 1.03015
 C983 C 0.24836 0.24828 0.99259
 C984 C 0.25807 0.24023 0.98512
 C985 C 0.25799 0.24007 0.97075
 C986 C 0.24892 0.24863 0.96362
 C987 C 0.23958 0.25702 0.97056
 C988 C 0.23891 0.25646 0.98490
 H989 H 0.25039 0.25057 1.04813
 H990 H 0.23431 0.26605 1.01056
 H991 H 0.26231 0.23086 1.01104
 H992 H 0.26575 0.23394 0.99013
 H993 H 0.24918 0.24880 0.95250
 H994 H 0.23109 0.26271 0.98973
 C995 C 0.25186 0.75237 0.53692
 C996 C 0.24188 0.75981 0.52973
 C997 C 0.24174 0.75940 0.51537
 C998 C 0.25226 0.75235 0.50802
 C999 C 0.26258 0.74532 0.51568
 C1000 C 0.26200 0.74487 0.53003
 C1001 C 0.25219 0.75197 0.49256
 C1002 C 0.25955 0.74165 0.48528
 C1003 C 0.25893 0.74093 0.47094
 C1004 C 0.25057 0.75018 0.46376
 C1005 C 0.24323 0.76046 0.47058
 C1006 C 0.24441 0.76166 0.48485
 H1007 H 0.25166 0.75229 0.54804
 H1008 H 0.23337 0.76464 0.51019
 H1009 H 0.27097 0.73992 0.51075
 H1010 H 0.26550 0.73384 0.49051
 H1011 H 0.24999 0.74957 0.45267
 H1012 H 0.23903 0.77007 0.48973
 C1013 C 0.25154 0.74965 -0.03619
 C1014 C 0.26117 0.75758 -0.02912
 C1015 C 0.26134 0.75735 -0.01475
 C1016 C 0.25113 0.75000 -0.00728
 C1017 C 0.24112 0.74251 -0.01484
 C1018 C 0.24169 0.74193 -0.02918
 C1019 C 0.25092 0.75014 0.00819
 C1020 C 0.24375 0.73989 0.01571
 C1021 C 0.24345 0.74012 0.03008
 C1022 C 0.25054 0.75039 0.03712
 C1023 C 0.25783 0.76054 0.03006
 C1024 C 0.25789 0.76052 0.01568
 H1025 H 0.25168 0.74953 -0.04731
 H1026 H 0.26940 0.76305 -0.00964
 H1027 H 0.23289 0.73697 -0.00981
 H1028 H 0.23862 0.73146 0.01065
 H1029 H 0.25042 0.75047 0.04824
 H1030 H 0.26316 0.76886 0.01058
 C1031 C 0.24819 0.25187 0.46345
 C1032 C 0.25731 0.26034 0.47052
 C1033 C 0.25761 0.26007 0.48487
 C1034 C 0.24891 0.25105 0.49245
 C1035 C 0.23987 0.24243 0.48482
 C1036 C 0.23944 0.24296 0.47047
 C1037 C 0.24928 0.25064 0.50803
 C1038 C 0.24084 0.24138 0.51560
 C1039 C 0.24096 0.24125 0.52996
 C1040 C 0.24987 0.24994 0.53704
 C1041 C 0.25848 0.25899 0.53003
 C1042 C 0.25803 0.25954 0.51568
 H1043 H 0.24797 0.25215 0.45234
 H1044 H 0.26494 0.26680 0.48971
 H1045 H 0.23287 0.23534 0.48965
 H1046 H 0.23385 0.23432 0.51074
 H1047 H 0.25003 0.24971 0.54815
 H1048 H 0.26477 0.26689 0.51086
 C1049 C 0.75155 0.75079 1.03657
 C1050 C 0.74205 0.75888 1.02943
 C1051 C 0.74212 0.75883 1.01505
 C1052 C 0.75240 0.75146 1.00765
 C1053 C 0.76229 0.74382 1.01532
 C1054 C 0.76147 0.74304 1.02964
 C1055 C 0.75259 0.75142 0.99215
 C1056 C 0.75995 0.74116 0.98475
 C1057 C 0.75961 0.74078 0.97038
 C1058 C 0.75157 0.75034 0.96326
 C1059 C 0.74419 0.76053 0.97017
 C1060 C 0.74507 0.76137 0.98450
 H1061 H 0.75120 0.75049 1.04768
 H1062 H 0.73411 0.76463 1.00991
 H1063 H 0.77055 0.73821 1.01041
 H1064 H 0.76566 0.73311 0.98988
 H1065 H 0.75120 0.74997 0.95215
 H1066 H 0.73963 0.76971 0.98943
 C1067 C 0.75168 0.25032 0.53653
 C1068 C 0.74354 0.25989 0.52957
 C1069 C 0.74419 0.26066 0.51524
 C1070 C 0.75237 0.25123 0.50758
 C1071 C 0.76060 0.24168 0.51507
 C1072 C 0.76035 0.24136 0.52943
 C1073 C 0.75191 0.25102 0.49204
 C1074 C 0.76129 0.24284 0.48431
 C1075 C 0.76018 0.24191 0.47001
 C1076 C 0.75043 0.24992 0.46312
 C1077 C 0.74142 0.25847 0.47029
 C1078 C 0.74182 0.25870 0.48464
 H1079 H 0.75140 0.24996 0.54764
 H1080 H 0.73802 0.26852 0.51038
 H1081 H 0.76698 0.23409 0.51010
 H1082 H 0.76939 0.23689 0.48908
 H1083 H 0.74986 0.24952 0.45202
 H1084 H 0.73420 0.26502 0.48967
 C1085 C 0.74841 0.25084 -0.03672
 C1086 C 0.75585 0.26096 -0.02982
 C1087 C 0.75489 0.26192 -0.01552
 C1088 C 0.74721 0.25215 -0.00785
 C1089 C 0.73977 0.24198 -0.01524
 C1090 C 0.74019 0.24149 -0.02960
 C1091 C 0.74730 0.25231 0.00765
 C1092 C 0.73738 0.24478 0.01528
 C1093 C 0.73784 0.24440 0.02963
 C1094 C 0.74793 0.25184 0.03660
 C1095 C 0.75774 0.25953 0.02947
 C1096 C 0.75752 0.25967 0.01509
 H1097 H 0.74883 0.25038 -0.04782
 H1098 H 0.76039 0.27020 -0.01060
 H1099 H 0.73390 0.23409 -0.01010
 H1100 H 0.72907 0.23929 0.01036
 H1101 H 0.74818 0.25160 0.04772
 H1102 H 0.76566 0.26525 0.00996
 C1103 C 0.75007 0.74886 0.46332
 C1104 C 0.75696 0.75941 0.47015
 C1105 C 0.75546 0.76077 0.48437
 C1106 C 0.74787 0.75096 0.49207
 C1107 C 0.74101 0.74037 0.48478
 C1108 C 0.74190 0.73949 0.47047
 C1109 C 0.74751 0.75151 0.50753
 C1110 C 0.73756 0.74396 0.51513
 C1111 C 0.73798 0.74367 0.52949
 C1112 C 0.74751 0.75180 0.53644
 C1113 C 0.75706 0.75977 0.52931
 C1114 C 0.75743 0.75923 0.51497
 H1115 H 0.75085 0.74813 0.45225
 H1116 H 0.76048 0.76939 0.48920
 H1117 H 0.73521 0.73246 0.48997
 H1118 H 0.72958 0.73804 0.51017
 H1119 H 0.74759 0.75182 0.54756
 H1120 H 0.76552 0.76492 0.50989
 C1121 C 1.03709 0.24652 0.24623
 C1122 C 1.02998 0.23870 0.25590
 C1123 C 1.01554 0.23978 0.25677
 C1124 C 1.00790 0.24792 0.24729
 C1125 C 1.01551 0.25539 0.23729
 C1126 C 1.03001 0.25510 0.23717
 C1127 C 0.99228 0.24895 0.24812
 C1128 C 0.98486 0.25934 0.24094
 C1129 C 0.97045 0.26059 0.24215
 C1130 C 0.96331 0.25181 0.25095
 C1131 C 0.97021 0.24142 0.25812
 C1132 C 0.98451 0.23971 0.25636
 H1133 H 1.04831 0.24613 0.24593
 H1134 H 1.01057 0.23417 0.26493
 H1135 H 1.01050 0.26174 0.22969
 H1136 H 0.99000 0.26679 0.23455
 H1137 H 0.95217 0.25276 0.25190
 H1138 H 0.98932 0.23119 0.26163
 C1139 C 0.53717 0.25142 0.75286
 C1140 C 0.53000 0.24210 0.76107
 C1141 C 0.51551 0.24260 0.76148
 C1142 C 0.50802 0.25274 0.75405
 C1143 C 0.51572 0.26251 0.74638
 C1144 C 0.53017 0.26153 0.74541
 C1145 C 0.49238 0.25286 0.75394
 C1146 C 0.48492 0.26013 0.74367
 C1147 C 0.47043 0.26039 0.74369
 C1148 C 0.46319 0.25256 0.75324
 C1149 C 0.47016 0.24483 0.76311
 C1150 C 0.48464 0.24542 0.76384
 H1151 H 0.54838 0.25094 0.75242
 H1152 H 0.51034 0.23471 0.76733
 H1153 H 0.51073 0.27080 0.74090
 H1154 H 0.49010 0.26571 0.73561
 H1155 H 0.45196 0.25245 0.75296
 H1156 H 0.48960 0.23983 0.77206
 C1157 C -0.03723 0.25168 0.74719
 C1158 C -0.03035 0.26180 0.75464
 C1159 C -0.01596 0.26302 0.75355
 C1160 C -0.00810 0.25344 0.74582
 C1161 C -0.01546 0.24328 0.73833
 C1162 C -0.02994 0.24255 0.73886
 C1163 C 0.00754 0.25347 0.74628
 C1164 C 0.01543 0.24555 0.73691
 C1165 C 0.02978 0.24411 0.73848
 C1166 C 0.03658 0.25139 0.74876
 C1167 C 0.02926 0.25989 0.75770
 C1168 C 0.01482 0.26077 0.75661
 H1169 H -0.04841 0.25100 0.74777
 H1170 H -0.01113 0.27130 0.75911
 H1171 H -0.01022 0.23549 0.73242
 H1172 H 0.01066 0.24012 0.72852
 H1173 H 0.04774 0.25059 0.74968
 H1174 H 0.00954 0.26682 0.76425
 C1175 C 0.46391 0.25004 0.24964
 C1176 C 0.47090 0.25988 0.25733
 C1177 C 0.48533 0.26087 0.25636
 C1178 C 0.49310 0.25146 0.24828
 C1179 C 0.48556 0.24167 0.24048
 C1180 C 0.47107 0.24108 0.24106
 C1181 C 0.50879 0.25156 0.24837
 C1182 C 0.51658 0.24325 0.23920
 C1183 C 0.53106 0.24264 0.23997
 C1184 C 0.53805 0.25109 0.24916
 C1185 C 0.53082 0.25974 0.25799
 C1186 C 0.51631 0.25965 0.25794
 H1187 H 0.45271 0.24953 0.25014
 H1188 H 0.49018 0.26892 0.26220
 H1189 H 0.49059 0.23412 0.23414
 H1190 H 0.51173 0.23692 0.23154
 H1191 H 0.54927 0.25087 0.24950
 H1192 H 0.51126 0.26603 0.26544
 C1193 C 1.03674 0.75204 0.75165
 C1194 C 1.02977 0.74217 0.75937
 C1195 C 1.01532 0.74121 0.75844
 C1196 C 1.00756 0.75068 0.75040
 C1197 C 1.01505 0.76058 0.74268
 C1198 C 1.02954 0.76107 0.74311
 C1199 C 0.99190 0.75022 0.75008
 C1200 C 0.98426 0.75767 0.74008
 C1201 C 0.96978 0.75718 0.73970
 C1202 C 0.96272 0.74880 0.74893
 C1203 C 0.96983 0.74132 0.75892
 C1204 C 0.98429 0.74235 0.75977
 H1205 H 1.04795 0.75245 0.75200
 H1206 H 1.01043 0.73307 0.76416
 H1207 H 1.00994 0.76821 0.73644
 H1208 H 0.98924 0.76376 0.73228
 H1209 H 0.95151 0.74840 0.74860
 H1210 H 0.98932 0.73685 0.76799
 C1211 C 0.53717 0.75070 0.25073
 C1212 C 0.52998 0.74229 0.25984
 C1213 C 0.51553 0.74137 0.25888
 C1214 C 0.50810 0.74847 0.24847
 C1215 C 0.51589 0.75634 0.23893
 C1216 C 0.53026 0.75781 0.24034
 C1217 C 0.49245 0.74796 0.24779
 C1218 C 0.48486 0.75752 0.23969
 C1219 C 0.47038 0.75699 0.23898
 C1220 C 0.46322 0.74762 0.24711
 C1221 C 0.47027 0.73845 0.25562
 C1222 C 0.48478 0.73821 0.25554
 H1223 H 0.54834 0.75144 0.25149
 H1224 H 0.51037 0.73531 0.26658
 H1225 H 0.51104 0.76157 0.23043
 H1226 H 0.48989 0.76547 0.23382
 H1227 H 0.45199 0.74757 0.24695
 H1228 H 0.48977 0.73052 0.26181
 C1229 C -0.03672 0.75234 0.24780
 C1230 C -0.02954 0.76080 0.25685
 C1231 C -0.01507 0.76136 0.25622
 C1232 C -0.00759 0.75383 0.24619
 C1233 C -0.01533 0.74585 0.23673
 C1234 C -0.02975 0.74476 0.23784
 C1235 C 0.00806 0.75398 0.24587
 C1236 C 0.01563 0.74404 0.23827
 C1237 C 0.03012 0.74431 0.23788
 C1238 C 0.03728 0.75378 0.24586
 C1239 C 0.03022 0.76334 0.25386
 C1240 C 0.01573 0.76384 0.25344
 H1241 H -0.04792 0.75183 0.24835
 H1242 H -0.00994 0.76744 0.26392
 H1243 H -0.01041 0.74022 0.22856
 H1244 H 0.01058 0.73602 0.23254
 H1245 H 0.04851 0.75365 0.24591
 H1246 H 0.01075 0.77184 0.25928
 C1247 C 0.46217 0.74980 0.74995
 C1248 C 0.46939 0.75755 0.75957
 C1249 C 0.48387 0.75708 0.75981
 C1250 C 0.49137 0.74971 0.74968
 C1251 C 0.48368 0.74235 0.73972
 C1252 C 0.46920 0.74195 0.74024
 C1253 C 0.50698 0.74969 0.74954
 C1254 C 0.51453 0.73962 0.74212
 C1255 C 0.52902 0.73997 0.74162
 C1256 C 0.53617 0.74965 0.74938
 C1257 C 0.52908 0.75934 0.75721
 C1258 C 0.51460 0.75975 0.75686
 H1259 H 0.45094 0.74985 0.75006
 H1260 H 0.48902 0.76261 0.76791
 H1261 H 0.48869 0.73673 0.73159
 H1262 H 0.50943 0.73150 0.73656
 H1263 H 0.54740 0.74964 0.74934
 H1264 H 0.50955 0.76789 0.76248
 C1265 C 0.39068 0.29328 0.31339
 C1266 C 0.40251 0.28697 0.30816
 C1267 C 0.41170 0.29433 0.29992
 C1268 C 0.40893 0.30821 0.29689
 C1269 C 0.39702 0.31456 0.30210
 C1270 C 0.38777 0.30715 0.31043
 N1271 N 0.42334 0.28718 0.29434
 N1272 N 0.43261 0.29289 0.28705
 C1273 C 0.44356 0.28486 0.28116
 C1274 C 0.45315 0.29113 0.27239
 C1275 C 0.46278 0.28313 0.26516
 C1276 C 0.46278 0.26875 0.26661
 C1277 C 0.45370 0.26260 0.27599
 C1278 C 0.44421 0.27056 0.28323
 H1279 H 0.38372 0.28718 0.31959
 H1280 H 0.40447 0.27623 0.31043
 H1281 H 0.41588 0.31406 0.29044
 H1282 H 0.39513 0.32527 0.29967
 H1283 H 0.45279 0.30215 0.27072
 H1284 H 0.46967 0.28804 0.25792
 H1285 H 0.45362 0.25153 0.27731
 H1286 H 0.43702 0.26543 0.29002
 C1287 C 0.39375 0.81824 0.79710
 C1288 C 0.40543 0.81278 0.79070
 C1289 C 0.41256 0.80171 0.79650
 C1290 C 0.40792 0.79610 0.80893
 C1291 C 0.39612 0.80146 0.81534
 C1292 C 0.38876 0.81259 0.80948
 N1293 N 0.42397 0.79596 0.78912
 N1294 N 0.43182 0.78659 0.79393
 C1295 C 0.44254 0.78060 0.78569
 C1296 C 0.45123 0.77048 0.79133
 C1297 C 0.46071 0.76344 0.78302
 C1298 C 0.46145 0.76640 0.76896
 C1299 C 0.45317 0.77691 0.76346
 C1300 C 0.44385 0.78401 0.77174
 H1301 H 0.38857 0.82672 0.79207
 H1302 H 0.40887 0.81710 0.78105
 H1303 H 0.41322 0.78742 0.81353
 H1304 H 0.39283 0.79675 0.82483
 H1305 H 0.45032 0.76774 0.80205
 H1306 H 0.46694 0.75525 0.78738
 H1307 H 0.45359 0.77927 0.75261
 H1308 H 0.43730 0.79178 0.76711
 C1309 C -0.10985 0.29368 0.81260
 C1310 C -0.09795 0.28761 0.80722
 C1311 C -0.08913 0.29510 0.79869
 C1312 C -0.09231 0.30885 0.79555
 C1313 C -0.10428 0.31496 0.80089
 C1314 C -0.11319 0.30743 0.80948
 N1315 N -0.07747 0.28816 0.79287
 N1316 N -0.06856 0.29404 0.78527
 C1317 C -0.05761 0.28624 0.77910
 C1318 C -0.04841 0.29270 0.77004
 C1319 C -0.03884 0.28488 0.76255
 C1320 C -0.03850 0.27052 0.76402
 C1321 C -0.04717 0.26419 0.77366
 C1322 C -0.05660 0.27195 0.78116
 H1323 H -0.11652 0.28749 0.81901
 H1324 H -0.09566 0.27695 0.80957
 H1325 H -0.08567 0.31480 0.78887
 H1326 H -0.10649 0.32558 0.79835
 H1327 H -0.04905 0.30370 0.76838
 H1328 H -0.03224 0.28993 0.75513
 H1329 H -0.04696 0.25312 0.77500
 H1330 H -0.06347 0.26669 0.78817
 C1331 C -0.11151 0.79375 0.31054
 C1332 C -0.09982 0.78722 0.30528
 C1333 C -0.08979 0.79471 0.29823
 C1334 C -0.09166 0.80893 0.29625
 C1335 C -0.10347 0.81552 0.30146
 C1336 C -0.11345 0.80798 0.30877
 N1337 N -0.07816 0.78739 0.29285
 N1338 N -0.06793 0.79314 0.28700
 C1339 C -0.05696 0.78499 0.28130
 C1340 C -0.04635 0.79141 0.27391
 C1341 C -0.03664 0.78351 0.26669
 C1342 C -0.03754 0.76909 0.26676
 C1343 C -0.04762 0.76269 0.27488
 C1344 C -0.05722 0.77054 0.28212
 H1345 H -0.11907 0.78756 0.31588
 H1346 H -0.09857 0.77623 0.30670
 H1347 H -0.08407 0.81489 0.29068
 H1348 H -0.10468 0.82649 0.29996
 H1349 H -0.04599 0.80253 0.27322
 H1350 H -0.02900 0.78864 0.26040
 H1351 H -0.04844 0.75157 0.27510
 H1352 H -0.06520 0.76529 0.28786
 C1353 C 0.61024 0.70848 0.31711
 C1354 C 0.59852 0.71528 0.31212
 C1355 C 0.58914 0.70846 0.30361
 C1356 C 0.59164 0.69467 0.30005
 C1357 C 0.60345 0.68788 0.30493
 C1358 C 0.61289 0.69472 0.31353
 N1359 N 0.57766 0.71604 0.29816
 N1360 N 0.56796 0.71047 0.29132
 C1361 C 0.55713 0.71857 0.28525
 C1362 C 0.54669 0.71203 0.27773
 C1363 C 0.53710 0.71979 0.27019
 C1364 C 0.53795 0.73421 0.27000
 C1365 C 0.54793 0.74076 0.27815
 C1366 C 0.55740 0.73302 0.28575
 H1367 H 0.61734 0.71412 0.32356
 H1368 H 0.59678 0.72595 0.31480
 H1369 H 0.58460 0.68924 0.29336
 H1370 H 0.60515 0.67727 0.30203
 H1371 H 0.54636 0.70090 0.27723
 H1372 H 0.52958 0.71454 0.26385
 H1373 H 0.54875 0.75187 0.27815
 H1374 H 0.56531 0.73835 0.29152
 C1375 C 0.61169 0.18716 0.79364
 C1376 C 0.59978 0.19208 0.78722
 C1377 C 0.58974 0.19921 0.79466
 C1378 C 0.59173 0.20140 0.80876
 C1379 C 0.60374 0.19650 0.81524
 C1380 C 0.61386 0.18931 0.80773
 N1381 N 0.57813 0.20470 0.78736
 N1382 N 0.56805 0.21090 0.79306
 C1383 C 0.55720 0.21690 0.78496
 C1384 C 0.54656 0.22428 0.79139
 C1385 C 0.53697 0.23177 0.78358
 C1386 C 0.53801 0.23202 0.76922
 C1387 C 0.54818 0.22399 0.76278
 C1388 C 0.55765 0.21646 0.77056
 H1389 H 0.61928 0.18187 0.78742
 H1390 H 0.59842 0.19047 0.77632
 H1391 H 0.58412 0.20701 0.81470
 H1392 H 0.60505 0.19830 0.82611
 H1393 H 0.54607 0.22472 0.80247
 H1394 H 0.52928 0.23802 0.78873
 H1395 H 0.54915 0.22404 0.75172
 H1396 H 0.56569 0.21078 0.76529
 C1397 C 1.10975 0.70661 0.81506
 C1398 C 1.09814 0.71322 0.80966
 C1399 C 1.08893 0.70614 0.80122
 C1400 C 1.09146 0.69225 0.79813
 C1401 C 1.10317 0.68559 0.80349
 C1402 C 1.11242 0.69271 0.81205
 N1403 N 1.07746 0.71358 0.79560
 N1404 N 1.06808 0.70815 0.78823
 C1405 C 1.05726 0.71646 0.78244
 C1406 C 1.04742 0.71046 0.77376
 C1407 C 1.03777 0.71871 0.76679
 C1408 C 1.03798 0.73306 0.76840
 C1409 C 1.04737 0.73895 0.77764
 C1410 C 1.05689 0.73075 0.78462
 H1411 H 1.11672 0.71250 0.82143
 H1412 H 1.09636 0.72398 0.81198
 H1413 H 1.08450 0.68660 0.79152
 H1414 H 1.10489 0.67487 0.80102
 H1415 H 1.04756 0.69947 0.77199
 H1416 H 1.03066 0.71399 0.75963
 H1417 H 1.04766 0.75000 0.77906
 H1418 H 1.06428 0.73568 0.79134
 C1419 C 1.10959 0.18243 0.29241
 C1420 C 1.09784 0.18742 0.28569
 C1421 C 1.08881 0.19651 0.29229
 C1422 C 1.09163 0.20057 0.30580
 C1423 C 1.10344 0.19564 0.31253
 C1424 C 1.11259 0.18654 0.30589
 N1425 N 1.07731 0.20191 0.28473
 N1426 N 1.06817 0.20979 0.28993
 C1427 C 1.05732 0.21554 0.28165
 C1428 C 1.04763 0.22451 0.28755
 C1429 C 1.03800 0.23148 0.27931
 C1430 C 1.03807 0.22960 0.26505
 C1431 C 1.04732 0.22010 0.25926
 C1432 C 1.05682 0.21309 0.26746
 H1433 H 1.11645 0.17557 0.28692
 H1434 H 1.09583 0.18432 0.27522
 H1435 H 1.08483 0.20767 0.31108
 H1436 H 1.10536 0.19894 0.32294
 H1437 H 1.04790 0.22651 0.29846
 H1438 H 1.03102 0.23887 0.28394
 H1439 H 1.04751 0.21849 0.24828
 H1440 H 1.06412 0.20618 0.26262
 C1441 C 0.61034 0.29481 0.68955
 C1442 C 0.59869 0.28863 0.69523
 C1443 C 0.58944 0.29626 0.70317
 C1444 C 0.59202 0.31029 0.70550
 C1445 C 0.60378 0.31653 0.69983
 C1446 C 0.61303 0.30884 0.69172
 N1447 N 0.57787 0.28923 0.70900
 N1448 N 0.56853 0.29497 0.71620
 C1449 C 0.55761 0.28690 0.72208
 C1450 C 0.54805 0.29304 0.73102
 C1451 C 0.53840 0.28494 0.73809
 C1452 C 0.53830 0.27060 0.73632
 C1453 C 0.54733 0.26461 0.72678
 C1454 C 0.55686 0.27265 0.71971
 H1455 H 0.61730 0.28848 0.68358
 H1456 H 0.59687 0.27778 0.69350
 H1457 H 0.58502 0.31636 0.71170
 H1458 H 0.60553 0.32737 0.70164
 H1459 H 0.54846 0.30400 0.73290
 H1460 H 0.53153 0.28973 0.74544
 H1461 H 0.54734 0.25358 0.72519
 H1462 H 0.56398 0.26762 0.71276
 C1463 C 0.60916 0.81514 0.20495
 C1464 C 0.59757 0.80967 0.21148
 C1465 C 0.58871 0.80074 0.20453
 C1466 C 0.59157 0.79727 0.19085
 C1467 C 0.60325 0.80270 0.18429
 C1468 C 0.61218 0.81170 0.19129
 N1469 N 0.57731 0.79497 0.21190
 N1470 N 0.56828 0.78714 0.20653
 C1471 C 0.55753 0.78118 0.21475
 C1472 C 0.54801 0.77212 0.20877
 C1473 C 0.53845 0.76502 0.21695
 C1474 C 0.53843 0.76686 0.23123
 C1475 C 0.54749 0.77647 0.23707
 C1476 C 0.55692 0.78358 0.22893
 H1477 H 0.61586 0.82187 0.21075
 H1478 H 0.59554 0.81230 0.22207
 H1479 H 0.58489 0.79030 0.18530
 H1480 H 0.60523 0.79990 0.17374
 H1481 H 0.54833 0.77019 0.19785
 H1482 H 0.53158 0.75761 0.21225
 H1483 H 0.54757 0.77812 0.24805
 H1484 H 0.56406 0.79058 0.23384
 C1485 C 1.10986 0.31221 0.20440
 C1486 C 1.09816 0.30661 0.21059
 C1487 C 1.08920 0.29818 0.20317
 C1488 C 1.09211 0.29531 0.18935
 C1489 C 1.10391 0.30088 0.18312
 C1490 C 1.11290 0.30944 0.19059
 N1491 N 1.07764 0.29232 0.21020
 N1492 N 1.06848 0.28490 0.20447
 C1493 C 1.05757 0.27886 0.21242
 C1494 C 1.04798 0.27008 0.20611
 C1495 C 1.03828 0.26287 0.21403
 C1496 C 1.03818 0.26434 0.22833
 C1497 C 1.04731 0.27364 0.23453
 C1498 C 1.05687 0.28087 0.22667
 H1499 H 1.11661 0.31856 0.21056
 H1500 H 1.09610 0.30875 0.22129
 H1501 H 1.08535 0.28872 0.18345
 H1502 H 1.10592 0.29859 0.17246
 H1503 H 1.04837 0.26845 0.19515
 H1504 H 1.03136 0.25565 0.20911
 H1505 H 1.04736 0.27491 0.24556
 H1506 H 1.06405 0.28764 0.23183
 C1507 C 1.11008 0.81552 0.70683
 C1508 C 1.09856 0.81047 0.71377
 C1509 C 1.08895 0.80217 0.70705
 C1510 C 1.09106 0.79878 0.69320
 C1511 C 1.10271 0.80375 0.68623
 C1512 C 1.11230 0.81224 0.69297
 N1513 N 1.07753 0.79694 0.71477
 N1514 N 1.06758 0.79024 0.70949
 C1515 C 1.05679 0.78467 0.71792
 C1516 C 1.04618 0.77696 0.71189
 C1517 C 1.03655 0.77002 0.72009
 C1518 C 1.03754 0.77065 0.73444
 C1519 C 1.04770 0.77898 0.74043
 C1520 C 1.05721 0.78598 0.73227
 H1521 H 1.11734 0.82183 0.71243
 H1522 H 1.09713 0.81299 0.72449
 H1523 H 1.08381 0.79223 0.68785
 H1524 H 1.10411 0.80107 0.67556
 H1525 H 1.04573 0.77587 0.70085
 H1526 H 1.02889 0.76351 0.71528
 H1527 H 1.04863 0.77959 0.75148
 H1528 H 1.06523 0.79192 0.73722
 C1529 C 0.39062 0.68427 0.70558
 C1530 C 0.40229 0.68970 0.71198
 C1531 C 0.41114 0.69854 0.70488
 C1532 C 0.40825 0.70189 0.69117
 C1533 C 0.39651 0.69648 0.68473
 C1534 C 0.38754 0.68764 0.69189
 N1535 N 0.42254 0.70439 0.71214
 N1536 N 0.43144 0.71230 0.70667
 C1537 C 0.44215 0.71839 0.71481
 C1538 C 0.45151 0.72759 0.70877
 C1539 C 0.46099 0.73481 0.71690
 C1540 C 0.46108 0.73293 0.73117
 C1541 C 0.45217 0.72325 0.73709
 C1542 C 0.44283 0.71600 0.72901
 H1543 H 0.38390 0.67765 0.71149
 H1544 H 0.40436 0.68717 0.72260
 H1545 H 0.41493 0.70878 0.68551
 H1546 H 0.39450 0.69922 0.67416
 H1547 H 0.45111 0.72953 0.69784
 H1548 H 0.46776 0.74231 0.71219
 H1549 H 0.45214 0.72163 0.74808
 H1550 H 0.43581 0.70891 0.73396
 C1551 C 0.39078 0.18449 0.20741
 C1552 C 0.40253 0.18954 0.21400
 C1553 C 0.41190 0.19791 0.20700
 C1554 C 0.40942 0.20119 0.19319
 C1555 C 0.39760 0.19619 0.18656
 C1556 C 0.38812 0.18779 0.19362
 N1557 N 0.42338 0.20343 0.21443
 N1558 N 0.43294 0.21047 0.20886
 C1559 C 0.44377 0.21645 0.21694
 C1560 C 0.45400 0.22436 0.21052
 C1561 C 0.46365 0.23168 0.21836
 C1562 C 0.46305 0.23124 0.23273
 C1563 C 0.45326 0.22275 0.23912
 C1564 C 0.44374 0.21537 0.23132
 H1565 H 0.38369 0.17821 0.21325
 H1566 H 0.40426 0.18707 0.22470
 H1567 H 0.41648 0.20776 0.18760
 H1568 H 0.39592 0.19890 0.17593
 H1569 H 0.45414 0.22530 0.19946
 H1570 H 0.47103 0.23829 0.21324
 H1571 H 0.45263 0.22228 0.25020
 H1572 H 0.43600 0.20931 0.23656
 C1573 C -0.10954 0.68787 0.20525
 C1574 C -0.09773 0.69330 0.21138
 C1575 C -0.08839 0.70111 0.20374
 C1576 C -0.09091 0.70339 0.18974
 C1577 C -0.10279 0.69795 0.18356
 C1578 C -0.11228 0.69016 0.19128
 N1579 N -0.07688 0.70705 0.21077
 N1580 N -0.06766 0.71438 0.20501
 C1581 C -0.05688 0.72056 0.21300
 C1582 C -0.04735 0.72942 0.20673
 C1583 C -0.03783 0.73680 0.21469
 C1584 C -0.03786 0.73543 0.22902
 C1585 C -0.04692 0.72602 0.23518
 C1586 C -0.05630 0.71863 0.22728
 H1587 H -0.11661 0.68210 0.21162
 H1588 H -0.09594 0.69158 0.22220
 H1589 H -0.08382 0.70947 0.18366
 H1590 H -0.10451 0.69986 0.17276
 H1591 H -0.04766 0.73100 0.19575
 H1592 H -0.03097 0.74408 0.20976
 H1593 H -0.04704 0.72475 0.24622
 H1594 H -0.06344 0.71179 0.23242
 C1595 C -0.10974 0.18451 0.70651
 C1596 C -0.09808 0.18980 0.71306
 C1597 C -0.08872 0.19807 0.70591
 C1598 C -0.09117 0.20106 0.69202
 C1599 C -0.10293 0.19585 0.68545
 C1600 C -0.11235 0.18750 0.69263
 N1601 N -0.07729 0.20380 0.71325
 N1602 N -0.06764 0.21060 0.70752
 C1603 C -0.05687 0.21685 0.71547
 C1604 C -0.04656 0.22448 0.70884
 C1605 C -0.03702 0.23214 0.71648
 C1606 C -0.03782 0.23232 0.73085
 C1607 C -0.04766 0.22406 0.73747
 C1608 C -0.05707 0.21635 0.72987
 H1609 H -0.11683 0.17829 0.71243
 H1610 H -0.09637 0.18756 0.72380
 H1611 H -0.08413 0.20756 0.68633
 H1612 H -0.10460 0.19831 0.67476
 H1613 H -0.04628 0.22495 0.69776
 H1614 H -0.02959 0.23855 0.71119
 H1615 H -0.04842 0.22405 0.74855
 H1616 H -0.06487 0.21049 0.73526
 C1617 C 0.31561 0.39123 0.29500
 C1618 C 0.31038 0.40285 0.28839
 C1619 C 0.30144 0.41184 0.29520
 C1620 C 0.29768 0.40906 0.30883
 C1621 C 0.30287 0.39734 0.31549
 C1622 C 0.31192 0.38830 0.30864
 N1623 N 0.29603 0.42333 0.28772
 N1624 N 0.28814 0.43246 0.29287
 C1625 C 0.28267 0.44332 0.28445
 C1626 C 0.27336 0.45288 0.29003
 C1627 C 0.26675 0.46256 0.28155
 C1628 C 0.26937 0.46266 0.26741
 C1629 C 0.27919 0.45355 0.26197
 C1630 C 0.28582 0.44400 0.27039
 H1631 H 0.32236 0.38444 0.28930
 H1632 H 0.31322 0.40483 0.27783
 H1633 H 0.29069 0.41585 0.31426
 H1634 H 0.29988 0.39542 0.32600
 H1635 H 0.27082 0.45249 0.30083
 H1636 H 0.25908 0.46944 0.28588
 H1637 H 0.28132 0.45347 0.25107
 H1638 H 0.29302 0.43682 0.26579
 C1639 C 0.29540 -0.10760 0.81585
 C1640 C 0.28938 -0.09565 0.81059
 C1641 C 0.29573 -0.08837 0.80000
 C1642 C 0.30831 -0.09317 0.79463
 C1643 C 0.31437 -0.10522 0.79982
 C1644 C 0.30799 -0.11268 0.81052
 N1645 N 0.28876 -0.07656 0.79456
 N1646 N 0.29392 -0.06870 0.78546
 C1647 C 0.28601 -0.05749 0.77989
 C1648 C 0.29172 -0.04923 0.76955
 C1649 C 0.28356 -0.03937 0.76281
 C1650 C 0.26958 -0.03776 0.76636
 C1651 C 0.26407 -0.04555 0.77715
 C1652 C 0.27221 -0.05528 0.78391
 H1653 H 0.28996 -0.11284 0.82398
 H1654 H 0.27960 -0.09210 0.81471
 H1655 H 0.31334 -0.08775 0.78632
 H1656 H 0.32402 -0.10860 0.79535
 H1657 H 0.30233 -0.05083 0.76634
 H1658 H 0.28790 -0.03354 0.75439
 H1659 H 0.25327 -0.04449 0.77993
 H1660 H 0.26752 -0.06145 0.79188
 C1661 C 0.81653 0.39309 0.79702
 C1662 C 0.81099 0.40483 0.79082
 C1663 C 0.80021 0.41209 0.79703
 C1664 C 0.79498 0.40752 0.80964
 C1665 C 0.80041 0.39568 0.81584
 C1666 C 0.81125 0.38820 0.80960
 N1667 N 0.79429 0.42354 0.78986
 N1668 N 0.78522 0.43146 0.79508
 C1669 C 0.77892 0.44222 0.78714
 C1670 C 0.76919 0.45098 0.79328
 C1671 C 0.76174 0.46047 0.78532
 C1672 C 0.76387 0.46114 0.77111
 C1673 C 0.77407 0.45281 0.76510
 C1674 C 0.78158 0.44348 0.77304
 H1675 H 0.82476 0.38781 0.79170
 H1676 H 0.81502 0.40821 0.78103
 H1677 H 0.78655 0.41293 0.81457
 H1678 H 0.79600 0.39247 0.82551
 H1679 H 0.76704 0.45012 0.80413
 H1680 H 0.75385 0.46677 0.79011
 H1681 H 0.77589 0.45322 0.75415
 H1682 H 0.78906 0.43688 0.76803
 C1683 C 0.79612 -0.10708 0.31766
 C1684 C 0.78988 -0.09525 0.31242
 C1685 C 0.79604 -0.08791 0.30177
 C1686 C 0.80866 -0.09254 0.29631
 C1687 C 0.81494 -0.10449 0.30150
 C1688 C 0.80875 -0.11200 0.31227
 N1689 N 0.78881 -0.07623 0.29638
 N1690 N 0.79370 -0.06826 0.28723
 C1691 C 0.78550 -0.05719 0.28180
 C1692 C 0.79095 -0.04868 0.27153
 C1693 C 0.78253 -0.03889 0.26499
 C1694 C 0.76855 -0.03762 0.26865
 C1695 C 0.76328 -0.04568 0.27935
 C1696 C 0.77168 -0.05532 0.28593
 H1697 H 0.79079 -0.11236 0.32584
 H1698 H 0.78009 -0.09183 0.31661
 H1699 H 0.81354 -0.08705 0.28796
 H1700 H 0.82462 -0.10776 0.29699
 H1701 H 0.80156 -0.05000 0.26822
 H1702 H 0.78669 -0.03286 0.25662
 H1703 H 0.75248 -0.04488 0.28222
 H1704 H 0.76717 -0.06171 0.29385
 C1705 C 0.29307 0.60827 0.68616
 C1706 C 0.28688 0.59647 0.69145
 C1707 C 0.29408 0.58792 0.70052
 C1708 C 0.30768 0.59129 0.70430
 C1709 C 0.31391 0.60318 0.69903
 C1710 C 0.30665 0.61181 0.68990
 N1711 N 0.28699 0.57628 0.70607
 N1712 N 0.29248 0.56758 0.71420
 C1713 C 0.28438 0.55659 0.71983
 C1714 C 0.29026 0.54760 0.72949
 C1715 C 0.28200 0.53790 0.73629
 C1716 C 0.26777 0.53720 0.73349
 C1717 C 0.26208 0.54571 0.72333
 C1718 C 0.27028 0.55527 0.71652
 H1719 H 0.28707 0.61472 0.67932
 H1720 H 0.27634 0.59402 0.68859
 H1721 H 0.31340 0.58484 0.71138
 H1722 H 0.32440 0.60554 0.70206
 H1723 H 0.30110 0.54848 0.73215
 H1724 H 0.28652 0.53147 0.74420
 H1725 H 0.25111 0.54532 0.72107
 H1726 H 0.26545 0.56201 0.70907
 C1727 C 0.31239 1.10850 0.20389
 C1728 C 0.30667 1.09686 0.21000
 C1729 C 0.29802 1.08815 0.20255
 C1730 C 0.29514 1.09116 0.18875
 C1731 C 0.30087 1.10288 0.18258
 C1732 C 0.30955 1.11171 0.19011
 N1733 N 0.29195 1.07674 0.20960
 N1734 N 0.28394 1.06799 0.20404
 C1735 C 0.27783 1.05725 0.21212
 C1736 C 0.26832 1.04817 0.20614
 C1737 C 0.26115 1.03863 0.21428
 C1738 C 0.26339 1.03820 0.22849
 C1739 C 0.27342 1.04680 0.23431
 C1740 C 0.28059 1.05620 0.22624
 H1741 H 0.31883 1.11506 0.21013
 H1742 H 0.30884 1.09469 0.22068
 H1743 H 0.28841 1.08457 0.18283
 H1744 H 0.29851 1.10499 0.17194
 H1745 H 0.26611 1.04882 0.19528
 H1746 H 0.25341 1.03209 0.20962
 H1747 H 0.27536 1.04655 0.24525
 H1748 H 0.28794 1.06298 0.23115
 C1749 C 0.81677 0.60757 0.20446
 C1750 C 0.81179 0.59554 0.21048
 C1751 C 0.80237 0.58721 0.20351
 C1752 C 0.79813 0.59090 0.19023
 C1753 C 0.80309 0.60299 0.18418
 C1754 C 0.81236 0.61156 0.19130
 N1755 N 0.79660 0.57571 0.21065
 N1756 N 0.78811 0.56730 0.20530
 C1757 C 0.78192 0.55664 0.21341
 C1758 C 0.77248 0.54754 0.20738
 C1759 C 0.76507 0.53820 0.21551
 C1760 C 0.76699 0.53802 0.22977
 C1761 C 0.77687 0.54671 0.23570
 C1762 C 0.78433 0.55588 0.22761
 H1763 H 0.82379 0.61388 0.21034
 H1764 H 0.81503 0.59284 0.22077
 H1765 H 0.79079 0.58462 0.18468
 H1766 H 0.79957 0.60566 0.17399
 H1767 H 0.77049 0.54803 0.19647
 H1768 H 0.75739 0.53164 0.21080
 H1769 H 0.77845 0.54671 0.24669
 H1770 H 0.79155 0.56275 0.23256
 C1771 C 0.79332 1.10824 0.68655
 C1772 C 0.78704 1.09647 0.69182
 C1773 C 0.79434 1.08761 0.70051
 C1774 C 0.80812 1.09066 0.70394
 C1775 C 0.81442 1.10253 0.69872
 C1776 C 0.80707 1.11144 0.68996
 N1777 N 0.78721 1.07606 0.70618
 N1778 N 0.79304 1.06691 0.71354
 C1779 C 0.78513 1.05604 0.71963
 C1780 C 0.79175 1.04635 0.72805
 C1781 C 0.78396 1.03677 0.73550
 C1782 C 0.76946 1.03690 0.73467
 C1783 C 0.76292 1.04611 0.72566
 C1784 C 0.77067 1.05556 0.71816
 H1785 H 0.78726 1.11494 0.68000
 H1786 H 0.77637 1.09430 0.68924
 H1787 H 0.81392 1.08400 0.71075
 H1788 H 0.82504 1.10466 0.70150
 H1789 H 0.80288 1.04660 0.72928
 H1790 H 0.78918 1.02981 0.74250
 H1791 H 0.75174 1.04635 0.72486
 H1792 H 0.76528 1.06286 0.71167
 C1793 C 0.68283 0.60856 0.29302
 C1794 C 0.68800 0.59689 0.28642
 C1795 C 0.69723 0.58805 0.29313
 C1796 C 0.70117 0.59092 0.30667
 C1797 C 0.69606 0.60264 0.31328
 C1798 C 0.68690 0.61166 0.30649
 N1799 N 0.70299 0.57675 0.28565
 N1800 N 0.71114 0.56790 0.29096
 C1801 C 0.71731 0.55727 0.28279
 C1802 C 0.72641 0.54780 0.28889
 C1803 C 0.73373 0.53834 0.28080
 C1804 C 0.73209 0.53840 0.26651
 C1805 C 0.72253 0.54748 0.26051
 C1806 C 0.71517 0.55679 0.26855
 H1807 H 0.67590 0.61529 0.28742
 H1808 H 0.68497 0.59482 0.27593
 H1809 H 0.70835 0.58426 0.31205
 H1810 H 0.69931 0.60461 0.32370
 H1811 H 0.72819 0.54807 0.29984
 H1812 H 0.74115 0.53147 0.28560
 H1813 H 0.72112 0.54765 0.24949
 H1814 H 0.70819 0.56395 0.26356
 C1815 C 0.68374 1.10723 0.79533
 C1816 C 0.68865 1.09518 0.78924
 C1817 C 0.69836 1.08691 0.79595
 C1818 C 0.70302 1.09071 0.80902
 C1819 C 0.69819 1.10280 0.81515
 C1820 C 0.68855 1.11137 0.80834
 N1821 N 0.70399 1.07532 0.78884
 N1822 N 0.71229 1.06679 0.79440
 C1823 C 0.71860 1.05597 0.78662
 C1824 C 0.72765 1.04674 0.79314
 C1825 C 0.73535 1.03728 0.78544
 C1826 C 0.73417 1.03709 0.77110
 C1827 C 0.72460 1.04587 0.76467
 C1828 C 0.71684 1.05519 0.77234
 H1829 H 0.67634 1.11331 0.78962
 H1830 H 0.68504 1.09239 0.77911
 H1831 H 0.71063 1.08451 0.81437
 H1832 H 0.70221 1.10541 0.82514
 H1833 H 0.72912 1.04725 0.80412
 H1834 H 0.74275 1.03065 0.79057
 H1835 H 0.72353 1.04585 0.75361
 H1836 H 0.70992 1.06217 0.76703
 C1837 C 0.20508 0.61010 0.81124
 C1838 C 0.21116 0.59834 0.80572
 C1839 C 0.20340 0.58925 0.79777
 C1840 C 0.18937 0.59211 0.79523
 C1841 C 0.18323 0.60397 0.80075
 C1842 C 0.19103 0.61305 0.80890
 N1843 N 0.21033 0.57748 0.79225
 N1844 N 0.20454 0.56831 0.78494
 C1845 C 0.21257 0.55713 0.77951
 C1846 C 0.20663 0.54799 0.77008
 C1847 C 0.21485 0.53812 0.76343
 C1848 C 0.22909 0.53737 0.76616
 C1849 C 0.23483 0.54598 0.77616
 C1850 C 0.22667 0.55572 0.78281
 H1851 H 0.21149 0.61692 0.81723
 H1852 H 0.22201 0.59630 0.80761
 H1853 H 0.18321 0.58523 0.78902
 H1854 H 0.17238 0.60592 0.79879
 H1855 H 0.19578 0.54892 0.76746
 H1856 H 0.21028 0.53163 0.75565
 H1857 H 0.24581 0.54553 0.77840
 H1858 H 0.23155 0.56251 0.79014
 C1859 C 0.20916 1.10956 0.31662
 C1860 C 0.21574 1.09781 0.31154
 C1861 C 0.20858 1.08858 0.30317
 C1862 C 0.19468 1.09124 0.29987
 C1863 C 0.18811 1.10306 0.30484
 C1864 C 0.19528 1.11237 0.31326
 N1865 N 0.21591 1.07707 0.29755
 N1866 N 0.20992 1.06747 0.29099
 C1867 C 0.21763 1.05660 0.28460
 C1868 C 0.21055 1.04626 0.27749
 C1869 C 0.21784 1.03669 0.26954
 C1870 C 0.23231 1.03748 0.26853
 C1871 C 0.23942 1.04734 0.27630
 C1872 C 0.23217 1.05679 0.28431
 H1873 H 0.21504 1.11656 0.32295
 H1874 H 0.22651 1.09595 0.31402
 H1875 H 0.18898 1.08432 0.29329
 H1876 H 0.17740 1.10487 0.30211
 H1877 H 0.19935 1.04601 0.27761
 H1878 H 0.21216 1.02925 0.26352
 H1879 H 0.25058 1.04810 0.27565
 H1880 H 0.23790 1.06463 0.28974
 C1881 C 0.70672 0.38968 0.68524
 C1882 C 0.71331 0.40123 0.69062
 C1883 C 0.70603 0.41058 0.69876
 C1884 C 0.69198 0.40820 0.70160
 C1885 C 0.68538 0.39653 0.69631
 C1886 C 0.69268 0.38717 0.68802
 N1887 N 0.71338 0.42200 0.70445
 N1888 N 0.70753 0.43170 0.71102
 C1889 C 0.71547 0.44249 0.71720
 C1890 C 0.70871 0.45281 0.72468
 C1891 C 0.71635 0.46238 0.73228
 C1892 C 0.73086 0.46164 0.73254
 C1893 C 0.73762 0.45179 0.72442
 C1894 C 0.73002 0.44234 0.71677
 H1895 H 0.71274 0.38261 0.67908
 H1896 H 0.72418 0.40287 0.68850
 H1897 H 0.68618 0.41523 0.70801
 H1898 H 0.67455 0.39493 0.69861
 H1899 H 0.69752 0.45307 0.72509
 H1900 H 0.71093 0.46980 0.73859
 H1901 H 0.74880 0.45106 0.72446
 H1902 H 0.73553 0.43456 0.71101
 C1903 C 0.70645 -0.10882 0.18696
 C1904 C 0.71261 -0.09713 0.19254
 C1905 C 0.70516 -0.08848 0.20127
 C1906 C 0.69136 -0.09164 0.20445
 C1907 C 0.68516 -0.10341 0.19890
 C1908 C 0.69266 -0.11214 0.19009
 N1909 N 0.71216 -0.07695 0.20714
 N1910 N 0.70637 -0.06816 0.21494
 C1911 C 0.71427 -0.05726 0.22100
 C1912 C 0.70793 -0.04816 0.23023
 C1913 C 0.71587 -0.03851 0.23745
 C1914 C 0.73025 -0.03798 0.23551
 C1915 C 0.73644 -0.04661 0.22577
 C1916 C 0.72855 -0.05612 0.21855
 H1917 H 0.71262 -0.11534 0.18039
 H1918 H 0.72330 -0.09486 0.19014
 H1919 H 0.68543 -0.08513 0.21127
 H1920 H 0.67451 -0.10560 0.20147
 H1921 H 0.69693 -0.04889 0.23221
 H1922 H 0.71095 -0.03197 0.24499
 H1923 H 0.74753 -0.04632 0.22414
 H1924 H 0.73373 -0.06293 0.21143
 C1925 C 0.18632 0.39198 0.20569
 C1926 C 0.19172 0.40373 0.21189
 C1927 C 0.20069 0.41238 0.20469
 C1928 C 0.20423 0.40917 0.19112
 C1929 C 0.19888 0.39735 0.18490
 C1930 C 0.18988 0.38860 0.19214
 N1931 N 0.20651 0.42390 0.21173
 N1932 N 0.21448 0.43263 0.20606
 C1933 C 0.22062 0.44349 0.21390
 C1934 C 0.22998 0.45253 0.20763
 C1935 C 0.23737 0.46208 0.21551
 C1936 C 0.23550 0.46256 0.22976
 C1937 C 0.22561 0.45400 0.23590
 C1938 C 0.21820 0.44460 0.22806
 H1939 H 0.17957 0.38542 0.21165
 H1940 H 0.18904 0.40604 0.22241
 H1941 H 0.21124 0.41568 0.18539
 H1942 H 0.20177 0.39513 0.17443
 H1943 H 0.23195 0.45181 0.19673
 H1944 H 0.24503 0.46857 0.21063
 H1945 H 0.22401 0.45427 0.24688
 H1946 H 0.21098 0.43783 0.23318
 C1947 C 0.20628 -0.10859 0.68604
 C1948 C 0.21248 -0.09682 0.69137
 C1949 C 0.20514 -0.08810 0.70013
 C1950 C 0.19140 -0.09126 0.70356
 C1951 C 0.18516 -0.10310 0.69824
 C1952 C 0.19255 -0.11190 0.68942
 N1953 N 0.21220 -0.07651 0.70577
 N1954 N 0.20657 -0.06781 0.71378
 C1955 C 0.21455 -0.05684 0.71956
 C1956 C 0.20856 -0.04807 0.72932
 C1957 C 0.21671 -0.03845 0.73632
 C1958 C 0.23094 -0.03760 0.73360
 C1959 C 0.23675 -0.04586 0.72334
 C1960 C 0.22865 -0.05535 0.71634
 H1961 H 0.21237 -0.11518 0.67944
 H1962 H 0.22313 -0.09454 0.68878
 H1963 H 0.18556 -0.08469 0.71039
 H1964 H 0.17455 -0.10528 0.70098
 H1965 H 0.19771 -0.04910 0.73190
 H1966 H 0.21211 -0.03221 0.74430
 H1967 H 0.24772 -0.04532 0.72114
 H1968 H 0.23355 -0.06190 0.70880
 C1969 C 0.31094 0.29422 0.38956
 C1970 C 0.30571 0.28781 0.40123
 C1971 C 0.29810 0.29529 0.41083
 C1972 C 0.29557 0.30936 0.40858
 C1973 C 0.30078 0.31583 0.39680
 C1974 C 0.30862 0.30832 0.38723
 N1975 N 0.29274 0.28805 0.42242
 N1976 N 0.28611 0.29373 0.43217
 C1977 C 0.28057 0.28554 0.44310
 C1978 C 0.27227 0.29171 0.45315
 C1979 C 0.26535 0.28359 0.46284
 C1980 C 0.26665 0.26921 0.46248
 C1981 C 0.27557 0.26312 0.45292
 C1982 C 0.28251 0.27119 0.44335
 H1983 H 0.31668 0.28803 0.38232
 H1984 H 0.30756 0.27692 0.40279
 H1985 H 0.28958 0.31530 0.41585
 H1986 H 0.29884 0.32670 0.39530
 H1987 H 0.27070 0.30275 0.45310
 H1988 H 0.25839 0.28843 0.47008
 H1989 H 0.27667 0.25203 0.45250
 H1990 H 0.28895 0.26613 0.43580
 C1991 C 0.29453 0.81065 -0.11039
 C1992 C 0.28843 0.80540 -0.09856
 C1993 C 0.29615 0.79756 -0.08928
 C1994 C 0.31018 0.79490 -0.09201
 C1995 C 0.31634 0.80015 -0.10394
 C1996 C 0.30857 0.80816 -0.11322
 N1997 N 0.28920 0.79222 -0.07748
 N1998 N 0.29498 0.78496 -0.06822
 C1999 C 0.28697 0.77964 -0.05702
 C2000 C 0.29298 0.77031 -0.04776
 C2001 C 0.28480 0.76370 -0.03786
 C2002 C 0.27054 0.76639 -0.03720
 C2003 C 0.26473 0.77630 -0.04595
 C2004 C 0.27285 0.78289 -0.05574
 H2005 H 0.28813 0.81655 -0.11736
 H2006 H 0.27757 0.80739 -0.09661
 H2007 H 0.31633 0.78879 -0.08498
 H2008 H 0.32719 0.79810 -0.10578
 H2009 H 0.30384 0.76771 -0.04860
 H2010 H 0.28941 0.75597 -0.03127
 H2011 H 0.25373 0.77848 -0.04561
 H2012 H 0.26793 0.79013 -0.06265
 C2013 C 0.81064 0.29469 -0.10997
 C2014 C 0.80523 0.28849 -0.09828
 C2015 C 0.79735 0.29608 -0.08898
 C2016 C 0.79481 0.31010 -0.09152
 C2017 C 0.80021 0.31637 -0.10332
 C2018 C 0.80824 0.30872 -0.11264
 N2019 N 0.79175 0.28901 -0.07741
 N2020 N 0.78456 0.29470 -0.06807
 C2021 C 0.77888 0.28657 -0.05717
 C2022 C 0.76989 0.29261 -0.04762
 C2023 C 0.76293 0.28443 -0.03800
 C2024 C 0.76488 0.27011 -0.03793
 C2025 C 0.77447 0.26421 -0.04697
 C2026 C 0.78143 0.27233 -0.05647
 H2027 H 0.81654 0.28840 -0.11700
 H2028 H 0.80711 0.27764 -0.09648
 H2029 H 0.78865 0.31614 -0.08448
 H2030 H 0.79821 0.32720 -0.10505
 H2031 H 0.76785 0.30357 -0.04801
 H2032 H 0.75550 0.28914 -0.03114
 H2033 H 0.77617 0.25318 -0.04702
 H2034 H 0.78840 0.26737 -0.06360
 C2035 C 0.81332 0.79371 0.39108
 C2036 C 0.80812 0.78747 0.40286
 C2037 C 0.79936 0.79471 0.41167
 C2038 C 0.79581 0.80839 0.40860
 C2039 C 0.80099 0.81468 0.39674
 C2040 C 0.80981 0.80739 0.38784
 N2041 N 0.79381 0.78759 0.42325
 N2042 N 0.78591 0.79314 0.43210
 C2043 C 0.78014 0.78508 0.44300
 C2044 C 0.77063 0.79106 0.45207
 C2045 C 0.76358 0.78288 0.46163
 C2046 C 0.76595 0.76863 0.46209
 C2047 C 0.77604 0.76282 0.45353
 C2048 C 0.78310 0.77095 0.44410
 H2049 H 0.81991 0.78769 0.38442
 H2050 H 0.81080 0.77687 0.40508
 H2051 H 0.78897 0.81415 0.41525
 H2052 H 0.79815 0.82524 0.39461
 H2053 H 0.76828 0.80193 0.45136
 H2054 H 0.75578 0.78753 0.46813
 H2055 H 0.77807 0.75186 0.45380
 H2056 H 0.79046 0.76605 0.43732
 C2057 C 0.68630 0.29288 0.60895
 C2058 C 0.69159 0.28658 0.59723
 C2059 C 0.70010 0.29387 0.58823
 C2060 C 0.70331 0.30766 0.59104
 C2061 C 0.69808 0.31399 0.60284
 C2062 C 0.68952 0.30666 0.61193
 N2063 N 0.70579 0.28673 0.57673
 N2064 N 0.71325 0.29246 0.56763
 C2065 C 0.71930 0.28452 0.55679
 C2066 C 0.72800 0.29091 0.54722
 C2067 C 0.73533 0.28302 0.53763
 C2068 C 0.73407 0.26864 0.53764
 C2069 C 0.72480 0.26235 0.54674
 C2070 C 0.71745 0.27019 0.55620
 H2071 H 0.67991 0.28685 0.61577
 H2072 H 0.68916 0.27590 0.59521
 H2073 H 0.70996 0.31346 0.58425
 H2074 H 0.70068 0.32463 0.60477
 H2075 H 0.72951 0.30194 0.54755
 H2076 H 0.74251 0.28803 0.53074
 H2077 H 0.72366 0.25126 0.54687
 H2078 H 0.71075 0.26497 0.56340
 C2079 C 0.70642 0.81157 1.11010
 C2080 C 0.71281 0.80623 1.09847
 C2081 C 0.70538 0.79822 1.08917
 C2082 C 0.69135 0.79543 1.09170
 C2083 C 0.68489 0.80076 1.10345
 C2084 C 0.69236 0.80898 1.11273
 N2085 N 0.71263 0.79290 1.07753
 N2086 N 0.70714 0.78568 1.06813
 C2087 C 0.71547 0.78045 1.05710
 C2088 C 0.70974 0.77130 1.04755
 C2089 C 0.71819 0.76487 1.03775
 C2090 C 0.73246 0.76754 1.03746
 C2091 C 0.73801 0.77724 1.04653
 C2092 C 0.72962 0.78367 1.05621
 H2093 H 0.71259 0.81761 1.11710
 H2094 H 0.72367 0.80831 1.09669
 H2095 H 0.68544 0.78917 1.08467
 H2096 H 0.67405 0.79860 1.10516
 H2097 H 0.69886 0.76872 1.04808
 H2098 H 0.71376 0.75728 1.03093
 H2099 H 0.74900 0.77940 1.04649
 H2100 H 0.73435 0.79077 1.06334
 C2101 C 0.20737 0.31499 1.10987
 C2102 C 0.21402 0.30983 1.09828
 C2103 C 0.20687 0.30165 1.08892
 C2104 C 0.19289 0.29853 1.09132
 C2105 C 0.18621 0.30361 1.10302
 C2106 C 0.19339 0.31195 1.11239
 N2107 N 0.21432 0.29620 1.07748
 N2108 N 0.20866 0.28949 1.06780
 C2109 C 0.21683 0.28364 1.05701
 C2110 C 0.21038 0.27591 1.04673
 C2111 C 0.21832 0.26863 1.03715
 C2112 C 0.23283 0.26894 1.03785
 C2113 C 0.23926 0.27730 1.04767
 C2114 C 0.23135 0.28463 1.05713
 H2115 H 0.21330 0.32117 1.11695
 H2116 H 0.22484 0.31215 1.09662
 H2117 H 0.18720 0.29208 1.08426
 H2118 H 0.17543 0.30111 1.10465
 H2119 H 0.19921 0.27506 1.04650
 H2120 H 0.21318 0.26213 1.02973
 H2121 H 0.25044 0.27768 1.04838
 H2122 H 0.23662 0.29058 1.06490
 C2123 C 0.20530 0.81150 0.61018
 C2124 C 0.21166 0.80625 0.59851
 C2125 C 0.20424 0.79825 0.58922
 C2126 C 0.19023 0.79538 0.59178
 C2127 C 0.18378 0.80064 0.60357
 C2128 C 0.19126 0.80886 0.61284
 N2129 N 0.21149 0.79306 0.57754
 N2130 N 0.20610 0.78569 0.56819
 C2131 C 0.21454 0.78068 0.55715
 C2132 C 0.20916 0.77110 0.54783
 C2133 C 0.21783 0.76486 0.53810
 C2134 C 0.23195 0.76816 0.53766
 C2135 C 0.23711 0.77831 0.54646
 C2136 C 0.22851 0.78454 0.55607
 H2137 H 0.21149 0.81754 0.61717
 H2138 H 0.22250 0.80840 0.59669
 H2139 H 0.18432 0.78914 0.58472
 H2140 H 0.17295 0.79847 0.60530
 H2141 H 0.19842 0.76804 0.54850
 H2142 H 0.21371 0.75694 0.53146
 H2143 H 0.24799 0.78097 0.54628
 H2144 H 0.23296 0.79200 0.56301
 C2145 C 0.29479 0.68817 0.60937
 C2146 C 0.28878 0.69383 0.59767
 C2147 C 0.29646 0.70226 0.58894
 C2148 C 0.31036 0.70507 0.59206
 C2149 C 0.31643 0.69941 0.60385
 C2150 C 0.30869 0.69086 0.61262
 N2151 N 0.28958 0.70813 0.57734
 N2152 N 0.29540 0.71589 0.56857
 C2153 C 0.28747 0.72179 0.55758
 C2154 C 0.29360 0.73133 0.54866
 C2155 C 0.28553 0.73838 0.53895
 C2156 C 0.27124 0.73594 0.53817
 C2157 C 0.26530 0.72587 0.54659
 C2158 C 0.27331 0.71884 0.55617
 H2159 H 0.28843 0.68184 0.61595
 H2160 H 0.27801 0.69174 0.59542
 H2161 H 0.31646 0.71164 0.58546
 H2162 H 0.32717 0.70163 0.60602
 H2163 H 0.30450 0.73370 0.54961
 H2164 H 0.29025 0.74620 0.53258
 H2165 H 0.25429 0.72385 0.54611
 H2166 H 0.26829 0.71145 0.56282
 C2167 C 0.31486 0.20603 1.10938
 C2168 C 0.30945 0.21247 1.09775
 C2169 C 0.30068 0.20534 1.08887
 C2170 C 0.29729 0.19160 1.09176
 C2171 C 0.30264 0.18514 1.10346
 C2172 C 0.31151 0.19229 1.11240
 N2173 N 0.29499 0.21258 1.07739
 N2174 N 0.28734 0.20697 1.06836
 C2175 C 0.28138 0.21500 1.05750
 C2176 C 0.27241 0.20878 1.04808
 C2177 C 0.26521 0.21679 1.03845
 C2178 C 0.26687 0.23113 1.03826
 C2179 C 0.27641 0.23723 1.04721
 C2180 C 0.28362 0.22926 1.05671
 H2181 H 0.32146 0.21194 1.11609
 H2182 H 0.31200 0.22312 1.09569
 H2183 H 0.29043 0.18593 1.08508
 H2184 H 0.29990 0.17453 1.10544
 H2185 H 0.27059 0.19780 1.04855
 H2186 H 0.25782 0.21192 1.03168
 H2187 H 0.27787 0.24828 1.04718
 H2188 H 0.29055 0.23436 1.06378
 C2189 C 0.79441 0.68575 1.10889
 C2190 C 0.78822 0.69121 1.09716
 C2191 C 0.79576 0.69947 1.08816
 C2192 C 0.80974 0.70222 1.09096
 C2193 C 0.81599 0.69677 1.10275
 C2194 C 0.80837 0.68850 1.11189
 N2195 N 0.78869 0.70536 1.07667
 N2196 N 0.79449 0.71294 1.06772
 C2197 C 0.78652 0.71905 1.05688
 C2198 C 0.79285 0.72814 1.04765
 C2199 C 0.78486 0.73546 1.03806
 C2200 C 0.77044 0.73376 1.03773
 C2201 C 0.76425 0.72412 1.04649
 C2202 C 0.77218 0.71681 1.05594
 H2203 H 0.78813 0.67960 1.11569
 H2204 H 0.77740 0.68913 1.09516
 H2205 H 0.81575 0.70867 1.08416
 H2206 H 0.82676 0.69906 1.10468
 H2207 H 0.80388 0.72996 1.04824
 H2208 H 0.78980 0.74292 1.03143
 H2209 H 0.75314 0.72264 1.04634
 H2210 H 0.76701 0.70978 1.06285
 C2211 C 0.79387 0.18813 0.61099
 C2212 C 0.78741 0.19328 0.59929
 C2213 C 0.79492 0.20072 0.58959
 C2214 C 0.80907 0.20321 0.59181
 C2215 C 0.81558 0.19810 0.60364
 C2216 C 0.80804 0.19039 0.61328
 N2217 N 0.78765 0.20596 0.57792
 N2218 N 0.79340 0.21223 0.56799
 C2219 C 0.78522 0.21771 0.55697
 C2220 C 0.79156 0.22556 0.54669
 C2221 C 0.78350 0.23252 0.53692
 C2222 C 0.76901 0.23171 0.53743
 C2223 C 0.76274 0.22318 0.54720
 C2224 C 0.77075 0.21620 0.55686
 H2225 H 0.78766 0.18249 0.61830
 H2226 H 0.77647 0.19147 0.59775
 H2227 H 0.81503 0.20908 0.58447
 H2228 H 0.82651 0.20000 0.60513
 H2229 H 0.80269 0.22680 0.54663
 H2230 H 0.78851 0.23917 0.52953
 H2231 H 0.75157 0.22244 0.54775
 H2232 H 0.76556 0.21011 0.56459
 C2233 C 0.70949 0.68265 0.39036
 C2234 C 0.71620 0.68744 0.40210
 C2235 C 0.70923 0.69586 0.41143
 C2236 C 0.69539 0.69952 0.40891
 C2237 C 0.68869 0.69484 0.39710
 C2238 C 0.69567 0.68636 0.38769
 N2239 N 0.71669 0.70113 0.42294
 N2240 N 0.71089 0.70779 0.43259
 C2241 C 0.71880 0.71379 0.44346
 C2242 C 0.71199 0.72115 0.45379
 C2243 C 0.71957 0.72875 0.46337
 C2244 C 0.73406 0.72914 0.46261
 C2245 C 0.74089 0.72110 0.45276
 C2246 C 0.73334 0.71344 0.44329
 H2247 H 0.71523 0.67626 0.38328
 H2248 H 0.72691 0.68468 0.40387
 H2249 H 0.68984 0.70615 0.41592
 H2250 H 0.67803 0.69782 0.39539
 H2251 H 0.70079 0.72151 0.45402
 H2252 H 0.71411 0.73500 0.47080
 H2253 H 0.75207 0.72127 0.45201
 H2254 H 0.73887 0.70780 0.43546
 C2255 C 0.70686 0.18425 -0.10914
 C2256 C 0.71357 0.18960 -0.09768
 C2257 C 0.70650 0.19814 -0.08853
 C2258 C 0.69256 0.20142 -0.09105
 C2259 C 0.68583 0.19615 -0.10263
 C2260 C 0.69290 0.18744 -0.11177
 N2261 N 0.71398 0.20373 -0.07717
 N2262 N 0.70827 0.21054 -0.06757
 C2263 C 0.71635 0.21656 -0.05680
 C2264 C 0.70973 0.22409 -0.04646
 C2265 C 0.71752 0.23146 -0.03683
 C2266 C 0.73203 0.23144 -0.03755
 C2267 C 0.73863 0.22330 -0.04746
 C2268 C 0.73089 0.21588 -0.05697
 H2269 H 0.71272 0.17778 -0.11605
 H2270 H 0.72436 0.18714 -0.09593
 H2271 H 0.68693 0.20814 -0.08417
 H2272 H 0.67508 0.19880 -0.10435
 H2273 H 0.69855 0.22471 -0.04620
 H2274 H 0.71223 0.23781 -0.02937
 H2275 H 0.74982 0.22317 -0.04819
 H2276 H 0.73628 0.21009 -0.06479
 C2277 C 0.20708 0.68601 -0.10841
 C2278 C 0.21343 0.69126 -0.09670
 C2279 C 0.20622 0.70006 -0.08792
 C2280 C 0.19246 0.70361 -0.09095
 C2281 C 0.18607 0.69839 -0.10273
 C2282 C 0.19333 0.68953 -0.11160
 N2283 N 0.21343 0.70560 -0.07637
 N2284 N 0.20787 0.71348 -0.06752
 C2285 C 0.21598 0.71917 -0.05659
 C2286 C 0.20993 0.72853 -0.04744
 C2287 C 0.21811 0.73541 -0.03775
 C2288 C 0.23243 0.73301 -0.03724
 C2289 C 0.23831 0.72313 -0.04593
 C2290 C 0.23018 0.71623 -0.05548
 H2291 H 0.21307 0.67939 -0.11505
 H2292 H 0.22409 0.68857 -0.09452
 H2293 H 0.18672 0.71048 -0.08432
 H2294 H 0.17545 0.70125 -0.10482
 H2295 H 0.19900 0.73090 -0.04817
 H2296 H 0.21343 0.74311 -0.03120
 H2297 H 0.24935 0.72115 -0.04568
 H2298 H 0.23514 0.70901 -0.06235
 C2299 C 0.18347 0.20802 0.39071
 C2300 C 0.18835 0.21469 0.40241
 C2301 C 0.19720 0.20790 0.41153
 C2302 C 0.20117 0.19426 0.40885
 C2303 C 0.19636 0.18758 0.39708
 C2304 C 0.18747 0.19441 0.38786
 N2305 N 0.20250 0.21538 0.42300
 N2306 N 0.20994 0.20993 0.43232
 C2307 C 0.21569 0.21808 0.44315
 C2308 C 0.22409 0.21182 0.45309
 C2309 C 0.23117 0.21984 0.46273
 C2310 C 0.22998 0.23423 0.46240
 C2311 C 0.22101 0.24042 0.45289
 C2312 C 0.21388 0.23244 0.44339
 H2313 H 0.17678 0.21366 0.38379
 H2314 H 0.18535 0.22526 0.40431
 H2315 H 0.20810 0.18884 0.41572
 H2316 H 0.19957 0.17707 0.39525
 H2317 H 0.22559 0.20077 0.45302
 H2318 H 0.23816 0.21490 0.46990
 H2319 H 0.21998 0.25152 0.45248
 H2320 H 0.20742 0.23755 0.43587
 C2321 C 0.31160 0.39052 0.70428
 C2322 C 0.30606 0.40214 0.71060
 C2323 C 0.29770 0.41128 0.70326
 C2324 C 0.29484 0.40868 0.68939
 C2325 C 0.30039 0.39696 0.68300
 C2326 C 0.30887 0.38777 0.69040
 N2327 N 0.29194 0.42274 0.71048
 N2328 N 0.28437 0.43197 0.70500
 C2329 C 0.27854 0.44275 0.71323
 C2330 C 0.26935 0.45227 0.70735
 C2331 C 0.26233 0.46182 0.71560
 C2332 C 0.26444 0.46185 0.72984
 C2333 C 0.27417 0.45280 0.73559
 C2334 C 0.28120 0.44339 0.72739
 H2335 H 0.31784 0.38362 0.71042
 H2336 H 0.30818 0.40396 0.72134
 H2337 H 0.28830 0.41559 0.68355
 H2338 H 0.29810 0.39516 0.67230
 H2339 H 0.26721 0.45193 0.69646
 H2340 H 0.25478 0.46868 0.71102
 H2341 H 0.27594 0.45271 0.74656
 H2342 H 0.28832 0.43626 0.73224
 C2343 C 0.31708 0.89121 0.20811
 C2344 C 0.31207 0.90287 0.21488
 C2345 C 0.30352 0.91228 0.20806
 C2346 C 0.29996 0.90991 0.19431
 C2347 C 0.30484 0.89818 0.18756
 C2348 C 0.31342 0.88867 0.19440
 N2349 N 0.29796 0.92368 0.21556
 N2350 N 0.29122 0.93339 0.20984
 C2351 C 0.28488 0.94415 0.21770
 C2352 C 0.27750 0.95457 0.21092
 C2353 C 0.26956 0.96403 0.21837
 C2354 C 0.26882 0.96306 0.23271
 C2355 C 0.27688 0.95313 0.23952
 C2356 C 0.28488 0.94379 0.23210
 H2357 H 0.32354 0.88406 0.21374
 H2358 H 0.31476 0.90451 0.22553
 H2359 H 0.29322 0.91696 0.18887
 H2360 H 0.30189 0.89659 0.17698
 H2361 H 0.27741 0.95497 0.19982
 H2362 H 0.26332 0.97153 0.21291
 H2363 H 0.27649 0.95224 0.25058
 H2364 H 0.29053 0.93588 0.23760
 C2365 C 0.79305 0.39194 0.18205
 C2366 C 0.78663 0.40366 0.18737
 C2367 C 0.79360 0.41214 0.19662
 C2368 C 0.80721 0.40884 0.20049
 C2369 C 0.81364 0.39705 0.19524
 C2370 C 0.80660 0.38843 0.18600
 N2371 N 0.78630 0.42358 0.20240
 N2372 N 0.79182 0.43223 0.21050
 C2373 C 0.78378 0.44304 0.21658
 C2374 C 0.79010 0.45232 0.22562
 C2375 C 0.78211 0.46198 0.23281
 C2376 C 0.76770 0.46232 0.23109
 C2377 C 0.76149 0.45345 0.22159
 C2378 C 0.76943 0.44394 0.21436
 H2379 H 0.78726 0.38547 0.17510
 H2380 H 0.77608 0.40603 0.18443
 H2381 H 0.81278 0.41523 0.20769
 H2382 H 0.82412 0.39470 0.19841
 H2383 H 0.80113 0.45173 0.22745
 H2384 H 0.78706 0.46867 0.24019
 H2385 H 0.75037 0.45358 0.22015
 H2386 H 0.76426 0.43694 0.20744
 C2387 C 0.79401 0.88909 0.68961
 C2388 C 0.78780 0.90078 0.69515
 C2389 C 0.79562 0.91032 0.70249
 C2390 C 0.80986 0.90802 0.70433
 C2391 C 0.81613 0.89624 0.69880
 C2392 C 0.80826 0.88667 0.69132
 N2393 N 0.78858 0.92188 0.70833
 N2394 N 0.79457 0.93141 0.71499
 C2395 C 0.78663 0.94229 0.72110
 C2396 C 0.79318 0.95197 0.72954
 C2397 C 0.78532 0.96150 0.73703
 C2398 C 0.77082 0.96136 0.73618
 C2399 C 0.76437 0.95224 0.72708
 C2400 C 0.77217 0.94282 0.71959
 H2401 H 0.78754 0.88190 0.68412
 H2402 H 0.77679 0.90239 0.69380
 H2403 H 0.81609 0.91524 0.71007
 H2404 H 0.82713 0.89472 0.70026
 H2405 H 0.80431 0.95173 0.73076
 H2406 H 0.79048 0.96844 0.74402
 H2407 H 0.75319 0.95206 0.72617
 H2408 H 0.76682 0.93561 0.71303
 C2409 C 0.70480 0.60924 0.68924
 C2410 C 0.71080 0.59748 0.69490
 C2411 C 0.70298 0.58851 0.70296
 C2412 C 0.68896 0.59146 0.70541
 C2413 C 0.68291 0.60332 0.69976
 C2414 C 0.69077 0.61232 0.69157
 N2415 N 0.70981 0.57681 0.70879
 N2416 N 0.70383 0.56776 0.71612
 C2417 C 0.71165 0.55667 0.72204
 C2418 C 0.70528 0.54753 0.73121
 C2419 C 0.71320 0.53775 0.73837
 C2420 C 0.72758 0.53711 0.73643
 C2421 C 0.73378 0.54571 0.72666
 C2422 C 0.72591 0.55536 0.71951
 H2423 H 0.71125 0.61599 0.68319
 H2424 H 0.72165 0.59536 0.69308
 H2425 H 0.68275 0.58468 0.71169
 H2426 H 0.67207 0.60535 0.70170
 H2427 H 0.69430 0.54837 0.73322
 H2428 H 0.70825 0.53123 0.74591
 H2429 H 0.74485 0.54531 0.72497
 H2430 H 0.73112 0.56215 0.71239
 C2431 C 0.70894 0.10891 0.18209
 C2432 C 0.71572 0.09722 0.18708
 C2433 C 0.70891 0.08808 0.19584
 C2434 C 0.69514 0.09077 0.19962
 C2435 C 0.68838 0.10256 0.19475
 C2436 C 0.69522 0.11177 0.18593
 N2437 N 0.71651 0.07665 0.20130
 N2438 N 0.71094 0.06712 0.20834
 C2439 C 0.71911 0.05635 0.21439
 C2440 C 0.71259 0.04604 0.22207
 C2441 C 0.72046 0.03652 0.22957
 C2442 C 0.73497 0.03733 0.22958
 C2443 C 0.74148 0.04718 0.22127
 C2444 C 0.73364 0.05658 0.21370
 H2445 H 0.71459 0.11585 0.17548
 H2446 H 0.72638 0.09534 0.18423
 H2447 H 0.68972 0.08390 0.20651
 H2448 H 0.67779 0.10443 0.19785
 H2449 H 0.70141 0.04574 0.22270
 H2450 H 0.71524 0.02909 0.23602
 H2451 H 0.75266 0.04796 0.22112
 H2452 H 0.73896 0.06439 0.20781
 C2453 C 0.18302 0.60990 0.20863
 C2454 C 0.18788 0.59829 0.21561
 C2455 C 0.19634 0.58870 0.20896
 C2456 C 0.19996 0.59087 0.19519
 C2457 C 0.19523 0.60257 0.18823
 C2458 C 0.18672 0.61223 0.19489
 N2459 N 0.20172 0.57733 0.21666
 N2460 N 0.20821 0.56739 0.21111
 C2461 C 0.21439 0.55665 0.21915
 C2462 C 0.22136 0.54589 0.21255
 C2463 C 0.22916 0.53639 0.22014
 C2464 C 0.23015 0.53767 0.23443
 C2465 C 0.22249 0.54797 0.24109
 C2466 C 0.21463 0.55735 0.23354
 H2467 H 0.17662 0.61720 0.21412
 H2468 H 0.18516 0.59681 0.22627
 H2469 H 0.20663 0.58367 0.18989
 H2470 H 0.19821 0.60400 0.17764
 H2471 H 0.22127 0.54524 0.20147
 H2472 H 0.23509 0.52860 0.21479
 H2473 H 0.22311 0.54911 0.25212
 H2474 H 0.20930 0.56554 0.23890
 C2475 C 0.18758 0.10911 0.70425
 C2476 C 0.19297 0.09736 0.71047
 C2477 C 0.20140 0.08833 0.70313
 C2478 C 0.20444 0.09115 0.68933
 C2479 C 0.19902 0.10299 0.68303
 C2480 C 0.19051 0.11211 0.69045
 N2481 N 0.20707 0.07677 0.71028
 N2482 N 0.21487 0.06772 0.70487
 C2483 C 0.22056 0.05686 0.71313
 C2484 C 0.23011 0.04758 0.70746
 C2485 C 0.23698 0.03800 0.71584
 C2486 C 0.23435 0.03771 0.72999
 C2487 C 0.22430 0.04650 0.73550
 C2488 C 0.21742 0.05594 0.72718
 H2489 H 0.18129 0.11592 0.71042
 H2490 H 0.19070 0.09534 0.72115
 H2491 H 0.21102 0.08431 0.68349
 H2492 H 0.20146 0.10496 0.67239
 H2493 H 0.23263 0.04815 0.69666
 H2494 H 0.24480 0.03134 0.71145
 H2495 H 0.22215 0.04640 0.74640
 H2496 H 0.21003 0.06287 0.73186
 C2497 C 0.29532 0.61035 0.31056
 C2498 C 0.28920 0.59867 0.30501
 C2499 C 0.29691 0.58955 0.29702
 C2500 C 0.31094 0.59229 0.29447
 C2501 C 0.31713 0.60408 0.30003
 C2502 C 0.30938 0.61318 0.30822
 N2503 N 0.28991 0.57789 0.29145
 N2504 N 0.29562 0.56870 0.28408
 C2505 C 0.28746 0.55768 0.27860
 C2506 C 0.29328 0.54849 0.26913
 C2507 C 0.28494 0.53880 0.26243
 C2508 C 0.27068 0.53829 0.26516
 C2509 C 0.26507 0.54694 0.27521
 C2510 C 0.27335 0.55650 0.28190
 H2511 H 0.28893 0.61720 0.31658
 H2512 H 0.27834 0.59671 0.30690
 H2513 H 0.31706 0.58539 0.28822
 H2514 H 0.32798 0.60595 0.29807
 H2515 H 0.30414 0.54923 0.26652
 H2516 H 0.28943 0.53223 0.25465
 H2517 H 0.25410 0.54664 0.27751
 H2518 H 0.26857 0.56331 0.28928
 C2519 C 0.31458 0.10873 0.79434
 C2520 C 0.30936 0.09699 0.78799
 C2521 C 0.30054 0.08810 0.79506
 C2522 C 0.29700 0.09102 0.80870
 C2523 C 0.30221 0.10281 0.81510
 C2524 C 0.31104 0.11183 0.80797
 N2525 N 0.29495 0.07660 0.78783
 N2526 N 0.28693 0.06775 0.79322
 C2527 C 0.28118 0.05690 0.78507
 C2528 C 0.27159 0.04778 0.79088
 C2529 C 0.26466 0.03820 0.78264
 C2530 C 0.26724 0.03776 0.76849
 C2531 C 0.27732 0.04641 0.76284
 C2532 C 0.28427 0.05585 0.77104
 H2533 H 0.32119 0.11546 0.78844
 H2534 H 0.31204 0.09490 0.77742
 H2535 H 0.29011 0.08431 0.81434
 H2536 H 0.29931 0.10481 0.82562
 H2537 H 0.26910 0.04847 0.80168
 H2538 H 0.25682 0.03166 0.78714
 H2539 H 0.27944 0.04619 0.75194
 H2540 H 0.29167 0.06268 0.76626
 C2541 C 0.81420 0.60857 0.79281
 C2542 C 0.80907 0.59690 0.78623
 C2543 C 0.80086 0.58747 0.79334
 C2544 C 0.79776 0.58985 0.80720
 C2545 C 0.80281 0.60161 0.81379
 C2546 C 0.81110 0.61110 0.80666
 N2547 N 0.79525 0.57602 0.78600
 N2548 N 0.78862 0.56631 0.79178
 C2549 C 0.78238 0.55552 0.78393
 C2550 C 0.77497 0.54514 0.79067
 C2551 C 0.76722 0.53559 0.78317
 C2552 C 0.76671 0.53643 0.76881
 C2553 C 0.77478 0.54633 0.76205
 C2554 C 0.78258 0.55576 0.76952
 H2555 H 0.82036 0.61572 0.78691
 H2556 H 0.81138 0.59526 0.77550
 H2557 H 0.79129 0.58277 0.81286
 H2558 H 0.80024 0.60322 0.82446
 H2559 H 0.77472 0.54483 0.80176
 H2560 H 0.76096 0.52812 0.78857
 H2561 H 0.77454 0.54713 0.75098
 H2562 H 0.78826 0.56361 0.76403
 C2563 C 0.81702 0.10859 0.29326
 C2564 C 0.81193 0.09682 0.28682
 C2565 C 0.80287 0.08800 0.29370
 C2566 C 0.79896 0.09103 0.30723
 C2567 C 0.80399 0.10286 0.31367
 C2568 C 0.81303 0.11181 0.30673
 N2569 N 0.79726 0.07653 0.28642
 N2570 N 0.78931 0.06766 0.29189
 C2571 C 0.78325 0.05687 0.28388
 C2572 C 0.77411 0.04756 0.29008
 C2573 C 0.76676 0.03807 0.28209
 C2574 C 0.76843 0.03791 0.26780
 C2575 C 0.77814 0.04673 0.26173
 C2576 C 0.78551 0.05609 0.26968
 H2577 H 0.82383 0.11529 0.28754
 H2578 H 0.81490 0.09465 0.27635
 H2579 H 0.79190 0.08439 0.31272
 H2580 H 0.80080 0.10495 0.32409
 H2581 H 0.77228 0.04803 0.30101
 H2582 H 0.75927 0.03139 0.28696
 H2583 H 0.77966 0.04670 0.25073
 H2584 H 0.79257 0.06308 0.26462
 C2585 C 0.70680 0.39176 0.31409
 C2586 C 0.71298 0.40358 0.30881
 C2587 C 0.70561 0.41238 0.30012
 C2588 C 0.69185 0.40924 0.29671
 C2589 C 0.68564 0.39734 0.30194
 C2590 C 0.69306 0.38846 0.31070
 N2591 N 0.71269 0.42396 0.29445
 N2592 N 0.70696 0.43287 0.28670
 C2593 C 0.71494 0.44375 0.28073
 C2594 C 0.70866 0.45294 0.27151
 C2595 C 0.71669 0.46246 0.26422
 C2596 C 0.73109 0.46277 0.26606
 C2597 C 0.73724 0.45408 0.27581
 C2598 C 0.72926 0.44470 0.28313
 H2599 H 0.71291 0.38509 0.32062
 H2600 H 0.72364 0.40582 0.31137
 H2601 H 0.68600 0.41587 0.28991
 H2602 H 0.67503 0.39514 0.29919
 H2603 H 0.69765 0.45234 0.26957
 H2604 H 0.71181 0.46904 0.25665
 H2605 H 0.74834 0.45421 0.27735
 H2606 H 0.73439 0.43782 0.29024
 C2607 C 0.68449 0.89056 0.79475
 C2608 C 0.68996 0.90212 0.78824
 C2609 C 0.69862 0.91113 0.79534
 C2610 C 0.70183 0.90844 0.80913
 C2611 C 0.69644 0.89679 0.81566
 C2612 C 0.68771 0.88772 0.80853
 N2613 N 0.70448 0.92249 0.78805
 N2614 N 0.71167 0.93179 0.79379
 C2615 C 0.71800 0.94253 0.78590
 C2616 C 0.72609 0.95245 0.79253
 C2617 C 0.73374 0.96198 0.78488
 C2618 C 0.73344 0.96158 0.77050
 C2619 C 0.72475 0.95212 0.76391
 C2620 C 0.71706 0.94271 0.77153
 H2621 H 0.67797 0.88373 0.78887
 H2622 H 0.68755 0.90400 0.77756
 H2623 H 0.70862 0.91522 0.81478
 H2624 H 0.69906 0.89495 0.82629
 H2625 H 0.72691 0.95243 0.80360
 H2626 H 0.74048 0.96912 0.79014
 H2627 H 0.72436 0.95167 0.75282
 H2628 H 0.71083 0.93522 0.76614
 C2629 C 0.18245 0.39070 0.79337
 C2630 C 0.18750 0.40248 0.78689
 C2631 C 0.19659 0.41130 0.79372
 C2632 C 0.20054 0.40827 0.80724
 C2633 C 0.19554 0.39644 0.81374
 C2634 C 0.18650 0.38746 0.80684
 N2635 N 0.20213 0.42278 0.78638
 N2636 N 0.21018 0.43163 0.79174
 C2637 C 0.21607 0.44245 0.78363
 C2638 C 0.22529 0.45178 0.78967
 C2639 C 0.23239 0.46138 0.78156
 C2640 C 0.23039 0.46161 0.76731
 C2641 C 0.22067 0.45271 0.76140
 C2642 C 0.21354 0.44326 0.76947
 H2643 H 0.17562 0.38400 0.78769
 H2644 H 0.18448 0.40466 0.77642
 H2645 H 0.20762 0.41491 0.81271
 H2646 H 0.19878 0.39435 0.82415
 H2647 H 0.22736 0.45127 0.80056
 H2648 H 0.23994 0.46809 0.78627
 H2649 H 0.21899 0.45276 0.75042
 H2650 H 0.20646 0.43623 0.76452
 C2651 C 0.20525 0.89184 0.31422
 C2652 C 0.21148 0.90343 0.30849
 C2653 C 0.20410 0.91203 0.29961
 C2654 C 0.19027 0.90893 0.29648
 C2655 C 0.18400 0.89726 0.30217
 C2656 C 0.19144 0.88857 0.31111
 N2657 N 0.21117 0.92345 0.29358
 N2658 N 0.20541 0.93216 0.28564
 C2659 C 0.21334 0.94297 0.27943
 C2660 C 0.20700 0.95202 0.27012
 C2661 C 0.21495 0.96161 0.26281
 C2662 C 0.22934 0.96213 0.26471
 C2663 C 0.23553 0.95355 0.27456
 C2664 C 0.22763 0.94410 0.28187
 H2665 H 0.21138 0.88534 0.32089
 H2666 H 0.22219 0.90566 0.31087
 H2667 H 0.18438 0.91541 0.28957
 H2668 H 0.17333 0.89511 0.29962
 H2669 H 0.19600 0.95129 0.26815
 H2670 H 0.21000 0.96811 0.25521
 H2671 H 0.24660 0.95386 0.27624
 H2672 H 0.23281 0.93734 0.28907
 C2673 C 0.39080 0.31523 0.70655
 C2674 C 0.40254 0.31011 0.71313
 C2675 C 0.41167 0.30134 0.70628
 C2676 C 0.40895 0.29770 0.69261
 C2677 C 0.39714 0.30282 0.68598
 C2678 C 0.38791 0.31164 0.69290
 N2679 N 0.42320 0.29594 0.71375
 N2680 N 0.43235 0.28804 0.70861
 C2681 C 0.44321 0.28253 0.71703
 C2682 C 0.45269 0.27310 0.71149
 C2683 C 0.46231 0.26641 0.71999
 C2684 C 0.46243 0.26908 0.73412
 C2685 C 0.45343 0.27901 0.73951
 C2686 C 0.44394 0.28572 0.73106
 H2687 H 0.38390 0.32181 0.71231
 H2688 H 0.40447 0.31285 0.72372
 H2689 H 0.41584 0.29084 0.68715
 H2690 H 0.39527 0.29987 0.67545
 H2691 H 0.45225 0.27055 0.70070
 H2692 H 0.46911 0.25867 0.71569
 H2693 H 0.45339 0.28118 0.75040
 H2694 H 0.43683 0.29301 0.73563
 C2695 C 0.39075 0.79285 0.18265
 C2696 C 0.40249 0.78619 0.18776
 C2697 C 0.41146 0.79296 0.19673
 C2698 C 0.40858 0.80658 0.20058
 C2699 C 0.39676 0.81326 0.19553
 C2700 C 0.38769 0.80645 0.18653
 N2701 N 0.42299 0.78547 0.20219
 N2702 N 0.43210 0.79081 0.20996
 C2703 C 0.44300 0.78259 0.21572
 C2704 C 0.45257 0.78860 0.22470
 C2705 C 0.46224 0.78041 0.23171
 C2706 C 0.46232 0.76610 0.22984
 C2707 C 0.45322 0.76019 0.22033
 C2708 C 0.44369 0.76835 0.21329
 H2709 H 0.38395 0.78723 0.17588
 H2710 H 0.40454 0.77564 0.18484
 H2711 H 0.41532 0.81198 0.20759
 H2712 H 0.39478 0.82375 0.19867
 H2713 H 0.45216 0.79955 0.22669
 H2714 H 0.46910 0.78512 0.23911
 H2715 H 0.45315 0.74916 0.21877
 H2716 H 0.43649 0.76342 0.20637
 C2717 C 0.89041 0.31791 0.20742
 C2718 C 0.90211 0.31300 0.21429
 C2719 C 0.91156 0.30438 0.20764
 C2720 C 0.90921 0.30073 0.19392
 C2721 C 0.89744 0.30556 0.18704
 C2722 C 0.88787 0.31417 0.19373
 N2723 N 0.92296 0.29893 0.21531
 N2724 N 0.93265 0.29191 0.20989
 C2725 C 0.94340 0.28584 0.21806
 C2726 C 0.95385 0.27815 0.21169
 C2727 C 0.96338 0.27064 0.21956
 C2728 C 0.96245 0.27066 0.23392
 C2729 C 0.95245 0.27897 0.24029
 C2730 C 0.94304 0.28653 0.23245
 H2731 H 0.88324 0.32440 0.21297
 H2732 H 0.90375 0.31577 0.22491
 H2733 H 0.91631 0.29396 0.18860
 H2734 H 0.89587 0.30253 0.17649
 H2735 H 0.95426 0.27752 0.20062
 H2736 H 0.97092 0.26420 0.21443
 H2737 H 0.95158 0.27916 0.25136
 H2738 H 0.93511 0.29243 0.23765
 C2739 C 0.88915 0.79300 0.68449
 C2740 C 0.90059 0.78600 0.68976
 C2741 C 0.91006 0.79274 0.69820
 C2742 C 0.90786 0.80664 0.70156
 C2743 C 0.89628 0.81366 0.69639
 C2744 C 0.88687 0.80692 0.68770
 N2745 N 0.92148 0.78502 0.70355
 N2746 N 0.93141 0.79039 0.71020
 C2747 C 0.94224 0.78202 0.71588
 C2748 C 0.95286 0.78821 0.72343
 C2749 C 0.96257 0.78011 0.73045
 C2750 C 0.96164 0.76570 0.73006
 C2751 C 0.95146 0.75952 0.72190
 C2752 C 0.94187 0.76759 0.71482
 H2753 H 0.88202 0.78743 0.67801
 H2754 H 0.90210 0.77525 0.68726
 H2755 H 0.91498 0.81201 0.70822
 H2756 H 0.89482 0.82438 0.69902
 H2757 H 0.95327 0.79931 0.72434
 H2758 H 0.97026 0.78505 0.73682
 H2759 H 0.95059 0.74842 0.72149
 H2760 H 0.93384 0.76253 0.70899
 C2761 C 0.60961 0.31618 0.29435
 C2762 C 0.59801 0.31093 0.28769
 C2763 C 0.58881 0.30231 0.29460
 C2764 C 0.59131 0.29896 0.30839
 C2765 C 0.60301 0.30417 0.31510
 C2766 C 0.61230 0.31284 0.30813
 N2767 N 0.57749 0.29667 0.28704
 N2768 N 0.56812 0.28916 0.29230
 C2769 C 0.55754 0.28324 0.28385
 C2770 C 0.54751 0.27467 0.28973
 C2771 C 0.53812 0.26756 0.28140
 C2772 C 0.53879 0.26889 0.26708
 C2773 C 0.54841 0.27796 0.26128
 C2774 C 0.55765 0.28512 0.26956
 H2775 H 0.61658 0.32264 0.28856
 H2776 H 0.59626 0.31346 0.27701
 H2777 H 0.58437 0.29220 0.31390
 H2778 H 0.60473 0.30144 0.32572
 H2779 H 0.54729 0.27312 0.30072
 H2780 H 0.53083 0.26051 0.28604
 H2781 H 0.54906 0.27913 0.25025
 H2782 H 0.56522 0.29172 0.26472
 C2783 C 0.60887 0.79319 0.81326
 C2784 C 0.59709 0.78695 0.80789
 C2785 C 0.58816 0.79427 0.79928
 C2786 C 0.59113 0.80802 0.79600
 C2787 C 0.60299 0.81430 0.80134
 C2788 C 0.61198 0.80695 0.81005
 N2789 N 0.57652 0.78719 0.79367
 N2790 N 0.56750 0.79282 0.78596
 C2791 C 0.55651 0.78481 0.78020
 C2792 C 0.54728 0.79087 0.77086
 C2793 C 0.53761 0.78276 0.76386
 C2794 C 0.53718 0.76850 0.76614
 C2795 C 0.54591 0.76260 0.77602
 C2796 C 0.55545 0.77066 0.78303
 H2797 H 0.61561 0.78712 0.81975
 H2798 H 0.59496 0.77629 0.81035
 H2799 H 0.58440 0.81383 0.78926
 H2800 H 0.60504 0.82493 0.79872
 H2801 H 0.54797 0.80175 0.76859
 H2802 H 0.53099 0.78745 0.75619
 H2803 H 0.54569 0.75161 0.77791
 H2804 H 0.56235 0.76570 0.79026
 C2805 C 0.10894 0.29178 0.81625
 C2806 C 0.09716 0.28527 0.81113
 C2807 C 0.08803 0.29233 0.80248
 C2808 C 0.09081 0.30606 0.79895
 C2809 C 0.10268 0.31256 0.80397
 C2810 C 0.11189 0.30547 0.81266
 N2811 N 0.07649 0.28504 0.79688
 N2812 N 0.06702 0.29085 0.78986
 C2813 C 0.05616 0.28303 0.78363
 C2814 C 0.04602 0.28981 0.77585
 C2815 C 0.03648 0.28225 0.76812
 C2816 C 0.03709 0.26782 0.76801
 C2817 C 0.04673 0.26105 0.77643
 C2818 C 0.05615 0.26857 0.78422
 H2819 H 0.11586 0.28595 0.82278
 H2820 H 0.09519 0.27463 0.81380
 H2821 H 0.08396 0.31168 0.79216
 H2822 H 0.10459 0.32314 0.80108
 H2823 H 0.04591 0.30093 0.77530
 H2824 H 0.02920 0.28766 0.76159
 H2825 H 0.04735 0.24992 0.77650
 H2826 H 0.06382 0.26306 0.79019
 C2827 C 0.11030 0.79541 0.31053
 C2828 C 0.09860 0.78933 0.30483
 C2829 C 0.08943 0.79705 0.29684
 C2830 C 0.09212 0.81105 0.29448
 C2831 C 0.10392 0.81719 0.30016
 C2832 C 0.11311 0.80942 0.30829
 N2833 N 0.07783 0.79013 0.29094
 N2834 N 0.06860 0.79603 0.28368
 C2835 C 0.05765 0.78814 0.27766
 C2836 C 0.04823 0.79448 0.26868
 C2837 C 0.03857 0.78656 0.26144
 C2838 C 0.03834 0.77222 0.26309
 C2839 C 0.04725 0.76600 0.27263
 C2840 C 0.05677 0.77386 0.27988
 H2841 H 0.11722 0.78903 0.31653
 H2842 H 0.09669 0.77849 0.30658
 H2843 H 0.08518 0.81719 0.28825
 H2844 H 0.10575 0.82801 0.29830
 H2845 H 0.04876 0.80546 0.26690
 H2846 H 0.03181 0.79150 0.25406
 H2847 H 0.04716 0.75494 0.27407
 H2848 H 0.06380 0.76868 0.28683
 C2849 C 0.60861 0.70512 0.68560
 C2850 C 0.59691 0.71149 0.69105
 C2851 C 0.58804 0.70430 0.69977
 C2852 C 0.59101 0.69053 0.70308
 C2853 C 0.60280 0.68412 0.69766
 C2854 C 0.61172 0.69136 0.68884
 N2855 N 0.57646 0.71151 0.70541
 N2856 N 0.56745 0.70600 0.71317
 C2857 C 0.55649 0.71416 0.71889
 C2858 C 0.54718 0.70822 0.72819
 C2859 C 0.53747 0.71645 0.73508
 C2860 C 0.53709 0.73069 0.73273
 C2861 C 0.54591 0.73647 0.72290
 C2862 C 0.55548 0.72831 0.71600
 H2863 H 0.61530 0.71111 0.67902
 H2864 H 0.59478 0.72216 0.68855
 H2865 H 0.58431 0.68480 0.70989
 H2866 H 0.60485 0.67349 0.70031
 H2867 H 0.54782 0.69734 0.73051
 H2868 H 0.53080 0.71185 0.74272
 H2869 H 0.54574 0.74746 0.72095
 H2870 H 0.56245 0.73318 0.70881
 C2871 C 0.60920 0.18190 0.20714
 C2872 C 0.59752 0.18729 0.21368
 C2873 C 0.58852 0.19616 0.20669
 C2874 C 0.59120 0.19946 0.19294
 C2875 C 0.60290 0.19415 0.18640
 C2876 C 0.61213 0.18542 0.19346
 N2877 N 0.57729 0.20230 0.21405
 N2878 N 0.56831 0.21005 0.20837
 C2879 C 0.55779 0.21681 0.21624
 C2880 C 0.54810 0.22529 0.20961
 C2881 C 0.53877 0.23323 0.21726
 C2882 C 0.53919 0.23286 0.23164
 C2883 C 0.54848 0.22390 0.23822
 C2884 C 0.55766 0.21591 0.23061
 H2885 H 0.61610 0.17530 0.21292
 H2886 H 0.59561 0.18476 0.22432
 H2887 H 0.58442 0.20636 0.18735
 H2888 H 0.60472 0.19697 0.17583
 H2889 H 0.54809 0.22609 0.19855
 H2890 H 0.53171 0.24014 0.21201
 H2891 H 0.54889 0.22341 0.24930
 H2892 H 0.56500 0.20943 0.23600
 C2893 C 0.10963 0.70790 0.18218
 C2894 C 0.09790 0.71456 0.18726
 C2895 C 0.08898 0.70782 0.19631
 C2896 C 0.09190 0.69422 0.20027
 C2897 C 0.10369 0.68754 0.19524
 C2898 C 0.11272 0.69433 0.18616
 N2899 N 0.07746 0.71531 0.20171
 N2900 N 0.06845 0.71004 0.20964
 C2901 C 0.05755 0.71832 0.21529
 C2902 C 0.04809 0.71245 0.22448
 C2903 C 0.03840 0.72075 0.23130
 C2904 C 0.03820 0.73500 0.22901
 C2905 C 0.04721 0.74074 0.21932
 C2906 C 0.05676 0.73249 0.21248
 H2907 H 0.11639 0.71351 0.17535
 H2908 H 0.09581 0.72510 0.18425
 H2909 H 0.08518 0.68884 0.20734
 H2910 H 0.10568 0.67706 0.19845
 H2911 H 0.04858 0.70155 0.22676
 H2912 H 0.03160 0.71618 0.23885
 H2913 H 0.04720 0.75173 0.21746
 H2914 H 0.06388 0.73731 0.20540
 C2915 C 0.10852 0.18492 0.70588
 C2916 C 0.09669 0.19025 0.71212
 C2917 C 0.08771 0.19888 0.70485
 C2918 C 0.09059 0.20205 0.69111
 C2919 C 0.10246 0.19674 0.68483
 C2920 C 0.11162 0.18819 0.69218
 N2921 N 0.07627 0.20487 0.71197
 N2922 N 0.06742 0.21271 0.70625
 C2923 C 0.05669 0.21915 0.71411
 C2924 C 0.04749 0.22830 0.70769
 C2925 C 0.03809 0.23599 0.71550
 C2926 C 0.03793 0.23465 0.72983
 C2927 C 0.04666 0.22498 0.73614
 C2928 C 0.05593 0.21727 0.72837
 H2929 H 0.11535 0.17850 0.71192
 H2930 H 0.09462 0.18785 0.72277
 H2931 H 0.08382 0.20878 0.68531
 H2932 H 0.10445 0.19940 0.67424
 H2933 H 0.04797 0.22985 0.69671
 H2934 H 0.03145 0.24344 0.71047
 H2935 H 0.04660 0.22371 0.74717
 H2936 H 0.06284 0.21022 0.73360
 C2937 C 0.39128 0.70575 0.31453
 C2938 C 0.40285 0.71208 0.30878
 C2939 C 0.41165 0.70479 0.30003
 C2940 C 0.40874 0.69096 0.29705
 C2941 C 0.39708 0.68460 0.30274
 C2942 C 0.38820 0.69194 0.31155
 N2943 N 0.42304 0.71193 0.29395
 N2944 N 0.43201 0.70618 0.28628
 C2945 C 0.44280 0.71407 0.27995
 C2946 C 0.45230 0.70759 0.27120
 C2947 C 0.46195 0.71539 0.26379
 C2948 C 0.46208 0.72977 0.26502
 C2949 C 0.45300 0.73616 0.27425
 C2950 C 0.44349 0.72841 0.28168
 H2951 H 0.38462 0.71179 0.32111
 H2952 H 0.40492 0.72278 0.31105
 H2953 H 0.41536 0.68514 0.29023
 H2954 H 0.39509 0.67394 0.30029
 H2955 H 0.45190 0.69655 0.26976
 H2956 H 0.46882 0.71030 0.25663
 H2957 H 0.45296 0.74726 0.27533
 H2958 H 0.43635 0.73371 0.28841
 C2959 C 0.39039 0.18789 0.79609
 C2960 C 0.40210 0.19352 0.78996
 C2961 C 0.41111 0.20182 0.79746
 C2962 C 0.40828 0.20448 0.81133
 C2963 C 0.39648 0.19886 0.81752
 C2964 C 0.38740 0.19049 0.80995
 N2965 N 0.42265 0.20774 0.79045
 N2966 N 0.43169 0.21533 0.79615
 C2967 C 0.44259 0.22135 0.78818
 C2968 C 0.45193 0.23048 0.79435
 C2969 C 0.46162 0.23763 0.78636
 C2970 C 0.46196 0.23574 0.77210
 C2971 C 0.45308 0.22610 0.76607
 C2972 C 0.44353 0.21894 0.77400
 H2973 H 0.38359 0.18170 0.78984
 H2974 H 0.40411 0.19152 0.77922
 H2975 H 0.41509 0.21096 0.81730
 H2976 H 0.39453 0.20104 0.82822
 H2977 H 0.45134 0.23244 0.80525
 H2978 H 0.46833 0.24510 0.79117
 H2979 H 0.45323 0.22448 0.75509
 H2980 H 0.43654 0.21190 0.76894
 C2981 C 0.88956 0.68706 0.79480
 C2982 C 0.90119 0.69244 0.78832
 C2983 C 0.91061 0.70051 0.79556
 C2984 C 0.90824 0.70327 0.80950
 C2985 C 0.89649 0.69789 0.81605
 C2986 C 0.88706 0.68966 0.80876
 N2987 N 0.92213 0.70604 0.78820
 N2988 N 0.93167 0.71326 0.79356
 C2989 C 0.94250 0.71882 0.78515
 C2990 C 0.95240 0.72763 0.79090
 C2991 C 0.96202 0.73439 0.78250
 C2992 C 0.96175 0.73244 0.76825
 C2993 C 0.95233 0.72304 0.76263
 C2994 C 0.94283 0.71628 0.77097
 H2995 H 0.88244 0.68103 0.78874
 H2996 H 0.90283 0.69040 0.77753
 H2997 H 0.91536 0.70959 0.81526
 H2998 H 0.89487 0.70008 0.82680
 H2999 H 0.95231 0.72966 0.80181
 H3000 H 0.96916 0.74166 0.78702
 H3001 H 0.95200 0.72134 0.75166
 H3002 H 0.93542 0.70945 0.76622
 C3003 C 0.89117 0.20707 0.31586
 C3004 C 0.90294 0.21352 0.31066
 C3005 C 0.91180 0.20654 0.30171
 C3006 C 0.90878 0.19292 0.29801
 C3007 C 0.89695 0.18645 0.30316
 C3008 C 0.88798 0.19348 0.31213
 N3009 N 0.92331 0.21384 0.29606
 N3010 N 0.93228 0.20832 0.28825
 C3011 C 0.94311 0.21636 0.28221
 C3012 C 0.95247 0.21014 0.27314
 C3013 C 0.96198 0.21816 0.26581
 C3014 C 0.96211 0.23252 0.26742
 C3015 C 0.95325 0.23861 0.27706
 C3016 C 0.94387 0.23063 0.28442
 H3017 H 0.88446 0.21287 0.32260
 H3018 H 0.90510 0.22407 0.31346
 H3019 H 0.91544 0.18736 0.29103
 H3020 H 0.89487 0.17596 0.30015
 H3021 H 0.95203 0.19916 0.27136
 H3022 H 0.96871 0.21327 0.25839
 H3023 H 0.95327 0.24965 0.27854
 H3024 H 0.93685 0.23571 0.29143
 C3025 C 0.31449 0.29367 0.60965
 C3026 C 0.30926 0.28707 0.59808
 C3027 C 0.30073 0.29413 0.58888
 C3028 C 0.29737 0.30797 0.59138
 C3029 C 0.30254 0.31460 0.60305
 C3030 C 0.31119 0.30751 0.61229
 N3031 N 0.29522 0.28671 0.57747
 N3032 N 0.28797 0.29224 0.56804
 C3033 C 0.28216 0.28404 0.55728
 C3034 C 0.27379 0.29026 0.54729
 C3035 C 0.26670 0.28219 0.53769
 C3036 C 0.26787 0.26779 0.53811
 C3037 C 0.27682 0.26165 0.54766
 C3038 C 0.28394 0.26968 0.55713
 H3039 H 0.32093 0.28781 0.61661
 H3040 H 0.31177 0.27635 0.59632
 H3041 H 0.29067 0.31359 0.58444
 H3042 H 0.29985 0.32528 0.60476
 H3043 H 0.27232 0.30131 0.54728
 H3044 H 0.25974 0.28709 0.53047
 H3045 H 0.27787 0.25055 0.54812
 H3046 H 0.29040 0.26458 0.56466
 C3047 C 0.29065 0.81811 0.10983
 C3048 C 0.28383 0.81318 0.09821
 C3049 C 0.29070 0.80460 0.08893
 C3050 C 0.30455 0.80096 0.09140
 C3051 C 0.31136 0.80578 0.10311
 C3052 C 0.30447 0.81440 0.11247
 N3053 N 0.28313 0.79915 0.07756
 N3054 N 0.28885 0.79243 0.06791
 C3055 C 0.28086 0.78626 0.05717
 C3056 C 0.28765 0.77913 0.04666
 C3057 C 0.28007 0.77151 0.03709
 C3058 C 0.26560 0.77083 0.03806
 C3059 C 0.25878 0.77852 0.04817
 C3060 C 0.26632 0.78624 0.05761
 H3061 H 0.28497 0.82460 0.11688
 H3062 H 0.27311 0.81594 0.09648
 H3063 H 0.31004 0.79422 0.08444
 H3064 H 0.32202 0.80278 0.10477
 H3065 H 0.29885 0.77902 0.04622
 H3066 H 0.28553 0.76549 0.02946
 H3067 H 0.24762 0.77808 0.04910
 H3068 H 0.26081 0.79167 0.06560
 C3069 C 0.81614 0.29180 0.10916
 C3070 C 0.81103 0.28510 0.09756
 C3071 C 0.80227 0.29198 0.08840
 C3072 C 0.79859 0.30572 0.09100
 C3073 C 0.80359 0.31241 0.10269
 C3074 C 0.81243 0.30553 0.11190
 N3075 N 0.79672 0.28455 0.07699
 N3076 N 0.78974 0.29031 0.06749
 C3077 C 0.78353 0.28247 0.05668
 C3078 C 0.77597 0.28929 0.04644
 C3079 C 0.76831 0.28180 0.03682
 C3080 C 0.76805 0.26737 0.03744
 C3081 C 0.77619 0.26054 0.04726
 C3082 C 0.78392 0.26801 0.05676
 H3083 H 0.82277 0.28612 0.11610
 H3084 H 0.81381 0.27446 0.09574
 H3085 H 0.79170 0.31121 0.08415
 H3086 H 0.80056 0.32299 0.10444
 H3087 H 0.77555 0.30043 0.04628
 H3088 H 0.76195 0.28725 0.02944
 H3089 H 0.77608 0.24942 0.04792
 H3090 H 0.78970 0.26247 0.06452
 C3091 C 0.79216 0.81252 0.60993
 C3092 C 0.78564 0.80741 0.59826
 C3093 C 0.79311 0.79995 0.58853
 C3094 C 0.80729 0.79753 0.59059
 C3095 C 0.81387 0.80265 0.60231
 C3096 C 0.80637 0.81025 0.61210
 N3097 N 0.78579 0.79464 0.57697
 N3098 N 0.79142 0.78770 0.56742
 C3099 C 0.78316 0.78227 0.55649
 C3100 C 0.78910 0.77323 0.54695
 C3101 C 0.78076 0.76646 0.53733
 C3102 C 0.76640 0.76869 0.53725
 C3103 C 0.76062 0.77832 0.54627
 C3104 C 0.76890 0.78509 0.55577
 H3105 H 0.78597 0.81813 0.61728
 H3106 H 0.77467 0.80921 0.59682
 H3107 H 0.81324 0.79169 0.58320
 H3108 H 0.82483 0.80075 0.60361
 H3109 H 0.80007 0.77097 0.54738
 H3110 H 0.78536 0.75896 0.53051
 H3111 H 0.74956 0.78017 0.54632
 H3112 H 0.76404 0.79211 0.56290
 C3113 C 0.29205 0.68624 0.38991
 C3114 C 0.28544 0.69105 0.40167
 C3115 C 0.29264 0.69894 0.41126
 C3116 C 0.30661 0.70211 0.40891
 C3117 C 0.31325 0.69738 0.39704
 C3118 C 0.30603 0.68933 0.38744
 N3119 N 0.28523 0.70410 0.42287
 N3120 N 0.29097 0.71047 0.43272
 C3121 C 0.28289 0.71616 0.44367
 C3122 C 0.28946 0.72356 0.45412
 C3123 C 0.28163 0.73083 0.46380
 C3124 C 0.26712 0.73083 0.46304
 C3125 C 0.26057 0.72273 0.45309
 C3126 C 0.26836 0.71542 0.44352
 H3127 H 0.28609 0.68027 0.38267
 H3128 H 0.27462 0.68869 0.40331
 H3129 H 0.31234 0.70833 0.41613
 H3130 H 0.32403 0.69990 0.39546
 H3131 H 0.30064 0.72422 0.45437
 H3132 H 0.28689 0.73714 0.47131
 H3133 H 0.24938 0.72260 0.45233
 H3134 H 0.26299 0.70972 0.43562
 C3135 C 0.29329 0.18481 0.89121
 C3136 C 0.28675 0.19002 0.90283
 C3137 C 0.29385 0.19864 0.91185
 C3138 C 0.30767 0.20211 0.90908
 C3139 C 0.31424 0.19695 0.89736
 C3140 C 0.30711 0.18821 0.88831
 N3141 N 0.28648 0.20406 0.92336
 N3142 N 0.29198 0.21149 0.93259
 C3143 C 0.28373 0.21711 0.94347
 C3144 C 0.28980 0.22590 0.95313
 C3145 C 0.28156 0.23278 0.96278
 C3146 C 0.26716 0.23095 0.96277
 C3147 C 0.26122 0.22160 0.95358
 C3148 C 0.26941 0.21469 0.94405
 H3149 H 0.28739 0.17830 0.88440
 H3150 H 0.27605 0.18741 0.90479
 H3151 H 0.31331 0.20887 0.91588
 H3152 H 0.32490 0.19972 0.89546
 H3153 H 0.30082 0.22785 0.95282
 H3154 H 0.28630 0.24006 0.96972
 H3155 H 0.25011 0.22008 0.95341
 H3156 H 0.26443 0.20790 0.93680
 C3157 C 0.79256 0.68430 0.89003
 C3158 C 0.78589 0.68954 0.90159
 C3159 C 0.79303 0.69776 0.91094
 C3160 C 0.80702 0.70086 0.90852
 C3161 C 0.81371 0.69572 0.89685
 C3162 C 0.80655 0.68733 0.88750
 N3163 N 0.78559 0.70327 0.92239
 N3164 N 0.79133 0.70982 0.93214
 C3165 C 0.78328 0.71578 0.94298
 C3166 C 0.78994 0.72307 0.95346
 C3167 C 0.78220 0.73042 0.96316
 C3168 C 0.76770 0.73064 0.96239
 C3169 C 0.76104 0.72271 0.95236
 C3170 C 0.76874 0.71530 0.94278
 H3171 H 0.78665 0.67807 0.88297
 H3172 H 0.77507 0.68723 0.90325
 H3173 H 0.81271 0.70734 0.91555
 H3174 H 0.82449 0.69823 0.89521
 H3175 H 0.80113 0.72353 0.95376
 H3176 H 0.78753 0.73660 0.97073
 H3177 H 0.74986 0.72276 0.95159
 H3178 H 0.76331 0.70971 0.93485
 C3179 C 0.79305 0.18351 0.39123
 C3180 C 0.78669 0.18870 0.40300
 C3181 C 0.79382 0.19763 0.41171
 C3182 C 0.80751 0.20128 0.40859
 C3183 C 0.81387 0.19615 0.39677
 C3184 C 0.80668 0.18726 0.38792
 N3185 N 0.78664 0.20336 0.42318
 N3186 N 0.79240 0.21111 0.43199
 C3187 C 0.78454 0.21732 0.44281
 C3188 C 0.79110 0.22612 0.45213
 C3189 C 0.78331 0.23359 0.46170
 C3190 C 0.76884 0.23239 0.46190
 C3191 C 0.76238 0.22305 0.45303
 C3192 C 0.77013 0.21555 0.44360
 H3193 H 0.78715 0.17680 0.38461
 H3194 H 0.77609 0.18592 0.40524
 H3195 H 0.81320 0.20823 0.41514
 H3196 H 0.82441 0.19915 0.39462
 H3197 H 0.80219 0.22758 0.45163
 H3198 H 0.78846 0.24082 0.46841
 H3199 H 0.75123 0.22195 0.45307
 H3200 H 0.76478 0.20880 0.43658
 C3201 C 0.70637 0.31125 0.38947
 C3202 C 0.71275 0.30599 0.40116
 C3203 C 0.70523 0.29827 0.41063
 C3204 C 0.69114 0.29566 0.40823
 C3205 C 0.68469 0.30092 0.39642
 C3206 C 0.69225 0.30889 0.38699
 N3207 N 0.71246 0.29298 0.42231
 N3208 N 0.70685 0.28606 0.43188
 C3209 C 0.71514 0.28075 0.44291
 C3210 C 0.70927 0.27180 0.45257
 C3211 C 0.71767 0.26513 0.46228
 C3212 C 0.73201 0.26738 0.46234
 C3213 C 0.73772 0.27693 0.45320
 C3214 C 0.72939 0.28360 0.44361
 H3215 H 0.71260 0.31709 0.38234
 H3216 H 0.72365 0.30790 0.40284
 H3217 H 0.68517 0.28961 0.41541
 H3218 H 0.67380 0.29894 0.39481
 H3219 H 0.69832 0.26953 0.45218
 H3220 H 0.71312 0.25768 0.46919
 H3221 H 0.74878 0.27877 0.45310
 H3222 H 0.73421 0.29056 0.43639
 C3223 C 0.68857 0.79449 0.89036
 C3224 C 0.69409 0.78829 0.90204
 C3225 C 0.70229 0.79580 0.91110
 C3226 C 0.70504 0.80972 0.90834
 C3227 C 0.69952 0.81598 0.89657
 C3228 C 0.69117 0.80842 0.88748
 N3229 N 0.70799 0.78873 0.92267
 N3230 N 0.71547 0.79437 0.93180
 C3231 C 0.72122 0.78626 0.94272
 C3232 C 0.73045 0.79224 0.95207
 C3233 C 0.73740 0.78405 0.96174
 C3234 C 0.73521 0.76977 0.96206
 C3235 C 0.72540 0.76396 0.95321
 C3236 C 0.71846 0.77209 0.94367
 H3237 H 0.68241 0.78825 0.88353
 H3238 H 0.69204 0.77751 0.90400
 H3239 H 0.71145 0.81569 0.91520
 H3240 H 0.70168 0.82674 0.89467
 H3241 H 0.73266 0.80314 0.95149
 H3242 H 0.74500 0.78870 0.96844
 H3243 H 0.72353 0.75297 0.95334
 H3244 H 0.71131 0.76718 0.93669
 C3245 C 0.20680 0.31580 0.89172
 C3246 C 0.21319 0.31057 0.90348
 C3247 C 0.20608 0.30164 0.91222
 C3248 C 0.19239 0.29799 0.90912
 C3249 C 0.18600 0.30313 0.89730
 C3250 C 0.19315 0.31205 0.88843
 N3251 N 0.21329 0.29588 0.92370
 N3252 N 0.20751 0.28821 0.93260
 C3253 C 0.21537 0.28194 0.94341
 C3254 C 0.20875 0.27327 0.95284
 C3255 C 0.21651 0.26569 0.96239
 C3256 C 0.23100 0.26666 0.96247
 C3257 C 0.23753 0.27587 0.95350
 C3258 C 0.22981 0.28348 0.94409
 H3259 H 0.21267 0.32252 0.88507
 H3260 H 0.22379 0.31335 0.90571
 H3261 H 0.18672 0.29101 0.91569
 H3262 H 0.17545 0.30013 0.89516
 H3263 H 0.19763 0.27198 0.95244
 H3264 H 0.21131 0.25856 0.96919
 H3265 H 0.24870 0.27679 0.95345
 H3266 H 0.23519 0.29015 0.93699
 C3267 C 0.18668 0.79423 0.39108
 C3268 C 0.19188 0.78801 0.40290
 C3269 C 0.20050 0.79529 0.41178
 C3270 C 0.20389 0.80901 0.40876
 C3271 C 0.19871 0.81527 0.39686
 C3272 C 0.19005 0.80793 0.38788
 N3273 N 0.20610 0.78819 0.42338
 N3274 N 0.21386 0.79380 0.43230
 C3275 C 0.21972 0.78578 0.44323
 C3276 C 0.22895 0.79190 0.45247
 C3277 C 0.23608 0.78383 0.46210
 C3278 C 0.23408 0.76953 0.46246
 C3279 C 0.22427 0.76356 0.45371
 C3280 C 0.21713 0.77159 0.44422
 H3281 H 0.18021 0.78818 0.38436
 H3282 H 0.18932 0.77739 0.40508
 H3283 H 0.21061 0.81480 0.41547
 H3284 H 0.20144 0.82585 0.39477
 H3285 H 0.23103 0.80283 0.45184
 H3286 H 0.24367 0.78860 0.46873
 H3287 H 0.22254 0.75255 0.45390
 H3288 H 0.21000 0.76658 0.43729
 C3289 C 0.70596 0.68613 0.60881
 C3290 C 0.71205 0.69148 0.59700
 C3291 C 0.70456 0.70015 0.58827
 C3292 C 0.69078 0.70344 0.59145
 C3293 C 0.68465 0.69812 0.60332
 C3294 C 0.69220 0.68941 0.61215
 N3295 N 0.71151 0.70591 0.57667
 N3296 N 0.70562 0.71365 0.56788
 C3297 C 0.71341 0.71971 0.55693
 C3298 C 0.70692 0.72884 0.54780
 C3299 C 0.71475 0.73613 0.53812
 C3300 C 0.72915 0.73437 0.53759
 C3301 C 0.73551 0.72471 0.54625
 C3302 C 0.72773 0.71741 0.55580
 H3303 H 0.71215 0.67961 0.61541
 H3304 H 0.72273 0.68899 0.59470
 H3305 H 0.68482 0.71020 0.58487
 H3306 H 0.67401 0.70079 0.60552
 H3307 H 0.69590 0.73071 0.54855
 H3308 H 0.70971 0.74363 0.53158
 H3309 H 0.74662 0.72322 0.54597
 H3310 H 0.73303 0.71038 0.56265
 C3311 C 0.68316 0.20890 0.11012
 C3312 C 0.68782 0.21585 0.09848
 C3313 C 0.69645 0.20926 0.08904
 C3314 C 0.70049 0.19557 0.09140
 C3315 C 0.69593 0.18861 0.10312
 C3316 C 0.68718 0.19520 0.11260
 N3317 N 0.70145 0.21697 0.07758
 N3318 N 0.70835 0.21158 0.06786
 C3319 C 0.71392 0.21984 0.05701
 C3320 C 0.72164 0.21354 0.04660
 C3321 C 0.72868 0.22156 0.03693
 C3322 C 0.72814 0.23597 0.03768
 C3323 C 0.71987 0.24225 0.04769
 C3324 C 0.71274 0.23427 0.05723
 H3325 H 0.67661 0.21437 0.11726
 H3326 H 0.68478 0.22646 0.09684
 H3327 H 0.70730 0.19032 0.08431
 H3328 H 0.69918 0.17806 0.10469
 H3329 H 0.72267 0.20245 0.04634
 H3330 H 0.73520 0.21655 0.02940
 H3331 H 0.71943 0.25336 0.04846
 H3332 H 0.70682 0.23940 0.06513
 C3333 C 0.20983 0.68242 0.10969
 C3334 C 0.21674 0.68742 0.09814
 C3335 C 0.20997 0.69609 0.08884
 C3336 C 0.19611 0.69974 0.09121
 C3337 C 0.18921 0.69486 0.10284
 C3338 C 0.19601 0.68617 0.11224
 N3339 N 0.21765 0.70159 0.07755
 N3340 N 0.21202 0.70840 0.06787
 C3341 C 0.22011 0.71458 0.05719
 C3342 C 0.21342 0.72173 0.04660
 C3343 C 0.22109 0.72930 0.03704
 C3344 C 0.23556 0.72990 0.03810
 C3345 C 0.24229 0.72220 0.04831
 C3346 C 0.23465 0.71453 0.05773
 H3347 H 0.21544 0.67587 0.11676
 H3348 H 0.22747 0.68464 0.09649
 H3349 H 0.19069 0.70654 0.08421
 H3350 H 0.17854 0.69787 0.10442
 H3351 H 0.20223 0.72189 0.04608
 H3352 H 0.21572 0.73533 0.02935
 H3353 H 0.25344 0.72259 0.04931
 H3354 H 0.24009 0.70908 0.06579
 C3355 C 0.18507 0.20622 0.60935
 C3356 C 0.19022 0.21281 0.59774
 C3357 C 0.19873 0.20577 0.58855
 C3358 C 0.20213 0.19193 0.59111
 C3359 C 0.19703 0.18531 0.60282
 C3360 C 0.18841 0.19239 0.61205
 N3361 N 0.20421 0.21320 0.57713
 N3362 N 0.21149 0.20772 0.56774
 C3363 C 0.21729 0.21597 0.55700
 C3364 C 0.22577 0.20983 0.54707
 C3365 C 0.23288 0.21798 0.53754
 C3366 C 0.23162 0.23236 0.53796
 C3367 C 0.22258 0.23843 0.54743
 C3368 C 0.21543 0.23033 0.55683
 H3369 H 0.17865 0.21208 0.61631
 H3370 H 0.18768 0.22353 0.59594
 H3371 H 0.20881 0.18633 0.58417
 H3372 H 0.19975 0.17464 0.60457
 H3373 H 0.22729 0.19879 0.54707
 H3374 H 0.23991 0.21315 0.53036
 H3375 H 0.22149 0.24952 0.54789
 H3376 H 0.20889 0.23536 0.56431
   
