data_POSCAR
  _audit_creation_date              2014-09-24
  _audit_creation_method            'ToBaCCo'
  _symmetry_space_group_name_H-M    'P1'
  _symmetry_Int_Tables_number       1
  _symmetry_cell_setting            triclinic
  loop_
  _symmetry_equiv_pos_as_xyz
 x,y,z
_cell_length_a 65.4148
_cell_length_b 65.3852
_cell_length_c 65.2609
_cell_angle_alpha 90.058100
_cell_angle_beta 90.078800
_cell_angle_gamma 90.051200
loop_
  _atom_site_label
  _atom_site_type_symbol
  _atom_site_fract_x
  _atom_site_fract_y
  _atom_site_fract_z
C1 C 0.29842 0.43435 0.92043
 C2 C 0.29895 0.41905 0.93546
 C3 C 0.31405 0.41930 0.95030
 C4 C 0.32880 0.43488 0.95034
 C5 C 0.32823 0.45001 0.93557
 C6 C 0.31293 0.44974 0.92050
 C7 C 0.28642 0.43713 0.90333
 N8 N 0.29324 0.45381 0.89304
 C9 C 0.30951 0.46164 0.90346
 C10 C 0.34501 0.46236 0.93861
 N11 N 0.35583 0.45503 0.95489
 C12 C 0.34592 0.43825 0.96211
 C13 C 0.31159 0.40200 0.96202
 N14 N 0.29535 0.39128 0.95473
 C15 C 0.28753 0.40161 0.93840
 H16 H 0.27397 0.42737 0.89839
 H17 H 0.31875 0.47451 0.89875
 H18 H 0.34909 0.47531 0.92918
 H19 H 0.35109 0.42884 0.97476
 H20 H 0.32121 0.39727 0.97467
 H21 H 0.27494 0.39665 0.92887
 C22 C 0.43802 0.82932 0.45254
 C23 C 0.42304 0.81395 0.45226
 C24 C 0.42299 0.79947 0.43679
 C25 C 0.43795 0.80011 0.42143
 C26 C 0.45272 0.81524 0.42173
 C27 C 0.45276 0.82994 0.43739
 C28 C 0.44101 0.84615 0.46486
 N29 N 0.45716 0.85702 0.45758
 C30 C 0.46447 0.84710 0.44073
 C31 C 0.46435 0.81295 0.40434
 N32 N 0.45706 0.79679 0.39349
 C33 C 0.44085 0.78884 0.40384
 C34 C 0.40598 0.78741 0.43955
 N35 N 0.39571 0.79414 0.45631
 C36 C 0.40606 0.81043 0.46419
 H37 H 0.43174 0.85047 0.47791
 H38 H 0.47695 0.85206 0.43110
 H39 H 0.47690 0.82266 0.39962
 H40 H 0.43134 0.77627 0.39880
 H41 H 0.40106 0.77499 0.42972
 H42 H 0.40133 0.81963 0.47711
 C43 C 0.93562 0.91951 0.79982
 C44 C 0.92070 0.93491 0.80028
 C45 C 0.92154 0.94995 0.81516
 C46 C 0.93730 0.94985 0.82974
 C47 C 0.95204 0.93473 0.82924
 C48 C 0.95118 0.91944 0.81417
 C49 C 0.93787 0.90222 0.78801
 N50 N 0.95437 0.89159 0.79484
 C51 C 0.96265 0.90213 0.81087
 C52 C 0.96460 0.93765 0.84593
 N53 N 0.95775 0.95419 0.85663
 C54 C 0.94110 0.96171 0.84673
 C55 C 0.90449 0.96202 0.81277
 N56 N 0.89334 0.95475 0.79679
 C57 C 0.90315 0.93809 0.78906
 H58 H 0.92788 0.89743 0.77565
 H59 H 0.97566 0.89752 0.81999
 H60 H 0.97729 0.92791 0.85009
 H61 H 0.93201 0.97457 0.85187
 H62 H 0.90021 0.97489 0.82229
 H63 H 0.89776 0.92849 0.77668
 C64 C 0.43560 -0.07951 0.30140
 C65 C 0.42044 -0.06434 0.30173
 C66 C 0.42040 -0.04979 0.31712
 C67 C 0.43552 -0.05015 0.33237
 C68 C 0.45042 -0.06511 0.33208
 C69 C 0.45045 -0.07990 0.31649
 C70 C 0.43873 -0.09626 0.28899
 N71 N 0.45514 -0.10688 0.29626
 C72 C 0.46235 -0.09689 0.31305
 C73 C 0.46225 -0.06246 0.34933
 N74 N 0.45496 -0.04624 0.36005
 C75 C 0.43853 -0.03862 0.34978
 C76 C 0.40329 -0.03790 0.31440
 N77 N 0.39293 -0.04481 0.29774
 C78 C 0.40334 -0.06103 0.28987
 H79 H 0.42929 -0.10045 0.27604
 H80 H 0.47510 -0.10189 0.32239
 H81 H 0.47499 -0.07194 0.35402
 H82 H 0.42897 -0.02609 0.35476
 H83 H 0.39839 -0.02544 0.32416
 H84 H 0.39861 -0.07029 0.27697
 C85 C 0.79883 0.31189 0.32782
 C86 C 0.79816 0.32682 0.31242
 C87 C 0.81277 0.32695 0.29713
 C88 C 0.82830 0.31216 0.29709
 C89 C 0.82895 0.29742 0.31227
 C90 C 0.81409 0.29727 0.32774
 C91 C 0.78748 0.30896 0.34529
 N92 N 0.79539 0.29291 0.35581
 C93 C 0.81174 0.28565 0.34518
 C94 C 0.84637 0.28603 0.30918
 N95 N 0.85630 0.29352 0.29248
 C96 C 0.84534 0.30950 0.28505
 C97 C 0.80918 0.34389 0.28514
 N98 N 0.79271 0.35404 0.29280
 C99 C 0.78595 0.34369 0.30949
 H100 H 0.77469 0.31820 0.35031
 H101 H 0.82172 0.27338 0.34998
 H102 H 0.85162 0.27374 0.31892
 H103 H 0.84977 0.31888 0.27213
 H104 H 0.81846 0.34876 0.27234
 H105 H 0.77340 0.34847 0.31918
 C106 C -0.18569 0.83168 0.79938
 C107 C -0.17094 0.81611 0.79888
 C108 C -0.17125 0.80082 0.81350
 C109 C -0.18630 0.80082 0.82877
 C110 C -0.20085 0.81612 0.82926
 C111 C -0.20052 0.83167 0.81446
 C112 C -0.18838 0.84914 0.78791
 N113 N -0.20451 0.85979 0.79572
 C114 C -0.21198 0.84912 0.81193
 C115 C -0.21273 0.81290 0.84636
 N116 N -0.20565 0.79600 0.85633
 C117 C -0.18951 0.78857 0.84557
 C118 C -0.15448 0.78861 0.81014
 N119 N -0.14400 0.79604 0.79384
 C120 C -0.15396 0.81292 0.78684
 H121 H -0.17885 0.85374 0.77520
 H122 H -0.22459 0.85396 0.82152
 H123 H -0.22516 0.82263 0.85125
 H124 H -0.18041 0.77544 0.84994
 H125 H -0.14990 0.77556 0.81925
 H126 H -0.14899 0.82268 0.77444
 C127 C 0.94906 0.33183 0.43145
 C128 C 0.94896 0.31657 0.41632
 C129 C 0.93477 0.30089 0.41716
 C130 C 0.92046 0.30028 0.43314
 C131 C 0.92058 0.31534 0.44804
 C132 C 0.93499 0.33120 0.44720
 C133 C 0.96033 0.34944 0.43390
 N134 N 0.95348 0.35956 0.45075
 C135 C 0.93792 0.34841 0.45901
 C136 C 0.90421 0.31173 0.46073
 N137 N 0.89415 0.29486 0.45397
 C138 C 0.90401 0.28773 0.43705
 C139 C 0.93752 0.28898 0.39996
 N140 N 0.95307 0.29707 0.38873
 C141 C 0.96008 0.31394 0.39864
 H142 H 0.97242 0.35474 0.42388
 H143 H 0.92895 0.35248 0.47230
 H144 H 0.89952 0.32109 0.47358
 H145 H 0.89922 0.27494 0.42768
 H146 H 0.92842 0.27580 0.39582
 H147 H 0.97214 0.32385 0.39312
 C148 C 0.44738 0.43505 0.83139
 C149 C 0.44778 0.42018 0.81590
 C150 C 0.43271 0.41992 0.80100
 C151 C 0.41707 0.43460 0.80133
 C152 C 0.41670 0.44924 0.81663
 C153 C 0.43193 0.44945 0.83176
 C154 C 0.45934 0.43825 0.84848
 N155 N 0.45144 0.45427 0.85926
 C156 C 0.43471 0.46116 0.84905
 C157 C 0.39928 0.46067 0.81387
 N158 N 0.38909 0.45343 0.79726
 C159 C 0.39986 0.43740 0.78948
 C160 C 0.43619 0.40310 0.78883
 N161 N 0.45298 0.39315 0.79592
 C162 C 0.46018 0.40352 0.81252
 H163 H 0.47244 0.42913 0.85274
 H164 H 0.42495 0.47356 0.85409
 H165 H 0.39414 0.47313 0.82351
 H166 H 0.39536 0.42799 0.77661
 H167 H 0.42686 0.39809 0.77606
 H168 H 0.47297 0.39903 0.82201
 C169 C 0.79967 0.92101 0.93859
 C170 C 0.79996 0.93604 0.92328
 C171 C 0.81529 0.95061 0.92312
 C172 C 0.83050 0.95040 0.93828
 C173 C 0.83020 0.93562 0.95340
 C174 C 0.81468 0.92078 0.95353
 C175 C 0.78749 0.90411 0.94164
 N176 N 0.79482 0.89352 0.95807
 C177 C 0.81140 0.90373 0.96541
 C178 C 0.84744 0.93835 0.96523
 N179 N 0.85827 0.95445 0.95758
 C180 C 0.84792 0.96186 0.94112
 C181 C 0.81257 0.96230 0.90582
 N182 N 0.79598 0.95525 0.89549
 C183 C 0.78815 0.93913 0.90608
 H184 H 0.77475 0.89974 0.93203
 H185 H 0.82081 0.89874 0.97813
 H186 H 0.85181 0.92881 0.97802
 H187 H 0.85298 0.97440 0.93155
 H188 H 0.82230 0.97473 0.90079
 H189 H 0.77532 0.92978 0.90141
 C190 C 0.30082 0.83082 0.31513
 C191 C 0.30062 0.81522 0.32987
 C192 C 0.31588 0.80059 0.32996
 C193 C 0.33151 0.80131 0.31529
 C194 C 0.33169 0.81670 0.30077
 C195 C 0.31624 0.83156 0.30069
 C196 C 0.28871 0.84775 0.31217
 N197 N 0.29638 0.85882 0.29632
 C198 C 0.31327 0.84893 0.28917
 C199 C 0.34920 0.81435 0.28937
 N200 N 0.35965 0.79791 0.29655
 C201 C 0.34892 0.78984 0.31247
 C202 C 0.31266 0.78831 0.34675
 N203 N 0.29583 0.79506 0.35684
 C204 C 0.28835 0.81156 0.34659
 H205 H 0.27552 0.85199 0.32124
 H206 H 0.32314 0.85400 0.27691
 H207 H 0.35426 0.82417 0.27702
 H208 H 0.35358 0.77702 0.32182
 H209 H 0.32224 0.77574 0.35167
 H210 H 0.27549 0.82084 0.35127
 C211 C 0.79792 0.42183 0.43769
 C212 C 0.79748 0.43694 0.42248
 C213 C 0.81252 0.45180 0.42192
 C214 C 0.82824 0.45171 0.43654
 C215 C 0.82872 0.43678 0.45153
 C216 C 0.81343 0.42172 0.45210
 C217 C 0.78617 0.40468 0.44094
 N218 N 0.79418 0.39413 0.45702
 C219 C 0.81086 0.40446 0.46388
 C220 C 0.84638 0.43963 0.46268
 N221 N 0.85668 0.45595 0.45477
 C222 C 0.84560 0.46338 0.43881
 C223 C 0.80918 0.46342 0.40467
 N224 N 0.79245 0.45593 0.39475
 C225 C 0.78526 0.43975 0.40557
 H226 H 0.77330 0.39996 0.43165
 H227 H 0.82079 0.39940 0.47616
 H228 H 0.85137 0.43003 0.47521
 H229 H 0.85012 0.47608 0.42917
 H230 H 0.81884 0.47577 0.39942
 H231 H 0.77246 0.43025 0.40103
 C232 C 0.93821 0.82546 -0.04926
 C233 C 0.92316 0.81019 -0.04901
 C234 C 0.92262 0.79552 -0.06427
 C235 C 0.93715 0.79595 -0.08007
 C236 C 0.95200 0.81102 -0.08034
 C237 C 0.95252 0.82588 -0.06482
 C238 C 0.94145 0.84244 -0.03722
 N239 N 0.95742 0.85319 -0.04511
 C240 C 0.96423 0.84316 -0.06199
 C241 C 0.96316 0.80848 -0.09802
 N242 N 0.95541 0.79219 -0.10857
 C243 C 0.93952 0.78450 -0.09761
 C244 C 0.90554 0.78365 -0.06095
 N245 N 0.89572 0.79082 -0.04403
 C246 C 0.90641 0.80705 -0.03669
 H247 H 0.93225 0.84688 -0.02420
 H248 H 0.97644 0.84841 -0.07186
 H249 H 0.97560 0.81823 -0.10284
 H250 H 0.93003 0.77174 -0.10231
 H251 H 0.90031 0.77136 -0.07074
 H252 H 0.90192 0.81633 -0.02371
 C253 C 0.30057 0.33124 0.81592
 C254 C 0.30093 0.31603 0.83108
 C255 C 0.31618 0.30139 0.83097
 C256 C 0.33125 0.30170 0.81571
 C257 C 0.33092 0.31671 0.80082
 C258 C 0.31548 0.33157 0.80093
 C259 C 0.28833 0.34810 0.81292
 N260 N 0.29550 0.35863 0.79643
 C261 C 0.31210 0.34862 0.78909
 C262 C 0.34798 0.31401 0.78882
 N263 N 0.35863 0.29771 0.79599
 C264 C 0.34850 0.29009 0.81251
 C265 C 0.31348 0.28942 0.84807
 N266 N 0.29698 0.29636 0.85855
 C267 C 0.28919 0.31269 0.84825
 H268 H 0.27564 0.35259 0.82252
 H269 H 0.32136 0.35369 0.77631
 H270 H 0.35259 0.32350 0.77604
 H271 H 0.35348 0.27750 0.82201
 H272 H 0.32314 0.27684 0.85284
 H273 H 0.27640 0.32198 0.85307
 C274 C 0.17170 0.56310 0.54707
 C275 C 0.18675 0.57837 0.54770
 C276 C 0.20129 0.57825 0.56307
 C277 C 0.20103 0.56287 0.57799
 C278 C 0.18622 0.54777 0.57740
 C279 C 0.17143 0.54788 0.56179
 C280 C 0.15476 0.56034 0.53487
 N281 N 0.14421 0.54385 0.54175
 C282 C 0.15430 0.53612 0.55827
 C283 C 0.18880 0.53587 0.59463
 N284 N 0.20482 0.54345 0.60560
 C285 C 0.21232 0.55995 0.59551
 C286 C 0.21296 0.59559 0.56081
 N287 N 0.20593 0.60626 0.54445
 C288 C 0.18982 0.59582 0.53631
 H289 H 0.15006 0.57004 0.52228
 H290 H 0.14928 0.52345 0.56764
 H291 H 0.17913 0.52322 0.59910
 H292 H 0.22472 0.56954 0.60091
 H293 H 0.22535 0.60044 0.57073
 H294 H 0.18047 0.60075 0.52357
 C295 C 0.57851 0.68791 0.04731
 C296 C 0.56288 0.67319 0.04727
 C297 C 0.54795 0.67367 0.06223
 C298 C 0.54838 0.68887 0.07740
 C299 C 0.56373 0.70342 0.07742
 C300 C 0.57892 0.70293 0.06227
 C301 C 0.59581 0.69032 0.03559
 N302 N 0.60670 0.70641 0.04298
 C303 C 0.59645 0.71422 0.05936
 C304 C 0.56110 0.71531 0.09466
 N305 N 0.54450 0.70827 0.10507
 C306 C 0.53670 0.69210 0.09460
 C307 C 0.53568 0.65682 0.05935
 N308 N 0.54271 0.64612 0.04299
 C309 C 0.55941 0.65603 0.03549
 H310 H 0.60047 0.68071 0.02291
 H311 H 0.60155 0.72667 0.06900
 H312 H 0.57108 0.72757 0.09953
 H313 H 0.52380 0.68296 0.09950
 H314 H 0.52289 0.65230 0.06885
 H315 H 0.56891 0.65087 0.02297
 C316 C 0.68801 0.20325 0.67258
 C317 C 0.67308 0.20373 0.68799
 C318 C 0.67345 0.18937 0.70351
 C319 C 0.68876 0.17438 0.70389
 C320 C 0.70352 0.17395 0.68875
 C321 C 0.70313 0.18848 0.67296
 C322 C 0.69050 0.21426 0.65481
 N323 N 0.70672 0.20659 0.64440
 C324 C 0.71456 0.19076 0.65542
 C325 C 0.71541 0.15692 0.69210
 N326 N 0.70819 0.14700 0.70893
 C327 C 0.69189 0.15759 0.71618
 C328 C 0.65634 0.19248 0.71533
 N329 N 0.64562 0.20841 0.70745
 C330 C 0.65576 0.21538 0.69065
 H331 H 0.68082 0.22660 0.64951
 H332 H 0.72713 0.18106 0.65084
 H333 H 0.72777 0.15179 0.68238
 H334 H 0.68256 0.15299 0.72907
 H335 H 0.65166 0.18342 0.72839
 H336 H 0.65065 0.22743 0.68053
 C337 C 1.07884 0.06251 0.20186
 C338 C 1.06375 0.07772 0.20114
 C339 C 1.04932 0.07755 0.18565
 C340 C 1.04975 0.06214 0.17067
 C341 C 1.06461 0.04715 0.17138
 C342 C 1.07926 0.04731 0.18712
 C343 C 1.09560 0.05973 0.21429
 N344 N 1.10619 0.04321 0.20754
 C345 C 1.09629 0.03550 0.19087
 C346 C 1.06206 0.03502 0.15431
 N347 N 1.04603 0.04225 0.14320
 C348 C 1.03838 0.05889 0.15319
 C349 C 1.03752 0.09481 0.18800
 N350 N 1.04438 0.10543 0.20453
 C351 C 1.06049 0.09506 0.21266
 H352 H 1.10014 0.06939 0.22699
 H353 H 1.10138 0.02281 0.18155
 H354 H 1.07151 0.02211 0.15002
 H355 H 1.02586 0.06842 0.14814
 H356 H 1.02517 0.09963 0.17805
 H357 H 1.06972 0.09996 0.22551
 C358 C 0.06407 0.16903 1.04785
 C359 C 0.07871 0.18468 1.04727
 C360 C 0.07782 0.20059 1.06121
 C361 C 0.06224 0.20103 1.07597
 C362 C 0.04777 0.18561 1.07651
 C363 C 0.04868 0.16950 1.06234
 C364 C 0.06209 0.15099 1.03720
 N365 N 0.04589 0.14049 1.04480
 C366 C 0.03758 0.15172 1.06025
 C367 C 0.03550 0.18909 1.09324
 N368 N 0.04224 0.20627 1.10301
 C369 C 0.05853 0.21364 1.09244
 C370 C 0.09477 0.21268 1.05803
 N371 N 0.10591 0.20445 1.04246
 C372 C 0.09617 0.18733 1.03586
 H373 H 0.07206 0.14559 1.02511
 H374 H 0.02488 0.14716 1.06981
 H375 H 0.02315 0.17925 1.09813
 H376 H 0.06751 0.22688 1.09682
 H377 H 0.09895 0.22596 1.06700
 H378 H 0.10176 0.17717 1.02401
 C379 C 0.17076 0.70231 0.68624
 C380 C 0.18613 0.70200 0.67126
 C381 C 0.20101 0.68700 0.67173
 C382 C 0.20077 0.67211 0.68720
 C383 C 0.18562 0.67242 0.70195
 C384 C 0.17053 0.68763 0.70149
 C385 C 0.15353 0.71411 0.68871
 N386 N 0.14288 0.70702 0.70507
 C387 C 0.15319 0.69077 0.71298
 C388 C 0.18826 0.65538 0.71401
 N389 N 0.20464 0.64474 0.70701
 C390 C 0.21240 0.65489 0.69055
 C391 C 0.21298 0.68957 0.65462
 N392 N 0.20582 0.70577 0.64378
 C393 C 0.18932 0.71347 0.65387
 H394 H 0.14874 0.72659 0.67893
 H395 H 0.14821 0.68131 0.72561
 H396 H 0.17858 0.65068 0.72660
 H397 H 0.22498 0.64984 0.68109
 H398 H 0.22569 0.68000 0.65004
 H399 H 0.17980 0.72596 0.64873
 C400 C 1.18830 0.17292 0.20323
 C401 C 1.17301 0.18792 0.20285
 C402 C 1.17302 0.20259 0.18761
 C403 C 1.18830 0.20247 0.17258
 C404 C 1.20339 0.18770 0.17295
 C405 C 1.20341 0.17281 0.18842
 C406 C 1.19109 0.15582 0.21516
 N407 N 1.20750 0.14534 0.20802
 C408 C 1.21515 0.15564 0.19161
 C409 C 1.21517 0.19035 0.15569
 N410 N 1.20751 0.20640 0.14479
 C411 C 1.19111 0.21387 0.15512
 C412 C 1.15558 0.21407 0.18999
 N413 N 1.14499 0.20679 0.20629
 C414 C 1.15556 0.19074 0.21427
 H415 H 1.18145 0.15095 0.22772
 H416 H 1.22771 0.15071 0.18206
 H417 H 1.22789 0.18076 0.15130
 H418 H 1.18150 0.22633 0.14996
 H419 H 1.15058 0.22642 0.18015
 H420 H 1.15065 0.18118 0.22685
 C421 C 0.67282 1.04933 0.56526
 C422 C 0.68785 1.04980 0.58058
 C423 C 0.70239 1.06515 0.58067
 C424 C 0.70212 1.08022 0.56539
 C425 C 0.68733 1.07974 0.55023
 C426 C 0.67255 1.06416 0.55017
 C427 C 0.65594 1.03713 0.56236
 N428 N 0.64539 1.04412 0.54588
 C429 C 0.65546 1.06070 0.53830
 C430 C 0.69007 1.09686 0.53824
 N431 N 0.70618 1.10777 0.54582
 C432 C 0.71358 1.09761 0.56240
 C433 C 0.71406 1.06259 0.59804
 N434 N 0.70702 1.04607 0.60846
 C435 C 0.69092 1.03815 0.59786
 H436 H 0.65126 1.02447 0.57195
 H437 H 0.65043 1.07015 0.52568
 H438 H 0.68058 1.10108 0.52535
 H439 H 0.72616 1.10276 0.57192
 H440 H 0.72645 1.07239 0.60307
 H441 H 0.68154 1.02538 0.60258
 C442 C 0.56123 0.54893 0.17249
 C443 C 0.57673 0.54900 0.18736
 C444 C 0.57719 0.56416 0.20215
 C445 C 0.56214 0.57943 0.20231
 C446 C 0.54685 0.57934 0.18767
 C447 C 0.54642 0.56401 0.17264
 C448 C 0.55795 0.53709 0.15534
 N449 N 0.54149 0.54467 0.14508
 C450 C 0.53440 0.56112 0.15558
 C451 C 0.53532 0.59670 0.19059
 N452 N 0.54327 0.60731 0.20669
 C453 C 0.55968 0.59685 0.21388
 C454 C 0.59465 0.56131 0.21355
 N455 N 0.60479 0.54480 0.20612
 C456 C 0.59392 0.53716 0.19003
 H457 H 0.56747 0.52452 0.15039
 H458 H 0.52181 0.57071 0.15073
 H459 H 0.52264 0.60149 0.18110
 H460 H 0.56950 0.60190 0.22627
 H461 H 0.59994 0.57090 0.22601
 H462 H 0.59839 0.52446 0.18042
 C463 C 0.67142 0.68508 0.20050
 C464 C 0.68616 0.66952 0.20029
 C465 C 0.70073 0.66893 0.18495
 C466 C 0.70073 0.68390 0.16956
 C467 C 0.68616 0.69920 0.16976
 C468 C 0.67142 0.69980 0.18531
 C469 C 0.65461 0.68863 0.21268
 N470 N 0.64444 0.70517 0.20520
 C471 C 0.65463 0.71203 0.18846
 C472 C 0.68892 0.71072 0.15237
 N473 N 0.70483 0.70287 0.14163
 C474 C 0.71216 0.68640 0.15203
 C475 C 0.71212 0.65147 0.18783
 N476 N 0.70478 0.64146 0.20456
 C477 C 0.68891 0.65241 0.21221
 H478 H 0.64985 0.67927 0.22546
 H479 H 0.64979 0.72466 0.17890
 H480 H 0.67970 0.72361 0.14759
 H481 H 0.72439 0.67646 0.14705
 H482 H 0.72428 0.64623 0.17794
 H483 H 0.67966 0.64791 0.22520
 C484 C 0.17295 0.06152 1.04939
 C485 C 0.18827 0.07655 1.04914
 C486 C 0.20321 0.07676 1.06416
 C487 C 0.20302 0.06192 1.07970
 C488 C 0.18788 0.04714 1.07995
 C489 C 0.17277 0.04694 1.06470
 C490 C 0.15574 0.05850 1.03760
 N491 N 0.14513 0.04238 1.04542
 C492 C 0.15545 0.03530 1.06200
 C493 C 0.19055 0.03577 1.09745
 N494 N 0.20692 0.04319 1.10785
 C495 C 0.21467 0.05926 1.09709
 C496 C 0.21508 0.09386 1.06094
 N497 N 0.20767 0.10401 1.04432
 C498 C 0.19128 0.09351 1.03707
 H499 H 0.15108 0.06788 1.02479
 H500 H 0.15039 0.02289 1.07175
 H501 H 0.18089 0.02334 1.10260
 H502 H 0.22729 0.06887 1.10180
 H503 H 0.22759 0.09883 1.07059
 H504 H 0.18182 0.09826 1.02431
 C505 C 0.57944 0.20242 0.56251
 C506 C 0.56407 0.20290 0.57746
 C507 C 0.54884 0.18823 0.57740
 C508 C 0.54878 0.17285 0.56242
 C509 C 0.56393 0.17236 0.54767
 C510 C 0.57938 0.18725 0.54773
 C511 C 0.59696 0.21376 0.55981
 N512 N 0.60754 0.20581 0.54372
 C513 C 0.59688 0.18960 0.53631
 C514 C 0.56099 0.15491 0.53622
 N515 N 0.54441 0.14481 0.54370
 C516 C 0.53691 0.15569 0.55972
 C517 C 0.53701 0.19144 0.59452
 N518 N 0.54472 0.20774 0.60497
 C519 C 0.56127 0.21478 0.59462
 H520 H 0.60186 0.22631 0.56944
 H521 H 0.60184 0.17983 0.52386
 H522 H 0.57082 0.14967 0.52399
 H523 H 0.52413 0.15106 0.56918
 H524 H 0.52433 0.18197 0.59932
 H525 H 0.57099 0.22724 0.59964
 C526 C 0.07576 0.56218 0.70036
 C527 C 0.06082 0.57755 0.69988
 C528 C 0.04633 0.57767 0.68444
 C529 C 0.04655 0.56244 0.66931
 C530 C 0.06124 0.54726 0.66980
 C531 C 0.07597 0.54713 0.68545
 C532 C 0.09269 0.55924 0.71251
 N533 N 0.10317 0.54279 0.70541
 C534 C 0.09302 0.53527 0.68881
 C535 C 0.05870 0.53553 0.65244
 N536 N 0.04280 0.54327 0.64145
 C537 C 0.03534 0.55972 0.65168
 C538 C 0.03481 0.59510 0.68687
 N539 N 0.04188 0.60554 0.70341
 C540 C 0.05786 0.59490 0.71147
 H541 H 0.09747 0.56880 0.72521
 H542 H 0.09799 0.52271 0.67925
 H543 H 0.06832 0.52287 0.64790
 H544 H 0.02304 0.56941 0.64631
 H545 H 0.02254 0.60016 0.67696
 H546 H 0.06723 0.59965 0.72428
 C547 C 0.66851 0.55003 0.06403
 C548 C 0.68345 0.55001 0.07946
 C549 C 0.69850 0.56489 0.07971
 C550 C 0.69880 0.58004 0.06448
 C551 C 0.68401 0.58007 0.04931
 C552 C 0.66879 0.56498 0.04908
 C553 C 0.65132 0.53830 0.06082
 N554 N 0.64116 0.54581 0.04424
 C555 C 0.65175 0.56214 0.03704
 C556 C 0.68717 0.59715 0.03748
 N557 N 0.70352 0.60751 0.04499
 C558 C 0.71075 0.59716 0.06158
 C559 C 0.71006 0.56182 0.09710
 N560 N 0.70234 0.54543 0.10738
 C561 C 0.68607 0.53819 0.09667
 H562 H 0.64632 0.52580 0.07042
 H563 H 0.64704 0.57163 0.02429
 H564 H 0.67792 0.60202 0.02460
 H565 H 0.72326 0.60193 0.07132
 H566 H 0.72266 0.57132 0.10209
 H567 H 0.67650 0.52552 0.10138
 C568 C 0.06374 0.70203 0.57641
 C569 C 0.07959 0.70143 0.56198
 C570 C 0.07979 0.68642 0.54705
 C571 C 0.06413 0.67176 0.54638
 C572 C 0.04848 0.67235 0.56060
 C573 C 0.04828 0.68761 0.57573
 C574 C 0.06051 0.71391 0.59349
 N575 N 0.04348 0.70712 0.60320
 C576 C 0.03588 0.69098 0.59242
 C577 C 0.03632 0.65548 0.55722
 N578 N 0.04425 0.64466 0.54127
 C579 C 0.06124 0.65454 0.53461
 C580 C 0.09758 0.68877 0.53604
 N581 N 0.10816 0.70489 0.54395
 C582 C 0.09725 0.71265 0.55983
 H583 H 0.07024 0.72621 0.59888
 H584 H 0.02286 0.68174 0.59670
 H585 H 0.02322 0.65113 0.56631
 H586 H 0.07116 0.64919 0.52246
 H587 H 0.10258 0.67897 0.52367
 H588 H 0.10209 0.72527 0.56944
 C589 C 0.56331 1.04959 0.67426
 C590 C 0.57851 1.04986 0.68946
 C591 C 0.57834 1.06491 0.70437
 C592 C 0.56299 1.07987 0.70432
 C593 C 0.54802 1.07959 0.68936
 C594 C 0.54816 1.06432 0.67422
 C595 C 0.56043 1.03765 0.65712
 N596 N 0.54392 1.04472 0.64662
 C597 C 0.53628 1.06108 0.65708
 C598 C 0.53606 1.09666 0.69225
 N599 N 0.54339 1.10735 0.70855
 C600 C 0.55989 1.09707 0.71609
 C601 C 0.59557 1.06230 0.71617
 N602 N 0.60621 1.04604 0.70888
 C603 C 0.59586 1.03832 0.69248
 H604 H 0.57000 1.02501 0.65233
 H605 H 0.52347 1.07046 0.65251
 H606 H 0.52328 1.10129 0.68276
 H607 H 0.56950 1.10183 0.72871
 H608 H 0.60037 1.07191 0.72882
 H609 H 0.60081 1.02578 0.68289
 C610 C 0.44811 0.33272 0.93417
 C611 C 0.44823 0.31761 0.91888
 C612 C 0.43365 0.30228 0.91899
 C613 C 0.41871 0.30185 0.93439
 C614 C 0.41857 0.31677 0.94942
 C615 C 0.43337 0.33230 0.94931
 C616 C 0.45978 0.34998 0.93728
 N617 N 0.45240 0.36012 0.95399
 C618 C 0.43627 0.34932 0.96137
 C619 C 0.40174 0.31329 0.96154
 N620 N 0.39168 0.29661 0.95431
 C621 C 0.40196 0.28950 0.93764
 C622 C 0.43676 0.29049 0.90179
 N623 N 0.45290 0.29833 0.89123
 C624 C 0.45995 0.31490 0.90161
 H625 H 0.47233 0.35480 0.92767
 H626 H 0.42701 0.35376 0.97439
 H627 H 0.39684 0.32252 0.97440
 H628 H 0.39738 0.27679 0.92807
 H629 H 0.42746 0.27761 0.89714
 H630 H 0.47243 0.32459 0.89664
 C631 C 0.95078 0.43588 0.32645
 C632 C 0.95059 0.42058 0.31138
 C633 C 0.93535 0.42035 0.29668
 C634 C 0.92014 0.43543 0.29679
 C635 C 0.92033 0.45055 0.31161
 C636 C 0.93575 0.45074 0.32658
 C637 C 0.96285 0.43900 0.34345
 N638 N 0.95546 0.45541 0.35399
 C639 C 0.93893 0.46266 0.34367
 C640 C 0.90302 0.46219 0.30884
 N641 N 0.89235 0.45446 0.29266
 C642 C 0.90273 0.43809 0.28528
 C643 C 0.93807 0.40304 0.28504
 N644 N 0.95458 0.39275 0.29224
 C645 C 0.96236 0.40339 0.30841
 H646 H 0.97562 0.42949 0.34790
 H647 H 0.92950 0.47536 0.34858
 H648 H 0.89830 0.47480 0.31847
 H649 H 0.89763 0.42844 0.27278
 H650 H 0.92837 0.39794 0.27257
 H651 H 0.97509 0.39873 0.31790
 C652 C 0.30092 0.93629 0.42257
 C653 C 0.30076 0.92117 0.43780
 C654 C 0.31573 0.92102 0.45277
 C655 C 0.33111 0.93598 0.45271
 C656 C 0.33130 0.95086 0.43767
 C657 C 0.31608 0.95102 0.42249
 C658 C 0.28896 0.93942 0.40550
 N659 N 0.29654 0.95575 0.39496
 C660 C 0.31311 0.96288 0.40533
 C661 C 0.34857 0.96251 0.44069
 N662 N 0.35892 0.95511 0.45716
 C663 C 0.34825 0.93882 0.46463
 C664 C 0.31260 0.90389 0.46461
 N665 N 0.29607 0.89364 0.45713
 C666 C 0.28879 0.90414 0.44075
 H667 H 0.27608 0.93004 0.40108
 H668 H 0.32263 0.97554 0.40048
 H669 H 0.35350 0.97522 0.43126
 H670 H 0.35264 0.92928 0.47741
 H671 H 0.32223 0.89897 0.47714
 H672 H 0.27606 0.89933 0.43125
 O673 O 0.24571 0.55473 0.72537
 O674 O 0.28153 0.54765 0.72715
 O675 O 0.22197 0.50135 0.69563
 O676 O 0.22178 0.46768 0.70094
 O677 O 0.19259 0.52539 0.74964
 O678 O 0.20002 0.52344 0.78539
 O679 O 0.27408 0.44653 0.75116
 O680 O 0.27104 0.45320 0.71570
 O681 O 0.30072 0.49851 0.77714
 O682 O 0.29304 0.53531 0.77648
 O683 O 0.24848 0.47285 0.80376
 O684 O 0.21167 0.47388 0.79588
 O685 O 0.24968 0.44601 0.77594
 O686 O 0.21212 0.45283 0.77336
 O687 O 0.27310 0.49739 0.80435
 O688 O 0.27074 0.53497 0.79755
 O689 O 0.30097 0.47382 0.75258
 O690 O 0.29464 0.47724 0.71543
 O691 O 0.22122 0.55431 0.75011
 O692 O 0.22282 0.54598 0.78610
 O693 O 0.19294 0.50147 0.72429
 O694 O 0.20110 0.46482 0.72721
 O695 O 0.24638 0.52618 0.69624
 O696 O 0.28223 0.52505 0.70440
 Zr697 Zr 0.25834 0.52513 0.72618
 O698 O 0.27802 0.50712 0.74419
 Zr699 Zr 0.22262 0.48898 0.72536
 O700 O 0.24096 0.46915 0.74301
 Zr701 Zr 0.22229 0.52438 0.76197
 O702 O 0.24022 0.50602 0.78144
 Zr703 Zr 0.27201 0.47603 0.73867
 O704 O 0.25380 0.49406 0.71885
 Zr705 Zr 0.27129 0.51133 0.77536
 O706 O 0.25335 0.53144 0.75743
 Zr707 Zr 0.23574 0.47498 0.77426
 O708 O 0.21572 0.49332 0.75655
 O709 O 0.22738 0.51990 0.73088
 O710 O 0.26683 0.48025 0.76989
 C711 C 0.23148 0.56327 0.73593
 C712 C 0.23237 0.51575 0.68718
 C713 C 0.18403 0.51535 0.73503
 C714 C 0.26436 0.43776 0.76579
 C715 C 0.30935 0.48388 0.76730
 C716 C 0.26303 0.48266 0.81259
 H717 H 0.29234 0.51077 0.74112
 H718 H 0.23670 0.50905 0.79585
 H719 H 0.21869 0.52869 0.72214
 H720 H 0.23804 0.45478 0.73929
 H721 H 0.26435 0.45942 0.70359
 H722 H 0.23028 0.45586 0.70501
 H723 H 0.25894 0.53251 0.80670
 H724 H 0.23627 0.55289 0.78543
 H725 H 0.30355 0.48919 0.71803
 H726 H 0.28185 0.51150 0.69763
 H727 H 0.21276 0.48619 0.80463
 H728 H 0.19363 0.50973 0.78467
 H729 H 0.28086 0.55394 0.74094
 H730 H 0.30143 0.53449 0.76391
 H731 H 0.19330 0.46684 0.74004
 H732 H 0.21459 0.44381 0.76145
 O733 O 0.22415 0.00138 0.19874
 O734 O 0.22562 -0.03428 0.20692
 O735 O 0.19554 0.02635 0.25259
 O736 O 0.20173 0.02708 0.28622
 O737 O 0.24868 0.05540 0.22663
 O738 O 0.28452 0.04802 0.22801
 O739 O 0.25287 -0.02477 0.30704
 O740 O 0.21702 -0.02135 0.30148
 O741 O 0.27691 -0.05219 0.25523
 O742 O 0.27491 -0.04522 0.21792
 O743 O 0.30416 0.00042 0.27898
 O744 O 0.29634 0.03738 0.27716
 O745 O 0.27708 0.00020 0.30666
 O746 O 0.27469 0.03737 0.29896
 O747 O 0.30404 -0.02466 0.25483
 O748 O 0.29634 -0.02320 0.21750
 O749 O 0.25260 -0.05216 0.28009
 O750 O 0.21596 -0.04576 0.27811
 O751 O 0.24840 0.02636 0.19828
 O752 O 0.28445 0.02486 0.20560
 O753 O 0.22431 0.05550 0.25148
 O754 O 0.22790 0.04797 0.28808
 O755 O 0.19564 0.00195 0.22768
 O756 O 0.20329 -0.03399 0.22996
 Zr757 Zr 0.22535 -0.01037 0.22875
 O758 O 0.24375 -0.02969 0.24678
 Zr759 Zr 0.22553 0.02599 0.26433
 O760 O 0.24373 0.00812 0.28409
 Zr761 Zr 0.26109 0.02574 0.22793
 O762 O 0.28101 0.00811 0.24612
 Zr763 Zr 0.23916 -0.02306 0.27794
 O764 O 0.21888 -0.00529 0.25998
 Zr765 Zr 0.27474 -0.02309 0.24163
 O766 O 0.25635 -0.00549 0.22158
 Zr767 Zr 0.27473 0.01325 0.27729
 O768 O 0.25652 0.03288 0.25904
 O769 O 0.23022 0.02069 0.23331
 O770 O 0.27017 -0.01796 0.27280
 C771 C 0.23425 0.01564 0.18974
 C772 C 0.18684 0.01604 0.23824
 C773 C 0.23453 0.06416 0.23709
 C774 C 0.26750 -0.01455 0.31537
 C775 C 0.26716 -0.06066 0.27007
 C776 C 0.31266 -0.01435 0.26922
 H777 H 0.24055 -0.04409 0.24349
 H778 H 0.29529 0.01156 0.24264
 H779 H 0.22133 0.02924 0.22452
 H780 H 0.24046 0.01134 0.29852
 H781 H 0.20466 -0.01509 0.29536
 H782 H 0.20620 0.01901 0.29822
 H783 H 0.30526 -0.01109 0.21921
 H784 H 0.28366 0.01122 0.19906
 H785 H 0.21723 -0.05400 0.26547
 H786 H 0.19664 -0.03296 0.24354
 H787 H 0.30491 0.03582 0.26478
 H788 H 0.28400 0.05480 0.24157
 H789 H 0.23926 -0.03394 0.20039
 H790 H 0.26286 -0.05418 0.21982
 H791 H 0.24075 0.05564 0.28578
 H792 H 0.26282 0.03538 0.30811
 O793 O 0.50257 0.69776 0.22434
 O794 O 0.46680 0.70551 0.22609
 O795 O 0.52720 0.75085 0.19499
 O796 O 0.52752 0.78460 0.20046
 O797 O 0.55608 0.72596 0.24853
 O798 O 0.54891 0.72833 0.28450
 O799 O 0.47556 0.80611 0.25149
 O800 O 0.47915 0.80009 0.21567
 O801 O 0.44852 0.75483 0.27645
 O802 O 0.45552 0.71766 0.27516
 O803 O 0.50102 0.77921 0.30332
 O804 O 0.53796 0.77740 0.29550
 O805 O 0.50068 0.80632 0.27560
 O806 O 0.53784 0.79878 0.27342
 O807 O 0.47609 0.75497 0.30363
 O808 O 0.47768 0.71754 0.29651
 O809 O 0.44839 0.77905 0.25148
 O810 O 0.45500 0.77647 0.21475
 O811 O 0.52699 0.69769 0.24923
 O812 O 0.52589 0.70590 0.28510
 O813 O 0.55617 0.75046 0.22379
 O814 O 0.54855 0.78703 0.22672
 O815 O 0.50242 0.72639 0.19538
 O816 O 0.46661 0.72810 0.20333
 Zr817 Zr 0.49041 0.72759 0.22526
 O818 O 0.47103 0.74584 0.24335
 Zr819 Zr 0.52664 0.76323 0.22478
 O820 O 0.50868 0.78322 0.24264
 Zr821 Zr 0.52652 0.72760 0.26112
 O822 O 0.50882 0.74604 0.28072
 Zr823 Zr 0.47753 0.77688 0.23816
 O824 O 0.49538 0.75865 0.21819
 Zr825 Zr 0.47765 0.74131 0.27450
 O826 O 0.49534 0.72104 0.25648
 Zr827 Zr 0.51384 0.77703 0.27384
 O828 O 0.53354 0.75858 0.25594
 O829 O 0.52144 0.73235 0.23006
 O830 O 0.48265 0.77234 0.26935
 C831 C 0.51662 0.68895 0.23495
 C832 C 0.51662 0.73660 0.18643
 C833 C 0.56481 0.73618 0.23415
 C834 C 0.48579 0.81473 0.26595
 C835 C 0.43995 0.76933 0.26631
 C836 C 0.48635 0.76951 0.31204
 H837 H 0.45666 0.74245 0.24018
 H838 H 0.51228 0.74283 0.29511
 H839 H 0.52998 0.72344 0.22129
 H840 H 0.51183 0.79757 0.23910
 H841 H 0.48555 0.79388 0.20341
 H842 H 0.51963 0.79674 0.20483
 H843 H 0.48962 0.71959 0.30559
 H844 H 0.51224 0.69938 0.28462
 H845 H 0.44655 0.76405 0.21647
 H846 H 0.46735 0.74159 0.19649
 H847 H 0.53652 0.76513 0.30423
 H848 H 0.55571 0.74182 0.28354
 H849 H 0.46736 0.69917 0.23985
 H850 H 0.44679 0.71910 0.26287
 H851 H 0.55621 0.78499 0.23965
 H852 H 0.53586 0.80762 0.26129
 O853 O 0.05251 0.72457 0.74568
 O854 O 0.04487 0.72522 0.78153
 O855 O -0.00109 0.69576 0.72064
 O856 O -0.03458 0.70156 0.71966
 O857 O 0.02397 0.75036 0.69274
 O858 O 0.02206 0.78590 0.70119
 O859 O -0.05582 0.75034 0.77350
 O860 O -0.04944 0.71485 0.76927
 O861 O -0.00427 0.77501 0.80148
 O862 O 0.03274 0.77409 0.79437
 O863 O -0.02884 0.80321 0.74965
 O864 O -0.02735 0.79642 0.71256
 O865 O -0.05589 0.77561 0.74959
 O866 O -0.04858 0.77413 0.71205
 O867 O -0.00457 0.80290 0.77460
 O868 O 0.03292 0.79582 0.77266
 O869 O -0.02868 0.75025 0.80091
 O870 O -0.02590 0.71368 0.79338
 O871 O 0.05251 0.74990 0.72178
 O872 O 0.04442 0.78575 0.72426
 O873 O -0.00004 0.72517 0.69214
 O874 O -0.03682 0.72835 0.69984
 O875 O 0.02400 0.69565 0.74484
 O876 O 0.02216 0.70250 0.78105
 Zr877 Zr 0.02274 0.72509 0.75790
 O878 O 0.00460 0.74261 0.77792
 Zr879 Zr -0.01300 0.72561 0.72169
 O880 O -0.03290 0.74285 0.74031
 Zr881 Zr 0.02265 0.76187 0.72283
 O882 O 0.00425 0.78091 0.74116
 Zr883 Zr -0.02645 0.73754 0.77137
 O884 O -0.00833 0.71815 0.75279
 Zr885 Zr 0.00909 0.77388 0.77219
 O886 O 0.02930 0.75638 0.75391
 Zr887 Zr -0.02676 0.77413 0.73605
 O888 O -0.00834 0.75689 0.71571
 O889 O 0.01789 0.73074 0.72697
 O890 O -0.02195 0.76880 0.76715
 C891 C 0.06127 0.73545 0.73180
 C892 C 0.01336 0.68700 0.73068
 C893 C 0.01401 0.73603 0.68367
 C894 C -0.06439 0.76522 0.76397
 C895 C -0.01885 0.76478 0.80978
 C896 C -0.01910 0.81153 0.76457
 H897 H 0.00804 0.73908 0.79223
 H898 H 0.00744 0.79536 0.73810
 H899 H 0.02673 0.72219 0.71814
 H900 H -0.04726 0.73935 0.73709
 H901 H -0.04319 0.70289 0.76238
 H902 H -0.04640 0.70539 0.72828
 H903 H 0.03078 0.80525 0.76101
 H904 H 0.05110 0.78472 0.73784
 H905 H -0.01351 0.71530 0.80191
 H906 H 0.00868 0.69567 0.78005
 H907 H -0.01500 0.80502 0.71407
 H908 H 0.00847 0.78535 0.69451
 H909 H 0.05117 0.73899 0.78145
 H910 H 0.03149 0.76147 0.80262
 H911 H -0.03448 0.74128 0.69232
 H912 H -0.05763 0.76217 0.71397
 O913 O -0.02373 -0.05762 -0.00186
 O914 O -0.02206 -0.05049 0.03423
 O915 O -0.05224 -0.00331 -0.02525
 O916 O -0.04605 0.03024 -0.02523
 O917 O 0.00091 -0.02866 -0.05478
 O918 O 0.03685 -0.02698 -0.04729
 O919 O 0.00449 0.05004 0.02724
 O920 O -0.03126 0.04408 0.02383
 O921 O 0.02892 -0.00243 0.05389
 O922 O 0.02696 -0.03943 0.04603
 O923 O 0.05612 0.02276 0.00222
 O924 O 0.04881 0.02149 -0.03498
 O925 O 0.02877 0.05020 0.00234
 O926 O 0.02698 0.04306 -0.03494
 O927 O 0.05618 -0.00237 0.02625
 O928 O 0.04829 -0.03956 0.02400
 O929 O 0.00479 0.02257 0.05415
 O930 O -0.03192 0.02042 0.04783
 O931 O 0.00109 -0.05753 -0.02627
 O932 O 0.03696 -0.04997 -0.02481
 O933 O -0.02345 -0.00384 -0.05436
 O934 O -0.01989 0.03255 -0.04595
 O935 O -0.05219 -0.02877 -0.00148
 O936 O -0.04457 -0.02754 0.03455
 Zr937 Zr -0.02247 -0.02804 0.01095
 O938 O -0.00421 -0.01042 0.03089
 Zr939 Zr -0.02226 0.00835 -0.02452
 O940 O -0.00416 0.02767 -0.00604
 Zr941 Zr 0.01342 -0.02785 -0.02503
 O942 O 0.03321 -0.01012 -0.00674
 Zr943 Zr -0.00883 0.02083 0.02502
 O944 O -0.02899 0.00324 0.00665
 Zr945 Zr 0.02681 -0.01535 0.02436
 O946 O 0.00858 -0.03497 0.00606
 Zr947 Zr 0.02688 0.02107 -0.01115
 O948 O 0.00877 0.00334 -0.03141
 O949 O -0.01750 -0.02271 -0.02000
 O950 O 0.02222 0.01588 0.01998
 C951 C -0.01327 -0.06628 -0.01612
 C952 C -0.06097 -0.01787 -0.01533
 C953 C -0.01330 -0.01807 -0.06332
 C954 C 0.01897 0.05865 0.01710
 C955 C 0.01930 0.01234 0.06257
 C956 C 0.06470 0.01243 0.01659
 H957 H -0.00745 -0.01402 0.04522
 H958 H 0.04752 -0.01350 -0.01017
 H959 H -0.02637 -0.03129 -0.02880
 H960 H -0.00749 0.04211 -0.00899
 H961 H -0.04356 0.03798 0.01739
 H962 H -0.04168 0.04196 -0.01669
 H963 H 0.05730 -0.03758 0.01200
 H964 H 0.03633 -0.05679 -0.01128
 H965 H -0.03045 0.00773 0.05591
 H966 H -0.05100 -0.01385 0.03410
 H967 H 0.05741 0.00914 -0.03357
 H968 H 0.03618 -0.01329 -0.05372
 H969 H -0.00847 -0.05711 0.03356
 H970 H 0.01470 -0.03793 0.05475
 H971 H -0.00711 0.03034 -0.05375
 H972 H 0.01492 0.05197 -0.03304
 O973 O 0.00154 0.55540 0.52224
 O974 O -0.03438 0.54794 0.52047
 O975 O 0.02576 0.50179 0.55089
 O976 O 0.02589 0.46810 0.54494
 O977 O 0.05463 0.52684 0.49715
 O978 O 0.04688 0.52521 0.46129
 O979 O -0.02653 0.44745 0.49418
 O980 O -0.02273 0.45322 0.53002
 O981 O -0.05362 0.49940 0.46999
 O982 O -0.04611 0.53651 0.47162
 O983 O -0.00184 0.47466 0.44249
 O984 O 0.03546 0.47648 0.44989
 O985 O -0.00164 0.44734 0.46990
 O986 O 0.03541 0.45471 0.47162
 O987 O -0.02619 0.49943 0.44246
 O988 O -0.02437 0.53660 0.45001
 O989 O -0.05352 0.47457 0.49435
 O990 O -0.04673 0.47688 0.53118
 O991 O 0.02578 0.55552 0.49724
 O992 O 0.02419 0.54782 0.46128
 O993 O 0.05455 0.50255 0.52210
 O994 O 0.04682 0.46603 0.51859
 O995 O 0.00117 0.52641 0.55086
 O996 O -0.03459 0.52521 0.54307
 Zr997 Zr -0.01096 0.52569 0.52101
 O998 O -0.03066 0.50773 0.50290
 Zr999 Zr 0.02498 0.48982 0.52094
 O1000 O 0.00672 0.47013 0.50295
 Zr1001 Zr 0.02484 0.52578 0.48495
 O1002 O 0.00677 0.50771 0.46527
 Zr1003 Zr -0.02434 0.47658 0.50769
 O1004 O -0.00619 0.49453 0.52773
 Zr1005 Zr -0.02429 0.51261 0.47178
 O1006 O -0.00623 0.53255 0.48986
 Zr1007 Zr 0.01159 0.47660 0.47176
 O1008 O 0.03162 0.49471 0.48976
 O1009 O 0.01999 0.52078 0.51599
 O1010 O -0.01951 0.48146 0.47653
 C1011 C 0.01562 0.56419 0.51166
 C1012 C 0.01530 0.51598 0.55965
 C1013 C 0.06332 0.51667 0.51156
 C1014 C -0.01645 0.43889 0.47962
 C1015 C -0.06211 0.48469 0.47984
 C1016 C -0.01638 0.48474 0.43393
 H1017 H -0.04497 0.51117 0.50622
 H1018 H 0.01010 0.51104 0.45090
 H1019 H 0.02868 0.52951 0.52482
 H1020 H 0.00981 0.45573 0.50632
 H1021 H -0.01615 0.45930 0.54227
 H1022 H 0.01793 0.45604 0.54042
 H1023 H -0.01229 0.53482 0.44108
 H1024 H 0.01063 0.55450 0.46199
 H1025 H -0.05531 0.48920 0.52943
 H1026 H -0.03416 0.51152 0.54953
 H1027 H 0.03359 0.48849 0.44087
 H1028 H 0.05337 0.51155 0.46181
 H1029 H -0.03369 0.55460 0.50687
 H1030 H -0.05474 0.53498 0.48396
 H1031 H 0.05441 0.46825 0.50567
 H1032 H 0.03382 0.44605 0.48393
 O1033 O 0.55561 0.02501 0.50456
 O1034 O 0.54848 0.02331 0.46871
 O1035 O 0.50167 0.05433 0.52794
 O1036 O 0.46826 0.04842 0.52901
 O1037 O 0.52662 0.00060 0.55782
 O1038 O 0.52474 -0.03509 0.55045
 O1039 O 0.44765 -0.00155 0.47588
 O1040 O 0.45407 0.03384 0.47897
 O1041 O 0.49978 -0.02711 0.44939
 O1042 O 0.53653 -0.02616 0.45719
 O1043 O 0.47409 -0.05383 0.50154
 O1044 O 0.47505 -0.04631 0.53829
 O1045 O 0.44717 -0.02616 0.50047
 O1046 O 0.45428 -0.02358 0.53828
 O1047 O 0.49876 -0.05426 0.47705
 O1048 O 0.53633 -0.04717 0.47959
 O1049 O 0.47504 -0.00272 0.44904
 O1050 O 0.47818 0.03441 0.45549
 O1051 O 0.55540 0.00030 0.52910
 O1052 O 0.54720 -0.03574 0.52754
 O1053 O 0.50263 0.02578 0.55739
 O1054 O 0.46577 0.02215 0.54920
 O1055 O 0.52707 0.05381 0.50413
 O1056 O 0.52564 0.04585 0.46809
 Zr1057 Zr 0.52601 0.02400 0.49195
 O1058 O 0.50816 0.00586 0.47217
 Zr1059 Zr 0.48989 0.02442 0.52770
 O1060 O 0.47019 0.00671 0.50920
 Zr1061 Zr 0.52553 -0.01177 0.52806
 O1062 O 0.50727 -0.03134 0.51005
 Zr1063 Zr 0.47706 0.01112 0.47810
 O1064 O 0.49491 0.03103 0.49645
 Zr1065 Zr 0.51255 -0.02522 0.47892
 O1066 O 0.53254 -0.00714 0.49694
 Zr1067 Zr 0.47618 -0.02443 0.51444
 O1068 O 0.49444 -0.00668 0.53459
 O1069 O 0.52083 0.01922 0.52296
 O1070 O 0.48145 -0.02000 0.48330
 C1071 C 0.56424 0.01453 0.51881
 C1072 C 0.51623 0.06284 0.51785
 C1073 C 0.51662 0.01520 0.56634
 C1074 C 0.43889 -0.01611 0.48570
 C1075 C 0.48516 -0.01735 0.44067
 C1076 C 0.48398 -0.06256 0.48700
 H1077 H 0.51181 0.00897 0.45782
 H1078 H 0.51036 -0.04570 0.51357
 H1079 H 0.52957 0.02805 0.53166
 H1080 H 0.45581 0.01032 0.51210
 H1081 H 0.46015 0.04594 0.48579
 H1082 H 0.45677 0.04460 0.51992
 H1083 H 0.53384 -0.05640 0.49133
 H1084 H 0.55415 -0.03497 0.51410
 H1085 H 0.49017 0.03194 0.44662
 H1086 H 0.51213 0.05264 0.46868
 H1087 H 0.48765 -0.05461 0.53751
 H1088 H 0.51100 -0.03452 0.55676
 H1089 H 0.55481 0.00958 0.46929
 H1090 H 0.53564 -0.01363 0.44876
 H1091 H 0.46822 0.00961 0.55734
 H1092 H 0.44502 -0.01192 0.53566
 O1093 O 0.49799 0.55668 0.02590
 O1094 O 0.46223 0.54888 0.02472
 O1095 O 0.52289 0.50332 0.05491
 O1096 O 0.52342 0.46966 0.04922
 O1097 O 0.55127 0.52811 0.00063
 O1098 O 0.54311 0.52640 -0.03508
 O1099 O 0.47061 0.44824 -0.00062
 O1100 O 0.47458 0.45450 0.03505
 O1101 O 0.44312 0.49953 -0.02556
 O1102 O 0.45017 0.53691 -0.02402
 O1103 O 0.49473 0.47516 -0.05299
 O1104 O 0.53194 0.47710 -0.04593
 O1105 O 0.49485 0.44825 -0.02555
 O1106 O 0.53222 0.45568 -0.02375
 O1107 O 0.47030 0.49986 -0.05314
 O1108 O 0.47176 0.53703 -0.04586
 O1109 O 0.44336 0.47531 -0.00058
 O1110 O 0.45047 0.47800 0.03611
 O1111 O 0.52253 0.55663 0.00120
 O1112 O 0.52013 0.54888 -0.03488
 O1113 O 0.55150 0.50409 0.02584
 O1114 O 0.54391 0.46746 0.02266
 O1115 O 0.49831 0.52795 0.05488
 O1116 O 0.46239 0.52630 0.04742
 Zr1117 Zr 0.48584 0.52684 0.02516
 O1118 O 0.46611 0.50861 0.00734
 Zr1119 Zr 0.52201 0.49118 0.02506
 O1120 O 0.50371 0.47122 0.00744
 Zr1121 Zr 0.52134 0.52689 -0.01118
 O1122 O 0.50327 0.50848 -0.03056
 Zr1123 Zr 0.47267 0.47757 0.01243
 O1124 O 0.49089 0.49578 0.03213
 Zr1125 Zr 0.47222 0.51323 -0.02389
 O1126 O 0.49026 0.53346 -0.00609
 Zr1127 Zr 0.50828 0.47745 -0.02382
 O1128 O 0.52835 0.49588 -0.00620
 O1129 O 0.51678 0.52206 0.01993
 O1130 O 0.47722 0.48218 -0.01882
 C1131 C 0.51220 0.56540 0.01549
 C1132 C 0.51251 0.51758 0.06364
 C1133 C 0.56012 0.51812 0.01507
 C1134 C 0.48032 0.43973 -0.01543
 C1135 C 0.43473 0.48498 -0.01534
 C1136 C 0.48010 0.48509 -0.06157
 H1137 H 0.45180 0.51199 0.01071
 H1138 H 0.50649 0.51170 -0.04499
 H1139 H 0.52550 0.53089 0.02864
 H1140 H 0.50689 0.45686 0.01092
 H1141 H 0.48127 0.46076 0.04716
 H1142 H 0.51532 0.45759 0.04499
 H1143 H 0.48399 0.53549 -0.05461
 H1144 H 0.50666 0.55569 -0.03376
 H1145 H 0.44192 0.49034 0.03440
 H1146 H 0.46316 0.51278 0.05417
 H1147 H 0.53011 0.48915 -0.05489
 H1148 H 0.54961 0.51274 -0.03466
 H1149 H 0.46245 0.55514 0.01092
 H1150 H 0.44131 0.53509 -0.01188
 H1151 H 0.55137 0.46961 0.00964
 H1152 H 0.53030 0.44669 -0.01172
 O1153 O 0.75298 0.27511 0.44578
 O1154 O 0.71737 0.27395 0.45298
 O1155 O 0.77677 0.30423 0.50019
 O1156 O 0.77752 0.29823 0.53363
 O1157 O 0.80623 0.25082 0.47474
 O1158 O 0.79893 0.21504 0.47646
 O1159 O 0.72457 0.24832 0.55375
 O1160 O 0.72759 0.28368 0.54753
 O1161 O 0.69800 0.22311 0.50109
 O1162 O 0.70601 0.22410 0.46430
 O1163 O 0.75008 0.19601 0.52688
 O1164 O 0.78653 0.20333 0.52632
 O1165 O 0.74906 0.22367 0.55419
 O1166 O 0.78684 0.22617 0.54699
 O1167 O 0.72544 0.19580 0.50229
 O1168 O 0.72821 0.20293 0.46466
 O1169 O 0.69767 0.24738 0.52607
 O1170 O 0.70417 0.28435 0.52337
 O1171 O 0.77782 0.25076 0.44595
 O1172 O 0.77592 0.21459 0.45378
 O1173 O 0.80595 0.27545 0.49939
 O1174 O 0.79755 0.27187 0.53619
 O1175 O 0.75304 0.30396 0.47464
 O1176 O 0.71693 0.29618 0.47609
 Zr1177 Zr 0.74063 0.27422 0.47549
 O1178 O 0.72086 0.25596 0.49312
 Zr1179 Zr 0.77625 0.27429 0.51184
 O1180 O 0.75774 0.25652 0.53135
 Zr1181 Zr 0.77658 0.23837 0.47575
 O1182 O 0.75858 0.21871 0.49387
 Zr1183 Zr 0.72673 0.26106 0.52435
 O1184 O 0.74512 0.28104 0.50673
 Zr1185 Zr 0.72753 0.22487 0.48854
 O1186 O 0.74554 0.24309 0.46871
 Zr1187 Zr 0.76293 0.22542 0.52510
 O1188 O 0.78308 0.24322 0.50699
 O1189 O 0.77155 0.26933 0.48075
 O1190 O 0.73186 0.22993 0.51978
 C1191 C 0.76734 0.26489 0.43713
 C1192 C 0.76680 0.31286 0.48560
 C1193 C 0.81480 0.26517 0.48515
 C1194 C 0.73440 0.23380 0.56252
 C1195 C 0.68926 0.23290 0.51572
 C1196 C 0.73544 0.18739 0.51700
 H1197 H 0.70656 0.25912 0.48941
 H1198 H 0.76208 0.20436 0.49068
 H1199 H 0.78025 0.27818 0.47208
 H1200 H 0.76065 0.26006 0.54579
 H1201 H 0.73440 0.29581 0.54153
 H1202 H 0.76841 0.29439 0.54508
 H1203 H 0.73991 0.19370 0.46716
 H1204 H 0.76252 0.21552 0.44677
 H1205 H 0.69560 0.28222 0.51107
 H1206 H 0.71775 0.30303 0.48960
 H1207 H 0.78617 0.19553 0.51333
 H1208 H 0.80535 0.21567 0.49019
 H1209 H 0.71763 0.26018 0.44667
 H1210 H 0.69750 0.23656 0.46532
 H1211 H 0.80567 0.25934 0.53373
 H1212 H 0.78413 0.23761 0.55653
 O1213 O 0.77738 0.80359 -0.00064
 O1214 O 0.77547 0.79550 0.03497
 O1215 O 0.80567 0.74996 -0.02578
 O1216 O 0.79942 0.71646 -0.02681
 O1217 O 0.75296 0.77645 -0.05490
 O1218 O 0.71710 0.77501 -0.04795
 O1219 O 0.74813 0.69559 0.02502
 O1220 O 0.78377 0.70101 0.02203
 O1221 O 0.72398 0.74751 0.05252
 O1222 O 0.72570 0.78448 0.04562
 O1223 O 0.69690 0.72374 -0.00061
 O1224 O 0.70476 0.72545 -0.03729
 O1225 O 0.72408 0.69608 -0.00016
 O1226 O 0.72685 0.70412 -0.03760
 O1227 O 0.69688 0.74772 0.02463
 O1228 O 0.70471 0.78513 0.02320
 O1229 O 0.74790 0.72231 0.05244
 O1230 O 0.78496 0.72460 0.04622
 O1231 O 0.75307 0.80439 -0.02560
 O1232 O 0.71686 0.79708 -0.02442
 O1233 O 0.77720 0.75151 -0.05507
 O1234 O 0.77323 0.71475 -0.04773
 O1235 O 0.80569 0.77431 -0.00082
 O1236 O 0.79745 0.77223 0.03511
 Zr1237 Zr 0.77578 0.77364 0.01108
 O1238 O 0.75714 0.75570 0.03021
 Zr1239 Zr 0.77567 0.73837 -0.02562
 O1240 O 0.75739 0.71862 -0.00784
 Zr1241 Zr 0.74027 0.77482 -0.02534
 O1242 O 0.72019 0.75657 -0.00798
 Zr1243 Zr 0.76174 0.72463 0.02348
 O1244 O 0.78217 0.74250 0.00581
 Zr1245 Zr 0.72621 0.76094 0.02334
 O1246 O 0.74483 0.78097 0.00600
 Zr1247 Zr 0.72644 0.72546 -0.01318
 O1248 O 0.74474 0.74379 -0.03266
 O1249 O 0.77109 0.76931 -0.02009
 O1250 O 0.73077 0.72983 0.01814
 C1251 C 0.76733 0.81273 -0.01486
 C1252 C 0.81446 0.76396 -0.01506
 C1253 C 0.76718 0.76609 -0.06365
 C1254 C 0.73359 0.68733 0.01466
 C1255 C 0.73347 0.73255 0.06097
 C1256 C 0.68830 0.73343 0.01415
 H1257 H 0.76025 0.75893 0.04467
 H1258 H 0.70593 0.76008 -0.01154
 H1259 H 0.78011 0.77808 -0.02851
 H1260 H 0.76068 0.70422 -0.01109
 H1261 H 0.79612 0.70696 0.01560
 H1262 H 0.79499 0.70455 -0.01861
 H1263 H 0.69565 0.78325 0.01120
 H1264 H 0.71771 0.80366 -0.01078
 H1265 H 0.78291 0.73658 0.05524
 H1266 H 0.80399 0.75862 0.03418
 H1267 H 0.69673 0.73821 -0.03622
 H1268 H 0.71759 0.76149 -0.05476
 H1269 H 0.76187 0.80212 0.03451
 H1270 H 0.73806 0.78302 0.05423
 H1271 H 0.76062 0.71738 -0.05571
 H1272 H 0.73841 0.69465 -0.03529
 O1273 O 1.00082 0.19548 0.22108
 O1274 O 0.96518 0.20306 0.22213
 O1275 O 1.02544 0.24928 0.19225
 O1276 O 1.02600 0.28278 0.19807
 O1277 O 1.05416 0.22415 0.24617
 O1278 O 1.04636 0.22576 0.28193
 O1279 O 0.97325 0.30365 0.24782
 O1280 O 0.97673 0.29734 0.21224
 O1281 O 0.94597 0.25182 0.27281
 O1282 O 0.95336 0.21477 0.27158
 O1283 O 0.99807 0.27659 0.30037
 O1284 O 1.03481 0.27538 0.29315
 O1285 O 0.99754 0.30376 0.27278
 O1286 O 1.03509 0.29642 0.27072
 O1287 O 0.97318 0.25231 0.30034
 O1288 O 0.97533 0.21481 0.29314
 O1289 O 0.94600 0.27633 0.24812
 O1290 O 0.95278 0.27371 0.21141
 O1291 O 1.02545 0.19553 0.24575
 O1292 O 1.02332 0.20327 0.28189
 O1293 O 1.05427 0.24869 0.22147
 O1294 O 1.04617 0.28528 0.22462
 O1295 O 1.00129 0.22419 0.19226
 O1296 O 0.96518 0.22597 0.19967
 Zr1297 Zr 0.98868 0.22526 0.22193
 O1298 O 0.96894 0.24320 0.23996
 Zr1299 Zr 1.02462 0.26119 0.22216
 O1300 O 1.00625 0.28092 0.23982
 Zr1301 Zr 1.02434 0.22526 0.25819
 O1302 O 1.00633 0.24355 0.27771
 Zr1303 Zr 0.97522 0.27429 0.23492
 O1304 O 0.99351 0.25638 0.21509
 Zr1305 Zr 0.97526 0.23862 0.27118
 O1306 O 0.99325 0.21856 0.25317
 Zr1307 Zr 1.01112 0.27463 0.27103
 O1308 O 1.03119 0.25635 0.25335
 O1309 O 1.01961 0.23023 0.22713
 O1310 O 0.98003 0.26972 0.26616
 C1311 C 1.01505 0.18676 0.23146
 C1312 C 1.01534 0.23483 0.18351
 C1313 C 1.06297 0.23455 0.23198
 C1314 C 0.98304 0.31224 0.26255
 C1315 C 0.93745 0.26640 0.26274
 C1316 C 0.98330 0.26688 0.30887
 H1317 H 0.95463 0.23968 0.23664
 H1318 H 1.00967 0.24033 0.29212
 H1319 H 1.02837 0.22149 0.21840
 H1320 H 1.00935 0.29530 0.23634
 H1321 H 0.98336 0.29114 0.20010
 H1322 H 1.01737 0.29453 0.20206
 H1323 H 0.98717 0.21696 0.30234
 H1324 H 1.00980 0.19651 0.28090
 H1325 H 0.94446 0.26120 0.21304
 H1326 H 0.96617 0.23942 0.19277
 H1327 H 1.03376 0.26279 0.30146
 H1328 H 1.05293 0.23940 0.28142
 H1329 H 0.96532 0.19684 0.23595
 H1330 H 0.94474 0.21615 0.25920
 H1331 H 1.05388 0.28307 0.23749
 H1332 H 1.03273 0.30576 0.25904
 O1333 O 0.74976 1.05733 0.72770
 O1334 O 0.78559 1.04962 0.72935
 O1335 O 0.72510 1.00417 0.69848
 O1336 O 0.72468 0.97039 0.70407
 O1337 O 0.69636 1.02890 0.75244
 O1338 O 0.70406 1.02697 0.78825
 O1339 O 0.77689 0.94896 0.75450
 O1340 O 0.77330 0.95514 0.71882
 O1341 O 0.80435 1.00063 0.77944
 O1342 O 0.79716 1.03776 0.77817
 O1343 O 0.75243 0.97590 0.80661
 O1344 O 0.71519 0.97795 0.79925
 O1345 O 0.75209 0.94883 0.77887
 O1346 O 0.71502 0.95645 0.77719
 O1347 O 0.77689 1.00062 0.80693
 O1348 O 0.77534 1.03786 0.79969
 O1349 O 0.80409 0.97591 0.75492
 O1350 O 0.79742 0.97874 0.71798
 O1351 O 0.72544 1.05741 0.75261
 O1352 O 0.72699 1.04940 0.78855
 O1353 O 0.69626 1.00481 0.72726
 O1354 O 0.70376 0.96820 0.73037
 O1355 O 0.74981 1.02870 0.69877
 O1356 O 0.78559 1.02700 0.70653
 Zr1357 Zr 0.76197 1.02754 0.72859
 O1358 O 0.78152 1.00934 0.74656
 Zr1359 Zr 0.72575 0.99190 0.72829
 O1360 O 0.74387 0.97197 0.74608
 Zr1361 Zr 0.72614 1.02756 0.76464
 O1362 O 0.74405 1.00921 0.78415
 Zr1363 Zr 0.77498 0.97828 0.74144
 O1364 O 0.75696 0.99646 0.72156
 Zr1365 Zr 0.77514 1.01401 0.77772
 O1366 O 0.75727 1.03419 0.75981
 Zr1367 Zr 0.73904 0.97818 0.77734
 O1368 O 0.71914 0.99656 0.75952
 O1369 O 0.73098 1.02278 0.73356
 O1370 O 0.77016 0.98293 0.77264
 C1371 C 0.73571 1.06612 0.73830
 C1372 C 0.73559 1.01842 0.68987
 C1373 C 0.68759 1.01889 0.73793
 C1374 C 0.76677 0.94034 0.76899
 C1375 C 0.81273 0.98589 0.76953
 C1376 C 0.76700 0.98589 0.81530
 H1377 H 0.79587 1.01273 0.74331
 H1378 H 0.74072 1.01245 0.79856
 H1379 H 0.72235 1.03164 0.72482
 H1380 H 0.74067 0.95761 0.74255
 H1381 H 0.76674 0.96135 0.70664
 H1382 H 0.73263 0.95829 0.70842
 H1383 H 0.76326 1.03606 0.80861
 H1384 H 0.74056 1.05607 0.78783
 H1385 H 0.80622 0.99087 0.72004
 H1386 H 0.78500 1.01338 0.69992
 H1387 H 0.71708 0.98993 0.80832
 H1388 H 0.69754 1.01331 0.78767
 H1389 H 0.78498 1.05615 0.74302
 H1390 H 0.80579 1.03630 0.76582
 H1391 H 0.69617 0.97035 0.74331
 H1392 H 0.71663 0.94783 0.76484
 O1393 O 0.74899 0.47202 0.30437
 O1394 O 0.71322 0.47368 0.29710
 O1395 O 0.77270 0.44313 0.25032
 O1396 O 0.77219 0.44899 0.21654
 O1397 O 0.80240 0.49610 0.27533
 O1398 O 0.79537 0.53193 0.27393
 O1399 O 0.72049 0.50012 0.19656
 O1400 O 0.72333 0.46450 0.20241
 O1401 O 0.69438 0.52492 0.24935
 O1402 O 0.70233 0.52322 0.28626
 O1403 O 0.74633 0.55168 0.22387
 O1404 O 0.78332 0.54377 0.22492
 O1405 O 0.74527 0.52452 0.19644
 O1406 O 0.78266 0.52189 0.20320
 O1407 O 0.72227 0.55199 0.24897
 O1408 O 0.72463 0.54422 0.28627
 O1409 O 0.69369 0.50084 0.22420
 O1410 O 0.69976 0.46385 0.22643
 O1411 O 0.77399 0.49626 0.30426
 O1412 O 0.77272 0.53233 0.29675
 O1413 O 0.80180 0.47170 0.25045
 O1414 O 0.79330 0.47507 0.21401
 O1415 O 0.74848 0.44333 0.27533
 O1416 O 0.71261 0.45140 0.27405
 Zr1417 Zr 0.73649 0.47320 0.27466
 O1418 O 0.71686 0.49170 0.25711
 Zr1419 Zr 0.77197 0.47299 0.23831
 O1420 O 0.75367 0.49120 0.21893
 Zr1421 Zr 0.77285 0.50874 0.27457
 O1422 O 0.75493 0.52870 0.25674
 Zr1423 Zr 0.72262 0.48689 0.22581
 O1424 O 0.74076 0.46656 0.24336
 Zr1425 Zr 0.72385 0.52266 0.26206
 O1426 O 0.74180 0.50421 0.28169
 Zr1427 Zr 0.75914 0.52223 0.22546
 O1428 O 0.77914 0.50399 0.24330
 O1429 O 0.76745 0.47786 0.26942
 O1430 O 0.72805 0.51791 0.23076
 C1431 C 0.76342 0.48218 0.31306
 C1432 C 0.76246 0.43448 0.26474
 C1433 C 0.81084 0.48187 0.26469
 C1434 C 0.73044 0.51472 0.18800
 C1435 C 0.68550 0.51536 0.23463
 C1436 C 0.73206 0.56041 0.23418
 H1437 H 0.70254 0.48862 0.26077
 H1438 H 0.75857 0.54299 0.26009
 H1439 H 0.77615 0.46896 0.27805
 H1440 H 0.75650 0.48781 0.20444
 H1441 H 0.72985 0.45220 0.20836
 H1442 H 0.76390 0.45349 0.20469
 H1443 H 0.73668 0.55314 0.28420
 H1444 H 0.75934 0.53157 0.30377
 H1445 H 0.69136 0.46579 0.23887
 H1446 H 0.71307 0.44486 0.26037
 H1447 H 0.78209 0.55246 0.23727
 H1448 H 0.80161 0.53144 0.26013
 H1449 H 0.71384 0.48733 0.30365
 H1450 H 0.69352 0.51099 0.28489
 H1451 H 0.80105 0.48792 0.21604
 H1452 H 0.78027 0.51004 0.19407
 O1453 O 0.55502 0.22592 0.74922
 O1454 O 0.54690 0.22727 0.78482
 O1455 O 0.50131 0.19718 0.72401
 O1456 O 0.46793 0.20330 0.72269
 O1457 O 0.52725 0.25080 0.69508
 O1458 O 0.52613 0.28642 0.70269
 O1459 O 0.44691 0.25404 0.77525
 O1460 O 0.45257 0.21840 0.77201
 O1461 O 0.49874 0.27844 0.80293
 O1462 O 0.53556 0.27717 0.79602
 O1463 O 0.47459 0.30558 0.75005
 O1464 O 0.47639 0.29795 0.71322
 O1465 O 0.44719 0.27826 0.75027
 O1466 O 0.45513 0.27574 0.71284
 O1467 O 0.49851 0.30565 0.77535
 O1468 O 0.53616 0.29814 0.77356
 O1469 O 0.47366 0.25435 0.80267
 O1470 O 0.47618 0.21731 0.79617
 O1471 O 0.55555 0.25024 0.72429
 O1472 O 0.54813 0.28642 0.72614
 O1473 O 0.50289 0.22593 0.69486
 O1474 O 0.46606 0.22963 0.70229
 O1475 O 0.52613 0.19731 0.74849
 O1476 O 0.52374 0.20507 0.78461
 Zr1477 Zr 0.52507 0.22705 0.76091
 O1478 O 0.50707 0.24545 0.78026
 Zr1479 Zr 0.48974 0.22716 0.72431
 O1480 O 0.46991 0.24513 0.74231
 Zr1481 Zr 0.52595 0.26291 0.72490
 O1482 O 0.50758 0.28271 0.74245
 Zr1483 Zr 0.47602 0.24064 0.77358
 O1484 O 0.49396 0.22047 0.75566
 Zr1485 Zr 0.51206 0.27649 0.77369
 O1486 O 0.53218 0.25813 0.75617
 Zr1487 Zr 0.47653 0.27617 0.73721
 O1488 O 0.49495 0.25819 0.71755
 O1489 O 0.52065 0.23197 0.72979
 O1490 O 0.48101 0.27169 0.76849
 C1491 C 0.56403 0.23606 0.73499
 C1492 C 0.51558 0.18848 0.73436
 C1493 C 0.51711 0.23646 0.68625
 C1494 C 0.43854 0.26859 0.76502
 C1495 C 0.48382 0.26883 0.81130
 C1496 C 0.48414 0.31414 0.76495
 H1497 H 0.51036 0.24227 0.79469
 H1498 H 0.51096 0.29703 0.73902
 H1499 H 0.52944 0.22311 0.72123
 H1500 H 0.45554 0.24173 0.73906
 H1501 H 0.45859 0.20614 0.76546
 H1502 H 0.45617 0.20740 0.73126
 H1503 H 0.53395 0.30750 0.76187
 H1504 H 0.55476 0.28541 0.73974
 H1505 H 0.48826 0.21932 0.80507
 H1506 H 0.51021 0.19837 0.78349
 H1507 H 0.48886 0.30641 0.71462
 H1508 H 0.51251 0.28617 0.69606
 H1509 H 0.55338 0.24095 0.78460
 H1510 H 0.53436 0.26461 0.80437
 H1511 H 0.46870 0.24223 0.69432
 H1512 H 0.44579 0.26405 0.71504
 O1513 O 0.27789 0.80375 0.49869
 O1514 O 0.27676 0.79640 0.53461
 O1515 O 0.30635 0.74973 0.47443
 O1516 O 0.30031 0.71615 0.47418
 O1517 O 0.25276 0.77507 0.44567
 O1518 O 0.21697 0.77320 0.45341
 O1519 O 0.25062 0.69585 0.52711
 O1520 O 0.28623 0.70196 0.52338
 O1521 O 0.22611 0.74790 0.55426
 O1522 O 0.22780 0.78500 0.54680
 O1523 O 0.19838 0.72307 0.50259
 O1524 O 0.20540 0.72433 0.46546
 O1525 O 0.22572 0.69578 0.50277
 O1526 O 0.22740 0.70286 0.46531
 O1527 O 0.19853 0.74799 0.52691
 O1528 O 0.20625 0.78520 0.52492
 O1529 O 0.25068 0.72333 0.55431
 O1530 O 0.28720 0.72555 0.54742
 O1531 O 0.25281 0.80374 0.47447
 O1532 O 0.21693 0.79594 0.47618
 O1533 O 0.27722 0.75035 0.44560
 O1534 O 0.27382 0.71385 0.45376
 O1535 O 0.30646 0.77500 0.49844
 O1536 O 0.29927 0.77349 0.53458
 Zr1537 Zr 0.27692 0.77407 0.51116
 O1538 O 0.25896 0.75630 0.53111
 Zr1539 Zr 0.27643 0.73793 0.47535
 O1540 O 0.25868 0.71841 0.49390
 Zr1541 Zr 0.24061 0.77397 0.47551
 O1542 O 0.22112 0.75601 0.49381
 Zr1543 Zr 0.26373 0.72512 0.52495
 O1544 O 0.28356 0.74288 0.50650
 Zr1545 Zr 0.22783 0.76109 0.52489
 O1546 O 0.24578 0.78091 0.50661
 Zr1547 Zr 0.22754 0.72486 0.48915
 O1548 O 0.24529 0.74284 0.46885
 O1549 O 0.27160 0.76894 0.48021
 O1550 O 0.23257 0.72991 0.52026
 C1551 C 0.26724 0.81248 0.48461
 C1552 C 0.31513 0.76424 0.48442
 C1553 C 0.26691 0.76462 0.43688
 C1554 C 0.23587 0.68729 0.51732
 C1555 C 0.23612 0.73333 0.56286
 C1556 C 0.18992 0.73328 0.51712
 H1557 H 0.26236 0.75985 0.54543
 H1558 H 0.20675 0.75933 0.49052
 H1559 H 0.28032 0.77763 0.47140
 H1560 H 0.26204 0.70399 0.49084
 H1561 H 0.29838 0.70811 0.51674
 H1562 H 0.29610 0.70435 0.48266
 H1563 H 0.19713 0.78328 0.51297
 H1564 H 0.21776 0.80276 0.48971
 H1565 H 0.28589 0.73827 0.55552
 H1566 H 0.30597 0.75995 0.53377
 H1567 H 0.19692 0.73677 0.46682
 H1568 H 0.21759 0.75955 0.44687
 H1569 H 0.26306 0.80281 0.53429
 H1570 H 0.24011 0.78343 0.55548
 H1571 H 0.26090 0.71604 0.44617
 H1572 H 0.23934 0.69380 0.46732
 O1573 O 0.19606 0.22247 1.00009
 O1574 O 0.20447 0.22392 0.96449
 O1575 O 0.24922 0.19385 1.02591
 O1576 O 0.28282 0.19978 1.02688
 O1577 O 0.22347 0.24739 1.05443
 O1578 O 0.22480 0.28309 1.04679
 O1579 O 0.30442 0.25072 0.97488
 O1580 O 0.29880 0.21498 0.97835
 O1581 O 0.25320 0.27501 0.94689
 O1582 O 0.21599 0.27327 0.95334
 O1583 O 0.27654 0.30220 0.99974
 O1584 O 0.27425 0.29454 1.03676
 O1585 O 0.30394 0.27490 0.99994
 O1586 O 0.29581 0.27268 1.03712
 O1587 O 0.25266 0.30217 0.97440
 O1588 O 0.21527 0.29460 0.97553
 O1589 O 0.27780 0.25047 0.94720
 O1590 O 0.27550 0.21368 0.95389
 O1591 O 0.19540 0.24687 1.02498
 O1592 O 0.20283 0.28296 1.02331
 O1593 O 0.24785 0.22259 1.05485
 O1594 O 0.28455 0.22613 1.04781
 O1595 O 0.22503 0.19383 1.00080
 O1596 O 0.22741 0.20162 0.96484
 Zr1597 Zr 0.22610 0.22361 0.98858
 O1598 O 0.24435 0.24189 0.96938
 Zr1599 Zr 0.26113 0.22374 1.02548
 O1600 O 0.28114 0.24175 1.00771
 Zr1601 Zr 0.22502 0.25950 1.02462
 O1602 O 0.24349 0.27928 1.00716
 Zr1603 Zr 0.27534 0.23713 0.97639
 O1604 O 0.25715 0.21699 0.99410
 Zr1605 Zr 0.23931 0.27294 0.97587
 O1606 O 0.21902 0.25468 0.99329
 Zr1607 Zr 0.27449 0.27282 1.01268
 O1608 O 0.25594 0.25480 1.03219
 O1609 O 0.23028 0.22856 1.01974
 O1610 O 0.27031 0.26819 0.98138
 C1611 C 0.18697 0.23266 1.01424
 C1612 C 0.23520 0.18508 1.01520
 C1613 C 0.23357 0.23310 1.06335
 C1614 C 0.31270 0.26529 0.98521
 C1615 C 0.26799 0.26512 0.93856
 C1616 C 0.26698 0.31073 0.98484
 H1617 H 0.24121 0.23866 0.95493
 H1618 H 0.24006 0.29360 1.01053
 H1619 H 0.22139 0.21973 1.02823
 H1620 H 0.29548 0.23840 1.01110
 H1621 H 0.29270 0.20271 0.98481
 H1622 H 0.29496 0.20422 1.01903
 H1623 H 0.21701 0.30367 0.98754
 H1624 H 0.19638 0.28204 1.00961
 H1625 H 0.26329 0.21535 0.94511
 H1626 H 0.24094 0.19494 0.96594
 H1627 H 0.26201 0.30323 1.03499
 H1628 H 0.23832 0.28275 1.05361
 H1629 H 0.19806 0.23763 0.96469
 H1630 H 0.21776 0.26104 0.94459
 H1631 H 0.28210 0.23894 1.05551
 H1632 H 0.30489 0.26074 1.03526
 C1633 C 0.28833 0.37781 0.78838
 C1634 C 0.27092 0.38667 0.79468
 C1635 C 0.26364 0.40694 0.78763
 C1636 C 0.27100 0.41694 0.77128
 H1637 H 0.26169 0.37930 0.80622
 H1638 H 0.25158 0.41387 0.79663
 H1639 H 0.29782 0.38524 0.77708
 H1640 H 0.28263 0.41014 0.76172
 C1641 C 0.28832 -0.12301 0.28999
 C1642 C 0.29632 -0.11187 0.27462
 C1643 C 0.28875 -0.09155 0.26798
 C1644 C 0.27306 -0.08143 0.27651
 H1645 H 0.30947 -0.11741 0.26633
 H1646 H 0.29712 -0.08444 0.25557
 H1647 H 0.27503 -0.11745 0.29805
 H1648 H 0.26443 -0.08800 0.28896
 C1649 C 0.78794 0.87827 0.78963
 C1650 C 0.79562 0.88896 0.77379
 C1651 C 0.78853 0.90952 0.76736
 C1652 C 0.77231 0.91938 0.77516
 H1653 H 0.80828 0.88293 0.76508
 H1654 H 0.79756 0.91693 0.75560
 H1655 H 0.77538 0.88452 0.79835
 H1656 H 0.76286 0.91237 0.78675
 C1657 C 0.46314 0.87518 0.28923
 C1658 C 0.45579 0.86517 0.27275
 C1659 C 0.46325 0.84501 0.26550
 C1660 C 0.48008 0.83554 0.27246
 H1661 H 0.44303 0.87134 0.26427
 H1662 H 0.45398 0.83755 0.25392
 H1663 H 0.47573 0.86870 0.29775
 H1664 H 0.48983 0.84270 0.28374
 C1665 C -0.03970 0.87322 0.78691
 C1666 C -0.02359 0.86260 0.79407
 C1667 C -0.01726 0.84214 0.78664
 C1668 C -0.02543 0.83234 0.77050
 H1669 H -0.01453 0.86860 0.80654
 H1670 H -0.00518 0.83480 0.79529
 H1671 H -0.04876 0.86699 0.77453
 H1672 H -0.03730 0.83931 0.76137
 C1673 C -0.03473 -0.12735 -0.03840
 C1674 C -0.04093 -0.11822 -0.02104
 C1675 C -0.03435 -0.09759 -0.01433
 C1676 C -0.01827 -0.08745 -0.02205
 H1677 H -0.05216 -0.12561 -0.01144
 H1678 H -0.04346 -0.09048 -0.00245
 H1679 H -0.02380 -0.11986 -0.04827
 H1680 H -0.00858 -0.09446 -0.03346
 C1681 C -0.03893 0.37796 0.45709
 C1682 C -0.04596 0.38799 0.47367
 C1683 C -0.03877 0.40842 0.48045
 C1684 C -0.02218 0.41805 0.47315
 H1685 H -0.05820 0.38157 0.48269
 H1686 H -0.04789 0.41582 0.49215
 H1687 H -0.02695 0.38476 0.44796
 H1688 H -0.01256 0.41091 0.46178
 C1689 C 0.46359 -0.12489 0.46583
 C1690 C 0.47932 -0.11403 0.45819
 C1691 C 0.48604 -0.09372 0.46575
 C1692 C 0.47747 -0.08341 0.48132
 H1693 H 0.48783 -0.11976 0.44525
 H1694 H 0.49856 -0.08678 0.45743
 H1695 H 0.45530 -0.11913 0.47892
 H1696 H 0.46496 -0.08984 0.48995
 C1697 C 0.45885 0.37824 -0.03785
 C1698 C 0.47470 0.38899 -0.04540
 C1699 C 0.48148 0.40925 -0.03775
 C1700 C 0.47387 0.41889 -0.02125
 H1701 H 0.48315 0.38325 -0.05839
 H1702 H 0.49330 0.41668 -0.04667
 H1703 H 0.45045 0.38416 -0.02490
 H1704 H 0.46219 0.41189 -0.01193
 C1705 C 0.78783 0.37457 0.46484
 C1706 C 0.77065 0.36517 0.45856
 C1707 C 0.76438 0.34437 0.46493
 C1708 C 0.77230 0.33421 0.48092
 H1709 H 0.76092 0.37246 0.44737
 H1710 H 0.75263 0.33714 0.45571
 H1711 H 0.79782 0.36720 0.47576
 H1712 H 0.78355 0.34133 0.49076
 C1713 C 0.78816 0.87531 -0.03423
 C1714 C 0.77205 0.86503 -0.04196
 C1715 C 0.76536 0.84444 -0.03523
 C1716 C 0.77335 0.83396 -0.01946
 H1717 H 0.76341 0.87136 -0.05455
 H1718 H 0.75340 0.83744 -0.04436
 H1719 H 0.79669 0.86884 -0.02162
 H1720 H 0.78513 0.84055 -0.00992
 C1721 C 0.78799 0.28642 0.37552
 C1722 C 0.79496 0.26962 0.38507
 C1723 C 0.78857 0.26312 0.40586
 C1724 C 0.77226 0.27053 0.41585
 H1725 H 0.80658 0.26035 0.37787
 H1726 H 0.79803 0.25168 0.41322
 H1727 H 0.77664 0.29596 0.38278
 H1728 H 0.76227 0.28154 0.40864
 C1729 C 0.78778 0.78777 -0.12564
 C1730 C 0.77204 0.79542 -0.11482
 C1731 C 0.76537 0.78787 -0.09447
 C1732 C 0.77322 0.77160 -0.08470
 H1733 H 0.76366 0.80845 -0.12052
 H1734 H 0.75357 0.79678 -0.08702
 H1735 H 0.79605 0.77472 -0.11982
 H1736 H 0.78491 0.76229 -0.09170
 C1737 C 0.28506 0.46039 0.87367
 C1738 C 0.29123 0.47762 0.86434
 C1739 C 0.28424 0.48437 0.84384
 C1740 C 0.26849 0.47616 0.83350
 H1741 H 0.30261 0.48720 0.87155
 H1742 H 0.29279 0.49680 0.83701
 H1743 H 0.27384 0.45061 0.86649
 H1744 H 0.25936 0.46410 0.84013
 C1745 C 0.28990 -0.03631 0.37680
 C1746 C 0.27363 -0.04369 0.36652
 C1747 C 0.26661 -0.03636 0.34620
 C1748 C 0.27422 -0.02013 0.33620
 H1749 H 0.26499 -0.05634 0.37267
 H1750 H 0.25456 -0.04527 0.33908
 H1751 H 0.29851 -0.02372 0.37045
 H1752 H 0.28607 -0.01078 0.34295
 C1753 C -0.03513 -0.03812 -0.12528
 C1754 C -0.01893 -0.04592 -0.11525
 C1755 C -0.01189 -0.03911 -0.09473
 C1756 C -0.01923 -0.02284 -0.08458
 H1757 H -0.01059 -0.05865 -0.12164
 H1758 H -0.00034 -0.04854 -0.08751
 H1759 H -0.04343 -0.02545 -0.11869
 H1760 H -0.03054 -0.01296 -0.09143
 C1761 C -0.03791 0.46329 0.37218
 C1762 C -0.02182 0.45573 0.38258
 C1763 C -0.01497 0.46299 0.40301
 C1764 C -0.02275 0.47915 0.41300
 H1765 H -0.01325 0.44302 0.37646
 H1766 H -0.00301 0.45410 0.41023
 H1767 H -0.04643 0.47596 0.37848
 H1768 H -0.03453 0.48849 0.40617
 C1769 C 0.46303 -0.03975 0.37953
 C1770 C 0.45664 -0.02271 0.38907
 C1771 C 0.46364 -0.01594 0.40959
 C1772 C 0.47963 -0.02386 0.41975
 H1773 H 0.44508 -0.01326 0.38199
 H1774 H 0.45491 -0.00372 0.41658
 H1775 H 0.47444 -0.04940 0.38658
 H1776 H 0.48891 -0.03571 0.41295
 C1777 C 0.45792 0.46219 -0.12251
 C1778 C 0.47435 0.45513 -0.11230
 C1779 C 0.48116 0.46263 -0.09196
 C1780 C 0.47368 0.47919 -0.08239
 H1781 H 0.48320 0.44265 -0.11849
 H1782 H 0.49294 0.45368 -0.08451
 H1783 H 0.44901 0.47449 -0.11601
 H1784 H 0.46216 0.48863 -0.08953
 C1785 C 0.46494 0.79072 0.37383
 C1786 C 0.45831 0.77398 0.36390
 C1787 C 0.46515 0.76763 0.34322
 C1788 C 0.48096 0.77585 0.33302
 H1789 H 0.44671 0.76445 0.37078
 H1790 H 0.45644 0.75542 0.33614
 H1791 H 0.47640 0.80044 0.36698
 H1792 H 0.49021 0.78774 0.33985
 C1793 C -0.03869 0.78471 0.87282
 C1794 C -0.02316 0.79268 0.86190
 C1795 C -0.01684 0.78574 0.84121
 C1796 C -0.02516 0.77006 0.83083
 H1797 H -0.01451 0.80542 0.86791
 H1798 H -0.00471 0.79452 0.83413
 H1799 H -0.04723 0.77194 0.86669
 H1800 H -0.03723 0.76094 0.83743
 C1801 C 0.37923 0.79161 0.28879
 C1802 C 0.38871 0.77454 0.29516
 C1803 C 0.40924 0.76796 0.28823
 C1804 C 0.41911 0.77570 0.27198
 H1805 H 0.38160 0.76498 0.30660
 H1806 H 0.41642 0.75597 0.29714
 H1807 H 0.38643 0.80144 0.27763
 H1808 H 0.41207 0.78725 0.26249
 C1809 C -0.12487 0.78771 0.78690
 C1810 C -0.11542 0.79429 0.76988
 C1811 C -0.09511 0.78709 0.76289
 C1812 C -0.08524 0.77075 0.77044
 H1813 H -0.12234 0.80618 0.76074
 H1814 H -0.08799 0.79605 0.75091
 H1815 H -0.11796 0.77597 0.79625
 H1816 H -0.09218 0.76123 0.78203
 C1817 C 0.87528 0.28769 0.46268
 C1818 C 0.86622 0.27023 0.45670
 C1819 C 0.84591 0.26327 0.46388
 C1820 C 0.83592 0.27110 0.48004
 H1821 H 0.87336 0.26083 0.44512
 H1822 H 0.83879 0.25122 0.45497
 H1823 H 0.86812 0.29731 0.47406
 H1824 H 0.84289 0.28273 0.48953
 C1825 C 0.87638 0.78433 -0.03582
 C1826 C 0.86668 0.76742 -0.04233
 C1827 C 0.84597 0.76115 -0.03564
 C1828 C 0.83585 0.76930 -0.01972
 H1829 H 0.87364 0.75794 -0.05395
 H1830 H 0.83868 0.74934 -0.04473
 H1831 H 0.86947 0.79400 -0.02433
 H1832 H 0.84293 0.78072 -0.01006
 C1833 C -0.12330 -0.03807 -0.03607
 C1834 C -0.11294 -0.04569 -0.01996
 C1835 C -0.09223 -0.03898 -0.01354
 C1836 C -0.08228 -0.02263 -0.02099
 H1837 H -0.11924 -0.05819 -0.01120
 H1838 H -0.08477 -0.04847 -0.00218
 H1839 H -0.11672 -0.02571 -0.04485
 H1840 H -0.08942 -0.01266 -0.03206
 C1841 C -0.12481 0.46369 0.46053
 C1842 C -0.11368 0.45597 0.47606
 C1843 C -0.09308 0.46323 0.48217
 C1844 C -0.08307 0.47905 0.47369
 H1845 H -0.11944 0.44323 0.48484
 H1846 H -0.08574 0.45462 0.49428
 H1847 H -0.11892 0.47645 0.45184
 H1848 H -0.08994 0.48804 0.46165
 C1849 C 0.37717 -0.03718 0.46376
 C1850 C 0.38750 -0.04481 0.47989
 C1851 C 0.40788 -0.03765 0.48686
 C1852 C 0.41805 -0.02162 0.47907
 H1853 H 0.38130 -0.05749 0.48846
 H1854 H 0.41490 -0.04651 0.49899
 H1855 H 0.38353 -0.02454 0.45524
 H1856 H 0.41144 -0.01235 0.46709
 C1857 C 0.37389 0.46197 -0.03727
 C1858 C 0.38381 0.47842 -0.04469
 C1859 C 0.40407 0.48561 -0.03743
 C1860 C 0.41391 0.47838 -0.02090
 H1861 H 0.37746 0.48695 -0.05733
 H1862 H 0.41126 0.49739 -0.04659
 H1863 H 0.38050 0.45342 -0.02477
 H1864 H 0.40704 0.46688 -0.01125
 C1865 C 0.36965 0.46124 0.79054
 C1866 C 0.36056 0.45509 0.77313
 C1867 C 0.34015 0.46206 0.76617
 C1868 C 0.33018 0.47828 0.77384
 H1869 H 0.36790 0.44377 0.76358
 H1870 H 0.33313 0.45320 0.75402
 H1871 H 0.36223 0.47228 0.80035
 H1872 H 0.33709 0.48773 0.78555
 C1873 C 0.37356 -0.03668 0.29122
 C1874 C 0.36403 -0.04298 0.27411
 C1875 C 0.34352 -0.03598 0.26752
 C1876 C 0.33363 -0.01980 0.27540
 H1877 H 0.37102 -0.05453 0.26458
 H1878 H 0.33629 -0.04487 0.25551
 H1879 H 0.36650 -0.02538 0.30101
 H1880 H 0.34070 -0.01033 0.28699
 C1881 C 0.12255 0.53632 0.71355
 C1882 C 0.13216 0.51936 0.70707
 C1883 C 0.15283 0.51303 0.71384
 C1884 C 0.16279 0.52092 0.73001
 H1885 H 0.12515 0.50987 0.69547
 H1886 H 0.16016 0.50131 0.70469
 H1887 H 0.12960 0.54605 0.72494
 H1888 H 0.15561 0.53219 0.73973
 C1889 C 0.12543 0.03679 0.21609
 C1890 C 0.13493 0.01957 0.21020
 C1891 C 0.15552 0.01326 0.21726
 C1892 C 0.16555 0.02153 0.23321
 H1893 H 0.12792 0.00981 0.19883
 H1894 H 0.16278 0.00124 0.20846
 H1895 H 0.13245 0.04675 0.22729
 H1896 H 0.15845 0.03312 0.24262
 C1897 C 0.62530 0.71353 0.21203
 C1898 C 0.61620 0.70763 0.22948
 C1899 C 0.59578 0.71472 0.23623
 C1900 C 0.58590 0.73088 0.22833
 H1901 H 0.62342 0.69628 0.23909
 H1902 H 0.58858 0.70586 0.24824
 H1903 H 0.61802 0.72463 0.20218
 H1904 H 0.59299 0.74033 0.21678
 C1905 C 0.12328 0.71488 0.71123
 C1906 C 0.11364 0.70849 0.72822
 C1907 C 0.09282 0.71494 0.73437
 C1908 C 0.08259 0.73076 0.72624
 H1909 H 0.12076 0.69720 0.73795
 H1910 H 0.08564 0.70586 0.74622
 H1911 H 0.11614 0.72599 0.70128
 H1912 H 0.08962 0.74042 0.71482
 C1913 C 0.62728 0.21189 0.53618
 C1914 C 0.63708 0.22864 0.54299
 C1915 C 0.65784 0.23495 0.53651
 C1916 C 0.66824 0.22666 0.52086
 H1917 H 0.62999 0.23820 0.55446
 H1918 H 0.66479 0.24717 0.54532
 H1919 H 0.63432 0.20213 0.52486
 H1920 H 0.66153 0.21480 0.51149
 C1921 C 0.62633 0.71251 0.03512
 C1922 C 0.63633 0.72913 0.04196
 C1923 C 0.65704 0.73543 0.03525
 C1924 C 0.66723 0.72731 0.01936
 H1925 H 0.62950 0.73856 0.05369
 H1926 H 0.66418 0.74747 0.04416
 H1927 H 0.63312 0.70289 0.02352
 H1928 H 0.66033 0.71561 0.00992
 C1929 C 0.12564 0.03451 0.03890
 C1930 C 0.11624 0.04085 0.02174
 C1931 C 0.09568 0.03400 0.01508
 C1932 C 0.08566 0.01787 0.02288
 H1933 H 0.12341 0.05227 0.01221
 H1934 H 0.08856 0.04291 0.00305
 H1935 H 0.11840 0.02334 0.04869
 H1936 H 0.09264 0.00836 0.03446
 C1937 C 0.12483 0.53750 0.53345
 C1938 C 0.11523 0.52040 0.53955
 C1939 C 0.09459 0.51411 0.53261
 C1940 C 0.08454 0.52233 0.51667
 H1941 H 0.12225 0.51071 0.55096
 H1942 H 0.08735 0.50211 0.54144
 H1943 H 0.11781 0.54740 0.52223
 H1944 H 0.09161 0.53391 0.50725
 C1945 C 0.62602 0.03586 0.53947
 C1946 C 0.61635 0.04211 0.52244
 C1947 C 0.59569 0.03524 0.51613
 C1948 C 0.58549 0.01949 0.52449
 H1949 H 0.62333 0.05358 0.51281
 H1950 H 0.58852 0.04402 0.50403
 H1951 H 0.61907 0.02454 0.54929
 H1952 H 0.59244 0.01013 0.53622
 C1953 C 0.62173 0.53936 0.03617
 C1954 C 0.61227 0.52226 0.04248
 C1955 C 0.59159 0.51584 0.03580
 C1956 C 0.58136 0.52390 0.01990
 H1957 H 0.61944 0.51266 0.05386
 H1958 H 0.58449 0.50388 0.04480
 H1959 H 0.61457 0.54916 0.02495
 H1960 H 0.58830 0.53543 0.01031
 C1961 C 0.03992 0.03407 0.12492
 C1962 C 0.02421 0.04157 0.11392
 C1963 C 0.01767 0.03401 0.09350
 C1964 C 0.02579 0.01800 0.08350
 H1965 H 0.01557 0.05443 0.11960
 H1966 H 0.00554 0.04266 0.08624
 H1967 H 0.04843 0.02116 0.11911
 H1968 H 0.03784 0.00898 0.09030
 C1969 C 0.03554 0.53693 0.62162
 C1970 C 0.04215 0.51989 0.61223
 C1971 C 0.03597 0.51360 0.59129
 C1972 C 0.01997 0.52140 0.58106
 H1973 H 0.05336 0.51029 0.61966
 H1974 H 0.04530 0.50199 0.58404
 H1975 H 0.02465 0.54681 0.61410
 H1976 H 0.01007 0.53255 0.58818
 C1977 C 0.53751 0.03676 0.62837
 C1978 C 0.52136 0.04408 0.61788
 C1979 C 0.51483 0.03687 0.59732
 C1980 C 0.52241 0.02047 0.58756
 H1981 H 0.51260 0.05668 0.62395
 H1982 H 0.50329 0.04606 0.58977
 H1983 H 0.54627 0.02425 0.62205
 H1984 H 0.53369 0.01081 0.59478
 C1985 C 0.53348 0.53826 0.12556
 C1986 C 0.53991 0.52129 0.11593
 C1987 C 0.53327 0.51498 0.09515
 C1988 C 0.51743 0.52315 0.08496
 H1989 H 0.55135 0.51172 0.12303
 H1990 H 0.54223 0.50307 0.08793
 H1991 H 0.52223 0.54805 0.11847
 H1992 H 0.50790 0.53466 0.09199
 C1993 C 0.21218 0.53697 0.62532
 C1994 C 0.20565 0.51983 0.63456
 C1995 C 0.21192 0.51341 0.65541
 C1996 C 0.22774 0.52140 0.66583
 H1997 H 0.19448 0.51023 0.62704
 H1998 H 0.20276 0.50154 0.66245
 H1999 H 0.22309 0.54683 0.63289
 H2000 H 0.23748 0.53284 0.65896
 C2001 C 0.21323 0.03571 0.12760
 C2002 C 0.23023 0.04230 0.13710
 C2003 C 0.23654 0.03601 0.15799
 C2004 C 0.22849 0.02025 0.16840
 H2005 H 0.23983 0.05356 0.12978
 H2006 H 0.24845 0.04514 0.16506
 H2007 H 0.20339 0.02467 0.13495
 H2008 H 0.21701 0.01054 0.16151
 C2009 C 0.71293 0.21373 0.62452
 C2010 C 0.72961 0.20664 0.61485
 C2011 C 0.73609 0.21292 0.59403
 C2012 C 0.72805 0.22861 0.58352
 H2013 H 0.73899 0.19514 0.62211
 H2014 H 0.74823 0.20399 0.58715
 H2015 H 0.70332 0.22503 0.61727
 H2016 H 0.71627 0.23807 0.59016
 C2017 C 0.71123 0.71058 0.12202
 C2018 C 0.72785 0.70359 0.11222
 C2019 C 0.73452 0.71052 0.09167
 C2020 C 0.72696 0.72686 0.08180
 H2021 H 0.73700 0.69169 0.11911
 H2022 H 0.74637 0.70150 0.08444
 H2023 H 0.70185 0.72229 0.11513
 H2024 H 0.71548 0.73643 0.08881
 C2025 C 0.53685 0.71497 0.12461
 C2026 C 0.54373 0.73187 0.13409
 C2027 C 0.53731 0.73851 0.15484
 C2028 C 0.52130 0.73080 0.16512
 H2029 H 0.55535 0.74113 0.12686
 H2030 H 0.54658 0.75027 0.16196
 H2031 H 0.52541 0.70549 0.13183
 H2032 H 0.51149 0.71943 0.15820
 C2033 C 0.03651 0.71508 0.62253
 C2034 C 0.01898 0.70901 0.63132
 C2035 C 0.01215 0.71551 0.65196
 C2036 C 0.01993 0.73141 0.66239
 H2037 H 0.00940 0.69789 0.62370
 H2038 H 0.00016 0.70638 0.65885
 H2039 H 0.04633 0.72593 0.63024
 H2040 H 0.03142 0.74115 0.65560
 C2041 C 0.53710 0.62701 0.21433
 C2042 C 0.52004 0.63650 0.20796
 C2043 C 0.51390 0.65737 0.21433
 C2044 C 0.52201 0.66759 0.23023
 H2045 H 0.51027 0.62921 0.19677
 H2046 H 0.50211 0.66459 0.20519
 H2047 H 0.54712 0.63435 0.22527
 H2048 H 0.53334 0.66051 0.23996
 C2049 C 0.03420 0.62521 0.70962
 C2050 C 0.04055 0.63474 0.72672
 C2051 C 0.03408 0.65553 0.73300
 C2052 C 0.01825 0.66577 0.72486
 H2053 H 0.05177 0.62752 0.73647
 H2054 H 0.04307 0.66266 0.74499
 H2055 H 0.02322 0.63247 0.69963
 H2056 H 0.00867 0.65880 0.71331
 C2057 C 0.04007 0.12042 0.03789
 C2058 C 0.02336 0.11068 0.04481
 C2059 C 0.01719 0.08978 0.03852
 C2060 C 0.02511 0.07964 0.02252
 H2061 H 0.01374 0.11792 0.05612
 H2062 H 0.00532 0.08261 0.04758
 H2063 H 0.04999 0.11310 0.02689
 H2064 H 0.03656 0.08663 0.01288
 C2065 C 0.03754 0.62524 0.53334
 C2066 C 0.02014 0.61617 0.53939
 C2067 C 0.01354 0.59551 0.53275
 C2068 C 0.02132 0.58543 0.51664
 H2069 H 0.01049 0.62358 0.55057
 H2070 H 0.00172 0.58834 0.54187
 H2071 H 0.04747 0.61769 0.52249
 H2072 H 0.03264 0.59253 0.50691
 C2073 C 0.53663 0.12514 0.53761
 C2074 C 0.54343 0.11515 0.52098
 C2075 C 0.53698 0.09425 0.51504
 C2076 C 0.52098 0.08424 0.52309
 H2077 H 0.55502 0.12205 0.51146
 H2078 H 0.54622 0.08679 0.50348
 H2079 H 0.52521 0.11825 0.54737
 H2080 H 0.51117 0.09151 0.53422
 C2081 C 0.53431 0.62681 0.03652
 C2082 C 0.54038 0.61721 0.01938
 C2083 C 0.53331 0.59663 0.01296
 C2084 C 0.51734 0.58664 0.02113
 H2085 H 0.55185 0.62418 0.00975
 H2086 H 0.54211 0.58935 0.00095
 H2087 H 0.52300 0.61986 0.04636
 H2088 H 0.50797 0.59374 0.03275
 C2089 C 0.71380 0.12604 0.53921
 C2090 C 0.70628 0.13622 0.52294
 C2091 C 0.71347 0.15661 0.51599
 C2092 C 0.72983 0.16653 0.52349
 H2093 H 0.69368 0.12992 0.51429
 H2094 H 0.70442 0.16381 0.50411
 H2095 H 0.72628 0.13259 0.54788
 H2096 H 0.73934 0.15968 0.53515
 C2097 C 0.71038 0.62681 0.03694
 C2098 C 0.72744 0.63616 0.04354
 C2099 C 0.73445 0.65652 0.03647
 C2100 C 0.72693 0.66650 0.02015
 H2101 H 0.73664 0.62908 0.05531
 H2102 H 0.74648 0.66355 0.04547
 H2103 H 0.70095 0.63391 0.02536
 H2104 H 0.71528 0.65966 0.01060
 C2105 C 0.21090 0.62527 0.71511
 C2106 C 0.22796 0.61568 0.70891
 C2107 C 0.23421 0.59495 0.71557
 C2108 C 0.22577 0.58455 0.73115
 H2109 H 0.23770 0.62282 0.69764
 H2110 H 0.24639 0.58793 0.70681
 H2111 H 0.20098 0.61818 0.72627
 H2112 H 0.21398 0.59137 0.74049
 C2113 C 0.21382 0.12583 0.21595
 C2114 C 0.23075 0.11619 0.20947
 C2115 C 0.23701 0.09547 0.21614
 C2116 C 0.22887 0.08536 0.23205
 H2117 H 0.24032 0.12326 0.19801
 H2118 H 0.24891 0.08824 0.20717
 H2119 H 0.20402 0.11875 0.22720
 H2120 H 0.21739 0.09241 0.24161
 C2121 C 0.71477 1.12769 0.71714
 C2122 C 0.73178 1.11815 0.71072
 C2123 C 0.73820 1.09750 0.71746
 C2124 C 0.73020 1.08742 0.73345
 H2125 H 0.74125 1.12521 0.69917
 H2126 H 0.75002 1.09026 0.70839
 H2127 H 0.70509 1.12065 0.72852
 H2128 H 0.71880 1.09449 0.74309
 C2129 C 0.71104 0.62195 0.21255
 C2130 C 0.72752 0.61189 0.20556
 C2131 C 0.73388 0.59127 0.21249
 C2132 C 0.72606 0.58143 0.22873
 H2133 H 0.73672 0.61857 0.19358
 H2134 H 0.74564 0.58390 0.20345
 H2135 H 0.70163 0.61529 0.22438
 H2136 H 0.71465 0.58855 0.23830
 C2137 C 0.53557 0.12566 0.71483
 C2138 C 0.54324 0.13638 0.73071
 C2139 C 0.53632 0.15705 0.73700
 C2140 C 0.52042 0.16715 0.72885
 H2141 H 0.55589 0.13037 0.73946
 H2142 H 0.54541 0.16444 0.74876
 H2143 H 0.52290 0.13180 0.70617
 H2144 H 0.51092 0.16016 0.71724
 C2145 C 1.03639 0.12499 0.21070
 C2146 C 1.04256 0.13463 0.22783
 C2147 C 1.03588 0.15537 0.23406
 C2148 C 1.02004 0.16550 0.22583
 H2149 H 1.05381 0.12754 0.23763
 H2150 H 1.04477 0.16260 0.24607
 H2151 H 1.02535 0.13211 0.20066
 H2152 H 1.01058 0.15844 0.21422
 C2153 C 0.21387 0.62586 0.53840
 C2154 C 0.20746 0.63568 0.52153
 C2155 C 0.21442 0.65631 0.51526
 C2156 C 0.23029 0.66638 0.52357
 H2157 H 0.19597 0.62876 0.51185
 H2158 H 0.20579 0.66343 0.50302
 H2159 H 0.22517 0.63278 0.54830
 H2160 H 0.23950 0.65947 0.53544
 C2161 C 0.21419 0.12342 1.03625
 C2162 C 0.23117 0.13300 1.04275
 C2163 C 0.23756 0.15370 1.03607
 C2164 C 0.22963 0.16378 1.02001
 H2165 H 0.24064 0.12595 1.05432
 H2166 H 0.24933 0.16097 1.04523
 H2167 H 0.20449 0.13048 1.02487
 H2168 H 0.21827 0.15668 1.01029
 C2169 C 0.21399 0.71204 0.62431
 C2170 C 0.20754 0.72887 0.61446
 C2171 C 0.21462 0.73533 0.59388
 C2172 C 0.23056 0.72717 0.58385
 H2173 H 0.19588 0.73836 0.62129
 H2174 H 0.20596 0.74749 0.58671
 H2175 H 0.22552 0.70236 0.61752
 H2176 H 0.23976 0.71535 0.59080
 C2177 C 0.21372 0.21375 1.12626
 C2178 C 0.22961 0.20595 1.11578
 C2179 C 0.23592 0.21258 1.09501
 C2180 C 0.22766 0.22822 1.08457
 H2181 H 0.23839 0.19349 1.12212
 H2182 H 0.24790 0.20362 1.08790
 H2183 H 0.20500 0.22618 1.11977
 H2184 H 0.21585 0.23762 1.09124
 C2185 C 0.70869 0.53730 0.12685
 C2186 C 0.72549 0.54384 0.13672
 C2187 C 0.73208 0.53660 0.15722
 C2188 C 0.72399 0.52056 0.16716
 H2189 H 0.73487 0.55563 0.12994
 H2190 H 0.74432 0.54520 0.16438
 H2191 H 0.69910 0.52568 0.13361
 H2192 H 0.71205 0.51144 0.16026
 C2193 C 0.71480 1.03970 0.62807
 C2194 C 0.70849 1.02254 0.63745
 C2195 C 0.71494 1.01613 0.65825
 C2196 C 0.73080 1.02414 0.66856
 H2197 H 0.69728 1.01285 0.63011
 H2198 H 0.70588 1.00421 0.66533
 H2199 H 0.72578 1.04963 0.63545
 H2200 H 0.74044 1.03563 0.66162
 C2201 C 0.53829 0.21562 0.62451
 C2202 C 0.52116 0.20927 0.63390
 C2203 C 0.51475 0.21581 0.65465
 C2204 C 0.52292 0.23156 0.66501
 H2205 H 0.51151 0.19800 0.62660
 H2206 H 0.50269 0.20689 0.66168
 H2207 H 0.54816 0.22670 0.63181
 H2208 H 0.53455 0.24108 0.65815
 C2209 C 1.03538 0.21456 0.12092
 C2210 C 1.01963 0.20674 0.13162
 C2211 C 1.01295 0.21398 0.15207
 C2212 C 1.02110 0.22986 0.16227
 H2213 H 1.01132 0.19370 0.12580
 H2214 H 1.00102 0.20505 0.15930
 H2215 H 1.04349 0.22773 0.12677
 H2216 H 1.03292 0.23916 0.15549
 C2217 C 0.62609 0.21494 0.71517
 C2218 C 0.61645 0.23166 0.70817
 C2219 C 0.59571 0.23817 0.71456
 C2220 C 0.58530 0.23026 0.73040
 H2221 H 0.62357 0.24092 0.69647
 H2222 H 0.58869 0.25003 0.70536
 H2223 H 0.61905 0.20551 0.72677
 H2224 H 0.59209 0.21876 0.74012
 C2225 C 1.12521 0.21430 0.21224
 C2226 C 1.11544 0.20773 0.22909
 C2227 C 1.09451 0.21405 0.23501
 C2228 C 1.08430 0.22976 0.22665
 H2229 H 1.12257 0.19648 0.23886
 H2230 H 1.08725 0.20502 0.24686
 H2231 H 1.11806 0.22532 0.20223
 H2232 H 1.09138 0.23936 0.21521
 C2233 C 0.12800 0.71235 0.53805
 C2234 C 0.13804 0.70530 0.52155
 C2235 C 0.15879 0.71193 0.51530
 C2236 C 0.16896 0.72787 0.52338
 H2237 H 0.13114 0.69358 0.51213
 H2238 H 0.16591 0.70302 0.50327
 H2239 H 0.13486 0.72391 0.54768
 H2240 H 0.16209 0.73730 0.53509
 C2241 C 0.12547 0.21100 1.03482
 C2242 C 0.13436 0.22858 1.04067
 C2243 C 0.15512 0.23508 1.03437
 C2244 C 0.16565 0.22689 1.01875
 H2245 H 0.12668 0.23850 1.05142
 H2246 H 0.16199 0.24722 1.04335
 H2247 H 0.13326 0.20083 1.02438
 H2248 H 0.15888 0.21525 1.00913
 C2249 C 0.62436 0.53815 0.21367
 C2250 C 0.63360 0.52108 0.20695
 C2251 C 0.65418 0.51423 0.21348
 C2252 C 0.66460 0.52196 0.22944
 H2253 H 0.62622 0.51172 0.19547
 H2254 H 0.66097 0.50209 0.20447
 H2255 H 0.63177 0.54775 0.22493
 H2256 H 0.65798 0.53368 0.23903
 C2257 C 0.62577 1.03979 0.71681
 C2258 C 0.63549 1.02293 0.71025
 C2259 C 0.65621 1.01664 0.71695
 C2260 C 0.66638 1.02469 0.73293
 H2261 H 0.62847 1.01339 0.69869
 H2262 H 0.66339 1.00474 0.70793
 H2263 H 0.63279 1.04954 0.72820
 H2264 H 0.65939 1.03620 0.74252
 C2265 C 0.87269 0.46077 0.28507
 C2266 C 0.86331 0.47785 0.29154
 C2267 C 0.84252 0.48420 0.28515
 C2268 C 0.83209 0.47606 0.26940
 H2269 H 0.87067 0.48751 0.30278
 H2270 H 0.83554 0.49620 0.29420
 H2271 H 0.86533 0.45089 0.27403
 H2272 H 0.83889 0.46448 0.25977
 C2273 C 0.87392 0.96308 0.79068
 C2274 C 0.86379 0.95657 0.77399
 C2275 C 0.84333 0.96391 0.76761
 C2276 C 0.83358 0.98003 0.77578
 H2277 H 0.87034 0.94471 0.76452
 H2278 H 0.83600 0.95529 0.75546
 H2279 H 0.86743 0.97482 0.80033
 H2280 H 0.84066 0.98917 0.78762
 C2281 C 0.37793 0.29117 0.78772
 C2282 C 0.38741 0.27408 0.79401
 C2283 C 0.40778 0.26731 0.78683
 C2284 C 0.41770 0.27508 0.77061
 H2285 H 0.38044 0.26464 0.80564
 H2286 H 0.41488 0.25520 0.79564
 H2287 H 0.38491 0.30082 0.77626
 H2288 H 0.41079 0.28681 0.76124
 C2289 C 0.87575 0.28727 0.28431
 C2290 C 0.88593 0.27085 0.29129
 C2291 C 0.90648 0.26444 0.28424
 C2292 C 0.91651 0.27260 0.26828
 H2293 H 0.87935 0.26166 0.30334
 H2294 H 0.91366 0.25235 0.29300
 H2295 H 0.88224 0.29663 0.27235
 H2296 H 0.90963 0.28443 0.25905
 C2297 C 0.37638 0.78592 0.46285
 C2298 C 0.36711 0.79191 0.48019
 C2299 C 0.34650 0.78513 0.48667
 C2300 C 0.33636 0.76916 0.47865
 H2301 H 0.37434 0.80317 0.48992
 H2302 H 0.33938 0.79409 0.49866
 H2303 H 0.36908 0.77490 0.45288
 H2304 H 0.34335 0.75959 0.46712
 C2305 C 0.37264 0.28935 0.96259
 C2306 C 0.36371 0.27194 0.95628
 C2307 C 0.34350 0.26461 0.96339
 C2308 C 0.33352 0.27197 0.97977
 H2309 H 0.37097 0.26275 0.94461
 H2310 H 0.33655 0.25253 0.95438
 H2311 H 0.36533 0.29878 0.97404
 H2312 H 0.34033 0.28361 0.98935
 C2313 C 0.78430 0.46216 0.37526
 C2314 C 0.79093 0.47885 0.36531
 C2315 C 0.78419 0.48497 0.34452
 C2316 C 0.76842 0.47660 0.33434
 H2317 H 0.80259 0.48836 0.37216
 H2318 H 0.79306 0.49693 0.33727
 H2319 H 0.77275 0.45247 0.36847
 H2320 H 0.75899 0.46500 0.34136
 C2321 C 0.78942 0.96320 0.87601
 C2322 C 0.77227 0.95688 0.86657
 C2323 C 0.76555 0.96391 0.84605
 C2324 C 0.77328 0.98017 0.83621
 H2325 H 0.76279 0.94538 0.87368
 H2326 H 0.75354 0.95504 0.83883
 H2327 H 0.79917 0.97443 0.86882
 H2328 H 0.78486 0.98961 0.84331
 C2329 C 0.28893 0.78670 0.37600
 C2330 C 0.27153 0.79270 0.38511
 C2331 C 0.26480 0.78579 0.40564
 C2332 C 0.27259 0.76964 0.41563
 H2333 H 0.26200 0.80407 0.37785
 H2334 H 0.25294 0.79481 0.41285
 H2335 H 0.29871 0.77559 0.38334
 H2336 H 0.28399 0.76003 0.40852
 C2337 C 0.29044 0.28806 0.87788
 C2338 C 0.27337 0.29429 0.88741
 C2339 C 0.26659 0.28700 0.90779
 C2340 C 0.27458 0.27094 0.91779
 H2341 H 0.26391 0.30591 0.88046
 H2342 H 0.25429 0.29557 0.91483
 H2343 H 0.30012 0.27663 0.88484
 H2344 H 0.28654 0.26182 0.91096
 C2345 C 0.46095 0.29171 0.87182
 C2346 C 0.45450 0.27464 0.86231
 C2347 C 0.46162 0.26781 0.84187
 C2348 C 0.47804 0.27533 0.83213
 H2349 H 0.44282 0.26529 0.86930
 H2350 H 0.45267 0.25588 0.83461
 H2351 H 0.47235 0.30133 0.86473
 H2352 H 0.48755 0.28684 0.83925
 C2353 C 0.96068 0.29035 0.36917
 C2354 C 0.95442 0.27298 0.36010
 C2355 C 0.96127 0.26602 0.33960
 C2356 C 0.97768 0.27339 0.32975
 H2357 H 0.94311 0.26349 0.36750
 H2358 H 0.95220 0.25410 0.33246
 H2359 H 0.97161 0.30015 0.36159
 H2360 H 0.98732 0.28483 0.33681
 C2361 C 0.46023 0.37410 0.78764
 C2362 C 0.47757 0.36513 0.79406
 C2363 C 0.48483 0.34487 0.78698
 C2364 C 0.47761 0.33499 0.77045
 H2365 H 0.48671 0.37237 0.80579
 H2366 H 0.49672 0.33781 0.79612
 H2367 H 0.45082 0.36677 0.77616
 H2368 H 0.46619 0.34195 0.76074
 C2369 C 0.96104 0.37323 0.28444
 C2370 C 0.97814 0.36386 0.29085
 C2371 C 0.98473 0.34328 0.28404
 C2372 C 0.97679 0.33318 0.26799
 H2373 H 0.98769 0.37109 0.30227
 H2374 H 0.99682 0.33624 0.29292
 H2375 H 0.95124 0.36596 0.27326
 H2376 H 0.96513 0.34007 0.25852
 C2377 C 0.28811 0.87418 0.46361
 C2378 C 0.29472 0.86458 0.48055
 C2379 C 0.28811 0.84387 0.48693
 C2380 C 0.27211 0.83373 0.47895
 H2381 H 0.30629 0.87165 0.49002
 H2382 H 0.29722 0.83666 0.49875
 H2383 H 0.27673 0.86710 0.45391
 H2384 H 0.26243 0.84076 0.46754
 C2385 C 0.28904 0.37177 0.96270
 C2386 C 0.27209 0.36212 0.95622
 C2387 C 0.26554 0.34158 0.96315
 C2388 C 0.27331 0.33166 0.97938
 H2389 H 0.26259 0.36910 0.94462
 H2390 H 0.25358 0.33438 0.95418
 H2391 H 0.29876 0.36476 0.97409
 H2392 H 0.28486 0.33869 0.98892
 C2393 C 0.78437 0.37329 0.28617
 C2394 C 0.79023 0.38254 0.26876
 C2395 C 0.78330 0.40310 0.26221
 C2396 C 0.76741 0.41321 0.27034
 H2397 H 0.80146 0.37532 0.25904
 H2398 H 0.79215 0.41026 0.25016
 H2399 H 0.77334 0.38053 0.29611
 H2400 H 0.75799 0.40619 0.28197
   
