data_POSCAR
  _audit_creation_date              2014-09-24
  _audit_creation_method            'ToBaCCo'
  _symmetry_space_group_name_H-M    'P1'
  _symmetry_Int_Tables_number       1
  _symmetry_cell_setting            triclinic
  loop_
  _symmetry_equiv_pos_as_xyz
 x,y,z
_cell_length_a 37.5615
_cell_length_b 37.6237
_cell_length_c 37.5691
_cell_angle_alpha 94.535700
_cell_angle_beta 94.627100
_cell_angle_gamma 94.403700
loop_
  _atom_site_label
  _atom_site_type_symbol
  _atom_site_fract_x
  _atom_site_fract_y
  _atom_site_fract_z
C1 C 0.70898 0.69709 0.95311
 H2 H 0.73301 0.69163 0.94033
 C3 C 0.68203 0.71399 0.93485
 H4 H 0.68579 0.72197 0.90828
 C5 C 0.67373 0.69084 1.00215
 H6 H 0.66988 0.68054 1.02771
 C7 C 0.64643 0.70822 0.98511
 H8 H 0.62196 0.71159 0.99794
 N9 N 0.70396 0.68496 0.98567
 C10 C 0.80089 0.65429 1.04361
 H11 H 0.79057 0.62759 1.04835
 C12 C 0.83631 0.66610 1.05513
 H13 H 0.85309 0.64867 1.06924
 C14 C 0.79227 0.70860 1.01731
 H15 H 0.77525 0.72448 1.00156
 C16 C 0.82766 0.72159 1.02860
 H17 H 0.83756 0.74774 1.02180
 Zn18 Zn 0.73581 0.65229 1.00314
 N19 N 0.77993 0.67518 1.02441
 C20 C 0.78083 0.62232 0.95521
 N21 N 0.74601 0.62239 0.96279
 C22 C 0.71911 0.60519 0.93980
 C23 C 0.72697 0.58687 0.90779
 C24 C 0.78976 0.60444 0.92382
 C25 C 0.71464 0.64441 1.07116
 C26 C 0.69957 0.62819 1.09911
 C27 C 0.68479 0.57435 1.05956
 C28 C 0.70062 0.59161 1.03230
 N29 N 0.71462 0.62623 1.03843
 H30 H 0.80192 0.63679 0.97298
 H31 H 0.69155 0.60642 0.94591
 H32 H 0.70549 0.57315 0.88969
 H33 H 0.81764 0.60456 0.91832
 H34 H 0.72623 0.67179 1.07543
 H35 H 0.69956 0.64339 1.12484
 H36 H 0.67326 0.54707 1.05391
 H37 H 0.70130 0.57748 1.00620
 C38 C 0.85020 0.69979 1.04705
 C39 C 0.64991 0.71872 0.95051
 C40 C 0.68386 0.59289 1.09347
 C41 C 0.76273 0.58667 0.89968
 C42 C 0.72792 0.35312 0.50919
 H43 H 0.75449 0.35696 0.52308
 C44 C 0.70142 0.33100 0.52223
 H45 H 0.70755 0.31783 0.54633
 C46 C 0.68694 0.36732 0.46207
 H47 H 0.68112 0.38235 0.43929
 C48 C 0.65963 0.34516 0.47411
 H49 H 0.63298 0.34326 0.46044
 N50 N 0.72027 0.37094 0.47979
 C51 C 0.82445 0.39779 0.44185
 H52 H 0.82507 0.42666 0.44322
 C53 C 0.85317 0.38054 0.42948
 H54 H 0.87614 0.39618 0.42148
 C55 C 0.79345 0.34207 0.44994
 H56 H 0.76992 0.32717 0.45749
 C57 C 0.82135 0.32371 0.43711
 H58 H 0.81923 0.29477 0.43524
 Zn59 Zn 0.75728 0.40356 0.46771
 N60 N 0.79560 0.37847 0.45226
 C61 C 0.80658 0.43673 0.52415
 N62 N 0.77191 0.43385 0.50990
 C63 C 0.74572 0.44789 0.52826
 C64 C 0.75359 0.46351 0.56332
 C65 C 0.81568 0.45271 0.55877
 C66 C 0.73102 0.41020 0.39776
 C67 C 0.71699 0.42690 0.36857
 C68 C 0.72563 0.48336 0.40487
 C69 C 0.73919 0.46548 0.43358
 N70 N 0.74081 0.42942 0.42968
 H71 H 0.82695 0.42480 0.50972
 H72 H 0.71828 0.44475 0.51652
 H73 H 0.73213 0.47254 0.57838
 H74 H 0.84306 0.45323 0.57045
 H75 H 0.73333 0.38164 0.39532
 H76 H 0.70842 0.41095 0.34371
 H77 H 0.72346 0.51193 0.40841
 H78 H 0.74782 0.48026 0.45906
 C79 C 0.85154 0.34310 0.42671
 C80 C 0.66680 0.32714 0.50479
 C81 C 0.71352 0.46378 0.37224
 C82 C 0.78877 0.46488 0.57920
 C83 C 0.22667 -0.14786 0.00852
 H84 H 0.25329 -0.14424 0.02230
 C85 C 0.20001 -0.16966 0.02175
 H86 H 0.20609 -0.18281 0.04587
 C87 C 0.18569 -0.13342 -0.03849
 H88 H 0.17994 -0.11841 -0.06131
 C89 C 0.15824 -0.15524 -0.02628
 H90 H 0.13156 -0.15692 -0.03984
 N91 N 0.21908 -0.13007 -0.02091
 C92 C 0.32300 -0.10384 -0.05954
 H93 H 0.32365 -0.07497 -0.05820
 C94 C 0.35161 -0.12114 -0.07205
 H95 H 0.37455 -0.10551 -0.08012
 C96 C 0.29203 -0.15950 -0.05118
 H97 H 0.26854 -0.17435 -0.04344
 C98 C 0.31980 -0.17793 -0.06423
 H99 H 0.31769 -0.20687 -0.06607
 Zn100 Zn 0.25616 -0.09777 -0.03332
 N101 N 0.29422 -0.12310 -0.04892
 C102 C 0.30597 -0.06464 0.02265
 N103 N 0.27123 -0.06727 0.00864
 C104 C 0.24534 -0.05277 0.02709
 C105 C 0.25361 -0.03685 0.06200
 C106 C 0.31547 -0.04839 0.05709
 C107 C 0.22988 -0.09163 -0.10324
 C108 C 0.21548 -0.07535 -0.13253
 C109 C 0.22364 -0.01864 -0.09662
 C110 C 0.23761 -0.03616 -0.06783
 N111 N 0.23954 -0.07216 -0.07146
 H112 H 0.32610 -0.07695 0.00818
 H113 H 0.21782 -0.05572 0.01557
 H114 H 0.23239 -0.02742 0.07716
 H115 H 0.34290 -0.04807 0.06858
 H116 H 0.23261 -0.12012 -0.10550
 H117 H 0.20744 -0.09176 -0.15721
 H118 H 0.22144 0.00994 -0.09312
 H119 H 0.24629 -0.02114 -0.04249
 C120 C 0.34991 -0.15858 -0.07484
 C121 C 0.16533 -0.17321 0.00445
 C122 C 0.21118 -0.03850 -0.12915
 C123 C 0.28888 -0.03569 0.07762
 C124 C 0.20950 0.20125 0.45662
 H125 H 0.23448 0.19956 0.44437
 C126 C 0.18183 0.21871 0.44013
 H127 H 0.18575 0.23091 0.41543
 C128 C 0.17269 0.18489 0.50202
 H129 H 0.16860 0.17059 0.52535
 C130 C 0.14449 0.20214 0.48654
 H131 H 0.11933 0.20125 0.49864
 N132 N 0.20418 0.18410 0.48656
 C133 C 0.30341 0.15262 0.53979
 H134 H 0.29361 0.12528 0.54260
 C135 C 0.33880 0.16433 0.55145
 H136 H 0.35608 0.14611 0.56370
 C137 C 0.29338 0.20896 0.51837
 H138 H 0.27578 0.22580 0.50456
 C139 C 0.32877 0.22187 0.52989
 H140 H 0.33811 0.24887 0.52518
 Zn141 Zn 0.23750 0.15176 0.50176
 N142 N 0.28174 0.17460 0.52291
 C143 C 0.28178 0.12526 0.45129
 N144 N 0.24728 0.12355 0.46011
 C145 C 0.22039 0.10538 0.43781
 C146 C 0.22803 0.08743 0.40551
 C147 C 0.29049 0.10781 0.41961
 C148 C 0.21884 0.14173 0.56998
 C149 C 0.20420 0.12509 0.59789
 C150 C 0.18779 0.07218 0.55744
 C151 C 0.20327 0.08978 0.53017
 N152 N 0.21784 0.12419 0.53681
 H153 H 0.30278 0.14066 0.46841
 H154 H 0.19302 0.10525 0.44485
 H155 H 0.20664 0.07263 0.38813
 H156 H 0.31817 0.10911 0.41330
 H157 H 0.23064 0.16902 0.57457
 H158 H 0.20471 0.13968 0.62399
 H159 H 0.17545 0.04517 0.55174
 H160 H 0.20298 0.07622 0.50369
 C161 C 0.35198 0.19905 0.54595
 C162 C 0.14857 0.21838 0.45463
 C163 C 0.18794 0.09018 0.59163
 C164 C 0.26354 0.08868 0.39637
 C165 C 0.19732 0.44986 0.20846
 H166 H 0.19175 0.43695 0.23237
 C167 C 0.21416 0.43165 0.18149
 H168 H 0.22196 0.40500 0.18510
 C169 C 0.19140 0.49916 0.17349
 H170 H 0.18125 0.52480 0.16975
 C171 C 0.20873 0.48218 0.14619
 H172 H 0.21220 0.49515 0.12182
 N173 N 0.18539 0.48253 0.20359
 C174 C 0.15462 0.54075 0.30005
 H175 H 0.12801 0.54568 0.28938
 C176 C 0.16625 0.55242 0.33548
 H177 H 0.14876 0.56685 0.35189
 C178 C 0.20886 0.51381 0.29235
 H179 H 0.22476 0.49777 0.27568
 C180 C 0.22166 0.52523 0.32779
 H181 H 0.24770 0.51825 0.33809
 Zn182 Zn 0.15269 0.50002 0.23534
 N183 N 0.17557 0.52121 0.27952
 C184 C 0.12252 0.45247 0.28036
 N185 N 0.12266 0.45987 0.24550
 C186 C 0.10542 0.43686 0.21864
 C187 C 0.08707 0.40497 0.22660
 C188 C 0.10461 0.42124 0.28938
 C189 C 0.14512 0.56800 0.21426
 C190 C 0.12883 0.59629 0.19983
 C191 C 0.07446 0.55747 0.18545
 C192 C 0.09177 0.52980 0.20062
 N193 N 0.12666 0.53546 0.21420
 H194 H 0.13697 0.47027 0.30143
 H195 H 0.10666 0.44287 0.19105
 H196 H 0.07334 0.38684 0.20518
 H197 H 0.10469 0.41590 0.31731
 H198 H 0.17271 0.57188 0.22552
 H199 H 0.14404 0.62194 0.19981
 H200 H 0.04693 0.55260 0.17417
 H201 H 0.07745 0.50385 0.20125
 C202 C 0.19980 0.54411 0.34986
 C203 C 0.21901 0.44749 0.14950
 C204 C 0.09327 0.59109 0.18489
 C205 C 0.08686 0.39705 0.26242
 C206 C -0.14723 0.01104 0.22757
 H207 H -0.14427 0.02474 0.25420
 C208 C -0.16872 0.02410 0.20042
 H209 H -0.18215 0.04807 0.20634
 C210 C -0.13142 -0.03556 0.18716
 H211 H -0.11596 -0.05813 0.18184
 C212 C -0.15288 -0.02354 0.15917
 H213 H -0.15354 -0.03719 0.13266
 N214 N -0.12896 -0.01814 0.22053
 C215 C -0.10454 -0.05686 0.32495
 H216 H -0.07559 -0.05543 0.32616
 C217 C -0.12228 -0.06937 0.35323
 H218 H -0.10692 -0.07743 0.37644
 C219 C -0.15993 -0.04861 0.29294
 H220 H -0.17448 -0.04089 0.26918
 C221 C -0.17880 -0.06169 0.32037
 H222 H -0.20779 -0.06361 0.31770
 Zn223 Zn -0.09730 -0.03058 0.25840
 N224 N -0.12346 -0.04629 0.29582
 C225 C -0.06578 0.02534 0.30890
 N226 N -0.06704 0.01129 0.27427
 C227 C -0.05111 0.02951 0.24909
 C228 C -0.03489 0.06417 0.25793
 C229 C -0.04938 0.05954 0.31895
 C230 C -0.09065 -0.10035 0.23236
 C231 C -0.07401 -0.12964 0.21859
 C232 C -0.01721 -0.09399 0.22824
 C233 C -0.03503 -0.06515 0.24156
 N234 N -0.07123 -0.06868 0.24253
 H235 H -0.07926 0.01111 0.32842
 H236 H -0.05302 0.01800 0.22162
 H237 H -0.02422 0.07916 0.23720
 H238 H -0.05011 0.07106 0.34621
 H239 H -0.11933 -0.10249 0.23413
 H240 H -0.09012 -0.15426 0.20968
 H241 H 0.01148 -0.09074 0.22652
 H242 H -0.02010 -0.03988 0.25048
 C243 C -0.15980 -0.07222 0.35085
 C244 C -0.17164 0.00690 0.16560
 C245 C -0.03697 -0.12634 0.21574
 C246 C -0.03499 0.07979 0.29303
 C247 C 0.35262 0.50963 0.72736
 H248 H 0.35606 0.52344 0.75393
 C249 C 0.33069 0.52259 0.70050
 H250 H 0.31726 0.54656 0.70638
 C251 C 0.36761 0.46272 0.68673
 H252 H 0.38288 0.44005 0.68122
 C253 C 0.34565 0.47468 0.65908
 H254 H 0.34412 0.46105 0.63247
 N255 N 0.37074 0.48037 0.72005
 C256 C 0.39659 0.44241 0.82448
 H257 H 0.42555 0.44414 0.82562
 C258 C 0.37906 0.42962 0.85279
 H259 H 0.39460 0.42172 0.87597
 C260 C 0.34095 0.44990 0.79255
 H261 H 0.32621 0.45737 0.76879
 C262 C 0.32232 0.43656 0.81999
 H263 H 0.29332 0.43423 0.81734
 Zn264 Zn 0.40301 0.46829 0.75753
 N265 N 0.37743 0.45269 0.79536
 C266 C 0.43556 0.52458 0.80724
 N267 N 0.43319 0.51038 0.77260
 C268 C 0.44777 0.52865 0.74670
 C269 C 0.46352 0.56356 0.75481
 C270 C 0.45165 0.55903 0.81659
 C271 C 0.40994 0.39849 0.73171
 C272 C 0.42675 0.36927 0.71805
 C273 C 0.48329 0.40541 0.72704
 C274 C 0.46530 0.43416 0.74026
 N275 N 0.42914 0.43034 0.74153
 H276 H 0.42318 0.51023 0.82736
 H277 H 0.44503 0.51696 0.71926
 H278 H 0.47303 0.57855 0.73355
 H279 H 0.45180 0.57067 0.84392
 H280 H 0.38129 0.39612 0.73372
 H281 H 0.41080 0.34448 0.70943
 H282 H 0.51194 0.40888 0.72510
 H283 H 0.48006 0.45959 0.74890
 C284 C 0.34154 0.42621 0.85041
 C285 C 0.32732 0.50520 0.66591
 C286 C 0.46373 0.37284 0.71495
 C287 C 0.46444 0.57937 0.78994
 C288 C 0.69896 0.95140 0.71120
 H289 H 0.69331 0.93814 0.73489
 C290 C 0.71528 0.93333 0.68376
 H291 H 0.72264 0.90643 0.68681
 C292 C 0.69364 1.00148 0.67722
 H293 H 0.68389 1.02739 0.67403
 C294 C 0.71048 0.98463 0.64947
 H295 H 0.71399 0.99797 0.62532
 N296 N 0.68751 0.98440 0.70703
 C297 C 0.65681 1.04141 0.80438
 H298 H 0.62998 1.04598 0.79405
 C299 C 0.66863 1.05281 0.83983
 H300 H 0.65088 1.06663 0.85646
 C301 C 0.71143 1.01563 0.79574
 H302 H 0.72741 1.00011 0.77867
 C303 C 0.72450 1.02682 0.83116
 H304 H 0.75081 1.01997 0.84071
 Zn305 Zn 0.65492 1.00167 0.73906
 N306 N 0.67787 1.02257 0.78337
 C307 C 0.62496 0.95344 0.78368
 N308 N 0.62494 0.96135 0.74895
 C309 C 0.60748 0.93875 0.72189
 C310 C 0.58893 0.90685 0.72950
 C311 C 0.60685 0.92216 0.79236
 C312 C 0.64688 1.06992 0.71850
 C313 C 0.63055 1.09796 0.70357
 C314 C 0.57683 1.05846 0.68807
 C315 C 0.59413 1.03107 0.70375
 N316 N 0.62876 1.03716 0.71807
 H317 H 0.63966 0.97088 0.80489
 H318 H 0.60866 0.94511 0.69440
 H319 H 0.57497 0.88910 0.70790
 H320 H 0.60701 0.91642 0.82018
 H321 H 0.67427 1.07414 0.73029
 H322 H 0.64552 1.12376 0.70375
 H323 H 0.54956 1.05319 0.67612
 H324 H 0.58006 1.00496 0.70404
 C325 C 0.70265 1.04513 0.85392
 C326 C 0.72015 0.94963 0.65202
 C327 C 0.59533 1.09226 0.68773
 C328 C 0.58876 0.89845 0.76518
 C329 C 0.00861 0.22638 -0.14975
 H330 H 0.02246 0.25288 -0.14617
 C331 C 0.02153 0.19966 -0.17181
 H332 H 0.04550 0.20557 -0.18520
 C333 C -0.03825 0.18575 -0.13490
 H334 H -0.06086 0.18015 -0.11962
 C335 C -0.02635 0.15826 -0.15699
 H336 H -0.03995 0.13169 -0.15857
 N337 N -0.02058 0.21899 -0.13161
 C338 C -0.05869 0.32304 -0.10453
 H339 H -0.05695 0.32376 -0.07559
 C340 C -0.07138 0.35166 -0.12168
 H341 H -0.07921 0.37465 -0.10588
 C342 C -0.05118 0.29194 -0.16048
 H343 H -0.04369 0.26841 -0.17549
 C344 C -0.06442 0.31971 -0.17875
 H345 H -0.06667 0.31753 -0.20775
 Zn346 Zn -0.03251 0.25609 -0.09892
 N347 N -0.04841 0.29419 -0.12401
 C348 C 0.02389 0.30552 -0.06615
 N349 N 0.00986 0.27089 -0.06882
 C350 C 0.02843 0.24493 -0.05461
 C351 C 0.06346 0.25301 -0.03889
 C352 C 0.05846 0.31483 -0.05009
 C353 C -0.10228 0.23011 -0.09180
 C354 C -0.13122 0.21577 -0.07507
 C355 C -0.09441 0.22381 -0.01875
 C356 C -0.06599 0.23770 -0.03671
 N357 N -0.07022 0.23965 -0.07275
 H358 H 0.00932 0.32572 -0.07824
 H359 H 0.01688 0.21750 -0.05758
 H360 H 0.07868 0.23173 -0.02964
 H361 H 0.06994 0.34218 -0.04968
 H362 H -0.10504 0.23284 -0.12032
 H363 H -0.15612 0.20780 -0.09117
 H364 H -0.09042 0.22157 0.00984
 H365 H -0.04045 0.24629 -0.02201
 C366 C -0.07469 0.34990 -0.15919
 C367 C 0.00415 0.16513 -0.17529
 C368 C -0.12720 0.21143 -0.03820
 C369 C 0.07908 0.28816 -0.03763
 C370 C 0.45234 0.20903 0.19695
 H371 H 0.43938 0.23294 0.19142
 C372 C 0.43413 0.18201 0.21361
 H373 H 0.40743 0.18561 0.22135
 C374 C 0.50176 0.17410 0.19107
 H375 H 0.52745 0.17040 0.18099
 C376 C 0.48477 0.14674 0.20822
 H377 H 0.49778 0.12238 0.21164
 N378 N 0.48508 0.20421 0.18511
 C379 C 0.54310 0.30085 0.15483
 H380 H 0.54861 0.29014 0.12846
 C381 C 0.55420 0.33637 0.16635
 H382 H 0.56879 0.35279 0.14906
 C383 C 0.51516 0.29323 0.20844
 H384 H 0.49891 0.27657 0.22410
 C385 C 0.52598 0.32876 0.22112
 H386 H 0.51836 0.33911 0.24685
 Zn387 Zn 0.50252 0.23608 0.15253
 N388 N 0.52335 0.28030 0.17551
 C389 C 0.45462 0.28083 0.12194
 N390 N 0.46223 0.24607 0.12228
 C391 C 0.43934 0.21915 0.10506
 C392 C 0.40734 0.22692 0.08653
 C393 C 0.42324 0.28967 0.10386
 C394 C 0.57081 0.21513 0.14514
 C395 C 0.59908 0.20054 0.12894
 C396 C 0.56000 0.18604 0.07463
 C397 C 0.53237 0.20138 0.09182
 N398 N 0.53815 0.21508 0.12666
 H399 H 0.47235 0.30195 0.13634
 H400 H 0.44551 0.19165 0.10647
 H401 H 0.38931 0.20544 0.07283
 H402 H 0.41770 0.31751 0.10379
 H403 H 0.57479 0.22646 0.17268
 H404 H 0.62482 0.20049 0.14418
 H405 H 0.55500 0.17463 0.04716
 H406 H 0.50632 0.20198 0.07749
 C407 C 0.54506 0.35084 0.19951
 C408 C 0.45001 0.15001 0.21840
 C409 C 0.59373 0.18543 0.09346
 C410 C 0.39916 0.26263 0.08611
 C411 C 0.94924 0.70836 0.69643
 H412 H 0.93619 0.73221 0.69085
 C413 C 0.93128 0.68149 0.71350
 H414 H 0.90467 0.68511 0.72145
 C415 C 0.99868 0.67348 0.69040
 H416 H 1.02429 0.66975 0.68014
 C417 C 0.98196 0.64628 0.70794
 H418 H 0.99507 0.62198 0.71145
 N419 N 0.98187 0.70349 0.68434
 C420 C 1.03937 0.79994 0.65317
 H421 H 1.04357 0.78955 0.62629
 C422 C 1.05119 0.83523 0.66489
 H423 H 1.06498 0.85184 0.64718
 C424 C 1.01414 0.79162 0.70810
 H425 H 0.99869 0.77475 0.72427
 C426 C 1.02577 0.82690 0.72101
 H427 H 1.01954 0.83690 0.74738
 Zn428 Zn 0.99908 0.73521 0.65156
 N429 N 1.02055 0.77919 0.67442
 C430 C 0.95096 0.78045 0.62223
 N431 N 0.95861 0.74565 0.62175
 C432 C 0.93569 0.71902 0.60404
 C433 C 0.90373 0.72718 0.58568
 C434 C 0.91964 0.78966 0.60434
 C435 C 1.06715 0.71424 0.64371
 C436 C 1.09535 0.69961 0.62745
 C437 C 1.05600 0.68468 0.57338
 C438 C 1.02843 0.70008 0.59064
 N439 N 1.03439 0.71401 0.62539
 H440 H 0.96861 0.80131 0.63713
 H441 H 0.94185 0.69146 0.60484
 H442 H 0.88572 0.70595 0.57151
 H443 H 0.91412 0.81754 0.60488
 H444 H 1.07127 0.72574 0.67119
 H445 H 1.12117 0.69972 0.64256
 H446 H 1.05089 0.67309 0.54599
 H447 H 1.00231 0.70055 0.57642
 C448 C 1.04385 0.84922 0.69886
 C449 C 0.94732 0.64960 0.71842
 C450 C 1.08984 0.68426 0.59207
 C451 C 0.89560 0.76295 0.58599
 C452 C 0.50679 0.72833 0.34989
 H453 H 0.52060 0.75485 0.35323
 C454 C 0.51978 0.70144 0.32811
 H455 H 0.54376 0.70724 0.31470
 C456 C 0.45994 0.68786 0.36503
 H457 H 0.43731 0.68239 0.38031
 C458 C 0.47192 0.66017 0.34322
 H459 H 0.45835 0.63361 0.34183
 N460 N 0.47755 0.72112 0.36802
 C461 C 0.43930 0.82539 0.39382
 H462 H 0.44101 0.82639 0.42277
 C463 C 0.42662 0.85383 0.37636
 H464 H 0.41894 0.87691 0.39214
 C465 C 0.44712 0.79389 0.33821
 H466 H 0.45484 0.77031 0.32345
 C467 C 0.43391 0.82146 0.31958
 H468 H 0.43224 0.81883 0.29061
 Zn469 Zn 0.46550 0.75858 0.40025
 N470 N 0.44966 0.79641 0.37466
 C471 C 0.52183 0.80831 0.43265
 N472 N 0.50778 0.77370 0.43037
 C473 C 0.52624 0.74794 0.44514
 C474 C 0.56115 0.75620 0.46109
 C475 C 0.55629 0.81779 0.44892
 C476 C 0.39572 0.73251 0.40747
 C477 C 0.36678 0.71853 0.42443
 C478 C 0.40340 0.72775 0.48082
 C479 C 0.43187 0.74125 0.46268
 N480 N 0.42772 0.74252 0.42653
 H481 H 0.50735 0.82832 0.42013
 H482 H 0.51468 0.72052 0.44246
 H483 H 0.57629 0.73507 0.47082
 H484 H 0.56779 0.84511 0.44905
 H485 H 0.39306 0.73453 0.37883
 H486 H 0.34188 0.70973 0.40860
 H487 H 0.40717 0.72581 0.50946
 H488 H 0.45739 0.75005 0.47734
 C489 C 0.42317 0.85183 0.33872
 C490 C 0.50244 0.66690 0.32490
 C491 C 0.37075 0.71535 0.46140
 C492 C 0.57678 0.79132 0.46201
 C493 C 0.36493 -0.03441 0.27644
 C494 C 0.34689 -0.04278 0.23854
 C495 C 0.33081 -0.01471 0.22526
 C496 C 0.33396 0.01924 0.25147
 C497 C 0.39082 -0.00114 0.27428
 C498 C 0.37459 0.02694 0.26096
 C499 C 0.33550 -0.02141 0.29860
 C500 C 0.31937 0.00683 0.28601
 H501 H 0.34912 -0.06772 0.22253
 H502 H 0.32045 0.04195 0.24092
 H503 H 0.41956 -0.00079 0.28053
 H504 H 0.33149 -0.03035 0.32490
 C505 C 0.07939 1.05832 0.75666
 C506 C 0.09417 1.06841 0.72184
 C507 C 0.11629 1.04473 0.70821
 C508 C 0.12119 1.01253 0.73057
 C509 C 0.06083 1.02052 0.74783
 C510 C 0.08280 0.99647 0.73419
 C511 C 0.11245 1.05336 0.78184
 C512 C 0.13420 1.02913 0.76859
 H513 H 0.08891 1.09303 0.70983
 H514 H 0.13898 0.99309 0.71929
 H515 H 0.03326 1.01341 0.75288
 H516 H 0.11513 1.06354 0.80990
 C517 C 0.57792 0.56028 0.25682
 C518 C 0.59247 0.57072 0.22202
 C519 C 0.61486 0.54743 0.20823
 C520 C 0.62020 0.51515 0.23039
 C521 C 0.55975 0.52234 0.24785
 C522 C 0.58197 0.49862 0.23403
 C523 C 0.61114 0.55555 0.28188
 C524 C 0.63316 0.53168 0.26845
 H525 H 0.58680 0.59528 0.21009
 H526 H 0.63818 0.49602 0.21892
 H527 H 0.53231 0.51484 0.25308
 H528 H 0.61387 0.56569 0.30995
 C529 C 0.86402 0.46527 0.77803
 C530 C 0.84569 0.45686 0.74026
 C531 C 0.82926 0.48484 0.72718
 C532 C 0.83238 0.51872 0.75349
 C533 C 0.88960 0.49874 0.77571
 C534 C 0.87302 0.52671 0.76261
 C535 C 0.83470 0.47795 0.80049
 C536 C 0.81826 0.50612 0.78817
 H537 H 0.84819 0.43209 0.72407
 H538 H 0.81857 0.54135 0.74313
 H539 H 0.91840 0.49927 0.78160
 H540 H 0.83097 0.46888 0.82680
 C541 C 0.27775 0.36407 -0.03547
 C542 C 0.23993 0.34608 -0.04414
 C543 C 0.22673 0.32961 -0.01630
 C544 C 0.25297 0.33235 0.01773
 C545 C 0.27550 0.38945 -0.00177
 C546 C 0.26227 0.37284 0.02606
 C547 C 0.30005 0.33451 -0.02296
 C548 C 0.28762 0.31805 0.00510
 H549 H 0.22388 0.34865 -0.06904
 H550 H 0.24250 0.31851 0.04023
 H551 H 0.28161 0.41817 -0.00098
 H552 H 0.32637 0.33068 -0.03197
 C553 C 0.76099 0.07994 1.06036
 C554 C 0.72632 0.09471 1.07101
 C555 C 0.71219 0.11674 1.04752
 C556 C 0.73394 0.12154 1.01486
 C557 C 0.75164 0.06130 1.02257
 C558 C 0.73749 0.08318 0.99866
 C559 C 0.78591 0.11290 1.05502
 C560 C 0.77215 0.13456 1.03093
 H561 H 0.71457 0.08923 1.09570
 H562 H 0.72224 0.13924 0.99556
 H563 H 0.75687 0.03383 1.01528
 H564 H 0.81409 0.11557 1.06480
 C565 C 0.25780 0.57983 0.55931
 C566 C 0.22275 0.59398 0.56967
 C567 C 0.20849 0.61593 0.54616
 C568 C 0.23051 0.62126 0.51378
 C569 C 0.24902 0.56132 0.52141
 C570 C 0.23475 0.58309 0.49749
 C571 C 0.28233 0.61319 0.55437
 C572 C 0.26845 0.63478 0.53028
 H573 H 0.21094 0.58832 0.59430
 H574 H 0.21870 0.63888 0.49446
 H575 H 0.25463 0.53396 0.51411
 H576 H 0.31042 0.61631 0.56451
 C577 C 0.77580 0.86680 0.46528
 C578 C 0.73771 0.84948 0.45667
 C579 C 0.72432 0.83305 0.48443
 C580 C 0.75065 0.83513 0.51834
 C581 C 0.77409 0.89208 0.49917
 C582 C 0.76068 0.87549 0.52695
 C583 C 0.79757 0.83673 0.47747
 C584 C 0.78495 0.82028 0.50546
 H585 H 0.72175 0.85223 0.43175
 H586 H 0.74000 0.82132 0.54078
 H587 H 0.78077 0.92073 0.50019
 H588 H 0.82378 0.83254 0.46835
 C589 C -0.03283 0.27939 0.36691
 C590 C -0.04068 0.24060 0.35151
 C591 C -0.01274 0.22693 0.33559
 C592 C 0.02053 0.25366 0.33612
 C593 C 0.00144 0.27960 0.39221
 C594 C 0.02942 0.26595 0.37608
 C595 C -0.02160 0.29956 0.33549
 C596 C 0.00665 0.28673 0.31951
 H597 H -0.06552 0.22475 0.35450
 H598 H 0.04310 0.24271 0.32270
 H599 H 0.00216 0.28612 0.42094
 H600 H -0.03118 0.32535 0.33032
 C601 C 1.05956 0.75860 0.08049
 C602 C 1.07022 0.72382 0.09494
 C603 C 1.04703 0.70993 0.11731
 C604 C 1.01467 0.73202 0.12277
 C605 C 1.02150 0.74967 0.06235
 C606 C 0.99791 0.73576 0.08458
 C607 C 1.05493 0.78351 0.11375
 C608 C 1.03117 0.77001 0.13578
 H609 H 1.09469 0.71181 0.08899
 H610 H 0.99563 0.72052 0.14076
 H611 H 1.01388 0.75482 0.03489
 H612 H 1.06497 0.81155 0.11646
 C613 C 0.56125 0.25798 0.58040
 C614 C 0.57195 0.22326 0.59501
 C615 C 0.54866 0.20934 0.61728
 C616 C 0.51618 0.23134 0.62248
 C617 C 0.52328 0.24894 0.56210
 C618 C 0.49959 0.23500 0.58420
 C619 C 0.55637 0.28291 0.61358
 C620 C 0.53254 0.26937 0.63551
 H621 H 0.59664 0.21147 0.58945
 H622 H 0.49704 0.21982 0.64037
 H623 H 0.51579 0.25405 0.53459
 H624 H 0.56634 0.31096 0.61629
 C625 C 0.46549 0.77791 0.86508
 C626 C 0.45704 0.74019 0.84687
 C627 C 0.48513 0.72693 0.83081
 C628 C 0.51916 0.75302 0.83412
 C629 C 0.49886 0.77553 0.89099
 C630 C 0.52694 0.76224 0.87476
 C631 C 0.47845 0.80017 0.83577
 C632 C 0.50675 0.78766 0.81969
 H633 H 0.43211 0.72420 0.84913
 H634 H 0.54188 0.74250 0.82060
 H635 H 0.49926 0.78159 0.91974
 H636 H 0.46952 0.82649 0.83187
 C637 C 0.39652 -0.06577 0.33165
 C638 C 0.37687 -0.10314 0.33290
 C639 C 0.40861 -0.11964 0.32087
 C640 C 0.42912 -0.08489 0.31991
 C641 C 0.39527 -0.12107 0.28275
 C642 C 0.36179 -0.10285 0.29356
 C643 C 0.38217 -0.06586 0.29193
 C644 C 0.41527 -0.08398 0.28003
 H645 H 0.39754 -0.04324 0.35275
 H646 H 0.36146 -0.11223 0.35500
 H647 H 0.45733 -0.07899 0.33143
 H648 H 0.39462 -0.14459 0.26287
 H649 H 0.33372 -0.11122 0.28288
 H650 H 0.43184 -0.07660 0.25816
 C651 C 0.86175 0.39706 0.79528
 C652 C 0.89487 0.37910 0.78284
 C653 C 0.90986 0.37980 0.82230
 C654 C 0.87687 0.39744 0.83477
 C655 C 0.92994 0.41668 0.82031
 C656 C 0.91472 0.41644 0.78065
 C657 C 0.88177 0.43398 0.79331
 C658 C 0.89683 0.43458 0.83270
 H659 H 0.83350 0.38931 0.78483
 H660 H 0.89385 0.35621 0.76216
 H661 H 0.86122 0.38944 0.85710
 H662 H 0.95818 0.42442 0.83079
 H663 H 0.93005 0.42468 0.75819
 H664 H 0.89756 0.45772 0.85307
 C665 C 0.02056 1.09808 0.75747
 C666 C 0.00581 1.09641 0.79482
 C667 C 0.02084 1.13550 0.80479
 C668 C 0.03520 1.13755 0.76772
 C669 C 0.05653 1.12308 0.82018
 C670 C 0.04178 1.08380 0.81009
 C671 C 0.05629 1.08587 0.77309
 C672 C 0.07108 1.12499 0.78309
 H673 H 0.00606 1.08741 0.73145
 H674 H -0.02121 1.08459 0.79953
 H675 H 0.03230 1.15992 0.75042
 H676 H 0.07126 1.13355 0.84616
 H677 H 0.04468 1.06140 0.82736
 H678 H 0.09815 1.13654 0.77816
 C679 C 0.54034 0.58559 0.31050
 C680 C 0.55495 0.62495 0.32040
 C681 C 0.51912 0.63716 0.30511
 C682 C 0.50422 0.59800 0.29535
 C683 C 0.53326 0.63912 0.26794
 C684 C 0.56927 0.62678 0.28321
 C685 C 0.55464 0.58758 0.27340
 C686 C 0.51877 0.59958 0.25790
 H687 H 0.54345 0.56328 0.32785
 H688 H 0.56977 0.63557 0.34628
 H689 H 0.47729 0.58610 0.30025
 H690 H 0.53017 0.66140 0.25056
 H691 H 0.59625 0.63845 0.27811
 H692 H 0.50418 0.58877 0.23197
 C693 C 0.57648 0.43868 0.18957
 C694 C 0.59224 0.40872 0.21032
 C695 C 0.55431 0.39004 0.21018
 C696 C 0.53845 0.41960 0.18927
 C697 C 0.54886 0.41079 0.24602
 C698 C 0.58693 0.42985 0.24623
 C699 C 0.57108 0.45939 0.22542
 C700 C 0.53310 0.44077 0.22524
 H701 H 0.58791 0.45052 0.16640
 H702 H 0.61662 0.39530 0.20425
 H703 H 0.51835 0.41504 0.16570
 H704 H 0.53769 0.39966 0.26964
 H705 H 0.60697 0.43359 0.26967
 H706 H 0.50852 0.45386 0.23122
 C707 C 0.08849 0.92741 0.74470
 C708 C 0.05069 0.90844 0.74656
 C709 C 0.05380 0.88823 0.70987
 C710 C 0.09147 0.90680 0.70794
 C711 C 0.03677 0.91821 0.69058
 C712 C 0.03375 0.93884 0.72740
 C713 C 0.07146 0.95736 0.72550
 C714 C 0.07455 0.93719 0.68881
 H715 H 0.10999 0.93079 0.76686
 H716 H 0.04109 0.89692 0.77070
 H717 H 0.11527 0.89336 0.69999
 H718 H 0.01533 0.91408 0.66817
 H719 H 0.00972 0.95188 0.73527
 H720 H 0.08445 0.94939 0.66513
 C721 C 0.88485 0.57526 0.71605
 C722 C 0.88633 0.61314 0.73571
 C723 C 0.92689 0.61793 0.73164
 C724 C 0.92544 0.58032 0.71184
 C725 C 0.93523 0.60247 0.76780
 C726 C 0.89440 0.59727 0.77204
 C727 C 0.89317 0.55981 0.75220
 C728 C 0.93365 0.56456 0.74810
 H729 H 0.86410 0.56379 0.69467
 H730 H 0.86645 0.63289 0.73061
 H731 H 0.93820 0.57340 0.68684
 H732 H 0.95608 0.61398 0.78907
 H733 H 0.88139 0.60382 0.79697
 H734 H 0.95335 0.54459 0.75300
 C735 C 0.43569 0.06480 0.24761
 C736 C 0.42816 0.08067 0.21129
 C737 C 0.42932 0.11824 0.23114
 C738 C 0.43697 0.10267 0.26736
 C739 C 0.38862 0.11343 0.23445
 C740 C 0.38743 0.07559 0.21475
 C741 C 0.39507 0.06003 0.25096
 C742 C 0.39601 0.09746 0.27084
 H743 H 0.45528 0.04480 0.25284
 H744 H 0.44139 0.07382 0.18657
 H745 H 0.45748 0.11411 0.28898
 H746 H 0.36884 0.13319 0.22903
 H747 H 0.36702 0.06416 0.19303
 H748 H 0.38253 0.10394 0.29549
 C749 C 0.28080 0.41518 -0.08367
 C750 C 0.32053 0.43015 -0.08296
 C751 C 0.32268 0.41052 -0.12010
 C752 C 0.28315 0.39578 -0.12128
 C753 C 0.33491 0.37724 -0.10285
 C754 C 0.33267 0.39677 -0.06545
 C755 C 0.29322 0.38195 -0.06651
 C756 C 0.29535 0.36237 -0.10370
 H757 H 0.25834 0.43055 -0.07536
 H758 H 0.33107 0.45823 -0.07474
 H759 H 0.26261 0.39517 -0.14431
 H760 H 0.35725 0.36157 -0.11092
 H761 H 0.35291 0.39710 -0.04217
 H762 H 0.28483 0.33429 -0.11190
 C763 C 0.77963 0.91806 0.41719
 C764 C 0.81957 0.93223 0.41765
 C765 C 0.82112 0.91251 0.38043
 C766 C 0.78139 0.89858 0.37951
 C767 C 0.83273 0.87894 0.39755
 C768 C 0.83110 0.89855 0.43502
 C769 C 0.79143 0.88453 0.43421
 C770 C 0.79296 0.86487 0.39695
 H771 H 0.75759 0.93393 0.42569
 H772 H 0.83070 0.96013 0.42584
 H773 H 0.76077 0.89840 0.35660
 H774 H 0.85465 0.86278 0.38929
 H775 H 0.85142 0.89848 0.45817
 H776 H 0.78186 0.83696 0.38875
 C777 C 0.81501 0.04233 1.08595
 C778 C 0.82499 0.05667 1.12541
 C779 C 0.80962 0.02286 1.13710
 C780 C 0.80019 0.00711 1.10004
 C781 C 0.77407 0.03624 1.14004
 C782 C 0.78831 0.07214 1.12711
 C783 C 0.77787 0.05706 1.08787
 C784 C 0.76264 0.02150 1.10082
 H785 H 0.83277 0.04438 1.06385
 H786 H 0.85126 0.07029 1.13659
 H787 H 0.80518 -0.02030 1.08955
 H788 H 0.75804 0.03282 1.16331
 H789 H 0.78381 0.09907 1.13936
 H790 H 0.73677 0.00621 1.09111
 C791 C 0.25980 0.52104 0.59874
 C792 C 0.29742 0.50681 0.59701
 C793 C 0.30723 0.52176 0.63624
 C794 C 0.26989 0.53559 0.63834
 C795 C 0.32204 0.55761 0.62401
 C796 C 0.31210 0.54294 0.58459
 C797 C 0.27483 0.55692 0.58672
 C798 C 0.28467 0.57163 0.62597
 H799 H 0.23397 0.50629 0.58797
 H800 H 0.30257 0.47998 0.58503
 H801 H 0.25265 0.53239 0.66071
 H802 H 0.34783 0.57258 0.63459
 H803 H 0.32930 0.54617 0.56218
 H804 H 0.27932 0.59851 0.63769
 C805 C 0.24625 0.58763 0.42842
 C806 C 0.24685 0.54954 0.40967
 C807 C 0.21064 0.55400 0.38900
 C808 C 0.20996 0.59195 0.40736
 C809 C 0.19038 0.53810 0.41889
 C810 C 0.22672 0.53374 0.43999
 C811 C 0.22608 0.57174 0.45830
 C812 C 0.18987 0.57616 0.43766
 H813 H 0.26922 0.60812 0.43188
 H814 H 0.27068 0.53878 0.39849
 H815 H 0.20314 0.61594 0.39368
 H816 H 0.16726 0.51756 0.41463
 H817 H 0.23345 0.50952 0.45330
 H818 H 0.16649 0.58718 0.44955
 C819 C 0.74752 0.08899 0.92921
 C820 C 0.74887 0.05146 0.90965
 C821 C 0.71326 0.05450 0.89124
 C822 C 0.71073 0.09073 0.90822
 C823 C 0.69450 0.03740 0.91918
 C824 C 0.73095 0.03424 0.94049
 C825 C 0.72868 0.07187 0.95947
 C826 C 0.69181 0.07458 0.93900
 H827 H 0.76939 0.11063 0.93156
 H828 H 0.77260 0.04212 0.89707
 H829 H 0.70231 0.11354 0.89344
 H830 H 0.67243 0.01581 0.91338
 H831 H 0.73904 0.00983 0.95265
 H832 H 0.66748 0.08407 0.95033
 C833 C 0.74835 0.93614 0.56620
 C834 C 0.71217 0.92886 0.58233
 C835 C 0.73236 0.92917 0.61974
 C836 C 0.76844 0.93657 0.60390
 C837 C 0.73519 0.88848 0.61411
 C838 C 0.71514 0.88814 0.57642
 C839 C 0.75121 0.89552 0.56061
 C840 C 0.77143 0.89562 0.59786
 H841 H 0.75357 0.95598 0.54651
 H842 H 0.68757 0.94254 0.57599
 H843 H 0.79036 0.95661 0.61552
 H844 H 0.72976 0.86847 0.63358
 H845 H 0.69313 0.86818 0.56481
 H846 H 0.79596 0.88169 0.60383
 C847 C 0.27218 0.39421 0.09677
 C848 C 0.26795 0.43499 0.10201
 C849 C 0.23195 0.42686 0.11773
 C850 C 0.23599 0.38634 0.11291
 C851 C 0.21186 0.42537 0.08017
 C852 C 0.24796 0.43339 0.06415
 C853 C 0.25205 0.39294 0.05934
 C854 C 0.21605 0.38482 0.07506
 H855 H 0.29715 0.38113 0.10317
 H856 H 0.28929 0.45576 0.11340
 H857 H 0.23107 0.36659 0.13276
 H858 H 0.18682 0.43820 0.07340
 H859 H 0.25267 0.45299 0.04411
 H860 H 0.19461 0.36415 0.06368
 C861 C -0.06420 0.33504 0.39702
 C862 C -0.10201 0.33527 0.37751
 C863 C -0.11842 0.32447 0.41170
 C864 C -0.08089 0.32435 0.43132
 C865 C -0.11839 0.28454 0.39895
 C866 C -0.10166 0.29530 0.36463
 C867 C -0.06409 0.29518 0.38421
 C868 C -0.08042 0.28422 0.41836
 H869 H -0.04159 0.35566 0.39612
 H870 H -0.11111 0.35637 0.36069
 H871 H -0.07268 0.33647 0.45894
 H872 H -0.14068 0.26352 0.39952
 H873 H -0.10986 0.28320 0.33700
 H874 H -0.07111 0.26303 0.43494
 C875 C 0.41635 0.78095 0.91532
 C876 C 0.41668 0.82060 0.93035
 C877 C 0.37983 0.82273 0.90998
 C878 C 0.37903 0.78329 0.89519
 C879 C 0.39767 0.83497 0.87707
 C880 C 0.43479 0.83276 0.89733
 C881 C 0.43411 0.79338 0.88245
 C882 C 0.39720 0.79549 0.86215
 H883 H 0.42447 0.75853 0.93082
 H884 H 0.42437 0.83111 0.95859
 H885 H 0.35601 0.76278 0.89410
 H886 H 0.38981 0.85726 0.86125
 H887 H 0.45805 0.85297 0.89813
 H888 H 0.38952 0.78501 0.83390
 C889 C 1.12599 0.78515 0.07161
 C890 C 1.13815 0.76992 0.03557
 C891 C 1.13584 0.80699 0.02134
 C892 C 1.12381 0.82224 0.05719
 C893 C 1.09655 0.79711 0.00661
 C894 C 1.09849 0.75976 0.02125
 C895 C 1.08667 0.77523 0.05714
 C896 C 1.08433 0.81223 0.04276
 H897 H 1.13791 0.78012 0.09858
 H898 H 1.16054 0.75264 0.03243
 H899 H 1.13442 0.84812 0.07191
 H900 H 1.08437 0.80192 -0.02030
 H901 H 1.08769 0.73384 0.00676
 H902 H 1.06191 0.82947 0.04592
 C903 C 0.62762 0.28500 0.57176
 C904 C 0.64003 0.26995 0.53576
 C905 C 0.63742 0.30699 0.52153
 C906 C 0.62514 0.32206 0.55735
 C907 C 0.59823 0.29677 0.50667
 C908 C 0.60046 0.25944 0.52131
 C909 C 0.58840 0.27474 0.55715
 C910 C 0.58577 0.31171 0.54277
 H911 H 0.63952 0.28005 0.59875
 H912 H 0.66261 0.25290 0.53269
 H913 H 0.63548 0.34801 0.57211
 H914 H 0.58607 0.30151 0.47973
 H915 H 0.58993 0.23346 0.50678
 H916 H 0.56316 0.32874 0.54585
 C917 C 0.44077 0.18900 0.57474
 C918 C 0.41031 0.20679 0.59292
 C919 C 0.39105 0.21025 0.55578
 C920 C 0.42110 0.19229 0.53747
 C921 C 0.41068 0.24742 0.55412
 C922 C 0.43033 0.24404 0.59140
 C923 C 0.46036 0.22617 0.57310
 C924 C 0.44114 0.22959 0.53590
 H925 H 0.45352 0.16504 0.58329
 H926 H 0.39737 0.19747 0.61644
 H927 H 0.41697 0.17086 0.51511
 H928 H 0.39862 0.27183 0.54586
 H929 H 0.43376 0.26515 0.61384
 H930 H 0.45365 0.23886 0.51214
 C931 C 0.92878 0.74644 0.09027
 C932 C 0.90942 0.74730 0.05240
 C933 C 0.88933 0.71088 0.05663
 C934 C 0.90830 0.70994 0.09437
 C935 C 0.91926 0.69117 0.03998
 C936 C 0.93976 0.72771 0.03584
 C937 C 0.95868 0.72682 0.07363
 C938 C 0.93864 0.69040 0.07783
 H939 H 0.93228 0.76914 0.11111
 H940 H 0.89774 0.77111 0.04215
 H941 H 0.89511 0.70269 0.11849
 H942 H 0.91500 0.66829 0.01913
 H943 H 0.95256 0.73488 0.01149
 H944 H 0.95104 0.66706 0.08836
 C945 C 0.57570 0.71589 0.88739
 C946 C 0.61359 0.73557 0.88908
 C947 C 0.61821 0.73173 0.92971
 C948 C 0.58058 0.71190 0.92805
 C949 C 0.60254 0.76782 0.93763
 C950 C 0.59752 0.77184 0.89673
 C951 C 0.56004 0.75198 0.89528
 C952 C 0.56461 0.74810 0.93584
 H953 H 0.56436 0.69444 0.86669
 H954 H 0.63351 0.73041 0.86944
 H955 H 0.57367 0.68702 0.94093
 H956 H 0.61389 0.78916 0.95843
 H957 H 0.60406 0.79665 0.88360
 H958 H 0.54447 0.75306 0.95530
 C959 C 0.07646 0.27078 0.43519
 C960 C 0.07867 0.23225 0.44639
 C961 C 0.11704 0.23255 0.43455
 C962 C 0.11514 0.27094 0.42349
 C963 C 0.10240 0.21716 0.39650
 C964 C 0.06387 0.21696 0.40821
 C965 C 0.06188 0.25528 0.39725
 C966 C 0.10007 0.25567 0.38522
 H967 H 0.06576 0.29308 0.45104
 H968 H 0.06890 0.22286 0.47140
 H969 H 0.13651 0.29310 0.42999
 H970 H 0.11322 0.19491 0.38066
 H971 H 0.04250 0.19481 0.40160
 H972 H 0.10850 0.26548 0.35983
 C973 C 0.59349 0.17710 0.65916
 C974 C 0.57417 0.15892 0.68855
 C975 C 0.57914 0.12214 0.66942
 C976 C 0.59844 0.14017 0.64012
 C977 C 0.54275 0.12226 0.64733
 C978 C 0.53766 0.15959 0.66619
 C979 C 0.55726 0.17742 0.63698
 C980 C 0.56209 0.14064 0.61787
 H981 H 0.61436 0.19991 0.66398
 H982 H 0.57927 0.16625 0.71783
 H983 H 0.62357 0.13208 0.62938
 H984 H 0.52174 0.09961 0.64237
 H985 H 0.51255 0.16779 0.67684
 H986 H 0.55700 0.13338 0.58859
 C987 C 1.05907 0.64080 0.11654
 C988 C 1.09582 0.63945 0.13779
 C989 C 1.07703 0.62138 0.16738
 C990 C 1.04023 0.62237 0.14628
 C991 C 1.07315 0.65810 0.18720
 C992 C 1.09198 0.67632 0.15754
 C993 C 1.05536 0.67753 0.13634
 C994 C 1.03625 0.65967 0.16583
 H995 H 1.05316 0.63397 0.08726
 H996 H 1.12044 0.63104 0.12623
 H997 H 1.01883 0.60007 0.14157
 H998 H 1.07908 0.66501 0.21646
 H999 H 1.11327 0.69874 0.16214
 H1000 H 1.01164 0.66823 0.17728
 C1001 C 0.98877 0.78744 0.18950
 C1002 C 1.00793 0.82019 0.21325
 C1003 C 0.98092 0.84427 0.19661
 C1004 C 0.96155 0.81193 0.17322
 C1005 C 1.00555 0.85206 0.16687
 C1006 C 1.03274 0.82774 0.18321
 C1007 C 1.01329 0.79550 0.15982
 C1008 C 0.98633 0.81968 0.14340
 H1009 H 0.98206 0.76058 0.19862
 H1010 H 1.01664 0.82071 0.24224
 H1011 H 0.93220 0.80504 0.16872
 H1012 H 1.01237 0.87879 0.15748
 H1013 H 1.06223 0.83398 0.18719
 H1014 H 0.97785 0.81955 0.11438
 C1015 C 0.49057 0.28683 0.68961
 C1016 C 0.50949 0.32014 0.71268
 C1017 C 0.48180 0.34349 0.69599
 C1018 C 0.46265 0.31060 0.67329
 C1019 C 0.50582 0.35120 0.66574
 C1020 C 0.53369 0.32762 0.68215
 C1021 C 0.51448 0.29482 0.65942
 C1022 C 0.48683 0.31827 0.64295
 H1023 H 0.48449 0.26007 0.69922
 H1024 H 0.51863 0.32123 0.74161
 H1025 H 0.43335 0.30325 0.66932
 H1026 H 0.51201 0.37783 0.65586
 H1027 H 0.56312 0.33437 0.68568
 H1028 H 0.47786 0.31752 0.61399
 C1029 C 0.45439 0.67056 0.78962
 C1030 C 0.48246 0.64773 0.77306
 C1031 C 0.47377 0.61880 0.79863
 C1032 C 0.44573 0.64142 0.81499
 C1033 C 0.50311 0.63629 0.82694
 C1034 C 0.51188 0.66589 0.80161
 C1035 C 0.48357 0.68809 0.81797
 C1036 C 0.47503 0.65909 0.84339
 H1037 H 0.43435 0.68499 0.77437
 H1038 H 0.48561 0.64321 0.74398
 H1039 H 0.41835 0.63128 0.82051
 H1040 H 0.52313 0.62189 0.84224
 H1041 H 0.53917 0.67633 0.79618
 H1042 H 0.47201 0.66410 0.87247
 C1043 C 0.01438 0.16525 0.30853
 C1044 C 0.00258 0.13564 0.33275
 C1045 C -0.02504 0.11904 0.30233
 C1046 C -0.01332 0.14799 0.27785
 C1047 C -0.05370 0.14232 0.31644
 C1048 C -0.02613 0.15908 0.34693
 C1049 C -0.01457 0.18811 0.32260
 C1050 C -0.04202 0.17149 0.29217
 H1051 H 0.04250 0.17507 0.30545
 H1052 H 0.02090 0.12058 0.34938
 H1053 H -0.00793 0.14353 0.24931
 H1054 H -0.08187 0.13279 0.31970
 H1055 H -0.03136 0.16393 0.37550
 H1056 H -0.06037 0.18659 0.27559
 C1057 C 0.05109 0.34380 0.32252
 C1058 C 0.08250 0.33877 0.29906
 C1059 C 0.06645 0.36445 0.27333
 C1060 C 0.03516 0.36943 0.29669
 C1061 C 0.04488 0.33283 0.25076
 C1062 C 0.06050 0.30669 0.27693
 C1063 C 0.02929 0.31219 0.30032
 C1064 C 0.01336 0.33771 0.27438
 H1065 H 0.05357 0.34809 0.35223
 H1066 H 0.11117 0.33948 0.30914
 H1067 H 0.02473 0.39540 0.30482
 H1068 H 0.04242 0.32845 0.22108
 H1069 H 0.07065 0.28053 0.26904
 H1070 H -0.01530 0.33702 0.26425
 C1071 C 0.55218 0.84436 0.82434
 C1072 C 0.58355 0.83940 0.80079
 C1073 C 0.56798 0.86587 0.77566
 C1074 C 0.53675 0.87081 0.79911
 C1075 C 0.54601 0.83492 0.75248
 C1076 C 0.56115 0.80798 0.77800
 C1077 C 0.53000 0.81343 0.80148
 C1078 C 0.51455 0.83975 0.77616
 H1079 H 0.55462 0.84797 0.85408
 H1080 H 0.61218 0.83953 0.81085
 H1081 H 0.52670 0.89683 0.80778
 H1082 H 0.54354 0.83113 0.72276
 H1083 H 0.57092 0.78178 0.76956
 H1084 H 0.48594 0.83966 0.76605
 C1085 C 0.61557 0.56021 0.13906
 C1086 C 0.63772 0.59632 0.13815
 C1087 C 0.66626 0.57768 0.12193
 C1088 C 0.64612 0.54235 0.12106
 C1089 C 0.68549 0.57380 0.15694
 C1090 C 0.65605 0.59250 0.17568
 C1091 C 0.63453 0.55590 0.17630
 C1092 C 0.66446 0.53695 0.15855
 H1093 H 0.58652 0.55480 0.13066
 H1094 H 0.62732 0.62108 0.12862
 H1095 H 0.64233 0.52189 0.09784
 H1096 H 0.71487 0.57990 0.16292
 H1097 H 0.66084 0.61409 0.19785
 H1098 H 0.67629 0.51224 0.16629
 C1099 C 0.11746 1.05808 0.63949
 C1100 C 0.14033 1.09395 0.63932
 C1101 C 0.16933 1.07406 0.62129
 C1102 C 0.14661 1.03815 0.62111
 C1103 C 0.18818 1.06862 0.65816
 C1104 C 0.15910 1.08855 0.67633
 C1105 C 0.13628 1.05280 0.67637
 C1106 C 0.16517 1.03260 0.65854
 H1107 H 0.08815 1.05364 0.63209
 H1108 H 0.13008 1.11931 0.63131
 H1109 H 0.14141 1.01730 0.59829
 H1110 H 0.21747 1.07308 0.66563
 H1111 H 0.16418 1.10928 0.69928
 H1112 H 0.17530 1.00724 0.66668
 C1113 C 0.18709 0.98562 0.78692
 C1114 C 0.21020 1.00369 0.82058
 C1115 C 0.19257 0.97840 0.84287
 C1116 C 0.17054 0.95934 0.81192
 C1117 C 0.16456 1.00238 0.85100
 C1118 C 0.18103 1.02978 0.82720
 C1119 C 0.15764 1.01092 0.79437
 C1120 C 0.14055 0.98423 0.81849
 H1121 H 0.19715 0.97808 0.76062
 H1122 H 0.23960 1.01074 0.82279
 H1123 H 0.16597 0.92992 0.80598
 H1124 H 0.15578 1.00842 0.87820
 H1125 H 0.18606 1.05902 0.83438
 H1126 H 0.11159 0.97575 0.81864
 C1127 C 0.68647 0.48875 0.28587
 C1128 C 0.71081 0.50796 0.31825
 C1129 C 0.69422 0.48167 0.34290
 C1130 C 0.67023 0.46224 0.31094
 C1131 C 0.66492 0.50689 0.35080
 C1132 C 0.68122 0.53337 0.32589
 C1133 C 0.65725 0.51387 0.29402
 C1134 C 0.64086 0.48763 0.31878
 H1135 H 0.69516 0.48147 0.25890
 H1136 H 0.73985 0.51615 0.31835
 H1137 H 0.66531 0.43291 0.30446
 H1138 H 0.65595 0.51428 0.37764
 H1139 H 0.68559 0.56284 0.33177
 H1140 H 0.61181 0.47971 0.31911
 C1141 C 0.79954 0.51158 0.66628
 C1142 C 0.82509 0.50354 0.63664
 C1143 C 0.79731 0.47397 0.61877
 C1144 C 0.77152 0.48194 0.64773
 C1145 C 0.81424 0.44607 0.64118
 C1146 C 0.84210 0.47560 0.65923
 C1147 C 0.81647 0.48342 0.68826
 C1148 C 0.78865 0.45401 0.67035
 H1149 H 0.79356 0.53862 0.67698
 H1150 H 0.84003 0.52390 0.62247
 H1151 H 0.74233 0.48465 0.64317
 H1152 H 0.82030 0.41895 0.63077
 H1153 H 0.87128 0.47303 0.66430
 H1154 H 0.77375 0.43363 0.68454
 C1155 C 0.34287 -0.02511 0.15719
 C1156 C 0.31432 -0.05426 0.13967
 C1157 C 0.29783 -0.02625 0.11708
 C1158 C 0.32630 0.00293 0.13443
 C1159 C 0.27251 -0.01733 0.14623
 C1160 C 0.28921 -0.04537 0.16903
 C1161 C 0.31771 -0.01634 0.18641
 C1162 C 0.30122 0.01194 0.16425
 H1163 H 0.37196 -0.02828 0.16203
 H1164 H 0.31972 -0.08166 0.12947
 H1165 H 0.34149 0.02279 0.11989
 H1166 H 0.24343 -0.01403 0.14187
 H1167 H 0.27406 -0.06525 0.18360
 H1168 H 0.29592 0.03926 0.17473
 C1169 C 0.32331 0.05281 0.34238
 C1170 C 0.29901 0.08359 0.33709
 C1171 C 0.27429 0.06797 0.36380
 C1172 C 0.29849 0.03732 0.36907
 C1173 C 0.25143 0.04534 0.33302
 C1174 C 0.27655 0.06053 0.30583
 C1175 C 0.30077 0.02999 0.31162
 C1176 C 0.27586 0.01448 0.33819
 H1177 H 0.35305 0.05577 0.34597
 H1178 H 0.30846 0.11226 0.33690
 H1179 H 0.30749 0.02776 0.39525
 H1180 H 0.22172 0.04235 0.32927
 H1181 H 0.26778 0.06981 0.27946
 H1182 H 0.26634 -0.01417 0.33842
 C1183 C 0.82239 0.55095 0.84542
 C1184 C 0.79860 0.58222 0.84072
 C1185 C 0.77347 0.56627 0.86691
 C1186 C 0.79716 0.53514 0.87159
 C1187 C 0.75053 0.54454 0.83558
 C1188 C 0.77606 0.56006 0.80893
 C1189 C 0.79977 0.52902 0.81411
 C1190 C 0.77446 0.51319 0.84015
 H1191 H 0.85213 0.55349 0.84920
 H1192 H 0.80846 0.61085 0.84125
 H1193 H 0.80582 0.52487 0.89753
 H1194 H 0.72082 0.54197 0.83163
 H1195 H 0.76763 0.57006 0.78280
 H1196 H 0.76455 0.48457 0.83967
 C1197 C 0.17522 0.65680 0.59072
 C1198 C 0.15670 0.68610 0.57146
 C1199 C 0.12003 0.66648 0.57592
 C1200 C 0.13842 0.63726 0.59514
 C1201 C 0.12066 0.64483 0.53942
 C1202 C 0.15790 0.66418 0.53485
 C1203 C 0.17608 0.63506 0.55439
 C1204 C 0.13941 0.61546 0.55870
 H1205 H 0.19790 0.66170 0.61184
 H1206 H 0.16361 0.71535 0.57684
 H1207 H 0.13030 0.62615 0.62007
 H1208 H 0.09811 0.63982 0.51820
 H1209 H 0.16615 0.67518 0.50994
 H1210 H 0.13257 0.58619 0.55333
 C1211 C 0.66198 0.16545 1.03644
 C1212 C 0.62461 0.14623 1.04071
 C1213 C 0.62394 0.16763 1.07734
 C1214 C 0.66074 0.18711 1.07317
 C1215 C 0.64205 0.13814 1.09638
 C1216 C 0.64308 0.11659 1.05980
 C1217 C 0.67988 0.13605 1.05578
 C1218 C 0.67899 0.15754 1.09225
 H1219 H 0.67042 0.17660 1.01166
 H1220 H 0.60214 0.14150 1.01939
 H1221 H 0.66781 0.21632 1.07881
 H1222 H 0.63376 0.12687 1.12116
 H1223 H 0.63608 0.08737 1.05418
 H1224 H 0.70160 0.16217 1.11346
 C1225 C 0.78948 0.18741 0.98722
 C1226 C 0.82332 0.21044 1.00492
 C1227 C 0.84522 0.19286 0.97912
 C1228 C 0.81407 0.17091 0.96040
 C1229 C 0.85386 0.16485 1.00289
 C1230 C 0.83051 0.18127 1.03082
 C1231 C 0.79748 0.15796 1.01234
 C1232 C 0.82118 0.14092 0.98510
 H1233 H 0.76304 0.19748 0.98013
 H1234 H 0.82552 0.23978 1.01209
 H1235 H 0.80764 0.16643 0.93097
 H1236 H 0.88117 0.15605 1.00848
 H1237 H 0.83817 0.18625 1.06005
 H1238 H 0.82131 0.11202 0.97647
 C1239 C 0.32534 0.68316 0.53153
 C1240 C 0.35024 0.66697 0.50490
 C1241 C 0.34177 0.69598 0.47956
 C1242 C 0.31712 0.71248 0.50600
 C1243 C 0.30994 0.67172 0.46034
 C1244 C 0.31835 0.64263 0.48583
 C1245 C 0.29360 0.65890 0.51222
 C1246 C 0.28488 0.68785 0.48699
 H1247 H 0.33140 0.68772 0.56102
 H1248 H 0.37726 0.65827 0.51218
 H1249 H 0.31692 0.74147 0.51412
 H1250 H 0.30327 0.66661 0.43098
 H1251 H 0.31898 0.61362 0.47798
 H1252 H 0.25772 0.69627 0.47982
 C1253 C 0.65626 0.84512 0.47325
 C1254 C 0.63904 0.81653 0.44396
 C1255 C 0.61620 0.80023 0.47180
 C1256 C 0.63325 0.82873 0.50112
 C1257 C 0.64535 0.77496 0.48113
 C1258 C 0.66839 0.79146 0.45326
 C1259 C 0.68547 0.82001 0.48243
 C1260 C 0.66306 0.80371 0.51054
 H1261 H 0.66106 0.87413 0.47004
 H1262 H 0.62908 0.82181 0.41640
 H1263 H 0.61848 0.84401 0.52079
 H1264 H 0.64100 0.74595 0.48446
 H1265 H 0.68319 0.77624 0.43358
 H1266 H 0.67331 0.79852 0.53802
 C1267 C 0.17048 0.28849 -0.04753
 C1268 C 0.14776 0.27150 -0.01969
 C1269 C 0.11856 0.29696 -0.02820
 C1270 C 0.14107 0.31374 -0.05602
 C1271 C 0.13594 0.32502 0.00139
 C1272 C 0.16580 0.29980 0.00999
 C1273 C 0.18789 0.31659 -0.01809
 C1274 C 0.15862 0.34188 -0.02646
 H1275 H 0.18503 0.27357 -0.06766
 H1276 H 0.14345 0.24240 -0.01680
 H1277 H 0.13082 0.31949 -0.08334
 H1278 H 0.12142 0.33999 0.02151
 H1279 H 0.17634 0.29414 0.03723
 H1280 H 0.16342 0.37099 -0.02921
 C1281 C 0.30838 0.27595 0.05917
 C1282 C 0.33511 0.25039 0.04371
 C1283 C 0.36637 0.27329 0.06554
 C1284 C 0.34011 0.29844 0.08143
 C1285 C 0.37104 0.29684 0.03437
 C1286 C 0.33967 0.27419 0.01231
 C1287 C 0.31355 0.29953 0.02807
 C1288 C 0.34480 0.32210 0.05012
 H1289 H 0.28225 0.26760 0.06911
 H1290 H 0.33124 0.22073 0.04114
 H1291 H 0.34058 0.30836 0.11010
 H1292 H 0.39698 0.30542 0.02415
 H1293 H 0.33923 0.26423 -0.01636
 H1294 H 0.34852 0.35179 0.05267
 C1295 C 0.83657 0.77584 0.51226
 C1296 C 0.86801 0.79803 0.53468
 C1297 C 0.86298 0.77409 0.56550
 C1298 C 0.83164 0.75166 0.54330
 C1299 C 0.83687 0.79929 0.58159
 C1300 C 0.84192 0.82334 0.55064
 C1301 C 0.81060 0.80124 0.52823
 C1302 C 0.80506 0.77728 0.55896
 H1303 H 0.83620 0.76622 0.48352
 H1304 H 0.89408 0.80655 0.52468
 H1305 H 0.82752 0.72201 0.54035
 H1306 H 0.83726 0.80887 0.61035
 H1307 H 0.84590 0.85301 0.55358
 H1308 H 0.77881 0.76899 0.56870
   
