data_POSCAR
  _audit_creation_date              2014-09-24
  _audit_creation_method            'ToBaCCo'
  _symmetry_space_group_name_H-M    'P1'
  _symmetry_Int_Tables_number       1
  _symmetry_cell_setting            triclinic
  loop_
  _symmetry_equiv_pos_as_xyz
 x,y,z
_cell_length_a 56.6835
_cell_length_b 56.5708
_cell_length_c 55.8860
_cell_angle_alpha 89.157500
_cell_angle_beta 88.463000
_cell_angle_gamma 89.585000
loop_
  _atom_site_label
  _atom_site_type_symbol
  _atom_site_fract_x
  _atom_site_fract_y
  _atom_site_fract_z
C1 C 0.73761 0.61555 1.03021
 C2 C 0.75067 0.62781 1.01246
 C3 C 0.77216 0.63824 1.01806
 C4 C 0.78070 0.63696 1.04153
 C5 C 0.76737 0.62399 1.05894
 C6 C 0.74572 0.61328 1.05373
 C7 C 0.74154 0.62983 0.98798
 C8 C 0.71856 0.63834 0.98437
 C9 C 0.70918 0.63893 0.96138
 C10 C 0.72308 0.63072 0.94196
 C11 C 0.74609 0.62205 0.94526
 C12 C 0.75530 0.62203 0.96837
 H13 H 0.72076 0.60836 1.02548
 H14 H 0.78129 0.64842 1.00419
 H15 H 0.70786 0.64411 0.99958
 H16 H 0.77300 0.61545 0.97129
 H17 H 0.77485 0.62060 1.07622
 H18 H 0.71577 0.63075 0.92426
 C19 C 0.75055 0.40144 0.46840
 C20 C 0.76086 0.38982 0.48785
 C21 C 0.78265 0.37818 0.48460
 C22 C 0.79382 0.37748 0.46183
 C23 C 0.78312 0.38911 0.44247
 C24 C 0.76162 0.40120 0.44569
 C25 C 0.74826 0.38892 0.51130
 C26 C 0.72534 0.37976 0.51310
 C27 C 0.71315 0.37867 0.53526
 C28 C 0.72408 0.38722 0.55565
 C29 C 0.74693 0.39675 0.55412
 C30 C 0.75900 0.39728 0.53180
 H31 H 0.73368 0.41036 0.47087
 H32 H 0.79031 0.36880 0.49958
 H33 H 0.71706 0.37341 0.49718
 H34 H 0.77649 0.40483 0.53013
 H35 H 0.79164 0.38907 0.42489
 H36 H 0.71500 0.38584 0.57291
 C37 C 0.23770 -0.10452 -0.02865
 C38 C 0.24919 -0.11556 -0.00964
 C39 C 0.27167 -0.12560 -0.01348
 C40 C 0.28276 -0.12523 -0.03648
 C41 C 0.27075 -0.11366 -0.05527
 C42 C 0.24843 -0.10327 -0.05147
 C43 C 0.23748 -0.11659 0.01429
 C44 C 0.21494 -0.12648 0.01722
 C45 C 0.20292 -0.12659 0.03969
 C46 C 0.21419 -0.11607 0.05911
 C47 C 0.23682 -0.10620 0.05638
 C48 C 0.24842 -0.10678 0.03391
 H49 H 0.22034 -0.09679 -0.02559
 H50 H 0.27961 -0.13481 0.00140
 H51 H 0.20665 -0.13331 0.00156
 H52 H 0.26590 -0.09934 0.03154
 H53 H 0.27908 -0.11150 -0.07279
 H54 H 0.20582 -0.11603 0.07672
 C55 C 0.24825 0.11756 0.52992
 C56 C 0.26013 0.12906 0.51075
 C57 C 0.28124 0.14104 0.51480
 C58 C 0.28998 0.14221 0.53801
 C59 C 0.27799 0.13047 0.55695
 C60 C 0.25724 0.11789 0.55305
 C61 C 0.24997 0.12894 0.48669
 C62 C 0.22649 0.13621 0.48369
 C63 C 0.21630 0.13557 0.46112
 C64 C 0.22987 0.12734 0.44152
 C65 C 0.25338 0.11990 0.44420
 C66 C 0.26339 0.12097 0.46690
 H67 H 0.23224 0.10791 0.52664
 H68 H 0.29028 0.15025 0.50013
 H69 H 0.21612 0.14220 0.49903
 H70 H 0.28151 0.11536 0.46928
 H71 H 0.28479 0.13130 0.57486
 H72 H 0.22203 0.12659 0.42409
 C73 C 0.11656 0.52782 0.24213
 C74 C 0.12649 0.50830 0.25402
 C75 C 0.13924 0.51162 0.27481
 C76 C 0.14291 0.53446 0.28314
 C77 C 0.13292 0.55392 0.27116
 C78 C 0.11926 0.55101 0.25064
 C79 C 0.12461 0.48456 0.24377
 C80 C 0.13465 0.48011 0.22108
 C81 C 0.13324 0.45759 0.21102
 C82 C 0.12102 0.43968 0.22378
 C83 C 0.11077 0.44390 0.24654
 C84 C 0.11292 0.46643 0.25653
 H85 H 0.10749 0.52466 0.22570
 H86 H 0.14718 0.49656 0.28381
 H87 H 0.14420 0.49408 0.21164
 H88 H 0.10549 0.46996 0.27419
 H89 H 0.13510 0.57119 0.27883
 H90 H 0.11907 0.42254 0.21573
 C91 C -0.10393 -0.03385 0.24130
 C92 C -0.11393 -0.01546 0.25466
 C93 C -0.12320 -0.02006 0.27775
 C94 C -0.12272 -0.04309 0.28784
 C95 C -0.11214 -0.06130 0.27409
 C96 C -0.10281 -0.05687 0.25090
 C97 C -0.11429 0.00881 0.24463
 C98 C -0.12620 0.01386 0.22346
 C99 C -0.12756 0.03721 0.21421
 C100 C -0.11557 0.05509 0.22638
 C101 C -0.10334 0.05013 0.24742
 C102 C -0.10307 0.02695 0.25658
 H103 H -0.09646 -0.03001 0.22363
 H104 H -0.13020 -0.00532 0.28789
 H105 H -0.13555 -0.00040 0.21530
 H106 H -0.09412 0.02292 0.27305
 H107 H -0.11241 -0.07939 0.28062
 H108 H -0.11464 0.07285 0.21903
 C109 C 0.40013 0.47094 0.73712
 C110 C 0.38861 0.48891 0.74989
 C111 C 0.37843 0.48395 0.77254
 C112 C 0.37964 0.46107 0.78289
 C113 C 0.39168 0.44331 0.76975
 C114 C 0.40189 0.44809 0.74700
 C115 C 0.38792 0.51326 0.74010
 C116 C 0.37699 0.51830 0.71834
 C117 C 0.37486 0.54179 0.71010
 C118 C 0.38472 0.56003 0.72333
 C119 C 0.39597 0.55517 0.74493
 C120 C 0.39736 0.53170 0.75325
 H121 H 0.40792 0.47485 0.71960
 H122 H 0.37032 0.49841 0.78229
 H123 H 0.36912 0.50412 0.70854
 H124 H 0.40597 0.52765 0.76991
 H125 H 0.39273 0.42542 0.77673
 H126 H 0.38307 0.57817 0.71708
 C127 C 0.61677 1.03249 0.74341
 C128 C 0.62493 1.01288 0.75638
 C129 C 0.63508 1.01605 0.77873
 C130 C 0.63765 1.03888 0.78823
 C131 C 0.62870 1.05829 0.77494
 C132 C 0.61831 1.05527 0.75267
 C133 C 0.62323 0.98903 0.74621
 C134 C 0.63357 0.98429 0.72369
 C135 C 0.63204 0.96171 0.71378
 C136 C 0.61942 0.94404 0.72648
 C137 C 0.60887 0.94853 0.74903
 C138 C 0.61113 0.97109 0.75889
 H139 H 0.60915 1.02992 0.72607
 H140 H 0.64217 1.00062 0.78775
 H141 H 0.64337 0.99808 0.71424
 H142 H 0.60338 0.97481 0.77637
 H143 H 0.62863 1.07586 0.78230
 H144 H 0.61736 0.92687 0.71851
 C145 C -0.02789 0.23878 -0.10252
 C146 C -0.00968 0.25075 -0.11482
 C147 C -0.01412 0.27286 -0.12558
 C148 C -0.03686 0.28333 -0.12435
 C149 C -0.05472 0.27103 -0.11116
 C150 C -0.05042 0.24891 -0.10034
 C151 C 0.01423 0.24025 -0.11591
 C152 C 0.01794 0.21770 -0.12544
 C153 C 0.04050 0.20689 -0.12549
 C154 C 0.05918 0.21942 -0.11528
 C155 C 0.05556 0.24198 -0.10559
 C156 C 0.03307 0.25236 -0.10626
 H157 H -0.02423 0.22189 -0.09393
 H158 H 0.00017 0.28102 -0.13580
 H159 H 0.00282 0.20845 -0.13198
 H160 H 0.03006 0.26978 -0.09890
 H161 H -0.07210 0.27866 -0.10863
 H162 H 0.07683 0.21206 -0.11521
 C163 C 0.53420 0.24726 0.11139
 C164 C 0.51374 0.25808 0.12082
 C165 C 0.51549 0.27931 0.13332
 C166 C 0.53774 0.28910 0.13723
 C167 C 0.55811 0.27806 0.12766
 C168 C 0.55647 0.25729 0.11438
 C169 C 0.49076 0.24651 0.11798
 C170 C 0.48757 0.22315 0.12624
 C171 C 0.46660 0.21115 0.12193
 C172 C 0.44878 0.22273 0.10924
 C173 C 0.45166 0.24610 0.10083
 C174 C 0.47269 0.25801 0.10557
 H175 H 0.53271 0.23083 0.10182
 H176 H 0.49973 0.28757 0.14087
 H177 H 0.50162 0.21420 0.13563
 H178 H 0.47548 0.27582 0.09872
 H179 H 0.57520 0.28594 0.13026
 H180 H 0.43240 0.21359 0.10630
 C181 C 1.02423 0.74227 0.61542
 C182 C 1.00572 0.75444 0.62691
 C183 C 1.00997 0.77597 0.63807
 C184 C 1.03298 0.78540 0.63843
 C185 C 1.05147 0.77233 0.62723
 C186 C 1.04727 0.75113 0.61530
 C187 C 0.98178 0.74452 0.62691
 C188 C 0.97683 0.72363 0.63985
 C189 C 0.95435 0.71341 0.63931
 C190 C 0.93706 0.72417 0.62512
 C191 C 0.94183 0.74502 0.61194
 C192 C 0.96425 0.75528 0.61321
 H193 H 1.02039 0.72613 0.60613
 H194 H 0.99501 0.78539 0.64579
 H195 H 0.99045 0.71565 0.65062
 H196 H 0.96838 0.77117 0.60290
 H197 H 1.06955 0.77791 0.62868
 H198 H 0.91978 0.71624 0.62425
 C199 C 0.46344 0.74627 0.39323
 C200 C 0.48258 0.75759 0.38168
 C201 C 0.47929 0.77978 0.37066
 C202 C 0.45685 0.79049 0.37071
 C203 C 0.43789 0.77904 0.38265
 C204 C 0.44102 0.75698 0.39406
 C205 C 0.50608 0.74618 0.38136
 C206 C 0.50925 0.72366 0.37160
 C207 C 0.53147 0.71247 0.37171
 C208 C 0.55044 0.72398 0.38222
 C209 C 0.54739 0.74644 0.39237
 C210 C 0.52518 0.75754 0.39151
 H211 H 0.46625 0.72938 0.40214
 H212 H 0.49406 0.78826 0.36140
 H213 H 0.49435 0.71484 0.36398
 H214 H 0.52260 0.77495 0.39902
 H215 H 0.42058 0.78727 0.38291
 H216 H 0.56757 0.71542 0.38262
 C217 C 0.40942 -0.01918 0.27384
 H218 H 0.41274 -0.00122 0.27913
 C219 C 0.41994 -0.03813 0.28611
 H220 H 0.43140 -0.03460 0.30081
 C221 C 0.38906 -0.04573 0.24947
 H222 H 0.37650 -0.04883 0.23572
 C223 C 0.39918 -0.06504 0.26112
 H224 H 0.39467 -0.08270 0.25567
 N225 N 0.39401 -0.02331 0.25613
 C226 C 0.38166 0.03941 0.21206
 H227 H 0.36261 0.03823 0.21259
 C228 C 0.39266 0.05688 0.19815
 H229 H 0.38189 0.06924 0.18817
 C230 C 0.41859 0.02494 0.22507
 H231 H 0.42852 0.01236 0.23560
 C232 C 0.43041 0.04246 0.21147
 H233 H 0.44949 0.04326 0.21152
 Zn234 Zn 0.37605 0.00187 0.24291
 N235 N 0.39461 0.02394 0.22521
 C236 C 0.36480 0.04102 0.27175
 N237 N 0.36027 0.01774 0.26843
 C238 C 0.34549 0.00560 0.28365
 C239 C 0.33394 0.01714 0.30264
 C240 C 0.35377 0.05318 0.29051
 C241 C 0.36407 -0.01900 0.20042
 C242 C 0.34982 -0.02862 0.18317
 C243 C 0.31567 -0.02006 0.20845
 C244 C 0.33062 -0.01047 0.22524
 N245 N 0.35438 -0.01045 0.22110
 H246 H 0.37717 0.05025 0.26001
 H247 H 0.34256 -0.01304 0.28093
 H248 H 0.32180 0.00731 0.31421
 H249 H 0.35790 0.07164 0.29290
 H250 H 0.38301 -0.01857 0.19751
 H251 H 0.35800 -0.03582 0.16710
 H252 H 0.29679 -0.01998 0.21198
 H253 H 0.32319 -0.00311 0.24151
 C254 C 0.41733 0.05863 0.19771
 C255 C 0.41433 -0.06144 0.28014
 C256 C 0.32528 -0.02936 0.18711
 C257 C 0.33792 0.04133 0.30616
 C258 C 0.08891 1.01727 0.78292
 H259 H 0.09051 0.99953 0.79016
 C260 C 0.07742 1.03467 0.79649
 H261 H 0.06967 1.02997 0.81382
 C262 C 0.09869 1.04541 0.75253
 H263 H 0.10782 1.04994 0.73596
 C264 C 0.08726 1.06327 0.76540
 H265 H 0.08774 1.08120 0.75836
 N266 N 0.09962 1.02295 0.76153
 C267 C 0.11027 0.96769 0.71121
 H268 H 0.12441 0.97660 0.70153
 C269 C 0.10005 0.94801 0.70112
 H270 H 0.10600 0.94263 0.68343
 C271 C 0.08603 0.96336 0.74614
 H272 H 0.08099 0.96911 0.76390
 C273 C 0.07539 0.94338 0.73674
 H274 H 0.06225 0.93393 0.74745
 Zn275 Zn 0.12010 1.00020 0.74706
 N276 N 0.10325 0.97500 0.73338
 C277 C 0.14246 0.96411 0.77411
 N278 N 0.13929 0.98785 0.77144
 C279 C 0.14880 1.00330 0.78683
 C280 C 0.16171 0.99501 0.80618
 C281 C 0.15539 0.95506 0.79314
 C282 C 0.12877 1.02382 0.70302
 C283 C 0.14219 1.03460 0.68470
 C284 C 0.17715 1.02712 0.70747
 C285 C 0.16305 1.01641 0.72536
 N286 N 0.13929 1.01506 0.72290
 H287 H 0.13471 0.95216 0.76166
 H288 H 0.14597 1.02209 0.78428
 H289 H 0.16903 1.00756 0.81835
 H290 H 0.15730 0.93609 0.79532
 H291 H 0.10988 1.02222 0.70134
 H292 H 0.13346 1.04110 0.66889
 H293 H 0.19598 1.02834 0.70994
 H294 H 0.17114 1.00919 0.74118
 C295 C 0.08267 0.93527 0.71405
 C296 C 0.07697 1.05814 0.78797
 C297 C 0.16674 1.03641 0.68679
 C298 C 0.16495 0.97058 0.80964
 C299 C 0.57584 0.52345 0.27273
 H300 H 0.56549 0.50967 0.26503
 C301 C 0.56454 0.54209 0.28482
 H302 H 0.54547 0.54250 0.28637
 C303 C 0.61326 0.53961 0.28057
 H304 H 0.63229 0.53856 0.27869
 C305 C 0.60279 0.55836 0.29278
 H306 H 0.61395 0.57183 0.29998
 N307 N 0.59981 0.52277 0.27062
 C308 C 0.60595 0.45126 0.25024
 H309 H 0.62093 0.44837 0.26143
 C310 C 0.59446 0.43177 0.24123
 H311 H 0.60079 0.41424 0.24589
 C312 C 0.58123 0.47742 0.22873
 H313 H 0.57658 0.49530 0.22350
 C314 C 0.56918 0.45829 0.21923
 H315 H 0.55498 0.46165 0.20704
 Zn316 Zn 0.61768 0.49911 0.25466
 N317 N 0.59918 0.47359 0.24404
 C318 C 0.63057 0.47712 0.29721
 N319 N 0.63969 0.48780 0.27710
 C320 C 0.66335 0.49105 0.27395
 C321 C 0.67888 0.48285 0.29129
 C322 C 0.64545 0.46820 0.31467
 C323 C 0.62981 0.53568 0.22154
 C324 C 0.64155 0.54574 0.20169
 C325 C 0.66005 0.50792 0.19393
 C326 C 0.64798 0.49858 0.21402
 N327 N 0.63347 0.51258 0.22753
 H328 H 0.61165 0.47527 0.29948
 H329 H 0.67018 0.50017 0.25815
 H330 H 0.69769 0.48543 0.28863
 H331 H 0.63796 0.45947 0.33046
 H332 H 0.61769 0.54637 0.23205
 H333 H 0.63833 0.56415 0.19719
 H334 H 0.67192 0.49664 0.18367
 H335 H 0.65035 0.48018 0.21902
 C336 C 0.57585 0.43505 0.22542
 C337 C 0.57812 0.55986 0.29504
 C338 C 0.65704 0.53188 0.18768
 C339 C 0.66990 0.47103 0.31177
 C340 C 0.91522 0.47107 0.77449
 H341 H 0.92538 0.48657 0.76955
 C342 C 0.92599 0.45210 0.78649
 H343 H 0.94441 0.45329 0.79092
 C344 C 0.87871 0.45090 0.77533
 H345 H 0.86024 0.45062 0.77097
 C346 C 0.88873 0.43160 0.78705
 H347 H 0.87783 0.41637 0.79118
 N348 N 0.89189 0.47020 0.76948
 C349 C 0.89309 0.52132 0.71519
 H350 H 0.88264 0.50958 0.70483
 C351 C 0.90278 0.54132 0.70408
 H352 H 0.89998 0.54450 0.68520
 C353 C 0.90790 0.53262 0.75258
 H354 H 0.90882 0.52965 0.77170
 C355 C 0.91803 0.55290 0.74208
 H356 H 0.92692 0.56539 0.75318
 Zn357 Zn 0.87517 0.49506 0.75445
 N358 N 0.89515 0.51770 0.73917
 C359 C 0.84669 0.53238 0.77134
 N360 N 0.85649 0.51126 0.77764
 C361 C 0.85436 0.50262 0.80042
 C362 C 0.84192 0.51534 0.81791
 C363 C 0.83428 0.54581 0.78834
 C364 C 0.86638 0.46551 0.71631
 C365 C 0.85365 0.45537 0.69814
 C366 C 0.81939 0.47784 0.71125
 C367 C 0.83277 0.48745 0.72932
 N368 N 0.85591 0.48142 0.73127
 H369 H 0.84898 0.53903 0.75318
 H370 H 0.86247 0.48594 0.80519
 H371 H 0.84020 0.50793 0.83583
 H372 H 0.82719 0.56286 0.78306
 H373 H 0.88478 0.46091 0.71839
 H374 H 0.86235 0.44265 0.68655
 H375 H 0.80121 0.48342 0.70954
 H376 H 0.82477 0.50004 0.74147
 C377 C 0.91466 0.55782 0.71772
 C378 C 0.91259 0.43211 0.79317
 C379 C 0.82988 0.46171 0.69520
 C380 C 0.83187 0.53740 0.81207
 C381 C 0.28598 0.40589 -0.02489
 H382 H 0.29205 0.40553 -0.00670
 C383 C 0.29900 0.41789 -0.04281
 H384 H 0.31489 0.42711 -0.03822
 C385 C 0.25868 0.39310 -0.05328
 H386 H 0.24356 0.38265 -0.05756
 C387 C 0.27098 0.40504 -0.07164
 H388 H 0.26504 0.40366 -0.08982
 N389 N 0.26649 0.39344 -0.03048
 C390 C 0.22584 0.37529 0.03436
 H391 H 0.22500 0.35646 0.03141
 C392 C 0.21461 0.38494 0.05441
 H393 H 0.20492 0.37342 0.06673
 C394 C 0.23933 0.41309 0.02148
 H395 H 0.24904 0.42387 0.00855
 C396 C 0.22818 0.42357 0.04139
 H397 H 0.22954 0.44246 0.04379
 Zn398 Zn 0.25296 0.37289 -0.00696
 N399 N 0.23822 0.38928 0.01862
 C400 C 0.28246 0.35413 0.02872
 N401 N 0.27771 0.35378 0.00500
 C402 C 0.29159 0.34140 -0.01067
 C403 C 0.31114 0.32866 -0.00260
 C404 C 0.30169 0.34158 0.03754
 C405 C 0.20938 0.36629 -0.02690
 C406 C 0.19027 0.35417 -0.03578
 C407 C 0.21220 0.31765 -0.03133
 C408 C 0.23097 0.33053 -0.02248
 N409 N 0.22921 0.35442 -0.02050
 H410 H 0.27164 0.36447 0.04087
 H411 H 0.28774 0.34184 -0.02953
 H412 H 0.32227 0.31934 -0.01543
 H413 H 0.30491 0.34193 0.05654
 H414 H 0.20839 0.38527 -0.02489
 H415 H 0.17473 0.36404 -0.04095
 H416 H 0.21367 0.29860 -0.03241
 H417 H 0.24671 0.32138 -0.01683
 C418 C 0.21591 0.40933 0.05831
 C419 C 0.29176 0.41714 -0.06663
 C420 C 0.19142 0.32949 -0.03792
 C421 C 0.31649 0.32879 0.02182
 C422 C 0.78178 0.08747 1.02726
 H423 H 0.79209 0.09042 1.01094
 C424 C 0.79228 0.07675 1.04705
 H425 H 0.81069 0.07156 1.04572
 C426 C 0.74603 0.09286 1.04949
 H427 H 0.72828 0.09978 1.05074
 C428 C 0.75574 0.08207 1.06958
 H429 H 0.74506 0.08045 1.08587
 N430 N 0.75931 0.09602 1.02908
 C431 C 0.72368 0.11604 0.96363
 H432 H 0.72297 0.13490 0.96651
 C433 C 0.71349 0.10663 0.94353
 H434 H 0.70468 0.11840 0.93113
 C435 C 0.73590 0.07790 0.97664
 H436 H 0.74484 0.06691 0.98960
 C437 C 0.72580 0.06767 0.95668
 H438 H 0.72713 0.04874 0.95428
 Zn439 Zn 0.74888 0.11736 1.00505
 N440 N 0.73492 0.10174 0.97947
 C441 C 0.78092 0.13530 0.96951
 N442 N 0.77548 0.13461 0.99336
 C443 C 0.78935 0.14541 1.00935
 C444 C 0.80925 0.15803 1.00146
 C445 C 0.80058 0.14775 0.96085
 C446 C 0.70392 0.12937 1.02294
 C447 C 0.68621 0.14355 1.03311
 C448 C 0.71365 0.17603 1.03296
 C449 C 0.73084 0.16121 1.02273
 N450 N 0.72584 0.13821 1.01834
 H451 H 0.77004 0.12623 0.95707
 H452 H 0.78496 0.14415 1.02828
 H453 H 0.82013 0.16637 1.01449
 H454 H 0.80423 0.14851 0.94174
 H455 H 0.70027 0.11113 1.01889
 H456 H 0.66907 0.13596 1.03718
 H457 H 0.71795 0.19428 1.03634
 H458 H 0.74814 0.16815 1.01842
 C459 C 0.71473 0.08220 0.93965
 C460 C 0.77948 0.07480 1.06886
 C461 C 0.69103 0.16718 1.03844
 C462 C 0.81503 0.15940 0.97688
 C463 C 0.27724 0.58852 0.52200
 H464 H 0.28382 0.58620 0.50384
 C465 C 0.28989 0.57908 0.54119
 H466 H 0.30610 0.56934 0.53768
 C467 C 0.24942 0.60594 0.54891
 H468 H 0.23436 0.61729 0.55216
 C469 C 0.26144 0.59693 0.56843
 H470 H 0.25501 0.60096 0.58635
 N471 N 0.25763 0.60205 0.52621
 C472 C 0.21966 0.61550 0.46047
 H473 H 0.21634 0.63399 0.46401
 C474 C 0.21166 0.60574 0.43956
 H475 H 0.20181 0.61676 0.42730
 C476 C 0.23694 0.57896 0.47213
 H477 H 0.24710 0.56879 0.48479
 C478 C 0.22917 0.56837 0.45121
 H479 H 0.23347 0.55003 0.44780
 Zn480 Zn 0.24433 0.62033 0.50112
 N481 N 0.23251 0.60231 0.47596
 C482 C 0.27487 0.63923 0.46494
 N483 N 0.26848 0.64027 0.48853
 C484 C 0.27999 0.65453 0.50368
 C485 C 0.29864 0.66863 0.49516
 C486 C 0.29331 0.65304 0.45568
 C487 C 0.19985 0.62641 0.52278
 C488 C 0.18057 0.63851 0.53279
 C489 C 0.19941 0.67534 0.52156
 C490 C 0.21860 0.66250 0.51221
 N491 N 0.21863 0.63848 0.51335
 H492 H 0.26588 0.62749 0.45322
 H493 H 0.27481 0.65472 0.52245
 H494 H 0.30784 0.67956 0.50757
 H495 H 0.29786 0.65212 0.43677
 H496 H 0.20021 0.60729 0.52311
 H497 H 0.16643 0.62837 0.54119
 H498 H 0.19968 0.69443 0.52014
 H499 H 0.23338 0.67175 0.50395
 C500 C 0.21690 0.58208 0.43436
 C501 C 0.28235 0.58399 0.56474
 C502 C 0.18014 0.66337 0.53240
 C503 C 0.30559 0.66791 0.47085
 C504 C 0.78157 0.90129 0.47886
 H505 H 0.78737 0.90061 0.49715
 C506 C 0.79523 0.91294 0.46120
 H507 H 0.81138 0.92155 0.46606
 C508 C 0.75416 0.88975 0.45003
 H509 H 0.73870 0.87993 0.44549
 C510 C 0.76710 0.90139 0.43191
 H511 H 0.76131 0.90044 0.41364
 N512 N 0.76168 0.88967 0.47294
 C513 C 0.71903 0.87411 0.53711
 H514 H 0.71715 0.85534 0.53431
 C515 C 0.70825 0.88451 0.55702
 H516 H 0.69783 0.87365 0.56935
 C517 C 0.73486 0.91095 0.52416
 H518 H 0.74536 0.92107 0.51129
 C519 C 0.72424 0.92217 0.54392
 H520 H 0.72680 0.94093 0.54626
 Zn521 Zn 0.74688 0.86989 0.49637
 N522 N 0.73237 0.88725 0.52143
 C523 C 0.77516 0.85112 0.53294
 N524 N 0.77069 0.85010 0.50919
 C525 C 0.78438 0.83677 0.49416
 C526 C 0.80351 0.82384 0.50293
 C527 C 0.79400 0.83848 0.54243
 C528 C 0.70350 0.86471 0.47552
 C529 C 0.68420 0.85324 0.46619
 C530 C 0.70464 0.81598 0.47149
 C531 C 0.72363 0.82821 0.48078
 N532 N 0.72272 0.85217 0.48252
 H533 H 0.76452 0.86218 0.54458
 H534 H 0.78077 0.83667 0.47526
 H535 H 0.81454 0.81378 0.49062
 H536 H 0.79712 0.83951 0.56142
 H537 H 0.70317 0.88372 0.47735
 H538 H 0.66919 0.86365 0.46051
 H539 H 0.70544 0.79688 0.47058
 H540 H 0.73888 0.81854 0.48690
 C541 C 0.71106 0.90877 0.56085
 C542 C 0.78821 0.91272 0.43729
 C543 C 0.68450 0.82853 0.46423
 C544 C 0.80868 0.82483 0.52736
 C545 C -0.01912 0.27845 0.41051
 H546 H -0.00148 0.28562 0.41024
 C547 C -0.03772 0.29089 0.42166
 H548 H -0.03418 0.30762 0.42996
 C549 C -0.04548 0.24900 0.39815
 H550 H -0.04872 0.23310 0.38838
 C551 C -0.06446 0.26069 0.40918
 H552 H -0.08193 0.25320 0.40821
 N553 N -0.02340 0.25817 0.39862
 C554 C 0.03924 0.21579 0.38347
 H555 H 0.03618 0.21347 0.36463
 C556 C 0.05752 0.20349 0.39425
 H557 H 0.06860 0.19178 0.38359
 C558 C 0.02855 0.23409 0.42014
 H559 H 0.01704 0.24594 0.43008
 C560 C 0.04710 0.22241 0.43162
 H561 H 0.04986 0.22527 0.45045
 Zn562 Zn 0.00076 0.24492 0.37880
 N563 N 0.02511 0.23061 0.39644
 C564 C 0.03700 0.27428 0.36000
 N565 N 0.01354 0.26957 0.35933
 C566 C -0.00121 0.28321 0.34610
 C567 C 0.00757 0.30242 0.33270
 C568 C 0.04650 0.29332 0.34696
 C569 C -0.01809 0.20050 0.37178
 C570 C -0.02680 0.18139 0.35937
 C571 C -0.02268 0.20428 0.32267
 C572 C -0.01390 0.22298 0.33581
 N573 N -0.01197 0.22081 0.35996
 H574 H 0.04837 0.26358 0.37103
 H575 H -0.01987 0.27929 0.34617
 H576 H -0.00443 0.31295 0.32212
 H577 H 0.06512 0.29705 0.34824
 H578 H -0.01611 0.19917 0.39096
 H579 H -0.03184 0.16550 0.36920
 H580 H -0.02394 0.20617 0.30344
 H581 H -0.00847 0.23907 0.32667
 C582 C 0.06163 0.20671 0.41859
 C583 C -0.06087 0.28232 0.42046
 C584 C -0.02916 0.18312 0.33448
 C585 C 0.03173 0.30777 0.33311
 C586 C 1.01550 0.77561 0.08595
 H587 H 0.99730 0.78151 0.08673
 C588 C 1.03258 0.78936 0.07389
 H589 H 1.02732 0.80563 0.06501
 C590 C 1.04475 0.74812 0.09803
 H591 H 1.04971 0.73267 0.10830
 C592 C 1.06230 0.76116 0.08601
 H593 H 1.08050 0.75540 0.08718
 N594 N 1.02192 0.75571 0.09817
 C595 C 0.96061 0.71325 0.11881
 H596 H 0.96489 0.71101 0.13746
 C597 C 0.93987 0.70378 0.11046
 H598 H 0.92836 0.69397 0.12271
 C599 C 0.97009 0.72961 0.08047
 H600 H 0.98174 0.74015 0.06907
 C601 C 0.94946 0.72018 0.07124
 H602 H 0.94526 0.72351 0.05270
 Zn603 Zn 0.99962 0.74157 0.11970
 N604 N 0.97485 0.72648 0.10405
 C605 C 0.96280 0.77000 0.13893
 N606 N 0.98653 0.76620 0.13869
 C607 C 1.00116 0.78093 0.15022
 C608 C 0.99200 0.80046 0.16252
 C609 C 0.95293 0.78918 0.15102
 C610 C 1.02239 0.69848 0.12781
 C611 C 1.03381 0.68067 0.14069
 C612 C 1.02845 0.70384 0.17643
 C613 C 1.01715 0.72125 0.16282
 N614 N 1.01465 0.71841 0.13890
 H615 H 0.95141 0.75852 0.12930
 H616 H 1.02002 0.77781 0.14935
 H617 H 1.00395 0.81233 0.17108
 H618 H 0.93398 0.79174 0.15101
 H619 H 1.01992 0.69658 0.10881
 H620 H 1.04037 0.66524 0.13134
 H621 H 1.03018 0.70635 0.19546
 H622 H 1.01041 0.73699 0.17141
 C623 C 0.93377 0.70771 0.08658
 C624 C 1.05642 0.78244 0.07433
 C625 C 1.03708 0.68326 0.16533
 C626 C 0.96757 0.80493 0.16275
 C627 C 0.52427 0.28266 0.58165
 H628 H 0.50614 0.28875 0.58257
 C629 C 0.54128 0.29599 0.56901
 H630 H 0.53597 0.31203 0.55976
 C631 C 0.55347 0.25522 0.59393
 H632 H 0.55842 0.23992 0.60445
 C633 C 0.57098 0.26793 0.58151
 H634 H 0.58915 0.26209 0.58271
 N635 N 0.53069 0.26294 0.59416
 C636 C 0.47028 0.21972 0.61544
 H637 H 0.47570 0.21610 0.63354
 C638 C 0.44959 0.20989 0.60735
 H639 H 0.43946 0.19832 0.61925
 C640 C 0.47691 0.23952 0.57822
 H641 H 0.48749 0.25138 0.56712
 C642 C 0.45612 0.23010 0.56938
 H643 H 0.45077 0.23493 0.55151
 Zn644 Zn 0.50865 0.24917 0.61618
 N645 N 0.48322 0.23458 0.60109
 C646 C 0.47289 0.27721 0.63811
 N647 N 0.49660 0.27383 0.63563
 C648 C 0.51206 0.28884 0.64560
 C649 C 0.50379 0.30825 0.65863
 C650 C 0.46387 0.29626 0.65111
 C651 C 0.53070 0.20553 0.62409
 C652 C 0.54164 0.18746 0.63703
 C653 C 0.53778 0.21125 0.67249
 C654 C 0.52685 0.22887 0.65886
 N655 N 0.52374 0.22581 0.63506
 H656 H 0.46086 0.26541 0.62969
 H657 H 0.53084 0.28590 0.64310
 H658 H 0.51632 0.32005 0.66642
 H659 H 0.44495 0.29890 0.65248
 H660 H 0.52779 0.20348 0.60518
 H661 H 0.54740 0.17162 0.62786
 H662 H 0.53994 0.21392 0.69145
 H663 H 0.52079 0.24492 0.66735
 C664 C 0.44189 0.21553 0.58429
 C665 C 0.56512 0.28899 0.56937
 C666 C 0.54536 0.19021 0.66157
 C667 C 0.47938 0.31218 0.66142
 C668 C 0.47386 0.78419 0.91195
 H669 H 0.49153 0.79125 0.91249
 C670 C 0.45496 0.79642 0.92289
 H671 H 0.45826 0.81284 0.93188
 C672 C 0.44778 0.75532 0.89784
 H673 H 0.44472 0.73978 0.88747
 C674 C 0.42855 0.76681 0.90856
 H675 H 0.41109 0.75950 0.90675
 N676 N 0.46989 0.76429 0.89931
 C677 C 0.53262 0.72177 0.88432
 H678 H 0.52954 0.71965 0.86546
 C679 C 0.55091 0.70935 0.89494
 H680 H 0.56194 0.69774 0.88413
 C681 C 0.52204 0.73977 0.92118
 H682 H 0.51059 0.75157 0.93125
 C683 C 0.54062 0.72795 0.93250
 H684 H 0.54344 0.73064 0.95135
 Zn685 Zn 0.49436 0.75108 0.87973
 N686 N 0.51854 0.73650 0.89746
 C687 C 0.53096 0.78029 0.86159
 N688 N 0.50749 0.77574 0.86049
 C689 C 0.49309 0.78949 0.84697
 C690 C 0.50226 0.80861 0.83369
 C691 C 0.54083 0.79921 0.84868
 C692 C 0.47518 0.70693 0.87261
 C693 C 0.46538 0.68825 0.86043
 C694 C 0.46972 0.71095 0.82363
 C695 C 0.47946 0.72930 0.83659
 N696 N 0.48163 0.72709 0.86071
 H697 H 0.54206 0.76953 0.87285
 H698 H 0.47442 0.78570 0.84669
 H699 H 0.49055 0.81922 0.82287
 H700 H 0.55946 0.80279 0.85029
 H701 H 0.47750 0.70549 0.89173
 H702 H 0.46042 0.67236 0.87030
 H703 H 0.46762 0.71316 0.80453
 H704 H 0.48510 0.74529 0.82739
 C705 C 0.55509 0.71234 0.91929
 C706 C 0.43185 0.78805 0.92063
 C707 C 0.46232 0.69018 0.83564
 C708 C 0.52646 0.81374 0.83451
 C709 C 0.44401 -0.14408 0.33338
 C710 C 0.46470 -0.14677 0.34653
 C711 C 0.46908 -0.16815 0.35859
 C712 C 0.45288 -0.18677 0.35773
 C713 C 0.43254 -0.18336 0.34433
 N714 N 0.42870 -0.16249 0.33278
 C715 C 0.43758 -0.12196 0.32043
 N716 N 0.41512 -0.11987 0.31261
 C717 C 0.40744 -0.10074 0.30009
 C718 C 0.42278 -0.08200 0.29445
 C719 C 0.44600 -0.08349 0.30250
 C720 C 0.45352 -0.10346 0.31539
 H721 H 0.48487 -0.16996 0.36897
 H722 H 0.41975 -0.19734 0.34283
 H723 H 0.38925 -0.10018 0.29469
 H724 H 0.45845 -0.06949 0.29835
 H725 H 0.47721 -0.13258 0.34802
 H726 H 0.47167 -0.10439 0.32078
 C727 C 0.94741 0.34874 0.84119
 C728 C 0.97086 0.34327 0.84639
 C729 C 0.97618 0.32175 0.85774
 C730 C 0.95820 0.30535 0.86395
 C731 C 0.93492 0.31180 0.85795
 N732 N 0.93031 0.33288 0.84714
 C733 C 0.94027 0.37133 0.82982
 N734 N 0.91807 0.37959 0.83451
 C735 C 0.90935 0.39932 0.82376
 C736 C 0.92302 0.41181 0.80654
 C737 C 0.94621 0.40391 0.80173
 C738 C 0.95492 0.38371 0.81337
 H739 H 0.99432 0.31872 0.86244
 H740 H 0.92024 0.29997 0.86085
 H741 H 0.89161 0.40503 0.82855
 H742 H 0.95730 0.41280 0.78840
 H743 H 0.98489 0.35571 0.84242
 H744 H 0.97251 0.37739 0.80881
 C745 C 0.05220 1.13982 0.84338
 C746 C 0.06649 1.14709 0.86196
 C747 C 0.06256 1.16907 0.87236
 C748 C 0.04429 1.18414 0.86451
 C749 C 0.03018 1.17581 0.84599
 N750 N 0.03466 1.15446 0.83593
 C751 C 0.05678 1.11752 0.83048
 N752 N 0.05064 1.11617 0.80716
 C753 C 0.05583 1.09699 0.79358
 C754 C 0.06812 1.07765 0.80335
 C755 C 0.07368 1.07822 0.82765
 C756 C 0.06801 1.09804 0.84127
 H757 H 0.07358 1.17373 0.88704
 H758 H 0.01638 1.18663 0.83844
 H759 H 0.05083 1.09709 0.77502
 H760 H 0.08326 1.06376 0.83591
 H761 H 0.08100 1.13628 0.86809
 H762 H 0.07263 1.09812 0.85993
 C763 C 0.54324 0.64485 0.33961
 C764 C 0.52893 0.66174 0.32817
 C765 C 0.52477 0.68362 0.33883
 C766 C 0.53489 0.68887 0.36076
 C767 C 0.54880 0.67144 0.37174
 N768 N 0.55264 0.65031 0.36101
 C769 C 0.54998 0.62195 0.32859
 N770 N 0.56863 0.60985 0.33769
 C771 C 0.57716 0.58957 0.32796
 C772 C 0.56701 0.58031 0.30748
 C773 C 0.54712 0.59186 0.29833
 C774 C 0.53851 0.61261 0.30884
 H775 H 0.51423 0.69670 0.32955
 H776 H 0.55668 0.67459 0.38882
 H777 H 0.59215 0.58092 0.33600
 H778 H 0.53873 0.58533 0.28258
 H779 H 0.52158 0.65866 0.31087
 H780 H 0.52324 0.62112 0.30129
 C781 C 0.54632 0.35076 0.17919
 C782 C 0.55811 0.32971 0.18534
 C783 C 0.55507 0.30959 0.17172
 C784 C 0.54009 0.31024 0.15220
 C785 C 0.52824 0.33145 0.14684
 N786 N 0.53188 0.35106 0.16008
 C787 C 0.55076 0.37282 0.19214
 N788 N 0.55249 0.39365 0.17972
 C789 C 0.55909 0.41406 0.19021
 C790 C 0.56481 0.41412 0.21454
 C791 C 0.56180 0.39307 0.22788
 C792 C 0.55484 0.37246 0.21678
 H793 H 0.56453 0.29351 0.17632
 H794 H 0.51667 0.33257 0.13176
 H795 H 0.56108 0.42987 0.17923
 H796 H 0.56533 0.39241 0.24682
 H797 H 0.57021 0.32898 0.20000
 H798 H 0.55306 0.35631 0.22731
 C799 C 0.04855 0.84979 0.67245
 C800 C 0.02829 0.83723 0.67970
 C801 C 0.02287 0.81616 0.66833
 C802 C 0.03763 0.80725 0.64972
 C803 C 0.05753 0.82090 0.64288
 N804 N 0.06236 0.84123 0.65428
 C805 C 0.05621 0.87161 0.68423
 N806 N 0.07929 0.87780 0.68169
 C807 C 0.08802 0.89770 0.69126
 C808 C 0.07313 0.91313 0.70419
 C809 C 0.04923 0.90709 0.70723
 C810 C 0.04068 0.88638 0.69726
 H811 H 0.00773 0.80644 0.67517
 H812 H 0.06904 0.81606 0.62801
 H813 H 0.10665 0.90132 0.68885
 H814 H 0.03706 0.91863 0.71682
 H815 H 0.01712 0.84305 0.69449
 H816 H 0.02208 0.88245 0.69927
 C817 C 0.93744 0.64890 0.67678
 C818 C 0.92063 0.66718 0.67576
 C819 C 0.92636 0.68836 0.66409
 C820 C 0.94879 0.69146 0.65327
 C821 C 0.96542 0.67303 0.65550
 N822 N 0.95939 0.65247 0.66699
 C823 C 0.93135 0.62563 0.68747
 N824 N 0.94780 0.61299 0.69971
 C825 C 0.94298 0.59138 0.70970
 C826 C 0.92071 0.58119 0.70710
 C827 C 0.90369 0.59385 0.69432
 C828 C 0.90889 0.61602 0.68457
 H829 H 0.91320 0.70231 0.66352
 H830 H 0.98292 0.67462 0.64746
 H831 H 0.95656 0.58205 0.71937
 H832 H 0.88624 0.58666 0.69209
 H833 H 0.90321 0.66515 0.68391
 H834 H 0.89558 0.62533 0.67449
 C835 C 0.45317 0.14090 0.14787
 C836 C 0.44942 0.14668 0.12369
 C837 C 0.45419 0.16948 0.11517
 C838 C 0.46318 0.18645 0.13043
 C839 C 0.46800 0.17967 0.15405
 N840 N 0.46269 0.15748 0.16212
 C841 C 0.44584 0.11790 0.15875
 N842 N 0.45401 0.11156 0.18068
 C843 C 0.44630 0.09195 0.19287
 C844 C 0.42881 0.07774 0.18329
 C845 C 0.42068 0.08351 0.16045
 C846 C 0.42904 0.10348 0.14818
 H847 H 0.45079 0.17391 0.09665
 H848 H 0.47508 0.19225 0.16633
 H849 H 0.45294 0.08818 0.21051
 H850 H 0.40730 0.07290 0.15235
 H851 H 0.44274 0.13399 0.11135
 H852 H 0.42143 0.10793 0.13117
 C853 C 0.34703 0.44591 -0.14956
 C854 C 0.36679 0.43271 -0.15717
 C855 C 0.37763 0.43774 -0.17934
 C856 C 0.36907 0.45607 -0.19423
 C857 C 0.34930 0.46903 -0.18555
 N858 N 0.33885 0.46348 -0.16404
 C859 C 0.33387 0.44018 -0.12701
 N860 N 0.31025 0.44474 -0.12564
 C861 C 0.29665 0.43853 -0.10617
 C862 C 0.30675 0.42690 -0.08654
 C863 C 0.33122 0.42293 -0.08716
 C864 C 0.34483 0.42954 -0.10731
 H865 H 0.39318 0.42755 -0.18428
 H866 H 0.34120 0.48277 -0.19624
 H867 H 0.27790 0.44226 -0.10625
 H868 H 0.33971 0.41390 -0.07246
 H869 H 0.37356 0.41823 -0.14646
 H870 H 0.36364 0.42616 -0.10744
 C871 C 0.84484 0.94174 0.35542
 C872 C 0.86394 0.92787 0.34733
 C873 C 0.87483 0.93299 0.32519
 C874 C 0.86697 0.95207 0.31086
 C875 C 0.84797 0.96577 0.32010
 N876 N 0.83741 0.96010 0.34152
 C877 C 0.83139 0.93584 0.37775
 N878 N 0.80794 0.94120 0.37914
 C879 C 0.79404 0.93491 0.39835
 C880 C 0.80362 0.92236 0.41769
 C881 C 0.82795 0.91752 0.41708
 C882 C 0.84188 0.92421 0.39718
 H883 H 0.88980 0.92218 0.31976
 H884 H 0.84044 0.98017 0.30987
 H885 H 0.77542 0.93931 0.39830
 H886 H 0.83603 0.90779 0.43157
 H887 H 0.87008 0.91278 0.35759
 H888 H 0.86056 0.92013 0.39699
 C889 C 0.83131 0.05319 1.15377
 C890 C 0.83570 0.07079 1.17043
 C891 C 0.84936 0.06557 1.19017
 C892 C 0.85900 0.04275 1.19368
 C893 C 0.85436 0.02573 1.17616
 N894 N 0.84103 0.03137 1.15697
 C895 C 0.81682 0.05807 1.13259
 N896 N 0.82117 0.04593 1.11204
 C897 C 0.80910 0.05036 1.09169
 C898 C 0.79145 0.06793 1.09129
 C899 C 0.78629 0.08011 1.11252
 C900 C 0.79877 0.07518 1.13313
 H901 H 0.85135 0.07941 1.20309
 H902 H 0.86189 0.00815 1.17706
 H903 H 0.81344 0.04032 1.07582
 H904 H 0.77306 0.09400 1.11306
 H905 H 0.82883 0.08856 1.16826
 H906 H 0.79427 0.08475 1.14925
 C907 C 0.33550 0.56021 0.64819
 C908 C 0.33179 0.57259 0.66960
 C909 C 0.34458 0.56642 0.68965
 C910 C 0.36091 0.54773 0.68875
 C911 C 0.36349 0.53510 0.66737
 N912 N 0.35097 0.54164 0.64784
 C913 C 0.32276 0.56688 0.62622
 N914 N 0.31922 0.55043 0.60909
 C915 C 0.30694 0.55546 0.58897
 C916 C 0.29713 0.57806 0.58548
 C917 C 0.30132 0.59540 0.60248
 C918 C 0.31420 0.58999 0.62266
 H919 H 0.34151 0.57613 0.70602
 H920 H 0.37580 0.52043 0.66605
 H921 H 0.30428 0.54169 0.57609
 H922 H 0.29469 0.61326 0.60006
 H923 H 0.31892 0.58673 0.67111
 H924 H 0.31750 0.60393 0.63515
 C925 C 0.18307 0.54971 0.34448
 C926 C 0.18952 0.55966 0.32204
 C927 C 0.17664 0.55425 0.30201
 C928 C 0.15778 0.53846 0.30399
 C929 C 0.15281 0.52762 0.32626
 N930 N 0.16521 0.53368 0.34577
 C931 C 0.19411 0.55727 0.36690
 N932 N 0.19139 0.54373 0.38718
 C933 C 0.19941 0.55063 0.40875
 C934 C 0.21037 0.57263 0.41085
 C935 C 0.21382 0.58655 0.39012
 C936 C 0.20568 0.57908 0.36827
 H937 H 0.18125 0.56255 0.28494
 H938 H 0.13847 0.51516 0.32834
 H939 H 0.19637 0.53941 0.42437
 H940 H 0.22241 0.60355 0.39091
 H941 H 0.20416 0.57169 0.31979
 H942 H 0.20768 0.59091 0.35302
 C943 C 0.67171 0.05064 0.85366
 C944 C 0.66144 0.02859 0.84971
 C945 C 0.65027 0.02456 0.82814
 C946 C 0.64909 0.04243 0.81026
 C947 C 0.66007 0.06411 0.81506
 N948 N 0.67084 0.06747 0.83611
 C949 C 0.68363 0.05666 0.87606
 N950 N 0.69712 0.07647 0.87587
 C951 C 0.70769 0.08440 0.89568
 C952 C 0.70475 0.07235 0.91766
 C953 C 0.69137 0.05156 0.91832
 C954 C 0.68070 0.04368 0.89761
 H955 H 0.64183 0.00766 0.82612
 H956 H 0.66107 0.07827 0.80190
 H957 H 0.71822 0.10027 0.89424
 H958 H 0.68849 0.04188 0.93499
 H959 H 0.66199 0.01446 0.86291
 H960 H 0.66977 0.02813 0.89886
 C961 C 0.66662 0.94525 0.64679
 C962 C 0.65544 0.96737 0.64956
 C963 C 0.64414 0.97280 0.67137
 C964 C 0.64394 0.95636 0.69045
 C965 C 0.65552 0.93463 0.68701
 N966 N 0.66633 0.92976 0.66568
 C967 C 0.67870 0.93768 0.62422
 N968 N 0.69058 0.91669 0.62455
 C969 C 0.70141 0.90754 0.60479
 C970 C 0.70056 0.91960 0.58272
 C971 C 0.68887 0.94153 0.58188
 C972 C 0.67784 0.95061 0.60252
 H973 H 0.63531 0.98974 0.67320
 H974 H 0.65623 0.92159 0.70134
 H975 H 0.71059 0.89077 0.60636
 H976 H 0.68765 0.95129 0.56514
 H977 H 0.65531 0.98049 0.63535
 H978 H 0.66847 0.96722 0.60107
 C979 C 0.16839 0.44263 0.14395
 C980 C 0.15676 0.46448 0.14697
 C981 C 0.14511 0.46933 0.16874
 C982 C 0.14504 0.45259 0.18755
 C983 C 0.15696 0.43109 0.18383
 N984 N 0.16813 0.42679 0.16254
 C985 C 0.18116 0.43589 0.12150
 N986 N 0.19453 0.41581 0.12191
 C987 C 0.20617 0.40748 0.10222
 C988 C 0.20462 0.41945 0.08015
 C989 C 0.19135 0.44045 0.07923
 C990 C 0.17951 0.44869 0.09979
 H991 H 0.13603 0.48611 0.17077
 H992 H 0.15777 0.41784 0.19795
 H993 H 0.21652 0.39141 0.10383
 H994 H 0.18952 0.45006 0.06247
 H995 H 0.15668 0.47788 0.13302
 H996 H 0.16884 0.46451 0.09828
 C997 C -0.14214 0.33805 0.44963
 C998 C -0.14504 0.35119 0.47072
 C999 C -0.16590 0.36405 0.47478
 C1000 C -0.18389 0.36392 0.45798
 C1001 C -0.18036 0.35043 0.43732
 N1002 N -0.15997 0.33810 0.43378
 C1003 C -0.12064 0.32392 0.44360
 N1004 N -0.12074 0.31098 0.42327
 C1005 C -0.10209 0.29760 0.41581
 C1006 C -0.08144 0.29659 0.42909
 C1007 C -0.08072 0.30985 0.45009
 C1008 C -0.10023 0.32350 0.45745
 H1009 H -0.16785 0.37433 0.49091
 H1010 H -0.19389 0.34939 0.42409
 H1011 H -0.10332 0.28814 0.39921
 H1012 H -0.06516 0.30954 0.46092
 H1013 H -0.13162 0.35170 0.48404
 H1014 H -0.09900 0.33354 0.47363
 C1015 C 0.34865 0.84066 0.94994
 C1016 C 0.34289 0.84828 0.97317
 C1017 C 0.32126 0.85963 0.97772
 C1018 C 0.30507 0.86361 0.95924
 C1019 C 0.31184 0.85559 0.93623
 N1020 N 0.33286 0.84449 0.93241
 C1021 C 0.37075 0.82767 0.94363
 N1022 N 0.37181 0.81632 0.92234
 C1023 C 0.39102 0.80379 0.91480
 C1024 C 0.41101 0.80204 0.92902
 C1025 C 0.41064 0.81395 0.95089
 C1026 C 0.39056 0.82676 0.95830
 H1027 H 0.31779 0.86585 0.99567
 H1028 H 0.30014 0.85694 0.92133
 H1029 H 0.39070 0.79544 0.89751
 H1030 H 0.42573 0.81312 0.96236
 H1031 H 0.35462 0.84534 0.98786
 H1032 H 0.39085 0.83591 0.97512
 C1033 C 1.13640 0.84041 0.04952
 C1034 C 1.14230 0.85933 0.06409
 C1035 C 1.16408 0.87039 0.06072
 C1036 C 1.18028 0.86288 0.04273
 C1037 C 1.17325 0.84406 0.02823
 N1038 N 1.15209 0.83333 0.03220
 C1039 C 1.11447 0.82674 0.05377
 N1040 N 1.11443 0.80338 0.04821
 C1041 C 1.09568 0.78919 0.05340
 C1042 C 1.07543 0.79832 0.06509
 C1043 C 1.07465 0.82259 0.06994
 C1044 C 1.09407 0.83684 0.06429
 H1045 H 1.16773 0.88523 0.07198
 H1046 H 1.18496 0.83681 0.01459
 H1047 H 1.09684 0.77065 0.04897
 H1048 H 1.05944 0.83036 0.07904
 H1049 H 1.13059 0.86520 0.07844
 H1050 H 1.09315 0.85545 0.06844
 C1051 C 0.64523 0.34633 0.54316
 C1052 C 0.64966 0.36754 0.55501
 C1053 C 0.67161 0.37834 0.55203
 C1054 C 0.68925 0.36815 0.53734
 C1055 C 0.68399 0.34723 0.52544
 N1056 N 0.66256 0.33689 0.52881
 C1057 C 0.62317 0.33281 0.54745
 N1058 N 0.62350 0.30912 0.54343
 C1059 C 0.60476 0.29502 0.54892
 C1060 C 0.58413 0.30457 0.55952
 C1061 C 0.58296 0.32913 0.56270
 C1062 C 0.60233 0.34330 0.55659
 H1063 H 0.67488 0.39456 0.56141
 H1064 H 0.69716 0.33863 0.51414
 H1065 H 0.60625 0.27626 0.54563
 H1066 H 0.56748 0.33730 0.57089
 H1067 H 0.63678 0.37538 0.56716
 H1068 H 0.60095 0.36212 0.55942
 C1069 C 0.35209 0.17977 0.55554
 C1070 C 0.33064 0.18446 0.56785
 C1071 C 0.31035 0.17252 0.56172
 C1072 C 0.31110 0.15630 0.54303
 C1073 C 0.33244 0.15311 0.53016
 N1074 N 0.35222 0.16458 0.53682
 C1075 C 0.37466 0.19018 0.56299
 N1076 N 0.39347 0.19081 0.54727
 C1077 C 0.41494 0.19918 0.55336
 C1078 C 0.41851 0.20719 0.57665
 C1079 C 0.39932 0.20680 0.59302
 C1080 C 0.37756 0.19823 0.58639
 H1081 H 0.29403 0.17584 0.57167
 H1082 H 0.33360 0.14084 0.51549
 H1083 H 0.42931 0.19902 0.54022
 H1084 H 0.40114 0.21310 0.61108
 H1085 H 0.32936 0.19711 0.58214
 H1086 H 0.36351 0.19740 0.59982
 C1087 C 0.84393 0.67102 0.06017
 C1088 C 0.82644 0.66625 0.07775
 C1089 C 0.80567 0.65526 0.07154
 C1090 C 0.80193 0.64844 0.04776
 C1091 C 0.82011 0.65359 0.03068
 N1092 N 0.84031 0.66434 0.03728
 C1093 C 0.86654 0.68225 0.06624
 N1094 N 0.88622 0.67832 0.05223
 C1095 C 0.90777 0.68697 0.05772
 C1096 C 0.91038 0.70002 0.07863
 C1097 C 0.89021 0.70505 0.09272
 C1098 C 0.86832 0.69645 0.08652
 H1099 H 0.79232 0.65293 0.08554
 H1100 H 0.81893 0.64827 0.01227
 H1101 H 0.92293 0.68294 0.04629
 H1102 H 0.89143 0.71561 0.10866
 H1103 H 0.82872 0.67058 0.09632
 H1104 H 0.85306 0.70095 0.09760
 C1105 C 0.63921 0.66496 0.94938
 C1106 C 0.64736 0.64447 0.93773
 C1107 C 0.66996 0.63583 0.94198
 C1108 C 0.68471 0.64751 0.95763
 C1109 C 0.67587 0.66776 0.96915
 N1110 N 0.65378 0.67596 0.96464
 C1111 C 0.61598 0.67589 0.94416
 N1112 N 0.61248 0.69930 0.94867
 C1113 C 0.59248 0.71105 0.94237
 C1114 C 0.57485 0.69925 0.93022
 C1115 C 0.57754 0.67495 0.92643
 C1116 C 0.59788 0.66315 0.93360
 H1117 H 0.67594 0.62001 0.93290
 H1118 H 0.68674 0.67744 0.98121
 H1119 H 0.59094 0.72981 0.94567
 H1120 H 0.56408 0.66519 0.91746
 H1121 H 0.63688 0.63548 0.92486
 H1122 H 0.59935 0.64439 0.93049
 C1123 C 0.14570 0.16001 0.44974
 C1124 C 0.15387 0.13915 0.43879
 C1125 C 0.17664 0.13093 0.44298
 C1126 C 0.19152 0.14340 0.45788
 C1127 C 0.18261 0.16391 0.46884
 N1128 N 0.16036 0.17169 0.46437
 C1129 C 0.12243 0.17072 0.44427
 N1130 N 0.11883 0.19418 0.44845
 C1131 C 0.09886 0.20579 0.44186
 C1132 C 0.08136 0.19379 0.42973
 C1133 C 0.08414 0.16945 0.42626
 C1134 C 0.10444 0.15779 0.43373
 H1135 H 0.18270 0.11489 0.43435
 H1136 H 0.19356 0.17419 0.48030
 H1137 H 0.09725 0.22459 0.44492
 H1138 H 0.07076 0.15955 0.41730
 H1139 H 0.14332 0.12955 0.42645
 H1140 H 0.10596 0.13899 0.43086
 C1141 C 0.58993 0.11497 0.71481
 C1142 C 0.61164 0.11700 0.72615
 C1143 C 0.62094 0.09753 0.73839
 C1144 C 0.60880 0.07598 0.73930
 C1145 C 0.58736 0.07459 0.72741
 N1146 N 0.57863 0.09380 0.71565
 C1147 C 0.57907 0.13494 0.70153
 N1148 N 0.56291 0.13009 0.68473
 C1149 C 0.55201 0.14733 0.67184
 C1150 C 0.55704 0.17123 0.67565
 C1151 C 0.57340 0.17667 0.69312
 C1152 C 0.58441 0.15865 0.70610
 H1153 H 0.63779 0.09923 0.74686
 H1154 H 0.57733 0.05838 0.72778
 H1155 H 0.53920 0.14234 0.65885
 H1156 H 0.57788 0.19486 0.69658
 H1157 H 0.62166 0.13319 0.72529
 H1158 H 0.59660 0.16340 0.71975
 C1159 C 1.08646 0.60961 0.21654
 C1160 C 1.10699 0.61302 0.22947
 C1161 C 1.11783 0.59377 0.24067
 C1162 C 1.10858 0.57076 0.23899
 C1163 C 1.08814 0.56824 0.22537
 N1164 N 1.07785 0.58734 0.21483
 C1165 C 1.07404 0.62923 0.20413
 N1166 N 1.05854 0.62381 0.18687
 C1167 C 1.04647 0.64062 0.17450
 C1168 C 1.04962 0.66468 0.17924
 C1169 C 1.06520 0.67070 0.19724
 C1170 C 1.07734 0.65311 0.20976
 H1171 H 1.13409 0.59705 0.24971
 H1172 H 1.07954 0.55137 0.22381
 H1173 H 1.03430 0.63511 0.16111
 H1174 H 1.06828 0.68903 0.20143
 H1175 H 1.11511 0.63018 0.23059
 H1176 H 1.08890 0.65835 0.22377
 C1177 C 0.92709 0.88626 0.20998
 C1178 C 0.91365 0.90385 0.19854
 C1179 C 0.90391 0.92233 0.21186
 C1180 C 0.90768 0.92361 0.23652
 C1181 C 0.92161 0.90595 0.24719
 N1182 N 0.93081 0.88803 0.23386
 C1183 C 0.93744 0.86585 0.19694
 N1184 N 0.95548 0.85344 0.20691
 C1185 C 0.96556 0.83422 0.19631
 C1186 C 0.95731 0.82623 0.17441
 C1187 C 0.93873 0.83875 0.16383
 C1188 C 0.92870 0.85839 0.17502
 H1189 H 0.89319 0.93547 0.20288
 H1190 H 0.92536 0.90647 0.26606
 H1191 H 0.97966 0.82495 0.20524
 H1192 H 0.93195 0.83342 0.14682
 H1193 H 0.91076 0.90369 0.17951
 H1194 H 0.91398 0.86715 0.16667
 C1195 C 0.43881 0.39286 0.70966
 C1196 C 0.44879 0.41554 0.71050
 C1197 C 0.43661 0.43360 0.72242
 C1198 C 0.41467 0.42920 0.73373
 C1199 C 0.40535 0.40636 0.73259
 N1200 N 0.41745 0.38910 0.72077
 C1201 C 0.45056 0.37266 0.69737
 N1202 N 0.44101 0.35077 0.70054
 C1203 C 0.45008 0.33128 0.68965
 C1204 C 0.47003 0.33310 0.67435
 C1205 C 0.48034 0.35540 0.67090
 C1206 C 0.47066 0.37520 0.68224
 H1207 H 0.44458 0.45090 0.72324
 H1208 H 0.38837 0.40226 0.74089
 H1209 H 0.44169 0.31438 0.69299
 H1210 H 0.49551 0.35765 0.65891
 H1211 H 0.46588 0.41949 0.70251
 H1212 H 0.47872 0.39214 0.67859
 C1213 C 0.42249 0.61224 0.78565
 C1214 C 0.41070 0.59347 0.79744
 C1215 C 0.40217 0.57484 0.78419
 C1216 C 0.40542 0.57469 0.75922
 C1217 C 0.41761 0.59360 0.74814
 N1218 N 0.42578 0.61157 0.76144
 C1219 C 0.43191 0.63248 0.79881
 N1220 N 0.45010 0.64513 0.78879
 C1221 C 0.45985 0.66376 0.79994
 C1222 C 0.45132 0.67059 0.82264
 C1223 C 0.43222 0.65815 0.83302
 C1224 C 0.42245 0.63921 0.82120
 H1225 H 0.39276 0.56068 0.79346
 H1226 H 0.42082 0.59399 0.72897
 H1227 H 0.47458 0.67283 0.79130
 H1228 H 0.42467 0.66322 0.85021
 H1229 H 0.40831 0.59287 0.81670
 H1230 H 0.40745 0.63027 0.82944
 C1231 C -0.06789 0.10516 0.28373
 C1232 C -0.05706 0.08286 0.28145
 C1233 C -0.06858 0.06496 0.26958
 C1234 C -0.09079 0.06916 0.25982
 C1235 C -0.10081 0.09182 0.26207
 N1236 N -0.08928 0.10897 0.27379
 C1237 C -0.05680 0.12473 0.29654
 N1238 N -0.06340 0.14739 0.29134
 C1239 C -0.05453 0.16626 0.30281
 C1240 C -0.03824 0.16284 0.32104
 C1241 C -0.03121 0.13965 0.32672
 C1242 C -0.04043 0.12059 0.31459
 H1243 H -0.05996 0.04791 0.26775
 H1244 H -0.11796 0.09581 0.25492
 H1245 H -0.06065 0.18384 0.29809
 H1246 H -0.01858 0.13623 0.34057
 H1247 H -0.03974 0.07926 0.28836
 H1248 H -0.03516 0.10289 0.31982
 C1249 C 0.07319 0.38831 0.28371
 C1250 C 0.06467 0.41169 0.28499
 C1251 C 0.07691 0.42979 0.27293
 C1252 C 0.09772 0.42484 0.25971
 C1253 C 0.10578 0.40133 0.25911
 N1254 N 0.09353 0.38401 0.27094
 C1255 C 0.06134 0.36808 0.29618
 N1256 N 0.07320 0.34710 0.29749
 C1257 C 0.06403 0.32767 0.30875
 C1258 C 0.04150 0.32858 0.31976
 C1259 C 0.02872 0.34988 0.31830
 C1260 C 0.03847 0.36958 0.30650
 H1261 H 0.06992 0.44764 0.27373
 H1262 H 0.12195 0.39672 0.24951
 H1263 H 0.07436 0.31151 0.30899
 H1264 H 0.01135 0.35149 0.32667
 H1265 H 0.04894 0.41629 0.29526
 H1266 H 0.02799 0.38556 0.30556
 C1267 C 0.56983 0.89361 0.78568
 C1268 C 0.56159 0.91710 0.78666
 C1269 C 0.57432 0.93499 0.77480
 C1270 C 0.59534 0.92971 0.76207
 C1271 C 0.60311 0.90610 0.76177
 N1272 N 0.59039 0.88899 0.77340
 C1273 C 0.55747 0.87357 0.79794
 N1274 N 0.56900 0.85242 0.79950
 C1275 C 0.55937 0.83314 0.81062
 C1276 C 0.53667 0.83439 0.82124
 C1277 C 0.52422 0.85585 0.81950
 C1278 C 0.53445 0.87540 0.80785
 H1279 H 0.56755 0.95293 0.77535
 H1280 H 0.61942 0.90124 0.75255
 H1281 H 0.56947 0.81685 0.81108
 H1282 H 0.50673 0.85770 0.82756
 H1283 H 0.54570 0.92194 0.79654
 H1284 H 0.52422 0.89153 0.80671
 C1285 C 0.70720 0.57566 0.10788
 C1286 C 0.70443 0.56986 0.08381
 C1287 C 0.71702 0.58226 0.06592
 C1288 C 0.73259 0.60057 0.07171
 C1289 C 0.73451 0.60582 0.09621
 N1290 N 0.72192 0.59358 0.11321
 C1291 C 0.69412 0.56355 0.12776
 N1292 N 0.69131 0.57496 0.14893
 C1293 C 0.67963 0.56522 0.16814
 C1294 C 0.67002 0.54249 0.16682
 C1295 C 0.67301 0.53021 0.14530
 C1296 C 0.68502 0.54063 0.12575
 H1297 H 0.71502 0.57669 0.04766
 H1298 H 0.74520 0.62028 0.10205
 H1299 H 0.67813 0.57515 0.18452
 H1300 H 0.66583 0.51265 0.14350
 H1301 H 0.69250 0.55612 0.07866
 H1302 H 0.68739 0.53063 0.10952
 C1303 C 0.22162 1.08133 0.61089
 C1304 C 0.24635 1.08018 0.60878
 C1305 C 0.25795 1.09208 0.58991
 C1306 C 0.24505 1.10516 0.57314
 C1307 C 0.22038 1.10598 0.57596
 N1308 N 0.20948 1.09433 0.59455
 C1309 C 0.20831 1.06936 0.63067
 N1310 N 0.18654 1.07779 0.63709
 C1311 C 0.17309 1.06771 0.65490
 C1312 C 0.18136 1.04775 0.66745
 C1313 C 0.20370 1.03863 0.66100
 C1314 C 0.21718 1.04931 0.64265
 H1315 H 0.27700 1.09090 0.58832
 H1316 H 0.20980 1.11616 0.56364
 H1317 H 0.15608 1.07549 0.65940
 H1318 H 0.21056 1.02294 0.66979
 H1319 H 0.25676 1.07062 0.62170
 H1320 H 0.23405 1.04154 0.63764
 C1321 C 0.21299 0.93201 0.89130
 C1322 C 0.21380 0.94267 0.91386
 C1323 C 0.22534 0.93114 0.93247
 C1324 C 0.23639 0.90921 0.92873
 C1325 C 0.23568 0.89938 0.90587
 N1326 N 0.22411 0.91082 0.88806
 C1327 C 0.20060 0.94296 0.87077
 N1328 N 0.20428 0.93368 0.84861
 C1329 C 0.19332 0.94222 0.82890
 C1330 C 0.17752 0.96134 0.83081
 C1331 C 0.17339 0.97119 0.85342
 C1332 C 0.18473 0.96204 0.87341
 H1333 H 0.22592 0.93954 0.94974
 H1334 H 0.24393 0.88245 0.90226
 H1335 H 0.19711 0.93417 0.81177
 H1336 H 0.16093 0.98563 0.85576
 H1337 H 0.20597 0.95977 0.91731
 H1338 H 0.18052 0.96968 0.89060
 C1339 C 0.72717 0.43412 0.38689
 C1340 C 0.73179 0.44744 0.40722
 C1341 C 0.74317 0.43673 0.42643
 C1342 C 0.75030 0.41300 0.42519
 C1343 C 0.74574 0.40042 0.40441
 N1344 N 0.73414 0.41105 0.38615
 C1345 C 0.71355 0.44408 0.36697
 N1346 N 0.69794 0.42998 0.35596
 C1347 C 0.68411 0.43816 0.33813
 C1348 C 0.68579 0.46174 0.33024
 C1349 C 0.70224 0.47644 0.34082
 C1350 C 0.71604 0.46772 0.35935
 H1351 H 0.74637 0.44691 0.44228
 H1352 H 0.75082 0.38200 0.40298
 H1353 H 0.67176 0.42629 0.33016
 H1354 H 0.70396 0.49474 0.33513
 H1355 H 0.72600 0.46566 0.40858
 H1356 H 0.72857 0.47926 0.36752
 C1357 C 0.77920 0.42425 0.61629
 C1358 C 0.75491 0.42760 0.61318
 C1359 C 0.74442 0.41864 0.59295
 C1360 C 0.75798 0.40629 0.57576
 C1361 C 0.78225 0.40345 0.57952
 N1362 N 0.79209 0.41245 0.59931
 C1363 C 0.79141 0.43385 0.63705
 N1364 N 0.81476 0.43902 0.63461
 C1365 C 0.82728 0.44787 0.65279
 C1366 C 0.81633 0.45190 0.67524
 C1367 C 0.79229 0.44644 0.67823
 C1368 C 0.77980 0.43743 0.65924
 H1369 H 0.72576 0.42180 0.59054
 H1370 H 0.79338 0.39388 0.56691
 H1371 H 0.84568 0.45208 0.64951
 H1372 H 0.78323 0.44876 0.69534
 H1373 H 0.74417 0.43753 0.62584
 H1374 H 0.76143 0.43290 0.66213
 C1375 C 0.27046 -0.07380 0.11523
 C1376 C 0.25802 -0.09498 0.11906
 C1377 C 0.24697 -0.10552 0.09993
 C1378 C 0.24831 -0.09512 0.07698
 C1379 C 0.26095 -0.07399 0.07392
 N1380 N 0.27159 -0.06410 0.09279
 C1381 C 0.28340 -0.06218 0.13446
 N1382 N 0.30135 -0.04731 0.12812
 C1383 C 0.31455 -0.03636 0.14452
 C1384 C 0.31002 -0.04010 0.16910
 C1385 C 0.29118 -0.05485 0.17610
 C1386 C 0.27783 -0.06589 0.15889
 H1387 H 0.23783 -0.12207 0.10300
 H1388 H 0.26223 -0.06522 0.05661
 H1389 H 0.32860 -0.02476 0.13832
 H1390 H 0.28711 -0.05825 0.19487
 H1391 H 0.25728 -0.10377 0.13637
 H1392 H 0.26331 -0.07702 0.16478
 C1393 C 0.29070 0.09054 0.38376
 C1394 C 0.27659 0.11086 0.38073
 C1395 C 0.26496 0.12076 0.40051
 C1396 C 0.26705 0.11045 0.42335
 C1397 C 0.28145 0.09029 0.42569
 N1398 N 0.29260 0.08093 0.40613
 C1399 C 0.30286 0.07865 0.36333
 N1400 N 0.31039 0.05589 0.36628
 C1401 C 0.32146 0.04363 0.34843
 C1402 C 0.32564 0.05430 0.32588
 C1403 C 0.31816 0.07779 0.32250
 C1404 C 0.30697 0.09004 0.34110
 H1405 H 0.25418 0.13641 0.39789
 H1406 H 0.28331 0.08157 0.44290
 H1407 H 0.32727 0.02569 0.35201
 H1408 H 0.32080 0.08672 0.30538
 H1409 H 0.27392 0.11886 0.36334
 H1410 H 0.30196 0.10825 0.33795
 C1411 C 0.78354 0.59031 0.88619
 C1412 C 0.77037 0.61107 0.88236
 C1413 C 0.75860 0.62176 0.90166
 C1414 C 0.75987 0.61186 0.92480
 C1415 C 0.77374 0.59142 0.92791
 N1416 N 0.78503 0.58134 0.90884
 C1417 C 0.79587 0.57777 0.86641
 N1418 N 0.81510 0.56424 0.87142
 C1419 C 0.82692 0.55152 0.85444
 C1420 C 0.81930 0.55163 0.83071
 C1421 C 0.79942 0.56543 0.82517
 C1422 C 0.78770 0.57851 0.84290
 H1423 H 0.74859 0.63782 0.89848
 H1424 H 0.77508 0.58299 0.94533
 H1425 H 0.84236 0.54149 0.85953
 H1426 H 0.79258 0.56571 0.80727
 H1427 H 0.76932 0.61916 0.86475
 H1428 H 0.77205 0.58847 0.83832
 C1429 C 0.10357 0.71432 0.57859
 C1430 C 0.10408 0.73902 0.57978
 C1431 C 0.08568 0.75100 0.59152
 C1432 C 0.06696 0.73843 0.60262
 C1433 C 0.06732 0.71363 0.60115
 N1434 N 0.08526 0.70239 0.58924
 C1435 C 0.12276 0.70118 0.56619
 N1436 N 0.14494 0.71023 0.56503
 C1437 C 0.16335 0.69866 0.55427
 C1438 C 0.15996 0.67661 0.54359
 C1439 C 0.13703 0.66721 0.54432
 C1440 C 0.11852 0.67929 0.55581
 H1441 H 0.08600 0.77013 0.59157
 H1442 H 0.05358 0.70307 0.60970
 H1443 H 0.18066 0.70652 0.55461
 H1444 H 0.13327 0.65062 0.53589
 H1445 H 0.11834 0.74900 0.57132
 H1446 H 0.10100 0.67175 0.55626
 C1447 C 0.61729 0.22289 1.08343
 C1448 C 0.61856 0.23258 1.10639
 C1449 C 0.59886 0.24410 1.11640
 C1450 C 0.57787 0.24590 1.10372
 C1451 C 0.57741 0.23613 1.08079
 N1452 N 0.59676 0.22497 1.07146
 C1453 C 0.63704 0.20946 1.07212
 N1454 N 0.63212 0.19438 1.05419
 C1455 C 0.64899 0.18101 1.04307
 C1456 C 0.67260 0.18237 1.04984
 C1457 C 0.67821 0.19815 1.06795
 C1458 C 0.66055 0.21174 1.07909
 H1459 H 0.59984 0.25102 1.13430
 H1460 H 0.56170 0.23738 1.07025
 H1461 H 0.64393 0.16942 1.02888
 H1462 H 0.69618 0.19971 1.07379
 H1463 H 0.63421 0.23076 1.11691
 H1464 H 0.66544 0.22393 1.09279
 C1465 C 0.89367 0.21270 0.93765
 C1466 C 0.89652 0.23712 0.94076
 C1467 C 0.91493 0.24885 0.92865
 C1468 C 0.93046 0.23646 0.91331
 C1469 C 0.92711 0.21208 0.91081
 N1470 N 0.90901 0.20104 0.92273
 C1471 C 0.87386 0.19932 0.94905
 N1472 N 0.86813 0.17807 0.93977
 C1473 C 0.84982 0.16492 0.94856
 C1474 C 0.83582 0.17304 0.96789
 C1475 C 0.84173 0.19463 0.97815
 C1476 C 0.86073 0.20776 0.96890
 H1477 H 0.91700 0.26764 0.93128
 H1478 H 0.93851 0.20189 0.89896
 H1479 H 0.84626 0.14812 0.94042
 H1480 H 0.83140 0.20163 0.99304
 H1481 H 0.88449 0.24735 0.95186
 H1482 H 0.86495 0.22418 0.97738
 C1483 C 0.38298 0.72234 0.43035
 C1484 C 0.38542 0.74697 0.43213
 C1485 C 0.40438 0.75823 0.42043
 C1486 C 0.42089 0.74517 0.40679
 C1487 C 0.41777 0.72065 0.40538
 N1488 N 0.39918 0.71008 0.41693
 C1489 C 0.36305 0.70912 0.44179
 N1490 N 0.35930 0.68657 0.43471
 C1491 C 0.34137 0.67313 0.44385
 C1492 C 0.32567 0.68227 0.46129
 C1493 C 0.32939 0.70534 0.46923
 C1494 C 0.34803 0.71878 0.45963
 H1495 H 0.40620 0.77716 0.42219
 H1496 H 0.42984 0.70991 0.39477
 H1497 H 0.33954 0.65526 0.43756
 H1498 H 0.31768 0.71314 0.48260
 H1499 H 0.37282 0.75768 0.44204
 H1500 H 0.35052 0.73635 0.46637
 C1501 C 0.60434 0.78086 0.42636
 C1502 C 0.58165 0.78112 0.43713
 C1503 C 0.56317 0.76987 0.42604
 C1504 C 0.56714 0.75813 0.40435
 C1505 C 0.59018 0.75773 0.39447
 N1506 N 0.60791 0.76898 0.40553
 C1507 C 0.62450 0.79311 0.43699
 N1508 N 0.64691 0.78616 0.43092
 C1509 C 0.66626 0.79688 0.43958
 C1510 C 0.66366 0.81606 0.45512
 C1511 C 0.64073 0.82354 0.46155
 C1512 C 0.62119 0.81224 0.45251
 H1513 H 0.54581 0.77008 0.43461
 H1514 H 0.59402 0.74890 0.37776
 H1515 H 0.68362 0.79073 0.43392
 H1516 H 0.63788 0.83813 0.47364
 H1517 H 0.57811 0.78956 0.45410
 H1518 H 0.60379 0.81888 0.45730
 C1519 C 0.11199 0.27892 -0.07345
 C1520 C 0.08961 0.27831 -0.06202
 C1521 C 0.07129 0.26626 -0.07253
 C1522 C 0.07513 0.25459 -0.09427
 C1523 C 0.09787 0.25512 -0.10485
 N1524 N 0.11545 0.26713 -0.09435
 C1525 C 0.13198 0.29193 -0.06344
 N1526 N 0.15444 0.28587 -0.07026
 C1527 C 0.17364 0.29730 -0.06218
 C1528 C 0.17079 0.31631 -0.04646
 C1529 C 0.14780 0.32288 -0.03927
 C1530 C 0.12841 0.31087 -0.04773
 H1531 H 0.05416 0.26579 -0.06347
 H1532 H 0.10158 0.24640 -0.12165
 H1533 H 0.19105 0.29184 -0.06843
 H1534 H 0.14477 0.33730 -0.02701
 H1535 H 0.08621 0.28665 -0.04499
 H1536 H 0.11093 0.31682 -0.04235
 C1537 C 0.39610 0.27930 0.06167
 C1538 C 0.40188 0.25544 0.05763
 C1539 C 0.42021 0.24482 0.07009
 C1540 C 0.43283 0.25768 0.08675
 C1541 C 0.42676 0.28151 0.09007
 N1542 N 0.40878 0.29148 0.07775
 C1543 C 0.37609 0.29155 0.04998
 N1544 N 0.36937 0.31318 0.05819
 C1545 C 0.35081 0.32545 0.04926
 C1546 C 0.33747 0.31595 0.03094
 C1547 C 0.34433 0.29391 0.02179
 C1548 C 0.36361 0.28172 0.03113
 H1549 H 0.42451 0.22647 0.06668
 H1550 H 0.43586 0.29206 0.10287
 H1551 H 0.34657 0.34265 0.05650
 H1552 H 0.33453 0.28585 0.00772
 H1553 H 0.39229 0.24472 0.04543
 H1554 H 0.36837 0.26488 0.02349
 C1555 C 0.88729 0.77651 0.57015
 C1556 C 0.89055 0.75185 0.57012
 C1557 C 0.90858 0.74166 0.58338
 C1558 C 0.92337 0.75584 0.59683
 C1559 C 0.91975 0.78039 0.59614
 N1560 N 0.90199 0.78991 0.58319
 C1561 C 0.86759 0.78841 0.55772
 N1562 N 0.86140 0.81069 0.56441
 C1563 C 0.84306 0.82268 0.55472
 C1564 C 0.82945 0.81221 0.53716
 C1565 C 0.83586 0.78950 0.52946
 C1566 C 0.85491 0.77758 0.53960
 H1567 H 0.91090 0.72265 0.58319
 H1568 H 0.93058 0.79197 0.60642
 H1569 H 0.83916 0.84040 0.56076
 H1570 H 0.82589 0.78077 0.51594
 H1571 H 0.87905 0.74033 0.56061
 H1572 H 0.85951 0.76019 0.53315
   
