data_POSCAR
  _audit_creation_date              2014-09-24
  _audit_creation_method            'ToBaCCo'
  _symmetry_space_group_name_H-M    'P1'
  _symmetry_Int_Tables_number       1
  _symmetry_cell_setting            triclinic
  loop_
  _symmetry_equiv_pos_as_xyz
 x,y,z
_cell_length_a 62.3077
_cell_length_b 61.9547
_cell_length_c 56.7030
_cell_angle_alpha 90.322000
_cell_angle_beta 89.662200
_cell_angle_gamma 91.445600
loop_
  _atom_site_label
  _atom_site_type_symbol
  _atom_site_fract_x
  _atom_site_fract_y
  _atom_site_fract_z
C1 C 0.36904 0.01288 0.29382
 C2 C 0.35655 0.03155 0.28363
 C3 C 0.34544 0.02650 0.26375
 C4 C 0.34767 0.00302 0.25567
 C5 C 0.35238 -0.00561 0.29696
 C6 C 0.34126 -0.01090 0.27707
 C7 C 0.38317 0.00509 0.27317
 C8 C 0.37205 0.00012 0.25311
 H9 H 0.35742 0.04778 0.29087
 H10 H 0.33825 -0.00093 0.23961
 H11 H 0.35145 -0.01534 0.31276
 H12 H 0.40037 0.00372 0.27406
 C13 C 0.11981 -0.01386 0.76050
 C14 C 0.13490 -0.03028 0.74947
 C15 C 0.14666 -0.02253 0.73102
 C16 C 0.14206 0.00102 0.72486
 C17 C 0.13427 0.00579 0.76647
 C18 C 0.14582 0.01382 0.74789
 C19 C 0.10672 -0.00692 0.74084
 C20 C 0.11878 0.00151 0.72105
 H21 H 0.13571 -0.04687 0.75530
 H22 H 0.15228 0.00715 0.71030
 H23 H 0.13463 0.01307 0.78387
 H24 H 0.08987 -0.01109 0.73942
 C25 C 0.61491 0.49950 0.26951
 C26 C 0.63079 0.48361 0.25894
 C27 C 0.64234 0.49142 0.24043
 C28 C 0.63693 0.51448 0.23361
 C29 C 0.62836 0.51999 0.27493
 C30 C 0.63990 0.52787 0.25629
 C31 C 0.60092 0.50586 0.24840
 C32 C 0.61246 0.51365 0.22955
 H33 H 0.63231 0.46722 0.26519
 H34 H 0.64646 0.52076 0.21846
 H35 H 0.62855 0.52758 0.29218
 H36 H 0.58373 0.50345 0.24764
 C37 C 0.86776 0.50868 0.79587
 C38 C 0.85564 0.52672 0.78389
 C39 C 0.84592 0.52067 0.76345
 C40 C 0.84928 0.49710 0.75641
 C41 C 0.85129 0.48999 0.79848
 C42 C 0.84152 0.48387 0.77797
 C43 C 0.88327 0.50040 0.77692
 C44 C 0.87391 0.49499 0.75594
 H45 H 0.85520 0.54305 0.79079
 H46 H 0.84111 0.49275 0.73967
 H47 H 0.84915 0.48098 0.81465
 H48 H 0.90020 0.49849 0.78011
 C49 C 0.26658 0.40358 1.00747
 C50 C 0.25917 0.38981 1.02857
 C51 C 0.24207 0.37638 1.02402
 C52 C 0.23376 0.37796 0.99874
 C53 C 0.27025 0.38742 0.98741
 C54 C 0.25322 0.37406 0.98275
 C55 C 0.24615 0.41552 1.00037
 C56 C 0.22885 0.40206 0.99601
 H57 H 0.26620 0.39144 1.04594
 H58 H 0.22003 0.36675 0.99501
 H59 H 0.28478 0.38758 0.97681
 H60 H 0.24448 0.43278 1.00184
 C61 C 0.78220 0.08863 0.99578
 C62 C 0.77360 0.10152 0.97492
 C63 C 0.75744 0.11491 0.98078
 C64 C 0.75121 0.11403 1.00696
 C65 C 0.78823 0.10555 1.01450
 C66 C 0.77212 0.11890 1.02056
 C67 C 0.76325 0.07729 1.00521
 C68 C 0.74580 0.09118 1.01121
 H69 H 0.77893 0.09921 0.95688
 H70 H 0.73872 0.12569 1.01141
 H71 H 0.80371 0.10594 1.02310
 H72 H 0.76092 0.06004 1.00325
 C73 C 0.27850 0.59260 0.49012
 C74 C 0.26932 0.60562 0.46975
 C75 C 0.25333 0.61898 0.47622
 C76 C 0.24773 0.61807 0.50252
 C77 C 0.28492 0.60942 0.50885
 C78 C 0.26892 0.62265 0.51548
 C79 C 0.25862 0.58065 0.50052
 C80 C 0.24237 0.59399 0.50678
 H81 H 0.27426 0.60351 0.45155
 H82 H 0.23481 0.62917 0.50773
 H83 H 0.30045 0.60969 0.51737
 H84 H 0.25609 0.56335 0.49949
 C85 C 0.76460 0.90786 0.51089
 C86 C 0.75639 0.89331 0.53098
 C87 C 0.73988 0.87967 0.52488
 C88 C 0.73287 0.88189 0.49914
 C89 C 0.76971 0.89243 0.49056
 C90 C 0.75325 0.87892 0.48430
 C91 C 0.74436 0.91960 0.50294
 C92 C 0.72760 0.90598 0.49701
 H93 H 0.76261 0.89437 0.54876
 H94 H 0.71964 0.87053 0.49404
 H95 H 0.78479 0.89319 0.48094
 H96 H 0.74227 0.93675 0.50518
 C97 C -0.00417 0.28295 0.39128
 C98 C 0.01686 0.27917 0.37763
 C99 C 0.01571 0.26229 0.36212
 C100 C -0.00649 0.25076 0.36151
 C101 C -0.02002 0.28547 0.37290
 C102 C -0.02178 0.26775 0.35657
 C103 C -0.00963 0.26113 0.40270
 C104 C -0.01061 0.24414 0.38738
 H105 H 0.03116 0.28932 0.37891
 H106 H -0.00685 0.23701 0.34894
 H107 H -0.03044 0.29917 0.37258
 H108 H -0.01029 0.25912 0.42166
 C109 C 0.00485 0.76643 0.11780
 C110 C -0.01461 0.76666 0.13434
 C111 C -0.01632 0.74951 0.14915
 C112 C 0.00143 0.73299 0.14562
 C113 C 0.02408 0.76359 0.13413
 C114 C 0.02224 0.74640 0.14880
 C115 C 0.00265 0.74473 0.10465
 C116 C 0.00103 0.72715 0.11908
 H117 H -0.02569 0.77986 0.13483
 H118 H 0.00019 0.71905 0.15780
 H119 H 0.03795 0.77451 0.13422
 H120 H 0.00228 0.74316 0.08572
 C121 C 0.49744 0.26521 0.62324
 C122 C 0.47779 0.26498 0.63953
 C123 C 0.47632 0.24778 0.65431
 C124 C 0.49446 0.23168 0.65097
 C125 C 0.51656 0.26281 0.63984
 C126 C 0.51495 0.24555 0.65447
 C127 C 0.49587 0.24350 0.61005
 C128 C 0.49446 0.22589 0.62443
 H129 H 0.46646 0.27796 0.64000
 H130 H 0.49336 0.21768 0.66307
 H131 H 0.53017 0.27406 0.64013
 H132 H 0.49572 0.24193 0.59111
 C133 C 0.49889 0.78398 0.89644
 C134 C 0.52004 0.78214 0.88244
 C135 C 0.52050 0.76486 0.86743
 C136 C 0.49960 0.75100 0.86773
 C137 C 0.48173 0.78443 0.87708
 C138 C 0.48180 0.76707 0.86224
 C139 C 0.49574 0.76327 0.90788
 C140 C 0.49637 0.74490 0.89247
 H141 H 0.53305 0.79401 0.88316
 H142 H 0.49965 0.73743 0.85495
 H143 H 0.47011 0.79706 0.87567
 H144 H 0.49567 0.76199 0.92692
 C145 C -0.22805 0.61837 0.95935
 C146 C -0.21249 0.60231 0.96975
 C147 C -0.21952 0.59289 0.99006
 C148 C -0.24164 0.60027 0.99837
 C149 C -0.24929 0.60554 0.95678
 C150 C -0.25642 0.59591 0.97700
 C151 C -0.23272 0.63435 0.97947
 C152 C -0.23936 0.62508 1.00011
 H153 H -0.19699 0.59902 0.96195
 H154 H -0.24705 0.59208 1.01477
 H155 H -0.25843 0.60501 0.94059
 H156 H -0.23275 0.65161 0.97700
 C157 C -0.26149 0.37192 0.48972
 C158 C -0.27824 0.38703 0.50005
 C159 C -0.27123 0.39874 0.51891
 C160 C -0.24809 0.39406 0.52616
 C161 C -0.24178 0.38651 0.48475
 C162 C -0.23451 0.39802 0.50373
 C163 C -0.25534 0.35861 0.50957
 C164 C -0.24777 0.37063 0.52979
 H165 H -0.29450 0.38788 0.49349
 H166 H -0.24250 0.40417 0.54111
 H167 H -0.23410 0.38722 0.46758
 H168 H -0.25962 0.34168 0.51077
 C169 C 0.25131 -0.12633 -0.01615
 C170 C 0.23164 -0.11609 -0.00498
 C171 C 0.23572 -0.10551 0.01551
 C172 C 0.25914 -0.10624 0.02334
 C173 C 0.26809 -0.10781 -0.01833
 C174 C 0.27220 -0.09712 0.00228
 C175 C 0.25994 -0.14008 0.00205
 C176 C 0.26409 -0.12933 0.02424
 H177 H 0.21587 -0.11668 -0.01299
 H178 H 0.26129 -0.09673 0.03969
 H179 H 0.27721 -0.10481 -0.03434
 H180 H 0.26574 -0.15594 -0.00201
 C181 C 0.26960 1.11481 0.45472
 C182 C 0.28486 1.09816 0.46449
 C183 C 0.27776 1.08837 0.48456
 C184 C 0.25585 1.09601 0.49326
 C185 C 0.24809 1.10250 0.45192
 C186 C 0.24089 1.09249 0.47189
 C187 C 0.26539 1.13038 0.47535
 C188 C 0.25866 1.12071 0.49573
 H189 H 0.30029 1.09487 0.45651
 H190 H 0.25034 1.08758 0.50948
 H191 H 0.23882 1.10265 0.43583
 H192 H 0.26590 1.14772 0.47345
 C193 C 0.15374 0.51146 0.24306
 C194 C 0.13805 0.50230 0.22458
 C195 C 0.12450 0.48644 0.23277
 C196 C 0.12786 0.48098 0.25883
 C197 C 0.13969 0.51824 0.26382
 C198 C 0.12626 0.50250 0.27225
 C199 C 0.16534 0.49137 0.25178
 C200 C 0.15183 0.47526 0.25990
 H201 H 0.13889 0.50666 0.20611
 H202 H 0.11665 0.46825 0.26564
 H203 H 0.14062 0.53432 0.27143
 H204 H 0.18222 0.48882 0.24865
 C205 C -0.15731 1.03767 0.24622
 C206 C -0.14334 1.03091 0.26715
 C207 C -0.12912 1.01523 0.26172
 C208 C -0.13023 1.00768 0.23589
 C209 C -0.14126 1.04392 0.22684
 C210 C -0.12726 1.02832 0.22106
 C211 C -0.16744 1.01758 0.23813
 C212 C -0.15270 1.00074 0.23271
 H213 H -0.14598 1.03593 0.28519
 H214 H -0.11821 0.99549 0.23120
 H215 H -0.14131 1.05946 0.21815
 H216 H -0.18461 1.01475 0.23963
 C217 C 0.34460 0.52879 -0.24250
 C218 C 0.36002 0.51948 -0.22441
 C219 C 0.37313 0.50416 -0.23328
 C220 C 0.36958 0.49924 -0.25951
 C221 C 0.35887 0.53641 -0.26296
 C222 C 0.37187 0.52115 -0.27201
 C223 C 0.33240 0.50874 -0.25208
 C224 C 0.34544 0.49314 -0.26080
 H225 H 0.35942 0.52341 -0.20577
 H226 H 0.38026 0.48673 -0.26678
 H227 H 0.35855 0.55271 -0.26975
 H228 H 0.31547 0.50562 -0.24893
 C229 C 0.65142 0.00888 -0.25844
 C230 C 0.63699 -0.00129 -0.27756
 C231 C 0.62524 -0.01886 -0.27025
 C232 C 0.62900 -0.02494 -0.24447
 C233 C 0.63638 0.01319 -0.23766
 C234 C 0.62457 -0.00424 -0.23033
 C235 C 0.66511 -0.00998 -0.25025
 C236 C 0.65346 -0.02788 -0.24337
 H237 H 0.63679 0.00441 -0.29559
 H238 H 0.61923 -0.03925 -0.23884
 H239 H 0.63575 0.02878 -0.22896
 H240 H 0.68234 -0.01019 -0.25197
 C241 C 0.02465 0.25037 0.84478
 C242 C 0.02452 0.26816 0.86383
 C243 C 0.00763 0.26657 0.87928
 C244 C -0.00770 0.24714 0.87407
 C245 C 0.02395 0.22941 0.85909
 C246 C 0.00700 0.22753 0.87423
 C247 C 0.00387 0.25129 0.83366
 C248 C -0.01419 0.24933 0.84934
 H249 H 0.03690 0.28056 0.86553
 H250 H -0.02091 0.24519 0.88706
 H251 H 0.03599 0.21716 0.85752
 H252 H 0.00248 0.25504 0.81512
 C253 C 0.52147 0.26871 0.13926
 C254 C 0.52216 0.24646 0.12734
 C255 C 0.50550 0.24189 0.11251
 C256 C 0.48956 0.26040 0.11060
 C257 C 0.52026 0.28428 0.11834
 C258 C 0.50359 0.28009 0.10350
 C259 C 0.49933 0.26931 0.15102
 C260 C 0.48252 0.26499 0.13626
 H261 H 0.53550 0.23578 0.12940
 H262 H 0.47614 0.25708 0.09824
 H263 H 0.53173 0.29728 0.11499
 H264 H 0.49738 0.27201 0.16978
 C265 C 0.02170 0.76188 0.63291
 C266 C 0.02269 0.74166 0.61730
 C267 C 0.00596 0.73896 0.60210
 C268 C -0.01067 0.75690 0.60406
 C269 C 0.01958 0.78027 0.61499
 C270 C 0.00269 0.77774 0.60006
 C271 C -0.00020 0.76014 0.64519
 C272 C -0.01727 0.75762 0.63036
 H273 H 0.03599 0.73075 0.61780
 H274 H -0.02419 0.75506 0.59151
 H275 H 0.03094 0.79360 0.61305
 H276 H -0.00178 0.76037 0.66421
 C277 C 0.53068 0.75074 0.34764
 C278 C 0.52988 0.76853 0.36658
 C279 C 0.51309 0.76646 0.38208
 C280 C 0.49835 0.74660 0.37701
 C281 C 0.53051 0.72982 0.36197
 C282 C 0.51359 0.72746 0.37709
 C283 C 0.50873 0.75096 0.33589
 C284 C 0.49176 0.74865 0.35093
 H285 H 0.54192 0.78129 0.36813
 H286 H 0.48463 0.74447 0.38941
 H287 H 0.54294 0.71796 0.36055
 H288 H 0.50691 0.75297 0.31704
 B289 B 0.00616 0.01588 1.02154
 B290 B -0.00674 0.00740 0.99697
 B291 B 0.01419 0.02514 0.99492
 B292 B 0.03264 0.01869 1.01529
 B293 B 0.02287 -0.00359 1.02978
 B294 B -0.00166 -0.01031 1.01866
 B295 B 0.02803 -0.01450 0.98340
 B296 B 0.04089 -0.00634 1.00799
 B297 B 0.01987 -0.02379 1.00987
 B298 B 0.00151 -0.01728 0.98969
 B299 B 0.01138 0.00476 0.97508
 B300 B 0.03607 0.01159 0.98649
 B301 B 0.49562 0.51473 0.52239
 B302 B 0.48523 0.50627 0.49653
 B303 B 0.50663 0.52341 0.49675
 B304 B 0.52267 0.51698 0.51938
 B305 B 0.51097 0.49526 0.53316
 B306 B 0.48754 0.48868 0.51901
 B307 B 0.52064 0.48335 0.48786
 B308 B 0.53113 0.49179 0.51364
 B309 B 0.50968 0.47472 0.51342
 B310 B 0.49364 0.48118 0.49088
 B311 B 0.50538 0.50277 0.47711
 B312 B 0.52880 0.50940 0.49121
 B313 B 0.50095 0.96807 0.54039
 B314 B 0.51147 0.97618 0.51443
 B315 B 0.48988 0.95937 0.51482
 B316 B 0.47394 0.96614 0.53776
 B317 B 0.48591 0.98781 0.55152
 B318 B 0.50941 0.99396 0.53700
 B319 B 0.47633 0.99954 0.50639
 B320 B 0.46578 0.99137 0.53231
 B321 B 0.48749 1.00823 0.53184
 B322 B 0.50338 1.00136 0.50896
 B323 B 0.49134 0.97982 0.49521
 B324 B 0.46791 0.97359 0.50966
 B325 B 0.00306 0.46773 1.03980
 B326 B 0.01334 0.47502 1.01342
 B327 B -0.00866 0.45876 1.01467
 B328 B -0.02403 0.46649 1.03776
 B329 B -0.01123 0.48815 1.05068
 B330 B 0.01213 0.49334 1.03553
 B331 B -0.02136 0.49912 1.00547
 B332 B -0.03158 0.49185 1.03183
 B333 B -0.00946 0.50808 1.03043
 B334 B 0.00578 0.50030 1.00740
 B335 B -0.00705 0.47878 0.99451
 B336 B -0.03035 0.47347 1.00963
 B337 B 0.01137 0.51111 0.49036
 B338 B 0.02468 0.51154 0.51604
 B339 B 0.00453 0.52863 0.51192
 B340 B -0.01475 0.51592 0.49594
 B341 B -0.00633 0.49030 0.49049
 B342 B 0.01826 0.48776 0.50301
 B343 B -0.01057 0.49527 0.53830
 B344 B -0.02400 0.49536 0.51250
 B345 B -0.00385 0.47792 0.51680
 B346 B 0.01556 0.49072 0.53273
 B347 B 0.00725 0.51624 0.53809
 B348 B -0.01744 0.51892 0.52586
 B349 B 0.51589 0.01388 -0.00863
 B350 B 0.52838 0.01288 0.01755
 B351 B 0.51010 0.03191 0.01284
 B352 B 0.49020 0.02108 -0.00401
 B353 B 0.49631 -0.00515 -0.00934
 B354 B 0.52014 -0.01022 0.00409
 B355 B 0.49127 0.00006 0.03838
 B356 B 0.47873 0.00115 0.01226
 B357 B 0.49695 -0.01791 0.01687
 B358 B 0.51692 -0.00713 0.03377
 B359 B 0.51076 0.01912 0.03913
 B360 B 0.48699 0.02420 0.02565
 B361 B 0.49077 0.49125 -0.03478
 B362 B 0.47882 0.49593 -0.00865
 B363 B 0.49927 0.47876 -0.01034
 B364 B 0.51737 0.48828 -0.03033
 B365 B 0.50780 0.51185 -0.04088
 B366 B 0.48374 0.51657 -0.02740
 B367 B 0.51468 0.51673 0.00660
 B368 B 0.52662 0.51217 -0.01955
 B369 B 0.50613 0.52927 -0.01790
 B370 B 0.48812 0.51976 0.00211
 B371 B 0.49764 0.49615 0.01263
 B372 B 0.52167 0.49141 -0.00085
 B373 B -0.01391 0.99273 0.46611
 B374 B -0.02444 0.99751 0.49296
 B375 B -0.00445 0.97993 0.48992
 B376 B 0.01283 0.98922 0.46897
 B377 B 0.00322 1.01306 0.45920
 B378 B -0.02005 1.01815 0.47411
 B379 B 0.01249 1.01753 0.50622
 B380 B 0.02304 1.01288 0.47937
 B381 B 0.00300 1.03038 0.48234
 B382 B -0.01417 1.02110 0.50332
 B383 B -0.00462 0.99723 0.51307
 B384 B 0.01862 0.99210 0.49816
 B385 B 0.76548 0.26349 0.21452
 B386 B 0.76116 0.24914 0.23938
 B387 B 0.78006 0.26932 0.23871
 B388 B 0.77073 0.28950 0.22187
 B389 B 0.74588 0.28164 0.21239
 B390 B 0.74015 0.25645 0.22296
 B391 B 0.74456 0.28404 0.26043
 B392 B 0.74847 0.29835 0.23567
 B393 B 0.72998 0.27811 0.23623
 B394 B 0.73923 0.25805 0.25301
 B395 B 0.76412 0.26609 0.26274
 B396 B 0.76973 0.29125 0.25191
 B397 B 0.72535 0.74640 0.71208
 B398 B 0.73336 0.75803 0.73773
 B399 B 0.71714 0.73580 0.73805
 B400 B 0.72440 0.71933 0.71560
 B401 B 0.74568 0.73165 0.70147
 B402 B 0.75089 0.75576 0.71503
 B403 B 0.75764 0.72367 0.74681
 B404 B 0.74991 0.71220 0.72119
 B405 B 0.76592 0.73455 0.72104
 B406 B 0.75856 0.75082 0.74337
 B407 B 0.73757 0.73843 0.75753
 B408 B 0.73216 0.71427 0.74372
 B409 B 0.25215 0.26366 0.76024
 B410 B 0.25549 0.27691 0.73473
 B411 B 0.27143 0.25626 0.74110
 B412 B 0.25672 0.23726 0.75559
 B413 B 0.23114 0.24643 0.75773
 B414 B 0.23057 0.27108 0.74468
 B415 B 0.24093 0.24159 0.71087
 B416 B 0.23791 0.22832 0.73670
 B417 B 0.22172 0.24897 0.72998
 B418 B 0.23651 0.26803 0.71554
 B419 B 0.26205 0.25908 0.71355
 B420 B 0.26274 0.23424 0.72629
 B421 B 0.23828 0.73475 0.27623
 B422 B 0.24361 0.72361 0.24980
 B423 B 0.22633 0.74398 0.25185
 B424 B 0.23516 0.76160 0.27270
 B425 B 0.25843 0.75186 0.28350
 B426 B 0.26367 0.72814 0.26927
 B427 B 0.26428 0.76033 0.23647
 B428 B 0.25902 0.77145 0.26291
 B429 B 0.27625 0.75110 0.26096
 B430 B 0.26746 0.73352 0.24004
 B431 B 0.24411 0.74320 0.22925
 B432 B 0.23887 0.76691 0.24349
 B433 B 0.26681 0.74618 0.72602
 B434 B 0.26085 0.73659 0.75300
 B435 B 0.27860 0.75735 0.75007
 B436 B 0.27041 0.77334 0.72795
 B437 B 0.24707 0.76221 0.71737
 B438 B 0.24115 0.73925 0.73293
 B439 B 0.24058 0.77330 0.76361
 B440 B 0.24653 0.78303 0.73671
 B441 B 0.22887 0.76218 0.73957
 B442 B 0.23706 0.74623 0.76163
 B443 B 0.26037 0.75739 0.77227
 B444 B 0.26626 0.78037 0.75675
 B445 B 0.22402 0.25341 0.21779
 B446 B 0.23113 0.26245 0.24482
 B447 B 0.21632 0.23942 0.24200
 B448 B 0.22459 0.22608 0.21767
 B449 B 0.24504 0.24111 0.20537
 B450 B 0.24897 0.26385 0.22221
 B451 B 0.25748 0.22884 0.24940
 B452 B 0.25039 0.21979 0.22249
 B453 B 0.26515 0.24288 0.22524
 B454 B 0.25689 0.25614 0.24957
 B455 B 0.23656 0.24114 0.26185
 B456 B 0.23252 0.21845 0.24504
 B457 B 0.76161 0.77156 0.26066
 B458 B 0.76396 0.78333 0.23419
 B459 B 0.77934 0.76228 0.24070
 B460 B 0.76473 0.74474 0.25730
 B461 B 0.73976 0.75522 0.26066
 B462 B 0.73951 0.77920 0.24622
 B463 B 0.74648 0.74761 0.21354
 B464 B 0.74443 0.73580 0.24038
 B465 B 0.72884 0.75683 0.23346
 B466 B 0.74349 0.77445 0.21698
 B467 B 0.76844 0.76417 0.21368
 B468 B 0.76881 0.73999 0.22785
 B469 B 0.73019 0.23321 0.78270
 B470 B 0.73498 0.22311 0.75563
 B471 B 0.71786 0.24346 0.75906
 B472 B 0.72717 0.26024 0.78050
 B473 B 0.75057 0.24994 0.79026
 B474 B 0.75541 0.22674 0.77483
 B475 B 0.75563 0.26017 0.74356
 B476 B 0.75094 0.27031 0.77059
 B477 B 0.76800 0.24990 0.76731
 B478 B 0.75872 0.23324 0.74581
 B479 B 0.73524 0.24348 0.73605
 B480 B 0.73039 0.26662 0.75148
 C481 C 0.40047 1.03087 0.35979
 C482 C 0.37817 1.02703 0.35878
 C483 C 0.36828 1.02160 0.33746
 C484 C 0.38040 1.01947 0.31660
 C485 C 0.40253 1.02473 0.31740
 C486 C 0.41245 1.03015 0.33875
 C487 C 0.41127 1.03403 0.38282
 N488 N 0.43299 1.03618 0.38417
 N489 N 0.44283 1.03624 0.40499
 C490 C 0.43133 1.03417 0.42531
 N491 N 0.40958 1.03272 0.42396
 N492 N 0.39977 1.03270 0.40319
 C493 C 0.44216 1.03003 0.44794
 C494 C 0.43071 1.01940 0.46598
 C495 C 0.44138 1.01095 0.48516
 C496 C 0.46376 1.01368 0.48760
 C497 C 0.47503 1.02573 0.47030
 C498 C 0.46436 1.03372 0.45061
 H499 H 0.36834 1.02778 0.37456
 H500 H 0.35106 1.01871 0.33736
 H501 H 0.41241 1.02485 0.30171
 H502 H 0.42960 1.03346 0.33880
 H503 H 0.41364 1.01600 0.46441
 H504 H 0.43203 1.00086 0.49698
 H505 H 0.49231 1.02781 0.47106
 H506 H 0.47365 1.04186 0.43696
 C507 C -0.10144 0.52939 0.86123
 C508 C -0.12295 0.52194 0.86120
 C509 C -0.13295 0.51570 0.84018
 C510 C -0.12162 0.51643 0.81865
 C511 C -0.10072 0.52572 0.81852
 C512 C -0.09064 0.53178 0.83957
 C513 C -0.08999 0.53297 0.88381
 N514 N -0.06827 0.53571 0.88430
 N515 N -0.05773 0.53585 0.90471
 C516 C -0.06851 0.53330 0.92545
 N517 N -0.09026 0.53134 0.92493
 N518 N -0.10077 0.53119 0.90459
 C519 C -0.05690 0.52916 0.94763
 C520 C -0.06785 0.51867 0.96610
 C521 C -0.05668 0.51029 0.98494
 C522 C -0.03424 0.51304 0.98671
 C523 C -0.02339 0.52487 0.96893
 C524 C -0.03459 0.53273 0.94951
 H525 H -0.13194 0.52030 0.87751
 H526 H -0.14950 0.51003 0.84091
 H527 H -0.09195 0.52813 0.80219
 H528 H -0.07425 0.53800 0.83889
 H529 H -0.08496 0.51531 0.96518
 H530 H -0.06577 0.50029 0.99709
 H531 H -0.00609 0.52687 0.96917
 H532 H -0.02566 0.54071 0.93547
 C533 C 0.08971 -0.03604 0.82594
 C534 C 0.11175 -0.03825 0.82170
 C535 C 0.12093 -0.03153 0.80041
 C536 C 0.10839 -0.02253 0.78255
 C537 C 0.08616 -0.02063 0.78673
 C538 C 0.07695 -0.02750 0.80808
 C539 C 0.08061 -0.04062 0.84965
 N540 N 0.05908 -0.04048 0.85363
 N541 N 0.05119 -0.04201 0.87548
 C542 C 0.06451 -0.04369 0.89423
 N543 N 0.08598 -0.04441 0.89016
 N544 N 0.09384 -0.04301 0.86835
 C545 C 0.05626 -0.04113 0.91854
 C546 C 0.06939 -0.03099 0.93549
 C547 C 0.06074 -0.02391 0.95676
 C548 C 0.03890 -0.02766 0.96227
 C549 C 0.02615 -0.03940 0.94597
 C550 C 0.03469 -0.04584 0.92421
 H551 H 0.12210 -0.04467 0.83509
 H552 H 0.13811 -0.03287 0.79807
 H553 H 0.07579 -0.01317 0.77417
 H554 H 0.05995 -0.02526 0.81093
 H555 H 0.08600 -0.02681 0.93153
 H556 H 0.07101 -0.01410 0.96802
 H557 H 0.00918 -0.04227 0.94921
 H558 H 0.02419 -0.05361 0.91140
 C559 C 0.58674 0.47306 0.33403
 C560 C 0.60902 0.47569 0.33108
 C561 C 0.61758 0.48418 0.31028
 C562 C 0.60422 0.49023 0.29163
 C563 C 0.58186 0.48723 0.29439
 C564 C 0.57324 0.47872 0.31537
 C565 C 0.57781 0.46597 0.35709
 N566 N 0.55630 0.46323 0.36047
 N567 N 0.54830 0.45928 0.38192
 C568 C 0.56147 0.45788 0.40085
 N569 N 0.58298 0.46000 0.39731
 N570 N 0.59097 0.46386 0.37590
 C571 C 0.55254 0.45804 0.42508
 C572 C 0.56484 0.46708 0.44345
 C573 C 0.55510 0.47312 0.46457
 C574 C 0.53294 0.46955 0.46827
 C575 C 0.52121 0.45810 0.45085
 C576 C 0.53086 0.45263 0.42936
 H577 H 0.61995 0.47152 0.34502
 H578 H 0.63486 0.48617 0.30874
 H579 H 0.57081 0.49155 0.28075
 H580 H 0.55597 0.47700 0.31711
 H581 H 0.58159 0.47150 0.44075
 H582 H 0.56473 0.48246 0.47690
 H583 H 0.50410 0.45511 0.45280
 H584 H 0.52103 0.44545 0.41557
 C585 C 0.58436 0.53042 0.16293
 C586 C 0.60497 0.52176 0.16402
 C587 C 0.61390 0.51628 0.18560
 C588 C 0.60262 0.51956 0.20676
 C589 C 0.58204 0.52838 0.20578
 C590 C 0.57297 0.53369 0.18407
 C591 C 0.57473 0.53490 0.13964
 N592 N 0.55344 0.53878 0.13736
 N593 N 0.54466 0.54060 0.11605
 C594 C 0.55685 0.53868 0.09622
 N595 N 0.57818 0.53545 0.09862
 N596 N 0.58692 0.53364 0.11981
 C597 C 0.54698 0.53700 0.07252
 C598 C 0.55820 0.52650 0.05450
 C599 C 0.54825 0.52125 0.03334
 C600 C 0.52699 0.52717 0.02885
 C601 C 0.51610 0.53892 0.04636
 C602 C 0.52594 0.54360 0.06812
 H603 H 0.61413 0.51871 0.14812
 H604 H 0.62948 0.50897 0.18553
 H605 H 0.57301 0.53134 0.22179
 H606 H 0.55706 0.54032 0.18384
 H607 H 0.57432 0.52093 0.05725
 H608 H 0.55710 0.51145 0.02102
 H609 H 0.49961 0.54344 0.04383
 H610 H 0.51688 0.55174 0.08172
 C611 C 0.08887 1.02381 0.65842
 C612 C 0.07708 1.02140 0.67943
 C613 C 0.08692 1.01419 0.69996
 C614 C 0.10892 1.00907 0.70017
 C615 C 0.12064 1.01183 0.67896
 C616 C 0.11079 1.01913 0.65854
 C617 C 0.07828 1.02982 0.63608
 N618 N 0.08985 1.03101 0.61577
 N619 N 0.08025 1.03411 0.59522
 C620 C 0.05866 1.03629 0.59403
 N621 N 0.04708 1.03577 0.61442
 N622 N 0.05671 1.03262 0.63504
 C623 C 0.04794 1.03576 0.57078
 C624 C 0.02678 1.04262 0.56779
 C625 C 0.01600 1.03877 0.54641
 C626 C 0.02601 1.02749 0.52789
 C627 C 0.04741 1.02131 0.53100
 C628 C 0.05833 1.02586 0.55178
 H629 H 0.06015 1.02490 0.68001
 H630 H 0.07710 1.01317 0.71571
 H631 H 0.13725 1.00754 0.67730
 H632 H 0.12039 1.02057 0.64262
 H633 H 0.01836 1.05028 0.58221
 H634 H -0.00056 1.04346 0.54497
 H635 H 0.05561 1.01173 0.51794
 H636 H 0.07449 1.02006 0.55351
 C637 C -0.08860 0.48267 0.69304
 C638 C -0.07995 0.49464 0.71197
 C639 C -0.09208 0.49841 0.73220
 C640 C -0.11321 0.49007 0.73440
 C641 C -0.12189 0.47797 0.71549
 C642 C -0.10971 0.47428 0.69504
 C643 C -0.07577 0.48012 0.67111
 N644 N -0.08428 0.47077 0.65139
 N645 N -0.07299 0.47014 0.63132
 C646 C -0.05274 0.47883 0.63021
 N647 N -0.04417 0.48774 0.65004
 N648 N -0.05541 0.48834 0.67001
 C649 C -0.04085 0.48056 0.60756
 C650 C -0.02338 0.49519 0.60569
 C651 C -0.01347 0.49907 0.58403
 C652 C -0.02057 0.48834 0.56342
 C653 C -0.03698 0.47244 0.56568
 C654 C -0.04729 0.46885 0.58742
 H655 H -0.06386 0.50162 0.71104
 H656 H -0.08491 0.50850 0.74581
 H657 H -0.13805 0.47133 0.71633
 H658 H -0.11690 0.46505 0.68073
 H659 H -0.01781 0.50440 0.62084
 H660 H -0.00054 0.51103 0.58362
 H661 H -0.04258 0.46337 0.55058
 H662 H -0.06052 0.45720 0.58835
 C663 C 0.40431 -0.01477 0.18778
 C664 C 0.41262 -0.02183 0.20930
 C665 C 0.40186 -0.01763 0.23052
 C666 C 0.38263 -0.00616 0.23067
 C667 C 0.37400 0.00022 0.20908
 C668 C 0.38463 -0.00410 0.18793
 C669 C 0.41658 -0.01692 0.16542
 N670 N 0.40835 -0.00932 0.14510
 N671 N 0.41993 -0.00899 0.12537
 C672 C 0.44028 -0.01629 0.12496
 N673 N 0.44843 -0.02452 0.14509
 N674 N 0.43679 -0.02480 0.16496
 C675 C 0.45363 -0.01302 0.10354
 C676 C 0.47160 -0.02555 0.09831
 C677 C 0.48374 -0.02165 0.07768
 C678 C 0.47829 -0.00492 0.06230
 C679 C 0.46056 0.00776 0.06815
 C680 C 0.44836 0.00362 0.08819
 H681 H 0.42766 -0.03020 0.20983
 H682 H 0.40875 -0.02316 0.24682
 H683 H 0.35946 0.00938 0.20848
 H684 H 0.37772 0.00165 0.17173
 H685 H 0.47605 -0.03847 0.10995
 H686 H 0.49730 -0.03170 0.07378
 H687 H 0.45554 0.02080 0.05700
 H688 H 0.43484 0.01381 0.09180
 C689 C 0.32776 0.43776 0.01667
 C690 C 0.32486 0.41606 0.02320
 C691 C 0.30487 0.40571 0.02106
 C692 C 0.28708 0.41669 0.01244
 C693 C 0.28978 0.43871 0.00670
 C694 C 0.30991 0.44915 0.00896
 C695 C 0.34970 0.44752 0.01599
 N696 N 0.35314 0.46920 0.01380
 N697 N 0.37304 0.47747 0.01150
 C698 C 0.39019 0.46434 0.01109
 N699 N 0.38671 0.44277 0.01354
 N700 N 0.36693 0.43456 0.01602
 C701 C 0.41214 0.47281 0.00636
 C702 C 0.42660 0.45972 -0.00570
 C703 C 0.44735 0.46718 -0.01065
 C704 C 0.45463 0.48775 -0.00309
 C705 C 0.44001 0.50098 0.00891
 C706 C 0.41889 0.49365 0.01338
 H707 H 0.33822 0.40680 0.02932
 H708 H 0.30347 0.38872 0.02538
 H709 H 0.27681 0.44780 -0.00046
 H710 H 0.31169 0.46586 0.00363
 H711 H 0.42173 0.44375 -0.01183
 H712 H 0.45750 0.45671 -0.02082
 H713 H 0.44478 0.51704 0.01477
 H714 H 0.40796 0.50410 0.02262
 C715 C -0.17529 0.94271 0.52369
 C716 C -0.19268 0.95375 0.51427
 C717 C -0.21258 0.94312 0.51102
 C718 C -0.21554 0.92131 0.51748
 C719 C -0.19828 0.91074 0.52787
 C720 C -0.17853 0.92129 0.53106
 C721 C -0.15329 0.95227 0.52336
 N722 N -0.13622 0.93917 0.52470
 N723 N -0.11633 0.94698 0.52185
 C724 C -0.11261 0.96828 0.51772
 N725 N -0.12959 0.98160 0.51696
 N726 N -0.14958 0.97372 0.51962
 C727 C -0.09069 0.97607 0.51194
 C728 C -0.08323 0.99684 0.51825
 C729 C -0.06219 1.00361 0.51257
 C730 C -0.04843 0.98988 0.50000
 C731 C -0.05648 0.96938 0.49312
 C732 C -0.07711 0.96245 0.49936
 H733 H -0.19060 0.97021 0.50821
 H734 H -0.22509 0.95179 0.50236
 H735 H -0.19978 0.89385 0.53260
 H736 H -0.16551 0.91230 0.53844
 H737 H -0.09353 1.00768 0.52784
 H738 H -0.05684 1.01965 0.51789
 H739 H -0.04708 0.95863 0.48242
 H740 H -0.08265 0.94653 0.49375
 C741 C -0.15894 0.05445 0.98198
 C742 C -0.17540 0.04456 0.99548
 C743 C -0.19483 0.05491 0.99928
 C744 C -0.19836 0.07531 0.98936
 C745 C -0.18188 0.08493 0.97559
 C746 C -0.16259 0.07457 0.97172
 C747 C -0.13744 0.04489 0.98032
 N748 N -0.12152 0.05465 0.96746
 N749 N -0.10163 0.04730 0.96776
 C750 C -0.09682 0.02988 0.98097
 N751 N -0.11283 0.01988 0.99345
 N752 N -0.13272 0.02721 0.99313
 C753 C -0.07437 0.02297 0.98323
 C754 C -0.06919 0.00737 0.99996
 C755 C -0.04790 0.00219 1.00383
 C756 C -0.03111 0.01253 0.99114
 C757 C -0.03639 0.02738 0.97357
 C758 C -0.05777 0.03268 0.96978
 H759 H -0.17302 0.02914 1.00383
 H760 H -0.20654 0.04724 1.01082
 H761 H -0.18358 0.10096 0.96845
 H762 H -0.15020 0.08280 0.96146
 H763 H -0.08155 -0.00050 1.01059
 H764 H -0.04472 -0.00959 1.01730
 H765 H -0.02408 0.03512 0.96286
 H766 H -0.06126 0.04458 0.95652
 C767 C 0.33624 0.55790 0.47256
 C768 C 0.33326 0.57908 0.46479
 C769 C 0.31436 0.58967 0.46995
 C770 C 0.29765 0.57934 0.48269
 C771 C 0.30032 0.55782 0.48981
 C772 C 0.31938 0.54719 0.48466
 C773 C 0.35765 0.54823 0.47027
 N774 N 0.36102 0.52750 0.47674
 N775 N 0.38084 0.51986 0.47728
 C776 C 0.39803 0.53274 0.47148
 N777 N 0.39457 0.55324 0.46447
 N778 N 0.37481 0.56079 0.46380
 C779 C 0.42014 0.52581 0.47561
 C780 C 0.43563 0.54126 0.48262
 C781 C 0.45607 0.53511 0.48899
 C782 C 0.46204 0.51338 0.48766
 C783 C 0.44655 0.49790 0.48010
 C784 C 0.42571 0.50403 0.47440
 H785 H 0.34587 0.58787 0.45542
 H786 H 0.31305 0.60633 0.46457
 H787 H 0.28829 0.54934 0.50022
 H788 H 0.32126 0.53093 0.49110
 H789 H 0.43163 0.55811 0.48443
 H790 H 0.46657 0.54746 0.49628
 H791 H 0.45025 0.48094 0.47922
 H792 H 0.41393 0.49178 0.46924
 C793 C 0.17776 0.56975 0.51824
 C794 C 0.19521 0.55856 0.52735
 C795 C 0.21627 0.56656 0.52411
 C796 C 0.22022 0.58589 0.51176
 C797 C 0.20273 0.59715 0.50301
 C798 C 0.18183 0.58925 0.50627
 C799 C 0.15543 0.56107 0.52011
 N800 N 0.13921 0.57204 0.51032
 N801 N 0.11921 0.56412 0.51072
 C802 C 0.11445 0.54484 0.52096
 N803 N 0.13060 0.53388 0.53110
 N804 N 0.15072 0.54183 0.53065
 C805 C 0.09216 0.53598 0.52013
 C806 C 0.08541 0.51809 0.53367
 C807 C 0.06410 0.51026 0.53251
 C808 C 0.04919 0.52007 0.51765
 C809 C 0.05631 0.53774 0.50395
 C810 C 0.07732 0.54561 0.50525
 H811 H 0.19264 0.54350 0.53668
 H812 H 0.22945 0.55758 0.53115
 H813 H 0.20511 0.61175 0.49285
 H814 H 0.16887 0.59830 0.49887
 H815 H 0.09651 0.51027 0.54527
 H816 H 0.05937 0.49654 0.54326
 H817 H 0.04566 0.54571 0.49202
 H818 H 0.08193 0.55925 0.49432
 C819 C 0.68250 0.06647 0.02510
 C820 C 0.70032 0.05350 0.02864
 C821 C 0.72118 0.06174 0.02463
 C822 C 0.72481 0.08321 0.01690
 C823 C 0.70672 0.09620 0.01415
 C824 C 0.68605 0.08799 0.01824
 C825 C 0.66018 0.05770 0.02696
 N826 N 0.64365 0.07030 0.02086
 N827 N 0.62363 0.06245 0.02061
 C828 C 0.61915 0.04164 0.02652
 N829 N 0.63557 0.02901 0.03316
 N830 N 0.65574 0.03689 0.03331
 C831 C 0.59692 0.03307 0.02408
 C832 C 0.58882 0.01558 0.03740
 C833 C 0.56718 0.00884 0.03531
 C834 C 0.55344 0.01933 0.01965
 C835 C 0.56210 0.03627 0.00585
 C836 C 0.58334 0.04309 0.00814
 H837 H 0.69816 0.03686 0.03410
 H838 H 0.73437 0.05116 0.02785
 H839 H 0.70785 0.11246 0.00750
 H840 H 0.67273 0.09852 0.01524
 H841 H 0.59902 0.00750 0.04978
 H842 H 0.56122 -0.00437 0.04612
 H843 H 0.55240 0.04481 -0.00657
 H844 H 0.58914 0.05636 -0.00272
 C845 C 0.66276 0.92762 0.48937
 C846 C 0.66695 0.90732 0.49897
 C847 C 0.68791 0.90041 0.50124
 C848 C 0.70535 0.91343 0.49362
 C849 C 0.70124 0.93370 0.48373
 C850 C 0.68013 0.94077 0.48172
 C851 C 0.64033 0.93496 0.48838
 N852 N 0.63569 0.95605 0.48494
 N853 N 0.61543 0.96255 0.48600
 C854 C 0.59905 0.94820 0.49047
 N855 N 0.60375 0.92712 0.49337
 N856 N 0.62390 0.92065 0.49235
 C857 C 0.57669 0.95523 0.49405
 C858 C 0.56129 0.94046 0.50292
 C859 C 0.54076 0.94700 0.50872
 C860 C 0.53462 0.96848 0.50548
 C861 C 0.54984 0.98319 0.49581
 C862 C 0.57069 0.97666 0.49026
 H863 H 0.65403 0.89687 0.50538
 H864 H 0.69032 0.88507 0.50970
 H865 H 0.71432 0.94407 0.47757
 H866 H 0.67741 0.95650 0.47422
 H867 H 0.56528 0.92387 0.50638
 H868 H 0.53018 0.93522 0.51702
 H869 H 0.54591 0.99991 0.49313
 H870 H 0.58220 0.98847 0.48344
 C871 C 0.16401 0.42409 0.98969
 C872 C 0.16838 0.40446 1.00073
 C873 C 0.18936 0.39750 1.00271
 C874 C 0.20662 0.40978 0.99338
 C875 C 0.20235 0.42943 0.98222
 C876 C 0.18123 0.43656 0.98045
 C877 C 0.14158 0.43145 0.98871
 N878 N 0.13692 0.45219 0.98338
 N879 N 0.11670 0.45882 0.98420
 C880 C 0.10035 0.44495 0.99029
 N881 N 0.10506 0.42418 0.99514
 N882 N 0.12517 0.41759 0.99437
 C883 C 0.07803 0.45233 0.99341
 C884 C 0.06236 0.43802 1.00261
 C885 C 0.04193 0.44505 1.00818
 C886 C 0.03619 0.46657 1.00437
 C887 C 0.05165 0.48076 0.99423
 C888 C 0.07237 0.47373 0.98889
 H889 H 0.15560 0.39456 1.00837
 H890 H 0.19196 0.38269 1.01216
 H891 H 0.21530 0.43922 0.97476
 H892 H 0.17838 0.45176 0.97183
 H893 H 0.06605 0.42143 1.00649
 H894 H 0.03113 0.43366 1.01678
 H895 H 0.04803 0.49749 0.99108
 H896 H 0.08406 0.48519 0.98175
 C897 C -0.00499 0.33348 0.44529
 C898 C 0.01463 0.32660 0.43594
 C899 C 0.01515 0.31053 0.41857
 C900 C -0.00402 0.30103 0.40979
 C901 C -0.02358 0.30732 0.42003
 C902 C -0.02408 0.32346 0.43731
 C903 C -0.00555 0.35150 0.46260
 N904 N -0.02451 0.36005 0.46934
 N905 N -0.02494 0.37737 0.48334
 C906 C -0.00644 0.38682 0.49134
 N907 N 0.01249 0.37799 0.48500
 N908 N 0.01293 0.36069 0.47097
 C909 C -0.00674 0.40786 0.50395
 C910 C 0.01246 0.41804 0.51133
 C911 C 0.01281 0.43975 0.51817
 C912 C -0.00600 0.45196 0.51745
 C913 C -0.02551 0.44087 0.51291
 C914 C -0.02591 0.41913 0.50620
 H915 H 0.02969 0.33373 0.44195
 H916 H 0.03071 0.30552 0.41256
 H917 H -0.03860 0.29972 0.41458
 H918 H -0.03949 0.32810 0.44437
 H919 H 0.02750 0.40967 0.51044
 H920 H 0.02821 0.44731 0.52221
 H921 H -0.04054 0.44888 0.51335
 H922 H -0.04113 0.41162 0.50134
 C923 C 0.49465 -0.16454 -0.05091
 C924 C 0.51478 -0.17188 -0.05824
 C925 C 0.51631 -0.18823 -0.07527
 C926 C 0.49773 -0.19747 -0.08572
 C927 C 0.47761 -0.19079 -0.07737
 C928 C 0.47609 -0.17439 -0.06048
 C929 C 0.49290 -0.14605 -0.03429
 N930 N 0.47383 -0.13625 -0.03129
 N931 N 0.47248 -0.11836 -0.01833
 C932 C 0.49008 -0.10956 -0.00760
 N933 N 0.50907 -0.11968 -0.01000
 N934 N 0.51045 -0.13756 -0.02309
 C935 C 0.48918 -0.08770 0.00297
 C936 C 0.50421 -0.08026 0.01974
 C937 C 0.50522 -0.05835 0.02632
 C938 C 0.49163 -0.04341 0.01571
 C939 C 0.47614 -0.05135 -0.00037
 C940 C 0.47458 -0.07315 -0.00615
 H941 H 0.52942 -0.16485 -0.05099
 H942 H 0.53212 -0.19373 -0.07986
 H943 H 0.46291 -0.19833 -0.08384
 H944 H 0.46029 -0.16945 -0.05494
 H945 H 0.51569 -0.09118 0.02704
 H946 H 0.51764 -0.05294 0.03841
 H947 H 0.46607 -0.04061 -0.01005
 H948 H 0.46304 -0.07824 -0.01939
 C949 C 0.01228 -0.17282 1.07996
 C950 C 0.01303 -0.17374 1.10465
 C951 C 0.01030 -0.19333 1.11628
 C952 C 0.00705 -0.21275 1.10367
 C953 C 0.00604 -0.21182 1.07885
 C954 C 0.00857 -0.19203 1.06716
 C955 C 0.01535 -0.15176 1.06801
 N956 N 0.01032 -0.14917 1.04491
 N957 N 0.01256 -0.12988 1.03471
 C958 C 0.02002 -0.11247 1.04718
 N959 N 0.02522 -0.11520 1.07015
 N960 N 0.02293 -0.13439 1.08033
 C961 C 0.02157 -0.09065 1.03660
 C962 C 0.02972 -0.07323 1.05004
 C963 C 0.02968 -0.05231 1.04127
 C964 C 0.02161 -0.04813 1.01868
 C965 C 0.01415 -0.06564 1.00483
 C966 C 0.01413 -0.08670 1.01370
 H967 H 0.01561 -0.15926 1.11514
 H968 H 0.01090 -0.19338 1.13538
 H969 H 0.00329 -0.22608 1.06821
 H970 H 0.00781 -0.19180 1.04808
 H971 H 0.03581 -0.07562 1.06766
 H972 H 0.03583 -0.03940 1.05247
 H973 H 0.00785 -0.06308 0.98736
 H974 H 0.00783 -0.09979 1.00284
 C975 C 0.50305 0.32611 0.58541
 C976 C 0.50040 0.30677 0.57259
 C977 C 0.49855 0.28692 0.58428
 C978 C 0.49925 0.28605 0.60912
 C979 C 0.50160 0.30557 0.62175
 C980 C 0.50357 0.32523 0.61013
 C981 C 0.50525 0.34726 0.57348
 N982 N 0.51068 0.36517 0.58617
 N983 N 0.51231 0.38438 0.57596
 C984 C 0.50857 0.38662 0.55257
 N985 N 0.50323 0.36870 0.53972
 N986 N 0.50164 0.34938 0.54998
 C987 C 0.50979 0.40837 0.54183
 C988 C 0.50398 0.41181 0.51824
 C989 C 0.50422 0.43275 0.50895
 C990 C 0.51029 0.45059 0.52307
 C991 C 0.51645 0.44693 0.54651
 C992 C 0.51627 0.42618 0.55568
 H993 H 0.49988 0.30693 0.55351
 H994 H 0.49655 0.27257 0.57361
 H995 H 0.50199 0.30556 0.64085
 H996 H 0.50540 0.33979 0.62065
 H997 H 0.49895 0.39842 0.50707
 H998 H 0.49937 0.43493 0.49085
 H999 H 0.52151 0.46009 0.55799
 H1000 H 0.52105 0.42420 0.57385
 C1001 C 0.49208 1.16081 0.59674
 C1002 C 0.48189 1.16578 0.61823
 C1003 C 0.48273 1.18685 0.62730
 C1004 C 0.49381 1.20341 0.61511
 C1005 C 0.50428 1.19831 0.59381
 C1006 C 0.50334 1.17733 0.58470
 C1007 C 0.49106 1.13856 0.58690
 N1008 N 0.49822 1.13441 0.56468
 N1009 N 0.49741 1.11442 0.55587
 C1010 C 0.48946 1.09771 0.56893
 N1011 N 0.48228 1.10187 0.59113
 N1012 N 0.48303 1.12186 0.59992
 C1013 C 0.48885 1.07537 0.55936
 C1014 C 0.48392 1.05789 0.57423
 C1015 C 0.48357 1.03680 0.56551
 C1016 C 0.48786 1.03254 0.54153
 C1017 C 0.49285 1.05005 0.52664
 C1018 C 0.49337 1.07122 0.53545
 H1019 H 0.47304 1.15344 0.62796
 H1020 H 0.47434 1.19018 0.64361
 H1021 H 0.51347 1.21048 0.58422
 H1022 H 0.51159 1.17405 0.56826
 H1023 H 0.48046 1.06045 0.59276
 H1024 H 0.47966 1.02388 0.57768
 H1025 H 0.49653 1.04747 0.50821
 H1026 H 0.49727 1.08432 0.52349
 C1027 C -0.00232 0.66184 1.09198
 C1028 C 0.00871 0.67822 1.07947
 C1029 C 0.00991 0.69929 1.08833
 C1030 C -0.00008 0.70463 1.10985
 C1031 C -0.01103 0.68823 1.12242
 C1032 C -0.01212 0.66709 1.11362
 C1033 C -0.00352 0.63944 1.08255
 N1034 N -0.01169 0.62304 1.09591
 N1035 N -0.01261 0.60291 1.08756
 C1036 C -0.00547 0.59828 1.06546
 N1037 N 0.00264 0.61468 1.05205
 N1038 N 0.00362 0.63483 1.06043
 C1039 C -0.00637 0.57575 1.05640
 C1040 C -0.00169 0.57101 1.03266
 C1041 C -0.00268 0.54967 1.02433
 C1042 C -0.00831 0.53258 1.03956
 C1043 C -0.01272 0.53743 1.06338
 C1044 C -0.01191 0.55868 1.07161
 H1045 H 0.01660 0.67475 1.06286
 H1046 H 0.01895 0.71132 1.07838
 H1047 H -0.01911 0.69174 1.13888
 H1048 H -0.02082 0.65489 1.12369
 H1049 H 0.00265 0.58378 1.02045
 H1050 H 0.00104 0.54662 1.00598
 H1051 H -0.01719 0.52487 1.07578
 H1052 H -0.01558 0.56168 1.09001
 C1053 C 0.49838 0.68126 -0.07952
 C1054 C 0.50625 0.68567 -0.10233
 C1055 C 0.50504 0.70637 -0.11192
 C1056 C 0.49609 0.72342 -0.09887
 C1057 C 0.48760 0.71863 -0.07627
 C1058 C 0.48871 0.69792 -0.06680
 C1059 C 0.50062 0.65955 -0.06896
 N1060 N 0.49211 0.65478 -0.04740
 N1061 N 0.49434 0.63529 -0.03796
 C1062 C 0.50528 0.61979 -0.04963
 N1063 N 0.51381 0.62462 -0.07113
 N1064 N 0.51156 0.64405 -0.08057
 C1065 C 0.50729 0.59776 -0.03979
 C1066 C 0.51870 0.58223 -0.05246
 C1067 C 0.51916 0.56096 -0.04476
 C1068 C 0.50841 0.55447 -0.02395
 C1069 C 0.49781 0.57021 -0.01060
 C1070 C 0.49724 0.59165 -0.01845
 H1071 H 0.51376 0.67320 -0.11270
 H1072 H 0.51232 0.70894 -0.12905
 H1073 H 0.47966 0.73071 -0.06579
 H1074 H 0.48218 0.69506 -0.04933
 H1075 H 0.52684 0.58630 -0.06882
 H1076 H 0.52760 0.54949 -0.05562
 H1077 H 0.48931 0.56586 0.00546
 H1078 H 0.48842 0.60326 -0.00815
 C1079 C -0.00818 1.18015 0.41620
 C1080 C 0.00303 1.18545 0.39530
 C1081 C 0.00142 1.20592 0.38527
 C1082 C -0.01143 1.22154 0.39590
 C1083 C -0.02335 1.21597 0.41621
 C1084 C -0.02175 1.19551 0.42625
 C1085 C -0.00522 1.15895 0.42770
 N1086 N -0.01525 1.15390 0.44840
 N1087 N -0.01234 1.13489 0.45869
 C1088 C 0.00081 1.12017 0.44876
 N1089 N 0.01087 1.12531 0.42815
 N1090 N 0.00798 1.14426 0.41789
 C1091 C 0.00338 1.09848 0.45926
 C1092 C 0.01505 1.08293 0.44694
 C1093 C 0.01582 1.06183 0.45506
 C1094 C 0.00529 1.05555 0.47608
 C1095 C -0.00551 1.07136 0.48914
 C1096 C -0.00651 1.09261 0.48077
 H1097 H 0.01357 1.17401 0.38699
 H1098 H 0.01106 1.20979 0.36985
 H1099 H -0.03360 1.22761 0.42464
 H1100 H -0.03080 1.19193 0.44217
 H1101 H 0.02299 1.08678 0.43040
 H1102 H 0.02422 1.05027 0.44428
 H1103 H -0.01392 1.06717 0.50530
 H1104 H -0.01552 1.10426 0.49081
 C1105 C 0.79252 0.64731 0.89283
 C1106 C 0.79542 0.65875 0.91404
 C1107 C 0.78973 0.64929 0.93558
 C1108 C 0.78038 0.62833 0.93641
 C1109 C 0.77929 0.61630 0.91531
 C1110 C 0.78514 0.62569 0.89379
 C1111 C 0.79534 0.65830 0.86980
 N1112 N 0.79308 0.64695 0.84940
 N1113 N 0.79244 0.65704 0.82878
 C1114 C 0.79404 0.67891 0.82760
 N1115 N 0.79708 0.69027 0.84792
 N1116 N 0.79774 0.68015 0.86860
 C1117 C 0.78906 0.68999 0.80525
 C1118 C 0.79233 0.71239 0.80251
 C1119 C 0.78393 0.72301 0.78292
 C1120 C 0.77188 0.71148 0.76585
 C1121 C 0.76931 0.68897 0.76856
 C1122 C 0.77818 0.67838 0.78753
 H1123 H 0.80167 0.67522 0.91400
 H1124 H 0.79259 0.65867 0.95140
 H1125 H 0.77326 0.59975 0.91536
 H1126 H 0.78308 0.61621 0.87783
 H1127 H 0.80054 0.72184 0.81598
 H1128 H 0.78576 0.74040 0.78199
 H1129 H 0.75915 0.67939 0.75702
 H1130 H 0.77499 0.66119 0.78916
 C1131 C 0.29147 0.14527 0.38955
 C1132 C 0.29522 0.15555 0.41130
 C1133 C 0.28900 0.14554 0.43235
 C1134 C 0.27825 0.12523 0.43216
 C1135 C 0.27628 0.11421 0.41049
 C1136 C 0.28266 0.12414 0.38944
 C1137 C 0.29489 0.15708 0.36714
 N1138 N 0.29218 0.14675 0.34617
 N1139 N 0.29203 0.15777 0.32612
 C1140 C 0.29457 0.17962 0.32609
 N1141 N 0.29804 0.18991 0.34699
 N1142 N 0.29823 0.17886 0.36709
 C1143 C 0.29001 0.19193 0.30442
 C1144 C 0.29277 0.21453 0.30356
 C1145 C 0.28417 0.22628 0.28492
 C1146 C 0.27245 0.21570 0.26690
 C1147 C 0.27074 0.19299 0.26746
 C1148 C 0.27980 0.18131 0.28554
 H1149 H 0.30259 0.17156 0.41206
 H1150 H 0.29254 0.15396 0.44866
 H1151 H 0.26925 0.09806 0.40973
 H1152 H 0.27994 0.11552 0.37303
 H1153 H 0.30057 0.22322 0.31788
 H1154 H 0.28547 0.24372 0.28558
 H1155 H 0.26100 0.18399 0.25499
 H1156 H 0.27717 0.16397 0.28560
 C1157 C 0.72111 0.34246 0.42245
 C1158 C 0.71801 0.36445 0.42696
 C1159 C 0.72289 0.37335 0.44895
 C1160 C 0.73096 0.36058 0.46718
 C1161 C 0.73352 0.33835 0.46278
 C1162 C 0.72842 0.32939 0.44074
 C1163 C 0.71896 0.33389 0.39818
 N1164 N 0.71843 0.31229 0.39380
 N1165 N 0.71891 0.30478 0.37172
 C1166 C 0.72007 0.31860 0.35321
 N1167 N 0.72016 0.34015 0.35760
 N1168 N 0.71952 0.34763 0.37961
 C1169 C 0.72385 0.31056 0.32906
 C1170 C 0.73625 0.32316 0.31340
 C1171 C 0.74233 0.31489 0.29157
 C1172 C 0.73544 0.29409 0.28434
 C1173 C 0.72240 0.28172 0.29980
 C1174 C 0.71683 0.28981 0.32205
 H1175 H 0.71242 0.37498 0.41323
 H1176 H 0.72108 0.39055 0.45149
 H1177 H 0.74030 0.32783 0.47572
 H1178 H 0.73127 0.31243 0.43769
 H1179 H 0.74222 0.33907 0.31849
 H1180 H 0.75290 0.32473 0.28061
 H1181 H 0.71714 0.26548 0.29517
 H1182 H 0.70734 0.27974 0.33391
 C1183 C 0.23095 0.84518 0.91702
 C1184 C 0.23324 0.83199 0.93689
 C1185 C 0.24014 0.84084 0.95839
 C1186 C 0.24530 0.86306 0.96041
 C1187 C 0.24217 0.87624 0.94064
 C1188 C 0.23532 0.86743 0.91924
 C1189 C 0.22499 0.83582 0.89380
 N1190 N 0.22540 0.84839 0.87426
 N1191 N 0.22227 0.83978 0.85298
 C1192 C 0.21843 0.81824 0.85031
 N1193 N 0.21735 0.80574 0.86991
 N1194 N 0.22055 0.81436 0.89123
 C1195 C 0.21898 0.80830 0.82657
 C1196 C 0.21222 0.78674 0.82295
 C1197 C 0.21709 0.77611 0.80181
 C1198 C 0.22916 0.78673 0.78407
 C1199 C 0.23459 0.80873 0.78729
 C1200 C 0.22921 0.81946 0.80803
 H1201 H 0.22975 0.81480 0.93585
 H1202 H 0.24100 0.83022 0.97339
 H1203 H 0.24484 0.89355 0.94178
 H1204 H 0.23346 0.87814 0.90441
 H1205 H 0.20419 0.77776 0.83690
 H1206 H 0.21274 0.75915 0.80021
 H1207 H 0.24438 0.81746 0.77455
 H1208 H 0.23473 0.83606 0.81024
 C1209 C 0.28512 0.83798 0.08587
 C1210 C 0.28494 0.86059 0.08520
 C1211 C 0.27850 0.87135 0.06498
 C1212 C 0.27197 0.85989 0.04449
 C1213 C 0.27297 0.83708 0.04516
 C1214 C 0.27947 0.82636 0.06546
 C1215 C 0.28925 0.82675 0.10837
 N1216 N 0.28988 0.80484 0.10939
 N1217 N 0.29087 0.79478 0.13009
 C1218 C 0.29123 0.80626 0.15057
 N1219 N 0.29123 0.82814 0.14947
 N1220 N 0.29035 0.83816 0.12884
 C1221 C 0.28794 0.79542 0.17350
 C1222 C 0.27602 0.80587 0.19096
 C1223 C 0.26938 0.79495 0.21113
 C1224 C 0.27533 0.77351 0.21519
 C1225 C 0.28829 0.76335 0.19821
 C1226 C 0.29432 0.77414 0.17739
 H1227 H 0.28934 0.87012 0.10058
 H1228 H 0.27876 0.88869 0.06610
 H1229 H 0.26787 0.82702 0.03054
 H1230 H 0.27927 0.80888 0.06539
 H1231 H 0.27051 0.82212 0.18834
 H1232 H 0.25874 0.80325 0.22306
 H1233 H 0.29287 0.74675 0.20041
 H1234 H 0.30347 0.76570 0.16409
 C1235 C 0.77083 0.33994 0.59337
 C1236 C 0.77026 0.32847 0.57198
 C1237 C 0.76428 0.33860 0.55112
 C1238 C 0.75868 0.36057 0.55096
 C1239 C 0.75970 0.37203 0.57253
 C1240 C 0.76571 0.36188 0.59331
 C1241 C 0.77528 0.32892 0.61592
 N1242 N 0.77473 0.34010 0.63654
 N1243 N 0.77637 0.33003 0.65707
 C1244 C 0.77874 0.30832 0.65793
 N1245 N 0.77996 0.29715 0.63730
 N1246 N 0.77828 0.30725 0.61670
 C1247 C 0.77675 0.29700 0.68079
 C1248 C 0.78322 0.27559 0.68361
 C1249 C 0.77819 0.26427 0.70440
 C1250 C 0.76620 0.27404 0.72250
 C1251 C 0.76035 0.29567 0.71960
 C1252 C 0.76597 0.30708 0.69940
 H1253 H 0.77421 0.31156 0.57134
 H1254 H 0.76459 0.32907 0.53509
 H1255 H 0.75491 0.38859 0.57408
 H1256 H 0.76575 0.37121 0.60951
 H1257 H 0.79153 0.26738 0.66948
 H1258 H 0.78264 0.24755 0.70567
 H1259 H 0.75037 0.30372 0.73241
 H1260 H 0.76047 0.32345 0.69777
 C1261 C 0.24629 0.15847 0.55857
 C1262 C 0.23604 0.13820 0.55538
 C1263 C 0.24025 0.12571 0.53527
 C1264 C 0.25464 0.13328 0.51778
 C1265 C 0.26530 0.15329 0.52146
 C1266 C 0.26111 0.16572 0.54143
 C1267 C 0.24211 0.17200 0.57970
 N1268 N 0.25202 0.19165 0.58195
 N1269 N 0.24917 0.20367 0.60114
 C1270 C 0.23621 0.19667 0.61898
 N1271 N 0.22599 0.17712 0.61668
 N1272 N 0.22886 0.16504 0.59740
 C1273 C 0.23483 0.20950 0.64109
 C1274 C 0.22058 0.20371 0.65944
 C1275 C 0.22134 0.21474 0.68111
 C1276 C 0.23677 0.23130 0.68516
 C1277 C 0.24992 0.23792 0.66608
 C1278 C 0.24893 0.22724 0.64446
 H1279 H 0.22470 0.13200 0.56838
 H1280 H 0.23199 0.11031 0.53348
 H1281 H 0.27717 0.15942 0.50902
 H1282 H 0.26965 0.18106 0.54342
 H1283 H 0.20923 0.19034 0.65727
 H1284 H 0.21050 0.20953 0.69493
 H1285 H 0.26165 0.25098 0.66780
 H1286 H 0.25995 0.23245 0.63067
 C1287 C 0.74741 0.66371 0.06214
 C1288 C 0.73803 0.64297 0.05964
 C1289 C 0.74238 0.63030 0.03969
 C1290 C 0.75616 0.63810 0.02175
 C1291 C 0.76587 0.65872 0.02467
 C1292 C 0.76144 0.67136 0.04443
 C1293 C 0.74321 0.67728 0.08323
 N1294 N 0.75096 0.69793 0.08427
 N1295 N 0.74822 0.70996 0.10351
 C1296 C 0.73755 0.70190 0.12259
 N1297 N 0.72951 0.68131 0.12148
 N1298 N 0.73224 0.66926 0.10217
 C1299 C 0.73643 0.71475 0.14470
 C1300 C 0.72663 0.70624 0.16510
 C1301 C 0.72835 0.71722 0.18667
 C1302 C 0.74026 0.73673 0.18856
 C1303 C 0.74840 0.74603 0.16758
 C1304 C 0.74656 0.73520 0.14604
 H1305 H 0.72725 0.63651 0.07304
 H1306 H 0.73471 0.61455 0.03844
 H1307 H 0.77723 0.66515 0.01187
 H1308 H 0.76928 0.68710 0.04590
 H1309 H 0.71824 0.69073 0.16462
 H1310 H 0.72088 0.70982 0.20177
 H1311 H 0.75702 0.76142 0.16775
 H1312 H 0.75389 0.74256 0.13060
 C1313 C 0.18902 0.57068 0.22608
 C1314 C 0.19959 0.55386 0.23734
 C1315 C 0.18886 0.53411 0.24173
 C1316 C 0.16743 0.53062 0.23450
 C1317 C 0.15735 0.54723 0.22226
 C1318 C 0.16801 0.56688 0.21799
 C1319 C 0.19856 0.59283 0.22521
 N1320 N 0.18562 0.60989 0.22227
 N1321 N 0.19336 0.63002 0.22395
 C1322 C 0.21445 0.63401 0.22845
 N1323 N 0.22761 0.61700 0.23084
 N1324 N 0.21979 0.59678 0.22936
 C1325 C 0.22212 0.65638 0.23298
 C1326 C 0.24304 0.66350 0.22714
 C1327 C 0.24977 0.68486 0.23195
 C1328 C 0.23586 0.69935 0.24320
 C1329 C 0.21515 0.69170 0.24950
 C1330 C 0.20828 0.67074 0.24409
 H1331 H 0.21571 0.55637 0.24403
 H1332 H 0.19705 0.52220 0.25194
 H1333 H 0.14071 0.54546 0.21703
 H1334 H 0.15937 0.57946 0.20923
 H1335 H 0.25407 0.65263 0.21866
 H1336 H 0.26596 0.68988 0.22712
 H1337 H 0.20421 0.70159 0.25933
 H1338 H 0.19223 0.66555 0.24936
 C1339 C 0.68115 0.07124 0.72504
 C1340 C 0.65932 0.06687 0.72065
 C1341 C 0.65034 0.04641 0.72487
 C1342 C 0.66286 0.02969 0.73366
 C1343 C 0.68502 0.03383 0.73690
 C1344 C 0.69404 0.05433 0.73246
 C1345 C 0.68971 0.09374 0.72447
 N1346 N 0.71117 0.09821 0.72552
 N1347 N 0.71856 0.11851 0.72774
 C1348 C 0.70474 0.13508 0.72921
 N1349 N 0.68336 0.13063 0.72769
 N1350 N 0.67601 0.11040 0.72530
 C1351 C 0.71244 0.15725 0.73475
 C1352 C 0.69919 0.17084 0.74781
 C1353 C 0.70641 0.19136 0.75451
 C1354 C 0.72689 0.19931 0.74776
 C1355 C 0.74017 0.18565 0.73449
 C1356 C 0.73309 0.16474 0.72826
 H1357 H 0.64894 0.07950 0.71477
 H1358 H 0.63325 0.04386 0.72227
 H1359 H 0.69546 0.02185 0.74386
 H1360 H 0.71092 0.05721 0.73609
 H1361 H 0.68338 0.16534 0.75358
 H1362 H 0.69592 0.20068 0.76559
 H1363 H 0.75613 0.19095 0.72911
 H1364 H 0.74368 0.15447 0.71828
 C1365 C 0.80301 0.09407 0.25268
 C1366 C 0.81680 0.08870 0.27113
 C1367 C 0.82885 0.07002 0.26991
 C1368 C 0.82711 0.05594 0.25037
 C1369 C 0.81248 0.06092 0.23246
 C1370 C 0.80056 0.07968 0.23362
 C1371 C 0.79294 0.11546 0.25227
 N1372 N 0.78308 0.12245 0.23253
 N1373 N 0.77599 0.14251 0.23127
 C1374 C 0.77846 0.15643 0.24971
 N1375 N 0.78794 0.14930 0.26960
 N1376 N 0.79506 0.12926 0.27085
 C1377 C 0.77240 0.17929 0.24759
 C1378 C 0.77488 0.19352 0.26680
 C1379 C 0.77101 0.21546 0.26428
 C1380 C 0.76511 0.22388 0.24229
 C1381 C 0.76122 0.20935 0.22355
 C1382 C 0.76507 0.18738 0.22608
 H1383 H 0.81917 0.09949 0.28603
 H1384 H 0.84025 0.06754 0.28381
 H1385 H 0.81103 0.05075 0.21693
 H1386 H 0.79007 0.08331 0.21909
 H1387 H 0.78016 0.18779 0.28376
 H1388 H 0.77337 0.22590 0.27946
 H1389 H 0.75530 0.21489 0.20681
 H1390 H 0.76259 0.17681 0.21102
 C1391 C 0.31073 0.58619 0.77834
 C1392 C 0.33184 0.58285 0.78571
 C1393 C 0.34211 0.56380 0.78000
 C1394 C 0.33149 0.54732 0.76708
 C1395 C 0.30995 0.55026 0.76064
 C1396 C 0.29963 0.56943 0.76641
 C1397 C 0.30165 0.60797 0.78038
 N1398 N 0.28069 0.61152 0.77550
 N1399 N 0.27345 0.63157 0.77446
 C1400 C 0.28697 0.64881 0.77808
 N1401 N 0.30775 0.64523 0.78344
 N1402 N 0.31491 0.62525 0.78466
 C1403 C 0.28024 0.67094 0.77323
 C1404 C 0.29472 0.68514 0.76194
 C1405 C 0.28855 0.70567 0.75559
 C1406 C 0.26794 0.71306 0.76118
 C1407 C 0.25344 0.69880 0.77279
 C1408 C 0.25946 0.67781 0.77848
 H1409 H 0.34087 0.59539 0.79496
 H1410 H 0.35882 0.56241 0.78473
 H1411 H 0.30131 0.53844 0.75004
 H1412 H 0.28341 0.57160 0.76028
 H1413 H 0.31067 0.68004 0.75710
 H1414 H 0.29988 0.71538 0.74550
 H1415 H 0.23730 0.70362 0.77707
 H1416 H 0.24796 0.66699 0.78703
 C1417 C 0.31989 0.42851 0.72973
 C1418 C 0.34034 0.43220 0.73954
 C1419 C 0.34895 0.45313 0.74172
 C1420 C 0.33728 0.47090 0.73425
 C1421 C 0.31711 0.46724 0.72378
 C1422 C 0.30853 0.44624 0.72144
 C1423 C 0.31017 0.40641 0.72939
 N1424 N 0.29185 0.40177 0.71724
 N1425 N 0.28286 0.38200 0.71780
 C1426 C 0.29174 0.36613 0.73070
 N1427 N 0.31007 0.37079 0.74272
 N1428 N 0.31909 0.39047 0.74207
 C1429 C 0.28176 0.34418 0.73198
 C1430 C 0.28834 0.32985 0.74941
 C1431 C 0.27971 0.30895 0.75053
 C1432 C 0.26433 0.30150 0.73410
 C1433 C 0.25740 0.31602 0.71687
 C1434 C 0.26595 0.33716 0.71588
 H1435 H 0.34958 0.41893 0.74604
 H1436 H 0.36436 0.45540 0.75021
 H1437 H 0.30782 0.48066 0.71776
 H1438 H 0.29275 0.44397 0.71379
 H1439 H 0.30035 0.33472 0.76225
 H1440 H 0.28575 0.29846 0.76399
 H1441 H 0.24555 0.31106 0.70392
 H1442 H 0.26050 0.34785 0.70225
 C1443 C 0.82497 0.93580 0.22363
 C1444 C 0.81194 0.95303 0.21758
 C1445 C 0.81947 0.97436 0.22003
 C1446 C 0.84036 0.97912 0.22841
 C1447 C 0.85366 0.96163 0.23347
 C1448 C 0.84601 0.94035 0.23123
 C1449 C 0.81641 0.91327 0.22329
 N1450 N 0.82724 0.89742 0.23410
 N1451 N 0.81915 0.87737 0.23503
 C1452 C 0.79988 0.87225 0.22512
 N1453 N 0.78912 0.88803 0.21403
 N1454 N 0.79719 0.90815 0.21320
 C1455 C 0.79069 0.85006 0.22711
 C1456 C 0.77349 0.84292 0.21290
 C1457 C 0.76508 0.82183 0.21499
 C1458 C 0.77354 0.80749 0.23151
 C1459 C 0.79051 0.81496 0.24592
 C1460 C 0.79906 0.83581 0.24362
 H1461 H 0.79569 0.95008 0.21147
 H1462 H 0.80882 0.98706 0.21505
 H1463 H 0.86957 0.96402 0.24064
 H1464 H 0.85651 0.92744 0.23602
 H1465 H 0.76665 0.85356 0.20003
 H1466 H 0.75193 0.81686 0.20365
 H1467 H 0.79746 0.80467 0.25901
 H1468 H 0.81216 0.84082 0.25503
 C1469 C 0.68081 0.90898 0.76190
 C1470 C 0.68997 0.92481 0.74704
 C1471 C 0.68129 0.94526 0.74569
 C1472 C 0.66331 0.95066 0.75940
 C1473 C 0.65420 0.93495 0.77448
 C1474 C 0.66285 0.91429 0.77572
 C1475 C 0.68975 0.88700 0.76206
 N1476 N 0.67933 0.87020 0.77289
 N1477 N 0.68702 0.85030 0.77162
 C1478 C 0.70545 0.84642 0.75953
 N1479 N 0.71594 0.86329 0.74903
 N1480 N 0.70827 0.88310 0.75027
 C1481 C 0.71347 0.82422 0.75640
 C1482 C 0.73129 0.82074 0.74173
 C1483 C 0.73792 0.79992 0.73675
 C1484 C 0.72691 0.78177 0.74618
 C1485 C 0.70996 0.78531 0.76218
 C1486 C 0.70316 0.80629 0.76703
 H1487 H 0.70362 0.92129 0.73588
 H1488 H 0.68836 0.95656 0.73322
 H1489 H 0.64038 0.93857 0.78531
 H1490 H 0.65542 0.90247 0.78738
 H1491 H 0.73988 0.83412 0.73345
 H1492 H 0.75141 0.79820 0.72485
 H1493 H 0.70165 0.77200 0.77070
 H1494 H 0.68963 0.80842 0.77880
 C1495 C 0.17442 0.41081 0.27093
 C1496 C 0.18751 0.42887 0.27668
 C1497 C 0.18000 0.44981 0.27378
 C1498 C 0.15931 0.45315 0.26490
 C1499 C 0.14614 0.43505 0.25959
 C1500 C 0.15354 0.41418 0.26270
 C1501 C 0.18268 0.38858 0.27228
 N1502 N 0.16924 0.37128 0.26888
 N1503 N 0.17670 0.35135 0.26834
 C1504 C 0.19795 0.34777 0.27114
 N1505 N 0.21140 0.36505 0.27491
 N1506 N 0.20391 0.38504 0.27550
 C1507 C 0.20626 0.32565 0.26814
 C1508 C 0.22833 0.32163 0.26922
 C1509 C 0.23608 0.30124 0.26327
 C1510 C 0.22196 0.28438 0.25597
 C1511 C 0.19982 0.28834 0.25610
 C1512 C 0.19210 0.30854 0.26221
 H1513 H 0.20363 0.42686 0.28319
 H1514 H 0.19049 0.46338 0.27829
 H1515 H 0.13034 0.43687 0.25216
 H1516 H 0.14305 0.40068 0.25792
 H1517 H 0.23972 0.33443 0.27380
 H1518 H 0.25326 0.29907 0.26338
 H1519 H 0.18827 0.27659 0.24981
 H1520 H 0.17499 0.31096 0.26110
 C1521 C 0.07582 0.25108 0.79184
 C1522 C 0.06275 0.23262 0.79548
 C1523 C 0.04633 0.23271 0.81234
 C1524 C 0.04281 0.25106 0.82652
 C1525 C 0.05538 0.26985 0.82210
 C1526 C 0.07172 0.26981 0.80506
 C1527 C 0.09418 0.25052 0.77510
 N1528 N 0.10522 0.26892 0.76925
 N1529 N 0.12282 0.26820 0.75586
 C1530 C 0.13017 0.24906 0.74773
 N1531 N 0.11888 0.23070 0.75319
 N1532 N 0.10121 0.23143 0.76650
 C1533 C 0.15155 0.24806 0.73622
 C1534 C 0.16220 0.22840 0.73450
 C1535 C 0.18419 0.22814 0.72952
 C1536 C 0.19610 0.24749 0.72627
 C1537 C 0.18463 0.26678 0.72458
 C1538 C 0.16270 0.26709 0.72974
 H1539 H 0.06521 0.21802 0.78534
 H1540 H 0.03637 0.21826 0.81441
 H1541 H 0.05263 0.28477 0.83141
 H1542 H 0.08133 0.28442 0.80249
 H1543 H 0.15395 0.21331 0.73871
 H1544 H 0.19172 0.21278 0.72958
 H1545 H 0.19287 0.28208 0.72132
 H1546 H 0.15483 0.28247 0.73017
 C1547 C 0.58174 0.75434 0.29478
 C1548 C 0.57045 0.73487 0.29918
 C1549 C 0.55401 0.73396 0.31600
 C1550 C 0.54875 0.75232 0.32940
 C1551 C 0.55934 0.77206 0.32404
 C1552 C 0.57572 0.77301 0.30709
 C1553 C 0.60030 0.75496 0.27830
 N1554 N 0.61059 0.77395 0.27314
 N1555 N 0.62847 0.77432 0.26017
 C1556 C 0.63685 0.75574 0.25177
 N1557 N 0.62629 0.73679 0.25648
 N1558 N 0.60837 0.73642 0.26941
 C1559 C 0.65847 0.75596 0.24071
 C1560 C 0.66895 0.73659 0.23595
 C1561 C 0.69095 0.73675 0.23096
 C1562 C 0.70309 0.75618 0.23105
 C1563 C 0.69186 0.77565 0.23260
 C1564 C 0.66990 0.77553 0.23754
 H1565 H 0.57438 0.72025 0.28973
 H1566 H 0.54544 0.71873 0.31862
 H1567 H 0.55499 0.78694 0.33262
 H1568 H 0.58383 0.78838 0.30385
 H1569 H 0.66048 0.72118 0.23751
 H1570 H 0.69833 0.72146 0.22844
 H1571 H 0.70020 0.79116 0.23165
 H1572 H 0.66223 0.79083 0.24034
 C1573 C 0.57619 0.27903 0.18591
 C1574 C 0.56836 0.29622 0.17270
 C1575 C 0.55025 0.29334 0.15851
 C1576 C 0.53977 0.27299 0.15666
 C1577 C 0.54649 0.25639 0.17160
 C1578 C 0.56459 0.25929 0.18587
 C1579 C 0.59715 0.28130 0.19807
 N1580 N 0.60445 0.26539 0.21212
 N1581 N 0.62423 0.26658 0.22098
 C1582 C 0.63756 0.28368 0.21603
 N1583 N 0.63010 0.29975 0.20237
 N1584 N 0.61033 0.29861 0.19364
 C1585 C 0.66037 0.28387 0.22320
 C1586 C 0.67553 0.29616 0.21032
 C1587 C 0.69736 0.29470 0.21493
 C1588 C 0.70474 0.28148 0.23315
 C1589 C 0.68947 0.26971 0.24662
 C1590 C 0.66752 0.27078 0.24158
 H1591 H 0.57651 0.31187 0.17287
 H1592 H 0.54480 0.30716 0.14893
 H1593 H 0.53815 0.24085 0.17168
 H1594 H 0.56992 0.24581 0.19619
 H1595 H 0.67062 0.30624 0.19587
 H1596 H 0.70848 0.30375 0.20380
 H1597 H 0.69445 0.25907 0.26050
 H1598 H 0.65619 0.26107 0.25178
 C1599 C 0.07710 0.76591 0.67954
 C1600 C 0.06485 0.74667 0.67747
 C1601 C 0.04660 0.74575 0.66316
 C1602 C 0.04030 0.76395 0.65033
 C1603 C 0.05161 0.78363 0.65418
 C1604 C 0.06987 0.78450 0.66833
 C1605 C 0.09811 0.76647 0.69169
 N1606 N 0.11273 0.78241 0.68669
 N1607 N 0.13235 0.78222 0.69578
 C1608 C 0.13818 0.76617 0.71042
 N1609 N 0.12346 0.75039 0.71587
 N1610 N 0.10382 0.75048 0.70658
 C1611 C 0.16064 0.76523 0.71852
 C1612 C 0.16602 0.75587 0.74014
 C1613 C 0.18754 0.75525 0.74726
 C1614 C 0.20406 0.76358 0.73262
 C1615 C 0.19846 0.77242 0.71073
 C1616 C 0.17709 0.77357 0.70401
 H1617 H 0.06982 0.73210 0.68614
 H1618 H 0.03777 0.73054 0.66148
 H1619 H 0.04670 0.79850 0.64631
 H1620 H 0.07857 0.79977 0.67017
 H1621 H 0.15358 0.74925 0.75162
 H1622 H 0.19121 0.74804 0.76405
 H1623 H 0.21057 0.77880 0.69872
 H1624 H 0.17348 0.78063 0.68710
 C1625 C 0.91758 0.75087 0.65674
 C1626 C 0.92347 0.74146 0.63509
 C1627 C 0.94448 0.74387 0.62638
 C1628 C 0.96013 0.75573 0.63907
 C1629 C 0.95405 0.76554 0.66048
 C1630 C 0.93312 0.76307 0.66922
 C1631 C 0.89546 0.74790 0.66638
 N1632 N 0.89054 0.75480 0.68852
 N1633 N 0.87075 0.75212 0.69723
 C1634 C 0.85498 0.74244 0.68420
 N1635 N 0.85990 0.73553 0.66207
 N1636 N 0.87971 0.73816 0.65337
 C1637 C 0.83279 0.73980 0.69375
 C1638 C 0.81596 0.73250 0.67915
 C1639 C 0.79496 0.73066 0.68783
 C1640 C 0.79020 0.73583 0.71149
 C1641 C 0.80712 0.74289 0.72617
 C1642 C 0.82813 0.74488 0.71741
 H1643 H 0.91193 0.73197 0.62497
 H1644 H 0.94845 0.73599 0.60996
 H1645 H 0.96542 0.77530 0.67051
 H1646 H 0.92913 0.77078 0.68579
 H1647 H 0.81891 0.72843 0.66084
 H1648 H 0.78249 0.72509 0.67590
 H1649 H 0.80417 0.74718 0.74438
 H1650 H 0.84070 0.75052 0.72919
 C1651 C 0.41714 0.26024 0.16209
 C1652 C 0.42366 0.24804 0.14243
 C1653 C 0.44476 0.24975 0.13389
 C1654 C 0.45983 0.26383 0.14468
 C1655 C 0.45315 0.27635 0.16404
 C1656 C 0.43213 0.27449 0.17271
 C1657 C 0.39490 0.25802 0.17155
 N1658 N 0.38973 0.26608 0.19314
 N1659 N 0.36980 0.26392 0.20168
 C1660 C 0.35416 0.25369 0.18893
 N1661 N 0.35934 0.24567 0.16733
 N1662 N 0.37927 0.24773 0.15886
 C1663 C 0.33189 0.25131 0.19824
 C1664 C 0.31505 0.24513 0.18311
 C1665 C 0.29407 0.24273 0.19164
 C1666 C 0.28930 0.24607 0.21570
 C1667 C 0.30616 0.25241 0.23082
 C1668 C 0.32719 0.25507 0.22219
 H1669 H 0.41255 0.23683 0.13388
 H1670 H 0.44936 0.23957 0.11923
 H1671 H 0.46414 0.28771 0.17252
 H1672 H 0.42762 0.28430 0.18771
 H1673 H 0.31802 0.24222 0.16454
 H1674 H 0.28167 0.23784 0.17929
 H1675 H 0.30316 0.25539 0.24934
 H1676 H 0.33979 0.25986 0.23434
 C1677 C 0.42741 0.74816 0.32345
 C1678 C 0.44393 0.73787 0.31117
 C1679 C 0.46462 0.73752 0.32046
 C1680 C 0.46934 0.74749 0.34225
 C1681 C 0.45269 0.75706 0.35496
 C1682 C 0.43196 0.75746 0.34564
 C1683 C 0.40571 0.74954 0.31301
 N1684 N 0.38979 0.75960 0.32485
 N1685 N 0.37037 0.76108 0.31546
 C1686 C 0.36596 0.75264 0.29381
 N1687 N 0.38188 0.74259 0.28190
 N1688 N 0.40136 0.74112 0.29130
 C1689 C 0.34400 0.75384 0.28397
 C1690 C 0.33858 0.74437 0.26210
 C1691 C 0.31731 0.74430 0.25405
 C1692 C 0.30109 0.75370 0.26772
 C1693 C 0.30685 0.76380 0.28917
 C1694 C 0.32793 0.76395 0.29708
 H1695 H 0.44099 0.73029 0.29420
 H1696 H 0.47699 0.72951 0.31047
 H1697 H 0.45579 0.76488 0.37171
 H1698 H 0.41958 0.76542 0.35568
 H1699 H 0.35063 0.73654 0.25147
 H1700 H 0.31352 0.73633 0.23751
 H1701 H 0.29499 0.77134 0.30029
 H1702 H 0.33145 0.77158 0.31389
 C1703 C 0.92159 0.24945 0.82357
 C1704 C 0.92580 0.25343 0.84755
 C1705 C 0.94678 0.25311 0.85623
 C1706 C 0.96430 0.24908 0.84109
 C1707 C 0.95975 0.24473 0.81707
 C1708 C 0.93881 0.24491 0.80852
 C1709 C 0.89941 0.25017 0.81426
 N1710 N 0.89499 0.24445 0.79156
 N1711 N 0.87505 0.24524 0.78323
 C1712 C 0.85872 0.25189 0.79724
 N1713 N 0.86319 0.25761 0.81990
 N1714 N 0.88307 0.25678 0.82823
 C1715 C 0.83637 0.25260 0.78844
 C1716 C 0.82035 0.26112 0.80294
 C1717 C 0.79905 0.26081 0.79578
 C1718 C 0.79296 0.25206 0.77375
 C1719 C 0.80907 0.24409 0.75881
 C1720 C 0.83058 0.24437 0.76608
 H1721 H 0.91286 0.25694 0.85971
 H1722 H 0.94898 0.25688 0.87467
 H1723 H 0.97215 0.24047 0.80463
 H1724 H 0.93617 0.24152 0.78999
 H1725 H 0.82415 0.26783 0.82013
 H1726 H 0.78733 0.26736 0.80783
 H1727 H 0.80502 0.23720 0.74178
 H1728 H 0.84258 0.23774 0.75442
 C1729 C 0.58593 0.94652 0.67981
 C1730 C 0.57739 0.95240 0.70193
 C1731 C 0.59043 0.96286 0.71876
 C1732 C 0.61199 0.96796 0.71346
 C1733 C 0.62078 0.96116 0.69195
 C1734 C 0.60797 0.95036 0.67539
 C1735 C 0.57182 0.93914 0.66024
 N1736 N 0.55023 0.94182 0.66127
 N1737 N 0.53823 0.93951 0.64197
 C1738 C 0.54736 0.93441 0.62091
 N1739 N 0.56872 0.93069 0.62018
 N1740 N 0.58066 0.93292 0.63943
 C1741 C 0.53587 0.93825 0.59871
 C1742 C 0.54695 0.94934 0.58079
 C1743 C 0.53599 0.95777 0.56186
 C1744 C 0.51371 0.95424 0.55930
 C1745 C 0.50276 0.94184 0.57659
 C1746 C 0.51369 0.93427 0.59639
 H1747 H 0.56052 0.94964 0.70594
 H1748 H 0.58343 0.96791 0.73539
 H1749 H 0.63750 0.96463 0.68772
 H1750 H 0.61521 0.94608 0.65863
 H1751 H 0.56393 0.95323 0.58241
 H1752 H 0.54502 0.96831 0.55016
 H1753 H 0.48554 0.93920 0.57568
 H1754 H 0.50475 0.92600 0.61022
 C1755 C 0.08534 0.45175 1.18264
 C1756 C 0.10778 0.45324 1.17988
 C1757 C 0.12047 0.46394 1.19662
 C1758 C 0.11110 0.47312 1.21670
 C1759 C 0.08895 0.47035 1.22054
 C1760 C 0.07610 0.45990 1.20351
 C1761 C 0.07186 0.44421 1.16256
 N1762 N 0.08135 0.43764 1.14223
 N1763 N 0.06998 0.43468 1.12266
 C1764 C 0.04853 0.43799 1.12257
 N1765 N 0.03878 0.44358 1.14313
 N1766 N 0.05022 0.44663 1.16275
 C1767 C 0.03737 0.44032 1.09984
 C1768 C 0.01516 0.43649 1.09759
 C1769 C 0.00444 0.44296 1.07718
 C1770 C 0.01564 0.45412 1.05910
 C1771 C 0.03801 0.45714 1.06138
 C1772 C 0.04875 0.44977 1.08104
 H1773 H 0.11555 0.44705 1.16420
 H1774 H 0.13762 0.46554 1.19361
 H1775 H 0.08150 0.47719 1.23608
 H1776 H 0.05889 0.45894 1.20625
 H1777 H 0.00600 0.42932 1.11196
 H1778 H -0.01281 0.44064 1.07643
 H1779 H 0.04728 0.46671 1.04894
 H1780 H 0.06580 0.45337 1.08242
 C1781 C -0.08306 0.03680 1.16304
 C1782 C -0.07687 0.02569 1.18341
 C1783 C -0.09128 0.02263 1.20220
 C1784 C -0.11204 0.03079 1.20106
 C1785 C -0.11824 0.04172 1.18064
 C1786 C -0.10395 0.04469 1.16188
 C1787 C -0.06814 0.03963 1.14280
 N1788 N -0.07521 0.04731 1.12191
 N1789 N -0.06217 0.04870 1.10327
 C1790 C -0.04144 0.04264 1.10478
 N1791 N -0.03427 0.03534 1.12580
 N1792 N -0.04733 0.03389 1.14442
 C1793 C -0.02772 0.04145 1.08343
 C1794 C -0.00633 0.03516 1.08523
 C1795 C 0.00520 0.02937 1.06513
 C1796 C -0.00446 0.02938 1.04270
 C1797 C -0.02484 0.03845 1.04074
 C1798 C -0.03642 0.04428 1.06088
 H1799 H -0.06094 0.01926 1.18479
 H1800 H -0.08605 0.01423 1.21775
 H1801 H -0.13430 0.04783 1.17903
 H1802 H -0.10933 0.05317 1.14643
 H1803 H 0.00116 0.03349 1.10229
 H1804 H 0.02126 0.02351 1.06753
 H1805 H -0.03228 0.04052 1.02385
 H1806 H -0.05262 0.04986 1.05879
 C1807 C 0.41273 0.53486 0.66811
 C1808 C 0.42011 0.52210 0.68671
 C1809 C 0.40676 0.51731 0.70609
 C1810 C 0.38597 0.52548 0.70734
 C1811 C 0.37871 0.53832 0.68882
 C1812 C 0.39188 0.54289 0.66944
 C1813 C 0.42599 0.53878 0.64670
 N1814 N 0.41655 0.54492 0.62637
 N1815 N 0.42785 0.54668 0.60647
 C1816 C 0.44916 0.54268 0.60609
 N1817 N 0.45880 0.53709 0.62653
 N1818 N 0.44743 0.53516 0.64645
 C1819 C 0.46053 0.54067 0.58329
 C1820 C 0.48275 0.54461 0.58118
 C1821 C 0.49368 0.53878 0.56047
 C1822 C 0.48269 0.52817 0.54188
 C1823 C 0.46027 0.52518 0.54400
 C1824 C 0.44932 0.53187 0.56406
 H1825 H 0.43604 0.51551 0.68610
 H1826 H 0.41279 0.50749 0.72020
 H1827 H 0.36265 0.54460 0.68913
 H1828 H 0.38565 0.55269 0.65541
 H1829 H 0.49175 0.55137 0.59586
 H1830 H 0.51095 0.54105 0.55987
 H1831 H 0.45110 0.51593 0.53125
 H1832 H 0.43225 0.52825 0.56534
 C1833 C 0.41199 0.47180 -0.18334
 C1834 C 0.38944 0.47044 -0.18187
 C1835 C 0.37685 0.48017 -0.19882
 C1836 C 0.38648 0.49113 -0.21781
 C1837 C 0.40884 0.49102 -0.22055
 C1838 C 0.42156 0.48150 -0.20335
 C1839 C 0.42498 0.46596 -0.16258
 N1840 N 0.44662 0.46946 -0.16229
 N1841 N 0.45758 0.46803 -0.14223
 C1842 C 0.44729 0.46309 -0.12169
 N1843 N 0.42585 0.45878 -0.12218
 N1844 N 0.41497 0.46009 -0.14219
 C1845 C 0.45793 0.46689 -0.09884
 C1846 C 0.47952 0.46202 -0.09507
 C1847 C 0.48969 0.46832 -0.07399
 C1848 C 0.47859 0.48020 -0.05672
 C1849 C 0.45698 0.48499 -0.06089
 C1850 C 0.44668 0.47792 -0.08127
 H1851 H 0.38145 0.46293 -0.16691
 H1852 H 0.35956 0.47985 -0.19665
 H1853 H 0.41649 0.49938 -0.23520
 H1854 H 0.43886 0.48276 -0.20509
 H1855 H 0.48858 0.45375 -0.10857
 H1856 H 0.50647 0.46477 -0.07178
 H1857 H 0.44803 0.49499 -0.04888
 H1858 H 0.43018 0.48241 -0.08397
 C1859 C -0.09435 0.98495 0.31725
 C1860 C -0.11668 0.98750 0.31889
 C1861 C -0.12791 0.99689 0.30060
 C1862 C -0.11720 1.00377 0.28007
 C1863 C -0.09517 1.00010 0.27762
 C1864 C -0.08376 0.99091 0.29616
 C1865 C -0.08227 0.97813 0.33834
 N1866 N -0.06043 0.97850 0.33862
 N1867 N -0.04983 0.97540 0.35866
 C1868 C -0.06067 0.97183 0.37921
 N1869 N -0.08243 0.97074 0.37872
 N1870 N -0.09298 0.97374 0.35874
 C1871 C -0.04952 0.97300 0.40216
 C1872 C -0.02793 0.96742 0.40461
 C1873 C -0.01701 0.97178 0.42578
 C1874 C -0.02731 0.98240 0.44459
 C1875 C -0.04907 0.98743 0.44198
 C1876 C -0.06011 0.98230 0.42141
 H1877 H -0.12547 0.98296 0.33470
 H1878 H -0.14502 0.99907 0.30263
 H1879 H -0.08665 1.00514 0.26180
 H1880 H -0.06660 0.98911 0.29426
 H1881 H -0.01936 0.96030 0.38995
 H1882 H -0.00017 0.96801 0.42681
 H1883 H -0.05749 0.99658 0.45523
 H1884 H -0.07662 0.98719 0.41998
 C1885 C 0.08745 0.51385 0.33400
 C1886 C 0.07898 0.50172 0.31499
 C1887 C 0.09164 0.49763 0.29497
 C1888 C 0.11280 0.50590 0.29351
 C1889 C 0.12115 0.51803 0.31249
 C1890 C 0.10868 0.52191 0.33244
 C1891 C 0.07497 0.51730 0.35599
 N1892 N 0.08538 0.52318 0.37606
 N1893 N 0.07480 0.52508 0.39634
 C1894 C 0.05326 0.52147 0.39744
 N1895 N 0.04264 0.51600 0.37732
 N1896 N 0.05331 0.51392 0.35696
 C1897 C 0.04253 0.52062 0.42070
 C1898 C 0.02160 0.52792 0.42446
 C1899 C 0.01193 0.52615 0.44689
 C1900 C 0.02287 0.51652 0.46563
 C1901 C 0.04368 0.50897 0.46131
 C1902 C 0.05349 0.51145 0.43945
 H1903 H 0.06273 0.49512 0.31576
 H1904 H 0.08481 0.48831 0.28052
 H1905 H 0.13752 0.52432 0.31205
 H1906 H 0.11578 0.53125 0.34674
 H1907 H 0.01280 0.53496 0.41013
 H1908 H -0.00427 0.53170 0.44932
 H1909 H 0.05250 0.50065 0.47472
 H1910 H 0.06948 0.50530 0.43694
 C1911 C 0.58483 0.00198 -0.16860
 C1912 C 0.58514 0.01807 -0.18594
 C1913 C 0.59742 0.01566 -0.20644
 C1914 C 0.60954 -0.00294 -0.21010
 C1915 C 0.60835 -0.01950 -0.19340
 C1916 C 0.59620 -0.01704 -0.17281
 C1917 C 0.57402 0.00548 -0.14559
 N1918 N 0.57813 -0.00766 -0.12723
 N1919 N 0.56956 -0.00406 -0.10611
 C1920 C 0.55648 0.01283 -0.10233
 N1921 N 0.55207 0.02591 -0.12074
 N1922 N 0.56078 0.02235 -0.14195
 C1923 C 0.54749 0.01646 -0.07844
 C1924 C 0.52886 0.02839 -0.07448
 C1925 C 0.51939 0.02908 -0.05190
 C1926 C 0.52851 0.01796 -0.03298
 C1927 C 0.54785 0.00718 -0.03703
 C1928 C 0.55720 0.00657 -0.05925
 H1929 H 0.57651 0.03286 -0.18332
 H1930 H 0.59780 0.02858 -0.21924
 H1931 H 0.61762 -0.03391 -0.19569
 H1932 H 0.59621 -0.02983 -0.15988
 H1933 H 0.52109 0.03631 -0.08898
 H1934 H 0.50446 0.03742 -0.04955
 H1935 H 0.55553 -0.00175 -0.02322
 H1936 H 0.57177 -0.00240 -0.06150
 C1937 C 0.68174 0.56332 -0.02189
 C1938 C 0.69595 0.56022 -0.04087
 C1939 C 0.71630 0.57031 -0.04094
 C1940 C 0.72294 0.58350 -0.02193
 C1941 C 0.70914 0.58578 -0.00254
 C1942 C 0.68874 0.57590 -0.00254
 C1943 C 0.65932 0.55475 -0.02273
 N1944 N 0.64435 0.56281 -0.00787
 N1945 N 0.62394 0.55614 -0.00913
 C1946 C 0.61755 0.54106 -0.02525
 N1947 N 0.63254 0.53273 -0.04000
 N1948 N 0.65301 0.53954 -0.03884
 C1949 C 0.59461 0.53428 -0.02649
 C1950 C 0.58790 0.51437 -0.03634
 C1951 C 0.56622 0.50761 -0.03515
 C1952 C 0.55084 0.52075 -0.02430
 C1953 C 0.55769 0.54111 -0.01562
 C1954 C 0.57915 0.54770 -0.01662
 H1955 H 0.69109 0.55061 -0.05602
 H1956 H 0.72675 0.56804 -0.05603
 H1957 H 0.71366 0.59597 0.01220
 H1958 H 0.67826 0.57852 0.01245
 H1959 H 0.59949 0.50369 -0.04416
 H1960 H 0.56168 0.49183 -0.04204
 H1961 H 0.54678 0.55170 -0.00667
 H1962 H 0.58368 0.56324 -0.00908
 C1963 C 0.17870 1.06068 0.47296
 C1964 C 0.19239 1.05827 0.45341
 C1965 C 0.21286 1.06812 0.45329
 C1966 C 0.22009 1.08038 0.47278
 C1967 C 0.20676 1.08191 0.49266
 C1968 C 0.18629 1.07227 0.49274
 C1969 C 0.15616 1.05250 0.47240
 N1970 N 0.14173 1.06023 0.48810
 N1971 N 0.12120 1.05399 0.48717
 C1972 C 0.11414 1.03970 0.47056
 N1973 N 0.12858 1.03166 0.45496
 N1974 N 0.14919 1.03805 0.45579
 C1975 C 0.09106 1.03354 0.46971
 C1976 C 0.08367 1.01379 0.46004
 C1977 C 0.06189 1.00753 0.46196
 C1978 C 0.04715 1.02101 0.47338
 C1979 C 0.05468 1.04123 0.48178
 C1980 C 0.07620 1.04735 0.48002
 H1981 H 0.18706 1.04941 0.43792
 H1982 H 0.22295 1.06637 0.43781
 H1983 H 0.21172 1.09132 0.50781
 H1984 H 0.17622 1.07432 0.50818
 H1985 H 0.09482 1.00283 0.45192
 H1986 H 0.05682 0.99182 0.45529
 H1987 H 0.04431 1.05203 0.49121
 H1988 H 0.08129 1.06277 0.48744
 C1989 C 0.18298 -0.07026 1.04207
 C1990 C 0.18225 -0.09299 1.04202
 C1991 C 0.20001 -0.10455 1.03474
 C1992 C 0.21896 -0.09365 1.02798
 C1993 C 0.22055 -0.07113 1.03016
 C1994 C 0.20260 -0.05945 1.03704
 C1995 C 0.16269 -0.05838 1.04366
 N1996 N 0.16210 -0.03693 1.03871
 N1997 N 0.14341 -0.02729 1.03569
 C1998 C 0.12464 -0.03882 1.03737
 N1999 N 0.12523 -0.05998 1.04323
 N2000 N 0.14383 -0.06954 1.04634
 C2001 C 0.10420 -0.02977 1.02976
 C2002 C 0.08955 -0.04331 1.01782
 C2003 C 0.07018 -0.03553 1.01004
 C2004 C 0.06443 -0.01409 1.01459
 C2005 C 0.07938 -0.00029 1.02614
 C2006 C 0.09926 -0.00803 1.03341
 H2007 H 0.16752 -0.10191 1.04600
 H2008 H 0.19863 -0.12197 1.03324
 H2009 H 0.23515 -0.06253 1.02491
 H2010 H 0.20373 -0.04198 1.03704
 H2011 H 0.09320 -0.06000 1.01412
 H2012 H 0.05974 -0.04659 1.00047
 H2013 H 0.07570 0.01637 1.02981
 H2014 H 0.11050 0.00279 1.04233
 C2015 C 0.67831 0.43716 0.54464
 C2016 C 0.68075 0.41606 0.55311
 C2017 C 0.69855 0.40412 0.54654
 C2018 C 0.71427 0.41313 0.53157
 C2019 C 0.71296 0.43477 0.52480
 C2020 C 0.69514 0.44679 0.53141
 C2021 C 0.65712 0.44746 0.54634
 N2022 N 0.65450 0.46827 0.53963
 N2023 N 0.63491 0.47629 0.53766
 C2024 C 0.61719 0.46371 0.54211
 N2025 N 0.61984 0.44313 0.54938
 N2026 N 0.63936 0.43520 0.55152
 C2027 C 0.59550 0.47109 0.53630
 C2028 C 0.58041 0.45613 0.52727
 C2029 C 0.56035 0.46272 0.51998
 C2030 C 0.55432 0.48438 0.52233
 C2031 C 0.56946 0.49939 0.53161
 C2032 C 0.58996 0.49285 0.53825
 H2033 H 0.66822 0.40822 0.56352
 H2034 H 0.69927 0.38734 0.55168
 H2035 H 0.72488 0.44182 0.51297
 H2036 H 0.69379 0.46299 0.52461
 H2037 H 0.58443 0.43934 0.52492
 H2038 H 0.54998 0.45076 0.51170
 H2039 H 0.56568 0.51628 0.53339
 H2040 H 0.60143 0.50474 0.54497
 C2041 C -0.17506 0.43519 0.50243
 C2042 C -0.19201 0.44139 0.51728
 C2043 C -0.21147 0.42955 0.51754
 C2044 C -0.21427 0.41119 0.50310
 C2045 C -0.19727 0.40506 0.48830
 C2046 C -0.17801 0.41696 0.48787
 C2047 C -0.15413 0.44706 0.50240
 N2048 N -0.13933 0.44304 0.48537
 N2049 N -0.12003 0.45269 0.48583
 C2050 C -0.11463 0.46678 0.50335
 N2051 N -0.12951 0.47102 0.52028
 N2052 N -0.14889 0.46140 0.51978
 C2053 C -0.09252 0.47610 0.50464
 C2054 C -0.08566 0.48805 0.52445
 C2055 C -0.06416 0.49477 0.52662
 C2056 C -0.04893 0.48920 0.50935
 C2057 C -0.05626 0.47884 0.48864
 C2058 C -0.07769 0.47214 0.48647
 H2059 H -0.19026 0.45542 0.52865
 H2060 H -0.22433 0.43492 0.52887
 H2061 H -0.19857 0.39072 0.47738
 H2062 H -0.16524 0.41155 0.47641
 H2063 H -0.09675 0.49179 0.53857
 H2064 H -0.05943 0.50387 0.54216
 H2065 H -0.04529 0.47500 0.47444
 H2066 H -0.08250 0.46338 0.47070
 C2067 C 0.32504 -0.05124 0.00774
 C2068 C 0.31824 -0.06349 0.02733
 C2069 C 0.30074 -0.07784 0.02568
 C2070 C 0.28936 -0.08017 0.00452
 C2071 C 0.29536 -0.06703 -0.01472
 C2072 C 0.31308 -0.05276 -0.01316
 C2073 C 0.34563 -0.03880 0.00873
 N2074 N 0.35429 -0.02921 -0.01078
 N2075 N 0.37413 -0.02058 -0.01036
 C2076 C 0.38605 -0.02132 0.00959
 N2077 N 0.37712 -0.03029 0.02920
 N2078 N 0.35736 -0.03880 0.02880
 C2079 C 0.40905 -0.01501 0.00964
 C2080 C 0.42264 -0.02563 0.02506
 C2081 C 0.44445 -0.02077 0.02533
 C2082 C 0.45353 -0.00470 0.01063
 C2083 C 0.43991 0.00593 -0.00504
 C2084 C 0.41785 0.00063 -0.00571
 H2085 H 0.32701 -0.06277 0.04375
 H2086 H 0.29691 -0.08780 0.04074
 H2087 H 0.28664 -0.06806 -0.03116
 H2088 H 0.31777 -0.04343 -0.02852
 H2089 H 0.41650 -0.03820 0.03666
 H2090 H 0.45415 -0.03006 0.03705
 H2091 H 0.44623 0.01826 -0.01680
 H2092 H 0.40768 0.00891 -0.01795
 C2093 C 0.32034 1.04610 0.51964
 C2094 C 0.31037 1.06275 0.53222
 C2095 C 0.29546 1.07576 0.52114
 C2096 C 0.29075 1.07265 0.49720
 C2097 C 0.29996 1.05547 0.48490
 C2098 C 0.31443 1.04213 0.49610
 C2099 C 0.33876 1.03486 0.52977
 N2100 N 0.34469 1.01536 0.52119
 N2101 N 0.36321 1.00687 0.52755
 C2102 C 0.37661 1.01765 0.54259
 N2103 N 0.37042 1.03687 0.55163
 N2104 N 0.35181 1.04524 0.54547
 C2105 C 0.39893 1.01076 0.54531
 C2106 C 0.40412 0.98886 0.54515
 C2107 C 0.42558 0.98277 0.54326
 C2108 C 0.44223 0.99846 0.54061
 C2109 C 0.43674 1.02037 0.54164
 C2110 C 0.41551 1.02640 0.54450
 H2111 H 0.31465 1.06616 0.55037
 H2112 H 0.28853 1.08901 0.53087
 H2113 H 0.29641 1.05278 0.46642
 H2114 H 0.32196 1.02955 0.48590
 H2115 H 0.39153 0.97649 0.54559
 H2116 H 0.42889 0.96573 0.54226
 H2117 H 0.44824 1.03316 0.53820
 H2118 H 0.41193 1.04341 0.54395
 C2119 C -0.17606 0.55161 1.02515
 C2120 C -0.18437 0.54581 1.00292
 C2121 C -0.19918 0.55888 0.99185
 C2122 C -0.20636 0.57762 1.00308
 C2123 C -0.19928 0.58269 1.02593
 C2124 C -0.18400 0.56992 1.03680
 C2125 C -0.15733 0.54027 1.03454
 N2126 N -0.14264 0.55115 1.04797
 N2127 N -0.12399 0.54236 1.05318
 C2128 C -0.11934 0.52220 1.04543
 N2129 N -0.13435 0.51099 1.03274
 N2130 N -0.15293 0.51988 1.02733
 C2131 C -0.09717 0.51445 1.04683
 C2132 C -0.09279 0.49235 1.04776
 C2133 C -0.07167 0.48530 1.04506
 C2134 C -0.05464 0.50016 1.04050
 C2135 C -0.05935 0.52229 1.04013
 C2136 C -0.08013 0.52932 1.04383
 H2137 H -0.17850 0.53189 0.99342
 H2138 H -0.20457 0.55472 0.97420
 H2139 H -0.20463 0.59716 1.03481
 H2140 H -0.17789 0.57479 1.05394
 H2141 H -0.10575 0.48052 1.04985
 H2142 H -0.06897 0.46811 1.04508
 H2143 H -0.04767 0.53440 1.03494
 H2144 H -0.08310 0.54641 1.04231
 C2145 C 0.00536 0.68487 0.55405
 C2146 C 0.02453 0.69635 0.55907
 C2147 C 0.02450 0.71437 0.57389
 C2148 C 0.00532 0.72136 0.58423
 C2149 C -0.01406 0.71076 0.57810
 C2150 C -0.01406 0.69265 0.56314
 C2151 C 0.00618 0.66384 0.54149
 N2152 N -0.01194 0.65343 0.53374
 N2153 N -0.01115 0.63344 0.52493
 C2154 C 0.00779 0.62306 0.52368
 N2155 N 0.02591 0.63365 0.53096
 N2156 N 0.02513 0.65362 0.53955
 C2157 C 0.00843 0.59979 0.51803
 C2158 C 0.02215 0.58685 0.53095
 C2159 C 0.02133 0.56452 0.52835
 C2160 C 0.00752 0.55441 0.51185
 C2161 C -0.00566 0.56753 0.49814
 C2162 C -0.00544 0.59001 0.50147
 H2163 H 0.03974 0.69106 0.55209
 H2164 H 0.03965 0.72261 0.57760
 H2165 H -0.02908 0.71581 0.58567
 H2166 H -0.02912 0.68418 0.55961
 H2167 H 0.03275 0.59390 0.54415
 H2168 H 0.03118 0.55519 0.53994
 H2169 H -0.01681 0.56040 0.48558
 H2170 H -0.01626 0.59972 0.49136
 C2171 C 0.50628 0.18253 0.07269
 C2172 C 0.49774 0.20111 0.06257
 C2173 C 0.49668 0.22039 0.07569
 C2174 C 0.50402 0.22126 0.09911
 C2175 C 0.51138 0.20232 0.10945
 C2176 C 0.51260 0.18330 0.09642
 C2177 C 0.50954 0.16244 0.05895
 N2178 N 0.52426 0.14829 0.06640
 N2179 N 0.52685 0.12961 0.05530
 C2180 C 0.51487 0.12409 0.03620
 N2181 N 0.50034 0.13841 0.02835
 N2182 N 0.49780 0.15730 0.03944
 C2183 C 0.51647 0.10198 0.02609
 C2184 C 0.50290 0.09427 0.00797
 C2185 C 0.50234 0.07223 0.00181
 C2186 C 0.51514 0.05747 0.01384
 C2187 C 0.52948 0.06568 0.03097
 C2188 C 0.53043 0.08751 0.03662
 H2189 H 0.49268 0.20096 0.04433
 H2190 H 0.49100 0.23476 0.06722
 H2191 H 0.51659 0.20226 0.12764
 H2192 H 0.51878 0.16916 0.10495
 H2193 H 0.49199 0.10502 -0.00061
 H2194 H 0.49087 0.06660 -0.01125
 H2195 H 0.53917 0.05511 0.04136
 H2196 H 0.54125 0.09271 0.05052
 C2197 C -0.00043 0.16936 0.91475
 C2198 C 0.00324 0.16868 0.89026
 C2199 C 0.00505 0.18759 0.87722
 C2200 C 0.00301 0.20775 0.88819
 C2201 C -0.00160 0.20866 0.91245
 C2202 C -0.00314 0.18958 0.92572
 C2203 C -0.00032 0.14892 0.92833
 N2204 N -0.00010 0.14868 0.95235
 N2205 N 0.00172 0.13011 0.96401
 C2206 C 0.00347 0.11112 0.95205
 N2207 N 0.00282 0.11144 0.92816
 N2208 N 0.00098 0.12987 0.91659
 C2209 C 0.00697 0.09032 0.96413
 C2210 C 0.01484 0.07303 0.95088
 C2211 C 0.01759 0.05298 0.96108
 C2212 C 0.01234 0.04927 0.98494
 C2213 C 0.00544 0.06688 0.99861
 C2214 C 0.00268 0.08721 0.98827
 H2215 H 0.00533 0.15349 0.88110
 H2216 H 0.00836 0.18646 0.85848
 H2217 H -0.00319 0.22410 0.92126
 H2218 H -0.00606 0.19068 0.94453
 H2219 H 0.01891 0.07491 0.93240
 H2220 H 0.02356 0.04025 0.94985
 H2221 H 0.00214 0.06518 1.01718
 H2222 H -0.00307 0.10035 0.99909
 C2223 C 0.50604 0.66920 0.41748
 C2224 C 0.51097 0.66855 0.39326
 C2225 C 0.51307 0.68749 0.38029
 C2226 C 0.51008 0.70761 0.39107
 C2227 C 0.50457 0.70845 0.41511
 C2228 C 0.50279 0.68936 0.42832
 C2229 C 0.50459 0.64870 0.43083
 N2230 N 0.50615 0.64812 0.45476
 N2231 N 0.50588 0.62927 0.46615
 C2232 C 0.50397 0.61031 0.45401
 N2233 N 0.50220 0.61106 0.43020
 N2234 N 0.50254 0.62976 0.41888
 C2235 C 0.50415 0.58897 0.46584
 C2236 C 0.49997 0.57035 0.45230
 C2237 C 0.50085 0.54999 0.46221
 C2238 C 0.50583 0.54734 0.48620
 C2239 C 0.50980 0.56595 0.50003
 C2240 C 0.50895 0.58662 0.48993
 H2241 H 0.51361 0.65337 0.38430
 H2242 H 0.51708 0.68640 0.36171
 H2243 H 0.50226 0.72385 0.42376
 H2244 H 0.49886 0.69036 0.44692
 H2245 H 0.49603 0.57137 0.43378
 H2246 H 0.49734 0.53636 0.45076
 H2247 H 0.51362 0.56453 0.51855
 H2248 H 0.51228 0.60068 0.50085
 C2249 C 0.50498 0.81425 0.43683
 C2250 C 0.48702 0.80292 0.42771
 C2251 C 0.48961 0.78677 0.41056
 C2252 C 0.51018 0.78165 0.40224
 C2253 C 0.52813 0.79201 0.41266
 C2254 C 0.52556 0.80817 0.42958
 C2255 C 0.50256 0.83367 0.45191
 N2256 N 0.51861 0.84887 0.45261
 N2257 N 0.51611 0.86738 0.46413
 C2258 C 0.49753 0.87143 0.47572
 N2259 N 0.48154 0.85610 0.47555
 N2260 N 0.48398 0.83759 0.46376
 C2261 C 0.49430 0.89310 0.48581
 C2262 C 0.48488 0.89626 0.50810
 C2263 C 0.48332 0.91720 0.51754
 C2264 C 0.49068 0.93526 0.50454
 C2265 C 0.49916 0.93181 0.48176
 C2266 C 0.50129 0.91107 0.47277
 H2267 H 0.47094 0.80722 0.43297
 H2268 H 0.47545 0.77905 0.40314
 H2269 H 0.54428 0.78793 0.40749
 H2270 H 0.53975 0.81629 0.43659
 H2271 H 0.47933 0.88254 0.51842
 H2272 H 0.47653 0.91923 0.53500
 H2273 H 0.50494 0.94511 0.47097
 H2274 H 0.50838 0.90907 0.45543
 C2275 C 0.00074 0.31398 0.93470
 C2276 C 0.02110 0.30686 0.92790
 C2277 C 0.02323 0.29092 0.91063
 C2278 C 0.00506 0.28176 0.89947
 C2279 C -0.01538 0.28802 0.90710
 C2280 C -0.01754 0.30396 0.92459
 C2281 C -0.00102 0.33304 0.95053
 N2282 N -0.01981 0.33797 0.96144
 N2283 N -0.02150 0.35625 0.97387
 C2284 C -0.00449 0.37032 0.97570
 N2285 N 0.01428 0.36524 0.96506
 N2286 N 0.01602 0.34695 0.95289
 C2287 C -0.00679 0.39209 0.98595
 C2288 C 0.00093 0.40975 0.97291
 C2289 C -0.00030 0.43059 0.98189
 C2290 C -0.00859 0.43446 1.00468
 C2291 C -0.01662 0.41671 1.01774
 C2292 C -0.01597 0.39565 1.00830
 H2293 H 0.03552 0.31397 0.93558
 H2294 H 0.03922 0.28599 0.90581
 H2295 H -0.02969 0.28134 0.89886
 H2296 H -0.03346 0.30911 0.92939
 H2297 H 0.00787 0.40744 0.95554
 H2298 H 0.00598 0.44361 0.97102
 H2299 H -0.02328 0.41905 1.03522
 H2300 H -0.02205 0.38216 1.01863
 C2301 C 0.49380 0.32687 0.04956
 C2302 C 0.47628 0.31868 0.06288
 C2303 C 0.47912 0.30222 0.07932
 C2304 C 0.49956 0.29396 0.08296
 C2305 C 0.51672 0.30107 0.06858
 C2306 C 0.51384 0.31725 0.05193
 C2307 C 0.49187 0.34691 0.03563
 N2308 N 0.50779 0.35358 0.02063
 N2309 N 0.50744 0.37302 0.01067
 C2310 C 0.49123 0.38664 0.01547
 N2311 N 0.47508 0.37976 0.02999
 N2312 N 0.47536 0.36031 0.03981
 C2313 C 0.49232 0.40936 0.00754
 C2314 C 0.48290 0.42524 0.02159
 C2315 C 0.48523 0.44696 0.01582
 C2316 C 0.49636 0.45353 -0.00473
 C2317 C 0.50552 0.43757 -0.01910
 C2318 C 0.50372 0.41569 -0.01287
 H2319 H 0.46059 0.32564 0.06136
 H2320 H 0.46568 0.29699 0.09025
 H2321 H 0.53260 0.29471 0.07092
 H2322 H 0.52766 0.32309 0.04196
 H2323 H 0.47430 0.42097 0.03761
 H2324 H 0.47808 0.45860 0.02759
 H2325 H 0.51441 0.44198 -0.03488
 H2326 H 0.51127 0.40373 -0.02394
 C2327 C -0.00772 0.82787 0.54979
 C2328 C -0.02499 0.81914 0.56308
 C2329 C -0.02190 0.80192 0.57849
 C2330 C -0.00143 0.79344 0.58119
 C2331 C 0.01556 0.80136 0.56706
 C2332 C 0.01242 0.81829 0.55138
 C2333 C -0.01005 0.84815 0.53637
 N2334 N 0.00514 0.85481 0.52049
 N2335 N 0.00434 0.87426 0.51062
 C2336 C -0.01161 0.88791 0.51638
 N2337 N -0.02701 0.88107 0.53186
 N2338 N -0.02630 0.86159 0.54158
 C2339 C -0.01095 0.91059 0.50829
 C2340 C -0.01951 0.92657 0.52289
 C2341 C -0.01745 0.94826 0.51689
 C2342 C -0.00747 0.95471 0.49561
 C2343 C 0.00070 0.93864 0.48064
 C2344 C -0.00081 0.91678 0.48707
 H2345 H -0.04074 0.82608 0.56215
 H2346 H -0.03522 0.79602 0.58923
 H2347 H 0.03145 0.79483 0.56865
 H2348 H 0.02605 0.82457 0.54141
 H2349 H -0.02717 0.92239 0.53950
 H2350 H -0.02383 0.95998 0.52911
 H2351 H 0.00864 0.94296 0.46424
 H2352 H 0.00599 0.90474 0.47551
 C2353 C 0.21039 0.33972 0.07874
 C2354 C 0.21366 0.33047 0.05633
 C2355 C 0.22359 0.34252 0.03830
 C2356 C 0.23077 0.36383 0.04256
 C2357 C 0.22691 0.37327 0.06465
 C2358 C 0.21672 0.36142 0.08248
 C2359 C 0.20237 0.32656 0.09884
 N2360 N 0.19799 0.33618 0.11982
 N2361 N 0.19423 0.32446 0.13904
 C2362 C 0.19461 0.30257 0.13816
 N2363 N 0.19806 0.29287 0.11696
 N2364 N 0.20182 0.30463 0.09767
 C2365 C 0.19574 0.29012 0.16031
 C2366 C 0.19372 0.26748 0.16038
 C2367 C 0.20024 0.25572 0.18002
 C2368 C 0.20940 0.26634 0.19974
 C2369 C 0.20985 0.28907 0.20003
 C2370 C 0.20262 0.30074 0.18091
 H2371 H 0.20894 0.31382 0.05286
 H2372 H 0.22628 0.33499 0.02129
 H2373 H 0.23182 0.38987 0.06816
 H2374 H 0.21446 0.36912 0.09947
 H2375 H 0.18836 0.25884 0.14476
 H2376 H 0.19975 0.23826 0.17887
 H2377 H 0.21770 0.29818 0.21387
 H2378 H 0.20457 0.31816 0.18149
 C2379 C 0.70962 0.83844 0.57659
 C2380 C 0.71460 0.86018 0.58186
 C2381 C 0.72404 0.87363 0.56489
 C2382 C 0.72849 0.86574 0.54218
 C2383 C 0.72245 0.84441 0.53639
 C2384 C 0.71324 0.83080 0.55351
 C2385 C 0.70275 0.82352 0.59569
 N2386 N 0.70300 0.80180 0.59240
 N2387 N 0.69994 0.78841 0.61048
 C2388 C 0.69639 0.79616 0.63260
 N2389 N 0.69540 0.81786 0.63571
 N2390 N 0.69850 0.83124 0.61765
 C2391 C 0.69731 0.78170 0.65330
 C2392 C 0.69573 0.79013 0.67628
 C2393 C 0.70224 0.77808 0.69560
 C2394 C 0.71082 0.75748 0.69239
 C2395 C 0.70941 0.74804 0.66973
 C2396 C 0.70286 0.76004 0.65042
 H2397 H 0.71198 0.86667 0.59938
 H2398 H 0.72810 0.89019 0.56961
 H2399 H 0.72565 0.83803 0.51894
 H2400 H 0.70950 0.81416 0.54885
 H2401 H 0.69073 0.80654 0.67926
 H2402 H 0.70122 0.78547 0.71273
 H2403 H 0.71495 0.73187 0.66645
 H2404 H 0.70370 0.75278 0.63304
 C2405 C 0.27621 0.66394 0.57615
 C2406 C 0.25683 0.65247 0.57195
 C2407 C 0.25427 0.63974 0.55178
 C2408 C 0.27111 0.63798 0.53545
 C2409 C 0.29031 0.64991 0.53921
 C2410 C 0.29278 0.66296 0.55933
 C2411 C 0.27918 0.67562 0.59875
 N2412 N 0.29360 0.69235 0.60119
 N2413 N 0.29575 0.70268 0.62184
 C2414 C 0.28378 0.69640 0.64085
 N2415 N 0.26958 0.67960 0.63828
 N2416 N 0.26731 0.66946 0.61774
 C2417 C 0.28475 0.70799 0.66376
 C2418 C 0.27521 0.69808 0.68346
 C2419 C 0.27128 0.70982 0.70382
 C2420 C 0.27744 0.73179 0.70568
 C2421 C 0.28889 0.74126 0.68671
 C2422 C 0.29248 0.72945 0.66584
 H2423 H 0.24370 0.65302 0.58453
 H2424 H 0.23941 0.63053 0.54952
 H2425 H 0.30349 0.64893 0.52675
 H2426 H 0.30788 0.67159 0.56214
 H2427 H 0.26934 0.68149 0.68267
 H2428 H 0.26176 0.70182 0.71730
 H2429 H 0.29370 0.75817 0.68729
 H2430 H 0.30000 0.73750 0.65093
 C2431 C 0.77835 0.16729 0.07518
 C2432 C 0.79650 0.16077 0.06255
 C2433 C 0.79449 0.14530 0.04460
 C2434 C 0.77434 0.13568 0.03929
 C2435 C 0.75629 0.14204 0.05231
 C2436 C 0.75824 0.15784 0.06983
 C2437 C 0.78010 0.18398 0.09374
 N2438 N 0.76328 0.19685 0.09824
 N2439 N 0.76432 0.21153 0.11540
 C2440 C 0.78216 0.21390 0.12889
 N2441 N 0.79907 0.20104 0.12442
 N2442 N 0.79811 0.18644 0.10703
 C2443 C 0.78211 0.22924 0.14892
 C2444 C 0.79425 0.22581 0.16930
 C2445 C 0.79047 0.23793 0.18982
 C2446 C 0.77436 0.25347 0.19031
 C2447 C 0.76401 0.25826 0.16900
 C2448 C 0.76777 0.24626 0.14869
 H2449 H 0.81216 0.16796 0.06623
 H2450 H 0.80872 0.14112 0.03474
 H2451 H 0.74064 0.13459 0.04938
 H2452 H 0.74402 0.16240 0.07954
 H2453 H 0.80556 0.21285 0.16990
 H2454 H 0.79898 0.23389 0.20562
 H2455 H 0.75194 0.27044 0.16803
 H2456 H 0.75858 0.24967 0.13305
 C2457 C 0.72369 0.14941 0.92763
 C2458 C 0.72838 0.12749 0.92453
 C2459 C 0.73909 0.11630 0.94195
 C2460 C 0.74513 0.12665 0.96301
 C2461 C 0.73948 0.14818 0.96681
 C2462 C 0.72899 0.15956 0.94916
 C2463 C 0.71546 0.16185 0.90749
 N2464 N 0.71569 0.18381 0.90783
 N2465 N 0.71183 0.19490 0.88827
 C2466 C 0.70757 0.18444 0.86763
 N2467 N 0.70643 0.16254 0.86759
 N2468 N 0.71022 0.15150 0.88709
 C2469 C 0.70876 0.19607 0.84499
 C2470 C 0.71818 0.18577 0.82563
 C2471 C 0.72395 0.19736 0.80561
 C2472 C 0.71940 0.21941 0.80362
 C2473 C 0.70865 0.22946 0.82250
 C2474 C 0.70366 0.21796 0.84317
 H2475 H 0.72453 0.11909 0.90824
 H2476 H 0.74284 0.09954 0.93885
 H2477 H 0.74389 0.15642 0.98304
 H2478 H 0.72559 0.17641 0.95212
 H2479 H 0.72279 0.16906 0.82664
 H2480 H 0.73322 0.18910 0.79234
 H2481 H 0.70529 0.24650 0.82197
 H2482 H 0.69656 0.22632 0.85799
 C2483 C 0.22049 0.65402 0.42304
 C2484 C 0.22662 0.66438 0.44421
 C2485 C 0.23653 0.65278 0.46210
 C2486 C 0.24075 0.63084 0.45885
 C2487 C 0.23352 0.62025 0.43839
 C2488 C 0.22336 0.63166 0.42076
 C2489 C 0.21385 0.66654 0.40223
 N2490 N 0.20922 0.65612 0.38170
 N2491 N 0.20738 0.66697 0.36171
 C2492 C 0.20992 0.68877 0.36137
 N2493 N 0.21350 0.69940 0.38206
 N2494 N 0.21544 0.68848 0.40211
 C2495 C 0.21334 0.69984 0.33866
 C2496 C 0.20858 0.72167 0.33562
 C2497 C 0.21506 0.73249 0.31500
 C2498 C 0.22690 0.72180 0.29741
 C2499 C 0.23144 0.69990 0.30076
 C2500 C 0.22425 0.68896 0.32071
 H2501 H 0.22456 0.68155 0.44656
 H2502 H 0.24183 0.66115 0.47793
 H2503 H 0.23618 0.60319 0.43581
 H2504 H 0.21873 0.62307 0.40484
 H2505 H 0.20042 0.73046 0.34942
 H2506 H 0.21176 0.74949 0.31349
 H2507 H 0.24150 0.69123 0.28856
 H2508 H 0.22869 0.67229 0.32282
 C2509 C 0.75816 0.84059 0.42119
 C2510 C 0.77521 0.84160 0.43728
 C2511 C 0.77343 0.85355 0.45818
 C2512 C 0.75447 0.86446 0.46351
 C2513 C 0.73709 0.86261 0.44798
 C2514 C 0.73895 0.85091 0.42698
 C2515 C 0.76066 0.83009 0.39784
 N2516 N 0.74749 0.83533 0.37992
 N2517 N 0.75004 0.82678 0.35857
 C2518 C 0.76581 0.81256 0.35415
 N2519 N 0.77892 0.80709 0.37212
 N2520 N 0.77647 0.81580 0.39352
 C2521 C 0.76813 0.80330 0.33017
 C2522 C 0.77791 0.78338 0.32613
 C2523 C 0.77725 0.77373 0.30365
 C2524 C 0.76694 0.78393 0.28487
 C2525 C 0.75848 0.80451 0.28885
 C2526 C 0.75909 0.81401 0.31109
 H2527 H 0.79019 0.83382 0.43334
 H2528 H 0.78700 0.85456 0.47002
 H2529 H 0.72237 0.87101 0.45153
 H2530 H 0.72546 0.85033 0.41502
 H2531 H 0.78512 0.77481 0.34053
 H2532 H 0.78393 0.75790 0.30130
 H2533 H 0.75052 0.81312 0.27499
 H2534 H 0.75180 0.82957 0.31346
 C2535 C 0.25346 0.33280 0.92154
 C2536 C 0.23464 0.34316 0.92867
 C2537 C 0.23440 0.35594 0.94901
 C2538 C 0.25299 0.35875 0.96261
 C2539 C 0.27159 0.34776 0.95604
 C2540 C 0.27180 0.33483 0.93575
 C2541 C 0.25416 0.32127 0.89860
 N2542 N 0.27087 0.30860 0.89254
 N2543 N 0.27183 0.29936 0.87125
 C2544 C 0.25620 0.30264 0.85514
 N2545 N 0.23947 0.31513 0.86133
 N2546 N 0.23845 0.32421 0.88257
 C2547 C 0.25724 0.29346 0.83104
 C2548 C 0.24554 0.30310 0.81309
 C2549 C 0.24487 0.29413 0.79062
 C2550 C 0.25578 0.27505 0.78532
 C2551 C 0.26823 0.26577 0.80304
 C2552 C 0.26906 0.27498 0.82572
 H2553 H 0.22017 0.34182 0.91823
 H2554 H 0.21990 0.36435 0.95348
 H2555 H 0.28607 0.34941 0.96643
 H2556 H 0.28652 0.32700 0.93080
 H2557 H 0.23660 0.31758 0.81645
 H2558 H 0.23536 0.30213 0.77754
 H2559 H 0.27684 0.25112 0.79961
 H2560 H 0.27829 0.26726 0.83926
 C2561 C 0.80322 0.42513 0.77580
 C2562 C 0.80181 0.43911 0.79530
 C2563 C 0.81356 0.45867 0.79566
 C2564 C 0.82690 0.46464 0.77652
 C2565 C 0.82729 0.45120 0.75657
 C2566 C 0.81563 0.43170 0.75620
 C2567 C 0.79352 0.40306 0.77641
 N2568 N 0.79969 0.38825 0.76021
 N2569 N 0.79262 0.36789 0.76146
 C2570 C 0.77900 0.36138 0.77892
 N2571 N 0.77238 0.37621 0.79496
 N2572 N 0.77962 0.39667 0.79378
 C2573 C 0.77252 0.33832 0.78042
 C2574 C 0.75259 0.33134 0.78973
 C2575 C 0.74604 0.30950 0.78796
 C2576 C 0.75944 0.29433 0.77706
 C2577 C 0.77987 0.30149 0.76920
 C2578 C 0.78625 0.32303 0.77083
 H2579 H 0.79232 0.43459 0.81063
 H2580 H 0.81259 0.46890 0.81116
 H2581 H 0.83743 0.45513 0.74163
 H2582 H 0.81697 0.42142 0.74079
 H2583 H 0.74170 0.34287 0.79731
 H2584 H 0.73018 0.30472 0.79419
 H2585 H 0.79061 0.29093 0.76000
 H2586 H 0.80182 0.32783 0.76372
 C2587 C 0.30764 0.92774 0.27333
 C2588 C 0.31943 0.93573 0.25390
 C2589 C 0.32949 0.95608 0.25479
 C2590 C 0.32810 0.96891 0.27518
 C2591 C 0.31555 0.96138 0.29427
 C2592 C 0.30531 0.94101 0.29331
 C2593 C 0.29937 0.90511 0.27313
 N2594 N 0.28445 0.89788 0.28904
 N2595 N 0.27797 0.87717 0.28920
 C2596 C 0.28637 0.86287 0.27361
 N2597 N 0.30117 0.87019 0.25772
 N2598 N 0.30750 0.89082 0.25746
 C2599 C 0.27997 0.83971 0.27366
 C2600 C 0.29366 0.82479 0.26320
 C2601 C 0.28740 0.80321 0.26096
 C2602 C 0.26711 0.79571 0.26890
 C2603 C 0.25370 0.81051 0.28035
 C2604 C 0.26013 0.83230 0.28283
 H2605 H 0.32142 0.92599 0.23815
 H2606 H 0.33925 0.96123 0.23990
 H2607 H 0.31406 0.97104 0.31014
 H2608 H 0.29630 0.93533 0.30854
 H2609 H 0.30916 0.82987 0.25616
 H2610 H 0.29824 0.79276 0.25169
 H2611 H 0.23797 0.80546 0.28676
 H2612 H 0.24926 0.84347 0.29108
 C2613 C 0.18639 0.92836 0.70412
 C2614 C 0.19581 0.94660 0.71527
 C2615 C 0.18314 0.96398 0.72209
 C2616 C 0.16101 0.96332 0.71774
 C2617 C 0.15203 0.94618 0.70464
 C2618 C 0.16462 0.92893 0.69773
 C2619 C 0.19784 0.90765 0.70265
 N2620 N 0.18651 0.88904 0.69846
 N2621 N 0.19547 0.86996 0.70108
 C2622 C 0.21624 0.86861 0.70782
 N2623 N 0.22792 0.88716 0.71124
 N2624 N 0.21886 0.90633 0.70880
 C2625 C 0.22455 0.84747 0.71466
 C2626 C 0.21100 0.83331 0.72728
 C2627 C 0.21821 0.81344 0.73467
 C2628 C 0.23893 0.80653 0.72877
 C2629 C 0.25268 0.82091 0.71630
 C2630 C 0.24563 0.84136 0.70959
 H2631 H 0.21255 0.94676 0.72031
 H2632 H 0.19025 0.97708 0.73236
 H2633 H 0.13492 0.94544 0.70126
 H2634 H 0.15687 0.91533 0.68887
 H2635 H 0.19485 0.83786 0.73202
 H2636 H 0.20737 0.80368 0.74531
 H2637 H 0.26890 0.81648 0.71184
 H2638 H 0.25647 0.85221 0.70013
 C2639 C 0.68399 0.44363 0.21463
 C2640 C 0.69264 0.46199 0.22622
 C2641 C 0.67933 0.47894 0.23276
 C2642 C 0.65737 0.47772 0.22762
 C2643 C 0.64916 0.46046 0.21413
 C2644 C 0.66238 0.44360 0.20757
 C2645 C 0.69598 0.42332 0.21348
 N2646 N 0.68497 0.40424 0.21135
 N2647 N 0.69477 0.38562 0.21395
 C2648 C 0.71607 0.38524 0.21861
 N2649 N 0.72736 0.40424 0.22007
 N2650 N 0.71746 0.42295 0.21771
 C2651 C 0.72581 0.36457 0.22444
 C2652 C 0.74578 0.35864 0.21528
 C2653 C 0.75345 0.33790 0.21942
 C2654 C 0.74146 0.32299 0.23322
 C2655 C 0.72220 0.32983 0.24359
 C2656 C 0.71434 0.35014 0.23895
 H2657 H 0.70920 0.46250 0.23190
 H2658 H 0.68579 0.49210 0.24342
 H2659 H 0.63218 0.45930 0.21017
 H2660 H 0.65527 0.42983 0.19841
 H2661 H 0.75496 0.36967 0.20416
 H2662 H 0.76848 0.33344 0.21133
 H2663 H 0.71257 0.31925 0.25471
 H2664 H 0.69907 0.35453 0.24660
 C2665 C 0.67747 0.58715 0.25852
 C2666 C 0.65870 0.58470 0.27222
 C2667 C 0.64668 0.56539 0.27170
 C2668 C 0.65315 0.54803 0.25753
 C2669 C 0.67209 0.55030 0.24413
 C2670 C 0.68413 0.56967 0.24460
 C2671 C 0.68951 0.60810 0.25820
 N2672 N 0.70661 0.61133 0.24355
 N2673 N 0.71670 0.63053 0.24248
 C2674 C 0.71012 0.64730 0.25604
 N2675 N 0.69318 0.64397 0.27086
 N2676 N 0.68311 0.62480 0.27193
 C2677 C 0.72027 0.66908 0.25371
 C2678 C 0.71261 0.68649 0.26702
 C2679 C 0.72064 0.70741 0.26324
 C2680 C 0.73620 0.71160 0.24564
 C2681 C 0.74508 0.69392 0.23369
 C2682 C 0.73700 0.67296 0.23743
 H2683 H 0.65303 0.59783 0.28307
 H2684 H 0.63199 0.56430 0.28196
 H2685 H 0.67772 0.53709 0.23337
 H2686 H 0.69857 0.57096 0.23393
 H2687 H 0.69999 0.68408 0.28002
 H2688 H 0.71393 0.72041 0.27352
 H2689 H 0.75768 0.69632 0.22067
 H2690 H 0.74357 0.65987 0.22717
 C2691 C 0.18045 0.07497 0.74956
 C2692 C 0.16250 0.07120 0.76422
 C2693 C 0.15158 0.05128 0.76394
 C2694 C 0.15841 0.03448 0.74916
 C2695 C 0.17667 0.03801 0.73489
 C2696 C 0.18756 0.05808 0.73504
 C2697 C 0.19107 0.09666 0.74899
 N2698 N 0.20616 0.10179 0.73240
 N2699 N 0.21479 0.12168 0.73130
 C2700 C 0.20873 0.13724 0.74678
 N2701 N 0.19382 0.13202 0.76349
 N2702 N 0.18517 0.11219 0.76455
 C2703 C 0.21735 0.15971 0.74496
 C2704 C 0.21121 0.17538 0.76151
 C2705 C 0.21801 0.19687 0.75907
 C2706 C 0.23075 0.20346 0.73968
 C2707 C 0.23802 0.18752 0.72399
 C2708 C 0.23120 0.16595 0.72642
 H2709 H 0.15648 0.08384 0.77554
 H2710 H 0.13734 0.04935 0.77482
 H2711 H 0.18259 0.02530 0.72362
 H2712 H 0.20144 0.06038 0.72368
 H2713 H 0.20085 0.17114 0.77626
 H2714 H 0.21262 0.20840 0.77209
 H2715 H 0.24877 0.19170 0.70957
 H2716 H 0.23656 0.15423 0.71359
 C2717 C 0.31472 0.07690 0.22604
 C2718 C 0.33671 0.07844 0.23147
 C2719 C 0.34665 0.06181 0.24330
 C2720 C 0.33499 0.04309 0.24962
 C2721 C 0.31334 0.04086 0.24318
 C2722 C 0.30317 0.05778 0.23171
 C2723 C 0.30392 0.09601 0.21651
 N2724 N 0.28231 0.09817 0.21849
 N2725 N 0.27322 0.11682 0.21327
 C2726 C 0.28540 0.13402 0.20582
 N2727 N 0.30683 0.13151 0.20298
 N2728 N 0.31588 0.11294 0.20818
 C2729 C 0.27645 0.15592 0.20475
 C2730 C 0.29026 0.17383 0.20827
 C2731 C 0.28214 0.19419 0.21243
 C2732 C 0.25990 0.19767 0.21222
 C2733 C 0.24609 0.17994 0.20680
 C2734 C 0.25426 0.15922 0.20343
 H2735 H 0.34612 0.09289 0.22747
 H2736 H 0.36346 0.06370 0.24788
 H2737 H 0.30413 0.02643 0.24787
 H2738 H 0.28623 0.05610 0.22772
 H2739 H 0.30742 0.17189 0.20986
 H2740 H 0.29351 0.20643 0.21805
 H2741 H 0.22886 0.18171 0.20675
 H2742 H 0.24319 0.14569 0.20076
 C2743 C 0.81302 0.56832 0.72421
 C2744 C 0.83525 0.57037 0.72820
 C2745 C 0.84596 0.55455 0.74050
 C2746 C 0.83481 0.53613 0.74857
 C2747 C 0.81293 0.53327 0.74346
 C2748 C 0.80200 0.54941 0.73159
 C2749 C 0.80143 0.58693 0.71477
 N2750 N 0.78013 0.58934 0.71911
 N2751 N 0.77072 0.60795 0.71447
 C2752 C 0.78228 0.62483 0.70528
 N2753 N 0.80328 0.62200 0.69995
 N2754 N 0.81264 0.60348 0.70456
 C2755 C 0.77373 0.64686 0.70536
 C2756 C 0.78803 0.66424 0.70947
 C2757 C 0.78052 0.68477 0.71381
 C2758 C 0.75845 0.68902 0.71310
 C2759 C 0.74409 0.67171 0.70784
 C2760 C 0.75164 0.65074 0.70436
 H2761 H 0.84424 0.58472 0.72286
 H2762 H 0.86292 0.55687 0.74417
 H2763 H 0.80416 0.51904 0.74958
 H2764 H 0.78490 0.54737 0.72872
 H2765 H 0.80510 0.66175 0.71111
 H2766 H 0.79221 0.69669 0.71952
 H2767 H 0.72695 0.67411 0.70751
 H2768 H 0.74024 0.63754 0.70144
 C2769 C 0.93344 0.75028 0.20118
 C2770 C 0.93852 0.73077 0.18984
 C2771 C 0.95564 0.73008 0.17368
 C2772 C 0.96775 0.74889 0.16858
 C2773 C 0.96368 0.76788 0.18128
 C2774 C 0.94676 0.76857 0.19738
 C2775 C 0.91305 0.75259 0.21445
 N2776 N 0.90526 0.77258 0.21831
 N2777 N 0.88562 0.77508 0.22704
 C2778 C 0.87300 0.75768 0.23258
 N2779 N 0.88095 0.73763 0.22948
 N2780 N 0.90059 0.73513 0.22052
 C2781 C 0.85004 0.76059 0.23772
 C2782 C 0.83869 0.74743 0.25380
 C2783 C 0.81638 0.74916 0.25631
 C2784 C 0.80499 0.76356 0.24217
 C2785 C 0.81669 0.77667 0.22619
 C2786 C 0.83890 0.77562 0.22448
 H2787 H 0.92860 0.71637 0.19245
 H2788 H 0.95862 0.71521 0.16424
 H2789 H 0.97322 0.78246 0.17819
 H2790 H 0.94358 0.78376 0.20611
 H2791 H 0.84701 0.73560 0.26407
 H2792 H 0.80799 0.73843 0.26844
 H2793 H 0.80869 0.78722 0.21412
 H2794 H 0.84722 0.78564 0.21158
 C2795 C 0.42595 0.24759 0.70619
 C2796 C 0.43134 0.22822 0.69472
 C2797 C 0.44850 0.22786 0.67861
 C2798 C 0.46035 0.24686 0.67366
 C2799 C 0.45598 0.26573 0.68645
 C2800 C 0.43903 0.26609 0.70253
 C2801 C 0.40549 0.24953 0.71940
 N2802 N 0.39757 0.26939 0.72373
 N2803 N 0.37784 0.27160 0.73229
 C2804 C 0.36522 0.25402 0.73716
 N2805 N 0.37333 0.23408 0.73364
 N2806 N 0.39307 0.23188 0.72486
 C2807 C 0.34216 0.25664 0.74197
 C2808 C 0.33046 0.24220 0.75638
 C2809 C 0.30804 0.24330 0.75790
 C2810 C 0.29690 0.25844 0.74445
 C2811 C 0.30895 0.27301 0.73038
 C2812 C 0.33124 0.27249 0.72967
 H2813 H 0.42163 0.21367 0.69722
 H2814 H 0.45173 0.21309 0.66909
 H2815 H 0.46532 0.28045 0.68347
 H2816 H 0.43561 0.28118 0.71134
 H2817 H 0.33858 0.22973 0.76590
 H2818 H 0.29943 0.23144 0.76852
 H2819 H 0.30123 0.28416 0.71877
 H2820 H 0.33984 0.28355 0.71803
 C2821 C 0.42926 0.75793 0.81396
 C2822 C 0.44011 0.77804 0.81565
 C2823 C 0.45772 0.78082 0.83066
 C2824 C 0.46509 0.76349 0.84402
 C2825 C 0.45508 0.74309 0.84130
 C2826 C 0.43723 0.74037 0.82658
 C2827 C 0.40871 0.75577 0.80089
 N2828 N 0.39440 0.73962 0.80622
 N2829 N 0.37504 0.73880 0.79640
 C2830 C 0.36916 0.75397 0.78065
 N2831 N 0.38363 0.76986 0.77483
 N2832 N 0.40298 0.77080 0.78484
 C2833 C 0.34679 0.75417 0.77188
 C2834 C 0.34157 0.76349 0.75014
 C2835 C 0.32009 0.76404 0.74273
 C2836 C 0.30342 0.75574 0.75717
 C2837 C 0.30888 0.74677 0.77907
 C2838 C 0.33020 0.74564 0.78606
 H2839 H 0.43440 0.79189 0.80622
 H2840 H 0.46530 0.79668 0.83226
 H2841 H 0.46035 0.72949 0.85149
 H2842 H 0.42930 0.72463 0.82559
 H2843 H 0.35408 0.77027 0.73888
 H2844 H 0.31656 0.77125 0.72589
 H2845 H 0.29666 0.74036 0.79093
 H2846 H 0.33362 0.73859 0.80303
 C2847 C 0.92807 0.26545 0.30574
 C2848 C 0.93758 0.24633 0.31320
 C2849 C 0.95468 0.24699 0.32920
 C2850 C 0.96246 0.26683 0.33857
 C2851 C 0.95335 0.28594 0.33019
 C2852 C 0.93656 0.28525 0.31401
 C2853 C 0.90865 0.26492 0.29062
 N2854 N 0.90063 0.28353 0.28217
 N2855 N 0.88222 0.28344 0.27035
 C2856 C 0.87095 0.26472 0.26645
 N2857 N 0.87915 0.24604 0.27453
 N2858 N 0.89761 0.24612 0.28633
 C2859 C 0.84930 0.26501 0.25556
 C2860 C 0.83630 0.24620 0.25460
 C2861 C 0.81483 0.24709 0.24768
 C2862 C 0.80565 0.26677 0.24146
 C2863 C 0.81928 0.28530 0.24071
 C2864 C 0.84073 0.28445 0.24773
 H2865 H 0.93147 0.23076 0.30713
 H2866 H 0.96068 0.23176 0.33518
 H2867 H 0.95929 0.30170 0.33575
 H2868 H 0.92987 0.30035 0.30845
 H2869 H 0.84242 0.23083 0.26011
 H2870 H 0.80560 0.23228 0.24779
 H2871 H 0.81316 0.30084 0.23583
 H2872 H 0.85033 0.29926 0.24790
 C2873 C 0.07153 0.24511 0.32171
 C2874 C 0.05135 0.24592 0.31074
 C2875 C 0.03294 0.25086 0.32394
 C2876 C 0.03454 0.25552 0.34815
 C2877 C 0.05459 0.25438 0.35910
 C2878 C 0.07279 0.24911 0.34612
 C2879 C 0.09148 0.24074 0.30819
 N2880 N 0.10961 0.23588 0.31993
 N2881 N 0.12804 0.23337 0.30847
 C2882 C 0.12933 0.23562 0.28471
 N2883 N 0.11111 0.24015 0.27278
 N2884 N 0.09253 0.24263 0.28430
 C2885 C 0.15062 0.23445 0.27278
 C2886 C 0.15328 0.23716 0.24827
 C2887 C 0.17394 0.23777 0.23806
 C2888 C 0.19233 0.23623 0.25225
 C2889 C 0.18935 0.23245 0.27653
 C2890 C 0.16895 0.23156 0.28655
 H2891 H 0.04983 0.24284 0.29200
 H2892 H 0.01761 0.25169 0.31514
 H2893 H 0.05619 0.25764 0.37781
 H2894 H 0.08800 0.24864 0.35522
 H2895 H 0.13947 0.23922 0.23708
 H2896 H 0.17550 0.24023 0.21927
 H2897 H 0.20279 0.23056 0.28826
 H2898 H 0.16770 0.22914 0.30541
 C2899 C 0.57622 0.75196 0.82463
 C2900 C 0.55550 0.74939 0.81511
 C2901 C 0.53729 0.75320 0.82909
 C2902 C 0.53951 0.76007 0.85263
 C2903 C 0.56019 0.76264 0.86207
 C2904 C 0.57829 0.75850 0.84832
 C2905 C 0.59576 0.74783 0.81036
 N2906 N 0.61461 0.74417 0.82130
 N2907 N 0.63244 0.74093 0.80891
 C2908 C 0.63232 0.74132 0.78497
 N2909 N 0.61346 0.74499 0.77390
 N2910 N 0.59551 0.74811 0.78636
 C2911 C 0.65264 0.73815 0.77169
 C2912 C 0.65519 0.74434 0.74797
 C2913 C 0.67526 0.74290 0.73664
 C2914 C 0.69318 0.73532 0.74884
 C2915 C 0.69002 0.72797 0.77212
 C2916 C 0.67021 0.72950 0.78335
 H2917 H 0.55338 0.74429 0.79696
 H2918 H 0.52150 0.75122 0.82136
 H2919 H 0.56238 0.76768 0.88023
 H2920 H 0.59397 0.76068 0.85623
 H2921 H 0.64187 0.75085 0.73839
 H2922 H 0.67664 0.74804 0.71856
 H2923 H 0.70307 0.72152 0.78220
 H2924 H 0.66881 0.72417 0.80147
 C2925 C 0.56557 0.23578 0.70378
 C2926 C 0.55712 0.21829 0.69052
 C2927 C 0.53983 0.22116 0.67529
 C2928 C 0.53108 0.24162 0.67276
 C2929 C 0.53879 0.25880 0.68684
 C2930 C 0.55574 0.25587 0.70235
 C2931 C 0.58596 0.23385 0.71676
 N2932 N 0.59227 0.24907 0.73283
 N2933 N 0.61193 0.24901 0.74200
 C2934 C 0.62608 0.23382 0.73529
 N2935 N 0.61957 0.21831 0.71970
 N2936 N 0.59990 0.21827 0.71069
 C2937 C 0.64883 0.23558 0.74233
 C2938 C 0.66463 0.22875 0.72650
 C2939 C 0.68626 0.23163 0.73177
 C2940 C 0.69282 0.24070 0.75348
 C2941 C 0.67697 0.24742 0.76950
 C2942 C 0.65513 0.24510 0.76384
 H2943 H 0.56431 0.20259 0.69134
 H2944 H 0.53404 0.20770 0.66461
 H2945 H 0.53201 0.27467 0.68538
 H2946 H 0.56186 0.26966 0.71228
 H2947 H 0.66028 0.22167 0.70963
 H2948 H 0.69784 0.22632 0.71881
 H2949 H 0.68138 0.25465 0.78625
 H2950 H 0.64319 0.25065 0.77627
 C2951 C 0.07370 0.73617 0.19680
 C2952 C 0.06519 0.71885 0.18333
 C2953 C 0.04755 0.72179 0.16861
 C2954 C 0.03852 0.74219 0.16682
 C2955 C 0.04627 0.75917 0.18112
 C2956 C 0.06357 0.75615 0.19614
 C2957 C 0.09436 0.73427 0.20925
 N2958 N 0.10069 0.74921 0.22561
 N2959 N 0.12046 0.74918 0.23447
 C2960 C 0.13473 0.73432 0.22714
 N2961 N 0.12823 0.71910 0.21122
 N2962 N 0.10843 0.71903 0.20250
 C2963 C 0.15746 0.73598 0.23434
 C2964 C 0.17338 0.72836 0.21909
 C2965 C 0.19499 0.73117 0.22460
 C2966 C 0.20137 0.74104 0.24596
 C2967 C 0.18539 0.74852 0.26139
 C2968 C 0.16363 0.74618 0.25553
 H2969 H 0.07261 0.70323 0.18358
 H2970 H 0.04173 0.70850 0.15771
 H2971 H 0.03930 0.77499 0.18015
 H2972 H 0.06972 0.76982 0.20625
 H2973 H 0.16916 0.72071 0.20247
 H2974 H 0.20670 0.72526 0.21212
 H2975 H 0.18965 0.75640 0.27784
 H2976 H 0.15165 0.75233 0.26754
   
