data_POSCAR
  _audit_creation_date              2014-09-24
  _audit_creation_method            'ToBaCCo'
  _symmetry_space_group_name_H-M    'P1'
  _symmetry_Int_Tables_number       1
  _symmetry_cell_setting            triclinic
  loop_
  _symmetry_equiv_pos_as_xyz
 x,y,z
_cell_length_a 107.8904
_cell_length_b 108.3784
_cell_length_c 109.2184
_cell_angle_alpha 90.039900
_cell_angle_beta 90.010900
_cell_angle_gamma 90.020500
loop_
  _atom_site_label
  _atom_site_type_symbol
  _atom_site_fract_x
  _atom_site_fract_y
  _atom_site_fract_z
C1 C 0.32213 0.44378 0.92618
 C2 C 0.31698 0.44886 0.91551
 C3 C 0.30634 0.44365 0.91015
 C4 C 0.30076 0.43334 0.91569
 C5 C 0.30579 0.42819 0.92637
 C6 C 0.31650 0.43344 0.93165
 C7 C 0.33286 0.44888 0.93138
 C8 C 0.33827 0.44378 0.94204
 C9 C 0.33240 0.43343 0.94743
 C10 C 0.32166 0.42827 0.94232
 C11 C 0.31613 0.41782 0.94760
 C12 C 0.30551 0.41246 0.94235
 C13 C 0.30036 0.41776 0.93176
 H14 H 0.32126 0.45689 0.91137
 H15 H 0.29267 0.42915 0.91152
 H16 H 0.33668 0.45710 0.92723
 H17 H 0.33645 0.42890 0.95530
 H18 H 0.32027 0.41368 0.95565
 H19 H 0.29209 0.41379 0.92773
 C20 C 0.44450 0.82263 0.42776
 C21 C 0.44943 0.83331 0.43315
 C22 C 0.44379 0.83879 0.44352
 C23 C 0.43310 0.83305 0.44841
 C24 C 0.42810 0.82236 0.44310
 C25 C 0.43380 0.81713 0.43273
 C26 C 0.45002 0.81748 0.41729
 C27 C 0.44498 0.80691 0.41172
 C28 C 0.43436 0.80141 0.41682
 C29 C 0.42873 0.80647 0.42725
 C30 C 0.41800 0.80112 0.43219
 C31 C 0.41223 0.80630 0.44254
 C32 C 0.41740 0.81688 0.44797
 H33 H 0.45732 0.83761 0.42878
 H34 H 0.42877 0.83659 0.45663
 H35 H 0.45829 0.82169 0.41350
 H36 H 0.43030 0.79337 0.41249
 H37 H 0.41415 0.79289 0.42802
 H38 H 0.41290 0.82105 0.45583
 C39 C 0.94231 0.92597 0.82445
 C40 C 0.94749 0.91535 0.81918
 C41 C 0.94219 0.90978 0.80869
 C42 C 0.93152 0.91534 0.80356
 C43 C 0.92625 0.92595 0.80876
 C44 C 0.93163 0.93125 0.81927
 C45 C 0.94762 0.93128 0.83495
 C46 C 0.94236 0.94183 0.84055
 C47 C 0.93165 0.94701 0.83514
 C48 C 0.92628 0.94180 0.82464
 C49 C 0.91558 0.94698 0.81947
 C50 C 0.91007 0.94170 0.80904
 C51 C 0.91551 0.93119 0.80372
 H52 H 0.95596 0.91175 0.82311
 H53 H 0.92684 0.91117 0.79583
 H54 H 0.95551 0.92669 0.83902
 H55 H 0.92760 0.95538 0.83877
 H56 H 0.91154 0.95517 0.82355
 H57 H 0.91122 0.92695 0.79579
 C58 C 0.44563 -0.07054 0.32245
 C59 C 0.45102 -0.08100 0.31709
 C60 C 0.44593 -0.08626 0.30644
 C61 C 0.43543 -0.08079 0.30106
 C62 C 0.42994 -0.07032 0.30632
 C63 C 0.43505 -0.06517 0.31706
 C64 C 0.45056 -0.06547 0.33322
 C65 C 0.44501 -0.05514 0.33876
 C66 C 0.43451 -0.04978 0.33328
 C67 C 0.42948 -0.05473 0.32249
 C68 C 0.41884 -0.04957 0.31719
 C69 C 0.41363 -0.05472 0.30653
 C70 C 0.41931 -0.06505 0.30112
 H71 H 0.45919 -0.08507 0.32122
 H72 H 0.43133 -0.08489 0.29296
 H73 H 0.45874 -0.06957 0.33729
 H74 H 0.43006 -0.04193 0.33759
 H75 H 0.41442 -0.04172 0.32153
 H76 H 0.41544 -0.06899 0.29283
 C77 C 0.82152 0.30635 0.32274
 C78 C 0.81592 0.30113 0.33311
 C79 C 0.80524 0.30646 0.33826
 C80 C 0.80009 0.31703 0.33281
 C81 C 0.80559 0.32235 0.32244
 C82 C 0.81635 0.31700 0.31738
 C83 C 0.83233 0.30118 0.31777
 C84 C 0.83808 0.30654 0.30752
 C85 C 0.83281 0.31712 0.30217
 C86 C 0.82201 0.32239 0.30704
 C87 C 0.81691 0.33309 0.30186
 C88 C 0.80622 0.33852 0.30690
 C89 C 0.80058 0.33303 0.31716
 H90 H 0.82007 0.29309 0.33737
 H91 H 0.79178 0.32112 0.33663
 H92 H 0.83624 0.29295 0.32187
 H93 H 0.83729 0.32142 0.29438
 H94 H 0.82142 0.33735 0.29407
 H95 H 0.79227 0.33708 0.32101
 C96 C -0.19507 0.82202 0.82125
 C97 C -0.20014 0.83264 0.81589
 C98 C -0.19451 0.83829 0.80562
 C99 C -0.18369 0.83277 0.80076
 C100 C -0.17854 0.82215 0.80604
 C101 C -0.18423 0.81675 0.81633
 C102 C -0.20056 0.81673 0.83164
 C103 C -0.19536 0.80624 0.83720
 C104 C -0.18461 0.80096 0.83214
 C105 C -0.17901 0.80615 0.82176
 C106 C -0.16813 0.80105 0.81689
 C107 C -0.16236 0.80641 0.80664
 C108 C -0.16769 0.81692 0.80123
 H109 H -0.20814 0.83678 0.82023
 H110 H -0.17936 0.83643 0.79260
 H111 H -0.20893 0.82076 0.83540
 H112 H -0.18042 0.79298 0.83646
 H113 H -0.16399 0.79306 0.82123
 H114 H -0.16338 0.82103 0.79325
 C115 C 0.93028 0.32056 0.44417
 C116 C 0.93550 0.33113 0.44951
 C117 C 0.94600 0.33696 0.44432
 C118 C 0.95123 0.33167 0.43365
 C119 C 0.94607 0.32112 0.42822
 C120 C 0.93556 0.31554 0.43348
 C121 C 0.91965 0.31509 0.44923
 C122 C 0.91422 0.30467 0.44373
 C123 C 0.91963 0.29965 0.43313
 C124 C 0.93024 0.30502 0.42797
 C125 C 0.93549 0.30014 0.41726
 C126 C 0.94596 0.30568 0.41192
 C127 C 0.95124 0.31612 0.41752
 H128 H 0.93088 0.33509 0.45738
 H129 H 0.95957 0.33546 0.42965
 H130 H 0.91543 0.31914 0.45729
 H131 H 0.91559 0.29153 0.42892
 H132 H 0.93123 0.29221 0.41291
 H133 H 0.95940 0.32036 0.41354
 C134 C 0.42782 0.44296 0.82424
 C135 C 0.43319 0.44799 0.83482
 C136 C 0.44369 0.44250 0.84017
 C137 C 0.44887 0.43193 0.83471
 C138 C 0.44360 0.42680 0.82413
 C139 C 0.43304 0.43232 0.81886
 C140 C 0.41721 0.44830 0.81905
 C141 C 0.41169 0.44314 0.80856
 C142 C 0.41700 0.43258 0.80320
 C143 C 0.42762 0.42714 0.80829
 C144 C 0.43276 0.41647 0.80309
 C145 C 0.44326 0.41087 0.80833
 C146 C 0.44866 0.41615 0.81882
 H147 H 0.42902 0.45602 0.83907
 H148 H 0.45704 0.42772 0.83869
 H149 H 0.41326 0.45651 0.82316
 H150 H 0.41271 0.42843 0.79523
 H151 H 0.42843 0.41236 0.79511
 H152 H 0.45683 0.41198 0.82283
 C153 C 0.82300 0.92804 0.94233
 C154 C 0.81766 0.91757 0.94775
 C155 C 0.80695 0.91195 0.94275
 C156 C 0.80165 0.91732 0.93217
 C157 C 0.80691 0.92777 0.92667
 C158 C 0.81766 0.93312 0.93173
 C159 C 0.83373 0.93338 0.94732
 C160 C 0.83942 0.94376 0.94181
 C161 C 0.83384 0.94874 0.93119
 C162 C 0.82311 0.94349 0.92614
 C163 C 0.81778 0.94846 0.91552
 C164 C 0.80712 0.94313 0.91032
 C165 C 0.80172 0.93280 0.91599
 H166 H 0.82172 0.91414 0.95614
 H167 H 0.79375 0.91309 0.92773
 H168 H 0.83793 0.92894 0.95516
 H169 H 0.83753 0.95698 0.92695
 H170 H 0.82191 0.95652 0.91129
 H171 H 0.79361 0.92852 0.91195
 C172 C 0.32040 0.82111 0.30622
 C173 C 0.31506 0.83165 0.30095
 C174 C 0.30453 0.83737 0.30621
 C175 C 0.29940 0.83201 0.31688
 C176 C 0.30467 0.82149 0.32224
 C177 C 0.31520 0.81602 0.31692
 C178 C 0.33105 0.81576 0.30110
 C179 C 0.33659 0.80537 0.30654
 C180 C 0.33126 0.80027 0.31714
 C181 C 0.32063 0.80553 0.32237
 C182 C 0.31547 0.80058 0.33308
 C183 C 0.30498 0.80601 0.33848
 C184 C 0.29959 0.81642 0.33294
 H185 H 0.31961 0.83567 0.29308
 H186 H 0.29104 0.83571 0.32092
 H187 H 0.33520 0.81985 0.29303
 H188 H 0.33538 0.79217 0.32131
 H189 H 0.31981 0.79267 0.33738
 H190 H 0.29141 0.82057 0.33698
 C191 C 0.82002 0.42933 0.44348
 C192 C 0.81466 0.41874 0.44863
 C193 C 0.80430 0.41311 0.44316
 C194 C 0.79923 0.41829 0.43247
 C195 C 0.80449 0.42886 0.42721
 C196 C 0.81495 0.43438 0.43271
 C197 C 0.83054 0.43475 0.44880
 C198 C 0.83625 0.44523 0.44351
 C199 C 0.83091 0.45022 0.43277
 C200 C 0.82042 0.44487 0.42736
 C201 C 0.81538 0.44981 0.41658
 C202 C 0.80500 0.44433 0.41099
 C203 C 0.79957 0.43388 0.41641
 H204 H 0.81874 0.41469 0.45677
 H205 H 0.79116 0.41410 0.42827
 H206 H 0.83454 0.43031 0.45673
 H207 H 0.83461 0.45854 0.42869
 H208 H 0.81954 0.45795 0.41253
 H209 H 0.79169 0.42948 0.41207
 C210 C 0.94486 0.82235 -0.07300
 C211 C 0.94996 0.83303 -0.06774
 C212 C 0.94461 0.83835 -0.05725
 C213 C 0.93415 0.83276 -0.05194
 C214 C 0.92897 0.82209 -0.05709
 C215 C 0.93435 0.81684 -0.06765
 C216 C 0.95006 0.81720 -0.08360
 C217 C 0.94492 0.80655 -0.08914
 C218 C 0.93442 0.80111 -0.08354
 C219 C 0.92914 0.80617 -0.07293
 C220 C 0.91852 0.80087 -0.06767
 C221 C 0.91304 0.80610 -0.05720
 C222 C 0.91840 0.81667 -0.05191
 H223 H 0.95791 0.83738 -0.07199
 H224 H 0.93004 0.83672 -0.04378
 H225 H 0.95839 0.82138 -0.08723
 H226 H 0.92986 0.79326 -0.08768
 H227 H 0.91435 0.79283 -0.07190
 H228 H 0.91434 0.82067 -0.04375
 C229 C 0.32214 0.32250 0.80728
 C230 C 0.31713 0.33325 0.80213
 C231 C 0.30649 0.33876 0.80718
 C232 C 0.30079 0.33330 0.81741
 C233 C 0.30570 0.32256 0.82267
 C234 C 0.31642 0.31713 0.81761
 C235 C 0.33290 0.31716 0.80241
 C236 C 0.33808 0.30652 0.80773
 C237 C 0.33227 0.30118 0.81797
 C238 C 0.32150 0.30642 0.82295
 C239 C 0.31585 0.30122 0.83330
 C240 C 0.30520 0.30662 0.83845
 C241 C 0.30015 0.31726 0.83301
 H242 H 0.32169 0.33750 0.79436
 H243 H 0.29250 0.33740 0.82127
 H244 H 0.33742 0.32144 0.79464
 H245 H 0.33612 0.29291 0.82205
 H246 H 0.31992 0.29314 0.83753
 H247 H 0.29187 0.32140 0.83684
 C248 C 0.17893 0.55503 0.57148
 C249 C 0.16811 0.54998 0.56640
 C250 C 0.16256 0.55535 0.55604
 C251 C 0.16807 0.56579 0.55068
 C252 C 0.17889 0.57094 0.55565
 C253 C 0.18435 0.56555 0.56609
 C254 C 0.18431 0.54981 0.58195
 C255 C 0.19500 0.55502 0.58721
 C256 C 0.20040 0.56547 0.58174
 C257 C 0.19514 0.57077 0.57124
 C258 C 0.20036 0.58136 0.56595
 C259 C 0.19491 0.58685 0.55560
 C260 C 0.18422 0.58152 0.55047
 H261 H 0.16400 0.54185 0.57052
 H262 H 0.16375 0.57011 0.54281
 H263 H 0.18016 0.54168 0.58603
 H264 H 0.20853 0.56966 0.58584
 H265 H 0.20849 0.58552 0.57008
 H266 H 0.18004 0.58561 0.54240
 C267 C 0.57199 0.69421 0.07293
 C268 C 0.58269 0.69923 0.06761
 C269 C 0.58791 0.69390 0.05706
 C270 C 0.58220 0.68353 0.05176
 C271 C 0.57147 0.67842 0.05697
 C272 C 0.56636 0.68376 0.06761
 C273 C 0.56693 0.69939 0.08359
 C274 C 0.55634 0.69423 0.08907
 C275 C 0.55073 0.68385 0.08366
 C276 C 0.55568 0.67857 0.07300
 C277 C 0.55024 0.66806 0.06777
 C278 C 0.55534 0.66261 0.05722
 C279 C 0.56593 0.66790 0.05184
 H280 H 0.58695 0.70732 0.07167
 H281 H 0.58626 0.67925 0.04373
 H282 H 0.57124 0.70747 0.08762
 H283 H 0.54268 0.67969 0.08793
 H284 H 0.54200 0.66413 0.07189
 H285 H 0.57004 0.66366 0.04382
 C286 C 0.69545 0.17858 0.67762
 C287 C 0.70052 0.18359 0.66688
 C288 C 0.69516 0.19399 0.66132
 C289 C 0.68469 0.19947 0.66672
 C290 C 0.67953 0.19459 0.67746
 C291 C 0.68494 0.18410 0.68294
 C292 C 0.70070 0.16807 0.68302
 C293 C 0.69558 0.16278 0.69373
 C294 C 0.68508 0.16855 0.69899
 C295 C 0.67977 0.17908 0.69368
 C296 C 0.66915 0.18450 0.69880
 C297 C 0.66363 0.19488 0.69334
 C298 C 0.66894 0.19991 0.68270
 H299 H 0.70868 0.17938 0.66285
 H300 H 0.68036 0.20738 0.66239
 H301 H 0.70904 0.16432 0.67897
 H302 H 0.68054 0.16459 0.70689
 H303 H 0.66501 0.18045 0.70690
 H304 H 0.66483 0.20799 0.67850
 C305 C 1.07090 0.05512 0.17766
 C306 C 1.08173 0.05010 0.18273
 C307 C 1.08728 0.05548 0.19310
 C308 C 1.08177 0.06593 0.19846
 C309 C 1.07095 0.07105 0.19348
 C310 C 1.06552 0.06565 0.18302
 C311 C 1.06554 0.04987 0.16717
 C312 C 1.05481 0.05503 0.16174
 C313 C 1.04950 0.06555 0.16735
 C314 C 1.05478 0.07087 0.17784
 C315 C 1.04952 0.08142 0.18316
 C316 C 1.05492 0.08693 0.19353
 C317 C 1.06562 0.08163 0.19867
 H318 H 1.08584 0.04195 0.17863
 H319 H 1.08608 0.07024 0.20634
 H320 H 1.07022 0.04213 0.16296
 H321 H 1.04100 0.06950 0.16386
 H322 H 1.04119 0.08537 0.17923
 H323 H 1.06996 0.08592 0.20655
 C324 C 0.05443 0.17922 1.07161
 C325 C 0.04913 0.16873 1.06619
 C326 C 0.05452 0.16312 1.05577
 C327 C 0.06534 0.16856 1.05080
 C328 C 0.07070 0.17907 1.05613
 C329 C 0.06526 0.18441 1.06659
 C330 C 0.04909 0.18452 1.08208
 C331 C 0.05451 0.19489 1.08769
 C332 C 0.06529 0.20005 1.08258
 C333 C 0.07071 0.19486 1.07210
 C334 C 0.08161 0.19985 1.06717
 C335 C 0.08719 0.19451 1.05680
 C336 C 0.08163 0.18416 1.05131
 H337 H 0.04056 0.16524 1.07000
 H338 H 0.07008 0.16435 1.04314
 H339 H 0.04070 0.18058 1.08588
 H340 H 0.06965 0.20792 1.08695
 H341 H 0.08575 0.20792 1.07138
 H342 H 0.08596 0.17988 1.04342
 C343 C 0.18089 0.68010 0.69492
 C344 C 0.17018 0.68520 0.70013
 C345 C 0.16450 0.69563 0.69490
 C346 C 0.16979 0.70103 0.68441
 C347 C 0.18051 0.69603 0.67910
 C348 C 0.18607 0.68551 0.68435
 C349 C 0.18637 0.66953 0.69998
 C350 C 0.19694 0.66423 0.69458
 C351 C 0.20211 0.66974 0.68411
 C352 C 0.19672 0.68030 0.67894
 C353 C 0.20172 0.68561 0.66833
 C354 C 0.19616 0.69602 0.66296
 C355 C 0.18560 0.70123 0.66846
 H356 H 0.16625 0.68107 0.70829
 H357 H 0.16537 0.70895 0.68021
 H358 H 0.18221 0.66524 0.70795
 H359 H 0.21033 0.66579 0.67996
 H360 H 0.20995 0.68163 0.66423
 H361 H 0.18115 0.70914 0.66428
 C362 C 1.19465 0.17749 0.17666
 C363 C 1.19976 0.16679 0.18182
 C364 C 1.19459 0.16133 0.19242
 C365 C 1.18416 0.16711 0.19780
 C366 C 1.17898 0.17782 0.19273
 C367 C 1.18422 0.18302 0.18212
 C368 C 1.19979 0.18269 0.16605
 C369 C 1.19457 0.19330 0.16074
 C370 C 1.18417 0.19879 0.16627
 C371 C 1.17895 0.19371 0.17689
 C372 C 1.16844 0.19905 0.18226
 C373 C 1.16306 0.19384 0.19278
 C374 C 1.16843 0.18326 0.19799
 H375 H 1.20805 0.16303 0.17768
 H376 H 1.17957 0.16302 0.20562
 H377 H 1.20789 0.17848 0.16192
 H378 H 1.17996 0.20685 0.16214
 H379 H 1.16445 0.20729 0.17826
 H380 H 1.16424 0.17908 0.20600
 C381 C 0.68000 1.07178 0.55604
 C382 C 0.66937 1.06659 0.55072
 C383 C 0.66379 1.05605 0.55582
 C384 C 0.66906 1.05064 0.56630
 C385 C 0.67968 1.05573 0.57172
 C386 C 0.68514 1.06638 0.56660
 C387 C 0.68538 1.08245 0.55107
 C388 C 0.69590 1.08801 0.55653
 C389 C 0.70097 1.08235 0.56707
 C390 C 0.69567 1.07169 0.57212
 C391 C 0.70070 1.06631 0.58270
 C392 C 0.69526 1.05576 0.58793
 C393 C 0.68478 1.05049 0.58233
 H394 H 0.66545 1.07073 0.54256
 H395 H 0.66473 1.04262 0.57040
 H396 H 0.68087 1.08669 0.54329
 H397 H 0.70932 1.08594 0.57126
 H398 H 0.70886 1.07035 0.58687
 H399 H 0.68042 1.04247 0.58640
 C400 C 0.55430 0.57171 0.17862
 C401 C 0.54899 0.56640 0.16815
 C402 C 0.55416 0.55574 0.16285
 C403 C 0.56466 0.55033 0.16826
 C404 C 0.57007 0.55553 0.17875
 C405 C 0.56489 0.56628 0.18394
 C406 C 0.54930 0.58249 0.18374
 C407 C 0.55479 0.58799 0.19408
 C408 C 0.56529 0.58246 0.19937
 C409 C 0.57040 0.57169 0.19435
 C410 C 0.58103 0.56635 0.19949
 C411 C 0.58632 0.55570 0.19430
 C412 C 0.58073 0.55031 0.18397
 H413 H 0.54082 0.57055 0.16412
 H414 H 0.56882 0.54223 0.16414
 H415 H 0.54131 0.58679 0.17949
 H416 H 0.56950 0.58656 0.20742
 H417 H 0.58519 0.57048 0.20754
 H418 H 0.58485 0.54221 0.17980
 C419 C 0.67762 0.69340 0.17550
 C420 C 0.66689 0.69849 0.18070
 C421 C 0.66158 0.69329 0.19126
 C422 C 0.66722 0.68294 0.19668
 C423 C 0.67795 0.67775 0.19159
 C424 C 0.68317 0.68297 0.18094
 C425 C 0.68279 0.69847 0.16484
 C426 C 0.69342 0.69323 0.15949
 C427 C 0.69893 0.68287 0.16502
 C428 C 0.69386 0.67770 0.17567
 C429 C 0.69925 0.66725 0.18105
 C430 C 0.69405 0.66192 0.19161
 C431 C 0.68343 0.66728 0.19685
 H432 H 0.66269 0.70656 0.17654
 H433 H 0.66309 0.67876 0.20471
 H434 H 0.67838 0.70634 0.16055
 H435 H 0.70720 0.67885 0.16104
 H436 H 0.70751 0.66327 0.17703
 H437 H 0.67925 0.66313 0.20488
 C438 C 0.17946 0.05624 1.07301
 C439 C 0.16902 0.05083 1.06753
 C440 C 0.16358 0.05591 1.05688
 C441 C 0.16911 0.06656 1.05176
 C442 C 0.17955 0.07206 1.05716
 C443 C 0.18471 0.06691 1.06784
 C444 C 0.18461 0.05118 1.08369
 C445 C 0.19494 0.05669 1.08951
 C446 C 0.20010 0.06739 1.08411
 C447 C 0.19505 0.07250 1.07343
 C448 C 0.20018 0.08321 1.06828
 C449 C 0.19502 0.08849 1.05769
 C450 C 0.18473 0.08281 1.05215
 H451 H 0.16545 0.04238 1.07147
 H452 H 0.16503 0.07107 1.04390
 H453 H 0.18003 0.04329 1.08774
 H454 H 0.20833 0.07163 1.08791
 H455 H 0.20821 0.08745 1.07253
 H456 H 0.18058 0.08692 1.04409
 C457 C 0.57099 0.17917 0.55619
 C458 C 0.58186 0.18413 0.55115
 C459 C 0.58750 0.19459 0.55638
 C460 C 0.58203 0.20016 0.56668
 C461 C 0.57118 0.19529 0.57184
 C462 C 0.56563 0.18476 0.56659
 C463 C 0.56554 0.16857 0.55115
 C464 C 0.55480 0.16343 0.55639
 C465 C 0.54947 0.16912 0.56670
 C466 C 0.55482 0.17971 0.57184
 C467 C 0.54964 0.18522 0.58228
 C468 C 0.55517 0.19568 0.58762
 C469 C 0.56590 0.20070 0.58227
 H470 H 0.58611 0.17967 0.54331
 H471 H 0.58623 0.20830 0.57068
 H472 H 0.56982 0.16414 0.54332
 H473 H 0.54112 0.16529 0.57071
 H474 H 0.54148 0.18117 0.58645
 H475 H 0.57014 0.20884 0.58625
 C476 C 0.07027 0.55457 0.67803
 C477 C 0.08087 0.54914 0.68315
 C478 C 0.08636 0.55410 0.69375
 C479 C 0.08102 0.56454 0.69930
 C480 C 0.07043 0.57008 0.69428
 C481 C 0.06503 0.56510 0.68360
 C482 C 0.06495 0.54977 0.66733
 C483 C 0.05449 0.55539 0.66203
 C484 C 0.04928 0.56584 0.66768
 C485 C 0.05449 0.57074 0.67840
 C486 C 0.04944 0.58131 0.68389
 C487 C 0.05483 0.58639 0.69448
 C488 C 0.06529 0.58066 0.69965
 H489 H 0.08485 0.54102 0.67889
 H490 H 0.08530 0.56854 0.70735
 H491 H 0.06914 0.54183 0.66293
 H492 H 0.04115 0.57015 0.66374
 H493 H 0.04150 0.58577 0.67973
 H494 H 0.06942 0.58444 0.70789
 C495 C 0.67954 0.57137 0.05569
 C496 C 0.66891 0.56594 0.05062
 C497 C 0.66376 0.55521 0.05580
 C498 C 0.66948 0.54987 0.06609
 C499 C 0.68011 0.55521 0.07127
 C500 C 0.68515 0.56601 0.06607
 C501 C 0.68449 0.58223 0.05070
 C502 C 0.69497 0.58785 0.05596
 C503 C 0.70057 0.58238 0.06625
 C504 C 0.69571 0.57155 0.07136
 C505 C 0.70114 0.56626 0.08177
 C506 C 0.69612 0.55553 0.08705
 C507 C 0.68564 0.55002 0.08168
 H508 H 0.66446 0.57022 0.04281
 H509 H 0.66566 0.54153 0.07006
 H510 H 0.68001 0.58648 0.04288
 H511 H 0.70873 0.58657 0.07028
 H512 H 0.70930 0.57049 0.08577
 H513 H 0.68159 0.54187 0.08581
 C514 C 0.05458 0.67897 0.57223
 C515 C 0.04940 0.68442 0.58270
 C516 C 0.05466 0.69513 0.58782
 C517 C 0.06512 0.70045 0.58222
 C518 C 0.07040 0.69509 0.57176
 C519 C 0.06512 0.68431 0.56673
 C520 C 0.04950 0.66814 0.56729
 C521 C 0.05483 0.66253 0.55694
 C522 C 0.06530 0.66796 0.55147
 C523 C 0.07048 0.67879 0.55630
 C524 C 0.08109 0.68405 0.55101
 C525 C 0.08646 0.69475 0.55603
 C526 C 0.08098 0.70026 0.56636
 H527 H 0.04146 0.68015 0.58706
 H528 H 0.06915 0.70877 0.58602
 H529 H 0.04135 0.66409 0.57149
 H530 H 0.06959 0.66359 0.54361
 H531 H 0.08536 0.67964 0.54316
 H532 H 0.08497 0.70859 0.57020
 C533 C 0.55220 1.06914 0.67995
 C534 C 0.54701 1.06383 0.66941
 C535 C 0.55226 1.05321 0.66393
 C536 C 0.56281 1.04792 0.66956
 C537 C 0.56809 1.05315 0.68010
 C538 C 0.56278 1.06380 0.68532
 C539 C 0.54703 1.07982 0.68511
 C540 C 0.55239 1.08533 0.69550
 C541 C 0.56292 1.07991 0.70084
 C542 C 0.56816 1.06920 0.69581
 C543 C 0.57884 1.06397 0.70096
 C544 C 0.58428 1.05342 0.69573
 C545 C 0.57879 1.04803 0.68535
 H546 H 0.53862 1.06789 0.66577
 H547 H 0.56746 1.04010 0.66546
 H548 H 0.53884 1.08387 0.68102
 H549 H 0.56723 1.08420 0.70873
 H550 H 0.58311 1.06831 0.70885
 H551 H 0.58284 1.03981 0.68135
 C552 C 0.42884 0.32203 0.94295
 C553 C 0.43390 0.33274 0.94817
 C554 C 0.44434 0.33863 0.94295
 C555 C 0.44967 0.33329 0.93236
 C556 C 0.44468 0.32261 0.92704
 C557 C 0.43422 0.31695 0.93234
 C558 C 0.41828 0.31648 0.94804
 C559 C 0.41302 0.30590 0.94267
 C560 C 0.41854 0.30082 0.93216
 C561 C 0.42908 0.30628 0.92695
 C562 C 0.43444 0.30133 0.91633
 C563 C 0.44486 0.30693 0.91096
 C564 C 0.44996 0.31753 0.91643
 H565 H 0.42920 0.33672 0.95598
 H566 H 0.45798 0.33715 0.92834
 H567 H 0.41397 0.32056 0.95605
 H568 H 0.41464 0.29258 0.92804
 H569 H 0.43032 0.29327 0.91208
 H570 H 0.45807 0.32183 0.91242
 C571 C 0.92830 0.44364 0.32324
 C572 C 0.93388 0.44891 0.33361
 C573 C 0.94454 0.44360 0.33901
 C574 C 0.94956 0.43288 0.33351
 C575 C 0.94406 0.42753 0.32315
 C576 C 0.93340 0.43291 0.31799
 C577 C 0.91755 0.44884 0.31818
 C578 C 0.91180 0.44346 0.30793
 C579 C 0.91702 0.43281 0.30267
 C580 C 0.92776 0.42750 0.30763
 C581 C 0.93283 0.41675 0.30252
 C582 C 0.94346 0.41129 0.30764
 C583 C 0.94905 0.41680 0.31791
 H584 H 0.92941 0.45681 0.33775
 H585 H 0.95800 0.42879 0.33698
 H586 H 0.91367 0.45713 0.32220
 H587 H 0.91256 0.42849 0.29487
 H588 H 0.92834 0.41247 0.29472
 H589 H 0.95733 0.41273 0.32182
 C590 C 0.32185 0.94389 0.42746
 C591 C 0.31640 0.94928 0.41710
 C592 C 0.30576 0.94407 0.41173
 C593 C 0.30050 0.93344 0.41697
 C594 C 0.30583 0.92797 0.42735
 C595 C 0.31655 0.93322 0.43262
 C596 C 0.33259 0.94898 0.43265
 C597 C 0.33833 0.94356 0.44298
 C598 C 0.33278 0.93290 0.44808
 C599 C 0.32202 0.92773 0.44298
 C600 C 0.31681 0.91697 0.44794
 C601 C 0.30619 0.91162 0.44269
 C602 C 0.30072 0.91723 0.43242
 H603 H 0.32043 0.95755 0.41320
 H604 H 0.29241 0.92925 0.41279
 H605 H 0.33616 0.95744 0.42876
 H606 H 0.33707 0.92814 0.45568
 H607 H 0.32118 0.91260 0.45575
 H608 H 0.29245 0.91326 0.42839
 O609 O 0.23491 0.50105 0.71641
 O610 O 0.23657 0.48001 0.72030
 O611 O 0.21739 0.51579 0.74832
 O612 O 0.22080 0.51633 0.76850
 O613 O 0.25006 0.53328 0.73361
 O614 O 0.27162 0.52879 0.73469
 O615 O 0.25073 0.48408 0.78116
 O616 O 0.22968 0.48642 0.77746
 O617 O 0.26663 0.46819 0.75037
 O618 O 0.26610 0.47243 0.72830
 O619 O 0.28265 0.49951 0.76550
 O620 O 0.27837 0.52156 0.76489
 O621 O 0.26561 0.49896 0.78143
 O622 O 0.26432 0.52188 0.77702
 O623 O 0.28303 0.48478 0.75072
 O624 O 0.27871 0.48617 0.72809
 O625 O 0.25175 0.46818 0.76507
 O626 O 0.22934 0.47202 0.76067
 O627 O 0.25000 0.51574 0.71652
 O628 O 0.27194 0.51482 0.72140
 O629 O 0.23494 0.53329 0.74809
 O630 O 0.23658 0.52823 0.77024
 O631 O 0.21770 0.50125 0.73331
 O632 O 0.22266 0.47904 0.73602
 Zr633 Zr 0.23564 0.49364 0.73418
 O634 O 0.24663 0.48182 0.74495
 Zr635 Zr 0.23541 0.51542 0.75565
 O636 O 0.24601 0.50432 0.76750
 Zr637 Zr 0.25743 0.51534 0.73439
 O638 O 0.26922 0.50459 0.74547
 Zr639 Zr 0.24326 0.48557 0.76349
 O640 O 0.23129 0.49663 0.75276
 Zr641 Zr 0.26548 0.48582 0.74241
 O642 O 0.25457 0.49659 0.73039
 Zr643 Zr 0.26490 0.50738 0.76404
 O644 O 0.25430 0.51948 0.75298
 O645 O 0.23866 0.51234 0.73719
 O646 O 0.26214 0.48866 0.76094
 C647 C 0.24132 0.50958 0.71120
 C648 C 0.21222 0.50968 0.73960
 C649 C 0.24135 0.53860 0.73967
 C650 C 0.25954 0.49005 0.78643
 C651 C 0.26068 0.46305 0.75919
 C652 C 0.28801 0.49073 0.75963
 H653 H 0.24467 0.47313 0.74297
 H654 H 0.27795 0.50669 0.74365
 H655 H 0.23341 0.51761 0.73191
 H656 H 0.24377 0.50613 0.77609
 H657 H 0.22186 0.48902 0.77347
 H658 H 0.22246 0.50992 0.77471
 H659 H 0.28442 0.49314 0.72964
 H660 H 0.27135 0.50674 0.71721
 H661 H 0.22965 0.46617 0.76764
 H662 H 0.21634 0.47979 0.72946
 H663 H 0.28326 0.52122 0.75723
 H664 H 0.27139 0.53258 0.74294
 H665 H 0.24513 0.48018 0.71704
 H666 H 0.25848 0.46739 0.72888
 H667 H 0.24419 0.53315 0.76891
 H668 H 0.25739 0.52021 0.78272
 O669 O 0.26616 -0.03278 0.25130
 O670 O 0.26481 -0.02887 0.23041
 O671 O 0.28291 -0.00032 0.26624
 O672 O 0.27916 0.01996 0.26669
 O673 O 0.25027 -0.01574 0.28303
 O674 O 0.22875 -0.01494 0.27826
 O675 O 0.24958 0.03220 0.23419
 O676 O 0.27064 0.02881 0.23685
 O677 O 0.23442 0.00091 0.21819
 O678 O 0.23523 -0.02130 0.22240
 O679 O 0.21765 0.01588 0.24901
 O680 O 0.22156 0.01541 0.27089
 O681 O 0.23444 0.03224 0.24869
 O682 O 0.23548 0.02781 0.27149
 O683 O 0.21774 0.00098 0.23439
 O684 O 0.22245 -0.02175 0.23585
 O685 O 0.24906 0.01597 0.21840
 O686 O 0.27147 0.01190 0.22258
 O687 O 0.25081 -0.03291 0.26561
 O688 O 0.22881 -0.02833 0.26439
 O689 O 0.26511 -0.00086 0.28328
 O690 O 0.26316 0.02145 0.27823
 O691 O 0.28310 -0.01547 0.25183
 O692 O 0.27847 -0.01279 0.22969
 Zr693 Zr 0.26527 -0.01488 0.24395
 O694 O 0.25429 -0.00422 0.23204
 Zr695 Zr 0.26478 0.00676 0.26554
 O696 O 0.25418 0.01853 0.25434
 Zr697 Zr 0.24312 -0.01502 0.26512
 O698 O 0.23133 -0.00406 0.25426
 Zr699 Zr 0.25729 0.01452 0.23580
 O700 O 0.26927 0.00392 0.24697
 Zr701 Zr 0.23542 -0.00709 0.23570
 O702 O 0.24636 -0.01901 0.24657
 Zr703 Zr 0.23530 0.01473 0.25708
 O704 O 0.24589 0.00376 0.26927
 O705 O 0.26189 -0.01189 0.26245
 O706 O 0.23841 0.01165 0.23855
 C707 C 0.25968 -0.03814 0.25964
 C708 C 0.28832 -0.00904 0.26029
 C709 C 0.25880 -0.00949 0.28843
 C710 C 0.24059 0.03737 0.23996
 C711 C 0.24031 0.00989 0.21317
 C712 C 0.21251 0.00986 0.24023
 H713 H 0.25643 -0.00619 0.22345
 H714 H 0.22261 -0.00604 0.25620
 H715 H 0.26714 -0.01713 0.26776
 H716 H 0.25625 0.02722 0.25617
 H717 H 0.27848 0.02492 0.23955
 H718 H 0.27751 0.02619 0.26028
 H719 H 0.21659 -0.02028 0.24265
 H720 H 0.22960 -0.03255 0.25639
 H721 H 0.27114 0.01891 0.21676
 H722 H 0.28489 -0.01929 0.23055
 H723 H 0.21692 0.00754 0.27060
 H724 H 0.22882 -0.00664 0.28206
 H725 H 0.25630 -0.03229 0.23041
 H726 H 0.24293 -0.02060 0.21753
 H727 H 0.25551 0.01995 0.28301
 H728 H 0.24229 0.03370 0.26990
 O729 O 0.48432 0.78373 0.25098
 O730 O 0.48570 0.77981 0.23008
 O731 O 0.46721 0.75141 0.26580
 O732 O 0.47079 0.73110 0.26629
 O733 O 0.49995 0.76654 0.28273
 O734 O 0.52148 0.76552 0.27804
 O735 O 0.50028 0.71858 0.23386
 O736 O 0.47926 0.72219 0.23643
 O737 O 0.51580 0.74974 0.21791
 O738 O 0.51519 0.77197 0.22217
 O739 O 0.53235 0.73457 0.24872
 O740 O 0.52843 0.73512 0.27061
 O741 O 0.51537 0.71839 0.24841
 O742 O 0.51437 0.72289 0.27121
 O743 O 0.53243 0.74948 0.23414
 O744 O 0.52798 0.77226 0.23563
 O745 O 0.50104 0.73480 0.21807
 O746 O 0.47865 0.73910 0.22218
 O747 O 0.49963 0.78372 0.26533
 O748 O 0.52159 0.77892 0.26418
 O749 O 0.48495 0.75182 0.28292
 O750 O 0.48673 0.72948 0.27786
 O751 O 0.46721 0.76658 0.25143
 O752 O 0.47187 0.76386 0.22930
 Zr753 Zr 0.48505 0.76582 0.24361
 O754 O 0.49596 0.75505 0.23171
 Zr755 Zr 0.48528 0.74418 0.26518
 O756 O 0.49579 0.73231 0.25400
 Zr757 Zr 0.50714 0.76575 0.26485
 O758 O 0.51886 0.75468 0.25400
 Zr759 Zr 0.49276 0.73634 0.23544
 O760 O 0.48087 0.74706 0.24660
 Zr761 Zr 0.51484 0.75774 0.23544
 O762 O 0.50399 0.76977 0.24629
 Zr763 Zr 0.51471 0.73593 0.25679
 O764 O 0.50419 0.74700 0.26897
 O765 O 0.48835 0.76280 0.26211
 O766 O 0.51167 0.73903 0.23825
 C767 C 0.49083 0.78902 0.25935
 C768 C 0.46190 0.76018 0.25984
 C769 C 0.49133 0.76039 0.28810
 C770 C 0.50919 0.71331 0.23967
 C771 C 0.50985 0.74080 0.21287
 C772 C 0.53755 0.74053 0.23995
 H773 H 0.49386 0.75704 0.22312
 H774 H 0.52760 0.75657 0.25596
 H775 H 0.48313 0.76809 0.26741
 H776 H 0.49363 0.72364 0.25582
 H777 H 0.47146 0.72617 0.23912
 H778 H 0.47237 0.72489 0.25985
 H779 H 0.53381 0.77072 0.24245
 H780 H 0.52087 0.78313 0.25617
 H781 H 0.47893 0.73208 0.21635
 H782 H 0.46553 0.77043 0.23015
 H783 H 0.53314 0.74295 0.27033
 H784 H 0.52132 0.75722 0.28181
 H785 H 0.49423 0.78315 0.23014
 H786 H 0.50752 0.77133 0.21727
 H787 H 0.49436 0.73093 0.28268
 H788 H 0.50749 0.71707 0.26961
 O789 O 0.00083 0.71678 0.73425
 O790 O -0.02029 0.72063 0.73613
 O791 O 0.01540 0.74927 0.71733
 O792 O 0.01587 0.76956 0.72104
 O793 O 0.03332 0.73396 0.74914
 O794 O 0.02904 0.73471 0.77051
 O795 O -0.01628 0.78170 0.75115
 O796 O -0.01410 0.77835 0.73027
 O797 O -0.03196 0.75037 0.76646
 O798 O -0.02761 0.72815 0.76552
 O799 O -0.00038 0.76545 0.78224
 O800 O 0.02170 0.76500 0.77779
 O801 O -0.00119 0.78179 0.76570
 O802 O 0.02186 0.77745 0.76410
 O803 O -0.01514 0.75052 0.78251
 O804 O -0.01370 0.72779 0.77784
 O805 O -0.03217 0.76542 0.75200
 O806 O -0.02850 0.76138 0.72976
 O807 O 0.01573 0.71670 0.74902
 O808 O 0.01506 0.72127 0.77077
 O809 O 0.03313 0.74882 0.73448
 O810 O 0.02798 0.77110 0.73654
 O811 O 0.00086 0.73408 0.71753
 O812 O -0.02142 0.73670 0.72267
 Zr813 Zr -0.00664 0.73466 0.73533
 O814 O -0.01844 0.74529 0.74649
 Zr815 Zr 0.01516 0.75637 0.73526
 O816 O 0.00407 0.76810 0.74604
 Zr817 Zr 0.01537 0.73459 0.75664
 O818 O 0.00465 0.74551 0.76859
 Zr819 Zr -0.01477 0.76404 0.74344
 O820 O -0.00375 0.75346 0.73132
 Zr821 Zr -0.01422 0.74243 0.76502
 O822 O -0.00348 0.73054 0.75393
 Zr823 Zr 0.00734 0.76431 0.76461
 O824 O 0.01944 0.75338 0.75382
 O825 O 0.01217 0.73770 0.73818
 O826 O -0.01148 0.76117 0.76201
 C827 C 0.00946 0.71145 0.74043
 C828 C 0.00926 0.74053 0.71215
 C829 C 0.03855 0.74023 0.74059
 C830 C -0.01022 0.78688 0.75989
 C831 C -0.03722 0.75932 0.76077
 C832 C -0.00913 0.75943 0.78753
 H833 H -0.02718 0.74329 0.74460
 H834 H 0.00685 0.74355 0.77715
 H835 H 0.01742 0.73248 0.73286
 H836 H 0.00583 0.77680 0.74396
 H837 H -0.01155 0.77448 0.72245
 H838 H 0.00945 0.77579 0.72287
 H839 H -0.00666 0.72929 0.78345
 H840 H 0.00694 0.71705 0.77022
 H841 H -0.03440 0.76838 0.73024
 H842 H -0.02070 0.73019 0.71631
 H843 H 0.02148 0.75718 0.78245
 H844 H 0.03283 0.74303 0.77037
 H845 H -0.02003 0.71721 0.74453
 H846 H -0.03277 0.72886 0.75807
 H847 H 0.03301 0.76964 0.74398
 H848 H 0.02006 0.78332 0.75740
 O849 O 0.03418 0.01634 0.00044
 O850 O 0.03039 0.01476 -0.02047
 O851 O 0.00146 0.03310 0.01497
 O852 O -0.01891 0.02932 0.01533
 O853 O 0.01686 0.00078 0.03220
 O854 O 0.01614 -0.02068 0.02760
 O855 O -0.03098 -0.00046 -0.01694
 O856 O -0.02759 0.02055 -0.01448
 O857 O 0.00054 -0.01569 -0.03260
 O858 O 0.02286 -0.01472 -0.02828
 O859 O -0.01462 -0.03207 -0.00177
 O860 O -0.01425 -0.02795 0.02012
 O861 O -0.03107 -0.01539 -0.00232
 O862 O -0.02677 -0.01417 0.02047
 O863 O 0.00047 -0.03209 -0.01626
 O864 O 0.02327 -0.02733 -0.01472
 O865 O -0.01462 -0.00115 -0.03261
 O866 O -0.01054 0.02122 -0.02867
 O867 O 0.03423 0.00121 0.01490
 O868 O 0.02969 -0.02070 0.01384
 O869 O 0.00191 0.01554 0.03221
 O870 O -0.02046 0.01352 0.02701
 O871 O 0.01677 0.03317 0.00068
 O872 O 0.01422 0.02834 -0.02143
 Zr873 Zr 0.01625 0.01535 -0.00704
 O874 O 0.00562 0.00428 -0.01892
 Zr875 Zr -0.00563 0.01503 0.01441
 O876 O -0.01736 0.00433 0.00324
 Zr877 Zr 0.01628 -0.00649 0.01434
 O878 O 0.00537 -0.01836 0.00351
 Zr879 Zr -0.01323 0.00726 -0.01531
 O880 O -0.00266 0.01931 -0.00418
 Zr881 Zr 0.00851 -0.01446 -0.01506
 O882 O 0.02041 -0.00344 -0.00421
 Zr883 Zr -0.01353 -0.01443 0.00617
 O884 O -0.00261 -0.00374 0.01834
 O885 O 0.01313 0.01216 0.01148
 O886 O -0.01033 -0.01150 -0.01237
 C887 C 0.03951 0.00999 0.00889
 C888 C 0.01024 0.03844 0.00903
 C889 C 0.01054 0.00931 0.03748
 C890 C -0.03619 -0.00936 -0.01113
 C891 C -0.00850 -0.00993 -0.03772
 C892 C -0.00850 -0.03726 -0.01045
 H893 H 0.00764 0.00632 -0.02752
 H894 H 0.00735 -0.02702 0.00554
 H895 H 0.01835 0.01745 0.01678
 H896 H -0.02611 0.00640 0.00499
 H897 H -0.02369 0.02838 -0.01184
 H898 H -0.02512 0.02760 0.00890
 H899 H 0.02178 -0.03308 -0.00785
 H900 H 0.03398 -0.01999 0.00586
 H901 H -0.01755 0.02081 -0.03453
 H902 H 0.02075 0.03473 -0.02059
 H903 H -0.00638 -0.03262 0.01986
 H904 H 0.00777 -0.02060 0.03133
 H905 H 0.03382 0.00630 -0.02036
 H906 H 0.02212 -0.00714 -0.03326
 H907 H -0.01899 0.00594 0.03186
 H908 H -0.03266 -0.00738 0.01882
 O909 O -0.03372 0.49936 0.48415
 O910 O -0.02980 0.52041 0.48578
 O911 O -0.00105 0.48458 0.46753
 O912 O 0.01932 0.48416 0.47131
 O913 O -0.01660 0.46719 0.49948
 O914 O -0.01592 0.47173 0.52080
 O915 O 0.03149 0.51647 0.50102
 O916 O 0.02815 0.51411 0.48018
 O917 O -0.00003 0.53237 0.51610
 O918 O -0.02235 0.52808 0.51511
 O919 O 0.01497 0.50113 0.53230
 O920 O 0.01450 0.47912 0.52814
 O921 O 0.03147 0.50165 0.51576
 O922 O 0.02702 0.47871 0.51448
 O923 O -0.00004 0.51582 0.53235
 O924 O -0.02283 0.51439 0.52757
 O925 O 0.01517 0.53237 0.50172
 O926 O 0.01116 0.52848 0.47951
 O927 O -0.03389 0.48471 0.49909
 O928 O -0.02940 0.48567 0.52085
 O929 O -0.00159 0.46717 0.48489
 O930 O 0.02078 0.47230 0.48695
 O931 O -0.01628 0.49907 0.46748
 O932 O -0.01360 0.52132 0.47235
 Zr933 Zr -0.01575 0.50679 0.48519
 O934 O -0.00509 0.51866 0.49625
 Zr935 Zr 0.00601 0.48507 0.48548
 O936 O 0.01777 0.49623 0.49617
 Zr937 Zr -0.01595 0.48515 0.50677
 O938 O -0.00501 0.49597 0.51862
 Zr939 Zr 0.01375 0.51495 0.49333
 O940 O 0.00316 0.50383 0.48129
 Zr941 Zr -0.00805 0.51472 0.51483
 O942 O -0.01997 0.50389 0.50382
 Zr943 Zr 0.01388 0.49322 0.51476
 O944 O 0.00292 0.48105 0.50408
 O945 O -0.01274 0.48810 0.48829
 O946 O 0.01079 0.51193 0.51193
 C947 C -0.03911 0.49084 0.49040
 C948 C -0.00980 0.49062 0.46224
 C949 C -0.01027 0.46187 0.49102
 C950 C 0.03667 0.51051 0.50982
 C951 C 0.00902 0.53752 0.51040
 C952 C 0.00888 0.50989 0.53747
 H953 H -0.00706 0.52734 0.49425
 H954 H -0.00703 0.49389 0.52720
 H955 H -0.01797 0.48281 0.48301
 H956 H 0.02652 0.49442 0.49413
 H957 H 0.02427 0.51148 0.47239
 H958 H 0.02557 0.49059 0.47307
 H959 H -0.02139 0.50743 0.53325
 H960 H -0.03364 0.49374 0.52016
 H961 H 0.01820 0.53434 0.47995
 H962 H -0.02011 0.52053 0.46598
 H963 H 0.00660 0.47937 0.53272
 H964 H -0.00757 0.46793 0.52073
 H965 H -0.03328 0.52027 0.49416
 H966 H -0.02160 0.53311 0.50760
 H967 H 0.01928 0.46738 0.49444
 H968 H 0.03293 0.48037 0.50776
 O969 O 0.50072 0.03291 0.51678
 O970 O 0.47961 0.02892 0.51509
 O971 O 0.51568 0.00040 0.53333
 O972 O 0.51634 -0.01984 0.52945
 O973 O 0.53313 0.01612 0.50141
 O974 O 0.52861 0.01543 0.48008
 O975 O 0.48393 -0.03206 0.49970
 O976 O 0.48630 -0.02879 0.52056
 O977 O 0.46779 -0.00079 0.48472
 O978 O 0.47195 0.02148 0.48577
 O979 O 0.49928 -0.01546 0.46848
 O980 O 0.52139 -0.01487 0.47267
 O981 O 0.49881 -0.03193 0.48495
 O982 O 0.52184 -0.02738 0.48629
 O983 O 0.48442 -0.00063 0.46848
 O984 O 0.48570 0.02206 0.47329
 O985 O 0.46787 -0.01593 0.49908
 O986 O 0.47176 -0.01196 0.52130
 O987 O 0.51542 0.03321 0.50183
 O988 O 0.51452 0.02877 0.48006
 O989 O 0.53323 0.00118 0.51600
 O990 O 0.52826 -0.02114 0.51381
 O991 O 0.50103 0.01546 0.53339
 O992 O 0.47871 0.01276 0.52846
 Zr993 Zr 0.49335 0.01498 0.51566
 O994 O 0.48150 0.00431 0.50458
 Zr995 Zr 0.51532 -0.00654 0.51534
 O996 O 0.50419 -0.01830 0.50462
 Zr997 Zr 0.51511 0.01536 0.49410
 O998 O 0.50432 0.00443 0.48222
 Zr999 Zr 0.48536 -0.01442 0.50746
 O1000 O 0.49644 -0.00382 0.51952
 Zr1001 Zr 0.48546 0.00732 0.48602
 O1002 O 0.49626 0.01924 0.49705
 Zr1003 Zr 0.50720 -0.01437 0.48603
 O1004 O 0.51935 -0.00341 0.49675
 O1005 O 0.51215 0.01211 0.51258
 O1006 O 0.48839 -0.01142 0.48887
 C1007 C 0.50924 0.03835 0.51053
 C1008 C 0.50951 0.00902 0.53864
 C1009 C 0.53850 0.00986 0.50988
 C1010 C 0.48992 -0.03715 0.49087
 C1011 C 0.46267 -0.00984 0.49040
 C1012 C 0.49044 -0.00944 0.46333
 H1013 H 0.47277 0.00621 0.50658
 H1014 H 0.50640 0.00647 0.47364
 H1015 H 0.51741 0.01734 0.51789
 H1016 H 0.50606 -0.02700 0.50663
 H1017 H 0.48891 -0.02492 0.52837
 H1018 H 0.50991 -0.02609 0.52768
 H1019 H 0.49272 0.02069 0.46763
 H1020 H 0.50638 0.03293 0.48074
 H1021 H 0.46591 -0.01901 0.52084
 H1022 H 0.47946 0.01923 0.53485
 H1023 H 0.52109 -0.00700 0.46810
 H1024 H 0.53248 0.00715 0.48015
 H1025 H 0.47973 0.03238 0.50671
 H1026 H 0.46688 0.02067 0.49327
 H1027 H 0.53320 -0.01957 0.50633
 H1028 H 0.52019 -0.03329 0.49299
 O1029 O 0.50034 0.53286 0.01671
 O1030 O 0.47923 0.52886 0.01494
 O1031 O 0.51523 0.50050 0.03355
 O1032 O 0.51578 0.48021 0.02986
 O1033 O 0.53283 0.51591 0.00162
 O1034 O 0.52842 0.51512 -0.01972
 O1035 O 0.48357 0.46780 -0.00005
 O1036 O 0.48581 0.47121 0.02081
 O1037 O 0.46757 0.49902 -0.01532
 O1038 O 0.47176 0.52126 -0.01442
 O1039 O 0.49914 0.48415 -0.03125
 O1040 O 0.52125 0.48478 -0.02694
 O1041 O 0.49856 0.46782 -0.01469
 O1042 O 0.52158 0.47234 -0.01324
 O1043 O 0.48430 0.49900 -0.03146
 O1044 O 0.48561 0.52174 -0.02679
 O1045 O 0.46754 0.48395 -0.00088
 O1046 O 0.47129 0.48806 0.02134
 O1047 O 0.51516 0.53304 0.00186
 O1048 O 0.51435 0.52847 -0.01989
 O1049 O 0.53284 0.50105 0.01629
 O1050 O 0.52781 0.47873 0.01429
 O1051 O 0.50058 0.51557 0.03344
 O1052 O 0.47827 0.51279 0.02842
 Zr1053 Zr 0.49297 0.51493 0.01568
 O1054 O 0.48117 0.50421 0.00458
 Zr1055 Zr 0.51490 0.49338 0.01563
 O1056 O 0.50382 0.48156 0.00492
 Zr1057 Zr 0.51484 0.51515 -0.00577
 O1058 O 0.50413 0.50414 -0.01764
 Zr1059 Zr 0.48497 0.48549 0.00761
 O1060 O 0.49600 0.49615 0.01968
 Zr1061 Zr 0.48525 0.50709 -0.01397
 O1062 O 0.49599 0.51907 -0.00294
 Zr1063 Zr 0.50696 0.48537 -0.01367
 O1064 O 0.51905 0.49639 -0.00296
 O1065 O 0.51177 0.51202 0.01271
 O1066 O 0.48814 0.48837 -0.01098
 C1067 C 0.50892 0.53824 0.01050
 C1068 C 0.50906 0.50919 0.03876
 C1069 C 0.53816 0.50968 0.01014
 C1070 C 0.48962 0.46265 -0.00881
 C1071 C 0.46240 0.49001 -0.00963
 C1072 C 0.49033 0.49013 -0.03650
 H1073 H 0.47243 0.50614 0.00652
 H1074 H 0.50626 0.50612 -0.02622
 H1075 H 0.51703 0.51727 0.01801
 H1076 H 0.50566 0.47288 0.00700
 H1077 H 0.48837 0.47511 0.02861
 H1078 H 0.50938 0.47394 0.02808
 H1079 H 0.49263 0.52029 -0.03244
 H1080 H 0.50621 0.53265 -0.01927
 H1081 H 0.46543 0.48102 0.02089
 H1082 H 0.47900 0.51930 0.03477
 H1083 H 0.52093 0.49258 -0.03161
 H1084 H 0.53226 0.50683 -0.01960
 H1085 H 0.47941 0.53229 0.00655
 H1086 H 0.46667 0.52054 -0.00692
 H1087 H 0.53279 0.48023 0.00682
 H1088 H 0.51988 0.46648 -0.00651
 O1089 O 0.76637 0.28300 0.49886
 O1090 O 0.76492 0.27916 0.51977
 O1091 O 0.78352 0.25064 0.48419
 O1092 O 0.77996 0.23033 0.48375
 O1093 O 0.75081 0.26565 0.46713
 O1094 O 0.72927 0.26467 0.47178
 O1095 O 0.75035 0.21790 0.51612
 O1096 O 0.77138 0.22152 0.51359
 O1097 O 0.73477 0.24909 0.53194
 O1098 O 0.73538 0.27128 0.52767
 O1099 O 0.71832 0.23384 0.50106
 O1100 O 0.72235 0.23427 0.47921
 O1101 O 0.73530 0.21765 0.50153
 O1102 O 0.73639 0.22203 0.47873
 O1103 O 0.71818 0.24880 0.51562
 O1104 O 0.72269 0.27158 0.51413
 O1105 O 0.74956 0.23418 0.53186
 O1106 O 0.77195 0.23848 0.52781
 O1107 O 0.75110 0.28291 0.48447
 O1108 O 0.72914 0.27811 0.48560
 O1109 O 0.76582 0.25096 0.46701
 O1110 O 0.76404 0.22864 0.47214
 O1111 O 0.78348 0.26586 0.49853
 O1112 O 0.77875 0.26323 0.52065
 Zr1113 Zr 0.76561 0.26512 0.50629
 O1114 O 0.75467 0.25438 0.51818
 Zr1115 Zr 0.76545 0.24339 0.48478
 O1116 O 0.75491 0.23156 0.49596
 Zr1117 Zr 0.74358 0.26494 0.48500
 O1118 O 0.73184 0.25390 0.49583
 Zr1119 Zr 0.75788 0.23566 0.51451
 O1120 O 0.76981 0.24635 0.50336
 Zr1121 Zr 0.73579 0.25704 0.51440
 O1122 O 0.74668 0.26904 0.50356
 Zr1123 Zr 0.73601 0.23515 0.49310
 O1124 O 0.74655 0.24618 0.48093
 O1125 O 0.76237 0.26202 0.48779
 O1126 O 0.73898 0.23832 0.51164
 C1127 C 0.75989 0.28825 0.49046
 C1128 C 0.78881 0.25943 0.49014
 C1129 C 0.75944 0.25949 0.46180
 C1130 C 0.74145 0.21261 0.51030
 C1131 C 0.74072 0.24018 0.53702
 C1132 C 0.71307 0.23985 0.50977
 H1133 H 0.75674 0.25640 0.52678
 H1134 H 0.72311 0.25578 0.49383
 H1135 H 0.76760 0.26729 0.48249
 H1136 H 0.75708 0.22288 0.49417
 H1137 H 0.77919 0.22549 0.51092
 H1138 H 0.77836 0.22414 0.49019
 H1139 H 0.71689 0.27003 0.50728
 H1140 H 0.72986 0.28238 0.49359
 H1141 H 0.77165 0.23149 0.53365
 H1142 H 0.78509 0.26980 0.51980
 H1143 H 0.71764 0.24209 0.47944
 H1144 H 0.72945 0.25636 0.46801
 H1145 H 0.75638 0.28250 0.51969
 H1146 H 0.74308 0.27071 0.53255
 H1147 H 0.75642 0.23005 0.46729
 H1148 H 0.74326 0.21622 0.48037
 O1149 O 0.78270 0.75079 -0.01730
 O1150 O 0.77866 0.72978 -0.01563
 O1151 O 0.75009 0.76574 -0.03387
 O1152 O 0.72974 0.76639 -0.03005
 O1153 O 0.76587 0.78309 -0.00196
 O1154 O 0.76516 0.77863 0.01937
 O1155 O 0.71743 0.73412 -0.00031
 O1156 O 0.72072 0.73647 -0.02116
 O1157 O 0.74886 0.71807 0.01469
 O1158 O 0.77120 0.72223 0.01374
 O1159 O 0.73405 0.74944 0.03091
 O1160 O 0.73466 0.77143 0.02677
 O1161 O 0.71755 0.74898 0.01441
 O1162 O 0.72216 0.77193 0.01305
 O1163 O 0.74892 0.73463 0.03095
 O1164 O 0.77175 0.73594 0.02620
 O1165 O 0.73364 0.71814 0.00032
 O1166 O 0.73763 0.72201 -0.02189
 O1167 O 0.78301 0.76545 -0.00235
 O1168 O 0.77852 0.76456 0.01943
 O1169 O 0.75086 0.78320 -0.01656
 O1170 O 0.72841 0.77825 -0.01440
 O1171 O 0.76523 0.75115 -0.03393
 O1172 O 0.76242 0.72893 -0.02903
 Zr1173 Zr 0.76468 0.74349 -0.01621
 O1174 O 0.75396 0.73171 -0.00513
 Zr1175 Zr 0.74308 0.76537 -0.01591
 O1176 O 0.73125 0.75430 -0.00522
 Zr1177 Zr 0.76508 0.76516 0.00536
 O1178 O 0.75407 0.75445 0.01723
 Zr1179 Zr 0.73515 0.73554 -0.00805
 O1180 O 0.74580 0.74657 -0.02010
 Zr1181 Zr 0.75697 0.73568 0.01344
 O1182 O 0.76896 0.74639 0.00241
 Zr1183 Zr 0.73519 0.75732 0.01337
 O1184 O 0.74623 0.76940 0.00268
 O1185 O 0.76181 0.76220 -0.01312
 O1186 O 0.73815 0.73859 0.01054
 C1187 C 0.78817 0.75927 -0.01105
 C1188 C 0.75879 0.75962 -0.03917
 C1189 C 0.75960 0.78843 -0.01045
 C1190 C 0.71231 0.74011 0.00851
 C1191 C 0.73978 0.71296 0.00900
 C1192 C 0.74005 0.74062 0.03607
 H1193 H 0.75588 0.72301 -0.00713
 H1194 H 0.75610 0.75653 0.02581
 H1195 H 0.76708 0.76743 -0.01841
 H1196 H 0.72252 0.75616 -0.00724
 H1197 H 0.72459 0.73907 -0.02896
 H1198 H 0.72347 0.75998 -0.02831
 H1199 H 0.77032 0.74289 0.03191
 H1200 H 0.78270 0.75646 0.01875
 H1201 H 0.73055 0.71618 -0.02145
 H1202 H 0.76893 0.72967 -0.03541
 H1203 H 0.74259 0.77118 0.03129
 H1204 H 0.75684 0.78248 0.01929
 H1205 H 0.78215 0.72992 -0.00725
 H1206 H 0.77043 0.71721 0.00621
 H1207 H 0.73001 0.78320 -0.00694
 H1208 H 0.71618 0.77024 0.00639
 O1209 O 1.00092 0.21704 0.23410
 O1210 O 0.97981 0.22097 0.23589
 O1211 O 1.01570 0.24946 0.21724
 O1212 O 1.01628 0.26975 0.22095
 O1213 O 1.03339 0.23405 0.24913
 O1214 O 1.02902 0.23487 0.27049
 O1215 O 0.98401 0.28205 0.25086
 O1216 O 0.98627 0.27865 0.23000
 O1217 O 0.96812 0.25082 0.26616
 O1218 O 0.97234 0.22858 0.26525
 O1219 O 0.99970 0.26573 0.28207
 O1220 O 1.02176 0.26524 0.27774
 O1221 O 0.99901 0.28208 0.26550
 O1222 O 1.02207 0.27762 0.26398
 O1223 O 0.98488 0.25086 0.28229
 O1224 O 0.98621 0.22813 0.27761
 O1225 O 0.96804 0.26585 0.25168
 O1226 O 0.97179 0.26175 0.22946
 O1227 O 1.01575 0.21690 0.24895
 O1228 O 1.01496 0.22149 0.27070
 O1229 O 1.03334 0.24890 0.23446
 O1230 O 1.02829 0.27123 0.23652
 O1231 O 1.00109 0.23434 0.21737
 O1232 O 0.97879 0.23704 0.22241
 Zr1233 Zr 0.99351 0.23494 0.23514
 O1234 O 0.98170 0.24564 0.24624
 Zr1235 Zr 1.01541 0.25656 0.23517
 O1236 O 1.00431 0.26835 0.24588
 Zr1237 Zr 1.01542 0.23479 0.25656
 O1238 O 1.00469 0.24578 0.26844
 Zr1239 Zr 0.98547 0.26437 0.24319
 O1240 O 0.99651 0.25373 0.23113
 Zr1241 Zr 0.98582 0.24278 0.26480
 O1242 O 0.99656 0.23083 0.25376
 Zr1243 Zr 1.00748 0.26456 0.26447
 O1244 O 1.01958 0.25356 0.25375
 O1245 O 1.01231 0.23791 0.23809
 O1246 O 0.98865 0.26151 0.26179
 C1247 C 1.00951 0.21168 0.24031
 C1248 C 1.00954 0.24075 0.21203
 C1249 C 1.03868 0.24027 0.24059
 C1250 C 0.99004 0.28722 0.25962
 C1251 C 0.96292 0.25980 0.26044
 C1252 C 0.99092 0.25973 0.28733
 H1253 H 0.97296 0.24368 0.24431
 H1254 H 1.00684 0.24381 0.27701
 H1255 H 1.01756 0.23267 0.23278
 H1256 H 1.00613 0.27704 0.24380
 H1257 H 0.98883 0.27475 0.22220
 H1258 H 1.00984 0.27598 0.22271
 H1259 H 0.99325 0.22958 0.28324
 H1260 H 1.00684 0.21728 0.27009
 H1261 H 0.96591 0.26877 0.22991
 H1262 H 0.97952 0.23053 0.21606
 H1263 H 1.02156 0.25737 0.28232
 H1264 H 1.03288 0.24316 0.27033
 H1265 H 0.98000 0.21756 0.24429
 H1266 H 0.96724 0.22929 0.25776
 H1267 H 1.03330 0.26972 0.24396
 H1268 H 1.02031 0.28352 0.25730
 O1269 O 0.74849 1.03287 0.73437
 O1270 O 0.76959 1.02882 0.73601
 O1271 O 0.73341 1.00056 0.71752
 O1272 O 0.73281 0.98027 0.72115
 O1273 O 0.71600 1.01597 0.74958
 O1274 O 0.72054 1.01516 0.77089
 O1275 O 0.76511 0.96774 0.75083
 O1276 O 0.76281 0.97122 0.73000
 O1277 O 0.78130 0.99888 0.76616
 O1278 O 0.77719 1.02115 0.76531
 O1279 O 0.74981 0.98407 0.78219
 O1280 O 0.72767 0.98477 0.77801
 O1281 O 0.75021 0.96777 0.76556
 O1282 O 0.72720 0.97237 0.76426
 O1283 O 0.76467 0.99890 0.78236
 O1284 O 0.76340 1.02165 0.77777
 O1285 O 0.78120 0.98382 0.75169
 O1286 O 0.77739 0.98801 0.72949
 O1287 O 0.73374 1.03307 0.74928
 O1288 O 0.73466 1.02847 0.77102
 O1289 O 0.71589 1.00112 0.73488
 O1290 O 0.72086 0.97880 0.73677
 O1291 O 0.74810 1.01560 0.71759
 O1292 O 0.77043 1.01275 0.72249
 Zr1293 Zr 0.75581 1.01492 0.73532
 O1294 O 0.76763 1.00415 0.74632
 Zr1295 Zr 0.73381 0.99342 0.73542
 O1296 O 0.74490 0.98157 0.74604
 Zr1297 Zr 0.73404 1.01517 0.75687
 O1298 O 0.74478 1.00411 0.76866
 Zr1299 Zr 0.76375 0.98545 0.74325
 O1300 O 0.75269 0.99615 0.73128
 Zr1301 Zr 0.76365 1.00702 0.76491
 O1302 O 0.75289 1.01904 0.75396
 Zr1303 Zr 0.74187 0.98535 0.76465
 O1304 O 0.72976 0.99642 0.75403
 O1305 O 0.73700 1.01205 0.73836
 O1306 O 0.76069 0.98831 0.76187
 C1307 C 0.73997 1.03827 0.74063
 C1308 C 0.73958 1.00924 0.71229
 C1309 C 0.71062 1.00974 0.74108
 C1310 C 0.75908 0.96258 0.75960
 C1311 C 0.78640 0.98984 0.76043
 C1312 C 0.75866 0.99001 0.78740
 H1313 H 0.77637 1.00607 0.74435
 H1314 H 0.74270 1.00608 0.77725
 H1315 H 0.73173 1.01732 0.73311
 H1316 H 0.74302 0.97289 0.74394
 H1317 H 0.76023 0.97515 0.72223
 H1318 H 0.73922 0.97400 0.72287
 H1319 H 0.75641 1.02021 0.78344
 H1320 H 0.74281 1.03263 0.77036
 H1321 H 0.78323 0.98096 0.72989
 H1322 H 0.76969 1.01927 0.71616
 H1323 H 0.72804 0.99257 0.78270
 H1324 H 0.71669 1.00687 0.77079
 H1325 H 0.76949 1.03221 0.74443
 H1326 H 0.78227 1.02040 0.75781
 H1327 H 0.71593 0.98028 0.74427
 H1328 H 0.72884 0.96651 0.75751
 O1329 O 0.71703 0.51595 0.24814
 O1330 O 0.72074 0.51441 0.26907
 O1331 O 0.74968 0.53302 0.23379
 O1332 O 0.77010 0.52945 0.23364
 O1333 O 0.73466 0.50064 0.21641
 O1334 O 0.73551 0.47917 0.22091
 O1335 O 0.78219 0.49960 0.26587
 O1336 O 0.77872 0.52059 0.26343
 O1337 O 0.75065 0.48417 0.28126
 O1338 O 0.72838 0.48491 0.27675
 O1339 O 0.76618 0.46794 0.25042
 O1340 O 0.76590 0.47214 0.22854
 O1341 O 0.78249 0.48473 0.25116
 O1342 O 0.77833 0.48601 0.22834
 O1343 O 0.75103 0.46777 0.26484
 O1344 O 0.72819 0.47233 0.26315
 O1345 O 0.76569 0.49883 0.28143
 O1346 O 0.76155 0.52117 0.27749
 O1347 O 0.71717 0.50088 0.23360
 O1348 O 0.72188 0.47900 0.23460
 O1349 O 0.74953 0.51550 0.21654
 O1350 O 0.77187 0.51367 0.22187
 O1351 O 0.73429 0.53293 0.24800
 O1352 O 0.73680 0.52810 0.27013
 Zr1353 Zr 0.73493 0.51511 0.25569
 O1354 O 0.74557 0.50409 0.26760
 Zr1355 Zr 0.75694 0.51502 0.23438
 O1356 O 0.76868 0.50438 0.24558
 Zr1357 Zr 0.73518 0.49332 0.23423
 O1358 O 0.74612 0.48151 0.24508
 Zr1359 Zr 0.76442 0.50723 0.26412
 O1360 O 0.75383 0.51923 0.25297
 Zr1361 Zr 0.74283 0.48534 0.26365
 O1362 O 0.73093 0.49629 0.25278
 Zr1363 Zr 0.76500 0.48560 0.24256
 O1364 O 0.75408 0.49624 0.23036
 O1365 O 0.73818 0.51199 0.23719
 O1366 O 0.76166 0.48845 0.26108
 C1367 C 0.71179 0.50958 0.23964
 C1368 C 0.74079 0.53826 0.23968
 C1369 C 0.74097 0.50922 0.21119
 C1370 C 0.78750 0.49075 0.26004
 C1371 C 0.75957 0.49002 0.28647
 C1372 C 0.76006 0.46269 0.25906
 H1373 H 0.74347 0.50610 0.27618
 H1374 H 0.74421 0.47284 0.24300
 H1375 H 0.73295 0.51724 0.23188
 H1376 H 0.77742 0.50651 0.24390
 H1377 H 0.77481 0.52840 0.26077
 H1378 H 0.77633 0.52771 0.24005
 H1379 H 0.72979 0.46658 0.25629
 H1380 H 0.71755 0.47965 0.24257
 H1381 H 0.76852 0.52080 0.28339
 H1382 H 0.73024 0.53445 0.26926
 H1383 H 0.75807 0.46739 0.22875
 H1384 H 0.74390 0.47932 0.21724
 H1385 H 0.71735 0.50592 0.26891
 H1386 H 0.72899 0.49250 0.28175
 H1387 H 0.77050 0.50608 0.21700
 H1388 H 0.78417 0.49283 0.23007
 O1389 O 0.50068 0.21700 0.73405
 O1390 O 0.47960 0.22097 0.73584
 O1391 O 0.51545 0.24943 0.71710
 O1392 O 0.51606 0.26971 0.72079
 O1393 O 0.53324 0.23402 0.74893
 O1394 O 0.52895 0.23487 0.77030
 O1395 O 0.48389 0.28204 0.75078
 O1396 O 0.48607 0.27863 0.72992
 O1397 O 0.46803 0.25081 0.76614
 O1398 O 0.47226 0.22857 0.76524
 O1399 O 0.49965 0.26576 0.78195
 O1400 O 0.52170 0.26523 0.77757
 O1401 O 0.49894 0.28207 0.76537
 O1402 O 0.52199 0.27760 0.76379
 O1403 O 0.48482 0.25089 0.78221
 O1404 O 0.48615 0.22815 0.77758
 O1405 O 0.46790 0.26584 0.75166
 O1406 O 0.47158 0.26173 0.72944
 O1407 O 0.51555 0.21686 0.74885
 O1408 O 0.51490 0.22150 0.77059
 O1409 O 0.53315 0.24888 0.73427
 O1410 O 0.52811 0.27120 0.73631
 O1411 O 0.50087 0.23428 0.71728
 O1412 O 0.47857 0.23703 0.72237
 Zr1413 Zr 0.49332 0.23493 0.73506
 O1414 O 0.48155 0.24563 0.74619
 Zr1415 Zr 0.51522 0.25653 0.73502
 O1416 O 0.50416 0.26833 0.74575
 Zr1417 Zr 0.51529 0.23478 0.75642
 O1418 O 0.50461 0.24577 0.76833
 Zr1419 Zr 0.48531 0.26435 0.74312
 O1420 O 0.49631 0.25371 0.73103
 Zr1421 Zr 0.48572 0.24277 0.76474
 O1422 O 0.49643 0.23082 0.75368
 Zr1423 Zr 0.50739 0.26455 0.76433
 O1424 O 0.51945 0.25354 0.75359
 O1425 O 0.51213 0.23788 0.73795
 O1426 O 0.48855 0.26150 0.76171
 C1427 C 0.50926 0.21163 0.74027
 C1428 C 0.50929 0.24071 0.71191
 C1429 C 0.53851 0.24025 0.74038
 C1430 C 0.48995 0.28721 0.75953
 C1431 C 0.46282 0.25979 0.76044
 C1432 C 0.49087 0.25978 0.78723
 H1433 H 0.47281 0.24367 0.74429
 H1434 H 0.50678 0.24381 0.77690
 H1435 H 0.51737 0.23262 0.73264
 H1436 H 0.50597 0.27702 0.74366
 H1437 H 0.48861 0.27472 0.72211
 H1438 H 0.50961 0.27593 0.72255
 H1439 H 0.49319 0.22963 0.78320
 H1440 H 0.50676 0.21732 0.77003
 H1441 H 0.46571 0.26876 0.72990
 H1442 H 0.47929 0.23053 0.71601
 H1443 H 0.52151 0.25737 0.78216
 H1444 H 0.53280 0.24316 0.77013
 H1445 H 0.47978 0.21759 0.74425
 H1446 H 0.46711 0.22930 0.75779
 H1447 H 0.53315 0.26970 0.74374
 H1448 H 0.52021 0.28350 0.75712
 O1449 O 0.21706 0.73370 0.50091
 O1450 O 0.22097 0.73508 0.48003
 O1451 O 0.24969 0.71708 0.51580
 O1452 O 0.27006 0.72086 0.51625
 O1453 O 0.23417 0.74955 0.53267
 O1454 O 0.23490 0.77095 0.52795
 O1455 O 0.28229 0.75037 0.48378
 O1456 O 0.27893 0.72941 0.48638
 O1457 O 0.25081 0.76541 0.46785
 O1458 O 0.22851 0.76458 0.47209
 O1459 O 0.26588 0.78210 0.49869
 O1460 O 0.26542 0.77818 0.52056
 O1461 O 0.28232 0.76542 0.49831
 O1462 O 0.27788 0.76434 0.52113
 O1463 O 0.25090 0.78200 0.48408
 O1464 O 0.22807 0.77728 0.48557
 O1465 O 0.26598 0.75088 0.46800
 O1466 O 0.26192 0.72855 0.47214
 O1467 O 0.21690 0.74895 0.51527
 O1468 O 0.22147 0.77087 0.51406
 O1469 O 0.24913 0.73480 0.53289
 O1470 O 0.27155 0.73678 0.52780
 O1471 O 0.23448 0.71688 0.50139
 O1472 O 0.23716 0.72153 0.47926
 Zr1473 Zr 0.23503 0.73464 0.49355
 O1474 O 0.24572 0.74562 0.48166
 Zr1475 Zr 0.25678 0.73515 0.51514
 O1476 O 0.26858 0.74574 0.50394
 Zr1477 Zr 0.23486 0.75666 0.51477
 O1478 O 0.24586 0.76844 0.50394
 Zr1479 Zr 0.26455 0.74266 0.48539
 O1480 O 0.25392 0.73070 0.49655
 Zr1481 Zr 0.24280 0.76439 0.48538
 O1482 O 0.23085 0.75345 0.49622
 Zr1483 Zr 0.26474 0.76452 0.50672
 O1484 O 0.25373 0.75395 0.51890
 O1485 O 0.23803 0.73798 0.51206
 O1486 O 0.26163 0.76145 0.48819
 C1487 C 0.21167 0.74012 0.50928
 C1488 C 0.24095 0.71169 0.50983
 C1489 C 0.24047 0.74107 0.53806
 C1490 C 0.28748 0.75932 0.48956
 C1491 C 0.25984 0.75958 0.46280
 C1492 C 0.25982 0.78721 0.48992
 H1493 H 0.24373 0.74350 0.47307
 H1494 H 0.24386 0.77711 0.50590
 H1495 H 0.23279 0.73274 0.51737
 H1496 H 0.27731 0.74369 0.50576
 H1497 H 0.27503 0.72159 0.48908
 H1498 H 0.27628 0.72250 0.50981
 H1499 H 0.22956 0.78312 0.49238
 H1500 H 0.21721 0.77007 0.50607
 H1501 H 0.26895 0.72891 0.46631
 H1502 H 0.23064 0.71512 0.48012
 H1503 H 0.25751 0.78279 0.52029
 H1504 H 0.24325 0.77093 0.53171
 H1505 H 0.21752 0.74354 0.48006
 H1506 H 0.22920 0.75691 0.46722
 H1507 H 0.27003 0.74438 0.53261
 H1508 H 0.28382 0.75759 0.51950
 O1509 O 0.25028 0.26627 0.96722
 O1510 O 0.22920 0.26459 0.97140
 O1511 O 0.26558 0.28343 0.99906
 O1512 O 0.26630 0.27988 1.01922
 O1513 O 0.28288 0.25108 0.98382
 O1514 O 0.27840 0.22959 0.98480
 O1515 O 0.23409 0.24993 1.03203
 O1516 O 0.23641 0.27092 1.02852
 O1517 O 0.21772 0.23440 1.00131
 O1518 O 0.22169 0.23510 0.97920
 O1519 O 0.24940 0.21831 1.01585
 O1520 O 0.27152 0.22259 1.01501
 O1521 O 0.24903 0.23513 1.03196
 O1522 O 0.27200 0.23648 1.02727
 O1523 O 0.23439 0.21805 1.00127
 O1524 O 0.23548 0.22258 0.97867
 O1525 O 0.21790 0.24908 1.01615
 O1526 O 0.22173 0.27142 1.01192
 O1527 O 0.26503 0.25124 0.96700
 O1528 O 0.26419 0.22936 0.97168
 O1529 O 0.28310 0.26598 0.99846
 O1530 O 0.27831 0.26415 1.02067
 O1531 O 0.25077 0.28325 0.98425
 O1532 O 0.22847 0.27832 0.98726
 Zr1533 Zr 0.24309 0.26539 0.98508
 O1534 O 0.23136 0.25435 0.99591
 Zr1535 Zr 0.26524 0.26543 1.00626
 O1536 O 0.25425 0.25477 1.01816
 Zr1537 Zr 0.26487 0.24370 0.98480
 O1538 O 0.25422 0.23186 0.99590
 Zr1539 Zr 0.23537 0.25754 1.01443
 O1540 O 0.24633 0.26956 1.00366
 Zr1541 Zr 0.23533 0.23561 0.99313
 O1542 O 0.24599 0.24659 0.98107
 Zr1543 Zr 0.25727 0.23600 1.01447
 O1544 O 0.26929 0.24666 1.00335
 O1545 O 0.26191 0.26236 0.98781
 O1546 O 0.23842 0.23876 1.01166
 C1547 C 0.25878 0.25993 0.96184
 C1548 C 0.25935 0.28863 0.99045
 C1549 C 0.28830 0.25971 0.98988
 C1550 C 0.24016 0.24112 1.03714
 C1551 C 0.21266 0.24025 1.01024
 C1552 C 0.24051 0.21301 1.01004
 H1553 H 0.22260 0.25632 0.99406
 H1554 H 0.25630 0.22320 0.99397
 H1555 H 0.26713 0.26763 0.98251
 H1556 H 0.25618 0.25693 1.02675
 H1557 H 0.23898 0.27874 1.02457
 H1558 H 0.25999 0.27813 1.02555
 H1559 H 0.24250 0.21688 0.98007
 H1560 H 0.25601 0.22998 0.96761
 H1561 H 0.21594 0.27105 1.01897
 H1562 H 0.22915 0.28466 0.98075
 H1563 H 0.27111 0.21783 1.00729
 H1564 H 0.28234 0.22978 0.99298
 H1565 H 0.22933 0.25611 0.96804
 H1566 H 0.21665 0.24269 0.97991
 H1567 H 0.28323 0.25659 1.01919
 H1568 H 0.27040 0.24331 1.03306
 C1569 C 0.29638 0.36315 0.78431
 C1570 C 0.29242 0.37261 0.79211
 C1571 C 0.29293 0.37097 0.80480
 C1572 C 0.29743 0.35994 0.80970
 C1573 C 0.30149 0.35038 0.80194
 C1574 C 0.30090 0.35211 0.78918
 C1575 C 0.28796 0.38408 0.78714
 C1576 C 0.28429 0.39377 0.78314
 C1577 C 0.28004 0.40522 0.77863
 C1578 C 0.27647 0.41507 0.77494
 C1579 C 0.27226 0.42692 0.77071
 C1580 C 0.26233 0.43277 0.77655
 C1581 C 0.25846 0.44445 0.77272
 C1582 C 0.26449 0.45046 0.76296
 C1583 C 0.27441 0.44444 0.75708
 C1584 C 0.27826 0.43276 0.76094
 H1585 H 0.29601 0.36433 0.77446
 H1586 H 0.28993 0.37825 0.81092
 H1587 H 0.29794 0.35896 0.81955
 H1588 H 0.30383 0.34487 0.78299
 H1589 H 0.25764 0.42834 0.78414
 H1590 H 0.25082 0.44880 0.77748
 H1591 H 0.27929 0.44880 0.74957
 H1592 H 0.28598 0.42832 0.75638
 C1593 C 0.28808 -0.13225 0.30341
 C1594 C 0.28977 -0.12958 0.29102
 C1595 C 0.29614 -0.13792 0.28357
 C1596 C 0.30090 -0.14884 0.28849
 C1597 C 0.29941 -0.15169 0.30106
 C1598 C 0.29280 -0.14314 0.30839
 C1599 C 0.28524 -0.11814 0.28606
 C1600 C 0.28155 -0.10843 0.28210
 C1601 C 0.27735 -0.09694 0.27767
 C1602 C 0.27389 -0.08701 0.27408
 C1603 C 0.26992 -0.07502 0.27001
 C1604 C 0.27630 -0.06899 0.26060
 C1605 C 0.27283 -0.05709 0.25706
 C1606 C 0.26292 -0.05102 0.26291
 C1607 C 0.25645 -0.05725 0.27224
 C1608 C 0.25994 -0.06916 0.27576
 H1609 H 0.28326 -0.12578 0.30930
 H1610 H 0.29743 -0.13598 0.27392
 H1611 H 0.30539 -0.15516 0.28225
 H1612 H 0.29172 -0.14444 0.31814
 H1613 H 0.28406 -0.07343 0.25611
 H1614 H 0.27804 -0.05258 0.24986
 H1615 H 0.24879 -0.05288 0.27696
 H1616 H 0.25495 -0.07373 0.28308
 C1617 C 0.78313 0.86335 0.79691
 C1618 C 0.79093 0.87160 0.79082
 C1619 C 0.80347 0.86876 0.78941
 C1620 C 0.80824 0.85777 0.79414
 C1621 C 0.80056 0.84932 0.80048
 C1622 C 0.78785 0.85235 0.80169
 C1623 C 0.78616 0.88311 0.78626
 C1624 C 0.78231 0.89284 0.78253
 C1625 C 0.77796 0.90435 0.77829
 C1626 C 0.77438 0.91426 0.77476
 C1627 C 0.77025 0.92619 0.77067
 C1628 C 0.77636 0.93211 0.76102
 C1629 C 0.77263 0.94388 0.75730
 C1630 C 0.76273 0.94990 0.76321
 C1631 C 0.75658 0.94380 0.77284
 C1632 C 0.76033 0.93203 0.77653
 H1633 H 0.77336 0.86542 0.79798
 H1634 H 0.80963 0.87515 0.78480
 H1635 H 0.81812 0.85633 0.79328
 H1636 H 0.78134 0.84611 0.80595
 H1637 H 0.78407 0.92768 0.75644
 H1638 H 0.77760 0.94830 0.74989
 H1639 H 0.74895 0.94816 0.77761
 H1640 H 0.75556 0.92754 0.78404
 C1641 C 0.45996 0.88175 0.30385
 C1642 C 0.46101 0.88040 0.29115
 C1643 C 0.45733 0.89002 0.28342
 C1644 C 0.45252 0.90093 0.28837
 C1645 C 0.45135 0.90234 0.30113
 C1646 C 0.45517 0.89264 0.30882
 C1647 C 0.46560 0.86902 0.28611
 C1648 C 0.46932 0.85935 0.28207
 C1649 C 0.47351 0.84788 0.27757
 C1650 C 0.47695 0.83796 0.27392
 C1651 C 0.48087 0.82596 0.26979
 C1652 C 0.47448 0.82002 0.26033
 C1653 C 0.47786 0.80809 0.25676
 C1654 C 0.48770 0.80193 0.26263
 C1655 C 0.49420 0.80810 0.27200
 C1656 C 0.49079 0.82002 0.27555
 H1657 H 0.46273 0.87434 0.30992
 H1658 H 0.45811 0.88907 0.27358
 H1659 H 0.44979 0.90828 0.28224
 H1660 H 0.45422 0.89336 0.31866
 H1661 H 0.46676 0.82452 0.25583
 H1662 H 0.47264 0.80364 0.24953
 H1663 H 0.50180 0.80365 0.27674
 H1664 H 0.49578 0.82453 0.28291
 C1665 C -0.04104 0.87956 0.80584
 C1666 C -0.04292 0.87677 0.79350
 C1667 C -0.04955 0.88494 0.78610
 C1668 C -0.05438 0.89583 0.79104
 C1669 C -0.05268 0.89882 0.80355
 C1670 C -0.04582 0.89044 0.81083
 C1671 C -0.03822 0.86540 0.78849
 C1672 C -0.03437 0.85580 0.78443
 C1673 C -0.02995 0.84445 0.77982
 C1674 C -0.02625 0.83468 0.77601
 C1675 C -0.02193 0.82292 0.77163
 C1676 C -0.02808 0.81699 0.76200
 C1677 C -0.02416 0.80536 0.75804
 C1678 C -0.01403 0.79947 0.76369
 C1679 C -0.00784 0.80558 0.77330
 C1680 C -0.01178 0.81721 0.77723
 H1681 H -0.03600 0.87322 0.81168
 H1682 H -0.05097 0.88291 0.77649
 H1683 H -0.05906 0.90204 0.78482
 H1684 H -0.04457 0.89185 0.82055
 H1685 H -0.03597 0.82132 0.75762
 H1686 H -0.02918 0.80093 0.75065
 H1687 H -0.00004 0.80133 0.77788
 H1688 H -0.00697 0.82170 0.78472
 C1689 C -0.05345 -0.12963 -0.04330
 C1690 C -0.04062 -0.12792 -0.04249
 C1691 C -0.03259 -0.13727 -0.04638
 C1692 C -0.03737 -0.14828 -0.05112
 C1693 C -0.05026 -0.15007 -0.05202
 C1694 C -0.05824 -0.14062 -0.04803
 C1695 C -0.03576 -0.11647 -0.03784
 C1696 C -0.03184 -0.10679 -0.03402
 C1697 C -0.02744 -0.09534 -0.02965
 C1698 C -0.02383 -0.08547 -0.02601
 C1699 C -0.01967 -0.07359 -0.02180
 C1700 C -0.00975 -0.06770 -0.02762
 C1701 C -0.00599 -0.05596 -0.02382
 C1702 C -0.01213 -0.04992 -0.01414
 C1703 C -0.02203 -0.05600 -0.00827
 C1704 C -0.02576 -0.06774 -0.01209
 H1705 H -0.05975 -0.12243 -0.04037
 H1706 H -0.02264 -0.13604 -0.04578
 H1707 H -0.03100 -0.15543 -0.05400
 H1708 H -0.06820 -0.14165 -0.04877
 H1709 H -0.00499 -0.07213 -0.03517
 H1710 H 0.00164 -0.05156 -0.02857
 H1711 H -0.02698 -0.05163 -0.00082
 H1712 H -0.03348 -0.07220 -0.00755
 C1713 C -0.04595 0.36170 0.46709
 C1714 C -0.03964 0.37012 0.45970
 C1715 C -0.03786 0.36751 0.44731
 C1716 C -0.04244 0.35657 0.44227
 C1717 C -0.04900 0.34794 0.44953
 C1718 C -0.05058 0.35074 0.46211
 C1719 C -0.03526 0.38161 0.46471
 C1720 C -0.03169 0.39135 0.46872
 C1721 C -0.02762 0.40289 0.47317
 C1722 C -0.02424 0.41285 0.47677
 C1723 C -0.02033 0.42488 0.48081
 C1724 C -0.01045 0.43081 0.47495
 C1725 C -0.00702 0.44275 0.47842
 C1726 C -0.01346 0.44895 0.48781
 C1727 C -0.02326 0.44282 0.49377
 C1728 C -0.02667 0.43088 0.49027
 H1729 H -0.04731 0.36360 0.47674
 H1730 H -0.03308 0.37404 0.44146
 H1731 H -0.04129 0.35530 0.43252
 H1732 H -0.05502 0.34435 0.46831
 H1733 H -0.00550 0.42627 0.46759
 H1734 H 0.00055 0.44717 0.47363
 H1735 H -0.02843 0.44731 0.50101
 H1736 H -0.03435 0.42638 0.49484
 C1737 C 0.46589 -0.13592 0.45233
 C1738 C 0.45803 -0.12785 0.45859
 C1739 C 0.44554 -0.13088 0.46007
 C1740 C 0.44087 -0.14188 0.45523
 C1741 C 0.44861 -0.15015 0.44873
 C1742 C 0.46127 -0.14693 0.44745
 C1743 C 0.46271 -0.11635 0.46329
 C1744 C 0.46651 -0.10663 0.46713
 C1745 C 0.47085 -0.09515 0.47151
 C1746 C 0.47444 -0.08528 0.47515
 C1747 C 0.47860 -0.07340 0.47937
 C1748 C 0.47252 -0.06755 0.48909
 C1749 C 0.47629 -0.05583 0.49294
 C1750 C 0.48623 -0.04978 0.48711
 C1751 C 0.49235 -0.05581 0.47742
 C1752 C 0.48855 -0.06753 0.47359
 H1753 H 0.47562 -0.13371 0.45122
 H1754 H 0.43934 -0.12463 0.46481
 H1755 H 0.43102 -0.14347 0.45616
 H1756 H 0.46783 -0.15303 0.44306
 H1757 H 0.46478 -0.07200 0.49361
 H1758 H 0.47133 -0.05147 0.50040
 H1759 H 0.50001 -0.05144 0.47270
 H1760 H 0.49331 -0.07196 0.46604
 C1761 C 0.45216 0.36359 -0.03443
 C1762 C 0.45845 0.37199 -0.04186
 C1763 C 0.46025 0.36932 -0.05424
 C1764 C 0.45573 0.35833 -0.05922
 C1765 C 0.44922 0.34970 -0.05191
 C1766 C 0.44760 0.35258 -0.03936
 C1767 C 0.46287 0.38348 -0.03687
 C1768 C 0.46651 0.39318 -0.03283
 C1769 C 0.47069 0.40464 -0.02829
 C1770 C 0.47421 0.41451 -0.02455
 C1771 C 0.47835 0.42638 -0.02029
 C1772 C 0.48841 0.43219 -0.02594
 C1773 C 0.49219 0.44391 -0.02211
 C1774 C 0.48593 0.45000 -0.01254
 C1775 C 0.47589 0.44402 -0.00684
 C1776 C 0.47213 0.43230 -0.01070
 H1777 H 0.45080 0.36552 -0.02479
 H1778 H 0.46502 0.37583 -0.06011
 H1779 H 0.45690 0.35701 -0.06896
 H1780 H 0.44318 0.34620 -0.03312
 H1781 H 0.49327 0.42770 -0.03340
 H1782 H 0.49994 0.44823 -0.02673
 H1783 H 0.47083 0.44844 0.00052
 H1784 H 0.46430 0.42790 -0.00628
 C1785 C 0.79301 0.38929 0.46610
 C1786 C 0.78951 0.37960 0.45836
 C1787 C 0.79065 0.38093 0.44566
 C1788 C 0.79535 0.39187 0.44072
 C1789 C 0.79898 0.40163 0.44842
 C1790 C 0.79772 0.40024 0.46118
 C1791 C 0.78500 0.36818 0.46339
 C1792 C 0.78134 0.35850 0.46744
 C1793 C 0.77720 0.34702 0.47198
 C1794 C 0.77379 0.33711 0.47567
 C1795 C 0.76988 0.32513 0.47985
 C1796 C 0.75994 0.31916 0.47414
 C1797 C 0.75652 0.30726 0.47774
 C1798 C 0.76304 0.30114 0.48712
 C1799 C 0.77290 0.30732 0.49294
 C1800 C 0.77629 0.31922 0.48931
 H1801 H 0.79215 0.38836 0.47594
 H1802 H 0.78803 0.37347 0.43959
 H1803 H 0.79638 0.39258 0.43089
 H1804 H 0.80030 0.40764 0.46733
 H1805 H 0.75493 0.32363 0.46678
 H1806 H 0.74890 0.30280 0.47305
 H1807 H 0.77814 0.30291 0.50017
 H1808 H 0.78403 0.32375 0.49377
 C1809 C 0.80423 0.88204 -0.04011
 C1810 C 0.79172 0.87922 -0.04179
 C1811 C 0.78416 0.88729 -0.04838
 C1812 C 0.78910 0.89810 -0.05338
 C1813 C 0.80179 0.90111 -0.05191
 C1814 C 0.80923 0.89283 -0.04507
 C1815 C 0.78674 0.86788 -0.03700
 C1816 C 0.78273 0.85827 -0.03311
 C1817 C 0.77822 0.84688 -0.02870
 C1818 C 0.77453 0.83704 -0.02508
 C1819 C 0.77032 0.82514 -0.02095
 C1820 C 0.76042 0.81930 -0.02684
 C1821 C 0.75675 0.80746 -0.02327
 C1822 C 0.76297 0.80128 -0.01374
 C1823 C 0.77279 0.80735 -0.00773
 C1824 C 0.77644 0.81918 -0.01132
 H1825 H 0.81021 0.87578 -0.03512
 H1826 H 0.77442 0.88524 -0.04966
 H1827 H 0.78276 0.90423 -0.05804
 H1828 H 0.81908 0.89425 -0.04397
 H1829 H 0.75564 0.82382 -0.03433
 H1830 H 0.74917 0.80309 -0.02811
 H1831 H 0.77780 0.80288 -0.00037
 H1832 H 0.78414 0.82361 -0.00671
 C1833 C 0.79372 0.28340 0.36184
 C1834 C 0.78973 0.29125 0.37123
 C1835 C 0.79061 0.30404 0.36975
 C1836 C 0.79553 0.30898 0.35899
 C1837 C 0.79967 0.30118 0.34953
 C1838 C 0.79866 0.28832 0.35106
 C1839 C 0.78502 0.28623 0.38250
 C1840 C 0.78122 0.28220 0.39207
 C1841 C 0.77693 0.27770 0.40343
 C1842 C 0.77343 0.27404 0.41326
 C1843 C 0.76944 0.26990 0.42514
 C1844 C 0.75966 0.27588 0.43110
 C1845 C 0.75622 0.27233 0.44292
 C1846 C 0.76256 0.26275 0.44897
 C1847 C 0.77225 0.25666 0.44280
 C1848 C 0.77566 0.26023 0.43097
 H1849 H 0.79308 0.27348 0.36289
 H1850 H 0.78761 0.31020 0.37699
 H1851 H 0.79635 0.31891 0.35817
 H1852 H 0.80164 0.28209 0.34389
 H1853 H 0.75480 0.28340 0.42667
 H1854 H 0.74873 0.27723 0.44739
 H1855 H 0.77735 0.24926 0.44716
 H1856 H 0.78328 0.25557 0.42645
 C1857 C 0.79318 0.78325 -0.13913
 C1858 C 0.78907 0.79114 -0.12982
 C1859 C 0.78986 0.80393 -0.13137
 C1860 C 0.79480 0.80883 -0.14214
 C1861 C 0.79905 0.80099 -0.15152
 C1862 C 0.79814 0.78814 -0.14991
 C1863 C 0.78435 0.78616 -0.11853
 C1864 C 0.78053 0.78217 -0.10895
 C1865 C 0.77624 0.77770 -0.09759
 C1866 C 0.77273 0.77406 -0.08775
 C1867 C 0.76875 0.76995 -0.07586
 C1868 C 0.75894 0.77590 -0.06993
 C1869 C 0.75551 0.77238 -0.05809
 C1870 C 0.76189 0.76285 -0.05200
 C1871 C 0.77161 0.75678 -0.05815
 C1872 C 0.77502 0.76033 -0.06999
 H1873 H 0.79261 0.77334 -0.13802
 H1874 H 0.78677 0.81011 -0.12420
 H1875 H 0.79555 0.81876 -0.14303
 H1876 H 0.80120 0.78188 -0.15702
 H1877 H 0.75405 0.78339 -0.07438
 H1878 H 0.74801 0.77727 -0.05365
 H1879 H 0.77674 0.74942 -0.05376
 H1880 H 0.78265 0.75568 -0.07449
 C1881 C 0.30441 0.45706 0.87812
 C1882 C 0.29158 0.45814 0.87652
 C1883 C 0.28356 0.45461 0.88596
 C1884 C 0.28834 0.44997 0.89694
 C1885 C 0.30122 0.44881 0.89861
 C1886 C 0.30920 0.45244 0.88908
 C1887 C 0.28670 0.46269 0.86512
 C1888 C 0.28277 0.46644 0.85548
 C1889 C 0.27834 0.47074 0.84410
 C1890 C 0.27471 0.47435 0.83430
 C1891 C 0.27057 0.47857 0.82250
 C1892 C 0.26091 0.47247 0.81646
 C1893 C 0.25718 0.47631 0.80480
 C1894 C 0.26310 0.48631 0.79901
 C1895 C 0.27274 0.49245 0.80523
 C1896 C 0.27643 0.48860 0.81688
 H1897 H 0.31070 0.45972 0.87085
 H1898 H 0.27362 0.45542 0.88483
 H1899 H 0.28197 0.44738 0.90415
 H1900 H 0.31915 0.45148 0.89001
 H1901 H 0.25633 0.46468 0.82071
 H1902 H 0.24977 0.47133 0.80029
 H1903 H 0.27752 0.50016 0.80106
 H1904 H 0.28395 0.49337 0.82146
 C1905 C 0.28241 -0.04463 0.38824
 C1906 C 0.29023 -0.04064 0.37882
 C1907 C 0.30309 -0.04148 0.38021
 C1908 C 0.30814 -0.04636 0.39095
 C1909 C 0.30037 -0.05047 0.40046
 C1910 C 0.28744 -0.04952 0.39900
 C1911 C 0.28512 -0.03591 0.36759
 C1912 C 0.28105 -0.03207 0.35805
 C1913 C 0.27654 -0.02770 0.34673
 C1914 C 0.27291 -0.02409 0.33692
 C1915 C 0.26885 -0.01995 0.32506
 C1916 C 0.27487 -0.01010 0.31933
 C1917 C 0.27144 -0.00651 0.30752
 C1918 C 0.26191 -0.01277 0.30125
 C1919 C 0.25576 -0.02254 0.30720
 C1920 C 0.25922 -0.02610 0.31902
 H1921 H 0.27244 -0.04402 0.38725
 H1922 H 0.30923 -0.03847 0.37295
 H1923 H 0.31811 -0.04713 0.39172
 H1924 H 0.28123 -0.05249 0.40621
 H1925 H 0.28237 -0.00530 0.32392
 H1926 H 0.27639 0.00103 0.30324
 H1927 H 0.24840 -0.02757 0.30266
 H1928 H 0.25451 -0.03377 0.32336
 C1929 C -0.05470 -0.04150 -0.12944
 C1930 C -0.04216 -0.04322 -0.12678
 C1931 C -0.03467 -0.04973 -0.13496
 C1932 C -0.03970 -0.05459 -0.14574
 C1933 C -0.05241 -0.05304 -0.14860
 C1934 C -0.05978 -0.04631 -0.14020
 C1935 C -0.03707 -0.03849 -0.11553
 C1936 C -0.03296 -0.03458 -0.10603
 C1937 C -0.02832 -0.03009 -0.09479
 C1938 C -0.02451 -0.02631 -0.08511
 C1939 C -0.02016 -0.02189 -0.07345
 C1940 C -0.01012 -0.02764 -0.06768
 C1941 C -0.00619 -0.02364 -0.05614
 C1942 C -0.01227 -0.01382 -0.05020
 C1943 C -0.02228 -0.00802 -0.05615
 C1944 C -0.02618 -0.01204 -0.06769
 H1945 H -0.06062 -0.03656 -0.12309
 H1946 H -0.02491 -0.05104 -0.13303
 H1947 H -0.03340 -0.05917 -0.15196
 H1948 H -0.06964 -0.04517 -0.14151
 H1949 H -0.00542 -0.03530 -0.07205
 H1950 H 0.00151 -0.02834 -0.05183
 H1951 H -0.02720 -0.00047 -0.05185
 H1952 H -0.03398 -0.00755 -0.07206
 C1953 C -0.03834 0.44633 0.36883
 C1954 C -0.04002 0.45880 0.37158
 C1955 C -0.04656 0.46633 0.36347
 C1956 C -0.05153 0.46141 0.35270
 C1957 C -0.05008 0.44875 0.34978
 C1958 C -0.04327 0.44135 0.35808
 C1959 C -0.03532 0.46376 0.38289
 C1960 C -0.03152 0.46776 0.39249
 C1961 C -0.02725 0.47225 0.40387
 C1962 C -0.02376 0.47592 0.41370
 C1963 C -0.01979 0.48008 0.42559
 C1964 C -0.02611 0.48969 0.43146
 C1965 C -0.02270 0.49330 0.44328
 C1966 C -0.01292 0.48732 0.44942
 C1967 C -0.00649 0.47781 0.44334
 C1968 C -0.00993 0.47422 0.43152
 H1969 H -0.03339 0.44038 0.37512
 H1970 H -0.04783 0.47605 0.36547
 H1971 H -0.05615 0.46772 0.34655
 H1972 H -0.04220 0.43153 0.35671
 H1973 H -0.03378 0.49427 0.42696
 H1974 H -0.02786 0.50064 0.44767
 H1975 H 0.00106 0.47299 0.44778
 H1976 H -0.00500 0.46675 0.42707
 C1977 C 0.45842 -0.05353 0.37084
 C1978 C 0.45919 -0.04078 0.37270
 C1979 C 0.45541 -0.03269 0.36344
 C1980 C 0.45085 -0.03733 0.35236
 C1981 C 0.45001 -0.05014 0.35042
 C1982 C 0.45387 -0.05819 0.35979
 C1983 C 0.46370 -0.03605 0.38419
 C1984 C 0.46741 -0.03225 0.39390
 C1985 C 0.47166 -0.02798 0.40536
 C1986 C 0.47521 -0.02447 0.41523
 C1987 C 0.47932 -0.02041 0.42711
 C1988 C 0.47331 -0.01062 0.43298
 C1989 C 0.47702 -0.00694 0.44469
 C1990 C 0.48682 -0.01302 0.45071
 C1991 C 0.49288 -0.02279 0.44466
 C1992 C 0.48914 -0.02645 0.43295
 H1993 H 0.46126 -0.05987 0.37797
 H1994 H 0.45598 -0.02280 0.36478
 H1995 H 0.44808 -0.03091 0.34528
 H1996 H 0.45317 -0.06809 0.35865
 H1997 H 0.46568 -0.00591 0.42856
 H1998 H 0.47213 0.00058 0.44907
 H1999 H 0.50042 -0.02770 0.44901
 H2000 H 0.49384 -0.03406 0.42850
 C2001 C 0.45499 0.46524 -0.13582
 C2002 C 0.45872 0.45728 -0.12644
 C2003 C 0.45770 0.44450 -0.12802
 C2004 C 0.45291 0.43970 -0.13892
 C2005 C 0.44906 0.44762 -0.14838
 C2006 C 0.45018 0.46045 -0.14673
 C2007 C 0.46339 0.46217 -0.11508
 C2008 C 0.46719 0.46614 -0.10548
 C2009 C 0.47152 0.47064 -0.09413
 C2010 C 0.47510 0.47436 -0.08435
 C2011 C 0.47925 0.47864 -0.07256
 C2012 C 0.48910 0.47273 -0.06665
 C2013 C 0.49283 0.47657 -0.05500
 C2014 C 0.48675 0.48640 -0.04908
 C2015 C 0.47693 0.49237 -0.05518
 C2016 C 0.47322 0.48850 -0.06683
 H2017 H 0.45575 0.47514 -0.13469
 H2018 H 0.46051 0.43826 -0.12079
 H2019 H 0.45199 0.42979 -0.13984
 H2020 H 0.44743 0.46677 -0.15390
 H2021 H 0.49381 0.46506 -0.07099
 H2022 H 0.50040 0.47174 -0.05058
 H2023 H 0.47201 0.49994 -0.05090
 H2024 H 0.46556 0.49312 -0.07131
 C2025 C 0.45678 0.78416 0.38795
 C2026 C 0.46071 0.79212 0.37865
 C2027 C 0.45970 0.80489 0.38023
 C2028 C 0.45470 0.80970 0.39103
 C2029 C 0.45062 0.80178 0.40040
 C2030 C 0.45176 0.78895 0.39877
 C2031 C 0.46551 0.78723 0.36735
 C2032 C 0.46937 0.78327 0.35776
 C2033 C 0.47372 0.77881 0.34640
 C2034 C 0.47727 0.77516 0.33658
 C2035 C 0.48128 0.77099 0.32471
 C2036 C 0.49101 0.77700 0.31871
 C2037 C 0.49447 0.77340 0.30690
 C2038 C 0.48821 0.76372 0.30091
 C2039 C 0.47856 0.75759 0.30713
 C2040 C 0.47513 0.76122 0.31894
 H2041 H 0.45752 0.77425 0.38683
 H2042 H 0.46266 0.81114 0.37306
 H2043 H 0.45378 0.81961 0.39193
 H2044 H 0.44884 0.78263 0.40587
 H2045 H 0.49582 0.78460 0.32309
 H2046 H 0.50192 0.77833 0.30241
 H2047 H 0.47353 0.75012 0.30281
 H2048 H 0.46756 0.75652 0.32349
 C2049 C -0.04668 0.78420 0.88589
 C2050 C -0.04034 0.79187 0.87776
 C2051 C -0.03867 0.80431 0.88062
 C2052 C -0.04340 0.80913 0.89154
 C2053 C -0.04998 0.80158 0.89988
 C2054 C -0.05146 0.78896 0.89682
 C2055 C -0.03574 0.78705 0.86634
 C2056 C -0.03200 0.78314 0.85669
 C2057 C -0.02772 0.77871 0.84529
 C2058 C -0.02418 0.77505 0.83548
 C2059 C -0.02008 0.77082 0.82366
 C2060 C -0.01032 0.77682 0.81769
 C2061 C -0.00663 0.77301 0.80601
 C2062 C -0.01267 0.76312 0.80013
 C2063 C -0.02240 0.75707 0.80628
 C2064 C -0.02607 0.76090 0.81796
 H2065 H -0.04794 0.77451 0.88380
 H2066 H -0.03386 0.81037 0.87432
 H2067 H -0.04233 0.81894 0.89301
 H2068 H -0.05591 0.78254 0.90298
 H2069 H -0.00564 0.78453 0.82201
 H2070 H 0.00087 0.77790 0.80155
 H2071 H -0.02728 0.74946 0.80203
 H2072 H -0.03366 0.75621 0.82248
 C2073 C 0.36062 0.79406 0.28372
 C2074 C 0.37024 0.79044 0.29153
 C2075 C 0.36881 0.79154 0.30421
 C2076 C 0.35783 0.79630 0.30909
 C2077 C 0.34812 0.80004 0.30133
 C2078 C 0.34962 0.79883 0.28858
 C2079 C 0.38170 0.78583 0.28657
 C2080 C 0.39142 0.78209 0.28260
 C2081 C 0.40294 0.77785 0.27814
 C2082 C 0.41289 0.77437 0.27451
 C2083 C 0.42491 0.77038 0.27039
 C2084 C 0.43087 0.76054 0.27621
 C2085 C 0.44281 0.75705 0.27263
 C2086 C 0.44897 0.76341 0.26318
 C2087 C 0.44281 0.77318 0.25726
 C2088 C 0.43087 0.77664 0.26086
 H2089 H 0.36163 0.79324 0.27389
 H2090 H 0.37622 0.78882 0.31034
 H2091 H 0.35703 0.79728 0.31893
 H2092 H 0.34227 0.80150 0.28239
 H2093 H 0.42635 0.75565 0.28362
 H2094 H 0.44726 0.74950 0.27740
 H2095 H 0.44726 0.77829 0.24997
 H2096 H 0.42635 0.78430 0.25632
 C2097 C -0.12978 0.80427 0.79376
 C2098 C -0.12819 0.79149 0.79285
 C2099 C -0.13779 0.78356 0.79636
 C2100 C -0.14894 0.78839 0.80080
 C2101 C -0.15062 0.80123 0.80177
 C2102 C -0.14091 0.80911 0.79818
 C2103 C -0.11664 0.78657 0.78842
 C2104 C -0.10688 0.78263 0.78475
 C2105 C -0.09536 0.77822 0.78049
 C2106 C -0.08544 0.77461 0.77688
 C2107 C -0.07352 0.77051 0.77261
 C2108 C -0.06754 0.76063 0.77836
 C2109 C -0.05580 0.75688 0.77443
 C2110 C -0.04986 0.76299 0.76468
 C2111 C -0.05600 0.77287 0.75891
 C2112 C -0.06774 0.77659 0.76286
 H2113 H -0.12239 0.81049 0.79111
 H2114 H -0.13665 0.77365 0.79568
 H2115 H -0.15628 0.78209 0.80337
 H2116 H -0.14185 0.81903 0.79899
 H2117 H -0.07192 0.75588 0.78594
 H2118 H -0.05134 0.74927 0.77911
 H2119 H -0.05171 0.77781 0.75141
 H2120 H -0.07227 0.78427 0.75837
 C2121 C 0.88206 0.29066 0.44590
 C2122 C 0.88057 0.28956 0.45858
 C2123 C 0.89016 0.29320 0.46643
 C2124 C 0.90116 0.29801 0.46162
 C2125 C 0.90270 0.29924 0.44888
 C2126 C 0.89304 0.29546 0.44107
 C2127 C 0.86909 0.28496 0.46350
 C2128 C 0.85936 0.28123 0.46745
 C2129 C 0.84783 0.27702 0.47189
 C2130 C 0.83786 0.27356 0.47552
 C2131 C 0.82583 0.26960 0.47963
 C2132 C 0.81984 0.27592 0.48911
 C2133 C 0.80789 0.27248 0.49269
 C2134 C 0.80175 0.26265 0.48682
 C2135 C 0.80794 0.25624 0.47742
 C2136 C 0.81989 0.25971 0.47386
 H2137 H 0.87467 0.28793 0.43975
 H2138 H 0.88911 0.29238 0.47626
 H2139 H 0.90849 0.30071 0.46785
 H2140 H 0.89387 0.29646 0.43125
 H2141 H 0.82434 0.28362 0.49362
 H2142 H 0.80342 0.27764 0.49995
 H2143 H 0.80351 0.24865 0.47268
 H2144 H 0.82443 0.25477 0.46648
 C2145 C 0.88911 0.78288 -0.04624
 C2146 C 0.87955 0.79067 -0.04235
 C2147 C 0.88097 0.80347 -0.04321
 C2148 C 0.89188 0.80848 -0.04797
 C2149 C 0.90154 0.80074 -0.05195
 C2150 C 0.90005 0.78787 -0.05102
 C2151 C 0.86816 0.78561 -0.03767
 C2152 C 0.85850 0.78158 -0.03383
 C2153 C 0.84704 0.77712 -0.02945
 C2154 C 0.83713 0.77352 -0.02583
 C2155 C 0.82514 0.76947 -0.02168
 C2156 C 0.81937 0.77545 -0.01186
 C2157 C 0.80744 0.77198 -0.00823
 C2158 C 0.80110 0.76247 -0.01441
 C2159 C 0.80709 0.75638 -0.02415
 C2160 C 0.81901 0.75987 -0.02776
 H2161 H 0.88810 0.77295 -0.04561
 H2162 H 0.87360 0.80959 -0.04028
 H2163 H 0.89268 0.81841 -0.04874
 H2164 H 0.90737 0.78168 -0.05389
 H2165 H 0.82402 0.78291 -0.00712
 H2166 H 0.80313 0.77688 -0.00071
 H2167 H 0.80250 0.74904 -0.02913
 H2168 H 0.82338 0.75521 -0.03540
 C2169 C -0.13536 -0.04758 -0.03606
 C2170 C -0.12710 -0.04135 -0.04372
 C2171 C -0.12997 -0.03986 -0.05610
 C2172 C -0.14100 -0.04464 -0.06085
 C2173 C -0.14947 -0.05110 -0.05330
 C2174 C -0.14640 -0.05240 -0.04075
 C2175 C -0.11557 -0.03669 -0.03896
 C2176 C -0.10583 -0.03289 -0.03509
 C2177 C -0.09433 -0.02854 -0.03068
 C2178 C -0.08443 -0.02493 -0.02702
 C2179 C -0.07252 -0.02074 -0.02276
 C2180 C -0.06653 -0.01097 -0.02868
 C2181 C -0.05479 -0.00715 -0.02481
 C2182 C -0.04886 -0.01308 -0.01494
 C2183 C -0.05503 -0.02283 -0.00898
 C2184 C -0.06677 -0.02662 -0.01288
 H2185 H -0.13327 -0.04870 -0.02642
 H2186 H -0.12358 -0.03514 -0.06215
 H2187 H -0.14248 -0.04370 -0.07059
 H2188 H -0.15266 -0.05676 -0.03434
 H2189 H -0.07088 -0.00638 -0.03637
 H2190 H -0.05031 0.00035 -0.02964
 H2191 H -0.05075 -0.02762 -0.00138
 H2192 H -0.07132 -0.03421 -0.00825
 C2193 C -0.13333 0.46182 0.44641
 C2194 C -0.13073 0.46025 0.45883
 C2195 C -0.13911 0.45392 0.46627
 C2196 C -0.15002 0.44907 0.46130
 C2197 C -0.15281 0.45044 0.44870
 C2198 C -0.14422 0.45701 0.44138
 C2199 C -0.11928 0.46487 0.46382
 C2200 C -0.10958 0.46863 0.46781
 C2201 C -0.09807 0.47291 0.47226
 C2202 C -0.08812 0.47644 0.47587
 C2203 C -0.07610 0.48049 0.47995
 C2204 C -0.07023 0.47450 0.48970
 C2205 C -0.05829 0.47801 0.49326
 C2206 C -0.05204 0.48757 0.48709
 C2207 C -0.05812 0.49366 0.47741
 C2208 C -0.07006 0.49012 0.47387
 H2209 H -0.12683 0.46661 0.44052
 H2210 H -0.13722 0.45272 0.47594
 H2211 H -0.15639 0.44461 0.46753
 H2212 H -0.14547 0.45801 0.43161
 H2213 H -0.07482 0.46700 0.49444
 H2214 H -0.05391 0.47311 0.50073
 H2215 H -0.05360 0.50104 0.47244
 H2216 H -0.07450 0.49480 0.46628
 C2217 C 0.36881 -0.03990 0.44543
 C2218 C 0.37184 -0.04191 0.45769
 C2219 C 0.36375 -0.04856 0.46517
 C2220 C 0.35269 -0.05328 0.46040
 C2221 C 0.34945 -0.05144 0.44796
 C2222 C 0.35777 -0.04458 0.44060
 C2223 C 0.38337 -0.03731 0.46251
 C2224 C 0.39311 -0.03353 0.46641
 C2225 C 0.40461 -0.02920 0.47083
 C2226 C 0.41450 -0.02558 0.47450
 C2227 C 0.42641 -0.02137 0.47875
 C2228 C 0.43234 -0.02748 0.48838
 C2229 C 0.44407 -0.02365 0.49228
 C2230 C 0.45004 -0.01362 0.48657
 C2231 C 0.44393 -0.00748 0.47695
 C2232 C 0.43220 -0.01134 0.47307
 H2233 H 0.37509 -0.03486 0.43951
 H2234 H 0.36596 -0.05008 0.47473
 H2235 H 0.34656 -0.05798 0.46668
 H2236 H 0.35618 -0.04323 0.43092
 H2237 H 0.42795 -0.03528 0.49282
 H2238 H 0.44850 -0.02862 0.49968
 H2239 H 0.44824 0.00024 0.47232
 H2240 H 0.42770 -0.00656 0.46558
 C2241 C 0.36334 0.45205 -0.03552
 C2242 C 0.37174 0.45823 -0.04307
 C2243 C 0.36902 0.45981 -0.05546
 C2244 C 0.35800 0.45517 -0.06035
 C2245 C 0.34938 0.44876 -0.05293
 C2246 C 0.35229 0.44736 -0.04036
 C2247 C 0.38325 0.46276 -0.03816
 C2248 C 0.39298 0.46649 -0.03417
 C2249 C 0.40446 0.47076 -0.02964
 C2250 C 0.41433 0.47433 -0.02588
 C2251 C 0.42621 0.47851 -0.02154
 C2252 C 0.43206 0.48854 -0.02717
 C2253 C 0.44376 0.49238 -0.02320
 C2254 C 0.44979 0.48623 -0.01354
 C2255 C 0.44377 0.47621 -0.00788
 C2256 C 0.43207 0.47239 -0.01186
 H2257 H 0.36530 0.45085 -0.02587
 H2258 H 0.37553 0.46449 -0.06142
 H2259 H 0.35664 0.45617 -0.07011
 H2260 H 0.34592 0.44304 -0.03404
 H2261 H 0.42762 0.49332 -0.03469
 H2262 H 0.44812 0.50010 -0.02780
 H2263 H 0.44814 0.47123 -0.00044
 H2264 H 0.42763 0.46459 -0.00746
 C2265 C 0.38776 0.45458 0.78574
 C2266 C 0.37824 0.45849 0.79354
 C2267 C 0.37972 0.45754 0.80623
 C2268 C 0.39064 0.45264 0.81112
 C2269 C 0.40023 0.44861 0.80335
 C2270 C 0.39868 0.44967 0.79060
 C2271 C 0.36687 0.46326 0.78856
 C2272 C 0.35724 0.46715 0.78450
 C2273 C 0.34586 0.47157 0.77988
 C2274 C 0.33605 0.47523 0.77605
 C2275 C 0.32423 0.47945 0.77161
 C2276 C 0.31820 0.48926 0.77744
 C2277 C 0.30650 0.49306 0.77343
 C2278 C 0.30066 0.48709 0.76353
 C2279 C 0.30689 0.47732 0.75765
 C2280 C 0.31859 0.47354 0.76168
 H2281 H 0.38671 0.45528 0.77590
 H2282 H 0.37240 0.46048 0.81235
 H2283 H 0.39147 0.45178 0.82096
 H2284 H 0.40596 0.44677 0.78440
 H2285 H 0.32247 0.49388 0.78516
 H2286 H 0.30198 0.50058 0.77820
 H2287 H 0.30268 0.47249 0.75003
 H2288 H 0.32317 0.46592 0.75713
 C2289 C 0.38167 -0.05250 0.29221
 C2290 C 0.37996 -0.03972 0.29163
 C2291 C 0.38931 -0.03180 0.29579
 C2292 C 0.40031 -0.03665 0.30057
 C2293 C 0.40209 -0.04950 0.30124
 C2294 C 0.39265 -0.05737 0.29697
 C2295 C 0.36850 -0.03480 0.28697
 C2296 C 0.35879 -0.03087 0.28316
 C2297 C 0.34728 -0.02651 0.27880
 C2298 C 0.33733 -0.02299 0.27519
 C2299 C 0.32532 -0.01904 0.27102
 C2300 C 0.31924 -0.00928 0.27689
 C2301 C 0.30730 -0.00586 0.27325
 C2302 C 0.30125 -0.01217 0.26369
 C2303 C 0.30754 -0.02185 0.25772
 C2304 C 0.31948 -0.02525 0.26138
 H2305 H 0.37446 -0.05872 0.28907
 H2306 H 0.38809 -0.02189 0.29538
 H2307 H 0.40746 -0.03036 0.30366
 H2308 H 0.39365 -0.06729 0.29753
 H2309 H 0.32366 -0.00443 0.28439
 H2310 H 0.30275 0.00161 0.27807
 H2311 H 0.30319 -0.02692 0.25034
 H2312 H 0.32409 -0.03283 0.25679
 C2313 C 0.11053 0.54261 0.71631
 C2314 C 0.12008 0.53901 0.70841
 C2315 C 0.11852 0.54009 0.69574
 C2316 C 0.10750 0.54485 0.69097
 C2317 C 0.09788 0.54862 0.69883
 C2318 C 0.09949 0.54739 0.71156
 C2319 C 0.13162 0.53451 0.71328
 C2320 C 0.14141 0.53088 0.71720
 C2321 C 0.15300 0.52679 0.72159
 C2322 C 0.16301 0.52343 0.72517
 C2323 C 0.17510 0.51957 0.72922
 C2324 C 0.18124 0.50999 0.72315
 C2325 C 0.19323 0.50661 0.72666
 C2326 C 0.19926 0.51281 0.73630
 C2327 C 0.19292 0.52232 0.74247
 C2328 C 0.18093 0.52567 0.73893
 H2329 H 0.11164 0.54181 0.72614
 H2330 H 0.12588 0.53739 0.68955
 H2331 H 0.10661 0.54585 0.68115
 H2332 H 0.09220 0.55007 0.71782
 H2333 H 0.17682 0.50522 0.71559
 H2334 H 0.19781 0.49927 0.72170
 H2335 H 0.19727 0.52730 0.74992
 H2336 H 0.17627 0.53313 0.74367
 C2337 C 0.11965 0.04191 0.19500
 C2338 C 0.12136 0.04109 0.20768
 C2339 C 0.11189 0.04483 0.21561
 C2340 C 0.10076 0.04943 0.21089
 C2341 C 0.09898 0.05035 0.19816
 C2342 C 0.10854 0.04651 0.19027
 C2343 C 0.13293 0.03659 0.21250
 C2344 C 0.14270 0.03290 0.21641
 C2345 C 0.15423 0.02868 0.22084
 C2346 C 0.16415 0.02515 0.22450
 C2347 C 0.17609 0.02104 0.22873
 C2348 C 0.18192 0.02708 0.23849
 C2349 C 0.19370 0.02335 0.24235
 C2350 C 0.19982 0.01352 0.23647
 C2351 C 0.19382 0.00744 0.22673
 C2352 C 0.18204 0.01119 0.22290
 H2353 H 0.12694 0.03910 0.18878
 H2354 H 0.11312 0.04421 0.22543
 H2355 H 0.09353 0.05219 0.21719
 H2356 H 0.10751 0.04726 0.18043
 H2357 H 0.17741 0.03473 0.24306
 H2358 H 0.19804 0.02826 0.24985
 H2359 H 0.19825 -0.00013 0.22197
 H2360 H 0.17763 0.00648 0.21531
 C2361 C 0.63751 0.70436 0.21415
 C2362 C 0.62786 0.70798 0.20638
 C2363 C 0.62927 0.70693 0.19369
 C2364 C 0.64026 0.70223 0.18877
 C2365 C 0.65000 0.69851 0.19650
 C2366 C 0.64852 0.69965 0.20925
 C2367 C 0.61643 0.71262 0.21139
 C2368 C 0.60677 0.71643 0.21546
 C2369 C 0.59537 0.72082 0.22007
 C2370 C 0.58555 0.72449 0.22387
 C2371 C 0.57373 0.72880 0.22822
 C2372 C 0.56793 0.73880 0.22250
 C2373 C 0.55624 0.74273 0.22642
 C2374 C 0.55018 0.73671 0.23615
 C2375 C 0.55617 0.72674 0.24193
 C2376 C 0.56785 0.72282 0.23798
 H2377 H 0.63652 0.70515 0.22399
 H2378 H 0.62184 0.70966 0.18759
 H2379 H 0.64105 0.70130 0.17893
 H2380 H 0.65590 0.69700 0.21543
 H2381 H 0.57238 0.74348 0.21492
 H2382 H 0.55192 0.75041 0.22173
 H2383 H 0.55178 0.72186 0.24941
 H2384 H 0.57225 0.71506 0.24246
 C2385 C 0.13238 0.69733 0.70892
 C2386 C 0.13058 0.71009 0.70977
 C2387 C 0.13993 0.71815 0.70590
 C2388 C 0.15101 0.71347 0.70113
 C2389 C 0.15287 0.70065 0.70019
 C2390 C 0.14343 0.69264 0.70417
 C2391 C 0.11904 0.71484 0.71441
 C2392 C 0.10926 0.71864 0.71818
 C2393 C 0.09768 0.72287 0.72248
 C2394 C 0.08768 0.72632 0.72602
 C2395 C 0.07561 0.73022 0.73009
 C2396 C 0.06953 0.73991 0.72413
 C2397 C 0.05756 0.74332 0.72768
 C2398 C 0.05149 0.73706 0.73725
 C2399 C 0.05777 0.72744 0.74330
 C2400 C 0.06974 0.72406 0.73973
 H2401 H 0.12518 0.69101 0.71184
 H2402 H 0.13864 0.72804 0.70652
 H2403 H 0.15815 0.71987 0.69827
 H2404 H 0.14451 0.68273 0.70339
 H2405 H 0.07398 0.74472 0.71663
 H2406 H 0.05302 0.75075 0.72280
 H2407 H 0.05339 0.72241 0.75069
 H2408 H 0.07435 0.71652 0.74439
 C2409 C 0.61224 0.20477 0.53379
 C2410 C 0.62173 0.20851 0.54170
 C2411 C 0.62000 0.20781 0.55437
 C2412 C 0.60885 0.20335 0.55914
 C2413 C 0.59926 0.19952 0.55127
 C2414 C 0.60107 0.20029 0.53853
 C2415 C 0.63332 0.21294 0.53686
 C2416 C 0.64311 0.21659 0.53298
 C2417 C 0.65467 0.22080 0.52862
 C2418 C 0.66463 0.22434 0.52504
 C2419 C 0.67660 0.22848 0.52094
 C2420 C 0.68244 0.23839 0.52680
 C2421 C 0.69423 0.24219 0.52308
 C2422 C 0.70037 0.23611 0.51343
 C2423 C 0.69437 0.22621 0.50754
 C2424 C 0.68257 0.22244 0.51127
 H2425 H 0.61347 0.20529 0.52396
 H2426 H 0.62731 0.21063 0.56058
 H2427 H 0.60782 0.20269 0.56898
 H2428 H 0.59380 0.19754 0.53226
 H2429 H 0.67791 0.24311 0.53431
 H2430 H 0.69857 0.24982 0.52786
 H2431 H 0.69882 0.22130 0.50010
 H2432 H 0.67815 0.21473 0.50669
 C2433 C 0.61198 0.70469 0.03405
 C2434 C 0.62167 0.70831 0.04178
 C2435 C 0.62028 0.70734 0.05448
 C2436 C 0.60929 0.70272 0.05944
 C2437 C 0.59950 0.69901 0.05176
 C2438 C 0.60096 0.70006 0.03899
 C2439 C 0.63310 0.71288 0.03674
 C2440 C 0.64278 0.71664 0.03268
 C2441 C 0.65422 0.72095 0.02811
 C2442 C 0.66408 0.72455 0.02436
 C2443 C 0.67597 0.72876 0.02006
 C2444 C 0.68184 0.73871 0.02581
 C2445 C 0.69358 0.74252 0.02195
 C2446 C 0.69963 0.73641 0.01226
 C2447 C 0.69358 0.72649 0.00646
 C2448 C 0.68183 0.72269 0.01035
 H2449 H 0.61295 0.70542 0.02420
 H2450 H 0.62774 0.71007 0.06055
 H2451 H 0.60852 0.70186 0.06929
 H2452 H 0.59355 0.69739 0.03285
 H2453 H 0.67739 0.74344 0.03337
 H2454 H 0.69796 0.75017 0.02665
 H2455 H 0.69796 0.72154 -0.00099
 H2456 H 0.67738 0.71496 0.00586
 C2457 C 0.13342 0.03892 0.05368
 C2458 C 0.13079 0.04068 0.04129
 C2459 C 0.13909 0.04724 0.03397
 C2460 C 0.14993 0.05215 0.03902
 C2461 C 0.15273 0.05061 0.05160
 C2462 C 0.14424 0.04378 0.05879
 C2463 C 0.11940 0.03603 0.03621
 C2464 C 0.10974 0.03226 0.03211
 C2465 C 0.09828 0.02799 0.02753
 C2466 C 0.08838 0.02446 0.02380
 C2467 C 0.07641 0.02041 0.01959
 C2468 C 0.07042 0.02670 0.01009
 C2469 C 0.05852 0.02317 0.00644
 C2470 C 0.05242 0.01329 0.01226
 C2471 C 0.05862 0.00690 0.02167
 C2472 C 0.07052 0.01045 0.02530
 H2473 H 0.12698 0.03394 0.05948
 H2474 H 0.13719 0.04859 0.02432
 H2475 H 0.15624 0.05680 0.03286
 H2476 H 0.14551 0.04263 0.06855
 H2477 H 0.07489 0.03444 0.00563
 H2478 H 0.05403 0.02830 -0.00082
 H2479 H 0.05422 -0.00073 0.02636
 H2480 H 0.07506 0.00554 0.03268
 C2481 C 0.13009 0.54200 0.55427
 C2482 C 0.12830 0.54120 0.54161
 C2483 C 0.13777 0.54485 0.53364
 C2484 C 0.14897 0.54936 0.53831
 C2485 C 0.15082 0.55027 0.55103
 C2486 C 0.14127 0.54650 0.55896
 C2487 C 0.11667 0.53683 0.53684
 C2488 C 0.10683 0.53325 0.53299
 C2489 C 0.09522 0.52914 0.52865
 C2490 C 0.08523 0.52570 0.52508
 C2491 C 0.07321 0.52166 0.52099
 C2492 C 0.06724 0.52780 0.51140
 C2493 C 0.05541 0.52410 0.50766
 C2494 C 0.04938 0.51419 0.51349
 C2495 C 0.05552 0.50802 0.52308
 C2496 C 0.06735 0.51174 0.52679
 H2497 H 0.12280 0.53925 0.56053
 H2498 H 0.13649 0.54425 0.52381
 H2499 H 0.15620 0.55206 0.53198
 H2500 H 0.14234 0.54726 0.56879
 H2501 H 0.07169 0.53551 0.50687
 H2502 H 0.05096 0.52909 0.50028
 H2503 H 0.05117 0.50038 0.52780
 H2504 H 0.07188 0.50694 0.53425
 C2505 C 0.63960 0.03326 0.54449
 C2506 C 0.63016 0.04121 0.54062
 C2507 C 0.63178 0.05399 0.54156
 C2508 C 0.64275 0.05881 0.54641
 C2509 C 0.65227 0.05090 0.55040
 C2510 C 0.65059 0.03806 0.54935
 C2511 C 0.61870 0.03632 0.53592
 C2512 C 0.60899 0.03239 0.53211
 C2513 C 0.59747 0.02799 0.52779
 C2514 C 0.58753 0.02439 0.52424
 C2515 C 0.57551 0.02031 0.52019
 C2516 C 0.56949 0.02645 0.51063
 C2517 C 0.55755 0.02291 0.50710
 C2518 C 0.55144 0.01316 0.51313
 C2519 C 0.55767 0.00692 0.52262
 C2520 C 0.56961 0.01049 0.52612
 H2521 H 0.63845 0.02335 0.54380
 H2522 H 0.62451 0.06023 0.53865
 H2523 H 0.64368 0.06872 0.54726
 H2524 H 0.65780 0.03175 0.55222
 H2525 H 0.57396 0.03409 0.50600
 H2526 H 0.55304 0.02793 0.49978
 H2527 H 0.55326 -0.00060 0.52747
 H2528 H 0.57417 0.00569 0.53356
 C2529 C 0.63180 0.54075 0.05374
 C2530 C 0.63006 0.54010 0.04106
 C2531 C 0.63941 0.54421 0.03317
 C2532 C 0.65043 0.54903 0.03794
 C2533 C 0.65223 0.54980 0.05068
 C2534 C 0.64281 0.54555 0.05853
 C2535 C 0.61856 0.53548 0.03621
 C2536 C 0.60881 0.53173 0.03232
 C2537 C 0.59725 0.52748 0.02796
 C2538 C 0.58727 0.52398 0.02442
 C2539 C 0.57521 0.51997 0.02041
 C2540 C 0.56923 0.52610 0.01081
 C2541 C 0.55727 0.52262 0.00731
 C2542 C 0.55110 0.51294 0.01339
 C2543 C 0.55729 0.50672 0.02292
 C2544 C 0.56925 0.51023 0.02639
 H2545 H 0.62460 0.53765 0.05993
 H2546 H 0.63816 0.54375 0.02334
 H2547 H 0.65757 0.55210 0.03167
 H2548 H 0.64383 0.54618 0.06837
 H2549 H 0.57375 0.53369 0.00614
 H2550 H 0.55279 0.52763 -0.00004
 H2551 H 0.55284 0.49925 0.02781
 H2552 H 0.57379 0.50544 0.03386
 C2553 C 0.04669 0.03251 0.13682
 C2554 C 0.04007 0.04003 0.12877
 C2555 C 0.03808 0.05241 0.13170
 C2556 C 0.04278 0.05732 0.14259
 C2557 C 0.04967 0.04993 0.15083
 C2558 C 0.05144 0.03737 0.14772
 C2559 C 0.03559 0.03517 0.11733
 C2560 C 0.03195 0.03127 0.10763
 C2561 C 0.02783 0.02692 0.09615
 C2562 C 0.02443 0.02339 0.08623
 C2563 C 0.02052 0.01941 0.07426
 C2564 C 0.01073 0.02542 0.06835
 C2565 C 0.00732 0.02199 0.05648
 C2566 C 0.01369 0.01249 0.05032
 C2567 C 0.02341 0.00637 0.05643
 C2568 C 0.02679 0.00983 0.06831
 H2569 H 0.04821 0.02287 0.13467
 H2570 H 0.03306 0.05836 0.12546
 H2571 H 0.04147 0.06709 0.14410
 H2572 H 0.05614 0.03106 0.15381
 H2573 H 0.00583 0.03287 0.07286
 H2574 H -0.00019 0.02691 0.05207
 H2575 H 0.02852 -0.00096 0.05199
 H2576 H 0.03441 0.00513 0.07279
 C2577 C 0.04342 0.53318 0.63743
 C2578 C 0.03979 0.54135 0.62818
 C2579 C 0.04078 0.55408 0.63006
 C2580 C 0.04544 0.55865 0.64111
 C2581 C 0.04921 0.55052 0.65043
 C2582 C 0.04810 0.53773 0.64849
 C2583 C 0.03528 0.53670 0.61666
 C2584 C 0.03160 0.53292 0.60693
 C2585 C 0.02741 0.52863 0.59545
 C2586 C 0.02393 0.52508 0.58557
 C2587 C 0.01988 0.52099 0.57368
 C2588 C 0.01002 0.52693 0.56783
 C2589 C 0.00633 0.52323 0.55612
 C2590 C 0.01248 0.51351 0.55008
 C2591 C 0.02232 0.50753 0.55611
 C2592 C 0.02599 0.51125 0.56782
 H2593 H 0.04268 0.52331 0.63607
 H2594 H 0.03804 0.56049 0.62294
 H2595 H 0.04635 0.56853 0.64225
 H2596 H 0.05079 0.53125 0.65555
 H2597 H 0.00525 0.53450 0.57227
 H2598 H -0.00126 0.52807 0.55176
 H2599 H 0.02729 0.50004 0.55174
 H2600 H 0.03366 0.50660 0.57226
 C2601 C 0.53615 0.05082 0.63356
 C2602 C 0.53804 0.03841 0.63066
 C2603 C 0.54436 0.03080 0.63886
 C2604 C 0.54892 0.03559 0.64987
 C2605 C 0.54727 0.04818 0.65294
 C2606 C 0.54067 0.05566 0.64454
 C2607 C 0.53376 0.03363 0.61911
 C2608 C 0.53029 0.02983 0.60932
 C2609 C 0.52635 0.02563 0.59772
 C2610 C 0.52308 0.02227 0.58771
 C2611 C 0.51930 0.01852 0.57563
 C2612 C 0.52553 0.00896 0.56960
 C2613 C 0.52222 0.00571 0.55765
 C2614 C 0.51263 0.01202 0.55154
 C2615 C 0.50631 0.02151 0.55776
 C2616 C 0.50964 0.02473 0.56971
 H2617 H 0.53136 0.05684 0.62721
 H2618 H 0.54579 0.02113 0.63674
 H2619 H 0.55339 0.02921 0.65606
 H2620 H 0.53947 0.06545 0.64603
 H2621 H 0.53304 0.00411 0.57409
 H2622 H 0.52729 -0.00162 0.55315
 H2623 H 0.49890 0.02657 0.55336
 H2624 H 0.50478 0.03216 0.57428
 C2625 C 0.54020 0.55332 0.13105
 C2626 C 0.53920 0.54053 0.12960
 C2627 C 0.54291 0.53269 0.13910
 C2628 C 0.54768 0.53761 0.14996
 C2629 C 0.54879 0.55046 0.15147
 C2630 C 0.54496 0.55827 0.14190
 C2631 C 0.53462 0.53551 0.11827
 C2632 C 0.53089 0.53150 0.10865
 C2633 C 0.52667 0.52704 0.09725
 C2634 C 0.52319 0.52343 0.08739
 C2635 C 0.51919 0.51938 0.07548
 C2636 C 0.52529 0.50964 0.06961
 C2637 C 0.52184 0.50615 0.05776
 C2638 C 0.51223 0.51237 0.05160
 C2639 C 0.50602 0.52202 0.05768
 C2640 C 0.50949 0.52549 0.06953
 H2641 H 0.53741 0.55948 0.12374
 H2642 H 0.54217 0.52277 0.13808
 H2643 H 0.55043 0.53138 0.15722
 H2644 H 0.54586 0.56818 0.14270
 H2645 H 0.53284 0.50487 0.07412
 H2646 H 0.52685 0.49870 0.05336
 H2647 H 0.49859 0.52703 0.05324
 H2648 H 0.50472 0.53306 0.07397
 C2649 C 0.21817 0.54394 0.61098
 C2650 C 0.21029 0.54023 0.62047
 C2651 C 0.19744 0.54121 0.61903
 C2652 C 0.19248 0.54594 0.60819
 C2653 C 0.20031 0.54976 0.59862
 C2654 C 0.21322 0.54868 0.60012
 C2655 C 0.21532 0.53562 0.63178
 C2656 C 0.21931 0.53186 0.64139
 C2657 C 0.22374 0.52757 0.65278
 C2658 C 0.22730 0.52403 0.66262
 C2659 C 0.23130 0.51995 0.67453
 C2660 C 0.22512 0.51025 0.68036
 C2661 C 0.22854 0.50670 0.69219
 C2662 C 0.23819 0.51284 0.69838
 C2663 C 0.24448 0.52247 0.69234
 C2664 C 0.24104 0.52599 0.68050
 H2665 H 0.22813 0.54321 0.61200
 H2666 H 0.19125 0.53843 0.62634
 H2667 H 0.18251 0.54683 0.60739
 H2668 H 0.21948 0.55142 0.59286
 H2669 H 0.21754 0.50553 0.67582
 H2670 H 0.22348 0.49927 0.69654
 H2671 H 0.25193 0.52742 0.69681
 H2672 H 0.24586 0.53355 0.67609
 C2673 C 0.21078 0.05455 0.12005
 C2674 C 0.20918 0.04208 0.12284
 C2675 C 0.20306 0.03437 0.11457
 C2676 C 0.19845 0.03911 0.10357
 C2677 C 0.19987 0.05175 0.10057
 C2678 C 0.20622 0.05935 0.10907
 C2679 C 0.21363 0.03729 0.13432
 C2680 C 0.21729 0.03341 0.14401
 C2681 C 0.22148 0.02903 0.15544
 C2682 C 0.22499 0.02541 0.16528
 C2683 C 0.22909 0.02125 0.17712
 C2684 C 0.22320 0.01129 0.18282
 C2685 C 0.22693 0.00749 0.19448
 C2686 C 0.23663 0.01362 0.20062
 C2687 C 0.24256 0.02357 0.19475
 C2688 C 0.23880 0.02735 0.18309
 H2689 H 0.21542 0.06064 0.12646
 H2690 H 0.20185 0.02466 0.11661
 H2691 H 0.19417 0.03267 0.09731
 H2692 H 0.20722 0.06916 0.10764
 H2693 H 0.21565 0.00653 0.17830
 H2694 H 0.22214 -0.00017 0.19872
 H2695 H 0.25003 0.02853 0.19919
 H2696 H 0.24341 0.03509 0.17877
 C2697 C 0.70866 0.19551 0.62927
 C2698 C 0.70952 0.20826 0.62744
 C2699 C 0.70584 0.21637 0.63673
 C2700 C 0.70125 0.21175 0.64779
 C2701 C 0.70029 0.19894 0.64970
 C2702 C 0.70409 0.19088 0.64032
 C2703 C 0.71399 0.21298 0.61594
 C2704 C 0.71765 0.21681 0.60623
 C2705 C 0.72184 0.22115 0.59477
 C2706 C 0.72535 0.22473 0.58492
 C2707 C 0.72945 0.22886 0.57307
 C2708 C 0.72348 0.23874 0.56730
 C2709 C 0.72723 0.24252 0.55563
 C2710 C 0.73701 0.23647 0.54957
 C2711 C 0.74301 0.22660 0.55551
 C2712 C 0.73924 0.22284 0.56717
 H2713 H 0.71144 0.18916 0.62212
 H2714 H 0.70647 0.22626 0.63541
 H2715 H 0.69853 0.21818 0.65489
 H2716 H 0.70330 0.18098 0.64143
 H2717 H 0.71587 0.24344 0.57177
 H2718 H 0.72238 0.25012 0.55134
 H2719 H 0.75055 0.22171 0.55112
 H2720 H 0.74391 0.21517 0.57155
 C2721 C 0.70735 0.69532 0.12765
 C2722 C 0.70803 0.70810 0.12596
 C2723 C 0.70405 0.71604 0.13527
 C2724 C 0.69936 0.71123 0.14621
 C2725 C 0.69860 0.69839 0.14798
 C2726 C 0.70268 0.69049 0.13858
 C2727 C 0.71264 0.71301 0.11460
 C2728 C 0.71643 0.71697 0.10499
 C2729 C 0.72078 0.72145 0.09364
 C2730 C 0.72442 0.72512 0.08387
 C2731 C 0.72865 0.72934 0.07209
 C2732 C 0.72266 0.73916 0.06626
 C2733 C 0.72648 0.74297 0.05462
 C2734 C 0.73636 0.73698 0.04864
 C2735 C 0.74240 0.72719 0.05466
 C2736 C 0.73856 0.72341 0.06629
 H2737 H 0.71035 0.68908 0.12049
 H2738 H 0.70455 0.72595 0.13407
 H2739 H 0.69642 0.71755 0.15333
 H2740 H 0.70204 0.68057 0.13958
 H2741 H 0.71496 0.74380 0.07065
 H2742 H 0.72159 0.75050 0.05027
 H2743 H 0.75001 0.72234 0.05034
 H2744 H 0.74325 0.71577 0.07071
 C2745 C 0.55469 0.70787 0.12103
 C2746 C 0.54188 0.70894 0.12273
 C2747 C 0.53378 0.70535 0.11337
 C2748 C 0.53846 0.70064 0.10238
 C2749 C 0.55133 0.69948 0.10061
 C2750 C 0.55939 0.70318 0.11005
 C2751 C 0.53710 0.71353 0.13415
 C2752 C 0.53324 0.71729 0.14381
 C2753 C 0.52887 0.72159 0.15522
 C2754 C 0.52526 0.72518 0.16504
 C2755 C 0.52112 0.72936 0.17686
 C2756 C 0.51136 0.72331 0.18278
 C2757 C 0.50758 0.72712 0.19443
 C2758 C 0.51354 0.73705 0.20033
 C2759 C 0.52328 0.74313 0.19423
 C2760 C 0.52703 0.73930 0.18258
 H2761 H 0.56105 0.71058 0.12823
 H2762 H 0.52384 0.70615 0.11459
 H2763 H 0.53203 0.69799 0.09523
 H2764 H 0.56933 0.70223 0.10904
 H2765 H 0.50674 0.71558 0.17845
 H2766 H 0.50008 0.72219 0.19886
 H2767 H 0.52809 0.75078 0.19849
 H2768 H 0.53462 0.74403 0.17808
 C2769 C 0.05259 0.70960 0.61939
 C2770 C 0.03976 0.71030 0.62109
 C2771 C 0.03176 0.70620 0.61185
 C2772 C 0.03658 0.70135 0.60097
 C2773 C 0.04948 0.70054 0.59921
 C2774 C 0.05743 0.70476 0.60854
 C2775 C 0.03487 0.71496 0.63244
 C2776 C 0.03098 0.71875 0.64208
 C2777 C 0.02665 0.72303 0.65351
 C2778 C 0.02314 0.72653 0.66340
 C2779 C 0.01918 0.73051 0.67535
 C2780 C 0.00961 0.72425 0.68137
 C2781 C 0.00621 0.72767 0.69325
 C2782 C 0.01236 0.73739 0.69929
 C2783 C 0.02183 0.74375 0.69305
 C2784 C 0.02521 0.74032 0.68118
 H2785 H 0.05887 0.71268 0.62651
 H2786 H 0.02181 0.70670 0.61307
 H2787 H 0.03023 0.69830 0.59391
 H2788 H 0.06739 0.70409 0.60754
 H2789 H 0.00490 0.71662 0.67695
 H2790 H -0.00111 0.72255 0.69775
 H2791 H 0.02677 0.75126 0.69741
 H2792 H 0.03265 0.74520 0.67661
 C2793 C 0.53221 0.61267 0.20468
 C2794 C 0.54033 0.62208 0.20829
 C2795 C 0.55314 0.62029 0.20740
 C2796 C 0.55783 0.60918 0.20286
 C2797 C 0.54976 0.59968 0.19914
 C2798 C 0.53689 0.60154 0.20012
 C2799 C 0.53556 0.63364 0.21276
 C2800 C 0.53174 0.64341 0.21643
 C2801 C 0.52746 0.65496 0.22065
 C2802 C 0.52396 0.66490 0.22419
 C2803 C 0.51996 0.67686 0.22833
 C2804 C 0.52602 0.68260 0.23813
 C2805 C 0.52242 0.69438 0.24192
 C2806 C 0.51270 0.70062 0.23595
 C2807 C 0.50660 0.69471 0.22616
 C2808 C 0.51022 0.68292 0.22239
 H2809 H 0.52228 0.61396 0.20534
 H2810 H 0.55950 0.62752 0.21013
 H2811 H 0.56778 0.60810 0.20205
 H2812 H 0.53046 0.59436 0.19746
 H2813 H 0.53359 0.67800 0.24277
 H2814 H 0.52735 0.69864 0.24947
 H2815 H 0.49912 0.69923 0.22132
 H2816 H 0.50550 0.67858 0.21476
 C2817 C 0.03214 0.61068 0.70572
 C2818 C 0.04022 0.61995 0.70974
 C2819 C 0.05304 0.61818 0.70895
 C2820 C 0.05778 0.60723 0.70410
 C2821 C 0.04976 0.59788 0.69995
 C2822 C 0.03687 0.59971 0.70085
 C2823 C 0.03540 0.63140 0.71442
 C2824 C 0.03154 0.64111 0.71822
 C2825 C 0.02722 0.65262 0.72251
 C2826 C 0.02370 0.66256 0.72603
 C2827 C 0.01970 0.67456 0.73006
 C2828 C 0.02582 0.68045 0.73973
 C2829 C 0.02235 0.69236 0.74326
 C2830 C 0.01271 0.69857 0.73714
 C2831 C 0.00649 0.69247 0.72754
 C2832 C 0.00998 0.68056 0.72403
 H2833 H 0.02220 0.61195 0.70630
 H2834 H 0.05937 0.62532 0.71198
 H2835 H 0.06773 0.60617 0.70336
 H2836 H 0.03047 0.59263 0.69786
 H2837 H 0.03339 0.67590 0.74444
 H2838 H 0.02736 0.69676 0.75067
 H2839 H -0.00096 0.69695 0.72261
 H2840 H 0.00520 0.67609 0.71651
 C2841 C 0.04646 0.13822 0.03317
 C2842 C 0.03970 0.13010 0.04051
 C2843 C 0.03761 0.13298 0.05279
 C2844 C 0.04235 0.14388 0.05779
 C2845 C 0.04937 0.15220 0.05058
 C2846 C 0.05124 0.14914 0.03811
 C2847 C 0.03518 0.11864 0.03555
 C2848 C 0.03152 0.10892 0.03159
 C2849 C 0.02737 0.09740 0.02715
 C2850 C 0.02397 0.08745 0.02354
 C2851 C 0.02009 0.07543 0.01945
 C2852 C 0.01022 0.06943 0.02524
 C2853 C 0.00685 0.05749 0.02171
 C2854 C 0.01334 0.05136 0.01232
 C2855 C 0.02314 0.05756 0.00642
 C2856 C 0.02648 0.06950 0.00998
 H2857 H 0.04806 0.13612 0.02360
 H2858 H 0.03249 0.12669 0.05860
 H2859 H 0.04095 0.14534 0.06748
 H2860 H 0.05605 0.15529 0.03194
 H2861 H 0.00523 0.07392 0.03261
 H2862 H -0.00072 0.05301 0.02646
 H2863 H 0.02835 0.05314 -0.00083
 H2864 H 0.03417 0.07405 0.00545
 C2865 C 0.04402 0.63779 0.53472
 C2866 C 0.04034 0.62842 0.54275
 C2867 C 0.04124 0.63026 0.55540
 C2868 C 0.04587 0.64137 0.56002
 C2869 C 0.04966 0.65083 0.55202
 C2870 C 0.04865 0.64892 0.53931
 C2871 C 0.03582 0.61685 0.53805
 C2872 C 0.03213 0.60708 0.53422
 C2873 C 0.02790 0.59556 0.52986
 C2874 C 0.02439 0.58566 0.52623
 C2875 C 0.02029 0.57375 0.52202
 C2876 C 0.01027 0.56790 0.52770
 C2877 C 0.00650 0.55618 0.52384
 C2878 C 0.01273 0.55013 0.51423
 C2879 C 0.02275 0.55615 0.50851
 C2880 C 0.02649 0.56787 0.51239
 H2881 H 0.04334 0.63647 0.52491
 H2882 H 0.03847 0.62305 0.56171
 H2883 H 0.04669 0.64249 0.56984
 H2884 H 0.05137 0.65607 0.53293
 H2885 H 0.00542 0.57235 0.53518
 H2886 H -0.00122 0.55182 0.52847
 H2887 H 0.02778 0.55177 0.50111
 H2888 H 0.03429 0.57230 0.50795
 C2889 C 0.54369 0.13914 0.53381
 C2890 C 0.53961 0.12984 0.54173
 C2891 C 0.54031 0.13158 0.55440
 C2892 C 0.54515 0.14254 0.55916
 C2893 C 0.54936 0.15193 0.55130
 C2894 C 0.54854 0.15012 0.53856
 C2895 C 0.53495 0.11838 0.53690
 C2896 C 0.53117 0.10867 0.53301
 C2897 C 0.52691 0.09716 0.52865
 C2898 C 0.52341 0.08723 0.52509
 C2899 C 0.51942 0.07523 0.52103
 C2900 C 0.50981 0.06913 0.52714
 C2901 C 0.50633 0.05722 0.52359
 C2902 C 0.51245 0.05123 0.51387
 C2903 C 0.52197 0.05754 0.50766
 C2904 C 0.52543 0.06944 0.51123
 H2905 H 0.54318 0.13789 0.52398
 H2906 H 0.53723 0.12442 0.56061
 H2907 H 0.54582 0.14358 0.56900
 H2908 H 0.55159 0.15723 0.53227
 H2909 H 0.50511 0.07351 0.53476
 H2910 H 0.49897 0.05266 0.52859
 H2911 H 0.52690 0.05323 0.50016
 H2912 H 0.53290 0.07407 0.50646
 C2913 C 0.54087 0.63079 0.05488
 C2914 C 0.53986 0.62932 0.04219
 C2915 C 0.54373 0.63881 0.03439
 C2916 C 0.54868 0.64969 0.03926
 C2917 C 0.54981 0.65121 0.05201
 C2918 C 0.54580 0.64165 0.05977
 C2919 C 0.53510 0.61796 0.03723
 C2920 C 0.53125 0.60833 0.03324
 C2921 C 0.52689 0.59690 0.02878
 C2922 C 0.52331 0.58702 0.02514
 C2923 C 0.51924 0.57507 0.02101
 C2924 C 0.52528 0.56924 0.01126
 C2925 C 0.52177 0.55736 0.00767
 C2926 C 0.51216 0.55112 0.01381
 C2927 C 0.50600 0.55717 0.02348
 C2928 C 0.50953 0.56905 0.02704
 H2929 H 0.53796 0.62348 0.06101
 H2930 H 0.54298 0.63777 0.02455
 H2931 H 0.55155 0.65694 0.03306
 H2932 H 0.54672 0.64247 0.06961
 H2933 H 0.53284 0.57381 0.00655
 H2934 H 0.52673 0.55300 0.00021
 H2935 H 0.49857 0.55266 0.02842
 H2936 H 0.50481 0.57346 0.03463
 C2937 C 0.70440 0.11331 0.53458
 C2938 C 0.71073 0.12145 0.54227
 C2939 C 0.71237 0.11847 0.55460
 C2940 C 0.70764 0.10743 0.55927
 C2941 C 0.70106 0.09908 0.55170
 C2942 C 0.69962 0.10226 0.53920
 C2943 C 0.71528 0.13302 0.53761
 C2944 C 0.71898 0.14279 0.53382
 C2945 C 0.72317 0.15433 0.52950
 C2946 C 0.72664 0.16426 0.52590
 C2947 C 0.73064 0.17621 0.52173
 C2948 C 0.74037 0.18229 0.52767
 C2949 C 0.74400 0.19407 0.52387
 C2950 C 0.73792 0.19993 0.51405
 C2951 C 0.72821 0.19367 0.50808
 C2952 C 0.72460 0.18190 0.51190
 H2953 H 0.70316 0.11549 0.52498
 H2954 H 0.71716 0.12478 0.56068
 H2955 H 0.70868 0.10587 0.56899
 H2956 H 0.69517 0.09610 0.53277
 H2957 H 0.74509 0.17798 0.53531
 H2958 H 0.75149 0.19861 0.52870
 H2959 H 0.72330 0.19790 0.50052
 H2960 H 0.71703 0.17728 0.50726
 C2961 C 0.70511 0.61257 0.03345
 C2962 C 0.70881 0.62203 0.04139
 C2963 C 0.70812 0.62027 0.05406
 C2964 C 0.70369 0.60913 0.05879
 C2965 C 0.69990 0.59958 0.05090
 C2966 C 0.70067 0.60142 0.03817
 C2967 C 0.71317 0.63360 0.03658
 C2968 C 0.71677 0.64337 0.03270
 C2969 C 0.72090 0.65491 0.02831
 C2970 C 0.72438 0.66482 0.02469
 C2971 C 0.72846 0.67674 0.02051
 C2972 C 0.72222 0.68267 0.01095
 C2973 C 0.72597 0.69439 0.00710
 C2974 C 0.73604 0.70036 0.01279
 C2975 C 0.74230 0.69427 0.02235
 C2976 C 0.73852 0.68255 0.02617
 H2977 H 0.70563 0.61383 0.02362
 H2978 H 0.71091 0.62754 0.06029
 H2979 H 0.70304 0.60807 0.06863
 H2980 H 0.69795 0.59419 0.03186
 H2981 H 0.71439 0.67826 0.00652
 H2982 H 0.72091 0.69880 -0.00025
 H2983 H 0.75006 0.69859 0.02697
 H2984 H 0.74340 0.67806 0.03361
 C2985 C 0.20813 0.63997 0.71711
 C2986 C 0.21189 0.63054 0.70917
 C2987 C 0.21098 0.63220 0.69650
 C2988 C 0.20624 0.64320 0.69177
 C2989 C 0.20233 0.65271 0.69965
 C2990 C 0.20338 0.65099 0.71238
 C2991 C 0.21642 0.61903 0.71398
 C2992 C 0.22007 0.60926 0.71783
 C2993 C 0.22420 0.59769 0.72212
 C2994 C 0.22758 0.58769 0.72560
 C2995 C 0.23144 0.57563 0.72955
 C2996 C 0.24123 0.56965 0.72362
 C2997 C 0.24461 0.55768 0.72704
 C2998 C 0.23820 0.55152 0.73646
 C2999 C 0.22848 0.55770 0.74249
 C3000 C 0.22513 0.56966 0.73905
 H3001 H 0.20881 0.63878 0.72693
 H3002 H 0.21380 0.62493 0.69028
 H3003 H 0.20538 0.64416 0.68193
 H3004 H 0.20057 0.65819 0.71868
 H3005 H 0.24616 0.57417 0.71623
 H3006 H 0.25212 0.55322 0.72218
 H3007 H 0.22334 0.55325 0.74977
 H3008 H 0.21751 0.57420 0.74368
 C3009 C 0.20283 0.13626 0.21473
 C3010 C 0.20910 0.12796 0.20717
 C3011 C 0.21075 0.13074 0.19479
 C3012 C 0.20610 0.14174 0.18995
 C3013 C 0.19960 0.15025 0.19741
 C3014 C 0.19813 0.14727 0.20995
 C3015 C 0.21364 0.11647 0.21201
 C3016 C 0.21737 0.10677 0.21595
 C3017 C 0.22163 0.09532 0.22042
 C3018 C 0.22519 0.08545 0.22411
 C3019 C 0.22934 0.07359 0.22837
 C3020 C 0.23924 0.06766 0.22256
 C3021 C 0.24302 0.05595 0.22642
 C3022 C 0.23692 0.05000 0.23618
 C3023 C 0.22704 0.05611 0.24203
 C3024 C 0.22329 0.06782 0.23814
 H3025 H 0.20158 0.13424 0.22437
 H3026 H 0.21550 0.12431 0.18882
 H3027 H 0.20715 0.14314 0.18021
 H3028 H 0.19373 0.15356 0.21629
 H3029 H 0.24397 0.07203 0.21496
 H3030 H 0.25062 0.05152 0.22168
 H3031 H 0.22212 0.05181 0.24954
 H3032 H 0.21559 0.07231 0.24269
 C3033 C 0.71193 1.13235 0.69667
 C3034 C 0.71024 1.12976 0.70908
 C3035 C 0.70393 1.13816 0.71650
 C3036 C 0.69921 1.14908 0.71152
 C3037 C 0.70068 1.15185 0.69893
 C3038 C 0.70724 1.14324 0.69164
 C3039 C 0.71472 1.11832 0.71408
 C3040 C 0.71837 1.10861 0.71809
 C3041 C 0.72251 1.09712 0.72257
 C3042 C 0.72594 1.08719 0.72619
 C3043 C 0.72989 1.07519 0.73027
 C3044 C 0.72373 1.06934 0.73993
 C3045 C 0.72716 1.05742 0.74347
 C3046 C 0.73679 1.05117 0.73736
 C3047 C 0.74304 1.05723 0.72778
 C3048 C 0.73960 1.06915 0.72426
 H3049 H 0.71670 1.12583 0.69080
 H3050 H 0.70265 1.13629 0.72616
 H3051 H 0.69477 1.15545 0.71774
 H3052 H 0.70831 1.14448 0.68188
 H3053 H 0.71618 1.07392 0.74462
 H3054 H 0.72213 1.05305 0.75087
 H3055 H 0.75049 1.05272 0.72286
 H3056 H 0.74441 1.07358 0.71675
 C3057 C 0.70857 0.63015 0.19438
 C3058 C 0.70949 0.62884 0.20709
 C3059 C 0.70552 0.63840 0.21477
 C3060 C 0.70057 0.64920 0.20975
 C3061 C 0.69955 0.65058 0.19698
 C3062 C 0.70364 0.64094 0.18935
 C3063 C 0.71428 0.61757 0.21221
 C3064 C 0.71817 0.60800 0.21631
 C3065 C 0.72258 0.59666 0.22092
 C3066 C 0.72621 0.58684 0.22468
 C3067 C 0.73034 0.57497 0.22894
 C3068 C 0.72404 0.56903 0.23845
 C3069 C 0.72760 0.55720 0.24214
 C3070 C 0.73753 0.55112 0.23633
 C3071 C 0.74395 0.55728 0.22691
 C3072 C 0.74036 0.56912 0.22325
 H3073 H 0.71156 0.62278 0.18835
 H3074 H 0.70620 0.63748 0.22462
 H3075 H 0.69763 0.65652 0.21585
 H3076 H 0.70280 0.64164 0.17949
 H3077 H 0.71624 0.57346 0.24290
 H3078 H 0.72244 0.55275 0.24940
 H3079 H 0.75161 0.55290 0.22222
 H3080 H 0.74528 0.57362 0.21585
 C3081 C 0.54174 0.10990 0.71798
 C3082 C 0.53803 0.11933 0.71003
 C3083 C 0.53883 0.11757 0.69736
 C3084 C 0.54338 0.10648 0.69264
 C3085 C 0.54721 0.09697 0.70055
 C3086 C 0.54630 0.09879 0.71328
 C3087 C 0.53367 0.13092 0.71481
 C3088 C 0.53014 0.14075 0.71862
 C3089 C 0.52614 0.15238 0.72287
 C3090 C 0.52284 0.16242 0.72632
 C3091 C 0.51905 0.17453 0.73022
 C3092 C 0.50939 0.18059 0.72415
 C3093 C 0.50606 0.19258 0.72754
 C3094 C 0.51238 0.19870 0.73706
 C3095 C 0.52198 0.19244 0.74321
 C3096 C 0.52529 0.18045 0.73979
 H3097 H 0.54116 0.11117 0.72780
 H3098 H 0.53604 0.12483 0.69112
 H3099 H 0.54414 0.10543 0.68281
 H3100 H 0.54906 0.09159 0.71959
 H3101 H 0.50452 0.17610 0.71670
 H3102 H 0.49864 0.19710 0.72260
 H3103 H 0.52706 0.19686 0.75056
 H3104 H 0.53281 0.17586 0.74453
 C3105 C 1.04403 0.11098 0.21646
 C3106 C 1.03998 0.12041 0.20868
 C3107 C 1.04066 0.11884 0.19598
 C3108 C 1.04542 0.10792 0.19106
 C3109 C 1.04958 0.09840 0.19879
 C3110 C 1.04880 0.10004 0.21156
 C3111 C 1.03537 0.13182 0.21366
 C3112 C 1.03162 0.14149 0.21765
 C3113 C 1.02736 0.15296 0.22212
 C3114 C 1.02384 0.16286 0.22574
 C3115 C 1.01981 0.17483 0.22984
 C3116 C 1.01007 0.18083 0.22384
 C3117 C 1.00655 0.19272 0.22739
 C3118 C 1.01275 0.19879 0.23701
 C3119 C 1.02241 0.19259 0.24312
 C3120 C 1.02591 0.18070 0.23954
 H3121 H 1.04354 0.11210 0.22630
 H3122 H 1.03761 0.12610 0.18987
 H3123 H 1.04607 0.10702 0.18121
 H3124 H 1.05181 0.09283 0.21774
 H3125 H 1.00530 0.17638 0.21630
 H3126 H 0.99909 0.19720 0.22247
 H3127 H 1.02741 0.19697 0.25054
 H3128 H 1.03349 0.17615 0.24423
 C3129 C 0.21801 0.61083 0.54450
 C3130 C 0.21010 0.62037 0.54083
 C3131 C 0.19726 0.61891 0.54185
 C3132 C 0.19232 0.60798 0.54657
 C3133 C 0.20019 0.59835 0.55034
 C3134 C 0.21309 0.59988 0.54923
 C3135 C 0.21510 0.63177 0.53621
 C3136 C 0.21907 0.64145 0.53244
 C3137 C 0.22347 0.65291 0.52813
 C3138 C 0.22702 0.66283 0.52456
 C3139 C 0.23098 0.67480 0.52043
 C3140 C 0.22475 0.68061 0.51079
 C3141 C 0.22814 0.69251 0.50718
 C3142 C 0.23783 0.69879 0.51319
 C3143 C 0.24416 0.69278 0.52275
 C3144 C 0.24075 0.68087 0.52634
 H3145 H 0.22797 0.61187 0.54374
 H3146 H 0.19105 0.62626 0.53909
 H3147 H 0.18236 0.60716 0.54748
 H3148 H 0.21937 0.59259 0.55194
 H3149 H 0.21715 0.67601 0.50618
 H3150 H 0.22305 0.69685 0.49980
 H3151 H 0.25164 0.69732 0.52759
 H3152 H 0.24561 0.67647 0.53384
 C3153 C 0.20613 0.11269 1.03506
 C3154 C 0.20956 0.12230 1.04293
 C3155 C 0.20839 0.12081 1.05560
 C3156 C 0.20375 0.10979 1.06040
 C3157 C 0.20021 0.10009 1.05257
 C3158 C 0.20148 0.10165 1.03984
 C3159 C 0.21409 0.13377 1.03804
 C3160 C 0.21779 0.14347 1.03408
 C3161 C 0.22201 0.15494 1.02959
 C3162 C 0.22551 0.16481 1.02589
 C3163 C 0.22957 0.17670 1.02161
 C3164 C 0.23946 0.18270 1.02739
 C3165 C 0.24314 0.19443 1.02353
 C3166 C 0.23695 0.20035 1.01381
 C3167 C 0.22709 0.19418 1.00799
 C3168 C 0.22344 0.18244 1.01187
 H3169 H 0.20701 0.11374 1.02524
 H3170 H 0.21097 0.12821 1.06178
 H3171 H 0.20272 0.10894 1.07023
 H3172 H 0.19896 0.09430 1.03360
 H3173 H 0.24426 0.17835 1.03496
 H3174 H 0.25074 0.19891 1.02824
 H3175 H 0.22210 0.19845 1.00051
 H3176 H 0.21575 0.17789 1.00736
 C3177 C 0.20654 0.71892 0.63869
 C3178 C 0.21039 0.71099 0.62931
 C3179 C 0.20969 0.69821 0.63097
 C3180 C 0.20514 0.69335 0.64193
 C3181 C 0.20120 0.70123 0.65141
 C3182 C 0.20197 0.71408 0.64968
 C3183 C 0.21487 0.71589 0.61789
 C3184 C 0.21854 0.71976 0.60821
 C3185 C 0.22273 0.72404 0.59673
 C3186 C 0.22621 0.72749 0.58682
 C3187 C 0.23021 0.73135 0.57485
 C3188 C 0.24002 0.72524 0.56905
 C3189 C 0.24352 0.72855 0.55717
 C3190 C 0.23723 0.73802 0.55091
 C3191 C 0.22750 0.74423 0.55691
 C3192 C 0.22402 0.74090 0.56879
 H3193 H 0.20704 0.72883 0.63751
 H3194 H 0.21259 0.69198 0.62375
 H3195 H 0.20449 0.68343 0.64290
 H3196 H 0.19913 0.72037 0.65685
 H3197 H 0.24485 0.71781 0.57365
 H3198 H 0.25103 0.72356 0.55285
 H3199 H 0.22244 0.75155 0.55238
 H3200 H 0.21640 0.74567 0.57318
 C3201 C 0.20809 0.19548 1.12874
 C3202 C 0.20911 0.20826 1.12723
 C3203 C 0.20555 0.21617 1.13673
 C3204 C 0.20091 0.21132 1.14767
 C3205 C 0.19978 0.19848 1.14925
 C3206 C 0.20347 0.19061 1.13967
 C3207 C 0.21360 0.21321 1.11584
 C3208 C 0.21727 0.21723 1.10621
 C3209 C 0.22147 0.22176 1.09483
 C3210 C 0.22498 0.22549 1.08503
 C3211 C 0.22909 0.22975 1.07323
 C3212 C 0.22287 0.23942 1.06737
 C3213 C 0.22658 0.24326 1.05571
 C3214 C 0.23656 0.23744 1.04973
 C3215 C 0.24282 0.22780 1.05577
 C3216 C 0.23909 0.22399 1.06743
 H3217 H 0.21077 0.18927 1.12142
 H3218 H 0.20631 0.22608 1.13566
 H3219 H 0.19828 0.21761 1.15493
 H3220 H 0.20255 0.18070 1.14053
 H3221 H 0.21509 0.24392 1.07177
 H3222 H 0.22152 0.25067 1.05134
 H3223 H 0.25051 0.22310 1.05145
 H3224 H 0.24395 0.21647 1.07186
 C3225 C 0.71018 0.55323 0.11881
 C3226 C 0.71128 0.54045 0.12023
 C3227 C 0.70764 0.53257 0.11073
 C3228 C 0.70282 0.53746 0.09987
 C3229 C 0.70159 0.55030 0.09840
 C3230 C 0.70538 0.55813 0.10798
 C3231 C 0.71587 0.53546 0.13157
 C3232 C 0.71957 0.53148 0.14120
 C3233 C 0.72375 0.52703 0.15262
 C3234 C 0.72718 0.52344 0.16249
 C3235 C 0.73109 0.51939 0.17443
 C3236 C 0.72487 0.50973 0.18029
 C3237 C 0.72823 0.50625 0.19216
 C3238 C 0.73787 0.51241 0.19835
 C3239 C 0.74421 0.52198 0.19227
 C3240 C 0.74082 0.52544 0.18041
 H3241 H 0.71291 0.55940 0.12614
 H3242 H 0.70846 0.52266 0.11173
 H3243 H 0.70011 0.53120 0.09261
 H3244 H 0.70437 0.56804 0.10720
 H3245 H 0.71729 0.50501 0.17576
 H3246 H 0.72314 0.49885 0.19654
 H3247 H 0.75166 0.52694 0.19674
 H3248 H 0.74568 0.53296 0.17597
 C3249 C 0.70584 1.03265 0.61189
 C3250 C 0.70956 1.04048 0.62140
 C3251 C 0.70874 1.05328 0.61992
 C3252 C 0.70417 1.05824 0.60902
 C3253 C 0.70035 1.05045 0.59941
 C3254 C 0.70126 1.03759 0.60096
 C3255 C 0.71403 1.03546 0.63277
 C3256 C 0.71770 1.03146 0.64241
 C3257 C 0.72188 1.02701 0.65383
 C3258 C 0.72534 1.02343 0.66370
 C3259 C 0.72935 1.01941 0.67562
 C3260 C 0.73907 1.02553 0.68154
 C3261 C 0.74256 1.02207 0.69338
 C3262 C 0.73635 1.01244 0.69948
 C3263 C 0.72671 1.00621 0.69334
 C3264 C 0.72324 1.00969 0.68150
 H3265 H 0.70645 1.02273 0.61293
 H3266 H 0.71153 1.05943 0.62725
 H3267 H 0.70340 1.06817 0.60818
 H3268 H 0.69852 1.03137 0.59368
 H3269 H 0.74384 1.03309 0.67708
 H3270 H 0.75001 1.02708 0.69781
 H3271 H 0.72171 0.99877 0.69775
 H3272 H 0.71567 1.00492 0.67701
 C3273 C 0.53219 0.20713 0.61140
 C3274 C 0.54014 0.21081 0.62085
 C3275 C 0.55298 0.20974 0.61937
 C3276 C 0.55786 0.20493 0.60852
 C3277 C 0.54995 0.20112 0.59899
 C3278 C 0.53706 0.20231 0.60053
 C3279 C 0.53519 0.21541 0.63221
 C3280 C 0.53124 0.21913 0.64185
 C3281 C 0.52684 0.22333 0.65328
 C3282 C 0.52328 0.22678 0.66316
 C3283 C 0.51928 0.23072 0.67511
 C3284 C 0.52526 0.24057 0.68094
 C3285 C 0.52185 0.24398 0.69282
 C3286 C 0.51241 0.23757 0.69905
 C3287 C 0.50632 0.22781 0.69301
 C3288 C 0.50975 0.22442 0.68113
 H3289 H 0.52224 0.20792 0.61246
 H3290 H 0.55922 0.21250 0.62665
 H3291 H 0.56781 0.20396 0.60768
 H3292 H 0.53075 0.19958 0.59331
 H3293 H 0.53267 0.24549 0.67638
 H3294 H 0.52675 0.25152 0.69717
 H3295 H 0.49903 0.22266 0.69752
 H3296 H 0.50509 0.21676 0.67671
 C3297 C 1.04006 0.19712 0.11928
 C3298 C 1.03950 0.20991 0.12098
 C3299 C 1.04364 0.21782 0.11172
 C3300 C 1.04842 0.21296 0.10083
 C3301 C 1.04911 0.20011 0.09908
 C3302 C 1.04483 0.19225 0.10841
 C3303 C 1.03492 0.21485 0.13235
 C3304 C 1.03121 0.21879 0.14200
 C3305 C 1.02700 0.22317 0.15343
 C3306 C 1.02354 0.22672 0.16332
 C3307 C 1.01958 0.23071 0.17526
 C3308 C 1.02566 0.24046 0.18114
 C3309 C 1.02224 0.24390 0.19301
 C3310 C 1.01269 0.23760 0.19918
 C3311 C 1.00650 0.22794 0.19310
 C3312 C 1.00994 0.22452 0.18123
 H3313 H 1.03694 0.19092 0.12641
 H3314 H 1.04324 0.22773 0.11294
 H3315 H 1.05152 0.21924 0.09376
 H3316 H 1.04541 0.18233 0.10742
 H3317 H 1.03316 0.24529 0.17661
 H3318 H 1.02722 0.25137 0.19740
 H3319 H 0.99912 0.22287 0.19756
 H3320 H 1.00519 0.21693 0.17678
 C3321 C 0.63144 0.20876 0.69575
 C3322 C 0.63005 0.20989 0.70844
 C3323 C 0.63971 0.20630 0.71621
 C3324 C 0.65068 0.20151 0.71132
 C3325 C 0.65213 0.20026 0.69857
 C3326 C 0.64239 0.20399 0.69084
 C3327 C 0.61860 0.21448 0.71344
 C3328 C 0.60890 0.21821 0.71746
 C3329 C 0.59740 0.22244 0.72196
 C3330 C 0.58746 0.22593 0.72563
 C3331 C 0.57546 0.22994 0.72978
 C3332 C 0.56954 0.22378 0.73939
 C3333 C 0.55762 0.22727 0.74301
 C3334 C 0.55143 0.23699 0.73703
 C3335 C 0.55756 0.24326 0.72750
 C3336 C 0.56948 0.23974 0.72390
 H3337 H 0.62399 0.21146 0.68965
 H3338 H 0.63874 0.20714 0.72605
 H3339 H 0.65807 0.19886 0.71750
 H3340 H 0.64315 0.20298 0.68100
 H3341 H 0.57408 0.21615 0.74398
 H3342 H 0.55319 0.22223 0.75037
 H3343 H 0.55309 0.25077 0.72268
 H3344 H 0.57396 0.24456 0.71643
 C3345 C 1.13111 0.20822 0.19553
 C3346 C 1.12976 0.20910 0.20825
 C3347 C 1.13936 0.20515 0.21593
 C3348 C 1.15023 0.20027 0.21092
 C3349 C 1.15165 0.19928 0.19815
 C3350 C 1.14197 0.20335 0.19051
 C3351 C 1.11842 0.21382 0.21335
 C3352 C 1.10879 0.21767 0.21744
 C3353 C 1.09737 0.22204 0.22202
 C3354 C 1.08750 0.22564 0.22574
 C3355 C 1.07556 0.22977 0.22995
 C3356 C 1.06963 0.22366 0.23959
 C3357 C 1.05774 0.22723 0.24324
 C3358 C 1.05158 0.23697 0.23725
 C3359 C 1.05773 0.24319 0.22769
 C3360 C 1.06962 0.23959 0.22407
 H3361 H 1.12372 0.21119 0.18950
 H3362 H 1.13841 0.20580 0.22578
 H3363 H 1.15757 0.19734 0.21703
 H3364 H 1.14270 0.20255 0.18065
 H3365 H 1.07413 0.21602 0.24418
 H3366 H 1.05330 0.22223 0.25061
 H3367 H 1.05329 0.25071 0.22286
 H3368 H 1.07411 0.24436 0.21657
 C3369 C 0.11058 0.70538 0.53299
 C3370 C 0.12006 0.70950 0.54074
 C3371 C 0.11851 0.70892 0.55344
 C3372 C 0.10756 0.70420 0.55840
 C3373 C 0.09799 0.69998 0.55071
 C3374 C 0.09961 0.70065 0.53794
 C3375 C 0.13149 0.71411 0.53572
 C3376 C 0.14119 0.71788 0.53173
 C3377 C 0.15270 0.72216 0.52729
 C3378 C 0.16264 0.72570 0.52369
 C3379 C 0.17466 0.72975 0.51962
 C3380 C 0.18053 0.73966 0.52544
 C3381 C 0.19247 0.74320 0.52193
 C3382 C 0.19874 0.73684 0.51254
 C3383 C 0.19266 0.72700 0.50661
 C3384 C 0.18071 0.72348 0.51015
 H3385 H 0.11169 0.70579 0.52314
 H3386 H 0.12581 0.71203 0.55952
 H3387 H 0.10667 0.70364 0.56826
 H3388 H 0.09235 0.69759 0.53179
 H3389 H 0.17594 0.74455 0.53281
 H3390 H 0.19685 0.75080 0.52671
 H3391 H 0.19719 0.72188 0.49936
 H3392 H 0.17627 0.71577 0.50560
 C3393 C 0.11969 0.20782 1.05525
 C3394 C 0.12150 0.20875 1.04260
 C3395 C 0.11205 0.20517 1.03457
 C3396 C 0.10085 0.20061 1.03917
 C3397 C 0.09896 0.19958 1.05187
 C3398 C 0.10851 0.20327 1.05987
 C3399 C 0.13312 0.21322 1.03789
 C3400 C 0.14293 0.21688 1.03406
 C3401 C 0.15450 0.22110 1.02971
 C3402 C 0.16444 0.22463 1.02609
 C3403 C 0.17639 0.22876 1.02190
 C3404 C 0.18214 0.22289 1.01200
 C3405 C 0.19388 0.22670 1.00812
 C3406 C 0.20004 0.23645 1.01410
 C3407 C 0.19412 0.24234 1.02400
 C3408 C 0.18238 0.23851 1.02786
 H3409 H 0.12697 0.21052 1.06155
 H3410 H 0.11334 0.20587 1.02475
 H3411 H 0.09363 0.19798 1.03279
 H3412 H 0.10741 0.20243 1.06968
 H3413 H 0.17759 0.21531 1.00734
 H3414 H 0.19816 0.22193 1.00050
 H3415 H 0.19859 0.24985 1.02884
 H3416 H 0.17802 0.24310 1.03555
 C3417 C 0.61043 0.53266 0.20524
 C3418 C 0.62005 0.54052 0.20888
 C3419 C 0.61860 0.55330 0.20787
 C3420 C 0.60761 0.55823 0.20322
 C3421 C 0.59789 0.55042 0.19948
 C3422 C 0.59941 0.53757 0.20057
 C3423 C 0.63152 0.53553 0.21344
 C3424 C 0.64124 0.53156 0.21717
 C3425 C 0.65277 0.52717 0.22144
 C3426 C 0.66274 0.52363 0.22498
 C3427 C 0.67477 0.51967 0.22907
 C3428 C 0.68066 0.52584 0.23871
 C3429 C 0.69260 0.52242 0.24230
 C3430 C 0.69886 0.51276 0.23628
 C3431 C 0.69277 0.50649 0.22671
 C3432 C 0.68082 0.50994 0.22313
 H3433 H 0.61145 0.52274 0.20599
 H3434 H 0.62601 0.55947 0.21060
 H3435 H 0.60680 0.56815 0.20232
 H3436 H 0.59205 0.53134 0.19790
 H3437 H 0.67607 0.53341 0.24334
 H3438 H 0.69699 0.52746 0.24969
 H3439 H 0.69730 0.49903 0.22185
 H3440 H 0.67636 0.50512 0.21563
 C3441 C 0.60874 1.04289 0.71846
 C3442 C 0.61825 1.03909 0.71060
 C3443 C 0.61658 1.03978 0.69792
 C3444 C 0.60550 1.04433 0.69309
 C3445 C 0.59591 1.04826 0.70090
 C3446 C 0.59763 1.04745 0.71365
 C3447 C 0.62983 1.03472 0.71549
 C3448 C 0.63965 1.03117 0.71939
 C3449 C 0.65128 1.02712 0.72372
 C3450 C 0.66132 1.02376 0.72721
 C3451 C 0.67344 1.01986 0.73112
 C3452 C 0.67936 1.01007 0.72516
 C3453 C 0.69137 1.00664 0.72853
 C3454 C 0.69765 1.01298 0.73793
 C3455 C 0.69154 1.02270 0.74399
 C3456 C 0.67952 1.02612 0.74059
 H3457 H 0.60993 1.04239 0.72830
 H3458 H 0.62391 1.03692 0.69175
 H3459 H 0.60453 1.04500 0.68324
 H3460 H 0.59037 1.05028 0.71989
 H3461 H 0.67475 1.00519 0.71779
 H3462 H 0.69577 0.99912 0.72366
 H3463 H 0.69608 1.02780 0.75125
 H3464 H 0.67504 1.03374 0.74524
 C3465 C 0.88735 0.45444 0.28541
 C3466 C 0.87802 0.45854 0.29334
 C3467 C 0.87979 0.45783 0.30602
 C3468 C 0.89080 0.45301 0.31075
 C3469 C 0.90021 0.44881 0.30287
 C3470 C 0.89837 0.44961 0.29013
 C3471 C 0.86656 0.46327 0.28852
 C3472 C 0.85687 0.46714 0.28458
 C3473 C 0.84543 0.47154 0.28008
 C3474 C 0.83559 0.47520 0.27634
 C3475 C 0.82373 0.47941 0.27197
 C3476 C 0.81766 0.48914 0.27789
 C3477 C 0.80595 0.49296 0.27392
 C3478 C 0.80014 0.48708 0.26394
 C3479 C 0.80640 0.47738 0.25798
 C3480 C 0.81810 0.47358 0.26198
 H3481 H 0.88608 0.45496 0.27558
 H3482 H 0.87261 0.46092 0.31224
 H3483 H 0.89186 0.45235 0.32059
 H3484 H 0.90550 0.44658 0.28383
 H3485 H 0.82192 0.49369 0.28566
 H3486 H 0.80141 0.50042 0.27875
 H3487 H 0.80221 0.47262 0.25030
 H3488 H 0.82271 0.46602 0.25735
 C3489 C 0.87796 0.95579 0.80678
 C3490 C 0.87643 0.95670 0.79409
 C3491 C 0.88594 0.95283 0.78626
 C3492 C 0.89692 0.94800 0.79111
 C3493 C 0.89852 0.94700 0.80386
 C3494 C 0.88892 0.95098 0.81164
 C3495 C 0.86503 0.96146 0.78913
 C3496 C 0.85540 0.96537 0.78510
 C3497 C 0.84403 0.96986 0.78053
 C3498 C 0.83424 0.97360 0.77673
 C3499 C 0.82245 0.97796 0.77235
 C3500 C 0.81656 0.97196 0.76261
 C3501 C 0.80491 0.97592 0.75861
 C3502 C 0.79898 0.98596 0.76432
 C3503 C 0.80505 0.99201 0.77404
 C3504 C 0.81670 0.98802 0.77801
 H3505 H 0.87064 0.95871 0.81291
 H3506 H 0.88486 0.95351 0.77642
 H3507 H 0.90419 0.94515 0.78489
 H3508 H 0.88980 0.95016 0.82148
 H3509 H 0.82092 0.96413 0.75817
 H3510 H 0.80052 0.97102 0.75113
 H3511 H 0.80076 0.99974 0.77867
 H3512 H 0.82116 0.99272 0.78559
 C3513 C 0.36271 0.29556 0.78541
 C3514 C 0.37201 0.29157 0.79341
 C3515 C 0.37016 0.29229 0.80607
 C3516 C 0.35909 0.29705 0.81073
 C3517 C 0.34971 0.30117 0.80277
 C3518 C 0.35162 0.30033 0.79005
 C3519 C 0.38356 0.28694 0.78866
 C3520 C 0.39330 0.28317 0.78478
 C3521 C 0.40480 0.27887 0.78035
 C3522 C 0.41470 0.27530 0.77665
 C3523 C 0.42659 0.27116 0.77233
 C3524 C 0.43250 0.26120 0.77802
 C3525 C 0.44421 0.25740 0.77407
 C3526 C 0.45020 0.26353 0.76436
 C3527 C 0.44413 0.27348 0.75865
 C3528 C 0.43241 0.27726 0.76262
 H3529 H 0.36404 0.29502 0.77559
 H3530 H 0.37733 0.28928 0.81234
 H3531 H 0.35796 0.29774 0.82056
 H3532 H 0.34452 0.30330 0.78370
 H3533 H 0.42809 0.25644 0.78557
 H3534 H 0.44861 0.24973 0.77870
 H3535 H 0.44846 0.27844 0.75118
 H3536 H 0.42794 0.28501 0.75818
 C3537 C 0.86276 0.29564 0.28521
 C3538 C 0.87209 0.29171 0.29321
 C3539 C 0.87025 0.29248 0.30587
 C3540 C 0.85916 0.29722 0.31052
 C3541 C 0.84975 0.30126 0.30255
 C3542 C 0.85166 0.30039 0.28984
 C3543 C 0.88363 0.28708 0.28848
 C3544 C 0.89338 0.28329 0.28462
 C3545 C 0.90489 0.27897 0.28021
 C3546 C 0.91478 0.27538 0.27654
 C3547 C 0.92669 0.27122 0.27225
 C3548 C 0.93256 0.26125 0.27795
 C3549 C 0.94429 0.25743 0.27403
 C3550 C 0.95030 0.26355 0.26433
 C3551 C 0.94425 0.27351 0.25860
 C3552 C 0.93253 0.27730 0.26255
 H3553 H 0.86409 0.29507 0.27539
 H3554 H 0.87743 0.28952 0.31215
 H3555 H 0.85804 0.29793 0.32035
 H3556 H 0.84453 0.30329 0.28348
 H3557 H 0.92813 0.25649 0.28549
 H3558 H 0.94867 0.24976 0.27867
 H3559 H 0.94860 0.27845 0.25114
 H3560 H 0.92807 0.28505 0.25809
 C3561 C 0.38018 0.79195 0.44422
 C3562 C 0.37840 0.79110 0.45688
 C3563 C 0.38775 0.79501 0.46487
 C3564 C 0.39881 0.79985 0.46022
 C3565 C 0.40065 0.80083 0.44751
 C3566 C 0.39123 0.79678 0.43955
 C3567 C 0.36687 0.78644 0.46164
 C3568 C 0.35714 0.78265 0.46553
 C3569 C 0.34564 0.77834 0.46998
 C3570 C 0.33575 0.77476 0.47367
 C3571 C 0.32384 0.77060 0.47795
 C3572 C 0.31804 0.77661 0.48773
 C3573 C 0.30629 0.77285 0.49163
 C3574 C 0.30016 0.76300 0.48577
 C3575 C 0.30614 0.75695 0.47600
 C3576 C 0.31788 0.76074 0.47213
 H3577 H 0.37298 0.78900 0.43795
 H3578 H 0.38647 0.79438 0.47469
 H3579 H 0.40595 0.80276 0.46657
 H3580 H 0.39229 0.79757 0.42973
 H3581 H 0.32255 0.78428 0.49228
 H3582 H 0.30197 0.77774 0.49915
 H3583 H 0.30169 0.74937 0.47125
 H3584 H 0.32228 0.75604 0.46452
 C3585 C 0.38913 0.29433 0.96549
 C3586 C 0.37962 0.29042 0.95768
 C3587 C 0.38110 0.29137 0.94499
 C3588 C 0.39200 0.29630 0.94011
 C3589 C 0.40159 0.30035 0.94788
 C3590 C 0.40005 0.29926 0.96063
 C3591 C 0.36821 0.28569 0.96265
 C3592 C 0.35854 0.28186 0.96665
 C3593 C 0.34708 0.27755 0.97117
 C3594 C 0.33717 0.27401 0.97486
 C3595 C 0.32519 0.26998 0.97907
 C3596 C 0.31914 0.26022 0.97318
 C3597 C 0.30724 0.25671 0.97684
 C3598 C 0.30120 0.26294 0.98646
 C3599 C 0.30747 0.27262 0.99246
 C3600 C 0.31937 0.27610 0.98877
 H3601 H 0.38808 0.29362 0.97533
 H3602 H 0.37377 0.28843 0.93886
 H3603 H 0.39283 0.29717 0.93027
 H3604 H 0.40732 0.30217 0.96683
 H3605 H 0.32355 0.25544 0.96563
 H3606 H 0.30270 0.24924 0.97200
 H3607 H 0.30312 0.27763 0.99988
 H3608 H 0.32396 0.28369 0.99338
 C3609 C 0.78257 0.45470 0.38623
 C3610 C 0.79074 0.45842 0.37700
 C3611 C 0.80354 0.45766 0.37890
 C3612 C 0.80817 0.45315 0.38998
 C3613 C 0.80005 0.44933 0.39931
 C3614 C 0.78719 0.45017 0.39733
 C3615 C 0.78604 0.46289 0.36549
 C3616 C 0.78227 0.46656 0.35576
 C3617 C 0.77802 0.47080 0.34429
 C3618 C 0.77453 0.47436 0.33442
 C3619 C 0.77052 0.47853 0.32256
 C3620 C 0.77668 0.48829 0.31680
 C3621 C 0.77304 0.49213 0.30512
 C3622 C 0.76316 0.48624 0.29903
 C3623 C 0.75697 0.47649 0.30496
 C3624 C 0.76063 0.47267 0.31664
 H3625 H 0.77264 0.45526 0.38486
 H3626 H 0.80995 0.46047 0.37179
 H3627 H 0.81811 0.45244 0.39115
 H3628 H 0.78070 0.44743 0.40439
 H3629 H 0.78436 0.49287 0.32128
 H3630 H 0.77804 0.49964 0.30083
 H3631 H 0.74936 0.47172 0.30055
 H3632 H 0.75582 0.46508 0.32101
 C3633 C 0.78392 0.95391 0.88644
 C3634 C 0.79178 0.95752 0.87691
 C3635 C 0.80463 0.95651 0.87831
 C3636 C 0.80961 0.95189 0.88919
 C3637 C 0.80180 0.94820 0.89883
 C3638 C 0.78888 0.94927 0.89734
 C3639 C 0.78672 0.96214 0.86561
 C3640 C 0.78265 0.96596 0.85605
 C3641 C 0.77807 0.97036 0.84476
 C3642 C 0.77432 0.97405 0.83503
 C3643 C 0.77005 0.97837 0.82331
 C3644 C 0.77599 0.98829 0.81760
 C3645 C 0.77217 0.99221 0.80601
 C3646 C 0.76233 0.98624 0.79994
 C3647 C 0.75633 0.97635 0.80584
 C3648 C 0.76017 0.97245 0.81743
 H3649 H 0.77395 0.95467 0.88546
 H3650 H 0.81080 0.95923 0.87097
 H3651 H 0.81958 0.95101 0.88999
 H3652 H 0.78264 0.94663 0.90464
 H3653 H 0.78367 0.99292 0.82206
 H3654 H 0.77703 0.99983 0.80175
 H3655 H 0.74875 0.97151 0.80144
 H3656 H 0.75552 0.96473 0.82176
 C3657 C 0.29439 0.78351 0.36299
 C3658 C 0.29070 0.79157 0.37232
 C3659 C 0.29150 0.80433 0.37052
 C3660 C 0.29604 0.80902 0.35948
 C3661 C 0.29985 0.80100 0.35008
 C3662 C 0.29894 0.78818 0.35194
 C3663 C 0.28629 0.78680 0.38382
 C3664 C 0.28269 0.78294 0.39353
 C3665 C 0.27855 0.77857 0.40499
 C3666 C 0.27509 0.77497 0.41486
 C3667 C 0.27103 0.77084 0.42672
 C3668 C 0.26098 0.77659 0.43245
 C3669 C 0.25724 0.77285 0.44413
 C3670 C 0.26353 0.76327 0.45024
 C3671 C 0.27357 0.75748 0.44434
 C3672 C 0.27729 0.76126 0.43266
 H3673 H 0.29380 0.77361 0.36428
 H3674 H 0.28872 0.81066 0.37770
 H3675 H 0.29679 0.81892 0.35840
 H3676 H 0.30167 0.78178 0.34482
 H3677 H 0.25609 0.78405 0.42794
 H3678 H 0.24950 0.77753 0.44839
 H3679 H 0.27865 0.75012 0.44877
 H3680 H 0.28510 0.75676 0.42831
 C3681 C 0.29344 0.28361 0.86195
 C3682 C 0.28949 0.29148 0.87134
 C3683 C 0.29049 0.30427 0.86990
 C3684 C 0.29549 0.30919 0.85916
 C3685 C 0.29957 0.30137 0.84970
 C3686 C 0.29845 0.28852 0.85119
 C3687 C 0.28470 0.28648 0.88259
 C3688 C 0.28083 0.28248 0.89215
 C3689 C 0.27647 0.27801 0.90349
 C3690 C 0.27290 0.27437 0.91330
 C3691 C 0.26886 0.27027 0.92518
 C3692 C 0.25923 0.27642 0.93119
 C3693 C 0.25576 0.27290 0.94302
 C3694 C 0.26192 0.26317 0.94901
 C3695 C 0.27145 0.25690 0.94278
 C3696 C 0.27490 0.26044 0.93095
 H3697 H 0.29271 0.27370 0.86297
 H3698 H 0.28752 0.31044 0.87714
 H3699 H 0.29639 0.31911 0.85837
 H3700 H 0.30139 0.28227 0.84402
 H3701 H 0.25452 0.28407 0.92682
 H3702 H 0.24840 0.27795 0.94753
 H3703 H 0.27640 0.24938 0.94709
 H3704 H 0.28239 0.25564 0.92639
 C3705 C 0.45621 0.28436 0.88682
 C3706 C 0.45981 0.29238 0.87744
 C3707 C 0.45871 0.30514 0.87907
 C3708 C 0.45395 0.30988 0.89001
 C3709 C 0.45022 0.30189 0.89948
 C3710 C 0.45145 0.28908 0.89778
 C3711 C 0.46441 0.28756 0.86603
 C3712 C 0.46815 0.28363 0.85639
 C3713 C 0.47240 0.27918 0.84499
 C3714 C 0.47592 0.27549 0.83518
 C3715 C 0.47999 0.27123 0.82336
 C3716 C 0.48979 0.27717 0.81739
 C3717 C 0.49346 0.27334 0.80571
 C3718 C 0.48735 0.26350 0.79983
 C3719 C 0.47758 0.25751 0.80598
 C3720 C 0.47394 0.26136 0.81765
 H3721 H 0.45704 0.27447 0.88566
 H3722 H 0.46141 0.31143 0.87184
 H3723 H 0.45296 0.31977 0.89097
 H3724 H 0.44878 0.28271 0.90495
 H3725 H 0.49452 0.28484 0.82171
 H3726 H 0.50099 0.27819 0.80126
 H3727 H 0.47264 0.24993 0.80173
 H3728 H 0.46631 0.25672 0.82218
 C3729 C 0.95684 0.28335 0.38735
 C3730 C 0.96050 0.29147 0.37807
 C3731 C 0.95959 0.30422 0.37992
 C3732 C 0.95497 0.30883 0.39097
 C3733 C 0.95118 0.30075 0.40032
 C3734 C 0.95220 0.28795 0.39841
 C3735 C 0.96496 0.28677 0.36656
 C3736 C 0.96860 0.28296 0.35684
 C3737 C 0.97274 0.27864 0.34535
 C3738 C 0.97618 0.27506 0.33547
 C3739 C 0.98016 0.27093 0.32357
 C3740 C 0.98992 0.27693 0.31761
 C3741 C 0.99354 0.27319 0.30588
 C3742 C 0.98741 0.26339 0.29995
 C3743 C 0.97767 0.25736 0.30609
 C3744 C 0.97407 0.26111 0.31781
 H3745 H 0.95751 0.27346 0.38602
 H3746 H 0.96234 0.31059 0.37278
 H3747 H 0.95413 0.31873 0.39209
 H3748 H 0.94949 0.28150 0.40549
 H3749 H 0.99468 0.28456 0.32197
 H3750 H 1.00105 0.27807 0.30144
 H3751 H 0.97272 0.24981 0.30181
 H3752 H 0.96648 0.25643 0.32234
 C3753 C 0.45693 0.37872 0.80570
 C3754 C 0.45781 0.37732 0.79299
 C3755 C 0.45405 0.38691 0.78527
 C3756 C 0.44938 0.39786 0.79024
 C3757 C 0.44841 0.39935 0.80301
 C3758 C 0.45227 0.38966 0.81068
 C3759 C 0.46241 0.36594 0.78792
 C3760 C 0.46620 0.35633 0.78383
 C3761 C 0.47055 0.34496 0.77923
 C3762 C 0.47420 0.33516 0.77544
 C3763 C 0.47845 0.32335 0.77111
 C3764 C 0.47229 0.31743 0.76149
 C3765 C 0.47613 0.30576 0.75758
 C3766 C 0.48621 0.29983 0.76327
 C3767 C 0.49243 0.30593 0.77287
 C3768 C 0.48856 0.31761 0.77675
 H3769 H 0.45977 0.37133 0.81176
 H3770 H 0.45471 0.38592 0.77542
 H3771 H 0.44661 0.40521 0.78410
 H3772 H 0.45148 0.39044 0.82053
 H3773 H 0.46442 0.32179 0.75708
 H3774 H 0.47110 0.30133 0.75021
 H3775 H 0.50020 0.30165 0.77748
 H3776 H 0.49338 0.32210 0.78423
 C3777 C 0.95727 0.37917 0.30532
 C3778 C 0.95789 0.37753 0.29262
 C3779 C 0.95390 0.38696 0.28481
 C3780 C 0.94925 0.39797 0.28967
 C3781 C 0.94856 0.39969 0.30243
 C3782 C 0.95264 0.39017 0.31019
 C3783 C 0.96247 0.36610 0.28766
 C3784 C 0.96625 0.35644 0.28366
 C3785 C 0.97060 0.34503 0.27914
 C3786 C 0.97425 0.33521 0.27542
 C3787 C 0.97850 0.32338 0.27114
 C3788 C 0.97238 0.31745 0.26149
 C3789 C 0.97623 0.30577 0.25761
 C3790 C 0.98628 0.29984 0.26336
 C3791 C 0.99245 0.30595 0.27298
 C3792 C 0.98857 0.31763 0.27683
 H3793 H 0.96028 0.37192 0.31145
 H3794 H 0.95435 0.38579 0.27497
 H3795 H 0.94631 0.40518 0.28346
 H3796 H 0.95206 0.39114 0.32004
 H3797 H 0.96454 0.32181 0.25704
 H3798 H 0.97124 0.30134 0.25022
 H3799 H 1.00019 0.30166 0.27764
 H3800 H 0.99336 0.32212 0.28433
 C3801 C 0.29222 0.87953 0.44463
 C3802 C 0.29152 0.87780 0.45730
 C3803 C 0.29546 0.88716 0.46522
 C3804 C 0.30016 0.89820 0.46049
 C3805 C 0.30097 0.90001 0.44776
 C3806 C 0.29691 0.89056 0.43988
 C3807 C 0.28692 0.86632 0.46213
 C3808 C 0.28316 0.85662 0.46605
 C3809 C 0.27886 0.84517 0.47050
 C3810 C 0.27527 0.83531 0.47418
 C3811 C 0.27111 0.82345 0.47842
 C3812 C 0.27715 0.81765 0.48819
 C3813 C 0.27338 0.80594 0.49205
 C3814 C 0.26350 0.79984 0.48617
 C3815 C 0.25741 0.80582 0.47643
 C3816 C 0.26120 0.81753 0.47259
 H3817 H 0.28924 0.87233 0.43841
 H3818 H 0.29495 0.88592 0.47505
 H3819 H 0.30308 0.90536 0.46679
 H3820 H 0.29757 0.89160 0.43004
 H3821 H 0.28485 0.82214 0.49275
 H3822 H 0.27830 0.80163 0.49955
 H3823 H 0.24980 0.80140 0.47167
 H3824 H 0.25648 0.82192 0.46500
 C3825 C 0.29406 0.38900 0.96557
 C3826 C 0.29014 0.37940 0.95792
 C3827 C 0.29106 0.38067 0.94521
 C3828 C 0.29594 0.39146 0.94014
 C3829 C 0.30000 0.40115 0.94774
 C3830 C 0.29896 0.39982 0.96052
 C3831 C 0.28544 0.36811 0.96307
 C3832 C 0.28163 0.35852 0.96721
 C3833 C 0.27731 0.34715 0.97185
 C3834 C 0.27375 0.33732 0.97560
 C3835 C 0.26966 0.32542 0.97983
 C3836 C 0.25983 0.31944 0.97395
 C3837 C 0.25629 0.30758 0.97757
 C3838 C 0.26257 0.30151 0.98714
 C3839 C 0.27231 0.30771 0.99314
 C3840 C 0.27583 0.31957 0.98949
 H3841 H 0.29338 0.38812 0.97543
 H3842 H 0.28811 0.37327 0.93920
 H3843 H 0.29679 0.39213 0.93029
 H3844 H 0.30187 0.40716 0.96660
 H3845 H 0.25501 0.32386 0.96644
 H3846 H 0.24877 0.30310 0.97273
 H3847 H 0.27737 0.30334 1.00052
 H3848 H 0.28348 0.32411 0.99409
 C3849 C 0.79239 0.37061 0.30447
 C3850 C 0.79185 0.37223 0.29178
 C3851 C 0.79590 0.36279 0.28399
 C3852 C 0.80051 0.35178 0.28889
 C3853 C 0.80113 0.35009 0.30165
 C3854 C 0.79699 0.35962 0.30939
 C3855 C 0.78731 0.38365 0.28679
 C3856 C 0.78358 0.39332 0.28278
 C3857 C 0.77928 0.40474 0.27828
 C3858 C 0.77567 0.41459 0.27458
 C3859 C 0.77146 0.42644 0.27036
 C3860 C 0.77761 0.43239 0.26075
 C3861 C 0.77380 0.44411 0.25695
 C3862 C 0.76378 0.45005 0.26272
 C3863 C 0.75758 0.44392 0.27230
 C3864 C 0.76141 0.43221 0.27609
 H3865 H 0.78934 0.37788 0.31059
 H3866 H 0.79551 0.36394 0.27415
 H3867 H 0.80350 0.34456 0.28270
 H3868 H 0.79751 0.35867 0.31924
 H3869 H 0.78543 0.42802 0.25628
 H3870 H 0.77881 0.44855 0.24957
 H3871 H 0.74985 0.44821 0.27698
 H3872 H 0.75661 0.42770 0.28356
   
