data_POSCAR
  _audit_creation_date              2014-09-24
  _audit_creation_method            'ToBaCCo'
  _symmetry_space_group_name_H-M    'P1'
  _symmetry_Int_Tables_number       1
  _symmetry_cell_setting            triclinic
  loop_
  _symmetry_equiv_pos_as_xyz
 x,y,z
_cell_length_a 76.6295
_cell_length_b 76.1358
_cell_length_c 77.8152
_cell_angle_alpha 90.109100
_cell_angle_beta 89.865400
_cell_angle_gamma 89.953800
loop_
  _atom_site_label
  _atom_site_type_symbol
  _atom_site_fract_x
  _atom_site_fract_y
  _atom_site_fract_z
N1 N 0.37762 0.32874 0.34367
 N2 N 0.37704 0.34068 0.33148
 C3 C 0.38947 0.33706 0.31972
 C4 C 0.39825 0.32219 0.32496
 C5 C 0.39043 0.31719 0.34012
 H6 H 0.39140 0.34410 0.30781
 H7 H 0.39320 0.30546 0.34745
 Cu8 Cu 0.35905 0.35875 0.33127
 Cu9 Cu 0.36038 0.32765 0.36195
 Cu10 Cu 0.32721 0.35855 0.36128
 N11 N 0.34007 0.37575 0.33097
 N12 N 0.32771 0.37565 0.34275
 C13 C 0.31579 0.38804 0.33894
 C14 C 0.32102 0.39628 0.32405
 C15 C 0.33637 0.38820 0.31925
 H16 H 0.30387 0.39040 0.34605
 H17 H 0.34387 0.39073 0.30772
 N18 N 0.32900 0.34021 0.37902
 N19 N 0.34177 0.32856 0.37935
 C20 C 0.33870 0.31699 0.39207
 C21 C 0.32336 0.32166 0.40007
 C22 C 0.31745 0.33633 0.39153
 H23 H 0.34644 0.30543 0.39468
 H24 H 0.30519 0.34304 0.39367
 H25 H 0.34041 0.33916 0.34792
 H26 H 0.35369 0.35403 0.36184
 N27 N 0.37486 0.82628 -0.15459
 N28 N 0.37622 0.83827 -0.16669
 C29 C 0.38911 0.83364 -0.17761
 C30 C 0.39616 0.81805 -0.17191
 C31 C 0.38685 0.81363 -0.15737
 H32 H 0.39257 0.84060 -0.18923
 H33 H 0.38814 0.80175 -0.14987
 Cu34 Cu 0.35983 0.85773 -0.16772
 Cu35 Cu 0.35648 0.82699 -0.13717
 Cu36 Cu 0.32694 0.86157 -0.13964
 N37 N 0.34314 0.87689 -0.16950
 N38 N 0.33038 0.87836 -0.15823
 C39 C 0.31986 0.89167 -0.16288
 C40 C 0.32642 0.89888 -0.17778
 C41 C 0.34110 0.88919 -0.18178
 H42 H 0.30775 0.89513 -0.15652
 H43 H 0.34905 0.89037 -0.19323
 N44 N 0.32570 0.84325 -0.12179
 N45 N 0.33695 0.83011 -0.12082
 C46 C 0.33195 0.81925 -0.10807
 C47 C 0.31696 0.82594 -0.10074
 C48 C 0.31327 0.84106 -0.10970
 H49 H 0.33825 0.80699 -0.10482
 H50 H 0.30196 0.84939 -0.10800
 H51 H 0.33850 0.84039 -0.15191
 H52 H 0.35263 0.85376 -0.13747
 N53 N 0.87773 0.32714 -0.15693
 N54 N 0.87655 0.33879 -0.16933
 C55 C 0.88913 0.33553 -0.18107
 C56 C 0.89863 0.32121 -0.17555
 C57 C 0.89107 0.31615 -0.16028
 H58 H 0.89075 0.34245 -0.19309
 H59 H 0.89441 0.30475 -0.15271
 Cu60 Cu 0.85765 0.35596 -0.16944
 Cu61 Cu 0.86067 0.32559 -0.13845
 Cu62 Cu 0.82693 0.35599 -0.13855
 N63 N 0.83887 0.37323 -0.16929
 N64 N 0.82694 0.37320 -0.15709
 C65 C 0.81500 0.38572 -0.16043
 C66 C 0.81979 0.39399 -0.17546
 C67 C 0.83490 0.38579 -0.18084
 H68 H 0.80336 0.38815 -0.15289
 H69 H 0.84204 0.38835 -0.19258
 N70 N 0.82927 0.33752 -0.12093
 N71 N 0.84219 0.32602 -0.12087
 C72 C 0.83942 0.31428 -0.10823
 C73 C 0.82413 0.31867 -0.09999
 C74 C 0.81794 0.33337 -0.10830
 H75 H 0.84737 0.30281 -0.10580
 H76 H 0.80564 0.33991 -0.10591
 H77 H 0.83989 0.33645 -0.15181
 H78 H 0.85342 0.35179 -0.13869
 N79 N 0.87310 0.82537 0.34625
 N80 N 0.87370 0.83694 0.33371
 C81 C 0.88652 0.83242 0.32268
 C82 C 0.89430 0.81732 0.32870
 C83 C 0.88551 0.81311 0.34360
 H84 H 0.88959 0.83920 0.31085
 H85 H 0.88758 0.80167 0.35157
 Cu86 Cu 0.85696 0.85615 0.33255
 Cu87 Cu 0.85552 0.82639 0.36438
 Cu88 Cu 0.82606 0.86096 0.36283
 N89 N 0.84039 0.87553 0.33181
 N90 N 0.82849 0.87742 0.34389
 C91 C 0.81801 0.89099 0.33988
 C92 C 0.82372 0.89794 0.32455
 C93 C 0.83784 0.88785 0.31964
 H94 H 0.80651 0.89486 0.34704
 H95 H 0.84508 0.88884 0.30773
 N96 N 0.82564 0.84298 0.38096
 N97 N 0.83678 0.82974 0.38152
 C98 C 0.83214 0.81893 0.39445
 C99 C 0.81752 0.82580 0.40232
 C100 C 0.81367 0.84095 0.39349
 H101 H 0.83835 0.80653 0.39736
 H102 H 0.80242 0.84930 0.39549
 H103 H 0.83669 0.83941 0.35032
 H104 H 0.85190 0.85319 0.36331
 N105 N 0.62400 0.66898 0.33918
 N106 N 0.62572 0.65682 0.32725
 C107 C 0.61374 0.65957 0.31489
 C108 C 0.60405 0.67412 0.31944
 C109 C 0.61087 0.67985 0.33483
 H110 H 0.61258 0.65205 0.30314
 H111 H 0.60706 0.69147 0.34194
 Cu112 Cu 0.64436 0.63951 0.32857
 Cu113 Cu 0.63987 0.67079 0.35867
 Cu114 Cu 0.67298 0.63977 0.36108
 N115 N 0.66301 0.62220 0.32989
 N116 N 0.67406 0.62233 0.34281
 C117 C 0.68632 0.60994 0.34019
 C118 C 0.68267 0.60164 0.32489
 C119 C 0.66790 0.60970 0.31859
 H120 H 0.69752 0.60773 0.34834
 H121 H 0.66174 0.60719 0.30634
 N122 N 0.66977 0.65847 0.37829
 N123 N 0.65723 0.67035 0.37736
 C124 C 0.65945 0.68218 0.39008
 C125 C 0.67396 0.67738 0.39938
 C126 C 0.68026 0.66241 0.39161
 H127 H 0.65170 0.69391 0.39190
 H128 H 0.69215 0.65553 0.39485
 H129 H 0.66115 0.65932 0.34676
 H130 H 0.64651 0.64459 0.35937
 N131 N 0.62313 0.16886 -0.16311
 N132 N 0.62541 0.15666 -0.17491
 C133 C 0.61360 0.15900 -0.18753
 C134 C 0.60344 0.17334 -0.18325
 C135 C 0.60981 0.17933 -0.16779
 H136 H 0.61287 0.15137 -0.19924
 H137 H 0.60556 0.19089 -0.16084
 Cu138 Cu 0.64448 0.13984 -0.17304
 Cu139 Cu 0.63862 0.17139 -0.14344
 Cu140 Cu 0.67251 0.14133 -0.14000
 N141 N 0.66350 0.12299 -0.17108
 N142 N 0.67435 0.12358 -0.15801
 C143 C 0.68689 0.11136 -0.16024
 C144 C 0.68360 0.10270 -0.17545
 C145 C 0.66877 0.11036 -0.18210
 H146 H 0.69798 0.10948 -0.15186
 H147 H 0.66278 0.10747 -0.19435
 N148 N 0.66849 0.16028 -0.12313
 N149 N 0.65565 0.17179 -0.12448
 C150 C 0.65741 0.18402 -0.11205
 C151 C 0.67194 0.17990 -0.10249
 C152 C 0.67871 0.16488 -0.10980
 H153 H 0.64934 0.19560 -0.11064
 H154 H 0.69076 0.15843 -0.10628
 H155 H 0.66045 0.16030 -0.15478
 H156 H 0.64598 0.14535 -0.14223
 N157 N 0.12249 0.67002 -0.15990
 N158 N 0.12348 0.65868 -0.17264
 C159 C 0.11084 0.66222 -0.18410
 C160 C 0.10151 0.67643 -0.17818
 C161 C 0.10920 0.68120 -0.16287
 H162 H 0.10906 0.65555 -0.19625
 H163 H 0.10594 0.69244 -0.15497
 Cu164 Cu 0.14190 0.64126 -0.17396
 Cu165 Cu 0.13965 0.67050 -0.14151
 Cu166 Cu 0.17211 0.63878 -0.14266
 N167 N 0.15962 0.62309 -0.17383
 N168 N 0.17137 0.62204 -0.16158
 C169 C 0.18254 0.60888 -0.16528
 C170 C 0.17733 0.60135 -0.18056
 C171 C 0.16287 0.61063 -0.18570
 H172 H 0.19398 0.60554 -0.15785
 H173 H 0.15575 0.60889 -0.19756
 N174 N 0.17064 0.65687 -0.12457
 N175 N 0.15820 0.66888 -0.12410
 C176 C 0.16146 0.68012 -0.11111
 C177 C 0.17658 0.67486 -0.10308
 C178 C 0.18216 0.66018 -0.11191
 H179 H 0.15398 0.69183 -0.10827
 H180 H 0.19417 0.65304 -0.10980
 H181 H 0.16002 0.65938 -0.15523
 H182 H 0.14561 0.64401 -0.14300
 N183 N 0.12308 0.16945 0.33721
 N184 N 0.12490 0.15752 0.32508
 C185 C 0.11294 0.16047 0.31273
 C186 C 0.10318 0.17491 0.31751
 C187 C 0.10993 0.18035 0.33302
 H188 H 0.11185 0.15318 0.30084
 H189 H 0.10606 0.19182 0.34031
 Cu190 Cu 0.14355 0.14014 0.32612
 Cu191 Cu 0.13892 0.17105 0.35669
 Cu192 Cu 0.17169 0.13974 0.35920
 N193 N 0.16189 0.12250 0.32777
 N194 N 0.17271 0.12229 0.34087
 C195 C 0.18471 0.10959 0.33837
 C196 C 0.18114 0.10145 0.32295
 C197 C 0.16666 0.10992 0.31649
 H198 H 0.19570 0.10705 0.34671
 H199 H 0.16062 0.10759 0.30415
 N200 N 0.16856 0.15850 0.37645
 N201 N 0.15616 0.17052 0.37544
 C202 C 0.15854 0.18247 0.38803
 C203 C 0.17300 0.17761 0.39738
 C204 C 0.17910 0.16247 0.38973
 H205 H 0.15098 0.19435 0.38968
 H206 H 0.19096 0.15553 0.39296
 H207 H 0.16031 0.15947 0.34490
 H208 H 0.14532 0.14467 0.35707
 N209 N 0.62335 0.33076 0.66317
 N210 N 0.62597 0.34294 0.67490
 C211 C 0.61434 0.34078 0.68776
 C212 C 0.60394 0.32660 0.68371
 C213 C 0.60997 0.32049 0.66812
 H214 H 0.61388 0.34846 0.69945
 H215 H 0.60545 0.30899 0.66127
 Cu216 Cu 0.64514 0.35955 0.67262
 Cu217 Cu 0.63849 0.32799 0.64319
 Cu218 Cu 0.67257 0.35765 0.63894
 N219 N 0.66414 0.37629 0.67003
 N220 N 0.67478 0.37552 0.65675
 C221 C 0.68733 0.38776 0.65858
 C222 C 0.68427 0.39663 0.67375
 C223 C 0.66956 0.38906 0.68076
 H224 H 0.69826 0.38955 0.64995
 H225 H 0.66375 0.39216 0.69307
 N226 N 0.66816 0.33863 0.62229
 N227 N 0.65520 0.32731 0.62391
 C228 C 0.65665 0.31500 0.61150
 C229 C 0.67110 0.31888 0.60167
 C230 C 0.67816 0.33383 0.60881
 H231 H 0.64843 0.30353 0.61029
 H232 H 0.69023 0.34009 0.60505
 H233 H 0.66062 0.33888 0.65407
 H234 H 0.64607 0.35399 0.64180
 N235 N 0.62359 0.83095 1.16279
 N236 N 0.62573 0.84310 1.17465
 C237 C 0.61393 0.84059 1.18729
 C238 C 0.60392 0.82621 1.18298
 C239 C 0.61036 0.82034 1.16745
 H240 H 0.61311 0.84814 1.19905
 H241 H 0.60624 0.80878 1.16047
 Cu242 Cu 0.64459 0.86008 1.17290
 Cu243 Cu 0.63915 0.82871 1.14307
 Cu244 Cu 0.67277 0.85908 1.13980
 N245 N 0.66339 0.87711 1.17101
 N246 N 0.67432 0.87673 1.15794
 C247 C 0.68666 0.88909 1.16029
 C248 C 0.68318 0.89760 1.17557
 C249 C 0.66842 0.88972 1.18211
 H250 H 0.69777 0.89118 1.15195
 H251 H 0.66233 0.89246 1.19437
 N252 N 0.66900 0.84019 1.12280
 N253 N 0.65622 0.82862 1.12407
 C254 C 0.65806 0.81652 1.11152
 C255 C 0.67258 0.82078 1.10195
 C256 C 0.67928 0.83575 1.10939
 H257 H 0.65004 0.80494 1.11001
 H258 H 0.69128 0.84230 1.10588
 H259 H 0.66085 0.83993 1.15445
 H260 H 0.64628 0.85487 1.14203
 N261 N 0.12296 0.33183 1.16338
 N262 N 0.12603 0.34399 1.17502
 C263 C 0.11429 0.34238 1.18786
 C264 C 0.10334 0.32859 1.18388
 C265 C 0.10919 0.32213 1.16836
 H266 H 0.11411 0.35015 1.19951
 H267 H 0.10427 0.31074 1.16161
 Cu268 Cu 0.14582 0.35986 1.17269
 Cu269 Cu 0.13799 0.32828 1.14349
 Cu270 Cu 0.17289 0.35682 1.13871
 N271 N 0.16525 0.37604 1.16965
 N272 N 0.17572 0.37487 1.15626
 C273 C 0.18846 0.38696 1.15771
 C274 C 0.18573 0.39616 1.17275
 C275 C 0.17099 0.38894 1.18007
 H276 H 0.19924 0.38851 1.14885
 H277 H 0.16529 0.39245 1.19233
 N278 N 0.16786 0.33769 1.12236
 N279 N 0.15462 0.32676 1.12422
 C280 C 0.15560 0.31426 1.11195
 C281 C 0.17006 0.31763 1.10195
 C282 C 0.17759 0.33246 1.10884
 H283 H 0.14703 0.30304 1.11091
 H284 H 0.18976 0.33838 1.10486
 H285 H 0.16052 0.33861 1.15415
 H286 H 0.14630 0.35407 1.14190
 N287 N 0.12256 0.83031 0.66050
 N288 N 0.12421 0.84136 0.67339
 C289 C 0.11169 0.83811 0.68512
 C290 C 0.10173 0.82435 0.67922
 C291 C 0.10894 0.81958 0.66363
 H292 H 0.11045 0.84462 0.69742
 H293 H 0.10514 0.80859 0.65564
 Cu294 Cu 0.14353 0.85771 0.67484
 Cu295 Cu 0.13935 0.82957 0.64167
 Cu296 Cu 0.17175 0.86131 0.64175
 N297 N 0.16022 0.87676 0.67346
 N298 N 0.17134 0.87816 0.66063
 C299 C 0.18230 0.89160 0.66383
 C300 C 0.17762 0.89896 0.67940
 C301 C 0.16367 0.88926 0.68520
 H302 H 0.19336 0.89517 0.65591
 H303 H 0.15714 0.89067 0.69746
 N304 N 0.16993 0.84307 0.62382
 N305 N 0.15756 0.83099 0.62378
 C306 C 0.16066 0.81959 0.61086
 C307 C 0.17559 0.82482 0.60240
 C308 C 0.18122 0.83965 0.61092
 H309 H 0.15321 0.80780 0.60836
 H310 H 0.19315 0.84680 0.60848
 H311 H 0.16054 0.84027 0.65439
 H312 H 0.14534 0.85602 0.64368
 N313 N 0.37678 0.67440 0.65549
 N314 N 0.37664 0.66287 0.66806
 C315 C 0.38895 0.66725 0.67962
 C316 C 0.39721 0.68221 0.67387
 C317 C 0.38919 0.68650 0.65862
 H318 H 0.39134 0.66050 0.69160
 H319 H 0.39162 0.69801 0.65084
 Cu320 Cu 0.35963 0.64397 0.66860
 Cu321 Cu 0.35975 0.67386 0.63694
 Cu322 Cu 0.32916 0.64024 0.63788
 N323 N 0.34241 0.62525 0.66913
 N324 N 0.33071 0.62371 0.65688
 C325 C 0.31988 0.61037 0.66071
 C326 C 0.32515 0.60323 0.67609
 C327 C 0.33938 0.61296 0.68121
 H328 H 0.30845 0.60677 0.65337
 H329 H 0.34647 0.61163 0.69314
 N330 N 0.32977 0.65829 0.61975
 N331 N 0.34143 0.67106 0.61938
 C332 C 0.33739 0.68218 0.60655
 C333 C 0.32259 0.67605 0.59852
 C334 C 0.31802 0.66098 0.60717
 H335 H 0.34401 0.69443 0.60391
 H336 H 0.30638 0.65323 0.60512
 H337 H 0.34016 0.66136 0.65058
 H338 H 0.35515 0.64717 0.63774
 N339 N 0.37770 0.17264 1.15623
 N340 N 0.37698 0.16064 1.16834
 C341 C 0.38950 0.16401 1.18006
 C342 C 0.39845 0.17879 1.17483
 C343 C 0.39065 0.18400 1.15975
 H344 H 0.39137 0.15686 1.19190
 H345 H 0.39355 0.19572 1.15246
 Cu346 Cu 0.35862 0.14294 1.16825
 Cu347 Cu 0.36048 0.17411 1.13792
 Cu348 Cu 0.32775 0.14265 1.13778
 N349 N 0.34027 0.12523 1.16815
 N350 N 0.32831 0.12514 1.15606
 C351 C 0.31663 0.11238 1.15937
 C352 C 0.32160 0.10404 1.17428
 C353 C 0.33656 0.11248 1.17962
 H354 H 0.30499 0.10984 1.15193
 H355 H 0.34376 0.10999 1.19130
 N356 N 0.32943 0.16144 1.12044
 N357 N 0.34189 0.17342 1.12050
 C358 C 0.33862 0.18528 1.10809
 C359 C 0.32349 0.18044 1.09987
 C360 C 0.31792 0.16537 1.10796
 H361 H 0.34611 0.19708 1.10580
 H362 H 0.30588 0.15840 1.10553
 H363 H 0.34025 0.16240 1.15126
 H364 H 0.35416 0.14781 1.13767
 N365 N 0.87650 0.67379 1.15682
 N366 N 0.87611 0.66152 1.16869
 C367 C 0.88834 0.66512 1.18061
 C368 C 0.89679 0.68034 1.17580
 C369 C 0.88898 0.68555 1.16073
 H370 H 0.89041 0.65775 1.19230
 H371 H 0.89159 0.69747 1.15365
 Cu372 Cu 0.85872 0.64288 1.16823
 Cu373 Cu 0.85957 0.67476 1.13830
 Cu374 Cu 0.82765 0.64262 1.13760
 N375 N 0.84032 0.62525 1.16786
 N376 N 0.82833 0.62513 1.15578
 C377 C 0.81670 0.61233 1.15914
 C378 C 0.82173 0.60405 1.17406
 C379 C 0.83667 0.61254 1.17935
 H380 H 0.80504 0.60975 1.15176
 H381 H 0.84385 0.61014 1.19106
 N382 N 0.82913 0.66144 1.12031
 N383 N 0.84136 0.67366 1.12056
 C384 C 0.83808 0.68542 1.10807
 C385 C 0.82318 0.68029 1.09960
 C386 C 0.81775 0.66513 1.10763
 H387 H 0.84539 0.69735 1.10588
 H388 H 0.80591 0.65791 1.10500
 H389 H 0.83972 0.66216 1.15165
 H390 H 0.85393 0.64818 1.13768
 N391 N 0.87855 0.17388 0.65705
 N392 N 0.87827 0.16147 0.66879
 C393 C 0.89084 0.16474 0.68046
 C394 C 0.89941 0.17989 0.67562
 C395 C 0.89130 0.18540 0.66081
 H396 H 0.89306 0.15720 0.69202
 H397 H 0.89390 0.19738 0.65381
 Cu398 Cu 0.86053 0.14311 0.66860
 Cu399 Cu 0.86119 0.17537 0.63894
 Cu400 Cu 0.82857 0.14398 0.63886
 N401 N 0.84163 0.12598 0.66860
 N402 N 0.82927 0.12633 0.65690
 C403 C 0.81740 0.11381 0.66048
 C404 C 0.82267 0.10519 0.67514
 C405 C 0.83801 0.11321 0.68005
 H406 H 0.80546 0.11163 0.65342
 H407 H 0.84553 0.11043 0.69147
 N408 N 0.83002 0.16285 0.62162
 N409 N 0.84251 0.17480 0.62163
 C410 C 0.83927 0.18660 0.60914
 C411 C 0.82411 0.18177 0.60094
 C412 C 0.81851 0.16675 0.60912
 H413 H 0.84687 0.19830 0.60672
 H414 H 0.80652 0.15972 0.60666
 H415 H 0.84157 0.16310 0.65278
 H416 H 0.85503 0.14895 0.63823
 N417 N 0.32923 0.37524 0.65561
 N418 N 0.34065 0.37414 0.66816
 C419 C 0.33699 0.38656 0.68001
 C420 C 0.32263 0.39585 0.67444
 C421 C 0.31796 0.38837 0.65901
 H422 H 0.34371 0.38822 0.69211
 H423 H 0.30670 0.39165 0.65129
 Cu424 Cu 0.35824 0.35567 0.66837
 Cu425 Cu 0.32850 0.35841 0.63683
 Cu426 Cu 0.35994 0.32565 0.63665
 N427 N 0.37613 0.33748 0.66791
 N428 N 0.37682 0.32589 0.65536
 C429 C 0.38968 0.31429 0.65859
 C430 C 0.39743 0.31895 0.67390
 C431 C 0.38855 0.33363 0.67955
 H432 H 0.39267 0.30290 0.65079
 H433 H 0.39054 0.34049 0.69157
 N434 N 0.34174 0.32763 0.61886
 N435 N 0.32982 0.34018 0.61892
 C436 C 0.31827 0.33705 0.60625
 C437 C 0.32323 0.32192 0.59786
 C438 C 0.33806 0.31619 0.60614
 H439 H 0.30649 0.34453 0.60400
 H440 H 0.34494 0.30403 0.60375
 H441 H 0.33979 0.33765 0.64991
 H442 H 0.35476 0.35221 0.63745
 N443 N 0.32956 0.87338 0.15604
 N444 N 0.34163 0.87323 0.16805
 C445 C 0.33819 0.88607 0.17952
 C446 C 0.32329 0.89468 0.17433
 C447 C 0.31805 0.88632 0.15947
 H448 H 0.34551 0.88854 0.19114
 H449 H 0.30637 0.88897 0.15214
 Cu450 Cu 0.35986 0.85542 0.16819
 Cu451 Cu 0.32885 0.85585 0.13769
 Cu452 Cu 0.36183 0.82458 0.13740
 N453 N 0.37821 0.83772 0.16801
 N454 N 0.37906 0.82590 0.15569
 C455 C 0.39208 0.81455 0.15911
 C456 C 0.39975 0.81959 0.17433
 C457 C 0.39067 0.83425 0.17974
 H458 H 0.39509 0.80294 0.15165
 H459 H 0.39244 0.84124 0.19172
 N460 N 0.34322 0.82529 0.12004
 N461 N 0.33051 0.83703 0.12023
 C462 C 0.31898 0.83299 0.10776
 C463 C 0.32483 0.81812 0.09940
 C464 C 0.34012 0.81352 0.10746
 H465 H 0.30683 0.83981 0.10546
 H466 H 0.34786 0.80191 0.10493
 H467 H 0.34148 0.83614 0.15092
 H468 H 0.35525 0.85099 0.13751
 N469 N 0.83115 0.37651 0.15784
 N470 N 0.84303 0.37431 0.16982
 C471 C 0.84088 0.38673 0.18202
 C472 C 0.82703 0.39720 0.17728
 C473 C 0.82107 0.39037 0.16198
 H474 H 0.84820 0.38757 0.19385
 H475 H 0.80965 0.39455 0.15494
 Cu476 Cu 0.85920 0.35461 0.16906
 Cu477 Cu 0.82830 0.36008 0.13890
 Cu478 Cu 0.85746 0.32533 0.13660
 N479 N 0.87586 0.33540 0.16720
 N480 N 0.87524 0.32406 0.15443
 C481 C 0.88768 0.31177 0.15673
 C482 C 0.89652 0.31575 0.17166
 C483 C 0.88872 0.33072 0.17803
 H484 H 0.88973 0.30046 0.14854
 H485 H 0.89183 0.33730 0.18996
 N486 N 0.83854 0.32886 0.11979
 N487 N 0.82746 0.34213 0.12069
 C488 C 0.81525 0.34017 0.10840
 C489 C 0.81891 0.32503 0.09938
 C490 C 0.83366 0.31811 0.10689
 H491 H 0.80400 0.34856 0.10671
 H492 H 0.83978 0.30571 0.10376
 H493 H 0.83879 0.33834 0.15102
 H494 H 0.85415 0.35223 0.13824
 N495 N 0.82862 0.87469 0.65677
 N496 N 0.84063 0.87447 0.66884
 C497 C 0.83711 0.88720 0.68039
 C498 C 0.82222 0.89581 0.67520
 C499 C 0.81707 0.88758 0.66025
 H500 H 0.84439 0.88961 0.69205
 H501 H 0.80545 0.89030 0.65284
 Cu502 Cu 0.85891 0.85674 0.66889
 Cu503 Cu 0.82812 0.85739 0.63822
 Cu504 Cu 0.86125 0.82628 0.63781
 N505 N 0.87730 0.83912 0.66867
 N506 N 0.87828 0.82745 0.65622
 C507 C 0.89123 0.81604 0.65965
 C508 C 0.89871 0.82089 0.67499
 C509 C 0.88961 0.83549 0.68049
 H510 H 0.89426 0.80449 0.65211
 H511 H 0.89122 0.84229 0.69259
 N512 N 0.84281 0.82713 0.62034
 N513 N 0.83003 0.83879 0.62057
 C514 C 0.81853 0.83470 0.60810
 C515 C 0.82448 0.81989 0.59972
 C516 C 0.83979 0.81536 0.60776
 H517 H 0.80627 0.84136 0.60590
 H518 H 0.84753 0.80374 0.60529
 H519 H 0.84074 0.83757 0.65133
 H520 H 0.85454 0.85263 0.63816
 N521 N 0.67176 0.62302 0.66230
 N522 N 0.66038 0.62375 0.67497
 C523 C 0.66408 0.61109 0.68644
 C524 C 0.67846 0.60200 0.68063
 C525 C 0.68313 0.60987 0.66534
 H526 H 0.65727 0.60900 0.69845
 H527 H 0.69431 0.60671 0.65740
 Cu528 Cu 0.64238 0.64170 0.67604
 Cu529 Cu 0.67165 0.64004 0.64362
 Cu530 Cu 0.63864 0.67120 0.64408
 N531 N 0.62363 0.65888 0.67561
 N532 N 0.62204 0.67023 0.66299
 C533 C 0.60859 0.68110 0.66644
 C534 C 0.60142 0.67616 0.68195
 C535 C 0.61123 0.66212 0.68749
 H536 H 0.60485 0.69225 0.65868
 H537 H 0.60987 0.65532 0.69961
 N538 N 0.65665 0.67017 0.62603
 N539 N 0.66931 0.65838 0.62589
 C540 C 0.68042 0.66213 0.61294
 C541 C 0.67436 0.67688 0.60461
 C542 C 0.65937 0.68171 0.61320
 H543 H 0.69250 0.65527 0.61033
 H544 H 0.65163 0.69334 0.61086
 H545 H 0.65966 0.66024 0.65691
 H546 H 0.64513 0.64476 0.64499
 N547 N 0.67293 0.12241 0.15867
 N548 N 0.66187 0.12286 0.17161
 C549 C 0.66631 0.11041 0.18307
 C550 C 0.68082 0.10176 0.17689
 C551 C 0.68478 0.10966 0.16145
 H552 H 0.66002 0.10831 0.19536
 H553 H 0.69592 0.10693 0.15331
 Cu554 Cu 0.64362 0.14055 0.17291
 Cu555 Cu 0.67228 0.13955 0.14016
 Cu556 Cu 0.63950 0.17097 0.14192
 N557 N 0.62506 0.15795 0.17353
 N558 N 0.62341 0.16974 0.16130
 C559 C 0.61016 0.18066 0.16530
 C560 C 0.60319 0.17530 0.18077
 C561 C 0.61291 0.16096 0.18572
 H562 H 0.60636 0.19203 0.15789
 H563 H 0.61163 0.15376 0.19762
 N564 N 0.65704 0.17000 0.12336
 N565 N 0.66949 0.15800 0.12267
 C566 C 0.68026 0.16173 0.10945
 C567 C 0.67421 0.17668 0.10150
 C568 C 0.65957 0.18167 0.11059
 H569 H 0.69218 0.15475 0.10644
 H570 H 0.65198 0.19348 0.10865
 H571 H 0.66064 0.15961 0.15408
 H572 H 0.64582 0.14462 0.14195
 N573 N 0.17130 0.62392 0.16038
 N574 N 0.15959 0.62431 0.17277
 C575 C 0.16332 0.61170 0.18430
 C576 C 0.17803 0.60297 0.17878
 C577 C 0.18290 0.61102 0.16363
 H578 H 0.15629 0.60942 0.19615
 H579 H 0.19433 0.60816 0.15595
 Cu580 Cu 0.14131 0.64197 0.17326
 Cu581 Cu 0.17131 0.64104 0.14172
 Cu582 Cu 0.13835 0.67239 0.14227
 N583 N 0.12290 0.65952 0.17348
 N584 N 0.12168 0.67131 0.16121
 C585 C 0.10848 0.68241 0.16492
 C586 C 0.10111 0.67717 0.18026
 C587 C 0.11054 0.66272 0.18542
 H588 H 0.10503 0.69387 0.15747
 H589 H 0.10896 0.65559 0.19733
 N590 N 0.15644 0.67135 0.12422
 N591 N 0.16904 0.65948 0.12403
 C592 C 0.18011 0.66317 0.11104
 C593 C 0.17411 0.67795 0.10273
 C594 C 0.15918 0.68287 0.11137
 H595 H 0.19212 0.65620 0.10836
 H596 H 0.15146 0.69450 0.10901
 H597 H 0.15911 0.66102 0.15515
 H598 H 0.14488 0.64602 0.14240
 N599 N 0.17242 0.12048 0.65718
 N600 N 0.16072 0.12039 0.66957
 C601 C 0.16525 0.10816 0.68126
 C602 C 0.18047 0.10025 0.67573
 C603 C 0.18473 0.10835 0.66050
 H604 H 0.15850 0.10578 0.69325
 H605 H 0.19638 0.10621 0.65290
 Cu606 Cu 0.14160 0.13729 0.67021
 Cu607 Cu 0.17206 0.13758 0.63877
 Cu608 Cu 0.14010 0.16957 0.64043
 N609 N 0.12434 0.15607 0.67123
 N610 N 0.12381 0.16857 0.65959
 C611 C 0.11139 0.18028 0.66394
 C612 C 0.10376 0.17479 0.67905
 C613 C 0.11226 0.15947 0.68343
 H614 H 0.10860 0.19227 0.65704
 H615 H 0.11029 0.15181 0.69497
 N616 N 0.15771 0.16836 0.62198
 N617 N 0.16973 0.15595 0.62126
 C618 C 0.18060 0.15928 0.60805
 C619 C 0.17510 0.17442 0.60011
 C620 C 0.16066 0.17996 0.60922
 H621 H 0.19226 0.15188 0.60503
 H622 H 0.15347 0.19203 0.60728
 H623 H 0.16001 0.15697 0.65341
 H624 H 0.14557 0.14310 0.63958
 N625 N 0.32938 0.62401 0.34149
 N626 N 0.34207 0.62426 0.33007
 C627 C 0.33902 0.61181 0.31810
 C628 C 0.32373 0.60333 0.32239
 C629 C 0.31788 0.61137 0.33721
 H630 H 0.34688 0.60956 0.30675
 H631 H 0.30580 0.60874 0.34393
 Cu632 Cu 0.36062 0.64170 0.33104
 Cu633 Cu 0.32781 0.64114 0.36008
 Cu634 Cu 0.36002 0.67295 0.36174
 N635 N 0.37810 0.66025 0.33188
 N636 N 0.37790 0.67229 0.34402
 C637 C 0.39052 0.68415 0.34087
 C638 C 0.39903 0.67924 0.32602
 C639 C 0.39086 0.66411 0.32054
 H640 H 0.39270 0.69599 0.34827
 H641 H 0.39344 0.65701 0.30875
 N642 N 0.34089 0.67163 0.37859
 N643 N 0.32850 0.65960 0.37793
 C644 C 0.31654 0.66314 0.39021
 C645 C 0.32179 0.67800 0.39894
 C646 C 0.33717 0.68309 0.39128
 H647 H 0.30451 0.65598 0.39214
 H648 H 0.34457 0.69481 0.39418
 H649 H 0.34084 0.66080 0.34711
 H650 H 0.35410 0.64639 0.36145
 N651 N 0.33017 0.12343 0.84404
 N652 N 0.34208 0.12420 0.83186
 C653 C 0.33871 0.11168 0.82004
 C654 C 0.32402 0.10267 0.82525
 C655 C 0.31887 0.11043 0.84043
 H656 H 0.34581 0.10983 0.80815
 H657 H 0.30723 0.10747 0.84777
 Cu658 Cu 0.35968 0.14261 0.83197
 Cu659 Cu 0.32887 0.14061 0.86257
 Cu660 Cu 0.36030 0.17341 0.86285
 N661 N 0.37730 0.16102 0.83211
 N662 N 0.37755 0.17292 0.84439
 C663 C 0.39011 0.18477 0.84095
 C664 C 0.39811 0.17998 0.82578
 C665 C 0.38971 0.16493 0.82041
 H666 H 0.39263 0.19648 0.84843
 H667 H 0.39192 0.15791 0.80852
 N668 N 0.34174 0.17164 0.88035
 N669 N 0.32976 0.15917 0.88022
 C670 C 0.31799 0.16248 0.89271
 C671 C 0.32288 0.17766 0.90104
 C672 C 0.33789 0.18321 0.89293
 H673 H 0.30618 0.15506 0.89492
 H674 H 0.34483 0.19532 0.89536
 H675 H 0.34055 0.16106 0.84939
 H676 H 0.35505 0.14684 0.86267
 N677 N 0.83036 0.62230 0.84236
 N678 N 0.84218 0.62384 0.83017
 C679 C 0.83915 0.61161 0.81797
 C680 C 0.82480 0.60194 0.82295
 C681 C 0.81947 0.60905 0.83839
 H682 H 0.84629 0.61033 0.80603
 H683 H 0.80801 0.60543 0.84571
 Cu684 Cu 0.85939 0.64261 0.83086
 Cu685 Cu 0.82865 0.63879 0.86147
 Cu686 Cu 0.85945 0.67211 0.86299
 N687 N 0.87677 0.66121 0.83194
 N688 N 0.87681 0.67259 0.84468
 C689 C 0.88933 0.68465 0.84187
 C690 C 0.89753 0.68054 0.82661
 C691 C 0.88928 0.66569 0.82055
 H692 H 0.89173 0.69603 0.84987
 H693 H 0.89171 0.65915 0.80843
 N694 N 0.84085 0.66944 0.88032
 N695 N 0.82909 0.65677 0.87974
 C696 C 0.81714 0.65956 0.89219
 C697 C 0.82169 0.67459 0.90097
 C698 C 0.83668 0.68059 0.89315
 H699 H 0.80540 0.65191 0.89404
 H700 H 0.84335 0.69279 0.89590
 H701 H 0.83991 0.65993 0.84903
 H702 H 0.85472 0.64546 0.86172
 N703 N 0.83237 0.12282 0.34435
 N704 N 0.84229 0.12530 0.33074
 C705 C 0.83798 0.11353 0.31854
 C706 C 0.82480 0.10311 0.32494
 C707 C 0.82147 0.10928 0.34131
 H708 H 0.84353 0.11296 0.30576
 H709 H 0.81146 0.10478 0.35008
 Cu710 Cu 0.85925 0.14422 0.32996
 Cu711 Cu 0.83377 0.13799 0.36454
 Cu712 Cu 0.85635 0.17702 0.35831
 N713 N 0.87698 0.16246 0.33097
 N714 N 0.87577 0.17534 0.34220
 C715 C 0.88842 0.18718 0.33905
 C716 C 0.89807 0.18127 0.32523
 C717 C 0.89049 0.16563 0.32032
 H718 H 0.88981 0.19961 0.34566
 H719 H 0.89389 0.15778 0.30920
 N720 N 0.84021 0.17325 0.37765
 N721 N 0.83182 0.15833 0.38022
 C722 C 0.82089 0.16033 0.39369
 C723 C 0.82271 0.17723 0.39986
 C724 C 0.83498 0.18507 0.38946
 H725 H 0.81161 0.15059 0.39802
 H726 H 0.83913 0.19864 0.38994
 H727 H 0.83825 0.15874 0.34881
 H728 H 0.85781 0.15067 0.36068
 N729 N 0.67278 0.37770 0.34127
 N730 N 0.66200 0.37706 0.32815
 C731 C 0.66630 0.38972 0.31685
 C732 C 0.68043 0.39871 0.32329
 C733 C 0.68433 0.39078 0.33873
 H734 H 0.66017 0.39176 0.30451
 H735 H 0.69524 0.39374 0.34703
 Cu736 Cu 0.64418 0.35903 0.32621
 Cu737 Cu 0.67211 0.36040 0.35964
 Cu738 Cu 0.63938 0.32914 0.35779
 N739 N 0.62529 0.34202 0.32609
 N740 N 0.62331 0.33050 0.33852
 C741 C 0.60979 0.31988 0.33471
 C742 C 0.60301 0.32516 0.31917
 C743 C 0.61310 0.33913 0.31397
 H744 H 0.60569 0.30872 0.34229
 H745 H 0.61204 0.34618 0.30197
 N746 N 0.65688 0.32984 0.37628
 N747 N 0.66935 0.34179 0.37700
 C748 C 0.68009 0.33792 0.39016
 C749 C 0.67401 0.32293 0.39804
 C750 C 0.65937 0.31807 0.38895
 H751 H 0.69199 0.34488 0.39320
 H752 H 0.65173 0.30629 0.39086
 H753 H 0.66078 0.34030 0.34571
 H754 H 0.64567 0.35560 0.35728
 N755 N 0.67247 0.87791 0.84099
 N756 N 0.66139 0.87756 0.82811
 C757 C 0.66565 0.89027 0.81684
 C758 C 0.68006 0.89897 0.82305
 C759 C 0.68417 0.89083 0.83833
 H760 H 0.65927 0.89255 0.80467
 H761 H 0.69528 0.89355 0.84645
 Cu762 Cu 0.64320 0.85987 0.82653
 Cu763 Cu 0.67189 0.86048 0.85926
 Cu764 Cu 0.63880 0.82953 0.85772
 N765 N 0.62432 0.84285 0.82635
 N766 N 0.62248 0.83117 0.83866
 C767 C 0.60890 0.82062 0.83491
 C768 C 0.60191 0.82611 0.81952
 C769 C 0.61195 0.84013 0.81436
 H770 H 0.60488 0.80938 0.84241
 H771 H 0.61073 0.84733 0.80246
 N772 N 0.65659 0.82999 0.87596
 N773 N 0.66919 0.84181 0.87655
 C774 C 0.68008 0.83778 0.88954
 C775 C 0.67396 0.82282 0.89744
 C776 C 0.65914 0.81814 0.88856
 H777 H 0.69209 0.84460 0.89245
 H778 H 0.65140 0.80645 0.89054
 H779 H 0.65999 0.84061 0.84536
 H780 H 0.64532 0.85586 0.85751
 N781 N 0.17394 0.37947 0.84286
 N782 N 0.16365 0.37866 0.82938
 C783 C 0.16858 0.39103 0.81801
 C784 C 0.18258 0.39997 0.82486
 C785 C 0.18574 0.39233 0.84055
 H786 H 0.16301 0.39286 0.80538
 H787 H 0.19640 0.39527 0.84917
 Cu788 Cu 0.14580 0.36062 0.82742
 Cu789 Cu 0.17284 0.36241 0.86130
 Cu790 Cu 0.14111 0.33014 0.85846
 N791 N 0.12739 0.34307 0.82652
 N792 N 0.12558 0.33120 0.83867
 C793 C 0.11238 0.32033 0.83449
 C794 C 0.10560 0.32580 0.81899
 C795 C 0.11539 0.34016 0.81422
 H796 H 0.10838 0.30901 0.84187
 H797 H 0.11417 0.34755 0.80242
 N798 N 0.15806 0.33144 0.87749
 N799 N 0.16987 0.34401 0.87869
 C800 C 0.18032 0.34069 0.89217
 C801 C 0.17480 0.32539 0.89979
 C802 C 0.16076 0.31974 0.89021
 H803 H 0.19183 0.34814 0.89552
 H804 H 0.15374 0.30753 0.89179
 H805 H 0.16235 0.34199 0.84698
 H806 H 0.14654 0.35661 0.85845
 N807 N 0.17289 0.87634 0.34159
 N808 N 0.16020 0.87805 0.33036
 C809 C 0.16445 0.89068 0.31900
 C810 C 0.18058 0.89724 0.32347
 C811 C 0.18565 0.88787 0.33779
 H812 H 0.15672 0.89437 0.30797
 H813 H 0.19795 0.88891 0.34451
 Cu814 Cu 0.13988 0.86286 0.33096
 Cu815 Cu 0.17244 0.85835 0.35947
 Cu816 Cu 0.13858 0.82822 0.35754
 N817 N 0.12266 0.84440 0.32811
 N818 N 0.12208 0.83097 0.33871
 C819 C 0.10951 0.81982 0.33356
 C820 C 0.10187 0.82668 0.31903
 C821 C 0.11050 0.84222 0.31580
 H822 H 0.10656 0.80735 0.33955
 H823 H 0.10849 0.85096 0.30504
 N824 N 0.15660 0.82772 0.37557
 N825 N 0.16954 0.83916 0.37630
 C826 C 0.18020 0.83473 0.38936
 C827 C 0.17356 0.81991 0.39713
 C828 C 0.15869 0.81573 0.38812
 H829 H 0.19225 0.84134 0.39256
 H830 H 0.15044 0.80440 0.39015
 H831 H 0.15839 0.84101 0.34451
 H832 H 0.14583 0.85424 0.36058
 C833 C 0.25317 1.04613 0.24910
 C834 C 0.26243 1.03711 0.23633
 C835 C 0.26232 1.01865 0.23620
 C836 C 0.25360 1.00892 0.24917
 C837 C 0.24484 1.01858 0.26218
 C838 C 0.24420 1.03701 0.26195
 C839 C 0.25351 0.98899 0.24910
 C840 C 0.24197 0.97938 0.25983
 C841 C 0.24222 0.96094 0.26026
 C842 C 0.25314 0.95182 0.24893
 C843 C 0.26423 0.96079 0.23768
 C844 C 0.26485 0.97923 0.23826
 H845 H 0.25294 1.06036 0.24903
 H846 H 0.26883 1.01225 0.22562
 H847 H 0.23859 1.01215 0.27286
 H848 H 0.23275 0.98588 0.26814
 H849 H 0.25299 0.93758 0.24883
 H850 H 0.27413 0.98562 0.22995
 C851 C 0.24972 0.54670 0.74600
 C852 C 0.26281 0.53804 0.73669
 C853 C 0.26455 0.51974 0.73820
 C854 C 0.25257 0.50985 0.74805
 C855 C 0.23912 0.51894 0.75675
 C856 C 0.23802 0.53730 0.75627
 C857 C 0.25389 0.49020 0.74919
 C858 C 0.24621 0.48109 0.76305
 C859 C 0.24613 0.46269 0.76362
 C860 C 0.25500 0.45322 0.75088
 C861 C 0.26342 0.46191 0.73735
 C862 C 0.26246 0.48029 0.73634
 H863 H 0.24898 0.56091 0.74564
 H864 H 0.27519 0.51339 0.73151
 H865 H 0.22917 0.51194 0.76382
 H866 H 0.24024 0.48811 0.77361
 H867 H 0.25524 0.43900 0.75140
 H868 H 0.26809 0.48661 0.72522
 C869 C 0.75599 -0.04702 0.24825
 C870 C 0.76540 -0.03801 0.26085
 C871 C 0.76493 -0.01958 0.26125
 C872 C 0.75561 -0.00981 0.24878
 C873 C 0.74650 -0.01946 0.23603
 C874 C 0.74635 -0.03789 0.23594
 C875 C 0.75527 0.01013 0.24915
 C876 C 0.74387 0.01981 0.23840
 C877 C 0.74375 0.03824 0.23841
 C878 C 0.75436 0.04731 0.24999
 C879 C 0.76545 0.03827 0.26113
 C880 C 0.76626 0.01986 0.26031
 H881 H 0.75608 -0.06125 0.24809
 H882 H 0.77166 -0.01328 0.27170
 H883 H 0.73956 -0.01306 0.22579
 H884 H 0.73503 0.01340 0.22970
 H885 H 0.75399 0.06154 0.25034
 H886 H 0.77544 0.01350 0.26869
 C887 C 0.75454 0.45142 0.74816
 C888 C 0.76267 0.46016 0.76182
 C889 C 0.76188 0.47858 0.76268
 C890 C 0.75366 0.48846 0.74963
 C891 C 0.74617 0.47925 0.73570
 C892 C 0.74609 0.46082 0.73516
 C893 C 0.75257 0.50819 0.75062
 C894 C 0.73950 0.51745 0.74155
 C895 C 0.73854 0.53584 0.74213
 C896 C 0.75010 0.54510 0.75266
 C897 C 0.76286 0.53633 0.76221
 C898 C 0.76439 0.51800 0.76073
 H899 H 0.75471 0.43720 0.74772
 H900 H 0.76736 0.48493 0.77386
 H901 H 0.74044 0.48621 0.72502
 H902 H 0.72971 0.51056 0.73419
 H903 H 0.74951 0.55932 0.75307
 H904 H 0.77478 0.51156 0.76766
 C905 C 0.25610 0.45288 0.24519
 C906 C 0.26396 0.46168 0.25895
 C907 C 0.26288 0.48007 0.25989
 C908 C 0.25464 0.48990 0.24683
 C909 C 0.24730 0.48063 0.23284
 C910 C 0.24752 0.46220 0.23221
 C911 C 0.25330 0.50961 0.24800
 C912 C 0.24014 0.51878 0.23901
 C913 C 0.23884 0.53714 0.23989
 C914 C 0.25018 0.54644 0.25064
 C915 C 0.26307 0.53775 0.26010
 C916 C 0.26494 0.51947 0.25830
 H917 H 0.25649 0.43867 0.24469
 H918 H 0.26811 0.48645 0.27117
 H919 H 0.24143 0.48755 0.22221
 H920 H 0.23052 0.51184 0.23149
 H921 H 0.24930 0.56063 0.25129
 H922 H 0.27543 0.51311 0.26514
 C923 C 0.75479 1.04803 0.75117
 C924 C 0.76352 1.03904 0.73801
 C925 C 0.76297 1.02059 0.73757
 C926 C 0.75446 1.01086 0.75064
 C927 C 0.74630 1.02044 0.76405
 C928 C 0.74596 1.03888 0.76410
 C929 C 0.75394 0.99097 0.75025
 C930 C 0.74214 0.98148 0.76077
 C931 C 0.74206 0.96306 0.76101
 C932 C 0.75283 0.95385 0.74961
 C933 C 0.76412 0.96273 0.73850
 C934 C 0.76513 0.98114 0.73932
 H935 H 0.75481 1.06226 0.75131
 H936 H 0.76897 1.01418 0.72669
 H937 H 0.74028 1.01391 0.77481
 H938 H 0.73297 0.98810 0.76908
 H939 H 0.75241 0.93962 0.74938
 H940 H 0.77461 0.98749 0.73118
 C941 C 0.75478 0.54710 0.25071
 C942 C 0.76365 0.53801 0.23771
 C943 C 0.76360 0.51956 0.23774
 C944 C 0.75555 0.51000 0.25118
 C945 C 0.74730 0.51965 0.26444
 C946 C 0.74636 0.53804 0.26397
 C947 C 0.75563 0.49019 0.25137
 C948 C 0.74350 0.48071 0.26149
 C949 C 0.74400 0.46231 0.26233
 C950 C 0.75576 0.45312 0.25191
 C951 C 0.76737 0.46204 0.24111
 C952 C 0.76775 0.48047 0.24141
 H953 H 0.75439 0.56132 0.25048
 H954 H 0.76962 0.51294 0.22698
 H955 H 0.74166 0.51315 0.27544
 H956 H 0.73363 0.48738 0.26896
 H957 H 0.75580 0.43889 0.25211
 H958 H 0.77742 0.48699 0.23361
 C959 C 0.25180 -0.04676 0.75121
 C960 C 0.26482 -0.03805 0.76049
 C961 C 0.26610 -0.01968 0.75940
 C962 C 0.25369 -0.00977 0.75010
 C963 C 0.24032 -0.01897 0.74142
 C964 C 0.23968 -0.03736 0.74145
 C965 C 0.25439 0.00999 0.74964
 C966 C 0.24575 0.01949 0.73659
 C967 C 0.24522 0.03791 0.73671
 C968 C 0.25450 0.04707 0.74935
 C969 C 0.26382 0.03806 0.76204
 C970 C 0.26336 0.01964 0.76239
 H971 H 0.25136 -0.06099 0.75129
 H972 H 0.27669 -0.01331 0.76607
 H973 H 0.23006 -0.01205 0.73478
 H974 H 0.23944 0.01277 0.72607
 H975 H 0.25441 0.06130 0.74937
 H976 H 0.26972 0.01308 0.77296
 C977 C 0.24352 0.24713 1.04590
 C978 C 0.23023 0.25570 1.03685
 C979 C 0.23077 0.25592 1.01882
 C980 C 0.24501 0.24866 1.00969
 C981 C 0.25843 0.24051 1.01922
 C982 C 0.25753 0.23932 1.03719
 C983 C 0.24601 0.24983 0.99042
 C984 C 0.25648 0.23807 0.98082
 C985 C 0.25814 0.23971 0.96292
 C986 C 0.24831 0.25245 0.95434
 C987 C 0.23737 0.26393 0.96342
 C988 C 0.23668 0.26290 0.98141
 H989 H 0.24305 0.24668 1.05980
 H990 H 0.21988 0.26173 1.01211
 H991 H 0.26993 0.23538 1.01292
 H992 H 0.26360 0.22766 0.98709
 H993 H 0.24884 0.25311 0.94044
 H994 H 0.22903 0.27262 0.98820
 C995 C 0.24681 0.74953 0.54634
 C996 C 0.23590 0.76123 0.53762
 C997 C 0.23615 0.76150 0.51956
 C998 C 0.24620 0.74922 0.51002
 C999 C 0.25646 0.73706 0.51935
 C1000 C 0.25734 0.73765 0.53735
 C1001 C 0.24603 0.74907 0.49059
 C1002 C 0.25922 0.74031 0.48107
 C1003 C 0.25884 0.73964 0.46304
 C1004 C 0.24570 0.74864 0.45425
 C1005 C 0.23273 0.75786 0.46319
 C1006 C 0.23270 0.75767 0.48124
 H1007 H 0.24712 0.74968 0.56026
 H1008 H 0.22827 0.77127 0.51323
 H1009 H 0.26408 0.72713 0.51288
 H1010 H 0.27015 0.73415 0.48737
 H1011 H 0.24557 0.74849 0.44033
 H1012 H 0.22195 0.76405 0.48770
 C1013 C 0.24367 0.75311 -0.04623
 C1014 C 0.25359 0.76531 -0.03701
 C1015 C 0.25411 0.76419 -0.01902
 C1016 C 0.24571 0.75037 -0.01015
 C1017 C 0.23611 0.73802 -0.01990
 C1018 C 0.23460 0.73966 -0.03783
 C1019 C 0.24695 0.74898 0.00911
 C1020 C 0.23421 0.73987 0.01878
 C1021 C 0.23536 0.73871 0.03676
 C1022 C 0.24902 0.74728 0.04527
 C1023 C 0.26167 0.75666 0.03610
 C1024 C 0.26085 0.75701 0.01809
 H1025 H 0.24339 0.75376 -0.06014
 H1026 H 0.26096 0.77438 -0.01212
 H1027 H 0.22965 0.72712 -0.01371
 H1028 H 0.22304 0.73399 0.01258
 H1029 H 0.24972 0.74677 0.05917
 H1030 H 0.27130 0.76348 0.01125
 C1031 C 0.24824 0.24891 0.45308
 C1032 C 0.26070 0.25851 0.46221
 C1033 C 0.26051 0.25806 0.48022
 C1034 C 0.24734 0.24900 0.48938
 C1035 C 0.23462 0.23981 0.47970
 C1036 C 0.23546 0.23914 0.46166
 C1037 C 0.24724 0.24880 0.50881
 C1038 C 0.23760 0.23608 0.51806
 C1039 C 0.23767 0.23573 0.53610
 C1040 C 0.24819 0.24758 0.54509
 C1041 C 0.25826 0.26003 0.53638
 C1042 C 0.25718 0.26105 0.51840
 H1043 H 0.24831 0.24922 0.43916
 H1044 H 0.27107 0.26457 0.48677
 H1045 H 0.22414 0.23281 0.48591
 H1046 H 0.23025 0.22601 0.51154
 H1047 H 0.24831 0.24736 0.55901
 H1048 H 0.26445 0.27133 0.51215
 C1049 C 0.74579 0.74942 1.04526
 C1050 C 0.73242 0.75810 1.03647
 C1051 C 0.73201 0.75739 1.01842
 C1052 C 0.74535 0.74886 1.00893
 C1053 C 0.75894 0.74070 1.01829
 C1054 C 0.75893 0.74049 1.03631
 C1055 C 0.74514 0.74845 0.98951
 C1056 C 0.75547 0.73625 0.98020
 C1057 C 0.75598 0.73637 0.96216
 C1058 C 0.74500 0.74779 0.95320
 C1059 C 0.73410 0.75954 0.96195
 C1060 C 0.73469 0.76028 0.97997
 H1061 H 0.74597 0.74962 1.05918
 H1062 H 0.72098 0.76332 1.01209
 H1063 H 0.76988 0.73465 1.01184
 H1064 H 0.76343 0.72667 0.98669
 H1065 H 0.74500 0.74759 0.93927
 H1066 H 0.72680 0.77009 0.98630
 C1067 C 0.74565 0.24865 0.54565
 C1068 C 0.73200 0.25686 0.53683
 C1069 C 0.73169 0.25620 0.51880
 C1070 C 0.74540 0.24831 0.50933
 C1071 C 0.75922 0.24052 0.51868
 C1072 C 0.75916 0.24024 0.53673
 C1073 C 0.74530 0.24824 0.48993
 C1074 C 0.75579 0.23631 0.48047
 C1075 C 0.75629 0.23671 0.46244
 C1076 C 0.74519 0.24814 0.45363
 C1077 C 0.73417 0.25966 0.46253
 C1078 C 0.73477 0.26014 0.48056
 H1079 H 0.74577 0.24883 0.55957
 H1080 H 0.72047 0.26171 0.51242
 H1081 H 0.77036 0.23488 0.51220
 H1082 H 0.76386 0.22674 0.48688
 H1083 H 0.74519 0.24813 0.43970
 H1084 H 0.72681 0.26981 0.48704
 C1085 C 0.74693 0.24937 -0.04610
 C1086 C 0.76003 0.25814 -0.03698
 C1087 C 0.75944 0.25832 -0.01896
 C1088 C 0.74533 0.25080 -0.00989
 C1089 C 0.73213 0.24234 -0.01947
 C1090 C 0.73307 0.24124 -0.03747
 C1091 C 0.74435 0.25199 0.00939
 C1092 C 0.73433 0.23993 0.01903
 C1093 C 0.73296 0.24142 0.03698
 C1094 C 0.74260 0.25438 0.04552
 C1095 C 0.75304 0.26622 0.03638
 C1096 C 0.75339 0.26531 0.01837
 H1097 H 0.74745 0.24895 -0.06001
 H1098 H 0.77023 0.26426 -0.01220
 H1099 H 0.72079 0.23686 -0.01319
 H1100 H 0.72741 0.22937 0.01276
 H1101 H 0.74236 0.25487 0.05944
 H1102 H 0.76063 0.27527 0.01153
 C1103 C 0.74189 0.75459 0.45620
 C1104 C 0.75241 0.76629 0.46540
 C1105 C 0.75307 0.76499 0.48337
 C1106 C 0.74438 0.75134 0.49223
 C1107 C 0.73422 0.73947 0.48250
 C1108 C 0.73247 0.74140 0.46463
 C1109 C 0.74596 0.74959 0.51143
 C1110 C 0.73342 0.74032 0.52121
 C1111 C 0.73493 0.73887 0.53915
 C1112 C 0.74865 0.74746 0.54755
 C1113 C 0.76107 0.75701 0.53825
 C1114 C 0.76002 0.75745 0.52027
 H1115 H 0.74143 0.75538 0.44231
 H1116 H 0.76031 0.77492 0.49025
 H1117 H 0.72750 0.72870 0.48862
 H1118 H 0.72213 0.73450 0.51518
 H1119 H 0.74957 0.74683 0.56142
 H1120 H 0.77041 0.76394 0.51338
 C1121 C 1.04651 0.25316 0.25131
 C1122 C 1.03784 0.23909 0.25915
 C1123 C 1.01959 0.23802 0.25797
 C1124 C 1.00985 0.25115 0.24949
 C1125 C 1.01894 0.26529 0.24192
 C1126 C 1.03723 0.26619 0.24250
 C1127 C 0.99034 0.25007 0.24852
 C1128 C 0.98113 0.25790 0.23483
 C1129 C 0.96283 0.25722 0.23408
 C1130 C 0.95367 0.24807 0.24683
 C1131 C 0.96246 0.23998 0.26046
 C1132 C 0.98071 0.24126 0.26137
 H1133 H 1.06061 0.25390 0.25194
 H1134 H 1.01314 0.22666 0.26336
 H1135 H 1.01191 0.27586 0.23576
 H1136 H 0.98807 0.26433 0.22449
 H1137 H 0.93956 0.24735 0.24622
 H1138 H 0.98725 0.23571 0.27240
 C1139 C 0.54658 0.25062 0.75077
 C1140 C 0.53754 0.23693 0.75882
 C1141 C 0.51922 0.23681 0.75839
 C1142 C 0.50979 0.25056 0.75050
 C1143 C 0.51929 0.26434 0.74276
 C1144 C 0.53762 0.26427 0.74258
 C1145 C 0.49019 0.25048 0.75029
 C1146 C 0.48084 0.25924 0.73722
 C1147 C 0.46251 0.25939 0.73710
 C1148 C 0.45341 0.25016 0.74984
 C1149 C 0.46231 0.24109 0.76279
 C1150 C 0.48062 0.24159 0.76313
 H1151 H 0.56072 0.25063 0.75084
 H1152 H 0.51247 0.22571 0.76395
 H1153 H 0.51259 0.27539 0.73707
 H1154 H 0.48767 0.26569 0.72683
 H1155 H 0.43927 0.25002 0.74966
 H1156 H 0.48725 0.23526 0.77369
 C1157 C -0.04465 0.25005 0.75092
 C1158 C -0.03558 0.25961 0.76341
 C1159 C -0.01726 0.25953 0.76321
 C1160 C -0.00781 0.25077 0.75009
 C1161 C -0.01742 0.24154 0.73746
 C1162 C -0.03572 0.24082 0.73804
 C1163 C 0.01185 0.25148 0.74945
 C1164 C 0.02160 0.23887 0.74008
 C1165 C 0.03984 0.24007 0.73873
 C1166 C 0.04861 0.25326 0.74779
 C1167 C 0.03944 0.26559 0.75765
 C1168 C 0.02113 0.26494 0.75804
 H1169 H -0.05878 0.24985 0.75115
 H1170 H -0.01059 0.26618 0.77355
 H1171 H -0.01095 0.23519 0.72680
 H1172 H 0.01520 0.22812 0.73359
 H1173 H 0.06275 0.25363 0.74751
 H1174 H 0.01435 0.27526 0.76486
 C1175 C 0.45305 0.25050 0.24969
 C1176 C 0.46198 0.25998 0.26235
 C1177 C 0.48029 0.25951 0.26264
 C1178 C 0.48986 0.25042 0.24988
 C1179 C 0.48046 0.24138 0.23701
 C1180 C 0.46214 0.24099 0.23712
 C1181 C 0.50949 0.25037 0.24999
 C1182 C 0.51903 0.23696 0.24159
 C1183 C 0.53735 0.23713 0.24125
 C1184 C 0.54630 0.25035 0.25011
 C1185 C 0.53724 0.26356 0.25892
 C1186 C 0.51893 0.26375 0.25847
 H1187 H 0.43891 0.25053 0.24964
 H1188 H 0.48686 0.26604 0.27312
 H1189 H 0.48718 0.23482 0.22660
 H1190 H 0.51242 0.22609 0.23549
 H1191 H 0.56043 0.25036 0.25014
 H1192 H 0.51227 0.27464 0.26455
 C1193 C 1.04597 0.75074 0.75082
 C1194 C 1.03697 0.73811 0.76043
 C1195 C 1.01867 0.73793 0.76015
 C1196 C 1.00916 0.75083 0.75112
 C1197 C 1.01862 0.76367 0.74190
 C1198 C 1.03692 0.76341 0.74135
 C1199 C 0.98955 0.75087 0.75131
 C1200 C 0.98003 0.75925 0.73817
 C1201 C 0.96174 0.75983 0.73853
 C1202 C 0.95274 0.75104 0.75160
 C1203 C 0.96179 0.74216 0.76457
 C1204 C 0.98011 0.74255 0.76462
 H1205 H 1.06011 0.75071 0.75073
 H1206 H 1.01206 0.72742 0.76683
 H1207 H 1.01198 0.77421 0.73532
 H1208 H 0.98662 0.76519 0.72735
 H1209 H 0.93860 0.75111 0.75168
 H1210 H 0.98679 0.73653 0.77531
 C1211 C 0.54759 0.75026 0.25142
 C1212 C 0.53857 0.73686 0.25995
 C1213 C 0.52025 0.73669 0.25953
 C1214 C 0.51079 0.75018 0.25126
 C1215 C 0.52028 0.76372 0.24311
 C1216 C 0.53860 0.76362 0.24283
 C1217 C 0.49119 0.75013 0.25112
 C1218 C 0.48181 0.75888 0.23808
 C1219 C 0.46349 0.75921 0.23809
 C1220 C 0.45438 0.75002 0.25085
 C1221 C 0.46330 0.74088 0.26373
 C1222 C 0.48162 0.74133 0.26402
 H1223 H 0.56173 0.75028 0.25146
 H1224 H 0.51356 0.72575 0.26543
 H1225 H 0.51360 0.77464 0.23717
 H1226 H 0.48858 0.76524 0.22760
 H1227 H 0.44024 0.74997 0.25073
 H1228 H 0.48824 0.73500 0.27459
 C1229 C -0.04851 0.74919 0.25343
 C1230 C -0.03936 0.75833 0.26619
 C1231 C -0.02104 0.75875 0.26555
 C1232 C -0.01177 0.75077 0.25190
 C1233 C -0.02141 0.74204 0.23901
 C1234 C -0.03967 0.74086 0.23990
 C1235 C 0.00782 0.75148 0.25110
 C1236 C 0.01739 0.73855 0.24204
 C1237 C 0.03566 0.73928 0.24099
 C1238 C 0.04457 0.75269 0.24961
 C1239 C 0.03550 0.76548 0.25900
 C1240 C 0.01718 0.76502 0.25942
 H1241 H -0.06262 0.74859 0.25401
 H1242 H -0.01418 0.76509 0.27598
 H1243 H -0.01491 0.73637 0.22797
 H1244 H 0.01084 0.72757 0.23605
 H1245 H 0.05869 0.75313 0.24907
 H1246 H 0.01039 0.77549 0.26606
 C1247 C 0.45141 0.75002 0.75212
 C1248 C 0.46039 0.75875 0.76526
 C1249 C 0.47871 0.75881 0.76512
 C1250 C 0.48818 0.75093 0.75155
 C1251 C 0.47875 0.74267 0.73825
 C1252 C 0.46046 0.74182 0.73865
 C1253 C 0.50775 0.75136 0.75123
 C1254 C 0.51735 0.73833 0.74237
 C1255 C 0.53565 0.73886 0.74169
 C1256 C 0.54451 0.75220 0.75048
 C1257 C 0.53536 0.76506 0.75971
 C1258 C 0.51705 0.76478 0.75977
 H1259 H 0.43728 0.74967 0.75234
 H1260 H 0.48543 0.76482 0.77582
 H1261 H 0.48547 0.73712 0.72727
 H1262 H 0.51078 0.72744 0.73624
 H1263 H 0.55864 0.75253 0.75021
 H1264 H 0.51022 0.77531 0.76627
 C1265 C 0.43166 0.29203 0.29668
 C1266 C 0.44711 0.29861 0.28953
 C1267 C 0.45730 0.28798 0.27878
 C1268 C 0.41062 0.31210 0.31518
 C1269 C 0.43677 0.26408 0.28258
 C1270 C 0.42663 0.27469 0.29334
 C1271 C 0.42050 0.30316 0.30685
 C1272 C 0.45208 0.27068 0.27499
 H1273 H 0.45107 0.31203 0.29199
 H1274 H 0.46893 0.29347 0.27296
 H1275 H 0.43254 0.25075 0.28005
 H1276 H 0.41472 0.26947 0.29883
 C1277 C 0.42968 0.78822 0.80141
 C1278 C 0.42511 0.77090 0.79741
 C1279 C 0.43545 0.76104 0.78614
 C1280 C 0.40794 0.80788 0.81958
 C1281 C 0.45531 0.78563 0.78325
 C1282 C 0.44492 0.79549 0.79449
 C1283 C 0.41807 0.79889 0.81158
 C1284 C 0.45050 0.76841 0.77870
 H1285 H 0.41333 0.76515 0.80268
 H1286 H 0.43153 0.74775 0.78301
 H1287 H 0.46671 0.79171 0.77755
 H1288 H 0.44851 0.80893 0.79739
 C1289 C -0.06652 0.29155 0.79730
 C1290 C -0.05112 0.29829 0.79020
 C1291 C -0.04061 0.28765 0.77974
 C1292 C -0.08849 0.31148 0.81495
 C1293 C -0.06064 0.26340 0.78391
 C1294 C -0.07109 0.27402 0.79436
 C1295 C -0.07816 0.30268 0.80698
 C1296 C -0.04546 0.27019 0.77621
 H1297 H -0.04747 0.31185 0.79239
 H1298 H -0.02908 0.29328 0.77385
 H1299 H -0.06458 0.24994 0.78160
 H1300 H -0.08294 0.26865 0.79985
 C1301 C -0.07028 0.78762 0.30230
 C1302 C -0.07441 0.77011 0.29867
 C1303 C -0.06392 0.76031 0.28750
 C1304 C -0.09271 0.80695 0.32000
 C1305 C -0.04468 0.78531 0.28403
 C1306 C -0.05523 0.79512 0.29519
 C1307 C -0.08222 0.79818 0.31223
 C1308 C -0.04915 0.76792 0.27976
 H1309 H -0.08603 0.76417 0.30410
 H1310 H -0.06756 0.74688 0.28462
 H1311 H -0.03348 0.79157 0.27812
 H1312 H -0.05195 0.80869 0.29784
 C1313 C 0.56937 0.70095 0.28964
 C1314 C 0.55387 0.70782 0.29647
 C1315 C 0.54342 0.71894 0.28655
 C1316 C 0.59132 0.68304 0.30909
 C1317 C 0.56373 0.71597 0.26278
 C1318 C 0.57411 0.70482 0.27269
 C1319 C 0.58105 0.69094 0.30028
 C1320 C 0.54845 0.72341 0.26971
 H1321 H 0.55012 0.70498 0.30961
 H1322 H 0.53181 0.72462 0.29226
 H1323 H 0.56781 0.71902 0.24979
 H1324 H 0.58607 0.69958 0.26727
 C1325 C 0.56845 0.19991 0.78707
 C1326 C 0.55296 0.20649 0.79418
 C1327 C 0.54245 0.21795 0.78470
 C1328 C 0.59065 0.18192 0.80620
 C1329 C 0.56267 0.21588 0.76078
 C1330 C 0.57311 0.20439 0.77025
 C1331 C 0.58029 0.18976 0.79744
 C1332 C 0.54741 0.22307 0.76803
 H1333 H 0.54928 0.20320 0.80724
 H1334 H 0.53087 0.22342 0.79066
 H1335 H 0.56670 0.21943 0.74789
 H1336 H 0.58508 0.19940 0.76462
 C1337 C 1.06735 0.70412 0.79246
 C1338 C 1.07223 0.70685 0.77533
 C1339 C 1.06203 0.71744 0.76472
 C1340 C 1.08876 0.68609 0.81224
 C1341 C 1.04171 0.72222 0.78821
 C1342 C 1.05197 0.71163 0.79884
 C1343 C 1.07865 0.69423 0.80352
 C1344 C 1.04682 0.72546 0.77112
 H1345 H 1.08410 0.70105 0.77027
 H1346 H 1.06615 0.71954 0.75156
 H1347 H 1.03014 0.72838 0.79351
 H1348 H 1.04812 0.70963 0.81209
 C1349 C 1.06886 0.20273 0.28819
 C1350 C 1.07423 0.20795 0.27178
 C1351 C 1.06388 0.21933 0.26211
 C1352 C 1.09054 0.18410 0.30728
 C1353 C 1.04240 0.21995 0.28502
 C1354 C 1.05281 0.20857 0.29471
 C1355 C 1.08037 0.19231 0.29863
 C1356 C 1.04798 0.22569 0.26874
 H1357 H 1.08663 0.20353 0.26661
 H1358 H 1.06840 0.22333 0.24952
 H1359 H 1.03031 0.22477 0.29052
 H1360 H 1.04857 0.20469 0.30744
 C1361 C 0.56884 0.30075 0.71393
 C1362 C 0.55339 0.29412 0.70687
 C1363 C 0.54277 0.28286 0.71649
 C1364 C 0.59117 0.31826 0.69449
 C1365 C 0.56278 0.28526 0.74047
 C1366 C 0.57334 0.29654 0.73085
 C1367 C 0.58077 0.31064 0.70342
 C1368 C 0.54757 0.27801 0.73326
 H1369 H 0.54985 0.29718 0.69374
 H1370 H 0.53125 0.27732 0.71055
 H1371 H 0.56669 0.28189 0.75341
 H1372 H 0.58527 0.30157 0.73644
 C1373 C 0.56937 0.79968 0.21323
 C1374 C 0.57408 0.79577 0.23016
 C1375 C 0.56370 0.78458 0.24005
 C1376 C 0.59127 0.81750 0.19360
 C1377 C 0.54350 0.78161 0.21629
 C1378 C 0.55393 0.79279 0.20639
 C1379 C 0.58104 0.80968 0.20255
 C1380 C 0.54848 0.77710 0.23310
 H1381 H 0.58601 0.80102 0.23557
 H1382 H 0.56774 0.78150 0.25303
 H1383 H 0.53195 0.77590 0.21055
 H1384 H 0.55023 0.79564 0.19326
 C1385 C 1.06783 0.30338 0.21411
 C1386 C 1.05286 0.29604 0.20674
 C1387 C 1.04239 0.28457 0.21627
 C1388 C 1.09038 0.32066 0.19473
 C1389 C 1.06152 0.28825 0.24078
 C1390 C 1.07194 0.29973 0.23125
 C1391 C 1.07986 0.31322 0.20366
 C1392 C 1.04686 0.28022 0.23327
 H1393 H 1.04963 0.29866 0.19344
 H1394 H 1.03130 0.27844 0.21009
 H1395 H 1.06516 0.28530 0.25390
 H1396 H 1.08352 0.30530 0.23707
 C1397 C 1.06733 0.79725 0.70903
 C1398 C 1.07217 0.79460 0.72616
 C1399 C 1.06195 0.78408 0.73686
 C1400 C 1.08888 0.81495 0.68899
 C1401 C 1.04164 0.77924 0.71349
 C1402 C 1.05193 0.78974 0.70276
 C1403 C 1.07870 0.80699 0.69785
 C1404 C 1.04674 0.77605 0.73056
 H1405 H 1.08404 0.80038 0.73115
 H1406 H 1.06607 0.78201 0.75001
 H1407 H 1.03008 0.77307 0.70826
 H1408 H 1.04810 0.79168 0.68951
 C1409 C 0.43058 0.71222 0.70212
 C1410 C 0.42516 0.72908 0.70696
 C1411 C 0.43517 0.73895 0.71842
 C1412 C 0.40951 0.69266 0.68327
 C1413 C 0.45637 0.71535 0.71984
 C1414 C 0.44631 0.70546 0.70839
 C1415 C 0.41939 0.70154 0.69161
 C1416 C 0.45073 0.73207 0.72522
 H1417 H 0.41301 0.73443 0.70218
 H1418 H 0.43063 0.75189 0.72215
 H1419 H 0.46821 0.70966 0.72499
 H1420 H 0.45057 0.69239 0.70479
 C1421 C 0.43203 0.20881 0.20287
 C1422 C 0.44753 0.20230 0.20993
 C1423 C 0.45768 0.21298 0.22061
 C1424 C 0.41092 0.18873 0.18457
 C1425 C 0.43705 0.23682 0.21686
 C1426 C 0.42695 0.22615 0.20618
 C1427 C 0.42086 0.19763 0.19282
 C1428 C 0.45238 0.23027 0.22442
 H1429 H 0.45156 0.18889 0.20748
 H1430 H 0.46933 0.20754 0.22639
 H1431 H 0.43276 0.25014 0.21937
 H1432 H 0.41501 0.23133 0.20074
 C1433 C -0.07006 0.70996 0.20476
 C1434 C -0.05406 0.70358 0.21078
 C1435 C -0.04387 0.71387 0.22179
 C1436 C -0.09098 0.69032 0.18579
 C1437 C -0.06551 0.73708 0.22048
 C1438 C -0.07564 0.72680 0.20947
 C1439 C -0.08116 0.69910 0.19431
 C1440 C -0.04963 0.73063 0.22697
 H1441 H -0.04964 0.69054 0.20725
 H1442 H -0.03179 0.70849 0.22673
 H1443 H -0.07017 0.75002 0.22406
 H1444 H -0.08798 0.73188 0.20484
 C1445 C -0.06655 0.20924 0.70388
 C1446 C -0.07133 0.22665 0.70730
 C1447 C -0.06100 0.23710 0.71796
 C1448 C -0.08801 0.18963 0.68544
 C1449 C -0.04070 0.21294 0.72148
 C1450 C -0.05111 0.20246 0.71083
 C1451 C -0.07793 0.19832 0.69376
 C1452 C -0.04571 0.23028 0.72537
 H1453 H -0.08322 0.23205 0.70195
 H1454 H -0.06506 0.25047 0.72058
 H1455 H -0.02909 0.20731 0.72717
 H1456 H -0.04732 0.18898 0.70832
 C1457 C 0.29260 0.43052 0.29513
 C1458 C 0.27575 0.42554 0.29026
 C1459 C 0.26621 0.43595 0.27889
 C1460 C 0.31123 0.40885 0.31426
 C1461 C 0.29014 0.45672 0.27761
 C1462 C 0.29970 0.44623 0.28895
 C1463 C 0.30283 0.41899 0.30574
 C1464 C 0.27341 0.45152 0.27225
 H1465 H 0.27012 0.41342 0.29498
 H1466 H 0.25327 0.43174 0.27512
 H1467 H 0.29605 0.46856 0.27256
 H1468 H 0.31277 0.45016 0.29258
 C1469 C 0.29872 -0.06871 0.79253
 C1470 C 0.28075 -0.07181 0.79244
 C1471 C 0.26981 -0.06171 0.78212
 C1472 C 0.31800 -0.08948 0.81194
 C1473 C 0.29476 -0.04510 0.77198
 C1474 C 0.30574 -0.05530 0.78234
 C1475 C 0.30971 -0.07966 0.80298
 C1476 C 0.27668 -0.04833 0.77168
 H1477 H 0.27517 -0.08211 0.80031
 H1478 H 0.25592 -0.06433 0.78235
 H1479 H 0.30040 -0.03496 0.76397
 H1480 H 0.31965 -0.05282 0.78229
 C1481 C 0.79152 0.42833 0.79730
 C1482 C 0.77436 0.42386 0.79301
 C1483 C 0.76474 0.43454 0.78193
 C1484 C 0.81034 0.40608 0.81566
 C1485 C 0.78920 0.45460 0.77983
 C1486 C 0.79884 0.44383 0.79087
 C1487 C 0.80183 0.41645 0.80750
 C1488 C 0.77216 0.44987 0.77500
 H1489 H 0.76854 0.41191 0.79792
 H1490 H 0.75158 0.43070 0.77855
 H1491 H 0.79527 0.46623 0.77453
 H1492 H 0.81214 0.44737 0.79403
 C1493 C 0.79626 -0.06870 0.29561
 C1494 C 0.77888 -0.07325 0.29242
 C1495 C 0.76871 -0.06300 0.28146
 C1496 C 0.81506 -0.09013 0.31480
 C1497 C 0.79314 -0.04326 0.27717
 C1498 C 0.80334 -0.05359 0.28811
 C1499 C 0.80680 -0.08002 0.30611
 C1500 C 0.77580 -0.04802 0.27355
 H1501 H 0.77326 -0.08489 0.29820
 H1502 H 0.75533 -0.06684 0.27906
 H1503 H 0.79895 -0.03187 0.27111
 H1504 H 0.81680 -0.04998 0.29047
 C1505 C 0.29629 0.56910 0.70460
 C1506 C 0.30348 0.55587 0.71488
 C1507 C 0.29261 0.54547 0.72516
 C1508 C 0.31576 0.59057 0.68613
 C1509 C 0.26740 0.56143 0.71470
 C1510 C 0.27824 0.57174 0.70444
 C1511 C 0.30725 0.58046 0.69456
 C1512 C 0.27447 0.54831 0.72531
 H1513 H 0.31745 0.55377 0.71514
 H1514 H 0.29840 0.53554 0.73330
 H1515 H 0.25346 0.56373 0.71437
 H1516 H 0.27254 0.58192 0.69651
 C1517 C 0.29265 1.06869 0.20159
 C1518 C 0.27508 1.07268 0.20464
 C1519 C 0.26506 1.06204 0.21544
 C1520 C 0.31178 1.09107 0.18361
 C1521 C 0.28997 1.04293 0.21974
 C1522 C 0.30002 1.05366 0.20898
 C1523 C 0.30322 1.08060 0.19164
 C1524 C 0.27248 1.04721 0.22334
 H1525 H 0.26922 1.08425 0.19897
 H1526 H 0.25157 1.06554 0.21785
 H1527 H 0.29605 1.03169 0.22580
 H1528 H 0.31362 1.05048 0.20677
 C1529 C 0.79301 0.56910 0.20195
 C1530 C 0.77563 0.57338 0.20561
 C1531 C 0.76584 0.56289 0.21674
 C1532 C 0.81193 0.59120 0.18351
 C1533 C 0.79061 0.54339 0.22018
 C1534 C 0.80042 0.55395 0.20907
 C1535 C 0.80343 0.58085 0.19172
 C1536 C 0.77333 0.54796 0.22438
 H1537 H 0.76977 0.58506 0.20016
 H1538 H 0.75251 0.56661 0.21962
 H1539 H 0.79675 0.53206 0.22603
 H1540 H 0.81389 0.55057 0.20640
 C1541 C 0.79364 1.07037 0.70299
 C1542 C 0.77634 1.07491 0.70672
 C1543 C 0.76632 1.06438 0.71762
 C1544 C 0.81283 1.09239 0.68467
 C1545 C 0.79068 1.04431 0.72067
 C1546 C 0.80072 1.05493 0.70981
 C1547 C 0.80424 1.08209 0.69286
 C1548 C 0.77348 1.04912 0.72494
 H1549 H 0.77070 1.08681 0.70150
 H1550 H 0.75305 1.06829 0.72054
 H1551 H 0.79657 1.03273 0.72628
 H1552 H 0.81412 1.05132 0.70706
 C1553 C 0.71455 0.56820 0.29855
 C1554 C 0.73149 0.57377 0.29466
 C1555 C 0.74213 0.56366 0.28390
 C1556 C 0.69367 0.58934 0.31601
 C1557 C 0.71907 0.54203 0.28134
 C1558 C 0.70844 0.55219 0.29208
 C1559 C 0.70313 0.57946 0.30826
 C1560 C 0.73591 0.54783 0.27688
 H1561 H 0.73635 0.58614 0.29962
 H1562 H 0.75511 0.56833 0.28085
 H1563 H 0.71388 0.52999 0.27597
 H1564 H 0.69531 0.54779 0.29496
 C1565 C 0.71483 1.06935 0.79913
 C1566 C 0.70822 1.05377 0.79216
 C1567 C 0.71861 1.04346 0.78130
 C1568 C 0.69419 1.09096 0.81644
 C1569 C 0.74245 1.06407 0.78474
 C1570 C 0.73205 1.07433 0.79562
 C1571 C 0.70361 1.08089 0.80884
 C1572 C 0.73573 1.04869 0.77721
 H1573 H 0.69488 1.04985 0.79470
 H1574 H 0.71303 1.03180 0.77554
 H1575 H 0.75564 1.06831 0.78197
 H1576 H 0.73731 1.08636 0.80094
 C1577 C 0.20399 0.56709 0.78895
 C1578 C 0.21259 0.55229 0.79539
 C1579 C 0.22313 0.54215 0.78455
 C1580 C 0.18659 0.58862 0.80934
 C1581 C 0.21609 0.56134 0.76071
 C1582 C 0.20552 0.57142 0.77154
 C1583 C 0.19440 0.57848 0.80027
 C1584 C 0.22525 0.54679 0.76718
 H1585 H 0.21152 0.54888 0.80886
 H1586 H 0.23018 0.53112 0.78990
 H1587 H 0.21735 0.56507 0.74734
 H1588 H 0.19887 0.58283 0.76643
 C1589 C 0.21242 1.06740 0.29649
 C1590 C 0.22968 1.07242 0.29321
 C1591 C 0.24023 1.06222 0.28243
 C1592 C 0.19193 1.08889 0.31410
 C1593 C 0.21647 1.04159 0.27859
 C1594 C 0.20591 1.05186 0.28933
 C1595 C 0.20119 1.07882 0.30631
 C1596 C 0.23365 1.04685 0.27479
 H1597 H 0.23486 1.08442 0.29868
 H1598 H 0.25346 1.06648 0.27986
 H1599 H 0.21101 1.02992 0.27273
 H1600 H 0.19254 1.04791 0.29170
 C1601 C 0.71599 0.43089 0.69909
 C1602 C 0.73309 0.42580 0.70294
 C1603 C 0.74321 0.43594 0.71411
 C1604 C 0.69550 0.40919 0.68193
 C1605 C 0.71937 0.45668 0.71708
 C1606 C 0.70926 0.44651 0.70593
 C1607 C 0.70489 0.41932 0.68939
 C1608 C 0.73632 0.45129 0.72160
 H1609 H 0.73842 0.41373 0.69772
 H1610 H 0.75629 0.43158 0.71719
 H1611 H 0.71364 0.46833 0.72280
 H1612 H 0.69600 0.45051 0.70312
 C1613 C 0.71450 -0.06841 0.20181
 C1614 C 0.70764 -0.05339 0.20974
 C1615 C 0.71819 -0.04308 0.22039
 C1616 C 0.69411 -0.08992 0.18427
 C1617 C 0.74257 -0.06265 0.21497
 C1618 C 0.73204 -0.07289 0.20428
 C1619 C 0.70336 -0.07987 0.19202
 C1620 C 0.73569 -0.04777 0.22331
 H1621 H 0.69405 -0.04989 0.20804
 H1622 H 0.71250 -0.03182 0.22685
 H1623 H 0.75604 -0.06647 0.21689
 H1624 H 0.73747 -0.08451 0.19824
 C1625 C 0.21755 0.43138 0.19674
 C1626 C 0.21064 0.44697 0.20349
 C1627 C 0.22073 0.45750 0.21435
 C1628 C 0.19704 0.40898 0.18043
 C1629 C 0.24493 0.43721 0.21121
 C1630 C 0.23483 0.42672 0.20033
 C1631 C 0.20647 0.41941 0.18748
 C1632 C 0.23785 0.45249 0.21867
 H1633 H 0.19725 0.45064 0.20088
 H1634 H 0.21486 0.46907 0.22005
 H1635 H 0.25813 0.43314 0.21415
 H1636 H 0.24031 0.41468 0.19519
 C1637 C 0.20513 -0.06706 0.70934
 C1638 C 0.20740 -0.07179 0.72656
 C1639 C 0.21815 -0.06178 0.73722
 C1640 C 0.18717 -0.08836 0.68925
 C1641 C 0.22394 -0.04187 0.71360
 C1642 C 0.21321 -0.05195 0.70293
 C1643 C 0.19525 -0.07831 0.69816
 C1644 C 0.22678 -0.04689 0.73076
 H1645 H 0.20116 -0.08345 0.73165
 H1646 H 0.21993 -0.06581 0.75044
 H1647 H 0.23057 -0.03056 0.70826
 H1648 H 0.21157 -0.04820 0.68961
 C1649 C 0.29564 0.29086 0.43302
 C1650 C 0.28817 0.29732 0.44819
 C1651 C 0.27728 0.28658 0.45806
 C1652 C 0.31386 0.31132 0.41231
 C1653 C 0.28169 0.26274 0.43780
 C1654 C 0.29258 0.27348 0.42799
 C1655 C 0.30571 0.30218 0.42206
 C1656 C 0.27368 0.26927 0.45278
 H1657 H 0.29042 0.31077 0.45217
 H1658 H 0.27117 0.29199 0.46946
 H1659 H 0.27934 0.24940 0.43356
 H1660 H 0.29832 0.26834 0.41628
 C1661 C 0.28535 0.80044 -0.06672
 C1662 C 0.29209 0.79266 -0.05186
 C1663 C 0.28151 0.78186 -0.04171
 C1664 C 0.30601 0.81747 -0.08826
 C1665 C 0.25724 0.78709 -0.06096
 C1666 C 0.26783 0.79789 -0.07107
 C1667 C 0.29665 0.80997 -0.07819
 C1668 C 0.26407 0.77863 -0.04639
 H1669 H 0.30566 0.79449 -0.04841
 H1670 H 0.28718 0.77540 -0.03067
 H1671 H 0.24381 0.78504 -0.06475
 H1672 H 0.26247 0.80385 -0.08254
 C1673 C 0.79670 0.28821 -0.06645
 C1674 C 0.78949 0.29524 -0.05140
 C1675 C 0.77813 0.28515 -0.04139
 C1676 C 0.81494 0.30818 -0.08763
 C1677 C 0.78160 0.26077 -0.06120
 C1678 C 0.79299 0.27086 -0.07116
 C1679 C 0.80688 0.29912 -0.07772
 C1680 C 0.77377 0.26794 -0.04640
 H1681 H 0.79223 0.30867 -0.04768
 H1682 H 0.77216 0.29107 -0.03016
 H1683 H 0.77864 0.24748 -0.06524
 H1684 H 0.79853 0.26529 -0.08278
 C1685 C 0.78554 0.80047 0.43608
 C1686 C 0.79195 0.79229 0.45086
 C1687 C 0.78096 0.78174 0.46083
 C1688 C 0.80664 0.81728 0.41482
 C1689 C 0.75697 0.78801 0.44154
 C1690 C 0.76797 0.79855 0.43161
 C1691 C 0.79716 0.80984 0.42481
 C1692 C 0.76343 0.77920 0.45607
 H1693 H 0.80555 0.79363 0.45440
 H1694 H 0.78637 0.77497 0.47183
 H1695 H 0.74349 0.78648 0.43767
 H1696 H 0.76287 0.80484 0.42019
 C1697 C 0.69619 0.28729 0.56720
 C1698 C 0.70241 0.29388 0.55156
 C1699 C 0.71345 0.28365 0.54127
 C1700 C 0.67918 0.30782 0.58896
 C1701 C 0.71163 0.25998 0.56199
 C1702 C 0.70057 0.27021 0.57223
 C1703 C 0.68657 0.29846 0.57877
 C1704 C 0.71849 0.26674 0.54658
 H1705 H 0.69920 0.30713 0.54760
 H1706 H 0.71868 0.28927 0.52957
 H1707 H 0.71511 0.24693 0.56630
 H1708 H 0.69586 0.26499 0.58432
 C1709 C 0.69774 0.78949 1.06719
 C1710 C 0.70145 0.77218 1.07197
 C1711 C 0.71212 0.76168 1.06160
 C1712 C 0.68090 0.81002 1.08913
 C1713 C 0.71492 0.78556 1.04123
 C1714 C 0.70427 0.79607 1.05167
 C1715 C 0.68830 0.80075 1.07884
 C1716 C 0.71927 0.76838 1.04629
 H1717 H 0.69648 0.76694 1.08396
 H1718 H 0.71509 0.74843 1.06572
 H1719 H 0.72039 0.79112 1.02961
 H1720 H 0.70156 0.80949 1.04788
 C1721 C 0.19402 0.28571 1.06705
 C1722 C 0.19778 0.26834 1.07158
 C1723 C 0.20891 0.25821 1.06131
 C1724 C 0.17762 0.30633 1.08916
 C1725 C 0.21192 0.28257 1.04151
 C1726 C 0.20082 0.29268 1.05182
 C1727 C 0.18467 0.29686 1.07884
 C1728 C 0.21644 0.26537 1.04639
 H1729 H 0.19261 0.26282 1.08336
 H1730 H 0.21200 0.24494 1.06527
 H1731 H 0.21768 0.28850 1.03020
 H1732 H 0.19809 0.30616 1.04825
 C1733 C 0.20313 0.79491 0.56822
 C1734 C 0.21212 0.80183 0.55407
 C1735 C 0.22253 0.79087 0.54379
 C1736 C 0.18507 0.81493 0.58969
 C1737 C 0.21471 0.76605 0.56167
 C1738 C 0.20432 0.77697 0.57186
 C1739 C 0.19321 0.80611 0.57956
 C1740 C 0.22411 0.77290 0.54765
 H1741 H 0.21133 0.81572 0.55117
 H1742 H 0.22971 0.79651 0.53315
 H1743 H 0.21547 0.75221 0.56480
 H1744 H 0.19741 0.77145 0.58275
 C1745 C 0.29217 0.70483 0.56620
 C1746 C 0.29107 0.72283 0.56967
 C1747 C 0.27988 0.73345 0.56013
 C1748 C 0.31209 0.68550 0.58639
 C1749 C 0.27100 0.70818 0.54329
 C1750 C 0.28219 0.69752 0.55293
 C1751 C 0.30308 0.69398 0.57683
 C1752 C 0.26960 0.72623 0.54694
 H1753 H 0.29874 0.72863 0.57990
 H1754 H 0.27924 0.74735 0.56305
 H1755 H 0.26314 0.70228 0.53328
 H1756 H 0.28290 0.68358 0.55020
 C1757 C 0.29452 0.21006 1.06696
 C1758 C 0.28947 0.22690 1.07223
 C1759 C 0.27783 0.23667 1.06229
 C1760 C 0.31380 0.19071 1.08773
 C1761 C 0.27664 0.21298 1.04147
 C1762 C 0.28825 0.20320 1.05147
 C1763 C 0.30525 0.19949 1.07801
 C1764 C 0.27109 0.22969 1.04694
 H1765 H 0.29426 0.23234 1.08419
 H1766 H 0.27393 0.24959 1.06669
 H1767 H 0.27150 0.20723 1.02979
 H1768 H 0.29199 0.19013 1.04732
 C1769 C 0.79492 0.71003 1.06616
 C1770 C 0.79128 0.72743 1.07079
 C1771 C 0.78005 0.73758 1.06075
 C1772 C 0.81359 0.69042 1.08726
 C1773 C 0.77650 0.71313 1.04106
 C1774 C 0.78770 0.70297 1.05116
 C1775 C 0.80527 0.69924 1.07737
 C1776 C 0.77231 0.73044 1.04594
 H1777 H 0.79682 0.73303 1.08237
 H1778 H 0.77721 0.75093 1.06470
 H1779 H 0.77057 0.70725 1.02982
 H1780 H 0.79036 0.68950 1.04751
 C1781 C 0.79588 0.21103 0.56698
 C1782 C 0.79155 0.22828 0.57158
 C1783 C 0.78014 0.23805 0.56138
 C1784 C 0.81461 0.19185 0.58846
 C1785 C 0.77779 0.21358 0.54156
 C1786 C 0.78918 0.20379 0.55182
 C1787 C 0.80630 0.20051 0.57841
 C1788 C 0.77287 0.23070 0.54642
 H1789 H 0.79667 0.23403 0.58327
 H1790 H 0.77675 0.25127 0.56534
 H1791 H 0.77225 0.20752 0.53021
 H1792 H 0.79237 0.19043 0.54817
 C1793 C 0.70009 0.70776 0.43394
 C1794 C 0.69997 0.72591 0.43134
 C1795 C 0.71025 0.73682 0.44157
 C1796 C 0.68271 0.68766 0.41220
 C1797 C 0.72061 0.71147 0.45735
 C1798 C 0.71030 0.70055 0.44706
 C1799 C 0.69046 0.69661 0.42243
 C1800 C 0.72086 0.72972 0.45454
 H1801 H 0.69215 0.73163 0.42121
 H1802 H 0.70998 0.75084 0.43927
 H1803 H 0.72875 0.70562 0.46715
 H1804 H 0.71056 0.68648 0.44911
 C1805 C 0.69764 0.21093 -0.06811
 C1806 C 0.70185 0.22812 -0.07291
 C1807 C 0.71288 0.23825 -0.06262
 C1808 C 0.68029 0.19076 -0.08984
 C1809 C 0.71504 0.21425 -0.04231
 C1810 C 0.70406 0.20410 -0.05267
 C1811 C 0.68787 0.19995 -0.07967
 C1812 C 0.71984 0.23130 -0.04737
 H1813 H 0.69698 0.23354 -0.08484
 H1814 H 0.71624 0.25141 -0.06672
 H1815 H 0.72037 0.20852 -0.03073
 H1816 H 0.70100 0.19076 -0.04890
 C1817 C 0.20368 0.70486 -0.06887
 C1818 C 0.21383 0.69802 -0.05550
 C1819 C 0.22367 0.70930 -0.04509
 C1820 C 0.18613 0.68463 -0.09040
 C1821 C 0.21299 0.73424 -0.06128
 C1822 C 0.20320 0.72299 -0.07161
 C1823 C 0.19414 0.69347 -0.08026
 C1824 C 0.22351 0.72753 -0.04803
 H1825 H 0.21434 0.68398 -0.05330
 H1826 H 0.23175 0.70374 -0.03508
 H1827 H 0.21238 0.74823 -0.06369
 H1828 H 0.19538 0.72844 -0.08190
 C1829 C 0.20146 0.20690 0.43108
 C1830 C 0.19454 0.21666 0.44479
 C1831 C 0.20554 0.22702 0.45502
 C1832 C 0.18205 0.18798 0.40997
 C1833 C 0.23035 0.21766 0.43791
 C1834 C 0.21939 0.20736 0.42778
 C1835 C 0.19043 0.19665 0.41997
 C1836 C 0.22355 0.22776 0.45153
 H1837 H 0.18066 0.21643 0.44744
 H1838 H 0.19994 0.23472 0.46536
 H1839 H 0.24420 0.21771 0.43509
 H1840 H 0.22491 0.19984 0.41725
 C1841 C 0.29347 0.43043 0.70239
 C1842 C 0.27644 0.42547 0.70671
 C1843 C 0.26643 0.43600 0.71765
 C1844 C 0.31277 0.40858 0.68401
 C1845 C 0.29026 0.45683 0.71957
 C1846 C 0.30029 0.44624 0.70866
 C1847 C 0.30412 0.41881 0.69223
 C1848 C 0.27334 0.45165 0.72441
 H1849 H 0.27102 0.41329 0.70188
 H1850 H 0.25335 0.43181 0.72100
 H1851 H 0.29594 0.46874 0.72474
 H1852 H 0.31349 0.45016 0.70544
 C1853 C 0.29506 0.92975 0.20281
 C1854 C 0.27717 0.92662 0.20461
 C1855 C 0.26715 0.93698 0.21569
 C1856 C 0.31372 0.90766 0.18394
 C1857 C 0.29277 0.95408 0.22293
 C1858 C 0.30282 0.94361 0.21186
 C1859 C 0.30542 0.91806 0.19237
 C1860 C 0.27487 0.95066 0.22516
 H1861 H 0.27101 0.91596 0.19767
 H1862 H 0.25334 0.93422 0.21698
 H1863 H 0.29906 0.96447 0.23015
 H1864 H 0.31668 0.94610 0.21062
 C1865 C 0.79961 0.43140 0.20724
 C1866 C 0.80690 0.44556 0.21623
 C1867 C 0.79642 0.45581 0.22712
 C1868 C 0.81828 0.41002 0.18774
 C1869 C 0.77141 0.43782 0.21981
 C1870 C 0.78184 0.42767 0.20896
 C1871 C 0.81020 0.42017 0.19661
 C1872 C 0.77860 0.45187 0.22916
 H1873 H 0.82066 0.44853 0.21500
 H1874 H 0.80230 0.46650 0.23423
 H1875 H 0.75766 0.43468 0.22091
 H1876 H 0.77606 0.41678 0.20203
 C1877 C 0.79439 0.93124 0.70359
 C1878 C 0.80245 0.94481 0.71282
 C1879 C 0.79257 0.95546 0.72388
 C1880 C 0.81272 0.90887 0.68477
 C1881 C 0.76658 0.93912 0.71628
 C1882 C 0.77641 0.92857 0.70521
 C1883 C 0.80455 0.91937 0.69317
 C1884 C 0.77458 0.95251 0.72591
 H1885 H 0.81638 0.94693 0.71174
 H1886 H 0.79907 0.96560 0.73125
 H1887 H 0.75269 0.93671 0.71744
 H1888 H 0.77004 0.91813 0.69814
 C1889 C 0.70525 0.56670 0.70977
 C1890 C 0.70667 0.57066 0.72727
 C1891 C 0.71693 0.56021 0.73797
 C1892 C 0.68792 0.58890 0.69006
 C1893 C 0.72394 0.54132 0.71380
 C1894 C 0.71368 0.55185 0.70309
 C1895 C 0.69578 0.57844 0.69871
 C1896 C 0.72595 0.54561 0.73128
 H1897 H 0.70014 0.58208 0.73259
 H1898 H 0.71808 0.56370 0.75141
 H1899 H 0.73087 0.53025 0.70828
 H1900 H 0.71268 0.54867 0.68955
 C1901 C 0.71140 0.06829 0.20436
 C1902 C 0.70460 0.05341 0.21251
 C1903 C 0.71517 0.04338 0.22338
 C1904 C 0.69132 0.08933 0.18608
 C1905 C 0.73943 0.06296 0.21768
 C1906 C 0.72887 0.07293 0.20684
 C1907 C 0.70035 0.07943 0.19420
 C1908 C 0.73264 0.04820 0.22624
 H1909 H 0.69106 0.04975 0.21072
 H1910 H 0.70956 0.03216 0.22989
 H1911 H 0.75291 0.06682 0.21942
 H1912 H 0.73427 0.08442 0.20059
 C1913 C 0.20508 0.56783 0.20787
 C1914 C 0.21386 0.55328 0.20100
 C1915 C 0.22428 0.54279 0.21159
 C1916 C 0.18755 0.58999 0.18829
 C1917 C 0.21675 0.56111 0.23603
 C1918 C 0.20631 0.57152 0.22545
 C1919 C 0.19548 0.57957 0.19693
 C1920 C 0.22612 0.54684 0.22914
 H1921 H 0.21301 0.55032 0.18740
 H1922 H 0.23147 0.53197 0.20593
 H1923 H 0.21775 0.56439 0.24954
 H1924 H 0.19951 0.58270 0.23092
 C1925 C 0.21232 0.06768 0.70295
 C1926 C 0.20639 0.05180 0.70983
 C1927 C 0.21732 0.04180 0.72035
 C1928 C 0.19128 0.08827 0.68516
 C1929 C 0.24032 0.06335 0.71676
 C1930 C 0.22938 0.07331 0.70624
 C1931 C 0.20075 0.07864 0.69315
 C1932 C 0.23432 0.04762 0.72416
 H1933 H 0.19320 0.04734 0.70738
 H1934 H 0.21227 0.02986 0.72601
 H1935 H 0.25340 0.06804 0.71927
 H1936 H 0.23411 0.08556 0.70093
 C1937 C 0.29544 0.56900 0.29328
 C1938 C 0.30299 0.55581 0.28310
 C1939 C 0.29249 0.54531 0.27252
 C1940 C 0.31440 0.59067 0.31220
 C1941 C 0.26689 0.56105 0.28249
 C1942 C 0.27736 0.57146 0.29304
 C1943 C 0.30608 0.58050 0.30359
 C1944 C 0.27434 0.54800 0.27195
 H1945 H 0.31699 0.55382 0.28314
 H1946 H 0.29860 0.53545 0.26446
 H1947 H 0.25293 0.56325 0.28252
 H1948 H 0.27136 0.58159 0.30087
 C1949 C 0.29482 0.06870 0.79677
 C1950 C 0.27746 0.07337 0.79361
 C1951 C 0.26720 0.06312 0.78270
 C1952 C 0.31425 0.09011 0.81543
 C1953 C 0.29149 0.04314 0.77844
 C1954 C 0.30178 0.05347 0.78931
 C1955 C 0.30559 0.08006 0.80704
 C1956 C 0.27418 0.04804 0.77482
 H1957 H 0.27194 0.08511 0.79935
 H1958 H 0.25385 0.06706 0.78028
 H1959 H 0.29723 0.03168 0.77239
 H1960 H 0.31522 0.04979 0.79162
 C1961 C 0.79605 0.56758 0.79447
 C1962 C 0.80329 0.55413 0.78442
 C1963 C 0.79251 0.54362 0.77415
 C1964 C 0.81544 0.58925 0.81288
 C1965 C 0.76725 0.55989 0.78419
 C1966 C 0.77800 0.57031 0.79443
 C1967 C 0.80696 0.57907 0.80447
 C1968 C 0.77439 0.54656 0.77378
 H1969 H 0.81726 0.55194 0.78432
 H1970 H 0.79836 0.53354 0.76617
 H1971 H 0.75332 0.56229 0.78435
 H1972 H 0.77225 0.58065 0.80218
 C1973 C 0.79610 0.06872 0.29644
 C1974 C 0.77829 0.07215 0.29447
 C1975 C 0.76830 0.06201 0.28323
 C1976 C 0.81493 0.09034 0.31546
 C1977 C 0.79383 0.04462 0.27610
 C1978 C 0.80384 0.05485 0.28734
 C1979 C 0.80649 0.08016 0.30701
 C1980 C 0.77601 0.04827 0.27376
 H1981 H 0.77217 0.08286 0.30142
 H1982 H 0.75455 0.06496 0.28185
 H1983 H 0.80012 0.03422 0.26886
 H1984 H 0.81765 0.05216 0.28868
 C1985 C 0.71083 0.43260 0.29598
 C1986 C 0.70381 0.44644 0.28638
 C1987 C 0.71460 0.45641 0.27562
 C1988 C 0.69079 0.41137 0.31420
 C1989 C 0.73944 0.43879 0.28423
 C1990 C 0.72868 0.42892 0.29499
 C1991 C 0.69973 0.42141 0.30610
 C1992 C 0.73249 0.45251 0.27428
 H1993 H 0.68997 0.44931 0.28697
 H1994 H 0.70890 0.46681 0.26800
 H1995 H 0.75322 0.43567 0.28363
 H1996 H 0.73425 0.41822 0.30234
 C1997 C 0.71003 0.93309 0.79553
 C1998 C 0.70290 0.94752 0.78687
 C1999 C 0.71334 0.95758 0.77586
 C2000 C 0.69034 0.91168 0.81394
 C2001 C 0.73810 0.93892 0.78240
 C2002 C 0.72768 0.92895 0.79341
 C2003 C 0.69916 0.92180 0.80579
 C2004 C 0.73100 0.95319 0.77333
 H2005 H 0.68921 0.95077 0.78836
 H2006 H 0.70752 0.96843 0.76895
 H2007 H 0.75172 0.93542 0.78089
 H2008 H 0.73334 0.91782 0.80004
 C2009 C 0.21451 0.43339 0.79885
 C2010 C 0.20818 0.44901 0.79177
 C2011 C 0.21877 0.45894 0.78086
 C2012 C 0.19357 0.41231 0.81615
 C2013 C 0.24226 0.43793 0.78456
 C2014 C 0.23165 0.42803 0.79548
 C2015 C 0.20307 0.42219 0.80851
 C2016 C 0.23580 0.45331 0.77686
 H2017 H 0.19490 0.45322 0.79424
 H2018 H 0.21337 0.47061 0.77496
 H2019 H 0.25539 0.43340 0.78188
 H2020 H 0.23666 0.41596 0.80093
 C2021 C 0.21046 0.93074 0.29496
 C2022 C 0.20321 0.94509 0.28625
 C2023 C 0.21356 0.95521 0.27519
 C2024 C 0.19090 0.90956 0.31384
 C2025 C 0.23848 0.93679 0.28175
 C2026 C 0.22815 0.92676 0.29281
 C2027 C 0.19969 0.91949 0.30541
 C2028 C 0.23126 0.95099 0.27265
 H2029 H 0.18951 0.94826 0.28778
 H2030 H 0.20764 0.96599 0.26828
 H2031 H 0.25213 0.93341 0.28026
 H2032 H 0.23392 0.91573 0.29949
 C2033 C 0.43193 0.28968 0.70166
 C2034 C 0.42735 0.27230 0.70533
 C2035 C 0.43764 0.26224 0.71636
 C2036 C 0.41017 0.30900 0.68330
 C2037 C 0.45755 0.28672 0.71972
 C2038 C 0.44719 0.29680 0.70869
 C2039 C 0.42039 0.30035 0.69148
 C2040 C 0.45269 0.26943 0.72393
 H2041 H 0.41559 0.26664 0.69996
 H2042 H 0.43370 0.24889 0.71919
 H2043 H 0.46897 0.29266 0.72548
 H2044 H 0.45083 0.31027 0.70599
 C2045 C 0.43341 0.79008 0.20276
 C2046 C 0.42859 0.77273 0.20629
 C2047 C 0.43867 0.76249 0.21736
 C2048 C 0.41222 0.80966 0.18406
 C2049 C 0.45880 0.78675 0.22103
 C2050 C 0.44865 0.79701 0.20998
 C2051 C 0.42218 0.80091 0.19243
 C2052 C 0.45374 0.76948 0.22506
 H2053 H 0.41684 0.76723 0.20075
 H2054 H 0.43458 0.74917 0.22007
 H2055 H 0.47024 0.79252 0.22692
 H2056 H 0.45247 0.81045 0.20738
 C2057 C 0.93193 0.28609 0.19784
 C2058 C 0.92793 0.26855 0.20146
 C2059 C 0.93841 0.25889 0.21267
 C2060 C 0.90949 0.30528 0.18016
 C2061 C 0.95738 0.28410 0.21624
 C2062 C 0.94684 0.29376 0.20503
 C2063 C 0.91998 0.29653 0.18789
 C2064 C 0.95305 0.26668 0.22047
 H2065 H 0.91641 0.26249 0.19600
 H2066 H 0.93488 0.24545 0.21555
 H2067 H 0.96845 0.29049 0.22220
 H2068 H 0.95000 0.30737 0.20242
 C2069 C 0.93182 0.79087 0.70338
 C2070 C 0.92668 0.77366 0.70711
 C2071 C 0.93669 0.76333 0.71815
 C2072 C 0.91095 0.81075 0.68473
 C2073 C 0.95732 0.78724 0.72135
 C2074 C 0.94726 0.79758 0.71034
 C2075 C 0.92074 0.80183 0.69309
 C2076 C 0.95198 0.77011 0.72557
 H2077 H 0.91475 0.76835 0.70175
 H2078 H 0.93239 0.75011 0.72104
 H2079 H 0.96895 0.79284 0.72704
 H2080 H 0.95130 0.81092 0.70758
 C2081 C 0.56800 0.29870 0.28949
 C2082 C 0.57273 0.29524 0.27244
 C2083 C 0.56234 0.28437 0.26224
 C2084 C 0.59006 0.31624 0.30911
 C2085 C 0.54205 0.28087 0.28595
 C2086 C 0.55251 0.29172 0.29615
 C2087 C 0.57969 0.30846 0.30032
 C2088 C 0.54707 0.27679 0.26900
 H2089 H 0.58469 0.30058 0.26715
 H2090 H 0.56641 0.28161 0.24918
 H2091 H 0.53045 0.27506 0.29152
 H2092 H 0.54877 0.29426 0.30936
 C2093 C 0.56631 0.80011 0.79014
 C2094 C 0.57044 0.79733 0.77283
 C2095 C 0.55994 0.78652 0.76269
 C2096 C 0.58876 0.81736 0.80957
 C2097 C 0.54068 0.78173 0.78700
 C2098 C 0.55126 0.79252 0.79715
 C2099 C 0.57822 0.80972 0.80087
 C2100 C 0.54515 0.77832 0.76977
 H2101 H 0.58206 0.80315 0.76728
 H2102 H 0.56357 0.78425 0.74941
 H2103 H 0.52946 0.77543 0.79281
 H2104 H 0.54799 0.79451 0.81057
 C2105 C 0.07032 0.30003 0.78895
 C2106 C 0.07452 0.29761 0.77159
 C2107 C 0.06404 0.28702 0.76120
 C2108 C 0.09262 0.31705 0.80880
 C2109 C 0.04468 0.28174 0.78532
 C2110 C 0.05522 0.29232 0.79572
 C2111 C 0.08216 0.30949 0.79991
 C2112 C 0.04921 0.27866 0.76803
 H2113 H 0.08615 0.30353 0.76620
 H2114 H 0.06773 0.28506 0.74789
 H2115 H 0.03343 0.27534 0.79096
 H2116 H 0.05188 0.29406 0.80916
 C2117 C 0.06667 0.80091 0.28890
 C2118 C 0.05181 0.79317 0.29614
 C2119 C 0.04117 0.78224 0.28618
 C2120 C 0.08905 0.81824 0.30840
 C2121 C 0.06001 0.78714 0.26158
 C2122 C 0.07057 0.79810 0.27153
 C2123 C 0.07862 0.81064 0.29951
 C2124 C 0.04538 0.77884 0.26889
 H2125 H 0.04874 0.79513 0.30960
 H2126 H 0.03012 0.77584 0.29218
 H2127 H 0.06346 0.78486 0.24826
 H2128 H 0.08206 0.80399 0.26580
 C2129 C 0.56661 0.70364 0.71115
 C2130 C 0.57154 0.70756 0.72803
 C2131 C 0.56114 0.71852 0.73818
 C2132 C 0.58851 0.68549 0.69175
 C2133 C 0.54049 0.72128 0.71478
 C2134 C 0.55095 0.71031 0.70461
 C2135 C 0.57820 0.69358 0.70040
 C2136 C 0.54567 0.72575 0.73156
 H2137 H 0.58362 0.70244 0.73322
 H2138 H 0.56533 0.72156 0.75113
 H2139 H 0.52872 0.72679 0.70931
 H2140 H 0.54705 0.70740 0.69154
 C2141 C 0.56834 0.20202 0.21063
 C2142 C 0.57317 0.20572 0.22758
 C2143 C 0.56272 0.21656 0.23780
 C2144 C 0.59034 0.18434 0.19092
 C2145 C 0.54220 0.21961 0.21432
 C2146 C 0.55271 0.20875 0.20409
 C2147 C 0.58002 0.19219 0.19976
 C2148 C 0.54729 0.22391 0.23117
 H2149 H 0.58524 0.20056 0.23277
 H2150 H 0.56685 0.21948 0.25079
 H2151 H 0.53049 0.22522 0.20882
 H2152 H 0.54889 0.20602 0.19096
 C2153 C 0.06644 0.70437 0.20993
 C2154 C 0.07141 0.70804 0.22685
 C2155 C 0.06107 0.71891 0.23716
 C2156 C 0.08827 0.68644 0.19023
 C2157 C 0.04036 0.72201 0.21386
 C2158 C 0.05077 0.71117 0.20352
 C2159 C 0.07800 0.69444 0.19902
 C2160 C 0.04560 0.72626 0.23068
 H2161 H 0.08349 0.70281 0.23196
 H2162 H 0.06531 0.72179 0.25014
 H2163 H 0.02857 0.72763 0.20851
 H2164 H 0.04683 0.70845 0.19042
 C2165 C 0.07045 0.20494 0.70753
 C2166 C 0.07348 0.22304 0.70710
 C2167 C 0.06334 0.23439 0.71706
 C2168 C 0.09144 0.18455 0.68924
 C2169 C 0.04673 0.20963 0.72779
 C2170 C 0.05698 0.19824 0.71781
 C2171 C 0.08157 0.19345 0.69766
 C2172 C 0.04996 0.22782 0.72765
 H2173 H 0.08382 0.22838 0.69915
 H2174 H 0.06595 0.24836 0.71648
 H2175 H 0.03660 0.20421 0.73591
 H2176 H 0.05452 0.18424 0.71826
 C2177 C 0.43281 0.70955 0.29842
 C2178 C 0.42780 0.72683 0.29480
 C2179 C 0.43800 0.73724 0.28396
 C2180 C 0.41151 0.68953 0.31661
 C2181 C 0.45861 0.71328 0.28069
 C2182 C 0.44835 0.70286 0.29152
 C2183 C 0.42150 0.69852 0.30849
 C2184 C 0.45338 0.73048 0.27657
 H2185 H 0.41582 0.73215 0.30010
 H2186 H 0.43377 0.75051 0.28118
 H2187 H 0.47029 0.70768 0.27504
 H2188 H 0.45231 0.68948 0.29418
 C2189 C 0.43171 0.20997 0.79761
 C2190 C 0.44728 0.20324 0.79081
 C2191 C 0.45757 0.21358 0.77992
 C2192 C 0.41049 0.19018 0.81615
 C2193 C 0.43691 0.23752 0.78291
 C2194 C 0.42668 0.22720 0.79380
 C2195 C 0.42043 0.19906 0.80785
 C2196 C 0.45234 0.23074 0.77564
 H2197 H 0.45126 0.18989 0.79361
 H2198 H 0.46928 0.20795 0.77436
 H2199 H 0.43266 0.25076 0.78001
 H2200 H 0.41467 0.23255 0.79901
 C2201 C 0.93146 0.71129 0.79972
 C2202 C 0.92643 0.72853 0.79595
 C2203 C 0.93663 0.73884 0.78502
 C2204 C 0.91001 0.69113 0.81757
 C2205 C 0.95728 0.71488 0.78202
 C2206 C 0.94703 0.70456 0.79294
 C2207 C 0.92005 0.70024 0.80965
 C2208 C 0.95201 0.73201 0.77768
 H2209 H 0.91441 0.73386 0.80115
 H2210 H 0.93237 0.75205 0.78208
 H2211 H 0.96896 0.70922 0.77641
 H2212 H 0.95100 0.69121 0.79572
 C2213 C 0.93201 0.21028 0.29656
 C2214 C 0.94798 0.20364 0.29063
 C2215 C 0.95819 0.21353 0.27926
 C2216 C 0.91073 0.19115 0.31565
 C2217 C 0.93661 0.23682 0.28004
 C2218 C 0.92646 0.22695 0.29139
 C2219 C 0.92077 0.19973 0.30718
 C2220 C 0.95246 0.23011 0.27364
 H2221 H 0.95235 0.19070 0.29448
 H2222 H 0.97025 0.20796 0.27442
 H2223 H 0.93198 0.24964 0.27612
 H2224 H 0.91412 0.23221 0.29590
 C2225 C 0.29302 0.29276 0.56557
 C2226 C 0.29177 0.27480 0.56904
 C2227 C 0.28056 0.26423 0.55943
 C2228 C 0.31294 0.31215 0.58577
 C2229 C 0.27187 0.28951 0.54260
 C2230 C 0.28311 0.30011 0.55228
 C2231 C 0.30397 0.30357 0.57622
 C2232 C 0.27037 0.27147 0.54620
 H2233 H 0.29936 0.26897 0.57929
 H2234 H 0.27991 0.25034 0.56232
 H2235 H 0.26410 0.29547 0.53257
 H2236 H 0.28392 0.31403 0.54956
 C2237 C 0.29744 0.78769 0.06572
 C2238 C 0.28988 0.79466 0.05086
 C2239 C 0.27883 0.78430 0.04077
 C2240 C 0.31549 0.80778 0.08700
 C2241 C 0.28332 0.75978 0.06010
 C2242 C 0.29438 0.77014 0.07014
 C2243 C 0.30745 0.79874 0.07704
 C2244 C 0.27513 0.76686 0.04550
 H2245 H 0.29212 0.80824 0.04734
 H2246 H 0.27258 0.79015 0.02970
 H2247 H 0.28089 0.74633 0.06392
 H2248 H 0.30021 0.76460 0.08159
 C2249 C 0.78651 0.29995 0.06585
 C2250 C 0.79274 0.29202 0.05080
 C2251 C 0.78165 0.28161 0.04080
 C2252 C 0.80784 0.31660 0.08699
 C2253 C 0.75790 0.28749 0.06063
 C2254 C 0.76900 0.29789 0.07058
 C2255 C 0.79824 0.30923 0.07708
 C2256 C 0.76419 0.27895 0.04581
 H2257 H 0.80629 0.29347 0.04705
 H2258 H 0.78692 0.27506 0.02957
 H2259 H 0.74447 0.28588 0.06469
 H2260 H 0.76403 0.30397 0.08221
 C2261 C 0.79690 0.78871 0.56700
 C2262 C 0.79414 0.77118 0.57166
 C2263 C 0.78300 0.76059 0.56194
 C2264 C 0.81507 0.80929 0.58763
 C2265 C 0.77785 0.78488 0.54249
 C2266 C 0.78897 0.79546 0.55225
 C2267 C 0.80698 0.80001 0.57797
 C2268 C 0.77448 0.76744 0.54743
 H2269 H 0.80025 0.76582 0.58305
 H2270 H 0.78081 0.74714 0.56592
 H2271 H 0.77132 0.79056 0.53149
 H2272 H 0.79098 0.80903 0.54857
 C2273 C 0.29351 0.70790 0.43257
 C2274 C 0.28666 0.70131 0.44796
 C2275 C 0.27592 0.71188 0.45826
 C2276 C 0.31192 0.68795 0.41133
 C2277 C 0.27922 0.73580 0.43801
 C2278 C 0.28997 0.72524 0.42777
 C2279 C 0.30362 0.69681 0.42129
 C2280 C 0.27183 0.72914 0.45322
 H2281 H 0.28929 0.68790 0.45179
 H2282 H 0.27027 0.70635 0.46982
 H2283 H 0.27647 0.74910 0.43391
 H2284 H 0.29525 0.73051 0.41592
 C2285 C 0.29283 0.20703 0.93344
 C2286 C 0.28257 0.19959 0.94644
 C2287 C 0.27139 0.21020 0.95624
 C2288 C 0.31258 0.18752 0.91309
 C2289 C 0.28088 0.23569 0.94013
 C2290 C 0.29203 0.22511 0.93040
 C2291 C 0.30368 0.19619 0.92267
 C2292 C 0.27032 0.22834 0.95305
 H2293 H 0.28303 0.18560 0.94883
 H2294 H 0.26332 0.20416 0.96600
 H2295 H 0.28052 0.24966 0.93756
 H2296 H 0.29990 0.23100 0.92038
 C2297 C 0.79102 0.70360 0.93317
 C2298 C 0.78163 0.69647 0.94696
 C2299 C 0.77037 0.70712 0.95664
 C2300 C 0.81107 0.68414 0.91302
 C2301 C 0.77803 0.73204 0.93881
 C2302 C 0.78928 0.72142 0.92922
 C2303 C 0.80200 0.69270 0.92255
 C2304 C 0.76831 0.72499 0.95251
 H2305 H 0.78284 0.68267 0.95008
 H2306 H 0.76298 0.70134 0.96706
 H2307 H 0.77693 0.74581 0.93552
 H2308 H 0.79650 0.72709 0.91861
 C2309 C 0.79156 0.20475 0.43285
 C2310 C 0.78981 0.22268 0.42936
 C2311 C 0.77850 0.23303 0.43915
 C2312 C 0.81184 0.18604 0.41224
 C2313 C 0.77081 0.20765 0.45633
 C2314 C 0.78213 0.19726 0.44643
 C2315 C 0.80263 0.19418 0.42200
 C2316 C 0.76874 0.22560 0.45262
 H2317 H 0.79708 0.22864 0.41893
 H2318 H 0.77737 0.24688 0.43619
 H2319 H 0.76339 0.20160 0.46658
 H2320 H 0.78335 0.18338 0.44922
 C2321 C 0.70061 0.29265 0.43239
 C2322 C 0.70998 0.29985 0.44614
 C2323 C 0.72058 0.28909 0.45633
 C2324 C 0.68296 0.31268 0.41078
 C2325 C 0.71218 0.26387 0.43920
 C2326 C 0.70156 0.27460 0.42912
 C2327 C 0.69081 0.30375 0.42095
 C2328 C 0.72201 0.27104 0.45275
 H2329 H 0.70939 0.31382 0.44875
 H2330 H 0.72808 0.29495 0.46662
 H2331 H 0.71284 0.24996 0.43633
 H2332 H 0.69435 0.26886 0.41854
 C2333 C 0.70074 0.79245 0.93155
 C2334 C 0.71009 0.79970 0.94529
 C2335 C 0.72066 0.78897 0.95553
 C2336 C 0.68297 0.81248 0.91005
 C2337 C 0.71229 0.76371 0.93844
 C2338 C 0.70172 0.77441 0.92829
 C2339 C 0.69089 0.80353 0.92015
 C2340 C 0.72206 0.77090 0.95201
 H2341 H 0.70949 0.81367 0.94787
 H2342 H 0.72813 0.79487 0.96582
 H2343 H 0.71294 0.74979 0.93560
 H2344 H 0.69454 0.76865 0.91771
 C2345 C 0.20436 0.29774 0.93373
 C2346 C 0.22209 0.29619 0.92965
 C2347 C 0.23299 0.28570 0.93968
 C2348 C 0.18431 0.31563 0.91245
 C2349 C 0.20856 0.27869 0.95830
 C2350 C 0.19765 0.28919 0.94821
 C2351 C 0.19310 0.30751 0.92250
 C2352 C 0.22627 0.27658 0.95393
 H2353 H 0.22743 0.30281 0.91851
 H2354 H 0.24662 0.28450 0.93615
 H2355 H 0.20301 0.27169 0.96911
 H2356 H 0.18394 0.29029 0.95145
 C2357 C 0.19837 0.78920 0.43239
 C2358 C 0.20533 0.79610 0.44760
 C2359 C 0.21585 0.78563 0.45811
 C2360 C 0.18184 0.80943 0.41012
 C2361 C 0.21198 0.76117 0.43851
 C2362 C 0.20145 0.77162 0.42806
 C2363 C 0.18913 0.80035 0.42056
 C2364 C 0.21962 0.76817 0.45344
 H2365 H 0.20308 0.80971 0.45104
 H2366 H 0.22170 0.79141 0.46944
 H2367 H 0.21449 0.74770 0.43471
 H2368 H 0.19612 0.76614 0.41634
 C2369 C 0.70107 0.70715 0.57027
 C2370 C 0.70724 0.70070 0.55452
 C2371 C 0.71775 0.71127 0.54404
 C2372 C 0.68346 0.68707 0.59191
 C2373 C 0.71564 0.73486 0.56490
 C2374 C 0.70510 0.72433 0.57531
 C2375 C 0.69132 0.69603 0.58174
 C2376 C 0.72231 0.72835 0.54929
 H2377 H 0.70426 0.68741 0.55053
 H2378 H 0.72286 0.70588 0.53216
 H2379 H 0.71878 0.74803 0.56917
 H2380 H 0.70038 0.72947 0.58745
 C2381 C 0.70079 0.20724 0.06740
 C2382 C 0.70081 0.22534 0.07044
 C2383 C 0.71104 0.23642 0.06033
 C2384 C 0.68325 0.18690 0.08881
 C2385 C 0.72107 0.21138 0.04376
 C2386 C 0.71082 0.20028 0.05394
 C2387 C 0.69112 0.19591 0.07872
 C2388 C 0.72146 0.22956 0.04701
 H2389 H 0.69311 0.23088 0.08081
 H2390 H 0.71087 0.25039 0.06298
 H2391 H 0.72906 0.20571 0.03368
 H2392 H 0.71095 0.18627 0.05152
 C2393 C 0.20089 0.70774 0.06800
 C2394 C 0.20709 0.70104 0.05235
 C2395 C 0.21777 0.71136 0.04180
 C2396 C 0.18319 0.68800 0.08989
 C2397 C 0.21571 0.73525 0.06234
 C2398 C 0.20501 0.72495 0.07282
 C2399 C 0.19107 0.69681 0.07961
 C2400 C 0.22246 0.72846 0.04687
 H2401 H 0.20403 0.68771 0.04852
 H2402 H 0.22291 0.70576 0.03003
 H2403 H 0.21894 0.74845 0.06646
 H2404 H 0.20027 0.73030 0.08487
 C2405 C 0.20474 0.20209 0.56613
 C2406 C 0.19809 0.21031 0.55146
 C2407 C 0.20897 0.22077 0.54127
 C2408 C 0.18471 0.18413 0.58746
 C2409 C 0.23324 0.21445 0.56022
 C2410 C 0.22237 0.20399 0.57034
 C2411 C 0.19351 0.19227 0.57739
 C2412 C 0.22659 0.22318 0.54574
 H2413 H 0.18444 0.20896 0.54812
 H2414 H 0.20348 0.22749 0.53028
 H2415 H 0.24679 0.21591 0.56385
 H2416 H 0.22766 0.19765 0.58164
   
