data_POSCAR
  _audit_creation_date              2014-09-24
  _audit_creation_method            'ToBaCCo'
  _symmetry_space_group_name_H-M    'P1'
  _symmetry_Int_Tables_number       1
  _symmetry_cell_setting            triclinic
  loop_
  _symmetry_equiv_pos_as_xyz
 x,y,z
_cell_length_a 67.8601
_cell_length_b 68.4072
_cell_length_c 68.7630
_cell_angle_alpha 88.115700
_cell_angle_beta 89.187900
_cell_angle_gamma 90.568500
loop_
  _atom_site_label
  _atom_site_type_symbol
  _atom_site_fract_x
  _atom_site_fract_y
  _atom_site_fract_z
C1 C 0.11646 0.01642 0.19953
 H2 H 0.13039 0.02390 0.20082
 C3 C 0.10571 0.01924 0.18250
 H4 H 0.11155 0.02890 0.17099
 C5 C 0.09167 -0.00482 0.21287
 H6 H 0.08613 -0.01403 0.22483
 C7 C 0.08037 -0.00230 0.19615
 H8 H 0.06638 -0.00995 0.19526
 N9 N 0.10949 0.00432 0.21423
 C10 C 0.11105 -0.01335 0.27432
 H11 H 0.12368 -0.02282 0.27362
 C12 C 0.09901 -0.01388 0.29095
 H13 H 0.10232 -0.02403 0.30284
 C14 C 0.09148 0.01143 0.25970
 H15 H 0.08882 0.02143 0.24753
 C16 C 0.07896 0.01130 0.27603
 H17 H 0.06672 0.02132 0.27637
 Zn18 Zn 0.12446 -0.00021 0.23727
 N19 N 0.10712 -0.00082 0.25913
 C20 C 0.14067 0.03285 0.25491
 N21 N 0.14333 0.02036 0.24012
 C22 C 0.15842 0.02311 0.22704
 C23 C 0.17079 0.03955 0.22786
 C24 C 0.15279 0.04933 0.25639
 C25 C 0.12465 -0.04059 0.23315
 C26 C 0.13197 -0.05954 0.23317
 C27 C 0.16421 -0.04655 0.23995
 C28 C 0.15618 -0.02773 0.23963
 N29 N 0.13669 -0.02511 0.23627
 H30 H 0.12883 0.03035 0.26537
 H31 H 0.16045 0.01287 0.21553
 H32 H 0.18209 0.04189 0.21674
 H33 H 0.15024 0.05909 0.26823
 H34 H 0.10909 -0.03832 0.23116
 H35 H 0.12122 -0.07112 0.23169
 H36 H 0.17992 -0.04756 0.24200
 H37 H 0.16554 -0.01526 0.24232
 C38 C 0.08274 -0.00142 0.29198
 C39 C 0.08746 0.00972 0.18060
 C40 C 0.15217 -0.06318 0.23666
 C41 C 0.16780 0.05318 0.24246
 C42 C 0.40715 0.02721 0.78525
 H43 H 0.40847 0.03799 0.77342
 C44 C 0.41853 0.02908 0.80187
 H45 H 0.42859 0.04139 0.80275
 C46 C 0.39192 -0.00160 0.79867
 H47 H 0.38138 -0.01342 0.79745
 C48 C 0.40293 -0.00024 0.81558
 H49 H 0.40102 -0.01130 0.82710
 N50 N 0.39432 0.01193 0.78386
 C51 C 0.38517 0.00313 0.72224
 H52 H 0.36923 0.00255 0.72239
 C53 C 0.39560 -0.00002 0.70504
 H54 H 0.38751 -0.00323 0.69205
 C55 C 0.41491 0.00734 0.73932
 H56 H 0.42238 0.01002 0.75275
 C57 C 0.42596 0.00441 0.72236
 H58 H 0.44188 0.00526 0.72288
 Zn59 Zn 0.37888 0.01069 0.76121
 N60 N 0.39487 0.00693 0.73887
 C61 C 0.36822 0.04610 0.74210
 N62 N 0.36526 0.03461 0.75841
 C63 C 0.35385 0.04064 0.77345
 C64 C 0.34498 0.05901 0.77246
 C65 C 0.35966 0.06452 0.74052
 C66 C 0.36952 -0.02881 0.76226
 C67 C 0.35772 -0.04556 0.76175
 C68 C 0.32891 -0.02516 0.76320
 C69 C 0.34132 -0.00872 0.76352
 N70 N 0.36122 -0.01085 0.76306
 H71 H 0.37759 0.04125 0.73045
 H72 H 0.35202 0.03135 0.78640
 H73 H 0.33637 0.06381 0.78476
 H74 H 0.36227 0.07346 0.72743
 H75 H 0.38539 -0.03003 0.76152
 H76 H 0.36472 -0.05962 0.76048
 H77 H 0.31311 -0.02319 0.76369
 H78 H 0.33501 0.00571 0.76381
 C79 C 0.41629 0.00078 0.70487
 C80 C 0.41649 0.01524 0.81732
 C81 C 0.33709 -0.04391 0.76215
 C82 C 0.34809 0.07131 0.75592
 C83 C 0.90391 0.51577 0.27733
 H84 H 0.90595 0.52606 0.26516
 C85 C 0.91465 0.51807 0.29426
 H86 H 0.92453 0.53054 0.29478
 C87 C 0.88728 0.48806 0.29129
 H88 H 0.87653 0.47642 0.29004
 C89 C 0.89749 0.48995 0.30865
 H90 H 0.89475 0.47908 0.32017
 N91 N 0.89075 0.50082 0.27605
 C92 C 0.88419 0.49211 0.21419
 H93 H 0.86826 0.49172 0.21371
 C94 C 0.89523 0.48999 0.19718
 H95 H 0.88768 0.48774 0.18366
 C96 C 0.91328 0.49538 0.23254
 H97 H 0.92023 0.49743 0.24636
 C98 C 0.92494 0.49337 0.21581
 H99 H 0.94082 0.49425 0.21688
 Zn100 Zn 0.87638 0.49944 0.25280
 N101 N 0.89328 0.49523 0.23130
 C102 C 0.86809 0.53506 0.23295
 N103 N 0.86358 0.52366 0.24901
 C104 C 0.85140 0.53011 0.26324
 C105 C 0.84326 0.54878 0.26164
 C106 C 0.86030 0.55375 0.23075
 C107 C 0.86639 0.46024 0.25338
 C108 C 0.85447 0.44370 0.25181
 C109 C 0.82587 0.46444 0.25212
 C110 C 0.83842 0.48070 0.25340
 N111 N 0.85828 0.47828 0.25398
 H112 H 0.87816 0.52995 0.22199
 H113 H 0.84841 0.52092 0.27607
 H114 H 0.83398 0.55389 0.27332
 H115 H 0.86410 0.56258 0.21786
 H116 H 0.88225 0.45881 0.25345
 H117 H 0.86143 0.42962 0.25053
 H118 H 0.81010 0.46664 0.25181
 H119 H 0.83229 0.49521 0.25354
 C120 C 0.91588 0.49103 0.19778
 C121 C 0.91161 0.50509 0.31045
 C122 C 0.83388 0.44561 0.25108
 C123 C 0.84791 0.56094 0.24531
 C124 C 0.60706 0.50128 0.71050
 H125 H 0.60568 0.51302 0.72057
 C126 C 0.60014 0.50375 0.69147
 H127 H 0.59336 0.51741 0.68704
 C128 C 0.61856 0.46963 0.70364
 H129 H 0.62614 0.45650 0.70813
 C130 C 0.61193 0.47148 0.68459
 H131 H 0.61406 0.45948 0.67492
 N132 N 0.61610 0.48441 0.71619
 C133 C 0.61610 0.47699 0.77949
 H134 H 0.63122 0.47231 0.78078
 C135 C 0.60396 0.47713 0.79597
 H136 H 0.60984 0.47224 0.80983
 C137 C 0.59014 0.48845 0.75960
 H138 H 0.58485 0.49277 0.74537
 C139 C 0.57744 0.48895 0.77583
 H140 H 0.56249 0.49396 0.77393
 Zn141 Zn 0.62786 0.48191 0.74111
 N142 N 0.60917 0.48280 0.76180
 C143 C 0.64529 0.51446 0.75877
 N144 N 0.64641 0.50264 0.74327
 C145 C 0.65958 0.50639 0.72849
 C146 C 0.67201 0.52283 0.72876
 C147 C 0.65755 0.53088 0.75973
 C148 C 0.62718 0.44167 0.74504
 C149 C 0.63421 0.42263 0.74614
 C150 C 0.66747 0.43561 0.74469
 C151 C 0.65975 0.45453 0.74360
 N152 N 0.63991 0.45713 0.74347
 H153 H 0.63461 0.51147 0.77028
 H154 H 0.65998 0.49694 0.71618
 H155 H 0.68187 0.52592 0.71651
 H156 H 0.65640 0.53996 0.77228
 H157 H 0.61147 0.44420 0.74513
 H158 H 0.62378 0.41056 0.74730
 H159 H 0.68329 0.43369 0.74426
 H160 H 0.66959 0.46706 0.74254
 C161 C 0.58440 0.48342 0.79437
 C162 C 0.60281 0.48878 0.67817
 C163 C 0.65459 0.41936 0.74569
 C164 C 0.67091 0.53551 0.74444
 C165 C 0.28797 0.10338 0.98971
 H166 H 0.27739 0.10445 0.97811
 C167 C 0.30466 0.09184 0.98761
 H168 H 0.30698 0.08425 0.97422
 C169 C 0.29790 0.11233 1.02113
 H170 H 0.29536 0.12050 1.03408
 C171 C 0.31473 0.10092 1.01969
 H172 H 0.32472 0.10011 1.03181
 N173 N 0.28473 0.11302 1.00641
 C174 C 0.22140 0.11919 1.00723
 H175 H 0.22051 0.13487 1.00858
 C176 C 0.20425 0.10799 1.00605
 H177 H 0.19011 0.11515 1.00666
 C178 C 0.24105 0.09082 1.00535
 H179 H 0.25542 0.08419 1.00537
 C180 C 0.22422 0.07901 1.00417
 H181 H 0.22579 0.06337 1.00287
 Zn182 Zn 0.26125 0.12740 1.00845
 N183 N 0.23931 0.11054 1.00660
 C184 C 0.25059 0.14113 0.97157
 N185 N 0.26111 0.14600 0.98740
 C186 C 0.27285 0.16225 0.98702
 C187 C 0.27382 0.17464 0.97041
 C188 C 0.25151 0.15276 0.95458
 C189 C 0.25857 0.12506 1.04825
 C190 C 0.25686 0.13088 1.06739
 C191 C 0.25478 0.16435 1.05543
 C192 C 0.25678 0.15778 1.03643
 N193 N 0.25900 0.13843 1.03326
 H194 H 0.24210 0.12768 0.97177
 H195 H 0.28171 0.16544 0.99950
 H196 H 0.28296 0.18768 0.97061
 H197 H 0.24365 0.14788 0.94202
 H198 H 0.25956 0.10966 1.04527
 H199 H 0.25587 0.11935 1.07849
 H200 H 0.25406 0.17998 1.05707
 H201 H 0.25652 0.16818 1.02428
 C202 C 0.20554 0.08765 1.00434
 C203 C 0.31821 0.09037 1.00281
 C204 C 0.25513 0.15092 1.07162
 C205 C 0.26317 0.16988 0.95374
 C206 C 0.72360 0.40800 0.97998
 H207 H 0.73510 0.40982 0.96909
 C208 C 0.70698 0.41988 0.97877
 H209 H 0.70577 0.43027 0.96663
 C210 C 0.71118 0.39257 1.00896
 H211 H 0.71282 0.38214 1.02090
 C212 C 0.69432 0.40411 1.00829
 H213 H 0.68328 0.40235 1.01976
 N214 N 0.72523 0.39424 0.99463
 C215 C 0.78709 0.37763 0.99122
 H216 H 0.78474 0.36202 0.99032
 C217 C 0.80608 0.38538 0.98951
 H218 H 0.81832 0.37556 0.98757
 C219 C 0.77379 0.40918 0.99522
 H220 H 0.76109 0.41833 0.99737
 C221 C 0.79266 0.41762 0.99355
 H222 H 0.79435 0.43333 0.99429
 Zn223 Zn 0.74687 0.37628 0.99483
 N224 N 0.77143 0.38950 0.99399
 C225 C 0.75064 0.37162 0.95504
 N226 N 0.74690 0.36129 0.97194
 C227 C 0.74596 0.34139 0.97228
 C228 C 0.74905 0.33121 0.95513
 C229 C 0.75356 0.36213 0.93766
 C230 C 0.75992 0.36216 1.03145
 C231 C 0.75865 0.35225 1.04950
 C232 C 0.72794 0.33785 1.03969
 C233 C 0.73008 0.34776 1.02164
 N234 N 0.74564 0.36004 1.01801
 H235 H 0.75238 0.38728 0.95511
 H236 H 0.74364 0.33334 0.98591
 H237 H 0.74893 0.31538 0.95581
 H238 H 0.75643 0.37085 0.92448
 H239 H 0.77203 0.37225 1.02860
 H240 H 0.76991 0.35562 1.05986
 H241 H 0.71540 0.32807 1.04157
 H242 H 0.71891 0.34616 1.01072
 C243 C 0.80909 0.40563 0.99051
 C244 C 0.69186 0.41776 0.99285
 C245 C 0.74215 0.34015 1.05442
 C246 C 0.75324 0.34163 0.93753
 C247 C 0.22005 0.91332 0.49716
 H248 H 0.23421 0.91918 0.49238
 C249 C 0.20335 0.92507 0.49580
 H250 H 0.20500 0.93991 0.49001
 C251 C 0.20057 0.88642 0.50887
 H252 H 0.19956 0.87119 0.51357
 C253 C 0.18355 0.89772 0.50804
 H254 H 0.16965 0.89111 0.51269
 N255 N 0.21840 0.89438 0.50371
 C256 C 0.27716 0.88393 0.48491
 H257 H 0.27326 0.87101 0.47715
 C258 C 0.29583 0.89230 0.48199
 H259 H 0.30594 0.88560 0.47195
 C260 C 0.26941 0.90692 0.50878
 H261 H 0.25917 0.91220 0.51956
 C262 C 0.28785 0.91600 0.50606
 H263 H 0.29138 0.92861 0.51450
 Zn264 Zn 0.24045 0.87748 0.50362
 N265 N 0.26437 0.89128 0.49814
 C266 C 0.23399 0.86807 0.46555
 N267 N 0.23629 0.85967 0.48355
 C268 C 0.23635 0.83988 0.48633
 C269 C 0.23507 0.82774 0.47039
 C270 C 0.23267 0.85654 0.44928
 C271 C 0.23225 0.86808 0.54387
 C272 C 0.23578 0.85863 0.56182
 C273 C 0.26308 0.84196 0.54704
 C274 C 0.25907 0.85175 0.52943
 N275 N 0.24371 0.86431 0.52806
 H276 H 0.23379 0.88384 0.46380
 H277 H 0.23787 0.83349 0.50080
 H278 H 0.23586 0.81204 0.47273
 H279 H 0.23113 0.86357 0.43506
 H280 H 0.22050 0.87857 0.54270
 H281 H 0.22631 0.86157 0.57417
 H282 H 0.27545 0.83210 0.54779
 H283 H 0.26830 0.84941 0.51678
 C284 C 0.30150 0.90854 0.49267
 C285 C 0.18471 0.91734 0.50127
 C286 C 0.25132 0.84529 0.56354
 C287 C 0.23364 0.83610 0.45152
 C288 C 0.77281 0.59441 0.49879
 H289 H 0.75823 0.58804 0.49837
 C290 C 0.78921 0.58224 0.49802
 H291 H 0.78690 0.56658 0.49769
 C292 C 0.79350 0.62245 0.49943
 H293 H 0.79501 0.63821 0.49962
 C294 C 0.81026 0.61089 0.49830
 H295 H 0.82457 0.61802 0.49745
 N296 N 0.77523 0.61413 0.49958
 C297 C 0.71812 0.62488 0.47951
 H298 H 0.72296 0.63688 0.46997
 C299 C 0.69977 0.61619 0.47662
 H300 H 0.69078 0.62185 0.46490
 C301 C 0.72331 0.60428 0.50726
 H302 H 0.73242 0.60003 0.51944
 C303 C 0.70526 0.59479 0.50460
 H304 H 0.70100 0.58285 0.51454
 Zn305 Zn 0.75388 0.63177 0.49842
 N306 N 0.72958 0.61871 0.49452
 C307 C 0.76333 0.63980 0.46007
 N308 N 0.75921 0.64889 0.47688
 C309 C 0.75885 0.66875 0.47757
 C310 C 0.76166 0.68024 0.46052
 C311 C 0.76643 0.65066 0.44283
 C312 C 0.76369 0.64173 0.53676
 C313 C 0.76109 0.65120 0.55426
 C314 C 0.73344 0.66839 0.54032
 C315 C 0.73647 0.65847 0.52313
 N316 N 0.75147 0.64554 0.52163
 H317 H 0.76381 0.62400 0.46003
 H318 H 0.75591 0.67569 0.49118
 H319 H 0.76048 0.69598 0.46109
 H320 H 0.76954 0.64305 0.42959
 H321 H 0.77529 0.63114 0.53537
 H322 H 0.77098 0.64805 0.56616
 H323 H 0.72132 0.67849 0.54136
 H324 H 0.72673 0.66091 0.51099
 C325 C 0.69313 0.60072 0.48909
 C326 C 0.80831 0.59045 0.49754
 C327 C 0.74577 0.66468 0.55620
 C328 C 0.76505 0.67113 0.44277
 C329 C 0.02002 0.22404 0.10166
 H330 H 0.02979 0.23617 0.09772
 C331 C 0.02335 0.20562 0.09403
 H332 H 0.03561 0.20369 0.08405
 C333 C -0.00730 0.21152 0.12013
 H334 H -0.01892 0.21365 0.13070
 C335 C -0.00446 0.19295 0.11299
 H336 H -0.01438 0.18117 0.11769
 N337 N 0.00466 0.22671 0.11419
 C338 C -0.00854 0.28859 0.11489
 H339 H -0.01190 0.28864 0.13031
 C340 C -0.01097 0.30553 0.10359
 H341 H -0.01705 0.31801 0.11072
 C342 C 0.00185 0.27128 0.08743
 H343 H 0.00670 0.25783 0.08121
 C344 C -0.00020 0.28811 0.07544
 H345 H 0.00388 0.28719 0.06025
 Zn346 Zn 0.00048 0.25126 0.12548
 N347 N -0.00190 0.27202 0.10686
 C348 C 0.03346 0.27279 0.13751
 N349 N 0.02234 0.25645 0.14151
 C350 C 0.02840 0.24248 0.15458
 C351 C 0.04678 0.24421 0.16342
 C352 C 0.05176 0.27517 0.14609
 C353 C -0.03940 0.24726 0.12678
 C354 C -0.05872 0.24870 0.13345
 C355 C -0.04642 0.25759 0.16480
 C356 C -0.02713 0.25562 0.15754
 N357 N -0.02409 0.25072 0.13874
 H358 H 0.02870 0.28362 0.12688
 H359 H 0.01948 0.22944 0.15724
 H360 H 0.05184 0.23245 0.17295
 H361 H 0.06050 0.28811 0.14232
 H362 H -0.03651 0.24370 0.11180
 H363 H -0.07057 0.24558 0.12360
 H364 H -0.04865 0.26222 0.17956
 H365 H -0.01468 0.25877 0.16662
 C366 C -0.00629 0.30589 0.08351
 C367 C 0.01099 0.18980 0.09975
 C368 C -0.06254 0.25442 0.15254
 C369 C 0.05899 0.26047 0.15871
 C370 C -0.00102 0.78999 0.38159
 H371 H 0.00213 0.79041 0.36612
 C372 C 0.00053 0.80703 0.39201
 H373 H 0.00524 0.82040 0.38438
 C374 C -0.01034 0.77173 0.41019
 H375 H -0.01467 0.75790 0.41712
 C376 C -0.00923 0.78858 0.42118
 H377 H -0.01294 0.78757 0.43654
 N378 N -0.00629 0.77279 0.39075
 C379 C -0.02162 0.71338 0.38831
 H380 H -0.03349 0.71583 0.37828
 C381 C -0.02107 0.69582 0.39927
 H382 H -0.03256 0.68494 0.39757
 C383 C 0.00759 0.72451 0.40304
 H384 H 0.01872 0.73574 0.40450
 C385 C 0.00853 0.70731 0.41449
 H386 H 0.02054 0.70535 0.42456
 Zn387 Zn -0.00751 0.75080 0.37470
 N388 N -0.00730 0.72725 0.39021
 C389 C 0.03234 0.75732 0.36770
 N390 N 0.01551 0.75223 0.35857
 C391 C 0.01543 0.74968 0.33902
 C392 C 0.03289 0.75180 0.32802
 C393 C 0.04992 0.76006 0.35724
 C394 C -0.04383 0.76677 0.36439
 C395 C -0.06157 0.76880 0.35464
 C396 C -0.05299 0.74114 0.33554
 C397 C -0.03544 0.73954 0.34593
 N398 N -0.03106 0.75243 0.35990
 H399 H 0.03200 0.75993 0.38311
 H400 H 0.00193 0.74607 0.33183
 H401 H 0.03256 0.74919 0.31259
 H402 H 0.06283 0.76483 0.36491
 H403 H -0.04057 0.77651 0.37598
 H404 H -0.07134 0.77981 0.36000
 H405 H -0.05500 0.73098 0.32405
 H406 H -0.02532 0.72789 0.34284
 C407 C -0.00585 0.69265 0.41257
 C408 C -0.00379 0.80659 0.41206
 C409 C -0.06672 0.75608 0.33958
 C410 C 0.05051 0.75710 0.33711
 C411 C 0.51461 0.28186 0.89362
 H412 H 0.52382 0.28183 0.88071
 C413 C 0.51586 0.29764 0.90579
 H414 H 0.52633 0.30933 0.90229
 C415 C 0.48897 0.26752 0.91322
 H416 H 0.47800 0.25607 0.91559
 C417 C 0.48970 0.28316 0.92582
 H418 H 0.47931 0.28365 0.93789
 N419 N 0.50104 0.26738 0.89722
 C420 C 0.49619 0.20820 0.87499
 H421 H 0.49445 0.21164 0.85971
 C422 C 0.49771 0.18870 0.88125
 H423 H 0.49642 0.17732 0.87075
 C424 C 0.50084 0.21882 0.90705
 H425 H 0.50283 0.23056 0.91696
 C426 C 0.50249 0.19949 0.91395
 H427 H 0.50550 0.19662 0.92920
 Zn428 Zn 0.49770 0.24881 0.87748
 N429 N 0.49762 0.22282 0.88785
 C430 C 0.53694 0.24601 0.86935
 N431 N 0.51976 0.25080 0.86062
 C432 C 0.51924 0.25656 0.84151
 C433 C 0.53666 0.25746 0.83036
 C434 C 0.55462 0.24710 0.85894
 C435 C 0.46123 0.26735 0.87174
 C436 C 0.44297 0.27078 0.86334
 C437 C 0.45114 0.24779 0.83870
 C438 C 0.46917 0.24457 0.84776
 N439 N 0.47380 0.25411 0.86418
 H440 H 0.53688 0.24167 0.88462
 H441 H 0.50542 0.26051 0.83492
 H442 H 0.53598 0.26169 0.81508
 H443 H 0.56812 0.24385 0.86652
 H444 H 0.46508 0.27513 0.88452
 H445 H 0.43299 0.28079 0.87020
 H446 H 0.44790 0.24016 0.82556
 H447 H 0.47950 0.23457 0.84151
 C448 C 0.50101 0.18414 0.90095
 C449 C 0.50287 0.29874 0.92173
 C450 C 0.43760 0.26082 0.84668
 C451 C 0.55469 0.25264 0.83909
 C452 C 0.50173 0.71693 0.60017
 H453 H 0.50284 0.73019 0.59122
 C454 C 0.50027 0.69881 0.59141
 H455 H 0.50027 0.69829 0.57569
 C456 C 0.49938 0.70148 0.63149
 H457 H 0.49867 0.70270 0.64713
 C458 C 0.49788 0.68314 0.62338
 H459 H 0.49648 0.67028 0.63291
 N460 N 0.50120 0.71792 0.61989
 C461 C 0.48433 0.77485 0.61329
 H462 H 0.47140 0.77093 0.62191
 C463 C 0.48422 0.79194 0.60173
 H464 H 0.47120 0.80098 0.60157
 C465 C 0.51698 0.76807 0.60303
 H466 H 0.52982 0.75887 0.60398
 C467 C 0.51739 0.78499 0.59098
 H468 H 0.53059 0.78876 0.58258
 Zn469 Zn 0.50093 0.74221 0.63246
 N470 N 0.50068 0.76350 0.61407
 C471 C 0.52865 0.76255 0.65479
 N472 N 0.52386 0.74471 0.64790
 C473 C 0.53624 0.72929 0.65020
 C474 C 0.55407 0.73142 0.65977
 C475 C 0.54655 0.76541 0.66422
 C476 C 0.46231 0.73107 0.64225
 C477 C 0.44331 0.73344 0.64956
 C478 C 0.45507 0.76059 0.66791
 C479 C 0.47404 0.75753 0.66037
 N480 N 0.47721 0.74319 0.64745
 H481 H 0.51891 0.77477 0.65231
 H482 H 0.53272 0.71539 0.64412
 H483 H 0.56388 0.71906 0.66102
 H484 H 0.55033 0.77977 0.66929
 H485 H 0.46477 0.72021 0.63148
 H486 H 0.43171 0.72374 0.64494
 H487 H 0.45260 0.77267 0.67739
 H488 H 0.48593 0.76733 0.66396
 C489 C 0.50098 0.79733 0.59062
 C490 C 0.49811 0.68163 0.60308
 C491 C 0.43931 0.74876 0.66203
 C492 C 0.55954 0.74970 0.66669
 C493 C 0.89251 0.97477 0.70229
 H494 H 0.88165 0.96314 0.70401
 C495 C 0.90151 0.97812 0.68501
 H496 H 0.89810 0.96857 0.67327
 C497 C 0.91002 1.00075 0.71681
 H498 H 0.91259 1.01006 0.72895
 C499 C 0.92072 1.00464 0.69826
 H500 H 0.93082 1.01698 0.69757
 N501 N 0.89702 0.98669 0.71849
 C502 C 0.88887 0.97724 0.78224
 H503 H 0.87294 0.97635 0.78282
 C504 C 0.89913 0.97637 0.79865
 H505 H 0.89118 0.97408 0.81229
 C506 C 0.91791 0.97928 0.76236
 H507 H 0.92515 0.98080 0.74831
 C508 C 0.92992 0.97812 0.78011
 H509 H 0.94571 0.97957 0.77820
 Zn510 Zn 0.88232 0.98447 0.74209
 N511 N 0.89878 0.97975 0.76373
 C512 C 0.87246 0.94526 0.74220
 N513 N 0.86423 0.96329 0.74177
 C514 C 0.84434 0.96550 0.74279
 C515 C 0.83189 0.94904 0.74434
 C516 C 0.86064 0.92850 0.74395
 C517 C 0.87431 1.01989 0.76040
 C518 C 0.86728 1.03887 0.76158
 C519 C 0.85076 1.03489 0.73106
 C520 C 0.85803 1.01584 0.73053
 N521 N 0.86968 1.00878 0.74502
 H522 H 0.88833 0.94396 0.74175
 H523 H 0.83813 0.97999 0.74273
 H524 H 0.81610 0.95107 0.74500
 H525 H 0.86769 0.91439 0.74498
 H526 H 0.88404 1.01439 0.77151
 H527 H 0.87116 1.04737 0.77398
 H528 H 0.84204 1.04047 0.71908
 H529 H 0.85497 1.00690 0.71821
 C530 C 0.92109 0.97763 0.79790
 C531 C 0.91662 0.99409 0.68250
 C532 C 0.85564 1.04677 0.74662
 C533 C 0.84002 0.93018 0.74509
 C534 C 0.38957 0.48931 0.20572
 H535 H 0.37893 0.47772 0.20883
 C536 C 0.39920 0.49053 0.18759
 H537 H 0.39613 0.47961 0.17696
 C538 C 0.40652 0.51763 0.21573
 H539 H 0.40911 0.52825 0.22675
 C540 C 0.41652 0.51934 0.19788
 H541 H 0.42676 0.53141 0.19524
 N542 N 0.39349 0.50270 0.21939
 C543 C 0.39103 0.49874 0.28262
 H544 H 0.37531 0.50028 0.28479
 C545 C 0.40339 0.49777 0.29861
 H546 H 0.39690 0.49896 0.31297
 C547 C 0.41832 0.49662 0.26097
 H548 H 0.42404 0.49615 0.24625
 C549 C 0.43125 0.49517 0.27663
 H550 H 0.44683 0.49339 0.27369
 Zn551 Zn 0.38032 0.50215 0.24388
 N552 N 0.39865 0.49876 0.26425
 C553 C 0.37110 0.46280 0.24798
 N554 N 0.36244 0.48058 0.24620
 C555 C 0.34249 0.48230 0.24718
 C556 C 0.33046 0.46559 0.24970
 C557 C 0.35972 0.44584 0.25086
 C558 C 0.37518 0.53934 0.25950
 C559 C 0.36793 0.55825 0.26066
 C560 C 0.34571 0.55146 0.23457
 C561 C 0.35347 0.53257 0.23386
 N562 N 0.36787 0.52684 0.24633
 H563 H 0.38701 0.46186 0.24750
 H564 H 0.33585 0.49657 0.24608
 H565 H 0.31462 0.46727 0.25000
 H566 H 0.36717 0.43203 0.25283
 H567 H 0.38715 0.53501 0.26877
 H568 H 0.37400 0.56787 0.27130
 H569 H 0.33449 0.55591 0.22434
 H570 H 0.34833 0.52265 0.22306
 C571 C 0.42388 0.49606 0.29581
 C572 C 0.41297 0.50565 0.18352
 C573 C 0.35314 0.56463 0.24799
 C574 C 0.33904 0.44696 0.25162
 C575 C 0.58652 0.99777 0.27697
 H576 H 0.57969 0.99595 0.26303
 C577 C 0.57526 0.99843 0.29309
 H578 H 0.55949 0.99682 0.29164
 C579 C 0.61619 0.99995 0.29492
 H580 H 0.63211 1.00036 0.29550
 C581 C 0.60445 1.00083 0.31302
 H582 H 0.61247 1.00292 0.32627
 N583 N 0.60762 0.99875 0.27822
 C584 C 0.61431 0.98131 0.22041
 H585 H 0.62530 0.97046 0.22381
 C586 C 0.60439 0.98060 0.20283
 H587 H 0.60750 0.96894 0.19300
 C588 C 0.59725 1.01002 0.22871
 H589 H 0.59485 1.02161 0.23878
 C590 C 0.58677 1.00970 0.21139
 H591 H 0.57621 1.02108 0.20817
 Zn592 Zn 0.62466 0.99693 0.25636
 N593 N 0.61044 0.99574 0.23303
 C594 C 0.62698 0.95725 0.26226
 N595 N 0.63873 0.97341 0.26016
 C596 C 0.65871 0.97208 0.26075
 C597 C 0.66759 0.95374 0.26260
 C598 C 0.63518 0.93875 0.26434
 C599 C 0.63554 1.03552 0.26379
 C600 C 0.64619 1.05298 0.26144
 C601 C 0.66862 1.03687 0.23974
 C602 C 0.65706 1.01990 0.24199
 N603 N 0.64115 1.01939 0.25423
 H604 H 0.61114 0.95878 0.26192
 H605 H 0.66782 0.98510 0.25972
 H606 H 0.68350 0.95278 0.26282
 H607 H 0.62554 0.92604 0.26547
 H608 H 0.62248 1.03504 0.27297
 H609 H 0.64144 1.06537 0.26962
 H610 H 0.68103 1.03684 0.22968
 H611 H 0.66065 1.00719 0.23373
 C612 C 0.59033 0.99484 0.19824
 C613 C 0.58453 1.00004 0.31258
 C614 C 0.66314 1.05395 0.24932
 C615 C 0.65573 0.93681 0.26430
 C616 C 0.09104 0.49813 0.77325
 H617 H 0.08789 0.48832 0.76164
 C618 C 0.07892 0.49802 0.78982
 H619 H 0.06642 0.48806 0.79095
 C620 C 0.11164 0.52251 0.78624
 H621 H 0.12466 0.53170 0.78500
 C622 C 0.10008 0.52268 0.80316
 H623 H 0.10407 0.53233 0.81468
 N624 N 0.10687 0.51046 0.77164
 C625 C 0.11759 0.50661 0.70955
 H626 H 0.13309 0.50305 0.70972
 C627 C 0.10706 0.50524 0.69238
 H628 H 0.11466 0.50039 0.67950
 C629 C 0.08883 0.51590 0.72669
 H630 H 0.08182 0.52007 0.74012
 C631 C 0.07778 0.51505 0.70975
 H632 H 0.06232 0.51878 0.71033
 Zn633 Zn 0.12327 0.50918 0.74927
 N634 N 0.10823 0.51115 0.72638
 C635 C 0.12636 0.46975 0.74063
 N636 N 0.13524 0.48424 0.75052
 C637 C 0.15056 0.48035 0.76257
 C638 C 0.15806 0.46139 0.76431
 C639 C 0.13311 0.45062 0.74223
 C640 C 0.13307 0.54831 0.74909
 C641 C 0.14472 0.56516 0.74964
 C642 C 0.17368 0.54505 0.74762
 C643 C 0.16141 0.52848 0.74725
 N644 N 0.14149 0.53040 0.74844
 H645 H 0.11358 0.47286 0.73193
 H646 H 0.15673 0.49184 0.77110
 H647 H 0.17024 0.45841 0.77393
 H648 H 0.12580 0.43926 0.73431
 H649 H 0.11719 0.54943 0.74975
 H650 H 0.13758 0.57913 0.75102
 H651 H 0.18950 0.54327 0.74670
 H652 H 0.16783 0.51420 0.74597
 C653 C 0.08676 0.50914 0.69236
 C654 C 0.08349 0.51033 0.80507
 C655 C 0.16535 0.56371 0.74906
 C656 C 0.14914 0.44628 0.75416
 C657 C 0.79004 0.89668 0.00256
 H658 H 0.77946 0.89952 0.01401
 C659 C 0.80885 0.90516 0.00287
 H660 H 0.81268 0.91471 0.01452
 C661 C 0.79828 0.88007 -0.02613
 H662 H 0.79428 0.86996 -0.03718
 C663 C 0.81731 0.88794 -0.02618
 H664 H 0.82770 0.88415 -0.03751
 N665 N 0.78510 0.88450 -0.01189
 C666 C 0.72094 0.88043 -0.00992
 H667 H 0.71959 0.86468 -0.01040
 C668 C 0.70410 0.89178 -0.00848
 H669 H 0.68987 0.88451 -0.00755
 C670 C 0.74140 0.90868 -0.00968
 H671 H 0.75597 0.91518 -0.01032
 C672 C 0.72487 0.92067 -0.00847
 H673 H 0.72694 0.93637 -0.00827
 Zn674 Zn 0.76049 0.87135 -0.01073
 N675 N 0.73913 0.88891 -0.00998
 C676 C 0.74674 0.85900 0.02662
 N677 N 0.76022 0.85537 0.01238
 C678 C 0.77497 0.84235 0.01548
 C679 C 0.77669 0.83260 0.03359
 C680 C 0.74780 0.84949 0.04479
 C681 C 0.75482 0.86857 -0.04988
 C682 C 0.75258 0.86024 -0.06791
 C683 C 0.75609 0.82829 -0.05236
 C684 C 0.75805 0.83728 -0.03445
 N685 N 0.75752 0.85712 -0.03363
 H686 H 0.73560 0.86993 0.02431
 H687 H 0.78581 0.84009 0.00412
 H688 H 0.78868 0.82251 0.03595
 H689 H 0.73729 0.85312 0.05606
 H690 H 0.75453 0.88431 -0.04878
 H691 H 0.75066 0.86968 -0.08069
 H692 H 0.75655 0.81250 -0.05292
 H693 H 0.76011 0.82847 -0.02132
 C694 C 0.70587 0.91221 -0.00762
 C695 C 0.82277 0.90058 -0.01151
 C696 C 0.75323 0.83987 -0.06935
 C697 C 0.76307 0.83630 0.04858
 C698 C 0.27785 0.40196 0.50410
 H699 H 0.26501 0.41106 0.50540
 C700 C 0.29672 0.41034 0.50491
 H701 H 0.29830 0.42588 0.50708
 C702 C 0.29160 0.37069 0.49953
 H703 H 0.28941 0.35523 0.49732
 C704 C 0.31062 0.37837 0.50045
 H705 H 0.32308 0.36877 0.49878
 N706 N 0.27570 0.38239 0.50172
 C707 C 0.21592 0.38700 0.48770
 H708 H 0.21773 0.37785 0.47532
 C709 C 0.19910 0.39841 0.48912
 H710 H 0.18851 0.39831 0.47750
 C711 C 0.22709 0.39776 0.51807
 H712 H 0.23789 0.39705 0.52948
 C713 C 0.21042 0.40945 0.52008
 H714 H 0.20850 0.41775 0.53310
 Zn715 Zn 0.25104 0.36940 0.50054
 N716 N 0.22955 0.38687 0.50202
 C717 C 0.23177 0.34010 0.52426
 N718 N 0.24842 0.35126 0.52194
 C719 C 0.26235 0.35146 0.53597
 C720 C 0.25969 0.34049 0.55324
 C721 C 0.22850 0.32887 0.54144
 C722 C 0.25387 0.37020 0.46078
 C723 C 0.25359 0.36370 0.44184
 C724 C 0.24820 0.33074 0.45472
 C725 C 0.24834 0.33797 0.47357
 N726 N 0.25086 0.35746 0.47615
 H727 H 0.22071 0.34051 0.51309
 H728 H 0.27522 0.36076 0.53423
 H729 H 0.27091 0.34108 0.56426
 H730 H 0.21488 0.32059 0.54336
 H731 H 0.25615 0.38558 0.46332
 H732 H 0.25577 0.37413 0.42979
 H733 H 0.24585 0.31526 0.45272
 H734 H 0.24631 0.32807 0.48604
 C735 C 0.19605 0.40970 0.50555
 C736 C 0.31337 0.39840 0.50330
 C737 C 0.25054 0.34379 0.43861
 C738 C 0.24240 0.32936 0.55637
 C739 C 0.22188 0.60395 0.01141
 H740 H 0.23454 0.59449 0.01141
 C741 C 0.20287 0.59583 0.01153
 H742 H 0.20144 0.58007 0.01234
 C743 C 0.20883 0.63591 0.01079
 H744 H 0.21135 0.65156 0.01005
 C745 C 0.18966 0.62850 0.01111
 H746 H 0.17778 0.63889 0.01011
 N747 N 0.22445 0.62367 0.01118
 C748 C 0.28152 0.61742 -0.00858
 H749 H 0.27872 0.62750 -0.02062
 C750 C 0.29732 0.60460 -0.00976
 H751 H 0.30626 0.60473 -0.02293
 C752 C 0.27334 0.60511 0.02315
 H753 H 0.26404 0.60563 0.03602
 C754 C 0.28907 0.59205 0.02261
 H755 H 0.29184 0.58265 0.03522
 Zn756 Zn 0.24948 0.63602 0.00965
 N757 N 0.26992 0.61749 0.00771
 C758 C 0.27059 0.66090 0.03443
 N759 N 0.25350 0.65065 0.03229
 C760 C 0.23942 0.64997 0.04657
 C761 C 0.24198 0.66015 0.06357
 C762 C 0.27380 0.67132 0.05131
 C763 C 0.24206 0.64351 -0.02916
 C764 C 0.23956 0.65426 -0.04649
 C765 C 0.25170 0.68295 -0.03073
 C766 C 0.25367 0.67166 -0.01354
 N767 N 0.24896 0.65227 -0.01313
 H768 H 0.28177 0.66087 0.02306
 H769 H 0.22617 0.64137 0.04496
 H770 H 0.23036 0.65964 0.07453
 H771 H 0.28754 0.67926 0.05285
 H772 H 0.23810 0.62815 -0.02833
 H773 H 0.23344 0.64698 -0.05880
 H774 H 0.25586 0.69826 -0.03086
 H775 H 0.25881 0.67843 -0.00056
 C776 C 0.30143 0.59181 0.00604
 C777 C 0.18621 0.60811 0.01149
 C778 C 0.24445 0.67428 -0.04753
 C779 C 0.25937 0.67097 0.06619
 C780 C 0.71441 0.10944 0.51244
 H781 H 0.72545 0.10467 0.52270
 C782 C 0.69584 0.10034 0.51274
 H783 H 0.69264 0.08859 0.52328
 C784 C 0.70488 0.13081 0.48651
 H785 H 0.70833 0.14265 0.47625
 C786 C 0.68612 0.12236 0.48651
 H787 H 0.67537 0.12774 0.47619
 N788 N 0.71851 0.12456 0.49959
 C789 C 0.78303 0.12806 0.50139
 H790 H 0.78506 0.14346 0.50365
 C791 C 0.79944 0.11598 0.50080
 H792 H 0.81390 0.12227 0.50303
 C793 C 0.76176 0.10122 0.49586
 H794 H 0.74710 0.09558 0.49354
 C795 C 0.77782 0.08858 0.49511
 H796 H 0.77529 0.07330 0.49228
 Zn797 Zn 0.74313 0.13819 0.50009
 N798 N 0.76460 0.12056 0.49912
 C799 C 0.75834 0.16773 0.52355
 N800 N 0.74472 0.15302 0.52288
 C801 C 0.73229 0.14893 0.53820
 C802 C 0.73389 0.15919 0.55530
 C803 C 0.76042 0.17840 0.54040
 C804 C 0.75395 0.14943 0.46184
 C805 C 0.75298 0.16062 0.44458
 C806 C 0.73346 0.18430 0.46144
 C807 C 0.73484 0.17266 0.47842
 N808 N 0.74467 0.15544 0.47819
 H809 H 0.76764 0.17119 0.51100
 H810 H 0.72124 0.13758 0.53734
 H811 H 0.72395 0.15558 0.56738
 H812 H 0.77168 0.18969 0.54086
 H813 H 0.76150 0.13558 0.46201
 H814 H 0.76022 0.15547 0.43162
 H815 H 0.72488 0.19756 0.46165
 H816 H 0.72734 0.17691 0.49158
 C817 C 0.79700 0.09594 0.49762
 C818 C 0.68136 0.10708 0.49986
 C819 C 0.74224 0.17807 0.44413
 C820 C 0.74831 0.17391 0.55667
 C821 C 0.98604 0.71970 0.90272
 H822 H 0.97363 0.72070 0.89313
 C823 C 0.98912 0.70299 0.91272
 H824 H 0.97891 0.69094 0.91098
 C825 C 1.01219 0.73606 0.91843
 H826 H 1.02130 0.74878 0.92052
 C827 C 1.01584 0.71805 0.93022
 H828 H 1.02812 0.71819 0.94006
 N829 N 0.99880 0.73632 0.90504
 C830 C 0.99529 0.79955 0.89192
 H831 H 1.00037 0.79991 0.87692
 C832 C 0.99322 0.81619 0.90131
 H833 H 0.99734 0.82964 0.89357
 C834 C 0.98566 0.78002 0.91985
 H835 H 0.98293 0.76592 0.92699
 C836 C 0.98296 0.79803 0.93082
 H837 H 0.97746 0.79632 0.94560
 Zn838 Zn 0.99669 0.75848 0.88765
 N839 N 0.99151 0.78107 0.90176
 C840 C 0.96032 0.76650 0.86954
 N841 N 0.97596 0.75420 0.86990
 C842 C 0.97631 0.73805 0.85884
 C843 C 0.95997 0.73306 0.84786
 C844 C 0.94387 0.76231 0.85839
 C845 C 1.03665 0.76852 0.88481
 C846 C 1.05515 0.77147 0.87612
 C847 C 1.04121 0.76337 0.84527
 C848 C 1.02294 0.76038 0.85463
 N849 N 1.02107 0.76265 0.87416
 H850 H 0.96028 0.77924 0.87843
 H851 H 0.98890 0.72848 0.85936
 H852 H 0.96006 0.71972 0.83980
 H853 H 0.93124 0.77187 0.85872
 H854 H 1.03472 0.77114 0.90010
 H855 H 1.06738 0.77555 0.88512
 H856 H 1.04234 0.76162 0.82970
 H857 H 1.01031 0.75632 0.84623
 C858 C 0.98670 0.81579 0.92220
 C859 C 1.00545 0.70158 0.92695
 C860 C 1.05769 0.76883 0.85608
 C861 C 0.94341 0.74514 0.84783
 C862 C 0.49029 0.20862 0.39891
 H863 H 0.47794 0.20945 0.38919
 C864 C 0.49397 0.19109 0.40909
 H865 H 0.48409 0.17875 0.40743
 C866 C 0.51826 0.22351 0.41268
 H867 H 0.52780 0.23618 0.41377
 C868 C 0.52241 0.20627 0.42327
 H869 H 0.53520 0.20576 0.43251
 N870 N 0.50224 0.22447 0.40102
 C871 C 0.48904 0.28641 0.39409
 H872 H 0.48720 0.28690 0.37848
 C873 C 0.48655 0.30331 0.40457
 H874 H 0.48256 0.31671 0.39685
 C875 C 0.49599 0.26807 0.42296
 H876 H 0.49951 0.25426 0.43008
 C877 C 0.49382 0.28476 0.43405
 H878 H 0.49613 0.28368 0.44959
 Zn879 Zn 0.49735 0.24802 0.38668
 N880 N 0.49397 0.26932 0.40329
 C881 C 0.45696 0.24306 0.38401
 N882 N 0.47347 0.24576 0.37279
 C883 C 0.47240 0.24732 0.35304
 C884 C 0.45425 0.24527 0.34387
 C885 C 0.43857 0.24106 0.37549
 C886 C 0.53223 0.26765 0.37455
 C887 C 0.54927 0.27127 0.36336
 C888 C 0.53960 0.24528 0.34248
 C889 C 0.52307 0.24172 0.35452
 N890 N 0.51944 0.25317 0.36993
 H891 H 0.45816 0.24235 0.39969
 H892 H 0.48552 0.25019 0.34433
 H893 H 0.45379 0.24604 0.32814
 H894 H 0.42566 0.23904 0.38479
 H895 H 0.52955 0.27610 0.38731
 H896 H 0.55945 0.28238 0.36800
 H897 H 0.54158 0.23641 0.32990
 H898 H 0.51306 0.22983 0.35149
 C899 C 0.48934 0.30277 0.42479
 C900 C 0.51016 0.18977 0.42153
 C901 C 0.55316 0.26020 0.34685
 C902 C 0.43702 0.24191 0.35513
 C903 C 0.99499 0.26342 0.59046
 H904 H 0.99352 0.24930 0.58399
 C905 C 0.99452 0.28049 0.57865
 H906 H 0.99179 0.27887 0.56334
 C907 C 0.99987 0.28207 0.61834
 H908 H 1.00247 0.28251 0.63381
 C909 C 0.99966 0.29943 0.60717
 H910 H 1.00268 0.31276 0.61461
 N911 N 0.99769 0.26454 0.60992
 C912 C 1.01711 0.20645 0.61621
 H913 H 1.02965 0.21090 0.62454
 C914 C 1.01687 0.18788 0.60845
 H915 H 1.02952 0.17853 0.61042
 C916 C 0.98522 0.21285 0.60412
 H917 H 0.97275 0.22253 0.60294
 C918 C 0.98439 0.19435 0.59604
 H919 H 0.97122 0.18992 0.58857
 Zn920 Zn 1.00133 0.24259 0.62697
 N921 N 1.00146 0.21855 0.61393
 C922 C 0.98129 0.22619 0.65978
 N923 N 0.98088 0.24088 0.64597
 C924 C 0.96523 0.25308 0.64452
 C925 C 0.94903 0.25055 0.65710
 C926 C 0.96543 0.22324 0.67279
 C927 C 1.04131 0.24897 0.62517
 C928 C 1.06047 0.25184 0.63148
 C929 C 1.04813 0.25080 0.66463
 C930 C 1.02913 0.24778 0.65760
 N931 N 1.02619 0.24661 0.63818
 H932 H 0.99374 0.21644 0.66035
 H933 H 0.96498 0.26440 0.63320
 H934 H 0.93659 0.26025 0.65558
 H935 H 0.96576 0.21119 0.68340
 H936 H 1.03842 0.24850 0.60976
 H937 H 1.07190 0.25412 0.62051
 H938 H 1.04996 0.25077 0.68022
 H939 H 1.01680 0.24623 0.66768
 C940 C 1.00031 0.18152 0.59835
 C941 C 0.99713 0.29908 0.58681
 C942 C 1.06438 0.25256 0.65155
 C943 C 0.94888 0.23531 0.67129
 C944 C 0.48115 0.76563 0.09016
 H945 H 0.46733 0.75812 0.09344
 C946 C 0.48174 0.78160 0.07692
 H947 H 0.46828 0.78646 0.07009
 C948 C 0.51534 0.76918 0.09593
 H949 H 0.52842 0.76435 0.10339
 C950 C 0.51657 0.78522 0.08296
 H951 H 0.53059 0.79268 0.08060
 N952 N 0.49773 0.76009 0.09968
 C953 C 0.49424 0.69993 0.12220
 H954 H 0.49373 0.70227 0.13769
 C955 C 0.49468 0.68097 0.11547
 H956 H 0.49407 0.66873 0.12585
 C957 C 0.49580 0.71322 0.08992
 H958 H 0.49657 0.72587 0.08008
 C959 C 0.49632 0.69446 0.08253
 H960 H 0.49755 0.69282 0.06695
 Zn961 Zn 0.49619 0.74077 0.11991
 N962 N 0.49489 0.71558 0.10945
 C963 C 0.45869 0.73089 0.13574
 N964 N 0.47291 0.74509 0.13493
 C965 C 0.46975 0.76272 0.14299
 C966 C 0.45189 0.76643 0.15257
 C967 C 0.44078 0.73391 0.14522
 C968 C 0.53324 0.72798 0.13211
 C969 C 0.55225 0.72985 0.13914
 C970 C 0.54355 0.76119 0.15170
 C971 C 0.52452 0.75867 0.14448
 N972 N 0.51981 0.74238 0.13456
 H973 H 0.46082 0.71734 0.12848
 H974 H 0.48080 0.77416 0.14150
 H975 H 0.44959 0.78054 0.15889
 H976 H 0.42960 0.72250 0.14530
 H977 H 0.52976 0.71545 0.12367
 H978 H 0.56272 0.71832 0.13664
 H979 H 0.54733 0.77461 0.15875
 H980 H 0.51395 0.77024 0.14581
 C981 C 0.49591 0.67805 0.09540
 C982 C 0.49953 0.79192 0.07368
 C983 C 0.55782 0.74686 0.14852
 C984 C 0.43715 0.75186 0.15378
 O985 O 0.04820 1.00946 1.02368
 O986 O 0.04872 0.97949 1.00914
 O987 O 0.04913 1.05122 0.97567
 O988 O 0.03110 1.05886 0.94992
 O989 O 0.00769 1.05702 1.02324
 O990 O -0.02301 1.04151 1.03160
 O991 O -0.01124 1.00282 0.93313
 O992 O 0.02077 1.01398 0.92802
 O993 O -0.01074 0.96025 0.97768
 O994 O 0.00246 0.95817 1.01049
 O995 O -0.05163 1.00608 0.98118
 O996 O -0.05061 1.03959 0.98846
 O997 O -0.03701 1.01749 0.94806
 O998 O -0.03736 1.05103 0.96417
 O999 O -0.03913 0.97792 0.99411
 O1000 O -0.01872 0.97299 1.02432
 O1001 O 0.00085 0.97289 0.94871
 O1002 O 0.03519 0.98621 0.94467
 O1003 O 0.02255 1.02390 1.03915
 O1004 O -0.01198 1.01565 1.04368
 O1005 O 0.01959 1.06937 0.99427
 O1006 O 0.00439 1.06952 0.96153
 O1007 O 0.06206 1.02412 0.99041
 O1008 O 0.05871 0.99017 0.97876
 Zr1009 Zr 0.03763 1.00527 0.99556
 O1010 O 0.01788 0.98716 0.98088
 Zr1011 Zr 0.01870 1.04570 0.97555
 O1012 O -0.00119 1.02930 0.95934
 Zr1013 Zr 0.00080 1.02767 1.01767
 O1014 O -0.02055 1.01105 1.00336
 Zr1015 Zr 0.01008 1.00138 0.95471
 O1016 O 0.03131 1.01880 0.96843
 Zr1017 Zr -0.00872 0.98376 0.99665
 O1018 O 0.01204 0.99973 1.01269
 Zr1019 Zr -0.02691 1.02421 0.97609
 O1020 O -0.00770 1.04234 0.99175
 O1021 O 0.02673 1.03267 1.00192
 O1022 O -0.01635 0.99661 0.97004
 C1023 C 0.03997 1.01656 1.03883
 C1024 C 0.06369 1.04124 0.98220
 C1025 C 0.01454 1.07112 1.01220
 C1026 C -0.02894 1.00925 0.93339
 C1027 C -0.00668 0.95897 0.95945
 C1028 C -0.05350 0.98850 0.98807
 H1029 H 0.02413 0.97445 0.97847
 H1030 H -0.03245 1.00972 1.01177
 H1031 H 0.03635 1.04066 1.00899
 H1032 H -0.00385 1.03625 0.94683
 H1033 H 0.03400 1.01948 0.93061
 H1034 H 0.02731 1.05052 0.93910
 H1035 H -0.02979 0.98125 1.02848
 H1036 H -0.00680 1.00223 1.04531
 H1037 H 0.03176 0.98021 0.93221
 H1038 H 0.07184 0.99164 0.98476
 H1039 H -0.05138 1.03565 1.00242
 H1040 H -0.02853 1.05085 1.02187
 H1041 H 0.03834 0.97448 1.01830
 H1042 H 0.01461 0.95457 1.00341
 H1043 H -0.00678 1.07313 0.97007
 H1044 H -0.03179 1.05284 0.95085
 O1045 O 0.49406 0.49124 0.43745
 O1046 O 0.52708 0.50271 0.43825
 O1047 O 0.48942 0.44782 0.48290
 O1048 O 0.49452 0.44562 0.51503
 O1049 O 0.44605 0.49462 0.47912
 O1050 O 0.44667 0.52835 0.48679
 O1051 O 0.53653 0.49867 0.53770
 O1052 O 0.53933 0.46821 0.52392
 O1053 O 0.54604 0.53995 0.49119
 O1054 O 0.53125 0.54518 0.45880
 O1055 O 0.49775 0.54580 0.52926
 O1056 O 0.46444 0.52954 0.53197
 O1057 O 0.50904 0.51463 0.54740
 O1058 O 0.47394 0.50597 0.54691
 O1059 O 0.51530 0.55753 0.50297
 O1060 O 0.50726 0.55919 0.46818
 O1061 O 0.55515 0.51361 0.50990
 O1062 O 0.55612 0.48064 0.49506
 O1063 O 0.46623 0.50629 0.44805
 O1064 O 0.46298 0.53831 0.46204
 O1065 O 0.45616 0.46674 0.49467
 O1066 O 0.47104 0.46268 0.52688
 O1067 O 0.50651 0.46050 0.45669
 O1068 O 0.53898 0.47658 0.45593
 Zr1069 Zr 0.51167 0.48990 0.46256
 O1070 O 0.52975 0.50698 0.48010
 Zr1071 Zr 0.48604 0.47212 0.50099
 O1072 O 0.50310 0.48855 0.52008
 Zr1073 Zr 0.47137 0.51246 0.47731
 O1074 O 0.48766 0.53064 0.49540
 Zr1075 Zr 0.53132 0.49393 0.50812
 O1076 O 0.51504 0.47548 0.48994
 Zr1077 Zr 0.51651 0.53405 0.48422
 O1078 O 0.49941 0.51784 0.46483
 Zr1079 Zr 0.49103 0.51656 0.52274
 O1080 O 0.47258 0.49931 0.50537
 O1081 O 0.48325 0.48496 0.47354
 O1082 O 0.51950 0.52153 0.51203
 C1083 C 0.47652 0.49783 0.43498
 C1084 C 0.49798 0.44625 0.46617
 C1085 C 0.44288 0.47736 0.48647
 C1086 C 0.52604 0.50713 0.55063
 C1087 C 0.55839 0.53056 0.50187
 C1088 C 0.50742 0.55944 0.51986
 H1089 H 0.54301 0.50840 0.47402
 H1090 H 0.48093 0.54331 0.49645
 H1091 H 0.47513 0.47656 0.46529
 H1092 H 0.50388 0.48140 0.53278
 H1093 H 0.53683 0.45715 0.51532
 H1094 H 0.50527 0.44887 0.52396
 H1095 H 0.49410 0.56277 0.47321
 H1096 H 0.47407 0.54199 0.45310
 H1097 H 0.56715 0.48116 0.50435
 H1098 H 0.53775 0.46973 0.44349
 H1099 H 0.46223 0.54128 0.52353
 H1100 H 0.44367 0.52359 0.50026
 H1101 H 0.52139 0.51581 0.43573
 H1102 H 0.54181 0.53593 0.45553
 H1103 H 0.46114 0.47277 0.52972
 H1104 H 0.47921 0.49308 0.55102
 O1105 O 0.45689 0.00487 0.54653
 O1106 O 0.45632 0.03277 0.52637
 O1107 O 0.45282 -0.04201 0.50642
 O1108 O 0.46959 -0.05236 0.48078
 O1109 O 0.49644 -0.04417 0.55178
 O1110 O 0.52738 -0.02827 0.55582
 O1111 O 0.51391 -0.00014 0.45252
 O1112 O 0.48172 -0.01099 0.45074
 O1113 O 0.51454 0.04695 0.48969
 O1114 O 0.50249 0.05236 0.52273
 O1115 O 0.55498 0.00090 0.49850
 O1116 O 0.55284 -0.03212 0.51251
 O1117 O 0.53924 -0.01430 0.46886
 O1118 O 0.54017 -0.04492 0.49013
 O1119 O 0.54337 0.03031 0.50753
 O1120 O 0.52420 0.03909 0.53726
 O1121 O 0.50168 0.03192 0.46372
 O1122 O 0.46767 0.01832 0.46335
 O1123 O 0.48208 -0.00959 0.56285
 O1124 O 0.51658 -0.00137 0.56441
 O1125 O 0.48390 -0.05924 0.52559
 O1126 O 0.49643 -0.06291 0.49226
 O1127 O 0.44148 -0.01330 0.51789
 O1128 O 0.44489 0.01833 0.49910
 Zr1129 Zr 0.46638 0.00524 0.51735
 O1130 O 0.48602 0.02106 0.49867
 Zr1131 Zr 0.48352 -0.03742 0.50331
 O1132 O 0.50354 -0.02338 0.48363
 Zr1133 Zr 0.50324 -0.01567 0.54112
 O1134 O 0.52448 -0.00108 0.52315
 Zr1135 Zr 0.49292 0.00411 0.47467
 O1136 O 0.47157 -0.01107 0.49233
 Zr1137 Zr 0.51300 0.02551 0.51243
 O1138 O 0.49249 0.01183 0.53210
 Zr1139 Zr 0.52979 -0.01718 0.49812
 O1140 O 0.51048 -0.03307 0.51739
 O1141 O 0.47676 -0.02161 0.52774
 O1142 O 0.51979 0.00985 0.48782
 C1143 C 0.46513 -0.00130 0.56227
 C1144 C 0.43901 -0.03098 0.51265
 C1145 C 0.48972 -0.05926 0.54329
 C1146 C 0.53127 -0.00748 0.45321
 C1147 C 0.50941 0.04677 0.47177
 C1148 C 0.55739 0.01898 0.50245
 H1149 H 0.47985 0.03352 0.49450
 H1150 H 0.53660 0.00086 0.53067
 H1151 H 0.46738 -0.02867 0.53670
 H1152 H 0.50575 -0.03168 0.47231
 H1153 H 0.46845 -0.01593 0.45471
 H1154 H 0.47388 -0.04576 0.46841
 H1155 H 0.53465 0.03067 0.54273
 H1156 H 0.51186 0.01228 0.56385
 H1157 H 0.47075 0.02281 0.44978
 H1158 H 0.43203 0.01812 0.50617
 H1159 H 0.55553 -0.02524 0.52463
 H1160 H 0.53262 -0.03848 0.54734
 H1161 H 0.46679 0.03830 0.53449
 H1162 H 0.49047 0.05574 0.51541
 H1163 H 0.50851 -0.06540 0.49981
 H1164 H 0.53299 -0.04881 0.47842
 O1165 O -0.04530 0.46717 1.00104
 O1166 O -0.02884 0.46009 0.97251
 O1167 O -0.00009 0.46405 1.04439
 O1168 O 0.02836 0.47882 1.05068
 O1169 O -0.04000 0.51335 1.04157
 O1170 O -0.04140 0.54200 1.02105
 O1171 O 0.05729 0.50907 0.99124
 O1172 O 0.05512 0.47859 1.00650
 O1173 O 0.01570 0.50999 0.94666
 O1174 O -0.01915 0.50149 0.94462
 O1175 O 0.01669 0.55629 0.98455
 O1176 O 0.00632 0.56145 1.01726
 O1177 O 0.04604 0.53834 1.00126
 O1178 O 0.02721 0.54697 1.03177
 O1179 O 0.00218 0.54234 0.95882
 O1180 O -0.03059 0.52588 0.95519
 O1181 O 0.04155 0.49598 0.96222
 O1182 O 0.03803 0.46377 0.98037
 O1183 O -0.05629 0.49637 1.01170
 O1184 O -0.05401 0.52897 0.99699
 O1185 O -0.01486 0.49793 1.05694
 O1186 O 0.02051 0.50786 1.05686
 O1187 O -0.01481 0.44986 1.01883
 O1188 O -0.00124 0.44681 0.98558
 Zr1189 Zr -0.01477 0.47202 0.99680
 O1190 O 0.00508 0.48621 0.97701
 Zr1191 Zr 0.00591 0.49290 1.03467
 O1192 O 0.02695 0.50738 1.01651
 Zr1193 Zr -0.03117 0.51455 1.01216
 O1194 O -0.01184 0.53049 0.99331
 Zr1195 Zr 0.03165 0.49178 0.99112
 O1196 O 0.01256 0.47585 1.01052
 Zr1197 Zr -0.00546 0.51392 0.96884
 O1198 O -0.02654 0.49882 0.98677
 Zr1199 Zr 0.01556 0.53429 1.00666
 O1200 O -0.00483 0.52069 1.02660
 O1201 O -0.02089 0.48746 1.02171
 O1202 O 0.02167 0.51915 0.98157
 C1203 C -0.05905 0.47858 1.00680
 C1204 C -0.00799 0.44935 1.03618
 C1205 C -0.03172 0.50632 1.05692
 C1206 C 0.05991 0.52700 0.99567
 C1207 C 0.03327 0.50314 0.94695
 C1208 C 0.01039 0.55685 0.96701
 H1209 H 0.00729 0.47799 0.96563
 H1210 H -0.01799 0.54311 0.98974
 H1211 H -0.03019 0.48028 1.03064
 H1212 H 0.03933 0.50893 1.02372
 H1213 H 0.04947 0.46704 1.01372
 H1214 H 0.04048 0.47983 1.04257
 H1215 H -0.03399 0.53803 0.96185
 H1216 H -0.05611 0.52174 0.98494
 H1217 H 0.05153 0.46430 0.97464
 H1218 H -0.00986 0.43525 0.98853
 H1219 H -0.00682 0.56417 1.01183
 H1220 H -0.03128 0.54722 1.02977
 H1221 H -0.03554 0.47102 0.96563
 H1222 H -0.01399 0.48812 0.94331
 H1223 H 0.01388 0.52060 1.05810
 H1224 H 0.03813 0.53867 1.03644
 O1225 O 0.00625 0.44121 0.51751
 O1226 O -0.00921 0.43872 0.48813
 O1227 O 0.05571 0.47968 0.50457
 O1228 O 0.06058 0.50944 0.49125
 O1229 O 0.01901 0.49002 0.55458
 O1230 O -0.01264 0.50313 0.55928
 O1231 O 0.00159 0.53386 0.45601
 O1232 O 0.02980 0.51585 0.45086
 O1233 O -0.04494 0.49493 0.46639
 O1234 O -0.05122 0.46683 0.48810
 O1235 O -0.03558 0.54046 0.50524
 O1236 O -0.01270 0.54636 0.53119
 O1237 O -0.00614 0.55081 0.48295
 O1238 O 0.01082 0.55391 0.51490
 O1239 O -0.05406 0.51432 0.49678
 O1240 O -0.05720 0.48072 0.51263
 O1241 O -0.01860 0.50483 0.44773
 O1242 O 0.01222 0.48599 0.44451
 O1243 O -0.00224 0.45807 0.54429
 O1244 O -0.02936 0.47941 0.55120
 O1245 O 0.04542 0.49993 0.53601
 O1246 O 0.04974 0.52825 0.51336
 O1247 O 0.03760 0.45303 0.49672
 O1248 O 0.01543 0.45073 0.46827
 Zr1249 Zr 0.00835 0.46312 0.49537
 O1250 O -0.01048 0.48032 0.47789
 Zr1251 Zr 0.03477 0.50185 0.50745
 O1252 O 0.01756 0.52056 0.48987
 Zr1253 Zr -0.00397 0.48758 0.53457
 O1254 O -0.02280 0.50619 0.51864
 Zr1255 Zr 0.00502 0.50516 0.46715
 O1256 O 0.02459 0.48701 0.48312
 Zr1257 Zr -0.03364 0.49143 0.49464
 O1258 O -0.01627 0.47212 0.51172
 Zr1259 Zr -0.00666 0.52998 0.50625
 O1260 O 0.01164 0.51276 0.52451
 O1261 O 0.01996 0.47732 0.51900
 O1262 O -0.01885 0.51593 0.48280
 C1263 C 0.00150 0.44207 0.53563
 C1264 C 0.05407 0.46160 0.50026
 C1265 C 0.03708 0.49560 0.55250
 C1266 C -0.00276 0.54973 0.46456
 C1267 C -0.03688 0.50016 0.44998
 C1268 C -0.05212 0.53228 0.50141
 H1269 H -0.01535 0.47242 0.46713
 H1270 H -0.03350 0.51048 0.52737
 H1271 H 0.02848 0.46883 0.52718
 H1272 H 0.02575 0.53162 0.48467
 H1273 H 0.04045 0.50625 0.45296
 H1274 H 0.05632 0.51672 0.47942
 H1275 H -0.05872 0.48965 0.52356
 H1276 H -0.03679 0.46995 0.54345
 H1277 H 0.01065 0.49323 0.43190
 H1278 H 0.02167 0.43785 0.47074
 H1279 H -0.02291 0.53915 0.53902
 H1280 H -0.00609 0.51611 0.55800
 H1281 H -0.02213 0.44025 0.49474
 H1282 H -0.04445 0.45989 0.47757
 H1283 H 0.04255 0.53424 0.52425
 H1284 H 0.02148 0.55609 0.50508
 O1285 O 0.56500 0.98014 0.00595
 O1286 O 0.56723 1.01243 -0.00386
 O1287 O 0.52762 0.98202 0.05787
 O1288 O 0.49664 0.98801 0.06582
 O1289 O 0.51686 0.93874 0.01257
 O1290 O 0.50140 0.94133 -0.01819
 O1291 O 0.47235 1.03737 0.01814
 O1292 O 0.49223 1.03608 0.04527
 O1293 O 0.50785 1.04058 -0.03106
 O1294 O 0.53710 1.02259 -0.04235
 O1295 O 0.46335 0.99854 -0.02825
 O1296 O 0.45754 0.96796 -0.01185
 O1297 O 0.45466 1.01304 0.00460
 O1298 O 0.45232 0.97661 0.01559
 O1299 O 0.48925 1.01177 -0.04549
 O1300 O 0.52292 0.99945 -0.05290
 O1301 O 0.49930 1.05151 -0.00130
 O1302 O 0.52096 1.04835 0.02761
 O1303 O 0.54752 0.95552 -0.00742
 O1304 O 0.52461 0.95437 -0.03394
 O1305 O 0.50977 0.95045 0.04241
 O1306 O 0.47904 0.96901 0.05079
 O1307 O 0.55450 0.99326 0.04065
 O1308 O 0.55653 1.02603 0.02408
 Zr1309 Zr 0.54329 1.00056 0.01289
 O1310 O 0.52530 1.02161 -0.00090
 Zr1311 Zr 0.50515 0.98048 0.03739
 O1312 O 0.48574 1.00112 0.02528
 Zr1313 Zr 0.51780 0.96407 -0.00577
 O1314 O 0.49843 0.98358 -0.01993
 Zr1315 Zr 0.50113 1.02692 0.01740
 O1316 O 0.52001 1.00731 0.03207
 Zr1317 Zr 0.51297 1.01041 -0.02609
 O1318 O 0.53298 0.99015 -0.01367
 Zr1319 Zr 0.47514 0.99074 -0.00102
 O1320 O 0.49307 0.96896 0.01216
 O1321 O 0.52932 0.97403 0.01997
 O1322 O 0.48913 1.01716 -0.00834
 C1323 C 0.56380 0.96362 -0.00238
 C1324 C 0.54585 0.98719 0.05652
 C1325 C 0.51374 0.93650 0.03100
 C1326 C 0.45620 1.03003 0.01203
 C1327 C 0.50232 1.05409 -0.01964
 C1328 C 0.47110 1.00636 -0.04382
 H1329 H 0.53296 1.03376 -0.00374
 H1330 H 0.49360 0.97749 -0.03183
 H1331 H 0.53844 0.96472 0.02639
 H1332 H 0.47502 1.00368 0.03472
 H1333 H 0.50262 1.03186 0.05442
 H1334 H 0.49207 1.00167 0.06487
 H1335 H 0.51432 0.98823 -0.05597
 H1336 H 0.53398 0.96407 -0.03992
 H1337 H 0.51359 1.06068 0.02900
 H1338 H 0.56978 1.02266 0.02903
 H1339 H 0.46530 0.96177 -0.02222
 H1340 H 0.48891 0.94008 -0.01060
 H1341 H 0.56454 1.00958 -0.01759
 H1342 H 0.54357 1.03245 -0.03433
 H1343 H 0.47405 0.95863 0.04239
 H1344 H 0.44953 0.98457 0.02704
 O1345 O 0.53820 0.50063 -0.05032
 O1346 O 0.54237 0.52962 -0.03454
 O1347 O 0.53195 0.45723 -0.00435
 O1348 O 0.50974 0.45266 0.02328
 O1349 O 0.49179 0.45790 -0.05170
 O1350 O 0.46386 0.47647 -0.05992
 O1351 O 0.47640 0.51037 0.04007
 O1352 O 0.50604 0.49676 0.04529
 O1353 O 0.48387 0.55414 -0.00396
 O1354 O 0.49942 0.55575 -0.03617
 O1355 O 0.43819 0.51484 -0.00732
 O1356 O 0.43468 0.48136 -0.01780
 O1357 O 0.44979 0.49819 0.02457
 O1358 O 0.44475 0.46729 0.00616
 O1359 O 0.45500 0.54062 -0.02128
 O1360 O 0.47730 0.54363 -0.05102
 O1361 O 0.49308 0.54027 0.02493
 O1362 O 0.52515 0.52269 0.02937
 O1363 O 0.51155 0.48925 -0.06640
 O1364 O 0.47843 0.50158 -0.07101
 O1365 O 0.50086 0.44329 -0.02310
 O1366 O 0.48572 0.44282 0.00892
 O1367 O 0.54905 0.48344 -0.01714
 O1368 O 0.54950 0.51710 -0.00445
 Zr1369 Zr 0.52736 0.50489 -0.02203
 O1370 O 0.50944 0.52463 -0.00715
 Zr1371 Zr 0.50242 0.46639 -0.00362
 O1372 O 0.48403 0.48451 0.01263
 Zr1373 Zr 0.48860 0.48746 -0.04530
 O1374 O 0.46893 0.50594 -0.03091
 Zr1375 Zr 0.49860 0.51084 0.01855
 O1376 O 0.51811 0.49149 0.00463
 Zr1377 Zr 0.48428 0.53125 -0.02337
 O1378 O 0.50346 0.51361 -0.03945
 Zr1379 Zr 0.45972 0.49299 -0.00407
 O1380 O 0.47718 0.47322 -0.01986
 O1381 O 0.51314 0.47920 -0.02945
 O1382 O 0.47373 0.51893 0.00290
 C1383 C 0.52971 0.49484 -0.06577
 C1384 C 0.54808 0.46587 -0.00990
 C1385 C 0.49644 0.44282 -0.04120
 C1386 C 0.45829 0.50471 0.03973
 C1387 C 0.48743 0.55490 0.01426
 C1388 C 0.43916 0.53249 -0.01433
 H1389 H 0.51717 0.53650 -0.00429
 H1390 H 0.45767 0.50898 -0.03941
 H1391 H 0.52191 0.47045 -0.03670
 H1392 H 0.48011 0.47734 0.02482
 H1393 H 0.51857 0.48987 0.04304
 H1394 H 0.52007 0.46083 0.02908
 H1395 H 0.46515 0.53715 -0.05547
 H1396 H 0.48585 0.51408 -0.07253
 H1397 H 0.52198 0.52898 0.04181
 H1398 H 0.56262 0.51435 -0.01025
 H1399 H 0.43416 0.48735 -0.03107
 H1400 H 0.45609 0.46867 -0.05009
 H1401 H 0.53306 0.53616 -0.04353
 H1402 H 0.51135 0.55810 -0.02844
 H1403 H 0.47349 0.44188 0.00130
 H1404 H 0.45106 0.46280 0.01837
 O1405 O -0.06503 0.02100 0.48993
 O1406 O -0.06822 -0.00981 0.47762
 O1407 O -0.02599 0.01286 0.53825
 O1408 O 0.00491 0.00467 0.54372
 O1409 O -0.01671 0.06061 0.49463
 O1410 O -0.00226 0.06214 0.46331
 O1411 O 0.02727 -0.03880 0.49039
 O1412 O 0.00909 -0.04122 0.51897
 O1413 O -0.01159 -0.03466 0.44454
 O1414 O -0.03910 -0.01503 0.43575
 O1415 O 0.03521 0.00524 0.44754
 O1416 O 0.04187 0.03408 0.46460
 O1417 O 0.04512 -0.01210 0.47976
 O1418 O 0.04759 0.02289 0.49137
 O1419 O 0.00842 -0.00483 0.43100
 O1420 O -0.02548 0.00994 0.42691
 O1421 O -0.00226 -0.05035 0.47247
 O1422 O -0.02127 -0.05009 0.50376
 O1423 O -0.04779 0.04686 0.47643
 O1424 O -0.02589 0.05078 0.44805
 O1425 O -0.00741 0.04597 0.52311
 O1426 O 0.02271 0.02514 0.52879
 O1427 O -0.05309 0.00242 0.52241
 O1428 O -0.05652 -0.02746 0.50345
 Zr1429 Zr -0.04337 -0.00062 0.49339
 O1430 O -0.02625 -0.01975 0.47690
 Zr1431 Zr -0.00413 0.01611 0.51641
 O1432 O 0.01436 -0.00332 0.50172
 Zr1433 Zr -0.01823 0.03779 0.47520
 O1434 O 0.00057 0.02027 0.45871
 Zr1435 Zr -0.00144 -0.02801 0.49291
 O1436 O -0.01931 -0.01002 0.51024
 Zr1437 Zr -0.01471 -0.00530 0.45179
 O1438 O -0.03414 0.01309 0.46684
 Zr1439 Zr 0.02431 0.01039 0.47562
 O1440 O 0.00711 0.03059 0.49113
 O1441 O -0.02881 0.02480 0.50109
 O1442 O 0.00975 -0.01484 0.46725
 C1443 C -0.06391 0.03855 0.48260
 C1444 C -0.04407 0.00712 0.53793
 C1445 C -0.01220 0.06113 0.51266
 C1446 C 0.04356 -0.03022 0.48528
 C1447 C -0.00682 -0.05014 0.45438
 C1448 C 0.02683 -0.00043 0.43204
 H1449 H -0.03437 -0.03128 0.47375
 H1450 H 0.00512 0.02779 0.44694
 H1451 H -0.03742 0.03333 0.50878
 H1452 H 0.02534 -0.00720 0.51028
 H1453 H -0.00033 -0.03782 0.52942
 H1454 H 0.00891 -0.00896 0.54162
 H1455 H -0.01596 0.02053 0.42329
 H1456 H -0.03630 0.04241 0.44262
 H1457 H -0.01436 -0.06280 0.50355
 H1458 H -0.06951 -0.02474 0.50956
 H1459 H 0.03374 0.04172 0.45533
 H1460 H 0.01072 0.06205 0.46972
 H1461 H -0.06664 -0.00420 0.46423
 H1462 H -0.04719 -0.02370 0.44452
 H1463 H 0.02756 0.03667 0.52098
 H1464 H 0.05021 0.01411 0.50274
 O1465 O 0.68532 0.24242 0.24956
 O1466 O 0.68989 0.25762 0.21831
 O1467 O 0.72639 0.19624 0.25145
 O1468 O 0.75856 0.19202 0.24844
 O1469 O 0.72395 0.23728 0.29898
 O1470 O 0.73473 0.26996 0.30233
 O1471 O 0.79047 0.24838 0.21295
 O1472 O 0.77401 0.21957 0.20647
 O1473 O 0.74832 0.29313 0.20576
 O1474 O 0.71724 0.30036 0.21924
 O1475 O 0.78431 0.28948 0.25632
 O1476 O 0.78311 0.26988 0.28658
 O1477 O 0.79991 0.25836 0.24270
 O1478 O 0.79457 0.24568 0.27646
 O1479 O 0.76091 0.30601 0.23943
 O1480 O 0.72408 0.30837 0.24603
 O1481 O 0.76439 0.26668 0.19443
 O1482 O 0.74688 0.23524 0.19027
 O1483 O 0.69486 0.25497 0.27831
 O1484 O 0.71315 0.28396 0.28630
 O1485 O 0.73697 0.20981 0.28643
 O1486 O 0.77068 0.20564 0.27294
 O1487 O 0.70186 0.21228 0.23562
 O1488 O 0.70622 0.23191 0.20485
 Zr1489 Zr 0.71182 0.24153 0.23330
 O1490 O 0.73279 0.25957 0.21835
 Zr1491 Zr 0.74656 0.21841 0.25820
 O1492 O 0.76892 0.23501 0.24390
 Zr1493 Zr 0.72576 0.25813 0.27581
 O1494 O 0.74758 0.27646 0.26268
 Zr1495 Zr 0.75973 0.24487 0.21631
 O1496 O 0.73818 0.22586 0.22957
 Zr1497 Zr 0.73922 0.28446 0.23424
 O1498 O 0.71631 0.26766 0.24814
 Zr1499 Zr 0.77372 0.26069 0.25907
 O1500 O 0.75267 0.24313 0.27461
 O1501 O 0.71996 0.23266 0.26124
 O1502 O 0.76607 0.27027 0.23111
 C1503 C 0.68174 0.24838 0.26681
 C1504 C 0.70969 0.19670 0.24290
 C1505 C 0.72929 0.21932 0.30040
 C1506 C 0.80363 0.25334 0.22521
 C1507 C 0.75802 0.28422 0.19259
 C1508 C 0.77733 0.30519 0.24855
 H1509 H 0.72767 0.26304 0.20530
 H1510 H 0.74955 0.28797 0.27077
 H1511 H 0.70997 0.22419 0.26805
 H1512 H 0.78091 0.22698 0.24292
 H1513 H 0.76414 0.20881 0.20737
 H1514 H 0.76782 0.19560 0.23766
 H1515 H 0.73036 0.31150 0.25846
 H1516 H 0.70575 0.28999 0.27539
 H1517 H 0.75708 0.23608 0.17980
 H1518 H 0.69289 0.22580 0.20478
 H1519 H 0.77465 0.28084 0.29042
 H1520 H 0.74774 0.26423 0.30527
 H1521 H 0.68815 0.27000 0.22518
 H1522 H 0.71112 0.29138 0.21004
 H1523 H 0.77305 0.21348 0.28454
 H1524 H 0.79853 0.23382 0.26960
 O1525 O 0.75061 0.69182 0.71370
 O1526 O 0.78218 0.68788 0.72498
 O1527 O 0.71464 0.69177 0.76547
 O1528 O 0.71324 0.70872 0.79294
 O1529 O 0.70608 0.73630 0.72079
 O1530 O 0.72327 0.76505 0.71083
 O1531 O 0.77424 0.74543 0.80379
 O1532 O 0.76168 0.71448 0.80935
 O1533 O 0.81034 0.74524 0.75449
 O1534 O 0.80712 0.73127 0.72178
 O1535 O 0.76945 0.78797 0.75756
 O1536 O 0.73470 0.79064 0.75343
 O1537 O 0.75864 0.77243 0.79170
 O1538 O 0.72446 0.77747 0.77802
 O1539 O 0.79297 0.77368 0.73923
 O1540 O 0.79241 0.75376 0.70954
 O1541 O 0.80161 0.73183 0.78409
 O1542 O 0.78569 0.69890 0.78928
 O1543 O 0.73582 0.71889 0.70068
 O1544 O 0.74636 0.75266 0.69574
 O1545 O 0.69692 0.72308 0.75035
 O1546 O 0.70239 0.73659 0.78289
 O1547 O 0.73871 0.67751 0.74773
 O1548 O 0.77427 0.67739 0.75606
 Zr1549 Zr 0.75911 0.70035 0.74134
 O1550 O 0.78105 0.71765 0.75394
 Zr1551 Zr 0.72325 0.72138 0.76610
 O1552 O 0.74374 0.73906 0.78033
 Zr1553 Zr 0.73687 0.73977 0.72268
 O1554 O 0.75746 0.75877 0.73507
 Zr1555 Zr 0.77132 0.72543 0.78163
 O1556 O 0.75002 0.70647 0.76987
 Zr1557 Zr 0.78441 0.74427 0.73821
 O1558 O 0.76435 0.72594 0.72405
 Zr1559 Zr 0.74892 0.76502 0.76374
 O1560 O 0.72680 0.74813 0.75028
 O1561 O 0.73186 0.71373 0.73833
 O1562 O 0.77627 0.75186 0.76626
 C1563 C 0.74216 0.70124 0.69970
 C1564 C 0.72237 0.67689 0.75742
 C1565 C 0.69306 0.72961 0.73310
 C1566 C 0.76800 0.76300 0.80517
 C1567 C 0.81417 0.73989 0.77209
 C1568 C 0.78558 0.78854 0.74746
 H1569 H 0.79354 0.71037 0.75472
 H1570 H 0.75876 0.77075 0.72670
 H1571 H 0.72206 0.70532 0.73200
 H1572 H 0.73860 0.74160 0.79352
 H1573 H 0.75447 0.70210 0.80718
 H1574 H 0.72299 0.71230 0.80280
 H1575 H 0.78415 0.76513 0.70600
 H1576 H 0.75876 0.74612 0.69211
 H1577 H 0.79382 0.70122 0.80087
 H1578 H 0.77098 0.66486 0.74994
 H1579 H 0.73726 0.79190 0.73925
 H1580 H 0.71673 0.77147 0.72185
 H1581 H 0.78742 0.69839 0.71605
 H1582 H 0.81209 0.71990 0.72943
 H1583 H 0.69874 0.74842 0.77513
 H1584 H 0.72244 0.77029 0.79062
 O1585 O 0.27735 0.20977 0.75402
 O1586 O 0.28262 0.22528 0.72373
 O1587 O 0.28925 0.25519 0.79414
 O1588 O 0.27715 0.28388 0.80212
 O1589 O 0.23514 0.21911 0.80103
 O1590 O 0.20514 0.21808 0.78421
 O1591 O 0.24326 0.31360 0.74578
 O1592 O 0.27484 0.30996 0.75649
 O1593 O 0.23431 0.27148 0.70339
 O1594 O 0.23911 0.23646 0.70200
 O1595 O 0.19206 0.27663 0.74812
 O1596 O 0.18978 0.26703 0.78201
 O1597 O 0.21416 0.30461 0.76043
 O1598 O 0.20744 0.28727 0.79297
 O1599 O 0.20194 0.26102 0.72110
 O1600 O 0.21480 0.22729 0.71655
 O1601 O 0.25238 0.29626 0.71554
 O1602 O 0.28577 0.29133 0.72955
 O1603 O 0.24867 0.20052 0.76938
 O1604 O 0.21475 0.20468 0.75926
 O1605 O 0.25513 0.24270 0.81277
 O1606 O 0.24832 0.27847 0.81230
 O1607 O 0.29846 0.23762 0.76806
 O1608 O 0.29981 0.25176 0.73441
 Zr1609 Zr 0.27447 0.24002 0.74920
 O1610 O 0.25998 0.26018 0.73073
 Zr1611 Zr 0.25969 0.26245 0.78890
 O1612 O 0.24514 0.28392 0.77204
 Zr1613 Zr 0.23247 0.22666 0.77132
 O1614 O 0.21623 0.24666 0.75419
 Zr1615 Zr 0.25830 0.28710 0.74432
 O1616 O 0.27462 0.26753 0.76212
 Zr1617 Zr 0.23059 0.25147 0.72716
 O1618 O 0.24578 0.22987 0.74361
 Zr1619 Zr 0.21629 0.27430 0.76675
 O1620 O 0.23023 0.25348 0.78535
 O1621 O 0.26127 0.23529 0.77649
 O1622 O 0.22915 0.27892 0.73931
 C1623 C 0.26575 0.19680 0.76203
 C1624 C 0.30178 0.24519 0.78454
 C1625 C 0.24445 0.22712 0.81488
 C1626 C 0.22605 0.31746 0.75256
 C1627 C 0.24312 0.28818 0.70169
 C1628 C 0.18909 0.27028 0.73103
 H1629 H 0.26721 0.26153 0.71816
 H1630 H 0.20272 0.24141 0.75280
 H1631 H 0.26841 0.22574 0.78484
 H1632 H 0.24545 0.29642 0.77885
 H1633 H 0.28657 0.30384 0.76243
 H1634 H 0.27708 0.29558 0.79331
 H1635 H 0.20318 0.22489 0.72517
 H1636 H 0.22056 0.20200 0.74635
 H1637 H 0.28584 0.30457 0.72320
 H1638 H 0.31075 0.24231 0.73582
 H1639 H 0.18481 0.25455 0.77697
 H1640 H 0.20104 0.22892 0.79250
 H1641 H 0.27061 0.21865 0.71913
 H1642 H 0.25284 0.24038 0.69864
 H1643 H 0.23522 0.27275 0.81574
 H1644 H 0.21706 0.29775 0.79572
 O1645 O 0.21639 0.79657 0.25663
 O1646 O 0.20891 0.78103 0.22887
 O1647 O 0.21060 0.75090 0.30155
 O1648 O 0.22450 0.72275 0.30984
 O1649 O 0.26150 0.79008 0.29933
 O1650 O 0.29089 0.79118 0.28044
 O1651 O 0.25415 0.69425 0.25134
 O1652 O 0.22349 0.69668 0.26558
 O1653 O 0.25887 0.73597 0.20613
 O1654 O 0.25195 0.77053 0.20233
 O1655 O 0.30351 0.73229 0.24616
 O1656 O 0.30894 0.74221 0.27828
 O1657 O 0.28400 0.70414 0.26226
 O1658 O 0.29203 0.72228 0.29365
 O1659 O 0.29176 0.74873 0.21957
 O1660 O 0.27615 0.78181 0.21434
 O1661 O 0.24210 0.71098 0.22159
 O1662 O 0.20962 0.71489 0.23876
 O1663 O 0.24611 0.80702 0.26747
 O1664 O 0.27966 0.80368 0.25495
 O1665 O 0.24482 0.76516 0.31500
 O1666 O 0.25384 0.72958 0.31618
 O1667 O 0.19732 0.76641 0.27518
 O1668 O 0.19462 0.75344 0.24190
 Zr1669 Zr 0.22015 0.76631 0.25385
 O1670 O 0.23420 0.74685 0.23510
 Zr1671 Zr 0.23958 0.74485 0.29319
 O1672 O 0.25329 0.72373 0.27619
 Zr1673 Zr 0.26331 0.78152 0.27030
 O1674 O 0.27908 0.76201 0.25297
 Zr1675 Zr 0.23801 0.72011 0.25022
 O1676 O 0.22252 0.73898 0.26860
 Zr1677 Zr 0.26292 0.75661 0.22785
 O1678 O 0.24789 0.77752 0.24443
 Zr1679 Zr 0.28112 0.73439 0.26724
 O1680 O 0.26811 0.75497 0.28583
 O1681 O 0.23542 0.77179 0.27915
 O1682 O 0.26627 0.72934 0.24163
 C1683 C 0.22838 0.81011 0.26173
 C1684 C 0.19623 0.75918 0.29270
 C1685 C 0.25377 0.78183 0.31471
 C1686 C 0.27205 0.69097 0.25616
 C1687 C 0.25053 0.71900 0.20646
 C1688 C 0.30519 0.73909 0.22860
 H1689 H 0.22615 0.74512 0.22339
 H1690 H 0.29222 0.76775 0.24984
 H1691 H 0.22834 0.78111 0.28738
 H1692 H 0.25405 0.71123 0.28376
 H1693 H 0.21204 0.70235 0.27239
 H1694 H 0.22374 0.71124 0.30157
 H1695 H 0.28866 0.78439 0.22105
 H1696 H 0.27266 0.80646 0.24264
 H1697 H 0.20958 0.70167 0.23324
 H1698 H 0.18312 0.76187 0.24449
 H1699 H 0.31192 0.75571 0.27347
 H1700 H 0.29572 0.78065 0.28932
 H1701 H 0.22041 0.78661 0.22154
 H1702 H 0.23816 0.76611 0.20079
 H1703 H 0.26652 0.73643 0.31825
 H1704 H 0.28403 0.71051 0.29721
 O1705 O 0.23367 0.70507 0.75975
 O1706 O 0.26664 0.70424 0.75138
 O1707 O 0.23234 0.74150 0.81002
 O1708 O 0.23873 0.77204 0.81730
 O1709 O 0.19136 0.75062 0.76183
 O1710 O 0.19482 0.76712 0.73088
 O1711 O 0.28937 0.79925 0.77126
 O1712 O 0.28757 0.77950 0.79883
 O1713 O 0.29528 0.76349 0.72379
 O1714 O 0.27818 0.73510 0.71211
 O1715 O 0.25170 0.80685 0.72198
 O1716 O 0.22051 0.81135 0.73682
 O1717 O 0.26497 0.81607 0.75602
 O1718 O 0.22821 0.81695 0.76414
 O1719 O 0.26609 0.78169 0.70664
 O1720 O 0.25477 0.74776 0.70022
 O1721 O 0.30524 0.77199 0.75377
 O1722 O 0.30059 0.75114 0.78361
 O1723 O 0.20940 0.72167 0.74406
 O1724 O 0.20890 0.74460 0.71657
 O1725 O 0.20129 0.75991 0.79160
 O1726 O 0.22001 0.78967 0.80079
 O1727 O 0.24584 0.71594 0.79448
 O1728 O 0.27910 0.71496 0.77969
 Zr1729 Zr 0.25373 0.72737 0.76666
 O1730 O 0.27509 0.74612 0.75339
 Zr1731 Zr 0.23197 0.76425 0.78865
 O1732 O 0.25291 0.78434 0.77682
 Zr1733 Zr 0.21749 0.75142 0.74501
 O1734 O 0.23730 0.77149 0.73120
 Zr1735 Zr 0.27950 0.77022 0.77094
 O1736 O 0.25944 0.75062 0.78526
 Zr1737 Zr 0.26472 0.75812 0.72707
 O1738 O 0.24420 0.73738 0.73910
 Zr1739 Zr 0.24344 0.79478 0.74949
 O1740 O 0.22133 0.77603 0.76223
 O1741 O 0.22656 0.74020 0.77181
 O1742 O 0.27063 0.78205 0.74410
 C1743 C 0.21738 0.70575 0.75040
 C1744 C 0.23851 0.72380 0.80965
 C1745 C 0.18796 0.75484 0.77962
 C1746 C 0.28167 0.81518 0.76468
 C1747 C 0.30863 0.76851 0.73583
 C1748 C 0.25988 0.79935 0.70704
 H1749 H 0.28748 0.73886 0.75157
 H1750 H 0.23147 0.77607 0.71879
 H1751 H 0.21701 0.73086 0.77812
 H1752 H 0.25493 0.79499 0.78599
 H1753 H 0.28294 0.76918 0.80830
 H1754 H 0.25207 0.77797 0.81669
 H1755 H 0.24346 0.75586 0.69614
 H1756 H 0.21887 0.73550 0.71154
 H1757 H 0.31291 0.75874 0.78549
 H1758 H 0.27576 0.70160 0.78483
 H1759 H 0.21460 0.80334 0.72666
 H1760 H 0.19278 0.77912 0.73830
 H1761 H 0.26345 0.70643 0.73748
 H1762 H 0.28642 0.72773 0.72150
 H1763 H 0.21042 0.79504 0.79136
 H1764 H 0.23512 0.81932 0.77642
 O1765 O 0.24600 0.21421 0.20995
 O1766 O 0.27706 0.20754 0.22097
 O1767 O 0.20984 0.21007 0.26222
 O1768 O 0.20908 0.22425 0.29122
 O1769 O 0.20305 0.25823 0.22156
 O1770 O 0.22116 0.28800 0.21540
 O1771 O 0.27091 0.25700 0.30569
 O1772 O 0.25716 0.22631 0.30800
 O1773 O 0.30778 0.25933 0.25622
 O1774 O 0.30372 0.24975 0.22208
 O1775 O 0.26831 0.30424 0.26319
 O1776 O 0.23384 0.30854 0.25949
 O1777 O 0.25700 0.28578 0.29595
 O1778 O 0.22317 0.29367 0.28296
 O1779 O 0.29167 0.29055 0.24420
 O1780 O 0.29039 0.27410 0.21248
 O1781 O 0.29792 0.24425 0.28467
 O1782 O 0.28071 0.21190 0.28661
 O1783 O 0.23234 0.24302 0.19993
 O1784 O 0.24358 0.27638 0.19846
 O1785 O 0.19333 0.24351 0.25022
 O1786 O 0.19915 0.25325 0.28382
 O1787 O 0.23340 0.19665 0.24316
 O1788 O 0.26893 0.19438 0.25087
 Zr1789 Zr 0.25454 0.21922 0.23864
 O1790 O 0.27705 0.23414 0.25307
 Zr1791 Zr 0.21953 0.23908 0.26559
 O1792 O 0.24060 0.25444 0.28146
 Zr1793 Zr 0.23391 0.26110 0.22412
 O1794 O 0.25540 0.27775 0.23821
 Zr1795 Zr 0.26751 0.23957 0.28148
 O1796 O 0.24563 0.22282 0.26777
 Zr1797 Zr 0.28174 0.26194 0.24004
 O1798 O 0.26087 0.24618 0.22407
 Zr1799 Zr 0.24701 0.28158 0.26739
 O1800 O 0.22416 0.26705 0.25247
 O1801 O 0.22785 0.23385 0.23709
 O1802 O 0.27379 0.26710 0.26876
 C1803 C 0.23813 0.22549 0.19694
 C1804 C 0.21714 0.19570 0.25299
 C1805 C 0.18970 0.25120 0.23338
 C1806 C 0.26553 0.27462 0.30867
 C1807 C 0.31116 0.25216 0.27335
 C1808 C 0.28468 0.30497 0.25346
 H1809 H 0.28920 0.22628 0.25316
 H1810 H 0.25725 0.29040 0.23102
 H1811 H 0.21783 0.22644 0.22994
 H1812 H 0.23549 0.25591 0.29486
 H1813 H 0.24950 0.21455 0.30456
 H1814 H 0.21866 0.22689 0.30153
 H1815 H 0.28264 0.28609 0.21010
 H1816 H 0.25619 0.27041 0.19452
 H1817 H 0.28875 0.21266 0.29851
 H1818 H 0.26510 0.18268 0.24360
 H1819 H 0.23599 0.31072 0.24533
 H1820 H 0.21389 0.29272 0.22689
 H1821 H 0.28271 0.21861 0.21304
 H1822 H 0.30787 0.23724 0.22829
 H1823 H 0.19629 0.26608 0.27745
 H1824 H 0.22071 0.28531 0.29477
 O1825 O 0.77872 0.70061 0.23799
 O1826 O 0.78201 0.71557 0.20734
 O1827 O 0.79262 0.74688 0.27661
 O1828 O 0.78068 0.77524 0.28546
 O1829 O 0.74025 0.70951 0.28659
 O1830 O 0.70867 0.70885 0.27286
 O1831 O 0.74301 0.80408 0.22983
 O1832 O 0.77512 0.80127 0.23884
 O1833 O 0.73097 0.76139 0.18986
 O1834 O 0.73591 0.72695 0.18784
 O1835 O 0.69270 0.76727 0.23702
 O1836 O 0.69212 0.75845 0.27019
 O1837 O 0.71578 0.79520 0.24781
 O1838 O 0.71163 0.77736 0.28098
 O1839 O 0.70040 0.75106 0.20971
 O1840 O 0.71355 0.71677 0.20504
 O1841 O 0.75147 0.78574 0.19919
 O1842 O 0.78526 0.78169 0.21227
 O1843 O 0.75065 0.69144 0.25451
 O1844 O 0.71594 0.69557 0.24694
 O1845 O 0.75984 0.73385 0.29737
 O1846 O 0.75272 0.77005 0.29679
 O1847 O 0.80076 0.72939 0.25016
 O1848 O 0.79934 0.74259 0.21604
 Zr1849 Zr 0.77530 0.73083 0.23287
 O1850 O 0.75921 0.75047 0.21513
 Zr1851 Zr 0.76277 0.75361 0.27313
 O1852 O 0.74727 0.77483 0.25685
 Zr1853 Zr 0.73475 0.71747 0.25760
 O1854 O 0.71714 0.73717 0.24167
 Zr1855 Zr 0.75841 0.77771 0.22820
 O1856 O 0.77594 0.75856 0.24538
 Zr1857 Zr 0.72956 0.74163 0.21378
 O1858 O 0.74627 0.72042 0.22918
 Zr1859 Zr 0.71815 0.76495 0.25386
 O1860 O 0.73323 0.74432 0.27165
 O1861 O 0.76384 0.72635 0.26088
 O1862 O 0.72896 0.76928 0.22553
 C1863 C 0.76740 0.68768 0.24651
 C1864 C 0.80489 0.73724 0.26636
 C1865 C 0.75016 0.71765 0.29990
 C1866 C 0.72668 0.80797 0.23853
 C1867 C 0.74045 0.77752 0.18671
 C1868 C 0.68843 0.76070 0.22032
 H1869 H 0.76551 0.75158 0.20208
 H1870 H 0.70355 0.73187 0.24132
 H1871 H 0.77170 0.71698 0.26873
 H1872 H 0.74805 0.78743 0.26346
 H1873 H 0.78718 0.79554 0.24450
 H1874 H 0.78140 0.78628 0.27583
 H1875 H 0.70180 0.71522 0.21366
 H1876 H 0.72108 0.69238 0.23389
 H1877 H 0.78501 0.79474 0.20555
 H1878 H 0.81060 0.73349 0.21710
 H1879 H 0.68805 0.74497 0.26719
 H1880 H 0.70544 0.71961 0.28161
 H1881 H 0.76963 0.70918 0.20333
 H1882 H 0.74978 0.72992 0.18417
 H1883 H 0.74050 0.76359 0.30190
 H1884 H 0.72070 0.78859 0.28255
 O1885 O 0.71193 0.22551 0.79984
 O1886 O 0.72682 0.19507 0.80085
 O1887 O 0.76072 0.26573 0.80345
 O1888 O 0.78971 0.27048 0.78699
 O1889 O 0.71705 0.27671 0.76034
 O1890 O 0.70902 0.26285 0.73031
 O1891 O 0.80661 0.21827 0.74265
 O1892 O 0.81076 0.22664 0.77447
 O1893 O 0.75906 0.17787 0.74287
 O1894 O 0.72516 0.17760 0.75592
 O1895 O 0.76028 0.22494 0.70281
 O1896 O 0.75180 0.26034 0.70501
 O1897 O 0.79252 0.23546 0.71769
 O1898 O 0.77775 0.26837 0.71607
 O1899 O 0.74502 0.19751 0.71524
 O1900 O 0.71330 0.19369 0.73420
 O1901 O 0.78858 0.18752 0.75463
 O1902 O 0.79244 0.19930 0.78835
 O1903 O 0.69863 0.24377 0.77512
 O1904 O 0.69492 0.23776 0.74127
 O1905 O 0.74593 0.28643 0.77351
 O1906 O 0.77945 0.28547 0.76043
 O1907 O 0.74445 0.23844 0.81494
 O1908 O 0.75690 0.20467 0.81173
 Zr1909 Zr 0.74110 0.22115 0.79053
 O1910 O 0.75628 0.20336 0.77109
 Zr1911 Zr 0.76367 0.26136 0.77322
 O1912 O 0.78004 0.24519 0.75308
 Zr1913 Zr 0.72137 0.24714 0.75408
 O1914 O 0.73580 0.23054 0.73305
 Zr1915 Zr 0.78366 0.21630 0.76363
 O1916 O 0.76940 0.23320 0.78495
 Zr1917 Zr 0.74105 0.20244 0.74486
 O1918 O 0.72462 0.21834 0.76506
 Zr1919 Zr 0.76402 0.24239 0.72732
 O1920 O 0.74860 0.26051 0.74664
 O1921 O 0.73608 0.24956 0.78011
 O1922 O 0.76879 0.21390 0.73751
 C1923 C 0.69748 0.23445 0.79168
 C1924 C 0.75247 0.25527 0.81728
 C1925 C 0.72839 0.28974 0.76748
 C1926 C 0.80701 0.22626 0.72543
 C1927 C 0.77711 0.17476 0.74717
 C1928 C 0.75285 0.20771 0.70114
 H1929 H 0.75794 0.19020 0.77719
 H1930 H 0.72778 0.23020 0.72118
 H1931 H 0.72851 0.25752 0.78932
 H1932 H 0.79298 0.25164 0.75062
 H1933 H 0.80784 0.23181 0.78747
 H1934 H 0.80079 0.26368 0.78074
 H1935 H 0.70987 0.20277 0.72331
 H1936 H 0.69283 0.22395 0.74563
 H1937 H 0.80487 0.19264 0.78494
 H1938 H 0.75000 0.20548 0.82450
 H1939 H 0.73921 0.25427 0.70117
 H1940 H 0.71974 0.27117 0.72454
 H1941 H 0.71741 0.19132 0.79072
 H1942 H 0.73244 0.17206 0.76714
 H1943 H 0.77260 0.28920 0.74827
 H1944 H 0.78950 0.27091 0.72398
 C1945 C 0.08556 1.01175 1.14416
 C1946 C 0.07478 1.01365 1.12693
 C1947 C 0.05414 1.01623 1.12793
 C1948 C 0.04467 1.01682 1.14615
 C1949 C 0.05549 1.01473 1.16324
 C1950 C 0.07601 1.01217 1.16244
 C1951 C 0.04331 1.01797 1.11071
 C1952 C 0.05281 1.01689 1.09251
 C1953 C 0.07344 1.01424 1.09156
 C1954 C 0.08430 1.01278 1.10875
 C1955 C 0.08288 1.01285 1.07341
 C1956 C 0.07198 1.01377 1.05634
 C1957 C 0.05144 1.01633 1.05703
 C1958 C 0.04198 1.01810 1.07523
 H1959 H 0.10134 1.00952 1.14336
 H1960 H 0.02887 1.01880 1.14720
 H1961 H 0.04782 1.01531 1.17712
 H1962 H 0.02747 1.01993 1.11149
 H1963 H 0.10012 1.01073 1.10797
 H1964 H 0.09867 1.01084 1.07241
 H1965 H 0.07968 1.01250 1.04254
 H1966 H 0.02614 1.01995 1.07600
 C1967 C 0.57841 0.49956 0.65281
 C1968 C 0.57216 0.50061 0.63339
 C1969 C 0.58437 0.49332 0.61849
 C1970 C 0.60273 0.48544 0.62321
 C1971 C 0.60877 0.48435 0.64253
 C1972 C 0.59661 0.49114 0.65757
 C1973 C 0.57794 0.49374 0.59917
 C1974 C 0.55936 0.50122 0.59452
 C1975 C 0.54727 0.50877 0.60936
 C1976 C 0.55376 0.50848 0.62867
 C1977 C 0.52874 0.51626 0.60469
 C1978 C 0.52205 0.51596 0.58559
 C1979 C 0.53374 0.50815 0.57070
 C1980 C 0.55255 0.50099 0.57531
 H1981 H 0.56885 0.50474 0.66427
 H1982 H 0.61234 0.47991 0.61198
 H1983 H 0.62303 0.47814 0.64573
 H1984 H 0.58728 0.48799 0.58781
 H1985 H 0.54437 0.51412 0.64004
 H1986 H 0.51930 0.52217 0.61585
 H1987 H 0.50754 0.52165 0.58256
 H1988 H 0.56181 0.49503 0.56403
 C1989 C 0.42046 0.00554 0.66870
 C1990 C 0.43073 0.00261 0.65122
 C1991 C 0.44858 -0.00785 0.65143
 C1992 C 0.45580 -0.01525 0.66917
 C1993 C 0.44539 -0.01241 0.68653
 C1994 C 0.42759 -0.00203 0.68649
 C1995 C 0.45888 -0.01074 0.63391
 C1996 C 0.45147 -0.00338 0.61620
 C1997 C 0.43353 0.00697 0.61605
 C1998 C 0.42332 0.00995 0.63354
 C1999 C 0.42606 0.01420 0.59839
 C2000 C 0.43627 0.01134 0.58099
 C2001 C 0.45424 0.00123 0.58086
 C2002 C 0.46171 -0.00616 0.59861
 H2003 H 0.40696 0.01388 0.66845
 H2004 H 0.46943 -0.02336 0.66962
 H2005 H 0.45111 -0.01863 0.69996
 H2006 H 0.47261 -0.01873 0.63407
 H2007 H 0.40958 0.01793 0.63339
 H2008 H 0.41231 0.02212 0.59803
 H2009 H 0.43011 0.01722 0.56761
 H2010 H 0.47549 -0.01403 0.59879
 C2011 C -0.07873 0.50057 1.16271
 C2012 C -0.06789 0.50005 1.14527
 C2013 C -0.05019 0.48936 1.14454
 C2014 C -0.04363 0.47943 1.16138
 C2015 C -0.05458 0.47998 1.17873
 C2016 C -0.07227 0.49046 1.17953
 C2017 C -0.03941 0.48875 1.12701
 C2018 C -0.04618 0.49862 1.11022
 C2019 C -0.06389 0.50932 1.11102
 C2020 C -0.07458 0.51002 1.12854
 C2021 C -0.07070 0.51906 1.09424
 C2022 C -0.06018 0.51815 1.07673
 C2023 C -0.04256 0.50754 1.07567
 C2024 C -0.03562 0.49786 1.09257
 H2025 H -0.09214 0.50902 1.16324
 H2026 H -0.03010 0.47115 1.16110
 H2027 H -0.04937 0.47197 1.19146
 H2028 H -0.02584 0.48052 1.12642
 H2029 H -0.08817 0.51821 1.12913
 H2030 H -0.08424 0.52732 1.09462
 H2031 H -0.06589 0.52577 1.06400
 H2032 H -0.02211 0.48955 1.09199
 C2033 C -0.08550 0.50066 0.34613
 C2034 C -0.07481 0.50275 0.36329
 C2035 C -0.05580 0.51134 0.36240
 C2036 C -0.04793 0.51798 0.34445
 C2037 C -0.05869 0.51606 0.32746
 C2038 C -0.07764 0.50725 0.32787
 C2039 C -0.04488 0.51306 0.37943
 C2040 C -0.05277 0.50633 0.39741
 C2041 C -0.07197 0.49812 0.39842
 C2042 C -0.08287 0.49639 0.38136
 C2043 C -0.07983 0.49155 0.41646
 C2044 C -0.06862 0.49267 0.43329
 C2045 C -0.04931 0.50036 0.43241
 C2046 C -0.04162 0.50744 0.41437
 H2047 H -0.10026 0.49454 0.34728
 H2048 H -0.03333 0.52452 0.34349
 H2049 H -0.05157 0.52077 0.31391
 H2050 H -0.03020 0.51948 0.37867
 H2051 H -0.09754 0.48992 0.38212
 H2052 H -0.09456 0.48530 0.41751
 H2053 H -0.07497 0.48713 0.44694
 H2054 H -0.02682 0.51354 0.41343
 C2055 C 0.41995 1.01307 -0.14637
 C2056 C 0.43140 1.01393 -0.12956
 C2057 C 0.45170 1.01866 -0.13126
 C2058 C 0.46011 1.02272 -0.14971
 C2059 C 0.44860 1.02183 -0.16636
 C2060 C 0.42848 1.01684 -0.16489
 C2061 C 0.46330 1.01898 -0.11455
 C2062 C 0.45491 1.01448 -0.09615
 C2063 C 0.43455 1.01005 -0.09443
 C2064 C 0.42291 1.00990 -0.11113
 C2065 C 0.42622 1.00548 -0.07606
 C2066 C 0.43803 1.00476 -0.05958
 C2067 C 0.45839 1.00871 -0.06111
 C2068 C 0.46665 1.01391 -0.07949
 H2069 H 0.40438 1.00949 -0.14503
 H2070 H 0.47563 1.02638 -0.15129
 H2071 H 0.45556 1.02464 -0.18046
 H2072 H 0.47891 1.02243 -0.11589
 H2073 H 0.40732 1.00633 -0.10980
 H2074 H 0.41063 1.00213 -0.07447
 H2075 H 0.43120 1.00083 -0.04565
 H2076 H 0.48231 1.01698 -0.08095
 C2077 C 0.57959 0.49011 -0.17024
 C2078 C 0.56802 0.49003 -0.15318
 C2079 C 0.54797 0.48431 -0.15374
 C2080 C 0.53987 0.47885 -0.17145
 C2081 C 0.55158 0.47879 -0.18837
 C2082 C 0.57159 0.48426 -0.18793
 C2083 C 0.53644 0.48407 -0.13659
 C2084 C 0.54477 0.48939 -0.11890
 C2085 C 0.56485 0.49507 -0.11844
 C2086 C 0.57631 0.49542 -0.13557
 C2087 C 0.57319 0.50033 -0.10083
 C2088 C 0.56179 0.50007 -0.08379
 C2089 C 0.54176 0.49456 -0.08396
 C2090 C 0.53336 0.48915 -0.10166
 H2091 H 0.59488 0.49477 -0.16972
 H2092 H 0.52453 0.47440 -0.17216
 H2093 H 0.54506 0.47404 -0.20172
 H2094 H 0.52105 0.47969 -0.13701
 H2095 H 0.59171 0.49978 -0.13515
 H2096 H 0.58856 0.50469 -0.10024
 H2097 H 0.56871 0.50430 -0.07046
 H2098 H 0.51796 0.48487 -0.10208
 C2099 C 0.07847 -0.00244 0.32828
 C2100 C 0.06656 -0.00249 0.34514
 C2101 C 0.04584 -0.00173 0.34348
 C2102 C 0.03741 -0.00084 0.32496
 C2103 C 0.04940 -0.00066 0.30825
 C2104 C 0.07001 -0.00151 0.30973
 C2105 C 0.03390 -0.00174 0.36033
 C2106 C 0.04245 -0.00226 0.37881
 C2107 C 0.06319 -0.00290 0.38043
 C2108 C 0.07509 -0.00313 0.36360
 C2109 C 0.07172 -0.00309 0.39887
 C2110 C 0.05986 -0.00242 0.41559
 C2111 C 0.03922 -0.00176 0.41422
 C2112 C 0.03060 -0.00188 0.39573
 H2113 H 0.09437 -0.00281 0.32961
 H2114 H 0.02156 -0.00026 0.32341
 H2115 H 0.04253 -0.00012 0.29413
 H2116 H 0.01800 -0.00116 0.35905
 H2117 H 0.09100 -0.00363 0.36488
 H2118 H 0.08758 -0.00359 0.40037
 H2119 H 0.06689 -0.00246 0.42963
 H2120 H 0.01471 -0.00123 0.39445
 C2121 C 0.17195 1.08250 0.99100
 C2122 C 0.15415 1.07207 0.99032
 C2123 C 0.15173 1.05436 1.00131
 C2124 C 0.16737 1.04723 1.01253
 C2125 C 0.18506 1.05783 1.01323
 C2126 C 0.18738 1.07568 1.00271
 C2127 C 0.13363 1.04429 1.00118
 C2128 C 0.11788 1.05188 0.99038
 C2129 C 0.12047 1.06948 0.97921
 C2130 C 0.13862 1.07937 0.97913
 C2131 C 0.10473 1.07715 0.96858
 C2132 C 0.08641 1.06775 0.96934
 C2133 C 0.08350 1.05041 0.98062
 C2134 C 0.09944 1.04239 0.99090
 H2135 H 0.17374 1.09608 0.98254
 H2136 H 0.16580 1.03367 1.02103
 H2137 H 0.19673 1.05234 1.02243
 H2138 H 0.13168 1.03079 1.00974
 H2139 H 0.14052 1.09295 0.97069
 H2140 H 0.10650 1.09059 0.95991
 H2141 H 0.07445 1.07420 0.96117
 H2142 H 0.09741 1.02907 0.99972
 C2143 C 0.66231 0.58334 0.50181
 C2144 C 0.64386 0.57455 0.49884
 C2145 C 0.63624 0.57400 0.47984
 C2146 C 0.64748 0.58161 0.46408
 C2147 C 0.66604 0.58984 0.46709
 C2148 C 0.67362 0.59112 0.48598
 C2149 C 0.61757 0.56576 0.47685
 C2150 C 0.60665 0.55750 0.49257
 C2151 C 0.61456 0.55738 0.51150
 C2152 C 0.63297 0.56619 0.51456
 C2153 C 0.60399 0.54827 0.52702
 C2154 C 0.58578 0.53932 0.52380
 C2155 C 0.57762 0.53986 0.50516
 C2156 C 0.58804 0.54908 0.48960
 H2157 H 0.66764 0.58435 0.51652
 H2158 H 0.64200 0.58104 0.44938
 H2159 H 0.67450 0.59508 0.45448
 H2160 H 0.61165 0.56557 0.46229
 H2161 H 0.63891 0.56633 0.52912
 H2162 H 0.60988 0.54790 0.54159
 H2163 H 0.57788 0.53224 0.53594
 H2164 H 0.58187 0.54924 0.47514
 C2165 C 0.65502 0.42056 -0.00442
 C2166 C 0.63756 0.43128 -0.00633
 C2167 C 0.63847 0.45115 -0.01266
 C2168 C 0.65686 0.45994 -0.01691
 C2169 C 0.67417 0.44915 -0.01501
 C2170 C 0.67347 0.42937 -0.00878
 C2171 C 0.62102 0.46187 -0.01467
 C2172 C 0.60264 0.45296 -0.01044
 C2173 C 0.60178 0.43309 -0.00410
 C2174 C 0.61921 0.42239 -0.00210
 C2175 C 0.58346 0.42422 0.00017
 C2176 C 0.56612 0.43488 -0.00176
 C2177 C 0.56668 0.45468 -0.00805
 C2178 C 0.58510 0.46360 -0.01241
 H2179 H 0.65420 0.40525 0.00011
 H2180 H 0.65786 0.47517 -0.02172
 H2181 H 0.68816 0.45637 -0.01825
 H2182 H 0.62174 0.47711 -0.01953
 H2183 H 0.61849 0.40715 0.00276
 H2184 H 0.58254 0.40900 0.00504
 H2185 H 0.55223 0.42755 0.00168
 H2186 H 0.58584 0.47883 -0.01725
 C2187 C 0.14840 -0.07898 0.49471
 C2188 C 0.13133 -0.06760 0.49331
 C2189 C 0.13244 -0.04730 0.49643
 C2190 C 0.15055 -0.03882 0.50120
 C2191 C 0.16740 -0.05030 0.50291
 C2192 C 0.16661 -0.07050 0.49962
 C2193 C 0.11544 -0.03585 0.49486
 C2194 C 0.09723 -0.04451 0.49059
 C2195 C 0.09606 -0.06488 0.48782
 C2196 C 0.11314 -0.07625 0.48897
 C2197 C 0.07776 -0.07360 0.48413
 C2198 C 0.06073 -0.06230 0.48335
 C2199 C 0.06172 -0.04201 0.48588
 C2200 C 0.08009 -0.03317 0.48933
 H2201 H 0.14749 -0.09442 0.49178
 H2202 H 0.15165 -0.02331 0.50380
 H2203 H 0.18103 -0.04334 0.50706
 H2204 H 0.11634 -0.02026 0.49718
 H2205 H 0.11222 -0.09185 0.48673
 H2206 H 0.07658 -0.08919 0.48202
 H2207 H 0.04676 -0.06942 0.48059
 H2208 H 0.08098 -0.01756 0.49150
 C2209 C 0.33163 -0.07547 0.50647
 C2210 C 0.35108 -0.06838 0.50457
 C2211 C 0.36110 -0.06918 0.48645
 C2212 C 0.35127 -0.07646 0.47040
 C2213 C 0.33180 -0.08315 0.47231
 C2214 C 0.32181 -0.08304 0.49041
 C2215 C 0.38074 -0.06265 0.48466
 C2216 C 0.39033 -0.05486 0.50065
 C2217 C 0.38006 -0.05348 0.51861
 C2218 C 0.36063 -0.06051 0.52053
 C2219 C 0.38934 -0.04488 0.53433
 C2220 C 0.40855 -0.03754 0.53225
 C2221 C 0.41898 -0.03922 0.51463
 C2222 C 0.40992 -0.04807 0.49891
 H2223 H 0.32437 -0.07548 0.52060
 H2224 H 0.35862 -0.07695 0.45634
 H2225 H 0.32457 -0.08841 0.45954
 H2226 H 0.38848 -0.06346 0.47080
 H2227 H 0.35287 -0.05966 0.53438
 H2228 H 0.38166 -0.04358 0.54814
 H2229 H 0.41538 -0.03069 0.54447
 H2230 H 0.41790 -0.04908 0.48521
 C2231 C -0.16430 0.42886 1.00056
 C2232 C -0.14476 0.43581 0.99940
 C2233 C -0.13140 0.42779 0.98592
 C2234 C -0.13788 0.41322 0.97362
 C2235 C -0.15732 0.40639 0.97486
 C2236 C -0.17066 0.41394 0.98848
 C2237 C -0.11176 0.43439 0.98501
 C2238 C -0.10532 0.44902 0.99730
 C2239 C -0.11876 0.45725 1.01058
 C2240 C -0.13835 0.45053 1.01161
 C2241 C -0.11240 0.47215 1.02257
 C2242 C -0.09296 0.47897 1.02133
 C2243 C -0.07943 0.47083 1.00828
 C2244 C -0.08568 0.45571 0.99640
 H2245 H -0.17439 0.43468 1.01123
 H2246 H -0.12790 0.40702 0.96310
 H2247 H -0.16193 0.39514 0.96514
 H2248 H -0.10151 0.42815 0.97473
 H2249 H -0.14860 0.45676 1.02189
 H2250 H -0.12249 0.47863 1.03281
 H2251 H -0.08846 0.49057 1.03071
 H2252 H -0.07540 0.44949 0.98616
 C2253 C -0.15615 0.58323 0.50452
 C2254 C -0.13914 0.57203 0.50211
 C2255 C -0.13993 0.55488 0.49123
 C2256 C -0.15770 0.54940 0.48271
 C2257 C -0.17448 0.56087 0.48481
 C2258 C -0.17395 0.57792 0.49574
 C2259 C -0.12293 0.54360 0.48894
 C2260 C -0.10507 0.54945 0.49714
 C2261 C -0.10427 0.56683 0.50772
 C2262 C -0.12132 0.57789 0.51029
 C2263 C -0.08639 0.57290 0.51557
 C2264 C -0.06945 0.56181 0.51315
 C2265 C -0.07007 0.54430 0.50299
 C2266 C -0.08799 0.53823 0.49495
 H2267 H -0.15547 0.59608 0.51329
 H2268 H -0.15856 0.53638 0.47419
 H2269 H -0.18778 0.55654 0.47752
 H2270 H -0.12357 0.53036 0.48069
 H2271 H -0.12067 0.59114 0.51851
 H2272 H -0.08551 0.58621 0.52364
 H2273 H -0.05591 0.56682 0.51957
 H2274 H -0.08865 0.52483 0.48698
 C2275 C 0.35398 1.08415 0.00855
 C2276 C 0.37056 1.07217 0.00775
 C2277 C 0.36916 1.05367 -0.00074
 C2278 C 0.35115 1.04751 -0.00831
 C2279 C 0.33464 1.05950 -0.00732
 C2280 C 0.33586 1.07788 0.00119
 C2281 C 0.38575 1.04162 -0.00143
 C2282 C 0.40368 1.04785 0.00633
 C2283 C 0.40501 1.06637 0.01480
 C2284 C 0.38847 1.07841 0.01542
 C2285 C 0.42288 1.07259 0.02252
 C2286 C 0.43938 1.06065 0.02179
 C2287 C 0.43834 1.04220 0.01335
 C2288 C 0.42034 1.03588 0.00568
 H2289 H 0.35522 1.09843 0.01484
 H2290 H 0.34978 1.03337 -0.01484
 H2291 H 0.32079 1.05422 -0.01289
 H2292 H 0.38470 1.02743 -0.00795
 H2293 H 0.38952 1.09261 0.02194
 H2294 H 0.42414 1.08674 0.02907
 H2295 H 0.45301 1.06598 0.02778
 H2296 H 0.41931 1.02176 -0.00096
 C2297 C 0.01731 1.16781 1.07191
 C2298 C 0.01784 1.14908 1.06418
 C2299 C 0.01511 1.13238 1.07666
 C2300 C 0.01242 1.13467 1.09668
 C2301 C 0.01173 1.15335 1.10421
 C2302 C 0.01380 1.17008 1.09189
 C2303 C 0.01464 1.11369 1.06889
 C2304 C 0.01666 1.11147 1.04877
 C2305 C 0.01982 1.12812 1.03633
 C2306 C 0.02047 1.14681 1.04412
 C2307 C 0.02194 1.12582 1.01625
 C2308 C 0.02053 1.10726 1.00849
 C2309 C 0.01692 1.09063 1.02065
 C2310 C 0.01521 1.09287 1.04086
 H2311 H 0.01878 1.18062 1.06227
 H2312 H 0.01046 1.12204 1.10647
 H2313 H 0.00933 1.15473 1.11971
 H2314 H 0.01231 1.10092 1.07846
 H2315 H 0.02264 1.15959 1.03454
 H2316 H 0.02444 1.13840 1.00651
 H2317 H 0.02194 1.10600 0.99287
 H2318 H 0.01260 1.08018 1.05045
 C2319 C 0.50707 0.65736 0.57791
 C2320 C 0.50500 0.63892 0.56977
 C2321 C 0.49137 0.62514 0.57805
 C2322 C 0.47999 0.63008 0.59428
 C2323 C 0.48214 0.64846 0.60230
 C2324 C 0.49572 0.66225 0.59426
 C2325 C 0.48932 0.60667 0.56998
 C2326 C 0.50069 0.60181 0.55368
 C2327 C 0.51428 0.61563 0.54539
 C2328 C 0.51639 0.63406 0.55350
 C2329 C 0.52552 0.61083 0.52904
 C2330 C 0.52327 0.59257 0.52086
 C2331 C 0.50979 0.57866 0.52891
 C2332 C 0.49861 0.58339 0.54545
 H2333 H 0.51774 0.66779 0.57172
 H2334 H 0.46941 0.61975 0.60077
 H2335 H 0.47299 0.65196 0.61471
 H2336 H 0.47887 0.59612 0.57635
 H2337 H 0.52684 0.64462 0.54713
 H2338 H 0.53602 0.62123 0.52252
 H2339 H 0.53218 0.58933 0.50820
 H2340 H 0.48812 0.57286 0.55179
 C2341 C -0.00737 0.65602 0.41581
 C2342 C -0.00623 0.63855 0.42705
 C2343 C -0.00306 0.63932 0.44731
 C2344 C -0.00086 0.65750 0.45590
 C2345 C -0.00171 0.67478 0.44457
 C2346 C -0.00502 0.67422 0.42448
 C2347 C -0.00202 0.62193 0.45862
 C2348 C -0.00381 0.60374 0.44993
 C2349 C -0.00667 0.60293 0.42964
 C2350 C -0.00801 0.62034 0.41835
 C2351 C -0.00806 0.58469 0.42099
 C2352 C -0.00663 0.56741 0.43230
 C2353 C -0.00400 0.56804 0.45251
 C2354 C -0.00265 0.58633 0.46122
 H2355 H -0.00971 0.65548 0.40027
 H2356 H 0.00161 0.65835 0.47139
 H2357 H -0.00000 0.68865 0.45154
 H2358 H 0.00031 0.62255 0.47417
 H2359 H -0.01029 0.61971 0.40280
 H2360 H -0.01022 0.58379 0.40546
 H2361 H -0.00781 0.55354 0.42523
 H2362 H -0.00045 0.58703 0.47677
 C2363 C 0.49500 1.15702 -0.07430
 C2364 C 0.49753 1.13770 -0.06749
 C2365 C 0.50844 1.12454 -0.07875
 C2366 C 0.51659 1.13099 -0.09670
 C2367 C 0.51409 1.15032 -0.10334
 C2368 C 0.50335 1.16353 -0.09219
 C2369 C 0.51116 1.10525 -0.07179
 C2370 C 0.50326 1.09904 -0.05364
 C2371 C 0.49231 1.11226 -0.04246
 C2372 C 0.48942 1.13143 -0.04950
 C2373 C 0.48456 1.10618 -0.02428
 C2374 C 0.48782 1.08726 -0.01705
 C2375 C 0.49880 1.07395 -0.02790
 C2376 C 0.50631 1.07989 -0.04633
 H2377 H 0.48645 1.16699 -0.06571
 H2378 H 0.52504 1.12115 -0.10551
 H2379 H 0.52089 1.15503 -0.11707
 H2380 H 0.51958 1.09517 -0.08040
 H2381 H 0.48106 1.14154 -0.04087
 H2382 H 0.47609 1.11610 -0.01557
 H2383 H 0.48163 1.08303 -0.00291
 H2384 H 0.51480 1.06979 -0.05482
 C2385 C 0.50136 0.33498 -0.07810
 C2386 C 0.50034 0.35265 -0.06852
 C2387 C 0.49968 0.35258 -0.04797
 C2388 C 0.49980 0.33466 -0.03739
 C2389 C 0.50069 0.31701 -0.04713
 C2390 C 0.50171 0.31709 -0.06754
 C2391 C 0.49888 0.37041 -0.03843
 C2392 C 0.49858 0.38819 -0.04925
 C2393 C 0.49899 0.38807 -0.06983
 C2394 C 0.49993 0.37034 -0.07930
 C2395 C 0.49845 0.40572 -0.08067
 C2396 C 0.49751 0.42342 -0.07128
 C2397 C 0.49723 0.42385 -0.05085
 C2398 C 0.49781 0.40612 -0.03989
 H2399 H 0.50166 0.33514 -0.09388
 H2400 H 0.49922 0.33429 -0.02163
 H2401 H 0.50088 0.30333 -0.03875
 H2402 H 0.49846 0.37043 -0.02266
 H2403 H 0.50034 0.37030 -0.09508
 H2404 H 0.49875 0.40585 -0.09644
 H2405 H 0.49720 0.43683 -0.08010
 H2406 H 0.49751 0.40624 -0.02413
 C2407 C -0.00831 -0.15718 0.41419
 C2408 C -0.00665 -0.13964 0.42403
 C2409 C 0.00016 -0.13983 0.44335
 C2410 C 0.00532 -0.15769 0.45243
 C2411 C 0.00392 -0.17513 0.44239
 C2412 C -0.00282 -0.17506 0.42313
 C2413 C 0.00174 -0.12220 0.45319
 C2414 C -0.00328 -0.10439 0.44383
 C2415 C -0.00986 -0.10431 0.42440
 C2416 C -0.01159 -0.12190 0.41468
 C2417 C -0.01470 -0.08664 0.41493
 C2418 C -0.01330 -0.06913 0.42464
 C2419 C -0.00710 -0.06888 0.44408
 C2420 C -0.00195 -0.08665 0.45356
 H2421 H -0.01398 -0.15686 0.39954
 H2422 H 0.01064 -0.15816 0.46722
 H2423 H 0.00848 -0.18860 0.44961
 H2424 H 0.00687 -0.12233 0.46806
 H2425 H -0.01673 -0.12177 0.39981
 H2426 H -0.01969 -0.08634 0.40003
 H2427 H -0.01737 -0.05577 0.41689
 H2428 H 0.00290 -0.08672 0.46852
 C2429 C 0.49558 -0.16664 0.58827
 C2430 C 0.49518 -0.14882 0.57762
 C2431 C 0.50030 -0.14828 0.55760
 C2432 C 0.50623 -0.16551 0.54875
 C2433 C 0.50689 -0.18316 0.55957
 C2434 C 0.50133 -0.18390 0.57931
 C2435 C 0.49947 -0.13055 0.54681
 C2436 C 0.49402 -0.11328 0.55588
 C2437 C 0.48943 -0.11374 0.57602
 C2438 C 0.48981 -0.13155 0.58671
 C2439 C 0.48474 -0.09632 0.58518
 C2440 C 0.48478 -0.07856 0.57453
 C2441 C 0.48898 -0.07802 0.55448
 C2442 C 0.49342 -0.09547 0.54520
 H2443 H 0.49154 -0.16711 0.60360
 H2444 H 0.51031 -0.16534 0.53345
 H2445 H 0.51131 -0.19633 0.55244
 H2446 H 0.50324 -0.13015 0.53141
 H2447 H 0.48611 -0.13194 0.60212
 H2448 H 0.48130 -0.09640 0.60062
 H2449 H 0.48138 -0.06524 0.58193
 H2450 H 0.49702 -0.09508 0.52977
 C2451 C -0.00608 0.34188 1.08113
 C2452 C -0.00774 0.35949 1.07040
 C2453 C -0.01059 0.35929 1.05014
 C2454 C -0.01175 0.34132 1.04099
 C2455 C -0.01020 0.32371 1.05182
 C2456 C -0.00754 0.32361 1.07218
 C2457 C -0.01205 0.37704 1.03941
 C2458 C -0.01052 0.39494 1.04878
 C2459 C -0.00773 0.39501 1.06912
 C2460 C -0.00641 0.37732 1.07978
 C2461 C -0.00602 0.41279 1.07849
 C2462 C -0.00656 0.43042 1.06778
 C2463 C -0.00902 0.43062 1.04751
 C2464 C -0.01132 0.41277 1.03813
 H2465 H -0.00281 0.34273 1.09643
 H2466 H -0.01400 0.34085 1.02544
 H2467 H -0.01190 0.31028 1.04414
 H2468 H -0.01414 0.37692 1.02380
 H2469 H -0.00420 0.37744 1.09537
 H2470 H -0.00395 0.41307 1.09408
 H2471 H -0.00488 0.44394 1.07539
 H2472 H -0.01311 0.41273 1.02249
 C2473 C 0.75594 0.32881 0.08538
 C2474 C 0.75329 0.32117 0.10449
 C2475 C 0.73415 0.31650 0.11155
 C2476 C 0.71809 0.31890 0.09922
 C2477 C 0.72080 0.32617 0.08014
 C2478 C 0.73974 0.33174 0.07275
 C2479 C 0.73135 0.30937 0.13077
 C2480 C 0.74756 0.30627 0.14289
 C2481 C 0.76684 0.31029 0.13565
 C2482 C 0.76956 0.31796 0.11658
 C2483 C 0.78308 0.30623 0.14751
 C2484 C 0.78024 0.29797 0.16625
 C2485 C 0.76114 0.29432 0.17360
 C2486 C 0.74484 0.29868 0.16197
 H2487 H 0.77091 0.33154 0.08031
 H2488 H 0.70329 0.31535 0.10442
 H2489 H 0.70758 0.32852 0.07185
 H2490 H 0.71658 0.30597 0.13621
 H2491 H 0.78434 0.32124 0.11111
 H2492 H 0.79796 0.30905 0.14215
 H2493 H 0.79293 0.29439 0.17501
 H2494 H 0.73010 0.29540 0.16754
 C2495 C 0.25391 0.84436 0.60008
 C2496 C 0.25726 0.83418 0.61781
 C2497 C 0.26199 0.81409 0.61778
 C2498 C 0.26347 0.80459 0.60009
 C2499 C 0.26008 0.81479 0.58256
 C2500 C 0.25518 0.83472 0.58233
 C2501 C 0.26484 0.80372 0.63542
 C2502 C 0.26276 0.81308 0.65317
 C2503 C 0.25828 0.83321 0.65326
 C2504 C 0.25572 0.84368 0.63557
 C2505 C 0.25591 0.84238 0.67108
 C2506 C 0.25719 0.83156 0.68863
 C2507 C 0.26114 0.81141 0.68871
 C2508 C 0.26441 0.80241 0.67084
 H2509 H 0.25039 0.85978 0.60009
 H2510 H 0.26703 0.78919 0.59981
 H2511 H 0.26094 0.80695 0.56915
 H2512 H 0.26827 0.78826 0.63536
 H2513 H 0.25212 0.85909 0.63564
 H2514 H 0.25254 0.85782 0.67144
 H2515 H 0.25466 0.83890 0.70214
 H2516 H 0.26732 0.78686 0.67061
 C2517 C 0.74331 0.66377 0.59254
 C2518 C 0.74087 0.67305 0.61028
 C2519 C 0.73757 0.69342 0.61037
 C2520 C 0.73637 0.70408 0.59266
 C2521 C 0.73878 0.69470 0.57503
 C2522 C 0.74251 0.67454 0.57483
 C2523 C 0.73586 0.70283 0.62814
 C2524 C 0.73763 0.69214 0.64580
 C2525 C 0.74055 0.67170 0.64564
 C2526 C 0.74201 0.66227 0.62790
 C2527 C 0.74248 0.66105 0.66323
 C2528 C 0.74232 0.67063 0.68082
 C2529 C 0.74001 0.69103 0.68120
 C2530 C 0.73717 0.70165 0.66360
 H2531 H 0.74585 0.64815 0.59250
 H2532 H 0.73381 0.71969 0.59243
 H2533 H 0.73816 0.70329 0.56154
 H2534 H 0.73358 0.71850 0.62822
 H2535 H 0.74447 0.64663 0.62782
 H2536 H 0.74462 0.64537 0.66337
 H2537 H 0.74436 0.66206 0.69416
 H2538 H 0.73546 0.71738 0.66367
 C2539 C 0.24581 0.17522 0.09523
 C2540 C 0.24463 0.18115 0.11460
 C2541 C 0.25181 0.16885 0.12972
 C2542 C 0.25978 0.15078 0.12532
 C2543 C 0.26078 0.14486 0.10614
 C2544 C 0.25389 0.15687 0.09048
 C2545 C 0.25109 0.17485 0.14901
 C2546 C 0.24326 0.19308 0.15342
 C2547 C 0.23568 0.20529 0.13840
 C2548 C 0.23635 0.19924 0.11908
 C2549 C 0.22785 0.22349 0.14292
 C2550 C 0.22807 0.22980 0.16205
 C2551 C 0.23606 0.21799 0.17706
 C2552 C 0.24331 0.19943 0.17261
 H2553 H 0.23944 0.18473 0.08419
 H2554 H 0.26554 0.14125 0.13675
 H2555 H 0.26813 0.13118 0.10384
 H2556 H 0.25684 0.16543 0.16055
 H2557 H 0.23069 0.20870 0.10754
 H2558 H 0.22188 0.23302 0.13161
 H2559 H 0.22234 0.24414 0.16498
 H2560 H 0.24951 0.19011 0.18396
 C2561 C 0.24891 0.18278 0.92228
 C2562 C 0.25091 0.19233 0.90400
 C2563 C 0.26870 0.20219 0.89882
 C2564 C 0.28426 0.20213 0.91203
 C2565 C 0.28240 0.19195 0.92996
 C2566 C 0.26476 0.18199 0.93528
 C2567 C 0.27076 0.21159 0.88041
 C2568 C 0.25546 0.21067 0.86690
 C2569 C 0.23783 0.20042 0.87203
 C2570 C 0.23554 0.19165 0.89063
 C2571 C 0.22283 0.19886 0.85837
 C2572 C 0.22524 0.20731 0.83974
 C2573 C 0.24252 0.21782 0.83452
 C2574 C 0.25757 0.21957 0.84825
 H2575 H 0.23499 0.17571 0.92620
 H2576 H 0.29806 0.20951 0.90828
 H2577 H 0.29504 0.19144 0.93936
 H2578 H 0.28438 0.21925 0.87646
 H2579 H 0.22196 0.18387 0.89453
 H2580 H 0.20928 0.19099 0.86204
 H2581 H 0.21339 0.20589 0.82947
 H2582 H 0.27101 0.22752 0.84429
 C2583 C 0.75669 0.67503 0.40771
 C2584 C 0.75752 0.68517 0.38974
 C2585 C 0.76749 0.70338 0.38790
 C2586 C 0.77649 0.71108 0.40429
 C2587 C 0.77572 0.70074 0.42223
 C2588 C 0.76592 0.68254 0.42404
 C2589 C 0.76823 0.71349 0.36976
 C2590 C 0.75915 0.70550 0.35351
 C2591 C 0.74930 0.68720 0.35556
 C2592 C 0.74851 0.67722 0.37361
 C2593 C 0.74029 0.67908 0.33952
 C2594 C 0.74083 0.68900 0.32155
 C2595 C 0.75039 0.70731 0.31917
 C2596 C 0.75965 0.71546 0.33527
 H2597 H 0.74864 0.66126 0.40900
 H2598 H 0.78422 0.72502 0.40321
 H2599 H 0.78302 0.70682 0.43459
 H2600 H 0.77582 0.72749 0.36829
 H2601 H 0.74090 0.66320 0.37509
 H2602 H 0.73275 0.66505 0.34088
 H2603 H 0.73362 0.68225 0.30950
 H2604 H 0.76707 0.72953 0.33368
 C2605 C 0.24496 0.82989 0.41749
 C2606 C 0.24508 0.81872 0.40076
 C2607 C 0.23410 0.80107 0.40056
 C2608 C 0.22331 0.79484 0.41724
 C2609 C 0.22325 0.80610 0.43387
 C2610 C 0.23393 0.82380 0.43411
 C2611 C 0.23399 0.79005 0.38367
 C2612 C 0.24468 0.79653 0.36699
 C2613 C 0.25575 0.81414 0.36733
 C2614 C 0.25594 0.82507 0.38421
 C2615 C 0.26635 0.82067 0.35071
 C2616 C 0.26583 0.81003 0.33376
 C2617 C 0.25477 0.79257 0.33308
 C2618 C 0.24433 0.78583 0.34989
 H2619 H 0.25358 0.84331 0.41762
 H2620 H 0.21481 0.78135 0.41737
 H2621 H 0.21455 0.80114 0.44644
 H2622 H 0.22550 0.77655 0.38347
 H2623 H 0.26438 0.83861 0.38440
 H2624 H 0.27492 0.83412 0.35075
 H2625 H 0.27407 0.81559 0.32112
 H2626 H 0.23568 0.77243 0.34962
 C2627 C 0.74804 0.31410 0.91451
 C2628 C 0.75187 0.30520 0.89671
 C2629 C 0.76570 0.31379 0.88334
 C2630 C 0.77590 0.33077 0.88824
 C2631 C 0.77214 0.33944 0.90599
 C2632 C 0.75792 0.33147 0.91919
 C2633 C 0.76898 0.30540 0.86522
 C2634 C 0.75867 0.28843 0.86030
 C2635 C 0.74525 0.27955 0.87392
 C2636 C 0.74190 0.28800 0.89198
 C2637 C 0.73519 0.26245 0.86917
 C2638 C 0.73804 0.25441 0.85098
 C2639 C 0.75093 0.26333 0.83703
 C2640 C 0.76137 0.28032 0.84191
 H2641 H 0.73700 0.30778 0.92445
 H2642 H 0.78674 0.33743 0.87829
 H2643 H 0.78045 0.35245 0.90937
 H2644 H 0.77941 0.31218 0.85490
 H2645 H 0.73139 0.28128 0.90226
 H2646 H 0.72492 0.25539 0.87944
 H2647 H 0.72971 0.24137 0.84770
 H2648 H 0.77140 0.28734 0.83138
 C2649 C 0.82641 0.40988 0.25707
 C2650 C 0.81541 0.39293 0.25366
 C2651 C 0.79835 0.39406 0.24215
 C2652 C 0.79268 0.41225 0.23417
 C2653 C 0.80400 0.42905 0.23728
 C2654 C 0.82108 0.42805 0.24865
 C2655 C 0.78740 0.37700 0.23869
 C2656 C 0.79352 0.35880 0.24640
 C2657 C 0.81076 0.35779 0.25770
 C2658 C 0.82147 0.37483 0.26137
 C2659 C 0.81711 0.33973 0.26520
 C2660 C 0.80640 0.32276 0.26178
 C2661 C 0.78900 0.32342 0.25087
 C2662 C 0.78269 0.34158 0.24308
 H2663 H 0.83924 0.40884 0.26623
 H2664 H 0.77969 0.41343 0.22524
 H2665 H 0.79963 0.44273 0.23034
 H2666 H 0.77425 0.37786 0.22994
 H2667 H 0.83465 0.37397 0.27010
 H2668 H 0.83034 0.33871 0.27380
 H2669 H 0.81171 0.30908 0.26800
 H2670 H 0.76935 0.34237 0.23463
 C2671 C 0.32998 0.92058 0.76992
 C2672 C 0.31888 0.90344 0.76759
 C2673 C 0.30160 0.90403 0.75636
 C2674 C 0.29570 0.92184 0.74772
 C2675 C 0.30702 0.93881 0.74987
 C2676 C 0.32437 0.93835 0.76084
 C2677 C 0.29067 0.88679 0.75376
 C2678 C 0.29696 0.86893 0.76208
 C2679 C 0.31428 0.86842 0.77329
 C2680 C 0.32503 0.88567 0.77608
 C2681 C 0.32069 0.85062 0.78143
 C2682 C 0.31011 0.83342 0.77851
 C2683 C 0.29281 0.83363 0.76745
 C2684 C 0.28630 0.85155 0.75929
 H2685 H 0.34309 0.92002 0.77873
 H2686 H 0.28253 0.92259 0.73901
 H2687 H 0.30245 0.95220 0.74248
 H2688 H 0.27742 0.88724 0.74512
 H2689 H 0.33833 0.88521 0.78465
 H2690 H 0.33394 0.84998 0.79004
 H2691 H 0.31550 0.81992 0.78504
 H2692 H 0.27303 0.85198 0.75070
 C2693 C 0.17739 0.91323 0.24649
 C2694 C 0.18420 0.89384 0.24759
 C2695 C 0.17327 0.87883 0.23900
 C2696 C 0.15592 0.88340 0.22930
 C2697 C 0.14914 0.90258 0.22832
 C2698 C 0.15946 0.91808 0.23709
 C2699 C 0.17980 0.85944 0.24025
 C2700 C 0.19718 0.85478 0.25006
 C2701 C 0.20824 0.86974 0.25865
 C2702 C 0.20168 0.88917 0.25739
 C2703 C 0.22570 0.86499 0.26832
 C2704 C 0.23219 0.84564 0.26940
 C2705 C 0.22128 0.83060 0.26095
 C2706 C 0.20370 0.83536 0.25134
 H2707 H 0.18573 0.92407 0.25407
 H2708 H 0.14753 0.87210 0.22233
 H2709 H 0.13613 0.90502 0.21975
 H2710 H 0.17131 0.84797 0.23362
 H2711 H 0.21017 0.90063 0.26403
 H2712 H 0.23439 0.87626 0.27499
 H2713 H 0.24576 0.84246 0.27691
 H2714 H 0.19516 0.82400 0.24462
 C2715 C 0.67838 0.39350 0.75702
 C2716 C 0.68494 0.37405 0.75736
 C2717 C 0.67514 0.36003 0.74619
 C2718 C 0.65910 0.36566 0.73480
 C2719 C 0.65267 0.38496 0.73457
 C2720 C 0.66210 0.39905 0.74573
 C2721 C 0.68152 0.34061 0.74651
 C2722 C 0.69767 0.33497 0.75777
 C2723 C 0.70755 0.34892 0.76893
 C2724 C 0.70108 0.36837 0.76872
 C2725 C 0.72386 0.34318 0.77996
 C2726 C 0.73049 0.32389 0.77972
 C2727 C 0.72081 0.30992 0.76860
 C2728 C 0.70425 0.31559 0.75781
 H2729 H 0.68568 0.40419 0.76579
 H2730 H 0.65151 0.35514 0.72607
 H2731 H 0.64032 0.38892 0.72549
 H2732 H 0.67398 0.32991 0.73791
 H2733 H 0.70865 0.37907 0.77729
 H2734 H 0.73162 0.35365 0.78861
 H2735 H 0.74326 0.31994 0.78820
 H2736 H 0.69672 0.30505 0.74903
 C2737 C 0.67504 0.57100 0.75207
 C2738 C 0.68621 0.58836 0.75219
 C2739 C 0.70564 0.58874 0.74449
 C2740 C 0.71360 0.57165 0.73702
 C2741 C 0.70241 0.55435 0.73710
 C2742 C 0.68300 0.55381 0.74458
 C2743 C 0.71672 0.60620 0.74432
 C2744 C 0.70863 0.62327 0.75181
 C2745 C 0.68928 0.62277 0.75972
 C2746 C 0.67819 0.60535 0.75982
 C2747 C 0.68125 0.63975 0.76730
 C2748 C 0.69215 0.65718 0.76686
 C2749 C 0.71132 0.65803 0.75878
 C2750 C 0.71950 0.64088 0.75138
 H2751 H 0.65998 0.57100 0.75754
 H2752 H 0.72849 0.57163 0.73113
 H2753 H 0.70905 0.54133 0.73147
 H2754 H 0.73159 0.60653 0.73829
 H2755 H 0.66330 0.60504 0.76579
 H2756 H 0.66645 0.63961 0.77345
 H2757 H 0.68540 0.67010 0.77260
 H2758 H 0.73426 0.64124 0.74512
 C2759 C 0.17086 0.08922 0.24822
 C2760 C 0.18182 0.10674 0.24827
 C2761 C 0.20192 0.10683 0.24260
 C2762 C 0.21075 0.08932 0.23724
 C2763 C 0.19977 0.07190 0.23738
 C2764 C 0.17969 0.07162 0.24280
 C2765 C 0.21283 0.12441 0.24237
 C2766 C 0.20392 0.14188 0.24786
 C2767 C 0.18387 0.14169 0.25377
 C2768 C 0.17294 0.12417 0.25384
 C2769 C 0.17505 0.15906 0.25952
 C2770 C 0.18593 0.17650 0.25939
 C2771 C 0.20583 0.17700 0.25336
 C2772 C 0.21472 0.15954 0.24759
 H2773 H 0.15533 0.08941 0.25209
 H2774 H 0.22618 0.08908 0.23296
 H2775 H 0.20707 0.05859 0.23339
 H2776 H 0.22824 0.12449 0.23792
 H2777 H 0.15753 0.12409 0.25827
 H2778 H 0.15971 0.15916 0.26411
 H2779 H 0.17865 0.18968 0.26383
 H2780 H 0.23007 0.15965 0.24301
 C2781 C 0.32094 0.09538 0.76166
 C2782 C 0.31359 0.11453 0.76058
 C2783 C 0.32569 0.12993 0.75284
 C2784 C 0.34485 0.12601 0.74637
 C2785 C 0.35201 0.10698 0.74745
 C2786 C 0.34017 0.09147 0.75500
 C2787 C 0.31848 0.14903 0.75165
 C2788 C 0.29930 0.15301 0.75807
 C2789 C 0.28713 0.13770 0.76583
 C2790 C 0.29435 0.11852 0.76705
 C2791 C 0.26796 0.14189 0.77225
 C2792 C 0.26092 0.16105 0.77100
 C2793 C 0.27293 0.17638 0.76326
 C2794 C 0.29214 0.17214 0.75683
 H2795 H 0.31164 0.08351 0.76739
 H2796 H 0.35433 0.13767 0.74050
 H2797 H 0.36698 0.10444 0.74256
 H2798 H 0.32781 0.16081 0.74571
 H2799 H 0.28503 0.10676 0.77299
 H2800 H 0.25840 0.13036 0.77826
 H2801 H 0.24608 0.16385 0.77609
 H2802 H 0.30167 0.18374 0.75090
 C2803 C 0.82102 0.58555 0.24905
 C2804 C 0.81409 0.60480 0.24738
 C2805 C 0.82688 0.61996 0.24031
 C2806 C 0.84633 0.61565 0.23510
 C2807 C 0.85310 0.59649 0.23680
 C2808 C 0.84054 0.58125 0.24371
 C2809 C 0.82004 0.63919 0.23858
 C2810 C 0.80058 0.64349 0.24385
 C2811 C 0.78778 0.62837 0.25096
 C2812 C 0.79460 0.60911 0.25264
 C2813 C 0.76838 0.63281 0.25632
 C2814 C 0.76173 0.65205 0.25477
 C2815 C 0.77433 0.66722 0.24772
 C2816 C 0.79376 0.66275 0.24222
 H2817 H 0.81116 0.57389 0.25424
 H2818 H 0.85635 0.62711 0.22975
 H2819 H 0.86829 0.59363 0.23290
 H2820 H 0.82987 0.65079 0.23317
 H2821 H 0.78478 0.59751 0.25808
 H2822 H 0.75836 0.62141 0.26180
 H2823 H 0.74668 0.65503 0.25911
 H2824 H 0.80371 0.67427 0.23688
 C2825 C 0.91059 0.25237 0.17828
 C2826 C 0.89073 0.25419 0.18397
 C2827 C 0.87676 0.26097 0.17031
 C2828 C 0.88299 0.26650 0.15143
 C2829 C 0.90276 0.26489 0.14595
 C2830 C 0.91673 0.25741 0.15913
 C2831 C 0.85679 0.26205 0.17568
 C2832 C 0.85060 0.25670 0.19466
 C2833 C 0.86467 0.25056 0.20852
 C2834 C 0.88459 0.24918 0.20305
 C2835 C 0.85858 0.24587 0.22766
 C2836 C 0.83874 0.24711 0.23301
 C2837 C 0.82456 0.25269 0.21925
 C2838 C 0.83057 0.25745 0.20005
 H2839 H 0.92110 0.24654 0.18862
 H2840 H 0.87256 0.27201 0.14084
 H2841 H 0.90708 0.26951 0.13129
 H2842 H 0.84608 0.26701 0.16509
 H2843 H 0.89530 0.24419 0.21364
 H2844 H 0.86915 0.24124 0.23850
 H2845 H 0.83439 0.24330 0.24789
 H2846 H 0.81972 0.26199 0.18943
 C2847 C 0.41380 0.75849 0.68676
 C2848 C 0.39405 0.76135 0.69228
 C2849 C 0.37892 0.75859 0.67865
 C2850 C 0.38381 0.75358 0.65963
 C2851 C 0.40344 0.75080 0.65426
 C2852 C 0.41862 0.75284 0.66782
 C2853 C 0.35913 0.76054 0.68430
 C2854 C 0.35421 0.76507 0.70348
 C2855 C 0.36932 0.76835 0.71698
 C2856 C 0.38914 0.76654 0.71129
 C2857 C 0.36434 0.77297 0.73610
 C2858 C 0.34460 0.77366 0.74199
 C2859 C 0.32941 0.76975 0.72888
 C2860 C 0.33439 0.76586 0.70948
 H2861 H 0.42533 0.76010 0.69736
 H2862 H 0.37243 0.75163 0.64894
 H2863 H 0.40674 0.74703 0.63941
 H2864 H 0.34756 0.75813 0.67389
 H2865 H 0.40070 0.76879 0.72174
 H2866 H 0.37571 0.77566 0.74662
 H2867 H 0.34128 0.77680 0.75701
 H2868 H 0.32289 0.76290 0.69916
 C2869 C 0.40762 0.24787 0.83015
 C2870 C 0.38856 0.25028 0.82288
 C2871 C 0.37934 0.26867 0.82384
 C2872 C 0.38956 0.28447 0.83152
 C2873 C 0.40864 0.28203 0.83845
 C2874 C 0.41780 0.26367 0.83811
 C2875 C 0.36009 0.27100 0.81710
 C2876 C 0.35009 0.25527 0.80899
 C2877 C 0.35951 0.23701 0.80751
 C2878 C 0.37859 0.23455 0.81469
 C2879 C 0.34975 0.22156 0.79865
 C2880 C 0.33091 0.22423 0.79117
 C2881 C 0.32136 0.24221 0.79292
 C2882 C 0.33093 0.25762 0.80201
 H2883 H 0.41430 0.23355 0.82998
 H2884 H 0.38281 0.29873 0.83216
 H2885 H 0.41623 0.29459 0.84406
 H2886 H 0.35297 0.28507 0.81801
 H2887 H 0.38573 0.22049 0.81374
 H2888 H 0.35678 0.20750 0.79728
 H2889 H 0.32370 0.21221 0.78414
 H2890 H 0.32368 0.27162 0.80309
 C2891 C 0.90778 0.74288 0.31852
 C2892 C 0.88940 0.74483 0.30942
 C2893 C 0.87852 0.76211 0.31153
 C2894 C 0.88640 0.77740 0.32193
 C2895 C 0.90468 0.77556 0.33070
 C2896 C 0.91577 0.75808 0.32981
 C2897 C 0.85987 0.76390 0.30325
 C2898 C 0.85194 0.74865 0.29266
 C2899 C 0.86295 0.73152 0.28991
 C2900 C 0.88159 0.72964 0.29844
 C2901 C 0.85505 0.71658 0.27874
 C2902 C 0.83630 0.71852 0.27065
 C2903 C 0.82506 0.73527 0.27391
 C2904 C 0.83307 0.75031 0.28484
 H2905 H 0.91498 0.72896 0.31740
 H2906 H 0.87845 0.79097 0.32321
 H2907 H 0.91010 0.78850 0.33751
 H2908 H 0.85148 0.77714 0.30515
 H2909 H 0.88994 0.71638 0.29658
 H2910 H 0.86331 0.70338 0.27634
 H2911 H 0.83039 0.70676 0.26225
 H2912 H 0.82461 0.76342 0.28717
 C2913 C 0.08740 0.75510 0.33484
 C2914 C 0.10534 0.75799 0.32480
 C2915 C 0.10551 0.76488 0.30521
 C2916 C 0.08760 0.76917 0.29615
 C2917 C 0.06974 0.76668 0.30643
 C2918 C 0.06940 0.75958 0.32590
 C2919 C 0.12355 0.76729 0.29505
 C2920 C 0.14139 0.76302 0.30437
 C2921 C 0.14107 0.75663 0.32415
 C2922 C 0.12311 0.75408 0.33418
 C2923 C 0.15874 0.75259 0.33361
 C2924 C 0.17660 0.75420 0.32346
 C2925 C 0.17723 0.75985 0.30358
 C2926 C 0.15952 0.76466 0.29419
 H2927 H 0.08753 0.74916 0.34963
 H2928 H 0.08740 0.77460 0.28118
 H2929 H 0.05623 0.77061 0.29918
 H2930 H 0.12370 0.77233 0.27993
 H2931 H 0.12295 0.74895 0.34929
 H2932 H 0.15874 0.74786 0.34880
 H2933 H 0.18995 0.75058 0.33118
 H2934 H 0.15975 0.76905 0.27890
 C2935 C 0.58854 0.24001 0.83245
 C2936 C 0.60703 0.24152 0.82327
 C2937 C 0.61055 0.25613 0.80860
 C2938 C 0.59545 0.26909 0.80350
 C2939 C 0.57718 0.26785 0.81316
 C2940 C 0.57358 0.25341 0.82786
 C2941 C 0.62914 0.25763 0.79946
 C2942 C 0.64431 0.24494 0.80512
 C2943 C 0.64080 0.23057 0.82006
 C2944 C 0.62214 0.22881 0.82888
 C2945 C 0.65604 0.21819 0.82599
 C2946 C 0.67458 0.21982 0.81706
 C2947 C 0.67818 0.23374 0.80190
 C2948 C 0.66295 0.24636 0.79607
 H2949 H 0.58590 0.22844 0.84334
 H2950 H 0.59790 0.28044 0.79234
 H2951 H 0.56606 0.27852 0.80944
 H2952 H 0.63185 0.26876 0.78810
 H2953 H 0.61944 0.21772 0.84027
 H2954 H 0.65360 0.20717 0.83748
 H2955 H 0.68600 0.20986 0.82178
 H2956 H 0.66556 0.25725 0.78449
 C2957 C 0.58652 0.73851 0.68882
 C2958 C 0.60589 0.73997 0.69557
 C2959 C 0.61827 0.75550 0.68859
 C2960 C 0.61081 0.76965 0.67551
 C2961 C 0.59146 0.76815 0.66897
 C2962 C 0.57926 0.75241 0.67529
 C2963 C 0.63793 0.75648 0.69462
 C2964 C 0.64531 0.74225 0.70769
 C2965 C 0.63272 0.72709 0.71513
 C2966 C 0.61315 0.72599 0.70894
 C2967 C 0.63996 0.71322 0.72860
 C2968 C 0.65952 0.71423 0.73457
 C2969 C 0.67230 0.72893 0.72693
 C2970 C 0.66509 0.74292 0.71346
 H2971 H 0.57712 0.72644 0.69392
 H2972 H 0.62005 0.78169 0.67008
 H2973 H 0.58623 0.77892 0.65842
 H2974 H 0.64749 0.76824 0.68906
 H2975 H 0.60360 0.71419 0.71445
 H2976 H 0.63050 0.70156 0.73452
 H2977 H 0.66477 0.70327 0.74494
 H2978 H 0.67480 0.75444 0.70768
 C2979 C 0.08463 0.25542 0.18457
 C2980 C 0.10433 0.25616 0.19065
 C2981 C 0.11928 0.26303 0.17752
 C2982 C 0.11431 0.26905 0.15858
 C2983 C 0.09475 0.26826 0.15265
 C2984 C 0.07968 0.26150 0.16553
 C2985 C 0.13897 0.26367 0.18345
 C2986 C 0.14398 0.25747 0.20236
 C2987 C 0.12905 0.25065 0.21552
 C2988 C 0.10933 0.25008 0.20962
 C2989 C 0.13411 0.24441 0.23438
 C2990 C 0.15375 0.24476 0.24013
 C2991 C 0.16882 0.25142 0.22718
 C2992 C 0.16373 0.25786 0.20828
 H2993 H 0.07317 0.25029 0.19468
 H2994 H 0.12557 0.27425 0.14829
 H2995 H 0.09147 0.27263 0.13778
 H2996 H 0.15039 0.26889 0.17331
 H2997 H 0.09792 0.24480 0.21973
 H2998 H 0.12287 0.23915 0.24468
 H2999 H 0.15712 0.23972 0.25479
 H3000 H 0.17512 0.26300 0.19808
 C3001 C -0.07659 0.98710 0.83203
 C3002 C -0.06570 0.98953 0.84899
 C3003 C -0.04587 0.98355 0.84957
 C3004 C -0.03728 0.97525 0.83322
 C3005 C -0.04809 0.97313 0.81627
 C3006 C -0.06795 0.97908 0.81527
 C3007 C -0.03488 0.98614 0.86642
 C3008 C -0.04342 0.99491 0.88262
 C3009 C -0.06323 1.00101 0.88203
 C3010 C -0.07429 0.99820 0.86525
 C3011 C -0.07163 1.00988 0.89824
 C3012 C -0.06049 1.01271 0.91489
 C3013 C -0.04075 1.00669 0.91565
 C3014 C -0.03236 0.99775 0.89937
 H3015 H -0.09151 0.99255 0.83174
 H3016 H -0.02211 0.97043 0.83348
 H3017 H -0.04087 0.96623 0.80421
 H3018 H -0.01964 0.98151 0.86686
 H3019 H -0.08951 1.00289 0.86479
 H3020 H -0.08680 1.01465 0.89804
 H3021 H -0.06738 1.01956 0.92719
 H3022 H -0.01719 0.99295 0.89968
 C3023 C 0.43079 0.48798 0.33099
 C3024 C 0.44224 0.48985 0.34764
 C3025 C 0.46106 0.49884 0.34615
 C3026 C 0.46803 0.50586 0.32790
 C3027 C 0.45618 0.50461 0.31147
 C3028 C 0.43730 0.49588 0.31284
 C3029 C 0.47229 0.50115 0.36297
 C3030 C 0.46454 0.49528 0.38133
 C3031 C 0.44553 0.48656 0.38270
 C3032 C 0.43475 0.48349 0.36585
 C3033 C 0.43730 0.48149 0.40097
 C3034 C 0.44758 0.48538 0.41781
 C3035 C 0.46648 0.49387 0.41670
 C3036 C 0.47514 0.49850 0.39843
 H3037 H 0.41657 0.48070 0.33235
 H3038 H 0.48238 0.51289 0.32644
 H3039 H 0.46162 0.51108 0.29784
 H3040 H 0.48674 0.50805 0.36184
 H3041 H 0.42020 0.47679 0.36700
 H3042 H 0.42274 0.47487 0.40226
 H3043 H 0.44080 0.48159 0.43181
 H3044 H 0.48970 0.50517 0.39759
 C3045 C 0.58056 -0.00530 0.34819
 C3046 C 0.56917 -0.00453 0.36531
 C3047 C 0.54960 0.00219 0.36452
 C3048 C 0.54174 0.00791 0.34653
 C3049 C 0.55315 0.00710 0.32948
 C3050 C 0.57287 0.00064 0.32993
 C3051 C 0.53823 0.00303 0.38170
 C3052 C 0.54623 -0.00287 0.39966
 C3053 C 0.56582 -0.00970 0.40036
 C3054 C 0.57714 -0.01048 0.38322
 C3055 C 0.57381 -0.01566 0.41822
 C3056 C 0.56255 -0.01491 0.43529
 C3057 C 0.54303 -0.00816 0.43489
 C3058 C 0.53498 -0.00210 0.41693
 H3059 H 0.59521 -0.01131 0.34926
 H3060 H 0.52676 0.01318 0.34563
 H3061 H 0.54655 0.01238 0.31612
 H3062 H 0.52320 0.00822 0.38109
 H3063 H 0.59217 -0.01570 0.38383
 H3064 H 0.58880 -0.02092 0.41900
 H3065 H 0.56921 -0.01962 0.44885
 H3066 H 0.51997 0.00314 0.41635
 C3067 C 0.08070 0.50856 0.84132
 C3068 C 0.06947 0.50784 0.85859
 C3069 C 0.04868 0.50865 0.85778
 C3070 C 0.03950 0.50990 0.83964
 C3071 C 0.05080 0.51035 0.82248
 C3072 C 0.07146 0.50980 0.82319
 C3073 C 0.03745 0.50810 0.87508
 C3074 C 0.04674 0.50647 0.89316
 C3075 C 0.06753 0.50535 0.89390
 C3076 C 0.07875 0.50618 0.87664
 C3077 C 0.07677 0.50336 0.91193
 C3078 C 0.06557 0.50247 0.92910
 C3079 C 0.04491 0.50376 0.92860
 C3080 C 0.03559 0.50582 0.91052
 H3081 H 0.09664 0.50783 0.84195
 H3082 H 0.02358 0.51049 0.83873
 H3083 H 0.04343 0.51137 0.80862
 H3084 H 0.02151 0.50882 0.87447
 H3085 H 0.09470 0.50542 0.87724
 H3086 H 0.09268 0.50246 0.91275
 H3087 H 0.07314 0.50103 0.94283
 H3088 H 0.01966 0.50671 0.90995
 C3089 C 0.08338 0.50980 0.65594
 C3090 C 0.07275 0.50580 0.63916
 C3091 C 0.05320 0.49859 0.64091
 C3092 C 0.04468 0.49534 0.65942
 C3093 C 0.05549 0.49898 0.67607
 C3094 C 0.07497 0.50622 0.67457
 C3095 C 0.04251 0.49467 0.62414
 C3096 C 0.05119 0.49773 0.60565
 C3097 C 0.07085 0.50468 0.60392
 C3098 C 0.08148 0.50875 0.62068
 C3099 C 0.07953 0.50761 0.58544
 C3100 C 0.06872 0.50410 0.56877
 C3101 C 0.04899 0.49760 0.57024
 C3102 C 0.04043 0.49419 0.58882
 H3103 H 0.09822 0.51569 0.65444
 H3104 H 0.02974 0.48971 0.66104
 H3105 H 0.04870 0.49567 0.69014
 H3106 H 0.02745 0.48926 0.62549
 H3107 H 0.09653 0.51418 0.61933
 H3108 H 0.09461 0.51284 0.58386
 H3109 H 0.07575 0.50685 0.55470
 H3110 H 0.02526 0.48918 0.59024
 C3111 C 0.58945 0.99123 0.16215
 C3112 C 0.57907 0.99037 0.14469
 C3113 C 0.55831 0.99208 0.14502
 C3114 C 0.54835 0.99492 0.16268
 C3115 C 0.55883 0.99604 0.17992
 C3116 C 0.57940 0.99410 0.17983
 C3117 C 0.54783 0.99105 0.12769
 C3118 C 0.55784 0.98873 0.10996
 C3119 C 0.57861 0.98736 0.10951
 C3120 C 0.58910 0.98799 0.12693
 C3121 C 0.58851 0.98562 0.09159
 C3122 C 0.57793 0.98545 0.07427
 C3123 C 0.55727 0.98663 0.07465
 C3124 C 0.54735 0.98811 0.09261
 H3125 H 0.60537 0.98994 0.16198
 H3126 H 0.53245 0.99630 0.16315
 H3127 H 0.55083 0.99811 0.19343
 H3128 H 0.53190 0.99227 0.12796
 H3129 H 0.60503 0.98685 0.12664
 H3130 H 0.60443 0.98462 0.09095
 H3131 H 0.58588 0.98433 0.06059
 H3132 H 0.53143 0.98934 0.09308
 C3133 C 0.41405 0.50389 0.14697
 C3134 C 0.42435 0.50546 0.12908
 C3135 C 0.44469 0.51023 0.12879
 C3136 C 0.45433 0.51342 0.14630
 C3137 C 0.44398 0.51188 0.16398
 C3138 C 0.42378 0.50712 0.16455
 C3139 C 0.45510 0.51165 0.11103
 C3140 C 0.44551 0.50826 0.09351
 C3141 C 0.42516 0.50361 0.09373
 C3142 C 0.41469 0.50230 0.11151
 C3143 C 0.41571 0.50012 0.07615
 C3144 C 0.42636 0.50085 0.05857
 C3145 C 0.44667 0.50520 0.05818
 C3146 C 0.45606 0.50915 0.07579
 H3147 H 0.39842 0.50042 0.14720
 H3148 H 0.46991 0.51703 0.14634
 H3149 H 0.45189 0.51419 0.17730
 H3150 H 0.47072 0.51522 0.11086
 H3151 H 0.39909 0.49866 0.11168
 H3152 H 0.40011 0.49658 0.07602
 H3153 H 0.41869 0.49780 0.04528
 H3154 H 0.47171 0.51247 0.07581
 C3155 C -0.08334 -0.00620 0.64658
 C3156 C -0.07419 -0.00184 0.62845
 C3157 C -0.05515 0.00668 0.62769
 C3158 C -0.04568 0.01094 0.64500
 C3159 C -0.05492 0.00685 0.66295
 C3160 C -0.07393 -0.00183 0.66418
 C3161 C -0.04581 0.01075 0.60965
 C3162 C -0.05532 0.00650 0.59229
 C3163 C -0.07454 -0.00165 0.59298
 C3164 C -0.08386 -0.00578 0.61105
 C3165 C -0.08402 -0.00577 0.57558
 C3166 C -0.07436 -0.00235 0.55767
 C3167 C -0.05502 0.00530 0.55679
 C3168 C -0.04574 0.00998 0.57426
 H3169 H -0.09815 -0.01221 0.64677
 H3170 H -0.03101 0.01736 0.64467
 H3171 H -0.04663 0.00986 0.67585
 H3172 H -0.03109 0.01711 0.60914
 H3173 H -0.09856 -0.01219 0.61156
 H3174 H -0.09879 -0.01194 0.57581
 H3175 H -0.08193 -0.00610 0.54452
 H3176 H -0.03087 0.01592 0.57390
 C3177 C -0.15378 0.92879 0.99072
 C3178 C -0.13456 0.93654 0.99048
 C3179 C -0.11827 0.92391 0.98886
 C3180 C -0.12152 0.90376 0.98729
 C3181 C -0.14072 0.89621 0.98715
 C3182 C -0.15696 0.90864 0.98890
 C3183 C -0.09904 0.93163 0.98863
 C3184 C -0.09589 0.95188 0.98959
 C3185 C -0.11221 0.96451 0.99088
 C3186 C -0.13141 0.95675 0.99153
 C3187 C -0.10908 0.98475 0.99130
 C3188 C -0.08997 0.99246 0.99032
 C3189 C -0.07362 0.98007 0.98922
 C3190 C -0.07669 0.95973 0.98899
 H3191 H -0.16629 0.93844 0.99186
 H3192 H -0.10924 0.89386 0.98600
 H3193 H -0.14291 0.88061 0.98584
 H3194 H -0.08656 0.92194 0.98746
 H3195 H -0.14390 0.96646 0.99260
 H3196 H -0.12141 0.99464 0.99224
 H3197 H -0.08798 1.00818 0.99061
 H3198 H -0.06417 0.95007 0.98794
 C3199 C 0.33899 0.42387 0.49410
 C3200 C 0.35845 0.43103 0.49455
 C3201 C 0.37261 0.42094 0.50584
 C3202 C 0.36709 0.40390 0.51647
 C3203 C 0.34778 0.39676 0.51578
 C3204 C 0.33359 0.40660 0.50455
 C3205 C 0.39208 0.42798 0.50625
 C3206 C 0.39762 0.44495 0.49546
 C3207 C 0.38348 0.45500 0.48412
 C3208 C 0.36399 0.44800 0.48375
 C3209 C 0.38906 0.47195 0.47337
 C3210 C 0.40839 0.47903 0.47399
 C3211 C 0.42259 0.46928 0.48533
 C3212 C 0.41707 0.45210 0.49593
 H3213 H 0.32818 0.43143 0.48524
 H3214 H 0.37773 0.39600 0.52523
 H3215 H 0.34389 0.38353 0.52409
 H3216 H 0.40291 0.42024 0.51494
 H3217 H 0.35316 0.45573 0.47505
 H3218 H 0.37844 0.47981 0.46455
 H3219 H 0.41220 0.49223 0.46558
 H3220 H 0.42780 0.44444 0.50479
 C3221 C 0.33668 0.58564 -0.00319
 C3222 C 0.35323 0.57356 -0.00392
 C3223 C 0.35213 0.55430 0.00414
 C3224 C 0.33439 0.54748 0.01276
 C3225 C 0.31793 0.55962 0.01339
 C3226 C 0.31887 0.57881 0.00540
 C3227 C 0.36877 0.54224 0.00348
 C3228 C 0.38649 0.54924 -0.00514
 C3229 C 0.38746 0.56851 -0.01322
 C3230 C 0.37088 0.58052 -0.01256
 C3231 C 0.40507 0.57556 -0.02179
 C3232 C 0.42167 0.56373 -0.02228
 C3233 C 0.42106 0.54454 -0.01423
 C3234 C 0.40329 0.53736 -0.00572
 H3235 H 0.33777 0.60051 -0.00909
 H3236 H 0.33323 0.53275 0.01899
 H3237 H 0.30436 0.55389 0.01991
 H3238 H 0.36795 0.52747 0.00971
 H3239 H 0.37171 0.59531 -0.01875
 H3240 H 0.40606 0.59029 -0.02805
 H3241 H 0.43507 0.56975 -0.02891
 H3242 H 0.40256 0.52264 0.00062
 C3243 C -0.16790 0.08961 0.48794
 C3244 C -0.15110 0.07783 0.48800
 C3245 C -0.15196 0.05893 0.49695
 C3246 C -0.16970 0.05211 0.50554
 C3247 C -0.18635 0.06401 0.50553
 C3248 C -0.18559 0.08293 0.49689
 C3249 C -0.13503 0.04727 0.49731
 C3250 C -0.11723 0.05436 0.48895
 C3251 C -0.11648 0.07324 0.47994
 C3252 C -0.13342 0.08480 0.47944
 C3253 C -0.09874 0.08037 0.47171
 C3254 C -0.08179 0.06902 0.47251
 C3255 C -0.08221 0.05023 0.48151
 C3256 C -0.10011 0.04295 0.48962
 H3257 H -0.16718 0.10402 0.48091
 H3258 H -0.17065 0.03768 0.51247
 H3259 H -0.19971 0.05856 0.51269
 H3260 H -0.13566 0.03280 0.50423
 H3261 H -0.13277 0.09931 0.47258
 H3262 H -0.09792 0.09480 0.46474
 H3263 H -0.06830 0.07504 0.46608
 H3264 H -0.10071 0.02853 0.49664
 C3265 C 0.65808 0.07837 0.50069
 C3266 C 0.63885 0.07055 0.50089
 C3267 C 0.62253 0.08326 0.50144
 C3268 C 0.62571 0.10352 0.50155
 C3269 C 0.64485 0.11117 0.50102
 C3270 C 0.66117 0.09870 0.50062
 C3271 C 0.60331 0.07553 0.50181
 C3272 C 0.60015 0.05527 0.50140
 C3273 C 0.61644 0.04257 0.50053
 C3274 C 0.63569 0.05028 0.50038
 C3275 C 0.61319 0.02235 0.49982
 C3276 C 0.59401 0.01474 0.50015
 C3277 C 0.57768 0.02719 0.50135
 C3278 C 0.58093 0.04750 0.50188
 H3279 H 0.67063 0.06870 0.50018
 H3280 H 0.61338 0.11346 0.50195
 H3281 H 0.64695 0.12688 0.50112
 H3282 H 0.59083 0.08529 0.50235
 H3283 H 0.64817 0.04052 0.49982
 H3284 H 0.62549 0.01240 0.49908
 H3285 H 0.59198 -0.00097 0.49976
 H3286 H 0.56851 0.05731 0.50265
 C3287 C 0.16240 0.58198 1.00377
 C3288 C 0.14297 0.57475 1.00334
 C3289 C 0.12744 0.58583 1.01108
 C3290 C 0.13155 0.60389 1.01910
 C3291 C 0.15083 0.61109 1.01933
 C3292 C 0.16668 0.60039 1.01160
 C3293 C 0.10803 0.57870 1.01070
 C3294 C 0.10389 0.56061 1.00260
 C3295 C 0.11936 0.54953 0.99472
 C3296 C 0.13881 0.55667 0.99511
 C3297 C 0.11511 0.53142 0.98669
 C3298 C 0.09576 0.52423 0.98672
 C3299 C 0.08027 0.53504 0.99472
 C3300 C 0.08450 0.55336 1.00247
 H3301 H 0.17393 0.57353 0.99712
 H3302 H 0.11983 0.61248 1.02528
 H3303 H 0.15321 0.62484 1.02631
 H3304 H 0.09615 0.58723 1.01672
 H3305 H 0.15068 0.54814 0.98910
 H3306 H 0.12677 0.52274 0.98053
 H3307 H 0.09296 0.51011 0.98058
 H3308 H 0.07276 0.56188 1.00875
 C3309 C 0.15952 0.41323 0.50205
 C3310 C 0.14220 0.42418 0.50322
 C3311 C 0.14299 0.44341 0.51011
 C3312 C 0.16109 0.45124 0.51591
 C3313 C 0.17829 0.44022 0.51467
 C3314 C 0.17772 0.42120 0.50757
 C3315 C 0.12572 0.45450 0.51099
 C3316 C 0.10769 0.44659 0.50504
 C3317 C 0.10691 0.42729 0.49833
 C3318 C 0.12415 0.41621 0.49748
 C3319 C 0.08888 0.41940 0.49249
 C3320 C 0.07176 0.43052 0.49319
 C3321 C 0.07230 0.44980 0.49968
 C3322 C 0.09041 0.45771 0.50564
 H3323 H 0.15881 0.39843 0.49690
 H3324 H 0.16197 0.46595 0.52125
 H3325 H 0.19213 0.44674 0.51889
 H3326 H 0.12634 0.46929 0.51619
 H3327 H 0.12355 0.40143 0.49224
 H3328 H 0.08803 0.40461 0.48734
 H3329 H 0.05808 0.42401 0.48852
 H3330 H 0.09110 0.47251 0.51079
 C3331 C 0.67021 0.91903 -0.01412
 C3332 C 0.65285 0.92937 -0.01065
 C3333 C 0.65326 0.94573 0.00137
 C3334 C 0.67107 0.95147 0.00966
 C3335 C 0.68824 0.94083 0.00645
 C3336 C 0.68798 0.92438 -0.00532
 C3337 C 0.63581 0.95588 0.00513
 C3338 C 0.61792 0.94968 -0.00275
 C3339 C 0.61755 0.93325 -0.01470
 C3340 C 0.63503 0.92332 -0.01872
 C3341 C 0.59966 0.92690 -0.02234
 C3342 C 0.58223 0.93669 -0.01818
 C3343 C 0.58235 0.95312 -0.00640
 C3344 C 0.60035 0.95954 0.00124
 H3345 H 0.66980 0.90666 -0.02356
 H3346 H 0.67166 0.96394 0.01896
 H3347 H 0.70159 0.94518 0.01365
 H3348 H 0.63611 0.96844 0.01436
 H3349 H 0.63472 0.91070 -0.02787
 H3350 H 0.59912 0.91432 -0.03150
 H3351 H 0.56866 0.93144 -0.02436
 H3352 H 0.60069 0.97214 0.01041
 C3353 C -0.01720 0.85159 0.92237
 C3354 C -0.01684 0.86927 0.93210
 C3355 C -0.01475 0.86915 0.95249
 C3356 C -0.01342 0.85127 0.96283
 C3357 C -0.01341 0.83368 0.95303
 C3358 C -0.01489 0.83346 0.93251
 C3359 C -0.01359 0.88689 0.96213
 C3360 C -0.01401 0.90476 0.95151
 C3361 C -0.01630 0.90483 0.93109
 C3362 C -0.01800 0.88712 0.92157
 C3363 C -0.01631 0.92261 0.92041
 C3364 C -0.01346 0.94018 0.92975
 C3365 C -0.01086 0.94032 0.95000
 C3366 C -0.01157 0.92256 0.96087
 H3367 H -0.01955 0.85221 0.90685
 H3368 H -0.01177 0.85088 0.97849
 H3369 H -0.01113 0.82047 0.96171
 H3370 H -0.01180 0.88679 0.97778
 H3371 H -0.01959 0.88722 0.90589
 H3372 H -0.01811 0.92292 0.90477
 H3373 H -0.01321 0.95369 0.92108
 H3374 H -0.00949 0.92251 0.97648
 C3375 C 0.49574 0.33866 0.42726
 C3376 C 0.49443 0.35626 0.43699
 C3377 C 0.48583 0.35654 0.45580
 C3378 C 0.47862 0.33898 0.46451
 C3379 C 0.47981 0.32143 0.45459
 C3380 C 0.48827 0.32113 0.43579
 C3381 C 0.48458 0.37433 0.46548
 C3382 C 0.49178 0.39180 0.45644
 C3383 C 0.50027 0.39127 0.43754
 C3384 C 0.50159 0.37358 0.42802
 C3385 C 0.50738 0.40845 0.42833
 C3386 C 0.50633 0.42609 0.43771
 C3387 C 0.49816 0.42707 0.45661
 C3388 C 0.49077 0.40977 0.46590
 H3389 H 0.50274 0.33863 0.41299
 H3390 H 0.47194 0.33884 0.47892
 H3391 H 0.47382 0.30817 0.46148
 H3392 H 0.47803 0.37459 0.47994
 H3393 H 0.50815 0.37331 0.41354
 H3394 H 0.51384 0.40826 0.41383
 H3395 H 0.51207 0.43904 0.43002
 H3396 H 0.48441 0.41025 0.48043
 C3397 C -0.00565 0.33515 0.58326
 C3398 C -0.00363 0.35264 0.57212
 C3399 C 0.00148 0.35206 0.55220
 C3400 C 0.00441 0.33396 0.54376
 C3401 C 0.00268 0.31658 0.55498
 C3402 C -0.00215 0.31673 0.57508
 C3403 C 0.00365 0.36958 0.54108
 C3404 C 0.00088 0.38770 0.54972
 C3405 C -0.00421 0.38823 0.56970
 C3406 C -0.00653 0.37073 0.58073
 C3407 C -0.00692 0.40627 0.57835
 C3408 C -0.00478 0.42369 0.56733
 C3409 C 0.00012 0.42346 0.54738
 C3410 C 0.00302 0.40530 0.53870
 H3411 H -0.01045 0.33617 0.59825
 H3412 H 0.00842 0.33323 0.52849
 H3413 H 0.00611 0.30319 0.54781
 H3414 H 0.00756 0.36911 0.52575
 H3415 H -0.01043 0.37120 0.59606
 H3416 H -0.01078 0.40694 0.59366
 H3417 H -0.00712 0.43736 0.57446
 H3418 H 0.00677 0.40481 0.52335
 C3419 C 0.50913 0.82703 0.07021
 C3420 C 0.50929 0.84514 0.06014
 C3421 C 0.50060 0.84693 0.04162
 C3422 C 0.49171 0.83046 0.03360
 C3423 C 0.49130 0.81248 0.04395
 C3424 C 0.50010 0.81063 0.06227
 C3425 C 0.50066 0.86519 0.03163
 C3426 C 0.50884 0.88172 0.04023
 C3427 C 0.51726 0.87982 0.05891
 C3428 C 0.51768 0.86153 0.06859
 C3429 C 0.52480 0.89633 0.06785
 C3430 C 0.52369 0.91469 0.05858
 C3431 C 0.51544 0.91680 0.04003
 C3432 C 0.50832 0.90022 0.03073
 H3433 H 0.51560 0.82579 0.08452
 H3434 H 0.48490 0.83154 0.01946
 H3435 H 0.48426 0.79997 0.03761
 H3436 H 0.49402 0.86662 0.01741
 H3437 H 0.52418 0.86013 0.08289
 H3438 H 0.53125 0.89511 0.08216
 H3439 H 0.52935 0.92731 0.06591
 H3440 H 0.50176 0.90185 0.01649
 C3441 C 0.48679 0.65309 0.07122
 C3442 C 0.48817 0.63429 0.06387
 C3443 C 0.49987 0.62007 0.07347
 C3444 C 0.50994 0.62492 0.09032
 C3445 C 0.50858 0.64373 0.09748
 C3446 C 0.49706 0.65800 0.08797
 C3447 C 0.50148 0.60133 0.06596
 C3448 C 0.49174 0.59674 0.04882
 C3449 C 0.48001 0.61100 0.03928
 C3450 C 0.47818 0.62961 0.04694
 C3451 C 0.47049 0.60651 0.02205
 C3452 C 0.47284 0.58820 0.01410
 C3453 C 0.48460 0.57394 0.02332
 C3454 C 0.49380 0.57822 0.04087
 H3455 H 0.47763 0.66388 0.06393
 H3456 H 0.51902 0.61424 0.09784
 H3457 H 0.51684 0.64723 0.11029
 H3458 H 0.51051 0.59044 0.07328
 H3459 H 0.46923 0.64053 0.03957
 H3460 H 0.46141 0.61724 0.01460
 H3461 H 0.46539 0.58520 0.00067
 H3462 H 0.50294 0.56736 0.04806
 C3463 C -0.00787 0.15837 0.57196
 C3464 C -0.00784 0.13959 0.56431
 C3465 C -0.00034 0.12363 0.57541
 C3466 C 0.00688 0.12675 0.59406
 C3467 C 0.00692 0.14551 0.60153
 C3468 C -0.00034 0.16152 0.59054
 C3469 C -0.00004 0.10489 0.56764
 C3470 C -0.00700 0.10193 0.54882
 C3471 C -0.01455 0.11794 0.53781
 C3472 C -0.01499 0.13660 0.54562
 C3473 C -0.02143 0.11509 0.51903
 C3474 C -0.02068 0.09663 0.51108
 C3475 C -0.01309 0.08052 0.52173
 C3476 C -0.00638 0.08329 0.54074
 H3477 H -0.01331 0.17062 0.56327
 H3478 H 0.01262 0.11471 0.60283
 H3479 H 0.01253 0.14748 0.61600
 H3480 H 0.00578 0.09268 0.57615
 H3481 H -0.02073 0.14883 0.53708
 H3482 H -0.02730 0.12717 0.51041
 H3483 H -0.02610 0.09504 0.49648
 H3484 H -0.00049 0.07106 0.54914
 C3485 C 0.51198 0.15318 0.42378
 C3486 C 0.51414 0.13560 0.43459
 C3487 C 0.51853 0.13606 0.45461
 C3488 C 0.52120 0.15414 0.46333
 C3489 C 0.51897 0.17159 0.45245
 C3490 C 0.51402 0.17129 0.43269
 C3491 C 0.51974 0.11849 0.46566
 C3492 C 0.51637 0.10049 0.45698
 C3493 C 0.51245 0.10006 0.43685
 C3494 C 0.51150 0.11760 0.42577
 C3495 C 0.50900 0.08212 0.42820
 C3496 C 0.50866 0.06479 0.43948
 C3497 C 0.51191 0.06500 0.45964
 C3498 C 0.51624 0.08294 0.46821
 H3499 H 0.50848 0.15279 0.40847
 H3500 H 0.52463 0.15478 0.47863
 H3501 H 0.52052 0.18535 0.45966
 H3502 H 0.52282 0.11886 0.48108
 H3503 H 0.50822 0.11724 0.41039
 H3504 H 0.50609 0.08153 0.41278
 H3505 H 0.50547 0.05122 0.43242
 H3506 H 0.51877 0.08337 0.48372
 C3507 C 0.00576 0.66577 0.92698
 C3508 C 0.00968 0.64761 0.93601
 C3509 C 0.01760 0.64674 0.95488
 C3510 C 0.02212 0.66415 0.96411
 C3511 C 0.01847 0.68225 0.95489
 C3512 C 0.00987 0.68340 0.93629
 C3513 C 0.02062 0.62852 0.96428
 C3514 C 0.01578 0.61118 0.95499
 C3515 C 0.00853 0.61211 0.93580
 C3516 C 0.00559 0.63029 0.92642
 C3517 C 0.00380 0.59483 0.92648
 C3518 C 0.00531 0.57680 0.93637
 C3519 C 0.01166 0.57567 0.95576
 C3520 C 0.01744 0.59296 0.96479
 H3521 H 0.00008 0.66601 0.91233
 H3522 H 0.02824 0.66377 0.97858
 H3523 H 0.02156 0.69526 0.96289
 H3524 H 0.02635 0.62785 0.97894
 H3525 H -0.00029 0.63097 0.91183
 H3526 H -0.00161 0.59529 0.91172
 H3527 H 0.00091 0.56376 0.92896
 H3528 H 0.02241 0.59236 0.97971
 C3529 C 0.24471 0.67728 0.91593
 C3530 C 0.24156 0.68788 0.89848
 C3531 C 0.23575 0.70764 0.89896
 C3532 C 0.23290 0.71633 0.91695
 C3533 C 0.23577 0.70556 0.93430
 C3534 C 0.24174 0.68593 0.93402
 C3535 C 0.23300 0.71837 0.88147
 C3536 C 0.23599 0.70957 0.86351
 C3537 C 0.24144 0.68968 0.86310
 C3538 C 0.24419 0.67898 0.88056
 C3539 C 0.24441 0.68089 0.84521
 C3540 C 0.24269 0.69183 0.82784
 C3541 C 0.23787 0.71178 0.82800
 C3542 C 0.23411 0.72044 0.84596
 H3543 H 0.24968 0.66230 0.91536
 H3544 H 0.22833 0.73143 0.91761
 H3545 H 0.23298 0.71256 0.94794
 H3546 H 0.22875 0.73361 0.88183
 H3547 H 0.24854 0.66378 0.88020
 H3548 H 0.24847 0.66563 0.84464
 H3549 H 0.24558 0.68471 0.81427
 H3550 H 0.23043 0.73581 0.84635
 C3551 C 0.73545 0.17890 0.40848
 C3552 C 0.73289 0.18902 0.39068
 C3553 C 0.73401 0.20967 0.38979
 C3554 C 0.73751 0.21983 0.40681
 C3555 C 0.74016 0.20961 0.42450
 C3556 C 0.73933 0.18906 0.42547
 C3557 C 0.73194 0.21979 0.37187
 C3558 C 0.72918 0.20946 0.35480
 C3559 C 0.72794 0.18880 0.35576
 C3560 C 0.72955 0.17873 0.37372
 C3561 C 0.72569 0.17849 0.33864
 C3562 C 0.72548 0.18849 0.32063
 C3563 C 0.72707 0.20899 0.31947
 C3564 C 0.72839 0.21943 0.33668
 H3565 H 0.73436 0.16307 0.40913
 H3566 H 0.73842 0.23566 0.40641
 H3567 H 0.74319 0.21775 0.43738
 H3568 H 0.73296 0.23563 0.37114
 H3569 H 0.72873 0.16287 0.37442
 H3570 H 0.72469 0.16266 0.33912
 H3571 H 0.72438 0.18017 0.30755
 H3572 H 0.72987 0.23524 0.33590
 C3573 C 0.26047 0.32098 0.41240
 C3574 C 0.26014 0.31541 0.39290
 C3575 C 0.24835 0.32586 0.37938
 C3576 C 0.23719 0.34168 0.38552
 C3577 C 0.23779 0.34725 0.40483
 C3578 C 0.24944 0.33703 0.41841
 C3579 C 0.24789 0.32036 0.35993
 C3580 C 0.25902 0.30451 0.35377
 C3581 C 0.27094 0.29413 0.36719
 C3582 C 0.27146 0.29967 0.38667
 C3583 C 0.28191 0.27819 0.36095
 C3584 C 0.28065 0.27223 0.34176
 C3585 C 0.26853 0.28221 0.32837
 C3586 C 0.25805 0.29861 0.33445
 H3587 H 0.26963 0.31316 0.42277
 H3588 H 0.22806 0.34982 0.37537
 H3589 H 0.22907 0.35958 0.40921
 H3590 H 0.23875 0.32833 0.34963
 H3591 H 0.28055 0.29166 0.39698
 H3592 H 0.29118 0.27010 0.37101
 H3593 H 0.28894 0.25959 0.33748
 H3594 H 0.24853 0.30637 0.32436
 C3595 C 0.76418 0.81663 0.90521
 C3596 C 0.76291 0.80933 0.88639
 C3597 C 0.74814 0.81633 0.87369
 C3598 C 0.73489 0.83043 0.88003
 C3599 C 0.73638 0.83774 0.89866
 C3600 C 0.75107 0.83103 0.91138
 C3601 C 0.74686 0.80917 0.85486
 C3602 C 0.76009 0.79502 0.84854
 C3603 C 0.77488 0.78803 0.86121
 C3604 C 0.77624 0.79527 0.88002
 C3605 C 0.78790 0.77368 0.85493
 C3606 C 0.78598 0.76596 0.83649
 C3607 C 0.77118 0.77261 0.82386
 C3608 C 0.75850 0.78744 0.82989
 H3609 H 0.77568 0.81153 0.91486
 H3610 H 0.72345 0.83591 0.87052
 H3611 H 0.72603 0.84872 0.90317
 H3612 H 0.73549 0.81452 0.84518
 H3613 H 0.78758 0.78989 0.88972
 H3614 H 0.79935 0.76818 0.86442
 H3615 H 0.79598 0.75459 0.83218
 H3616 H 0.74689 0.79254 0.82036
 C3617 C 0.74851 0.82092 0.07918
 C3618 C 0.75017 0.81418 0.09857
 C3619 C 0.76883 0.81395 0.10745
 C3620 C 0.78556 0.82011 0.09662
 C3621 C 0.78378 0.82679 0.07728
 C3622 C 0.76523 0.82749 0.06846
 C3623 C 0.77044 0.80761 0.12700
 C3624 C 0.75366 0.80120 0.13766
 C3625 C 0.73506 0.80113 0.12860
 C3626 C 0.73341 0.80777 0.10920
 C3627 C 0.71840 0.79410 0.13901
 C3628 C 0.72020 0.78680 0.15808
 C3629 C 0.73855 0.78687 0.16725
 C3630 C 0.75521 0.79439 0.15709
 H3631 H 0.73416 0.82116 0.07243
 H3632 H 0.79999 0.82000 0.10316
 H3633 H 0.79684 0.83198 0.06941
 H3634 H 0.78475 0.80750 0.13384
 H3635 H 0.71912 0.80781 0.10233
 H3636 H 0.70407 0.79388 0.13228
 H3637 H 0.70722 0.78098 0.16570
 H3638 H 0.76946 0.79415 0.16403
 C3639 C 0.24342 0.32878 0.59273
 C3640 C 0.24103 0.31923 0.61096
 C3641 C 0.23356 0.29987 0.61221
 C3642 C 0.22831 0.29055 0.59511
 C3643 C 0.23083 0.30018 0.57694
 C3644 C 0.23868 0.31927 0.57556
 C3645 C 0.23174 0.29011 0.63048
 C3646 C 0.23749 0.29947 0.64744
 C3647 C 0.24472 0.31894 0.64607
 C3648 C 0.24632 0.32871 0.62789
 C3649 C 0.25057 0.32826 0.66290
 C3650 C 0.24972 0.31831 0.68091
 C3651 C 0.24288 0.29884 0.68255
 C3652 C 0.23650 0.28958 0.66570
 H3653 H 0.24908 0.34367 0.59189
 H3654 H 0.22251 0.27572 0.59577
 H3655 H 0.22709 0.29254 0.56393
 H3656 H 0.22617 0.27520 0.63146
 H3657 H 0.25201 0.34359 0.62689
 H3658 H 0.25607 0.34320 0.66209
 H3659 H 0.25459 0.32590 0.69359
 H3660 H 0.23122 0.27457 0.66670
 C3661 C 0.75030 0.17298 0.59288
 C3662 C 0.75223 0.18214 0.61066
 C3663 C 0.75509 0.20262 0.61098
 C3664 C 0.75622 0.21353 0.59334
 C3665 C 0.75423 0.20425 0.57562
 C3666 C 0.75103 0.18393 0.57526
 C3667 C 0.75655 0.21180 0.62891
 C3668 C 0.75498 0.20072 0.64646
 C3669 C 0.75231 0.18019 0.64594
 C3670 C 0.75109 0.17106 0.62809
 C3671 C 0.75059 0.16906 0.66330
 C3672 C 0.75104 0.17814 0.68109
 C3673 C 0.75335 0.19856 0.68195
 C3674 C 0.75567 0.20978 0.66452
 H3675 H 0.74825 0.15724 0.59275
 H3676 H 0.75844 0.22924 0.59326
 H3677 H 0.75479 0.21300 0.56221
 H3678 H 0.75862 0.22753 0.62921
 H3679 H 0.74892 0.15533 0.62779
 H3680 H 0.74864 0.15332 0.66313
 H3681 H 0.74951 0.16908 0.69426
 H3682 H 0.75747 0.22552 0.66501
 C3683 C 0.25575 0.67321 0.10237
 C3684 C 0.25699 0.68365 0.11952
 C3685 C 0.26516 0.70275 0.11894
 C3686 C 0.27220 0.71094 0.10116
 C3687 C 0.27072 0.70049 0.08407
 C3688 C 0.26225 0.68164 0.08445
 C3689 C 0.26590 0.71339 0.13606
 C3690 C 0.25838 0.70520 0.15369
 C3691 C 0.25036 0.68602 0.15419
 C3692 C 0.24983 0.67535 0.13717
 C3693 C 0.24279 0.67785 0.17170
 C3694 C 0.24293 0.68860 0.18858
 C3695 C 0.25069 0.70776 0.18836
 C3696 C 0.25854 0.71593 0.17079
 H3697 H 0.24957 0.65853 0.10297
 H3698 H 0.27852 0.72556 0.10041
 H3699 H 0.27572 0.70739 0.07045
 H3700 H 0.27207 0.72808 0.13561
 H3701 H 0.24357 0.66068 0.13759
 H3702 H 0.23664 0.66316 0.17233
 H3703 H 0.23689 0.68182 0.20185
 H3704 H 0.26462 0.73065 0.17035
 C3705 C 0.17196 0.59942 0.74173
 C3706 C 0.18270 0.61671 0.74445
 C3707 C 0.19996 0.61622 0.75571
 C3708 C 0.20624 0.59835 0.76391
 C3709 C 0.19527 0.58121 0.76139
 C3710 C 0.17789 0.58158 0.75047
 C3711 C 0.21045 0.63363 0.75882
 C3712 C 0.20373 0.65155 0.75099
 C3713 C 0.18648 0.65194 0.73969
 C3714 C 0.17618 0.63454 0.73637
 C3715 C 0.17966 0.66979 0.73201
 C3716 C 0.18972 0.68716 0.73555
 C3717 C 0.20690 0.68709 0.74680
 C3718 C 0.21386 0.66911 0.75442
 H3719 H 0.15883 0.59991 0.73294
 H3720 H 0.21942 0.59767 0.77261
 H3721 H 0.20011 0.56777 0.76849
 H3722 H 0.22365 0.63327 0.76752
 H3723 H 0.16291 0.63491 0.72775
 H3724 H 0.16646 0.67034 0.72332
 H3725 H 0.18399 0.70070 0.72942
 H3726 H 0.22705 0.66876 0.76313
 C3727 C 0.66464 0.08988 0.24748
 C3728 C 0.67541 0.10743 0.24536
 C3729 C 0.69611 0.10696 0.24310
 C3730 C 0.70557 0.08891 0.24205
 C3731 C 0.69468 0.07146 0.24355
 C3732 C 0.67409 0.07161 0.24677
 C3733 C 0.70699 0.12453 0.24194
 C3734 C 0.69733 0.14256 0.24251
 C3735 C 0.67652 0.14299 0.24378
 C3736 C 0.66571 0.12544 0.24541
 C3737 C 0.66684 0.16100 0.24353
 C3738 C 0.67769 0.17846 0.24250
 C3739 C 0.69838 0.17821 0.24213
 C3740 C 0.70813 0.16018 0.24195
 H3741 H 0.64875 0.09058 0.24895
 H3742 H 0.72143 0.08828 0.24019
 H3743 H 0.70267 0.05785 0.24321
 H3744 H 0.72293 0.12418 0.24061
 H3745 H 0.64977 0.12580 0.24677
 H3746 H 0.65090 0.16159 0.24430
 H3747 H 0.66988 0.19217 0.24259
 H3748 H 0.72410 0.15988 0.24140
 C3749 C 0.83021 0.07276 0.74109
 C3750 C 0.82392 0.09217 0.74229
 C3751 C 0.83673 0.10651 0.74963
 C3752 C 0.85575 0.10126 0.75528
 C3753 C 0.86192 0.08194 0.75401
 C3754 C 0.84917 0.06743 0.74715
 C3755 C 0.83026 0.12579 0.75143
 C3756 C 0.81109 0.13091 0.74605
 C3757 C 0.79841 0.11664 0.73837
 C3758 C 0.80491 0.09739 0.73651
 C3759 C 0.77932 0.12178 0.73292
 C3760 C 0.77263 0.14075 0.73545
 C3761 C 0.78490 0.15502 0.74351
 C3762 C 0.80427 0.15001 0.74853
 H3763 H 0.82018 0.06172 0.73591
 H3764 H 0.86583 0.11208 0.76078
 H3765 H 0.87676 0.07837 0.75836
 H3766 H 0.84004 0.13672 0.75724
 H3767 H 0.79509 0.08644 0.73080
 H3768 H 0.76945 0.11107 0.72692
 H3769 H 0.75768 0.14414 0.73131
 H3770 H 0.81394 0.16082 0.75467
 C3771 C 0.32587 0.58931 0.24741
 C3772 C 0.31923 0.60861 0.24901
 C3773 C 0.33298 0.62394 0.25164
 C3774 C 0.35312 0.61976 0.25241
 C3775 C 0.35958 0.60055 0.25092
 C3776 C 0.34607 0.58510 0.24859
 C3777 C 0.32640 0.64318 0.25361
 C3778 C 0.30620 0.64731 0.25303
 C3779 C 0.29247 0.63200 0.25023
 C3780 C 0.29906 0.61277 0.24825
 C3781 C 0.27233 0.63617 0.24950
 C3782 C 0.26581 0.65529 0.25149
 C3783 C 0.27926 0.67068 0.25440
 C3784 C 0.29951 0.66653 0.25517
 H3785 H 0.31530 0.57751 0.24575
 H3786 H 0.36388 0.63133 0.25430
 H3787 H 0.37525 0.59777 0.25154
 H3788 H 0.33697 0.65490 0.25568
 H3789 H 0.28848 0.60105 0.24619
 H3790 H 0.26160 0.62463 0.24734
 H3791 H 0.25013 0.65799 0.25083
 H3792 H 0.31009 0.67824 0.25723
 C3793 C 0.33315 0.41098 0.24700
 C3794 C 0.32224 0.39362 0.25033
 C3795 C 0.30422 0.39392 0.26085
 C3796 C 0.29759 0.41168 0.26808
 C3797 C 0.30877 0.42889 0.26504
 C3798 C 0.32672 0.42878 0.25449
 C3799 C 0.29322 0.37649 0.26396
 C3800 C 0.30019 0.35873 0.25684
 C3801 C 0.31845 0.35856 0.24665
 C3802 C 0.32924 0.37595 0.24336
 C3803 C 0.32568 0.34100 0.23975
 C3804 C 0.31484 0.32373 0.24251
 C3805 C 0.29637 0.32353 0.25217
 C3806 C 0.28922 0.34116 0.25955
 H3807 H 0.34665 0.41055 0.23844
 H3808 H 0.28387 0.41224 0.27628
 H3809 H 0.30349 0.44220 0.27130
 H3810 H 0.27930 0.37674 0.27189
 H3811 H 0.34316 0.37571 0.23541
 H3812 H 0.33971 0.34062 0.23204
 H3813 H 0.32092 0.31049 0.23677
 H3814 H 0.27508 0.34130 0.26705
 C3815 C 0.83282 0.89490 0.73863
 C3816 C 0.82195 0.87756 0.74201
 C3817 C 0.80491 0.87751 0.75405
 C3818 C 0.79908 0.89496 0.76252
 C3819 C 0.81024 0.91215 0.75938
 C3820 C 0.82734 0.91229 0.74753
 C3821 C 0.79416 0.86000 0.75756
 C3822 C 0.80045 0.84252 0.74934
 C3823 C 0.81763 0.84272 0.73742
 C3824 C 0.82813 0.86020 0.73372
 C3825 C 0.82417 0.82541 0.72939
 C3826 C 0.81380 0.80798 0.73296
 C3827 C 0.79653 0.80739 0.74458
 C3828 C 0.78995 0.82481 0.75282
 H3829 H 0.84568 0.89478 0.72911
 H3830 H 0.78609 0.89525 0.77185
 H3831 H 0.80573 0.92520 0.76665
 H3832 H 0.78106 0.85996 0.76678
 H3833 H 0.84128 0.86024 0.72455
 H3834 H 0.83734 0.82533 0.72029
 H3835 H 0.81937 0.79492 0.72639
 H3836 H 0.77672 0.82464 0.76184
 C3837 C 0.67970 0.91194 0.25268
 C3838 C 0.68664 0.89266 0.25267
 C3839 C 0.67846 0.87848 0.26596
 C3840 C 0.66374 0.88382 0.27919
 C3841 C 0.65678 0.90293 0.27895
 C3842 C 0.66449 0.91709 0.26559
 C3843 C 0.68487 0.85910 0.26566
 C3844 C 0.69930 0.85364 0.25217
 C3845 C 0.70769 0.86778 0.23900
 C3846 C 0.70132 0.88724 0.23934
 C3847 C 0.72226 0.86216 0.22568
 C3848 C 0.72845 0.84272 0.22542
 C3849 C 0.72005 0.82853 0.23837
 C3850 C 0.70544 0.83418 0.25170
 H3851 H 0.68558 0.92273 0.24220
 H3852 H 0.65739 0.87315 0.28952
 H3853 H 0.64520 0.90665 0.28914
 H3854 H 0.67849 0.84823 0.27579
 H3855 H 0.70764 0.89809 0.22915
 H3856 H 0.72889 0.87280 0.21549
 H3857 H 0.73974 0.83877 0.21502
 H3858 H 0.69896 0.82348 0.26193
 C3859 C 0.17586 0.42137 0.75303
 C3860 C 0.18204 0.40182 0.75391
 C3861 C 0.16822 0.38671 0.75864
 C3862 C 0.14848 0.39138 0.76229
 C3863 C 0.14240 0.41079 0.76099
 C3864 C 0.15598 0.42590 0.75633
 C3865 C 0.17427 0.36717 0.75943
 C3866 C 0.19391 0.36248 0.75525
 C3867 C 0.20768 0.37754 0.75030
 C3868 C 0.20170 0.39712 0.74980
 C3869 C 0.22722 0.37273 0.74584
 C3870 C 0.23310 0.35321 0.74635
 C3871 C 0.21959 0.33810 0.75148
 C3872 C 0.19996 0.34291 0.75589
 H3873 H 0.18634 0.43299 0.74924
 H3874 H 0.13770 0.38000 0.76591
 H3875 H 0.12702 0.41407 0.76365
 H3876 H 0.16367 0.35562 0.76312
 H3877 H 0.21229 0.40867 0.74604
 H3878 H 0.23797 0.38407 0.74195
 H3879 H 0.24832 0.34998 0.74293
 H3880 H 0.18933 0.33145 0.75975
 C3881 C 0.08376 0.75933 0.83184
 C3882 C 0.10287 0.76122 0.82382
 C3883 C 0.11596 0.77546 0.83089
 C3884 C 0.10955 0.78794 0.84537
 C3885 C 0.09049 0.78610 0.85312
 C3886 C 0.07748 0.77158 0.84672
 C3887 C 0.13529 0.77691 0.82350
 C3888 C 0.14166 0.76445 0.80896
 C3889 C 0.12843 0.75060 0.80144
 C3890 C 0.10915 0.74898 0.80901
 C3891 C 0.13476 0.73858 0.78649
 C3892 C 0.15406 0.74014 0.77918
 C3893 C 0.16743 0.75351 0.78693
 C3894 C 0.16111 0.76565 0.80182
 H3895 H 0.07401 0.74796 0.82684
 H3896 H 0.11932 0.79909 0.85077
 H3897 H 0.08595 0.79608 0.86418
 H3898 H 0.14538 0.78768 0.82912
 H3899 H 0.09907 0.73818 0.80343
 H3900 H 0.12479 0.72795 0.78047
 H3901 H 0.15865 0.73063 0.76770
 H3902 H 0.17127 0.77619 0.80769
 C3903 C 0.58033 0.24884 0.32429
 C3904 C 0.59794 0.25222 0.31364
 C3905 C 0.60730 0.27074 0.31390
 C3906 C 0.59833 0.28587 0.32386
 C3907 C 0.58050 0.28260 0.33388
 C3908 C 0.57145 0.26393 0.33474
 C3909 C 0.62554 0.27381 0.30434
 C3910 C 0.63430 0.25871 0.29407
 C3911 C 0.62437 0.24052 0.29284
 C3912 C 0.60640 0.23730 0.30285
 C3913 C 0.63273 0.22575 0.28181
 C3914 C 0.65102 0.22877 0.27255
 C3915 C 0.66144 0.24640 0.27452
 C3916 C 0.65294 0.26141 0.28516
 H3917 H 0.57393 0.23428 0.32475
 H3918 H 0.60509 0.30029 0.32388
 H3919 H 0.57387 0.29484 0.34097
 H3920 H 0.63294 0.28790 0.30497
 H3921 H 0.59905 0.22318 0.30230
 H3922 H 0.62526 0.21179 0.28056
 H3923 H 0.65744 0.21700 0.26453
 H3924 H 0.66092 0.27509 0.28659
 C3925 C 0.58382 0.75753 0.17179
 C3926 C 0.60370 0.75892 0.17711
 C3927 C 0.61863 0.75279 0.16415
 C3928 C 0.61352 0.74590 0.14595
 C3929 C 0.59379 0.74446 0.14083
 C3930 C 0.57873 0.74986 0.15380
 C3931 C 0.63839 0.75317 0.16973
 C3932 C 0.64347 0.75935 0.18823
 C3933 C 0.62867 0.76598 0.20104
 C3934 C 0.60888 0.76584 0.19536
 C3935 C 0.63389 0.77216 0.21951
 C3936 C 0.65344 0.77108 0.22552
 C3937 C 0.66817 0.76382 0.21316
 C3938 C 0.66308 0.75841 0.19432
 H3939 H 0.57233 0.76173 0.18189
 H3940 H 0.62478 0.74134 0.13577
 H3941 H 0.59027 0.73898 0.12668
 H3942 H 0.64976 0.74818 0.15987
 H3943 H 0.59750 0.77064 0.20530
 H3944 H 0.62278 0.77740 0.22949
 H3945 H 0.65689 0.77542 0.24010
 H3946 H 0.67427 0.75295 0.18455
 C3947 C 0.08805 0.26307 0.67627
 C3948 C 0.10747 0.26468 0.68291
 C3949 C 0.12320 0.25771 0.67150
 C3950 C 0.11937 0.24960 0.65354
 C3951 C 0.10011 0.24811 0.64697
 C3952 C 0.08400 0.25466 0.65821
 C3953 C 0.14252 0.25864 0.67831
 C3954 C 0.14634 0.26633 0.69651
 C3955 C 0.13073 0.27376 0.70780
 C3956 C 0.11138 0.27299 0.70089
 C3957 C 0.13471 0.28141 0.72602
 C3958 C 0.15384 0.28099 0.73331
 C3959 C 0.16935 0.27299 0.72246
 C3960 C 0.16550 0.26614 0.70382
 H3961 H 0.07629 0.26896 0.68503
 H3962 H 0.13128 0.24408 0.64467
 H3963 H 0.09798 0.24086 0.63341
 H3964 H 0.15454 0.25301 0.66961
 H3965 H 0.09935 0.27847 0.70965
 H3966 H 0.12295 0.28727 0.73485
 H3967 H 0.15635 0.28643 0.74769
 H3968 H 0.17728 0.26003 0.69519
 C3969 C 0.91235 0.23189 0.67537
 C3970 C 0.89535 0.22887 0.68692
 C3971 C 0.89699 0.22545 0.70722
 C3972 C 0.91577 0.22471 0.71551
 C3973 C 0.93270 0.22768 0.70385
 C3974 C 0.93112 0.23154 0.68373
 C3975 C 0.87986 0.22310 0.71885
 C3976 C 0.86114 0.22430 0.71041
 C3977 C 0.85966 0.22736 0.69003
 C3978 C 0.87673 0.22949 0.67844
 C3979 C 0.84110 0.22870 0.68153
 C3980 C 0.82410 0.22774 0.69312
 C3981 C 0.82525 0.22524 0.71345
 C3982 C 0.84387 0.22304 0.72201
 H3983 H 0.91101 0.23448 0.65981
 H3984 H 0.91737 0.22205 0.73102
 H3985 H 0.94702 0.22735 0.71060
 H3986 H 0.88110 0.22070 0.73446
 H3987 H 0.87550 0.23204 0.66285
 H3988 H 0.83972 0.23092 0.66593
 H3989 H 0.80997 0.22923 0.68612
 H3990 H 0.84494 0.22116 0.73767
 C3991 C 0.40867 0.74045 0.17487
 C3992 C 0.38972 0.74295 0.18271
 C3993 C 0.37962 0.76063 0.17896
 C3994 C 0.38885 0.77561 0.16766
 C3995 C 0.40777 0.77300 0.15989
 C3996 C 0.41775 0.75532 0.16323
 C3997 C 0.36050 0.76299 0.18655
 C3998 C 0.35149 0.74800 0.19806
 C3999 C 0.36177 0.73044 0.20200
 C4000 C 0.38073 0.72798 0.19418
 C4001 C 0.35302 0.71569 0.21393
 C4002 C 0.33444 0.71845 0.22226
 C4003 C 0.32409 0.73580 0.21847
 C4004 C 0.33254 0.75042 0.20608
 H4005 H 0.41635 0.72687 0.17777
 H4006 H 0.38137 0.78928 0.16466
 H4007 H 0.41438 0.78459 0.15081
 H4008 H 0.35272 0.77653 0.18364
 H4009 H 0.38854 0.71447 0.19715
 H4010 H 0.36070 0.70217 0.21711
 H4011 H 0.32814 0.70701 0.23177
 H4012 H 0.32472 0.76396 0.20334
 C4013 C 0.41242 0.25022 0.32904
 C4014 C 0.39376 0.24796 0.32073
 C4015 C 0.37998 0.23455 0.32938
 C4016 C 0.38519 0.22339 0.34591
 C4017 C 0.40377 0.22564 0.35402
 C4018 C 0.41753 0.23919 0.34586
 C4019 C 0.36117 0.23258 0.32147
 C4020 C 0.35592 0.24380 0.30496
 C4021 C 0.36976 0.25695 0.29605
 C4022 C 0.38859 0.25899 0.30401
 C4023 C 0.36445 0.26795 0.27939
 C4024 C 0.34554 0.26614 0.27179
 C4025 C 0.33153 0.25337 0.28076
 C4026 C 0.33694 0.24215 0.29732
 H4027 H 0.42276 0.26085 0.32267
 H4028 H 0.37487 0.21293 0.35262
 H4029 H 0.40741 0.21663 0.36667
 H4030 H 0.35058 0.22241 0.32824
 H4031 H 0.39915 0.26921 0.29728
 H4032 H 0.37488 0.27807 0.27233
 H4033 H 0.34177 0.27502 0.25908
 H4034 H 0.32636 0.23214 0.30433
 C4035 C 0.91627 0.75171 0.82434
 C4036 C 0.89831 0.74644 0.81598
 C4037 C 0.88891 0.72859 0.82184
 C4038 C 0.89804 0.71599 0.83536
 C4039 C 0.91611 0.72118 0.84330
 C4040 C 0.92518 0.73916 0.83809
 C4041 C 0.87050 0.72371 0.81423
 C4042 C 0.86152 0.73626 0.80053
 C4043 C 0.87132 0.75369 0.79407
 C4044 C 0.88954 0.75876 0.80197
 C4045 C 0.86264 0.76585 0.77987
 C4046 C 0.84430 0.76097 0.77236
 C4047 C 0.83414 0.74405 0.77918
 C4048 C 0.84286 0.73170 0.79324
 H4049 H 0.92334 0.76555 0.82023
 H4050 H 0.89113 0.70221 0.83992
 H4051 H 0.92277 0.71139 0.85397
 H4052 H 0.86315 0.71021 0.81899
 H4053 H 0.89686 0.77231 0.79725
 H4054 H 0.86998 0.77920 0.77466
 H4055 H 0.83777 0.77076 0.76161
 H4056 H 0.83515 0.71853 0.79843
   
