data_POSCAR
  _audit_creation_date              2014-09-24
  _audit_creation_method            'ToBaCCo'
  _symmetry_space_group_name_H-M    'P1'
  _symmetry_Int_Tables_number       1
  _symmetry_cell_setting            triclinic
  loop_
  _symmetry_equiv_pos_as_xyz
 x,y,z
_cell_length_a 58.7834
_cell_length_b 59.2910
_cell_length_c 57.1929
_cell_angle_alpha 90.160000
_cell_angle_beta 90.021000
_cell_angle_gamma 90.034500
loop_
  _atom_site_label
  _atom_site_type_symbol
  _atom_site_fract_x
  _atom_site_fract_y
  _atom_site_fract_z
C1 C 0.34177 1.34467 0.32378
 C2 C 0.32264 1.35292 0.33614
 C3 C 0.31165 1.33969 0.35327
 C4 C 0.31974 1.31785 0.35744
 C5 C 0.33898 1.30955 0.34602
 C6 C 0.35004 1.32290 0.32927
 H7 H 0.31620 1.36950 0.33191
 H8 H 0.31142 1.30728 0.37034
 H9 H 0.36434 1.31564 0.32014
 C10 C 0.35172 0.85036 0.82379
 C11 C 0.33263 0.85845 0.83594
 C12 C 0.32337 0.84624 0.85486
 C13 C 0.33371 0.82581 0.86136
 C14 C 0.35328 0.81796 0.84989
 C15 C 0.36209 0.83025 0.83113
 H16 H 0.32487 0.87388 0.82990
 H17 H 0.32631 0.81592 0.87531
 H18 H 0.37743 0.82426 0.82271
 C19 C 0.85222 1.34704 0.82884
 C20 C 0.85950 1.32672 0.83910
 C21 C 0.84762 1.31731 0.85806
 C22 C 0.82833 1.32836 0.86664
 C23 C 0.82075 1.34879 0.85703
 C24 C 0.83301 1.35817 0.83817
 H25 H 0.87412 1.31803 0.83191
 H26 H 0.81916 1.32093 0.88118
 H27 H 0.82816 1.37433 0.83124
 C28 C 0.83957 0.84456 0.31705
 C29 C 0.85108 0.82434 0.32225
 C30 C 0.84523 0.81144 0.34179
 C31 C 0.82743 0.81861 0.35640
 C32 C 0.81586 0.83882 0.35179
 C33 C 0.82198 0.85158 0.33203
 H34 H 0.86523 0.81857 0.31182
 H35 H 0.82241 0.80847 0.37125
 H36 H 0.81263 0.86676 0.32781
 C37 C 0.64925 0.65764 0.32298
 C38 C 0.67088 0.64924 0.32916
 C39 C 0.68309 0.65891 0.34782
 C40 C 0.67359 0.67689 0.36027
 C41 C 0.65210 0.68533 0.35463
 C42 C 0.63991 0.67555 0.33603
 H43 H 0.67830 0.63531 0.31967
 H44 H 0.68302 0.68438 0.37464
 H45 H 0.62307 0.68161 0.33173
 C46 C 0.66215 0.15450 0.82344
 C47 C 0.67936 0.14554 0.83791
 C48 C 0.68816 0.15795 0.85685
 C49 C 0.67940 0.17936 0.86159
 C50 C 0.66210 0.18860 0.84787
 C51 C 0.65354 0.17626 0.82872
 H52 H 0.68569 0.12870 0.83453
 H53 H 0.68616 0.18898 0.87620
 H54 H 0.64069 0.18406 0.81800
 C55 C 1.13935 0.63969 0.83111
 C56 C 1.13447 0.66170 0.83886
 C57 C 1.14723 0.67139 0.85718
 C58 C 1.16527 0.65917 0.86705
 C59 C 1.17025 0.63721 0.85934
 C60 C 1.15684 0.62751 0.84181
 H61 H 1.12088 0.67114 0.83074
 H62 H 1.17489 0.66671 0.88118
 H63 H 1.16062 0.61056 0.83577
 C64 C 1.14814 0.15591 0.32868
 C65 C 1.16874 0.14649 0.33710
 C66 C 1.18019 0.15630 0.35633
 C67 C 1.17087 0.17549 0.36692
 C68 C 1.15052 0.18495 0.35916
 C69 C 1.13930 0.17523 0.33993
 H70 H 1.17630 0.13227 0.32831
 H71 H 1.17949 0.18316 0.38174
 H72 H 1.12339 0.18231 0.33392
 C73 C 0.64095 1.36063 0.66625
 C74 C 0.63046 1.34036 0.65981
 C75 C 0.63943 1.32629 0.64245
 C76 C 0.65922 1.33250 0.63037
 C77 C 0.67197 1.35415 0.63571
 C78 C 0.66061 1.36778 0.65498
 H79 H 0.61479 1.33539 0.66830
 H80 H 0.66573 1.32201 0.61639
 H81 H 0.66811 1.38363 0.66030
 C82 C 0.65888 0.83459 1.19022
 C83 C 0.67440 0.84626 1.17595
 C84 C 0.68174 0.83669 1.15460
 C85 C 0.67231 0.81602 1.14725
 C86 C 0.65675 0.80441 1.16147
 C87 C 0.65078 0.81348 1.18316
 H88 H 0.68064 0.86256 1.18158
 H89 H 0.67760 0.80868 1.13076
 H90 H 0.63880 0.80454 1.19419
 C91 C 1.16249 1.33908 1.18987
 C92 C 1.15182 1.32271 1.17561
 C93 C 1.16172 1.31620 1.15413
 C94 C 1.18167 1.32701 1.14652
 C95 C 1.19260 1.34324 1.16063
 C96 C 1.18317 1.34842 1.18246
 H97 H 1.13604 1.31503 1.18107
 H98 H 1.18874 1.32207 1.12985
 H99 H 1.19155 1.36088 1.19345
 C100 C 1.15218 0.85413 0.67535
 C101 C 1.14021 0.83488 0.66788
 C102 C 1.14706 0.82288 0.64792
 C103 C 1.16668 0.82988 0.63580
 C104 C 1.17924 0.84865 0.64344
 C105 C 1.17164 0.86084 0.66306
 H106 H 1.12563 0.82894 0.67763
 H107 H 1.17279 0.82042 0.62088
 H108 H 1.18047 0.87593 0.66867
 C109 C 0.33475 0.66873 0.68571
 C110 C 0.34364 0.68964 0.67934
 C111 C 0.33867 0.69910 0.65762
 C112 C 0.32329 0.68806 0.64261
 C113 C 0.31294 0.66747 0.64917
 C114 C 0.31953 0.65756 0.67068
 H115 H 0.35533 0.69821 0.69107
 H116 H 0.31883 0.69590 0.62613
 H117 H 0.31280 0.64156 0.67637
 C118 C 0.34208 0.16387 1.18606
 C119 C 0.32637 0.15240 1.17177
 C120 C 0.31996 0.16146 1.14992
 C121 C 0.33037 0.18149 1.14220
 C122 C 0.34612 0.19291 1.15643
 C123 C 0.35130 0.18431 1.17849
 H124 H 0.31927 0.13665 1.17779
 H125 H 0.32569 0.18847 1.12539
 H126 H 0.36342 0.19315 1.18951
 C127 C 0.84455 0.64481 1.16671
 C128 C 0.85798 0.66150 1.15562
 C129 C 0.85006 0.67230 1.13532
 C130 C 0.82896 0.66634 1.12595
 C131 C 0.81528 0.65018 1.13668
 C132 C 0.82301 0.63967 1.15718
 H133 H 0.87455 0.66611 1.16219
 H134 H 0.82301 0.67462 1.11020
 H135 H 0.81226 0.62748 1.16588
 C136 C 0.85893 0.15324 0.67925
 C137 C 0.83740 0.14455 0.67307
 C138 C 0.82567 0.15212 0.65305
 C139 C 0.83542 0.16970 0.63964
 C140 C 0.85678 0.17866 0.64582
 C141 C 0.86844 0.17010 0.66516
 H142 H 0.82960 0.13145 0.68338
 H143 H 0.82694 0.17638 0.62440
 H144 H 0.88500 0.17706 0.66949
 C145 C 1.33749 0.33824 0.68298
 C146 C 1.32088 0.34867 0.66912
 C147 C 1.31519 0.33976 0.64699
 C148 C 1.32741 0.32102 0.63838
 C149 C 1.34426 0.31050 0.65220
 C150 C 1.34845 0.31894 0.67470
 H151 H 1.31248 0.36362 0.67567
 H152 H 1.32314 0.31446 0.62127
 H153 H 1.36123 0.31102 0.68565
 C154 C 1.34221 0.83591 1.19089
 C155 C 1.32847 0.84922 1.17653
 C156 C 1.32181 0.84159 1.15436
 C157 C 1.32992 0.82062 1.14601
 C158 C 1.34397 0.80709 1.16043
 C159 C 1.34902 0.81465 1.18314
 H160 H 1.32246 0.86543 1.18277
 H161 H 1.32529 0.81518 1.12859
 H162 H 1.35980 0.80460 1.19446
 C163 C 0.83952 0.34231 1.17836
 C164 C 0.85089 0.32496 1.16624
 C165 C 0.84204 0.31634 1.14493
 C166 C 0.82207 0.32623 1.13569
 C167 C 0.81056 0.34337 1.14793
 C168 C 0.81924 0.35089 1.16929
 H169 H 0.86637 0.31836 1.17365
 H170 H 0.81497 0.31994 1.11945
 H171 H 0.81030 0.36404 1.17879
 C172 C 0.85846 0.86616 0.66675
 C173 C 0.86664 0.84449 0.66122
 C174 C 0.85838 0.83269 0.64157
 C175 C 0.84105 0.84260 0.62792
 C176 C 0.83320 0.86440 0.63321
 C177 C 0.84231 0.87618 0.65219
 H178 H 0.87984 0.83694 0.67181
 H179 H 0.83353 0.83363 0.61335
 H180 H 0.83598 0.89292 0.65625
 C181 C 0.64453 0.65949 0.67539
 C182 C 0.63971 0.67906 0.66267
 C183 C 0.65325 0.68539 0.64356
 C184 C 0.67155 0.67167 0.63696
 C185 C 0.67673 0.65193 0.64951
 C186 C 0.66332 0.64615 0.66893
 H187 H 0.62496 0.68897 0.66745
 H188 H 0.68214 0.67696 0.62251
 H189 H 0.66776 0.63138 0.67902
 C190 C 0.65358 1.14633 1.17232
 C191 C 0.67384 1.14055 1.16099
 C192 C 0.68255 1.15301 1.14224
 C193 C 0.67118 1.17221 1.13443
 C194 C 0.64875 1.18008 1.14508
 C195 C 0.64098 1.16506 1.16488
 H196 H 0.68332 1.12627 1.16756
 H197 H 0.67841 1.18173 1.12013
 H198 H 0.62490 1.16909 1.17307
 C199 C 0.15347 0.65261 1.18078
 C200 C 0.14672 0.67432 1.17407
 C201 C 0.15504 0.68442 1.15370
 C202 C 0.17209 0.67323 1.14086
 C203 C 0.18037 0.65214 1.14813
 C204 C 0.17047 0.64156 1.16769
 H205 H 0.13367 0.68297 1.18411
 H206 H 0.17964 0.68103 1.12565
 H207 H 0.17595 0.62483 1.17240
 C208 C 0.14665 1.15663 0.67566
 C209 C 0.13765 1.17574 0.66447
 C210 C 0.15028 1.18759 0.64755
 C211 C 0.17220 1.17990 0.64204
 C212 C 0.18125 1.16046 0.65232
 C213 C 0.16844 1.14877 0.66920
 H214 H 0.12103 1.18153 0.66980
 H215 H 0.18228 1.18890 0.62919
 H216 H 0.17552 1.13388 0.67728
 C217 C 1.34810 0.64874 0.32429
 C218 C 1.32854 0.64275 0.33672
 C219 C 1.32158 0.65512 0.35639
 C220 C 1.33387 0.67445 0.36295
 C221 C 1.35340 0.68127 0.35032
 C222 C 1.36041 0.66800 0.33113
 H223 H 1.31868 0.62840 0.33079
 H224 H 1.32807 0.68362 0.37813
 H225 H 1.37512 0.67315 0.32107
 C226 C 1.34495 1.15025 0.82784
 C227 C 1.32377 1.14316 0.83637
 C228 C 1.31255 1.15543 0.85385
 C229 C 1.32253 1.17506 0.86263
 C230 C 1.34404 1.18226 0.85503
 C231 C 1.35526 1.16968 0.83744
 H232 H 1.31582 1.12831 0.82890
 H233 H 1.31363 1.18444 0.87614
 H234 H 1.37194 1.17453 0.83144
 C235 C 0.84803 0.64425 0.82672
 C236 C 0.85914 0.66414 0.83365
 C237 C 0.85272 0.67556 0.85413
 C238 C 0.83468 0.66699 0.86770
 C239 C 0.82302 0.64756 0.86038
 C240 C 0.82976 0.63631 0.83999
 H241 H 0.87255 0.67113 0.82292
 H242 H 0.82894 0.67583 0.88319
 H243 H 0.82070 0.62126 0.83448
 C244 C 0.86194 1.14392 0.33196
 C245 C 0.84047 1.13684 0.34003
 C246 C 0.82792 1.15068 0.35552
 C247 C 0.83691 1.17174 0.36214
 C248 C 0.85827 1.17881 0.35401
 C249 C 0.87062 1.16475 0.33913
 H250 H 0.83380 1.12077 0.33427
 H251 H 0.82708 1.18274 0.37340
 H252 H 0.88710 1.17023 0.33277
 C253 C 0.65363 0.34008 0.31891
 C254 C 0.67496 0.34899 0.32573
 C255 C 0.68792 0.33824 0.34304
 C256 C 0.67973 0.31867 0.35361
 C257 C 0.65817 0.31008 0.34815
 C258 C 0.64531 0.32084 0.33060
 H259 H 0.68202 0.36382 0.31758
 H260 H 0.69002 0.31055 0.36691
 H261 H 0.62908 0.31396 0.32527
 C262 C 0.65528 0.85044 0.82501
 C263 C 0.67515 0.85670 0.83708
 C264 C 0.68541 0.84203 0.85317
 C265 C 0.67588 0.82072 0.85676
 C266 C 0.65564 0.81439 0.84563
 C267 C 0.64519 0.82931 0.82981
 H268 H 0.68297 0.87281 0.83325
 H269 H 0.68389 0.80915 0.86890
 H270 H 0.62958 0.82427 0.82126
 C271 C 0.13961 0.35196 0.82451
 C272 C 0.13354 0.33217 0.83642
 C273 C 0.14694 0.32321 0.85693
 C274 C 0.16705 0.33740 0.86296
 C275 C 0.17284 0.35675 0.85033
 C276 C 0.15920 0.36387 0.83169
 H277 H 0.11859 0.32283 0.83098
 H278 H 0.17703 0.33236 0.87795
 H279 H 0.16457 0.37894 0.82276
 C280 C 0.16551 0.84182 0.32075
 C281 C 0.15645 0.82024 0.32592
 C282 C 0.16677 0.80660 0.34304
 C283 C 0.18583 0.81455 0.35510
 C284 C 0.19432 0.83615 0.35108
 C285 C 0.18433 0.84956 0.33373
 H286 H 0.14191 0.81362 0.31666
 H287 H 0.19374 0.80405 0.36831
 H288 H 0.19160 0.86592 0.32987
 O289 O 0.97488 0.91425 0.89064
 O290 O 0.97376 0.88851 0.86274
 C291 C 0.96670 0.90690 0.87155
 C292 C 0.94863 0.91964 0.85952
 C293 C 0.94161 0.91318 0.83711
 H294 H 0.94991 0.89913 0.82845
 O295 O 1.02380 1.08081 0.88612
 O296 O 1.02343 1.10714 0.85898
 C297 C 1.03120 1.08873 0.86689
 C298 C 1.04930 1.07644 0.85407
 C299 C 1.05798 1.08440 0.83259
 H300 H 1.05081 1.09941 0.82480
 O301 O 0.88734 0.97671 0.92405
 O302 O 0.86021 0.97766 0.89743
 C303 C 0.86839 0.96964 0.91621
 C304 C 0.85605 0.95145 0.92859
 C305 C 0.83431 0.94480 0.92114
 H306 H 0.82612 0.95363 0.90687
 O307 O 1.10975 1.01831 0.91774
 O308 O 1.13566 1.01846 0.88986
 C309 C 1.12811 1.02596 0.90928
 C310 C 1.14071 1.04394 0.92188
 C311 C 1.16229 1.05048 0.91401
 H312 H 1.16991 1.04201 0.89913
 O313 O 0.91593 0.88413 0.98334
 O314 O 0.88919 0.85801 0.98366
 C315 C 0.90771 0.86578 0.97556
 C316 C 0.91967 0.85351 0.95671
 C317 C 0.91276 0.83175 0.95032
 H318 H 0.89895 0.82368 0.95968
 O319 O 1.08489 1.11090 0.98236
 O320 O 1.11192 1.13666 0.98125
 C321 C 1.09302 1.12901 0.97391
 C322 C 1.08051 1.14075 0.95493
 C323 C 1.08695 1.16247 0.94742
 H324 H 1.10082 1.17117 0.95605
 O325 O 0.91942 1.01968 0.89126
 O326 O 0.89230 1.02035 0.86461
 C327 C 0.91125 1.02748 0.87238
 C328 C 0.92348 1.04547 0.85960
 C329 C 0.91598 1.05225 0.83743
 H330 H 0.90179 1.04362 0.82923
 O331 O 1.07823 0.97451 0.88588
 O332 O 1.10396 0.97427 0.85783
 C333 C 1.08567 0.96659 0.86673
 C334 C 1.07315 0.94794 0.85512
 C335 C 1.07941 0.94041 0.83268
 H336 H 1.09294 0.94892 0.82341
 O337 O 1.01985 0.88210 0.92003
 O338 O 1.01849 0.85627 0.89222
 C339 C 1.02716 0.86392 0.91096
 C340 C 1.04647 0.85200 0.92184
 C341 C 1.05277 0.83047 0.91410
 H342 H 1.04275 0.82208 0.90074
 O343 O 0.98059 1.11163 0.92007
 O344 O 0.98017 1.13790 0.89285
 C345 C 0.97297 1.13018 0.91216
 C346 C 0.95531 1.14272 0.92530
 C347 C 0.94845 1.16419 0.91794
 H348 H 0.95665 1.17191 0.90299
 O349 O 0.89255 1.08316 0.98380
 O350 O 0.86594 1.10933 0.98478
 C351 C 0.87381 1.09105 0.97637
 C352 C 0.86132 1.07885 0.95762
 C353 C 0.83986 1.08635 0.94988
 H354 H 0.83211 1.10097 0.95797
 O355 O 1.11573 0.91434 0.97449
 O356 O 1.14221 0.88804 0.97295
 C357 C 1.13399 0.90659 0.96581
 C358 C 1.14531 0.91920 0.94686
 C359 C 1.16694 0.91292 0.93864
 H360 H 1.17579 0.89922 0.94713
 O361 O 0.97950 1.07951 0.88912
 O362 O 0.97893 1.10565 0.86177
 C363 C 0.97128 1.08735 0.87032
 C364 C 0.95242 1.07513 0.85864
 C365 C 0.94432 1.08197 0.83662
 H366 H 0.95242 1.09591 0.82772
 O367 O 1.01898 0.91385 0.88917
 O368 O 1.01779 0.88814 0.86124
 C369 C 1.02590 0.90634 0.86961
 C370 C 1.04381 0.91867 0.85662
 C371 C 1.05008 0.91166 0.83411
 H372 H 1.04136 0.89757 0.82596
 O373 O 1.11241 0.97446 0.91476
 O374 O 1.13809 0.97482 0.88666
 C375 C 1.13081 0.96706 0.90585
 C376 C 1.14364 0.94893 0.91761
 C377 C 1.16521 0.94246 0.90950
 H378 H 1.17281 0.95130 0.89489
 O379 O 0.88922 1.02084 0.92423
 O380 O 0.86202 1.02164 0.89767
 C381 C 0.87082 1.02916 0.91645
 C382 C 0.85980 1.04816 0.92892
 C383 C 0.83826 1.05560 0.92189
 H384 H 0.82935 1.04681 0.90799
 O385 O 0.92342 1.11430 0.98389
 O386 O 0.89710 1.14074 0.98493
 C387 C 0.91528 1.13271 0.97624
 C388 C 0.92689 1.14419 0.95651
 C389 C 0.91988 1.16558 0.94853
 H390 H 0.90629 1.17440 0.95749
 O391 O 1.08503 0.88285 0.97477
 O392 O 1.11132 0.85635 0.97333
 C393 C 1.09248 0.86437 0.96640
 C394 C 1.07897 0.85233 0.94840
 C395 C 1.08528 0.83077 0.94024
 H396 H 1.10005 0.82253 0.94758
 O397 O 1.08020 1.01875 0.88407
 O398 O 1.10597 1.01834 0.85607
 C399 C 1.08793 1.02637 0.86485
 C400 C 1.07650 1.04539 0.85302
 C401 C 1.08460 1.05321 0.83145
 H402 H 1.09846 1.04443 0.82286
 O403 O 0.91730 0.97568 0.89085
 O404 O 0.89023 0.97647 0.86414
 C405 C 0.90862 0.96820 0.87199
 C406 C 0.91996 0.94940 0.85952
 C407 C 0.91278 0.94239 0.83712
 H408 H 0.89909 0.95125 0.82847
 O409 O 1.02478 1.10956 0.92040
 O410 O 1.02436 1.13612 0.89347
 C411 C 1.03232 1.12802 0.91239
 C412 C 1.05067 1.14007 0.92504
 C413 C 1.05696 1.16185 0.91826
 H414 H 1.04794 1.17005 0.90409
 O415 O 0.97530 0.88227 0.92143
 O416 O 0.97401 0.85641 0.89368
 C417 C 0.96695 0.86419 0.91307
 C418 C 0.94847 0.85257 0.92593
 C419 C 0.94103 0.83084 0.91944
 H420 H 0.94937 0.82204 0.90522
 O421 O 1.11389 1.07827 0.98106
 O422 O 1.14127 1.10367 0.97972
 C423 C 1.13220 1.08556 0.97210
 C424 C 1.14274 1.07309 0.95233
 C425 C 1.16421 1.07949 0.94387
 H426 H 1.17342 1.09305 0.95238
 O427 O 0.88604 0.91601 0.98424
 O428 O 0.85899 0.89022 0.98417
 C429 C 0.86733 0.90854 0.97636
 C430 C 0.85556 0.92124 0.95765
 C431 C 0.83393 0.91464 0.94971
 H432 H 0.82536 0.90059 0.95795
 Cu433 Cu 0.99733 0.90060 0.90824
 Cu434 Cu 0.99588 0.86970 0.87470
 Cu435 Cu 1.00221 1.09270 0.90653
 Cu436 Cu 1.00169 1.12432 0.87406
 Cu437 Cu 0.90605 0.99809 0.91026
 Cu438 Cu 0.87343 0.99917 0.87834
 Cu439 Cu 1.09252 0.99642 0.90331
 Cu440 Cu 1.12340 0.99655 0.86981
 C441 C 0.93792 0.93790 0.87050
 H442 H 0.94328 0.94288 0.88789
 C443 C 0.92371 0.92424 0.82583
 C444 C 1.05867 1.05690 0.86401
 H445 H 1.05252 1.05096 0.88075
 C446 C 1.07575 1.07277 0.82120
 C447 C 0.86643 0.93972 0.94702
 H448 H 0.88331 0.94464 0.95269
 C449 C 0.82328 0.92632 0.93135
 C450 C 1.13110 1.05520 0.94123
 H451 H 1.11435 1.05037 0.94732
 C452 C 1.17396 1.06831 0.92465
 C453 C 0.93770 0.86368 0.94463
 H454 H 0.94301 0.88055 0.94947
 C455 C 0.92317 0.82034 0.93172
 C456 C 1.06232 1.12976 0.94361
 H457 H 1.05753 1.11289 0.94891
 C458 C 1.07505 1.17311 0.92915
 C459 C 0.94191 1.05680 0.86993
 H460 H 0.94769 1.05171 0.88711
 C461 C 0.92606 1.07055 0.82597
 C462 C 1.05527 0.93698 0.86690
 H463 H 1.05060 0.94239 0.88436
 C464 C 1.06793 0.92221 0.82213
 C465 C 1.05950 0.86269 0.93913
 H466 H 1.05473 0.87942 0.94500
 C467 C 1.07217 0.81976 0.92301
 C468 C 0.94466 1.13301 0.94476
 H469 H 0.94988 1.11638 0.95042
 C470 C 0.93072 1.17567 0.92922
 C471 C 0.87111 1.05971 0.94699
 H472 H 0.88781 1.05405 0.95244
 C473 C 0.82829 1.07472 0.93198
 C474 C 1.13395 0.93735 0.93639
 H475 H 1.11717 0.94212 0.94246
 C476 C 1.17701 0.92447 0.91980
 O477 O 1.02823 0.91317 1.11485
 O478 O 1.02832 0.88667 1.14182
 C479 C 1.03621 0.90495 1.13363
 C480 C 1.05536 0.91617 1.14581
 C481 C 1.06372 0.90708 1.16667
 H482 H 1.05534 0.89255 1.17426
 O483 O 0.98527 1.07628 1.12177
 O484 O 0.98595 1.10104 1.15059
 C485 C 0.97794 1.08317 1.14142
 C486 C 0.95956 1.07048 1.15332
 C487 C 0.95230 1.07649 1.17599
 H488 H 0.96067 1.09012 1.18524
 O489 O 0.89272 1.01853 1.08731
 O490 O 0.86726 1.01928 1.11562
 C491 C 0.87492 1.02688 1.09637
 C492 C 0.86318 1.04583 1.08464
 C493 C 0.84140 1.05241 1.09189
 H494 H 0.83291 1.04320 1.10572
 O495 O 1.12045 0.97141 1.08356
 O496 O 1.14767 0.97059 1.11005
 C497 C 1.13905 0.96323 1.09112
 C498 C 1.15022 0.94459 1.07793
 C499 C 1.17146 0.93568 1.08489
 H500 H 1.18029 0.94298 1.09969
 O501 O 1.08534 0.88344 1.02000
 O502 O 1.11154 0.85683 1.01868
 C503 C 1.09325 0.86483 1.02720
 C504 C 1.08131 0.85259 1.04597
 C505 C 1.08827 0.83089 1.05222
 H506 H 1.10197 0.82278 1.04270
 O507 O 0.92447 1.11301 1.02981
 O508 O 0.89801 1.13930 1.03122
 C509 C 0.91650 1.13094 1.03885
 C510 C 0.92852 1.14156 1.05898
 C511 C 0.92033 1.16158 1.06927
 H512 H 0.90540 1.16950 1.06196
 O513 O 0.92305 0.97276 1.11716
 O514 O 0.89761 0.97316 1.14548
 C515 C 0.91550 0.96495 1.13627
 C516 C 0.92730 0.94575 1.14756
 C517 C 0.91834 0.93595 1.16793
 H518 H 0.90308 0.94301 1.17545
 O519 O 1.08983 1.01534 1.11684
 O520 O 1.11686 1.01458 1.14356
 C521 C 1.09831 1.02274 1.13581
 C522 C 1.08685 1.04142 1.14867
 C523 C 1.09572 1.04918 1.17004
 H524 H 1.11056 1.04104 1.17744
 O525 O 0.98254 0.88264 1.08389
 O526 O 0.98337 0.85604 1.11078
 C527 C 0.97493 0.86427 1.09225
 C528 C 0.95553 0.85272 1.08091
 C529 C 0.94892 0.83118 1.08829
 H530 H 0.95874 0.82258 1.10161
 O531 O 1.02880 1.10863 1.09023
 O532 O 1.02947 1.13372 1.11874
 C533 C 1.03675 1.12663 1.09913
 C534 C 1.05504 1.13903 1.08680
 C535 C 1.06268 1.15995 1.09509
 H536 H 1.05454 1.16748 1.11023
 O537 O 0.88542 0.91445 1.02962
 O538 O 0.85847 0.88859 1.02999
 C539 C 0.86689 0.90680 1.03786
 C540 C 0.85558 0.91914 1.05715
 C541 C 0.83460 0.91200 1.06646
 H542 H 0.82602 0.89774 1.05861
 O543 O 1.11705 1.07896 1.02656
 O544 O 1.14431 1.10448 1.02555
 C545 C 1.13616 1.08629 1.03376
 C546 C 1.14865 1.07371 1.05223
 C547 C 1.16967 1.08161 1.06082
 H548 H 1.17720 1.09647 1.05313
 O549 O 1.02988 1.07613 1.12045
 O550 O 1.03063 1.10107 1.14909
 C551 C 1.03831 1.08320 1.13960
 C552 C 1.05764 1.07089 1.15059
 C553 C 1.06680 1.07826 1.17206
 H554 H 1.05884 1.09224 1.18102
 O555 O 0.98373 0.91370 1.11560
 O556 O 0.98393 0.88712 1.14251
 C557 C 0.97606 0.90553 1.13452
 C558 C 0.95712 0.91701 1.14683
 C559 C 0.94802 0.90765 1.16728
 H560 H 0.95566 0.89262 1.17463
 O561 O 1.12011 1.01569 1.08407
 O562 O 1.14731 1.01503 1.11061
 C563 C 1.13871 1.02335 1.09212
 C564 C 1.14997 1.04269 1.08040
 C565 C 1.17097 1.05076 1.08856
 H566 H 1.17943 1.04217 1.10282
 O567 O 0.88889 0.97446 1.08856
 O568 O 0.86350 0.97553 1.11693
 C569 C 0.87038 0.96752 1.09764
 C570 C 0.85726 0.94931 1.08615
 C571 C 0.83625 0.94214 1.09520
 H572 H 0.82899 0.95082 1.11013
 O573 O 1.08659 1.11060 1.02814
 O574 O 1.11362 1.13635 1.02733
 C575 C 1.09531 1.12867 1.03610
 C576 C 1.08407 1.14019 1.05615
 C577 C 1.09178 1.16111 1.06494
 H578 H 1.10581 1.16955 1.05642
 O579 O 0.91733 0.88436 1.02856
 O580 O 0.89073 0.85812 1.02912
 C581 C 0.90965 0.86587 1.03641
 C582 C 0.92305 0.85359 1.05426
 C583 C 0.91649 0.83206 1.06209
 H584 H 0.90164 0.82408 1.05454
 O585 O 1.08977 0.97121 1.11615
 O586 O 1.11681 0.97026 1.14284
 C587 C 1.09806 0.96291 1.13476
 C588 C 1.08593 0.94412 1.14654
 C589 C 1.09432 0.93448 1.16737
 H590 H 1.10956 0.94130 1.17524
 O591 O 0.92408 1.01667 1.11936
 O592 O 0.89861 1.01695 1.14767
 C593 C 0.91716 1.02398 1.13904
 C594 C 0.93033 1.04118 1.15200
 C595 C 0.92383 1.04699 1.17478
 H596 H 0.90986 1.03815 1.18309
 O597 O 0.98438 1.10870 1.09131
 O598 O 0.98500 1.13360 1.12000
 C599 C 0.97679 1.12665 1.10070
 C600 C 0.95790 1.13926 1.08930
 C601 C 0.94951 1.15934 1.09921
 H602 H 0.95737 1.16604 1.11490
 O603 O 1.02704 0.88215 1.08275
 O604 O 1.02766 0.85562 1.10969
 C605 C 1.03494 0.86369 1.09055
 C606 C 1.05311 0.85195 1.07732
 C607 C 1.06073 0.83032 1.08379
 H608 H 1.05287 0.82168 1.09836
 O609 O 1.11713 0.91352 1.02002
 O610 O 1.14350 0.88711 1.01854
 C611 C 1.13581 0.90532 1.02724
 C612 C 1.14849 0.91667 1.04634
 C613 C 1.16979 0.90845 1.05319
 H614 H 1.17728 0.89438 1.04382
 O615 O 0.89356 1.08200 1.02916
 O616 O 0.86680 1.10803 1.03037
 C617 C 0.87504 1.08947 1.03757
 C618 C 0.86324 1.07653 1.05612
 C619 C 0.84146 1.08294 1.06378
 H620 H 0.83298 1.09695 1.05541
 Cu621 Cu 1.00542 0.90055 1.09652
 Cu622 Cu 1.00590 0.86876 1.12896
 Cu623 Cu 1.00698 1.08993 1.10313
 Cu624 Cu 1.00782 1.11981 1.13749
 Cu625 Cu 0.90380 0.90237 1.00650
 Cu626 Cu 0.87160 0.87114 1.00675
 Cu627 Cu 1.09821 0.90124 0.99732
 Cu628 Cu 1.12986 0.86946 0.99577
 Cu629 Cu 0.91123 1.09564 1.00651
 Cu630 Cu 0.87938 1.12707 1.00796
 Cu631 Cu 1.09786 1.09225 1.00474
 Cu632 Cu 1.13051 1.12283 1.00333
 Cu633 Cu 0.90965 0.99555 1.10019
 Cu634 Cu 0.87925 0.99641 1.13426
 Cu635 Cu 1.10239 0.99339 1.09750
 Cu636 Cu 1.13488 0.99257 1.12940
 C637 C 1.06636 0.93486 1.13602
 H638 H 1.06006 0.94176 1.11974
 C639 C 1.08319 0.91583 1.17754
 C640 C 0.94845 1.05275 1.14149
 H641 H 0.95343 1.04837 1.12382
 C642 C 0.93437 1.06471 1.18674
 C643 C 0.87393 1.05787 1.06661
 H644 H 0.89084 1.05299 1.06106
 C645 C 0.83048 1.07096 1.08172
 C646 C 1.13897 0.93490 1.05860
 H647 H 1.12243 0.94120 1.05340
 C648 C 1.18132 0.91755 1.07247
 C649 C 1.06352 0.86288 1.05835
 H650 H 1.05817 0.87973 1.05357
 C651 C 1.07833 0.81977 1.07117
 C652 C 0.94744 1.13071 1.06903
 H653 H 0.95360 1.11510 1.06147
 C654 C 0.93083 1.17073 1.08936
 C655 C 0.94679 0.93624 1.13722
 H656 H 0.95351 0.94339 1.12124
 C657 C 0.92855 0.91678 1.17785
 C658 C 1.06772 1.05234 1.13913
 H659 H 1.06098 1.04671 1.12249
 C660 C 1.08601 1.06763 1.18184
 C661 C 0.94265 0.86370 1.06376
 H662 H 0.94763 0.88044 1.05820
 C663 C 0.92939 0.82080 1.07924
 C664 C 1.06565 1.12946 1.06721
 H665 H 1.05985 1.11320 1.06090
 C666 C 1.08102 1.17112 1.08447
 C667 C 0.86657 0.93789 1.06702
 H668 H 0.88290 0.94322 1.06022
 C669 C 0.82482 0.92342 1.08567
 C670 C 1.13903 1.05418 1.06210
 H671 H 1.12268 1.04821 1.05592
 C672 C 1.18085 1.07029 1.07917
 O673 O 0.97531 0.41466 0.38630
 O674 O 0.97557 0.38609 0.36150
 C675 C 0.96841 0.40545 0.36749
 C676 C 0.95158 0.41716 0.35267
 C677 C 0.94524 0.40820 0.33091
 H678 H 0.95331 0.39296 0.32450
 O679 O 1.02463 0.57641 0.37850
 O680 O 1.02685 0.60144 0.35014
 C681 C 1.03340 0.58308 0.35947
 C682 C 1.05166 0.56945 0.34848
 C683 C 1.06043 0.57516 0.32640
 H684 H 1.05302 0.58916 0.31705
 O685 O 0.88828 0.47894 0.40745
 O686 O 0.86251 0.47798 0.37941
 C687 C 0.86966 0.47147 0.39925
 C688 C 0.85625 0.45491 0.41278
 C689 C 0.83491 0.44788 0.40460
 H690 H 0.82811 0.45496 0.38860
 O691 O 1.11356 0.51580 0.41536
 O692 O 1.14033 0.51349 0.38846
 C693 C 1.13234 0.52256 0.40686
 C694 C 1.14473 0.54143 0.41826
 C695 C 1.16626 0.54814 0.41017
 H696 H 1.17416 0.53910 0.39581
 O697 O 0.91088 0.39426 0.47964
 O698 O 0.88297 0.36936 0.48013
 C699 C 0.90231 0.37575 0.47277
 C700 C 0.91477 0.36177 0.45572
 C701 C 0.90722 0.33998 0.45028
 H702 H 0.89248 0.33311 0.45916
 O703 O 1.08570 0.61075 0.47047
 O704 O 1.11295 0.63630 0.46907
 C705 C 1.09428 0.62835 0.46140
 C706 C 1.08231 0.63944 0.44170
 C707 C 1.08956 0.66048 0.43307
 H708 H 1.10398 0.66894 0.44099
 O709 O 0.92071 0.52035 0.37343
 O710 O 0.89503 0.51962 0.34533
 C711 C 0.91329 0.52752 0.35394
 C712 C 0.92576 0.54582 0.34186
 C713 C 0.91853 0.55422 0.32004
 H714 H 0.90423 0.54641 0.31130
 O715 O 1.08208 0.47012 0.38595
 O716 O 1.10880 0.46759 0.35903
 C717 C 1.09010 0.46084 0.36764
 C718 C 1.07759 0.44177 0.35670
 C719 C 1.08488 0.43200 0.33547
 H720 H 1.09959 0.43878 0.32651
 O721 O 1.01695 0.38554 0.42359
 O722 O 1.01684 0.35701 0.39876
 C723 C 1.02426 0.36632 0.41728
 C724 C 1.04217 0.35487 0.43094
 C725 C 1.04863 0.33287 0.42497
 H726 H 1.03958 0.32386 0.41131
 O727 O 0.98042 0.61020 0.40707
 O728 O 0.98218 0.63566 0.37909
 C729 C 0.97350 0.62849 0.39805
 C730 C 0.95501 0.64116 0.40984
 C731 C 0.94935 0.66336 0.40328
 H732 H 0.95860 0.67168 0.38938
 O733 O 0.88606 0.58329 0.46669
 O734 O 0.85969 0.60956 0.46375
 C735 C 0.86807 0.59087 0.45716
 C736 C 0.85719 0.57808 0.43782
 C737 C 0.83584 0.58459 0.42895
 H738 H 0.82681 0.59855 0.43690
 O739 O 1.11113 0.41692 0.48415
 O740 O 1.13680 0.38992 0.48630
 C741 C 1.12956 0.40803 0.47709
 C742 C 1.14213 0.41886 0.45762
 C743 C 1.16414 0.41181 0.45099
 H744 H 1.17253 0.39846 0.46056
 O745 O 0.98058 0.57858 0.37571
 O746 O 0.98269 0.60388 0.34760
 C747 C 0.97401 0.58608 0.35603
 C748 C 0.95568 0.57438 0.34309
 C749 C 0.94853 0.58230 0.32122
 H750 H 0.95712 0.59659 0.31338
 O751 O 1.01933 0.41364 0.38920
 O752 O 1.01945 0.38514 0.36431
 C753 C 1.02744 0.40392 0.37125
 C754 C 1.04662 0.41430 0.35853
 C755 C 1.05376 0.40519 0.33716
 H756 H 1.04469 0.39099 0.32963
 O757 O 1.11197 0.47210 0.41926
 O758 O 1.13888 0.46988 0.39249
 C759 C 1.13057 0.46380 0.41199
 C760 C 1.14246 0.44660 0.42608
 C761 C 1.16453 0.43986 0.42016
 H762 H 1.17318 0.44790 0.40566
 O763 O 0.88982 0.52237 0.40549
 O764 O 0.86388 0.52148 0.37760
 C765 C 0.87150 0.52972 0.39662
 C766 C 0.85901 0.54817 0.40836
 C767 C 0.83755 0.55462 0.40013
 H768 H 0.82992 0.54569 0.38553
 O769 O 0.91860 0.61272 0.46678
 O770 O 0.89249 0.63931 0.46400
 C771 C 0.91141 0.63085 0.45769
 C772 C 0.92505 0.64217 0.43950
 C773 C 0.92025 0.66446 0.43336
 H774 H 0.90690 0.67359 0.44242
 O775 O 1.07834 0.38779 0.48479
 O776 O 1.10369 0.36045 0.48676
 C777 C 1.08562 0.36869 0.47803
 C778 C 1.07290 0.35616 0.45976
 C779 C 1.07965 0.33437 0.45283
 H780 H 1.09419 0.32641 0.46100
 O781 O 1.08187 0.51423 0.38390
 O782 O 1.10858 0.51172 0.35694
 C783 C 1.09024 0.52045 0.36451
 C784 C 1.07906 0.53852 0.35093
 C785 C 1.08743 0.54439 0.32885
 H786 H 1.10150 0.53500 0.32140
 O787 O 0.91994 0.47621 0.37617
 O788 O 0.89436 0.47518 0.34798
 C789 C 0.91221 0.46740 0.35752
 C790 C 0.92386 0.44740 0.34760
 C791 C 0.91728 0.43792 0.32603
 H792 H 0.90402 0.44587 0.31581
 O793 O 1.02487 0.60900 0.40877
 O794 O 1.02656 0.63424 0.38057
 C795 C 1.03343 0.62681 0.40012
 C796 C 1.05196 0.63881 0.41246
 C797 C 1.05901 0.66006 0.40461
 H798 H 1.05018 0.66807 0.39021
 O799 O 0.97257 0.38668 0.42109
 O800 O 0.97263 0.35809 0.39633
 C801 C 0.96447 0.36794 0.41419
 C802 C 0.94508 0.35787 0.42689
 C803 C 0.93722 0.33606 0.42149
 H804 H 0.94609 0.32611 0.40850
 O805 O 1.11532 0.57867 0.47362
 O806 O 1.14277 0.60398 0.47233
 C807 C 1.13416 0.58546 0.46539
 C808 C 1.14571 0.57204 0.44700
 C809 C 1.16723 0.57847 0.43866
 H810 H 1.17593 0.59249 0.44686
 O811 O 0.88109 0.42604 0.47536
 O812 O 0.85307 0.40130 0.47589
 C813 C 0.86262 0.41840 0.46686
 C814 C 0.85258 0.42909 0.44582
 C815 C 0.83125 0.42211 0.43718
 H816 H 0.82159 0.40961 0.44669
 Cu817 Cu 0.99590 0.40297 0.40762
 Cu818 Cu 0.99615 0.36866 0.37778
 Cu819 Cu 1.00238 0.59107 0.39537
 Cu820 Cu 1.00482 0.62135 0.36154
 Cu821 Cu 0.90748 0.49952 0.39325
 Cu822 Cu 0.87642 0.49848 0.35966
 Cu823 Cu 1.09464 0.49326 0.40375
 Cu824 Cu 1.12679 0.49041 0.37149
 C825 C 0.94107 0.43690 0.36067
 H826 H 0.94588 0.44376 0.37754
 C827 C 0.92801 0.41827 0.31760
 C828 C 1.06102 0.55099 0.36054
 H829 H 1.05470 0.54670 0.37775
 C830 C 1.07851 0.56277 0.31658
 C831 C 0.86488 0.44558 0.43351
 H832 H 0.88147 0.45080 0.43978
 C833 C 0.82240 0.43138 0.41645
 C834 C 1.13468 0.55342 0.43679
 H835 H 1.11794 0.54858 0.44290
 C836 C 1.17753 0.56675 0.42005
 C837 C 0.93381 0.37051 0.44411
 H838 H 0.93952 0.38746 0.44810
 C839 C 0.91816 0.32709 0.43310
 C840 C 1.06346 0.62876 0.43123
 H841 H 1.05804 0.61233 0.43733
 C842 C 1.07783 0.67086 0.41456
 C843 C 0.94440 0.55599 0.35310
 H844 H 0.94977 0.54999 0.37010
 C845 C 0.92989 0.57259 0.30966
 C846 C 1.05840 0.43275 0.36802
 H847 H 1.05291 0.43979 0.38458
 C848 C 1.07289 0.41369 0.32565
 C849 C 1.05412 0.36628 0.44865
 H850 H 1.04918 0.38331 0.45330
 C851 C 1.06746 0.32272 0.43544
 C852 C 0.94268 0.63075 0.42796
 H853 H 0.94650 0.61351 0.43281
 C854 C 0.93215 0.67508 0.41533
 C855 C 0.86862 0.55980 0.42740
 H856 H 0.88527 0.55495 0.43377
 C857 C 0.82599 0.57286 0.41007
 C858 C 1.13154 0.43627 0.44500
 H859 H 1.11443 0.44146 0.44955
 C860 C 1.17543 0.42247 0.43229
 O861 O 1.01257 0.42603 0.61760
 O862 O 1.01190 0.40110 0.64613
 C863 C 1.02013 0.41891 0.63702
 C864 C 1.03890 0.43135 0.64882
 C865 C 1.04655 0.42477 0.67112
 H866 H 1.03833 0.41089 0.68003
 O867 O 0.97516 0.59384 0.60485
 O868 O 0.97554 0.62140 0.63084
 C869 C 0.96783 0.60257 0.62369
 C870 C 0.95013 0.59074 0.63737
 C871 C 0.94439 0.59822 0.65990
 H872 H 0.95312 0.61262 0.66743
 O873 O 0.88422 0.53255 0.58040
 O874 O 0.85750 0.53563 0.60729
 C875 C 0.86585 0.54141 0.58772
 C876 C 0.85418 0.55862 0.57332
 C877 C 0.83252 0.56669 0.57957
 H878 H 0.82409 0.55970 0.59471
 O879 O 1.10834 0.48255 0.58661
 O880 O 1.13298 0.48362 0.61566
 C881 C 1.12596 0.47481 0.59670
 C882 C 1.13788 0.45495 0.58659
 C883 C 1.15758 0.44615 0.59713
 H884 H 1.16468 0.45441 0.61240
 O885 O 1.07684 0.39019 0.53004
 O886 O 1.10204 0.36275 0.53227
 C887 C 1.08355 0.37181 0.53903
 C888 C 1.06984 0.36106 0.55772
 C889 C 1.07601 0.33985 0.56658
 H890 H 1.09026 0.33101 0.55890
 O891 O 0.91527 0.61715 0.51175
 O892 O 0.88879 0.64334 0.50886
 C893 C 0.90704 0.63607 0.51801
 C894 C 0.91863 0.64953 0.53638
 C895 C 0.91038 0.67083 0.54294
 H896 H 0.89571 0.67781 0.53404
 O897 O 0.91253 0.48889 0.61561
 O898 O 0.88580 0.49185 0.64248
 C899 C 0.90375 0.48249 0.63482
 C900 C 0.91414 0.46345 0.64783
 C901 C 0.90483 0.45587 0.66908
 H902 H 0.89038 0.46461 0.67660
 O903 O 1.07640 0.52972 0.61298
 O904 O 1.10098 0.53085 0.64209
 C905 C 1.08345 0.53863 0.63189
 C906 C 1.07154 0.55861 0.64174
 C907 C 1.07777 0.56739 0.66374
 H908 H 1.09058 0.55879 0.67395
 O909 O 0.96743 0.39455 0.58719
 O910 O 0.96610 0.36946 0.61551
 C911 C 0.95863 0.37702 0.59617
 C912 C 0.93898 0.36608 0.58419
 C913 C 0.92873 0.34628 0.59299
 H914 H 0.93561 0.33843 0.60851
 O915 O 1.02019 0.62259 0.57184
 O916 O 1.02045 0.65046 0.59744
 C917 C 1.02850 0.64107 0.57924
 C918 C 1.04827 0.65110 0.56698
 C919 C 1.05661 0.67258 0.57309
 H920 H 1.04775 0.68249 0.58613
 O921 O 0.87964 0.42971 0.52110
 O922 O 0.85156 0.40503 0.52155
 C923 C 0.86050 0.42325 0.52883
 C924 C 0.84905 0.43652 0.54726
 C925 C 0.82726 0.43051 0.55498
 H926 H 0.81815 0.41717 0.54605
 O927 O 1.11468 0.58264 0.51929
 O928 O 1.14216 0.60792 0.51828
 C929 C 1.13314 0.59057 0.52746
 C930 C 1.14366 0.57969 0.54822
 C931 C 1.16431 0.58761 0.55778
 H932 H 1.17310 0.60128 0.54919
 O933 O 1.01907 0.59276 0.60470
 O934 O 1.01943 0.62046 0.63054
 C935 C 1.02661 0.60137 0.62351
 C936 C 1.04396 0.58922 0.63739
 C937 C 1.05030 0.59752 0.65941
 H938 H 1.04222 0.61257 0.66628
 O939 O 0.96824 0.42648 0.61821
 O940 O 0.96736 0.40150 0.64668
 C941 C 0.96015 0.41964 0.63756
 C942 C 0.94169 0.43261 0.64910
 C943 C 0.93222 0.42532 0.67038
 H944 H 0.93956 0.41084 0.67897
 O945 O 1.10949 0.52661 0.58320
 O946 O 1.13415 0.52765 0.61224
 C947 C 1.12764 0.53440 0.59225
 C948 C 1.14088 0.55200 0.57976
 C949 C 1.16152 0.56002 0.58892
 H950 H 1.16824 0.55263 0.60480
 O951 O 0.88310 0.48911 0.58203
 O952 O 0.85607 0.49202 0.60862
 C953 C 0.86391 0.48314 0.59002
 C954 C 0.85086 0.46550 0.57760
 C955 C 0.82907 0.45924 0.58517
 H956 H 0.82143 0.46769 0.60005
 O957 O 1.08401 0.61388 0.51562
 O958 O 1.11129 0.63941 0.51434
 C959 C 1.09217 0.63272 0.52208
 C960 C 1.07945 0.64681 0.53903
 C961 C 1.08728 0.66840 0.54503
 H962 H 1.10242 0.67508 0.53673
 O963 O 0.90858 0.39699 0.52486
 O964 O 0.88051 0.37229 0.52525
 C965 C 0.89919 0.37959 0.53353
 C966 C 0.90983 0.36785 0.55363
 C967 C 0.89989 0.34824 0.56268
 H968 H 0.88468 0.34147 0.55455
 O969 O 1.07440 0.48543 0.61553
 O970 O 1.09902 0.48673 0.64459
 C971 C 1.08093 0.47877 0.63554
 C972 C 1.06798 0.46104 0.64818
 C973 C 1.07484 0.45452 0.67067
 H974 H 1.08886 0.46318 0.67915
 O975 O 0.91631 0.53287 0.61153
 O976 O 0.88976 0.53595 0.63859
 C977 C 0.90862 0.54224 0.62983
 C978 C 0.92145 0.56106 0.64055
 C979 C 0.91599 0.56874 0.66306
 H980 H 0.90317 0.55987 0.67301
 O981 O 0.97536 0.62341 0.57158
 O982 O 0.97544 0.65111 0.59737
 C983 C 0.96744 0.64206 0.57896
 C984 C 0.94820 0.65267 0.56628
 C985 C 0.93949 0.67390 0.57291
 H986 H 0.94767 0.68324 0.58684
 O987 O 1.01214 0.39330 0.58762
 O988 O 1.01097 0.36811 0.61588
 C989 C 1.01938 0.37517 0.59678
 C990 C 1.03828 0.36257 0.58560
 C991 C 1.04478 0.34136 0.59419
 H992 H 1.03534 0.33379 0.60844
 O993 O 1.10941 0.41963 0.52973
 O994 O 1.13486 0.39245 0.53223
 C995 C 1.12721 0.41144 0.53898
 C996 C 1.13858 0.42394 0.55825
 C997 C 1.15832 0.41545 0.56897
 H998 H 1.16553 0.39978 0.56270
 O999 O 0.88503 0.58530 0.51269
 O1000 O 0.85859 0.61150 0.50973
 C1001 C 0.86640 0.59389 0.51949
 C1002 C 0.85420 0.58377 0.53953
 C1003 C 0.83253 0.59152 0.54596
 H1004 H 0.82423 0.60439 0.53558
 Cu1005 Cu 0.99013 0.41250 0.59978
 Cu1006 Cu 0.98907 0.38249 0.63384
 Cu1007 Cu 0.99736 0.60558 0.58543
 Cu1008 Cu 0.99777 0.63876 0.61652
 Cu1009 Cu 0.89777 0.41435 0.50018
 Cu1010 Cu 0.86414 0.38458 0.50074
 Cu1011 Cu 1.09151 0.40642 0.50692
 Cu1012 Cu 1.12194 0.37368 0.50964
 Cu1013 Cu 0.90374 0.59687 0.48981
 Cu1014 Cu 0.87214 0.62844 0.48618
 Cu1015 Cu 1.09730 0.59387 0.49491
 Cu1016 Cu 1.13015 0.62436 0.49342
 Cu1017 Cu 0.90183 0.51059 0.59486
 Cu1018 Cu 0.86971 0.51418 0.62708
 Cu1019 Cu 1.08971 0.50596 0.59669
 Cu1020 Cu 1.11918 0.50732 0.63157
 C1021 C 1.04978 0.44952 0.63749
 H1022 H 1.04444 0.45438 0.62009
 C1023 C 1.06454 0.43630 0.68206
 C1024 C 0.93867 0.57204 0.62789
 H1025 H 0.94280 0.56634 0.61038
 C1026 C 0.92728 0.58746 0.67278
 C1027 C 0.86480 0.56720 0.55322
 H1028 H 0.88163 0.56131 0.54850
 C1029 C 0.82162 0.58325 0.56601
 C1030 C 1.12874 0.44385 0.56700
 H1031 H 1.11337 0.45033 0.55901
 C1032 C 1.16806 0.42655 0.58835
 C1033 C 1.05084 0.37223 0.56725
 H1034 H 1.04616 0.38874 0.56077
 C1035 C 1.06370 0.32999 0.58500
 C1036 C 0.93765 0.64075 0.54798
 H1037 H 0.94397 0.62426 0.54305
 C1038 C 0.92048 0.68310 0.56126
 C1039 C 0.93263 0.45175 0.63813
 H1040 H 0.93964 0.45724 0.62158
 C1041 C 0.91354 0.43668 0.68041
 C1042 C 1.05452 0.56963 0.62873
 H1043 H 1.04981 0.56322 0.61165
 C1044 C 1.06723 0.58693 0.67261
 C1045 C 0.92947 0.37650 0.56435
 H1046 H 0.93700 0.39182 0.55756
 C1047 C 0.90915 0.33722 0.58215
 C1048 C 1.05979 0.63843 0.54987
 H1049 H 1.05377 0.62169 0.54542
 C1050 C 1.07618 0.68130 0.56214
 C1051 C 0.86064 0.45415 0.55852
 H1052 H 0.87764 0.45860 0.55285
 C1053 C 0.81734 0.44156 0.57418
 C1054 C 1.13225 0.56180 0.55930
 H1055 H 1.11619 0.55586 0.55233
 C1056 C 1.17337 0.57785 0.57826
 O1057 O 0.47563 0.92008 0.38598
 O1058 O 0.47478 0.89334 0.35909
 C1059 C 0.46752 0.91198 0.36720
 C1060 C 0.44903 0.92415 0.35516
 C1061 C 0.44109 0.91692 0.33324
 H1062 H 0.44912 0.90275 0.32456
 O1063 O 0.51916 1.07977 0.38230
 O1064 O 0.51882 1.10609 0.35512
 C1065 C 0.52661 1.08770 0.36317
 C1066 C 0.54508 1.07592 0.35051
 C1067 C 0.55235 1.08376 0.32866
 H1068 H 0.54368 1.09785 0.32054
 O1069 O 0.38523 0.98016 0.41978
 O1070 O 0.35807 0.97892 0.39316
 C1071 C 0.36651 0.97222 0.41237
 C1072 C 0.35464 0.95483 0.42612
 C1073 C 0.33264 0.94786 0.42000
 H1074 H 0.32401 0.95565 0.40534
 O1075 O 0.61335 1.02207 0.41171
 O1076 O 0.63889 1.02100 0.38348
 C1077 C 0.63183 1.02905 0.40274
 C1078 C 0.64495 1.04698 0.41465
 C1079 C 0.66659 1.05327 0.40666
 H1080 H 0.67412 1.04443 0.39197
 O1081 O 0.41746 0.89176 0.48128
 O1082 O 0.39070 0.86572 0.48282
 C1083 C 0.40885 0.87343 0.47381
 C1084 C 0.41965 0.86119 0.45408
 C1085 C 0.41051 0.84068 0.44617
 H1086 H 0.39598 0.83349 0.45512
 O1087 O 0.58504 1.11002 0.47275
 O1088 O 0.61089 1.13695 0.47116
 C1089 C 0.59221 1.12846 0.46420
 C1090 C 0.57877 1.14007 0.44590
 C1091 C 0.58518 1.16165 0.43812
 H1092 H 0.59960 1.17002 0.44610
 O1093 O 0.41501 1.02321 0.38585
 O1094 O 0.38799 1.02211 0.35907
 C1095 C 0.40661 1.03012 0.36672
 C1096 C 0.41840 1.04803 0.35360
 C1097 C 0.41040 1.05493 0.33169
 H1098 H 0.39591 1.04649 0.32383
 O1099 O 0.57972 0.97818 0.38215
 O1100 O 0.60508 0.97744 0.35374
 C1101 C 0.58682 0.97014 0.36289
 C1102 C 0.57418 0.95168 0.35128
 C1103 C 0.58073 0.94437 0.32898
 H1104 H 0.59434 0.95296 0.31982
 O1105 O 0.51935 0.88952 0.41848
 O1106 O 0.51860 0.86242 0.39199
 C1107 C 0.52662 0.87082 0.41076
 C1108 C 0.54506 0.85907 0.42333
 C1109 C 0.55144 0.83725 0.41668
 H1110 H 0.54215 0.82859 0.40295
 O1111 O 0.47573 1.11112 0.41551
 O1112 O 0.47578 1.13745 0.38834
 C1113 C 0.46816 1.12959 0.40744
 C1114 C 0.44979 1.14180 0.41982
 C1115 C 0.44311 1.16322 0.41212
 H1116 H 0.45216 1.17127 0.39790
 O1117 O 0.38286 1.08291 0.47896
 O1118 O 0.35686 1.10969 0.47871
 C1119 C 0.36440 1.09097 0.47108
 C1120 C 0.35230 1.07855 0.45232
 C1121 C 0.33061 1.08511 0.44435
 H1122 H 0.32195 1.09915 0.45259
 O1123 O 0.61379 0.92110 0.47607
 O1124 O 0.63993 0.89444 0.47596
 C1125 C 0.63196 0.91268 0.46776
 C1126 C 0.64345 0.92405 0.44798
 C1127 C 0.66504 0.91704 0.44022
 H1128 H 0.67380 0.90372 0.44946
 O1129 O 0.47477 1.08103 0.38263
 O1130 O 0.47448 1.10731 0.35542
 C1131 C 0.46665 1.08911 0.36383
 C1132 C 0.44754 1.07732 0.35219
 C1133 C 0.43891 1.08453 0.33050
 H1134 H 0.44668 1.09866 0.32159
 O1135 O 0.51984 0.91822 0.38445
 O1136 O 0.51921 0.89136 0.35770
 C1137 C 0.52732 0.90978 0.36548
 C1138 C 0.54576 0.92155 0.35264
 C1139 C 0.55321 0.91392 0.33055
 H1140 H 0.54532 0.89934 0.32249
 O1141 O 0.61203 0.97832 0.41289
 O1142 O 0.63758 0.97725 0.38467
 C1143 C 0.63015 0.97022 0.40422
 C1144 C 0.64247 0.95227 0.41692
 C1145 C 0.66409 0.94523 0.40957
 H1146 H 0.67207 0.95335 0.39472
 O1147 O 0.38448 1.02376 0.41844
 O1148 O 0.35739 1.02246 0.39175
 C1149 C 0.36557 1.03067 0.41047
 C1150 C 0.35312 1.04870 0.42284
 C1151 C 0.33134 1.05501 0.41551
 H1152 H 0.32328 1.04606 0.40117
 O1153 O 0.41446 1.11313 0.47660
 O1154 O 0.38872 1.14018 0.47644
 C1155 C 0.40681 1.13147 0.46825
 C1156 C 0.41915 1.14254 0.44876
 C1157 C 0.41220 1.16369 0.44016
 H1158 H 0.39773 1.17223 0.44785
 O1159 O 0.58184 0.89090 0.47755
 O1160 O 0.60781 0.86409 0.47750
 C1161 C 0.58920 0.87212 0.46992
 C1162 C 0.57609 0.85977 0.45179
 C1163 C 0.58260 0.83801 0.44447
 H1164 H 0.59703 0.82983 0.45258
 O1165 O 0.58066 1.02214 0.38127
 O1166 O 0.60607 1.02146 0.35292
 C1167 C 0.58799 1.02949 0.36184
 C1168 C 0.57549 1.04785 0.34991
 C1169 C 0.58278 1.05619 0.32814
 H1170 H 0.59724 1.04853 0.31954
 O1171 O 0.41577 0.97954 0.38707
 O1172 O 0.38874 0.97848 0.36031
 C1173 C 0.40761 0.97147 0.36826
 C1174 C 0.41992 0.95348 0.35571
 C1175 C 0.41253 0.94637 0.33359
 H1176 H 0.39823 0.95466 0.32528
 O1177 O 0.52024 1.11041 0.41456
 O1178 O 0.52004 1.13679 0.38743
 C1179 C 0.52812 1.12863 0.40621
 C1180 C 0.54722 1.14024 0.41803
 C1181 C 0.55382 1.16179 0.41067
 H1182 H 0.54440 1.17017 0.39691
 O1183 O 0.47502 0.88897 0.41747
 O1184 O 0.47410 0.86202 0.39084
 C1185 C 0.46665 0.87063 0.40970
 C1186 C 0.44770 0.85968 0.42257
 C1187 C 0.43815 0.83916 0.41475
 H1188 H 0.44521 0.83107 0.39946
 O1189 O 0.61769 1.08058 0.47282
 O1190 O 0.64371 1.10733 0.47112
 C1191 C 0.63576 1.08865 0.46394
 C1192 C 0.64701 1.07634 0.44458
 C1193 C 0.66859 1.08270 0.43618
 H1194 H 0.67769 1.09631 0.44467
 O1195 O 0.38671 0.92296 0.48288
 O1196 O 0.35992 0.89694 0.48447
 C1197 C 0.36777 0.91511 0.47597
 C1198 C 0.35517 0.92693 0.45736
 C1199 C 0.33320 0.92001 0.45092
 H1200 H 0.32492 0.90661 0.46053
 Cu1201 Cu 0.49755 0.90687 0.40423
 Cu1202 Cu 0.49665 0.87455 0.37224
 Cu1203 Cu 0.49744 1.09289 0.40145
 Cu1204 Cu 0.49731 1.12459 0.36889
 Cu1205 Cu 0.40288 1.00177 0.40548
 Cu1206 Cu 0.37031 1.00033 0.37334
 Cu1207 Cu 0.59386 1.00033 0.39982
 Cu1208 Cu 0.62441 0.99915 0.36579
 C1209 C 0.43840 0.94253 0.36622
 H1210 H 0.44405 0.94787 0.38340
 C1211 C 0.42279 0.92798 0.32247
 C1212 C 0.55657 1.05780 0.36088
 H1213 H 0.55113 1.05183 0.37787
 C1214 C 0.57129 1.07427 0.31750
 C1215 C 0.36568 0.94446 0.44498
 H1216 H 0.38280 0.94958 0.44957
 C1217 C 0.32197 0.93030 0.43209
 C1218 C 0.63546 1.05843 0.43374
 H1219 H 0.61866 1.05372 0.43982
 C1220 C 0.67851 1.07114 0.41716
 C1221 C 0.43837 0.87043 0.44232
 H1222 H 0.44533 0.88637 0.44822
 C1223 C 0.41946 0.82952 0.42654
 C1224 C 0.55967 1.12953 0.43581
 H1225 H 0.55479 1.11278 0.44142
 C1226 C 0.57284 1.17250 0.42036
 C1227 C 0.43715 1.05905 0.36351
 H1228 H 0.44332 1.05375 0.38048
 C1229 C 0.42033 1.07326 0.32019
 C1230 C 0.55645 0.94043 0.36283
 H1231 H 0.55134 0.94606 0.38009
 C1232 C 0.57064 0.92544 0.31867
 C1233 C 0.55724 0.87010 0.44113
 H1234 H 0.55242 0.88704 0.44624
 C1235 C 0.57026 0.82673 0.42688
 C1236 C 0.43795 1.13171 0.43838
 H1237 H 0.44308 1.11517 0.44439
 C1238 C 0.42427 1.17408 0.42191
 C1239 C 0.36331 1.06029 0.44144
 H1240 H 0.38022 1.05544 0.44702
 C1241 C 0.32006 1.07324 0.42590
 C1242 C 0.63239 0.94171 0.43624
 H1243 H 0.61561 0.94695 0.44188
 C1244 C 0.67544 0.92758 0.42096
 O1245 O 0.52540 0.92591 0.61793
 O1246 O 0.52563 0.90017 0.64569
 C1247 C 0.53343 0.91830 0.63697
 C1248 C 0.55241 0.93018 0.64891
 C1249 C 0.55959 0.92292 0.67098
 H1250 H 0.55059 0.90930 0.67959
 O1251 O 0.48175 1.08708 0.61463
 O1252 O 0.48265 1.11479 0.64041
 C1253 C 0.47455 1.09610 0.63338
 C1254 C 0.45609 1.08510 0.64675
 C1255 C 0.44919 1.09375 0.66846
 H1256 H 0.45804 1.10811 0.67594
 O1257 O 0.38817 1.02857 0.58789
 O1258 O 0.36249 1.02883 0.61599
 C1259 C 0.36972 1.03606 0.59648
 C1260 C 0.35684 1.05374 0.58393
 C1261 C 0.33526 1.06040 0.59173
 H1262 H 0.32757 1.05196 0.60655
 O1263 O 0.61782 0.98272 0.58396
 O1264 O 0.64474 0.98256 0.61079
 C1265 C 0.63616 0.97457 0.59204
 C1266 C 0.64691 0.95512 0.57976
 C1267 C 0.66678 0.94482 0.58856
 H1268 H 0.67483 0.95151 0.60413
 O1269 O 0.58305 0.89203 0.52307
 O1270 O 0.60896 0.86515 0.52301
 C1271 C 0.59086 0.87372 0.53128
 C1272 C 0.57908 0.86269 0.55107
 C1273 C 0.58670 0.84184 0.55970
 H1274 H 0.60055 0.83330 0.55096
 O1275 O 0.41736 1.11361 0.52184
 O1276 O 0.39170 1.14075 0.52190
 C1277 C 0.41043 1.13258 0.52920
 C1278 C 0.42406 1.14518 0.54666
 C1279 C 0.41807 1.16732 0.55245
 H1280 H 0.40395 1.17537 0.54358
 O1281 O 0.42100 0.98580 0.61990
 O1282 O 0.39545 0.98628 0.64812
 C1283 C 0.41362 0.97841 0.63930
 C1284 C 0.42575 0.95981 0.65120
 C1285 C 0.41748 0.95111 0.67239
 H1286 H 0.40277 0.95872 0.68067
 O1287 O 0.58773 1.02789 0.61528
 O1288 O 0.61430 1.02851 0.64246
 C1289 C 0.59584 1.03623 0.63397
 C1290 C 0.58374 1.05538 0.64541
 C1291 C 0.59118 1.06434 0.66697
 H1292 H 0.60555 1.05680 0.67582
 O1293 O 0.48009 0.89377 0.58813
 O1294 O 0.48071 0.86777 0.61562
 C1295 C 0.47261 0.87540 0.59665
 C1296 C 0.45413 0.86311 0.58436
 C1297 C 0.44701 0.84147 0.59152
 H1298 H 0.45523 0.83327 0.60616
 O1299 O 0.52553 1.11579 0.57969
 O1300 O 0.52649 1.14345 0.60552
 C1301 C 0.53378 1.13438 0.58682
 C1302 C 0.55251 1.14519 0.57367
 C1303 C 0.56078 1.16648 0.58048
 H1304 H 0.55251 1.17545 0.59460
 O1305 O 0.38859 0.92326 0.52841
 O1306 O 0.36203 0.89702 0.52991
 C1307 C 0.37041 0.91545 0.53732
 C1308 C 0.35912 0.92764 0.55679
 C1309 C 0.33832 0.91986 0.56584
 H1310 H 0.33017 0.90557 0.55762
 O1311 O 0.61807 1.08147 0.51874
 O1312 O 0.64399 1.10832 0.51704
 C1313 C 0.63645 1.09025 0.52613
 C1314 C 0.64877 1.07985 0.54603
 C1315 C 0.66945 1.08898 0.55374
 H1316 H 0.67687 1.10303 0.54435
 O1317 O 0.52625 1.08639 0.61314
 O1318 O 0.52702 1.11399 0.63905
 C1319 C 0.53453 1.09519 0.63157
 C1320 C 0.55344 1.08382 0.64416
 C1321 C 0.56086 1.09212 0.66585
 H1322 H 0.55218 1.10634 0.67377
 O1323 O 0.48084 0.92608 0.61888
 O1324 O 0.48119 0.90012 0.64641
 C1325 C 0.47333 0.91838 0.63808
 C1326 C 0.45478 0.93033 0.65047
 C1327 C 0.44622 0.92186 0.67161
 H1328 H 0.45426 0.90735 0.67953
 O1329 O 0.61953 1.02677 0.58402
 O1330 O 0.64648 1.02725 0.61078
 C1331 C 0.63821 1.03465 0.59175
 C1332 C 0.64977 1.05302 0.57851
 C1333 C 0.67048 1.06267 0.58619
 H1334 H 0.67865 1.05604 0.60165
 O1335 O 0.38934 0.98464 0.58867
 O1336 O 0.36365 0.98485 0.61678
 C1337 C 0.37129 0.97676 0.59771
 C1338 C 0.35949 0.95763 0.58621
 C1339 C 0.33876 0.94955 0.59504
 H1340 H 0.33100 0.95780 0.60997
 O1341 O 0.58633 1.11172 0.51804
 O1342 O 0.61221 1.13862 0.51640
 C1343 C 0.59398 1.13062 0.52498
 C1344 C 0.58187 1.14325 0.54350
 C1345 C 0.58972 1.16457 0.55043
 H1346 H 0.60427 1.17203 0.54173
 O1347 O 0.42003 0.89264 0.52685
 O1348 O 0.39353 0.86632 0.52821
 C1349 C 0.41241 0.87432 0.53517
 C1350 C 0.42526 0.86253 0.55362
 C1351 C 0.41897 0.84075 0.56039
 H1352 H 0.40531 0.83212 0.55129
 O1353 O 0.58792 0.98378 0.61713
 O1354 O 0.61448 0.98392 0.64434
 C1355 C 0.59585 0.97622 0.63626
 C1356 C 0.58335 0.95795 0.64870
 C1357 C 0.59068 0.94985 0.67066
 H1358 H 0.60537 0.95732 0.67908
 O1359 O 0.42057 1.02982 0.61870
 O1360 O 0.39507 1.03045 0.64695
 C1361 C 0.41321 1.03804 0.63777
 C1362 C 0.42577 1.05694 0.64889
 C1363 C 0.41890 1.06601 0.67054
 H1364 H 0.40472 1.05848 0.67970
 O1365 O 0.48090 1.11638 0.58102
 O1366 O 0.48195 1.14417 0.60670
 C1367 C 0.47347 1.13524 0.58843
 C1368 C 0.45451 1.14659 0.57589
 C1369 C 0.44768 1.16865 0.58195
 H1370 H 0.45661 1.17779 0.59557
 O1371 O 0.52438 0.89456 0.58623
 O1372 O 0.52492 0.86874 0.61391
 C1373 C 0.53221 0.87632 0.59455
 C1374 C 0.55035 0.86404 0.58189
 C1375 C 0.55809 0.84316 0.59015
 H1376 H 0.55023 0.83569 0.60542
 O1377 O 0.61408 0.92291 0.52193
 O1378 O 0.64002 0.89606 0.52181
 C1379 C 0.63243 0.91462 0.52986
 C1380 C 0.64475 0.92600 0.54925
 C1381 C 0.66442 0.91608 0.55840
 H1382 H 0.67103 0.90076 0.55054
 O1383 O 0.38414 1.08512 0.52458
 O1384 O 0.35810 1.11185 0.52477
 C1385 C 0.36616 1.09371 0.53316
 C1386 C 0.35507 1.08245 0.55334
 C1387 C 0.33367 1.08940 0.56188
 H1388 H 0.32468 1.10306 0.55340
 Cu1389 Cu 0.50256 0.91267 0.60003
 Cu1390 Cu 0.50322 0.88169 0.63325
 Cu1391 Cu 0.50347 1.09868 0.59451
 Cu1392 Cu 0.50464 1.13187 0.62548
 Cu1393 Cu 0.40588 0.91030 0.50471
 Cu1394 Cu 0.37388 0.87885 0.50655
 Cu1395 Cu 0.59561 0.90944 0.49955
 Cu1396 Cu 0.62687 0.87732 0.49954
 Cu1397 Cu 0.40213 1.09590 0.50047
 Cu1398 Cu 0.37122 1.12831 0.50056
 Cu1399 Cu 0.59931 1.09313 0.49568
 Cu1400 Cu 0.63037 1.12544 0.49375
 Cu1401 Cu 0.40736 1.00726 0.60101
 Cu1402 Cu 0.37660 1.00769 0.63481
 Cu1403 Cu 0.60066 1.00529 0.59748
 Cu1404 Cu 0.63268 1.00558 0.62978
 C1405 C 0.56417 0.94792 0.63803
 H1406 H 0.55870 0.95353 0.62093
 C1407 C 0.57870 0.93234 0.68189
 C1408 C 0.44443 1.06657 0.63724
 H1409 H 0.44959 1.05998 0.62038
 C1410 C 0.43053 1.08455 0.68036
 C1411 C 0.36643 1.06463 0.56457
 H1412 H 0.38312 1.05951 0.55853
 C1413 C 0.32364 1.07824 0.58102
 C1414 C 0.63620 0.94564 0.55991
 H1415 H 0.62071 0.95310 0.55320
 C1416 C 0.67552 0.92521 0.57790
 C1417 C 0.56081 0.87359 0.56221
 H1418 H 0.55510 0.88985 0.55593
 C1419 C 0.57636 0.83208 0.57940
 C1420 C 0.44254 1.13502 0.55818
 H1421 H 0.44725 1.11788 0.55374
 C1422 C 0.42952 1.17906 0.57012
 C1423 C 0.44453 0.94941 0.64047
 H1424 H 0.45073 0.95574 0.62390
 C1425 C 0.42730 0.93191 0.68244
 C1426 C 0.56483 1.06529 0.63422
 H1427 H 0.55924 1.05888 0.61742
 C1428 C 0.57973 1.08274 0.67728
 C1429 C 0.44310 0.87343 0.56538
 H1430 H 0.44799 0.89029 0.56013
 C1431 C 0.42953 0.83020 0.57935
 C1432 C 0.56312 1.13374 0.55508
 H1433 H 0.55715 1.11714 0.55002
 C1434 C 0.57956 1.17612 0.56906
 C1435 C 0.36949 0.94662 0.56700
 H1436 H 0.38565 0.95253 0.56029
 C1437 C 0.32812 0.93058 0.58516
 C1438 C 0.63922 1.06175 0.55835
 H1439 H 0.62312 1.05483 0.55255
 C1440 C 0.68042 1.08077 0.57379
 O1441 O 0.47038 0.42308 0.87659
 O1442 O 0.46959 0.39830 0.84776
 C1443 C 0.46166 0.41577 0.85767
 C1444 C 0.44176 0.42750 0.84755
 C1445 C 0.43228 0.42063 0.82609
 H1446 H 0.43999 0.40698 0.81630
 O1447 O 0.51091 0.58450 0.88030
 O1448 O 0.50810 0.61144 0.85396
 C1449 C 0.51728 0.59332 0.86120
 C1450 C 0.53593 0.58244 0.84786
 C1451 C 0.54186 0.58954 0.82517
 H1452 H 0.53248 0.60303 0.81684
 O1453 O 0.38087 0.47658 0.91888
 O1454 O 0.35204 0.47665 0.89419
 C1455 C 0.36209 0.46839 0.91186
 C1456 C 0.35224 0.44871 0.92407
 C1457 C 0.33112 0.43973 0.91718
 H1458 H 0.32153 0.44808 0.90360
 O1459 O 0.60753 0.52902 0.90704
 O1460 O 0.63245 0.53092 0.87832
 C1461 C 0.62514 0.53781 0.89798
 C1462 C 0.63643 0.55684 0.91019
 C1463 C 0.65613 0.56710 0.90106
 H1464 H 0.66393 0.56047 0.88532
 O1465 O 0.42066 0.38510 0.97378
 O1466 O 0.39509 0.35787 0.97457
 C1467 C 0.41267 0.36678 0.96559
 C1468 C 0.42375 0.35631 0.94502
 C1469 C 0.41771 0.33460 0.93707
 H1470 H 0.40528 0.32497 0.94675
 O1471 O 0.57305 0.61714 0.97147
 O1472 O 0.59886 0.64414 0.97155
 C1473 C 0.58038 0.63586 0.96375
 C1474 C 0.56752 0.64749 0.94495
 C1475 C 0.57466 0.66844 0.93597
 H1476 H 0.58914 0.67684 0.94377
 O1477 O 0.40735 0.52339 0.88701
 O1478 O 0.37864 0.52347 0.86217
 C1479 C 0.39759 0.53139 0.86905
 C1480 C 0.40830 0.55020 0.85617
 C1481 C 0.39901 0.55772 0.83500
 H1482 H 0.38409 0.54943 0.82787
 O1483 O 0.57553 0.48540 0.87563
 O1484 O 0.60039 0.48676 0.84678
 C1485 C 0.58239 0.47864 0.85576
 C1486 C 0.56932 0.46106 0.84321
 C1487 C 0.57538 0.45449 0.82041
 H1488 H 0.58949 0.46264 0.81168
 O1489 O 0.51790 0.39276 0.90389
 O1490 O 0.51717 0.36798 0.87505
 C1491 C 0.52566 0.37509 0.89410
 C1492 C 0.54494 0.36290 0.90483
 C1493 C 0.55218 0.34213 0.89569
 H1494 H 0.54324 0.33467 0.88099
 O1495 O 0.46777 0.61145 0.91708
 O1496 O 0.46448 0.63878 0.89123
 C1497 C 0.45863 0.62971 0.91048
 C1498 C 0.44076 0.64021 0.92519
 C1499 C 0.43216 0.66161 0.91961
 H1500 H 0.43952 0.67072 0.90512
 O1501 O 0.38246 0.57587 0.98685
 O1502 O 0.35531 0.60139 0.98975
 C1503 C 0.36315 0.58345 0.98073
 C1504 C 0.34995 0.57179 0.96238
 C1505 C 0.32803 0.57924 0.95661
 H1506 H 0.32034 0.59293 0.96642
 O1507 O 0.61106 0.42157 0.96235
 O1508 O 0.63800 0.39581 0.95983
 C1509 C 0.62940 0.41438 0.95320
 C1510 C 0.64048 0.42759 0.93438
 C1511 C 0.66121 0.42053 0.92444
 H1512 H 0.66911 0.40528 0.93079
 O1513 O 0.46641 0.58333 0.88253
 O1514 O 0.46336 0.61036 0.85632
 C1515 C 0.45684 0.59157 0.86452
 C1516 C 0.43742 0.57948 0.85365
 C1517 C 0.42785 0.58685 0.83243
 H1518 H 0.43566 0.60079 0.82328
 O1519 O 0.51463 0.42643 0.87535
 O1520 O 0.51385 0.40173 0.84644
 C1521 C 0.52142 0.41987 0.85544
 C1522 C 0.53891 0.43297 0.84292
 C1523 C 0.54480 0.42708 0.82002
 H1524 H 0.53571 0.41365 0.81112
 O1525 O 0.60829 0.48489 0.90584
 O1526 O 0.63331 0.48658 0.87717
 C1527 C 0.62641 0.47788 0.89617
 C1528 C 0.63909 0.45890 0.90672
 C1529 C 0.65984 0.45172 0.89714
 H1530 H 0.66716 0.46083 0.88255
 O1531 O 0.37913 0.52036 0.92166
 O1532 O 0.35027 0.52056 0.89700
 C1533 C 0.35966 0.52756 0.91566
 C1534 C 0.34824 0.54470 0.93028
 C1535 C 0.32636 0.55248 0.92460
 H1536 H 0.31731 0.54491 0.91009
 O1537 O 0.41316 0.60722 0.98474
 O1538 O 0.38596 0.63272 0.98739
 C1539 C 0.40404 0.62544 0.97779
 C1540 C 0.41425 0.63812 0.95810
 C1541 C 0.40589 0.65954 0.95217
 H1542 H 0.39233 0.66703 0.96240
 O1543 O 0.58029 0.39014 0.96235
 O1544 O 0.60715 0.36431 0.95977
 C1545 C 0.58825 0.37236 0.95299
 C1546 C 0.57562 0.36143 0.93360
 C1547 C 0.58285 0.34075 0.92401
 H1548 H 0.59733 0.33216 0.93155
 O1549 O 0.57402 0.52890 0.87764
 O1550 O 0.59875 0.53031 0.84867
 C1551 C 0.58041 0.53700 0.85819
 C1552 C 0.56654 0.55451 0.84658
 C1553 C 0.57164 0.56123 0.82375
 H1554 H 0.58543 0.55314 0.81434
 O1555 O 0.40926 0.47983 0.88461
 O1556 O 0.38055 0.47988 0.85974
 C1557 C 0.40005 0.47282 0.86588
 C1558 C 0.41188 0.45581 0.85150
 C1559 C 0.40297 0.44919 0.82982
 H1560 H 0.38782 0.45728 0.82305
 O1561 O 0.51163 0.61508 0.91264
 O1562 O 0.50854 0.64219 0.88651
 C1563 C 0.51793 0.63406 0.90462
 C1564 C 0.53681 0.64646 0.91609
 C1565 C 0.54402 0.66743 0.90752
 H1566 H 0.53516 0.67501 0.89289
 O1567 O 0.47403 0.39183 0.90781
 O1568 O 0.47335 0.36686 0.87914
 C1569 C 0.46678 0.37346 0.89919
 C1570 C 0.45035 0.35981 0.91252
 C1571 C 0.44438 0.33816 0.90493
 H1572 H 0.45227 0.33123 0.88936
 O1573 O 0.60505 0.58731 0.96892
 O1574 O 0.63088 0.61431 0.96949
 C1575 C 0.62311 0.59615 0.96084
 C1576 C 0.63493 0.58559 0.94082
 C1577 C 0.65429 0.59582 0.93126
 H1578 H 0.66100 0.61114 0.93902
 O1579 O 0.38874 0.41500 0.97736
 O1580 O 0.36314 0.38781 0.97831
 C1581 C 0.36995 0.40666 0.97051
 C1582 C 0.35612 0.41864 0.95286
 C1583 C 0.33497 0.40997 0.94584
 H1584 H 0.32840 0.39482 0.95397
 Cu1585 Cu 0.49427 0.41107 0.89375
 Cu1586 Cu 0.49342 0.38127 0.85912
 Cu1587 Cu 0.48953 0.59582 0.90062
 Cu1588 Cu 0.48576 0.62839 0.86937
 Cu1589 Cu 0.39700 0.50006 0.90560
 Cu1590 Cu 0.36242 0.50019 0.87581
 Cu1591 Cu 0.58898 0.50690 0.89454
 Cu1592 Cu 0.61885 0.50882 0.85992
 C1593 C 0.43146 0.44515 0.86005
 H1594 H 0.43831 0.45016 0.87687
 C1595 C 0.41284 0.43147 0.81721
 C1596 C 0.54846 0.56494 0.85838
 H1597 H 0.54445 0.55972 0.87604
 C1598 C 0.55961 0.57874 0.81304
 C1599 C 0.36453 0.43811 0.94201
 H1600 H 0.38099 0.44471 0.94714
 C1601 C 0.32247 0.42017 0.92787
 C1602 C 0.62624 0.56603 0.93031
 H1603 H 0.61098 0.55841 0.93737
 C1604 C 0.66505 0.58667 0.91160
 C1605 C 0.44015 0.36865 0.93265
 H1606 H 0.44462 0.38550 0.93842
 C1607 C 0.42806 0.32544 0.91692
 C1608 C 0.54852 0.63677 0.93492
 H1609 H 0.54314 0.62048 0.94141
 C1610 C 0.56302 0.67846 0.91708
 C1611 C 0.42758 0.56106 0.86526
 H1612 H 0.43463 0.55548 0.88176
 C1613 C 0.40848 0.57608 0.82306
 C1614 C 0.55099 0.45022 0.85430
 H1615 H 0.54658 0.45473 0.87210
 C1616 C 0.56315 0.43743 0.80886
 C1617 C 0.55662 0.37229 0.92390
 H1618 H 0.55117 0.38840 0.93090
 C1619 C 0.57117 0.33103 0.90498
 C1620 C 0.43178 0.62863 0.94457
 H1621 H 0.43813 0.61200 0.94885
 C1622 C 0.41455 0.67130 0.93289
 C1623 C 0.35982 0.55434 0.94932
 H1624 H 0.37690 0.54879 0.95349
 C1625 C 0.31629 0.56998 0.93759
 C1626 C 0.62974 0.44692 0.92554
 H1627 H 0.61360 0.45224 0.93283
 C1628 C 0.67115 0.43269 0.90591
 O1629 O 0.52912 0.41433 1.11194
 O1630 O 0.53229 0.38680 1.13757
 C1631 C 0.53858 0.40590 1.12986
 C1632 C 0.55744 0.41849 1.14116
 C1633 C 0.56671 0.41175 1.16274
 H1634 H 0.55942 0.39748 1.17182
 O1635 O 0.48132 0.57618 1.11934
 O1636 O 0.48229 0.60159 1.14754
 C1637 C 0.47469 0.58315 1.13920
 C1638 C 0.45752 0.57002 1.15243
 C1639 C 0.45110 0.57683 1.17494
 H1640 H 0.45941 0.59118 1.18306
 O1641 O 0.39157 0.51415 1.09263
 O1642 O 0.36591 0.51233 1.12068
 C1643 C 0.37309 0.52098 1.10178
 C1644 C 0.36017 0.53953 1.09061
 C1645 C 0.33905 0.54643 1.09969
 H1646 H 0.33186 0.53774 1.11461
 O1647 O 0.61471 0.47616 1.07360
 O1648 O 0.64366 0.47647 1.09812
 C1649 C 0.63407 0.46870 1.07991
 C1650 C 0.64528 0.45057 1.06609
 C1651 C 0.66668 0.44194 1.07271
 H1652 H 0.67544 0.44888 1.08775
 O1653 O 0.58220 0.38876 1.00827
 O1654 O 0.60902 0.36290 1.00562
 C1655 C 0.59101 0.37039 1.01518
 C1656 C 0.58078 0.35797 1.03508
 C1657 C 0.58940 0.33679 1.04150
 H1658 H 0.60289 0.32915 1.03128
 O1659 O 0.41632 0.60697 1.03037
 O1660 O 0.38915 0.63254 1.03266
 C1661 C 0.40840 0.62510 1.03902
 C1662 C 0.42134 0.63752 1.05701
 C1663 C 0.41494 0.65945 1.06314
 H1664 H 0.40105 0.66755 1.05393
 O1665 O 0.42466 0.46960 1.12177
 O1666 O 0.39908 0.46778 1.14986
 C1667 C 0.41733 0.46070 1.14053
 C1668 C 0.42975 0.44135 1.15091
 C1669 C 0.42206 0.43094 1.17156
 H1670 H 0.40774 0.43822 1.18068
 O1671 O 0.58566 0.51958 1.10908
 O1672 O 0.61481 0.52006 1.13335
 C1673 C 0.59544 0.52745 1.12721
 C1674 C 0.58443 0.54572 1.14096
 C1675 C 0.59421 0.55344 1.16193
 H1676 H 0.60956 0.54554 1.16847
 O1677 O 0.48455 0.38347 1.08064
 O1678 O 0.48733 0.35544 1.10575
 C1679 C 0.47822 0.36421 1.08776
 C1680 C 0.45989 0.35225 1.07499
 C1681 C 0.45298 0.33044 1.08155
 H1682 H 0.46137 0.32193 1.09589
 O1683 O 0.52182 0.61021 1.08555
 O1684 O 0.52298 0.63582 1.11357
 C1685 C 0.52941 0.62871 1.09365
 C1686 C 0.54609 0.64177 1.07977
 C1687 C 0.55377 0.66307 1.08735
 H1688 H 0.54707 0.67039 1.10329
 O1689 O 0.39296 0.41434 1.02279
 O1690 O 0.36715 0.38733 1.02357
 C1691 C 0.37520 0.40570 1.03163
 C1692 C 0.36380 0.41683 1.05166
 C1693 C 0.34231 0.40937 1.05871
 H1694 H 0.33394 0.39597 1.04905
 O1695 O 0.60599 0.58458 1.01429
 O1696 O 0.63203 0.61138 1.01479
 C1697 C 0.62475 0.59235 1.02183
 C1698 C 0.63816 0.57906 1.03893
 C1699 C 0.66036 0.58575 1.04502
 H1700 H 0.66783 0.60066 1.03726
 O1701 O 0.52556 0.57856 1.11630
 O1702 O 0.52685 0.60387 1.14457
 C1703 C 0.53464 0.58615 1.13487
 C1704 C 0.55478 0.57447 1.14476
 C1705 C 0.56485 0.58194 1.16572
 H1706 H 0.55699 0.59565 1.17523
 O1707 O 0.48479 0.41216 1.11477
 O1708 O 0.48760 0.38436 1.14012
 C1709 C 0.47839 0.40267 1.13355
 C1710 C 0.45957 0.41280 1.14737
 C1711 C 0.45159 0.40254 1.16794
 H1712 H 0.45979 0.38738 1.17427
 O1713 O 0.61193 0.52028 1.07267
 O1714 O 0.64116 0.52049 1.09686
 C1715 C 0.63102 0.52823 1.07892
 C1716 C 0.64139 0.54712 1.06582
 C1717 C 0.66377 0.55360 1.07084
 H1718 H 0.67376 0.54406 1.08330
 O1719 O 0.39383 0.47037 1.08952
 O1720 O 0.36792 0.46839 1.11730
 C1721 C 0.37571 0.46182 1.09764
 C1722 C 0.36392 0.44385 1.08413
 C1723 C 0.34244 0.43578 1.09113
 H1724 H 0.33415 0.44318 1.10619
 O1725 O 0.57462 0.61523 1.01723
 O1726 O 0.60045 0.64223 1.01730
 C1727 C 0.58254 0.63344 1.02569
 C1728 C 0.57141 0.64420 1.04601
 C1729 C 0.57841 0.66562 1.05349
 H1730 H 0.59112 0.67479 1.04358
 O1731 O 0.42420 0.38368 1.01926
 O1732 O 0.39848 0.35659 1.01992
 C1733 C 0.41725 0.36479 1.02689
 C1734 C 0.43064 0.35248 1.04460
 C1735 C 0.42446 0.33050 1.05091
 H1736 H 0.41055 0.32213 1.04195
 O1737 O 0.58571 0.47545 1.10785
 O1738 O 0.61461 0.47605 1.13244
 C1739 C 0.59558 0.46796 1.12598
 C1740 C 0.58510 0.44923 1.13924
 C1741 C 0.59393 0.44254 1.16090
 H1742 H 0.60810 0.45171 1.16848
 O1743 O 0.42451 0.51387 1.12264
 O1744 O 0.39905 0.51238 1.15088
 C1745 C 0.41695 0.52100 1.14208
 C1746 C 0.42890 0.53995 1.15394
 C1747 C 0.42225 0.54753 1.17628
 H1748 H 0.40865 0.53902 1.18548
 O1749 O 0.47791 0.60897 1.08962
 O1750 O 0.47875 0.63472 1.11748
 C1751 C 0.47015 0.62697 1.09873
 C1752 C 0.45085 0.63854 1.08707
 C1753 C 0.44367 0.66041 1.09361
 H1754 H 0.45229 0.66932 1.10759
 O1755 O 0.52844 0.38597 1.07738
 O1756 O 0.53148 0.35813 1.10267
 C1757 C 0.53740 0.36745 1.08361
 C1758 C 0.55503 0.35673 1.06870
 C1759 C 0.56396 0.33556 1.07476
 H1760 H 0.55713 0.32687 1.08979
 O1761 O 0.61253 0.42026 1.00781
 O1762 O 0.63949 0.39450 1.00529
 C1763 C 0.63150 0.41236 1.01450
 C1764 C 0.64410 0.42355 1.03370
 C1765 C 0.66565 0.41565 1.04019
 H1766 H 0.67349 0.40202 1.03042
 O1767 O 0.38632 0.57489 1.03228
 O1768 O 0.35918 0.60044 1.03494
 C1769 C 0.36823 0.58216 1.04183
 C1770 C 0.35785 0.56946 1.06141
 C1771 C 0.33674 0.57607 1.07070
 H1772 H 0.32765 0.58982 1.06257
 Cu1773 Cu 0.50644 0.40183 1.09378
 Cu1774 Cu 0.51004 0.36842 1.12412
 Cu1775 Cu 0.50151 0.59096 1.09992
 Cu1776 Cu 0.50280 0.62147 1.13373
 Cu1777 Cu 0.40928 0.40221 0.99814
 Cu1778 Cu 0.37837 0.36970 0.99929
 Cu1779 Cu 0.59375 0.40770 0.98533
 Cu1780 Cu 0.62605 0.37674 0.98240
 Cu1781 Cu 0.40231 0.58865 1.00831
 Cu1782 Cu 0.36969 0.61934 1.01148
 Cu1783 Cu 0.58700 0.59844 0.99295
 Cu1784 Cu 0.61810 0.63076 0.99346
 Cu1785 Cu 0.41125 0.49218 1.10396
 Cu1786 Cu 0.38049 0.49001 1.13754
 Cu1787 Cu 0.59660 0.49775 1.08840
 Cu1788 Cu 0.63148 0.49835 1.11759
 C1789 C 0.56673 0.43728 1.12969
 H1790 H 0.56001 0.44231 1.11285
 C1791 C 0.58500 0.42381 1.17273
 C1792 C 0.44657 0.55136 1.14221
 H1793 H 0.45142 0.54609 1.12476
 C1794 C 0.43340 0.56596 1.18682
 C1795 C 0.36935 0.55110 1.07140
 H1796 H 0.38575 0.54609 1.06450
 C1797 C 0.32731 0.56481 1.09005
 C1798 C 0.63415 0.44120 1.04656
 H1799 H 0.61745 0.44729 1.04167
 C1800 C 0.67689 0.42443 1.05977
 C1801 C 0.56346 0.36777 1.04872
 H1802 H 0.55693 0.38425 1.04411
 C1803 C 0.58136 0.32559 1.06141
 C1804 C 0.43946 0.62731 1.06878
 H1805 H 0.44439 0.61033 1.06395
 C1806 C 0.42576 0.67096 1.08138
 C1807 C 0.44861 0.43225 1.13917
 H1808 H 0.45442 0.44002 1.12313
 C1809 C 0.43275 0.41133 1.18015
 C1810 C 0.56465 0.55626 1.13262
 H1811 H 0.55721 0.55060 1.11630
 C1812 C 0.58474 0.57164 1.17433
 C1813 C 0.44861 0.36309 1.05645
 H1814 H 0.45335 0.38012 1.05166
 C1815 C 0.43524 0.31955 1.06949
 C1816 C 0.55500 0.63253 1.05903
 H1817 H 0.54967 0.61590 1.05336
 C1818 C 0.56998 0.67503 1.07420
 C1819 C 0.37443 0.43427 1.06428
 H1820 H 0.39112 0.44003 1.05894
 C1821 C 0.33160 0.41850 1.07839
 C1822 C 0.62878 0.55969 1.04948
 H1823 H 0.61147 0.55473 1.04546
 C1824 C 0.67317 0.57292 1.06083
 C1825 C 1.13611 1.14718 1.30927
 C1826 C 1.14088 1.12682 1.29773
 C1827 C 1.12796 1.11913 1.27685
 C1828 C 1.12592 1.09594 1.27236
 C1829 C 1.11429 1.08813 1.25255
 C1830 C 1.10478 1.10344 1.23651
 C1831 C 1.10670 1.12664 1.24112
 C1832 C 1.11826 1.13444 1.26096
 C1833 C 1.09270 1.09594 1.21501
 C1834 C 1.09666 1.07509 1.20419
 H1835 H 1.15330 1.11527 1.30478
 H1836 H 1.13315 1.08379 1.28436
 H1837 H 1.11259 1.07012 1.25010
 H1838 H 1.09956 1.13882 1.22909
 H1839 H 1.12001 1.15245 1.26347
 H1840 H 1.08167 1.10807 1.20665
 H1841 H 1.12150 1.15664 1.30320
 H1842 H 1.10948 1.06413 1.21158
 C1843 C 1.12709 0.62868 0.81168
 C1844 C 1.11930 0.64018 0.79203
 C1845 C 1.11253 0.62814 0.77042
 C1846 C 1.09689 0.63815 0.75515
 C1847 C 1.09061 0.62727 0.73440
 C1848 C 1.10004 0.60618 0.72847
 C1849 C 1.11622 0.59654 0.74339
 C1850 C 1.12239 0.60733 0.76417
 C1851 C 1.09410 0.59427 0.70654
 C1852 C 1.07312 0.59700 0.69552
 H1853 H 1.11886 0.65843 0.79206
 H1854 H 1.08951 0.65441 0.75930
 H1855 H 1.07879 0.63569 0.72286
 H1856 H 1.12408 0.58056 0.73897
 H1857 H 1.13529 0.59956 0.77496
 H1858 H 1.10661 0.58294 0.69915
 H1859 H 1.12663 0.61042 0.81166
 H1860 H 1.06061 0.60800 0.70348
 C1861 C 0.65464 1.14128 0.80430
 C1862 C 0.63764 1.14739 0.78829
 C1863 C 0.63059 1.13309 0.76810
 C1864 C 0.60947 1.13733 0.75756
 C1865 C 0.60218 1.12474 0.73825
 C1866 C 0.61587 1.10742 0.72892
 C1867 C 0.63721 1.10343 0.73918
 C1868 C 0.64453 1.11608 0.75853
 C1869 C 0.60900 1.09411 0.70793
 C1870 C 0.58652 1.09272 0.70003
 H1871 H 0.62824 1.16284 0.79076
 H1872 H 0.59854 1.15057 0.76423
 H1873 H 0.58605 1.12916 0.73046
 H1874 H 0.64833 1.09055 0.73211
 H1875 H 0.66129 1.11273 0.76547
 H1876 H 0.62223 1.08563 0.69812
 H1877 H 0.66253 1.12494 0.80200
 H1878 H 0.57320 1.10079 0.71001
 C1879 C 0.63560 0.64808 1.30343
 C1880 C 0.64468 0.63503 1.28526
 C1881 C 0.63100 0.62613 1.26545
 C1882 C 0.63958 0.60791 1.25245
 C1883 C 0.62757 0.59929 1.23329
 C1884 C 0.60662 0.60880 1.22662
 C1885 C 0.59822 0.62726 1.23937
 C1886 C 0.61021 0.63585 1.25858
 C1887 C 0.59367 0.60076 1.20591
 C1888 C 0.59631 0.57928 1.19606
 H1889 H 0.66257 0.63085 1.28538
 H1890 H 0.65573 0.60035 1.25709
 H1891 H 0.63513 0.58560 1.22350
 H1892 H 0.58234 0.63517 1.23438
 H1893 H 0.60333 0.65041 1.26751
 H1894 H 0.58172 0.61245 1.19824
 H1895 H 0.61765 0.65201 1.30327
 H1896 H 0.60807 0.56759 1.20406
 C1897 C 0.84536 0.85832 1.29788
 C1898 C 0.86102 0.85231 1.28050
 C1899 C 0.86922 0.86780 1.26209
 C1900 C 0.88082 0.85846 1.24295
 C1901 C 0.89029 0.87229 1.22587
 C1902 C 0.88859 0.89587 1.22769
 C1903 C 0.87645 0.90527 1.24642
 C1904 C 0.86702 0.89141 1.26364
 C1905 C 0.89901 0.91080 1.21004
 C1906 C 0.91872 0.90455 1.19802
 H1907 H 0.86746 0.83529 1.27958
 H1908 H 0.88270 0.84035 1.24126
 H1909 H 0.89879 0.86441 1.21119
 H1910 H 0.87478 0.92341 1.24805
 H1911 H 0.85865 0.89936 1.27832
 H1912 H 0.89126 0.92708 1.20723
 H1913 H 0.83688 0.87444 1.29639
 H1914 H 0.92728 0.88923 1.20335
 C1915 C 0.86545 0.35627 0.80879
 C1916 C 0.85697 0.37224 0.79296
 C1917 C 0.86994 0.38128 0.77267
 C1918 C 0.86216 0.40107 0.76182
 C1919 C 0.87332 0.40991 0.74225
 C1920 C 0.89261 0.39907 0.73295
 C1921 C 0.90026 0.37917 0.74366
 C1922 C 0.88914 0.37036 0.76327
 C1923 C 0.90454 0.40719 0.71159
 C1924 C 0.90251 0.42904 0.70248
 H1925 H 0.83992 0.37866 0.79533
 H1926 H 0.84724 0.40969 0.76844
 H1927 H 0.86634 0.42487 0.73424
 H1928 H 0.91487 0.37026 0.73671
 H1929 H 0.89539 0.35474 0.77052
 H1930 H 0.91526 0.39510 0.70272
 H1931 H 0.88244 0.34974 0.80631
 H1932 H 0.89178 0.44111 0.71140
 C1933 C 0.36088 0.86354 0.80391
 C1934 C 0.37348 0.85366 0.78584
 C1935 C 0.38421 0.86628 0.76641
 C1936 C 0.40054 0.85516 0.75271
 C1937 C 0.41116 0.86617 0.73415
 C1938 C 0.40573 0.88860 0.72878
 C1939 C 0.38913 0.89973 0.74228
 C1940 C 0.37849 0.88869 0.76090
 C1941 C 0.41715 0.89922 0.70851
 C1942 C 0.41696 0.92235 0.70382
 H1943 H 0.37608 0.83560 0.78597
 H1944 H 0.40520 0.83785 0.75643
 H1945 H 0.42372 0.85709 0.72393
 H1946 H 0.38382 0.91673 0.73834
 H1947 H 0.36554 0.89773 0.77048
 H1948 H 0.42589 0.88805 0.69652
 H1949 H 0.35725 0.88139 0.80364
 H1950 H 0.40786 0.93379 0.71518
 C1951 C 0.35129 0.35823 1.30594
 C1952 C 0.37123 0.35324 1.29343
 C1953 C 0.37948 0.36688 1.27335
 C1954 C 0.40271 0.36642 1.26763
 C1955 C 0.41101 0.37824 1.24825
 C1956 C 0.39612 0.39051 1.23379
 C1957 C 0.37290 0.39109 1.23963
 C1958 C 0.36462 0.37936 1.25910
 C1959 C 0.40400 0.40310 1.21276
 C1960 C 0.42493 0.39936 1.20162
 H1961 H 0.38203 0.33949 1.29885
 H1962 H 0.41454 0.35695 1.27831
 H1963 H 0.42909 0.37779 1.24493
 H1964 H 0.36100 0.40038 1.22887
 H1965 H 0.34653 0.37967 1.26252
 H1966 H 0.39209 0.41487 1.20518
 H1967 H 0.34268 0.37385 1.30178
 H1968 H 0.43582 0.38608 1.20808
 C1969 C 0.87152 1.14584 0.69881
 C1970 C 0.86463 1.12907 0.71452
 C1971 C 0.87841 1.12180 0.73487
 C1972 C 0.87346 1.10089 0.74509
 C1973 C 0.88558 1.09337 0.76455
 C1974 C 0.90311 1.10661 0.77425
 C1975 C 0.90780 1.12772 0.76432
 C1976 C 0.89560 1.13529 0.74485
 C1977 C 0.91586 1.09953 0.79537
 C1978 C 0.91678 1.07720 0.80301
 H1979 H 0.84898 1.11996 0.71174
 H1980 H 0.86004 1.09033 0.73806
 H1981 H 0.88063 1.07745 0.77215
 H1982 H 0.92087 1.13846 0.77174
 H1983 H 0.89943 1.15188 0.73815
 H1984 H 0.92424 1.11253 0.80555
 H1985 H 0.88799 1.15353 0.70161
 H1986 H 0.90876 1.06407 0.79276
 C1987 C 0.85156 0.63272 0.18669
 C1988 C 0.87268 0.63476 0.19787
 C1989 C 0.87947 0.62081 0.21829
 C1990 C 0.89720 0.62852 0.23266
 C1991 C 0.90433 0.61594 0.25194
 C1992 C 0.89405 0.59510 0.25716
 C1993 C 0.87628 0.58737 0.24286
 C1994 C 0.86919 0.59993 0.22349
 C1995 C 0.90098 0.58159 0.27777
 C1996 C 0.92293 0.58270 0.28709
 H1997 H 0.88476 0.64732 0.19221
 H1998 H 0.90542 0.64451 0.22913
 H1999 H 0.91756 0.62288 0.26297
 H2000 H 0.86807 0.57140 0.24652
 H2001 H 0.85597 0.59292 0.21252
 H2002 H 0.88836 0.57080 0.28576
 H2003 H 0.83954 0.62080 0.19392
 H2004 H 0.93549 0.59290 0.27819
 C2005 C 0.34965 1.15522 0.20895
 C2006 C 0.35322 1.13238 0.21339
 C2007 C 0.36613 1.12459 0.23411
 C2008 C 0.37811 1.10417 0.23279
 C2009 C 0.39163 1.09700 0.25146
 C2010 C 0.39326 1.11009 0.27195
 C2011 C 0.38111 1.13037 0.27338
 C2012 C 0.36746 1.13745 0.25481
 C2013 C 0.40723 1.10300 0.29213
 C2014 C 0.41047 1.08038 0.29770
 H2015 H 0.34915 1.12017 0.19990
 H2016 H 0.37743 1.09398 0.21705
 H2017 H 0.40112 1.08147 0.24961
 H2018 H 0.38192 1.14062 0.28908
 H2019 H 0.35792 1.15292 0.25686
 H2020 H 0.41273 1.11580 0.30446
 H2021 H 0.35603 1.16757 0.22128
 H2022 H 0.40245 1.06753 0.28701
 C2023 C 0.34170 0.65937 0.70847
 C2024 C 0.34934 0.63724 0.71098
 C2025 C 0.36181 0.62919 0.73197
 C2026 C 0.36455 0.60591 0.73533
 C2027 C 0.37682 0.59769 0.75448
 C2028 C 0.38660 0.61268 0.77080
 C2029 C 0.38430 0.63593 0.76713
 C2030 C 0.37214 0.64413 0.74798
 C2031 C 0.39951 0.60493 0.79160
 C2032 C 0.39748 0.58329 0.80096
 H2033 H 0.34700 0.62558 0.69656
 H2034 H 0.35725 0.59402 0.72302
 H2035 H 0.37884 0.57965 0.75610
 H2036 H 0.39197 0.64787 0.77916
 H2037 H 0.37143 0.66219 0.74569
 H2038 H 0.40951 0.61738 0.80088
 H2039 H 0.34359 0.67125 0.72270
 H2040 H 0.38569 0.57155 0.79300
 C2041 C 1.14537 0.86727 0.69627
 C2042 C 1.12319 0.86765 0.70500
 C2043 C 1.11649 0.88007 0.72641
 C2044 C 1.09683 0.87319 0.73827
 C2045 C 1.08992 0.88415 0.75869
 C2046 C 1.10236 0.90261 0.76751
 C2047 C 1.12198 0.90958 0.75558
 C2048 C 1.12894 0.89855 0.73515
 C2049 C 1.09591 0.91427 0.78947
 C2050 C 1.07393 0.91352 0.79869
 H2051 H 1.11012 0.85790 0.69630
 H2052 H 1.08699 0.85897 0.73196
 H2053 H 1.07517 0.87765 0.76771
 H2054 H 1.13189 0.92370 0.76203
 H2055 H 1.14385 0.90481 0.72621
 H2056 H 1.10909 0.92334 0.79880
 H2057 H 1.15843 0.87715 0.70481
 H2058 H 1.06067 0.90483 0.78913
 C2059 C 1.15352 0.34719 0.21108
 C2060 C 1.13139 0.34393 0.21929
 C2061 C 1.12334 0.35664 0.24004
 C2062 C 1.10140 0.36587 0.24008
 C2063 C 1.09432 0.37988 0.25842
 C2064 C 1.10898 0.38455 0.27734
 C2065 C 1.13072 0.37484 0.27749
 C2066 C 1.13779 0.36091 0.25916
 C2067 C 1.10227 0.39933 0.29713
 C2068 C 1.07965 0.40272 0.30350
 H2069 H 1.11898 0.33492 0.20889
 H2070 H 1.09002 0.36292 0.22548
 H2071 H 1.07761 0.38741 0.25732
 H2072 H 1.14228 0.37799 0.29190
 H2073 H 1.15465 0.35360 0.25990
 H2074 H 1.11555 0.40577 0.30847
 H2075 H 1.16410 0.35870 0.22105
 H2076 H 1.06639 0.39421 0.29376
 C2077 C 0.65018 0.84379 0.21245
 C2078 C 0.64256 0.86595 0.21472
 C2079 C 0.62788 0.87337 0.23437
 C2080 C 0.62723 0.89627 0.24041
 C2081 C 0.61322 0.90386 0.25857
 C2082 C 0.59916 0.88867 0.27083
 C2083 C 0.59967 0.86579 0.26459
 C2084 C 0.61371 0.85821 0.24649
 C2085 C 0.58480 0.89572 0.29092
 C2086 C 0.57930 0.91813 0.29569
 H2087 H 0.64667 0.87805 0.20120
 H2088 H 0.63786 0.90830 0.23127
 H2089 H 0.61400 0.92153 0.26313
 H2090 H 0.58907 0.85372 0.27370
 H2091 H 0.61301 0.84054 0.24182
 H2092 H 0.57934 0.88284 0.30311
 H2093 H 0.64658 0.83182 0.22620
 H2094 H 0.58437 0.93125 0.28369
 C2095 C 0.63178 0.37535 0.68478
 C2096 C 0.61942 0.36742 0.70381
 C2097 C 0.61272 0.38245 0.72314
 C2098 C 0.59257 0.37800 0.73529
 C2099 C 0.58566 0.39213 0.75348
 C2100 C 0.59897 0.41090 0.75991
 C2101 C 0.61957 0.41484 0.74836
 C2102 C 0.62639 0.40080 0.73006
 C2103 C 0.59239 0.42568 0.77952
 C2104 C 0.56975 0.42884 0.78573
 H2105 H 0.61425 0.34992 0.70463
 H2106 H 0.58208 0.36366 0.73058
 H2107 H 0.57019 0.38797 0.76275
 H2108 H 0.63035 0.42883 0.75348
 H2109 H 0.64255 0.40411 0.72168
 H2110 H 0.60579 0.43328 0.78989
 H2111 H 0.63624 0.39306 0.68413
 H2112 H 0.55648 0.42168 0.77487
 C2113 C 1.30263 1.15069 1.13460
 C2114 C 1.28603 1.13566 1.14264
 C2115 C 1.26748 1.12642 1.12779
 C2116 C 1.25595 1.10705 1.13539
 C2117 C 1.23770 1.09826 1.12259
 C2118 C 1.23050 1.10870 1.10179
 C2119 C 1.24184 1.12823 1.09432
 C2120 C 1.26017 1.13700 1.10710
 C2121 C 1.21045 1.10053 1.08839
 C2122 C 1.20259 1.07829 1.08953
 H2123 H 1.28628 1.13042 1.16073
 H2124 H 1.26094 1.09878 1.15146
 H2125 H 1.22892 1.08371 1.12951
 H2126 H 1.23638 1.13685 1.07861
 H2127 H 1.26801 1.15238 1.10099
 H2128 H 1.20156 1.11267 1.07769
 H2129 H 1.30245 1.15570 1.11644
 H2130 H 1.21213 1.06621 1.09972
 C2131 C 1.29612 0.65815 0.63425
 C2132 C 1.28297 0.63893 0.63923
 C2133 C 1.26371 0.63066 0.62455
 C2134 C 1.24829 0.61536 0.63454
 C2135 C 1.22971 0.60717 0.62183
 C2136 C 1.22616 0.61386 0.59852
 C2137 C 1.24152 0.62917 0.58846
 C2138 C 1.26019 0.63738 0.60120
 C2139 C 1.20620 0.60588 0.58472
 C2140 C 1.19479 0.58567 0.58962
 H2141 H 1.28559 0.62999 0.65539
 H2142 H 1.25042 0.60993 0.65248
 H2143 H 1.21793 0.59606 0.63062
 H2144 H 1.23917 0.63468 0.57057
 H2145 H 1.27181 0.64874 0.59254
 H2146 H 1.20059 0.61634 0.57040
 H2147 H 1.29237 0.66725 0.61836
 H2148 H 1.20157 0.57499 0.60325
 C2149 C 0.80500 1.14114 0.64738
 C2150 C 0.79198 1.14436 0.62712
 C2151 C 0.77154 1.13044 0.62143
 C2152 C 0.75571 1.13868 0.60518
 C2153 C 0.73650 1.12600 0.59902
 C2154 C 0.73276 1.10452 0.60879
 C2155 C 0.74846 1.09631 0.62514
 C2156 C 0.76775 1.10893 0.63121
 C2157 C 0.71250 1.09065 0.60262
 C2158 C 0.70194 1.09219 0.58077
 H2159 H 0.79650 1.15747 0.61489
 H2160 H 0.75811 1.15512 0.59734
 H2161 H 0.72446 1.13328 0.58690
 H2162 H 0.74602 1.07984 0.63292
 H2163 H 0.77977 1.10143 0.64317
 H2164 H 0.70622 1.07883 0.61545
 H2165 H 0.79894 1.12868 0.65967
 H2166 H 0.70954 1.10327 0.56794
 C2167 C 0.79299 0.64513 1.12589
 C2168 C 0.78120 0.62499 1.12920
 C2169 C 0.76032 0.61931 1.11598
 C2170 C 0.75453 0.59655 1.11313
 C2171 C 0.73541 0.59038 1.10014
 C2172 C 0.72165 0.60694 1.08960
 C2173 C 0.72705 0.62974 1.09310
 C2174 C 0.74614 0.63591 1.10619
 C2175 C 0.70088 0.60118 1.07619
 C2176 C 0.69621 0.57952 1.06800
 H2177 H 0.78858 0.61196 1.14002
 H2178 H 0.76493 0.58346 1.12085
 H2179 H 0.73144 0.57264 1.09890
 H2180 H 0.71642 0.64284 1.08571
 H2181 H 0.74946 0.65368 1.10880
 H2182 H 0.68821 0.61423 1.07372
 H2183 H 0.78675 0.65701 1.11308
 H2184 H 0.70851 0.56614 1.07003
 C2185 C 1.30395 0.85323 0.86735
 C2186 C 1.29309 0.87409 0.86493
 C2187 C 1.27233 0.87994 0.87827
 C2188 C 1.26802 0.90261 0.88373
 C2189 C 1.24832 0.90872 0.89588
 C2190 C 1.23238 0.89222 0.90248
 C2191 C 1.23683 0.86953 0.89730
 C2192 C 1.25649 0.86343 0.88512
 C2193 C 1.21089 0.89817 0.91445
 C2194 C 1.19964 0.91848 0.91017
 H2195 H 1.30053 0.88724 0.85436
 H2196 H 1.28001 0.91561 0.87874
 H2197 H 1.24574 0.92631 0.90022
 H2198 H 1.22476 0.85655 0.90216
 H2199 H 1.25890 0.84586 0.88060
 H2200 H 1.20288 0.88529 0.92495
 H2201 H 1.29734 0.84185 0.88049
 H2202 H 1.20700 0.93000 0.89761
 C2203 C 1.29281 0.34701 0.36650
 C2204 C 1.28430 0.36901 0.36739
 C2205 C 1.26465 0.37503 0.38244
 C2206 C 1.26338 0.39673 0.39214
 C2207 C 1.24498 0.40291 0.40628
 C2208 C 1.22715 0.38759 0.41060
 C2209 C 1.22859 0.36578 0.40115
 C2210 C 1.24703 0.35958 0.38710
 C2211 C 1.20648 0.39404 0.42395
 C2212 C 1.19858 0.41621 0.42459
 H2213 H 1.29314 0.38260 0.35869
 H2214 H 1.27679 0.40888 0.38896
 H2215 H 1.24488 0.41966 0.41381
 H2216 H 1.21508 0.35368 0.40412
 H2217 H 1.24713 0.34287 0.37945
 H2218 H 1.19565 0.38074 0.43061
 H2219 H 1.28493 0.33478 0.37800
 H2220 H 1.20822 0.42912 0.41565
 C2221 C 0.79676 0.84571 0.36714
 C2222 C 0.79021 0.86824 0.36980
 C2223 C 0.76941 0.87588 0.38217
 C2224 C 0.76167 0.89785 0.37797
 C2225 C 0.74176 0.90583 0.38837
 C2226 C 0.72909 0.89201 0.40355
 C2227 C 0.73708 0.87011 0.40809
 C2228 C 0.75702 0.86210 0.39759
 C2229 C 0.70728 0.89934 0.41438
 C2230 C 0.69825 0.92107 0.41231
 H2231 H 0.80032 0.88116 0.36143
 H2232 H 0.77086 0.90885 0.36616
 H2233 H 0.73646 0.92269 0.38393
 H2234 H 0.72778 0.85908 0.41976
 H2235 H 0.76258 0.84522 0.40175
 H2236 H 0.69752 0.88669 0.42360
 H2237 H 0.78772 0.83254 0.37630
 H2238 H 0.70739 0.93382 0.40273
 C2239 C 0.80138 0.35890 0.86712
 C2240 C 0.79004 0.37798 0.85872
 C2241 C 0.76950 0.38698 0.87053
 C2242 C 0.75237 0.39715 0.85716
 C2243 C 0.73241 0.40499 0.86775
 C2244 C 0.72940 0.40322 0.89213
 C2245 C 0.74677 0.39339 0.90550
 C2246 C 0.76664 0.38547 0.89489
 C2247 C 0.70830 0.41066 0.90415
 C2248 C 0.69258 0.42555 0.89431
 H2249 H 0.79478 0.38547 0.84222
 H2250 H 0.75417 0.39851 0.83836
 H2251 H 0.71930 0.41189 0.85663
 H2252 H 0.74497 0.39184 0.92428
 H2253 H 0.77979 0.37834 0.90586
 H2254 H 0.70571 0.40486 0.92186
 H2255 H 0.79407 0.35067 0.88225
 H2256 H 0.69648 0.43326 0.87768
 C2257 C 0.69908 0.84752 1.13940
 C2258 C 0.71564 0.86257 1.14759
 C2259 C 0.73475 0.87123 1.13308
 C2260 C 0.74693 0.89015 1.14100
 C2261 C 0.76573 0.89826 1.12858
 C2262 C 0.77287 0.88758 1.10782
 C2263 C 0.76082 0.86855 1.09999
 C2264 C 0.74199 0.86045 1.11240
 C2265 C 0.79343 0.89490 1.09467
 C2266 C 0.80299 0.91645 1.09665
 H2267 H 0.71505 0.86803 1.16564
 H2268 H 0.74202 0.89857 1.15706
 H2269 H 0.77492 0.91246 1.13577
 H2270 H 0.76614 0.85975 1.08429
 H2271 H 0.73369 0.84539 1.10599
 H2272 H 0.80131 0.88260 1.08329
 H2273 H 0.69950 0.84223 1.12130
 H2274 H 0.79467 0.92879 1.10767
 C2275 C 0.69457 0.36153 0.62241
 C2276 C 0.70629 0.38098 0.62870
 C2277 C 0.72698 0.38859 0.61659
 C2278 C 0.73798 0.40802 0.62483
 C2279 C 0.75752 0.41598 0.61386
 C2280 C 0.76634 0.40472 0.59420
 C2281 C 0.75554 0.38507 0.58614
 C2282 C 0.73594 0.37707 0.59717
 C2283 C 0.78726 0.41242 0.58241
 C2284 C 0.79510 0.43462 0.58364
 H2285 H 0.70033 0.39118 0.64314
 H2286 H 0.73152 0.41702 0.63996
 H2287 H 0.76585 0.43064 0.62121
 H2288 H 0.76220 0.37596 0.57120
 H2289 H 0.72785 0.36196 0.59049
 H2290 H 0.79687 0.39992 0.57278
 H2291 H 0.68306 0.35798 0.62934
 H2292 H 0.78544 0.44717 0.59314
 C2293 C 0.19987 0.85543 0.63029
 C2294 C 0.21760 0.86780 0.64043
 C2295 C 0.23785 0.87599 0.62759
 C2296 C 0.25079 0.89338 0.63766
 C2297 C 0.27010 0.90173 0.62641
 C2298 C 0.27694 0.89280 0.60473
 C2299 C 0.26434 0.87505 0.59488
 C2300 C 0.24493 0.86674 0.60610
 C2301 C 0.29762 0.90088 0.59254
 C2302 C 0.30655 0.92255 0.59573
 H2303 H 0.21651 0.87228 0.65874
 H2304 H 0.24594 0.90057 0.65437
 H2305 H 0.27982 0.91480 0.63507
 H2306 H 0.26951 0.86760 0.57840
 H2307 H 0.23591 0.85286 0.59805
 H2308 H 0.30582 0.88919 0.58072
 H2309 H 0.20101 0.85021 0.61221
 H2310 H 0.29774 0.93417 0.60720
 C2311 C 0.21234 0.35503 1.15399
 C2312 C 0.22274 0.35415 1.13203
 C2313 C 0.24258 0.36842 1.12605
 C2314 C 0.25716 0.36133 1.10811
 C2315 C 0.27607 0.37426 1.10199
 C2316 C 0.28063 0.39477 1.11353
 C2317 C 0.26611 0.40191 1.13146
 C2318 C 0.24707 0.38906 1.13748
 C2319 C 0.30075 0.40853 1.10755
 C2320 C 0.30926 0.40903 1.08485
 H2321 H 0.21679 0.34257 1.11876
 H2322 H 0.25409 0.34556 1.09902
 H2323 H 0.28733 0.36790 1.08854
 H2324 H 0.26928 0.41766 1.14054
 H2325 H 0.23581 0.39563 1.15078
 H2326 H 0.30900 0.41800 1.12135
 H2327 H 0.21986 0.36611 1.16693
 H2328 H 0.29996 0.40019 1.07127
 C2329 C 0.70621 1.14919 0.87242
 C2330 C 0.72252 1.13350 0.86535
 C2331 C 0.74161 1.12614 0.88044
 C2332 C 0.75268 1.10586 0.87502
 C2333 C 0.77115 1.09851 0.88831
 C2334 C 0.77900 1.11133 0.90746
 C2335 C 0.76825 1.13185 0.91262
 C2336 C 0.74971 1.13920 0.89932
 C2337 C 0.79909 1.10435 0.92133
 C2338 C 0.80592 1.08188 0.92290
 H2339 H 0.72145 1.12623 0.84801
 H2340 H 0.74709 1.09570 0.86033
 H2341 H 0.77956 1.08311 0.88304
 H2342 H 0.77428 1.14227 0.92693
 H2343 H 0.74227 1.15536 0.90358
 H2344 H 0.80906 1.11737 0.92982
 H2345 H 0.70717 1.15632 0.88982
 H2346 H 0.79541 1.06894 0.91501
 C2347 C 0.70600 0.65124 0.35476
 C2348 C 0.71372 0.62915 0.35219
 C2349 C 0.73538 0.62176 0.36285
 C2350 C 0.73726 0.59970 0.37136
 C2351 C 0.75692 0.59280 0.38309
 C2352 C 0.77525 0.60781 0.38616
 C2353 C 0.77354 0.62971 0.37716
 C2354 C 0.75390 0.63660 0.36546
 C2355 C 0.79622 0.60134 0.39877
 C2356 C 0.80371 0.57909 0.40012
 H2357 H 0.70252 0.61647 0.34486
 H2358 H 0.72320 0.58799 0.36957
 H2359 H 0.75739 0.57592 0.39021
 H2360 H 0.78750 0.64151 0.37910
 H2361 H 0.75330 0.65353 0.35847
 H2362 H 0.80712 0.61468 0.40530
 H2363 H 0.71626 0.66301 0.36474
 H2364 H 0.79428 0.56603 0.39108
 C2365 C 0.20072 1.14816 0.36568
 C2366 C 0.21105 1.12758 0.36044
 C2367 C 0.23168 1.12059 0.37334
 C2368 C 0.23373 1.09830 0.38106
 C2369 C 0.25222 1.09184 0.39489
 C2370 C 0.26937 1.10751 0.40077
 C2371 C 0.26740 1.12974 0.39271
 C2372 C 0.24882 1.13622 0.37907
 C2373 C 0.28964 1.10131 0.41482
 C2374 C 0.29744 1.07919 0.41654
 H2375 H 0.20273 1.11534 0.34929
 H2376 H 0.22062 1.08604 0.37701
 H2377 H 0.25265 1.07470 0.40124
 H2378 H 0.28037 1.14212 0.39683
 H2379 H 0.24788 1.15347 0.37298
 H2380 H 0.30011 1.11480 0.42177
 H2381 H 0.20866 1.15817 0.37934
 H2382 H 0.28828 1.06592 0.40758
 C2383 C 0.18922 0.62373 0.86888
 C2384 C 0.20801 0.63297 0.88032
 C2385 C 0.22759 0.61910 0.88759
 C2386 C 0.24056 0.62600 0.90688
 C2387 C 0.25933 0.61338 0.91406
 C2388 C 0.26554 0.59365 0.90192
 C2389 C 0.25297 0.58713 0.88221
 C2390 C 0.23411 0.59967 0.87512
 C2391 C 0.28574 0.58035 0.90855
 C2392 C 0.29404 0.57980 0.93137
 H2393 H 0.20857 0.65079 0.88432
 H2394 H 0.23614 0.64119 0.91643
 H2395 H 0.26921 0.61948 0.92874
 H2396 H 0.25777 0.57229 0.87228
 H2397 H 0.22506 0.59437 0.85957
 H2398 H 0.29442 0.57118 0.89483
 H2399 H 0.18882 0.60572 0.86571
 H2400 H 0.28488 0.58865 0.94501
 C2401 C 1.15182 1.29839 1.13888
 C2402 C 1.13882 1.28036 1.14722
 C2403 C 1.13119 1.26108 1.13245
 C2404 C 1.11372 1.24715 1.14085
 C2405 C 1.10646 1.22835 1.12805
 C2406 C 1.11653 1.22296 1.10640
 C2407 C 1.13429 1.23662 1.09817
 C2408 C 1.14153 1.25550 1.11096
 C2409 C 1.10964 1.20267 1.09275
 C2410 C 1.08798 1.19312 1.09469
 H2411 H 1.13423 1.28001 1.16553
 H2412 H 1.10574 1.25073 1.15752
 H2413 H 1.09339 1.21778 1.13557
 H2414 H 1.14264 1.23263 1.08179
 H2415 H 1.15558 1.26522 1.10415
 H2416 H 1.12206 1.19510 1.08120
 H2417 H 1.15632 1.29888 1.12056
 H2418 H 1.07555 1.20156 1.10556
 C2419 C 1.13375 0.80270 0.64091
 C2420 C 1.13376 0.79374 0.61828
 C2421 C 1.12069 0.77339 0.61139
 C2422 C 1.12771 0.76127 0.59159
 C2423 C 1.11608 0.74190 0.58444
 C2424 C 1.09679 0.73438 0.59677
 C2425 C 1.08968 0.74657 0.61653
 C2426 C 1.10138 0.76595 0.62372
 C2427 C 1.08434 0.71352 0.59017
 C2428 C 1.08576 0.70370 0.56798
 H2429 H 1.14419 0.80152 0.60498
 H2430 H 1.14255 0.76660 0.58181
 H2431 H 1.12270 0.73269 0.56961
 H2432 H 1.07492 0.74115 0.62637
 H2433 H 1.09498 0.77512 0.63869
 H2434 H 1.07412 0.70546 0.60348
 H2435 H 1.12327 0.79494 0.65418
 H2436 H 1.09566 0.71189 0.55453
 C2437 C 0.62698 1.30529 0.63679
 C2438 C 0.63745 1.28623 0.62734
 C2439 C 0.62475 1.26568 0.62075
 C2440 C 0.63369 1.25176 0.60317
 C2441 C 0.62196 1.23251 0.59594
 C2442 C 0.60105 1.22675 0.60628
 C2443 C 0.59257 1.24013 0.62453
 C2444 C 0.60424 1.25950 0.63168
 C2445 C 0.58827 1.20648 0.59896
 C2446 C 0.58951 1.19794 0.57623
 H2447 H 0.65551 1.28654 0.62366
 H2448 H 0.64969 1.25593 0.59483
 H2449 H 0.62953 1.22203 0.58253
 H2450 H 0.57677 1.23569 0.63312
 H2451 H 0.59729 1.26931 0.64595
 H2452 H 0.57781 1.19820 0.61190
 H2453 H 0.60895 1.30488 0.64059
 H2454 H 0.59960 1.20684 0.56339
 C2455 C 0.64617 0.78288 1.15434
 C2456 C 0.64017 0.77811 1.13126
 C2457 C 0.62581 0.75852 1.12482
 C2458 C 0.61250 0.75968 1.10451
 C2459 C 0.59836 0.74173 1.09811
 C2460 C 0.59755 0.72206 1.11178
 C2461 C 0.61076 0.72093 1.13216
 C2462 C 0.62492 0.73886 1.13854
 C2463 C 0.58366 0.70226 1.10498
 C2464 C 0.57905 0.69711 1.08166
 H2465 H 0.64394 0.79042 1.11785
 H2466 H 0.61278 0.77467 1.09372
 H2467 H 0.58798 0.74346 1.08261
 H2468 H 0.61053 0.70590 1.14290
 H2469 H 0.63536 0.73706 1.15399
 H2470 H 0.57957 0.68997 1.11831
 H2471 H 0.64010 0.77198 1.16815
 H2472 H 0.58555 0.70807 1.06811
 C2473 C 0.85417 1.29567 0.86914
 C2474 C 0.87633 1.28721 0.86958
 C2475 C 0.88261 1.26658 0.88279
 C2476 C 0.90510 1.26403 0.89058
 C2477 C 0.91162 1.24494 0.90324
 C2478 C 0.89581 1.22771 0.90808
 C2479 C 0.87330 1.23031 0.90039
 C2480 C 0.86677 1.24941 0.88773
 C2481 C 0.90229 1.20679 0.92068
 C2482 C 0.92438 1.19818 0.92015
 H2483 H 0.88988 1.29698 0.86176
 H2484 H 0.91762 1.27701 0.88710
 H2485 H 0.92898 1.24392 0.90940
 H2486 H 0.86080 1.21728 0.90379
 H2487 H 0.84943 1.25039 0.88152
 H2488 H 0.88887 1.19672 0.92837
 H2489 H 0.84122 1.28716 0.87926
 H2490 H 0.93717 1.20703 0.91011
 C2491 C 0.85811 0.79047 0.34603
 C2492 C 0.86314 0.78253 0.36836
 C2493 C 0.87811 0.76288 0.37273
 C2494 C 0.87686 0.75219 0.39450
 C2495 C 0.89063 0.73364 0.39947
 C2496 C 0.90630 0.72555 0.38283
 C2497 C 0.90762 0.73623 0.36106
 C2498 C 0.89386 0.75485 0.35608
 C2499 C 0.92033 0.70527 0.38729
 C2500 C 0.92587 0.69847 0.40985
 H2501 H 0.85591 0.79108 0.38337
 H2502 H 0.86490 0.75799 0.40762
 H2503 H 0.88842 0.72538 0.41615
 H2504 H 0.91947 0.73025 0.34792
 H2505 H 0.89596 0.76297 0.33934
 H2506 H 0.92517 0.69474 0.37259
 H2507 H 0.86512 0.78202 0.33090
 H2508 H 0.92165 0.70929 0.42448
 C2509 C 0.34678 1.28665 0.35208
 C2510 C 0.36965 1.28143 0.35553
 C2511 C 0.37668 1.26049 0.36758
 C2512 C 0.39606 1.26087 0.38188
 C2513 C 0.40222 1.24187 0.39485
 C2514 C 0.38923 1.22196 0.39348
 C2515 C 0.37007 1.22146 0.37887
 C2516 C 0.36392 1.24046 0.36590
 C2517 C 0.39527 1.20155 0.40696
 C2518 C 0.41773 1.19624 0.41245
 H2519 H 0.38234 1.29436 0.35251
 H2520 H 0.40609 1.27612 0.38355
 H2521 H 0.41683 1.24301 0.40630
 H2522 H 0.35995 1.20625 0.37732
 H2523 H 0.34925 1.23938 0.35452
 H2524 H 0.38210 1.18919 0.41037
 H2525 H 0.33396 1.27478 0.35783
 H2526 H 0.43126 1.20711 0.40632
 C2527 C 0.36464 0.79668 0.85655
 C2528 C 0.36376 0.78769 0.87908
 C2529 C 0.37498 0.76629 0.88567
 C2530 C 0.36711 0.75471 0.90544
 C2531 C 0.37694 0.73426 0.91207
 C2532 C 0.39511 0.72512 0.89916
 C2533 C 0.40313 0.73681 0.87954
 C2534 C 0.39334 0.75727 0.87294
 C2535 C 0.40560 0.70319 0.90502
 C2536 C 0.40480 0.69365 0.92731
 H2537 H 0.35406 0.79631 0.89246
 H2538 H 0.35302 0.76132 0.91555
 H2539 H 0.36982 0.72550 0.92692
 H2540 H 0.41716 0.73015 0.86936
 H2541 H 0.40048 0.76597 0.85808
 H2542 H 0.41434 0.69443 0.89106
 H2543 H 0.37441 0.78821 0.84314
 H2544 H 0.39606 0.70247 0.94123
 C2545 C 1.14252 0.69426 0.86639
 C2546 C 1.12079 0.70372 0.86681
 C2547 C 1.11576 0.72540 0.87866
 C2548 C 1.09376 0.72916 0.88728
 C2549 C 1.08840 0.74924 0.89887
 C2550 C 1.10491 0.76626 0.90170
 C2551 C 1.12694 0.76248 0.89313
 C2552 C 1.13232 0.74234 0.88159
 C2553 C 1.09968 0.78806 0.91331
 C2554 C 1.07774 0.79704 0.91388
 H2555 H 1.10658 0.69394 0.86027
 H2556 H 1.08073 0.71635 0.88534
 H2557 H 1.07141 0.75116 0.90583
 H2558 H 1.13995 0.77531 0.89502
 H2559 H 1.14932 0.74031 0.87468
 H2560 H 1.11377 0.79816 0.91959
 H2561 H 1.15622 0.70282 0.87542
 H2562 H 1.06418 0.78799 0.90514
 C2563 C 1.14170 0.20453 0.37246
 C2564 C 1.12475 0.21924 0.36489
 C2565 C 1.11781 0.23888 0.37922
 C2566 C 1.09543 0.24682 0.37770
 C2567 C 1.08829 0.26499 0.39148
 C2568 C 1.10352 0.27562 0.40706
 C2569 C 1.12610 0.26815 0.40794
 C2570 C 1.13322 0.25000 0.39418
 C2571 C 1.09686 0.29533 0.42145
 C2572 C 1.07433 0.30033 0.42686
 H2573 H 1.11580 0.21610 0.34869
 H2574 H 1.08338 0.23883 0.36596
 H2575 H 1.07100 0.27086 0.38942
 H2576 H 1.13830 0.27641 0.41930
 H2577 H 1.15089 0.24500 0.39506
 H2578 H 1.11013 0.30681 0.42712
 H2579 H 1.14936 0.20763 0.38939
 H2580 H 1.06092 0.28889 0.42160
 C2581 C 0.64312 0.70404 0.36905
 C2582 C 0.62703 0.71960 0.36130
 C2583 C 0.61999 0.73925 0.37559
 C2584 C 0.59871 0.74908 0.37144
 C2585 C 0.59159 0.76779 0.38441
 C2586 C 0.60573 0.77712 0.40183
 C2587 C 0.62725 0.76763 0.40556
 C2588 C 0.63435 0.74891 0.39261
 C2589 C 0.59919 0.79747 0.41529
 C2590 C 0.57664 0.80419 0.41813
 H2591 H 0.61917 0.71742 0.34434
 H2592 H 0.58754 0.74227 0.35810
 H2593 H 0.57528 0.77516 0.38022
 H2594 H 0.63867 0.77482 0.41846
 H2595 H 0.65130 0.74247 0.39566
 H2596 H 0.61267 0.80784 0.42248
 H2597 H 0.65042 0.70614 0.38629
 H2598 H 0.56310 0.79367 0.41137
 C2599 C 0.65408 0.21153 0.85390
 C2600 C 0.63164 0.21871 0.85111
 C2601 C 0.62354 0.24052 0.86081
 C2602 C 0.60072 0.24267 0.86766
 C2603 C 0.59295 0.26254 0.87824
 C2604 C 0.60786 0.28082 0.88190
 C2605 C 0.63053 0.27882 0.87456
 C2606 C 0.63826 0.25900 0.86394
 C2607 C 0.60063 0.30191 0.89374
 C2608 C 0.57808 0.30924 0.89446
 H2609 H 0.61918 0.20705 0.84408
 H2610 H 0.58903 0.22870 0.86543
 H2611 H 0.57545 0.26323 0.88404
 H2612 H 0.64231 0.29268 0.87699
 H2613 H 0.65577 0.25831 0.85818
 H2614 H 0.61380 0.31283 0.90066
 H2615 H 0.66577 0.22214 0.86357
 H2616 H 0.56522 0.29978 0.88510
 C2617 C 0.86307 0.68990 1.12302
 C2618 C 0.87507 0.70688 1.13453
 C2619 C 0.88210 0.72775 1.12234
 C2620 C 0.90099 0.73988 1.13045
 C2621 C 0.90755 0.75995 1.11954
 C2622 C 0.89514 0.76834 1.10035
 C2623 C 0.87588 0.75652 1.09270
 C2624 C 0.86942 0.73644 1.10351
 C2625 C 0.90114 0.78979 1.08869
 C2626 C 0.92325 0.79831 1.08846
 H2627 H 0.87855 0.70539 1.15306
 H2628 H 0.91068 0.73383 1.14527
 H2629 H 0.92196 0.76906 1.12657
 H2630 H 0.86577 0.76288 1.07831
 H2631 H 0.85413 0.72812 1.09742
 H2632 H 0.88763 0.79897 1.08009
 H2633 H 0.86044 0.69127 1.10434
 H2634 H 0.93667 0.78866 1.09665
 C2635 C 0.86797 0.19669 0.63228
 C2636 C 0.85807 0.21790 0.62946
 C2637 C 0.87091 0.23851 0.62246
 C2638 C 0.85870 0.25831 0.61764
 C2639 C 0.86999 0.27836 0.61199
 C2640 C 0.89392 0.27912 0.61088
 C2641 C 0.90618 0.25949 0.61615
 C2642 C 0.89489 0.23943 0.62184
 C2643 C 0.90656 0.30000 0.60452
 C2644 C 0.89690 0.31698 0.59085
 H2645 H 0.84026 0.21978 0.63397
 H2646 H 0.84028 0.25832 0.61844
 H2647 H 0.85985 0.29327 0.60894
 H2648 H 0.92460 0.25963 0.61577
 H2649 H 0.90522 0.22497 0.62612
 H2650 H 0.92441 0.30106 0.60905
 H2651 H 0.88571 0.19415 0.62814
 H2652 H 0.87978 0.31450 0.58438
 C2653 C 0.34980 0.72069 0.65163
 C2654 C 0.35732 0.72585 0.62915
 C2655 C 0.37240 0.74538 0.62428
 C2656 C 0.38691 0.74451 0.60483
 C2657 C 0.40166 0.76240 0.59993
 C2658 C 0.40198 0.78174 0.61426
 C2659 C 0.38762 0.78254 0.63382
 C2660 C 0.37283 0.76467 0.63870
 C2661 C 0.41629 0.80163 0.60875
 C2662 C 0.42151 0.80749 0.58579
 H2663 H 0.35419 0.71388 0.61517
 H2664 H 0.38702 0.72982 0.59353
 H2665 H 0.41288 0.76094 0.58501
 H2666 H 0.38742 0.79730 0.64502
 H2667 H 0.36151 0.76630 0.65350
 H2668 H 0.41987 0.81366 0.62258
 H2669 H 0.35515 0.73125 0.66608
 H2670 H 0.41550 0.79683 0.57169
 C2671 C 0.35763 0.21384 1.14908
 C2672 C 0.36377 0.21815 1.12597
 C2673 C 0.37888 0.23711 1.11948
 C2674 C 0.39190 0.23543 1.09900
 C2675 C 0.40675 0.25277 1.09261
 C2676 C 0.40866 0.27228 1.10652
 C2677 C 0.39575 0.27393 1.12705
 C2678 C 0.38082 0.25666 1.13337
 C2679 C 0.42320 0.29150 1.09971
 C2680 C 0.42671 0.29717 1.07637
 H2681 H 0.35944 0.20591 1.11259
 H2682 H 0.39078 0.22053 1.08805
 H2683 H 0.41681 0.25076 1.07690
 H2684 H 0.39679 0.28888 1.13792
 H2685 H 0.37061 0.25895 1.14892
 H2686 H 0.42831 0.30335 1.11318
 H2687 H 0.36416 0.22463 1.16281
 H2688 H 0.41920 0.28678 1.06281
 C2689 C 1.13248 1.14581 0.69400
 C2690 C 1.14097 1.13262 0.71223
 C2691 C 1.12654 1.12483 0.73198
 C2692 C 1.13296 1.10549 0.74440
 C2693 C 1.12006 1.09796 0.76342
 C2694 C 1.10043 1.10974 0.77058
 C2695 C 1.09436 1.12942 0.75854
 C2696 C 1.10718 1.13687 0.73942
 C2697 C 1.08676 1.10260 0.79115
 C2698 C 1.08604 1.08025 0.79882
 H2699 H 1.15873 1.12785 0.71230
 H2700 H 1.14804 1.09616 0.73938
 H2701 H 1.12593 1.08325 0.77279
 H2702 H 1.07964 1.13910 0.76398
 H2703 H 1.10216 1.15238 0.73095
 H2704 H 1.07729 1.11540 0.80052
 H2705 H 1.11449 1.14969 0.69386
 H2706 H 1.09498 1.06758 0.78875
 C2707 C 1.14204 0.64292 0.19985
 C2708 C 1.14406 0.62065 0.20754
 C2709 C 1.12908 0.61184 0.22618
 C2710 C 1.13714 0.59496 0.24114
 C2711 C 1.12368 0.58729 0.25963
 C2712 C 1.10175 0.59620 0.26324
 C2713 C 1.09348 0.61261 0.24790
 C2714 C 1.10684 0.62015 0.22936
 C2715 C 1.08770 0.58977 0.28355
 C2716 C 1.08934 0.56866 0.29405
 H2717 H 1.15693 0.60952 0.20057
 H2718 H 1.15413 0.58822 0.23895
 H2719 H 1.13083 0.57499 0.27148
 H2720 H 1.07661 0.61961 0.25026
 H2721 H 1.09964 0.63245 0.21755
 H2722 H 1.07611 0.60230 0.29036
 H2723 H 1.12999 0.65353 0.20904
 H2724 H 1.10040 0.55617 0.28618
 C2725 C 0.64583 1.13177 0.19179
 C2726 C 0.63175 1.13932 0.20986
 C2727 C 0.62418 1.12483 0.22942
 C2728 C 0.60468 1.13115 0.24192
 C2729 C 0.59695 1.11817 0.26063
 C2730 C 0.60862 1.09849 0.26730
 C2731 C 0.62847 1.09246 0.25522
 C2732 C 0.63618 1.10543 0.23642
 C2733 C 0.60118 1.08474 0.28750
 C2734 C 0.57862 1.08426 0.29508
 H2735 H 0.62560 1.15651 0.20965
 H2736 H 0.59537 1.14623 0.23720
 H2737 H 0.58215 1.12398 0.27013
 H2738 H 0.63805 1.07767 0.26036
 H2739 H 0.65177 1.10042 0.22785
 H2740 H 0.61400 1.07525 0.29682
 H2741 H 0.65203 1.11461 0.19205
 H2742 H 0.56587 1.09328 0.28517
 C2743 C 0.62982 0.65396 0.69558
 C2744 C 0.62631 0.63199 0.70349
 C2745 C 0.61137 0.62618 0.72348
 C2746 C 0.61414 0.60505 0.73401
 C2747 C 0.60071 0.59874 0.75300
 C2748 C 0.58381 0.61333 0.76173
 C2749 C 0.58098 0.63448 0.75123
 C2750 C 0.59446 0.64083 0.73217
 C2751 C 0.57002 0.60739 0.78253
 C2752 C 0.56643 0.58509 0.78919
 H2753 H 0.63514 0.61827 0.69490
 H2754 H 0.62706 0.59349 0.72777
 H2755 H 0.60414 0.58265 0.76112
 H2756 H 0.56821 0.64608 0.75772
 H2757 H 0.59130 0.65705 0.72427
 H2758 H 0.56368 0.62090 0.79353
 H2759 H 0.62092 0.66781 0.70382
 H2760 H 0.57211 0.57159 0.77785
 C2761 C 0.86610 0.87892 0.68756
 C2762 C 0.87329 0.86862 0.70817
 C2763 C 0.87862 0.88149 0.72968
 C2764 C 0.89366 0.87206 0.74594
 C2765 C 0.89921 0.88366 0.76642
 C2766 C 0.88970 0.90498 0.77113
 C2767 C 0.87392 0.91403 0.75538
 C2768 C 0.86848 0.90247 0.73476
 C2769 C 0.89567 0.91760 0.79263
 C2770 C 0.91734 0.91593 0.80236
 H2771 H 0.87526 0.85048 0.70869
 H2772 H 0.90128 0.85571 0.74270
 H2773 H 0.91070 0.87573 0.77868
 H2774 H 0.86600 0.93018 0.75891
 H2775 H 0.85606 0.90984 0.72311
 H2776 H 0.88283 0.92803 0.80081
 H2777 H 0.86446 0.89709 0.68706
 H2778 H 0.93006 0.90623 0.79302
 C2779 C 0.84760 0.35187 0.20083
 C2780 C 0.87035 0.35279 0.20777
 C2781 C 0.87780 0.36587 0.22861
 C2782 C 0.90016 0.37416 0.22954
 C2783 C 0.90738 0.38752 0.24836
 C2784 C 0.89237 0.39269 0.26678
 C2785 C 0.87013 0.38420 0.26599
 C2786 C 0.86297 0.37072 0.24731
 C2787 C 0.89929 0.40673 0.28705
 C2788 C 0.92164 0.40752 0.29518
 H2789 H 0.88330 0.34586 0.19637
 H2790 H 0.91194 0.37069 0.21543
 H2791 H 0.92454 0.39412 0.24815
 H2792 H 0.85831 0.38776 0.28005
 H2793 H 0.84587 0.36403 0.24779
 H2794 H 0.88604 0.41465 0.29734
 H2795 H 0.83512 0.36097 0.21106
 H2796 H 0.93445 0.39738 0.28652
 C2797 C 0.35082 0.84405 0.21360
 C2798 C 0.35631 0.86664 0.21741
 C2799 C 0.36986 0.87433 0.23766
 C2800 C 0.38214 0.89452 0.23574
 C2801 C 0.39579 0.90204 0.25413
 C2802 C 0.39721 0.88954 0.27491
 C2803 C 0.38500 0.86934 0.27687
 C2804 C 0.37123 0.86188 0.25854
 C2805 C 0.41084 0.89739 0.29495
 C2806 C 0.41335 0.92022 0.30005
 H2807 H 0.35305 0.87875 0.20368
 H2808 H 0.38145 0.90434 0.21981
 H2809 H 0.40541 0.91745 0.25191
 H2810 H 0.38575 0.85955 0.29282
 H2811 H 0.36153 0.84657 0.26099
 H2812 H 0.41646 0.88501 0.30760
 H2813 H 0.35623 0.83145 0.22606
 H2814 H 0.40509 0.93260 0.28905
 C2815 C 0.34429 0.34699 0.70612
 C2816 C 0.34588 0.36997 0.71114
 C2817 C 0.35836 0.37844 0.73187
 C2818 C 0.36882 0.39969 0.73080
 C2819 C 0.38223 0.40747 0.74933
 C2820 C 0.38523 0.39417 0.76942
 C2821 C 0.37444 0.37313 0.77068
 C2822 C 0.36092 0.36542 0.75225
 C2823 C 0.39948 0.40167 0.78925
 C2824 C 0.40198 0.42433 0.79518
 H2825 H 0.34074 0.38204 0.69798
 H2826 H 0.36714 0.41002 0.71530
 H2827 H 0.39064 0.42362 0.74761
 H2828 H 0.37632 0.36271 0.78610
 H2829 H 0.35251 0.34930 0.75410
 H2830 H 0.40612 0.38895 0.80099
 H2831 H 0.35177 0.33501 0.71810
 H2832 H 0.39290 0.43699 0.78525
 C2833 C 1.15705 0.85607 1.30304
 C2834 C 1.13938 0.85088 1.28752
 C2835 C 1.13242 0.86620 1.26829
 C2836 C 1.12149 0.85690 1.24872
 C2837 C 1.11475 0.87057 1.23013
 C2838 C 1.11850 0.89401 1.23081
 C2839 C 1.12959 0.90336 1.25025
 C2840 C 1.13627 0.88968 1.26895
 C2841 C 1.11102 0.90881 1.21141
 C2842 C 1.09141 0.90380 1.19864
 H2843 H 1.13125 0.83456 1.28810
 H2844 H 1.11839 0.83891 1.24768
 H2845 H 1.10688 0.86265 1.21509
 H2846 H 1.13264 0.92136 1.25119
 H2847 H 1.14402 0.89769 1.28397
 H2848 H 1.12056 0.92402 1.20797
 H2849 H 1.16564 0.87204 1.30067
 H2850 H 1.08130 0.88959 1.20439
 C2851 C 1.12565 0.35893 0.80569
 C2852 C 1.12896 0.37847 0.79228
 C2853 C 1.11430 0.38546 0.77238
 C2854 C 1.11749 0.40715 0.76316
 C2855 C 1.10479 0.41458 0.74405
 C2856 C 1.08831 0.40052 0.73368
 C2857 C 1.08520 0.37874 0.74274
 C2858 C 1.09802 0.37124 0.76185
 C2859 C 1.07520 0.40744 0.71266
 C2860 C 1.07340 0.42982 0.70528
 H2861 H 1.14261 0.38992 0.79651
 H2862 H 1.13011 0.41839 0.77060
 H2863 H 1.10855 0.43113 0.73724
 H2864 H 1.07293 0.36740 0.73485
 H2865 H 1.09529 0.35419 0.76783
 H2866 H 1.06752 0.39427 0.70214
 H2867 H 1.11110 0.34849 0.80162
 H2868 H 1.08070 0.44317 0.71578
 C2869 C 0.64612 0.86657 0.80754
 C2870 C 0.63226 0.86051 0.78869
 C2871 C 0.62590 0.87651 0.76982
 C2872 C 0.60624 0.87224 0.75666
 C2873 C 0.60002 0.88647 0.73827
 C2874 C 0.61344 0.90535 0.73250
 C2875 C 0.63341 0.90934 0.74530
 C2876 C 0.63956 0.89517 0.76383
 C2877 C 0.60763 0.92015 0.71243
 C2878 C 0.58523 0.92295 0.70489
 H2879 H 0.62583 0.84345 0.78745
 H2880 H 0.59567 0.85775 0.76054
 H2881 H 0.58502 0.88220 0.72823
 H2882 H 0.64432 0.92344 0.74090
 H2883 H 0.65532 0.89858 0.77293
 H2884 H 0.62133 0.92828 0.70300
 H2885 H 0.65182 0.88388 0.80889
 H2886 H 0.57173 0.91546 0.71514
 C2887 C 0.64036 0.34901 1.30054
 C2888 C 0.64644 0.36721 1.28626
 C2889 C 0.63278 0.37445 1.26574
 C2890 C 0.63613 0.39619 1.25677
 C2891 C 0.62428 0.40347 1.23698
 C2892 C 0.60867 0.38909 1.22561
 C2893 C 0.60551 0.36725 1.23446
 C2894 C 0.61743 0.35995 1.25421
 C2895 C 0.59618 0.39568 1.20405
 C2896 C 0.59523 0.41773 1.19552
 H2897 H 0.66151 0.37697 1.29003
 H2898 H 0.64812 0.40759 1.26503
 H2899 H 0.62795 0.42018 1.23058
 H2900 H 0.59393 0.35566 1.22589
 H2901 H 0.61493 0.34275 1.25987
 H2902 H 0.58791 0.38239 1.19420
 H2903 H 0.62422 0.34090 1.29706
 H2904 H 0.60350 0.43119 1.20502
 C2905 C 0.87615 1.13044 1.31597
 C2906 C 0.86752 1.11892 1.29667
 C2907 C 0.88248 1.11176 1.27720
 C2908 C 0.87641 1.09307 1.26353
 C2909 C 0.89000 1.08642 1.24467
 C2910 C 0.90987 1.09854 1.23899
 C2911 C 0.91558 1.11759 1.25227
 C2912 C 0.90211 1.12412 1.27122
 C2913 C 0.92403 1.09254 1.21850
 C2914 C 0.92539 1.07052 1.21010
 H2915 H 0.84939 1.11598 1.29522
 H2916 H 0.86110 1.08362 1.26744
 H2917 H 0.88451 1.07219 1.23421
 H2918 H 0.93048 1.12750 1.24791
 H2919 H 0.90680 1.13923 1.28072
 H2920 H 0.93292 1.10595 1.20949
 H2921 H 0.89440 1.13246 1.31754
 H2922 H 0.91703 1.05721 1.21976
 C2923 C 0.85431 0.63202 0.80515
 C2924 C 0.87591 0.63333 0.79516
 C2925 C 0.88186 0.62219 0.77286
 C2926 C 0.90484 0.61809 0.76785
 C2927 C 0.91120 0.60831 0.74661
 C2928 C 0.89462 0.60277 0.72981
 C2929 C 0.87164 0.60660 0.73494
 C2930 C 0.86528 0.61638 0.75616
 C2931 C 0.90060 0.59297 0.70687
 C2932 C 0.92177 0.59612 0.69635
 H2933 H 0.88934 0.64212 0.80441
 H2934 H 0.91792 0.62240 0.78046
 H2935 H 0.92904 0.60498 0.74358
 H2936 H 0.85857 0.60245 0.72227
 H2937 H 0.84745 0.61984 0.75907
 H2938 H 0.88717 0.58466 0.69718
 H2939 H 0.84178 0.62077 0.79763
 H2940 H 0.93423 0.60685 0.70478
 C2941 C 0.35564 1.13651 0.80919
 C2942 C 0.37074 1.14506 0.79259
 C2943 C 0.37878 1.13164 0.77227
 C2944 C 0.39895 1.13802 0.76098
 C2945 C 0.40673 1.12614 0.74139
 C2946 C 0.39441 1.10757 0.73261
 C2947 C 0.37401 1.10149 0.74363
 C2948 C 0.36624 1.11335 0.76321
 C2949 C 0.40156 1.09492 0.71143
 C2950 C 0.42381 1.09500 0.70288
 H2951 H 0.37676 1.16224 0.79420
 H2952 H 0.40868 1.15232 0.76729
 H2953 H 0.42206 1.13202 0.73294
 H2954 H 0.36394 1.08757 0.73697
 H2955 H 0.35012 1.10842 0.77072
 H2956 H 0.38862 1.08546 0.70218
 H2957 H 0.35014 1.11915 0.80775
 H2958 H 0.43681 1.10425 0.71224
 C2959 C 0.35458 0.63475 1.30385
 C2960 C 0.37692 0.63255 1.29588
 C2961 C 0.38356 0.61789 1.27597
 C2962 C 0.40434 0.62208 1.26479
 C2963 C 0.41138 0.60879 1.24594
 C2964 C 0.39791 0.59065 1.23804
 C2965 C 0.37712 0.58641 1.24923
 C2966 C 0.37006 0.59974 1.26811
 C2967 C 0.40453 0.57674 1.21755
 C2968 C 0.42703 0.57485 1.21004
 H2969 H 0.39026 0.64214 1.30437
 H2970 H 0.41504 0.63596 1.27041
 H2971 H 0.42711 0.61325 1.23732
 H2972 H 0.36638 0.57263 1.24343
 H2973 H 0.35422 0.59546 1.27660
 H2974 H 0.39118 0.56852 1.20763
 H2975 H 0.34119 0.62518 1.29547
 H2976 H 0.44043 0.58255 1.22027
 C2977 C 1.14098 1.29990 0.87236
 C2978 C 1.12302 1.28557 0.86710
 C2979 C 1.11821 1.26503 0.88087
 C2980 C 1.09989 1.25133 0.87421
 C2981 C 1.09472 1.23182 0.88672
 C2982 C 1.10766 1.22566 0.90642
 C2983 C 1.12630 1.23911 0.91283
 C2984 C 1.13149 1.25871 0.90028
 C2985 C 1.10250 1.20489 0.91980
 C2986 C 1.08055 1.19599 0.92070
 H2987 H 1.11213 1.28942 0.85234
 H2988 H 1.08959 1.25565 0.85916
 H2989 H 1.08083 1.22141 0.88055
 H2990 H 1.13673 1.23456 0.92771
 H2991 H 1.14586 1.26884 0.90578
 H2992 H 1.11633 1.19627 0.92850
 H2993 H 1.14298 1.31141 0.86384
 H2994 H 1.06679 1.20534 0.91271
 C2995 C 1.15853 0.78380 0.34891
 C2996 C 1.13553 0.77830 0.35061
 C2997 C 1.12788 0.75743 0.36249
 C2998 C 1.10694 0.75741 0.37424
 C2999 C 1.10007 0.73860 0.38715
 C3000 C 1.11395 0.71931 0.38833
 C3001 C 1.13470 0.71919 0.37627
 C3002 C 1.14151 0.73793 0.36326
 C3003 C 1.10730 0.69908 0.40183
 C3004 C 1.08463 0.69293 0.40495
 H3005 H 1.12293 0.79092 0.34621
 H3006 H 1.09617 0.77223 0.37397
 H3007 H 1.08415 0.73946 0.39660
 H3008 H 1.14558 0.70445 0.37671
 H3009 H 1.15743 0.73700 0.35383
 H3010 H 1.12052 0.68745 0.40713
 H3011 H 1.17099 0.77221 0.35589
 H3012 H 1.07144 0.70313 0.39707
 C3013 C 0.65062 1.29095 0.36039
 C3014 C 0.62855 1.28216 0.35959
 C3015 C 0.62198 1.26204 0.37320
 C3016 C 0.59955 1.26007 0.38125
 C3017 C 0.59279 1.24120 0.39406
 C3018 C 0.60830 1.22368 0.39863
 C3019 C 0.63078 1.22576 0.39074
 C3020 C 0.63755 1.24466 0.37801
 C3021 C 0.60158 1.20291 0.41113
 C3022 C 0.57927 1.19489 0.41121
 H3023 H 0.61513 1.29103 0.35055
 H3024 H 0.58729 1.27330 0.37784
 H3025 H 0.57550 1.24057 0.40046
 H3026 H 0.64302 1.21248 0.39399
 H3027 H 0.65483 1.24536 0.37154
 H3028 H 0.61500 1.19245 0.41819
 H3029 H 0.66252 1.28304 0.37229
 H3030 H 0.56633 1.20413 0.40179
 C3031 C 0.64637 0.79184 0.85084
 C3032 C 0.62411 0.78864 0.85870
 C3033 C 0.61619 0.76764 0.87044
 C3034 C 0.59281 0.76466 0.87445
 C3035 C 0.58472 0.74567 0.88639
 C3036 C 0.59991 0.72910 0.89457
 C3037 C 0.62328 0.73225 0.89087
 C3038 C 0.63136 0.75122 0.87902
 C3039 C 0.59232 0.70857 0.90729
 C3040 C 0.57008 0.70024 0.90653
 H3041 H 0.61231 0.80261 0.85738
 H3042 H 0.58074 0.77720 0.86850
 H3043 H 0.56663 0.74438 0.88947
 H3044 H 0.63542 0.71996 0.89723
 H3045 H 0.64956 0.75299 0.87724
 H3046 H 0.60525 0.69874 0.91607
 H3047 H 0.65853 0.77824 0.85180
 H3048 H 0.55763 0.70881 0.89586
 C3049 C 0.85204 1.29812 1.13262
 C3050 C 0.86965 1.28438 1.14112
 C3051 C 0.87891 1.26464 1.12813
 C3052 C 0.88897 1.24701 1.14080
 C3053 C 0.89801 1.22813 1.12935
 C3054 C 0.89759 1.22660 1.10477
 C3055 C 0.88757 1.24429 1.09209
 C3056 C 0.87842 1.26314 1.10357
 C3057 C 0.90673 1.20670 1.09186
 C3058 C 0.92214 1.19126 1.10152
 H3059 H 0.87586 1.28668 1.15874
 H3060 H 0.88955 1.24767 1.15972
 H3061 H 0.90488 1.21470 1.13994
 H3062 H 0.88697 1.24361 1.07317
 H3063 H 0.87136 1.27660 1.09313
 H3064 H 0.90173 1.20482 1.07377
 H3065 H 0.84467 1.29361 1.11589
 H3066 H 0.92892 1.19463 1.11876
 C3067 C 0.86823 0.81013 0.63629
 C3068 C 0.86732 0.79974 0.61430
 C3069 C 0.87868 0.77796 0.60866
 C3070 C 0.87142 0.76586 0.58890
 C3071 C 0.88194 0.74560 0.58248
 C3072 C 0.90035 0.73707 0.59551
 C3073 C 0.90753 0.74910 0.61537
 C3074 C 0.89696 0.76936 0.62184
 C3075 C 0.91202 0.71555 0.58936
 C3076 C 0.91065 0.70545 0.56725
 H3077 H 0.85793 0.80778 0.60036
 H3078 H 0.85738 0.77202 0.57844
 H3079 H 0.87523 0.73664 0.56752
 H3080 H 0.92160 0.74295 0.62580
 H3081 H 0.90355 0.77835 0.63684
 H3082 H 0.92195 0.70744 0.60287
 H3083 H 0.87738 0.80190 0.65026
 H3084 H 0.90099 0.71369 0.55366
 C3085 C 0.35735 1.29193 0.64484
 C3086 C 0.35852 1.28334 0.62210
 C3087 C 0.37415 1.26455 0.61627
 C3088 C 0.38483 1.26407 0.59436
 C3089 C 0.40002 1.24675 0.58867
 C3090 C 0.40445 1.22926 0.60466
 C3091 C 0.39388 1.22987 0.62663
 C3092 C 0.37878 1.24722 0.63234
 C3093 C 0.41903 1.20967 0.59870
 C3094 C 0.42145 1.20199 0.57579
 H3095 H 0.34988 1.29174 0.60788
 H3096 H 0.38168 1.27733 0.58177
 H3097 H 0.40832 1.24726 0.57180
 H3098 H 0.39688 1.21657 0.63921
 H3099 H 0.37043 1.24676 0.64920
 H3100 H 0.42510 1.19913 0.61283
 H3101 H 0.36868 1.28446 0.65762
 H3102 H 0.41330 1.21121 0.56181
 C3103 C 0.35438 0.78681 1.15337
 C3104 C 0.35659 0.77887 1.13046
 C3105 C 0.37183 0.75957 1.12484
 C3106 C 0.36744 0.74633 1.10500
 C3107 C 0.38130 0.72784 1.09961
 C3108 C 0.40010 0.72237 1.11382
 C3109 C 0.40467 0.73576 1.13346
 C3110 C 0.39095 0.75434 1.13874
 C3111 C 0.41445 0.70228 1.10913
 C3112 C 0.41751 0.69395 1.08658
 H3113 H 0.34750 0.78686 1.11629
 H3114 H 0.35297 0.75003 1.09393
 H3115 H 0.37682 0.71754 1.08466
 H3116 H 0.41906 0.73197 1.14462
 H3117 H 0.39564 0.76466 1.15359
 H3118 H 0.42201 0.69351 1.12378
 H3119 H 0.36286 0.77719 1.16687
 H3120 H 0.41053 0.70340 1.07208
 C3121 C 0.86455 0.69693 0.85977
 C3122 C 0.86594 0.70610 0.88220
 C3123 C 0.87885 0.72702 0.88722
 C3124 C 0.88810 0.73017 0.90959
 C3125 C 0.90034 0.74972 0.91496
 C3126 C 0.90322 0.76676 0.89812
 C3127 C 0.89416 0.76352 0.87568
 C3128 C 0.88194 0.74394 0.87029
 C3129 C 0.91501 0.78823 0.90361
 C3130 C 0.91489 0.79742 0.92608
 H3131 H 0.85894 0.69684 0.89681
 H3132 H 0.88604 0.71736 0.92288
 H3133 H 0.90764 0.75131 0.93225
 H3134 H 0.89606 0.77642 0.86244
 H3135 H 0.87455 0.74240 0.85304
 H3136 H 0.92156 0.79817 0.88926
 H3137 H 0.87393 0.70494 0.84579
 H3138 H 0.90587 0.78857 0.93977
 C3139 C 0.86804 0.20101 0.35995
 C3140 C 0.86375 0.21218 0.38094
 C3141 C 0.87563 0.23330 0.38718
 C3142 C 0.88020 0.23792 0.41074
 C3143 C 0.89203 0.25742 0.41713
 C3144 C 0.89907 0.27294 0.40001
 C3145 C 0.89442 0.26831 0.37643
 C3146 C 0.88269 0.24877 0.37005
 C3147 C 0.91105 0.29411 0.40602
 C3148 C 0.90893 0.30448 0.42782
 H3149 H 0.85327 0.20416 0.39408
 H3150 H 0.87501 0.22617 0.42421
 H3151 H 0.89587 0.26000 0.43543
 H3152 H 0.89960 0.28002 0.36293
 H3153 H 0.87893 0.24601 0.35174
 H3154 H 0.91988 0.30285 0.39213
 H3155 H 0.88080 0.20775 0.34824
 H3156 H 0.89794 0.29698 0.44082
 C3157 C 0.36628 0.70070 0.35598
 C3158 C 0.36066 0.71646 0.37340
 C3159 C 0.37454 0.73674 0.37899
 C3160 C 0.36414 0.75452 0.39120
 C3161 C 0.37650 0.77371 0.39755
 C3162 C 0.39978 0.77548 0.39216
 C3163 C 0.41017 0.75791 0.37960
 C3164 C 0.39777 0.73863 0.37323
 C3165 C 0.41339 0.79554 0.39914
 C3166 C 0.40795 0.80838 0.41893
 H3167 H 0.34486 0.71489 0.38284
 H3168 H 0.34628 0.75363 0.39577
 H3169 H 0.36762 0.78722 0.40643
 H3170 H 0.42804 0.75889 0.37513
 H3171 H 0.40663 0.72516 0.36431
 H3172 H 0.42828 0.79954 0.38889
 H3173 H 0.38127 0.70400 0.34556
 H3174 H 0.39407 0.80258 0.42981
 C3175 C 0.35322 0.20149 0.86599
 C3176 C 0.37456 0.21102 0.86173
 C3177 C 0.38251 0.23094 0.87513
 C3178 C 0.39710 0.24646 0.86439
 C3179 C 0.40390 0.26599 0.87623
 C3180 C 0.39648 0.27017 0.89927
 C3181 C 0.38226 0.25443 0.91015
 C3182 C 0.37556 0.23487 0.89836
 C3183 C 0.40249 0.29114 0.91192
 C3184 C 0.42255 0.30287 0.90737
 H3185 H 0.38519 0.20495 0.84766
 H3186 H 0.40272 0.24380 0.84656
 H3187 H 0.41436 0.27805 0.86700
 H3188 H 0.37641 0.25722 0.92789
 H3189 H 0.36501 0.22287 0.90756
 H3190 H 0.39068 0.29734 0.92492
 H3191 H 0.34267 0.20976 0.87896
 H3192 H 0.43450 0.29570 0.89502
 C3193 C 1.14537 0.70507 1.14697
 C3194 C 1.14726 0.71473 1.12483
 C3195 C 1.13316 0.73437 1.11847
 C3196 C 1.12313 0.73515 1.09628
 C3197 C 1.10859 0.75285 1.09031
 C3198 C 1.10429 0.77045 1.10631
 C3199 C 1.11440 0.76964 1.12850
 C3200 C 1.12877 0.75182 1.13453
 C3201 C 1.09003 0.79016 1.10023
 C3202 C 1.08728 0.79733 1.07723
 H3203 H 1.15624 0.70610 1.11095
 H3204 H 1.12607 0.72172 1.08375
 H3205 H 1.10058 0.75242 1.07330
 H3206 H 1.11145 0.78300 1.14110
 H3207 H 1.13658 0.75181 1.15168
 H3208 H 1.08409 0.80093 1.11429
 H3209 H 1.13369 0.71304 1.15911
 H3210 H 1.09533 0.78792 1.06327
 C3211 C 1.14224 0.20707 0.63617
 C3212 C 1.12029 0.21603 0.63829
 C3213 C 1.11335 0.23723 0.62666
 C3214 C 1.09030 0.24070 0.62145
 C3215 C 1.08311 0.26064 0.61076
 C3216 C 1.09889 0.27773 0.60540
 C3217 C 1.12194 0.27423 0.61059
 C3218 C 1.12912 0.25430 0.62126
 C3219 C 1.09213 0.29921 0.59423
 C3220 C 1.07005 0.30789 0.59510
 H3221 H 1.10719 0.20692 0.64754
 H3222 H 1.07782 0.22781 0.62544
 H3223 H 1.06529 0.26239 0.60648
 H3224 H 1.13444 0.28712 0.60668
 H3225 H 1.14693 0.25260 0.62565
 H3226 H 1.10552 0.30931 0.58657
 H3227 H 1.15383 0.21548 0.62433
 H3228 H 1.05724 0.29912 0.60517
 C3229 C 0.64825 0.70586 0.62974
 C3230 C 0.63727 0.72462 0.63929
 C3231 C 0.63005 0.74450 0.62560
 C3232 C 0.61326 0.75856 0.63513
 C3233 C 0.60543 0.77727 0.62284
 C3234 C 0.61426 0.78236 0.60063
 C3235 C 0.63163 0.76880 0.59139
 C3236 C 0.63942 0.74995 0.60368
 C3237 C 0.60627 0.80215 0.58728
 C3238 C 0.58424 0.81063 0.58974
 H3239 H 0.63285 0.72449 0.65766
 H3240 H 0.60603 0.75496 0.65215
 H3241 H 0.59274 0.78790 0.63100
 H3242 H 0.63903 0.77269 0.57453
 H3243 H 0.65293 0.74002 0.59604
 H3244 H 0.61817 0.81011 0.57548
 H3245 H 0.65351 0.70594 0.61163
 H3246 H 0.57243 0.80187 0.60104
 C3247 C 0.63444 0.20149 1.13697
 C3248 C 0.64096 0.21502 1.11832
 C3249 C 0.62785 0.23510 1.11117
 C3250 C 0.63515 0.24745 1.09169
 C3251 C 0.62341 0.26671 1.08458
 C3252 C 0.60399 0.27398 1.09682
 C3253 C 0.59680 0.26175 1.11645
 C3254 C 0.60851 0.24241 1.12352
 C3255 C 0.59158 0.29475 1.09032
 C3256 C 0.59183 0.30371 1.06773
 H3257 H 0.65616 0.21090 1.10852
 H3258 H 0.65014 0.24229 1.08204
 H3259 H 0.63001 0.27611 1.06990
 H3260 H 0.58204 0.26715 1.12632
 H3261 H 0.60250 0.23334 1.13872
 H3262 H 0.58214 0.30316 1.10402
 H3263 H 0.64229 0.19072 1.14053
 H3264 H 0.60101 0.29488 1.05412
 C3265 C 1.29039 1.14839 0.86345
 C3266 C 1.28366 1.12588 0.86476
 C3267 C 1.26287 1.11878 0.87722
 C3268 C 1.26187 1.09693 0.88648
 C3269 C 1.24276 1.08981 0.89892
 C3270 C 1.22415 1.10439 0.90204
 C3271 C 1.22512 1.12622 0.89277
 C3272 C 1.24419 1.13331 0.88027
 C3273 C 1.20349 1.09733 0.91467
 C3274 C 1.19618 1.07498 0.91499
 H3275 H 1.29509 1.11284 0.85861
 H3276 H 1.27607 1.08546 0.88441
 H3277 H 1.24280 1.07305 0.90633
 H3278 H 1.21091 1.13768 0.89486
 H3279 H 1.24403 1.15004 0.87279
 H3280 H 1.19251 1.11036 0.92168
 H3281 H 1.28029 1.16116 0.87212
 H3282 H 1.20566 1.06237 0.90535
 C3283 C 1.30105 0.64856 0.36986
 C3284 C 1.29351 0.62620 0.37110
 C3285 C 1.27198 0.61872 0.38221
 C3286 C 1.26460 0.59656 0.37801
 C3287 C 1.24423 0.58862 0.38749
 C3288 C 1.23071 0.60269 0.40166
 C3289 C 1.23822 0.62481 0.40606
 C3290 C 1.25861 0.63278 0.39651
 C3291 C 1.20864 0.59534 0.41183
 C3292 C 1.20004 0.57333 0.41057
 H3293 H 1.30372 0.61322 0.36291
 H3294 H 1.27451 0.58535 0.36704
 H3295 H 1.23926 0.57157 0.38327
 H3296 H 1.22823 0.63604 0.41695
 H3297 H 1.26370 0.64984 0.40058
 H3298 H 1.19849 0.60821 0.42028
 H3299 H 1.29203 0.66176 0.37903
 H3300 H 1.20940 0.56040 0.40140
 C3301 C 0.80526 1.14433 0.36496
 C3302 C 0.79648 1.12241 0.36521
 C3303 C 0.77438 1.11658 0.37631
 C3304 C 0.77037 1.09417 0.38302
 C3305 C 0.74992 1.08804 0.39381
 C3306 C 0.73286 1.10422 0.39790
 C3307 C 0.73683 1.12661 0.39119
 C3308 C 0.75722 1.13272 0.38031
 C3309 C 0.71088 1.09841 0.40915
 C3310 C 0.70132 1.07687 0.40786
 H3311 H 0.80676 1.10867 0.35861
 H3312 H 0.78324 1.08138 0.38018
 H3313 H 0.74775 1.07072 0.39924
 H3314 H 0.72395 1.13938 0.39405
 H3315 H 0.75920 1.15003 0.37479
 H3316 H 0.70109 1.11198 0.41687
 H3317 H 0.79582 1.15753 0.37371
 H3318 H 0.70994 1.06403 0.39771
 C3319 C 0.80312 0.63917 0.87318
 C3320 C 0.78182 0.63965 0.86255
 C3321 C 0.76206 0.62694 0.87132
 C3322 C 0.74018 0.63565 0.86779
 C3323 C 0.72104 0.62330 0.87447
 C3324 C 0.72346 0.60177 0.88444
 C3325 C 0.74535 0.59283 0.88746
 C3326 C 0.76454 0.60540 0.88119
 C3327 C 0.70341 0.58855 0.89185
 C3328 C 0.68453 0.59907 0.90172
 H3329 H 0.77967 0.64957 0.84680
 H3330 H 0.73791 0.65206 0.85983
 H3331 H 0.70436 0.63044 0.87144
 H3332 H 0.74758 0.57618 0.89486
 H3333 H 0.78124 0.59802 0.88341
 H3334 H 0.70442 0.57031 0.89175
 H3335 H 0.80549 0.63135 0.89009
 H3336 H 0.68508 0.61714 0.90460
 C3337 C 1.30678 0.85657 1.14068
 C3338 C 1.28795 0.84889 1.12813
 C3339 C 1.26932 0.86427 1.12072
 C3340 C 1.25541 0.85815 1.10182
 C3341 C 1.23713 0.87183 1.09512
 C3342 C 1.23224 0.89193 1.10734
 C3343 C 1.24585 0.89779 1.12655
 C3344 C 1.26421 0.88420 1.13316
 C3345 C 1.21239 0.90632 1.10130
 C3346 C 1.20342 0.90710 1.07873
 H3347 H 1.28624 0.83103 1.12453
 H3348 H 1.25862 0.84266 1.09229
 H3349 H 1.22651 0.86620 1.08080
 H3350 H 1.24220 0.91289 1.13657
 H3351 H 1.27387 0.88907 1.14846
 H3352 H 1.20457 0.91614 1.11509
 H3353 H 1.30875 0.87452 1.14352
 H3354 H 1.21208 0.89785 1.06503
 C3355 C 1.29681 0.34979 0.63243
 C3356 C 1.27882 0.36229 0.64197
 C3357 C 1.25988 0.37229 0.62823
 C3358 C 1.24032 0.37943 0.64024
 C3359 C 1.22212 0.38930 0.62831
 C3360 C 1.22314 0.39250 0.60399
 C3361 C 1.24262 0.38525 0.59189
 C3362 C 1.26089 0.37541 0.60386
 C3363 C 1.20393 0.40257 0.59076
 C3364 C 1.18813 0.41732 0.60088
 H3365 H 1.27774 0.36396 0.66077
 H3366 H 1.23900 0.37719 0.65899
 H3367 H 1.20716 0.39399 0.63819
 H3368 H 1.24381 0.38746 0.57314
 H3369 H 1.27579 0.37063 0.59395
 H3370 H 1.20291 0.39901 0.57222
 H3371 H 1.29675 0.34583 0.61397
 H3372 H 1.19097 0.42310 0.61861
 C3373 C 0.81493 0.87522 0.61978
 C3374 C 0.79243 0.86849 0.62290
 C3375 C 0.77248 0.88256 0.61658
 C3376 C 0.75092 0.87243 0.61609
 C3377 C 0.73153 0.88513 0.61102
 C3378 C 0.73327 0.90835 0.60629
 C3379 C 0.75469 0.91868 0.60752
 C3380 C 0.77413 0.90596 0.61256
 C3381 C 0.71310 0.92198 0.59974
 C3382 C 0.69511 0.91247 0.58727
 H3383 H 0.78929 0.85254 0.63156
 H3384 H 0.74905 0.85459 0.61968
 H3385 H 0.71518 0.87673 0.61109
 H3386 H 0.75643 0.93659 0.60429
 H3387 H 0.79022 0.91470 0.61367
 H3388 H 0.71353 0.94003 0.60259
 H3389 H 0.81890 0.89098 0.61127
 H3390 H 0.69638 0.89492 0.58213
 C3391 C 0.78896 0.35351 1.13980
 C3392 C 0.78291 0.35607 1.11637
 C3393 C 0.76267 0.36940 1.10929
 C3394 C 0.76265 0.38037 1.08758
 C3395 C 0.74428 0.39394 1.08092
 C3396 C 0.72536 0.39658 1.09579
 C3397 C 0.72529 0.38541 1.11737
 C3398 C 0.74360 0.37181 1.12398
 C3399 C 0.70541 0.41058 1.08937
 C3400 C 0.69906 0.41446 1.06623
 H3401 H 0.79449 0.35032 1.10290
 H3402 H 0.77711 0.37883 1.07595
 H3403 H 0.74520 0.40263 1.06435
 H3404 H 0.71087 0.38697 1.12904
 H3405 H 0.74259 0.36308 1.14053
 H3406 H 0.69397 0.41582 1.10320
 H3407 H 0.77860 0.36166 1.15299
 H3408 H 0.70899 0.40696 1.05230
 C3409 C 0.70424 1.14683 1.13075
 C3410 C 0.71255 1.12478 1.13004
 C3411 C 0.73456 1.11854 1.11933
 C3412 C 0.74527 1.09874 1.12685
 C3413 C 0.76612 1.09216 1.11739
 C3414 C 0.77653 1.10510 1.09978
 C3415 C 0.76579 1.12490 1.09221
 C3416 C 0.74494 1.13154 1.10176
 C3417 C 0.79877 1.09887 1.08949
 C3418 C 0.80754 1.07700 1.09022
 H3419 H 0.70292 1.11142 1.13826
 H3420 H 0.73766 1.08850 1.14043
 H3421 H 0.77411 1.07721 1.12437
 H3422 H 0.77346 1.13518 1.07871
 H3423 H 0.73695 1.14659 1.09502
 H3424 H 0.80851 1.11211 1.08119
 H3425 H 0.71367 1.16018 1.12228
 H3426 H 0.79774 1.06371 1.09830
 C3427 C 0.69663 0.63772 0.64344
 C3428 C 0.70580 0.63686 0.62089
 C3429 C 0.72703 0.62483 0.61451
 C3430 C 0.73755 0.63036 0.59327
 C3431 C 0.75786 0.62004 0.58653
 C3432 C 0.76803 0.60357 0.60079
 C3433 C 0.75746 0.59792 0.62200
 C3434 C 0.73713 0.60833 0.62879
 C3435 C 0.78995 0.59267 0.59464
 C3436 C 0.79886 0.59231 0.57197
 H3437 H 0.69745 0.64616 0.60709
 H3438 H 0.73024 0.64309 0.58198
 H3439 H 0.76568 0.62553 0.57043
 H3440 H 0.76494 0.58534 0.63335
 H3441 H 0.72944 0.60318 0.64508
 H3442 H 0.79943 0.58493 0.60870
 H3443 H 0.70409 0.62781 0.65729
 H3444 H 0.78930 0.59984 0.55786
 C3445 C 0.20438 1.15350 0.64505
 C3446 C 0.21104 1.13105 0.64226
 C3447 C 0.23256 1.12471 0.63027
 C3448 C 0.23389 1.10388 0.61863
 C3449 C 0.25350 1.09784 0.60621
 C3450 C 0.27235 1.11246 0.60537
 C3451 C 0.27112 1.13319 0.61717
 C3452 C 0.25157 1.13918 0.62969
 C3453 C 0.29348 1.10654 0.59253
 C3454 C 0.30094 1.08432 0.59025
 H3455 H 0.19898 1.11783 0.64640
 H3456 H 0.21951 1.09244 0.61871
 H3457 H 0.25365 1.08191 0.59692
 H3458 H 0.28547 1.14466 0.61699
 H3459 H 0.25156 1.15507 0.63903
 H3460 H 0.30463 1.12008 0.58702
 H3461 H 0.21539 1.16665 0.63844
 H3462 H 0.29115 1.07102 0.59839
 C3463 C 0.19917 0.64166 1.13462
 C3464 C 0.21451 0.62616 1.14417
 C3465 C 0.23475 0.61742 1.13155
 C3466 C 0.24537 0.59780 1.13982
 C3467 C 0.26509 0.58950 1.12914
 C3468 C 0.27469 0.60077 1.10989
 C3469 C 0.26416 0.62050 1.10175
 C3470 C 0.24444 0.62876 1.11240
 C3471 C 0.29612 0.59333 1.09855
 C3472 C 0.30531 0.57166 1.10067
 H3473 H 0.21200 0.62033 1.16188
 H3474 H 0.23849 0.58893 1.15478
 H3475 H 0.27296 0.57467 1.13650
 H3476 H 0.27136 0.62971 1.08719
 H3477 H 0.23737 0.64435 1.10592
 H3478 H 0.30501 0.60576 1.08819
 H3479 H 0.20159 0.64741 1.11688
 H3480 H 0.29656 0.55923 1.11115
 C3481 C 0.70634 0.84812 0.86614
 C3482 C 0.71258 0.87038 0.87100
 C3483 C 0.73313 0.87660 0.88456
 C3484 C 0.73437 0.89824 0.89447
 C3485 C 0.75365 0.90505 0.90692
 C3486 C 0.77224 0.89036 0.90949
 C3487 C 0.77091 0.86861 0.89990
 C3488 C 0.75166 0.86182 0.88737
 C3489 C 0.79330 0.89728 0.92170
 C3490 C 0.80078 0.91962 0.92215
 H3491 H 0.70128 0.88390 0.86586
 H3492 H 0.72033 0.90993 0.89263
 H3493 H 0.75384 0.92173 0.91462
 H3494 H 0.78505 0.85701 0.90162
 H3495 H 0.75171 0.84521 0.87953
 H3496 H 0.80439 0.88414 0.92823
 H3497 H 0.71610 0.83447 0.87362
 H3498 H 0.79102 0.93233 0.91301
 C3499 C 0.71024 0.34684 0.35067
 C3500 C 0.71352 0.36936 0.35697
 C3501 C 0.73367 0.37759 0.37019
 C3502 C 0.73674 0.40093 0.37288
 C3503 C 0.75505 0.40946 0.38579
 C3504 C 0.77085 0.39474 0.39622
 C3505 C 0.76749 0.37144 0.39401
 C3506 C 0.74916 0.36290 0.38120
 C3507 C 0.79096 0.40291 0.40945
 C3508 C 0.80037 0.42428 0.40624
 H3509 H 0.70013 0.38134 0.35310
 H3510 H 0.72484 0.41264 0.36506
 H3511 H 0.75648 0.42754 0.38775
 H3512 H 0.77920 0.35972 0.40213
 H3513 H 0.74721 0.34482 0.38048
 H3514 H 0.79990 0.39084 0.42024
 H3515 H 0.72316 0.33440 0.35430
 H3516 H 0.79275 0.43551 0.39360
 C3517 C 0.21390 0.84394 0.36508
 C3518 C 0.21791 0.86664 0.37002
 C3519 C 0.23701 0.87447 0.38474
 C3520 C 0.23592 0.89612 0.39464
 C3521 C 0.25388 0.90440 0.40813
 C3522 C 0.27338 0.89118 0.41178
 C3523 C 0.27433 0.86939 0.40230
 C3524 C 0.25646 0.86117 0.38868
 C3525 C 0.29330 0.89983 0.42461
 C3526 C 0.29953 0.92249 0.42393
 H3527 H 0.20582 0.87914 0.36408
 H3528 H 0.22111 0.90667 0.39191
 H3529 H 0.25243 0.92109 0.41568
 H3530 H 0.28926 0.85897 0.40482
 H3531 H 0.25833 0.84466 0.38086
 H3532 H 0.30503 0.88762 0.43186
 H3533 H 0.22424 0.83116 0.37335
 H3534 H 0.28921 0.93425 0.41411
 C3535 C 0.19297 0.37054 0.85677
 C3536 C 0.21212 0.36154 0.86783
 C3537 C 0.23199 0.37508 0.87545
 C3538 C 0.24657 0.36591 0.89235
 C3539 C 0.26556 0.37790 0.90017
 C3540 C 0.27041 0.39943 0.89120
 C3541 C 0.25620 0.40839 0.87384
 C3542 C 0.23711 0.39641 0.86607
 C3543 C 0.29068 0.41238 0.89876
 C3544 C 0.30074 0.40954 0.92070
 H3545 H 0.21251 0.34370 0.87171
 H3546 H 0.24325 0.34936 0.89959
 H3547 H 0.27660 0.36998 0.91284
 H3548 H 0.25985 0.42475 0.86632
 H3549 H 0.22680 0.40380 0.85245
 H3550 H 0.29776 0.42431 0.88649
 H3551 H 0.19260 0.38824 0.85228
 H3552 H 0.29301 0.39798 0.93296
   
