data_POSCAR
  _audit_creation_date              2014-09-24
  _audit_creation_method            'ToBaCCo'
  _symmetry_space_group_name_H-M    'P1'
  _symmetry_Int_Tables_number       1
  _symmetry_cell_setting            triclinic
  loop_
  _symmetry_equiv_pos_as_xyz
 x,y,z
_cell_length_a 87.9981
_cell_length_b 88.1792
_cell_length_c 88.5757
_cell_angle_alpha 89.953900
_cell_angle_beta 90.170300
_cell_angle_gamma 89.928000
loop_
  _atom_site_label
  _atom_site_type_symbol
  _atom_site_fract_x
  _atom_site_fract_y
  _atom_site_fract_z
N1 N 0.18414 0.22075 0.22402
 N2 N 0.18673 0.20740 0.23013
 C3 C 0.17688 0.20521 0.24153
 C4 C 0.16764 0.21789 0.24266
 C5 C 0.17262 0.22753 0.23136
 H6 H 0.17653 0.19517 0.24853
 H7 H 0.16795 0.23849 0.22844
 Cu8 Cu 0.20256 0.19399 0.22265
 Cu9 Cu 0.19529 0.22794 0.20650
 Cu10 Cu 0.22563 0.20607 0.19477
 N11 N 0.22111 0.18322 0.21738
 N12 N 0.23008 0.18800 0.20655
 C13 C 0.24198 0.17849 0.20533
 C14 C 0.24043 0.16708 0.21599
 C15 C 0.22701 0.17049 0.22343
 H16 H 0.25100 0.17973 0.19718
 H17 H 0.22198 0.16428 0.23267
 N18 N 0.21932 0.22476 0.18434
 N19 N 0.20789 0.23324 0.18894
 C20 C 0.20638 0.24516 0.17953
 C21 C 0.21736 0.24410 0.16842
 C22 C 0.22535 0.23101 0.17185
 H23 H 0.19771 0.25379 0.18050
 H24 H 0.23491 0.22640 0.16574
 H25 H 0.20238 0.20713 0.19838
 H26 H 0.21488 0.21654 0.21274
 N27 N 0.68353 0.72040 0.72365
 N28 N 0.68728 0.70798 0.73098
 C29 C 0.67747 0.70590 0.74244
 C30 C 0.66709 0.71771 0.74234
 C31 C 0.67132 0.72672 0.73026
 H32 H 0.67794 0.69661 0.75040
 H33 H 0.66577 0.73697 0.72642
 Cu34 Cu 0.70474 0.69587 0.72499
 Cu35 Cu 0.69453 0.72727 0.70587
 Cu36 Cu 0.72588 0.70609 0.69508
 N37 N 0.72269 0.68444 0.71911
 N38 N 0.73072 0.68831 0.70723
 C39 C 0.74221 0.67838 0.70550
 C40 C 0.74143 0.66777 0.71699
 C41 C 0.72892 0.67200 0.72545
 H42 H 0.75064 0.67896 0.69666
 H43 H 0.72458 0.66629 0.73533
 N44 N 0.71917 0.72445 0.68424
 N45 N 0.70709 0.73237 0.68821
 C46 C 0.70527 0.74396 0.67845
 C47 C 0.71682 0.74340 0.66791
 C48 C 0.72543 0.73089 0.67196
 H49 H 0.69631 0.75233 0.67906
 H50 H 0.73539 0.72667 0.66620
 H51 H 0.70284 0.70630 0.69953
 H52 H 0.71519 0.71797 0.71215
 N53 N 0.31491 0.77910 0.72369
 N54 N 0.31022 0.79054 0.73197
 C55 C 0.31965 0.79216 0.74387
 C56 C 0.33088 0.78116 0.74297
 C57 C 0.32746 0.77308 0.73000
 H58 H 0.31865 0.80091 0.75234
 H59 H 0.33361 0.76350 0.72548
 Cu60 Cu 0.29267 0.80249 0.72582
 Cu61 Cu 0.30457 0.77296 0.70520
 Cu62 Cu 0.27364 0.79472 0.69391
 N63 N 0.27515 0.81451 0.71967
 N64 N 0.26811 0.81170 0.70688
 C65 C 0.25690 0.82191 0.70492
 C66 C 0.25676 0.83168 0.71722
 C67 C 0.26857 0.82654 0.72636
 H68 H 0.24928 0.82195 0.69533
 H69 H 0.27233 0.83134 0.73694
 N70 N 0.28097 0.77699 0.68244
 N71 N 0.29261 0.76861 0.68685
 C72 C 0.29448 0.75714 0.67701
 C73 C 0.28351 0.75832 0.66583
 C74 C 0.27517 0.77107 0.66965
 H75 H 0.30321 0.74856 0.67790
 H76 H 0.26538 0.77551 0.66373
 H77 H 0.29632 0.79421 0.69983
 H78 H 0.28336 0.78146 0.71057
 N79 N 0.81483 0.27846 0.22393
 N80 N 0.81404 0.29256 0.22863
 C81 C 0.82517 0.29505 0.23876
 C82 C 0.83339 0.28171 0.24070
 C83 C 0.82637 0.27141 0.23105
 H84 H 0.82682 0.30572 0.24452
 H85 H 0.82942 0.25970 0.22913
 Cu86 Cu 0.79799 0.30609 0.22188
 Cu87 Cu 0.80073 0.27035 0.20899
 Cu88 Cu 0.77755 0.29684 0.19136
 N89 N 0.77931 0.31675 0.21682
 N90 N 0.77121 0.31302 0.20491
 C91 C 0.75917 0.32237 0.20382
 C92 C 0.75974 0.33255 0.21573
 C93 C 0.77271 0.32862 0.22374
 H94 H 0.75082 0.32197 0.19484
 H95 H 0.77704 0.33397 0.23385
 N96 N 0.78128 0.27655 0.18306
 N97 N 0.78979 0.26631 0.18991
 C98 C 0.79028 0.25372 0.18134
 C99 C 0.78159 0.25611 0.16845
 C100 C 0.77605 0.27075 0.17001
 H101 H 0.79683 0.24373 0.18413
 H102 H 0.76879 0.27685 0.16224
 H103 H 0.79959 0.29104 0.19882
 H104 H 0.78280 0.28588 0.21060
 N105 N 0.81568 0.72054 0.27682
 N106 N 0.81117 0.70897 0.26862
 C107 C 0.82060 0.70739 0.25676
 C108 C 0.83165 0.71853 0.25763
 C109 C 0.82814 0.72666 0.27053
 H110 H 0.81970 0.69860 0.24832
 H111 H 0.83416 0.73635 0.27500
 Cu112 Cu 0.79377 0.69684 0.27469
 Cu113 Cu 0.80516 0.72677 0.29515
 Cu114 Cu 0.77430 0.70498 0.30617
 N115 N 0.77630 0.68481 0.28075
 N116 N 0.76896 0.68788 0.29329
 C117 C 0.75772 0.67773 0.29513
 C118 C 0.75795 0.66776 0.28307
 C119 C 0.76989 0.67262 0.27414
 H120 H 0.74985 0.67772 0.30448
 H121 H 0.77376 0.66750 0.26376
 N122 N 0.78144 0.72277 0.31762
 N123 N 0.79304 0.73119 0.31331
 C124 C 0.79478 0.74270 0.32315
 C125 C 0.78378 0.74147 0.33422
 C126 C 0.77555 0.72867 0.33034
 H127 H 0.80346 0.75132 0.32236
 H128 H 0.76578 0.72419 0.33619
 H129 H 0.79708 0.70551 0.30061
 H130 H 0.78413 0.71803 0.28946
 N131 N 0.31591 0.22059 -0.22313
 N132 N 0.31015 0.21058 -0.23249
 C133 C 0.31954 0.20895 -0.24435
 C134 C 0.33199 0.21845 -0.24233
 C135 C 0.32920 0.22563 -0.22865
 H136 H 0.31744 0.20125 -0.25360
 H137 H 0.33615 0.23404 -0.22309
 Cu138 Cu 0.29103 0.20040 -0.22829
 Cu139 Cu 0.30560 0.22659 -0.20467
 Cu140 Cu 0.27466 0.20499 -0.19420
 N141 N 0.27544 0.18666 -0.22097
 N142 N 0.26930 0.18831 -0.20757
 C143 C 0.25904 0.17723 -0.20539
 C144 C 0.25867 0.16815 -0.21814
 C145 C 0.26925 0.17451 -0.22781
 H146 H 0.25216 0.17604 -0.19537
 H147 H 0.27237 0.17051 -0.23892
 N148 N 0.28188 0.22245 -0.18233
 N149 N 0.29359 0.23080 -0.18644
 C150 C 0.29537 0.24218 -0.17646
 C151 C 0.28425 0.24093 -0.16550
 C152 C 0.27593 0.22826 -0.16959
 H153 H 0.30410 0.25075 -0.17714
 H154 H 0.26602 0.22382 -0.16392
 H155 H 0.29682 0.20500 -0.20191
 H156 H 0.28371 0.21970 -0.21002
 N157 N 0.68502 0.27874 -0.22501
 N158 N 0.68796 0.29171 -0.23166
 C159 C 0.67813 0.29374 -0.24316
 C160 C 0.66848 0.28129 -0.24387
 C161 C 0.67333 0.27197 -0.23214
 H162 H 0.67812 0.30352 -0.25050
 H163 H 0.66847 0.26129 -0.22866
 Cu164 Cu 0.70440 0.30473 -0.22475
 Cu165 Cu 0.69583 0.27211 -0.20695
 Cu166 Cu 0.72479 0.29533 -0.19391
 N167 N 0.72157 0.31686 -0.21803
 N168 N 0.72923 0.31337 -0.20575
 C169 C 0.74040 0.32359 -0.20370
 C170 C 0.73981 0.33397 -0.21542
 C171 C 0.72772 0.32933 -0.22430
 H172 H 0.74864 0.32322 -0.19463
 H173 H 0.72371 0.33467 -0.23456
 N174 N 0.71867 0.27652 -0.18357
 N175 N 0.70796 0.26745 -0.18878
 C176 C 0.70667 0.25545 -0.17945
 C177 C 0.71700 0.25708 -0.16775
 C178 C 0.72440 0.27058 -0.17075
 H179 H 0.69857 0.24636 -0.18086
 H180 H 0.73343 0.27562 -0.16416
 H181 H 0.70205 0.29347 -0.19969
 H182 H 0.71596 0.28316 -0.21185
 N183 N 0.18382 0.78055 0.27702
 N184 N 0.18625 0.79403 0.27118
 C185 C 0.17643 0.79634 0.25972
 C186 C 0.16736 0.78358 0.25825
 C187 C 0.17242 0.77380 0.26944
 H188 H 0.17603 0.80650 0.25289
 H189 H 0.16793 0.76270 0.27209
 Cu190 Cu 0.20193 0.80740 0.27904
 Cu191 Cu 0.19517 0.77305 0.29437
 Cu192 Cu 0.22612 0.79432 0.30561
 N193 N 0.22096 0.81765 0.28357
 N194 N 0.23045 0.81240 0.29378
 C195 C 0.24264 0.82155 0.29452
 C196 C 0.24074 0.83332 0.28422
 C197 C 0.22675 0.83037 0.27748
 H198 H 0.25206 0.81976 0.30216
 H199 H 0.22117 0.83684 0.26871
 N200 N 0.21980 0.77569 0.31610
 N201 N 0.20806 0.76748 0.31173
 C202 C 0.20648 0.75566 0.32122
 C203 C 0.21773 0.75647 0.33216
 C204 C 0.22596 0.76934 0.32852
 H205 H 0.19755 0.74729 0.32045
 H206 H 0.23572 0.77377 0.33449
 H207 H 0.20273 0.79356 0.30287
 H208 H 0.21453 0.78451 0.28776
 N209 N 0.46960 0.43286 0.47244
 N210 N 0.45717 0.43653 0.47977
 C211 C 0.45494 0.42646 0.49099
 C212 C 0.46668 0.41598 0.49074
 C213 C 0.47577 0.42042 0.47880
 H214 H 0.44568 0.42687 0.49897
 H215 H 0.48606 0.41495 0.47496
 Cu216 Cu 0.44555 0.45448 0.47421
 Cu217 Cu 0.47686 0.44441 0.45513
 Cu218 Cu 0.45626 0.47652 0.44525
 N219 N 0.43391 0.47237 0.46850
 N220 N 0.43833 0.48106 0.45729
 C221 C 0.42857 0.49273 0.45581
 C222 C 0.41736 0.49131 0.46667
 C223 C 0.42113 0.47822 0.47452
 H224 H 0.42949 0.50149 0.44732
 H225 H 0.41514 0.47343 0.48402
 N226 N 0.47467 0.46996 0.43443
 N227 N 0.48234 0.45758 0.43800
 C228 C 0.49386 0.45585 0.42818
 C229 C 0.49350 0.46774 0.41799
 C230 C 0.48121 0.47649 0.42233
 H231 H 0.50198 0.44664 0.42844
 H232 H 0.47711 0.48665 0.41682
 H233 H 0.46795 0.46496 0.46191
 H234 H 0.45606 0.45336 0.44883
 N235 N -0.02937 -0.06608 0.97307
 N236 N -0.04223 -0.06286 0.97988
 C237 C -0.04437 -0.07278 0.99125
 C238 C -0.03217 -0.08271 0.99162
 C239 C -0.02286 -0.07808 0.97992
 H240 H -0.05399 -0.07269 0.99881
 H241 H -0.01225 -0.08319 0.97649
 Cu242 Cu -0.05492 -0.04597 0.97333
 Cu243 Cu -0.02214 -0.05471 0.95568
 Cu244 Cu -0.04236 -0.02241 0.94622
 N245 N -0.06651 -0.02817 0.96713
 N246 N -0.06152 -0.01902 0.95654
 C247 C -0.07137 -0.00746 0.95481
 C248 C -0.08323 -0.00942 0.96488
 C249 C -0.07974 -0.02273 0.97250
 H250 H -0.06992 0.00171 0.94684
 H251 H -0.08615 -0.02787 0.98154
 N252 N -0.02452 -0.02937 0.93480
 N253 N -0.01672 -0.04163 0.93848
 C254 C -0.00527 -0.04341 0.92859
 C255 C -0.00597 -0.03180 0.91809
 C256 C -0.01834 -0.02313 0.92238
 H257 H 0.00280 -0.05266 0.92881
 H258 H -0.02251 -0.01299 0.91689
 H259 H -0.03165 -0.03502 0.96325
 H260 H -0.04281 -0.04573 0.94873
 N261 N 1.02942 0.56514 0.97497
 N262 N 1.04293 0.56289 0.98093
 C263 C 1.04491 0.57249 0.99257
 C264 C 1.03193 0.58126 0.99401
 C265 C 1.02232 0.57622 0.98265
 H266 H 1.05508 0.57308 0.99942
 H267 H 1.01123 0.58070 0.97979
 Cu268 Cu 1.05679 0.54786 0.97284
 Cu269 Cu 1.02269 0.55464 0.95679
 Cu270 Cu 1.04849 0.52962 0.94072
 N271 N 1.06737 0.52940 0.96711
 N272 N 1.06436 0.52252 0.95430
 C273 C 1.07390 0.51073 0.95261
 C274 C 1.08334 0.51006 0.96513
 C275 C 1.07882 0.52208 0.97414
 H276 H 1.07389 0.50318 0.94299
 H277 H 1.08377 0.52552 0.98478
 N278 N 1.02848 0.53405 0.93182
 N279 N 1.01842 0.54311 0.93817
 C280 C 1.00583 0.54348 0.92950
 C281 C 1.00805 0.53418 0.91709
 C282 C 1.02256 0.52838 0.91900
 H283 H 0.99590 0.55029 0.93188
 H284 H 1.02836 0.52046 0.91171
 H285 H 1.03617 0.53543 0.95946
 H286 H 1.04395 0.55165 0.94840
 N287 N 0.52916 0.06594 0.47385
 N288 N 0.53978 0.06045 0.48277
 C289 C 0.54163 0.06983 0.49462
 C290 C 0.53162 0.08189 0.49305
 C291 C 0.52390 0.07900 0.47970
 H292 H 0.54978 0.06805 0.50361
 H293 H 0.51498 0.08578 0.47468
 Cu294 Cu 0.55025 0.04160 0.47816
 Cu295 Cu 0.52282 0.05567 0.45546
 Cu296 Cu 0.54461 0.02506 0.44429
 N297 N 0.56383 0.02601 0.47052
 N298 N 0.56175 0.01978 0.45720
 C299 C 0.57272 0.00942 0.45481
 C300 C 0.58218 0.00907 0.46734
 C301 C 0.57616 0.01978 0.47709
 H302 H 0.57354 0.00241 0.44484
 H303 H 0.58047 0.02289 0.48810
 N304 N 0.52671 0.03214 0.43287
 N305 N 0.51830 0.04372 0.43722
 C306 C 0.50671 0.04549 0.42742
 C307 C 0.50787 0.03451 0.41631
 C308 C 0.52072 0.02627 0.42015
 H309 H 0.49807 0.05417 0.42830
 H310 H 0.52520 0.01650 0.41429
 H311 H 0.53032 0.03396 0.46056
 H312 H 0.54448 0.04723 0.45193
 N313 N -0.03233 0.06844 0.52889
 N314 N -0.04287 0.06319 0.51975
 C315 C -0.04368 0.07211 0.50745
 C316 C -0.03314 0.08369 0.50899
 C317 C -0.02617 0.08098 0.52279
 H318 H -0.05161 0.07050 0.49825
 H319 H -0.01725 0.08755 0.52805
 Cu320 Cu -0.05515 0.04577 0.52535
 Cu321 Cu -0.02785 0.05877 0.54820
 Cu322 Cu -0.03996 0.02135 0.55013
 N323 N -0.06542 0.02701 0.53060
 N324 N -0.05937 0.01741 0.54025
 C325 C -0.06849 0.00524 0.54153
 C326 C -0.08105 0.00737 0.53227
 C327 C -0.07865 0.02134 0.52549
 H328 H -0.06615 -0.00433 0.54881
 H329 H -0.08587 0.02691 0.51729
 N330 N -0.02422 0.02985 0.56355
 N331 N -0.01999 0.04419 0.56314
 C332 C -0.00960 0.04664 0.57404
 C333 C -0.00717 0.03318 0.58178
 C334 C -0.01667 0.02279 0.57478
 H335 H -0.00411 0.05741 0.57602
 H336 H -0.01826 0.01102 0.57780
 H337 H -0.03098 0.03907 0.53716
 H338 H -0.04598 0.04351 0.55133
 N339 N 0.46874 0.56765 0.02823
 N340 N 0.45702 0.56329 0.02009
 C341 C 0.45509 0.57305 0.00854
 C342 C 0.46617 0.58417 0.00952
 C343 C 0.47460 0.58036 0.02219
 H344 H 0.44625 0.57219 0.00010
 H345 H 0.48449 0.58619 0.02653
 Cu346 Cu 0.44547 0.54526 0.02538
 Cu347 Cu 0.47589 0.55623 0.04568
 Cu348 Cu 0.45645 0.52321 0.05445
 N349 N 0.43458 0.52679 0.03055
 N350 N 0.43905 0.51813 0.04180
 C351 C 0.42958 0.50622 0.04298
 C352 C 0.41851 0.50748 0.03190
 C353 C 0.42207 0.52069 0.02422
 H354 H 0.43051 0.49749 0.05150
 H355 H 0.41604 0.52548 0.01470
 N356 N 0.47427 0.53032 0.06594
 N357 N 0.48143 0.54308 0.06284
 C358 C 0.49276 0.54502 0.07290
 C359 C 0.49280 0.53285 0.08277
 C360 C 0.48093 0.52375 0.07800
 H361 H 0.50057 0.55447 0.07292
 H362 H 0.47727 0.51324 0.08310
 H363 H 0.46799 0.53548 0.03820
 H364 H 0.45530 0.54637 0.05113
 N365 N 0.53010 -0.06605 0.02699
 N366 N 0.54207 -0.06181 0.01923
 C367 C 0.54396 -0.07137 0.00752
 C368 C 0.53261 -0.08222 0.00801
 C369 C 0.52403 -0.07847 0.02055
 H370 H 0.55305 -0.07062 -0.00063
 H371 H 0.51401 -0.08423 0.02462
 Cu372 Cu 0.55413 -0.04437 0.02533
 Cu373 Cu 0.52319 -0.05512 0.04479
 Cu374 Cu 0.54406 -0.02357 0.05550
 N375 N 0.56559 -0.02650 0.03136
 N376 N 0.56152 -0.01836 0.04309
 C377 C 0.57124 -0.00670 0.04472
 C378 C 0.58205 -0.00757 0.03342
 C379 C 0.57809 -0.02030 0.02515
 H380 H 0.57058 0.00166 0.05360
 H381 H 0.58379 -0.02465 0.01526
 N382 N 0.52604 -0.03065 0.06661
 N383 N 0.51803 -0.04258 0.06247
 C384 C 0.50643 -0.04443 0.07219
 C385 C 0.50721 -0.03315 0.08303
 C386 C 0.51980 -0.02464 0.07911
 H387 H 0.49815 -0.05344 0.07155
 H388 H 0.52401 -0.01468 0.08486
 H389 H 0.53203 -0.03434 0.03854
 H390 H 0.54416 -0.04655 0.05091
 N391 N 1.03040 0.43261 0.52754
 N392 N 1.04190 0.43730 0.51934
 C393 C 1.04375 0.42782 0.50757
 C394 C 1.03288 0.41651 0.50851
 C395 C 1.02462 0.41992 0.52135
 H396 H 1.05246 0.42891 0.49906
 H397 H 1.01493 0.41381 0.52570
 Cu398 Cu 1.05356 0.45505 0.52524
 Cu399 Cu 1.02327 0.44365 0.54523
 Cu400 Cu 1.04120 0.47786 0.55285
 N401 N 1.06486 0.47307 0.53109
 N402 N 1.05987 0.48201 0.54186
 C403 C 1.06948 0.49375 0.54350
 C404 C 1.08124 0.49204 0.53328
 C405 C 1.07793 0.47876 0.52560
 H406 H 1.06808 0.50275 0.55166
 H407 H 1.08443 0.47376 0.51654
 N408 N 1.02456 0.46974 0.56529
 N409 N 1.01775 0.45672 0.56242
 C410 C 1.00687 0.45440 0.57282
 C411 C 1.00691 0.46647 0.58280
 C412 C 1.01832 0.47594 0.57770
 H413 H 0.99953 0.44460 0.57320
 H414 H 1.02170 0.48666 0.58257
 H415 H 1.03022 0.46410 0.53702
 H416 H 1.04343 0.45471 0.55069
 C417 C 0.39666 0.00689 0.22890
 H418 H 0.39668 0.01755 0.23496
 C419 C 0.40652 0.00475 0.21677
 H420 H 0.41416 0.01380 0.21356
 C421 C 0.38694 -0.01799 0.22605
 H422 H 0.37947 -0.02691 0.22983
 C423 C 0.39668 -0.02066 0.21392
 H424 H 0.39636 -0.03154 0.20827
 N425 N 0.38696 -0.00431 0.23314
 C426 C 0.35137 0.02049 0.25688
 H427 H 0.35131 0.01437 0.26747
 C428 C 0.34144 0.03265 0.25468
 H429 H 0.33392 0.03596 0.26376
 C430 C 0.36142 0.02363 0.23229
 H431 H 0.36899 0.01988 0.22347
 C432 C 0.35164 0.03583 0.22959
 H433 H 0.35184 0.04135 0.21867
 Zn434 Zn 0.37410 -0.00042 0.24980
 N435 N 0.36125 0.01636 0.24584
 C436 C 0.38664 0.01721 0.27369
 N437 N 0.38682 0.00353 0.26661
 C438 C 0.39663 -0.00759 0.27093
 C439 C 0.40651 -0.00532 0.28308
 C440 C 0.39637 0.01999 0.28586
 C441 C 0.35170 -0.02159 0.24243
 C442 C 0.34181 -0.03377 0.24458
 C443 C 0.35149 -0.03643 0.26999
 C444 C 0.36128 -0.02428 0.26731
 N445 N 0.36133 -0.01724 0.25364
 H446 H 0.37912 0.02608 0.26980
 H447 H 0.39670 -0.01829 0.26495
 H448 H 0.41400 -0.01445 0.28652
 H449 H 0.39618 0.03102 0.29121
 H450 H 0.35180 -0.01564 0.23175
 H451 H 0.33453 -0.03726 0.23535
 H452 H 0.35148 -0.04172 0.28102
 H453 H 0.36866 -0.02035 0.27625
 C454 C 0.34150 0.04053 0.24089
 C455 C 0.40657 -0.00917 0.20908
 C456 C 0.34162 -0.04139 0.25851
 C457 C 0.40646 0.00862 0.29074
 C458 C 0.10080 -0.00586 0.73081
 H459 H 0.09902 -0.01515 0.73859
 C460 C 0.09086 -0.00375 0.71867
 H461 H 0.08137 -0.01143 0.71727
 C462 C 0.11504 0.01573 0.72361
 H463 H 0.12440 0.02337 0.72561
 C464 C 0.10542 0.01823 0.71128
 H465 H 0.10769 0.02765 0.70379
 N466 N 0.11268 0.00374 0.73298
 C467 C 0.15002 -0.01901 0.75581
 H468 H 0.15232 -0.01083 0.76462
 C469 C 0.15977 -0.03133 0.75376
 H470 H 0.16968 -0.03237 0.76094
 C471 C 0.13461 -0.02704 0.73537
 H472 H 0.12485 -0.02529 0.72815
 C473 C 0.14391 -0.03966 0.73307
 H474 H 0.14095 -0.04762 0.72424
 Zn475 Zn 0.12547 0.00026 0.74987
 N476 N 0.13775 -0.01707 0.74665
 C477 C 0.11412 -0.01582 0.77512
 N478 N 0.11288 -0.00284 0.76689
 C479 C 0.10223 0.00782 0.77021
 C480 C 0.09249 0.00580 0.78247
 C481 C 0.10452 -0.01837 0.78738
 C482 C 0.14994 0.01930 0.74289
 C483 C 0.16018 0.03124 0.74480
 C484 C 0.14694 0.03825 0.76761
 C485 C 0.13704 0.02611 0.76531
 N486 N 0.13859 0.01702 0.75301
 H487 H 0.12251 -0.02425 0.77216
 H488 H 0.10129 0.01789 0.76329
 H489 H 0.08403 0.01437 0.78493
 H490 H 0.10574 -0.02869 0.79390
 H491 H 0.15110 0.01173 0.73335
 H492 H 0.16927 0.03268 0.73672
 H493 H 0.14527 0.04553 0.77730
 H494 H 0.12815 0.02399 0.77340
 C495 C 0.15678 -0.04192 0.74226
 C496 C 0.09312 0.00841 0.70867
 C497 C 0.15874 0.04096 0.75728
 C498 C 0.09356 -0.00745 0.79121
 C499 C 0.60170 0.49281 0.23061
 H500 H 0.59995 0.48340 0.23825
 C501 C 0.59191 0.49494 0.21836
 H502 H 0.58253 0.48717 0.21678
 C503 C 0.61575 0.51469 0.22388
 H504 H 0.62499 0.52242 0.22612
 C505 C 0.60632 0.51717 0.21141
 H506 H 0.60863 0.52668 0.20404
 N507 N 0.61335 0.50261 0.23312
 C508 C 0.64927 0.47909 0.25771
 H509 H 0.65021 0.48609 0.26769
 C510 C 0.65907 0.46679 0.25576
 H511 H 0.66735 0.46425 0.26447
 C512 C 0.63719 0.47391 0.23434
 H513 H 0.62878 0.47685 0.22592
 C514 C 0.64683 0.46158 0.23188
 H515 H 0.64575 0.45522 0.22148
 Zn516 Zn 0.62574 0.49932 0.25029
 N517 N 0.63848 0.48229 0.24716
 C518 C 0.61482 0.48400 0.27638
 N519 N 0.61278 0.49609 0.26704
 C520 C 0.60108 0.50596 0.26913
 C521 C 0.59099 0.50398 0.28111
 C522 C 0.60510 0.48169 0.28859
 C523 C 0.65036 0.51840 0.24428
 C524 C 0.66023 0.53061 0.24638
 C525 C 0.64523 0.53840 0.26781
 C526 C 0.63572 0.52596 0.26539
 N527 N 0.63836 0.51634 0.25369
 H528 H 0.62399 0.47612 0.27445
 H529 H 0.59956 0.51534 0.26139
 H530 H 0.58163 0.51184 0.28238
 H531 H 0.60721 0.47220 0.29607
 H532 H 0.65230 0.51046 0.23518
 H533 H 0.66986 0.53185 0.23890
 H534 H 0.64270 0.54610 0.27699
 H535 H 0.62622 0.52408 0.27283
 C536 C 0.65793 0.45782 0.24269
 C537 C 0.59414 0.50726 0.20853
 C538 C 0.65771 0.54086 0.25826
 C539 C 0.59295 0.49173 0.29110
 C540 C 0.89806 0.50693 0.72986
 H541 H 0.89878 0.51720 0.73649
 C542 C 0.90789 0.50473 0.71772
 H543 H 0.91620 0.51336 0.71504
 C544 C 0.88661 0.48299 0.72558
 H545 H 0.87838 0.47450 0.72875
 C546 C 0.89635 0.48024 0.71346
 H547 H 0.89538 0.46971 0.70725
 N548 N 0.88753 0.49623 0.73340
 C549 C 0.85055 0.51933 0.75665
 H550 H 0.84929 0.51192 0.76631
 C551 C 0.84048 0.53140 0.75454
 H552 H 0.83139 0.53305 0.76257
 C553 C 0.86359 0.52564 0.73416
 H554 H 0.87246 0.52327 0.72611
 C555 C 0.85390 0.53794 0.73170
 H556 H 0.85575 0.54509 0.72194
 Zn557 Zn 0.87473 0.49983 0.75016
 N558 N 0.86188 0.51673 0.74658
 C559 C 0.88583 0.51634 0.77542
 N560 N 0.88737 0.50348 0.76709
 C561 C 0.89835 0.49310 0.77031
 C562 C 0.90812 0.49527 0.78256
 C563 C 0.89538 0.51897 0.78776
 C564 C 0.85080 0.48010 0.74350
 C565 C 0.84075 0.46805 0.74568
 C566 C 0.85417 0.46175 0.76867
 C567 C 0.86384 0.47402 0.76614
 N568 N 0.86209 0.48283 0.75365
 H569 H 0.87727 0.52462 0.77248
 H570 H 0.89944 0.48307 0.76337
 H571 H 0.91658 0.48672 0.78510
 H572 H 0.89407 0.52934 0.79417
 H573 H 0.84952 0.48742 0.73377
 H574 H 0.83166 0.46633 0.73761
 H575 H 0.85601 0.45472 0.77853
 H576 H 0.87272 0.47648 0.77421
 C577 C 0.84210 0.54097 0.74195
 C578 C 0.90710 0.49124 0.70936
 C579 C 0.84236 0.45865 0.75841
 C580 C 0.90668 0.50834 0.79150
 C581 C 0.22982 0.39897 0.00632
 H582 H 0.23697 0.40011 0.01621
 C583 C 0.21764 0.40890 0.00411
 H584 H 0.21566 0.41778 0.01231
 C585 C 0.22424 0.38634 -0.01662
 H586 H 0.22694 0.37769 -0.02480
 C587 C 0.21185 0.39593 -0.01921
 H588 H 0.20498 0.39423 -0.02921
 N589 N 0.23281 0.38790 -0.00392
 C590 C 0.25702 0.35284 0.02118
 H591 H 0.26743 0.35219 0.01474
 C592 C 0.25490 0.34332 0.03359
 H593 H 0.26371 0.33529 0.03662
 C594 C 0.23271 0.36384 0.02474
 H595 H 0.22403 0.37175 0.02116
 C596 C 0.23006 0.35446 0.03717
 H597 H 0.21943 0.35543 0.04321
 Zn598 Zn 0.24976 0.37523 0.00001
 N599 N 0.24608 0.36296 0.01712
 C600 C 0.27426 0.38783 0.01683
 N601 N 0.26668 0.38805 0.00343
 C602 C 0.27060 0.39790 -0.00772
 C603 C 0.28288 0.40773 -0.00580
 C604 C 0.28657 0.39751 0.01926
 C605 C 0.24261 0.35173 -0.02004
 C606 C 0.24477 0.34166 -0.03201
 C607 C 0.26960 0.35257 -0.03601
 C608 C 0.26693 0.36248 -0.02402
 N609 N 0.25350 0.36205 -0.01645
 H610 H 0.27070 0.38029 0.02574
 H611 H 0.26422 0.39800 -0.01818
 H612 H 0.28602 0.41521 -0.01496
 H613 H 0.29235 0.39726 0.03007
 H614 H 0.23215 0.35142 -0.01365
 H615 H 0.23577 0.33382 -0.03491
 H616 H 0.28042 0.35300 -0.04176
 H617 H 0.27567 0.37038 -0.02069
 C618 C 0.24127 0.34408 0.04177
 C619 C 0.20840 0.40742 -0.00877
 C620 C 0.25840 0.34203 -0.04023
 C621 C 0.29109 0.40758 0.00783
 C622 C 0.72875 0.10262 -0.00745
 H623 H 0.73477 0.10254 -0.01808
 C624 C 0.71649 0.09284 -0.00523
 H625 H 0.71300 0.08543 -0.01434
 C626 C 0.72599 0.11255 0.01724
 H627 H 0.72991 0.12002 0.02608
 C628 C 0.71371 0.10291 0.01997
 H629 H 0.70833 0.10311 0.03094
 N630 N 0.73312 0.11234 0.00364
 C631 C 0.75749 0.14730 -0.02138
 H632 H 0.76827 0.14719 -0.01547
 C633 C 0.75530 0.15706 -0.03361
 H634 H 0.76443 0.16452 -0.03704
 C635 C 0.73237 0.13794 -0.02384
 H636 H 0.72339 0.13063 -0.01988
 C637 C 0.72964 0.14764 -0.03602
 H638 H 0.71863 0.14748 -0.04152
 Zn639 Zn 0.75010 0.12490 -0.00023
 N640 N 0.74620 0.13779 -0.01692
 C641 C 0.77388 0.11202 -0.01784
 N642 N 0.76674 0.11187 -0.00424
 C643 C 0.77083 0.10187 0.00674
 C644 C 0.78285 0.09179 0.00443
 C645 C 0.78593 0.10210 -0.02064
 C646 C 0.74330 0.14759 0.02065
 C647 C 0.74558 0.15730 0.03289
 C648 C 0.77055 0.14639 0.03633
 C649 C 0.76778 0.13688 0.02402
 N650 N 0.75424 0.13750 0.01659
 H651 H 0.77014 0.11966 -0.02663
 H652 H 0.76478 0.10181 0.01735
 H653 H 0.78614 0.08416 0.01346
 H654 H 0.79136 0.10229 -0.03160
 H655 H 0.73271 0.14799 0.01442
 H656 H 0.73658 0.16501 0.03613
 H657 H 0.78144 0.14582 0.04202
 H658 H 0.77652 0.12911 0.02037
 C659 C 0.74123 0.15728 -0.04112
 C660 C 0.70878 0.09290 0.00864
 C661 C 0.75935 0.15675 0.04095
 C662 C 0.79061 0.09185 -0.00940
 C663 C 0.22791 0.60183 0.49286
 H664 H 0.23384 0.60186 0.48218
 C665 C 0.21565 0.59205 0.49507
 H666 H 0.21221 0.58452 0.48604
 C667 C 0.22548 0.61136 0.51775
 H668 H 0.22948 0.61874 0.52663
 C669 C 0.21327 0.60164 0.52050
 H670 H 0.20778 0.60185 0.53142
 N671 N 0.23240 0.61141 0.50403
 C672 C 0.25655 0.64664 0.47919
 H673 H 0.26724 0.64661 0.48526
 C674 C 0.25441 0.65649 0.46703
 H675 H 0.26363 0.66386 0.46367
 C676 C 0.23165 0.63687 0.47620
 H677 H 0.22269 0.62945 0.48000
 C678 C 0.22900 0.64659 0.46401
 H679 H 0.21798 0.64648 0.45855
 Zn680 Zn 0.24925 0.62412 0.50013
 N681 N 0.24534 0.63692 0.48338
 C682 C 0.27324 0.61143 0.48268
 N683 N 0.26606 0.61130 0.49626
 C684 C 0.27028 0.60149 0.50736
 C685 C 0.28246 0.59158 0.50519
 C686 C 0.28545 0.60167 0.48001
 C687 C 0.24206 0.64669 0.52100
 C688 C 0.24430 0.65664 0.53305
 C689 C 0.26967 0.64655 0.53608
 C690 C 0.26691 0.63675 0.52400
 N691 N 0.25322 0.63688 0.51684
 H692 H 0.26941 0.61894 0.47382
 H693 H 0.26422 0.60146 0.51796
 H694 H 0.28585 0.58411 0.51431
 H695 H 0.29090 0.60183 0.46907
 H696 H 0.23135 0.64670 0.51497
 H697 H 0.23514 0.66412 0.53637
 H698 H 0.28072 0.64642 0.54149
 H699 H 0.27581 0.62922 0.52024
 C700 C 0.24049 0.65653 0.45922
 C701 C 0.20817 0.59190 0.50903
 C702 C 0.25827 0.65665 0.54078
 C703 C 0.29026 0.59161 0.49137
 C704 C 0.73090 0.89988 0.50647
 H705 H 0.73838 0.90116 0.51610
 C706 C 0.71890 0.91003 0.50430
 H707 H 0.71734 0.91919 0.51228
 C708 C 0.72433 0.88670 0.48410
 H709 H 0.72657 0.87772 0.47613
 C710 C 0.71212 0.89651 0.48157
 H711 H 0.70491 0.89468 0.47181
 N712 N 0.73331 0.88841 0.49651
 C713 C 0.75620 0.85144 0.51996
 H714 H 0.76571 0.84967 0.51246
 C715 C 0.75399 0.84171 0.53221
 H716 H 0.76180 0.83237 0.53389
 C717 C 0.73416 0.86545 0.52637
 H718 H 0.72638 0.87463 0.52400
 C719 C 0.73162 0.85611 0.53885
 H720 H 0.72202 0.85846 0.54610
 Zn721 Zn 0.75006 0.87538 0.50022
 N722 N 0.74637 0.86305 0.51731
 C723 C 0.77536 0.88665 0.51670
 N724 N 0.76727 0.88776 0.50363
 C725 C 0.77088 0.89820 0.49293
 C726 C 0.78324 0.90789 0.49502
 C727 C 0.78779 0.89615 0.51927
 C728 C 0.74257 0.85191 0.48014
 C729 C 0.74460 0.84192 0.46808
 C730 C 0.76922 0.85313 0.46364
 C731 C 0.76668 0.86295 0.47573
 N732 N 0.75344 0.86232 0.48357
 H733 H 0.77211 0.87852 0.52521
 H734 H 0.76413 0.89895 0.48272
 H735 H 0.78607 0.91594 0.48624
 H736 H 0.79395 0.89523 0.52983
 H737 H 0.73226 0.85145 0.48674
 H738 H 0.73564 0.83398 0.46532
 H739 H 0.77992 0.85371 0.45767
 H740 H 0.77539 0.87095 0.47890
 C741 C 0.74158 0.84400 0.54191
 C742 C 0.70924 0.90838 0.49174
 C743 C 0.75806 0.84248 0.45960
 C744 C 0.79189 0.90694 0.50835
 C745 C 0.00679 0.23009 0.39855
 H746 H 0.01698 0.23689 0.39936
 C747 C 0.00462 0.21794 0.40842
 H748 H 0.01336 0.21532 0.41664
 C749 C -0.01687 0.22526 0.38667
 H750 H -0.02533 0.22829 0.37833
 C751 C -0.01954 0.21305 0.39636
 H752 H -0.03010 0.20684 0.39537
 N753 N -0.00380 0.23339 0.38783
 C754 C 0.01987 0.25705 0.35169
 H755 H 0.01264 0.26691 0.35052
 C756 C 0.03209 0.25497 0.34188
 H757 H 0.03404 0.26325 0.33308
 C758 C 0.02560 0.23401 0.36426
 H759 H 0.02294 0.22575 0.37285
 C760 C 0.03802 0.23155 0.35479
 H761 H 0.04496 0.22155 0.35651
 Zn762 Zn -0.00018 0.25024 0.37512
 N763 N 0.01691 0.24668 0.36266
 C764 C 0.01674 0.27487 0.38705
 N765 N 0.00334 0.26722 0.38773
 C766 C -0.00753 0.27104 0.39793
 C767 C -0.00533 0.28329 0.40767
 C768 C 0.01949 0.28707 0.39672
 C769 C -0.01963 0.24323 0.35117
 C770 C -0.03163 0.24516 0.34100
 C771 C -0.03824 0.26842 0.35378
 C772 C -0.02599 0.26614 0.36358
 N773 N -0.01707 0.25361 0.36222
 H774 H 0.02539 0.27145 0.37912
 H775 H -0.01793 0.26453 0.39849
 H776 H -0.01410 0.28619 0.41573
 H777 H 0.03018 0.29311 0.39598
 H778 H -0.01222 0.23348 0.35020
 H779 H -0.03322 0.23689 0.33212
 H780 H -0.04538 0.27829 0.35534
 H781 H -0.02366 0.27443 0.37224
 C782 C 0.04141 0.24210 0.34338
 C783 C -0.00869 0.20921 0.40740
 C784 C -0.04120 0.25787 0.34225
 C785 C 0.00834 0.29144 0.40714
 C786 C -0.00720 0.72990 0.10164
 H787 H -0.01679 0.73742 0.10004
 C788 C -0.00518 0.71752 0.09204
 H789 H -0.01322 0.71571 0.08295
 C790 C 0.01522 0.72359 0.11513
 H791 H 0.02321 0.72605 0.12408
 C792 C 0.01762 0.71101 0.10587
 H793 H 0.02733 0.70377 0.10802
 N794 N 0.00291 0.73266 0.11294
 C795 C -0.02059 0.75738 0.14852
 H796 H -0.01367 0.76748 0.14930
 C797 C -0.03284 0.75539 0.15830
 H798 H -0.03543 0.76419 0.16641
 C799 C -0.02560 0.73374 0.13684
 H800 H -0.02262 0.72522 0.12861
 C801 C -0.03789 0.73125 0.14645
 H802 H -0.04418 0.72075 0.14552
 Zn803 Zn -0.00039 0.74993 0.12518
 N804 N -0.01733 0.74672 0.13792
 C805 C -0.01606 0.77595 0.11409
 N806 N -0.00383 0.76670 0.11220
 C807 C 0.00613 0.76894 0.10069
 C808 C 0.00412 0.78101 0.09067
 C809 C -0.01840 0.78827 0.10444
 C810 C 0.01923 0.74387 0.14939
 C811 C 0.03150 0.74613 0.15915
 C812 C 0.03842 0.76826 0.14465
 C813 C 0.02595 0.76564 0.13523
 N814 N 0.01673 0.75352 0.13766
 H815 H -0.02406 0.77383 0.12305
 H816 H 0.01566 0.76131 0.09933
 H817 H 0.01224 0.78273 0.08167
 H818 H -0.02819 0.79553 0.10611
 H819 H 0.01159 0.73444 0.15119
 H820 H 0.03312 0.73843 0.16855
 H821 H 0.04579 0.77780 0.14230
 H822 H 0.02369 0.77330 0.12597
 C823 C -0.04171 0.74218 0.15733
 C824 C 0.00736 0.70783 0.09409
 C825 C 0.04134 0.75845 0.15683
 C826 C -0.00823 0.79092 0.09256
 C827 C 0.49186 0.22883 0.60271
 H828 H 0.48155 0.23550 0.60202
 C829 C 0.49396 0.21652 0.59303
 H830 H 0.48507 0.21365 0.58506
 C831 C 0.51587 0.22448 0.61410
 H832 H 0.52447 0.22776 0.62220
 C833 C 0.51848 0.21213 0.60460
 H834 H 0.52915 0.20607 0.60545
 N835 N 0.50269 0.23249 0.61305
 C836 C 0.47904 0.25712 0.64870
 H837 H 0.48559 0.26749 0.64911
 C838 C 0.46692 0.25503 0.65862
 H839 H 0.46404 0.26402 0.66642
 C840 C 0.47489 0.23291 0.63791
 H841 H 0.47819 0.22418 0.63004
 C842 C 0.46277 0.23028 0.64771
 H843 H 0.45693 0.21950 0.64722
 Zn844 Zn 0.49933 0.24965 0.62539
 N845 N 0.48262 0.24624 0.63843
 C846 C 0.48333 0.27557 0.61431
 N847 N 0.49561 0.26638 0.61242
 C848 C 0.50545 0.26857 0.60080
 C849 C 0.50328 0.28053 0.59068
 C850 C 0.48083 0.28778 0.60457
 C851 C 0.51891 0.24383 0.64954
 C852 C 0.53130 0.24594 0.65918
 C853 C 0.53893 0.26736 0.64397
 C854 C 0.52625 0.26496 0.63476
 N855 N 0.51662 0.25327 0.63761
 H856 H 0.47539 0.27346 0.62333
 H857 H 0.51501 0.26098 0.59941
 H858 H 0.51130 0.28220 0.58158
 H859 H 0.47100 0.29499 0.60623
 H860 H 0.51099 0.23469 0.65163
 H861 H 0.53265 0.23848 0.66879
 H862 H 0.54664 0.27650 0.64123
 H863 H 0.52420 0.27241 0.62529
 C864 C 0.45855 0.24147 0.65819
 C865 C 0.50744 0.20799 0.59388
 C866 C 0.54160 0.25781 0.65643
 C867 C 0.49088 0.29037 0.59258
 C868 C 0.50693 0.73009 0.89869
 H869 H 0.51739 0.73652 0.89906
 C870 C 0.50475 0.71804 0.90868
 H871 H 0.51373 0.71510 0.91653
 C872 C 0.48261 0.72614 0.88787
 H873 H 0.47387 0.72951 0.87998
 C874 C 0.47991 0.71406 0.89770
 H875 H 0.46908 0.70828 0.89721
 N876 N 0.49604 0.73374 0.88838
 C877 C 0.51972 0.75679 0.85177
 H878 H 0.51257 0.76671 0.85063
 C879 C 0.53185 0.75460 0.84189
 H880 H 0.53380 0.76284 0.83305
 C881 C 0.52533 0.73372 0.86433
 H882 H 0.52265 0.72549 0.87294
 C883 C 0.53769 0.73117 0.85481
 H884 H 0.54458 0.72113 0.85652
 Zn885 Zn 0.49982 0.75036 0.87535
 N886 N 0.51675 0.74647 0.86278
 C887 C 0.51697 0.77505 0.88698
 N888 N 0.50355 0.76745 0.88768
 C889 C 0.49262 0.77144 0.89774
 C890 C 0.49482 0.78372 0.90742
 C891 C 0.51969 0.78736 0.89652
 C892 C 0.47894 0.74273 0.85271
 C893 C 0.46664 0.74470 0.84291
 C894 C 0.46306 0.76986 0.85309
 C895 C 0.47537 0.76737 0.86276
 N896 N 0.48291 0.75389 0.86254
 H897 H 0.52566 0.77147 0.87917
 H898 H 0.48213 0.76506 0.89818
 H899 H 0.48583 0.78688 0.91512
 H900 H 0.53054 0.79310 0.89595
 H901 H 0.48534 0.73225 0.85254
 H902 H 0.46366 0.73569 0.83516
 H903 H 0.45705 0.78057 0.85358
 H904 H 0.47892 0.77626 0.87036
 C905 C 0.54111 0.74167 0.84337
 C906 C 0.49110 0.70979 0.90823
 C907 C 0.45850 0.75840 0.84306
 C908 C 0.50853 0.79187 0.90692
 C909 C 0.13031 0.22520 0.27313
 C910 C 0.13760 0.23754 0.26623
 C911 C 0.14972 0.23517 0.25634
 C912 C 0.15491 0.22041 0.25327
 C913 C 0.14771 0.20808 0.26031
 C914 C 0.13548 0.21044 0.27006
 C915 C 0.11731 0.22769 0.28343
 C916 C 0.10415 0.21879 0.28218
 C917 C 0.09184 0.22119 0.29183
 C918 C 0.09247 0.23245 0.30306
 C919 C 0.10571 0.24131 0.30432
 C920 C 0.11795 0.23900 0.29456
 C921 C 0.07940 0.23493 0.31340
 C922 C 0.07547 0.24963 0.31817
 C923 C 0.06323 0.25194 0.32792
 C924 C 0.05451 0.23963 0.33306
 C925 C 0.05839 0.22494 0.32824
 C926 C 0.07072 0.22262 0.31860
 H927 H 0.13377 0.24902 0.26832
 H928 H 0.15508 0.24492 0.25119
 H929 H 0.15135 0.19656 0.25811
 H930 H 0.13013 0.20074 0.27533
 H931 H 0.10329 0.21013 0.27356
 H932 H 0.08174 0.21435 0.29033
 H933 H 0.10671 0.24988 0.31300
 H934 H 0.12804 0.24590 0.29588
 H935 H 0.08176 0.25940 0.31424
 H936 H 0.06070 0.26339 0.33154
 H937 H 0.05182 0.21521 0.33177
 H938 H 0.07352 0.21112 0.31534
 C939 C 0.62968 0.72476 0.77270
 C940 C 0.63631 0.73708 0.76513
 C941 C 0.64840 0.73477 0.75519
 C942 C 0.65424 0.72014 0.75281
 C943 C 0.64769 0.70784 0.76049
 C944 C 0.63545 0.71012 0.77026
 C945 C 0.61677 0.72719 0.78310
 C946 C 0.60380 0.71797 0.78221
 C947 C 0.59155 0.72034 0.79192
 C948 C 0.59206 0.73187 0.80290
 C949 C 0.60514 0.74100 0.80383
 C950 C 0.61730 0.73875 0.79397
 C951 C 0.57902 0.73437 0.81329
 C952 C 0.57502 0.74910 0.81791
 C953 C 0.56282 0.75144 0.82771
 C954 C 0.55419 0.73915 0.83302
 C955 C 0.55814 0.72443 0.82834
 C956 C 0.57045 0.72207 0.81868
 H957 H 0.63200 0.74847 0.76676
 H958 H 0.65328 0.74449 0.74952
 H959 H 0.65187 0.69642 0.75881
 H960 H 0.63059 0.70046 0.77604
 H961 H 0.60305 0.70909 0.77379
 H962 H 0.58157 0.71329 0.79066
 H963 H 0.60609 0.74978 0.81231
 H964 H 0.62726 0.74589 0.79500
 H965 H 0.58120 0.75887 0.81383
 H966 H 0.56027 0.76292 0.83122
 H967 H 0.55164 0.71470 0.83201
 H968 H 0.57331 0.71055 0.81556
 C969 C 0.36882 0.77431 0.77315
 C970 C 0.36889 0.76807 0.75855
 C971 C 0.35657 0.77025 0.74880
 C972 C 0.34390 0.77878 0.75338
 C973 C 0.34382 0.78505 0.76797
 C974 C 0.35612 0.78281 0.77774
 C975 C 0.38194 0.77197 0.78350
 C976 C 0.38702 0.78374 0.79294
 C977 C 0.39939 0.78154 0.80262
 C978 C 0.40702 0.76753 0.80308
 C979 C 0.40194 0.75576 0.79363
 C980 C 0.38954 0.75794 0.78399
 C981 C 0.42022 0.76519 0.81333
 C982 C 0.42225 0.75132 0.82092
 C983 C 0.43469 0.74910 0.83051
 C984 C 0.44535 0.76074 0.83280
 C985 C 0.44332 0.77462 0.82526
 C986 C 0.43092 0.77681 0.81561
 H987 H 0.37860 0.76170 0.75455
 H988 H 0.35712 0.76541 0.73760
 H989 H 0.33418 0.79153 0.77194
 H990 H 0.35560 0.78758 0.78899
 H991 H 0.38153 0.79474 0.79272
 H992 H 0.40289 0.79079 0.80987
 H993 H 0.40767 0.74488 0.79357
 H994 H 0.38582 0.74858 0.77700
 H995 H 0.41409 0.74223 0.81962
 H996 H 0.43584 0.73837 0.83635
 H997 H 0.45147 0.78371 0.82664
 H998 H 0.42984 0.78754 0.80974
 C999 C -0.12913 0.27413 0.27006
 C1000 C -0.13570 0.26203 0.26213
 C1001 C -0.14794 0.26452 0.25234
 C1002 C -0.15410 0.27918 0.25042
 C1003 C -0.14745 0.29125 0.25852
 C1004 C -0.13507 0.28876 0.26812
 C1005 C -0.11613 0.27152 0.28041
 C1006 C -0.10331 0.28095 0.27986
 C1007 C -0.09111 0.27860 0.28971
 C1008 C -0.09153 0.26688 0.30050
 C1009 C -0.10442 0.25745 0.30102
 C1010 C -0.11654 0.25969 0.29101
 C1011 C -0.07863 0.26456 0.31120
 C1012 C -0.07437 0.24988 0.31581
 C1013 C -0.06233 0.24773 0.32591
 C1014 C -0.05410 0.26017 0.33155
 C1015 C -0.05831 0.27484 0.32687
 C1016 C -0.07047 0.27700 0.31691
 H1017 H -0.13124 0.25065 0.26339
 H1018 H -0.15261 0.25483 0.24649
 H1019 H -0.15161 0.30274 0.25744
 H1020 H -0.13026 0.29827 0.27421
 H1021 H -0.10266 0.29004 0.27165
 H1022 H -0.08126 0.28588 0.28875
 H1023 H -0.10530 0.24850 0.30933
 H1024 H -0.12638 0.25237 0.29177
 H1025 H -0.08024 0.24001 0.31150
 H1026 H -0.05958 0.23628 0.32940
 H1027 H -0.05212 0.28469 0.33077
 H1028 H -0.07355 0.28848 0.31382
 C1029 C -0.13064 0.72557 0.22752
 C1030 C -0.13036 0.73153 0.24223
 C1031 C -0.14263 0.72932 0.25196
 C1032 C -0.15540 0.72100 0.24725
 C1033 C -0.15566 0.71501 0.23255
 C1034 C -0.14344 0.71733 0.22277
 C1035 C -0.11762 0.72795 0.21720
 C1036 C -0.12008 0.73199 0.20204
 C1037 C -0.10780 0.73435 0.19235
 C1038 C -0.09278 0.73262 0.19757
 C1039 C -0.09036 0.72849 0.21273
 C1040 C -0.10264 0.72624 0.22244
 C1041 C -0.07971 0.73510 0.18725
 C1042 C -0.06637 0.74214 0.19248
 C1043 C -0.05406 0.74442 0.18281
 C1044 C -0.05481 0.73978 0.16764
 C1045 C -0.06817 0.73279 0.16240
 C1046 C -0.08045 0.73044 0.17209
 H1047 H -0.12070 0.73805 0.24614
 H1048 H -0.14199 0.73400 0.26323
 H1049 H -0.16535 0.70863 0.22851
 H1050 H -0.14391 0.71251 0.21153
 H1051 H -0.13151 0.73359 0.19775
 H1052 H -0.11007 0.73777 0.18082
 H1053 H -0.07896 0.72678 0.21705
 H1054 H -0.10042 0.72291 0.23401
 H1055 H -0.06547 0.74604 0.20403
 H1056 H -0.04388 0.74966 0.18727
 H1057 H -0.06922 0.72924 0.15074
 H1058 H -0.09047 0.72482 0.16773
 C1059 C 0.36976 0.22472 0.72849
 C1060 C 0.36924 0.23189 0.74263
 C1061 C 0.35683 0.22985 0.75221
 C1062 C 0.34458 0.22044 0.74801
 C1063 C 0.34524 0.21314 0.73386
 C1064 C 0.35761 0.21531 0.72423
 C1065 C 0.38289 0.22711 0.71821
 C1066 C 0.38848 0.21517 0.70927
 C1067 C 0.40075 0.21747 0.69955
 C1068 C 0.40780 0.23172 0.69864
 C1069 C 0.40230 0.24364 0.70761
 C1070 C 0.38995 0.24139 0.71722
 C1071 C 0.42080 0.23417 0.68833
 C1072 C 0.43371 0.24214 0.69323
 C1073 C 0.44597 0.24445 0.68351
 C1074 C 0.44554 0.23896 0.66860
 C1075 C 0.43256 0.23104 0.66371
 C1076 C 0.42037 0.22862 0.67349
 H1077 H 0.37853 0.23898 0.74641
 H1078 H 0.35707 0.23560 0.76297
 H1079 H 0.33614 0.20588 0.72997
 H1080 H 0.35751 0.20979 0.71332
 H1081 H 0.38351 0.20397 0.70993
 H1082 H 0.40489 0.20804 0.69290
 H1083 H 0.40740 0.25480 0.70697
 H1084 H 0.38578 0.25091 0.72371
 H1085 H 0.43442 0.24638 0.70469
 H1086 H 0.45589 0.25035 0.68775
 H1087 H 0.43170 0.22690 0.65224
 H1088 H 0.41046 0.22262 0.66936
 C1089 C 0.63156 0.27412 0.72603
 C1090 C 0.63916 0.28807 0.72629
 C1091 C 0.65146 0.29037 0.73603
 C1092 C 0.65630 0.27884 0.74601
 C1093 C 0.64854 0.26485 0.74568
 C1094 C 0.63642 0.26250 0.73572
 C1095 C 0.61850 0.27174 0.71574
 C1096 C 0.61780 0.25884 0.70652
 C1097 C 0.60550 0.25665 0.69674
 C1098 C 0.59349 0.26721 0.69616
 C1099 C 0.59421 0.28007 0.70553
 C1100 C 0.60664 0.28237 0.71512
 C1101 C 0.58027 0.26480 0.68588
 C1102 C 0.57292 0.27717 0.67897
 C1103 C 0.56038 0.27492 0.66951
 C1104 C 0.55497 0.26022 0.66652
 C1105 C 0.56244 0.24783 0.67330
 C1106 C 0.57483 0.25010 0.68293
 H1107 H 0.63566 0.29718 0.71884
 H1108 H 0.65690 0.30135 0.73583
 H1109 H 0.65183 0.25556 0.75296
 H1110 H 0.63067 0.25164 0.73575
 H1111 H 0.62691 0.25057 0.70670
 H1112 H 0.60553 0.24678 0.68949
 H1113 H 0.58506 0.28829 0.70566
 H1114 H 0.60685 0.29233 0.72227
 H1115 H 0.57690 0.28864 0.68075
 H1116 H 0.55483 0.28476 0.66470
 H1117 H 0.55879 0.23633 0.67110
 H1118 H 0.58003 0.24029 0.68820
 C1119 C 0.13042 0.77626 0.22708
 C1120 C 0.13568 0.79100 0.23004
 C1121 C 0.14778 0.79337 0.24003
 C1122 C 0.15478 0.78106 0.24738
 C1123 C 0.14952 0.76632 0.24438
 C1124 C 0.13751 0.76394 0.23429
 C1125 C 0.11746 0.77375 0.21663
 C1126 C 0.11792 0.76199 0.20595
 C1127 C 0.10566 0.75957 0.19617
 C1128 C 0.09262 0.76878 0.19693
 C1129 C 0.09219 0.78053 0.20765
 C1130 C 0.10450 0.78302 0.21735
 C1131 C 0.07952 0.76613 0.18661
 C1132 C 0.07123 0.77839 0.18064
 C1133 C 0.05885 0.77591 0.17104
 C1134 C 0.05451 0.76109 0.16708
 C1135 C 0.06283 0.74882 0.17301
 C1136 C 0.07515 0.75131 0.18269
 H1137 H 0.13051 0.80069 0.22453
 H1138 H 0.15147 0.80487 0.24214
 H1139 H 0.15472 0.75657 0.24974
 H1140 H 0.13361 0.75247 0.23232
 H1141 H 0.12785 0.75480 0.20502
 H1142 H 0.10650 0.75060 0.18788
 H1143 H 0.08224 0.78766 0.20874
 H1144 H 0.10375 0.79202 0.22563
 H1145 H 0.07439 0.78996 0.18326
 H1146 H 0.05259 0.78562 0.16685
 H1147 H 0.05993 0.73727 0.17006
 H1148 H 0.08115 0.74159 0.18723
 C1149 C 0.27058 0.12926 0.22374
 C1150 C 0.27535 0.14180 0.21519
 C1151 C 0.26558 0.15405 0.21269
 C1152 C 0.25081 0.15409 0.21873
 C1153 C 0.24607 0.14156 0.22733
 C1154 C 0.25583 0.12927 0.22977
 C1155 C 0.28095 0.11622 0.22631
 C1156 C 0.27552 0.10127 0.22535
 C1157 C 0.28531 0.08899 0.22767
 C1158 C 0.30075 0.09138 0.23104
 C1159 C 0.30616 0.10635 0.23203
 C1160 C 0.29637 0.11862 0.22967
 C1161 C 0.31117 0.07833 0.23351
 C1162 C 0.32612 0.07866 0.22795
 C1163 C 0.33593 0.06641 0.23032
 C1164 C 0.33104 0.05353 0.23830
 C1165 C 0.31608 0.05318 0.24381
 C1166 C 0.30627 0.06544 0.24146
 H1167 H 0.28659 0.14205 0.21026
 H1168 H 0.26969 0.16352 0.20610
 H1169 H 0.23477 0.14114 0.23209
 H1170 H 0.25189 0.11984 0.23654
 H1171 H 0.26374 0.09907 0.22256
 H1172 H 0.28084 0.07761 0.22657
 H1173 H 0.31792 0.10859 0.23486
 H1174 H 0.30083 0.13002 0.23070
 H1175 H 0.33019 0.08833 0.22162
 H1176 H 0.34743 0.06711 0.22607
 H1177 H 0.31188 0.04336 0.24984
 H1178 H 0.29489 0.06489 0.24604
 C1179 C 0.77126 0.62984 0.72468
 C1180 C 0.76949 0.63591 0.71012
 C1181 C 0.75990 0.64832 0.70765
 C1182 C 0.75171 0.65474 0.71965
 C1183 C 0.75341 0.64859 0.73420
 C1184 C 0.76319 0.63634 0.73671
 C1185 C 0.78151 0.61677 0.72731
 C1186 C 0.79201 0.61697 0.73926
 C1187 C 0.80181 0.60470 0.74163
 C1188 C 0.80116 0.59186 0.73222
 C1189 C 0.79050 0.59166 0.72035
 C1190 C 0.78086 0.60402 0.71786
 C1191 C 0.81160 0.57878 0.73473
 C1192 C 0.81741 0.57053 0.72245
 C1193 C 0.82717 0.55824 0.72479
 C1194 C 0.83155 0.55397 0.73947
 C1195 C 0.82579 0.56225 0.75176
 C1196 C 0.81588 0.57443 0.74942
 H1197 H 0.77568 0.63116 0.70069
 H1198 H 0.75874 0.65274 0.69630
 H1199 H 0.74734 0.65337 0.74368
 H1200 H 0.76431 0.63179 0.74802
 H1201 H 0.79284 0.62675 0.74660
 H1202 H 0.81005 0.60540 0.75070
 H1203 H 0.78944 0.58186 0.71306
 H1204 H 0.77271 0.60353 0.70868
 H1205 H 0.81456 0.57366 0.71096
 H1206 H 0.83117 0.55201 0.71505
 H1207 H 0.82906 0.55944 0.76321
 H1208 H 0.81147 0.58035 0.75918
 C1209 C 0.77011 0.37139 0.77669
 C1210 C 0.76798 0.36574 0.79135
 C1211 C 0.75819 0.35354 0.79391
 C1212 C 0.75016 0.34691 0.78188
 C1213 C 0.75220 0.35266 0.76723
 C1214 C 0.76215 0.36472 0.76464
 C1215 C 0.78062 0.38419 0.77395
 C1216 C 0.79123 0.38351 0.76216
 C1217 C 0.80126 0.39553 0.75966
 C1218 C 0.80077 0.40858 0.76877
 C1219 C 0.79003 0.40926 0.78050
 C1220 C 0.78014 0.39716 0.78311
 C1221 C 0.81143 0.42140 0.76610
 C1222 C 0.81734 0.42978 0.77827
 C1223 C 0.82727 0.44187 0.77577
 C1224 C 0.83173 0.44580 0.76105
 C1225 C 0.82589 0.43736 0.74887
 C1226 C 0.81581 0.42538 0.75136
 H1227 H 0.77406 0.37064 0.80081
 H1228 H 0.75679 0.34942 0.80534
 H1229 H 0.74627 0.34772 0.75771
 H1230 H 0.76353 0.36894 0.75324
 H1231 H 0.79194 0.37355 0.75505
 H1232 H 0.80955 0.39446 0.75072
 H1233 H 0.78910 0.41923 0.78755
 H1234 H 0.77193 0.39802 0.79216
 H1235 H 0.81441 0.42693 0.78979
 H1236 H 0.83133 0.44823 0.78542
 H1237 H 0.82921 0.43991 0.73739
 H1238 H 0.81135 0.41934 0.74169
 C1239 C 0.27062 -0.12982 0.27590
 C1240 C 0.27475 -0.14141 0.28596
 C1241 C 0.26492 -0.15353 0.28872
 C1242 C 0.25071 -0.15447 0.28137
 C1243 C 0.24671 -0.14282 0.27117
 C1244 C 0.25651 -0.13064 0.26854
 C1245 C 0.28099 -0.11686 0.27317
 C1246 C 0.27535 -0.10196 0.27278
 C1247 C 0.28516 -0.08973 0.27045
 C1248 C 0.30081 -0.09214 0.26832
 C1249 C 0.30641 -0.10708 0.26862
 C1250 C 0.29662 -0.11930 0.27107
 C1251 C 0.31126 -0.07912 0.26584
 C1252 C 0.32594 -0.07911 0.27214
 C1253 C 0.33577 -0.06691 0.26976
 C1254 C 0.33114 -0.05437 0.26108
 C1255 C 0.31643 -0.05434 0.25483
 C1256 C 0.30663 -0.06658 0.25714
 H1257 H 0.28551 -0.14099 0.29190
 H1258 H 0.26866 -0.16212 0.29661
 H1259 H 0.23598 -0.14291 0.26521
 H1260 H 0.25311 -0.12192 0.26060
 H1261 H 0.26339 -0.09975 0.27458
 H1262 H 0.28050 -0.07836 0.27056
 H1263 H 0.31835 -0.10938 0.26675
 H1264 H 0.30124 -0.13069 0.27112
 H1265 H 0.32981 -0.08848 0.27907
 H1266 H 0.34708 -0.06740 0.27458
 H1267 H 0.31240 -0.04479 0.24826
 H1268 H 0.29548 -0.06628 0.25196
 C1269 C 0.22718 -0.13107 0.72495
 C1270 C 0.23726 -0.13592 0.73626
 C1271 C 0.24708 -0.14811 0.73370
 C1272 C 0.24690 -0.15595 0.71981
 C1273 C 0.23658 -0.15108 0.70858
 C1274 C 0.22697 -0.13872 0.71109
 C1275 C 0.21694 -0.11802 0.72758
 C1276 C 0.21586 -0.10630 0.71690
 C1277 C 0.20622 -0.09396 0.71937
 C1278 C 0.19724 -0.09317 0.73248
 C1279 C 0.19832 -0.10499 0.74312
 C1280 C 0.20815 -0.11722 0.74074
 C1281 C 0.18681 -0.08009 0.73502
 C1282 C 0.18428 -0.07445 0.74965
 C1283 C 0.17447 -0.06220 0.75201
 C1284 C 0.16707 -0.05512 0.73979
 C1285 C 0.16967 -0.06072 0.72515
 C1286 C 0.17931 -0.07309 0.72282
 H1287 H 0.23768 -0.13012 0.74703
 H1288 H 0.25464 -0.15140 0.74277
 H1289 H 0.23598 -0.15659 0.69770
 H1290 H 0.21921 -0.13523 0.70222
 H1291 H 0.22267 -0.10659 0.70674
 H1292 H 0.20597 -0.08494 0.71108
 H1293 H 0.19139 -0.10496 0.75319
 H1294 H 0.20868 -0.12622 0.74906
 H1295 H 0.19001 -0.07937 0.75931
 H1296 H 0.17260 -0.05839 0.76346
 H1297 H 0.16440 -0.05544 0.71542
 H1298 H 0.18076 -0.07724 0.71141
 C1299 C 0.72897 0.36946 0.22461
 C1300 C 0.72428 0.35703 0.21585
 C1301 C 0.73427 0.34504 0.21296
 C1302 C 0.74909 0.34516 0.21892
 C1303 C 0.75370 0.35751 0.22784
 C1304 C 0.74377 0.36956 0.23059
 C1305 C 0.71852 0.38234 0.22741
 C1306 C 0.72368 0.39733 0.22603
 C1307 C 0.71384 0.40950 0.22859
 C1308 C 0.69863 0.40695 0.23271
 C1309 C 0.69351 0.39190 0.23415
 C1310 C 0.70333 0.37974 0.23145
 C1311 C 0.68816 0.41992 0.23543
 C1312 C 0.67285 0.41917 0.23089
 C1313 C 0.66305 0.43140 0.23333
 C1314 C 0.66833 0.44473 0.24028
 C1315 C 0.68363 0.44547 0.24483
 C1316 C 0.69340 0.43320 0.24249
 H1317 H 0.71296 0.35672 0.21103
 H1318 H 0.73032 0.33565 0.20616
 H1319 H 0.76506 0.35800 0.23252
 H1320 H 0.74763 0.37894 0.23749
 H1321 H 0.73528 0.39965 0.22270
 H1322 H 0.71809 0.42091 0.22708
 H1323 H 0.68195 0.38952 0.23756
 H1324 H 0.69911 0.36828 0.23277
 H1325 H 0.66847 0.40919 0.22526
 H1326 H 0.65130 0.43035 0.22985
 H1327 H 0.68813 0.45563 0.25004
 H1328 H 0.70506 0.43410 0.24631
 C1329 C 0.72821 0.62979 0.27533
 C1330 C 0.73616 0.63641 0.26329
 C1331 C 0.74589 0.64869 0.26581
 C1332 C 0.74772 0.65469 0.28039
 C1333 C 0.73969 0.64810 0.29241
 C1334 C 0.73010 0.63574 0.28992
 C1335 C 0.71796 0.61672 0.27270
 C1336 C 0.71828 0.60416 0.28244
 C1337 C 0.70860 0.59185 0.28002
 C1338 C 0.69827 0.59188 0.26787
 C1339 C 0.69796 0.60450 0.25814
 C1340 C 0.70775 0.61675 0.26049
 C1341 C 0.68785 0.57883 0.26539
 C1342 C 0.68426 0.57395 0.25070
 C1343 C 0.67445 0.56171 0.24839
 C1344 C 0.66807 0.55396 0.26071
 C1345 C 0.67169 0.55882 0.27540
 C1346 C 0.68140 0.57113 0.27771
 H1347 H 0.73499 0.63198 0.25195
 H1348 H 0.75182 0.65356 0.25629
 H1349 H 0.74093 0.65237 0.30380
 H1350 H 0.72400 0.63093 0.29938
 H1351 H 0.72620 0.60376 0.29182
 H1352 H 0.70937 0.58221 0.28756
 H1353 H 0.68998 0.60503 0.24883
 H1354 H 0.70714 0.62638 0.25292
 H1355 H 0.68916 0.57949 0.24095
 H1356 H 0.67177 0.55842 0.23691
 H1357 H 0.66716 0.55300 0.28516
 H1358 H 0.68374 0.57470 0.28917
 C1359 C 0.23000 0.12938 0.77391
 C1360 C 0.23671 0.13710 0.76176
 C1361 C 0.24614 0.14959 0.76434
 C1362 C 0.24892 0.15472 0.77911
 C1363 C 0.24220 0.14698 0.79125
 C1364 C 0.23289 0.13441 0.78868
 C1365 C 0.21989 0.11621 0.77119
 C1366 C 0.22114 0.10310 0.78011
 C1367 C 0.21148 0.09076 0.77769
 C1368 C 0.20025 0.09132 0.76637
 C1369 C 0.19904 0.10446 0.75743
 C1370 C 0.20879 0.11674 0.75978
 C1371 C 0.18974 0.07831 0.76401
 C1372 C 0.18503 0.07419 0.74939
 C1373 C 0.17499 0.06211 0.74721
 C1374 C 0.16948 0.05378 0.75958
 C1375 C 0.17428 0.05784 0.77418
 C1376 C 0.18423 0.06998 0.77637
 H1377 H 0.23477 0.13339 0.75027
 H1378 H 0.25106 0.15534 0.75473
 H1379 H 0.24419 0.15055 0.80277
 H1380 H 0.22776 0.12875 0.79824
 H1381 H 0.22974 0.10231 0.78886
 H1382 H 0.21293 0.08073 0.78460
 H1383 H 0.19035 0.10539 0.74880
 H1384 H 0.20743 0.12679 0.75287
 H1385 H 0.18919 0.08023 0.73960
 H1386 H 0.17140 0.05942 0.73582
 H1387 H 0.17045 0.05156 0.78396
 H1388 H 0.18746 0.07295 0.78779
 C1389 C 0.22452 0.27435 0.13085
 C1390 C 0.23049 0.25956 0.13069
 C1391 C 0.22821 0.24978 0.14289
 C1392 C 0.21984 0.25453 0.15552
 C1393 C 0.21383 0.26930 0.15568
 C1394 C 0.21617 0.27911 0.14351
 C1395 C 0.22697 0.28475 0.11787
 C1396 C 0.21533 0.29452 0.11294
 C1397 C 0.21763 0.30424 0.10069
 C1398 C 0.23161 0.30441 0.09305
 C1399 C 0.24325 0.29464 0.09799
 C1400 C 0.24097 0.28495 0.11026
 C1401 C 0.23404 0.31468 0.07996
 C1402 C 0.24810 0.32194 0.07787
 C1403 C 0.25044 0.33146 0.06549
 C1404 C 0.23875 0.33402 0.05495
 C1405 C 0.22467 0.32685 0.05706
 C1406 C 0.22235 0.31726 0.06941
 H1407 H 0.23674 0.25545 0.12101
 H1408 H 0.23284 0.23843 0.14227
 H1409 H 0.20748 0.27339 0.16530
 H1410 H 0.21162 0.29051 0.14411
 H1411 H 0.20436 0.29452 0.11843
 H1412 H 0.20849 0.31174 0.09729
 H1413 H 0.25409 0.29434 0.09224
 H1414 H 0.25023 0.27771 0.11388
 H1415 H 0.25725 0.32041 0.08593
 H1416 H 0.26134 0.33701 0.06426
 H1417 H 0.21552 0.32845 0.04900
 H1418 H 0.21147 0.31165 0.07053
 C1419 C 0.72420 0.77367 0.63053
 C1420 C 0.70961 0.77189 0.63664
 C1421 C 0.70723 0.76215 0.64887
 C1422 C 0.71937 0.75383 0.65507
 C1423 C 0.73395 0.75556 0.64889
 C1424 C 0.73636 0.76547 0.63681
 C1425 C 0.72673 0.78405 0.61762
 C1426 C 0.73889 0.79432 0.61778
 C1427 C 0.74123 0.80416 0.60563
 C1428 C 0.73156 0.80380 0.59295
 C1429 C 0.71943 0.79342 0.59280
 C1430 C 0.71699 0.78372 0.60504
 C1431 C 0.73413 0.81418 0.57993
 C1432 C 0.72178 0.82033 0.57186
 C1433 C 0.72419 0.82993 0.55954
 C1434 C 0.73901 0.83378 0.55505
 C1435 C 0.75135 0.82773 0.56319
 C1436 C 0.74895 0.81799 0.57541
 H1437 H 0.70006 0.77817 0.63206
 H1438 H 0.69585 0.76099 0.65331
 H1439 H 0.74355 0.74940 0.65350
 H1440 H 0.74771 0.76658 0.63223
 H1441 H 0.74645 0.79492 0.62743
 H1442 H 0.75050 0.81219 0.60628
 H1443 H 0.71193 0.79260 0.58313
 H1444 H 0.70763 0.77576 0.60458
 H1445 H 0.71021 0.81784 0.57513
 H1446 H 0.71440 0.83419 0.55343
 H1447 H 0.76292 0.83060 0.56022
 H1448 H 0.75874 0.81332 0.58120
 C1449 C 0.77595 0.77145 0.37180
 C1450 C 0.78450 0.77629 0.35933
 C1451 C 0.78712 0.76653 0.34719
 C1452 C 0.78116 0.75175 0.34719
 C1453 C 0.77260 0.74692 0.35967
 C1454 C 0.77007 0.75664 0.37187
 C1455 C 0.77314 0.78182 0.38468
 C1456 C 0.77440 0.77657 0.39961
 C1457 C 0.77187 0.78638 0.41173
 C1458 C 0.76793 0.80164 0.40920
 C1459 C 0.76659 0.80684 0.39424
 C1460 C 0.76921 0.79705 0.38212
 C1461 C 0.76532 0.81210 0.42209
 C1462 C 0.77030 0.82723 0.42143
 C1463 C 0.76789 0.83707 0.43355
 C1464 C 0.76050 0.83201 0.44667
 C1465 C 0.75552 0.81689 0.44734
 C1466 C 0.75787 0.80706 0.43519
 H1467 H 0.78929 0.78759 0.35904
 H1468 H 0.79368 0.77068 0.33773
 H1469 H 0.76793 0.73558 0.36011
 H1470 H 0.76334 0.75265 0.38128
 H1471 H 0.77761 0.76494 0.40191
 H1472 H 0.77325 0.78207 0.42310
 H1473 H 0.76331 0.81844 0.39188
 H1474 H 0.76794 0.80134 0.37073
 H1475 H 0.77623 0.83144 0.41160
 H1476 H 0.77171 0.84869 0.43257
 H1477 H 0.74994 0.81257 0.45734
 H1478 H 0.75373 0.79553 0.43601
 C1479 C 0.27629 0.27085 -0.12789
 C1480 C 0.28508 0.27563 -0.14022
 C1481 C 0.28774 0.26589 -0.15237
 C1482 C 0.28158 0.25119 -0.15251
 C1483 C 0.27278 0.24642 -0.14017
 C1484 C 0.27021 0.25613 -0.12797
 C1485 C 0.27348 0.28122 -0.11502
 C1486 C 0.27448 0.27591 -0.10009
 C1487 C 0.27199 0.28573 -0.08796
 C1488 C 0.26836 0.30106 -0.09050
 C1489 C 0.26726 0.30632 -0.10545
 C1490 C 0.26983 0.29652 -0.11757
 C1491 C 0.26579 0.31154 -0.07761
 C1492 C 0.27103 0.32659 -0.07819
 C1493 C 0.26860 0.33646 -0.06610
 C1494 C 0.26094 0.33151 -0.05309
 C1495 C 0.25572 0.31646 -0.05249
 C1496 C 0.25809 0.30661 -0.06461
 H1497 H 0.29003 0.28686 -0.14040
 H1498 H 0.29447 0.26999 -0.16172
 H1499 H 0.26795 0.23515 -0.13986
 H1500 H 0.26329 0.25219 -0.11867
 H1501 H 0.27748 0.26422 -0.09779
 H1502 H 0.27318 0.28137 -0.07659
 H1503 H 0.26420 0.31798 -0.10782
 H1504 H 0.26876 0.30086 -0.12896
 H1505 H 0.27716 0.33071 -0.08794
 H1506 H 0.27261 0.34802 -0.06701
 H1507 H 0.24993 0.31223 -0.04258
 H1508 H 0.25375 0.29515 -0.06387
 C1509 C 0.72409 0.22708 -0.12997
 C1510 C 0.71721 0.22176 -0.14328
 C1511 C 0.71485 0.23151 -0.15552
 C1512 C 0.71947 0.24674 -0.15477
 C1513 C 0.72644 0.25202 -0.14148
 C1514 C 0.72866 0.24231 -0.12919
 C1515 C 0.72650 0.21677 -0.11694
 C1516 C 0.72312 0.22160 -0.10221
 C1517 C 0.72539 0.21189 -0.08992
 C1518 C 0.73123 0.19722 -0.09210
 C1519 C 0.73465 0.19241 -0.10682
 C1520 C 0.73224 0.20207 -0.11913
 C1521 C 0.73377 0.18698 -0.07905
 C1522 C 0.74728 0.17855 -0.07782
 C1523 C 0.74973 0.16897 -0.06547
 C1524 C 0.73865 0.16752 -0.05416
 C1525 C 0.72511 0.17588 -0.05543
 C1526 C 0.72273 0.18558 -0.06771
 H1527 H 0.71348 0.21009 -0.14414
 H1528 H 0.70955 0.22704 -0.16562
 H1529 H 0.73003 0.26371 -0.14047
 H1530 H 0.73411 0.24668 -0.11912
 H1531 H 0.71857 0.23283 -0.10022
 H1532 H 0.72276 0.21592 -0.07868
 H1533 H 0.73905 0.18112 -0.10883
 H1534 H 0.73505 0.19810 -0.13035
 H1535 H 0.75603 0.17950 -0.08634
 H1536 H 0.76021 0.16256 -0.06483
 H1537 H 0.71644 0.17506 -0.04682
 H1538 H 0.71217 0.19186 -0.06843
 C1539 C 0.22456 0.72646 0.37004
 C1540 C 0.23123 0.74093 0.36984
 C1541 C 0.22908 0.75063 0.35753
 C1542 C 0.22015 0.74611 0.34514
 C1543 C 0.21348 0.73164 0.34534
 C1544 C 0.21568 0.72192 0.35762
 C1545 C 0.22684 0.71616 0.38315
 C1546 C 0.21485 0.70711 0.38848
 C1547 C 0.21700 0.69745 0.40082
 C1548 C 0.23116 0.69667 0.40816
 C1549 C 0.24314 0.70572 0.40285
 C1550 C 0.24102 0.71533 0.39047
 C1551 C 0.23344 0.68644 0.42128
 C1552 C 0.24162 0.69136 0.43400
 C1553 C 0.24383 0.68170 0.44633
 C1554 C 0.23797 0.66687 0.44619
 C1555 C 0.22976 0.66197 0.43345
 C1556 C 0.22750 0.67166 0.42115
 H1557 H 0.23792 0.74488 0.37933
 H1558 H 0.23424 0.76175 0.35788
 H1559 H 0.20670 0.72770 0.33592
 H1560 H 0.21059 0.71075 0.35731
 H1561 H 0.20372 0.70767 0.38326
 H1562 H 0.20750 0.69076 0.40480
 H1563 H 0.25424 0.70519 0.40814
 H1564 H 0.25055 0.72196 0.38650
 H1565 H 0.24613 0.70277 0.43451
 H1566 H 0.24996 0.68593 0.45607
 H1567 H 0.22531 0.65055 0.43287
 H1568 H 0.22133 0.66748 0.41141
 C1569 C 0.27609 0.72813 0.62828
 C1570 C 0.28502 0.72357 0.64065
 C1571 C 0.28749 0.73338 0.65278
 C1572 C 0.28102 0.74797 0.65286
 C1573 C 0.27209 0.75253 0.64048
 C1574 C 0.26969 0.74273 0.62830
 C1575 C 0.27345 0.71767 0.61542
 C1576 C 0.27409 0.72300 0.60048
 C1577 C 0.27168 0.71313 0.58838
 C1578 C 0.26852 0.69772 0.59093
 C1579 C 0.26784 0.69241 0.60589
 C1580 C 0.27031 0.70227 0.61799
 C1581 C 0.26594 0.68721 0.57806
 C1582 C 0.27167 0.67233 0.57845
 C1583 C 0.26919 0.66243 0.56638
 C1584 C 0.26094 0.66719 0.55361
 C1585 C 0.25525 0.68209 0.55320
 C1586 C 0.25770 0.69198 0.56528
 H1587 H 0.29022 0.71243 0.64088
 H1588 H 0.29434 0.72943 0.66215
 H1589 H 0.26701 0.76371 0.64009
 H1590 H 0.26264 0.74651 0.61898
 H1591 H 0.27670 0.73477 0.59816
 H1592 H 0.27254 0.71753 0.57700
 H1593 H 0.26517 0.68067 0.60826
 H1594 H 0.26952 0.69789 0.62939
 H1595 H 0.27822 0.66836 0.58804
 H1596 H 0.27359 0.65098 0.56713
 H1597 H 0.24902 0.68619 0.54345
 H1598 H 0.25299 0.70331 0.56469
 C1599 C 0.77490 0.22574 0.13080
 C1600 C 0.78235 0.22073 0.14394
 C1601 C 0.78445 0.23052 0.15618
 C1602 C 0.77918 0.24558 0.15556
 C1603 C 0.77168 0.25054 0.14240
 C1604 C 0.76958 0.24075 0.13019
 C1605 C 0.77270 0.21540 0.11774
 C1606 C 0.75896 0.21551 0.10959
 C1607 C 0.75693 0.20597 0.09717
 C1608 C 0.76858 0.19609 0.09260
 C1609 C 0.78229 0.19591 0.10078
 C1610 C 0.78433 0.20547 0.11322
 C1611 C 0.76643 0.18605 0.07930
 C1612 C 0.77165 0.17099 0.07954
 C1613 C 0.76944 0.16151 0.06708
 C1614 C 0.76196 0.16689 0.05409
 C1615 C 0.75684 0.18200 0.05381
 C1616 C 0.75904 0.19146 0.06627
 H1617 H 0.78640 0.20916 0.14484
 H1618 H 0.79014 0.22620 0.16613
 H1619 H 0.76753 0.26203 0.14137
 H1620 H 0.76398 0.24502 0.12014
 H1621 H 0.74970 0.22285 0.11294
 H1622 H 0.74615 0.20618 0.09126
 H1623 H 0.79155 0.18858 0.09741
 H1624 H 0.79512 0.20529 0.11911
 H1625 H 0.77720 0.16643 0.08949
 H1626 H 0.77333 0.14987 0.06774
 H1627 H 0.75128 0.18657 0.04388
 H1628 H 0.75512 0.20309 0.06563
 C1629 C 0.47381 0.37835 0.52102
 C1630 C 0.48608 0.38487 0.51320
 C1631 C 0.48374 0.39700 0.50330
 C1632 C 0.46912 0.40303 0.50111
 C1633 C 0.45686 0.39660 0.50895
 C1634 C 0.45916 0.38435 0.51872
 C1635 C 0.47630 0.36537 0.53152
 C1636 C 0.46782 0.36409 0.54489
 C1637 C 0.47013 0.35190 0.55473
 C1638 C 0.48110 0.34074 0.55154
 C1639 C 0.48962 0.34206 0.53820
 C1640 C 0.48720 0.35417 0.52829
 C1641 C 0.48363 0.32780 0.56208
 C1642 C 0.48714 0.31327 0.55652
 C1643 C 0.48960 0.30115 0.56642
 C1644 C 0.48841 0.30324 0.58208
 C1645 C 0.48484 0.31770 0.58767
 C1646 C 0.48256 0.32986 0.57779
 H1647 H 0.49755 0.38076 0.51491
 H1648 H 0.49345 0.40183 0.49758
 H1649 H 0.44543 0.40087 0.50736
 H1650 H 0.44941 0.37944 0.52430
 H1651 H 0.45948 0.37260 0.54787
 H1652 H 0.46320 0.35116 0.56478
 H1653 H 0.49831 0.33381 0.53546
 H1654 H 0.49380 0.35465 0.51800
 H1655 H 0.48778 0.31118 0.54450
 H1656 H 0.49216 0.29006 0.56182
 H1657 H 0.48405 0.31965 0.59971
 H1658 H 0.48018 0.34094 0.58250
 C1659 C -0.02487 0.87974 0.02198
 C1660 C -0.01258 0.88659 0.01450
 C1661 C -0.01496 0.89874 0.00463
 C1662 C -0.02966 0.90445 0.00213
 C1663 C -0.04194 0.89772 0.00968
 C1664 C -0.03959 0.88546 0.01943
 C1665 C -0.02236 0.86669 0.03237
 C1666 C -0.03103 0.86512 0.04559
 C1667 C -0.02872 0.85282 0.05529
 C1668 C -0.01759 0.84183 0.05211
 C1669 C -0.00887 0.84343 0.03893
 C1670 C -0.01127 0.85566 0.02915
 C1671 C -0.01509 0.82877 0.06249
 C1672 C -0.01146 0.81432 0.05678
 C1673 C -0.00912 0.80207 0.06654
 C1674 C -0.01051 0.80394 0.08221
 C1675 C -0.01417 0.81832 0.08795
 C1676 C -0.01635 0.83061 0.07821
 H1677 H -0.00106 0.88269 0.01642
 H1678 H -0.00523 0.90379 -0.00085
 H1679 H -0.05343 0.90173 0.00785
 H1680 H -0.04936 0.88031 0.02477
 H1681 H -0.03953 0.87348 0.04854
 H1682 H -0.03580 0.85185 0.06522
 H1683 H -0.00006 0.83532 0.03621
 H1684 H -0.00452 0.85638 0.01898
 H1685 H -0.01067 0.81241 0.04474
 H1686 H -0.00649 0.79105 0.06182
 H1687 H -0.01511 0.82010 0.10001
 H1688 H -0.01882 0.84161 0.08304
 C1689 C 0.02425 0.61840 0.02462
 C1690 C 0.03906 0.61329 0.02166
 C1691 C 0.04154 0.60112 0.01188
 C1692 C 0.02925 0.59387 0.00474
 C1693 C 0.01442 0.59894 0.00776
 C1694 C 0.01194 0.61104 0.01766
 C1695 C 0.02168 0.63147 0.03482
 C1696 C 0.01016 0.63102 0.04576
 C1697 C 0.00784 0.64332 0.05543
 C1698 C 0.01689 0.65641 0.05429
 C1699 C 0.02834 0.65686 0.04325
 C1700 C 0.03075 0.64451 0.03368
 C1701 C 0.01444 0.66952 0.06456
 C1702 C 0.02684 0.67794 0.07006
 C1703 C 0.02454 0.69035 0.07959
 C1704 C 0.00979 0.69460 0.08396
 C1705 C -0.00260 0.68614 0.07854
 C1706 C -0.00031 0.67379 0.06892
 H1707 H 0.04875 0.61867 0.02698
 H1708 H 0.05311 0.59758 0.00974
 H1709 H 0.00470 0.59355 0.00254
 H1710 H 0.00041 0.61481 0.01966
 H1711 H 0.00313 0.62103 0.04700
 H1712 H -0.00091 0.64248 0.06396
 H1713 H 0.03533 0.66686 0.04185
 H1714 H 0.03955 0.64525 0.02519
 H1715 H 0.03836 0.67486 0.06711
 H1716 H 0.03434 0.69672 0.08337
 H1717 H -0.01410 0.68896 0.08182
 H1718 H -0.01014 0.66768 0.06476
 C1719 C 0.52514 0.11967 0.52324
 C1720 C 0.53309 0.10670 0.52804
 C1721 C 0.53528 0.09449 0.51823
 C1722 C 0.52950 0.09493 0.50342
 C1723 C 0.52158 0.10794 0.49863
 C1724 C 0.51945 0.12017 0.50842
 C1725 C 0.52271 0.13261 0.53368
 C1726 C 0.52435 0.14760 0.52857
 C1727 C 0.52195 0.15979 0.53836
 C1728 C 0.51777 0.15726 0.55346
 C1729 C 0.51615 0.14225 0.55856
 C1730 C 0.51862 0.13006 0.54879
 C1731 C 0.51509 0.17024 0.56384
 C1732 C 0.51987 0.16955 0.57898
 C1733 C 0.51735 0.18175 0.58872
 C1734 C 0.51003 0.19496 0.58355
 C1735 C 0.50526 0.19565 0.56840
 C1736 C 0.50774 0.18343 0.55867
 H1737 H 0.53774 0.10605 0.53936
 H1738 H 0.54138 0.08465 0.52234
 H1739 H 0.51706 0.10876 0.48729
 H1740 H 0.51315 0.12996 0.50445
 H1741 H 0.52771 0.14991 0.51704
 H1742 H 0.52356 0.17120 0.53413
 H1743 H 0.51270 0.13991 0.57005
 H1744 H 0.51705 0.11863 0.55298
 H1745 H 0.52571 0.15963 0.58328
 H1746 H 0.52101 0.18078 0.60036
 H1747 H 0.49976 0.20571 0.56399
 H1748 H 0.50376 0.18427 0.54712
 C1749 C -0.02538 0.12089 0.47832
 C1750 C -0.03316 0.10784 0.47350
 C1751 C -0.03562 0.09577 0.48342
 C1752 C -0.03033 0.09642 0.49839
 C1753 C -0.02245 0.10942 0.50318
 C1754 C -0.02003 0.12152 0.49328
 C1755 C -0.02293 0.13382 0.46782
 C1756 C -0.00917 0.14191 0.46799
 C1757 C -0.00693 0.15415 0.45821
 C1758 C -0.01836 0.15853 0.44799
 C1759 C -0.03209 0.15042 0.44776
 C1760 C -0.03436 0.13823 0.45758
 C1761 C -0.01597 0.17153 0.43762
 C1762 C -0.02058 0.17067 0.42244
 C1763 C -0.01822 0.18287 0.41265
 C1764 C -0.01126 0.19625 0.41783
 C1765 C -0.00674 0.19712 0.43304
 C1766 C -0.00903 0.18489 0.44281
 H1767 H -0.03721 0.10688 0.46198
 H1768 H -0.04156 0.08587 0.47927
 H1769 H -0.01836 0.11040 0.51467
 H1770 H -0.01421 0.13149 0.49743
 H1771 H -0.00004 0.13866 0.47555
 H1772 H 0.00386 0.16004 0.45848
 H1773 H -0.04118 0.15368 0.44015
 H1774 H -0.04519 0.13241 0.45733
 H1775 H -0.02577 0.16043 0.41808
 H1776 H -0.02161 0.18172 0.40095
 H1777 H -0.00161 0.20735 0.43747
 H1778 H -0.00557 0.18597 0.45450
 C1779 C 0.47347 0.62181 0.97932
 C1780 C 0.46473 0.60928 0.97475
 C1781 C 0.46229 0.59712 0.98457
 C1782 C 0.46862 0.59714 0.99916
 C1783 C 0.47737 0.60965 1.00372
 C1784 C 0.47973 0.62186 0.99394
 C1785 C 0.47606 0.63476 0.96888
 C1786 C 0.49022 0.64211 0.96844
 C1787 C 0.49265 0.65430 0.95865
 C1788 C 0.48099 0.65936 0.94901
 C1789 C 0.46685 0.65201 0.94940
 C1790 C 0.46439 0.63987 0.95925
 C1791 C 0.48358 0.67227 0.93858
 C1792 C 0.47831 0.67168 0.92361
 C1793 C 0.48079 0.68382 0.91377
 C1794 C 0.48852 0.69686 0.91870
 C1795 C 0.49375 0.69745 0.93371
 C1796 C 0.49135 0.68527 0.94352
 H1797 H 0.45995 0.60876 0.96349
 H1798 H 0.45566 0.58759 0.98060
 H1799 H 0.48225 0.61014 1.01494
 H1800 H 0.48630 0.63144 0.99791
 H1801 H 0.49954 0.63829 0.97551
 H1802 H 0.50373 0.65962 0.95844
 H1803 H 0.45759 0.65581 0.94224
 H1804 H 0.45327 0.63464 0.95948
 H1805 H 0.47248 0.66171 0.91944
 H1806 H 0.47684 0.68287 0.90222
 H1807 H 0.49951 0.70742 0.93796
 H1808 H 0.49535 0.68612 0.95506
 C1809 C 0.52580 0.88028 0.97759
 C1810 C 0.53462 0.89279 0.97322
 C1811 C 0.53686 0.90494 0.98310
 C1812 C 0.53024 0.90490 0.99752
 C1813 C 0.52134 0.89241 1.00184
 C1814 C 0.51920 0.88021 0.99201
 C1815 C 0.52348 0.86733 0.96716
 C1816 C 0.52447 0.85235 0.97248
 C1817 C 0.52222 0.84014 0.96269
 C1818 C 0.51883 0.84263 0.94735
 C1819 C 0.51787 0.85763 0.94204
 C1820 C 0.52022 0.86984 0.95183
 C1821 C 0.51623 0.82962 0.93698
 C1822 C 0.52155 0.83004 0.92203
 C1823 C 0.51904 0.81783 0.91228
 C1824 C 0.51120 0.80488 0.91726
 C1825 C 0.50593 0.80445 0.93223
 C1826 C 0.50838 0.81668 0.94195
 H1827 H 0.53994 0.89309 0.96222
 H1828 H 0.54368 0.91442 0.97936
 H1829 H 0.51615 0.89194 1.01289
 H1830 H 0.51223 0.87077 0.99562
 H1831 H 0.52719 0.85007 0.98420
 H1832 H 0.52332 0.82873 0.96709
 H1833 H 0.51503 0.85996 0.93037
 H1834 H 0.51919 0.88128 0.94746
 H1835 H 0.52780 0.83975 0.91789
 H1836 H 0.52311 0.81861 0.90079
 H1837 H 0.50003 0.79458 0.93650
 H1838 H 0.50396 0.81605 0.95332
 C1839 C 0.02595 0.37913 0.47807
 C1840 C 0.03317 0.39242 0.47310
 C1841 C 0.03554 0.40451 0.48302
 C1842 C 0.03054 0.40365 0.49805
 C1843 C 0.02324 0.39038 0.50298
 C1844 C 0.02106 0.37821 0.49312
 C1845 C 0.02349 0.36629 0.46759
 C1846 C 0.02699 0.35140 0.47206
 C1847 C 0.02469 0.33928 0.46216
 C1848 C 0.01864 0.34180 0.44768
 C1849 C 0.01506 0.35668 0.44324
 C1850 C 0.01756 0.36882 0.45306
 C1851 C 0.01603 0.32893 0.43726
 C1852 C 0.00222 0.32763 0.42937
 C1853 C -0.00031 0.31540 0.41965
 C1854 C 0.01100 0.30436 0.41748
 C1855 C 0.02485 0.30573 0.42529
 C1856 C 0.02730 0.31785 0.43516
 H1857 H 0.03713 0.39337 0.46157
 H1858 H 0.04110 0.41462 0.47885
 H1859 H 0.01936 0.38932 0.51452
 H1860 H 0.01538 0.36812 0.49720
 H1861 H 0.03166 0.34917 0.48317
 H1862 H 0.02744 0.32790 0.46589
 H1863 H 0.01048 0.35892 0.43209
 H1864 H 0.01467 0.38019 0.44939
 H1865 H -0.00669 0.33597 0.43087
 H1866 H -0.01104 0.31465 0.41368
 H1867 H 0.03371 0.29731 0.42389
 H1868 H 0.03808 0.31866 0.44104
 C1869 C 0.37930 0.52113 0.47428
 C1870 C 0.39172 0.52592 0.46558
 C1871 C 0.40404 0.51624 0.46309
 C1872 C 0.40426 0.50156 0.46930
 C1873 C 0.39184 0.49680 0.47805
 C1874 C 0.37948 0.50646 0.48047
 C1875 C 0.36620 0.53141 0.47687
 C1876 C 0.35124 0.52592 0.47605
 C1877 C 0.33891 0.53564 0.47837
 C1878 C 0.34127 0.55107 0.48162
 C1879 C 0.35625 0.55654 0.48249
 C1880 C 0.36857 0.54683 0.48012
 C1881 C 0.32817 0.56143 0.48407
 C1882 C 0.32840 0.57632 0.47840
 C1883 C 0.31612 0.58609 0.48076
 C1884 C 0.30329 0.58119 0.48881
 C1885 C 0.30303 0.56628 0.49444
 C1886 C 0.31533 0.55652 0.49211
 H1887 H 0.39183 0.53710 0.46053
 H1888 H 0.41343 0.52035 0.45639
 H1889 H 0.39155 0.48555 0.48293
 H1890 H 0.37012 0.50251 0.48734
 H1891 H 0.34906 0.51414 0.47336
 H1892 H 0.32752 0.53113 0.47738
 H1893 H 0.35846 0.56829 0.48523
 H1894 H 0.37997 0.55133 0.48104
 H1895 H 0.33803 0.58040 0.47200
 H1896 H 0.31676 0.59755 0.47641
 H1897 H 0.29326 0.56208 0.50054
 H1898 H 0.31486 0.54518 0.49676
 C1899 C 0.87866 0.02042 -0.02762
 C1900 C 0.87862 0.00558 -0.02183
 C1901 C 0.89095 -0.00412 -0.02429
 C1902 C 0.90358 0.00079 -0.03265
 C1903 C 0.90355 0.01560 -0.03853
 C1904 C 0.89125 0.02530 -0.03602
 C1905 C 0.86568 0.03081 -0.02485
 C1906 C 0.86824 0.04611 -0.02124
 C1907 C 0.85605 0.05593 -0.01870
 C1908 C 0.84100 0.05070 -0.01976
 C1909 C 0.83844 0.03537 -0.02333
 C1910 C 0.85065 0.02554 -0.02582
 C1911 C 0.82804 0.06120 -0.01717
 C1912 C 0.81513 0.05636 -0.00921
 C1913 C 0.80299 0.06628 -0.00671
 C1914 C 0.80348 0.08127 -0.01211
 C1915 C 0.81638 0.08609 -0.02010
 C1916 C 0.82851 0.07617 -0.02261
 H1917 H 0.86913 0.00154 -0.01519
 H1918 H 0.89050 -0.01546 -0.01967
 H1919 H 0.91308 0.01984 -0.04496
 H1920 H 0.89154 0.03662 -0.04078
 H1921 H 0.87970 0.05044 -0.02015
 H1922 H 0.85841 0.06760 -0.01570
 H1923 H 0.82699 0.03104 -0.02445
 H1924 H 0.84832 0.01385 -0.02878
 H1925 H 0.81447 0.04495 -0.00474
 H1926 H 0.79314 0.06215 -0.00068
 H1927 H 0.81720 0.09760 -0.02427
 H1928 H 0.83821 0.08020 -0.02894
 C1929 C 0.61987 0.02251 0.02598
 C1930 C 0.61962 0.00803 0.01939
 C1931 C 0.60732 -0.00170 0.02173
 C1932 C 0.59504 0.00280 0.03081
 C1933 C 0.59532 0.01728 0.03743
 C1934 C 0.60757 0.02704 0.03500
 C1935 C 0.63292 0.03284 0.02349
 C1936 C 0.63051 0.04832 0.02056
 C1937 C 0.64280 0.05804 0.01817
 C1938 C 0.65779 0.05252 0.01874
 C1939 C 0.66018 0.03704 0.02172
 C1940 C 0.64789 0.02730 0.02403
 C1941 C 0.67087 0.06286 0.01620
 C1942 C 0.68359 0.05797 0.00796
 C1943 C 0.69589 0.06767 0.00557
 C1944 C 0.69574 0.08254 0.01128
 C1945 C 0.68301 0.08744 0.01952
 C1946 C 0.67074 0.07771 0.02196
 H1947 H 0.62887 0.00429 0.01227
 H1948 H 0.60755 -0.01279 0.01654
 H1949 H 0.58602 0.02118 0.04439
 H1950 H 0.60752 0.03809 0.04034
 H1951 H 0.61908 0.05286 0.01986
 H1952 H 0.64054 0.06985 0.01565
 H1953 H 0.67158 0.03247 0.02249
 H1954 H 0.65009 0.01547 0.02649
 H1955 H 0.68399 0.04666 0.00322
 H1956 H 0.70559 0.06347 -0.00065
 H1957 H 0.68245 0.09887 0.02395
 H1958 H 0.66119 0.08178 0.02850
 C1959 C 0.11935 0.52181 0.52639
 C1960 C 0.10608 0.52714 0.53339
 C1961 C 0.09375 0.51745 0.53572
 C1962 C 0.09437 0.50226 0.53096
 C1963 C 0.10765 0.49695 0.52392
 C1964 C 0.12003 0.50660 0.52174
 C1965 C 0.13241 0.53210 0.52391
 C1966 C 0.14729 0.52729 0.52716
 C1967 C 0.15959 0.53702 0.52485
 C1968 C 0.15727 0.55170 0.51910
 C1969 C 0.14239 0.55649 0.51579
 C1970 C 0.13008 0.54681 0.51825
 C1971 C 0.17032 0.56198 0.51653
 C1972 C 0.17137 0.57040 0.50310
 C1973 C 0.18370 0.58005 0.50064
 C1974 C 0.19514 0.58160 0.51163
 C1975 C 0.19405 0.57324 0.52509
 C1976 C 0.18180 0.56346 0.52749
 H1977 H 0.10530 0.53878 0.53720
 H1978 H 0.08367 0.52194 0.54108
 H1979 H 0.10855 0.48529 0.52023
 H1980 H 0.13009 0.50224 0.51621
 H1981 H 0.14939 0.51604 0.53164
 H1982 H 0.17096 0.53301 0.52739
 H1983 H 0.14028 0.56778 0.51146
 H1984 H 0.11874 0.55076 0.51554
 H1985 H 0.16274 0.56937 0.49443
 H1986 H 0.18421 0.58645 0.49021
 H1987 H 0.20278 0.57414 0.53369
 H1988 H 0.18120 0.55719 0.53798
 C1989 C 0.12013 0.47891 -0.02666
 C1990 C 0.11300 0.48634 -0.01457
 C1991 C 0.10106 0.49648 -0.01723
 C1992 C 0.09588 0.49921 -0.03200
 C1993 C 0.10289 0.49162 -0.04406
 C1994 C 0.11496 0.48165 -0.04142
 C1995 C 0.13303 0.46845 -0.02392
 C1996 C 0.14622 0.46942 -0.03273
 C1997 C 0.15841 0.45959 -0.03018
 C1998 C 0.15762 0.44842 -0.01885
 C1999 C 0.14436 0.44745 -0.01006
 C2000 C 0.13224 0.45742 -0.01251
 C2001 C 0.17057 0.43783 -0.01626
 C2002 C 0.17441 0.43305 -0.00159
 C2003 C 0.18658 0.42314 0.00083
 C2004 C 0.19533 0.41786 -0.01135
 C2005 C 0.19151 0.42267 -0.02602
 C2006 C 0.17925 0.43246 -0.02845
 H2007 H 0.11684 0.48448 -0.00309
 H2008 H 0.09581 0.50207 -0.00770
 H2009 H 0.09924 0.49356 -0.05558
 H2010 H 0.12019 0.47597 -0.05092
 H2011 H 0.14718 0.47797 -0.04146
 H2012 H 0.16854 0.46089 -0.03695
 H2013 H 0.14324 0.43883 -0.00143
 H2014 H 0.12212 0.45634 -0.00567
 H2015 H 0.16812 0.43710 0.00809
 H2016 H 0.18904 0.41951 0.01226
 H2017 H 0.19810 0.41902 -0.03566
 H2018 H 0.17650 0.43571 -0.03992
 C2019 C 0.62065 0.97972 0.47475
 C2020 C 0.61534 0.98259 0.46005
 C2021 C 0.60287 0.99213 0.45765
 C2022 C 0.59553 0.99912 0.46988
 C2023 C 0.60096 0.99637 0.48457
 C2024 C 0.61334 0.98671 0.48698
 C2025 C 0.63371 0.96937 0.47731
 C2026 C 0.63320 0.95841 0.48880
 C2027 C 0.64543 0.94855 0.49112
 C2028 C 0.65852 0.94952 0.48208
 C2029 C 0.65902 0.96057 0.47063
 C2030 C 0.64673 0.97034 0.46823
 C2031 C 0.67155 0.93902 0.48456
 C2032 C 0.67990 0.93337 0.47228
 C2033 C 0.69214 0.92352 0.47460
 C2034 C 0.69629 0.91898 0.48927
 C2035 C 0.68792 0.92460 0.50155
 C2036 C 0.67575 0.93454 0.49923
 H2037 H 0.62070 0.97725 0.45042
 H2038 H 0.59907 0.99409 0.44618
 H2039 H 0.59552 1.00148 0.49426
 H2040 H 0.61728 0.98479 0.49842
 H2041 H 0.62321 0.95728 0.49582
 H2042 H 0.64452 0.94000 0.49985
 H2043 H 0.66901 0.96183 0.46364
 H2044 H 0.64749 0.97882 0.45941
 H2045 H 0.67687 0.93641 0.46081
 H2046 H 0.69844 0.91959 0.46488
 H2047 H 0.69065 0.92120 0.51299
 H2048 H 0.66971 0.93882 0.50898
 C2049 C 0.88096 0.97722 0.52560
 C2050 C 0.88028 0.99232 0.52058
 C2051 C 0.89258 1.00208 0.52275
 C2052 C 0.90587 0.99699 0.53002
 C2053 C 0.90652 0.98189 0.53510
 C2054 C 0.89422 0.97211 0.53289
 C2055 C 0.86791 0.96685 0.52320
 C2056 C 0.87030 0.95177 0.51864
 C2057 C 0.85800 0.94205 0.51626
 C2058 C 0.84303 0.94716 0.51842
 C2059 C 0.84065 0.96223 0.52304
 C2060 C 0.85294 0.97196 0.52539
 C2061 C 0.82994 0.93685 0.51583
 C2062 C 0.81661 0.94220 0.50885
 C2063 C 0.80429 0.93252 0.50642
 C2064 C 0.80501 0.91723 0.51089
 C2065 C 0.81835 0.91187 0.51786
 C2066 C 0.83067 0.92157 0.52031
 H2067 H 0.87028 0.99655 0.51479
 H2068 H 0.89159 1.01364 0.51877
 H2069 H 0.91655 0.97752 0.54069
 H2070 H 0.89501 0.96058 0.53703
 H2071 H 0.88169 0.94757 0.51666
 H2072 H 0.86021 0.93059 0.51248
 H2073 H 0.82927 0.96644 0.52505
 H2074 H 0.85076 0.98344 0.52913
 H2075 H 0.81574 0.95387 0.50511
 H2076 H 0.79412 0.93705 0.50118
 H2077 H 0.81934 0.90012 0.52129
 H2078 H 0.84071 0.91713 0.52586
 C2079 C 0.38060 0.47756 0.02410
 C2080 C 0.38066 0.49226 0.01798
 C2081 C 0.39300 0.50193 0.02043
 C2082 C 0.40551 0.49715 0.02912
 C2083 C 0.40543 0.48243 0.03523
 C2084 C 0.39313 0.47273 0.03271
 C2085 C 0.36747 0.46732 0.02157
 C2086 C 0.36978 0.45193 0.01819
 C2087 C 0.35741 0.44227 0.01586
 C2088 C 0.34245 0.44778 0.01692
 C2089 C 0.34015 0.46319 0.02031
 C2090 C 0.35252 0.47285 0.02258
 C2091 C 0.32929 0.43748 0.01456
 C2092 C 0.31629 0.44250 0.00676
 C2093 C 0.30391 0.43283 0.00458
 C2094 C 0.30424 0.41789 0.01013
 C2095 C 0.31726 0.41287 0.01791
 C2096 C 0.32962 0.42255 0.02012
 H2097 H 0.37122 0.49624 0.01118
 H2098 H 0.39260 0.51321 0.01563
 H2099 H 0.41490 0.47831 0.04189
 H2100 H 0.39334 0.46151 0.03769
 H2101 H 0.38117 0.44740 0.01712
 H2102 H 0.35958 0.43053 0.01301
 H2103 H 0.32878 0.46773 0.02147
 H2104 H 0.35040 0.48461 0.02539
 H2105 H 0.31574 0.45388 0.00218
 H2106 H 0.29400 0.43712 -0.00130
 H2107 H 0.31796 0.40138 0.02218
 H2108 H 0.33938 0.41838 0.02633
 C2109 C 0.52306 0.47526 0.38009
 C2110 C 0.52128 0.46065 0.38614
 C2111 C 0.51180 0.45823 0.39854
 C2112 C 0.50376 0.47035 0.40502
 C2113 C 0.50551 0.48496 0.39893
 C2114 C 0.51514 0.48741 0.38665
 C2115 C 0.53311 0.47781 0.36694
 C2116 C 0.54344 0.48993 0.36686
 C2117 C 0.55303 0.49222 0.35453
 C2118 C 0.55238 0.48255 0.34191
 C2119 C 0.54190 0.47051 0.34198
 C2120 C 0.53244 0.46812 0.35439
 C2121 C 0.56266 0.48493 0.32880
 C2122 C 0.56872 0.47249 0.32092
 C2123 C 0.57840 0.47470 0.30865
 C2124 C 0.58242 0.48941 0.30401
 C2125 C 0.57636 0.50186 0.31188
 C2126 C 0.56655 0.49965 0.32407
 H2127 H 0.52735 0.45111 0.38135
 H2128 H 0.51061 0.44682 0.40289
 H2129 H 0.49956 0.49455 0.40374
 H2130 H 0.51624 0.49877 0.38213
 H2131 H 0.54429 0.49746 0.37648
 H2132 H 0.56114 0.50143 0.35500
 H2133 H 0.54086 0.46302 0.33236
 H2134 H 0.52442 0.45882 0.35410
 H2135 H 0.56615 0.46099 0.32435
 H2136 H 0.58264 0.46483 0.30273
 H2137 H 0.57934 0.51334 0.30876
 H2138 H 0.56194 0.50951 0.32972
 C2139 C 0.02362 -0.02454 0.88007
 C2140 C 0.02849 -0.03320 0.89253
 C2141 C 0.01886 -0.03560 0.90483
 C2142 C 0.00420 -0.02929 0.90503
 C2143 C -0.00066 -0.02058 0.89263
 C2144 C 0.00891 -0.01829 0.88027
 C2145 C 0.03385 -0.02202 0.86695
 C2146 C 0.03394 -0.00803 0.85933
 C2147 C 0.04352 -0.00568 0.84700
 C2148 C 0.05335 -0.01722 0.84204
 C2149 C 0.05329 -0.03120 0.84969
 C2150 C 0.04362 -0.03359 0.86195
 C2151 C 0.06363 -0.01469 0.82896
 C2152 C 0.06658 -0.02643 0.81863
 C2153 C 0.07633 -0.02410 0.80642
 C2154 C 0.08324 -0.00993 0.80418
 C2155 C 0.08025 0.00185 0.81441
 C2156 C 0.07061 -0.00052 0.82670
 H2157 H 0.03983 -0.03794 0.89290
 H2158 H 0.02303 -0.04220 0.91428
 H2159 H -0.01195 -0.01572 0.89234
 H2160 H 0.00467 -0.01181 0.87076
 H2161 H 0.02671 0.00120 0.86298
 H2162 H 0.04312 0.00516 0.84126
 H2163 H 0.06084 -0.04027 0.84631
 H2164 H 0.04372 -0.04457 0.86741
 H2165 H 0.06119 -0.03739 0.81984
 H2166 H 0.07828 -0.03331 0.79858
 H2167 H 0.08558 0.01282 0.81305
 H2168 H 0.06882 0.00869 0.83457
 C2169 C 0.02276 0.02549 0.61970
 C2170 C 0.01642 0.01322 0.61180
 C2171 C 0.00671 0.01570 0.59952
 C2172 C 0.00317 0.03052 0.59480
 C2173 C 0.00958 0.04280 0.60269
 C2174 C 0.01924 0.04031 0.61500
 C2175 C 0.03300 0.02287 0.63281
 C2176 C 0.03177 0.03184 0.64585
 C2177 C 0.04144 0.02943 0.65817
 C2178 C 0.05260 0.01802 0.65771
 C2179 C 0.05381 0.00903 0.64467
 C2180 C 0.04410 0.01141 0.63237
 C2181 C 0.06296 0.01554 0.67078
 C2182 C 0.06714 0.00079 0.67519
 C2183 C 0.07691 -0.00152 0.68745
 C2184 C 0.08271 0.01086 0.69563
 C2185 C 0.07850 0.02561 0.69124
 C2186 C 0.06877 0.02792 0.67896
 H2187 H 0.01880 0.00167 0.61526
 H2188 H 0.00209 0.00596 0.59370
 H2189 H 0.00708 0.05437 0.59948
 H2190 H 0.02409 0.05000 0.62076
 H2191 H 0.02317 0.04060 0.64662
 H2192 H 0.04003 0.03638 0.66814
 H2193 H 0.06243 0.00030 0.64385
 H2194 H 0.04545 0.00445 0.62239
 H2195 H 0.06274 -0.00899 0.66925
 H2196 H 0.08006 -0.01302 0.69042
 H2197 H 0.08260 0.03539 0.69740
 H2198 H 0.06592 0.03943 0.67576
 C2199 C 0.52312 0.52508 0.12023
 C2200 C 0.51538 0.51293 0.11347
 C2201 C 0.50547 0.51545 0.10136
 C2202 C 0.50325 0.53017 0.09565
 C2203 C 0.51108 0.54231 0.10237
 C2204 C 0.52085 0.53980 0.11459
 C2205 C 0.53354 0.52243 0.13315
 C2206 C 0.53303 0.53187 0.14589
 C2207 C 0.54280 0.52935 0.15810
 C2208 C 0.55343 0.51742 0.15777
 C2209 C 0.55395 0.50801 0.14496
 C2210 C 0.54406 0.51045 0.13282
 C2211 C 0.56391 0.51480 0.17074
 C2212 C 0.56787 0.50000 0.17517
 C2213 C 0.57773 0.49755 0.18734
 C2214 C 0.58377 0.50985 0.19547
 C2215 C 0.57978 0.52465 0.19106
 C2216 C 0.57003 0.52710 0.17881
 H2217 H 0.51685 0.50148 0.11768
 H2218 H 0.49970 0.50585 0.09637
 H2219 H 0.50953 0.55379 0.09832
 H2220 H 0.52677 0.54935 0.11953
 H2221 H 0.52488 0.54106 0.14651
 H2222 H 0.54188 0.53663 0.16789
 H2223 H 0.56216 0.49890 0.14419
 H2224 H 0.54481 0.50312 0.12304
 H2225 H 0.56323 0.49025 0.16935
 H2226 H 0.58070 0.48601 0.19029
 H2227 H 0.58403 0.53439 0.19717
 H2228 H 0.56741 0.53865 0.17559
 C2229 C 0.47711 -0.02609 0.12071
 C2230 C 0.47258 -0.03506 0.10838
 C2231 C 0.48235 -0.03739 0.09619
 C2232 C 0.49686 -0.03074 0.09599
 C2233 C 0.50138 -0.02175 0.10830
 C2234 C 0.49164 -0.01948 0.12053
 C2235 C 0.46672 -0.02362 0.13369
 C2236 C 0.46594 -0.00941 0.14083
 C2237 C 0.45621 -0.00709 0.15305
 C2238 C 0.44698 -0.01892 0.15841
 C2239 C 0.44774 -0.03313 0.15126
 C2240 C 0.45751 -0.03546 0.13907
 C2241 C 0.43660 -0.01644 0.17140
 C2242 C 0.43453 -0.02780 0.18235
 C2243 C 0.42477 -0.02546 0.19455
 C2244 C 0.41691 -0.01168 0.19612
 C2245 C 0.41899 -0.00030 0.18521
 C2246 C 0.42868 -0.00267 0.17297
 H2247 H 0.46138 -0.04011 0.10804
 H2248 H 0.47842 -0.04423 0.08683
 H2249 H 0.51253 -0.01662 0.10864
 H2250 H 0.49558 -0.01273 0.12996
 H2251 H 0.47273 0.00001 0.13686
 H2252 H 0.45604 0.00394 0.15841
 H2253 H 0.44066 -0.04243 0.15499
 H2254 H 0.45797 -0.04659 0.13395
 H2255 H 0.44065 -0.03844 0.18162
 H2256 H 0.42356 -0.03435 0.20290
 H2257 H 0.41290 0.01035 0.18601
 H2258 H 0.42980 0.00622 0.16460
 C2259 C 0.97747 0.47352 0.62096
 C2260 C 0.97299 0.46407 0.60896
 C2261 C 0.98260 0.46169 0.59665
 C2262 C 0.99684 0.46882 0.59596
 C2263 C 1.00133 0.47829 0.60790
 C2264 C 0.99180 0.48055 0.62029
 C2265 C 0.96723 0.47609 0.63405
 C2266 C 0.96649 0.49036 0.64109
 C2267 C 0.95686 0.49278 0.65337
 C2268 C 0.94759 0.48103 0.65886
 C2269 C 0.94830 0.46677 0.65180
 C2270 C 0.95803 0.46431 0.63960
 C2271 C 0.93722 0.48366 0.67184
 C2272 C 0.93471 0.47220 0.68261
 C2273 C 0.92488 0.47463 0.69474
 C2274 C 0.91747 0.48863 0.69647
 C2275 C 0.92001 0.50012 0.68580
 C2276 C 0.92971 0.49764 0.67358
 H2277 H 0.96194 0.45871 0.60893
 H2278 H 0.97872 0.45448 0.58753
 H2279 H 1.01232 0.48379 0.60780
 H2280 H 0.99576 0.48765 0.62945
 H2281 H 0.97324 0.49975 0.63701
 H2282 H 0.95679 0.50385 0.65865
 H2283 H 0.94119 0.45752 0.65557
 H2284 H 0.95844 0.45312 0.63461
 H2285 H 0.94051 0.46139 0.68181
 H2286 H 0.92326 0.46565 0.70292
 H2287 H 0.91429 0.51096 0.68678
 H2288 H 0.93113 0.50662 0.66537
 C2289 C 0.97713 0.52593 0.88013
 C2290 C 0.99252 0.52183 0.87903
 C2291 C 1.00251 0.52446 0.89102
 C2292 C 0.99737 0.53128 0.90441
 C2293 C 0.98197 0.53536 0.90552
 C2294 C 0.97196 0.53271 0.89352
 C2295 C 0.96655 0.52322 0.86731
 C2296 C 0.95550 0.53407 0.86339
 C2297 C 0.94570 0.53160 0.85119
 C2298 C 0.94675 0.51824 0.84262
 C2299 C 0.95774 0.50736 0.84657
 C2300 C 0.96752 0.50981 0.85878
 C2301 C 0.93648 0.51570 0.82954
 C2302 C 0.94208 0.50943 0.81608
 C2303 C 0.93244 0.50706 0.80375
 C2304 C 0.91695 0.51089 0.80460
 C2305 C 0.91135 0.51717 0.81807
 C2306 C 0.92100 0.51956 0.83040
 H2307 H 0.99691 0.51681 0.86877
 H2308 H 1.01431 0.52132 0.88965
 H2309 H 0.97754 0.54047 0.91570
 H2310 H 0.96012 0.53579 0.89480
 H2311 H 0.95462 0.54462 0.86959
 H2312 H 0.93749 0.54029 0.84829
 H2313 H 0.95866 0.49685 0.84033
 H2314 H 0.97573 0.50112 0.86166
 H2315 H 0.95400 0.50657 0.81500
 H2316 H 0.93716 0.50245 0.79346
 H2317 H 0.89943 0.52001 0.81918
 H2318 H 0.91631 0.52421 0.84069
 C2319 C 0.47762 0.02694 0.37868
 C2320 C 0.49226 0.02056 0.37884
 C2321 C 0.50207 0.02302 0.39104
 C2322 C 0.49749 0.03196 0.40334
 C2323 C 0.48286 0.03838 0.40316
 C2324 C 0.47303 0.03588 0.39099
 C2325 C 0.46716 0.02426 0.36575
 C2326 C 0.45773 0.03595 0.36032
 C2327 C 0.44787 0.03342 0.34819
 C2328 C 0.44725 0.01915 0.34117
 C2329 C 0.45668 0.00746 0.34657
 C2330 C 0.46650 0.00997 0.35874
 C2331 C 0.43681 0.01647 0.32826
 C2332 C 0.44168 0.00817 0.31563
 C2333 C 0.43186 0.00565 0.30346
 C2334 C 0.41692 0.01133 0.30367
 C2335 C 0.41206 0.01962 0.31632
 C2336 C 0.42190 0.02218 0.32847
 H2337 H 0.49624 0.01382 0.36943
 H2338 H 0.51331 0.01805 0.39069
 H2339 H 0.47886 0.04517 0.41251
 H2340 H 0.46174 0.04075 0.39134
 H2341 H 0.45815 0.04715 0.36531
 H2342 H 0.44090 0.04270 0.34413
 H2343 H 0.45628 -0.00372 0.34152
 H2344 H 0.47341 0.00065 0.36280
 H2345 H 0.45317 0.00382 0.31506
 H2346 H 0.43605 -0.00054 0.29378
 H2347 H 0.40055 0.02393 0.31696
 H2348 H 0.41777 0.02843 0.33814
   
