data_POSCAR
  _audit_creation_date              2014-09-24
  _audit_creation_method            'ToBaCCo'
  _symmetry_space_group_name_H-M    'P1'
  _symmetry_Int_Tables_number       1
  _symmetry_cell_setting            triclinic
  loop_
  _symmetry_equiv_pos_as_xyz
 x,y,z
_cell_length_a 63.8402
_cell_length_b 63.8457
_cell_length_c 63.7886
_cell_angle_alpha 89.998400
_cell_angle_beta 90.001900
_cell_angle_gamma 89.944000
loop_
  _atom_site_label
  _atom_site_type_symbol
  _atom_site_fract_x
  _atom_site_fract_y
  _atom_site_fract_z
C1 C 0.36758 1.35308 0.33676
 C2 C 0.36759 1.33755 0.35230
 C3 C 0.35224 1.33754 0.36765
 C4 C 0.33668 1.35306 0.36765
 C5 C 0.33666 1.36842 0.35228
 C6 C 0.35220 1.36843 0.33674
 C7 C 0.38013 1.35652 0.31954
 N8 N 0.37268 1.37353 0.30926
 C9 C 0.35564 1.38097 0.31951
 C10 C 0.31941 1.38094 0.35573
 N11 N 0.30917 1.37348 0.37275
 C12 C 0.31946 1.35648 0.38020
 C13 C 0.35570 1.32033 0.38019
 N14 N 0.37272 1.31006 0.37276
 C15 C 0.38015 1.32034 0.35575
 H16 H 0.39345 1.34719 0.31467
 H17 H 0.34630 1.39427 0.31462
 H18 H 0.31451 1.39425 0.34639
 H19 H 0.31460 1.34714 0.39351
 H20 H 0.34638 1.31543 0.39350
 H21 H 0.39346 1.31545 0.34643
 C22 C 0.36755 0.85303 0.83755
 C23 C 0.36754 0.83748 0.85306
 C24 C 0.35212 0.83740 0.86835
 C25 C 0.33653 0.85289 0.86831
 C26 C 0.33654 0.86827 0.85298
 C27 C 0.35214 0.86834 0.83750
 C28 C 0.38012 0.85651 0.82036
 N29 N 0.37266 0.87350 0.81005
 C30 C 0.35559 0.88088 0.82028
 C31 C 0.31923 0.88073 0.85634
 N32 N 0.30891 0.87320 0.87329
 C33 C 0.31922 0.85622 0.88077
 C34 C 0.35556 0.82015 0.88086
 N35 N 0.37263 0.80993 0.87346
 C36 C 0.38010 0.82027 0.85651
 H37 H 0.39346 0.84723 0.81549
 H38 H 0.34623 0.89415 0.81534
 H39 H 0.31432 0.89401 0.84698
 H40 H 0.31430 0.84683 0.89403
 H41 H 0.34619 0.81519 0.89411
 H42 H 0.39346 0.81543 0.84722
 C43 C 0.86683 1.35252 0.83607
 C44 C 0.86688 1.33702 0.85165
 C45 C 0.85151 1.33700 0.86699
 C46 C 0.83592 1.35249 0.86694
 C47 C 0.83587 1.36781 0.85155
 C48 C 0.85142 1.36783 0.83602
 C49 C 0.87943 1.35598 0.81889
 N50 N 0.87196 1.37297 0.80858
 C51 C 0.85488 1.38038 0.81879
 C52 C 0.81862 1.38034 0.85500
 N53 N 0.80841 1.37291 0.87205
 C54 C 0.81872 1.35593 0.87952
 C55 C 0.85503 1.31985 0.87960
 N56 N 0.87210 1.30962 0.87221
 C57 C 0.87950 1.31987 0.85517
 H58 H 0.89280 1.34670 0.81408
 H59 H 0.84554 1.39368 0.81388
 H60 H 0.81372 1.39365 0.84566
 H61 H 0.81390 1.34663 0.89287
 H62 H 0.84574 1.31497 0.89293
 H63 H 0.89285 1.31501 0.84588
 C64 C 0.86821 0.85274 0.33645
 C65 C 0.86818 0.83716 0.35195
 C66 C 0.85278 0.83712 0.36727
 C67 C 0.83723 0.85265 0.36727
 C68 C 0.83727 0.86804 0.35195
 C69 C 0.85284 0.86809 0.33645
 C70 C 0.88079 0.85622 0.31926
 N71 N 0.87336 0.87326 0.30902
 C72 C 0.85631 0.88068 0.31927
 C73 C 0.82002 0.88056 0.35538
 N74 N 0.80970 0.87307 0.37234
 C75 C 0.81997 0.85605 0.37976
 C76 C 0.85619 0.81986 0.37977
 N77 N 0.87323 0.80960 0.37235
 C78 C 0.88071 0.81993 0.35538
 H79 H 0.89412 0.84690 0.31438
 H80 H 0.84698 0.89400 0.31439
 H81 H 0.81514 0.89389 0.34608
 H82 H 0.81504 0.84669 0.39303
 H83 H 0.84684 0.81493 0.39304
 H84 H 0.89404 0.81506 0.34608
 C85 C 0.63156 0.64672 0.33692
 C86 C 0.63157 0.66227 0.35244
 C87 C 0.64693 0.66228 0.36779
 C88 C 0.66247 0.64675 0.36780
 C89 C 0.66246 0.63137 0.35246
 C90 C 0.64692 0.63136 0.33693
 C91 C 0.61902 0.64328 0.31969
 N92 N 0.62646 0.62625 0.30944
 C93 C 0.64348 0.61881 0.31971
 C94 C 0.67970 0.61885 0.35591
 N95 N 0.68999 0.62631 0.37290
 C96 C 0.67971 0.64333 0.38033
 C97 C 0.64350 0.67953 0.38030
 N98 N 0.62650 0.68981 0.37285
 C99 C 0.61905 0.67951 0.35586
 H100 H 0.60571 0.65262 0.31480
 H101 H 0.65282 0.60550 0.31483
 H102 H 0.68461 0.60554 0.34659
 H103 H 0.68461 0.65267 0.39362
 H104 H 0.65284 0.68444 0.39359
 H105 H 0.60574 0.68441 0.34653
 C106 C 0.63321 0.14770 0.83574
 C107 C 0.63317 0.16319 0.85133
 C108 C 0.64851 0.16316 0.86669
 C109 C 0.66408 0.14766 0.86666
 C110 C 0.66414 0.13235 0.85125
 C111 C 0.64861 0.13237 0.83569
 C112 C 0.62064 0.14426 0.81854
 N113 N 0.62809 0.12726 0.80824
 C114 C 0.64515 0.11983 0.81846
 C115 C 0.68136 0.11979 0.85472
 N116 N 0.69156 0.12720 0.87180
 C117 C 0.68126 0.14419 0.87926
 C118 C 0.64498 0.18031 0.87932
 N119 N 0.62794 0.19056 0.87192
 C120 C 0.62056 0.18034 0.85485
 H121 H 0.60727 0.15355 0.81372
 H122 H 0.65448 0.10652 0.81356
 H123 H 0.68626 0.10649 0.84538
 H124 H 0.68607 0.15347 0.89263
 H125 H 0.65426 0.18515 0.89268
 H126 H 0.60722 0.18522 0.84556
 C127 C 1.13254 0.64704 0.83762
 C128 C 1.13253 0.66258 0.85316
 C129 C 1.14789 0.66259 0.86852
 C130 C 1.16343 0.64706 0.86852
 C131 C 1.16344 0.63170 0.85317
 C132 C 1.14791 0.63169 0.83763
 C133 C 1.12001 0.64360 0.82040
 N134 N 1.12746 0.62659 0.81012
 C135 C 1.14447 0.61916 0.82040
 C136 C 1.18068 0.61916 0.85661
 N137 N 1.19094 0.62662 0.87363
 C138 C 1.18066 0.64364 0.88107
 C139 C 1.14443 0.67983 0.88104
 N140 N 1.12741 0.69009 0.87358
 C141 C 1.11999 0.67980 0.85658
 H142 H 1.10670 0.65292 0.81550
 H143 H 1.15380 0.60586 0.81549
 H144 H 1.18557 0.60585 0.84727
 H145 H 1.18554 0.65298 0.89438
 H146 H 1.15374 0.68474 0.89434
 H147 H 1.10668 0.68468 0.84725
 C148 C 1.13261 0.14706 0.33645
 C149 C 1.13258 0.16255 0.35203
 C150 C 1.14793 0.16252 0.36740
 C151 C 1.16349 0.14700 0.36736
 C152 C 1.16353 0.13169 0.35195
 C153 C 1.14799 0.13172 0.33640
 C154 C 1.12006 0.14365 0.31922
 N155 N 1.12752 0.12667 0.30891
 C156 C 1.14456 0.11921 0.31914
 C157 C 1.18077 0.11915 0.35537
 N158 N 1.19100 0.12656 0.37243
 C159 C 1.18070 0.14354 0.37991
 C160 C 1.14445 0.17969 0.37999
 N161 N 1.12743 0.18996 0.37259
 C162 C 1.12002 0.17974 0.35553
 H163 H 1.10672 0.15298 0.31438
 H164 H 1.15390 0.10592 0.31422
 H165 H 1.18567 0.10587 0.34601
 H166 H 1.18555 0.15284 0.39327
 H167 H 1.15376 0.18455 0.39332
 H168 H 1.10670 0.18464 0.34623
 C169 C 0.63227 1.35239 0.66388
 C170 C 0.63226 1.33690 0.64830
 C171 C 0.64759 1.33693 0.63292
 C172 C 0.66311 1.35245 0.63294
 C173 C 0.66313 1.36776 0.64834
 C174 C 0.64762 1.36774 0.66390
 C175 C 0.61973 1.35581 0.68112
 N176 N 0.62717 1.37281 0.69141
 C177 C 0.64418 1.38026 0.68115
 C178 C 0.68033 1.38030 0.64488
 N179 N 0.69057 1.37290 0.62782
 C180 C 0.68029 1.35592 0.62036
 C181 C 0.64412 1.31976 0.62033
 N182 N 0.62712 1.30949 0.62775
 C183 C 0.61971 1.31971 0.64481
 H184 H 0.60641 1.34649 0.68598
 H185 H 0.65349 1.39356 0.68604
 H186 H 0.68522 1.39359 0.65421
 H187 H 0.68516 1.34664 0.60701
 H188 H 0.65341 1.31490 0.60697
 H189 H 0.60641 1.31481 0.65413
 C190 C 0.63159 0.85295 1.16313
 C191 C 0.63162 0.83739 1.14761
 C192 C 0.64702 0.83732 1.13230
 C193 C 0.66258 0.85281 1.13233
 C194 C 0.66256 0.86819 1.14766
 C195 C 0.64697 0.86826 1.16315
 C196 C 0.61901 0.85644 1.18032
 N197 N 0.62646 0.87345 1.19059
 C198 C 0.64351 0.88083 1.18036
 C199 C 0.67983 0.88064 1.14426
 N200 N 0.69015 0.87314 1.12730
 C201 C 0.67986 0.85616 1.11985
 C202 C 0.64360 0.82008 1.11980
 N203 N 0.62656 0.80986 1.12720
 C204 C 0.61908 0.82019 1.14417
 H205 H 0.60568 0.84715 1.18518
 H206 H 0.65286 0.89411 1.18526
 H207 H 0.68473 0.89394 1.15358
 H208 H 0.68479 0.84679 1.10659
 H209 H 0.65296 0.81513 1.10653
 H210 H 0.60574 0.81534 1.15346
 C211 C 1.13206 1.35354 1.16177
 C212 C 1.13207 1.33802 1.14623
 C213 C 1.14745 1.33798 1.13090
 C214 C 1.16301 1.35348 1.13094
 C215 C 1.16299 1.36883 1.14631
 C216 C 1.14742 1.36886 1.16182
 C217 C 1.11952 1.35696 1.17900
 N218 N 1.12696 1.37393 1.18933
 C219 C 1.14398 1.38135 1.17908
 C220 C 1.18025 1.38131 1.14294
 N221 N 1.19055 1.37384 1.12595
 C222 C 1.18028 1.35687 1.11845
 C223 C 1.14403 1.32074 1.11838
 N224 N 1.12701 1.31050 1.12581
 C225 C 1.11955 1.32081 1.14279
 H226 H 1.10622 1.34765 1.18388
 H227 H 1.15332 1.39461 1.18403
 H228 H 1.18513 1.39459 1.15231
 H229 H 1.18520 1.34752 1.10516
 H230 H 1.15338 1.31580 1.10511
 H231 H 1.10624 1.31594 1.15212
 C232 C 1.13090 0.85367 0.66163
 C233 C 1.13092 0.83813 0.64610
 C234 C 1.14627 0.83813 0.63073
 C235 C 1.16177 0.85367 0.63071
 C236 C 1.16174 0.86903 0.64606
 C237 C 1.14622 0.86903 0.66161
 C238 C 1.11841 0.85707 0.67890
 N239 N 1.12584 0.87406 0.68919
 C240 C 1.14280 0.88153 0.67887
 C241 C 1.17898 0.88153 0.64265
 N242 N 1.18929 0.87406 0.62567
 C243 C 1.17902 0.85707 0.61821
 C244 C 1.14290 0.82085 0.61825
 N245 N 1.12594 0.81055 0.62573
 C246 C 1.11847 0.82085 0.64272
 H247 H 1.10516 0.84771 0.68384
 H248 H 1.15213 0.89481 0.68378
 H249 H 1.18388 0.89481 0.65200
 H250 H 1.18396 0.84772 0.60494
 H251 H 1.15225 0.81593 0.60497
 H252 H 1.10521 0.81593 0.65208
 C253 C 0.36740 0.64716 0.66255
 C254 C 0.36736 0.66270 0.64702
 C255 C 0.35199 0.66272 0.63168
 C256 C 0.33647 0.64719 0.63169
 C257 C 0.33651 0.63182 0.64704
 C258 C 0.35207 0.63181 0.66256
 C259 C 0.37997 0.64371 0.67975
 N260 N 0.37257 0.62670 0.69004
 C261 C 0.35556 0.61927 0.67979
 C262 C 0.31931 0.61928 0.64362
 N263 N 0.30902 0.62673 0.62661
 C264 C 0.31924 0.64375 0.61915
 C265 C 0.35541 0.67995 0.61914
 N266 N 0.37242 0.69020 0.62657
 C267 C 0.37988 0.67991 0.64357
 H268 H 0.39327 0.65303 0.68463
 H269 H 0.34626 0.60597 0.68469
 H270 H 0.31446 0.60596 0.65295
 H271 H 0.31433 0.65309 0.60585
 H272 H 0.34608 0.68485 0.60584
 H273 H 0.39320 0.68479 0.65287
 C274 C 0.36801 0.14636 1.16156
 C275 C 0.36797 0.16191 1.14604
 C276 C 0.35258 0.16196 1.13072
 C277 C 0.33705 0.14644 1.13073
 C278 C 0.33709 0.13106 1.14608
 C279 C 0.35266 0.13102 1.16158
 C280 C 0.38055 0.14293 1.17878
 N281 N 0.37313 0.12594 1.18908
 C282 C 0.35612 0.11851 1.17882
 C283 C 0.31983 0.11858 1.14270
 N284 N 0.30951 0.12608 1.12573
 C285 C 0.31977 0.14307 1.11825
 C286 C 0.35597 0.17923 1.11824
 N287 N 0.37297 0.18948 1.12568
 C288 C 0.38046 0.17915 1.14264
 H289 H 0.39384 0.15225 1.18368
 H290 H 0.34679 0.10524 1.18376
 H291 H 0.31496 0.10529 1.15205
 H292 H 0.31483 0.15245 1.10499
 H293 H 0.34659 0.18419 1.10499
 H294 H 0.39376 0.18403 1.15197
 C295 C 0.86901 0.64642 1.16167
 C296 C 0.86894 0.66200 1.14619
 C297 C 0.85354 0.66206 1.13087
 C298 C 0.83803 0.64652 1.13087
 C299 C 0.83810 0.63112 1.14618
 C300 C 0.85368 0.63107 1.16167
 C301 C 0.88156 0.64296 1.17890
 N302 N 0.87415 0.62595 1.18916
 C303 C 0.85715 0.61852 1.17888
 C304 C 0.82086 0.61863 1.14279
 N305 N 0.81050 0.62613 1.12586
 C306 C 0.82073 0.64315 1.11841
 C307 C 0.85689 0.67936 1.11842
 N308 N 0.87389 0.68962 1.12587
 C309 C 0.88141 0.67927 1.14281
 H310 H 0.89483 0.65230 1.18382
 H311 H 0.84783 0.60523 1.18379
 H312 H 0.81600 0.60532 1.15211
 H313 H 0.81575 0.65253 1.10518
 H314 H 0.84751 0.68432 1.10518
 H315 H 0.89471 0.68414 1.15213
 C316 C 0.86795 0.14721 0.66345
 C317 C 0.86795 0.16274 0.64790
 C318 C 0.85259 0.16278 0.63256
 C319 C 0.83703 0.14729 0.63258
 C320 C 0.83702 0.13194 0.64794
 C321 C 0.85257 0.13190 0.66347
 C322 C 0.88051 0.14374 0.68066
 N323 N 0.87305 0.12674 0.69094
 C324 C 0.85601 0.11934 0.68070
 C325 C 0.81978 0.11945 0.64450
 N326 N 0.80951 0.12690 0.62749
 C327 C 0.81980 0.14388 0.62004
 C328 C 0.85605 0.17998 0.62001
 N329 N 0.87308 0.19020 0.62742
 C330 C 0.88052 0.17991 0.64444
 H331 H 0.89384 0.15303 0.68552
 H332 H 0.84666 0.10606 0.68559
 H333 H 0.81488 0.10615 0.65382
 H334 H 0.81492 0.15320 0.60672
 H335 H 0.84673 0.18489 0.60670
 H336 H 0.89385 0.18477 0.65374
 C337 C 1.35374 0.36792 0.66214
 C338 C 1.33821 0.36794 0.64660
 C339 C 1.33817 0.35256 0.63126
 C340 C 1.35367 0.33699 0.63129
 C341 C 1.36903 0.33696 0.64667
 C342 C 1.36905 0.35253 0.66218
 C343 C 1.35717 0.38046 0.67937
 N344 N 1.37413 0.37298 0.68969
 C345 C 1.38156 0.35595 0.67944
 C346 C 1.38151 0.31968 0.64328
 N347 N 1.37403 0.30941 0.62627
 C348 C 1.35705 0.31972 0.61879
 C349 C 1.32094 0.35601 0.61875
 N350 N 1.31069 0.37304 0.62617
 C351 C 1.32099 0.38049 0.64316
 H352 H 1.34786 0.39378 0.68424
 H353 H 1.39482 0.34659 0.68439
 H354 H 1.39479 0.31476 0.65264
 H355 H 1.34769 0.31484 0.60550
 H356 H 1.31600 0.34666 0.60547
 H357 H 1.31611 0.39381 0.65248
 C358 C 1.35272 0.86715 1.16350
 C359 C 1.33720 0.86716 1.14794
 C360 C 1.33718 0.85177 1.13262
 C361 C 1.35268 0.83619 1.13268
 C362 C 1.36802 0.83618 1.14806
 C363 C 1.36804 0.85175 1.16357
 C364 C 1.35617 0.87975 1.18068
 N365 N 1.37317 0.87231 1.19099
 C366 C 1.38059 0.85523 1.18079
 C367 C 1.38055 0.81893 1.14465
 N368 N 1.37311 0.80867 1.12763
 C369 C 1.35611 0.81895 1.12015
 C370 C 1.31999 0.85525 1.12004
 N371 N 1.30976 0.87231 1.12742
 C372 C 1.32003 0.87975 1.14444
 H373 H 1.34687 0.89311 1.18549
 H374 H 1.39388 0.84589 1.18571
 H375 H 1.39385 0.81404 1.15400
 H376 H 1.34680 0.81409 1.10682
 H377 H 1.31510 0.84593 1.10674
 H378 H 1.31517 0.89310 1.15371
 C379 C 0.85266 0.36707 1.16383
 C380 C 0.83710 0.36708 1.14831
 C381 C 0.83709 0.35173 1.13294
 C382 C 0.85263 0.33620 1.13292
 C383 C 0.86801 0.33618 1.14826
 C384 C 0.86802 0.35171 1.16381
 C385 C 0.85613 0.37963 1.18104
 N386 N 0.87317 0.37220 1.19127
 C387 C 0.88060 0.35517 1.18101
 C388 C 0.88057 0.31898 1.14477
 N389 N 0.87311 0.30874 1.12774
 C390 C 0.85607 0.31901 1.12033
 C391 C 0.81987 0.35521 1.12041
 N392 N 0.80961 0.37222 1.12785
 C393 C 0.81989 0.37964 1.14487
 H394 H 0.84681 0.39296 1.18591
 H395 H 0.89394 0.34585 1.18586
 H396 H 0.89391 0.31410 1.15407
 H397 H 0.84674 0.31415 1.10701
 H398 H 0.81498 0.34591 1.10708
 H399 H 0.81501 0.39296 1.15418
 C400 C 0.85337 0.86873 0.66202
 C401 C 0.83784 0.86872 0.64648
 C402 C 0.83786 0.85336 0.63112
 C403 C 0.85341 0.83784 0.63112
 C404 C 0.86876 0.83785 0.64648
 C405 C 0.86874 0.85339 0.66202
 C406 C 0.85677 0.88124 0.67927
 N407 N 0.87377 0.87379 0.68957
 C408 C 0.88124 0.85681 0.67928
 C409 C 0.88128 0.82061 0.64308
 N410 N 0.87384 0.81031 0.62608
 C411 C 0.85684 0.82059 0.61862
 C412 C 0.82060 0.85676 0.61861
 N413 N 0.81029 0.87375 0.62607
 C414 C 0.82058 0.88121 0.64306
 H415 H 0.84742 0.89451 0.68418
 H416 H 0.89454 0.84748 0.68420
 H417 H 0.89457 0.81570 0.65242
 H418 H 0.84750 0.81567 0.60534
 H419 H 0.81570 0.84742 0.60533
 H420 H 0.81565 0.89449 0.65240
 C421 C 0.64656 0.63110 0.66209
 C422 C 0.66209 0.63108 0.64654
 C423 C 0.66207 0.64642 0.63116
 C424 C 0.64654 0.66196 0.63116
 C425 C 0.63120 0.66198 0.64653
 C426 C 0.63121 0.64646 0.66208
 C427 C 0.64316 0.61861 0.67935
 N428 N 0.62618 0.62608 0.68965
 C429 C 0.61872 0.64307 0.67935
 C430 C 0.61869 0.67924 0.64312
 N431 N 0.62614 0.68951 0.62611
 C432 C 0.64312 0.67921 0.61865
 C433 C 0.67932 0.64300 0.61865
 N434 N 0.68962 0.62602 0.62612
 C435 C 0.67934 0.61858 0.64313
 H436 H 0.65250 0.60533 0.68427
 H437 H 0.60543 0.65242 0.68427
 H438 H 0.60542 0.68417 0.65247
 H439 H 0.65245 0.68411 0.60535
 H440 H 0.68423 0.65233 0.60536
 H441 H 0.68427 0.60531 0.65248
 C442 C 0.64718 1.13271 1.16357
 C443 C 0.66271 1.13271 1.14803
 C444 C 0.66271 1.14806 1.13267
 C445 C 0.64718 1.16361 1.13268
 C446 C 0.63183 1.16362 1.14805
 C447 C 0.63183 1.14808 1.16359
 C448 C 0.64374 1.12015 1.18078
 N449 N 0.62672 1.12759 1.19105
 C450 C 0.61928 1.14463 1.18081
 C451 C 0.61928 1.18085 1.14460
 N452 N 0.62672 1.19109 1.12756
 C453 C 0.64374 1.18082 1.12012
 C454 C 0.67992 1.14460 1.12011
 N455 N 0.69018 1.12757 1.12754
 C456 C 0.67992 1.12015 1.14456
 H457 H 0.65306 1.10682 1.18564
 H458 H 0.60596 1.15395 1.18569
 H459 H 0.60596 1.18573 1.15393
 H460 H 0.65306 1.18568 1.10679
 H461 H 0.68480 1.15391 1.10679
 H462 H 0.68481 1.10683 1.15387
 C463 C 0.14757 0.63327 1.16401
 C464 C 0.16306 0.63324 1.14844
 C465 C 0.16308 0.64862 1.13311
 C466 C 0.14760 0.66421 1.13317
 C467 C 0.13228 0.66425 1.14858
 C468 C 0.13226 0.64868 1.16409
 C469 C 0.14411 0.62066 1.18119
 N470 N 0.12712 0.62812 1.19150
 C471 C 0.11972 0.64521 1.18132
 C472 C 0.11975 0.68150 1.14515
 N473 N 0.12718 0.69174 1.12811
 C474 C 0.14416 0.68143 1.12062
 C475 C 0.18024 0.64510 1.12050
 N476 N 0.19046 0.62802 1.12787
 C477 C 0.18021 0.62061 1.14491
 H478 H 0.15339 0.60728 1.18598
 H479 H 0.10643 0.65455 1.18624
 H480 H 0.10645 0.68640 1.15450
 H481 H 0.15345 0.68627 1.10727
 H482 H 0.18512 0.65441 1.10718
 H483 H 0.18506 0.60726 1.15418
 C484 C 0.14739 1.13290 0.66392
 C485 C 0.16288 1.13286 0.64834
 C486 C 0.16287 1.14820 0.63297
 C487 C 0.14737 1.16377 0.63299
 C488 C 0.13205 1.16382 0.64839
 C489 C 0.13206 1.14830 0.66395
 C490 C 0.14395 1.12035 0.68114
 N491 N 0.12695 1.12782 0.69143
 C492 C 0.11952 1.14487 0.68119
 C493 C 0.11951 1.18106 0.64494
 N494 N 0.12693 1.19126 0.62787
 C495 C 0.14392 1.18096 0.62041
 C496 C 0.18004 1.14468 0.62037
 N497 N 0.19029 1.12765 0.62778
 C498 C 0.18006 1.12026 0.64484
 H499 H 0.15325 1.10700 0.68598
 H500 H 0.10622 1.15421 0.68608
 H501 H 0.10621 1.18597 0.65428
 H502 H 0.15321 1.18578 0.60705
 H503 H 0.18490 1.15397 0.60702
 H504 H 0.18494 1.10694 0.65414
 C505 C 1.35262 0.63300 0.33644
 C506 C 1.33709 0.63301 0.35199
 C507 C 1.33703 0.64841 0.36730
 C508 C 1.35250 0.66398 0.36724
 C509 C 1.36786 0.66397 0.35188
 C510 C 1.36791 0.64839 0.33638
 C511 C 1.35611 0.62038 0.31928
 N512 N 1.37311 0.62781 0.30899
 C513 C 1.38049 0.64489 0.31918
 C514 C 1.38037 0.68121 0.35529
 N515 N 1.37290 0.69149 0.37231
 C516 C 1.35591 0.68122 0.37977
 C517 C 1.31984 0.64493 0.37987
 N518 N 1.30965 0.62785 0.37250
 C519 C 1.31994 0.62041 0.35549
 H520 H 1.34684 0.60702 0.31447
 H521 H 1.39377 0.65422 0.31427
 H522 H 1.39368 0.68607 0.34597
 H523 H 1.34658 0.68609 0.39310
 H524 H 1.31492 0.65425 0.39317
 H525 H 1.31512 0.60705 0.34623
 C526 C 1.35297 1.13268 0.83757
 C527 C 1.33745 1.13269 0.85311
 C528 C 1.33741 1.14806 0.86845
 C529 C 1.35291 1.16360 0.86843
 C530 C 1.36827 1.16360 0.85306
 C531 C 1.36829 1.14804 0.83754
 C532 C 1.35642 1.12012 0.82036
 N533 N 1.37340 1.12755 0.81005
 C534 C 1.38082 1.14458 0.82030
 C535 C 1.38078 1.18083 0.85647
 N536 N 1.37332 1.19110 0.87349
 C537 C 1.35632 1.18084 0.88096
 C538 C 1.32019 1.14461 0.88099
 N539 N 1.30996 1.12758 0.87357
 C540 C 1.32026 1.12014 0.85656
 H541 H 1.34712 1.10681 0.81549
 H542 H 1.39410 1.15389 0.81537
 H543 H 1.39408 1.18570 0.84713
 H544 H 1.34699 1.18572 0.89427
 H545 H 1.31527 1.15393 0.89429
 H546 H 1.31540 1.10682 0.84725
 C547 C 0.85320 0.63147 0.83800
 C548 C 0.83765 0.63149 0.85353
 C549 C 0.83762 0.64685 0.86887
 C550 C 0.85313 0.66238 0.86887
 C551 C 0.86850 0.66236 0.85353
 C552 C 0.86854 0.64682 0.83801
 C553 C 0.85665 0.61895 0.82077
 N554 N 0.87365 0.62638 0.81049
 C555 C 0.88107 0.64338 0.82077
 C556 C 0.88099 0.67960 0.85695
 N557 N 0.87352 0.68991 0.87393
 C558 C 0.85652 0.67964 0.88138
 C559 C 0.82036 0.64344 0.88137
 N560 N 0.81011 0.62644 0.87393
 C561 C 0.82043 0.61898 0.85694
 H562 H 0.84734 0.60566 0.81585
 H563 H 0.89435 0.65271 0.81587
 H564 H 0.89428 0.68450 0.84762
 H565 H 0.84717 0.68456 0.89466
 H566 H 0.81543 0.65278 0.89466
 H567 H 0.81555 0.60568 0.84761
 C568 C 0.85402 1.13050 0.33888
 C569 C 0.83844 1.13052 0.35438
 C570 C 0.83835 1.14591 0.36970
 C571 C 0.85384 1.16147 0.36970
 C572 C 0.86923 1.16145 0.35438
 C573 C 0.86932 1.14588 0.33888
 C574 C 0.85747 1.11802 0.32162
 N575 N 0.87444 1.12550 0.31133
 C576 C 0.88183 1.14250 0.32163
 C577 C 0.88162 1.17877 0.35773
 N578 N 0.87407 1.18912 0.37466
 C579 C 0.85712 1.17880 0.38212
 C580 C 0.82103 1.14254 0.38212
 N581 N 0.81080 1.12553 0.37465
 C582 C 0.82118 1.11803 0.35773
 H583 H 0.84815 1.10474 0.31668
 H584 H 0.89507 1.15189 0.31669
 H585 H 0.89488 1.18371 0.34838
 H586 H 0.84769 1.18376 0.39534
 H587 H 0.81603 1.15193 0.39534
 H588 H 0.81631 1.10475 0.34837
 C589 C 0.64704 0.36840 0.33704
 C590 C 0.66259 0.36837 0.35257
 C591 C 0.66259 0.35301 0.36793
 C592 C 0.64704 0.33751 0.36795
 C593 C 0.63167 0.33755 0.35261
 C594 C 0.63167 0.35308 0.33706
 C595 C 0.64360 0.38094 0.31980
 N596 N 0.62657 0.37351 0.30955
 C597 C 0.61912 0.35652 0.31984
 C598 C 0.61914 0.32034 0.35605
 N599 N 0.62659 0.31005 0.37305
 C600 C 0.64361 0.32029 0.38048
 C601 C 0.67983 0.35641 0.38045
 N602 N 0.69011 0.37339 0.37300
 C603 C 0.67983 0.38085 0.35600
 H604 H 0.65294 0.39421 0.31490
 H605 H 0.60581 0.34721 0.31497
 H606 H 0.60583 0.31547 0.34673
 H607 H 0.65295 0.31537 0.39377
 H608 H 0.68473 0.34708 0.39375
 H609 H 0.68473 0.39414 0.34667
 C610 C 0.64662 0.86859 0.83795
 C611 C 0.66215 0.86861 0.85350
 C612 C 0.66218 0.85327 0.86887
 C613 C 0.64667 0.83773 0.86888
 C614 C 0.63133 0.83771 0.85351
 C615 C 0.63130 0.85323 0.83796
 C616 C 0.64319 0.88108 0.82069
 N617 N 0.62621 0.87361 0.81040
 C618 C 0.61879 0.85662 0.82070
 C619 C 0.61885 0.82046 0.85694
 N620 N 0.62631 0.81019 0.87395
 C621 C 0.64328 0.82049 0.88140
 C622 C 0.67941 0.85671 0.88139
 N623 N 0.68967 0.87370 0.87392
 C624 C 0.67937 0.88113 0.85691
 H625 H 0.65250 0.89436 0.81577
 H626 H 0.60553 0.84727 0.81579
 H627 H 0.60558 0.81553 0.84759
 H628 H 0.65262 0.81559 0.89470
 H629 H 0.68434 0.84739 0.89469
 H630 H 0.68425 0.89441 0.84756
 C631 C 0.14684 0.36860 0.83708
 C632 C 0.16234 0.36861 0.85265
 C633 C 0.16231 0.35328 0.86803
 C634 C 0.14679 0.33775 0.86802
 C635 C 0.13147 0.33774 0.85263
 C636 C 0.13149 0.35325 0.83707
 C637 C 0.14344 0.38111 0.81981
 N638 N 0.12646 0.37365 0.80951
 C639 C 0.11899 0.35666 0.81979
 C640 C 0.11896 0.32052 0.85606
 N641 N 0.12638 0.31026 0.87310
 C642 C 0.14335 0.32054 0.88056
 C643 C 0.17952 0.35670 0.88059
 N644 N 0.18981 0.37368 0.87314
 C645 C 0.17956 0.38111 0.85610
 H646 H 0.15278 0.39439 0.81492
 H647 H 0.10571 0.34732 0.81489
 H648 H 0.10568 0.31561 0.84671
 H649 H 0.15266 0.31565 0.89389
 H650 H 0.18440 0.34739 0.89391
 H651 H 0.18448 0.39439 0.84676
 C652 C 0.14675 0.86835 0.33689
 C653 C 0.16226 0.86836 0.35245
 C654 C 0.16228 0.85300 0.36780
 C655 C 0.14680 0.83744 0.36776
 C656 C 0.13146 0.83743 0.35238
 C657 C 0.13143 0.85297 0.33685
 C658 C 0.14331 0.88090 0.31966
 N659 N 0.12634 0.87343 0.30935
 C660 C 0.11892 0.85640 0.31960
 C661 C 0.11899 0.82017 0.35580
 N662 N 0.12644 0.80990 0.37281
 C663 C 0.14340 0.82020 0.38028
 C664 C 0.17949 0.85645 0.38035
 N665 N 0.18973 0.87347 0.37292
 C666 C 0.17945 0.88091 0.35591
 H667 H 0.15262 0.89422 0.31480
 H668 H 0.10565 0.84704 0.31468
 H669 H 0.10571 0.81525 0.34645
 H670 H 0.15272 0.81531 0.39360
 H671 H 0.18441 0.84711 0.39364
 H672 H 0.18433 0.89422 0.34659
 O673 O 0.97962 0.92455 0.89579
 O674 O 0.97959 0.90021 0.87126
 C675 C 0.97247 0.91725 0.87871
 C676 C 0.95542 0.92850 0.86769
 C677 C 0.94854 0.92186 0.84785
 H678 H 0.95607 0.90873 0.84014
 O679 O 1.02038 1.07584 0.89562
 O680 O 1.02039 1.10020 0.87110
 C681 C 1.02753 1.08316 0.87854
 C682 C 1.04464 1.07196 0.86755
 C683 C 1.05165 1.07873 0.84780
 H684 H 1.04417 1.09191 0.84013
 O685 O 0.89560 0.97990 0.92443
 O686 O 0.87110 0.97984 0.90006
 C687 C 0.87854 0.97275 0.91713
 C688 C 0.86754 0.95571 0.92839
 C689 C 0.84772 0.94883 0.92176
 H690 H 0.84000 0.95635 0.90862
 O691 O 1.10442 1.02056 0.92434
 O692 O 1.12892 1.02055 0.89997
 C693 C 1.12149 1.02768 0.91702
 C694 C 1.13249 1.04473 0.92826
 C695 C 1.15229 1.05165 0.92158
 H696 H 1.15999 1.04415 0.90842
 O697 O 0.92436 0.89594 0.97972
 O698 O 0.90003 0.87144 0.97969
 C699 C 0.91707 0.87887 0.97257
 C700 C 0.92833 0.86784 0.95552
 C701 C 0.92169 0.84803 0.94864
 H702 H 0.90855 0.84034 0.95616
 O703 O 1.07564 1.10447 0.97957
 O704 O 1.09996 1.12897 0.97953
 C705 C 1.08292 1.12154 0.97242
 C706 C 1.07166 1.13255 0.95536
 C707 C 1.07831 1.15236 0.94845
 H708 H 1.09145 1.16005 0.95595
 O709 O 0.92427 1.02069 0.89567
 O710 O 0.89993 1.02068 0.87113
 C711 C 0.91696 1.02781 0.87857
 C712 C 0.92819 1.04484 0.86753
 C713 C 0.92149 1.05177 0.84773
 H714 H 0.90833 1.04428 0.84005
 O715 O 1.07568 0.97978 0.89567
 O716 O 1.10000 0.97972 0.87111
 C717 C 1.08296 0.97263 0.87857
 C718 C 1.07169 0.95560 0.86757
 C719 C 1.07828 0.94874 0.84770
 H720 H 1.09138 0.95627 0.83996
 O721 O 1.02050 0.89583 0.92445
 O722 O 1.02053 0.87133 0.90008
 C723 C 1.02765 0.87875 0.91713
 C724 C 1.04471 0.86773 0.92838
 C725 C 1.05164 0.84793 0.92169
 H726 H 1.04415 0.84025 0.90852
 O727 O 0.97947 1.10452 0.92430
 O728 O 0.97943 1.12902 0.89993
 C729 C 0.97231 1.12159 0.91698
 C730 C 0.95524 1.13260 0.92822
 C731 C 0.94825 1.15237 0.92148
 H732 H 0.95572 1.16003 0.90828
 O733 O 0.89550 1.07598 0.97961
 O734 O 0.87100 1.10035 0.97960
 C735 C 0.87843 1.08331 0.97246
 C736 C 0.86745 1.07211 0.95535
 C737 C 0.84771 1.07889 0.94831
 H738 H 0.84004 1.09208 0.95576
 O739 O 1.10441 0.92444 0.97968
 O740 O 1.12892 0.90008 0.97963
 C741 C 1.12147 0.91712 0.97250
 C742 C 1.13244 0.92832 0.95539
 C743 C 1.15217 0.92153 0.94836
 H744 H 1.15983 0.90833 0.95582
 O745 O 0.97952 1.07585 0.89559
 O746 O 0.97948 1.10019 0.87106
 C747 C 0.97237 1.08315 0.87850
 C748 C 0.95531 1.07193 0.86750
 C749 C 0.94836 1.07861 0.84769
 H750 H 0.95585 1.09176 0.83999
 O751 O 1.02047 0.92453 0.89576
 O752 O 1.02049 0.90019 0.87123
 C753 C 1.02759 0.91723 0.87866
 C754 C 1.04461 0.92849 0.86762
 C755 C 1.05144 0.92187 0.84775
 H756 H 1.04391 0.90875 0.84005
 O757 O 1.10438 0.97971 0.92435
 O758 O 1.12886 0.97964 0.89996
 C759 C 1.12143 0.97253 0.91702
 C760 C 1.13242 0.95543 0.92824
 C761 C 1.15215 0.94839 0.92145
 H762 H 1.15980 0.95583 0.90824
 O763 O 0.89558 1.02075 0.92437
 O764 O 0.87108 1.02075 0.89998
 C765 C 0.87851 1.02789 0.91703
 C766 C 0.86749 1.04499 0.92823
 C767 C 0.84776 1.05200 0.92143
 H768 H 0.84012 1.04454 0.90823
 O769 O 0.92423 1.10459 0.97962
 O770 O 0.89988 1.12912 0.97960
 C771 C 0.91692 1.12166 0.97247
 C772 C 0.92813 1.13264 0.95537
 C773 C 0.92140 1.15240 0.94838
 H774 H 0.90822 1.16009 0.95586
 O775 O 1.07575 0.89577 0.97974
 O776 O 1.10011 0.87125 0.97969
 C777 C 1.08306 0.87870 0.97259
 C778 C 1.07182 0.86770 0.95552
 C779 C 1.07850 0.84790 0.94859
 H780 H 1.09165 0.84020 0.95610
 O781 O 1.07572 1.02063 0.89565
 O782 O 1.10006 1.02063 0.87112
 C783 C 1.08303 1.02777 0.87856
 C784 C 1.07181 1.04486 0.86756
 C785 C 1.07857 1.05188 0.84781
 H786 H 1.09177 1.04443 0.84014
 O787 O 0.92431 0.97985 0.89575
 O788 O 0.89997 0.97979 0.87121
 C789 C 0.91702 0.97268 0.87867
 C790 C 0.92828 0.95562 0.86767
 C791 C 0.92166 0.94874 0.84783
 H792 H 0.90852 0.95626 0.84011
 O793 O 1.02033 1.10451 0.92432
 O794 O 1.02034 1.12902 0.89996
 C795 C 1.02746 1.12158 0.91702
 C796 C 1.04451 1.13258 0.92826
 C797 C 1.05140 1.15238 0.92159
 H798 H 1.04387 1.16009 0.90845
 O799 O 0.97965 0.89585 0.92447
 O800 O 0.97962 0.87135 0.90010
 C801 C 0.97251 0.87879 0.91716
 C802 C 0.95546 0.86780 0.92841
 C803 C 0.94858 0.84798 0.92177
 H804 H 0.95611 0.84026 0.90864
 O805 O 1.10436 1.07580 0.97958
 O806 O 1.12884 1.10014 0.97955
 C807 C 1.12143 1.08310 0.97243
 C808 C 1.13245 1.07186 0.95538
 C809 C 1.15224 1.07853 0.94846
 H810 H 1.15991 1.09169 0.95596
 O811 O 0.89568 0.92465 0.97973
 O812 O 0.87119 0.90031 0.97971
 C813 C 0.87861 0.91735 0.97259
 C814 C 0.86758 0.92860 0.95553
 C815 C 0.84776 0.92197 0.94866
 H816 H 0.84007 0.90884 0.95619
 Cu817 Cu 1.00006 0.91263 0.91256
 Cu818 Cu 1.00006 0.88331 0.88321
 Cu819 Cu 0.99992 1.08774 0.91240
 Cu820 Cu 0.99991 1.11706 0.88305
 Cu821 Cu 0.91238 1.00030 0.91250
 Cu822 Cu 0.88307 1.00026 0.88314
 Cu823 Cu 1.08761 1.00018 0.91244
 Cu824 Cu 1.11692 1.00013 0.88308
 C825 C 0.94531 0.94553 0.87738
 H826 H 0.95034 0.95057 0.89279
 C827 C 0.93178 0.93198 0.83795
 C828 C 1.05470 1.05488 0.87720
 H829 H 1.04957 1.04975 0.89255
 C830 C 1.06849 1.06870 0.83796
 C831 C 0.87725 0.94562 0.94542
 H832 H 0.89264 0.95066 0.95046
 C833 C 0.83786 0.93208 0.93189
 C834 C 1.12280 1.05481 0.94530
 H835 H 1.10743 1.04975 0.95037
 C836 C 1.16213 1.06843 0.93168
 C837 C 0.94536 0.87750 0.94543
 H838 H 0.95039 0.89290 0.95047
 C839 C 0.93182 0.83812 0.93189
 C840 C 1.05462 1.12289 0.94529
 H841 H 1.04958 1.10751 0.95035
 C842 C 1.06818 1.16225 0.93168
 C843 C 0.94525 1.05490 0.87719
 H844 H 0.95033 1.04983 0.89257
 C845 C 0.93157 1.06853 0.83783
 C846 C 1.05471 0.94549 0.87730
 H847 H 1.04971 0.95052 0.89273
 C848 C 1.06815 0.93200 0.83782
 C849 C 1.05478 0.87739 0.94543
 H850 H 1.04971 0.89277 0.95051
 C851 C 1.06841 0.83804 0.93180
 C852 C 0.94520 1.12297 0.94531
 H853 H 0.95031 1.10762 0.95043
 C854 C 0.93145 1.16224 0.93155
 C855 C 0.87711 1.05502 0.94533
 H856 H 0.89244 1.04988 0.95048
 C857 C 0.83790 1.06883 0.93147
 C858 C 1.12279 0.94541 0.94535
 H859 H 1.10746 0.95057 0.95050
 C860 C 1.16199 0.93156 0.93151
 O861 O 1.02054 0.92456 1.10453
 O862 O 1.02056 0.90023 1.12908
 C863 C 1.02768 0.91726 1.12162
 C864 C 1.04473 0.92849 1.13263
 C865 C 1.05166 0.92181 1.15244
 H866 H 1.04416 0.90866 1.16014
 O867 O 0.97967 1.07585 1.10444
 O868 O 0.97963 1.10017 1.12898
 C869 C 0.97254 1.08313 1.12154
 C870 C 0.95554 1.07186 1.13258
 C871 C 0.94875 1.07841 1.15248
 H872 H 0.95631 1.09149 1.16022
 O873 O 0.89564 1.02069 1.07581
 O874 O 0.87117 1.02076 1.10022
 C875 C 0.87858 1.02786 1.08315
 C876 C 0.86756 1.04493 1.07192
 C877 C 0.84779 1.05189 1.07864
 H878 H 0.84012 1.04441 1.09183
 O879 O 1.10448 0.97970 1.07582
 O880 O 1.12899 0.97968 1.10018
 C881 C 1.12155 0.97255 1.08314
 C882 C 1.13256 0.95547 1.07191
 C883 C 1.15233 0.94849 1.07863
 H884 H 1.16001 0.95597 1.09181
 O885 O 1.07583 0.89576 1.02063
 O886 O 1.10020 0.87125 1.02064
 C887 C 1.08316 0.87869 1.02778
 C888 C 1.07197 0.86772 1.04490
 C889 C 1.07875 0.84799 1.05194
 H890 H 1.09195 0.84031 1.04449
 O891 O 0.92422 1.10460 1.02051
 O892 O 0.89988 1.12912 1.02056
 C893 C 0.91692 1.12167 1.02768
 C894 C 0.92815 1.13264 1.04477
 C895 C 0.92141 1.15240 1.05178
 H896 H 0.90822 1.16008 1.04432
 O897 O 0.92435 0.97979 1.10448
 O898 O 0.90003 0.97981 1.12904
 C899 C 0.91706 0.97266 1.12158
 C900 C 0.92830 0.95559 1.13259
 C901 C 0.92160 0.94865 1.15239
 H902 H 0.90843 0.95613 1.16007
 O903 O 1.07578 1.02060 1.10446
 O904 O 1.10013 1.02064 1.12898
 C905 C 1.08309 1.02777 1.12154
 C906 C 1.07187 1.04486 1.13252
 C907 C 1.07861 1.05184 1.15229
 H908 H 1.09178 1.04436 1.15998
 O909 O 0.97973 0.89587 1.07582
 O910 O 0.97970 0.87137 1.10019
 C911 C 0.97259 0.87881 1.08313
 C912 C 0.95555 0.86781 1.07187
 C913 C 0.94870 0.84797 1.07849
 H914 H 0.95624 0.84024 1.09160
 O915 O 1.02042 1.10458 1.07572
 O916 O 1.02043 1.12909 1.10008
 C917 C 1.02754 1.12166 1.08302
 C918 C 1.04458 1.13266 1.07175
 C919 C 1.05146 1.15248 1.07839
 H920 H 1.04394 1.16020 1.09152
 O921 O 0.89566 0.92460 1.02061
 O922 O 0.87118 0.90025 1.02064
 C923 C 0.87860 0.91729 1.02777
 C924 C 0.86759 0.92851 1.04485
 C925 C 0.84785 0.92176 1.05186
 H926 H 0.84019 0.90858 1.04439
 O927 O 1.10435 1.07580 1.02046
 O928 O 1.12884 1.10014 1.02048
 C929 C 1.12142 1.08310 1.02760
 C930 C 1.13245 1.07186 1.04466
 C931 C 1.15227 1.07850 1.05154
 H932 H 1.15995 1.09163 1.04401
 O933 O 1.02052 1.07591 1.10443
 O934 O 1.02053 1.10026 1.12895
 C935 C 1.02767 1.08323 1.12151
 C936 C 1.04476 1.07201 1.13251
 C937 C 1.05175 1.07874 1.15228
 H938 H 1.04427 1.09193 1.15996
 O939 O 0.97968 0.92455 1.10452
 O940 O 0.97965 0.90021 1.12906
 C941 C 0.97253 0.91725 1.12160
 C942 C 0.95545 0.92848 1.13260
 C943 C 0.94850 0.92178 1.15240
 H944 H 0.95600 0.90862 1.16009
 O945 O 1.10444 1.02055 1.07575
 O946 O 1.12896 1.02058 1.10011
 C947 C 1.12151 1.02769 1.08305
 C948 C 1.13250 1.04473 1.07179
 C949 C 1.15232 1.05162 1.07842
 H950 H 1.16004 1.04410 1.09156
 O951 O 0.89562 0.97984 1.07583
 O952 O 0.87115 0.97984 1.10024
 C953 C 0.87856 0.97271 1.08318
 C954 C 0.86756 0.95563 1.07197
 C955 C 0.84782 0.94865 1.07873
 H956 H 0.84015 0.95612 1.09193
 O957 O 1.07565 1.10450 1.02045
 O958 O 1.09998 1.12900 1.02046
 C959 C 1.08294 1.12158 1.02758
 C960 C 1.07169 1.13261 1.04462
 C961 C 1.07833 1.15243 1.05149
 H962 H 1.09146 1.16011 1.04396
 O963 O 0.92440 0.89596 1.02059
 O964 O 0.90009 0.87145 1.02062
 C965 C 0.91713 0.87888 1.02773
 C966 C 0.92841 0.86785 1.04476
 C967 C 0.92180 0.84802 1.05162
 H968 H 0.90867 0.84032 1.04409
 O969 O 1.07578 0.97975 1.10450
 O970 O 1.10013 0.97973 1.12903
 C971 C 1.08309 0.97262 1.12160
 C972 C 1.07185 0.95558 1.13262
 C973 C 1.07854 0.94864 1.15243
 H974 H 1.09170 0.95613 1.16012
 O975 O 0.92439 1.02064 1.10446
 O976 O 0.90009 1.02070 1.12903
 C977 C 0.91712 1.02778 1.12156
 C978 C 0.92842 1.04478 1.13259
 C979 C 0.92188 1.05157 1.15249
 H980 H 0.90879 1.04403 1.16023
 O981 O 0.97957 1.10455 1.07576
 O982 O 0.97952 1.12904 1.10014
 C983 C 0.97239 1.12161 1.08309
 C984 C 0.95529 1.13261 1.07188
 C985 C 0.94831 1.15236 1.07864
 H986 H 0.95579 1.16002 1.09183
 O987 O 1.02059 0.89582 1.07588
 O988 O 1.02061 0.87134 1.10027
 C989 C 1.02775 0.87876 1.08322
 C990 C 1.04485 0.86775 1.07203
 C991 C 1.05187 0.84802 1.07882
 H992 H 1.04441 0.84038 1.09203
 O993 O 1.10447 0.92445 1.02057
 O994 O 1.12900 0.90010 1.02057
 C995 C 1.12156 0.91714 1.02770
 C996 C 1.13256 0.92836 1.04477
 C997 C 1.15234 0.92163 1.05174
 H998 H 1.16001 0.90845 1.04425
 O999 O 0.89556 1.07593 1.02051
 O1000 O 0.87105 1.10029 1.02055
 C1001 C 0.87850 1.08325 1.02767
 C1002 C 0.86752 1.07203 1.04477
 C1003 C 0.84774 1.07874 1.05174
 H1004 H 0.84004 1.09190 1.04424
 Cu1005 Cu 1.00014 0.91264 1.08774
 Cu1006 Cu 1.00013 0.88334 1.11711
 Cu1007 Cu 1.00005 1.08778 1.08764
 Cu1008 Cu 1.00002 1.11710 1.11700
 Cu1009 Cu 0.91246 0.91273 1.00016
 Cu1010 Cu 0.88317 0.88341 1.00016
 Cu1011 Cu 1.08767 0.91254 1.00016
 Cu1012 Cu 1.11702 0.88321 1.00013
 Cu1013 Cu 0.91232 1.08783 1.00006
 Cu1014 Cu 0.88300 1.11718 1.00008
 Cu1015 Cu 1.08756 1.08770 1.00002
 Cu1016 Cu 1.11686 1.11702 1.00000
 Cu1017 Cu 0.91243 1.00024 1.08770
 Cu1018 Cu 0.88316 1.00029 1.11709
 Cu1019 Cu 1.08768 1.00015 1.08769
 Cu1020 Cu 1.11701 1.00016 1.11704
 C1021 C 1.05481 0.94552 1.12295
 H1022 H 1.04973 0.95059 1.10756
 C1023 C 1.06844 0.93188 1.16231
 C1024 C 0.94539 1.05489 1.12286
 H1025 H 0.95036 1.04992 1.10740
 C1026 C 0.93205 1.06827 1.16241
 C1027 C 0.87720 1.05498 1.05484
 H1028 H 0.89256 1.04988 1.04973
 C1029 C 0.83790 1.06867 1.06856
 C1030 C 1.12291 0.94542 1.05484
 H1031 H 1.10754 0.95053 1.04974
 C1032 C 1.16219 0.93169 1.06855
 C1033 C 1.05488 0.87737 1.05492
 H1034 H 1.04973 0.89270 1.04977
 C1035 C 1.06870 0.83817 1.06879
 C1036 C 0.94523 1.12297 1.05480
 H1037 H 0.95035 1.10763 1.04967
 C1038 C 0.93148 1.16223 1.06860
 C1039 C 0.94537 0.94553 1.12293
 H1040 H 0.95046 0.95062 1.10755
 C1041 C 0.93170 0.93186 1.16226
 C1042 C 1.05481 1.05493 1.12286
 H1043 H 1.04970 1.04981 1.10750
 C1044 C 1.06855 1.06866 1.16215
 C1045 C 0.94542 0.87752 1.05487
 H1046 H 0.95044 0.89293 1.04984
 C1047 C 0.93195 0.83810 1.06836
 C1048 C 1.05467 1.12295 1.05473
 H1049 H 1.04964 1.10756 1.04970
 C1050 C 1.06821 1.16234 1.06825
 C1051 C 0.87721 0.94559 1.05489
 H1052 H 0.89255 0.95070 1.04976
 C1053 C 0.83799 0.93183 1.06868
 C1054 C 1.12279 1.05483 1.05476
 H1055 H 1.10740 1.04979 1.04973
 C1056 C 1.16218 1.06838 1.06830
 O1057 O 1.07595 0.52026 0.60438
 O1058 O 1.10031 0.52027 0.62891
 C1059 C 1.08326 0.52740 0.62146
 C1060 C 1.07203 0.54447 0.63247
 C1061 C 1.07871 0.55141 0.65227
 H1062 H 1.09188 0.54391 0.65996
 O1063 O 0.92455 0.47940 0.60453
 O1064 O 0.90019 0.47945 0.62904
 C1065 C 0.91722 0.47228 0.62162
 C1066 C 0.92842 0.45519 0.63264
 C1067 C 0.92162 0.44819 0.65238
 H1068 H 0.90841 0.45566 0.66002
 O1069 O 1.02063 0.60412 0.57562
 O1070 O 1.02063 0.62866 0.59995
 C1071 C 1.02775 0.62120 0.58291
 C1072 C 1.04477 0.63221 0.57163
 C1073 C 1.05159 0.65207 0.57822
 H1074 H 1.04404 0.65979 0.59134
 O1075 O 0.97982 0.39556 0.57584
 O1076 O 0.97983 0.37105 0.60021
 C1077 C 0.97269 0.37849 0.58316
 C1078 C 0.95563 0.36749 0.57192
 C1079 C 0.94870 0.34771 0.57863
 H1080 H 0.95619 0.34003 0.59180
 O1081 O 1.10462 0.57544 0.52035
 O1082 O 1.12909 0.59980 0.52039
 C1083 C 1.12167 0.58276 0.52752
 C1084 C 1.13268 0.57154 0.54461
 C1085 C 1.15244 0.57825 0.55157
 H1086 H 1.16011 0.59141 0.54407
 O1087 O 0.89584 0.42424 0.52053
 O1088 O 0.87137 0.39989 0.52056
 C1089 C 0.87878 0.41693 0.52768
 C1090 C 0.86778 0.42816 0.54476
 C1091 C 0.84801 0.42146 0.55174
 H1092 H 0.84032 0.40830 0.54425
 O1093 O 0.97982 0.57547 0.60437
 O1094 O 0.97978 0.59984 0.62887
 C1095 C 0.97268 0.58279 0.62145
 C1096 C 0.95565 0.57157 0.63249
 C1097 C 0.94877 0.57823 0.65233
 H1098 H 0.95628 0.59137 0.66002
 O1099 O 1.02065 0.42425 0.60451
 O1100 O 1.02071 0.39991 0.62905
 C1101 C 1.02781 0.41695 0.62160
 C1102 C 1.04488 0.42818 0.63258
 C1103 C 1.05181 0.42152 0.65240
 H1104 H 1.04430 0.40840 0.66013
 O1105 O 1.10463 0.47939 0.57568
 O1106 O 1.12915 0.47935 0.60004
 C1107 C 1.12171 0.47224 0.58299
 C1108 C 1.13271 0.45518 0.57173
 C1109 C 1.15254 0.44829 0.57836
 H1110 H 1.16026 0.45581 0.59148
 O1111 O 0.89593 0.52026 0.57574
 O1112 O 0.87141 0.52036 0.60009
 C1113 C 0.87885 0.52743 0.58303
 C1114 C 0.86784 0.54446 0.57173
 C1115 C 0.84799 0.55133 0.57834
 H1116 H 0.84028 0.54382 0.59148
 O1117 O 0.92455 0.60410 0.52029
 O1118 O 0.90019 0.62862 0.52032
 C1119 C 0.91724 0.62118 0.52744
 C1120 C 0.92848 0.63219 0.54449
 C1121 C 0.92184 0.65203 0.55135
 H1122 H 0.90872 0.65974 0.54380
 O1123 O 1.07592 0.39542 0.52051
 O1124 O 1.10028 0.37091 0.52055
 C1125 C 1.08324 0.37836 0.52768
 C1126 C 1.07203 0.36739 0.54480
 C1127 C 1.07877 0.34764 0.55180
 H1128 H 1.09194 0.33994 0.54433
 O1129 O 0.92460 0.52025 0.60446
 O1130 O 0.90024 0.52035 0.62898
 C1131 C 0.91729 0.52743 0.62153
 C1132 C 0.92854 0.54447 0.63253
 C1133 C 0.92191 0.55138 0.65236
 H1134 H 0.90878 0.54388 0.66009
 O1135 O 1.07596 0.47942 0.60440
 O1136 O 1.10031 0.47937 0.62892
 C1137 C 1.08327 0.47227 0.62149
 C1138 C 1.07202 0.45524 0.63253
 C1139 C 1.07871 0.44834 0.65235
 H1140 H 1.09186 0.45583 0.66003
 O1141 O 1.02067 0.39552 0.57586
 O1142 O 1.02074 0.37103 0.60024
 C1143 C 1.02784 0.37846 0.58318
 C1144 C 1.04492 0.36745 0.57194
 C1145 C 1.05190 0.34769 0.57870
 H1146 H 1.04443 0.34004 0.59189
 O1147 O 0.97979 0.60411 0.57563
 O1148 O 0.97974 0.62865 0.59996
 C1149 C 0.97263 0.62119 0.58291
 C1150 C 0.95558 0.63220 0.57164
 C1151 C 0.94870 0.65204 0.57825
 H1152 H 0.95622 0.65975 0.59139
 O1153 O 0.89589 0.57544 0.52032
 O1154 O 0.87136 0.59979 0.52035
 C1155 C 0.87881 0.58275 0.52747
 C1156 C 0.86781 0.57152 0.54454
 C1157 C 0.84797 0.57815 0.55140
 H1158 H 0.84024 0.59125 0.54383
 O1159 O 1.10458 0.42409 0.52044
 O1160 O 1.12910 0.39973 0.52048
 C1161 C 1.12167 0.41679 0.52758
 C1162 C 1.13269 0.42805 0.54462
 C1163 C 1.15252 0.42140 0.55149
 H1164 H 1.16022 0.40826 0.54396
 O1165 O 0.97979 0.42417 0.60461
 O1166 O 0.97980 0.39982 0.62913
 C1167 C 0.97265 0.41686 0.62169
 C1168 C 0.95554 0.42807 0.63268
 C1169 C 0.94850 0.42130 0.65243
 H1170 H 0.95594 0.40810 0.66010
 O1171 O 1.02067 0.57548 0.60437
 O1172 O 1.02069 0.59986 0.62886
 C1173 C 1.02782 0.58281 0.62144
 C1174 C 1.04489 0.57159 0.63246
 C1175 C 1.05183 0.57829 0.65226
 H1176 H 1.04432 0.59145 0.65995
 O1177 O 0.89588 0.47942 0.57581
 O1178 O 0.87136 0.47947 0.60017
 C1179 C 0.87880 0.47232 0.58313
 C1180 C 0.86779 0.45527 0.57190
 C1181 C 0.84802 0.44833 0.57863
 H1182 H 0.84035 0.45582 0.59181
 O1183 O 1.10464 0.52024 0.57569
 O1184 O 1.12915 0.52025 0.60005
 C1185 C 1.12171 0.52738 0.58300
 C1186 C 1.13270 0.54444 0.57176
 C1187 C 1.15247 0.55140 0.57848
 H1188 H 1.16015 0.54392 0.59166
 O1189 O 0.92456 0.39557 0.52056
 O1190 O 0.90024 0.37106 0.52058
 C1191 C 0.91727 0.37850 0.52771
 C1192 C 0.92851 0.36750 0.54479
 C1193 C 0.92182 0.34773 0.55175
 H1194 H 0.90866 0.34005 0.54426
 O1195 O 1.07589 0.60410 0.52032
 O1196 O 1.10020 0.62862 0.52035
 C1197 C 1.08317 0.62118 0.52746
 C1198 C 1.07189 0.63220 0.54450
 C1199 C 1.07847 0.65205 0.55134
 H1200 H 1.09157 0.65977 0.54379
 Cu1201 Cu 1.08786 0.49983 0.58760
 Cu1202 Cu 1.11719 0.49981 0.61694
 Cu1203 Cu 0.91268 0.49982 0.58770
 Cu1204 Cu 0.88334 0.49992 0.61703
 Cu1205 Cu 1.00023 0.58735 0.58756
 Cu1206 Cu 1.00020 0.61671 0.61687
 Cu1207 Cu 1.00023 0.41232 0.58777
 Cu1208 Cu 1.00028 0.38300 0.61712
 C1209 C 1.05497 0.55454 0.62279
 H1210 H 1.04990 0.54946 0.60741
 C1211 C 1.06862 0.56820 0.66214
 C1212 C 0.94552 0.44515 0.62302
 H1213 H 0.95068 0.45029 0.60769
 C1214 C 0.93165 0.43136 0.66225
 C1215 C 1.05490 0.62251 0.55462
 H1216 H 1.04990 0.60709 0.54962
 C1217 C 1.06832 0.66196 0.56808
 C1218 C 0.94556 0.37715 0.55486
 H1219 H 0.95064 0.39252 0.54976
 C1220 C 0.93191 0.33786 0.56855
 C1221 C 1.12303 0.55449 0.55468
 H1222 H 1.10768 0.54940 0.54958
 C1223 C 1.16231 0.56819 0.56839
 C1224 C 0.87744 0.44520 0.55483
 H1225 H 0.89280 0.45028 0.54972
 C1226 C 0.83815 0.43155 0.56855
 C1227 C 0.94556 0.55454 0.62282
 H1228 H 0.95059 0.54948 0.60742
 C1229 C 0.93202 0.56814 0.66223
 C1230 C 1.05497 0.44518 0.62287
 H1231 H 1.04990 0.45024 0.60748
 C1232 C 1.06860 0.43160 0.66226
 C1233 C 1.12301 0.44508 0.55472
 H1234 H 1.10760 0.45012 0.54968
 C1235 C 1.16242 0.43152 0.56823
 C1236 C 0.87752 0.55453 0.55469
 H1237 H 0.89294 0.54950 0.54968
 C1238 C 0.83808 0.56805 0.56817
 C1239 C 0.94549 0.62250 0.55461
 H1240 H 0.95054 0.60709 0.54959
 C1241 C 0.93195 0.66193 0.56811
 C1242 C 1.05496 0.37707 0.55485
 H1243 H 1.04985 0.39242 0.54972
 C1244 C 1.06871 0.33781 0.56864
 O1245 O 1.07593 0.47939 0.39559
 O1246 O 1.10027 0.47930 0.37106
 C1247 C 1.08322 0.47223 0.37851
 C1248 C 1.07196 0.45519 0.36750
 C1249 C 1.07858 0.44832 0.34765
 H1250 H 1.09170 0.45584 0.33993
 O1251 O 0.92462 0.52010 0.39551
 O1252 O 0.90028 0.52015 0.37097
 C1253 C 0.91733 0.52724 0.37841
 C1254 C 0.92860 0.54426 0.36738
 C1255 C 0.92199 0.55110 0.34752
 H1256 H 0.90888 0.54358 0.33980
 O1257 O 0.97980 0.60406 0.42415
 O1258 O 0.97973 0.62855 0.39976
 C1259 C 0.97262 0.62112 0.41682
 C1260 C 0.95554 0.63212 0.42804
 C1261 C 0.94857 0.65189 0.42130
 H1262 H 0.95605 0.65956 0.40812
 O1263 O 1.02070 0.39543 0.42427
 O1264 O 1.02075 0.37090 0.39992
 C1265 C 1.02785 0.37835 0.41697
 C1266 C 1.04490 0.36733 0.42823
 C1267 C 1.05185 0.34754 0.42154
 H1268 H 1.04437 0.33986 0.40836
 O1269 O 1.10457 0.42404 0.47956
 O1270 O 1.12908 0.39967 0.47955
 C1271 C 1.12164 0.41671 0.47241
 C1272 C 1.13265 0.42793 0.45532
 C1273 C 1.15243 0.42120 0.44837
 H1274 H 1.16011 0.40803 0.45586
 O1275 O 0.89586 0.57543 0.47944
 O1276 O 0.87134 0.59978 0.47941
 C1277 C 0.87878 0.58274 0.47229
 C1278 C 0.86778 0.57150 0.45522
 C1279 C 0.84797 0.57817 0.44830
 H1280 H 0.84026 0.59131 0.45582
 O1281 O 1.02073 0.57542 0.39548
 O1282 O 1.02072 0.59976 0.37095
 C1283 C 1.02787 0.58274 0.37840
 C1284 C 1.04498 0.57155 0.36741
 C1285 C 1.05200 0.57834 0.34767
 H1286 H 1.04453 0.59153 0.34001
 O1287 O 0.97982 0.42407 0.39551
 O1288 O 0.97982 0.39969 0.37102
 C1289 C 0.97268 0.41673 0.37844
 C1290 C 0.95559 0.42792 0.36742
 C1291 C 0.94860 0.42115 0.34766
 H1292 H 0.95609 0.40797 0.34000
 O1293 O 1.10469 0.52020 0.42423
 O1294 O 1.12920 0.52016 0.39987
 C1295 C 1.12177 0.52731 0.41691
 C1296 C 1.13276 0.54439 0.42813
 C1297 C 1.15251 0.55137 0.42138
 H1298 H 1.16019 0.54389 0.40819
 O1299 O 0.89591 0.47933 0.42423
 O1300 O 0.87140 0.47932 0.39986
 C1301 C 0.87883 0.47221 0.41693
 C1302 C 0.86782 0.45518 0.42820
 C1303 C 0.84802 0.44828 0.42152
 H1304 H 0.84034 0.45577 0.40834
 O1305 O 1.07592 0.60410 0.47945
 O1306 O 1.10023 0.62862 0.47942
 C1307 C 1.08320 0.62117 0.47230
 C1308 C 1.07194 0.63217 0.45523
 C1309 C 1.07858 0.65198 0.44830
 H1310 H 1.09172 0.65968 0.45580
 O1311 O 0.92461 0.39559 0.47967
 O1312 O 0.90029 0.37108 0.47964
 C1313 C 0.91732 0.37851 0.47253
 C1314 C 0.92858 0.36749 0.45547
 C1315 C 0.92193 0.34768 0.44859
 H1316 H 0.90880 0.34000 0.45612
 O1317 O 0.92453 0.47926 0.39547
 O1318 O 0.90018 0.47925 0.37094
 C1319 C 0.91722 0.47211 0.37839
 C1320 C 0.92844 0.45502 0.36739
 C1321 C 0.92169 0.44801 0.34763
 H1322 H 0.90850 0.45547 0.33996
 O1323 O 1.07603 0.52024 0.39551
 O1324 O 1.10038 0.52021 0.37099
 C1325 C 1.08335 0.52736 0.37842
 C1326 C 1.07214 0.54446 0.36741
 C1327 C 1.07893 0.55150 0.34767
 H1328 H 1.09214 0.54406 0.34001
 O1329 O 0.97985 0.39551 0.42433
 O1330 O 0.97984 0.37097 0.40000
 C1331 C 0.97272 0.37843 0.41705
 C1332 C 0.95568 0.36744 0.42832
 C1333 C 0.94878 0.34763 0.42168
 H1334 H 0.95628 0.33992 0.40853
 O1335 O 1.02065 0.60407 0.42420
 O1336 O 1.02063 0.62857 0.39982
 C1337 C 1.02776 0.62115 0.41688
 C1338 C 1.04480 0.63216 0.42812
 C1339 C 1.05169 0.65196 0.42143
 H1340 H 1.04416 0.65965 0.40828
 O1341 O 0.89586 0.42422 0.47964
 O1342 O 0.87138 0.39987 0.47961
 C1343 C 0.87880 0.41691 0.47248
 C1344 C 0.86780 0.42813 0.45539
 C1345 C 0.84800 0.42146 0.44846
 H1346 H 0.84030 0.40834 0.45599
 O1347 O 1.10465 0.57543 0.47947
 O1348 O 1.12911 0.59979 0.47944
 C1349 C 1.12171 0.58274 0.47232
 C1350 C 1.13273 0.57152 0.45524
 C1351 C 1.15247 0.57826 0.44825
 H1352 H 1.16012 0.59145 0.45572
 O1353 O 1.02067 0.42416 0.39561
 O1354 O 1.02073 0.39980 0.37110
 C1355 C 1.02782 0.41685 0.37853
 C1356 C 1.04486 0.42809 0.36751
 C1357 C 1.05173 0.42146 0.34766
 H1358 H 1.04421 0.40834 0.33995
 O1359 O 0.97987 0.57533 0.39550
 O1360 O 0.97981 0.59965 0.37095
 C1361 C 0.97273 0.58261 0.37840
 C1362 C 0.95571 0.57135 0.36738
 C1363 C 0.94886 0.57795 0.34751
 H1364 H 0.95639 0.59105 0.33979
 O1365 O 0.89589 0.52017 0.42416
 O1366 O 0.87138 0.52022 0.39979
 C1367 C 0.87882 0.52733 0.41684
 C1368 C 0.86780 0.54439 0.42809
 C1369 C 0.84799 0.55130 0.42141
 H1370 H 0.84030 0.54380 0.40826
 O1371 O 1.10463 0.47934 0.42427
 O1372 O 1.12914 0.47924 0.39990
 C1373 C 1.12169 0.47215 0.41696
 C1374 C 1.13267 0.45506 0.42820
 C1375 C 1.15245 0.44809 0.42150
 H1376 H 1.16014 0.45558 0.40834
 O1377 O 1.07590 0.39538 0.47961
 O1378 O 1.10025 0.37085 0.47960
 C1379 C 1.08321 0.37830 0.47247
 C1380 C 1.07198 0.36730 0.45540
 C1381 C 1.07869 0.34751 0.44846
 H1382 H 1.09184 0.33981 0.45597
 O1383 O 0.92452 0.60410 0.47941
 O1384 O 0.90015 0.62861 0.47938
 C1385 C 0.91719 0.62117 0.47225
 C1386 C 0.92841 0.63215 0.45516
 C1387 C 0.92168 0.65192 0.44818
 H1388 H 0.90851 0.65961 0.45566
 Cu1389 Cu 1.08788 0.49980 0.41234
 Cu1390 Cu 1.11721 0.49971 0.38300
 Cu1391 Cu 0.91268 0.49971 0.41228
 Cu1392 Cu 0.88335 0.49974 0.38293
 Cu1393 Cu 1.08784 0.58732 0.49990
 Cu1394 Cu 1.11712 0.61666 0.49990
 Cu1395 Cu 1.08780 0.41217 0.50003
 Cu1396 Cu 1.11713 0.38283 0.50005
 Cu1397 Cu 0.91264 0.58733 0.49987
 Cu1398 Cu 0.88330 0.61666 0.49987
 Cu1399 Cu 0.91265 0.41235 0.50010
 Cu1400 Cu 0.88336 0.38302 0.50010
 Cu1401 Cu 1.00026 0.58728 0.41227
 Cu1402 Cu 1.00021 0.61659 0.38291
 Cu1403 Cu 1.00026 0.41223 0.41237
 Cu1404 Cu 1.00029 0.38288 0.38305
 C1405 C 1.05496 0.44510 0.37720
 H1406 H 1.04993 0.45014 0.39262
 C1407 C 1.06847 0.43158 0.33776
 C1408 C 0.94560 0.55436 0.37709
 H1409 H 0.95061 0.54935 0.39252
 C1410 C 0.93213 0.56782 0.33761
 C1411 C 0.94548 0.62248 0.44511
 H1412 H 0.95059 0.60712 0.45023
 C1413 C 0.93176 0.66176 0.43137
 C1414 C 1.05495 0.37698 0.44531
 H1415 H 1.04986 0.39236 0.45038
 C1416 C 1.06862 0.33766 0.43165
 C1417 C 1.12299 0.44500 0.44526
 H1418 H 1.10763 0.45011 0.45034
 C1419 C 1.16230 0.43128 0.43158
 C1420 C 0.87747 0.55447 0.44513
 H1421 H 0.89286 0.54940 0.45020
 C1422 C 0.83810 0.56807 0.43152
 C1423 C 1.05503 0.55447 0.37705
 H1424 H 1.04989 0.54932 0.39238
 C1425 C 1.06886 0.56833 0.33783
 C1426 C 0.94552 0.44500 0.37705
 H1427 H 0.95064 0.45014 0.39240
 C1428 C 0.93177 0.43119 0.33779
 C1429 C 1.12310 0.55444 0.44520
 H1430 H 1.10776 0.54933 0.45032
 C1431 C 1.16234 0.56819 0.43144
 C1432 C 0.87748 0.44513 0.44527
 H1433 H 0.89286 0.45019 0.45034
 C1434 C 0.83814 0.43154 0.43165
 C1435 C 1.05491 0.62250 0.44516
 H1436 H 1.04987 0.60711 0.45023
 C1437 C 1.06845 0.66184 0.43152
 C1438 C 0.94560 0.37715 0.44536
 H1439 H 0.95065 0.39254 0.45040
 C1440 C 0.93202 0.33778 0.43182
 O1441 O 0.47934 0.92435 0.39527
 O1442 O 0.47935 0.90002 0.37073
 C1443 C 0.47221 0.91705 0.37818
 C1444 C 0.45512 0.92828 0.36718
 C1445 C 0.44814 0.92153 0.34741
 H1446 H 0.45561 0.90835 0.33974
 O1447 O 0.52023 1.07579 0.39535
 O1448 O 0.52023 1.10016 0.37085
 C1449 C 0.52737 1.08312 0.37828
 C1450 C 0.54445 1.07191 0.36726
 C1451 C 0.55144 1.07868 0.34750
 H1452 H 0.54397 1.09187 0.33984
 O1453 O 0.39548 0.97967 0.42403
 O1454 O 0.37096 0.97969 0.39968
 C1455 C 0.37840 0.97255 0.41673
 C1456 C 0.36739 0.95551 0.42797
 C1457 C 0.34758 0.94863 0.42131
 H1458 H 0.33987 0.95616 0.40817
 O1459 O 0.60403 1.02043 0.42406
 O1460 O 0.62857 1.02044 0.39973
 C1461 C 0.62112 1.02754 0.41679
 C1462 C 0.63214 1.04454 0.42809
 C1463 C 0.65202 1.05133 0.42153
 H1464 H 0.65975 1.04378 0.40842
 O1465 O 0.42418 0.89564 0.47923
 O1466 O 0.39981 0.87119 0.47921
 C1467 C 0.41685 0.87859 0.47207
 C1468 C 0.42805 0.86759 0.45497
 C1469 C 0.42130 0.84785 0.44796
 H1470 H 0.40812 0.84019 0.45543
 O1471 O 0.57541 1.10438 0.47944
 O1472 O 0.59977 1.12885 0.47939
 C1473 C 0.58272 1.12143 0.47228
 C1474 C 0.57148 1.13245 0.45521
 C1475 C 0.57814 1.15224 0.44829
 H1476 H 0.59129 1.15992 0.45580
 O1477 O 0.42419 1.02047 0.39535
 O1478 O 0.39984 1.02054 0.37082
 C1479 C 0.41689 1.02762 0.37827
 C1480 C 0.42814 1.04466 0.36725
 C1481 C 0.42152 1.05152 0.34740
 H1482 H 0.40841 1.04399 0.33968
 O1483 O 0.57537 0.97964 0.39529
 O1484 O 0.59973 0.97962 0.37077
 C1485 C 0.58269 0.97251 0.37820
 C1486 C 0.57147 0.95545 0.36718
 C1487 C 0.57817 0.94853 0.34738
 H1488 H 0.59131 0.95603 0.33968
 O1489 O 0.52021 0.89567 0.42397
 O1490 O 0.52028 0.87118 0.39959
 C1491 C 0.52738 0.87860 0.41666
 C1492 C 0.54444 0.86760 0.42791
 C1493 C 0.55137 0.84779 0.42124
 H1494 H 0.54387 0.84010 0.40808
 O1495 O 0.47934 1.10442 0.42409
 O1496 O 0.47928 1.12894 0.39973
 C1497 C 0.47217 1.12149 0.41678
 C1498 C 0.45511 1.13249 0.42803
 C1499 C 0.44817 1.15229 0.42135
 H1500 H 0.45566 1.15998 0.40819
 O1501 O 0.39542 1.07574 0.47937
 O1502 O 0.37091 1.10011 0.47935
 C1503 C 0.37835 1.08307 0.47221
 C1504 C 0.36737 1.07186 0.45511
 C1505 C 0.34759 1.07858 0.44814
 H1506 H 0.33990 1.09174 0.45563
 O1507 O 0.60412 0.92433 0.47926
 O1508 O 0.62864 0.89998 0.47924
 C1509 C 0.62119 0.91702 0.47211
 C1510 C 0.63218 0.92824 0.45503
 C1511 C 0.65196 0.92152 0.44805
 H1512 H 0.65965 0.90835 0.45553
 O1513 O 0.47938 1.07573 0.39539
 O1514 O 0.47933 1.10009 0.37087
 C1515 C 0.47224 1.08304 0.37830
 C1516 C 0.45522 1.07178 0.36727
 C1517 C 0.44835 1.07840 0.34742
 H1518 H 0.45586 1.09153 0.33970
 O1519 O 0.52019 0.92436 0.39528
 O1520 O 0.52026 0.90003 0.37074
 C1521 C 0.52735 0.91707 0.37819
 C1522 C 0.54440 0.92832 0.36718
 C1523 C 0.55134 0.92164 0.34737
 H1524 H 0.54387 0.90849 0.33967
 O1525 O 0.60407 0.97959 0.42397
 O1526 O 0.62859 0.97955 0.39962
 C1527 C 0.62115 0.97243 0.41666
 C1528 C 0.63215 0.95535 0.42789
 C1529 C 0.65192 0.94839 0.42116
 H1530 H 0.65959 0.95587 0.40798
 O1531 O 0.39548 1.02051 0.42403
 O1532 O 0.37097 1.02059 0.39966
 C1533 C 0.37841 1.02769 0.41672
 C1534 C 0.36740 1.04476 0.42796
 C1535 C 0.34763 1.05172 0.42124
 H1536 H 0.33996 1.04425 0.40805
 O1537 O 0.42408 1.10441 0.47939
 O1538 O 0.39973 1.12894 0.47937
 C1539 C 0.41677 1.12149 0.47225
 C1540 C 0.42800 1.13250 0.45518
 C1541 C 0.42131 1.15229 0.44825
 H1542 H 0.40815 1.15999 0.45576
 O1543 O 0.57545 0.89567 0.47926
 O1544 O 0.59982 0.87116 0.47925
 C1545 C 0.58277 0.87860 0.47212
 C1546 C 0.57155 0.86759 0.45505
 C1547 C 0.57823 0.84778 0.44814
 H1548 H 0.59138 0.84009 0.45566
 O1549 O 0.57544 1.02050 0.39527
 O1550 O 0.59981 1.02053 0.37077
 C1551 C 0.58277 1.02767 0.37821
 C1552 C 0.57156 1.04477 0.36722
 C1553 C 0.57831 1.05178 0.34746
 H1554 H 0.59150 1.04431 0.33978
 O1555 O 0.42411 0.97962 0.39528
 O1556 O 0.39975 0.97963 0.37076
 C1557 C 0.41678 0.97249 0.37820
 C1558 C 0.42799 0.95540 0.36718
 C1559 C 0.42125 0.94841 0.34741
 H1560 H 0.40806 0.95588 0.33974
 O1561 O 0.52019 1.10440 0.42411
 O1562 O 0.52018 1.12893 0.39977
 C1563 C 0.52731 1.12148 0.41682
 C1564 C 0.54436 1.13247 0.42807
 C1565 C 0.55127 1.15227 0.42140
 H1566 H 0.54377 1.15997 0.40824
 O1567 O 0.47936 0.89564 0.42393
 O1568 O 0.47937 0.87115 0.39955
 C1569 C 0.47223 0.87858 0.41660
 C1570 C 0.45516 0.86758 0.42782
 C1571 C 0.44816 0.84785 0.42105
 H1572 H 0.45563 0.84018 0.40786
 O1573 O 0.60406 1.07564 0.47945
 O1574 O 0.62858 1.09994 0.47940
 C1575 C 0.62114 1.08291 0.47230
 C1576 C 0.63215 1.07163 0.45525
 C1577 C 0.65202 1.07817 0.44845
 H1578 H 0.65976 1.09125 0.45602
 O1579 O 0.39552 0.92438 0.47926
 O1580 O 0.37099 0.90008 0.47925
 C1581 C 0.37843 0.91711 0.47213
 C1582 C 0.36741 0.92837 0.45508
 C1583 C 0.34760 0.92174 0.44817
 H1584 H 0.33991 0.90859 0.45568
 Cu1585 Cu 0.49978 0.91244 0.41206
 Cu1586 Cu 0.49982 0.88314 0.38269
 Cu1587 Cu 0.49979 1.08764 0.41217
 Cu1588 Cu 0.49975 1.11699 0.38285
 Cu1589 Cu 0.41225 1.00006 0.41211
 Cu1590 Cu 0.38292 1.00012 0.38277
 Cu1591 Cu 0.58728 1.00004 0.41208
 Cu1592 Cu 0.61663 1.00004 0.38276
 C1593 C 0.44507 0.94535 0.37683
 H1594 H 0.45019 0.95046 0.39219
 C1595 C 0.43132 0.93159 0.33756
 C1596 C 0.55449 1.05482 0.37688
 H1597 H 0.54937 1.04968 0.39223
 C1598 C 0.56825 1.06862 0.33763
 C1599 C 0.37708 0.94540 0.44500
 H1600 H 0.39247 0.95044 0.45005
 C1601 C 0.33771 0.93186 0.43141
 C1602 C 0.62243 1.05467 0.44510
 H1603 H 0.60700 1.04970 0.45008
 C1604 C 0.66193 1.06802 0.43171
 C1605 C 0.44512 0.87722 0.44492
 H1606 H 0.45024 0.89256 0.45005
 C1607 C 0.43135 0.83801 0.43112
 C1608 C 0.55444 1.12279 0.44512
 H1609 H 0.54938 1.10741 0.45019
 C1610 C 0.56804 1.16212 0.43151
 C1611 C 0.44513 1.05477 0.37696
 H1612 H 0.45016 1.04974 0.39238
 C1613 C 0.43162 1.06827 0.33751
 C1614 C 0.55444 0.94537 0.37686
 H1615 H 0.54936 0.95044 0.39225
 C1616 C 0.56811 0.93174 0.33750
 C1617 C 0.55451 0.87727 0.44496
 H1618 H 0.54944 0.89265 0.45002
 C1619 C 0.56814 0.83791 0.43135
 C1620 C 0.44505 1.12282 0.44509
 H1621 H 0.45013 1.10744 0.45016
 C1622 C 0.43139 1.16216 0.43146
 C1623 C 0.37705 1.05481 0.44504
 H1624 H 0.39241 1.04970 0.45014
 C1625 C 0.33775 1.06851 0.43132
 C1626 C 0.62251 0.94530 0.44496
 H1627 H 0.60715 0.95040 0.45007
 C1628 C 0.66180 0.93159 0.43124
 O1629 O 0.52020 0.92434 0.60416
 O1630 O 0.52026 0.89999 0.62869
 C1631 C 0.52735 0.91703 0.62125
 C1632 C 0.54439 0.92828 0.63227
 C1633 C 0.55127 0.92162 0.65211
 H1634 H 0.54376 0.90848 0.65981
 O1635 O 0.47943 1.07568 0.60430
 O1636 O 0.47936 1.10003 0.62882
 C1637 C 0.47227 1.08299 0.62138
 C1638 C 0.45521 1.07176 0.63238
 C1639 C 0.44828 1.07844 0.65219
 H1640 H 0.45578 1.09157 0.65989
 O1641 O 0.39546 1.02055 0.57556
 O1642 O 0.37095 1.02056 0.59992
 C1643 C 0.37838 1.02769 0.58287
 C1644 C 0.36736 1.04476 0.57165
 C1645 C 0.34760 1.05174 0.57839
 H1646 H 0.33994 1.04427 0.59158
 O1647 O 0.60408 0.97961 0.57552
 O1648 O 0.62860 0.97951 0.59987
 C1649 C 0.62115 0.97243 0.58281
 C1650 C 0.63216 0.95540 0.57152
 C1651 C 0.65200 0.94851 0.57814
 H1652 H 0.65971 0.95602 0.59128
 O1653 O 0.57545 0.89567 0.52015
 O1654 O 0.59982 0.87116 0.52018
 C1655 C 0.58277 0.87860 0.52730
 C1656 C 0.57153 0.86759 0.54435
 C1657 C 0.57818 0.84776 0.55123
 H1658 H 0.59131 0.84005 0.54369
 O1659 O 0.42410 1.10438 0.52028
 O1660 O 0.39975 1.12891 0.52031
 C1661 C 0.41680 1.12145 0.52743
 C1662 C 0.42804 1.13245 0.54450
 C1663 C 0.42138 1.15226 0.55141
 H1664 H 0.40823 1.15997 0.54390
 O1665 O 0.42416 0.97966 0.60423
 O1666 O 0.39980 0.97962 0.62875
 C1667 C 0.41685 0.97250 0.62131
 C1668 C 0.42808 0.95543 0.63232
 C1669 C 0.42141 0.94852 0.65213
 H1670 H 0.40827 0.95605 0.65984
 O1671 O 0.57547 1.02048 0.60432
 O1672 O 0.59985 1.02043 0.62883
 C1673 C 0.58281 1.02760 0.62141
 C1674 C 0.57163 1.04471 0.63242
 C1675 C 0.57846 1.05174 0.65214
 H1676 H 0.59167 1.04428 0.65979
 O1677 O 0.47936 0.89565 0.57548
 O1678 O 0.47936 0.87114 0.59984
 C1679 C 0.47224 0.87858 0.58279
 C1680 C 0.45518 0.86758 0.57154
 C1681 C 0.44824 0.84781 0.57825
 H1682 H 0.45571 0.84012 0.59143
 O1683 O 0.52025 1.10439 0.57562
 O1684 O 0.52023 1.12891 0.59998
 C1685 C 0.52737 1.12147 0.58294
 C1686 C 0.54443 1.13247 0.57171
 C1687 C 0.55140 1.15222 0.57845
 H1688 H 0.54392 1.15989 0.59164
 O1689 O 0.39558 0.92440 0.52013
 O1690 O 0.37105 0.90011 0.52018
 C1691 C 0.37850 0.91714 0.52729
 C1692 C 0.36749 0.92841 0.54434
 C1693 C 0.34765 0.92182 0.55119
 H1694 H 0.33994 0.90871 0.54365
 O1695 O 0.60412 1.07570 0.52033
 O1696 O 0.62863 1.10001 0.52034
 C1697 C 0.62119 1.08299 0.52747
 C1698 C 0.63219 1.07176 0.54456
 C1699 C 0.65196 1.07846 0.55154
 H1700 H 0.65963 1.09163 0.54407
 O1701 O 0.52029 1.07574 0.60436
 O1702 O 0.52028 1.10010 0.62888
 C1703 C 0.52743 1.08307 0.62144
 C1704 C 0.54453 1.07186 0.63244
 C1705 C 0.55160 1.07865 0.65216
 H1706 H 0.54417 1.09187 0.65982
 O1707 O 0.47935 0.92433 0.60419
 O1708 O 0.47935 0.89998 0.62872
 C1709 C 0.47223 0.91702 0.62128
 C1710 C 0.45517 0.92828 0.63230
 C1711 C 0.44826 0.92161 0.65212
 H1712 H 0.45576 0.90845 0.65982
 O1713 O 0.60411 1.02046 0.57559
 O1714 O 0.62864 1.02040 0.59994
 C1715 C 0.62119 1.02756 0.58290
 C1716 C 0.63220 1.04463 0.57168
 C1717 C 0.65196 1.05157 0.57842
 H1718 H 0.65964 1.04408 0.59159
 O1719 O 0.39555 0.97970 0.57546
 O1720 O 0.37102 0.97966 0.59981
 C1721 C 0.37847 0.97256 0.58275
 C1722 C 0.36748 0.95553 0.57147
 C1723 C 0.34763 0.94869 0.57808
 H1724 H 0.33991 0.95623 0.59120
 O1725 O 0.57543 1.10439 0.52033
 O1726 O 0.59978 1.12887 0.52033
 C1727 C 0.58275 1.12145 0.52747
 C1728 C 0.57153 1.13246 0.54456
 C1729 C 0.57826 1.15222 0.55154
 H1730 H 0.59143 1.15988 0.54406
 O1731 O 0.42421 0.89565 0.52012
 O1732 O 0.39984 0.87119 0.52016
 C1733 C 0.41689 0.87860 0.52728
 C1734 C 0.42811 0.86759 0.54437
 C1735 C 0.42140 0.84782 0.55132
 H1736 H 0.40825 0.84014 0.54380
 O1737 O 0.57540 0.97962 0.60424
 O1738 O 0.59977 0.97952 0.62875
 C1739 C 0.58271 0.97244 0.62131
 C1740 C 0.57147 0.95539 0.63231
 C1741 C 0.57811 0.94849 0.65214
 H1742 H 0.59123 0.95600 0.65986
 O1743 O 0.42417 1.02051 0.60424
 O1744 O 0.39982 1.02052 0.62876
 C1745 C 0.41686 1.02764 0.62133
 C1746 C 0.42809 1.04468 0.63236
 C1747 C 0.42141 1.05160 0.65217
 H1748 H 0.40825 1.04412 0.65986
 O1749 O 0.47940 1.10436 0.57559
 O1750 O 0.47932 1.12887 0.59995
 C1751 C 0.47223 1.12143 0.58290
 C1752 C 0.45516 1.13243 0.57164
 C1753 C 0.44825 1.15224 0.57830
 H1754 H 0.45577 1.15994 0.59144
 O1755 O 0.52021 0.89567 0.57545
 O1756 O 0.52027 0.87115 0.59981
 C1757 C 0.52737 0.87859 0.58276
 C1758 C 0.54442 0.86758 0.57149
 C1759 C 0.55131 0.84775 0.57812
 H1760 H 0.54379 0.84004 0.59125
 O1761 O 0.60409 0.92437 0.52015
 O1762 O 0.62862 0.90003 0.52018
 C1763 C 0.62117 0.91707 0.52730
 C1764 C 0.63217 0.92831 0.54436
 C1765 C 0.65201 0.92167 0.55122
 H1766 H 0.65972 0.90855 0.54368
 O1767 O 0.39539 1.07576 0.52026
 O1768 O 0.37088 1.10013 0.52030
 C1769 C 0.37832 1.08308 0.52742
 C1770 C 0.36733 1.07187 0.54451
 C1771 C 0.34757 1.07860 0.55150
 H1772 H 0.33988 1.09178 0.54402
 Cu1773 Cu 0.49978 0.91244 0.58738
 Cu1774 Cu 0.49982 0.88311 0.61672
 Cu1775 Cu 0.49985 1.08760 0.58753
 Cu1776 Cu 0.49979 1.11693 0.61687
 Cu1777 Cu 0.41232 0.91245 0.49968
 Cu1778 Cu 0.38297 0.88319 0.49970
 Cu1779 Cu 0.58734 0.91245 0.49970
 Cu1780 Cu 0.61669 0.88313 0.49972
 Cu1781 Cu 0.41218 1.08763 0.49983
 Cu1782 Cu 0.38286 1.11698 0.49983
 Cu1783 Cu 0.58731 1.08759 0.49989
 Cu1784 Cu 0.61665 1.11687 0.49986
 Cu1785 Cu 0.41228 1.00011 0.58743
 Cu1786 Cu 0.38294 1.00009 0.61677
 Cu1787 Cu 0.58732 1.00005 0.58748
 Cu1788 Cu 0.61667 0.99995 0.61681
 C1789 C 0.55446 0.94531 0.62260
 H1790 H 0.54942 0.95036 0.60719
 C1791 C 0.56801 0.93172 0.66201
 C1792 C 0.44514 1.05473 0.62269
 H1793 H 0.45022 1.04967 0.60730
 C1794 C 0.43150 1.06836 0.66206
 C1795 C 0.37700 1.05480 0.55456
 H1796 H 0.39235 1.04969 0.54945
 C1797 C 0.33773 1.06854 0.56832
 C1798 C 0.62247 0.94532 0.55449
 H1799 H 0.60706 0.95036 0.54947
 C1800 C 0.66189 0.93177 0.56799
 C1801 C 0.55451 0.87728 0.55446
 H1802 H 0.54946 0.89268 0.54943
 C1803 C 0.56807 0.83787 0.56799
 C1804 C 0.44507 1.12276 0.55460
 H1805 H 0.45013 1.10736 0.54954
 C1806 C 0.43148 1.16213 0.56819
 C1807 C 0.44510 0.94533 0.62263
 H1808 H 0.45016 0.95039 0.60723
 C1809 C 0.43150 0.93173 0.66201
 C1810 C 0.55453 1.05475 0.62280
 H1811 H 0.54936 1.04959 0.60748
 C1812 C 0.56845 1.06860 0.66199
 C1813 C 0.44514 0.87724 0.55446
 H1814 H 0.45023 0.89260 0.54937
 C1815 C 0.43146 0.83795 0.56813
 C1816 C 0.55448 1.12282 0.55462
 H1817 H 0.54937 1.10747 0.54951
 C1818 C 0.56819 1.16207 0.56837
 C1819 C 0.37718 0.94541 0.55446
 H1820 H 0.39260 0.95041 0.54944
 C1821 C 0.33775 0.93196 0.56794
 C1822 C 0.62254 1.05470 0.55461
 H1823 H 0.60719 1.04961 0.54950
 C1824 C 0.66181 1.06837 0.56835
 O1825 O 0.57556 0.52017 1.10467
 O1826 O 0.59992 0.52019 1.12919
 C1827 C 0.58287 0.52732 1.12175
 C1828 C 0.57164 0.54439 1.13276
 C1829 C 0.57834 0.55131 1.15257
 H1830 H 0.59150 0.54381 1.16026
 O1831 O 0.42424 0.47951 1.10471
 O1832 O 0.39988 0.47948 1.12923
 C1833 C 0.41693 0.47235 1.12178
 C1834 C 0.42815 0.45526 1.13278
 C1835 C 0.42143 0.44830 1.15256
 H1836 H 0.40827 0.45581 1.16025
 O1837 O 0.52025 0.60420 1.07604
 O1838 O 0.52030 0.62869 1.10042
 C1839 C 0.52740 0.62126 1.08336
 C1840 C 0.54446 0.63225 1.07211
 C1841 C 0.55137 0.65204 1.07879
 H1842 H 0.54387 0.65974 1.09195
 O1843 O 0.47952 0.39552 1.07595
 O1844 O 0.47948 0.37099 1.10029
 C1845 C 0.47238 0.37845 1.08324
 C1846 C 0.45534 0.36747 1.07196
 C1847 C 0.44843 0.34765 1.07858
 H1848 H 0.45594 0.33991 1.09172
 O1849 O 0.60416 0.57543 1.02072
 O1850 O 0.62867 0.59974 1.02075
 C1851 C 0.62124 0.58270 1.02786
 C1852 C 0.63227 0.57143 1.04489
 C1853 C 0.65211 0.57803 1.05174
 H1854 H 0.65981 0.59115 1.04421
 O1855 O 0.39560 0.42435 1.02065
 O1856 O 0.37109 0.40003 1.02067
 C1857 C 0.37853 0.41706 1.02780
 C1858 C 0.36752 0.42830 1.04487
 C1859 C 0.34770 0.42166 1.05176
 H1860 H 0.34001 0.40854 1.04422
 O1861 O 0.47942 0.57555 1.10477
 O1862 O 0.47942 0.59988 1.12930
 C1863 C 0.47229 0.58286 1.12186
 C1864 C 0.45522 0.57166 1.13287
 C1865 C 0.44824 0.57841 1.15264
 H1866 H 0.45571 0.59158 1.16031
 O1867 O 0.52033 0.42415 1.10470
 O1868 O 0.52035 0.39980 1.12922
 C1869 C 0.52747 0.41684 1.12179
 C1870 C 0.54452 0.42806 1.13281
 C1871 C 0.55145 0.42137 1.15262
 H1872 H 0.54395 0.40823 1.16032
 O1873 O 0.60426 0.47928 1.07599
 O1874 O 0.62876 0.47924 1.10036
 C1875 C 0.62133 0.47212 1.08331
 C1876 C 0.63235 0.45504 1.07208
 C1877 C 0.65211 0.44806 1.07883
 H1878 H 0.65977 0.45553 1.09202
 O1879 O 0.39555 0.52041 1.07605
 O1880 O 0.37103 0.52044 1.10040
 C1881 C 0.37848 0.52756 1.08336
 C1882 C 0.36747 0.54464 1.07213
 C1883 C 0.34771 0.55164 1.07886
 H1884 H 0.34004 0.54417 1.09205
 O1885 O 0.42419 0.60433 1.02077
 O1886 O 0.39983 0.62884 1.02078
 C1887 C 0.41687 0.62139 1.02792
 C1888 C 0.42808 0.63238 1.04503
 C1889 C 0.42134 0.65214 1.05202
 H1890 H 0.40817 0.65983 1.04454
 O1891 O 0.57567 0.39539 1.02068
 O1892 O 0.60001 0.37086 1.02073
 C1893 C 0.58297 0.37832 1.02785
 C1894 C 0.57174 0.36735 1.04494
 C1895 C 0.57845 0.34758 1.05193
 H1896 H 0.59162 0.33989 1.04446
 O1897 O 0.42421 0.52037 1.10478
 O1898 O 0.39985 0.52039 1.12930
 C1899 C 0.41689 0.52751 1.12187
 C1900 C 0.42810 0.54457 1.13288
 C1901 C 0.42136 0.55157 1.15265
 H1902 H 0.40818 0.54412 1.16033
 O1903 O 0.57557 0.47932 1.10469
 O1904 O 0.59991 0.47929 1.12922
 C1905 C 0.58288 0.47218 1.12178
 C1906 C 0.57164 0.45514 1.13280
 C1907 C 0.57832 0.44822 1.15261
 H1908 H 0.59147 0.45570 1.16031
 O1909 O 0.52038 0.39549 1.07598
 O1910 O 0.52039 0.37098 1.10034
 C1911 C 0.52753 0.37841 1.08330
 C1912 C 0.54461 0.36740 1.07207
 C1913 C 0.55157 0.34763 1.07881
 H1914 H 0.54409 0.33997 1.09200
 O1915 O 0.47940 0.60423 1.07607
 O1916 O 0.47939 0.62872 1.10045
 C1917 C 0.47226 0.62130 1.08339
 C1918 C 0.45518 0.63233 1.07217
 C1919 C 0.44820 0.65209 1.07892
 H1920 H 0.45568 0.65974 1.09212
 O1921 O 0.39554 0.57564 1.02075
 O1922 O 0.37102 0.60000 1.02076
 C1923 C 0.37847 0.58296 1.02789
 C1924 C 0.36747 0.57175 1.04498
 C1925 C 0.34770 0.57849 1.05195
 H1926 H 0.34003 0.59167 1.04447
 O1927 O 0.60434 0.42404 1.02067
 O1928 O 0.62885 0.39967 1.02073
 C1929 C 0.62141 0.41672 1.02784
 C1930 C 0.63239 0.42794 1.04494
 C1931 C 0.65215 0.42121 1.05193
 H1932 H 0.65984 0.40803 1.04445
 O1933 O 0.47948 0.42417 1.10468
 O1934 O 0.47944 0.39981 1.12919
 C1935 C 0.47232 0.41686 1.12175
 C1936 C 0.45525 0.42810 1.13277
 C1937 C 0.44828 0.42139 1.15255
 H1938 H 0.45576 0.40821 1.16023
 O1939 O 0.52028 0.57548 1.10471
 O1940 O 0.52033 0.59982 1.12925
 C1941 C 0.52744 0.58277 1.12179
 C1942 C 0.54451 0.57152 1.13279
 C1943 C 0.55146 0.57820 1.15259
 H1944 H 0.54396 0.59135 1.16030
 O1945 O 0.39556 0.47957 1.07601
 O1946 O 0.37104 0.47953 1.10036
 C1947 C 0.37849 0.47243 1.08330
 C1948 C 0.36749 0.45539 1.07203
 C1949 C 0.34768 0.44850 1.07867
 H1950 H 0.33997 0.45601 1.09182
 O1951 O 0.60425 0.52013 1.07597
 O1952 O 0.62876 0.52015 1.10033
 C1953 C 0.62132 0.52726 1.08327
 C1954 C 0.63232 0.54429 1.07201
 C1955 C 0.65216 0.55114 1.07862
 H1956 H 0.65989 0.54360 1.09174
 O1957 O 0.42429 0.39565 1.02062
 O1958 O 0.39994 0.37117 1.02065
 C1959 C 0.41699 0.37859 1.02776
 C1960 C 0.42824 0.36755 1.04481
 C1961 C 0.42158 0.34773 1.05167
 H1962 H 0.40845 0.34006 1.04412
 O1963 O 0.57549 0.60415 1.02075
 O1964 O 0.59985 0.62863 1.02078
 C1965 C 0.58280 0.62121 1.02790
 C1966 C 0.57157 0.63222 1.04497
 C1967 C 0.57824 0.65202 1.05190
 H1968 H 0.59139 0.65970 1.04439
 Cu1969 Cu 0.58747 0.49972 1.08789
 Cu1970 Cu 0.61679 0.49972 1.11723
 Cu1971 Cu 0.41233 0.49997 1.08795
 Cu1972 Cu 0.38300 0.49996 1.11728
 Cu1973 Cu 0.49983 0.58743 1.08796
 Cu1974 Cu 0.49986 0.61673 1.11732
 Cu1975 Cu 0.49993 0.41227 1.08789
 Cu1976 Cu 0.49991 0.38294 1.11722
 C1977 C 0.55458 0.55447 1.12310
 H1978 H 0.54950 0.54941 1.10772
 C1979 C 0.56825 0.56810 1.16246
 C1980 C 0.44520 0.44518 1.12311
 H1981 H 0.45030 0.45027 1.10774
 C1982 C 0.43149 0.43149 1.16242
 C1983 C 0.55453 0.62257 1.05506
 H1984 H 0.54947 0.60719 1.04999
 C1985 C 0.56814 0.66190 1.06868
 C1986 C 0.44526 0.37719 1.05493
 H1987 H 0.45030 0.39258 1.04991
 C1988 C 0.43168 0.33781 1.06843
 C1989 C 0.62260 0.55442 1.05500
 H1990 H 0.60719 0.54940 1.04999
 C1991 C 0.66203 0.56789 1.06848
 C1992 C 0.37719 0.44531 1.05498
 H1993 H 0.39258 0.45036 1.04994
 C1994 C 0.33781 0.43176 1.06853
 C1995 C 0.44517 0.55460 1.12322
 H1996 H 0.45029 0.54947 1.10786
 C1997 C 0.43142 0.56837 1.16250
 C1998 C 0.55460 0.44508 1.12313
 H1999 H 0.54953 0.45015 1.10773
 C2000 C 0.56823 0.43145 1.16249
 C2001 C 0.62271 0.44500 1.05500
 H2002 H 0.60736 0.45011 1.04988
 C2003 C 0.66198 0.43126 1.06875
 C2004 C 0.37712 0.55468 1.05505
 H2005 H 0.39248 0.54956 1.04994
 C2006 C 0.33785 0.56844 1.06877
 C2007 C 0.44514 0.62270 1.05508
 H2008 H 0.45025 0.60735 1.04996
 C2009 C 0.43140 0.66196 1.06885
 C2010 C 0.55467 0.37703 1.05499
 H2011 H 0.54957 0.39239 1.04987
 C2012 C 0.56837 0.33775 1.06875
 O2013 O 0.57565 0.47931 0.89585
 O2014 O 0.60000 0.47930 0.87132
 C2015 C 0.58297 0.47218 0.87876
 C2016 C 0.57176 0.45511 0.86774
 C2017 C 0.57851 0.44812 0.84797
 H2018 H 0.59169 0.45559 0.84030
 O2019 O 0.42428 0.52039 0.89577
 O2020 O 0.39994 0.52043 0.87124
 C2021 C 0.41698 0.52753 0.87868
 C2022 C 0.42821 0.54458 0.86767
 C2023 C 0.42152 0.55150 0.84786
 H2024 H 0.40838 0.54401 0.84016
 O2025 O 0.47943 0.60423 0.92455
 O2026 O 0.47942 0.62873 0.90018
 C2027 C 0.47229 0.62131 0.91723
 C2028 C 0.45523 0.63233 0.92847
 C2029 C 0.44828 0.65211 0.92177
 H2030 H 0.45577 0.65979 0.90859
 O2031 O 0.52044 0.39543 0.92453
 O2032 O 0.52044 0.37094 0.90015
 C2033 C 0.52758 0.37836 0.91721
 C2034 C 0.54466 0.36734 0.92842
 C2035 C 0.55166 0.34760 0.92164
 H2036 H 0.54420 0.33995 0.90844
 O2037 O 0.60438 0.42400 0.97978
 O2038 O 0.62889 0.39963 0.97977
 C2039 C 0.62145 0.41668 0.97263
 C2040 C 0.63244 0.42788 0.95553
 C2041 C 0.65218 0.42111 0.94849
 H2042 H 0.65985 0.40791 0.95593
 O2043 O 0.39556 0.57565 0.97986
 O2044 O 0.37104 0.60000 0.97982
 C2045 C 0.37849 0.58296 0.97269
 C2046 C 0.36751 0.57174 0.95560
 C2047 C 0.34772 0.57844 0.94865
 H2048 H 0.34002 0.59159 0.95616
 O2049 O 0.52031 0.57550 0.89591
 O2050 O 0.52037 0.59984 0.87137
 C2051 C 0.52747 0.58279 0.87882
 C2052 C 0.54452 0.57152 0.86782
 C2053 C 0.55141 0.57815 0.84798
 H2054 H 0.54389 0.59129 0.84026
 O2055 O 0.47960 0.42421 0.89587
 O2056 O 0.47956 0.39989 0.87132
 C2057 C 0.47245 0.41693 0.87877
 C2058 C 0.45541 0.42821 0.86775
 C2059 C 0.44854 0.42157 0.84791
 H2060 H 0.45607 0.40844 0.84021
 O2061 O 0.60428 0.52013 0.92460
 O2062 O 0.62879 0.52018 0.90023
 C2063 C 0.62134 0.52728 0.91729
 C2064 C 0.63232 0.54434 0.92855
 C2065 C 0.65213 0.55124 0.92190
 H2066 H 0.65986 0.54372 0.90877
 O2067 O 0.39559 0.47958 0.92449
 O2068 O 0.37110 0.47957 0.90011
 C2069 C 0.37852 0.47246 0.91717
 C2070 C 0.36751 0.45543 0.92842
 C2071 C 0.34770 0.44855 0.92175
 H2072 H 0.34001 0.45606 0.90859
 O2073 O 0.57549 0.60417 0.97986
 O2074 O 0.59984 0.62865 0.97985
 C2075 C 0.58279 0.62124 0.97273
 C2076 C 0.57155 0.63226 0.95567
 C2077 C 0.57820 0.65208 0.94879
 H2078 H 0.59133 0.65977 0.95633
 O2079 O 0.42425 0.39564 0.97974
 O2080 O 0.39990 0.37116 0.97972
 C2081 C 0.41694 0.37858 0.97259
 C2082 C 0.42817 0.36755 0.95552
 C2083 C 0.42146 0.34778 0.94857
 H2084 H 0.40828 0.34012 0.95606
 O2085 O 0.42432 0.47954 0.89583
 O2086 O 0.39999 0.47953 0.87129
 C2087 C 0.41703 0.47240 0.87874
 C2088 C 0.42829 0.45534 0.86773
 C2089 C 0.42166 0.44845 0.84789
 H2090 H 0.40853 0.45598 0.84017
 O2091 O 0.57559 0.52016 0.89590
 O2092 O 0.59994 0.52021 0.87137
 C2093 C 0.58289 0.52732 0.87882
 C2094 C 0.57163 0.54438 0.86781
 C2095 C 0.57827 0.55126 0.84797
 H2096 H 0.59140 0.54372 0.84026
 O2097 O 0.47958 0.39549 0.92453
 O2098 O 0.47953 0.37100 0.90014
 C2099 C 0.47241 0.37845 0.91720
 C2100 C 0.45532 0.36748 0.92842
 C2101 C 0.44836 0.34771 0.92171
 H2102 H 0.45586 0.34001 0.90856
 O2103 O 0.52028 0.60424 0.92455
 O2104 O 0.52033 0.62874 0.90018
 C2105 C 0.52742 0.62130 0.91725
 C2106 C 0.54446 0.63230 0.92851
 C2107 C 0.55135 0.65211 0.92188
 H2108 H 0.54384 0.65983 0.90873
 O2109 O 0.39558 0.42435 0.97976
 O2110 O 0.37107 0.40004 0.97974
 C2111 C 0.37850 0.41707 0.97262
 C2112 C 0.36749 0.42832 0.95555
 C2113 C 0.34768 0.42168 0.94864
 H2114 H 0.33998 0.40855 0.95615
 O2115 O 0.60416 0.57545 0.97985
 O2116 O 0.62867 0.59977 0.97983
 C2117 C 0.62123 0.58273 0.97271
 C2118 C 0.63226 0.57148 0.95566
 C2119 C 0.65207 0.57813 0.94877
 H2120 H 0.65975 0.59127 0.95628
 O2121 O 0.52045 0.42411 0.89583
 O2122 O 0.52046 0.39978 0.87129
 C2123 C 0.52759 0.41680 0.87874
 C2124 C 0.54467 0.42801 0.86774
 C2125 C 0.55166 0.42127 0.84797
 H2126 H 0.54419 0.40809 0.84029
 O2127 O 0.47947 0.57560 0.89580
 O2128 O 0.47946 0.59994 0.87127
 C2129 C 0.47234 0.58291 0.87871
 C2130 C 0.45530 0.57168 0.86768
 C2131 C 0.44837 0.57837 0.84787
 H2132 H 0.45586 0.59152 0.84017
 O2133 O 0.39563 0.52043 0.92451
 O2134 O 0.37113 0.52047 0.90013
 C2135 C 0.37856 0.52759 0.91719
 C2136 C 0.36755 0.54465 0.92844
 C2137 C 0.34776 0.55160 0.92174
 H2138 H 0.34008 0.54411 0.90856
 O2139 O 0.60433 0.47927 0.92455
 O2140 O 0.62883 0.47927 0.90018
 C2141 C 0.62140 0.47213 0.91722
 C2142 C 0.63241 0.45503 0.92842
 C2143 C 0.65214 0.44801 0.92163
 H2144 H 0.65979 0.45548 0.90843
 O2145 O 0.57569 0.39536 0.97979
 O2146 O 0.60004 0.37083 0.97978
 C2147 C 0.58300 0.37828 0.97264
 C2148 C 0.57179 0.36730 0.95555
 C2149 C 0.57855 0.34756 0.94852
 H2150 H 0.59174 0.33988 0.95598
 O2151 O 0.42423 0.60431 0.97988
 O2152 O 0.39987 0.62882 0.97983
 C2153 C 0.41691 0.62138 0.97272
 C2154 C 0.42814 0.63236 0.95563
 C2155 C 0.42143 0.65215 0.94868
 H2156 H 0.40828 0.65985 0.95619
 Cu2157 Cu 0.58753 0.49971 0.91267
 Cu2158 Cu 0.61685 0.49975 0.88332
 Cu2159 Cu 0.41240 0.49998 0.91259
 Cu2160 Cu 0.38308 0.50000 0.88323
 Cu2161 Cu 0.58738 0.58736 1.00029
 Cu2162 Cu 0.61671 0.61665 1.00031
 Cu2163 Cu 0.58758 0.41214 1.00022
 Cu2164 Cu 0.61690 0.38279 1.00026
 Cu2165 Cu 0.41232 0.58754 1.00032
 Cu2166 Cu 0.38298 0.61687 1.00030
 Cu2167 Cu 0.41237 0.41244 1.00019
 Cu2168 Cu 0.38304 0.38315 1.00020
 Cu2169 Cu 0.49987 0.58745 0.91264
 Cu2170 Cu 0.49990 0.61677 0.88329
 Cu2171 Cu 0.50002 0.41225 0.91263
 Cu2172 Cu 0.49999 0.38295 0.88327
 C2173 C 0.55470 0.44507 0.87740
 H2174 H 0.54958 0.45018 0.89276
 C2175 C 0.56846 0.43132 0.83811
 C2176 C 0.44524 0.55464 0.87735
 H2177 H 0.45031 0.54957 0.89274
 C2178 C 0.43160 0.56828 0.83798
 C2179 C 0.44518 0.62268 0.94555
 H2180 H 0.45026 0.60731 0.95064
 C2181 C 0.43151 0.66200 0.93187
 C2182 C 0.55470 0.37696 0.94551
 H2183 H 0.54957 0.39230 0.95066
 C2184 C 0.56849 0.33774 0.93169
 C2185 C 0.62279 0.44498 0.94551
 H2186 H 0.60746 0.45012 0.95067
 C2187 C 0.66200 0.43117 0.93165
 C2188 C 0.37720 0.55470 0.94551
 H2189 H 0.39257 0.54962 0.95060
 C2190 C 0.33787 0.56837 0.93184
 C2191 C 0.55462 0.55449 0.87751
 H2192 H 0.54958 0.54946 0.89292
 C2193 C 0.56816 0.56802 0.83808
 C2194 C 0.44531 0.44523 0.87744
 H2195 H 0.45034 0.45027 0.89285
 C2196 C 0.43179 0.43169 0.83801
 C2197 C 0.62261 0.55444 0.94557
 H2198 H 0.60722 0.54939 0.95061
 C2199 C 0.66198 0.56801 0.93201
 C2200 C 0.37717 0.44534 0.94547
 H2201 H 0.39256 0.45038 0.95053
 C2202 C 0.33781 0.43179 0.93185
 C2203 C 0.55454 0.62260 0.94555
 H2204 H 0.54950 0.60721 0.95059
 C2205 C 0.56810 0.66198 0.93201
 C2206 C 0.44525 0.37717 0.94547
 H2207 H 0.45034 0.39253 0.95056
 C2208 C 0.43155 0.33789 0.93179
 C2209 C 1.10480 1.10429 1.25555
 N2210 N 1.08807 1.11357 1.24628
 N2211 N 1.08073 1.10639 1.22809
 C2212 C 1.08988 1.08970 1.21864
 N2213 N 1.10659 1.08041 1.22791
 N2214 N 1.11394 1.08759 1.24610
 C2215 C 1.11293 1.11225 1.27494
 C2216 C 1.11985 1.11907 1.29115
 C2217 C 1.08221 1.08219 1.19888
 C2218 C 1.07590 1.07598 1.18218
 C2219 C 1.10444 0.60376 0.75571
 N2220 N 1.08849 0.61373 0.74581
 N2221 N 1.08123 0.60654 0.72759
 C2222 C 1.08969 0.58918 0.71873
 N2223 N 1.10563 0.57920 0.72864
 N2224 N 1.11290 0.58639 0.74686
 C2225 C 1.11251 0.61172 0.77513
 C2226 C 1.11939 0.61854 0.79135
 C2227 C 1.08213 0.58167 0.69893
 C2228 C 1.07590 0.57547 0.68221
 C2229 C 0.60514 1.10470 0.75504
 N2230 N 0.61272 1.08665 0.74678
 N2231 N 0.60528 1.07937 0.72867
 C2232 C 0.59004 1.08993 0.71827
 N2233 N 0.58245 1.10798 0.72654
 N2234 N 0.58989 1.11525 0.74466
 C2235 C 0.61338 1.11272 0.77437
 C2236 C 0.62037 1.11960 0.79053
 C2237 C 0.58229 1.08230 0.69859
 C2238 C 0.57590 1.07600 0.68196
 C2239 C 0.60396 0.60378 1.25603
 N2240 N 0.61260 0.58653 1.24711
 N2241 N 0.60537 0.57931 1.22889
 C2242 C 0.58928 0.58912 1.21905
 N2243 N 0.58063 0.60635 1.22799
 N2244 N 0.58786 0.61357 1.24620
 C2245 C 0.61199 0.61178 1.27545
 C2246 C 0.61885 0.61863 1.29167
 C2247 C 0.58175 0.58157 1.19926
 C2248 C 0.57553 0.57536 1.18253
 C2249 C 0.89593 0.89592 1.25572
 N2250 N 0.91260 0.88669 1.24630
 N2251 N 0.91984 0.89397 1.22812
 C2252 C 0.91063 0.91071 1.21880
 N2253 N 0.89397 0.91995 1.22822
 N2254 N 0.88672 0.91266 1.24641
 C2255 C 0.88789 0.88784 1.27510
 C2256 C 0.88101 0.88093 1.29129
 C2257 C 0.91817 0.91830 1.19903
 C2258 C 0.92440 0.92455 1.18232
 C2259 C 0.89491 0.39552 0.75539
 N2260 N 0.91180 0.38637 0.74628
 N2261 N 0.91925 0.39360 0.72815
 C2262 C 0.91004 0.41020 0.71859
 N2263 N 0.89317 0.41936 0.72771
 N2264 N 0.88571 0.41213 0.74583
 C2265 C 0.88668 0.38751 0.77472
 C2266 C 0.87969 0.38064 0.79088
 C2267 C 0.91782 0.41775 0.69889
 C2268 C 0.92422 0.42400 0.68224
 C2269 C 0.39569 0.89633 0.75566
 N2270 N 0.41229 0.88695 0.74626
 N2271 N 0.41955 0.89411 0.72803
 C2272 C 0.41044 0.91087 0.71866
 N2273 N 0.39386 0.92026 0.72806
 N2274 N 0.38659 0.91310 0.74629
 C2275 C 0.38762 0.88837 0.77507
 C2276 C 0.38074 0.88155 0.79129
 C2277 C 0.41801 0.91834 0.69884
 C2278 C 0.42423 0.92450 0.68211
 C2279 C 0.39535 0.39595 1.25590
 N2280 N 0.41222 0.38682 1.24674
 N2281 N 0.41955 0.39399 1.22855
 C2282 C 0.41023 0.41052 1.21896
 N2283 N 0.39337 0.41966 1.22813
 N2284 N 0.38604 0.41248 1.24632
 C2285 C 0.38724 0.38798 1.27530
 C2286 C 0.38033 0.38115 1.29150
 C2287 C 0.41788 0.41801 1.19919
 C2288 C 0.42417 0.42420 1.18248
 C2289 C 0.89565 1.10421 0.74430
 N2290 N 0.88614 1.08785 0.75396
 N2291 N 0.89342 1.08062 0.77216
 C2292 C 0.91042 1.08954 0.78126
 N2293 N 0.91993 1.10589 0.77159
 N2294 N 0.91266 1.11312 0.75339
 C2295 C 0.88758 1.11223 0.72490
 C2296 C 0.88070 1.11910 0.70869
 C2297 C 0.91801 1.08202 0.80104
 C2298 C 0.92426 1.07581 0.81776
 C2299 C 0.89693 0.60313 0.24369
 N2300 N 0.88772 0.58642 0.25303
 N2301 N 0.89486 0.57926 0.27131
 C2302 C 0.91141 0.58859 0.28080
 N2303 N 0.92063 0.60528 0.27145
 N2304 N 0.91350 0.61245 0.25317
 C2305 C 0.88898 0.61110 0.22422
 C2306 C 0.88218 0.61792 0.20796
 C2307 C 0.91884 0.58113 0.30067
 C2308 C 0.92496 0.57500 0.31746
 C2309 C 0.39604 1.10330 0.24363
 N2310 N 0.38686 1.08666 0.25310
 N2311 N 0.39409 1.07957 0.27138
 C2312 C 0.41071 1.08892 0.28073
 N2313 N 0.41990 1.10556 0.27125
 N2314 N 0.41267 1.11265 0.25297
 C2315 C 0.38802 1.11119 0.22415
 C2316 C 0.38117 1.11795 0.20790
 C2317 C 0.41823 1.08155 0.30059
 C2318 C 0.42441 1.07545 0.31737
 C2319 C 0.39567 0.60383 0.74441
 N2320 N 0.38657 0.58708 0.75379
 N2321 N 0.39386 0.57990 0.77200
 C2322 C 0.41048 0.58923 0.78138
 N2323 N 0.41959 0.60597 0.77200
 N2324 N 0.41230 0.61316 0.75379
 C2325 C 0.38758 0.61181 0.72501
 C2326 C 0.38068 0.61865 0.70880
 C2327 C 0.41807 0.58174 0.80118
 C2328 C 0.42432 0.57555 0.81790
 C2329 C 1.10321 0.89674 0.74383
 N2330 N 1.08686 0.88722 0.75348
 N2331 N 1.07976 0.89436 0.77178
 C2332 C 1.08880 0.91123 0.78099
 N2333 N 1.10514 0.92076 0.77133
 N2334 N 1.11224 0.91362 0.75303
 C2335 C 1.11111 0.88882 0.72432
 C2336 C 1.11787 0.88204 0.70803
 C2337 C 1.08141 0.91867 0.80087
 C2338 C 1.07531 0.92481 0.81767
 C2339 C 1.10405 0.39653 0.24388
 N2340 N 1.11300 0.41339 0.25318
 N2341 N 1.10578 0.42047 0.27146
 C2342 C 1.08938 0.41090 0.28099
 N2343 N 1.08041 0.39405 0.27168
 N2344 N 1.08764 0.38697 0.25340
 C2345 C 1.11207 0.38866 0.22441
 C2346 C 1.11892 0.38190 0.20815
 C2347 C 1.08186 0.41829 0.30085
 C2348 C 1.07568 0.42439 0.31763
 C2349 C 0.60388 0.89600 0.24395
 N2350 N 0.61271 0.91305 0.25302
 N2351 N 0.60546 0.92029 0.27123
 C2352 C 0.58917 0.91070 0.28091
 N2353 N 0.58033 0.89365 0.27183
 N2354 N 0.58758 0.88641 0.25362
 C2355 C 0.61193 0.88797 0.22454
 C2356 C 0.61881 0.88109 0.20834
 C2357 C 0.58162 0.91825 0.30070
 C2358 C 0.57540 0.92447 0.31742
 C2359 C 0.60451 0.39533 0.74475
 N2360 N 0.58885 0.38518 0.75489
 N2361 N 0.58155 0.39245 0.77307
 C2362 C 0.58970 0.41009 0.78165
 N2363 N 0.60535 0.42025 0.77150
 N2364 N 0.61265 0.41298 0.75333
 C2365 C 0.61261 0.38730 0.72537
 C2366 C 0.61951 0.38044 0.70916
 C2367 C 0.58209 0.41770 0.80140
 C2368 C 0.57581 0.42398 0.81808
 C2369 C 1.25596 1.10379 1.10351
 N2370 N 1.24649 1.11306 1.08689
 N2371 N 1.22823 1.10589 1.07977
 C2372 C 1.21888 1.08924 1.08906
 N2373 N 1.22835 1.07996 1.10567
 N2374 N 1.24661 1.08713 1.11280
 C2375 C 1.27543 1.11174 1.11142
 C2376 C 1.29169 1.11853 1.11819
 C2377 C 1.19904 1.08176 1.08163
 C2378 C 1.18228 1.07559 1.07549
 C2379 C 1.25570 0.60413 0.60413
 N2380 N 1.24635 0.58748 0.61342
 N2381 N 1.22817 0.58020 0.60620
 C2382 C 1.21879 0.58935 0.58946
 N2383 N 1.22814 0.60600 0.58016
 N2384 N 1.24632 0.61328 0.58738
 C2385 C 1.27508 0.61220 0.61214
 C2386 C 1.29127 0.61909 0.61899
 C2387 C 1.19904 0.58176 0.58192
 C2388 C 1.18235 0.57550 0.57569
 C2389 C 0.75518 1.10403 0.60443
 N2390 N 0.74535 1.08790 0.61414
 N2391 N 0.72718 1.08069 0.60684
 C2392 C 0.71828 1.08939 0.58961
 N2393 N 0.72811 1.10552 0.57989
 N2394 N 0.74629 1.11273 0.58719
 C2395 C 0.77456 1.11203 0.61251
 C2396 C 0.79076 1.11886 0.61940
 C2397 C 0.69853 1.08187 0.58198
 C2398 C 0.68184 1.07566 0.57569
 C2399 C 0.75591 0.60334 1.10336
 N2400 N 0.74660 0.58671 1.11273
 N2401 N 0.72832 0.57951 1.10568
 C2402 C 0.71880 0.58873 1.08906
 N2403 N 0.72812 0.60536 1.07968
 N2404 N 0.74640 0.61256 1.08672
 C2405 C 0.77539 0.61133 1.11119
 C2406 C 0.79167 0.61814 1.11791
 C2407 C 0.69894 0.58123 1.08171
 C2408 C 0.68216 0.57507 1.07564
 C2409 C 1.25519 0.89521 0.89549
 N2410 N 1.23801 0.88274 0.89578
 N2411 N 1.21981 0.88999 0.90301
 C2412 C 1.21824 0.90993 0.91016
 N2413 N 1.23542 0.92241 0.90988
 N2414 N 1.25363 0.91516 0.90265
 C2415 C 1.27473 0.88740 0.88757
 C2416 C 1.29104 0.88069 0.88080
 C2417 C 1.19858 0.91773 0.91779
 C2418 C 1.18196 0.92412 0.92410
 C2419 C 1.25579 0.39582 0.39545
 N2420 N 1.24640 0.38636 0.41201
 N2421 N 1.22820 0.39352 0.41934
 C2422 C 1.21884 0.41034 0.41034
 N2423 N 1.22823 0.41980 0.39378
 N2424 N 1.24643 0.41265 0.38645
 C2425 C 1.27519 0.38788 0.38732
 C2426 C 1.29141 0.38108 0.38041
 C2427 C 1.19906 0.41781 0.41799
 C2428 C 1.18236 0.42399 0.42427
 C2429 C 0.75522 0.89597 0.39510
 N2430 N 0.74180 0.90624 0.38221
 N2431 N 0.72359 0.91344 0.38947
 C2432 C 0.71826 0.91059 0.40985
 N2433 N 0.73169 0.90033 0.42276
 N2434 N 0.74989 0.89313 0.41549
 C2435 C 0.77466 0.88794 0.38716
 C2436 C 0.79091 0.88111 0.38036
 C2437 C 0.69852 0.91808 0.41757
 C2438 C 0.68183 0.92429 0.42389
 C2439 C 0.75517 0.39540 0.89496
 N2440 N 0.74559 0.41199 0.88575
 N2441 N 0.72746 0.41920 0.89319
 C2442 C 0.71835 0.41004 0.91006
 N2443 N 0.72793 0.39345 0.91928
 N2444 N 0.74607 0.38624 0.91185
 C2445 C 0.77451 0.38741 0.88674
 C2446 C 0.79068 0.38055 0.87977
 C2447 C 0.69864 0.41757 0.91784
 C2448 C 0.68199 0.42381 0.92423
 C2449 C 0.74472 0.89567 1.10448
 N2450 N 0.75992 0.88222 1.09818
 N2451 N 0.77811 0.88946 1.09096
 C2452 C 0.78166 0.91037 1.08983
 N2453 N 0.76645 0.92383 1.09612
 N2454 N 0.74825 0.91658 1.10334
 C2455 C 0.72524 0.88782 1.11248
 C2456 C 0.70897 0.88109 1.11930
 C2457 C 0.80135 0.91811 1.08228
 C2458 C 0.81800 0.92446 1.07603
 C2459 C 0.74481 0.39588 0.60467
 N2460 N 0.75457 0.41211 0.61429
 N2461 N 0.77273 0.41933 0.60697
 C2462 C 0.78169 0.41054 0.58981
 N2463 N 0.77192 0.39432 0.58018
 N2464 N 0.75376 0.38710 0.58750
 C2465 C 0.72545 0.38786 0.61278
 C2466 C 0.70928 0.38099 0.61970
 C2467 C 0.80143 0.41806 0.58217
 C2468 C 0.81812 0.42427 0.57588
 C2469 C 0.24385 0.89677 0.60303
 N2470 N 0.25316 0.88767 0.58622
 N2471 N 0.27144 0.89481 0.57912
 C2472 C 0.28096 0.91125 0.58862
 N2473 N 0.27165 0.92035 0.60542
 N2474 N 0.25337 0.91322 0.61252
 C2475 C 0.22437 0.88883 0.61093
 C2476 C 0.20811 0.88205 0.61769
 C2477 C 0.30083 0.91868 0.58121
 C2478 C 0.31761 0.92480 0.57510
 C2479 C 0.24408 0.39621 1.10375
 N2480 N 0.25348 0.41277 1.11315
 N2481 N 0.27173 0.41998 1.10603
 C2482 C 0.28113 0.41083 1.08930
 N2483 N 0.27172 0.39428 1.07989
 N2484 N 0.25347 0.38707 1.08700
 C2485 C 0.22462 0.38822 1.11164
 C2486 C 0.20836 0.38140 1.11841
 C2487 C 0.30096 0.41834 1.08188
 C2488 C 0.31771 0.42453 1.07574
 C2489 C 0.74475 1.10464 0.89476
 N2490 N 0.75380 1.11373 0.91170
 N2491 N 0.77193 1.10650 0.91915
 C2492 C 0.78155 1.08997 0.90988
 N2493 N 0.77248 1.08088 0.89294
 N2494 N 0.75436 1.08810 0.88549
 C2495 C 0.72541 1.11265 0.88652
 C2496 C 0.70926 1.11953 0.87953
 C2497 C 0.80125 1.08243 0.91765
 C2498 C 0.81790 1.07619 0.92404
 C2499 C 0.74444 0.60350 0.39583
 N2500 N 0.75366 0.61262 0.41267
 N2501 N 0.77190 0.60545 0.41990
 C2502 C 0.78145 0.58895 0.41051
 N2503 N 0.77222 0.57982 0.39369
 N2504 N 0.75399 0.58699 0.38645
 C2505 C 0.72500 0.61147 0.38781
 C2506 C 0.70877 0.61828 0.38096
 C2507 C 0.80127 0.58148 0.41805
 C2508 C 0.81801 0.57531 0.42426
 C2509 C 0.24433 1.10411 0.39513
 N2510 N 0.25388 1.08754 0.38585
 N2511 N 0.27207 1.08035 0.39320
 C2512 C 0.28125 1.08951 0.41003
 N2513 N 0.27169 1.10607 0.41931
 N2514 N 0.25351 1.11326 0.41197
 C2515 C 0.22494 1.11209 0.38700
 C2516 C 0.20874 1.11893 0.38009
 C2517 C 0.30101 1.08201 0.41769
 C2518 C 0.31771 1.07581 0.42399
 C2519 C 0.24433 0.60412 0.89613
 N2520 N 0.25369 0.61332 0.91284
 N2521 N 0.27190 0.60608 0.92007
 C2522 C 0.28130 0.58943 0.91080
 N2523 N 0.27194 0.58022 0.89409
 N2524 N 0.25373 0.58745 0.88686
 C2525 C 0.22492 0.61214 0.88811
 C2526 C 0.20870 0.61900 0.88125
 C2527 C 0.30109 0.58188 0.91834
 C2528 C 0.31780 0.57566 0.92456
 C2529 C 1.10404 1.25605 1.10320
 N2530 N 1.08708 1.24702 1.11227
 N2531 N 1.07980 1.22878 1.10521
 C2532 C 1.08926 1.21901 1.08887
 N2533 N 1.10621 1.22805 1.07979
 N2534 N 1.11349 1.24629 1.08685
 C2535 C 1.11210 1.27549 1.11106
 C2536 C 1.11897 1.29172 1.11781
 C2537 C 1.08168 1.19919 1.08152
 C2538 C 1.07545 1.18244 1.07543
 C2539 C 1.10337 0.75592 0.60313
 N2540 N 1.11283 0.74635 0.58667
 N2541 N 1.10573 0.72806 0.57957
 C2542 C 1.08896 0.71877 0.58872
 N2543 N 1.07949 0.72834 0.60518
 N2544 N 1.08659 0.74664 0.61228
 C2545 C 1.11126 0.77542 0.61102
 C2546 C 1.11800 0.79170 0.61778
 C2547 C 1.08156 0.69889 0.58133
 C2548 C 1.07546 0.68211 0.57523
 C2549 C 0.60409 1.25529 0.60454
 N2550 N 0.61350 1.24582 0.58800
 N2551 N 0.60624 1.22768 0.58066
 C2552 C 0.58935 1.21847 0.58966
 N2553 N 0.57993 1.22794 0.60619
 N2554 N 0.58719 1.24608 0.61352
 C2555 C 0.61214 1.27463 0.61267
 C2556 C 0.61902 1.29079 0.61960
 C2557 C 0.58177 1.19874 0.58201
 C2558 C 0.57552 1.18208 0.57572
 C2559 C 0.60370 0.75546 1.10431
 N2560 N 0.58691 0.74619 1.11344
 N2561 N 0.57972 0.72797 1.10622
 C2562 C 0.58909 0.71849 1.08967
 N2563 N 0.60587 0.72777 1.08053
 N2564 N 0.61306 0.74599 1.08774
 C2565 C 0.61169 0.77488 1.11232
 C2566 C 0.61852 0.79109 1.11916
 C2567 C 0.58158 0.69869 1.08215
 C2568 C 0.57539 0.68197 1.07594
 C2569 C 0.89534 1.25547 0.89542
 N2570 N 0.88648 1.24640 0.91247
 N2571 N 0.89380 1.22826 0.91979
 C2572 C 0.91020 1.21865 0.91028
 N2573 N 0.91908 1.22774 0.89324
 N2574 N 0.91176 1.24588 0.88592
 C2575 C 0.88721 1.27480 0.88731
 C2576 C 0.88027 1.29094 0.88037
 C2577 C 0.91783 1.19893 0.91791
 C2578 C 0.92410 1.18226 0.92420
 C2579 C 0.89616 0.75517 0.39519
 N2580 N 0.90782 0.74247 0.38276
 N2581 N 0.91502 0.72427 0.39005
 C2582 C 0.91077 0.71823 0.40999
 N2583 N 0.89912 0.73094 0.42242
 N2584 N 0.89192 0.74914 0.41513
 C2585 C 0.88813 0.77460 0.38721
 C2586 C 0.88128 0.79082 0.38038
 C2587 C 0.91826 0.69848 0.41769
 C2588 C 0.92446 0.68179 0.42401
 C2589 C 0.39567 1.25570 0.39574
 N2590 N 0.38597 1.24596 0.41195
 N2591 N 0.39320 1.22775 0.41919
 C2592 C 0.41034 1.21873 0.41043
 N2593 N 0.42004 1.22848 0.39423
 N2594 N 0.41282 1.24668 0.38699
 C2595 C 0.38765 1.27510 0.38770
 C2596 C 0.38080 1.29131 0.38083
 C2597 C 0.41788 1.19894 0.41797
 C2598 C 0.42410 1.18223 0.42418
 C2599 C 0.39565 0.75553 0.89627
 N2600 N 0.38691 0.74648 0.91341
 N2601 N 0.39418 0.72827 0.92060
 C2602 C 0.41040 0.71856 0.91087
 N2603 N 0.41914 0.72762 0.89375
 N2604 N 0.41187 0.74583 0.88656
 C2605 C 0.38758 0.77494 0.88831
 C2606 C 0.38071 0.79116 0.88149
 C2607 C 0.41797 0.69877 0.91838
 C2608 C 0.42421 0.68206 0.92459
 C2609 C 1.10435 0.74448 0.89638
 N2610 N 1.08767 0.75381 0.88706
 N2611 N 1.08038 0.77202 0.89421
 C2612 C 1.08955 0.78146 0.91091
 N2613 N 1.10621 0.77212 0.92023
 N2614 N 1.11350 0.75391 0.91308
 C2615 C 1.11243 0.72507 0.88843
 C2616 C 1.11932 0.70885 0.88162
 C2617 C 1.08195 0.80125 0.91837
 C2618 C 1.07570 0.81797 0.92454
 C2619 C 1.10441 0.24423 0.39572
 N2620 N 1.11372 0.25363 0.41235
 N2621 N 1.10647 0.27180 0.41964
 C2622 C 1.08970 0.28113 0.41052
 N2623 N 1.08037 0.27173 0.39389
 N2624 N 1.08762 0.25355 0.38661
 C2625 C 1.11245 0.22486 0.38763
 C2626 C 1.11933 0.20868 0.38071
 C2627 C 1.08214 0.30090 0.41811
 C2628 C 1.07592 0.31760 0.42435
 C2629 C 0.60365 0.74427 0.39571
 N2630 N 0.61235 0.75320 0.41292
 N2631 N 0.60516 0.77143 0.42014
 C2632 C 0.58906 0.78128 0.41036
 N2633 N 0.58036 0.77235 0.39315
 N2634 N 0.58754 0.75411 0.38593
 C2635 C 0.61163 0.72483 0.38771
 C2636 C 0.61846 0.70860 0.38088
 C2637 C 0.58158 0.80109 0.41789
 C2638 C 0.57540 0.81783 0.42410
 C2639 C 0.60469 0.24464 0.89527
 N2640 N 0.61386 0.25392 0.91205
 N2641 N 0.60653 0.27203 0.91943
 C2642 C 0.58981 0.28141 0.91026
 N2643 N 0.58063 0.27213 0.89349
 N2644 N 0.58796 0.25402 0.88611
 C2645 C 0.61282 0.22534 0.88709
 C2646 C 0.61976 0.20922 0.88012
 C2647 C 0.58217 0.30110 0.91795
 C2648 C 0.57587 0.31775 0.92428
 C2649 C 0.89660 0.74423 1.10335
 N2650 N 0.88776 0.75340 1.08633
 N2651 N 0.89493 0.77169 1.07927
 C2652 C 0.91115 0.78134 1.08900
 N2653 N 0.92000 0.77216 1.10601
 N2654 N 0.91284 0.75387 1.11308
 C2655 C 0.88864 0.72474 1.11119
 C2656 C 0.88186 0.70846 1.11792
 C2657 C 0.91862 0.80120 1.08162
 C2658 C 0.92477 0.81798 1.07553
 C2659 C 0.89612 0.24447 0.60441
 N2660 N 0.88727 0.25356 0.58735
 N2661 N 0.89452 0.27173 0.58009
 C2662 C 0.91085 0.28137 0.58967
 N2663 N 0.91971 0.27228 0.60673
 N2664 N 0.91245 0.25410 0.61398
 C2665 C 0.88806 0.22510 0.61246
 C2666 C 0.88118 0.20892 0.61933
 C2667 C 0.91840 0.30113 0.58210
 C2668 C 0.92463 0.31782 0.57586
 C2669 C 0.39546 0.74453 0.60370
 N2670 N 0.38623 0.75402 0.58706
 N2671 N 0.39353 0.77221 0.57988
 C2672 C 0.41028 0.78145 0.58911
 N2673 N 0.41952 0.77196 0.60573
 N2674 N 0.41222 0.75377 0.61292
 C2675 C 0.38738 0.72514 0.61167
 C2676 C 0.38049 0.70895 0.61851
 C2677 C 0.41789 0.80121 0.58161
 C2678 C 0.42416 0.81791 0.57542
 C2679 C 0.39571 0.24407 1.10315
 N2680 N 0.38328 0.25689 1.09162
 N2681 N 0.39054 0.27515 1.08461
 C2682 C 0.41045 0.28115 1.08892
 N2683 N 0.42289 0.26833 1.10044
 N2684 N 0.41563 0.25006 1.10745
 C2685 C 0.38775 0.22458 1.11100
 C2686 C 0.38095 0.20831 1.11773
 C2687 C 0.41813 0.30097 1.08164
 C2688 C 0.42441 0.31771 1.07559
 C2689 C 1.10437 1.10509 0.74471
 N2690 N 1.11253 1.08738 0.75315
 N2691 N 1.10528 1.08001 0.77131
 C2692 C 1.08966 1.09014 0.78156
 N2693 N 1.08149 1.10785 0.77310
 N2694 N 1.08874 1.11522 0.75495
 C2695 C 1.11242 1.11322 0.72534
 C2696 C 1.11930 1.12015 0.70916
 C2697 C 1.08210 1.08243 0.80128
 C2698 C 1.07585 1.07609 0.81795
 C2699 C 1.10460 0.60515 0.24470
 N2700 N 1.11278 0.58739 0.25303
 N2701 N 1.10558 0.57993 0.27116
 C2702 C 1.08997 0.59000 0.28150
 N2703 N 1.08178 0.60775 0.27316
 N2704 N 1.08899 0.61521 0.25503
 C2705 C 1.11261 0.61339 0.22536
 C2706 C 1.11947 0.62038 0.20921
 C2707 C 1.08246 0.58217 0.30120
 C2708 C 1.07622 0.57576 0.31784
 C2709 C 0.60413 1.10489 0.24433
 N2710 N 0.58812 1.11470 0.25427
 N2711 N 0.58086 1.10737 0.27244
 C2712 C 0.58941 1.08999 0.28120
 N2713 N 0.60542 1.08016 0.27125
 N2714 N 0.61267 1.08750 0.25309
 C2715 C 0.61218 1.11300 0.22496
 C2716 C 0.61906 1.11991 0.20878
 C2717 C 0.58184 1.08232 0.30094
 C2718 C 0.57559 1.07600 0.31761
 C2719 C 0.60345 0.60337 0.74423
 N2720 N 0.58727 0.61309 0.75400
 N2721 N 0.58012 0.60593 0.77228
 C2722 C 0.58895 0.58885 0.78133
 N2723 N 0.60513 0.57913 0.77156
 N2724 N 0.61227 0.58628 0.75328
 C2725 C 0.61140 0.61131 0.72475
 C2726 C 0.61819 0.61809 0.70848
 C2727 C 0.58151 0.58138 0.80119
 C2728 C 0.57536 0.57523 0.81796
 C2729 C 0.89649 0.89658 0.74412
 N2730 N 0.91326 0.88744 0.75344
 N2731 N 0.92040 0.89461 0.77171
 C2732 C 0.91099 0.91114 0.78120
 N2733 N 0.89423 0.92029 0.77187
 N2734 N 0.88708 0.91312 0.75360
 C2735 C 0.88855 0.88862 0.72465
 C2736 C 0.88176 0.88181 0.70839
 C2737 C 0.91844 0.91861 0.80106
 C2738 C 0.92459 0.92477 0.81782
 C2739 C 0.89582 0.39493 0.24452
 N2740 N 0.91243 0.38565 0.25400
 N2741 N 0.91970 0.39299 0.27215
 C2742 C 0.91059 0.40983 0.28137
 N2743 N 0.89399 0.41912 0.27188
 N2744 N 0.88671 0.41178 0.25373
 C2745 C 0.88776 0.38680 0.22516
 C2746 C 0.88086 0.37988 0.20899
 C2747 C 0.91817 0.41750 0.30110
 C2748 C 0.92443 0.42381 0.31778
 C2749 C 0.39564 0.89517 0.24424
 N2750 N 0.41238 0.88609 0.25368
 N2751 N 0.41958 0.89349 0.27184
 C2752 C 0.41025 0.91018 0.28111
 N2753 N 0.39351 0.91927 0.27167
 N2754 N 0.38632 0.91188 0.25351
 C2755 C 0.38765 0.88698 0.22488
 C2756 C 0.38080 0.88002 0.20871
 C2757 C 0.41777 0.91790 0.30085
 C2758 C 0.42399 0.92423 0.31753
 C2759 C 0.39677 0.39595 0.74420
 N2760 N 0.41327 0.38662 0.75382
 N2761 N 0.42034 0.39388 0.77208
 C2762 C 0.41114 0.41069 0.78127
 N2763 N 0.39465 0.42003 0.77164
 N2764 N 0.38757 0.41277 0.75338
 C2765 C 0.38889 0.38789 0.72474
 C2766 C 0.38213 0.38103 0.70849
 C2767 C 0.41851 0.41825 0.80112
 C2768 C 0.42460 0.42446 0.81788
 C2769 C 1.10394 0.89598 1.25592
 N2770 N 1.08786 0.88624 1.24603
 N2771 N 1.08068 0.89352 1.22780
 C2772 C 1.08937 0.91074 1.21892
 N2773 N 1.10544 0.92049 1.22882
 N2774 N 1.11262 0.91321 1.24704
 C2775 C 1.11191 0.88792 1.27534
 C2776 C 1.11874 0.88105 1.29157
 C2777 C 1.08189 0.91834 1.19912
 C2778 C 1.07571 0.92459 1.18239
 C2779 C 1.10409 0.39600 0.75598
 N2780 N 1.11227 0.41363 0.74740
 N2781 N 1.10509 0.42083 0.72915
 C2782 C 1.08951 0.41062 0.71893
 N2783 N 1.08132 0.39300 0.72752
 N2784 N 1.08851 0.38580 0.74577
 C2785 C 1.11207 0.38804 0.77544
 C2786 C 1.11888 0.38123 0.79170
 C2787 C 1.08203 0.41815 0.69911
 C2788 C 1.07585 0.42435 0.68236
 C2789 C 0.60341 0.89632 0.75583
 N2790 N 0.61213 0.91346 0.74683
 N2791 N 0.60496 0.92062 0.72856
 C2792 C 0.58886 0.91085 0.71875
 N2793 N 0.58013 0.89371 0.72776
 N2794 N 0.58730 0.88655 0.74603
 C2795 C 0.61138 0.88838 0.77531
 C2796 C 0.61820 0.88160 0.79157
 C2797 C 0.58139 0.91833 0.69890
 C2798 C 0.57523 0.92450 0.68213
 C2799 C 0.60401 0.39591 1.25612
 N2800 N 0.61264 0.41311 1.24714
 N2801 N 0.60538 0.42030 1.22891
 C2802 C 0.58928 0.41050 1.21912
 N2803 N 0.58064 0.39330 1.22811
 N2804 N 0.58790 0.38611 1.24634
 C2805 C 0.61207 0.38794 1.27555
 C2806 C 0.61894 0.38112 1.29178
 C2807 C 0.58172 0.41800 1.19931
 C2808 C 0.57550 0.42419 1.18258
 C2809 C 0.89709 1.10303 1.25662
 N2810 N 0.91348 1.11257 1.24705
 N2811 N 0.92058 1.10553 1.22870
 C2812 C 0.91149 1.08875 1.21938
 N2813 N 0.89511 1.07920 1.22896
 N2814 N 0.88802 1.08624 1.24730
 C2815 C 0.88918 1.11087 1.27615
 C2816 C 0.88241 1.11758 1.29246
 C2817 C 0.91887 1.08142 1.19944
 C2818 C 0.92495 1.07537 1.18261
 C2819 C 0.89653 0.60358 0.75600
 N2820 N 0.88744 0.58678 0.74671
 N2821 N 0.89464 0.57961 0.72845
 C2822 C 0.91114 0.58902 0.71894
 N2823 N 0.92023 0.60581 0.72824
 N2824 N 0.91303 0.61298 0.74650
 C2825 C 0.88853 0.61154 0.77545
 C2826 C 0.88170 0.61836 0.79169
 C2827 C 0.91863 0.58154 0.69911
 C2828 C 0.92480 0.57537 0.68235
 C2829 C 0.39615 1.10440 0.75565
 N2830 N 0.38641 1.08816 0.74603
 N2831 N 0.39355 1.08084 0.72781
 C2832 C 0.41064 1.08953 0.71867
 N2833 N 0.42038 1.10576 0.72830
 N2834 N 0.41325 1.11309 0.74652
 C2835 C 0.38823 1.11253 0.77507
 C2836 C 0.38143 1.11945 0.79128
 C2837 C 0.41809 1.08191 0.69887
 C2838 C 0.42425 1.07565 0.68214
 C2839 C 0.39567 0.60489 1.25578
 N2840 N 0.38653 0.58803 1.24664
 N2841 N 0.39375 0.58062 1.22849
 C2842 C 0.41033 0.58984 1.21893
 N2843 N 0.41948 0.60668 1.22808
 N2844 N 0.41226 0.61410 1.24623
 C2845 C 0.38765 0.61310 1.27512
 C2846 C 0.38078 0.62008 1.29128
 C2847 C 0.41786 0.58210 1.19920
 C2848 C 0.42409 0.57576 1.18253
 C2849 C 1.10358 1.25585 0.89602
 N2850 N 1.08688 1.24648 0.88682
 N2851 N 1.07971 1.22826 0.89405
 C2852 C 1.08903 1.21886 0.91069
 N2853 N 1.10572 1.22824 0.91990
 N2854 N 1.11288 1.24646 0.91267
 C2855 C 1.11153 1.27527 0.88800
 C2856 C 1.11835 1.29149 0.88115
 C2857 C 1.08156 1.19906 0.91822
 C2858 C 1.07540 1.18233 0.92443
 C2859 C 1.10374 0.75545 0.39574
 N2860 N 1.08709 0.74602 0.38653
 N2861 N 1.07995 0.72780 0.39378
 C2862 C 1.08925 0.71845 0.41046
 N2863 N 1.10590 0.72789 0.41968
 N2864 N 1.11304 0.74612 0.41243
 C2865 C 1.11166 0.77488 0.38771
 C2866 C 1.11844 0.79111 0.38086
 C2867 C 1.08181 0.69865 0.41802
 C2868 C 1.07567 0.68192 0.42425
 C2869 C 0.60369 1.25567 0.39593
 N2870 N 0.61299 1.24620 0.41254
 N2871 N 0.60577 1.22799 0.41974
 C2872 C 0.58903 1.21870 0.41055
 N2873 N 0.57971 1.22817 0.39395
 N2874 N 0.58693 1.24639 0.38675
 C2875 C 0.61170 1.27508 0.38794
 C2876 C 0.61854 1.29129 0.38110
 C2877 C 0.58150 1.19891 0.41806
 C2878 C 0.57530 1.18219 0.42425
 C2879 C 0.60356 0.75570 0.89671
 N2880 N 0.61311 0.74603 0.91307
 N2881 N 0.60593 0.72778 0.92021
 C2882 C 0.58899 0.71865 0.91122
 N2883 N 0.57943 0.72833 0.89488
 N2884 N 0.58661 0.74657 0.88773
 C2885 C 0.61152 0.77515 0.88877
 C2886 C 0.61832 0.79139 0.88197
 C2887 C 0.58149 0.69883 0.91867
 C2888 C 0.57532 0.68208 0.92481
 C2889 C 0.89565 1.25550 1.10492
 N2890 N 0.91278 1.24641 1.11363
 N2891 N 0.92002 1.22826 1.10627
 C2892 C 0.91034 1.21865 1.08997
 N2893 N 0.89322 1.22774 1.08125
 N2894 N 0.88599 1.24589 1.08861
 C2895 C 0.88763 1.27485 1.11308
 C2896 C 0.88076 1.29103 1.12003
 C2897 C 0.91791 1.19891 1.08229
 C2898 C 0.92415 1.18224 1.07597
 C2899 C 0.89660 0.75577 0.60334
 N2900 N 0.91360 0.74665 0.61226
 N2901 N 0.92076 0.72838 0.60512
 C2902 C 0.91113 0.71868 0.58885
 N2903 N 0.89414 0.72781 0.57992
 N2904 N 0.88698 0.74608 0.58706
 C2905 C 0.88865 0.77524 0.61129
 C2906 C 0.88185 0.79150 0.61808
 C2907 C 0.91860 0.69883 0.58141
 C2908 C 0.92475 0.68205 0.57529
 C2909 C 0.39624 1.25586 0.60386
 N2910 N 0.38707 1.24664 0.58705
 N2911 N 0.39419 1.22839 0.57983
 C2912 C 0.41069 1.21881 0.58919
 N2913 N 0.41987 1.22804 0.60599
 N2914 N 0.41275 1.24629 0.61322
 C2915 C 0.38834 1.27533 0.61187
 C2916 C 0.38157 1.29159 0.61870
 C2917 C 0.41812 1.19898 0.58165
 C2918 C 0.42426 1.18223 0.57544
 C2919 C 0.39561 0.75533 1.10500
 N2920 N 0.41227 0.74588 1.11421
 N2921 N 0.41950 0.72770 1.10690
 C2922 C 0.41029 0.71843 1.09014
 N2923 N 0.39364 0.72788 1.08092
 N2924 N 0.38641 0.74605 1.08823
 C2925 C 0.38760 0.77471 1.11309
 C2926 C 0.38074 0.79091 1.11999
 C2927 C 0.41784 0.69868 1.08250
 C2928 C 0.42408 0.68199 1.07621
 C2929 C 0.89632 0.74440 0.89664
 N2930 N 0.88720 0.75376 0.91341
 N2931 N 0.89439 0.77200 0.92054
 C2932 C 0.91093 0.78144 0.91111
 N2933 N 0.92006 0.77208 0.89435
 N2934 N 0.91286 0.75383 0.88722
 C2935 C 0.88833 0.72495 0.88872
 C2936 C 0.88152 0.70871 0.88193
 C2937 C 0.91842 0.80127 0.91855
 C2938 C 0.92460 0.81802 0.92468
 C2939 C 0.89625 0.24402 0.39696
 N2940 N 0.88287 0.26011 0.40067
 N2941 N 0.89003 0.27841 0.40767
 C2942 C 0.91079 0.28119 0.41117
 N2943 N 0.92419 0.26511 0.40746
 N2944 N 0.91702 0.24680 0.40046
 C2945 C 0.88852 0.22442 0.38918
 C2946 C 0.88189 0.20805 0.38252
 C2947 C 0.91847 0.30098 0.41852
 C2948 C 0.92475 0.31770 0.42462
 C2949 C 0.39543 0.74477 0.39495
 N2950 N 0.38628 0.75404 0.41175
 N2951 N 0.39354 0.77219 0.41907
 C2952 C 0.41017 0.78162 0.40980
 N2953 N 0.41932 0.77234 0.39301
 N2954 N 0.41207 0.75419 0.38569
 C2955 C 0.38739 0.72541 0.38686
 C2956 C 0.38053 0.70922 0.37996
 C2957 C 0.41775 0.80134 0.41745
 C2958 C 0.42401 0.81800 0.42375
 C2959 C 0.39579 0.24446 0.89599
 N2960 N 0.38678 0.25367 0.91290
 N2961 N 0.39401 0.27186 0.92014
 C2962 C 0.41048 0.28139 0.91069
 N2963 N 0.41950 0.27217 0.89380
 N2964 N 0.41227 0.25398 0.88655
 C2965 C 0.38777 0.22506 0.88797
 C2966 C 0.38093 0.20886 0.88111
 C2967 C 0.41802 0.30115 0.91826
 C2968 C 0.42425 0.31785 0.92449
 C2969 C 1.10463 0.74499 1.10530
 N2970 N 1.08793 0.75443 1.11445
 N2971 N 1.08068 0.77257 1.10705
 C2972 C 1.08992 0.78182 1.09029
 N2973 N 1.10661 0.77237 1.08114
 N2974 N 1.11386 0.75423 1.08854
 C2975 C 1.11266 0.72564 1.11348
 C2976 C 1.11953 0.70947 1.12042
 C2977 C 1.08234 0.80153 1.08256
 C2978 C 1.07607 0.81818 1.07620
 C2979 C 1.10443 0.24453 0.60505
 N2980 N 1.08770 0.25396 0.61415
 N2981 N 1.08049 0.27211 0.60676
 C2982 C 1.08979 0.28138 0.59005
 N2983 N 1.10651 0.27194 0.58094
 N2984 N 1.11372 0.25379 0.58833
 C2985 C 1.11243 0.22517 0.61322
 C2986 C 1.11928 0.20899 0.62017
 C2987 C 1.08226 0.30112 0.58235
 C2988 C 1.07603 0.31779 0.57601
 C2989 C 0.60340 0.74405 0.60333
 N2990 N 0.61279 0.75354 0.58680
 N2991 N 0.60564 0.77180 0.57964
 C2992 C 0.58889 0.78113 0.58880
 N2993 N 0.57948 0.77164 0.60532
 N2994 N 0.58663 0.75337 0.61248
 C2995 C 0.61134 0.72458 0.61129
 C2996 C 0.61814 0.70833 0.61810
 C2997 C 0.58143 0.80098 0.58133
 C2998 C 0.57528 0.81775 0.57518
 C2999 C 0.60417 0.24439 1.10488
 N3000 N 0.61339 0.25368 1.08814
 N3001 N 0.60615 0.27185 1.08082
 C3002 C 0.58948 0.28128 1.09003
 N3003 N 0.58025 0.27199 1.10677
 N3004 N 0.58749 0.25382 1.11408
 C3005 C 0.61220 0.22502 1.11299
 C3006 C 0.61907 0.20883 1.11990
 C3007 C 0.58192 0.30103 1.08239
 C3008 C 0.57569 0.31772 1.07610
 C3009 C 1.25563 1.10446 0.89635
 N3010 N 1.24618 1.11356 0.91308
 N3011 N 1.22799 1.10624 0.92022
 C3012 C 1.21869 1.08961 0.91084
 N3013 N 1.22814 1.08050 0.89411
 N3014 N 1.24633 1.08782 0.88698
 C3015 C 1.27502 1.11258 0.88842
 C3016 C 1.29122 1.11949 0.88161
 C3017 C 1.19891 1.08198 0.91828
 C3018 C 1.18220 1.07572 0.92443
 C3019 C 1.25550 0.60456 0.39556
 N3020 N 1.24611 0.61365 0.41232
 N3021 N 1.22798 0.60627 0.41957
 C3022 C 1.21870 0.58957 0.41028
 N3023 N 1.22811 0.58047 0.39353
 N3024 N 1.24624 0.58785 0.38628
 C3025 C 1.27483 0.61273 0.38752
 C3026 C 1.29097 0.61970 0.38063
 C3027 C 1.19899 0.58188 0.41784
 C3028 C 1.18234 0.57556 0.42409
 C3029 C 0.75607 1.10297 0.39701
 N3030 N 0.74651 1.08661 0.38741
 N3031 N 0.72817 1.07952 0.39443
 C3032 C 0.71885 1.08858 0.41125
 N3033 N 0.72842 1.10493 0.42086
 N3034 N 0.74675 1.11202 0.41384
 C3035 C 0.77561 1.11085 0.38921
 C3036 C 0.79192 1.11760 0.38253
 C3037 C 0.69893 1.08120 0.41857
 C3038 C 0.68211 1.07512 0.42461
 C3039 C 0.75565 0.60359 0.89667
 N3040 N 0.74623 0.61279 0.91336
 N3041 N 0.72799 0.60558 0.92051
 C3042 C 0.71863 0.58895 0.91118
 N3043 N 0.72806 0.57974 0.89451
 N3044 N 0.74629 0.58695 0.88736
 C3045 C 0.77509 0.61158 0.88873
 C3046 C 0.79132 0.61841 0.88194
 C3047 C 0.69881 0.58144 0.91864
 C3048 C 0.68207 0.57525 0.92479
 C3049 C 1.25553 0.89551 1.10436
 N3050 N 1.24633 0.91238 1.11347
 N3051 N 1.22817 0.91971 1.10622
 C3052 C 1.21866 0.91041 1.08965
 N3053 N 1.22786 0.89355 1.08054
 N3054 N 1.24602 0.88622 1.08778
 C3055 C 1.27489 0.88738 1.11241
 C3056 C 1.29105 0.88045 1.11930
 C3057 C 1.19891 0.91805 1.08210
 C3058 C 1.18223 0.92435 1.07586
 C3059 C 1.25620 0.39595 0.60344
 N3060 N 1.24682 0.41257 0.61279
 N3061 N 1.22856 0.41979 0.60567
 C3062 C 1.21914 0.41060 0.58898
 N3063 N 1.22854 0.39399 0.57962
 N3064 N 1.24680 0.38678 0.58674
 C3065 C 1.27565 0.38794 0.61137
 C3066 C 1.29190 0.38109 0.61816
 C3067 C 1.19930 0.41811 0.58155
 C3068 C 1.18254 0.42430 0.57543
 C3069 C 0.75574 0.89646 0.60330
 N3070 N 0.74646 0.91328 0.61240
 N3071 N 0.72818 0.92042 0.60524
 C3072 C 0.71864 0.91096 0.58878
 N3073 N 0.72793 0.89416 0.57967
 N3074 N 0.74620 0.88701 0.58683
 C3075 C 0.77521 0.88852 0.61126
 C3076 C 0.79147 0.88174 0.61806
 C3077 C 0.69879 0.91842 0.58132
 C3078 C 0.68202 0.92457 0.57518
 C3079 C 0.75532 0.39530 1.10479
 N3080 N 0.74592 0.41198 1.11403
 N3081 N 0.72776 0.41926 1.10674
 C3082 C 0.71844 0.41008 1.08999
 N3083 N 0.72784 0.39341 1.08074
 N3084 N 0.74601 0.38613 1.08803
 C3085 C 0.77469 0.38723 1.11287
 C3086 C 0.79087 0.38034 1.11976
 C3087 C 0.69869 0.41767 1.08238
 C3088 C 0.68201 0.42393 1.07610
 C3089 C 0.74448 1.10452 1.10448
 N3090 N 0.75368 1.11354 1.08758
 N3091 N 0.77186 1.10629 1.08031
 C3092 C 0.78139 1.08979 1.08972
 N3093 N 0.77219 1.08075 1.10661
 N3094 N 0.75401 1.08801 1.11389
 C3095 C 0.72510 1.11258 1.11255
 C3096 C 0.70892 1.11947 1.11943
 C3097 C 0.80116 1.08222 1.08213
 C3098 C 0.81786 1.07598 1.07588
 C3099 C 0.74419 0.60329 0.60340
 N3100 N 0.75353 0.61250 0.58668
 N3101 N 0.77182 0.60537 0.57954
 C3102 C 0.78130 0.58881 0.58890
 N3103 N 0.77194 0.57959 0.60561
 N3104 N 0.75366 0.58673 0.61275
 C3105 C 0.72471 0.61123 0.61133
 C3106 C 0.70844 0.61802 0.61812
 C3107 C 0.80116 0.58137 0.58147
 C3108 C 0.81794 0.57524 0.57534
 C3109 C 0.24447 1.10451 0.60455
 N3110 N 0.25363 1.11354 0.58763
 N3111 N 0.27177 1.10626 0.58029
 C3112 C 0.28131 1.08973 0.58964
 N3113 N 0.27214 1.08068 0.60655
 N3114 N 0.25400 1.08796 0.61389
 C3115 C 0.22513 1.11259 0.61269
 C3116 C 0.20898 1.11950 0.61963
 C3117 C 0.30104 1.08214 0.58198
 C3118 C 0.31771 1.07588 0.57568
 C3119 C 0.24461 0.60472 1.10472
 N3120 N 0.25393 0.61380 1.08792
 N3121 N 0.27207 0.60644 1.08064
 C3122 C 0.28143 0.58978 1.08994
 N3123 N 0.27210 0.58068 1.10673
 N3124 N 0.25396 0.58804 1.11401
 C3125 C 0.22528 0.61289 1.11280
 C3126 C 0.20914 0.61985 1.11972
 C3127 C 0.30116 0.58211 1.08236
 C3128 C 0.31783 0.57580 1.07611
 C3129 C 0.74413 0.89657 0.89664
 N3130 N 0.75347 0.88749 0.91343
 N3131 N 0.77172 0.89469 0.92057
 C3132 C 0.78117 0.91119 0.91112
 N3133 N 0.77183 0.92029 0.89433
 N3134 N 0.75358 0.91309 0.88719
 C3135 C 0.72469 0.88857 0.88871
 C3136 C 0.70845 0.88174 0.88192
 C3137 C 0.80100 0.91869 0.91855
 C3138 C 0.81775 0.92486 0.92469
 C3139 C 0.74455 0.39614 0.39592
 N3140 N 0.75399 0.41276 0.38666
 N3141 N 0.77221 0.41991 0.39390
 C3142 C 0.78154 0.41067 0.41062
 N3143 N 0.77209 0.39406 0.41989
 N3144 N 0.75387 0.38690 0.41265
 C3145 C 0.72512 0.38819 0.38790
 C3146 C 0.70890 0.38140 0.38105
 C3147 C 0.80134 0.41813 0.41817
 C3148 C 0.81806 0.42430 0.42438
 C3149 C 0.24410 0.89636 0.39584
 N3150 N 0.25356 0.91292 0.38648
 N3151 N 0.27178 0.92011 0.39368
 C3152 C 0.28109 0.91097 0.41047
 N3153 N 0.27163 0.89443 0.41984
 N3154 N 0.25341 0.88723 0.41263
 C3155 C 0.22470 0.88836 0.38783
 C3156 C 0.20849 0.88152 0.38099
 C3157 C 0.30089 0.91847 0.41798
 C3158 C 0.31763 0.92464 0.42416
 C3159 C 0.24421 0.39647 0.89610
 N3160 N 0.25321 0.38763 0.91322
 N3161 N 0.27143 0.39478 0.92047
 C3162 C 0.28120 0.41099 0.91081
 N3163 N 0.27219 0.41983 0.89370
 N3164 N 0.25397 0.41268 0.88646
 C3165 C 0.22479 0.38851 0.88807
 C3166 C 0.20858 0.38170 0.88121
 C3167 C 0.30100 0.41843 0.91837
 C3168 C 0.31773 0.42458 0.92459
   
