data_POSCAR
  _audit_creation_date              2014-09-24
  _audit_creation_method            'ToBaCCo'
  _symmetry_space_group_name_H-M    'P1'
  _symmetry_Int_Tables_number       1
  _symmetry_cell_setting            triclinic
  loop_
  _symmetry_equiv_pos_as_xyz
 x,y,z
_cell_length_a 93.6794
_cell_length_b 93.8474
_cell_length_c 93.7779
_cell_angle_alpha 89.977800
_cell_angle_beta 89.957300
_cell_angle_gamma 89.939500
loop_
  _atom_site_label
  _atom_site_type_symbol
  _atom_site_fract_x
  _atom_site_fract_y
  _atom_site_fract_z
N1 N 0.36151 0.32208 0.33217
 N2 N 0.36146 0.33215 0.32239
 C3 C 0.37266 0.33017 0.31358
 C4 C 0.38001 0.31829 0.31815
 C5 C 0.37272 0.31338 0.32992
 H6 H 0.37534 0.33687 0.30459
 H7 H 0.37542 0.30423 0.33640
 Cu8 Cu 0.34695 0.34698 0.32239
 Cu9 Cu 0.34725 0.32121 0.34726
 Cu10 Cu 0.32108 0.34741 0.34722
 N11 N 0.33214 0.36154 0.32234
 N12 N 0.32203 0.36161 0.33209
 C13 C 0.31332 0.37279 0.32981
 C14 C 0.31828 0.38005 0.31804
 C15 C 0.33019 0.37270 0.31350
 H16 H 0.30413 0.37550 0.33626
 H17 H 0.33693 0.37536 0.30453
 N18 N 0.32196 0.33214 0.36163
 N19 N 0.33193 0.32217 0.36163
 C20 C 0.32981 0.31348 0.37288
 C21 C 0.31802 0.31828 0.38022
 C22 C 0.31325 0.33006 0.37289
 H23 H 0.33639 0.30441 0.37562
 H24 H 0.30418 0.33666 0.37563
 H25 H 0.33124 0.33138 0.33602
 H26 H 0.34264 0.34275 0.34770
 N27 N 0.36184 0.82221 -0.16832
 N28 N 0.36163 0.83214 -0.17824
 C29 C 0.37284 0.83020 -0.18706
 C30 C 0.38031 0.81844 -0.18237
 C31 C 0.37312 0.81358 -0.17051
 H32 H 0.37544 0.83685 -0.19611
 H33 H 0.37592 0.80451 -0.16395
 Cu34 Cu 0.34697 0.84684 -0.17824
 Cu35 Cu 0.34763 0.82137 -0.15316
 Cu36 Cu 0.32141 0.84757 -0.15317
 N37 N 0.33229 0.86154 -0.17825
 N38 N 0.32231 0.86174 -0.16836
 C39 C 0.31369 0.87302 -0.17055
 C40 C 0.31860 0.88021 -0.18237
 C41 C 0.33039 0.87275 -0.18705
 H42 H 0.30460 0.87582 -0.16400
 H43 H 0.33709 0.87536 -0.19607
 N44 N 0.32235 0.83232 -0.13872
 N45 N 0.33234 0.82235 -0.13873
 C46 C 0.33024 0.81366 -0.12748
 C47 C 0.31844 0.81843 -0.12014
 C48 C 0.31365 0.83022 -0.12746
 H49 H 0.33682 0.80459 -0.12475
 H50 H 0.30456 0.83678 -0.12472
 H51 H 0.33145 0.83141 -0.16420
 H52 H 0.34297 0.84291 -0.15284
 N53 N 0.86128 0.32253 -0.16806
 N54 N 0.86118 0.33254 -0.17790
 C55 C 0.87235 0.33051 -0.18674
 C56 C 0.87972 0.31867 -0.18213
 C57 C 0.87248 0.31381 -0.17031
 H58 H 0.87499 0.33716 -0.19578
 H59 H 0.87521 0.30470 -0.16379
 Cu60 Cu 0.84664 0.34735 -0.17790
 Cu61 Cu 0.84708 0.32172 -0.15291
 Cu62 Cu 0.82094 0.34795 -0.15294
 N63 N 0.83189 0.36196 -0.17794
 N64 N 0.82184 0.36210 -0.16812
 C65 C 0.81314 0.37330 -0.17038
 C66 C 0.81807 0.38050 -0.18220
 C67 C 0.82993 0.37311 -0.18680
 H68 H 0.80400 0.37605 -0.16389
 H69 H 0.83663 0.37571 -0.19583
 N70 N 0.82186 0.33273 -0.13847
 N71 N 0.83181 0.32274 -0.13848
 C72 C 0.82972 0.31409 -0.12721
 C73 C 0.81796 0.31891 -0.11985
 C74 C 0.81318 0.33069 -0.12719
 H75 H 0.83628 0.30500 -0.12448
 H76 H 0.80412 0.33728 -0.12444
 H77 H 0.83101 0.33183 -0.16409
 H78 H 0.84249 0.34325 -0.15256
 N79 N 0.86138 0.82247 0.33208
 N80 N 0.86111 0.83230 0.32209
 C81 C 0.87235 0.83039 0.31332
 C82 C 0.87995 0.81877 0.31814
 C83 C 0.87277 0.81395 0.33002
 H84 H 0.87489 0.83696 0.30420
 H85 H 0.87566 0.80499 0.33668
 Cu86 Cu 0.84631 0.84686 0.32163
 Cu87 Cu 0.84715 0.82165 0.34717
 Cu88 Cu 0.82101 0.84785 0.34714
 N89 N 0.83183 0.86172 0.32205
 N90 N 0.82195 0.86203 0.33202
 C91 C 0.81341 0.87338 0.32990
 C92 C 0.81828 0.88051 0.31802
 C93 C 0.82994 0.87292 0.31323
 H94 H 0.80441 0.87627 0.33653
 H95 H 0.83654 0.87540 0.30410
 N96 N 0.82189 0.83259 0.36155
 N97 N 0.83185 0.82261 0.36155
 C98 C 0.82971 0.81391 0.37278
 C99 C 0.81791 0.81869 0.38011
 C100 C 0.81316 0.83049 0.37279
 H101 H 0.83626 0.80480 0.37549
 H102 H 0.80406 0.83706 0.37551
 H103 H 0.83088 0.83157 0.33600
 H104 H 0.84257 0.84323 0.34711
 N105 N 0.63854 0.67786 0.33221
 N106 N 0.63857 0.66781 0.32242
 C107 C 0.62737 0.66981 0.31363
 C108 C 0.62003 0.68169 0.31824
 C109 C 0.62734 0.68657 0.32999
 H110 H 0.62468 0.66313 0.30463
 H111 H 0.62465 0.69572 0.33649
 Cu112 Cu 0.65317 0.65304 0.32236
 Cu113 Cu 0.65279 0.67873 0.34728
 Cu114 Cu 0.67903 0.65260 0.34716
 N115 N 0.66802 0.63854 0.32225
 N116 N 0.67812 0.63846 0.33200
 C117 C 0.68686 0.62730 0.32967
 C118 C 0.68193 0.62008 0.31788
 C119 C 0.67000 0.62741 0.31338
 H120 H 0.69604 0.62458 0.33611
 H121 H 0.66326 0.62475 0.30442
 N122 N 0.67810 0.66783 0.36162
 N123 N 0.66811 0.67779 0.36164
 C124 C 0.67020 0.68646 0.37289
 C125 C 0.68199 0.68168 0.38022
 C126 C 0.68680 0.66991 0.37288
 H127 H 0.66361 0.69552 0.37564
 H128 H 0.69588 0.66334 0.37560
 H129 H 0.66885 0.66864 0.33600
 H130 H 0.65747 0.65721 0.34766
 N131 N 0.63856 0.17742 -0.16798
 N132 N 0.63880 0.16757 -0.17794
 C133 C 0.62753 0.16947 -0.18668
 C134 C 0.61994 0.18111 -0.18186
 C135 C 0.62717 0.18594 -0.17003
 H136 H 0.62500 0.16292 -0.19581
 H137 H 0.62432 0.19494 -0.16340
 Cu138 Cu 0.65371 0.15311 -0.17845
 Cu139 Cu 0.65281 0.17832 -0.15293
 Cu140 Cu 0.67908 0.15228 -0.15301
 N141 N 0.66834 0.13836 -0.17809
 N142 N 0.67824 0.13813 -0.16815
 C143 C 0.68685 0.12683 -0.17029
 C144 C 0.68202 0.11968 -0.18216
 C145 C 0.67030 0.12718 -0.18691
 H146 H 0.69587 0.12398 -0.16368
 H147 H 0.66369 0.12464 -0.19602
 N148 N 0.67813 0.16750 -0.13857
 N149 N 0.66813 0.17745 -0.13857
 C150 C 0.67022 0.18615 -0.12734
 C151 C 0.68202 0.18140 -0.12000
 C152 C 0.68683 0.16962 -0.12733
 H153 H 0.66362 0.19521 -0.12461
 H154 H 0.69593 0.16307 -0.12460
 H155 H 0.66909 0.16847 -0.16412
 H156 H 0.65745 0.15676 -0.15296
 N157 N 0.13846 0.67778 -0.16782
 N158 N 0.13867 0.66794 -0.17782
 C159 C 0.12741 0.66992 -0.18655
 C160 C 0.11987 0.68158 -0.18171
 C161 C 0.12711 0.68636 -0.16986
 H162 H 0.12485 0.66339 -0.19569
 H163 H 0.12429 0.69534 -0.16321
 Cu164 Cu 0.15352 0.65343 -0.17833
 Cu165 Cu 0.15271 0.67859 -0.15277
 Cu166 Cu 0.17887 0.65246 -0.15290
 N167 N 0.16808 0.63862 -0.17799
 N168 N 0.17798 0.63834 -0.16805
 C169 C 0.18654 0.62701 -0.17020
 C170 C 0.18170 0.61988 -0.18208
 C171 C 0.17001 0.62744 -0.18681
 H172 H 0.19555 0.62412 -0.16359
 H173 H 0.16340 0.62492 -0.19591
 N174 N 0.17798 0.66765 -0.13844
 N175 N 0.16802 0.67763 -0.13842
 C176 C 0.17016 0.68632 -0.12719
 C177 C 0.18196 0.68153 -0.11989
 C178 C 0.18672 0.66974 -0.12722
 H179 H 0.16362 0.69542 -0.12447
 H180 H 0.19582 0.66318 -0.12454
 H181 H 0.16895 0.66872 -0.16401
 H182 H 0.15727 0.65704 -0.15286
 N183 N 0.13842 0.17773 0.33220
 N184 N 0.13862 0.16786 0.32225
 C185 C 0.12737 0.16981 0.31350
 C186 C 0.11983 0.18148 0.31831
 C187 C 0.12706 0.18628 0.33015
 H188 H 0.12482 0.16325 0.30437
 H189 H 0.12424 0.19529 0.33677
 Cu190 Cu 0.15351 0.15338 0.32172
 Cu191 Cu 0.15269 0.17860 0.34724
 Cu192 Cu 0.17889 0.15251 0.34714
 N193 N 0.16808 0.13859 0.32210
 N194 N 0.17801 0.13835 0.33202
 C195 C 0.18660 0.12705 0.32984
 C196 C 0.18176 0.11991 0.31796
 C197 C 0.17003 0.12743 0.31327
 H198 H 0.19565 0.12420 0.33641
 H199 H 0.16343 0.12491 0.30415
 N200 N 0.17799 0.16774 0.36157
 N201 N 0.16801 0.17770 0.36158
 C202 C 0.17009 0.18638 0.37283
 C203 C 0.18188 0.18160 0.38017
 C204 C 0.18669 0.16983 0.37283
 H205 H 0.16349 0.19543 0.37558
 H206 H 0.19576 0.16325 0.37557
 H207 H 0.16892 0.16873 0.33604
 H208 H 0.15728 0.15705 0.34720
 N209 N 0.63832 0.32221 0.66786
 N210 N 0.63853 0.33205 0.67785
 C211 C 0.62728 0.33010 0.68661
 C212 C 0.61974 0.31845 0.68178
 C213 C 0.62697 0.31366 0.66992
 H214 H 0.62473 0.33663 0.69576
 H215 H 0.62416 0.30467 0.66328
 Cu216 Cu 0.65342 0.34652 0.67835
 Cu217 Cu 0.65260 0.32132 0.65281
 Cu218 Cu 0.67883 0.34732 0.65296
 N219 N 0.66802 0.36127 0.67802
 N220 N 0.67795 0.36149 0.66808
 C221 C 0.68656 0.37276 0.67024
 C222 C 0.68172 0.37994 0.68211
 C223 C 0.66999 0.37244 0.68684
 H224 H 0.69561 0.37557 0.66365
 H225 H 0.66338 0.37499 0.69595
 N226 N 0.67794 0.33211 0.63851
 N227 N 0.66794 0.32219 0.63846
 C228 C 0.67010 0.31349 0.62723
 C229 C 0.68196 0.31821 0.61996
 C230 C 0.68672 0.32997 0.62732
 H231 H 0.66352 0.30444 0.62447
 H232 H 0.69585 0.33649 0.62465
 H233 H 0.66882 0.33113 0.66405
 H234 H 0.65721 0.34286 0.65288
 N235 N 0.63844 0.82231 1.16797
 N236 N 0.63867 0.83214 1.17796
 C237 C 0.62741 0.83020 1.18671
 C238 C 0.61985 0.81858 1.18187
 C239 C 0.62708 0.81379 1.17001
 H240 H 0.62486 0.83673 1.19587
 H241 H 0.62425 0.80481 1.16336
 Cu242 Cu 0.65355 0.84659 1.17849
 Cu243 Cu 0.65269 0.82143 1.15292
 Cu244 Cu 0.67892 0.84745 1.15303
 N245 N 0.66813 0.86133 1.17813
 N246 N 0.67803 0.86157 1.16817
 C247 C 0.68661 0.87286 1.17031
 C248 C 0.68178 0.88002 1.18219
 C249 C 0.67007 0.87251 1.18694
 H250 H 0.69564 0.87570 1.16370
 H251 H 0.66347 0.87505 1.19606
 N252 N 0.67800 0.83224 1.13859
 N253 N 0.66801 0.82232 1.13856
 C254 C 0.67012 0.81363 1.12732
 C255 C 0.68193 0.81837 1.12001
 C256 C 0.68673 0.83013 1.12735
 H257 H 0.66353 0.80458 1.12458
 H258 H 0.69583 0.83667 1.12463
 H259 H 0.66895 0.83124 1.16412
 H260 H 0.65731 0.84299 1.15300
 N261 N 0.13831 0.32235 1.16798
 N262 N 0.13838 0.33239 1.17777
 C263 C 0.12718 0.33043 1.18659
 C264 C 0.11982 0.31858 1.18201
 C265 C 0.12710 0.31367 1.17023
 H266 H 0.12453 0.33711 1.19561
 H267 H 0.12440 0.30453 1.16375
 Cu268 Cu 0.15299 0.34711 1.17781
 Cu269 Cu 0.15255 0.32140 1.15288
 Cu270 Cu 0.17888 0.34739 1.15301
 N271 N 0.16790 0.36153 1.17790
 N272 N 0.17801 0.36154 1.16816
 C273 C 0.18679 0.37265 1.17046
 C274 C 0.18188 0.37992 1.18224
 C275 C 0.16992 0.37266 1.18676
 H276 H 0.19598 0.37532 1.16400
 H277 H 0.16317 0.37537 1.19572
 N278 N 0.17790 0.33218 1.13856
 N279 N 0.16788 0.32228 1.13851
 C280 C 0.16996 0.31363 1.12722
 C281 C 0.18179 0.31837 1.11993
 C282 C 0.18662 0.33008 1.12732
 H283 H 0.16333 0.30462 1.12443
 H284 H 0.19573 0.33661 1.12461
 H285 H 0.16862 0.33141 1.16417
 H286 H 0.15730 0.34290 1.15250
 N287 N 0.13829 0.82228 0.66773
 N288 N 0.13849 0.83216 0.67768
 C289 C 0.12724 0.83024 0.68644
 C290 C 0.11972 0.81857 0.68166
 C291 C 0.12695 0.81373 0.66983
 H292 H 0.12467 0.83683 0.69555
 H293 H 0.12415 0.80470 0.66323
 Cu294 Cu 0.15333 0.84667 0.67813
 Cu295 Cu 0.15257 0.82135 0.65269
 Cu296 Cu 0.17871 0.84744 0.65271
 N297 N 0.16785 0.86148 0.67768
 N298 N 0.17776 0.86168 0.66773
 C299 C 0.18635 0.87298 0.66982
 C300 C 0.18149 0.88020 0.68165
 C301 C 0.16979 0.87270 0.68644
 H302 H 0.19542 0.87576 0.66324
 H303 H 0.16320 0.87525 0.69556
 N304 N 0.17788 0.83215 0.63837
 N305 N 0.16791 0.82221 0.63834
 C306 C 0.17009 0.81348 0.62714
 C307 C 0.18194 0.81822 0.61987
 C308 C 0.18666 0.83002 0.62718
 H309 H 0.16353 0.80441 0.62440
 H310 H 0.19576 0.83657 0.62448
 H311 H 0.16877 0.83124 0.66389
 H312 H 0.15712 0.84290 0.65268
 N313 N 0.36156 0.67784 0.66801
 N314 N 0.36136 0.66793 0.67794
 C315 C 0.37258 0.66988 0.68672
 C316 C 0.38008 0.68158 0.68198
 C317 C 0.37286 0.68642 0.67013
 H318 H 0.37514 0.66329 0.69584
 H319 H 0.37567 0.69545 0.66354
 Cu320 Cu 0.34656 0.65338 0.67834
 Cu321 Cu 0.34734 0.67874 0.65293
 Cu322 Cu 0.32126 0.65257 0.65286
 N323 N 0.33205 0.63855 0.67789
 N324 N 0.32217 0.63833 0.66792
 C325 C 0.31361 0.62700 0.67001
 C326 C 0.31844 0.61979 0.68186
 C327 C 0.33011 0.62733 0.68665
 H328 H 0.30459 0.62419 0.66340
 H329 H 0.33668 0.62479 0.69579
 N330 N 0.32212 0.66788 0.63851
 N331 N 0.33205 0.67786 0.63855
 C332 C 0.32992 0.68661 0.62735
 C333 C 0.31814 0.68185 0.62000
 C334 C 0.31340 0.67002 0.62727
 H335 H 0.33647 0.69570 0.62466
 H336 H 0.30435 0.66344 0.62451
 H337 H 0.33113 0.66877 0.66406
 H338 H 0.34286 0.65717 0.65287
 N339 N 0.36179 0.17774 1.16790
 N340 N 0.36164 0.16775 1.17775
 C341 C 0.37281 0.16968 1.18658
 C342 C 0.38027 0.18145 1.18195
 C343 C 0.37306 0.18637 1.17013
 H344 H 0.37540 0.16302 1.19563
 H345 H 0.37584 0.19546 1.16362
 Cu346 Cu 0.34702 0.15305 1.17787
 Cu347 Cu 0.34757 0.17867 1.15279
 Cu348 Cu 0.32137 0.15258 1.15285
 N349 N 0.33228 0.13846 1.17778
 N350 N 0.32226 0.13838 1.16795
 C351 C 0.31359 0.12716 1.17016
 C352 C 0.31848 0.11989 1.18194
 C353 C 0.33031 0.12727 1.18657
 H354 H 0.30447 0.12444 1.16364
 H355 H 0.33698 0.12462 1.19560
 N356 N 0.32228 0.16784 1.13846
 N357 N 0.33227 0.17778 1.13841
 C358 C 0.33013 0.18647 1.12717
 C359 C 0.31829 0.18171 1.11990
 C360 C 0.31354 0.16995 1.12725
 H361 H 0.33670 0.19552 1.12440
 H362 H 0.30445 0.16339 1.12456
 H363 H 0.33149 0.16865 1.16401
 H364 H 0.34298 0.15714 1.15250
 N365 N 0.86153 0.67784 1.16791
 N366 N 0.86138 0.66785 1.17776
 C367 C 0.87259 0.66976 1.18656
 C368 C 0.88007 0.68151 1.18189
 C369 C 0.87283 0.68643 1.17009
 H370 H 0.87519 0.66310 1.19559
 H371 H 0.87563 0.69550 1.16354
 Cu372 Cu 0.84673 0.65320 1.17779
 Cu373 Cu 0.84729 0.67873 1.15279
 Cu374 Cu 0.82112 0.65251 1.15286
 N375 N 0.83213 0.63848 1.17782
 N376 N 0.82211 0.63831 1.16800
 C377 C 0.81349 0.62707 1.17026
 C378 C 0.81841 0.61988 1.18208
 C379 C 0.83022 0.62733 1.18668
 H380 H 0.80437 0.62428 1.16377
 H381 H 0.83689 0.62477 1.19572
 N382 N 0.82199 0.66779 1.13845
 N383 N 0.83194 0.67776 1.13843
 C384 C 0.82979 0.68646 1.12720
 C385 C 0.81799 0.68168 1.11990
 C386 C 0.81326 0.66988 1.12722
 H387 H 0.83634 0.69554 1.12444
 H388 H 0.80420 0.66330 1.12449
 H389 H 0.83116 0.66869 1.16387
 H390 H 0.84267 0.65721 1.15241
 N391 N 0.86153 0.17787 0.66776
 N392 N 0.86126 0.16804 0.67778
 C393 C 0.87248 0.16998 0.68655
 C394 C 0.88007 0.18159 0.68172
 C395 C 0.87290 0.18639 0.66983
 H396 H 0.87499 0.16344 0.69571
 H397 H 0.87577 0.19535 0.66317
 Cu398 Cu 0.84646 0.15354 0.67831
 Cu399 Cu 0.84730 0.17870 0.65270
 Cu400 Cu 0.82118 0.15256 0.65281
 N401 N 0.83197 0.13870 0.67791
 N402 N 0.82210 0.13841 0.66794
 C403 C 0.81358 0.12706 0.67007
 C404 C 0.81843 0.11993 0.68196
 C405 C 0.83007 0.12752 0.68672
 H406 H 0.80459 0.12417 0.66346
 H407 H 0.83666 0.12503 0.69586
 N408 N 0.82205 0.16778 0.63837
 N409 N 0.83200 0.17775 0.63834
 C410 C 0.82984 0.18646 0.62712
 C411 C 0.81803 0.18169 0.61983
 C412 C 0.81330 0.16989 0.62716
 H413 H 0.83637 0.19555 0.62439
 H414 H 0.80421 0.16332 0.62447
 H415 H 0.83106 0.16882 0.66389
 H416 H 0.84278 0.15712 0.65280
 N417 N 0.32207 0.36170 0.66783
 N418 N 0.33196 0.36146 0.67779
 C419 C 0.33001 0.37268 0.68655
 C420 C 0.31833 0.38023 0.68176
 C421 C 0.31350 0.37304 0.66992
 H422 H 0.33659 0.37522 0.69568
 H423 H 0.30448 0.37587 0.66330
 Cu424 Cu 0.34649 0.34662 0.67822
 Cu425 Cu 0.32117 0.34749 0.65277
 Cu426 Cu 0.34727 0.32131 0.65280
 N427 N 0.36131 0.33205 0.67781
 N428 N 0.36151 0.32217 0.66786
 C429 C 0.37282 0.31357 0.66997
 C430 C 0.38004 0.31837 0.68181
 C431 C 0.37253 0.33008 0.68658
 H432 H 0.37562 0.30454 0.66336
 H433 H 0.37510 0.33665 0.69569
 N434 N 0.33198 0.32222 0.63843
 N435 N 0.32203 0.33221 0.63840
 C436 C 0.31331 0.33010 0.62717
 C437 C 0.31807 0.31828 0.61988
 C438 C 0.32985 0.31350 0.62722
 H439 H 0.30425 0.33669 0.62442
 H440 H 0.33641 0.30440 0.62452
 H441 H 0.33107 0.33129 0.66397
 H442 H 0.34277 0.34289 0.65277
 N443 N 0.32220 0.86185 0.16753
 N444 N 0.33229 0.86179 0.17728
 C445 C 0.33033 0.87298 0.18609
 C446 C 0.31843 0.88032 0.18153
 C447 C 0.31349 0.87304 0.16978
 H448 H 0.33705 0.87564 0.19507
 H449 H 0.30430 0.87574 0.16333
 Cu450 Cu 0.34709 0.84723 0.17727
 Cu451 Cu 0.32126 0.84761 0.15246
 Cu452 Cu 0.34742 0.82140 0.15249
 N453 N 0.36163 0.83241 0.17729
 N454 N 0.36169 0.82232 0.16755
 C455 C 0.37290 0.81362 0.16983
 C456 C 0.38018 0.81857 0.18158
 C457 C 0.37282 0.83046 0.18611
 H458 H 0.37559 0.80443 0.16340
 H459 H 0.37548 0.83718 0.19509
 N460 N 0.33208 0.82231 0.13814
 N461 N 0.32213 0.83230 0.13812
 C462 C 0.31340 0.83018 0.12689
 C463 C 0.31815 0.81835 0.11962
 C464 C 0.32994 0.81357 0.12694
 H465 H 0.30434 0.83677 0.12414
 H466 H 0.33650 0.80448 0.12423
 H467 H 0.33140 0.83160 0.16369
 H468 H 0.34282 0.84293 0.15198
 N469 N 0.82203 0.36180 0.16772
 N470 N 0.83200 0.36158 0.17760
 C471 C 0.83007 0.37275 0.18643
 C472 C 0.81830 0.38024 0.18178
 C473 C 0.81342 0.37307 0.16993
 H474 H 0.83670 0.37529 0.19552
 H475 H 0.80439 0.37592 0.16334
 Cu476 Cu 0.84658 0.34680 0.17761
 Cu477 Cu 0.82112 0.34766 0.15254
 Cu478 Cu 0.84724 0.32136 0.15255
 N479 N 0.86126 0.33212 0.17761
 N480 N 0.86142 0.32216 0.16773
 C481 C 0.87264 0.31347 0.16997
 C482 C 0.87983 0.31830 0.18183
 C483 C 0.87240 0.33011 0.18646
 H484 H 0.87545 0.30443 0.16339
 H485 H 0.87497 0.33672 0.19555
 N486 N 0.83198 0.32241 0.13812
 N487 N 0.82204 0.33242 0.13810
 C488 C 0.81337 0.33038 0.12682
 C489 C 0.81813 0.31859 0.11949
 C490 C 0.82988 0.31375 0.12686
 H491 H 0.80433 0.33700 0.12406
 H492 H 0.83642 0.30465 0.12414
 H493 H 0.83108 0.33144 0.16361
 H494 H 0.84269 0.34291 0.15222
 N495 N 0.82204 0.86198 0.66777
 N496 N 0.83187 0.86163 0.67778
 C497 C 0.82995 0.87281 0.68659
 C498 C 0.81835 0.88046 0.68179
 C499 C 0.81354 0.87337 0.66987
 H500 H 0.83650 0.87526 0.69576
 H501 H 0.80457 0.87630 0.66322
 Cu502 Cu 0.84637 0.84678 0.67824
 Cu503 Cu 0.82117 0.84782 0.65265
 Cu504 Cu 0.84730 0.82164 0.65264
 N505 N 0.86122 0.83228 0.67773
 N506 N 0.86152 0.82246 0.66771
 C507 C 0.87290 0.81394 0.66979
 C508 C 0.88005 0.81873 0.68168
 C509 C 0.87243 0.83033 0.68651
 H510 H 0.87580 0.80498 0.66313
 H511 H 0.87492 0.83686 0.69567
 N512 N 0.83203 0.82259 0.63826
 N513 N 0.82207 0.83258 0.63824
 C514 C 0.81337 0.83048 0.62699
 C515 C 0.81813 0.81867 0.61969
 C516 C 0.82991 0.81388 0.62704
 H517 H 0.80430 0.83707 0.62425
 H518 H 0.83646 0.80479 0.62433
 H519 H 0.83103 0.83154 0.66377
 H520 H 0.84278 0.84324 0.65273
 N521 N 0.67802 0.63846 0.66832
 N522 N 0.66800 0.63863 0.67817
 C523 C 0.66994 0.62746 0.68700
 C524 C 0.68177 0.62003 0.68240
 C525 C 0.68668 0.62722 0.67057
 H526 H 0.66324 0.62484 0.69603
 H527 H 0.69577 0.62443 0.66404
 Cu528 Cu 0.65330 0.65329 0.67808
 Cu529 Cu 0.67892 0.65258 0.65309
 Cu530 Cu 0.65265 0.67872 0.65297
 N531 N 0.63853 0.66790 0.67799
 N532 N 0.63841 0.67785 0.66809
 C533 C 0.62714 0.68649 0.67023
 C534 C 0.61986 0.68165 0.68203
 C535 C 0.62729 0.66988 0.68676
 H536 H 0.62439 0.69556 0.66366
 H537 H 0.62465 0.66327 0.69583
 N538 N 0.66797 0.67776 0.63858
 N539 N 0.67796 0.66780 0.63860
 C540 C 0.68670 0.66992 0.62736
 C541 C 0.68191 0.68169 0.62002
 C542 C 0.67009 0.68645 0.62734
 H543 H 0.69581 0.66337 0.62466
 H544 H 0.66352 0.69553 0.62461
 H545 H 0.66885 0.66875 0.66411
 H546 H 0.65735 0.65719 0.65272
 N547 N 0.67812 0.13810 0.16795
 N548 N 0.66809 0.13826 0.17779
 C549 C 0.67003 0.12712 0.18665
 C550 C 0.68187 0.11968 0.18205
 C551 C 0.68677 0.12686 0.17021
 H552 H 0.66335 0.12454 0.19569
 H553 H 0.69588 0.12407 0.16369
 Cu554 Cu 0.65339 0.15291 0.17773
 Cu555 Cu 0.67905 0.15227 0.15277
 Cu556 Cu 0.65277 0.17841 0.15270
 N557 N 0.63865 0.16750 0.17766
 N558 N 0.63851 0.17748 0.16780
 C559 C 0.62722 0.18609 0.16997
 C560 C 0.61998 0.18122 0.18179
 C561 C 0.62743 0.16944 0.18647
 H562 H 0.62446 0.19518 0.16343
 H563 H 0.62484 0.16283 0.19555
 N564 N 0.66811 0.17749 0.13832
 N565 N 0.67810 0.16754 0.13832
 C566 C 0.68681 0.16965 0.12707
 C567 C 0.68201 0.18144 0.11975
 C568 C 0.67021 0.18619 0.12708
 H569 H 0.69591 0.16310 0.12433
 H570 H 0.66361 0.19525 0.12435
 H571 H 0.66895 0.16842 0.16382
 H572 H 0.65749 0.15691 0.15237
 N573 N 0.17791 0.63848 0.16772
 N574 N 0.16786 0.63859 0.17754
 C575 C 0.16983 0.62742 0.18637
 C576 C 0.18169 0.62003 0.18178
 C577 C 0.18660 0.62727 0.16998
 H578 H 0.16313 0.62477 0.19538
 H579 H 0.19573 0.62451 0.16347
 Cu580 Cu 0.15308 0.65317 0.17758
 Cu581 Cu 0.17882 0.65267 0.15260
 Cu582 Cu 0.15256 0.67877 0.15249
 N583 N 0.13839 0.66786 0.17741
 N584 N 0.13829 0.67785 0.16756
 C585 C 0.12702 0.68650 0.16974
 C586 C 0.11975 0.68163 0.18153
 C587 C 0.12717 0.66983 0.18620
 H588 H 0.12428 0.69560 0.16320
 H589 H 0.12451 0.66319 0.19525
 N590 N 0.16792 0.67788 0.13813
 N591 N 0.17792 0.66794 0.13818
 C592 C 0.18670 0.67009 0.12699
 C593 C 0.18194 0.68187 0.11965
 C594 C 0.17008 0.68661 0.12691
 H595 H 0.19583 0.66356 0.12431
 H596 H 0.16350 0.69568 0.12417
 H597 H 0.16865 0.66874 0.16373
 H598 H 0.15722 0.65723 0.15221
 N599 N 0.17794 0.13808 0.66821
 N600 N 0.16788 0.13819 0.67801
 C601 C 0.16987 0.12706 0.68689
 C602 C 0.18177 0.11970 0.68234
 C603 C 0.18668 0.12691 0.67052
 H604 H 0.16316 0.12442 0.69590
 H605 H 0.19582 0.12417 0.66403
 Cu606 Cu 0.15305 0.15272 0.67794
 Cu607 Cu 0.17881 0.15220 0.65300
 Cu608 Cu 0.15258 0.17833 0.65293
 N609 N 0.13845 0.16749 0.67791
 N610 N 0.13838 0.17750 0.66807
 C611 C 0.12717 0.18621 0.67028
 C612 C 0.11989 0.18135 0.68208
 C613 C 0.12725 0.16950 0.68672
 H614 H 0.12446 0.19532 0.66376
 H615 H 0.12458 0.16285 0.69575
 N616 N 0.16786 0.17736 0.63851
 N617 N 0.17784 0.16741 0.63851
 C618 C 0.18652 0.16948 0.62723
 C619 C 0.18171 0.18124 0.61988
 C620 C 0.16992 0.18602 0.62723
 H621 H 0.19561 0.16292 0.62449
 H622 H 0.16333 0.19508 0.62450
 H623 H 0.16867 0.16827 0.66415
 H624 H 0.15725 0.15681 0.65260
 N625 N 0.32191 0.63831 0.33202
 N626 N 0.33195 0.63843 0.32221
 C627 C 0.33000 0.62730 0.31335
 C628 C 0.31814 0.61991 0.31793
 C629 C 0.31322 0.62712 0.32975
 H630 H 0.33670 0.62468 0.30433
 H631 H 0.30409 0.62436 0.33624
 Cu632 Cu 0.34675 0.65296 0.32224
 Cu633 Cu 0.32101 0.65247 0.34718
 Cu634 Cu 0.34723 0.67860 0.34718
 N635 N 0.36134 0.66769 0.32225
 N636 N 0.36145 0.67771 0.33205
 C637 C 0.37268 0.68638 0.32979
 C638 C 0.37992 0.68146 0.31798
 C639 C 0.37252 0.66964 0.31340
 H640 H 0.37542 0.69550 0.33628
 H641 H 0.37515 0.66297 0.30438
 N642 N 0.33193 0.67766 0.36158
 N643 N 0.32196 0.66771 0.36161
 C644 C 0.31326 0.66982 0.37287
 C645 C 0.31805 0.68160 0.38017
 C646 C 0.32983 0.68636 0.37282
 H647 H 0.30418 0.66327 0.37562
 H648 H 0.33640 0.69544 0.37553
 H649 H 0.33110 0.66853 0.33601
 H650 H 0.34256 0.65707 0.34758
 N651 N 0.32204 0.13807 0.83210
 N652 N 0.33188 0.13840 0.82208
 C653 C 0.32998 0.12721 0.81328
 C654 C 0.31838 0.11957 0.81810
 C655 C 0.31355 0.12668 0.83002
 H656 H 0.33654 0.12473 0.80412
 H657 H 0.30461 0.12376 0.83670
 Cu658 Cu 0.34639 0.15322 0.82165
 Cu659 Cu 0.32118 0.15221 0.84725
 Cu660 Cu 0.34730 0.17837 0.84721
 N661 N 0.36120 0.16776 0.82206
 N662 N 0.36149 0.17757 0.83207
 C663 C 0.37285 0.18610 0.82997
 C664 C 0.38001 0.18132 0.81805
 C665 C 0.37241 0.16971 0.81325
 H666 H 0.37573 0.19505 0.83663
 H667 H 0.37491 0.16318 0.80409
 N668 N 0.33204 0.17741 0.86164
 N669 N 0.32209 0.16744 0.86167
 C670 C 0.31339 0.16954 0.87294
 C671 C 0.31814 0.18134 0.88024
 C672 C 0.32992 0.18611 0.87288
 H673 H 0.30432 0.16297 0.87569
 H674 H 0.33647 0.19519 0.87558
 H675 H 0.33102 0.16846 0.83613
 H676 H 0.34278 0.15677 0.84718
 N677 N 0.82200 0.63822 0.83209
 N678 N 0.83197 0.63841 0.82221
 C679 C 0.83002 0.62727 0.81336
 C680 C 0.81824 0.61981 0.81802
 C681 C 0.81337 0.62697 0.82988
 H682 H 0.83667 0.62469 0.80429
 H683 H 0.80431 0.62415 0.83645
 Cu684 Cu 0.84670 0.65302 0.82211
 Cu685 Cu 0.82114 0.65234 0.84728
 Cu686 Cu 0.84729 0.67850 0.84728
 N687 N 0.86132 0.66774 0.82224
 N688 N 0.86147 0.67768 0.83213
 C689 C 0.87271 0.68633 0.82992
 C690 C 0.87992 0.68150 0.81807
 C691 C 0.87249 0.66973 0.81341
 H692 H 0.87548 0.69539 0.83648
 H693 H 0.87511 0.66312 0.80432
 N694 N 0.83204 0.67751 0.86172
 N695 N 0.82209 0.66754 0.86174
 C696 C 0.81342 0.66961 0.87303
 C697 C 0.81821 0.68138 0.88035
 C698 C 0.82996 0.68618 0.87298
 H699 H 0.80435 0.66304 0.87579
 H700 H 0.83652 0.69526 0.87569
 H701 H 0.83115 0.66849 0.83610
 H702 H 0.84271 0.65696 0.84750
 N703 N 0.82211 0.13807 0.33216
 N704 N 0.83216 0.13821 0.32235
 C705 C 0.83021 0.12708 0.31349
 C706 C 0.81838 0.11966 0.31807
 C707 C 0.81344 0.12686 0.32989
 H708 H 0.83691 0.12448 0.30446
 H709 H 0.80431 0.12409 0.33639
 Cu710 Cu 0.84691 0.15277 0.32235
 Cu711 Cu 0.82119 0.15225 0.34731
 Cu712 Cu 0.84733 0.17846 0.34726
 N713 N 0.86144 0.16756 0.32232
 N714 N 0.86153 0.17760 0.33211
 C715 C 0.87271 0.18631 0.32982
 C716 C 0.87994 0.18142 0.31799
 C717 C 0.87258 0.16956 0.31344
 H718 H 0.87543 0.19545 0.33628
 H719 H 0.87521 0.16289 0.30441
 N720 N 0.83205 0.17749 0.36169
 N721 N 0.82211 0.16752 0.36173
 C722 C 0.81341 0.16962 0.37299
 C723 C 0.81817 0.18143 0.38028
 C724 C 0.82994 0.18620 0.37291
 H725 H 0.80434 0.16306 0.37576
 H726 H 0.83648 0.19530 0.37560
 H727 H 0.83124 0.16833 0.33612
 H728 H 0.84273 0.15693 0.34770
 N729 N 0.67800 0.36169 0.33170
 N730 N 0.66824 0.36128 0.32162
 C731 C 0.67030 0.37229 0.31262
 C732 C 0.68195 0.37989 0.31738
 C733 C 0.68662 0.37295 0.32945
 H734 H 0.66377 0.37472 0.30343
 H735 H 0.69553 0.37592 0.33614
 Cu736 Cu 0.65351 0.34669 0.32185
 Cu737 Cu 0.67877 0.34775 0.34712
 Cu738 Cu 0.65450 0.31984 0.34530
 N739 N 0.63867 0.33221 0.32211
 N740 N 0.63910 0.32176 0.33146
 C741 C 0.62776 0.31319 0.32948
 C742 C 0.61984 0.31864 0.31836
 C743 C 0.62698 0.33067 0.31387
 H744 H 0.62550 0.30368 0.33560
 H745 H 0.62392 0.33768 0.30524
 N746 N 0.66867 0.32175 0.36073
 N747 N 0.67779 0.33245 0.36152
 C748 C 0.68587 0.33083 0.37330
 C749 C 0.68154 0.31861 0.38017
 C750 C 0.67067 0.31308 0.37201
 H751 H 0.69432 0.33794 0.37662
 H752 H 0.66467 0.30347 0.37415
 H753 H 0.67025 0.33177 0.33513
 H754 H 0.65746 0.34150 0.34689
 N755 N 0.67787 0.86179 0.83198
 N756 N 0.66796 0.86157 0.82205
 C757 C 0.66990 0.87276 0.81324
 C758 C 0.68162 0.88026 0.81795
 C759 C 0.68646 0.87309 0.82982
 H760 H 0.66327 0.87533 0.80415
 H761 H 0.69549 0.87592 0.83641
 Cu762 Cu 0.65337 0.84683 0.82172
 Cu763 Cu 0.67876 0.84763 0.84711
 Cu764 Cu 0.65254 0.82160 0.84723
 N765 N 0.63849 0.83237 0.82222
 N766 N 0.63827 0.82251 0.83219
 C767 C 0.62692 0.81398 0.83014
 C768 C 0.61969 0.81881 0.81830
 C769 C 0.62724 0.83045 0.81348
 H770 H 0.62409 0.80498 0.83677
 H771 H 0.62468 0.83702 0.80435
 N772 N 0.66786 0.82247 0.86157
 N773 N 0.67785 0.83240 0.86155
 C774 C 0.68656 0.83028 0.87279
 C775 C 0.68177 0.81851 0.88013
 C776 C 0.66996 0.81378 0.87281
 H777 H 0.69566 0.83683 0.87550
 H778 H 0.66337 0.80473 0.87556
 H779 H 0.66877 0.83144 0.83601
 H780 H 0.65714 0.84314 0.84719
 N781 N 0.17783 0.36165 0.83189
 N782 N 0.16781 0.36153 0.82206
 C783 C 0.16980 0.37267 0.81320
 C784 C 0.18165 0.38005 0.81778
 C785 C 0.18653 0.37284 0.82962
 H786 H 0.16311 0.37529 0.80418
 H787 H 0.19564 0.37560 0.83613
 Cu788 Cu 0.15302 0.34697 0.82203
 Cu789 Cu 0.17869 0.34753 0.84708
 Cu790 Cu 0.15247 0.32147 0.84720
 N791 N 0.13835 0.33228 0.82224
 N792 N 0.13825 0.32232 0.83211
 C793 C 0.12701 0.31366 0.82996
 C794 C 0.11974 0.31850 0.81816
 C795 C 0.12714 0.33029 0.81346
 H796 H 0.12429 0.30457 0.83652
 H797 H 0.12450 0.33691 0.80439
 N798 N 0.16776 0.32240 0.86159
 N799 N 0.17774 0.33234 0.86157
 C800 C 0.18645 0.33022 0.87282
 C801 C 0.18166 0.31845 0.88016
 C802 C 0.16986 0.31371 0.87284
 H803 H 0.19555 0.33676 0.87552
 H804 H 0.16329 0.30464 0.87557
 H805 H 0.16858 0.33145 0.83595
 H806 H 0.15709 0.34300 0.84741
 N807 N 0.17780 0.86189 0.33188
 N808 N 0.16785 0.86169 0.32199
 C809 C 0.16977 0.87287 0.31317
 C810 C 0.18150 0.88037 0.31785
 C811 C 0.18638 0.87318 0.32970
 H812 H 0.16313 0.87543 0.30409
 H813 H 0.19544 0.87600 0.33625
 Cu814 Cu 0.15327 0.84693 0.32169
 Cu815 Cu 0.17874 0.84770 0.34699
 Cu816 Cu 0.15257 0.82163 0.34713
 N817 N 0.13843 0.83243 0.32219
 N818 N 0.13827 0.82253 0.33212
 C819 C 0.12694 0.81397 0.33007
 C820 C 0.11967 0.81881 0.31826
 C821 C 0.12717 0.83050 0.31346
 H822 H 0.12416 0.80494 0.33668
 H823 H 0.12458 0.83707 0.30434
 N824 N 0.16793 0.82250 0.36144
 N825 N 0.17789 0.83245 0.36142
 C826 C 0.18665 0.83032 0.37262
 C827 C 0.18190 0.81853 0.37995
 C828 C 0.17008 0.81378 0.37266
 H829 H 0.19574 0.83687 0.37532
 H830 H 0.16352 0.80471 0.37540
 H831 H 0.16875 0.83153 0.33589
 H832 H 0.15714 0.84317 0.34714
 C833 C 0.24803 0.95574 0.25822
 C834 C 0.25850 0.95574 0.24803
 C835 C 0.25981 0.96968 0.24327
 N836 N 0.25039 0.97815 0.25017
 C837 C 0.24324 0.96969 0.25941
 C838 C 0.26902 0.97409 0.23217
 C839 C 0.27113 0.98843 0.22801
 C840 C 0.27861 0.99271 0.21598
 C841 C 0.27861 1.00739 0.21598
 C842 C 0.27113 1.01168 0.22802
 N843 N 0.26679 1.00005 0.23536
 C844 C 0.26902 1.02601 0.23218
 C845 C 0.25981 1.03043 0.24329
 C846 C 0.25851 1.04437 0.24805
 C847 C 0.24803 1.04437 0.25825
 C848 C 0.24325 1.03044 0.25943
 N849 N 0.25039 1.02197 0.25018
 C850 C 0.23191 1.02602 0.26834
 C851 C 0.22758 1.01169 0.27012
 C852 C 0.21514 1.00742 0.27691
 C853 C 0.21514 0.99275 0.27691
 C854 C 0.22758 0.98845 0.27011
 N855 N 0.23515 1.00007 0.26616
 C856 C 0.23190 0.97412 0.26832
 H857 H 0.24424 0.94648 0.26396
 H858 H 0.26436 0.94647 0.24442
 H859 H 0.24555 1.00006 0.26239
 H860 H 0.28365 0.98598 0.20807
 H861 H 0.28366 1.01412 0.20807
 H862 H 0.26437 1.05363 0.24445
 H863 H 0.24425 1.05364 0.26399
 H864 H 0.20692 0.98601 0.28144
 H865 H 0.26236 1.00005 0.24547
 H866 H 0.20693 1.01416 0.28144
 C867 C 0.24807 0.45570 0.75838
 C868 C 0.25854 0.45572 0.74818
 C869 C 0.25977 0.46965 0.74338
 N870 N 0.25030 0.47809 0.75025
 C871 C 0.24321 0.46962 0.75952
 C872 C 0.26892 0.47407 0.73223
 C873 C 0.27093 0.48841 0.72804
 C874 C 0.27826 0.49271 0.71591
 C875 C 0.27825 0.50738 0.71593
 C876 C 0.27092 0.51166 0.72806
 N877 N 0.26668 0.50003 0.73545
 C878 C 0.26890 0.52599 0.73228
 C879 C 0.25974 0.53037 0.74344
 C880 C 0.25848 0.54429 0.74828
 C881 C 0.24800 0.54427 0.75848
 C882 C 0.24317 0.53034 0.75958
 N883 N 0.25029 0.52191 0.75029
 C884 C 0.23179 0.52591 0.76843
 C885 C 0.22746 0.51159 0.77017
 C886 C 0.21499 0.50730 0.77691
 C887 C 0.21501 0.49263 0.77691
 C888 C 0.22748 0.48834 0.77016
 N889 N 0.23505 0.49997 0.76623
 C890 C 0.23183 0.47402 0.76840
 H891 H 0.24433 0.44643 0.76415
 H892 H 0.26445 0.44647 0.74460
 H893 H 0.24546 0.49997 0.76250
 H894 H 0.28319 0.48598 0.70793
 H895 H 0.28320 0.51413 0.70797
 H896 H 0.26437 0.55355 0.74472
 H897 H 0.24425 0.55351 0.76427
 H898 H 0.20679 0.48588 0.78141
 H899 H 0.26241 0.50001 0.74563
 H900 H 0.20677 0.51404 0.78142
 C901 C 0.74678 -0.04487 0.24328
 C902 C 0.75672 -0.04491 0.25397
 C903 C 0.75870 -0.03082 0.25799
 N904 N 0.75026 -0.02223 0.25006
 C905 C 0.74295 -0.03077 0.24106
 C906 C 0.76833 -0.02629 0.26869
 C907 C 0.77132 -0.01189 0.27214
 C908 C 0.78217 -0.00758 0.28122
 C909 C 0.78207 0.00708 0.28130
 C910 C 0.77114 0.01138 0.27229
 N911 N 0.76449 -0.00026 0.26698
 C912 C 0.76784 0.02579 0.26913
 C913 C 0.75769 0.03036 0.25893
 C914 C 0.75482 0.04451 0.25574
 C915 C 0.74489 0.04452 0.24504
 C916 C 0.74189 0.03036 0.24205
 N917 N 0.74970 0.02176 0.25057
 C918 C 0.73165 0.02578 0.23198
 C919 C 0.72815 0.01139 0.22921
 C920 C 0.71640 0.00705 0.22133
 C921 C 0.71658 -0.00760 0.22118
 C922 C 0.72844 -0.01185 0.22896
 N923 N 0.73556 -0.00020 0.23361
 C924 C 0.73236 -0.02622 0.23133
 H925 H 0.74279 -0.05421 0.23782
 H926 H 0.76198 -0.05427 0.25817
 H927 H 0.74553 -0.00014 0.23840
 H928 H 0.78962 -0.01427 0.28697
 H929 H 0.78941 0.01379 0.28715
 H930 H 0.75935 0.05391 0.26061
 H931 H 0.74031 0.05391 0.24015
 H932 H 0.70875 -0.01435 0.21605
 H933 H 0.75538 -0.00029 0.26078
 H934 H 0.70840 0.01373 0.21636
 C935 C 0.74711 0.45525 0.74282
 C936 C 0.75714 0.45524 0.75343
 C937 C 0.75885 0.46930 0.75769
 N938 N 0.75013 0.47783 0.75000
 C939 C 0.74295 0.46930 0.74089
 C940 C 0.76830 0.47383 0.76857
 C941 C 0.77103 0.48821 0.77230
 C942 C 0.78112 0.49253 0.78222
 C943 C 0.78104 0.50720 0.78228
 C944 C 0.77087 0.51151 0.77241
 N945 N 0.76472 0.49986 0.76657
 C946 C 0.76788 0.52591 0.76890
 C947 C 0.75798 0.53046 0.75842
 C948 C 0.75550 0.54460 0.75482
 C949 C 0.74548 0.54457 0.74420
 C950 C 0.74202 0.53043 0.74167
 N951 N 0.74964 0.52187 0.75041
 C952 C 0.73149 0.52584 0.73190
 C953 C 0.72778 0.51144 0.72941
 C954 C 0.71580 0.50708 0.72190
 C955 C 0.71597 0.49242 0.72178
 C956 C 0.72805 0.48818 0.72922
 N957 N 0.73529 0.49985 0.73364
 C958 C 0.73214 0.47381 0.73138
 H959 H 0.74324 0.44592 0.73726
 H960 H 0.76259 0.44591 0.75748
 H961 H 0.74544 0.49992 0.73805
 H962 H 0.78804 0.48582 0.78859
 H963 H 0.78784 0.51391 0.78874
 H964 H 0.76031 0.55401 0.75941
 H965 H 0.74109 0.55395 0.73910
 H966 H 0.70802 0.48566 0.71685
 H967 H 0.75648 0.49984 0.75931
 H968 H 0.70770 0.51376 0.71710
 C969 C 0.24714 0.45544 0.24244
 C970 C 0.25721 0.45543 0.25302
 C971 C 0.25886 0.46947 0.25735
 N972 N 0.25007 0.47800 0.24974
 C973 C 0.24291 0.46950 0.24060
 C974 C 0.26828 0.47399 0.26827
 C975 C 0.27092 0.48837 0.27209
 C976 C 0.28070 0.49268 0.28232
 C977 C 0.28062 0.50736 0.28239
 C978 C 0.27076 0.51168 0.27221
 N979 N 0.26483 0.50003 0.26615
 C980 C 0.26785 0.52607 0.26863
 C981 C 0.25799 0.53064 0.25811
 C982 C 0.25556 0.54477 0.25447
 C983 C 0.24550 0.54475 0.24388
 C984 C 0.24197 0.53062 0.24141
 N985 N 0.24957 0.52206 0.25016
 C986 C 0.23140 0.52603 0.23168
 C987 C 0.22765 0.51163 0.22924
 C988 C 0.21566 0.50728 0.22175
 C989 C 0.21581 0.49262 0.22164
 C990 C 0.22792 0.48837 0.22903
 N991 N 0.23517 0.50004 0.23344
 C992 C 0.23204 0.47401 0.23116
 H993 H 0.24329 0.44613 0.23684
 H994 H 0.26268 0.44610 0.25704
 H995 H 0.24533 0.50011 0.23779
 H996 H 0.28740 0.48597 0.28891
 H997 H 0.28721 0.51407 0.28907
 H998 H 0.26039 0.55417 0.25904
 H999 H 0.24113 0.55413 0.23876
 H1000 H 0.20786 0.48586 0.21672
 H1001 H 0.25703 0.50003 0.25843
 H1002 H 0.20755 0.51396 0.21695
 C1003 C 0.75395 0.95548 0.74405
 C1004 C 0.74403 0.95552 0.75476
 C1005 C 0.74142 0.96969 0.75811
 N1006 N 0.74948 0.97825 0.74978
 C1007 C 0.75720 0.96962 0.74119
 C1008 C 0.73142 0.97429 0.76843
 C1009 C 0.72812 0.98870 0.77149
 C1010 C 0.71680 0.99306 0.77998
 C1011 C 0.71691 1.00771 0.78004
 C1012 C 0.72831 1.01196 0.77159
 N1013 N 0.73523 1.00029 0.76664
 C1014 C 0.73186 1.02633 0.76871
 C1015 C 0.74206 1.03085 0.75855
 C1016 C 0.74512 1.04500 0.75554
 C1017 C 0.75507 1.04496 0.74484
 C1018 C 0.75783 1.03079 0.74162
 N1019 N 0.74986 1.02222 0.75003
 C1020 C 0.76794 1.02618 0.73140
 C1021 C 0.77132 1.01177 0.72845
 C1022 C 0.78281 1.00741 0.72017
 C1023 C 0.78272 0.99276 0.72013
 C1024 C 0.77117 0.98851 0.72838
 N1025 N 0.76413 1.00018 0.73318
 C1026 C 0.76759 0.97413 0.73121
 H1027 H 0.75829 0.94607 0.73898
 H1028 H 0.73923 0.94614 0.75947
 H1029 H 0.75443 1.00024 0.73847
 H1030 H 0.70908 0.98639 0.78538
 H1031 H 0.70929 1.01446 0.78550
 H1032 H 0.74062 1.05441 0.76047
 H1033 H 0.75981 1.05434 0.74009
 H1034 H 0.79043 0.98601 0.71481
 H1035 H 0.74483 1.00022 0.76116
 H1036 H 0.79062 1.01408 0.71491
 C1037 C 0.74827 0.54430 0.25859
 C1038 C 0.75876 0.54429 0.24841
 C1039 C 0.75991 0.53039 0.24351
 N1040 N 0.75040 0.52196 0.25031
 C1041 C 0.74333 0.53040 0.25962
 C1042 C 0.76900 0.52599 0.23231
 C1043 C 0.77093 0.51166 0.22804
 C1044 C 0.77807 0.50738 0.21580
 C1045 C 0.77807 0.49271 0.21580
 C1046 C 0.77092 0.48842 0.22804
 N1047 N 0.76678 0.50004 0.23550
 C1048 C 0.76900 0.47410 0.23230
 C1049 C 0.75992 0.46971 0.24351
 C1050 C 0.75878 0.45581 0.24843
 C1051 C 0.74829 0.45582 0.25861
 C1052 C 0.74334 0.46972 0.25963
 N1053 N 0.75040 0.47816 0.25030
 C1054 C 0.73189 0.47414 0.26840
 C1055 C 0.72751 0.48845 0.27009
 C1056 C 0.71500 0.49275 0.27676
 C1057 C 0.71500 0.50742 0.27676
 C1058 C 0.72751 0.51170 0.27009
 N1059 N 0.73511 0.50007 0.26619
 C1060 C 0.73190 0.52601 0.26842
 H1061 H 0.74455 0.55355 0.26441
 H1062 H 0.76472 0.55352 0.24490
 H1063 H 0.74555 0.50006 0.26252
 H1064 H 0.78288 0.51412 0.20776
 H1065 H 0.78288 0.48597 0.20776
 H1066 H 0.76475 0.44658 0.24493
 H1067 H 0.74458 0.44657 0.26444
 H1068 H 0.70676 0.51417 0.28124
 H1069 H 0.76270 0.50005 0.24577
 H1070 H 0.70676 0.48601 0.28123
 C1071 C 0.24516 -0.04514 0.74497
 C1072 C 0.25505 -0.04515 0.75569
 C1073 C 0.25794 -0.03100 0.75883
 N1074 N 0.25012 -0.02240 0.75030
 C1075 C 0.24228 -0.03099 0.74180
 C1076 C 0.26806 -0.02644 0.76906
 C1077 C 0.27156 -0.01203 0.77188
 C1078 C 0.28302 -0.00771 0.78018
 C1079 C 0.28299 0.00695 0.78016
 C1080 C 0.27148 0.01124 0.77189
 N1081 N 0.26444 -0.00040 0.76709
 C1082 C 0.26784 0.02565 0.76916
 C1083 C 0.25734 0.03020 0.75931
 C1084 C 0.25395 0.04435 0.75663
 C1085 C 0.24404 0.04436 0.74592
 C1086 C 0.24155 0.03022 0.74242
 N1087 N 0.24971 0.02162 0.75063
 C1088 C 0.23170 0.02564 0.73195
 C1089 C 0.22860 0.01124 0.72866
 C1090 C 0.21770 0.00692 0.71964
 C1091 C 0.21789 -0.00774 0.71947
 C1092 C 0.22889 -0.01202 0.72840
 N1093 N 0.23552 -0.00037 0.73373
 C1094 C 0.23235 -0.02642 0.73138
 H1095 H 0.24058 -0.05454 0.74014
 H1096 H 0.25973 -0.05456 0.76044
 H1097 H 0.24480 -0.00034 0.73968
 H1098 H 0.29072 -0.01441 0.78558
 H1099 H 0.29064 0.01367 0.78558
 H1100 H 0.25821 0.05373 0.76179
 H1101 H 0.23921 0.05376 0.74127
 H1102 H 0.21063 -0.01446 0.71355
 H1103 H 0.25474 -0.00043 0.76182
 H1104 H 0.21025 0.01361 0.71389
 C1105 C 0.24434 0.25465 0.95523
 C1106 C 0.25510 0.24478 0.95524
 C1107 C 0.25838 0.24205 0.96941
 N1108 N 0.24989 0.24993 0.97800
 C1109 C 0.24127 0.25764 0.96939
 C1110 C 0.26885 0.23217 0.97400
 C1111 C 0.27190 0.22882 0.98841
 C1112 C 0.28085 0.21784 0.99272
 C1113 C 0.28073 0.21773 1.00739
 C1114 C 0.27174 0.22867 1.01171
 N1115 N 0.26662 0.23552 1.00007
 C1116 C 0.26853 0.23190 1.02613
 C1117 C 0.25828 0.24201 1.03070
 C1118 C 0.25509 0.24487 1.04487
 C1119 C 0.24438 0.25480 1.04485
 C1120 C 0.24139 0.25784 1.03068
 N1121 N 0.24990 0.24998 1.02210
 C1122 C 0.23128 0.26807 1.02608
 C1123 C 0.22824 0.27139 1.01166
 C1124 C 0.21956 0.28257 1.00731
 C1125 C 0.21942 0.28242 0.99265
 C1126 C 0.22805 0.27119 0.98836
 N1127 N 0.23316 0.26437 1.00003
 C1128 C 0.23093 0.26766 0.97396
 H1129 H 0.23947 0.25918 0.94581
 H1130 H 0.25986 0.24009 0.94584
 H1131 H 0.23879 0.25489 1.00006
 H1132 H 0.28674 0.21053 0.98600
 H1133 H 0.28650 0.21032 1.01409
 H1134 H 0.25994 0.24032 1.05428
 H1135 H 0.23941 0.25928 1.05425
 H1136 H 0.21373 0.28987 0.98592
 H1137 H 0.26061 0.24475 1.00007
 H1138 H 0.21398 0.29014 1.01401
 C1139 C 0.24147 0.75201 0.54434
 C1140 C 0.25171 0.74159 0.54439
 C1141 C 0.25644 0.74020 0.53044
 N1142 N 0.24947 0.74950 0.52192
 C1143 C 0.24022 0.75669 0.53035
 C1144 C 0.26757 0.73100 0.52605
 C1145 C 0.27187 0.72900 0.51173
 C1146 C 0.28408 0.72173 0.50754
 C1147 C 0.28430 0.72188 0.49287
 C1148 C 0.27223 0.72925 0.48847
 N1149 N 0.26463 0.73336 0.50003
 C1150 C 0.26841 0.73159 0.47407
 C1151 C 0.25755 0.74102 0.46948
 C1152 C 0.25364 0.74302 0.45536
 C1153 C 0.24339 0.75341 0.45527
 C1154 C 0.24121 0.75740 0.46935
 N1155 N 0.25002 0.74992 0.47798
 C1156 C 0.23156 0.76813 0.47381
 C1157 C 0.22913 0.77206 0.48819
 C1158 C 0.22124 0.78381 0.49249
 C1159 C 0.22118 0.78378 0.50718
 C1160 C 0.22900 0.77197 0.51148
 N1161 N 0.23363 0.76483 0.49984
 C1162 C 0.23113 0.76786 0.52585
 H1163 H 0.23566 0.75576 0.55359
 H1164 H 0.25533 0.73579 0.55369
 H1165 H 0.23844 0.75492 0.49983
 H1166 H 0.29201 0.71682 0.51434
 H1167 H 0.29245 0.71713 0.48620
 H1168 H 0.25786 0.73770 0.44602
 H1169 H 0.23836 0.75771 0.44584
 H1170 H 0.21586 0.79150 0.51390
 H1171 H 0.25444 0.73762 0.49992
 H1172 H 0.21600 0.79159 0.48577
 C1173 C 0.24347 0.74676 -0.04490
 C1174 C 0.25376 0.75710 -0.04486
 C1175 C 0.25775 0.75906 -0.03076
 N1176 N 0.25026 0.75018 -0.02222
 C1177 C 0.24137 0.74276 -0.03081
 C1178 C 0.26866 0.76842 -0.02622
 C1179 C 0.27251 0.77074 -0.01183
 C1180 C 0.28461 0.77802 -0.00744
 C1181 C 0.28437 0.77820 0.00723
 C1182 C 0.27213 0.77103 0.01143
 N1183 N 0.26488 0.76670 -0.00026
 C1184 C 0.26778 0.76913 0.02576
 C1185 C 0.25657 0.76006 0.03017
 C1186 C 0.25175 0.75883 0.04411
 C1187 C 0.24148 0.74846 0.04411
 C1188 C 0.24031 0.74366 0.03016
 N1189 N 0.24962 0.75071 0.02171
 C1190 C 0.23125 0.73246 0.02573
 C1191 C 0.22921 0.72827 0.01138
 C1192 C 0.22158 0.71634 0.00711
 C1193 C 0.22167 0.71626 -0.00757
 C1194 C 0.22939 0.72811 -0.01191
 N1195 N 0.23377 0.73543 -0.00029
 C1196 C 0.23175 0.73203 -0.02630
 H1197 H 0.23838 0.74251 -0.05430
 H1198 H 0.25794 0.76242 -0.05421
 H1199 H 0.23838 0.74543 -0.00035
 H1200 H 0.29278 0.78271 -0.01411
 H1201 H 0.29232 0.78308 0.01402
 H1202 H 0.25534 0.76470 0.05337
 H1203 H 0.23561 0.74482 0.05337
 H1204 H 0.21657 0.70839 -0.01427
 H1205 H 0.25466 0.76251 -0.00036
 H1206 H 0.21638 0.70857 0.01387
 C1207 C 0.24484 0.24462 0.54491
 C1208 C 0.25453 0.25551 0.54490
 C1209 C 0.25756 0.25851 0.53073
 N1210 N 0.24992 0.24986 0.52213
 C1211 C 0.24208 0.24136 0.53074
 C1212 C 0.26770 0.26870 0.52616
 C1213 C 0.27111 0.27164 0.51175
 C1214 C 0.28255 0.27996 0.50743
 C1215 C 0.28256 0.27997 0.49277
 C1216 C 0.27111 0.27165 0.48847
 N1217 N 0.26401 0.26686 0.50011
 C1218 C 0.26770 0.26872 0.47406
 C1219 C 0.25756 0.25855 0.46949
 C1220 C 0.25450 0.25560 0.45533
 C1221 C 0.24480 0.24471 0.45532
 C1222 C 0.24207 0.24141 0.46949
 N1223 N 0.24992 0.24987 0.47810
 C1224 C 0.23209 0.23105 0.47406
 C1225 C 0.22886 0.22789 0.48848
 C1226 C 0.21774 0.21913 0.49280
 C1227 C 0.21774 0.21912 0.50746
 C1228 C 0.22886 0.22787 0.51177
 N1229 N 0.23575 0.23293 0.50012
 C1230 C 0.23210 0.23102 0.52618
 H1231 H 0.24033 0.23971 0.55432
 H1232 H 0.25886 0.26059 0.55430
 H1233 H 0.24511 0.23878 0.50011
 H1234 H 0.29028 0.28529 0.51414
 H1235 H 0.29029 0.28530 0.48606
 H1236 H 0.25881 0.26070 0.44593
 H1237 H 0.24028 0.23983 0.44591
 H1238 H 0.21020 0.21351 0.51417
 H1239 H 0.25433 0.26152 0.50012
 H1240 H 0.21020 0.21353 0.48610
 C1241 C 0.75530 0.74510 1.04477
 C1242 C 0.74565 0.75605 1.04477
 C1243 C 0.74250 0.75895 1.03061
 N1244 N 0.75004 0.75018 1.02200
 C1245 C 0.75790 0.74170 1.03061
 C1246 C 0.73235 0.76914 1.02605
 C1247 C 0.72888 0.77204 1.01164
 C1248 C 0.71742 0.78038 1.00735
 C1249 C 0.71738 0.78035 0.99270
 C1250 C 0.72882 0.77200 0.98837
 N1251 N 0.73594 0.76721 0.99999
 C1252 C 0.73220 0.76903 0.97395
 C1253 C 0.74232 0.75882 0.96937
 C1254 C 0.74534 0.75580 0.95521
 C1255 C 0.75501 0.74487 0.95520
 C1256 C 0.75777 0.74161 0.96936
 N1257 N 0.74996 0.75014 0.97798
 C1258 C 0.76772 0.73122 0.97393
 C1259 C 0.77094 0.72803 0.98834
 C1260 C 0.78203 0.71921 0.99264
 C1261 C 0.78202 0.71919 1.00730
 C1262 C 0.77094 0.72802 1.01162
 N1263 N 0.76406 0.73311 0.99999
 C1264 C 0.76776 0.73122 1.02603
 H1265 H 0.75989 0.74026 1.05418
 H1266 H 0.74142 0.76123 1.05417
 H1267 H 0.75472 0.73901 1.00000
 H1268 H 0.70971 0.78574 1.01408
 H1269 H 0.70963 0.78568 0.98600
 H1270 H 0.74100 0.76088 0.94580
 H1271 H 0.75949 0.73993 0.94579
 H1272 H 0.78954 0.71354 1.01400
 H1273 H 0.74561 0.76184 0.99997
 H1274 H 0.78955 0.71357 0.98592
 C1275 C 0.74089 0.25143 0.54424
 C1276 C 0.75116 0.24103 0.54427
 C1277 C 0.75603 0.23981 0.53035
 N1278 N 0.74913 0.24921 0.52187
 C1279 C 0.73979 0.25627 0.53029
 C1280 C 0.76726 0.23074 0.52597
 C1281 C 0.77163 0.22885 0.51165
 C1282 C 0.78389 0.22166 0.50746
 C1283 C 0.78413 0.22185 0.49279
 C1284 C 0.77203 0.22916 0.48839
 N1285 N 0.76439 0.23320 0.49996
 C1286 C 0.76818 0.23147 0.47400
 C1287 C 0.75725 0.24082 0.46944
 C1288 C 0.75324 0.24274 0.45534
 C1289 C 0.74296 0.25311 0.45527
 C1290 C 0.74088 0.25717 0.46935
 N1291 N 0.74977 0.24975 0.47795
 C1292 C 0.73133 0.26798 0.47382
 C1293 C 0.72907 0.27197 0.48821
 C1294 C 0.72161 0.28399 0.49254
 C1295 C 0.72153 0.28391 0.50722
 C1296 C 0.72890 0.27181 0.51149
 N1297 N 0.73331 0.26454 0.49983
 C1298 C 0.73083 0.26755 0.52585
 H1299 H 0.73500 0.25508 0.55347
 H1300 H 0.75471 0.23514 0.55354
 H1301 H 0.73767 0.25440 0.49979
 H1302 H 0.79183 0.21676 0.51426
 H1303 H 0.79231 0.21714 0.48613
 H1304 H 0.75742 0.23740 0.44600
 H1305 H 0.73787 0.25737 0.44586
 H1306 H 0.71651 0.29181 0.51397
 H1307 H 0.75418 0.23743 0.49984
 H1308 H 0.71670 0.29199 0.48583
 C1309 C 0.74484 0.24486 -0.04496
 C1310 C 0.75450 0.25578 -0.04495
 C1311 C 0.75751 0.25878 -0.03079
 N1312 N 0.74987 0.25010 -0.02218
 C1313 C 0.74208 0.24159 -0.03079
 C1314 C 0.76760 0.26901 -0.02622
 C1315 C 0.77100 0.27196 -0.01181
 C1316 C 0.78239 0.28036 -0.00751
 C1317 C 0.78242 0.28033 0.00714
 C1318 C 0.77104 0.27191 0.01147
 N1319 N 0.76396 0.26709 -0.00016
 C1320 C 0.76771 0.26889 0.02588
 C1321 C 0.75764 0.25864 0.03045
 C1322 C 0.75470 0.25554 0.04462
 C1323 C 0.74503 0.24464 0.04462
 C1324 C 0.74219 0.24146 0.03046
 N1325 N 0.74996 0.25002 0.02184
 C1326 C 0.73219 0.23114 0.02589
 C1327 C 0.72889 0.22805 0.01148
 C1328 C 0.71771 0.21938 0.00718
 C1329 C 0.71769 0.21940 -0.00748
 C1330 C 0.72886 0.22809 -0.01181
 N1331 N 0.73581 0.23308 -0.00017
 C1332 C 0.73211 0.23123 -0.02623
 H1333 H 0.74036 0.23995 -0.05437
 H1334 H 0.75883 0.26087 -0.05435
 H1335 H 0.74522 0.23884 -0.00018
 H1336 H 0.79006 0.28577 -0.01423
 H1337 H 0.79012 0.28570 0.01384
 H1338 H 0.75908 0.26057 0.05402
 H1339 H 0.74059 0.23966 0.05403
 H1340 H 0.71011 0.21386 -0.01418
 H1341 H 0.75434 0.26166 -0.00015
 H1342 H 0.71015 0.21381 0.01390
 C1343 C 0.74485 0.74491 0.45527
 C1344 C 0.75453 0.75580 0.45525
 C1345 C 0.75758 0.75880 0.46940
 N1346 N 0.74996 0.75013 0.47803
 C1347 C 0.74212 0.74163 0.46944
 C1348 C 0.76770 0.76900 0.47394
 C1349 C 0.77112 0.77195 0.48835
 C1350 C 0.78255 0.78030 0.49263
 C1351 C 0.78257 0.78030 0.50729
 C1352 C 0.77116 0.77193 0.51162
 N1353 N 0.76406 0.76713 0.50000
 C1354 C 0.76780 0.76896 0.52605
 C1355 C 0.75770 0.75875 0.53064
 C1356 C 0.75472 0.75573 0.54481
 C1357 C 0.74503 0.74483 0.54484
 C1358 C 0.74223 0.74159 0.53069
 N1359 N 0.75002 0.75011 0.52205
 C1360 C 0.73223 0.73127 0.52615
 C1361 C 0.72896 0.72813 0.51174
 C1362 C 0.71780 0.71942 0.50745
 C1363 C 0.71778 0.71942 0.49279
 C1364 C 0.72892 0.72813 0.48845
 N1365 N 0.73585 0.73316 0.50008
 C1366 C 0.73215 0.73128 0.47403
 H1367 H 0.74032 0.74000 0.44587
 H1368 H 0.75883 0.76089 0.44583
 H1369 H 0.74524 0.73896 0.50005
 H1370 H 0.79025 0.78567 0.48590
 H1371 H 0.79030 0.78565 0.51398
 H1372 H 0.75909 0.76078 0.55420
 H1373 H 0.74056 0.73991 0.55427
 H1374 H 0.71021 0.71385 0.48610
 H1375 H 0.75440 0.76177 0.50003
 H1376 H 0.71024 0.71385 0.51417
 C1377 C 1.04474 0.24532 0.25559
 C1378 C 1.04471 0.25618 0.24586
 C1379 C 1.03054 0.25887 0.24252
 N1380 N 1.02196 0.25005 0.25000
 C1381 C 1.03057 0.24177 0.25807
 C1382 C 1.02596 0.26885 0.23218
 C1383 C 1.01153 0.27155 0.22859
 C1384 C 1.00720 0.27948 0.21688
 C1385 C 0.99252 0.27958 0.21698
 C1386 C 0.98824 0.27170 0.22875
 N1387 N 0.99990 0.26705 0.23590
 C1388 C 0.97383 0.26921 0.23255
 C1389 C 0.96928 0.25923 0.24288
 C1390 C 0.95514 0.25677 0.24650
 C1391 C 0.95513 0.24590 0.25625
 C1392 C 0.96928 0.24200 0.25831
 N1393 N 0.97787 0.25018 0.25012
 C1394 C 0.97384 0.23114 0.26777
 C1395 C 0.98826 0.22770 0.27077
 C1396 C 0.99258 0.21820 0.28127
 C1397 C 1.00726 0.21825 0.28131
 C1398 C 1.01159 0.22775 0.27083
 N1399 N 0.99992 0.23324 0.26430
 C1400 C 1.02601 0.23121 0.26785
 H1401 H 1.05416 0.24057 0.26024
 H1402 H 1.05410 0.26140 0.24165
 H1403 H 0.99992 0.23989 0.25554
 H1404 H 1.01391 0.28454 0.20896
 H1405 H 0.98578 0.28473 0.20915
 H1406 H 0.94575 0.26213 0.24246
 H1407 H 0.94574 0.24148 0.26129
 H1408 H 1.01398 0.21213 0.28844
 H1409 H 0.99993 0.26219 0.24583
 H1410 H 0.98586 0.21206 0.28836
 C1411 C 0.45556 0.24817 0.75886
 C1412 C 0.45553 0.25862 0.74865
 C1413 C 0.46949 0.25994 0.74388
 N1414 N 0.47799 0.25057 0.75079
 C1415 C 0.46954 0.24341 0.76003
 C1416 C 0.47387 0.26910 0.73273
 C1417 C 0.48821 0.27107 0.72842
 C1418 C 0.49242 0.27833 0.71623
 C1419 C 0.50711 0.27818 0.71602
 C1420 C 0.51150 0.27081 0.72807
 N1421 N 0.49992 0.26670 0.73564
 C1422 C 0.52591 0.26848 0.73192
 C1423 C 0.53047 0.25906 0.74279
 C1424 C 0.54459 0.25708 0.74677
 C1425 C 0.54465 0.24665 0.75697
 C1426 C 0.53056 0.24261 0.75905
 N1427 N 0.52194 0.25010 0.75022
 C1428 C 0.52609 0.23177 0.76855
 C1429 C 0.51169 0.22778 0.77082
 C1430 C 0.50737 0.21580 0.77834
 C1431 C 0.49267 0.21587 0.77842
 C1432 C 0.48838 0.22791 0.77097
 N1433 N 0.50004 0.23516 0.76654
 C1434 C 0.47400 0.23213 0.76899
 H1435 H 0.44630 0.24444 0.76465
 H1436 H 0.44623 0.26445 0.74505
 H1437 H 0.50007 0.24525 0.76210
 H1438 H 0.48561 0.28325 0.70830
 H1439 H 0.51378 0.28294 0.70789
 H1440 H 0.55394 0.26243 0.74262
 H1441 H 0.55408 0.24236 0.76202
 H1442 H 0.48592 0.20799 0.78348
 H1443 H 0.50002 0.26239 0.74580
 H1444 H 0.51410 0.20785 0.78331
 C1445 C -0.04497 0.25498 0.75547
 C1446 C -0.04497 0.24405 0.74581
 C1447 C -0.03079 0.24109 0.74270
 N1448 N -0.02218 0.24990 0.75017
 C1449 C -0.03079 0.25842 0.75799
 C1450 C -0.02623 0.23078 0.73267
 C1451 C -0.01181 0.22802 0.72905
 C1452 C -0.00751 0.21963 0.71765
 C1453 C 0.00717 0.21973 0.71753
 C1454 C 0.01150 0.22816 0.72888
 N1455 N -0.00014 0.23297 0.73598
 C1456 C 0.02593 0.23105 0.73230
 C1457 C 0.03051 0.24117 0.74249
 C1458 C 0.04469 0.24408 0.74559
 C1459 C 0.04471 0.25498 0.75527
 C1460 C 0.03053 0.25832 0.75798
 N1461 N 0.02191 0.24988 0.75012
 C1462 C 0.02596 0.26878 0.76786
 C1463 C 0.01153 0.27211 0.77096
 C1464 C 0.00720 0.28130 0.78172
 C1465 C -0.00748 0.28142 0.78163
 C1466 C -0.01179 0.27228 0.77083
 N1467 N -0.00013 0.26689 0.76422
 C1468 C -0.02622 0.26911 0.76760
 H1469 H -0.05438 0.25976 0.76013
 H1470 H -0.05438 0.23903 0.74146
 H1471 H -0.00012 0.26074 0.75508
 H1472 H -0.01424 0.21413 0.71006
 H1473 H 0.01388 0.21431 0.70984
 H1474 H 0.05410 0.23895 0.74128
 H1475 H 0.05413 0.25989 0.75974
 H1476 H -0.01421 0.28742 0.78886
 H1477 H -0.00012 0.23836 0.74560
 H1478 H 0.01391 0.28720 0.78901
 C1479 C 0.45527 0.25469 0.25565
 C1480 C 0.45527 0.24481 0.24492
 C1481 C 0.46945 0.24190 0.24178
 N1482 N 0.47806 0.24983 0.25018
 C1483 C 0.46944 0.25769 0.25866
 C1484 C 0.47403 0.23176 0.23160
 C1485 C 0.48847 0.22849 0.22846
 C1486 C 0.49281 0.21740 0.21968
 C1487 C 0.50748 0.21750 0.21956
 C1488 C 0.51178 0.22863 0.22829
 N1489 N 0.50011 0.23544 0.23343
 C1490 C 0.52620 0.23205 0.23126
 C1491 C 0.53077 0.24200 0.24163
 C1492 C 0.54495 0.24482 0.24482
 C1493 C 0.54495 0.25469 0.25555
 C1494 C 0.53077 0.25761 0.25868
 N1495 N 0.52216 0.24984 0.25014
 C1496 C 0.52619 0.26765 0.26898
 C1497 C 0.51176 0.27116 0.27187
 C1498 C 0.50744 0.28243 0.28042
 C1499 C 0.49277 0.28253 0.28032
 C1500 C 0.48845 0.27129 0.27174
 N1501 N 0.50010 0.26427 0.26685
 C1502 C 0.47402 0.26793 0.26873
 H1503 H 0.44585 0.25916 0.26061
 H1504 H 0.44585 0.24031 0.24002
 H1505 H 0.50010 0.25474 0.26132
 H1506 H 0.48610 0.20991 0.21402
 H1507 H 0.51422 0.21009 0.21381
 H1508 H 0.55437 0.24018 0.24002
 H1509 H 0.55437 0.25929 0.26035
 H1510 H 0.48605 0.29010 0.28588
 H1511 H 0.50009 0.24485 0.23915
 H1512 H 0.51416 0.28992 0.28605
 C1513 C 0.95507 0.75567 0.74531
 C1514 C 0.95507 0.74473 0.75495
 C1515 C 0.96925 0.74149 0.75774
 N1516 N 0.97787 0.75015 0.75009
 C1517 C 0.96925 0.75884 0.74246
 C1518 C 0.97383 0.73097 0.76756
 C1519 C 0.98825 0.72800 0.77099
 C1520 C 0.99255 0.71924 0.78212
 C1521 C 1.00722 0.71935 0.78224
 C1522 C 1.01156 0.72815 0.77116
 N1523 N 0.99992 0.73316 0.76421
 C1524 C 1.02600 0.73127 0.76791
 C1525 C 1.03058 0.74157 0.75789
 C1526 C 1.04476 0.74473 0.75501
 C1527 C 1.04475 0.75564 0.74534
 C1528 C 1.03057 0.75874 0.74241
 N1529 N 1.02196 0.75014 0.75013
 C1530 C 1.02599 0.76900 0.73233
 C1531 C 1.01156 0.77207 0.72902
 C1532 C 1.00724 0.78079 0.71787
 C1533 C 0.99257 0.78090 0.71796
 C1534 C 0.98825 0.77224 0.72915
 N1535 N 0.99991 0.76712 0.73599
 C1536 C 0.97382 0.76931 0.73260
 H1537 H 0.94566 0.76059 0.74081
 H1538 H 0.94565 0.73984 0.75947
 H1539 H 0.99992 0.76144 0.74545
 H1540 H 0.98581 0.71351 0.78954
 H1541 H 1.01393 0.71371 0.78975
 H1542 H 1.05418 0.73972 0.75942
 H1543 H 1.05417 0.76068 0.74097
 H1544 H 0.98585 0.78658 0.71048
 H1545 H 0.99993 0.73893 0.75481
 H1546 H 1.01396 0.78637 0.71032
 C1547 C 0.54483 0.74464 0.25505
 C1548 C 0.54484 0.75547 0.24528
 C1549 C 0.53066 0.75860 0.24236
 N1550 N 0.52205 0.75008 0.25015
 C1551 C 0.53064 0.74153 0.25796
 C1552 C 0.52609 0.76889 0.23230
 C1553 C 0.51166 0.77205 0.22904
 C1554 C 0.50735 0.78098 0.21806
 C1555 C 0.49267 0.78109 0.21814
 C1556 C 0.48835 0.77219 0.22915
 N1557 N 0.50000 0.76695 0.23588
 C1558 C 0.47392 0.76918 0.23251
 C1559 C 0.46933 0.75867 0.24233
 C1560 C 0.45515 0.75543 0.24509
 C1561 C 0.45513 0.74458 0.25483
 C1562 C 0.46931 0.74140 0.25772
 N1563 N 0.47793 0.75006 0.25006
 C1564 C 0.47387 0.73092 0.26757
 C1565 C 0.48829 0.72797 0.27105
 C1566 C 0.49258 0.71914 0.28214
 C1567 C 0.50726 0.71927 0.28228
 C1568 C 0.51161 0.72814 0.27127
 N1569 N 0.49997 0.73318 0.26434
 C1570 C 0.52605 0.73127 0.26802
 H1571 H 0.55424 0.73966 0.25949
 H1572 H 0.55426 0.76045 0.24086
 H1573 H 0.50000 0.73901 0.25498
 H1574 H 0.51407 0.78674 0.21065
 H1575 H 0.48595 0.78693 0.21079
 H1576 H 0.44574 0.76027 0.24050
 H1577 H 0.44571 0.73971 0.25936
 H1578 H 0.51396 0.71355 0.28975
 H1579 H 0.50000 0.76104 0.24519
 H1580 H 0.48583 0.71333 0.28949
 C1581 C 0.04474 0.74399 0.24568
 C1582 C 0.04478 0.75484 0.25542
 C1583 C 0.03061 0.75831 0.25804
 N1584 N 0.02198 0.74998 0.25007
 C1585 C 0.03055 0.74122 0.24248
 C1586 C 0.02607 0.76885 0.26784
 C1587 C 0.01164 0.77234 0.27084
 C1588 C 0.00733 0.78186 0.28133
 C1589 C -0.00735 0.78199 0.28125
 C1590 C -0.01169 0.77253 0.27074
 N1591 N -0.00003 0.76694 0.26429
 C1592 C -0.02612 0.76924 0.26764
 C1593 C -0.03072 0.75850 0.25809
 C1594 C -0.04489 0.75500 0.25566
 C1595 C -0.04492 0.74414 0.24593
 C1596 C -0.03076 0.74123 0.24271
 N1597 N -0.02213 0.75006 0.25014
 C1598 C -0.02621 0.73098 0.23262
 C1599 C -0.01180 0.72829 0.22891
 C1600 C -0.00752 0.72000 0.21743
 C1601 C 0.00715 0.72008 0.21729
 C1602 C 0.01151 0.72841 0.22871
 N1603 N -0.00012 0.73316 0.23587
 C1604 C 0.02594 0.73120 0.23220
 H1605 H 0.05413 0.73883 0.24138
 H1606 H 0.05422 0.75965 0.25996
 H1607 H -0.00009 0.73840 0.24558
 H1608 H 0.01406 0.78798 0.28843
 H1609 H -0.01406 0.78822 0.28828
 H1610 H -0.05430 0.75973 0.26040
 H1611 H -0.05435 0.73913 0.24158
 H1612 H 0.01385 0.71469 0.20958
 H1613 H -0.00004 0.76038 0.25545
 H1614 H -0.01427 0.71453 0.20984
 C1615 C 0.45524 0.74202 0.74817
 C1616 C 0.45523 0.75272 0.75811
 C1617 C 0.46929 0.75714 0.75961
 N1618 N 0.47780 0.74948 0.75084
 C1619 C 0.46929 0.74021 0.74386
 C1620 C 0.47379 0.76829 0.76874
 C1621 C 0.48819 0.77222 0.77123
 C1622 C 0.49250 0.78300 0.78040
 C1623 C 0.50720 0.78306 0.78031
 C1624 C 0.51154 0.77235 0.77107
 N1625 N 0.49987 0.76589 0.76558
 C1626 C 0.52596 0.76865 0.76829
 C1627 C 0.53052 0.75796 0.75862
 C1628 C 0.54468 0.75429 0.75621
 C1629 C 0.54465 0.74360 0.74629
 C1630 C 0.53050 0.74111 0.74277
 N1631 N 0.52193 0.74996 0.75027
 C1632 C 0.52591 0.73134 0.73224
 C1633 C 0.51147 0.72877 0.72860
 C1634 C 0.50709 0.72119 0.71668
 C1635 C 0.49241 0.72103 0.71689
 C1636 C 0.48817 0.72851 0.72893
 N1637 N 0.49987 0.73298 0.73612
 C1638 C 0.47379 0.73071 0.73304
 H1639 H 0.44591 0.73633 0.74446
 H1640 H 0.44589 0.75678 0.76357
 H1641 H 0.49996 0.73744 0.74622
 H1642 H 0.48576 0.78996 0.78669
 H1643 H 0.51392 0.79012 0.78649
 H1644 H 0.55411 0.75895 0.76091
 H1645 H 0.55405 0.73840 0.74203
 H1646 H 0.48563 0.71605 0.70899
 H1647 H 0.49988 0.75743 0.75862
 H1648 H 0.51378 0.71636 0.70860
 C1649 C 0.44093 0.28944 0.28772
 C1650 C 0.42854 0.29171 0.27937
 C1651 C 0.41610 0.29765 0.28570
 C1652 C 0.41618 0.30150 0.30030
 C1653 C 0.42868 0.29953 0.30857
 C1654 C 0.44109 0.29348 0.30226
 C1655 C 0.45342 0.29154 0.31074
 C1656 C 0.45350 0.29546 0.32507
 C1657 C 0.44137 0.30139 0.33125
 C1658 C 0.42907 0.30343 0.32314
 C1659 C 0.40376 0.29957 0.27720
 C1660 C 0.40374 0.29580 0.26283
 C1661 C 0.41594 0.29012 0.25660
 C1662 C 0.42823 0.28811 0.26471
 C1663 C 0.40342 0.30746 0.30677
 C1664 C 0.39275 0.31240 0.31201
 C1665 C 0.45320 0.28233 0.28147
 C1666 C 0.46295 0.27601 0.27593
 H1667 H 0.46313 0.28703 0.30639
 H1668 H 0.46302 0.29390 0.33142
 H1669 H 0.44149 0.30442 0.34238
 H1670 H 0.41991 0.30807 0.32842
 H1671 H 0.39401 0.30399 0.28155
 H1672 H 0.39421 0.29735 0.25648
 H1673 H 0.41590 0.28728 0.24541
 H1674 H 0.43749 0.28379 0.25934
 C1675 C 0.44048 0.78938 0.78779
 C1676 C 0.42795 0.79116 0.77952
 C1677 C 0.41555 0.79731 0.78575
 C1678 C 0.41576 0.80172 0.80018
 C1679 C 0.42835 0.80012 0.80840
 C1680 C 0.44075 0.79393 0.80218
 C1681 C 0.45318 0.79238 0.81060
 C1682 C 0.45336 0.79678 0.82479
 C1683 C 0.44125 0.80282 0.83088
 C1684 C 0.42886 0.80450 0.82282
 C1685 C 0.40313 0.79886 0.77730
 C1686 C 0.40296 0.79450 0.76310
 C1687 C 0.41509 0.78852 0.75701
 C1688 C 0.42747 0.78686 0.76506
 C1689 C 0.40300 0.80782 0.80657
 C1690 C 0.39235 0.81283 0.81179
 C1691 C 0.45284 0.78239 0.78158
 C1692 C 0.46266 0.77620 0.77603
 H1693 H 0.46287 0.78777 0.80631
 H1694 H 0.46295 0.79549 0.83110
 H1695 H 0.44145 0.80623 0.84190
 H1696 H 0.41970 0.80925 0.82803
 H1697 H 0.39343 0.80345 0.78156
 H1698 H 0.39337 0.79580 0.75679
 H1699 H 0.41492 0.78518 0.74596
 H1700 H 0.43664 0.78222 0.75980
 C1701 C -0.05942 0.28998 0.78714
 C1702 C -0.07192 0.29207 0.77890
 C1703 C -0.08437 0.29790 0.78533
 C1704 C -0.08418 0.30182 0.79991
 C1705 C -0.07160 0.29997 0.80808
 C1706 C -0.05919 0.29401 0.80168
 C1707 C -0.04679 0.29217 0.81008
 C1708 C -0.04664 0.29612 0.82440
 C1709 C -0.05875 0.30197 0.83066
 C1710 C -0.07113 0.30390 0.82264
 C1711 C -0.09681 0.29965 0.77694
 C1712 C -0.09693 0.29581 0.76259
 C1713 C -0.08474 0.29021 0.75628
 C1714 C -0.07234 0.28837 0.76427
 C1715 C -0.09692 0.30778 0.80643
 C1716 C -0.10757 0.31273 0.81170
 C1717 C -0.04708 0.28310 0.78074
 C1718 C -0.03730 0.27698 0.77503
 H1719 H -0.03710 0.28769 0.80567
 H1720 H -0.03706 0.29463 0.83068
 H1721 H -0.05857 0.30504 0.84178
 H1722 H -0.08029 0.30847 0.82798
 H1723 H -0.10656 0.30399 0.78136
 H1724 H -0.10654 0.29723 0.75633
 H1725 H -0.08487 0.28729 0.74511
 H1726 H -0.06310 0.28412 0.75883
 C1727 C -0.05927 0.79007 0.28728
 C1728 C -0.07178 0.79224 0.27907
 C1729 C -0.08418 0.79812 0.28554
 C1730 C -0.08395 0.80197 0.30013
 C1731 C -0.07139 0.79999 0.30829
 C1732 C -0.05901 0.79400 0.30184
 C1733 C -0.04661 0.79205 0.31022
 C1734 C -0.04642 0.79591 0.32457
 C1735 C -0.05852 0.80177 0.33087
 C1736 C -0.07089 0.80380 0.32288
 C1737 C -0.09662 0.79997 0.27717
 C1738 C -0.09677 0.79620 0.26280
 C1739 C -0.08462 0.79056 0.25644
 C1740 C -0.07223 0.78861 0.26442
 C1741 C -0.09665 0.80796 0.30671
 C1742 C -0.10729 0.81290 0.31200
 C1743 C -0.04696 0.78320 0.28083
 C1744 C -0.03719 0.77709 0.27509
 H1745 H -0.03695 0.78754 0.30578
 H1746 H -0.03685 0.79434 0.33083
 H1747 H -0.05832 0.80475 0.34202
 H1748 H -0.08003 0.80837 0.32826
 H1749 H -0.10634 0.80433 0.28162
 H1750 H -0.10637 0.79770 0.25655
 H1751 H -0.08477 0.78770 0.24526
 H1752 H -0.06303 0.78429 0.25896
 C1753 C 0.55912 0.71201 0.28929
 C1754 C 0.57146 0.72037 0.29172
 C1755 C 0.58390 0.71401 0.29761
 C1756 C 0.58387 0.69936 0.30124
 C1757 C 0.57143 0.69108 0.29911
 C1758 C 0.55902 0.69742 0.29311
 C1759 C 0.54673 0.68892 0.29102
 C1760 C 0.54671 0.67454 0.29474
 C1761 C 0.55884 0.66833 0.30060
 C1762 C 0.57109 0.67645 0.30279
 C1763 C 0.59619 0.72254 0.29968
 C1764 C 0.59615 0.73696 0.29613
 C1765 C 0.58393 0.74321 0.29052
 C1766 C 0.57170 0.73508 0.28835
 C1767 C 0.59664 0.69289 0.30720
 C1768 C 0.60730 0.68769 0.31219
 C1769 C 0.54685 0.71832 0.28224
 C1770 C 0.53710 0.72394 0.27599
 H1771 H 0.53703 0.69330 0.28654
 H1772 H 0.53722 0.66819 0.29308
 H1773 H 0.55876 0.65716 0.30346
 H1774 H 0.58027 0.67115 0.30737
 H1775 H 0.60594 0.71818 0.30406
 H1776 H 0.60564 0.74332 0.29779
 H1777 H 0.58392 0.75444 0.28785
 H1778 H 0.56243 0.74047 0.28410
 C1779 C 0.55912 0.21186 0.78939
 C1780 C 0.57148 0.22014 0.79203
 C1781 C 0.58394 0.21360 0.79769
 C1782 C 0.58383 0.19891 0.80113
 C1783 C 0.57134 0.19072 0.79890
 C1784 C 0.55897 0.19721 0.79295
 C1785 C 0.54666 0.18878 0.79070
 C1786 C 0.54654 0.17437 0.79428
 C1787 C 0.55862 0.16804 0.80014
 C1788 C 0.57091 0.17607 0.80244
 C1789 C 0.59630 0.22202 0.79979
 C1790 C 0.59629 0.23651 0.79655
 C1791 C 0.58402 0.24296 0.79130
 C1792 C 0.57172 0.23494 0.78912
 C1793 C 0.59655 0.19231 0.80708
 C1794 C 0.60719 0.18708 0.81208
 C1795 C 0.54688 0.21836 0.78240
 C1796 C 0.53716 0.22416 0.77626
 H1797 H 0.53700 0.19325 0.78622
 H1798 H 0.53703 0.16808 0.79252
 H1799 H 0.55846 0.15685 0.80291
 H1800 H 0.58004 0.17068 0.80700
 H1801 H 0.60608 0.21751 0.80394
 H1802 H 0.60584 0.24278 0.79822
 H1803 H 0.58402 0.25425 0.78893
 H1804 H 0.56237 0.24049 0.78528
 C1805 C 1.05904 0.71201 0.78926
 C1806 C 1.05887 0.69744 0.79312
 C1807 C 1.07124 0.69106 0.79916
 C1808 C 1.08372 0.69929 0.80128
 C1809 C 1.08382 0.71393 0.79758
 C1810 C 1.07141 0.72033 0.79168
 C1811 C 1.07171 0.73503 0.78827
 C1812 C 1.08398 0.74311 0.79042
 C1813 C 1.09618 0.73681 0.79603
 C1814 C 1.09615 0.72240 0.79962
 C1815 C 1.07083 0.67645 0.80287
 C1816 C 1.05855 0.66837 0.80067
 C1817 C 1.04645 0.67462 0.79478
 C1818 C 1.04655 0.68899 0.79103
 C1819 C 1.09646 0.69278 0.80727
 C1820 C 1.10711 0.68757 0.81227
 C1821 C 1.04679 0.71835 0.78217
 C1822 C 1.03706 0.72396 0.77589
 H1823 H 1.06246 0.74045 0.78400
 H1824 H 1.08402 0.75433 0.78773
 H1825 H 1.10569 0.74314 0.79764
 H1826 H 1.10589 0.71800 0.80399
 H1827 H 1.07997 0.67112 0.80749
 H1828 H 1.05843 0.65720 0.80355
 H1829 H 1.03694 0.66830 0.79311
 H1830 H 1.03687 0.69339 0.78652
 C1831 C 1.05903 0.21192 0.28920
 C1832 C 1.05890 0.19730 0.29292
 C1833 C 1.07127 0.19092 0.29897
 C1834 C 1.08371 0.19918 0.30122
 C1835 C 1.08377 0.21385 0.29766
 C1836 C 1.07135 0.22026 0.29179
 C1837 C 1.07158 0.23501 0.28859
 C1838 C 1.08382 0.24311 0.29084
 C1839 C 1.09603 0.23680 0.29639
 C1840 C 1.09606 0.22235 0.29981
 C1841 C 1.07090 0.17628 0.30256
 C1842 C 1.05865 0.16817 0.30024
 C1843 C 1.04657 0.17442 0.29433
 C1844 C 1.04663 0.18882 0.29069
 C1845 C 1.09644 0.19267 0.30723
 C1846 C 1.10709 0.18747 0.31225
 C1847 C 1.04681 0.21827 0.28210
 C1848 C 1.03708 0.22389 0.27582
 H1849 H 1.06230 0.24045 0.28444
 H1850 H 1.08381 0.25437 0.28829
 H1851 H 1.10552 0.24314 0.29810
 H1852 H 1.10582 0.21794 0.30415
 H1853 H 1.08004 0.17094 0.30718
 H1854 H 1.05855 0.15699 0.30304
 H1855 H 1.03708 0.16809 0.29255
 H1856 H 1.03695 0.19324 0.28618
 C1857 C 0.55902 0.28789 0.71087
 C1858 C 0.55875 0.30244 0.70691
 C1859 C 0.57112 0.30886 0.70091
 C1860 C 0.58368 0.30069 0.69889
 C1861 C 0.58389 0.28609 0.70273
 C1862 C 0.57152 0.27967 0.70869
 C1863 C 0.57200 0.26505 0.71242
 C1864 C 0.58436 0.25703 0.71038
 C1865 C 0.59647 0.26333 0.70462
 C1866 C 0.59631 0.27769 0.70081
 C1867 C 0.57063 0.32346 0.69714
 C1868 C 0.55827 0.33147 0.69921
 C1869 C 0.54617 0.32518 0.70505
 C1870 C 0.54635 0.31083 0.70888
 C1871 C 0.59638 0.30723 0.69287
 C1872 C 0.60701 0.31245 0.68784
 C1873 C 0.54672 0.28147 0.71777
 C1874 C 0.53696 0.27579 0.72393
 H1875 H 0.56284 0.25963 0.71689
 H1876 H 0.58453 0.24587 0.71328
 H1877 H 0.60606 0.25707 0.70307
 H1878 H 0.60600 0.28210 0.69636
 H1879 H 0.57978 0.32882 0.69257
 H1880 H 0.55809 0.34263 0.69628
 H1881 H 0.53660 0.33146 0.70663
 H1882 H 0.53668 0.30640 0.71337
 C1883 C 0.55912 0.78819 0.21102
 C1884 C 0.55891 0.80275 0.20710
 C1885 C 0.57127 0.80912 0.20104
 C1886 C 0.58378 0.80089 0.19896
 C1887 C 0.58393 0.78627 0.20270
 C1888 C 0.57153 0.77988 0.20864
 C1889 C 0.57188 0.76520 0.21210
 C1890 C 0.58418 0.75712 0.20997
 C1891 C 0.59635 0.76341 0.20431
 C1892 C 0.59628 0.77780 0.20067
 C1893 C 0.57082 0.82371 0.19725
 C1894 C 0.55850 0.83178 0.19938
 C1895 C 0.54641 0.82555 0.20530
 C1896 C 0.54655 0.81120 0.20914
 C1897 C 0.59649 0.80739 0.19294
 C1898 C 0.60712 0.81260 0.18792
 C1899 C 0.54688 0.78185 0.21809
 C1900 C 0.53716 0.77621 0.22435
 H1901 H 0.56264 0.75978 0.21639
 H1902 H 0.58425 0.74591 0.21271
 H1903 H 0.60588 0.75708 0.20268
 H1904 H 0.60600 0.78219 0.19625
 H1905 H 0.57996 0.82903 0.19261
 H1906 H 0.55834 0.84293 0.19642
 H1907 H 0.53687 0.83186 0.20692
 H1908 H 0.53688 0.80680 0.21366
 C1909 C 1.05903 0.28818 0.21103
 C1910 C 1.05881 0.30273 0.20708
 C1911 C 1.07121 0.30912 0.20110
 C1912 C 1.08374 0.30090 0.19912
 C1913 C 1.08391 0.28630 0.20293
 C1914 C 1.07149 0.27990 0.20882
 C1915 C 1.07188 0.26525 0.21242
 C1916 C 1.08423 0.25721 0.21044
 C1917 C 1.09641 0.26350 0.20479
 C1918 C 1.09630 0.27786 0.20104
 C1919 C 1.07075 0.32370 0.19729
 C1920 C 1.05842 0.33175 0.19935
 C1921 C 1.04630 0.32551 0.20519
 C1922 C 1.04643 0.31116 0.20903
 C1923 C 1.09647 0.30741 0.19313
 C1924 C 1.10711 0.31260 0.18811
 C1925 C 1.04675 0.28183 0.21801
 C1926 C 1.03700 0.27618 0.22422
 H1927 H 1.06265 0.25984 0.21674
 H1928 H 1.08434 0.24603 0.21328
 H1929 H 1.10598 0.25721 0.20328
 H1930 H 1.10604 0.28226 0.19666
 H1931 H 1.07992 0.32903 0.19272
 H1932 H 1.05826 0.34291 0.19640
 H1933 H 1.03674 0.33181 0.20677
 H1934 H 1.03673 0.30675 0.21349
 C1935 C 1.05901 0.78822 0.71097
 C1936 C 1.07141 0.77990 0.70858
 C1937 C 1.08381 0.78629 0.70263
 C1938 C 1.08367 0.80091 0.69887
 C1939 C 1.07116 0.80914 0.70097
 C1940 C 1.05880 0.80278 0.70705
 C1941 C 1.04645 0.81123 0.70911
 C1942 C 1.04633 0.82559 0.70530
 C1943 C 1.05841 0.83181 0.69937
 C1944 C 1.07071 0.82373 0.69719
 C1945 C 1.09617 0.77782 0.70062
 C1946 C 1.09624 0.76343 0.70428
 C1947 C 1.08407 0.75714 0.70994
 C1948 C 1.07176 0.76522 0.71206
 C1949 C 1.09637 0.80740 0.69282
 C1950 C 1.10700 0.81259 0.68775
 C1951 C 1.04678 0.78190 0.71807
 C1952 C 1.03705 0.77629 0.72435
 H1953 H 1.03678 0.80684 0.71364
 H1954 H 1.03680 0.83191 0.70696
 H1955 H 1.05826 0.84297 0.69645
 H1956 H 1.07985 0.82905 0.69254
 H1957 H 1.10589 0.78221 0.69620
 H1958 H 1.10579 0.75711 0.70268
 H1959 H 1.08414 0.74593 0.71268
 H1960 H 1.06253 0.75981 0.71637
 C1961 C 0.44064 0.71164 0.71181
 C1962 C 0.42811 0.71989 0.70990
 C1963 C 0.41579 0.71364 0.70368
 C1964 C 0.41607 0.69919 0.69933
 C1965 C 0.42868 0.69102 0.70102
 C1966 C 0.44100 0.69726 0.70727
 C1967 C 0.45345 0.68888 0.70889
 C1968 C 0.45372 0.67470 0.70448
 C1969 C 0.44168 0.66859 0.69838
 C1970 C 0.42927 0.67660 0.69663
 C1971 C 0.40336 0.72208 0.70198
 C1972 C 0.40313 0.73629 0.70628
 C1973 C 0.41519 0.74241 0.71233
 C1974 C 0.42756 0.73436 0.71414
 C1975 C 0.40338 0.69277 0.69318
 C1976 C 0.39277 0.68758 0.68809
 C1977 C 0.45291 0.71787 0.71889
 C1978 C 0.46268 0.72344 0.72513
 H1979 H 0.46309 0.69318 0.71355
 H1980 H 0.46333 0.66842 0.70582
 H1981 H 0.44195 0.65757 0.69498
 H1982 H 0.42018 0.67138 0.69182
 H1983 H 0.39371 0.71781 0.69731
 H1984 H 0.39355 0.74259 0.70488
 H1985 H 0.41498 0.75346 0.71562
 H1986 H 0.43668 0.73963 0.71884
 C1987 C 0.44105 0.21022 0.21256
 C1988 C 0.44128 0.20621 0.19801
 C1989 C 0.42891 0.20014 0.19167
 C1990 C 0.41639 0.19815 0.19990
 C1991 C 0.41624 0.20196 0.21451
 C1992 C 0.42864 0.20790 0.22088
 C1993 C 0.42829 0.21145 0.23555
 C1994 C 0.41598 0.20938 0.24364
 C1995 C 0.40381 0.20371 0.23738
 C1996 C 0.40389 0.20000 0.22299
 C1997 C 0.42938 0.19625 0.17709
 C1998 C 0.44170 0.19831 0.16902
 C1999 C 0.45378 0.20425 0.17523
 C2000 C 0.45364 0.20816 0.18956
 C2001 C 0.40365 0.19221 0.19339
 C2002 C 0.39300 0.18731 0.18812
 C2003 C 0.45327 0.21737 0.21884
 C2004 C 0.46298 0.22370 0.22439
 H2005 H 0.43752 0.21574 0.24095
 H2006 H 0.41591 0.21218 0.25484
 H2007 H 0.39428 0.20213 0.24371
 H2008 H 0.39416 0.19559 0.21862
 H2009 H 0.42025 0.19160 0.17179
 H2010 H 0.44188 0.19528 0.15788
 H2011 H 0.46333 0.20582 0.16891
 H2012 H 0.46331 0.21268 0.19395
 C2013 C -0.05925 0.71010 0.21290
 C2014 C -0.05897 0.70629 0.19830
 C2015 C -0.07131 0.70031 0.19182
 C2016 C -0.08388 0.69825 0.19996
 C2017 C -0.08413 0.70196 0.21459
 C2018 C -0.07173 0.70774 0.22112
 C2019 C -0.07217 0.71108 0.23583
 C2020 C -0.08456 0.70906 0.24379
 C2021 C -0.09674 0.70360 0.23736
 C2022 C -0.09658 0.70005 0.22294
 C2023 C -0.07077 0.69658 0.17721
 C2024 C -0.05839 0.69868 0.16923
 C2025 C -0.04635 0.70455 0.17556
 C2026 C -0.04657 0.70834 0.18993
 C2027 C -0.09657 0.69229 0.19335
 C2028 C -0.10720 0.68736 0.18805
 C2029 C -0.04701 0.71703 0.21939
 C2030 C -0.03728 0.72316 0.22516
 H2031 H -0.06293 0.71517 0.24136
 H2032 H -0.08470 0.71171 0.25502
 H2033 H -0.10635 0.70205 0.24359
 H2034 H -0.10632 0.69581 0.21843
 H2035 H -0.07989 0.69202 0.17180
 H2036 H -0.05815 0.69575 0.15806
 H2037 H -0.03676 0.70618 0.16931
 H2038 H -0.03694 0.71283 0.19440
 C2039 C -0.05927 0.21006 0.71282
 C2040 C -0.05908 0.20654 0.69815
 C2041 C -0.07143 0.20061 0.69164
 C2042 C -0.08391 0.19829 0.69984
 C2043 C -0.08407 0.20170 0.71454
 C2044 C -0.07168 0.20747 0.72108
 C2045 C -0.07204 0.21060 0.73585
 C2046 C -0.08435 0.20830 0.74387
 C2047 C -0.09651 0.20281 0.73745
 C2048 C -0.09643 0.19950 0.72296
 C2049 C -0.07099 0.19719 0.67695
 C2050 C -0.05870 0.19956 0.66891
 C2051 C -0.04664 0.20539 0.67527
 C2052 C -0.04677 0.20886 0.68971
 C2053 C -0.09660 0.19238 0.69321
 C2054 C -0.10722 0.18747 0.68788
 C2055 C -0.04702 0.21692 0.71935
 C2056 C -0.03729 0.22300 0.72516
 H2057 H -0.06281 0.21475 0.74137
 H2058 H -0.08444 0.21079 0.75514
 H2059 H -0.10605 0.20105 0.74372
 H2060 H -0.10615 0.19522 0.71846
 H2061 H -0.08011 0.19267 0.67153
 H2062 H -0.05853 0.19687 0.65769
 H2063 H -0.03712 0.20722 0.66897
 H2064 H -0.03713 0.21335 0.69419
 C2065 C 0.28798 0.44074 0.28876
 C2066 C 0.27971 0.42828 0.29082
 C2067 C 0.28608 0.41589 0.29678
 C2068 C 0.30066 0.41606 0.30075
 C2069 C 0.30889 0.42857 0.29884
 C2070 C 0.30252 0.44095 0.29282
 C2071 C 0.31096 0.45331 0.29097
 C2072 C 0.32529 0.45344 0.29493
 C2073 C 0.33152 0.44133 0.30080
 C2074 C 0.32346 0.42901 0.30276
 C2075 C 0.27762 0.40353 0.29862
 C2076 C 0.26327 0.40342 0.29471
 C2077 C 0.25703 0.41555 0.28893
 C2078 C 0.26509 0.42787 0.28699
 C2079 C 0.30713 0.40336 0.30682
 C2080 C 0.31231 0.39274 0.31190
 C2081 C 0.28158 0.45310 0.28197
 C2082 C 0.27582 0.46290 0.27596
 H2083 H 0.30657 0.46299 0.28646
 H2084 H 0.33160 0.46298 0.29343
 H2085 H 0.34266 0.44148 0.30385
 H2086 H 0.32878 0.41985 0.30736
 H2087 H 0.28198 0.39382 0.30308
 H2088 H 0.25696 0.39388 0.29619
 H2089 H 0.24587 0.41543 0.28593
 H2090 H 0.25972 0.43704 0.28251
 C2091 C 0.28817 -0.05960 0.78940
 C2092 C 0.30282 -0.05943 0.79308
 C2093 C 0.30933 -0.07185 0.79888
 C2094 C 0.30117 -0.08439 0.80090
 C2095 C 0.28649 -0.08452 0.79729
 C2096 C 0.27994 -0.07206 0.79168
 C2097 C 0.26519 -0.07240 0.78844
 C2098 C 0.25720 -0.08476 0.79040
 C2099 C 0.26365 -0.09700 0.79569
 C2100 C 0.27811 -0.09693 0.79915
 C2101 C 0.32399 -0.07141 0.80248
 C2102 C 0.33199 -0.05907 0.80042
 C2103 C 0.32562 -0.04694 0.79474
 C2104 C 0.31121 -0.04706 0.79108
 C2105 C 0.30776 -0.09711 0.80683
 C2106 C 0.31296 -0.10775 0.81184
 C2107 C 0.28162 -0.04726 0.78267
 C2108 C 0.27575 -0.03749 0.77670
 H2109 H 0.25964 -0.06311 0.78446
 H2110 H 0.24595 -0.08482 0.78781
 H2111 H 0.25741 -0.10658 0.79720
 H2112 H 0.28263 -0.10672 0.80328
 H2113 H 0.32941 -0.08059 0.80690
 H2114 H 0.34319 -0.05891 0.80325
 H2115 H 0.33189 -0.03738 0.79316
 H2116 H 0.30672 -0.03737 0.78672
 C2117 C 0.78807 0.44057 0.78898
 C2118 C 0.77982 0.42809 0.79097
 C2119 C 0.78620 0.41568 0.79689
 C2120 C 0.80076 0.41585 0.80090
 C2121 C 0.80897 0.42839 0.79909
 C2122 C 0.80260 0.44079 0.79311
 C2123 C 0.81101 0.45318 0.79135
 C2124 C 0.82533 0.45332 0.79538
 C2125 C 0.83156 0.44120 0.80122
 C2126 C 0.82352 0.42885 0.80308
 C2127 C 0.77776 0.40328 0.79863
 C2128 C 0.76342 0.40317 0.79469
 C2129 C 0.75717 0.41532 0.78896
 C2130 C 0.76521 0.42766 0.78711
 C2131 C 0.80724 0.40314 0.80693
 C2132 C 0.81241 0.39251 0.81199
 C2133 C 0.78167 0.45294 0.78222
 C2134 C 0.77589 0.46275 0.77623
 H2135 H 0.80662 0.46287 0.78688
 H2136 H 0.83162 0.46288 0.79396
 H2137 H 0.84268 0.44137 0.80433
 H2138 H 0.82884 0.41969 0.80766
 H2139 H 0.78213 0.39357 0.80306
 H2140 H 0.75713 0.39360 0.79611
 H2141 H 0.74602 0.41519 0.78594
 H2142 H 0.75983 0.43685 0.78269
 C2143 C 0.78823 -0.05949 0.28909
 C2144 C 0.80278 -0.05927 0.29312
 C2145 C 0.80917 -0.07164 0.29914
 C2146 C 0.80097 -0.08417 0.30104
 C2147 C 0.78638 -0.08435 0.29710
 C2148 C 0.77998 -0.07196 0.29117
 C2149 C 0.76535 -0.07238 0.28741
 C2150 C 0.75731 -0.08472 0.28932
 C2151 C 0.76359 -0.09686 0.29504
 C2152 C 0.77795 -0.09673 0.29892
 C2153 C 0.82374 -0.07117 0.30307
 C2154 C 0.83178 -0.05883 0.30110
 C2155 C 0.82554 -0.04675 0.29520
 C2156 C 0.81120 -0.04690 0.29124
 C2157 C 0.80747 -0.09685 0.30712
 C2158 C 0.81265 -0.10747 0.31221
 C2159 C 0.78180 -0.04715 0.28231
 C2160 C 0.77598 -0.03736 0.27632
 H2161 H 0.75994 -0.06320 0.28301
 H2162 H 0.74615 -0.08485 0.28635
 H2163 H 0.75731 -0.10642 0.29651
 H2164 H 0.78234 -0.10644 0.30336
 H2165 H 0.82907 -0.08030 0.30770
 H2166 H 0.84292 -0.05866 0.30415
 H2167 H 0.83184 -0.03721 0.29367
 H2168 H 0.80681 -0.03724 0.28671
 C2169 C 0.28816 0.55919 0.71133
 C2170 C 0.30267 0.55893 0.70712
 C2171 C 0.30900 0.57127 0.70101
 C2172 C 0.30076 0.58380 0.69911
 C2173 C 0.28620 0.58400 0.70317
 C2174 C 0.27988 0.57166 0.70928
 C2175 C 0.26530 0.57213 0.71327
 C2176 C 0.25721 0.58443 0.71128
 C2177 C 0.26339 0.59650 0.70531
 C2178 C 0.27771 0.59635 0.70129
 C2179 C 0.32355 0.57078 0.69697
 C2180 C 0.33161 0.55844 0.69891
 C2181 C 0.32542 0.54637 0.70486
 C2182 C 0.31111 0.54655 0.70894
 C2183 C 0.30723 0.59649 0.69302
 C2184 C 0.31244 0.60709 0.68796
 C2185 C 0.28183 0.54688 0.71826
 C2186 C 0.27620 0.53709 0.72440
 H2187 H 0.25999 0.56301 0.71792
 H2188 H 0.24607 0.58459 0.71437
 H2189 H 0.25705 0.60603 0.70379
 H2190 H 0.28203 0.60600 0.69670
 H2191 H 0.32884 0.57990 0.69230
 H2192 H 0.34273 0.55825 0.69577
 H2193 H 0.33173 0.53682 0.70634
 H2194 H 0.30674 0.53689 0.71349
 C2195 C 0.28825 1.05920 0.21121
 C2196 C 0.30276 1.05896 0.20701
 C2197 C 0.30908 1.07133 0.20094
 C2198 C 0.30083 1.08385 0.19908
 C2199 C 0.28626 1.08403 0.20312
 C2200 C 0.27995 1.07166 0.20918
 C2201 C 0.26537 1.07211 0.21315
 C2202 C 0.25726 1.08441 0.21118
 C2203 C 0.26344 1.09650 0.20528
 C2204 C 0.27777 1.09638 0.20128
 C2205 C 0.32363 1.07087 0.19692
 C2206 C 0.33171 1.05853 0.19882
 C2207 C 0.32551 1.04643 0.20472
 C2208 C 0.31120 1.04658 0.20879
 C2209 C 0.30729 1.09656 0.19305
 C2210 C 0.31249 1.10719 0.18802
 C2211 C 0.28193 1.04689 0.21813
 C2212 C 0.27631 1.03710 0.22428
 H2213 H 0.26005 1.06297 0.21775
 H2214 H 0.24612 1.08454 0.21426
 H2215 H 0.25709 1.10603 0.20378
 H2216 H 0.28208 1.10606 0.19672
 H2217 H 0.32892 1.08001 0.19228
 H2218 H 0.34284 1.05836 0.19569
 H2219 H 0.33183 1.03688 0.20617
 H2220 H 0.30684 1.03691 0.21331
 C2221 C 0.78826 0.55916 0.21136
 C2222 C 0.80276 0.55890 0.20714
 C2223 C 0.80909 0.57127 0.20108
 C2224 C 0.80086 0.58381 0.19925
 C2225 C 0.78630 0.58400 0.20330
 C2226 C 0.77998 0.57164 0.20937
 C2227 C 0.76541 0.57211 0.21337
 C2228 C 0.75732 0.58443 0.21145
 C2229 C 0.76350 0.59651 0.20552
 C2230 C 0.77781 0.59636 0.20147
 C2231 C 0.82364 0.57078 0.19702
 C2232 C 0.83170 0.55843 0.19891
 C2233 C 0.82550 0.54635 0.20483
 C2234 C 0.81119 0.54651 0.20890
 C2235 C 0.80733 0.59653 0.19324
 C2236 C 0.81249 0.60717 0.18821
 C2237 C 0.78193 0.54685 0.21827
 C2238 C 0.77630 0.53707 0.22442
 H2239 H 0.76009 0.56298 0.21799
 H2240 H 0.74619 0.58459 0.21456
 H2241 H 0.75717 0.60606 0.20404
 H2242 H 0.78213 0.60602 0.19689
 H2243 H 0.82893 0.57991 0.19236
 H2244 H 0.84282 0.55825 0.19578
 H2245 H 0.83181 0.53678 0.20627
 H2246 H 0.80682 0.53684 0.21342
 C2247 C 0.78818 1.05922 0.71116
 C2248 C 0.77951 1.07085 0.70693
 C2249 C 0.78588 1.08323 0.70096
 C2250 C 0.80088 1.08389 0.69920
 C2251 C 0.80954 1.07222 0.70332
 C2252 C 0.80316 1.05984 0.70931
 C2253 C 0.81202 1.04832 0.71340
 C2254 C 0.82677 1.04901 0.71163
 C2255 C 0.83301 1.06112 0.70578
 C2256 C 0.82454 1.07262 0.70165
 C2257 C 0.77699 1.09476 0.69692
 C2258 C 0.76224 1.09407 0.69871
 C2259 C 0.75602 1.08196 0.70453
 C2260 C 0.76449 1.07045 0.70860
 C2261 C 0.80735 1.09660 0.69316
 C2262 C 0.81251 1.10722 0.68809
 C2263 C 0.78165 1.04693 0.71791
 C2264 C 0.77573 1.03719 0.72385
 H2265 H 0.80765 1.03868 0.71798
 H2266 H 0.83340 1.04011 0.71481
 H2267 H 0.84448 1.06160 0.70443
 H2268 H 0.82988 1.08181 0.69717
 H2269 H 0.78133 1.10442 0.69235
 H2270 H 0.75561 1.10298 0.69556
 H2271 H 0.74455 1.08147 0.70589
 H2272 H 0.75912 1.06126 0.71303
 C2273 C 0.71162 0.55907 0.28863
 C2274 C 0.69669 0.56121 0.28783
 C2275 C 0.69047 0.57366 0.29386
 C2276 C 0.69924 0.58389 0.30066
 C2277 C 0.71417 0.58169 0.30157
 C2278 C 0.72037 0.56925 0.29555
 C2279 C 0.73534 0.56732 0.29653
 C2280 C 0.74391 0.57741 0.30325
 C2281 C 0.73784 0.58959 0.30912
 C2282 C 0.72315 0.59176 0.30833
 C2283 C 0.67553 0.57561 0.29283
 C2284 C 0.66696 0.56554 0.28606
 C2285 C 0.67304 0.55336 0.28019
 C2286 C 0.68773 0.55116 0.28103
 C2287 C 0.69295 0.59670 0.30669
 C2288 C 0.68786 0.60737 0.31175
 C2289 C 0.71814 0.54680 0.28180
 C2290 C 0.72407 0.53706 0.27587
 H2291 H 0.74057 0.55801 0.29216
 H2292 H 0.75533 0.57577 0.30390
 H2293 H 0.74455 0.59740 0.31432
 H2294 H 0.71893 0.60140 0.31305
 H2295 H 0.67031 0.58493 0.29722
 H2296 H 0.65555 0.56721 0.28536
 H2297 H 0.66634 0.54558 0.27495
 H2298 H 0.69197 0.54152 0.27632
 C2299 C 0.71162 1.05942 0.78897
 C2300 C 0.72024 1.06935 0.79637
 C2301 C 0.71397 1.08177 0.80240
 C2302 C 0.69912 1.08420 0.80098
 C2303 C 0.69049 1.07424 0.79361
 C2304 C 0.69676 1.06180 0.78761
 C2305 C 0.68793 1.05203 0.78026
 C2306 C 0.67333 1.05449 0.77885
 C2307 C 0.66720 1.06666 0.78469
 C2308 C 0.67563 1.07646 0.79200
 C2309 C 0.72283 1.09157 0.80968
 C2310 C 0.73745 1.08919 0.81096
 C2311 C 0.74358 1.07706 0.80505
 C2312 C 0.73513 1.06722 0.79783
 C2313 C 0.69277 1.09698 0.80701
 C2314 C 0.68765 1.10764 0.81206
 C2315 C 0.71821 1.04717 0.78218
 C2316 C 0.72414 1.03741 0.77625
 H2317 H 0.69222 1.04241 0.77555
 H2318 H 0.66673 1.04692 0.77317
 H2319 H 0.65586 1.06853 0.78355
 H2320 H 0.67039 1.08577 0.79635
 H2321 H 0.71856 1.10118 0.81444
 H2322 H 0.74407 1.09680 0.81656
 H2323 H 0.75495 1.07526 0.80607
 H2324 H 0.74041 1.05795 0.79343
 C2325 C 0.21142 0.55890 0.78867
 C2326 C 0.19650 0.56108 0.78774
 C2327 C 0.19026 0.57350 0.79378
 C2328 C 0.19897 0.58365 0.80076
 C2329 C 0.21389 0.58141 0.80181
 C2330 C 0.22013 0.56899 0.79575
 C2331 C 0.23507 0.56702 0.79688
 C2332 C 0.24360 0.57703 0.80378
 C2333 C 0.23750 0.58917 0.80969
 C2334 C 0.22282 0.59139 0.80875
 C2335 C 0.17533 0.57550 0.79261
 C2336 C 0.16681 0.56550 0.78568
 C2337 C 0.17291 0.55334 0.77980
 C2338 C 0.18759 0.55110 0.78078
 C2339 C 0.19266 0.59645 0.80679
 C2340 C 0.18758 0.60713 0.81183
 C2341 C 0.21798 0.54666 0.78182
 C2342 C 0.22394 0.53694 0.77588
 H2343 H 0.24033 0.55775 0.79247
 H2344 H 0.25501 0.57534 0.80454
 H2345 H 0.24418 0.59692 0.81502
 H2346 H 0.21858 0.60101 0.81350
 H2347 H 0.17009 0.58480 0.79700
 H2348 H 0.15541 0.56721 0.78487
 H2349 H 0.16625 0.54561 0.77444
 H2350 H 0.19186 0.54149 0.77603
 C2351 C 0.21158 1.05905 0.28856
 C2352 C 0.22030 1.06921 0.29553
 C2353 C 0.21405 1.08161 0.30160
 C2354 C 0.19912 1.08378 0.30068
 C2355 C 0.19039 1.07358 0.29378
 C2356 C 0.19665 1.06116 0.28772
 C2357 C 0.18773 1.05114 0.28085
 C2358 C 0.17304 1.05332 0.27995
 C2359 C 0.16692 1.06547 0.28585
 C2360 C 0.17545 1.07552 0.29271
 C2361 C 0.22300 1.09166 0.30843
 C2362 C 0.23770 1.08951 0.30924
 C2363 C 0.24381 1.07738 0.30331
 C2364 C 0.23526 1.06731 0.29654
 C2365 C 0.19279 1.09655 0.30674
 C2366 C 0.18769 1.10720 0.31183
 C2367 C 0.21813 1.04680 0.28173
 C2368 C 0.22408 1.03706 0.27580
 H2369 H 0.19200 1.04151 0.27612
 H2370 H 0.16637 1.04555 0.27465
 H2371 H 0.15551 1.06713 0.28512
 H2372 H 0.17021 1.08481 0.29712
 H2373 H 0.21876 1.10127 0.31319
 H2374 H 0.24438 1.09731 0.31449
 H2375 H 0.25523 1.07576 0.30397
 H2376 H 0.24052 1.05803 0.29213
 C2377 C 0.71187 0.44075 0.71121
 C2378 C 0.69686 0.43912 0.71139
 C2379 C 0.69053 0.42672 0.70541
 C2380 C 0.69926 0.41603 0.69925
 C2381 C 0.71428 0.41771 0.69899
 C2382 C 0.72060 0.43010 0.70497
 C2383 C 0.73565 0.43150 0.70464
 C2384 C 0.74420 0.42096 0.69858
 C2385 C 0.73802 0.40884 0.69274
 C2386 C 0.72324 0.40718 0.69291
 C2387 C 0.67550 0.42528 0.70582
 C2388 C 0.66696 0.43580 0.71195
 C2389 C 0.67315 0.44793 0.71777
 C2390 C 0.68792 0.44963 0.71753
 C2391 C 0.69284 0.40328 0.69324
 C2392 C 0.68769 0.39264 0.68821
 C2393 C 0.71846 0.45301 0.71797
 C2394 C 0.72439 0.46276 0.72387
 H2395 H 0.74097 0.44074 0.70902
 H2396 H 0.75569 0.42221 0.69842
 H2397 H 0.74472 0.40067 0.68807
 H2398 H 0.71895 0.39755 0.68824
 H2399 H 0.67020 0.41603 0.70144
 H2400 H 0.65548 0.43452 0.71220
 H2401 H 0.66647 0.45607 0.72252
 H2402 H 0.69225 0.45925 0.72219
 C2403 C 0.71202 -0.05922 0.21117
 C2404 C 0.72071 -0.06978 0.20476
 C2405 C 0.71436 -0.08217 0.19879
 C2406 C 0.69936 -0.08392 0.19928
 C2407 C 0.69066 -0.07332 0.20563
 C2408 C 0.69701 -0.06092 0.21158
 C2409 C 0.68812 -0.05050 0.21791
 C2410 C 0.67336 -0.05228 0.21839
 C2411 C 0.66715 -0.06442 0.21259
 C2412 C 0.67565 -0.07485 0.20627
 C2413 C 0.72329 -0.09261 0.19251
 C2414 C 0.73805 -0.09088 0.19214
 C2415 C 0.74426 -0.07877 0.19798
 C2416 C 0.73574 -0.06831 0.20422
 C2417 C 0.69292 -0.09666 0.19330
 C2418 C 0.68775 -0.10729 0.18828
 C2419 C 0.71864 -0.04698 0.21791
 C2420 C 0.72461 -0.03726 0.22381
 H2421 H 0.69247 -0.04087 0.22255
 H2422 H 0.66671 -0.04421 0.22328
 H2423 H 0.65568 -0.06576 0.21300
 H2424 H 0.67033 -0.08411 0.20192
 H2425 H 0.71897 -0.10223 0.18784
 H2426 H 0.74471 -0.09898 0.18731
 H2427 H 0.75574 -0.07747 0.19767
 H2428 H 0.74108 -0.05908 0.20860
 C2429 C 0.21157 0.44106 0.21103
 C2430 C 0.19730 0.43742 0.21441
 C2431 C 0.19108 0.42495 0.20847
 C2432 C 0.19917 0.41621 0.19916
 C2433 C 0.21339 0.41993 0.19567
 C2434 C 0.21961 0.43239 0.20163
 C2435 C 0.23390 0.43582 0.19809
 C2436 C 0.24180 0.42720 0.18891
 C2437 C 0.23572 0.41504 0.18307
 C2438 C 0.22168 0.41139 0.18637
 C2439 C 0.17685 0.42145 0.21211
 C2440 C 0.16898 0.43003 0.22136
 C2441 C 0.17505 0.44223 0.22715
 C2442 C 0.18905 0.44594 0.22375
 C2443 C 0.19291 0.40334 0.19326
 C2444 C 0.18783 0.39264 0.18830
 C2445 C 0.21827 0.45326 0.21779
 C2446 C 0.22426 0.46297 0.22368
 H2447 H 0.23911 0.44518 0.20235
 H2448 H 0.25272 0.42998 0.18633
 H2449 H 0.24191 0.40838 0.17594
 H2450 H 0.21743 0.40182 0.18156
 H2451 H 0.17166 0.41207 0.20788
 H2452 H 0.15811 0.42719 0.22405
 H2453 H 0.16889 0.44886 0.23433
 H2454 H 0.19331 0.45555 0.22850
 C2455 C 0.21249 -0.05941 0.71066
 C2456 C 0.22068 -0.07188 0.70827
 C2457 C 0.21412 -0.08422 0.70243
 C2458 C 0.19946 -0.08396 0.69880
 C2459 C 0.19132 -0.07141 0.70094
 C2460 C 0.19786 -0.05911 0.70692
 C2461 C 0.18950 -0.04672 0.70905
 C2462 C 0.17509 -0.04648 0.70536
 C2463 C 0.16871 -0.05849 0.69951
 C2464 C 0.17668 -0.07085 0.69730
 C2465 C 0.22249 -0.09664 0.70039
 C2466 C 0.23693 -0.09683 0.70394
 C2467 C 0.24337 -0.08473 0.70952
 C2468 C 0.23541 -0.07236 0.71164
 C2469 C 0.19281 -0.09658 0.69280
 C2470 C 0.18753 -0.10715 0.68775
 C2471 C 0.21903 -0.04719 0.71753
 C2472 C 0.22484 -0.03747 0.72361
 H2473 H 0.19400 -0.03712 0.71357
 H2474 H 0.16885 -0.03691 0.70706
 H2475 H 0.15752 -0.05824 0.69666
 H2476 H 0.17124 -0.07993 0.69273
 H2477 H 0.21797 -0.10631 0.69605
 H2478 H 0.24316 -0.10642 0.70231
 H2479 H 0.25461 -0.08490 0.71219
 H2480 H 0.24095 -0.06319 0.71586
 C2481 C 0.28910 0.28790 0.44104
 C2482 C 0.29135 0.27960 0.42862
 C2483 C 0.29726 0.28598 0.41621
 C2484 C 0.30112 0.30056 0.41636
 C2485 C 0.29918 0.30877 0.42888
 C2486 C 0.29314 0.30242 0.44126
 C2487 C 0.29124 0.31085 0.45362
 C2488 C 0.29517 0.32517 0.45375
 C2489 C 0.30106 0.33138 0.44165
 C2490 C 0.30308 0.32333 0.42933
 C2491 C 0.29915 0.27753 0.40384
 C2492 C 0.29539 0.26317 0.40376
 C2493 C 0.28975 0.25690 0.41595
 C2494 C 0.28776 0.26495 0.42827
 C2495 C 0.30709 0.30705 0.40362
 C2496 C 0.31205 0.31226 0.39297
 C2497 C 0.28200 0.28160 0.45328
 C2498 C 0.27571 0.27601 0.46301
 H2499 H 0.28674 0.30646 0.46331
 H2500 H 0.29363 0.33147 0.46330
 H2501 H 0.30410 0.34251 0.44181
 H2502 H 0.30771 0.32863 0.42018
 H2503 H 0.30353 0.28192 0.39410
 H2504 H 0.29690 0.25688 0.39421
 H2505 H 0.28692 0.24572 0.41586
 H2506 H 0.28348 0.25954 0.43751
 C2507 C 0.28977 0.78779 -0.05930
 C2508 C 0.29180 0.77960 -0.07182
 C2509 C 0.29770 0.78602 -0.08422
 C2510 C 0.30162 0.80059 -0.08400
 C2511 C 0.29978 0.80873 -0.07142
 C2512 C 0.29383 0.80231 -0.05903
 C2513 C 0.29203 0.81066 -0.04660
 C2514 C 0.29596 0.82498 -0.04643
 C2515 C 0.30176 0.83127 -0.05854
 C2516 C 0.30368 0.82328 -0.07092
 C2517 C 0.29948 0.77765 -0.09665
 C2518 C 0.29558 0.76332 -0.09682
 C2519 C 0.28986 0.75702 -0.08468
 C2520 C 0.28799 0.76501 -0.07230
 C2521 C 0.30756 0.80714 -0.09673
 C2522 C 0.31249 0.81239 -0.10739
 C2523 C 0.28287 0.78139 -0.04700
 C2524 C 0.27669 0.77571 -0.03725
 H2525 H 0.28761 0.80622 -0.03691
 H2526 H 0.29449 0.83124 -0.03684
 H2527 H 0.30479 0.84239 -0.05834
 H2528 H 0.30824 0.82864 -0.08008
 H2529 H 0.30389 0.78205 -0.10636
 H2530 H 0.29702 0.75708 -0.10642
 H2531 H 0.28688 0.74588 -0.08485
 H2532 H 0.28358 0.75959 -0.06312
 C2533 C 0.78896 0.28833 -0.05917
 C2534 C 0.79127 0.28008 -0.07160
 C2535 C 0.79720 0.28652 -0.08398
 C2536 C 0.80101 0.30111 -0.08377
 C2537 C 0.79902 0.30928 -0.07123
 C2538 C 0.79296 0.30287 -0.05889
 C2539 C 0.79100 0.31125 -0.04650
 C2540 C 0.79490 0.32558 -0.04631
 C2541 C 0.80081 0.33185 -0.05838
 C2542 C 0.80288 0.32384 -0.07073
 C2543 C 0.79914 0.27812 -0.09637
 C2544 C 0.79543 0.26375 -0.09651
 C2545 C 0.78978 0.25741 -0.08436
 C2546 C 0.78773 0.26542 -0.07202
 C2547 C 0.80700 0.30766 -0.09647
 C2548 C 0.81198 0.31289 -0.10711
 C2549 C 0.78186 0.28197 -0.04697
 C2550 C 0.77557 0.27633 -0.03726
 H2551 H 0.78649 0.30682 -0.03684
 H2552 H 0.79332 0.33184 -0.03675
 H2553 H 0.80381 0.34298 -0.05818
 H2554 H 0.80751 0.32919 -0.07985
 H2555 H 0.80353 0.28255 -0.10608
 H2556 H 0.79699 0.25749 -0.10607
 H2557 H 0.78699 0.24622 -0.08449
 H2558 H 0.78345 0.25997 -0.06281
 C2559 C 0.78901 0.78823 0.44090
 C2560 C 0.79128 0.77994 0.42848
 C2561 C 0.79718 0.78634 0.41606
 C2562 C 0.80100 0.80093 0.41622
 C2563 C 0.79904 0.80913 0.42874
 C2564 C 0.79302 0.80276 0.44112
 C2565 C 0.79110 0.81118 0.45348
 C2566 C 0.79501 0.82551 0.45362
 C2567 C 0.80088 0.83174 0.44152
 C2568 C 0.80291 0.82370 0.42919
 C2569 C 0.79908 0.77790 0.40369
 C2570 C 0.79535 0.76353 0.40361
 C2571 C 0.78974 0.75724 0.41580
 C2572 C 0.78773 0.76529 0.42812
 C2573 C 0.80696 0.80743 0.40349
 C2574 C 0.81193 0.81265 0.39284
 C2575 C 0.78194 0.78191 0.45314
 C2576 C 0.77567 0.77630 0.46288
 H2577 H 0.78662 0.80678 0.46317
 H2578 H 0.79347 0.83180 0.46317
 H2579 H 0.80389 0.84288 0.44168
 H2580 H 0.80751 0.82902 0.42004
 H2581 H 0.80344 0.78230 0.39395
 H2582 H 0.79688 0.75724 0.39406
 H2583 H 0.78694 0.74605 0.41572
 H2584 H 0.78347 0.75986 0.43736
 C2585 C 0.71191 0.28876 0.55913
 C2586 C 0.72023 0.29050 0.57162
 C2587 C 0.71405 0.29667 0.58401
 C2588 C 0.69960 0.30110 0.58385
 C2589 C 0.69133 0.29952 0.57130
 C2590 C 0.69752 0.29334 0.55890
 C2591 C 0.68904 0.29183 0.54651
 C2592 C 0.67484 0.29625 0.54639
 C2593 C 0.66878 0.30227 0.55851
 C2594 C 0.67689 0.30393 0.57085
 C2595 C 0.72256 0.29823 0.59639
 C2596 C 0.73677 0.29383 0.59651
 C2597 C 0.74281 0.28780 0.58439
 C2598 C 0.73469 0.28612 0.57206
 C2599 C 0.69324 0.30718 0.59661
 C2600 C 0.68805 0.31221 0.60725
 C2601 C 0.71808 0.28176 0.54677
 C2602 C 0.72361 0.27554 0.53695
 H2603 H 0.69330 0.28724 0.53682
 H2604 H 0.66849 0.29499 0.53683
 H2605 H 0.65774 0.30568 0.55836
 H2606 H 0.67171 0.30868 0.58001
 H2607 H 0.71834 0.30286 0.60608
 H2608 H 0.74312 0.29511 0.60606
 H2609 H 0.75387 0.28442 0.58453
 H2610 H 0.73990 0.28142 0.56290
 C2611 C 0.71095 0.78819 1.05913
 C2612 C 0.70870 0.77983 1.07151
 C2613 C 0.70275 0.78614 1.08394
 C2614 C 0.69885 0.80072 1.08385
 C2615 C 0.70079 0.80899 1.07137
 C2616 C 0.70686 0.80271 1.05897
 C2617 C 0.70876 0.81120 1.04664
 C2618 C 0.70480 0.82552 1.04657
 C2619 C 0.69887 0.83167 1.05869
 C2620 C 0.69686 0.82355 1.07098
 C2621 C 0.70087 0.77763 1.09628
 C2622 C 0.70467 0.76328 1.09630
 C2623 C 0.71035 0.75706 1.08410
 C2624 C 0.71235 0.76518 1.07182
 C2625 C 0.69287 0.80716 1.09660
 C2626 C 0.68791 0.81234 1.10727
 C2627 C 0.71806 0.78196 1.04687
 C2628 C 0.72435 0.77641 1.03712
 H2629 H 0.71329 0.80686 1.03695
 H2630 H 0.70634 0.83187 1.03706
 H2631 H 0.69582 0.84280 1.05858
 H2632 H 0.69221 0.82881 1.08014
 H2633 H 0.69646 0.78197 1.10602
 H2634 H 0.70316 0.75693 1.10582
 H2635 H 0.71322 0.74589 1.08415
 H2636 H 0.71667 0.75982 1.06257
 C2637 C 0.21215 0.28950 1.05909
 C2638 C 0.22051 0.29176 1.07147
 C2639 C 0.21416 0.29769 1.08389
 C2640 C 0.19954 0.30152 1.08380
 C2641 C 0.19126 0.29956 1.07133
 C2642 C 0.19759 0.29352 1.05893
 C2643 C 0.18910 0.29160 1.04661
 C2644 C 0.17475 0.29553 1.04654
 C2645 C 0.16856 0.30142 1.05865
 C2646 C 0.17667 0.30344 1.07094
 C2647 C 0.22268 0.29962 1.09621
 C2648 C 0.23708 0.29588 1.09622
 C2649 C 0.24332 0.29020 1.08404
 C2650 C 0.23519 0.28817 1.07177
 C2651 C 0.19307 0.30747 1.09654
 C2652 C 0.18785 0.31242 1.10720
 C2653 C 0.21844 0.28241 1.04684
 C2654 C 0.22403 0.27611 1.03712
 H2655 H 0.19347 0.28710 1.03692
 H2656 H 0.16840 0.29399 1.03702
 H2657 H 0.15740 0.30445 1.05854
 H2658 H 0.17138 0.30807 1.08010
 H2659 H 0.21832 0.30404 1.10594
 H2660 H 0.24343 0.29744 1.10573
 H2661 H 0.25452 0.28737 1.08407
 H2662 H 0.24058 0.28385 1.06253
 C2663 C 0.21212 0.78906 0.55906
 C2664 C 0.22042 0.79088 0.57155
 C2665 C 0.21417 0.79698 0.58394
 C2666 C 0.19967 0.80126 0.58376
 C2667 C 0.19144 0.79962 0.57121
 C2668 C 0.19769 0.79352 0.55881
 C2669 C 0.18925 0.79195 0.54641
 C2670 C 0.17500 0.79625 0.54627
 C2671 C 0.16888 0.80220 0.55839
 C2672 C 0.17695 0.80390 0.57075
 C2673 C 0.22265 0.79860 0.59632
 C2674 C 0.23691 0.79436 0.59644
 C2675 C 0.24303 0.78842 0.58432
 C2676 C 0.23493 0.78667 0.57199
 C2677 C 0.19325 0.80727 0.59651
 C2678 C 0.18804 0.81225 0.60715
 C2679 C 0.21834 0.78206 0.54673
 C2680 C 0.22389 0.77584 0.53694
 H2681 H 0.19356 0.78741 0.53671
 H2682 H 0.16868 0.79495 0.53670
 H2683 H 0.15781 0.80550 0.55823
 H2684 H 0.17172 0.80859 0.57991
 H2685 H 0.21838 0.80317 0.60602
 H2686 H 0.24325 0.79569 0.60600
 H2687 H 0.25412 0.78516 0.58446
 H2688 H 0.24020 0.78204 0.56282
 C2689 C 0.28864 0.71193 0.55931
 C2690 C 0.29329 0.69758 0.55899
 C2691 C 0.29950 0.69136 0.57135
 C2692 C 0.30103 0.69954 0.58395
 C2693 C 0.29654 0.71395 0.58420
 C2694 C 0.29036 0.72017 0.57184
 C2695 C 0.28596 0.73460 0.57236
 C2696 C 0.28759 0.74264 0.58474
 C2697 C 0.29361 0.73655 0.59683
 C2698 C 0.29805 0.72237 0.59663
 C2699 C 0.30398 0.67696 0.57081
 C2700 C 0.30238 0.66894 0.55841
 C2701 C 0.29634 0.67503 0.54632
 C2702 C 0.29183 0.68919 0.54654
 C2703 C 0.30712 0.69314 0.59667
 C2704 C 0.31214 0.68794 0.60730
 C2705 C 0.28164 0.71815 0.54698
 C2706 C 0.27545 0.72373 0.53718
 H2707 H 0.28127 0.73985 0.56322
 H2708 H 0.28418 0.75366 0.58494
 H2709 H 0.29485 0.74284 0.60643
 H2710 H 0.30268 0.71812 0.60631
 H2711 H 0.30875 0.67176 0.57994
 H2712 H 0.30585 0.65794 0.55819
 H2713 H 0.29512 0.66875 0.53672
 H2714 H 0.28722 0.69348 0.53687
 C2715 C 0.28772 0.21047 1.05911
 C2716 C 0.30229 0.20648 1.05890
 C2717 C 0.30865 0.20045 1.07128
 C2718 C 0.30041 0.19848 1.08379
 C2719 C 0.28577 0.20225 1.08392
 C2720 C 0.27938 0.20815 1.07151
 C2721 C 0.26468 0.21166 1.07184
 C2722 C 0.25658 0.20960 1.08412
 C2723 C 0.26286 0.20397 1.09631
 C2724 C 0.27728 0.20029 1.09626
 C2725 C 0.32325 0.19658 1.07083
 C2726 C 0.33133 0.19861 1.05851
 C2727 C 0.32510 0.20450 1.04642
 C2728 C 0.31074 0.20841 1.04655
 C2729 C 0.30694 0.19257 1.09653
 C2730 C 0.31220 0.18765 1.10718
 C2731 C 0.28141 0.21758 1.04689
 C2732 C 0.27580 0.22388 1.03718
 H2733 H 0.25926 0.21591 1.06259
 H2734 H 0.24536 0.21237 1.08418
 H2735 H 0.25652 0.20239 1.10583
 H2736 H 0.28166 0.19590 1.10599
 H2737 H 0.32857 0.19196 1.07997
 H2738 H 0.34249 0.19559 1.05835
 H2739 H 0.33142 0.20604 1.03687
 H2740 H 0.30635 0.21290 1.03687
 C2741 C 0.78902 0.71189 1.05903
 C2742 C 0.79214 0.72042 1.07108
 C2743 C 0.79807 0.71409 1.08351
 C2744 C 0.80103 0.69930 1.08375
 C2745 C 0.79817 0.69081 1.07160
 C2746 C 0.79214 0.69713 1.05920
 C2747 C 0.78932 0.68844 1.04721
 C2748 C 0.79233 0.67390 1.04747
 C2749 C 0.79822 0.66771 1.05959
 C2750 C 0.80114 0.67602 1.07154
 C2751 C 0.80086 0.72281 1.09552
 C2752 C 0.79795 0.73737 1.09522
 C2753 C 0.79227 0.74358 1.08302
 C2754 C 0.78941 0.73527 1.07106
 C2755 C 0.80701 0.69286 1.09650
 C2756 C 0.81200 0.68769 1.10716
 C2757 C 0.78195 0.71822 1.04680
 C2758 C 0.77570 0.72386 1.03707
 H2759 H 0.78480 0.69279 1.03752
 H2760 H 0.79009 0.66739 1.03820
 H2761 H 0.80054 0.65641 1.05973
 H2762 H 0.80572 0.67074 1.08072
 H2763 H 0.80530 0.71848 1.10525
 H2764 H 0.80014 0.74387 1.10449
 H2765 H 0.79008 0.75491 1.08282
 H2766 H 0.78513 0.74062 1.06179
 C2767 C 0.78838 0.21168 0.55919
 C2768 C 0.79293 0.19730 0.55889
 C2769 C 0.79915 0.19108 0.57125
 C2770 C 0.80080 0.19930 0.58380
 C2771 C 0.79643 0.21374 0.58403
 C2772 C 0.79022 0.21996 0.57168
 C2773 C 0.78591 0.23442 0.57218
 C2774 C 0.78767 0.24249 0.58452
 C2775 C 0.79372 0.23641 0.59659
 C2776 C 0.79807 0.22220 0.59642
 C2777 C 0.80351 0.17665 0.57073
 C2778 C 0.80179 0.16860 0.55837
 C2779 C 0.79574 0.17470 0.54629
 C2780 C 0.79135 0.18889 0.54648
 C2781 C 0.80692 0.19291 0.59651
 C2782 C 0.81198 0.18773 0.60714
 C2783 C 0.78135 0.21790 0.54688
 C2784 C 0.77515 0.22347 0.53709
 H2785 H 0.78118 0.23966 0.56305
 H2786 H 0.78432 0.25354 0.58470
 H2787 H 0.79507 0.24272 0.60615
 H2788 H 0.80274 0.21795 0.60608
 H2789 H 0.80829 0.17144 0.57986
 H2790 H 0.80517 0.15757 0.55816
 H2791 H 0.79442 0.16840 0.53671
 H2792 H 0.78673 0.19318 0.53681
 C2793 C 0.71070 0.71213 0.44106
 C2794 C 0.70684 0.69756 0.44123
 C2795 C 0.70083 0.69120 0.42885
 C2796 C 0.69876 0.69945 0.41637
 C2797 C 0.70241 0.71408 0.41628
 C2798 C 0.70827 0.72047 0.42870
 C2799 C 0.71163 0.73518 0.42841
 C2800 C 0.70949 0.74328 0.41615
 C2801 C 0.70392 0.73699 0.40395
 C2802 C 0.70037 0.72258 0.40397
 C2803 C 0.69710 0.67660 0.42926
 C2804 C 0.69924 0.66851 0.44153
 C2805 C 0.70512 0.67473 0.45363
 C2806 C 0.70889 0.68909 0.45354
 C2807 C 0.69286 0.69294 0.40363
 C2808 C 0.68794 0.68771 0.39297
 C2809 C 0.71782 0.71843 0.45328
 C2810 C 0.72412 0.72401 0.46299
 H2811 H 0.71583 0.74060 0.43767
 H2812 H 0.71215 0.75450 0.41611
 H2813 H 0.70229 0.74332 0.39444
 H2814 H 0.69601 0.71819 0.39423
 H2815 H 0.69249 0.67129 0.42011
 H2816 H 0.69633 0.65735 0.44166
 H2817 H 0.70676 0.66839 0.46314
 H2818 H 0.71337 0.69348 0.46323
 C2819 C 0.71075 0.21200 -0.05922
 C2820 C 0.70689 0.19743 -0.05902
 C2821 C 0.70089 0.19104 -0.07139
 C2822 C 0.69882 0.19926 -0.08389
 C2823 C 0.70247 0.21389 -0.08401
 C2824 C 0.70833 0.22032 -0.07160
 C2825 C 0.71168 0.23502 -0.07192
 C2826 C 0.70955 0.24309 -0.08421
 C2827 C 0.70399 0.23677 -0.09640
 C2828 C 0.70044 0.22236 -0.09635
 C2829 C 0.69717 0.17644 -0.07095
 C2830 C 0.69931 0.16838 -0.05865
 C2831 C 0.70516 0.17463 -0.04656
 C2832 C 0.70892 0.18900 -0.04668
 C2833 C 0.69290 0.19272 -0.09662
 C2834 C 0.68798 0.18747 -0.10727
 C2835 C 0.71784 0.21834 -0.04700
 C2836 C 0.72412 0.22394 -0.03728
 H2837 H 0.71587 0.24046 -0.06267
 H2838 H 0.71221 0.25431 -0.08427
 H2839 H 0.70237 0.24308 -0.10592
 H2840 H 0.69611 0.21794 -0.10608
 H2841 H 0.69258 0.17110 -0.08009
 H2842 H 0.69641 0.15722 -0.05850
 H2843 H 0.70680 0.16833 -0.03704
 H2844 H 0.71339 0.19341 -0.03701
 C2845 C 0.21073 0.71228 -0.05922
 C2846 C 0.20703 0.69766 -0.05902
 C2847 C 0.20103 0.69121 -0.07136
 C2848 C 0.19889 0.69940 -0.08387
 C2849 C 0.20243 0.71406 -0.08401
 C2850 C 0.20815 0.72056 -0.07159
 C2851 C 0.21120 0.73533 -0.07188
 C2852 C 0.20907 0.74335 -0.08419
 C2853 C 0.20375 0.73693 -0.09643
 C2854 C 0.20038 0.72248 -0.09638
 C2855 C 0.19736 0.67660 -0.07088
 C2856 C 0.19957 0.66857 -0.05857
 C2857 C 0.20548 0.67486 -0.04653
 C2858 C 0.20919 0.68924 -0.04669
 C2859 C 0.19295 0.69283 -0.09656
 C2860 C 0.18798 0.68758 -0.10719
 C2861 C 0.21778 0.71872 -0.04702
 C2862 C 0.22398 0.72448 -0.03734
 H2863 H 0.21508 0.74086 -0.06256
 H2864 H 0.21154 0.75462 -0.08423
 H2865 H 0.20213 0.74321 -0.10598
 H2866 H 0.19618 0.71800 -0.10614
 H2867 H 0.19274 0.67124 -0.07999
 H2868 H 0.19670 0.65740 -0.05839
 H2869 H 0.20718 0.66857 -0.03700
 H2870 H 0.21371 0.69368 -0.03705
 C2871 C 0.21064 0.21197 0.44105
 C2872 C 0.20676 0.19741 0.44119
 C2873 C 0.20074 0.19108 0.42880
 C2874 C 0.19867 0.19935 0.41634
 C2875 C 0.20234 0.21398 0.41628
 C2876 C 0.20821 0.22034 0.42871
 C2877 C 0.21158 0.23505 0.42845
 C2878 C 0.20944 0.24317 0.41619
 C2879 C 0.20387 0.23691 0.40398
 C2880 C 0.20031 0.22249 0.40397
 C2881 C 0.19700 0.17648 0.42918
 C2882 C 0.19914 0.16836 0.44145
 C2883 C 0.20502 0.17456 0.45356
 C2884 C 0.20880 0.18891 0.45349
 C2885 C 0.19275 0.19286 0.40358
 C2886 C 0.18783 0.18764 0.39292
 C2887 C 0.21777 0.21824 0.45328
 C2888 C 0.22407 0.22380 0.46300
 H2889 H 0.21578 0.24045 0.43771
 H2890 H 0.21210 0.25439 0.41618
 H2891 H 0.20224 0.24326 0.39448
 H2892 H 0.19596 0.21812 0.39423
 H2893 H 0.19239 0.17119 0.42003
 H2894 H 0.19622 0.15721 0.44155
 H2895 H 0.20665 0.16821 0.46306
 H2896 H 0.21328 0.19328 0.46318
 C2897 C 0.28816 0.44089 0.71122
 C2898 C 0.27985 0.42846 0.70915
 C2899 C 0.28616 0.41611 0.70304
 C2900 C 0.30072 0.41627 0.69900
 C2901 C 0.30898 0.42875 0.70092
 C2902 C 0.30267 0.44111 0.70703
 C2903 C 0.31113 0.45345 0.70888
 C2904 C 0.32544 0.45358 0.70482
 C2905 C 0.33163 0.44149 0.69887
 C2906 C 0.32354 0.42919 0.69691
 C2907 C 0.27766 0.40379 0.70115
 C2908 C 0.26333 0.40368 0.70515
 C2909 C 0.25715 0.41576 0.71111
 C2910 C 0.26527 0.42803 0.71313
 C2911 C 0.30717 0.40357 0.69289
 C2912 C 0.31236 0.39295 0.68783
 C2913 C 0.28184 0.45320 0.71816
 C2914 C 0.27622 0.46298 0.72432
 H2915 H 0.30678 0.46311 0.71345
 H2916 H 0.33177 0.46311 0.70632
 H2917 H 0.34275 0.44163 0.69576
 H2918 H 0.32882 0.42005 0.69224
 H2919 H 0.28197 0.39413 0.69656
 H2920 H 0.25698 0.39418 0.70362
 H2921 H 0.24601 0.41564 0.71419
 H2922 H 0.25996 0.43716 0.71779
 C2923 C 0.28826 0.94091 0.21115
 C2924 C 0.30277 0.94112 0.20698
 C2925 C 0.30908 0.92877 0.20085
 C2926 C 0.30082 0.91629 0.19890
 C2927 C 0.28625 0.91614 0.20293
 C2928 C 0.27994 0.92848 0.20906
 C2929 C 0.26536 0.92806 0.21302
 C2930 C 0.25724 0.91580 0.21099
 C2931 C 0.26341 0.90372 0.20503
 C2932 C 0.27774 0.90382 0.20102
 C2933 C 0.32365 0.92921 0.19686
 C2934 C 0.33174 0.94150 0.19885
 C2935 C 0.32556 0.95358 0.20481
 C2936 C 0.31124 0.95346 0.20885
 C2937 C 0.30726 0.90361 0.19276
 C2938 C 0.31244 0.89300 0.18766
 C2939 C 0.28194 0.95321 0.21811
 C2940 C 0.27632 0.96299 0.22428
 H2941 H 0.26005 0.93718 0.21768
 H2942 H 0.24610 0.91567 0.21407
 H2943 H 0.25706 0.89421 0.20348
 H2944 H 0.28206 0.89416 0.19643
 H2945 H 0.32893 0.92007 0.19218
 H2946 H 0.34287 0.94164 0.19574
 H2947 H 0.33189 0.96310 0.20633
 H2948 H 0.30688 0.96311 0.21343
 C2949 C 0.78822 0.44091 0.21130
 C2950 C 0.80271 0.44114 0.20704
 C2951 C 0.80902 0.42879 0.20092
 C2952 C 0.80077 0.41628 0.19907
 C2953 C 0.78623 0.41610 0.20319
 C2954 C 0.77993 0.42845 0.20930
 C2955 C 0.76537 0.42800 0.21336
 C2956 C 0.75727 0.41572 0.21141
 C2957 C 0.76344 0.40363 0.20544
 C2958 C 0.77774 0.40376 0.20136
 C2959 C 0.82355 0.42925 0.19683
 C2960 C 0.83162 0.44157 0.19871
 C2961 C 0.82544 0.45366 0.20467
 C2962 C 0.81115 0.45351 0.20881
 C2963 C 0.80721 0.40359 0.19296
 C2964 C 0.81237 0.39296 0.18788
 C2965 C 0.78191 0.45322 0.21824
 C2966 C 0.77629 0.46300 0.22440
 H2967 H 0.76007 0.43713 0.21802
 H2968 H 0.74615 0.41557 0.21454
 H2969 H 0.75710 0.39411 0.20395
 H2970 H 0.78205 0.39409 0.19677
 H2971 H 0.82883 0.42011 0.19216
 H2972 H 0.84273 0.44174 0.19554
 H2973 H 0.83175 0.46321 0.20611
 H2974 H 0.80680 0.46317 0.21337
 C2975 C 0.78916 0.94111 0.71225
 C2976 C 0.79151 0.92875 0.72061
 C2977 C 0.79762 0.91640 0.71430
 C2978 C 0.80150 0.91653 0.69970
 C2979 C 0.79943 0.92899 0.69142
 C2980 C 0.79323 0.94131 0.69772
 C2981 C 0.79118 0.95361 0.68922
 C2982 C 0.79514 0.95372 0.67489
 C2983 C 0.80120 0.94168 0.66873
 C2984 C 0.80334 0.92942 0.67685
 C2985 C 0.79966 0.90411 0.72282
 C2986 C 0.79584 0.90404 0.73718
 C2987 C 0.78996 0.91615 0.74338
 C2988 C 0.78781 0.92839 0.73525
 C2989 C 0.80754 0.90382 0.69323
 C2990 C 0.81249 0.89319 0.68796
 C2991 C 0.78198 0.95332 0.71850
 C2992 C 0.77564 0.96305 0.72403
 H2993 H 0.78654 0.96324 0.69356
 H2994 H 0.79349 0.96321 0.66854
 H2995 H 0.80425 0.94183 0.65760
 H2996 H 0.80808 0.92032 0.67159
 H2997 H 0.80422 0.89444 0.71849
 H2998 H 0.79748 0.89456 0.74355
 H2999 H 0.78705 0.91606 0.75456
 H3000 H 0.78331 0.93757 0.74060
 C3001 C 0.71138 0.55894 0.71159
 C3002 C 0.72024 0.56975 0.70588
 C3003 C 0.71404 0.58220 0.69986
 C3004 C 0.69901 0.58377 0.69956
 C3005 C 0.69015 0.57291 0.70519
 C3006 C 0.69635 0.56045 0.71120
 C3007 C 0.68729 0.54977 0.71680
 C3008 C 0.67250 0.55135 0.71648
 C3009 C 0.66643 0.56355 0.71064
 C3010 C 0.67510 0.57424 0.70504
 C3011 C 0.72313 0.59290 0.69432
 C3012 C 0.73792 0.59135 0.69470
 C3013 C 0.74398 0.57917 0.70057
 C3014 C 0.73531 0.56847 0.70612
 C3015 C 0.69273 0.59658 0.69354
 C3016 C 0.68766 0.60727 0.68849
 C3017 C 0.71781 0.54662 0.71841
 C3018 C 0.72369 0.53685 0.72437
 H3019 H 0.69153 0.54010 0.72146
 H3020 H 0.66572 0.54307 0.72080
 H3021 H 0.65494 0.56473 0.71043
 H3022 H 0.66988 0.58354 0.70062
 H3023 H 0.71893 0.60258 0.68965
 H3024 H 0.74471 0.59964 0.69041
 H3025 H 0.75548 0.57800 0.70084
 H3026 H 0.74054 0.55920 0.71057
 C3027 C 0.71159 0.05879 0.21150
 C3028 C 0.72044 0.06976 0.20608
 C3029 C 0.71422 0.08215 0.19996
 C3030 C 0.69918 0.08351 0.19930
 C3031 C 0.69033 0.07249 0.20461
 C3032 C 0.69656 0.06009 0.21072
 C3033 C 0.68751 0.04924 0.21601
 C3034 C 0.67271 0.05062 0.21531
 C3035 C 0.66662 0.06275 0.20936
 C3036 C 0.67527 0.07359 0.20405
 C3037 C 0.72330 0.09300 0.19467
 C3038 C 0.73809 0.09165 0.19543
 C3039 C 0.74418 0.07954 0.20143
 C3040 C 0.73551 0.06869 0.20670
 C3041 C 0.69286 0.09629 0.19324
 C3042 C 0.68778 0.10696 0.18818
 C3043 C 0.71802 0.04653 0.21839
 C3044 C 0.72389 0.03680 0.22440
 H3045 H 0.69176 0.03960 0.22071
 H3046 H 0.66594 0.04222 0.21942
 H3047 H 0.65512 0.06376 0.20885
 H3048 H 0.67004 0.08283 0.19952
 H3049 H 0.71908 0.10263 0.18992
 H3050 H 0.74487 0.10005 0.19134
 H3051 H 0.75567 0.07854 0.20200
 H3052 H 0.74076 0.05947 0.21123
 C3053 C 0.21133 0.55908 0.21124
 C3054 C 0.19631 0.56062 0.21087
 C3055 C 0.19011 0.57304 0.20477
 C3056 C 0.19898 0.58384 0.19905
 C3057 C 0.21402 0.58225 0.19932
 C3058 C 0.22021 0.56983 0.20543
 C3059 C 0.23527 0.56852 0.20565
 C3060 C 0.24396 0.57917 0.20001
 C3061 C 0.23790 0.59131 0.19404
 C3062 C 0.22311 0.59289 0.19367
 C3063 C 0.17506 0.57439 0.20464
 C3064 C 0.16639 0.56376 0.21034
 C3065 C 0.17245 0.55161 0.21628
 C3066 C 0.18724 0.54999 0.21657
 C3067 C 0.19269 0.59663 0.19296
 C3068 C 0.18762 0.60730 0.18789
 C3069 C 0.21776 0.54678 0.21811
 C3070 C 0.22363 0.53704 0.22411
 H3071 H 0.24050 0.55928 0.21016
 H3072 H 0.25545 0.57799 0.20028
 H3073 H 0.24470 0.59955 0.18968
 H3074 H 0.21892 0.60253 0.18893
 H3075 H 0.16986 0.58366 0.20015
 H3076 H 0.15490 0.56497 0.21016
 H3077 H 0.16567 0.54339 0.22070
 H3078 H 0.19147 0.54035 0.22129
 C3079 C 0.21164 0.05875 0.71157
 C3080 C 0.19661 0.06011 0.71097
 C3081 C 0.19036 0.07255 0.70494
 C3082 C 0.19920 0.08353 0.69952
 C3083 C 0.21424 0.08211 0.70001
 C3084 C 0.22048 0.06969 0.70606
 C3085 C 0.23555 0.06856 0.70652
 C3086 C 0.24420 0.07938 0.70115
 C3087 C 0.23810 0.09151 0.69521
 C3088 C 0.22330 0.09291 0.69462
 C3089 C 0.17531 0.07372 0.70455
 C3090 C 0.16667 0.06291 0.70996
 C3091 C 0.17277 0.05075 0.71584
 C3092 C 0.18757 0.04930 0.71636
 C3093 C 0.19285 0.09633 0.69350
 C3094 C 0.18773 0.10699 0.68846
 C3095 C 0.21810 0.04645 0.71840
 C3096 C 0.22397 0.03669 0.72437
 H3097 H 0.24081 0.05934 0.71103
 H3098 H 0.25570 0.07833 0.70160
 H3099 H 0.24486 0.09988 0.69104
 H3100 H 0.21906 0.10256 0.68991
 H3101 H 0.17006 0.08298 0.70009
 H3102 H 0.15516 0.06398 0.70959
 H3103 H 0.16601 0.04239 0.72002
 H3104 H 0.19184 0.03965 0.72102
 C3105 C 0.28926 0.55905 0.28773
 C3106 C 0.29226 0.57112 0.27916
 C3107 C 0.29823 0.58355 0.28542
 C3108 C 0.30141 0.58375 0.30017
 C3109 C 0.29875 0.57156 0.30868
 C3110 C 0.29263 0.55918 0.30244
 C3111 C 0.28997 0.54717 0.31116
 C3112 C 0.29327 0.54736 0.32564
 C3113 C 0.29925 0.55946 0.33175
 C3114 C 0.30198 0.57145 0.32342
 C3115 C 0.30083 0.59558 0.27668
 C3116 C 0.29774 0.59530 0.26215
 C3117 C 0.29206 0.58309 0.25600
 C3118 C 0.28936 0.57111 0.26434
 C3119 C 0.30736 0.59653 0.30657
 C3120 C 0.31228 0.60719 0.31178
 C3121 C 0.28211 0.54684 0.28149
 C3122 C 0.27581 0.53712 0.27592
 H3123 H 0.28537 0.53750 0.30687
 H3124 H 0.29118 0.53807 0.33216
 H3125 H 0.30179 0.55955 0.34301
 H3126 H 0.30664 0.58061 0.32865
 H3127 H 0.30527 0.60531 0.28096
 H3128 H 0.29980 0.60459 0.25562
 H3129 H 0.28975 0.58289 0.24469
 H3130 H 0.28508 0.56183 0.25903
 C3131 C 0.28937 0.05873 0.78795
 C3132 C 0.29352 0.05860 0.80246
 C3133 C 0.29967 0.07097 0.80868
 C3134 C 0.30163 0.08340 0.80035
 C3135 C 0.29767 0.08347 0.78578
 C3136 C 0.29160 0.07108 0.77955
 C3137 C 0.28783 0.07138 0.76493
 C3138 C 0.28987 0.08359 0.75674
 C3139 C 0.29570 0.09574 0.76286
 C3140 C 0.29960 0.09574 0.77720
 C3141 C 0.30365 0.07059 0.82323
 C3142 C 0.30161 0.05835 0.83140
 C3143 C 0.29561 0.04626 0.82531
 C3144 C 0.29160 0.04632 0.81100
 C3145 C 0.30764 0.09616 0.80676
 C3146 C 0.31256 0.10681 0.81198
 C3147 C 0.28224 0.04647 0.78179
 C3148 C 0.27591 0.03671 0.77631
 H3149 H 0.28334 0.06217 0.75965
 H3150 H 0.28691 0.08362 0.74558
 H3151 H 0.29726 0.10521 0.75645
 H3152 H 0.30413 0.10545 0.78146
 H3153 H 0.30836 0.07973 0.82844
 H3154 H 0.30470 0.05826 0.84252
 H3155 H 0.29405 0.03678 0.83170
 H3156 H 0.28702 0.03664 0.80672
 C3157 C 0.78936 0.55891 0.78791
 C3158 C 0.79233 0.57097 0.77931
 C3159 C 0.79831 0.58341 0.78555
 C3160 C 0.80151 0.58364 0.80030
 C3161 C 0.79887 0.57145 0.80882
 C3162 C 0.79275 0.55906 0.80261
 C3163 C 0.79011 0.54706 0.81135
 C3164 C 0.79343 0.54728 0.82583
 C3165 C 0.79942 0.55938 0.83191
 C3166 C 0.80213 0.57136 0.82356
 C3167 C 0.80091 0.59542 0.77679
 C3168 C 0.79779 0.59513 0.76227
 C3169 C 0.79208 0.58293 0.75614
 C3170 C 0.78939 0.57095 0.76451
 C3171 C 0.80747 0.59642 0.80668
 C3172 C 0.81239 0.60708 0.81189
 C3173 C 0.78219 0.54669 0.78169
 C3174 C 0.77588 0.53697 0.77614
 H3175 H 0.78552 0.53738 0.80708
 H3176 H 0.79134 0.53800 0.83237
 H3177 H 0.80197 0.55949 0.84317
 H3178 H 0.80680 0.58052 0.82877
 H3179 H 0.80537 0.60516 0.78106
 H3180 H 0.79985 0.60442 0.75573
 H3181 H 0.78974 0.58272 0.74484
 H3182 H 0.78509 0.56167 0.75921
 C3183 C 0.78951 0.05879 0.28791
 C3184 C 0.79190 0.07107 0.27945
 C3185 C 0.79790 0.08349 0.28569
 C3186 C 0.80171 0.08348 0.30030
 C3187 C 0.79967 0.07108 0.30866
 C3188 C 0.79353 0.05870 0.30245
 C3189 C 0.79150 0.04646 0.31103
 C3190 C 0.79542 0.04645 0.32536
 C3191 C 0.80142 0.05855 0.33144
 C3192 C 0.80355 0.07075 0.32324
 C3193 C 0.79991 0.09572 0.27708
 C3194 C 0.79620 0.09566 0.26270
 C3195 C 0.79048 0.08346 0.25656
 C3196 C 0.78835 0.07128 0.26477
 C3197 C 0.80765 0.09626 0.30670
 C3198 C 0.81254 0.10693 0.31191
 C3199 C 0.78230 0.04656 0.28176
 C3200 C 0.77593 0.03684 0.27629
 H3201 H 0.78692 0.03678 0.30675
 H3202 H 0.79379 0.03700 0.33178
 H3203 H 0.80444 0.05848 0.34258
 H3204 H 0.80826 0.07990 0.32845
 H3205 H 0.80437 0.10546 0.28136
 H3206 H 0.79781 0.10510 0.25627
 H3207 H 0.78768 0.08343 0.24536
 H3208 H 0.78400 0.06203 0.25947
 C3209 C 0.71155 0.44106 0.28848
 C3210 C 0.69668 0.43874 0.28728
 C3211 C 0.69047 0.42625 0.29320
 C3212 C 0.69918 0.41617 0.30033
 C3213 C 0.71404 0.41857 0.30167
 C3214 C 0.72024 0.43105 0.29574
 C3215 C 0.73513 0.43318 0.29715
 C3216 C 0.74365 0.42327 0.30422
 C3217 C 0.73759 0.41106 0.31002
 C3218 C 0.72296 0.40868 0.30879
 C3219 C 0.67559 0.42411 0.29176
 C3220 C 0.66708 0.43404 0.28468
 C3221 C 0.67315 0.44626 0.27891
 C3222 C 0.68778 0.44864 0.28016
 C3223 C 0.69290 0.40332 0.30627
 C3224 C 0.68783 0.39263 0.31127
 C3225 C 0.71809 0.45334 0.28171
 C3226 C 0.72404 0.46309 0.27582
 H3227 H 0.74036 0.44252 0.29285
 H3228 H 0.75502 0.42507 0.30520
 H3229 H 0.74426 0.40338 0.31549
 H3230 H 0.71875 0.39902 0.31347
 H3231 H 0.67038 0.41476 0.29606
 H3232 H 0.65572 0.43223 0.28367
 H3233 H 0.66649 0.45394 0.27343
 H3234 H 0.69202 0.45831 0.27551
 C3235 C 0.71129 0.94126 0.78879
 C3236 C 0.69632 0.93936 0.78835
 C3237 C 0.69010 0.92691 0.79435
 C3238 C 0.69891 0.91646 0.80081
 C3239 C 0.71388 0.91843 0.80135
 C3240 C 0.72009 0.93085 0.79531
 C3241 C 0.73511 0.93253 0.79588
 C3242 C 0.74373 0.92223 0.80224
 C3243 C 0.73765 0.91008 0.80815
 C3244 C 0.72291 0.90814 0.80774
 C3245 C 0.67512 0.92517 0.79366
 C3246 C 0.66651 0.93546 0.78723
 C3247 C 0.67259 0.94764 0.78139
 C3248 C 0.68732 0.94963 0.78191
 C3249 C 0.69261 0.90366 0.80683
 C3250 C 0.68752 0.89299 0.81187
 C3251 C 0.71778 0.95354 0.78197
 C3252 C 0.72367 0.96328 0.77601
 H3253 H 0.74035 0.94179 0.79143
 H3254 H 0.75518 0.92368 0.80258
 H3255 H 0.74440 0.90211 0.81308
 H3256 H 0.71870 0.89850 0.81247
 H3257 H 0.66990 0.91586 0.79804
 H3258 H 0.65507 0.93396 0.78679
 H3259 H 0.66586 0.95559 0.77641
 H3260 H 0.69157 0.95928 0.77723
 C3261 C 0.21148 0.44098 0.78856
 C3262 C 0.22019 0.43075 0.79548
 C3263 C 0.21393 0.41834 0.80150
 C3264 C 0.19900 0.41623 0.80060
 C3265 C 0.19027 0.42652 0.79380
 C3266 C 0.19653 0.43895 0.78778
 C3267 C 0.18762 0.44906 0.78101
 C3268 C 0.17291 0.44696 0.78018
 C3269 C 0.16679 0.43480 0.78603
 C3270 C 0.17532 0.42466 0.79277
 C3271 C 0.22288 0.40822 0.80826
 C3272 C 0.23758 0.41031 0.80906
 C3273 C 0.24369 0.42245 0.80319
 C3274 C 0.23516 0.43259 0.79647
 C3275 C 0.19266 0.40343 0.80661
 C3276 C 0.18757 0.39277 0.81167
 C3277 C 0.21805 0.45323 0.78174
 C3278 C 0.22400 0.46297 0.77583
 H3279 H 0.19190 0.45869 0.77630
 H3280 H 0.16624 0.45481 0.77497
 H3281 H 0.15537 0.43322 0.78534
 H3282 H 0.17007 0.41537 0.79715
 H3283 H 0.21863 0.39859 0.81297
 H3284 H 0.24426 0.40245 0.81426
 H3285 H 0.25512 0.42404 0.80386
 H3286 H 0.24043 0.44187 0.79209
 C3287 C 0.21149 0.94114 0.28849
 C3288 C 0.19655 0.93910 0.28763
 C3289 C 0.19025 0.92671 0.29368
 C3290 C 0.19893 0.91645 0.30058
 C3291 C 0.21387 0.91855 0.30153
 C3292 C 0.22016 0.93093 0.29548
 C3293 C 0.23513 0.93275 0.29650
 C3294 C 0.24363 0.92263 0.30330
 C3295 C 0.23748 0.91053 0.30921
 C3296 C 0.22278 0.90845 0.30838
 C3297 C 0.17530 0.92484 0.29257
 C3298 C 0.16682 0.93494 0.28571
 C3299 C 0.17298 0.94706 0.27982
 C3300 C 0.18767 0.94917 0.28074
 C3301 C 0.19256 0.90371 0.30664
 C3302 C 0.18743 0.89307 0.31172
 C3303 C 0.21809 0.95336 0.28166
 C3304 C 0.22406 0.96309 0.27575
 H3305 H 0.24043 0.94200 0.29210
 H3306 H 0.25506 0.92420 0.30398
 H3307 H 0.24414 0.90269 0.31447
 H3308 H 0.21850 0.89885 0.31313
 H3309 H 0.17003 0.91557 0.29697
 H3310 H 0.15540 0.93334 0.28496
 H3311 H 0.16634 0.95487 0.27451
 H3312 H 0.19198 0.95877 0.27600
 C3313 C 0.44064 0.28824 0.71163
 C3314 C 0.44098 0.30262 0.70711
 C3315 C 0.42865 0.30890 0.70086
 C3316 C 0.41606 0.30073 0.69916
 C3317 C 0.41579 0.28628 0.70351
 C3318 C 0.42811 0.28001 0.70975
 C3319 C 0.42756 0.26555 0.71403
 C3320 C 0.41520 0.25752 0.71221
 C3321 C 0.40314 0.26365 0.70613
 C3322 C 0.40337 0.27786 0.70182
 C3323 C 0.42922 0.32332 0.69651
 C3324 C 0.44162 0.33133 0.69828
 C3325 C 0.45368 0.32519 0.70436
 C3326 C 0.45342 0.31100 0.70874
 C3327 C 0.40338 0.30717 0.69299
 C3328 C 0.39276 0.31236 0.68790
 C3329 C 0.45294 0.28197 0.71866
 C3330 C 0.46273 0.27638 0.72485
 H3331 H 0.43666 0.26027 0.71878
 H3332 H 0.41498 0.24647 0.71552
 H3333 H 0.39356 0.25737 0.70476
 H3334 H 0.39372 0.28215 0.69714
 H3335 H 0.42012 0.32857 0.69172
 H3336 H 0.44185 0.34236 0.69491
 H3337 H 0.46327 0.33146 0.70571
 H3338 H 0.46307 0.30667 0.71341
 C3339 C 0.44084 0.79001 0.21277
 C3340 C 0.44116 0.79391 0.19819
 C3341 C 0.42881 0.79985 0.19168
 C3342 C 0.41618 0.80179 0.19977
 C3343 C 0.41590 0.79798 0.21438
 C3344 C 0.42829 0.79221 0.22093
 C3345 C 0.42780 0.78869 0.23560
 C3346 C 0.41536 0.79060 0.24352
 C3347 C 0.40319 0.79610 0.23708
 C3348 C 0.40340 0.79980 0.22269
 C3349 C 0.42939 0.80365 0.17708
 C3350 C 0.44181 0.80163 0.16915
 C3351 C 0.45387 0.79580 0.17551
 C3352 C 0.45362 0.79197 0.18987
 C3353 C 0.40349 0.80772 0.19313
 C3354 C 0.39288 0.81266 0.18779
 C3355 C 0.45311 0.78313 0.21927
 C3356 C 0.46286 0.77702 0.22504
 H3357 H 0.43702 0.78453 0.24114
 H3358 H 0.41516 0.78780 0.25472
 H3359 H 0.39355 0.79756 0.24328
 H3360 H 0.39367 0.80408 0.21818
 H3361 H 0.42027 0.80822 0.17166
 H3362 H 0.44206 0.80460 0.15799
 H3363 H 0.46348 0.79422 0.16929
 H3364 H 0.46327 0.78751 0.19436
 C3365 C 0.94075 0.28974 0.21251
 C3366 C 0.92903 0.29388 0.22112
 C3367 C 0.91660 0.29976 0.21471
 C3368 C 0.91601 0.30158 0.19974
 C3369 C 0.92780 0.29762 0.19114
 C3370 C 0.94020 0.29168 0.19755
 C3371 C 0.95182 0.28774 0.18874
 C3372 C 0.95121 0.28962 0.17401
 C3373 C 0.93908 0.29543 0.16774
 C3374 C 0.92748 0.29940 0.17616
 C3375 C 0.90495 0.30364 0.22353
 C3376 C 0.90558 0.30181 0.23826
 C3377 C 0.91775 0.29613 0.24454
 C3378 C 0.92938 0.29222 0.23613
 C3379 C 0.90325 0.30749 0.19322
 C3380 C 0.89258 0.31241 0.18796
 C3381 C 0.95303 0.28292 0.21905
 C3382 C 0.96277 0.27690 0.22492
 H3383 H 0.96149 0.28321 0.19313
 H3384 H 0.96018 0.28654 0.16742
 H3385 H 0.93866 0.29687 0.15629
 H3386 H 0.91828 0.30387 0.17080
 H3387 H 0.89525 0.30812 0.21916
 H3388 H 0.89658 0.30483 0.24484
 H3389 H 0.91820 0.29475 0.25599
 H3390 H 0.93864 0.28796 0.24153
 C3391 C 0.94074 0.79010 0.71276
 C3392 C 0.92825 0.79244 0.72097
 C3393 C 0.91586 0.79826 0.71444
 C3394 C 0.91609 0.80195 0.69980
 C3395 C 0.92866 0.79987 0.69166
 C3396 C 0.94102 0.79389 0.69816
 C3397 C 0.95341 0.79182 0.68978
 C3398 C 0.95362 0.79557 0.67540
 C3399 C 0.94156 0.80143 0.66906
 C3400 C 0.92919 0.80357 0.67704
 C3401 C 0.90342 0.80024 0.72281
 C3402 C 0.90325 0.79665 0.73722
 C3403 C 0.91541 0.79109 0.74364
 C3404 C 0.92780 0.78902 0.73567
 C3405 C 0.90340 0.80790 0.69318
 C3406 C 0.89278 0.81283 0.68785
 C3407 C 0.95302 0.78322 0.71928
 C3408 C 0.96276 0.77712 0.72508
 H3409 H 0.96306 0.78732 0.69425
 H3410 H 0.96319 0.79392 0.66914
 H3411 H 0.94178 0.80434 0.65789
 H3412 H 0.92007 0.80814 0.67163
 H3413 H 0.89370 0.80457 0.71831
 H3414 H 0.89366 0.79825 0.74346
 H3415 H 0.91525 0.78837 0.75486
 H3416 H 0.93701 0.78482 0.74119
 C3417 C 0.55923 0.28768 0.28956
 C3418 C 0.55891 0.30231 0.29324
 C3419 C 0.57122 0.30886 0.29921
 C3420 C 0.58380 0.30077 0.30139
 C3421 C 0.58410 0.28612 0.29776
 C3422 C 0.57174 0.27953 0.29196
 C3423 C 0.57225 0.26483 0.28864
 C3424 C 0.58466 0.25692 0.29074
 C3425 C 0.59679 0.26340 0.29624
 C3426 C 0.59657 0.27782 0.29976
 C3427 C 0.57064 0.32349 0.30279
 C3428 C 0.55826 0.33143 0.30055
 C3429 C 0.54624 0.32503 0.29470
 C3430 C 0.54650 0.31063 0.29106
 C3431 C 0.59644 0.30742 0.30740
 C3432 C 0.60706 0.31267 0.31239
 C3433 C 0.54699 0.28110 0.28272
 C3434 C 0.53725 0.27524 0.27668
 H3435 H 0.56306 0.25926 0.28447
 H3436 H 0.58486 0.24569 0.28809
 H3437 H 0.60642 0.25721 0.29783
 H3438 H 0.60627 0.28236 0.30405
 H3439 H 0.57973 0.32895 0.30734
 H3440 H 0.55801 0.34262 0.30335
 H3441 H 0.53666 0.33124 0.29297
 H3442 H 0.53690 0.30611 0.28655
 C3443 C 0.55898 0.78827 0.78929
 C3444 C 0.55879 0.80289 0.79298
 C3445 C 0.57114 0.80931 0.79900
 C3446 C 0.58363 0.80109 0.80120
 C3447 C 0.58377 0.78643 0.79765
 C3448 C 0.57135 0.77996 0.79185
 C3449 C 0.57164 0.76521 0.78871
 C3450 C 0.58394 0.75715 0.79090
 C3451 C 0.59616 0.76352 0.79634
 C3452 C 0.59612 0.77798 0.79973
 C3453 C 0.57069 0.82394 0.80262
 C3454 C 0.55839 0.83200 0.80035
 C3455 C 0.54633 0.82572 0.79445
 C3456 C 0.54647 0.81134 0.79078
 C3457 C 0.59633 0.80763 0.80721
 C3458 C 0.60696 0.81284 0.81223
 C3459 C 0.54676 0.78186 0.78225
 C3460 C 0.53704 0.77613 0.77607
 H3461 H 0.56236 0.75972 0.78467
 H3462 H 0.58397 0.74589 0.78839
 H3463 H 0.60570 0.75722 0.79801
 H3464 H 0.60587 0.78243 0.80400
 H3465 H 0.57980 0.82929 0.80724
 H3466 H 0.55822 0.84318 0.80319
 H3467 H 0.53681 0.83203 0.79271
 H3468 H 0.53682 0.80691 0.78626
 C3469 C 0.05897 0.28804 0.78917
 C3470 C 0.07134 0.27972 0.79165
 C3471 C 0.08375 0.28613 0.79752
 C3472 C 0.08364 0.30078 0.80114
 C3473 C 0.07114 0.30902 0.79899
 C3474 C 0.05878 0.30263 0.79297
 C3475 C 0.04644 0.31108 0.79086
 C3476 C 0.04631 0.32545 0.79459
 C3477 C 0.05840 0.33171 0.80046
 C3478 C 0.07070 0.32364 0.80267
 C3479 C 0.09609 0.27765 0.79960
 C3480 C 0.09612 0.26322 0.79611
 C3481 C 0.08392 0.25690 0.79056
 C3482 C 0.07165 0.26500 0.78836
 C3483 C 0.09636 0.30730 0.80712
 C3484 C 0.10701 0.31250 0.81211
 C3485 C 0.04675 0.28170 0.78208
 C3486 C 0.03702 0.27608 0.77581
 H3487 H 0.03677 0.30666 0.78636
 H3488 H 0.03678 0.33176 0.79291
 H3489 H 0.05825 0.34288 0.80332
 H3490 H 0.07984 0.32897 0.80727
 H3491 H 0.10583 0.28206 0.80393
 H3492 H 0.10565 0.25690 0.79777
 H3493 H 0.08396 0.24566 0.78797
 H3494 H 0.06239 0.25956 0.78416
 C3495 C 0.05905 0.78821 0.28912
 C3496 C 0.07145 0.77993 0.29163
 C3497 C 0.08383 0.78639 0.29751
 C3498 C 0.08365 0.80103 0.30115
 C3499 C 0.07114 0.80923 0.29897
 C3500 C 0.05881 0.80281 0.29292
 C3501 C 0.04646 0.81122 0.29078
 C3502 C 0.04628 0.82560 0.29450
 C3503 C 0.05833 0.83189 0.30042
 C3504 C 0.07065 0.82385 0.30265
 C3505 C 0.09620 0.77796 0.29958
 C3506 C 0.09629 0.76353 0.29608
 C3507 C 0.08411 0.75717 0.29052
 C3508 C 0.07181 0.76521 0.28833
 C3509 C 0.09633 0.80758 0.30717
 C3510 C 0.10695 0.81281 0.31220
 C3511 C 0.04685 0.78182 0.28203
 C3512 C 0.03714 0.77617 0.27578
 H3513 H 0.03681 0.80678 0.28625
 H3514 H 0.03674 0.83188 0.29280
 H3515 H 0.05814 0.84306 0.30328
 H3516 H 0.07976 0.82921 0.30727
 H3517 H 0.10592 0.78240 0.30392
 H3518 H 0.10584 0.75724 0.29773
 H3519 H 0.08419 0.74593 0.28791
 H3520 H 0.06257 0.75974 0.28415
 C3521 C 0.55900 0.71206 0.71103
 C3522 C 0.55880 0.69751 0.70706
 C3523 C 0.57119 0.69113 0.70105
 C3524 C 0.58371 0.69935 0.69904
 C3525 C 0.58386 0.71394 0.70287
 C3526 C 0.57145 0.72033 0.70881
 C3527 C 0.57184 0.73496 0.71247
 C3528 C 0.58416 0.74301 0.71043
 C3529 C 0.59633 0.73673 0.70472
 C3530 C 0.59624 0.72237 0.70096
 C3531 C 0.57076 0.67655 0.69725
 C3532 C 0.55843 0.66850 0.69931
 C3533 C 0.54630 0.67476 0.70516
 C3534 C 0.54643 0.68909 0.70902
 C3535 C 0.59645 0.69285 0.69305
 C3536 C 0.60711 0.68765 0.68806
 C3537 C 0.54671 0.71841 0.71801
 C3538 C 0.53695 0.72405 0.72423
 H3539 H 0.56264 0.74035 0.71687
 H3540 H 0.58427 0.75418 0.71328
 H3541 H 0.60589 0.74301 0.70317
 H3542 H 0.60596 0.71798 0.69653
 H3543 H 0.57992 0.67121 0.69267
 H3544 H 0.55827 0.65736 0.69635
 H3545 H 0.53675 0.66846 0.70673
 H3546 H 0.53674 0.69350 0.71352
 C3547 C 0.55929 0.21209 0.21064
 C3548 C 0.55904 0.19747 0.20694
 C3549 C 0.57140 0.19094 0.20101
 C3550 C 0.58395 0.19907 0.19886
 C3551 C 0.58416 0.21372 0.20246
 C3552 C 0.57177 0.22027 0.20825
 C3553 C 0.57219 0.23498 0.21157
 C3554 C 0.58457 0.24293 0.20946
 C3555 C 0.59674 0.23649 0.20394
 C3556 C 0.59659 0.22207 0.20043
 C3557 C 0.57090 0.17631 0.19740
 C3558 C 0.55855 0.16835 0.19962
 C3559 C 0.54648 0.17472 0.20546
 C3560 C 0.54666 0.18912 0.20909
 C3561 C 0.59663 0.19245 0.19289
 C3562 C 0.60726 0.18721 0.18788
 C3563 C 0.54702 0.21864 0.21747
 C3564 C 0.53727 0.22448 0.22352
 H3565 H 0.56297 0.24053 0.21573
 H3566 H 0.58470 0.25416 0.21210
 H3567 H 0.60633 0.24271 0.20232
 H3568 H 0.60632 0.21756 0.19614
 H3569 H 0.58003 0.17089 0.19286
 H3570 H 0.55834 0.15716 0.19681
 H3571 H 0.53692 0.16848 0.20717
 H3572 H 0.53701 0.19362 0.21356
 C3573 C 0.05899 0.71194 0.21088
 C3574 C 0.05880 0.69738 0.20694
 C3575 C 0.07118 0.69102 0.20085
 C3576 C 0.08366 0.69927 0.19875
 C3577 C 0.08378 0.71387 0.20254
 C3578 C 0.07139 0.72024 0.20853
 C3579 C 0.07174 0.73490 0.21210
 C3580 C 0.08402 0.74298 0.20996
 C3581 C 0.09618 0.73672 0.20422
 C3582 C 0.09612 0.72234 0.20051
 C3583 C 0.07076 0.67643 0.19707
 C3584 C 0.05847 0.66836 0.19922
 C3585 C 0.04636 0.67459 0.20514
 C3586 C 0.04647 0.68893 0.20897
 C3587 C 0.09637 0.69279 0.19267
 C3588 C 0.10701 0.68761 0.18762
 C3589 C 0.04672 0.71827 0.21793
 C3590 C 0.03698 0.72389 0.22419
 H3591 H 0.06253 0.74029 0.21650
 H3592 H 0.08410 0.75417 0.21277
 H3593 H 0.10571 0.74304 0.20260
 H3594 H 0.10583 0.71797 0.19605
 H3595 H 0.07991 0.67112 0.19243
 H3596 H 0.05834 0.65721 0.19628
 H3597 H 0.03684 0.66827 0.20678
 H3598 H 0.03679 0.69332 0.21351
 C3599 C 0.05901 0.21180 0.71102
 C3600 C 0.05883 0.19725 0.70706
 C3601 C 0.07123 0.19088 0.70106
 C3602 C 0.08375 0.19910 0.69907
 C3603 C 0.08386 0.21371 0.70284
 C3604 C 0.07142 0.22010 0.70873
 C3605 C 0.07175 0.23476 0.71226
 C3606 C 0.08406 0.24284 0.71020
 C3607 C 0.09626 0.23655 0.70458
 C3608 C 0.09622 0.22217 0.70089
 C3609 C 0.07081 0.17630 0.69725
 C3610 C 0.05849 0.16824 0.69931
 C3611 C 0.04636 0.17448 0.70517
 C3612 C 0.04646 0.18882 0.70901
 C3613 C 0.09650 0.19259 0.69312
 C3614 C 0.10716 0.18737 0.68813
 C3615 C 0.04674 0.21812 0.71807
 C3616 C 0.03699 0.22374 0.72432
 H3617 H 0.06250 0.24018 0.71654
 H3618 H 0.08411 0.25403 0.71297
 H3619 H 0.10581 0.24286 0.70302
 H3620 H 0.10596 0.21778 0.69651
 H3621 H 0.07997 0.17098 0.69266
 H3622 H 0.05835 0.15710 0.69635
 H3623 H 0.03682 0.16818 0.70673
 H3624 H 0.03676 0.19322 0.71349
 C3625 C 0.44073 0.71002 0.28711
 C3626 C 0.44095 0.70612 0.30169
 C3627 C 0.42856 0.70015 0.30812
 C3628 C 0.41601 0.69819 0.29994
 C3629 C 0.41583 0.70199 0.28533
 C3630 C 0.42826 0.70779 0.27887
 C3631 C 0.42787 0.71130 0.26419
 C3632 C 0.41549 0.70937 0.25619
 C3633 C 0.40329 0.70386 0.26255
 C3634 C 0.40341 0.70016 0.27694
 C3635 C 0.42903 0.69636 0.32272
 C3636 C 0.44138 0.69841 0.33074
 C3637 C 0.45347 0.70426 0.32446
 C3638 C 0.45332 0.70809 0.31010
 C3639 C 0.40328 0.69227 0.30650
 C3640 C 0.39264 0.68735 0.31179
 C3641 C 0.45303 0.71693 0.28069
 C3642 C 0.46279 0.72306 0.27498
 H3643 H 0.43712 0.71548 0.25871
 H3644 H 0.41538 0.71216 0.24499
 H3645 H 0.39370 0.70238 0.25629
 H3646 H 0.39365 0.69588 0.28139
 H3647 H 0.41989 0.69179 0.32808
 H3648 H 0.44156 0.69544 0.34190
 H3649 H 0.46303 0.70585 0.33074
 H3650 H 0.46299 0.71258 0.30567
 C3651 C 0.44076 0.21079 0.78785
 C3652 C 0.42821 0.20905 0.77961
 C3653 C 0.41586 0.20283 0.78582
 C3654 C 0.41611 0.19833 0.80023
 C3655 C 0.42871 0.19990 0.80842
 C3656 C 0.44108 0.20613 0.80220
 C3657 C 0.45353 0.20762 0.81060
 C3658 C 0.45375 0.20312 0.82476
 C3659 C 0.44167 0.19705 0.83085
 C3660 C 0.42927 0.19542 0.82282
 C3661 C 0.40343 0.20129 0.77738
 C3662 C 0.40322 0.20575 0.76320
 C3663 C 0.41531 0.21182 0.75712
 C3664 C 0.42768 0.21348 0.76518
 C3665 C 0.40338 0.19222 0.80665
 C3666 C 0.39274 0.18722 0.81189
 C3667 C 0.45308 0.21785 0.78167
 C3668 C 0.46289 0.22411 0.77616
 H3669 H 0.46319 0.21226 0.80632
 H3670 H 0.46336 0.20437 0.83105
 H3671 H 0.44190 0.19358 0.84186
 H3672 H 0.42014 0.19063 0.82803
 H3673 H 0.39376 0.19663 0.78162
 H3674 H 0.39364 0.20447 0.75689
 H3675 H 0.41510 0.21525 0.74610
 H3676 H 0.43681 0.21823 0.75995
 C3677 C 0.94070 0.71014 0.78721
 C3678 C 0.94090 0.70628 0.80180
 C3679 C 0.92851 0.70031 0.80823
 C3680 C 0.91597 0.69831 0.80004
 C3681 C 0.91581 0.70208 0.78542
 C3682 C 0.92823 0.70789 0.77896
 C3683 C 0.92784 0.71140 0.76428
 C3684 C 0.91548 0.70942 0.75627
 C3685 C 0.90330 0.70385 0.76262
 C3686 C 0.90340 0.70018 0.77701
 C3687 C 0.92897 0.69653 0.82283
 C3688 C 0.94130 0.69860 0.83087
 C3689 C 0.95339 0.70446 0.82459
 C3690 C 0.95326 0.70828 0.81023
 C3691 C 0.90325 0.69237 0.80660
 C3692 C 0.89262 0.68743 0.81189
 C3693 C 0.95300 0.71702 0.78076
 C3694 C 0.96276 0.72314 0.77501
 H3695 H 0.93708 0.71560 0.75881
 H3696 H 0.91537 0.71221 0.74507
 H3697 H 0.89372 0.70233 0.75635
 H3698 H 0.89366 0.69586 0.78146
 H3699 H 0.91982 0.69196 0.82819
 H3700 H 0.94147 0.69564 0.84202
 H3701 H 0.96294 0.70607 0.83089
 H3702 H 0.96293 0.71277 0.80580
 C3703 C 0.94064 0.21035 0.28730
 C3704 C 0.94092 0.20617 0.30180
 C3705 C 0.92855 0.20011 0.30816
 C3706 C 0.91597 0.19830 0.29998
 C3707 C 0.91574 0.20237 0.28545
 C3708 C 0.92813 0.20835 0.27907
 C3709 C 0.92765 0.21225 0.26449
 C3710 C 0.91527 0.21042 0.25648
 C3711 C 0.90313 0.20466 0.26275
 C3712 C 0.90330 0.20065 0.27705
 C3713 C 0.92906 0.19605 0.32269
 C3714 C 0.94144 0.19793 0.33070
 C3715 C 0.95353 0.20387 0.32448
 C3716 C 0.95333 0.20796 0.31019
 C3717 C 0.90325 0.19230 0.30650
 C3718 C 0.89263 0.18734 0.31178
 C3719 C 0.95297 0.21723 0.28092
 C3720 C 0.96275 0.22333 0.27521
 H3721 H 0.93684 0.21668 0.25909
 H3722 H 0.91510 0.21349 0.24536
 H3723 H 0.89353 0.20326 0.25648
 H3724 H 0.89359 0.19620 0.28144
 H3725 H 0.91992 0.19141 0.32800
 H3726 H 0.94165 0.19478 0.34180
 H3727 H 0.96311 0.20532 0.33075
 H3728 H 0.96300 0.21250 0.30580
 C3729 C 0.28909 0.28787 0.55915
 C3730 C 0.29145 0.27954 0.57153
 C3731 C 0.29739 0.28590 0.58393
 C3732 C 0.30115 0.30051 0.58381
 C3733 C 0.29910 0.30876 0.57132
 C3734 C 0.29304 0.30242 0.55896
 C3735 C 0.29102 0.31088 0.54664
 C3736 C 0.29486 0.32523 0.54653
 C3737 C 0.30077 0.33143 0.55862
 C3738 C 0.30290 0.32334 0.57090
 C3739 C 0.29939 0.27742 0.59626
 C3740 C 0.29571 0.26304 0.59631
 C3741 C 0.29004 0.25678 0.58415
 C3742 C 0.28794 0.26487 0.57187
 C3743 C 0.30712 0.30700 0.59653
 C3744 C 0.31208 0.31222 0.60717
 C3745 C 0.28199 0.28157 0.54693
 C3746 C 0.27570 0.27598 0.53721
 H3747 H 0.28651 0.30651 0.53696
 H3748 H 0.29324 0.33156 0.53702
 H3749 H 0.30373 0.34258 0.55848
 H3750 H 0.30753 0.32864 0.58004
 H3751 H 0.30380 0.28179 0.60598
 H3752 H 0.29731 0.25671 0.60583
 H3753 H 0.28727 0.24558 0.58422
 H3754 H 0.28364 0.25947 0.56264
 C3755 C 0.28880 0.78823 0.05896
 C3756 C 0.29345 0.80257 0.05859
 C3757 C 0.29960 0.80882 0.07095
 C3758 C 0.30107 0.80069 0.08359
 C3759 C 0.29658 0.78629 0.08390
 C3760 C 0.29045 0.78004 0.07154
 C3761 C 0.28604 0.76562 0.07211
 C3762 C 0.28761 0.75763 0.08454
 C3763 C 0.29358 0.76375 0.09662
 C3764 C 0.29804 0.77791 0.09637
 C3765 C 0.30409 0.82321 0.07036
 C3766 C 0.30254 0.83118 0.05792
 C3767 C 0.29654 0.82506 0.04583
 C3768 C 0.29204 0.81091 0.04610
 C3769 C 0.30713 0.80710 0.09630
 C3770 C 0.31214 0.81230 0.10692
 C3771 C 0.28183 0.78199 0.04664
 C3772 C 0.27566 0.77640 0.03686
 H3773 H 0.28138 0.76035 0.06298
 H3774 H 0.28418 0.74662 0.08477
 H3775 H 0.29478 0.75749 0.10625
 H3776 H 0.30263 0.78219 0.10605
 H3777 H 0.30882 0.82844 0.07949
 H3778 H 0.30601 0.84218 0.05765
 H3779 H 0.29536 0.83130 0.03620
 H3780 H 0.28748 0.80659 0.03643
 C3781 C 0.78913 0.28810 0.05882
 C3782 C 0.79150 0.27981 0.07122
 C3783 C 0.79743 0.28621 0.08360
 C3784 C 0.80119 0.30082 0.08344
 C3785 C 0.79914 0.30903 0.07093
 C3786 C 0.79307 0.30265 0.05859
 C3787 C 0.79105 0.31108 0.04624
 C3788 C 0.79489 0.32543 0.04609
 C3789 C 0.80081 0.33166 0.05815
 C3790 C 0.80294 0.32361 0.07046
 C3791 C 0.79943 0.27776 0.09595
 C3792 C 0.79577 0.26338 0.09605
 C3793 C 0.79011 0.25708 0.08390
 C3794 C 0.78801 0.26514 0.07159
 C3795 C 0.80717 0.30733 0.09614
 C3796 C 0.81215 0.31256 0.10677
 C3797 C 0.78201 0.28178 0.04662
 C3798 C 0.77571 0.27617 0.03692
 H3799 H 0.78654 0.30667 0.03658
 H3800 H 0.79326 0.33173 0.03656
 H3801 H 0.80378 0.34281 0.05798
 H3802 H 0.80759 0.32893 0.07958
 H3803 H 0.80384 0.28216 0.10566
 H3804 H 0.79738 0.25707 0.10558
 H3805 H 0.78735 0.24588 0.08399
 H3806 H 0.78373 0.25971 0.06238
 C3807 C 0.78921 0.78817 0.55898
 C3808 C 0.79315 0.80273 0.55877
 C3809 C 0.79919 0.80909 0.57113
 C3810 C 0.80124 0.80087 0.58362
 C3811 C 0.79751 0.78625 0.58376
 C3812 C 0.79159 0.77986 0.57137
 C3813 C 0.78811 0.76518 0.57172
 C3814 C 0.79022 0.75711 0.58401
 C3815 C 0.79587 0.76340 0.59617
 C3816 C 0.79952 0.77779 0.59610
 C3817 C 0.80298 0.82368 0.57069
 C3818 C 0.80085 0.83175 0.55839
 C3819 C 0.79495 0.82552 0.54631
 C3820 C 0.79113 0.81117 0.54644
 C3821 C 0.80720 0.80738 0.59634
 C3822 C 0.81215 0.81262 0.60698
 C3823 C 0.78211 0.78186 0.54677
 C3824 C 0.77581 0.77625 0.53707
 H3825 H 0.78382 0.75977 0.56250
 H3826 H 0.78747 0.74591 0.58409
 H3827 H 0.79749 0.75708 0.60570
 H3828 H 0.80392 0.78218 0.60582
 H3829 H 0.80760 0.82899 0.57982
 H3830 H 0.80380 0.84290 0.55824
 H3831 H 0.79333 0.83184 0.53679
 H3832 H 0.78662 0.80678 0.53677
 C3833 C 0.28948 0.71219 0.44102
 C3834 C 0.29351 0.69766 0.44126
 C3835 C 0.29943 0.69125 0.42885
 C3836 C 0.30128 0.69943 0.41629
 C3837 C 0.29739 0.71401 0.41611
 C3838 C 0.29153 0.72042 0.42852
 C3839 C 0.28776 0.73504 0.42808
 C3840 C 0.28963 0.74304 0.41570
 C3841 C 0.29530 0.73675 0.40355
 C3842 C 0.29917 0.72241 0.40369
 C3843 C 0.30329 0.67668 0.42931
 C3844 C 0.30135 0.66866 0.44167
 C3845 C 0.29557 0.67493 0.45380
 C3846 C 0.29169 0.68926 0.45367
 C3847 C 0.30718 0.69289 0.40356
 C3848 C 0.31211 0.68765 0.39291
 C3849 C 0.28260 0.71858 0.45333
 C3850 C 0.27643 0.72427 0.46307
 H3851 H 0.28338 0.74045 0.43728
 H3852 H 0.28667 0.75420 0.41556
 H3853 H 0.29674 0.74301 0.39396
 H3854 H 0.30355 0.71800 0.39396
 H3855 H 0.30782 0.67133 0.42013
 H3856 H 0.30435 0.65752 0.44182
 H3857 H 0.29409 0.66864 0.46337
 H3858 H 0.28727 0.69369 0.46337
 C3859 C 0.28949 0.21229 0.94091
 C3860 C 0.29325 0.19768 0.94116
 C3861 C 0.29916 0.19118 0.92879
 C3862 C 0.30123 0.19933 0.91624
 C3863 C 0.29757 0.21396 0.91603
 C3864 C 0.29181 0.22049 0.92844
 C3865 C 0.28843 0.23520 0.92802
 C3866 C 0.29047 0.24316 0.91564
 C3867 C 0.29596 0.23674 0.90347
 C3868 C 0.29952 0.22232 0.90361
 C3869 C 0.30281 0.17656 0.92927
 C3870 C 0.30067 0.16857 0.94162
 C3871 C 0.29488 0.17491 0.95370
 C3872 C 0.29119 0.18931 0.95354
 C3873 C 0.30717 0.19272 0.90355
 C3874 C 0.31214 0.18743 0.89294
 C3875 C 0.28267 0.21881 0.95320
 C3876 C 0.27661 0.22462 0.96294
 H3877 H 0.28428 0.24072 0.93725
 H3878 H 0.28779 0.25438 0.91551
 H3879 H 0.29751 0.24296 0.89387
 H3880 H 0.30379 0.21782 0.89388
 H3881 H 0.30734 0.17115 0.92013
 H3882 H 0.30352 0.15739 0.94180
 H3883 H 0.29323 0.16865 0.96326
 H3884 H 0.28676 0.19379 0.96321
 C3885 C 0.78924 0.71199 0.94101
 C3886 C 0.79320 0.69744 0.94127
 C3887 C 0.79928 0.69104 0.92894
 C3888 C 0.80130 0.69923 0.91641
 C3889 C 0.79754 0.71384 0.91623
 C3890 C 0.79162 0.72027 0.92861
 C3891 C 0.78817 0.73496 0.92823
 C3892 C 0.79027 0.74300 0.91592
 C3893 C 0.79590 0.73666 0.90376
 C3894 C 0.79954 0.72226 0.90386
 C3895 C 0.80312 0.67646 0.92943
 C3896 C 0.80101 0.66843 0.94176
 C3897 C 0.79508 0.67470 0.95382
 C3898 C 0.79120 0.68904 0.95365
 C3899 C 0.80727 0.69268 0.90371
 C3900 C 0.81224 0.68743 0.89308
 C3901 C 0.78207 0.71833 0.95319
 C3902 C 0.77574 0.72394 0.96288
 H3903 H 0.78392 0.74042 0.93746
 H3904 H 0.78755 0.75421 0.91582
 H3905 H 0.79750 0.74294 0.89421
 H3906 H 0.80392 0.71783 0.89414
 H3907 H 0.80777 0.67112 0.92032
 H3908 H 0.80400 0.65729 0.94195
 H3909 H 0.79347 0.66842 0.96337
 H3910 H 0.78668 0.69347 0.96330
 C3911 C 0.78935 0.21211 0.44098
 C3912 C 0.79150 0.22035 0.42850
 C3913 C 0.79745 0.21393 0.41612
 C3914 C 0.80129 0.19933 0.41632
 C3915 C 0.79931 0.19115 0.42885
 C3916 C 0.79333 0.19756 0.44123
 C3917 C 0.79140 0.18916 0.45361
 C3918 C 0.79524 0.17481 0.45376
 C3919 C 0.80108 0.16853 0.44166
 C3920 C 0.80312 0.17656 0.42932
 C3921 C 0.79937 0.22234 0.40373
 C3922 C 0.79555 0.23669 0.40358
 C3923 C 0.78978 0.24298 0.41569
 C3924 C 0.78777 0.23496 0.42804
 C3925 C 0.80724 0.19278 0.40361
 C3926 C 0.81219 0.18751 0.39298
 C3927 C 0.78242 0.21851 0.45325
 C3928 C 0.77621 0.22418 0.46299
 H3929 H 0.78694 0.19360 0.46330
 H3930 H 0.79368 0.16853 0.46332
 H3931 H 0.80403 0.15738 0.44182
 H3932 H 0.80769 0.17121 0.42017
 H3933 H 0.80383 0.21793 0.39404
 H3934 H 0.79710 0.24296 0.39401
 H3935 H 0.78685 0.25414 0.41553
 H3936 H 0.78331 0.24037 0.43720
 C3937 C 0.71029 0.28785 0.44092
 C3938 C 0.70657 0.30247 0.44115
 C3939 C 0.70051 0.30895 0.42884
 C3940 C 0.69834 0.30079 0.41632
 C3941 C 0.70194 0.28614 0.41614
 C3942 C 0.70770 0.27960 0.42854
 C3943 C 0.71079 0.26484 0.42821
 C3944 C 0.70869 0.25685 0.41587
 C3945 C 0.70334 0.26331 0.40365
 C3946 C 0.69992 0.27776 0.40374
 C3947 C 0.69682 0.32356 0.42935
 C3948 C 0.69908 0.33157 0.44165
 C3949 C 0.70505 0.32525 0.45366
 C3950 C 0.70878 0.31087 0.45347
 C3951 C 0.69236 0.30739 0.40364
 C3952 C 0.68741 0.31262 0.39299
 C3953 C 0.71737 0.28137 0.45310
 C3954 C 0.72357 0.27557 0.46278
 H3955 H 0.71469 0.25927 0.43750
 H3956 H 0.71119 0.24559 0.41580
 H3957 H 0.70174 0.25707 0.39408
 H3958 H 0.69569 0.28227 0.39400
 H3959 H 0.69216 0.32894 0.42026
 H3960 H 0.69620 0.34274 0.44186
 H3961 H 0.70679 0.33152 0.46319
 H3962 H 0.71334 0.30641 0.46308
 C3963 C 0.71074 0.78815 0.94095
 C3964 C 0.70845 0.77982 0.92857
 C3965 C 0.70252 0.78617 0.91615
 C3966 C 0.69867 0.80077 0.91626
 C3967 C 0.70064 0.80901 0.92875
 C3968 C 0.70670 0.80268 0.94113
 C3969 C 0.70864 0.81114 0.95346
 C3970 C 0.70472 0.82547 0.95356
 C3971 C 0.69881 0.83167 0.94146
 C3972 C 0.69676 0.82358 0.92917
 C3973 C 0.70061 0.77769 0.90382
 C3974 C 0.70436 0.76332 0.90377
 C3975 C 0.71001 0.75707 0.91596
 C3976 C 0.71203 0.76516 0.92825
 C3977 C 0.69270 0.80725 0.90352
 C3978 C 0.68774 0.81246 0.89287
 C3979 C 0.71786 0.78188 0.95318
 C3980 C 0.72417 0.77631 0.96291
 H3981 H 0.71315 0.80677 0.96315
 H3982 H 0.70629 0.83180 0.96308
 H3983 H 0.69579 0.84281 0.94159
 H3984 H 0.69212 0.82887 0.92002
 H3985 H 0.69622 0.78206 0.89408
 H3986 H 0.70283 0.75700 0.89425
 H3987 H 0.71284 0.74588 0.91590
 H3988 H 0.71632 0.75976 0.93749
 C3989 C 0.21020 0.28750 0.94089
 C3990 C 0.20783 0.27928 0.92844
 C3991 C 0.20209 0.28581 0.91603
 C3992 C 0.19848 0.30046 0.91621
 C3993 C 0.20057 0.30861 0.92874
 C3994 C 0.20648 0.30212 0.94111
 C3995 C 0.20857 0.31050 0.95346
 C3996 C 0.20491 0.32489 0.95362
 C3997 C 0.19911 0.33124 0.94154
 C3998 C 0.19693 0.32324 0.92921
 C3999 C 0.20012 0.27743 0.90363
 C4000 C 0.20363 0.26300 0.90353
 C4001 C 0.20908 0.25658 0.91572
 C4002 C 0.21113 0.26456 0.92807
 C4003 C 0.19258 0.30708 0.90350
 C4004 C 0.18764 0.31237 0.89287
 C4005 C 0.21706 0.28099 0.95316
 C4006 C 0.22315 0.27519 0.96290
 H4007 H 0.21301 0.30602 0.96312
 H4008 H 0.20659 0.33116 0.96316
 H4009 H 0.19628 0.34243 0.94172
 H4010 H 0.19239 0.32865 0.92009
 H4011 H 0.19586 0.28193 0.89389
 H4012 H 0.20206 0.25676 0.89395
 H4013 H 0.21171 0.24534 0.91562
 H4014 H 0.21523 0.25903 0.93731
 C4015 C 0.21060 0.78785 0.44077
 C4016 C 0.20688 0.80247 0.44091
 C4017 C 0.20090 0.80889 0.42853
 C4018 C 0.19880 0.80067 0.41604
 C4019 C 0.20236 0.78601 0.41596
 C4020 C 0.20807 0.77954 0.42842
 C4021 C 0.21115 0.76477 0.42818
 C4022 C 0.20906 0.75671 0.41589
 C4023 C 0.20374 0.76310 0.40363
 C4024 C 0.20035 0.77756 0.40361
 C4025 C 0.19720 0.82350 0.42895
 C4026 C 0.19937 0.83156 0.44124
 C4027 C 0.20526 0.82530 0.45332
 C4028 C 0.20900 0.81092 0.45322
 C4029 C 0.19287 0.80722 0.40331
 C4030 C 0.18791 0.81246 0.39267
 C4031 C 0.21763 0.78143 0.45301
 C4032 C 0.22380 0.77568 0.46273
 H4033 H 0.21504 0.75926 0.43752
 H4034 H 0.21155 0.74544 0.41590
 H4035 H 0.20214 0.75680 0.39410
 H4036 H 0.19615 0.78202 0.39384
 H4037 H 0.19260 0.82885 0.41982
 H4038 H 0.19647 0.84273 0.44139
 H4039 H 0.20693 0.83161 0.46283
 H4040 H 0.21350 0.80650 0.46288
 C4041 C 0.71079 0.71214 0.55918
 C4042 C 0.70847 0.72044 0.57158
 C4043 C 0.70259 0.71405 0.58401
 C4044 C 0.69879 0.69946 0.58388
 C4045 C 0.70075 0.69124 0.57136
 C4046 C 0.70679 0.69760 0.55898
 C4047 C 0.70873 0.68917 0.54662
 C4048 C 0.70483 0.67484 0.54650
 C4049 C 0.69893 0.66862 0.55859
 C4050 C 0.69688 0.67668 0.57091
 C4051 C 0.70067 0.72251 0.59636
 C4052 C 0.70436 0.73689 0.59642
 C4053 C 0.70995 0.74318 0.58422
 C4054 C 0.71196 0.73511 0.57191
 C4055 C 0.69285 0.69295 0.59662
 C4056 C 0.68789 0.68773 0.60728
 C4057 C 0.71791 0.71843 0.54695
 C4058 C 0.72421 0.72401 0.53722
 H4059 H 0.71322 0.69356 0.53694
 H4060 H 0.70639 0.66854 0.53696
 H4061 H 0.69592 0.65749 0.55844
 H4062 H 0.69225 0.67137 0.58005
 H4063 H 0.69631 0.71812 0.60611
 H4064 H 0.70282 0.74319 0.60596
 H4065 H 0.71271 0.75437 0.58428
 H4066 H 0.71617 0.74054 0.56265
 C4067 C 0.71081 0.21197 0.05893
 C4068 C 0.70852 0.22027 0.07134
 C4069 C 0.70266 0.21387 0.08377
 C4070 C 0.69887 0.19927 0.08364
 C4071 C 0.70083 0.19106 0.07112
 C4072 C 0.70683 0.19743 0.05873
 C4073 C 0.70876 0.18900 0.04637
 C4074 C 0.70488 0.17467 0.04625
 C4075 C 0.69902 0.16844 0.05837
 C4076 C 0.69699 0.17649 0.07068
 C4077 C 0.70077 0.22232 0.09614
 C4078 C 0.70445 0.23670 0.09619
 C4079 C 0.71000 0.24300 0.08399
 C4080 C 0.71200 0.23495 0.07167
 C4081 C 0.69294 0.19276 0.09638
 C4082 C 0.68799 0.18751 0.10702
 C4083 C 0.71790 0.21827 0.04669
 C4084 C 0.72419 0.22386 0.03695
 H4085 H 0.71323 0.19340 0.03668
 H4086 H 0.70643 0.16836 0.03671
 H4087 H 0.69603 0.15730 0.05822
 H4088 H 0.69239 0.17118 0.07984
 H4089 H 0.69644 0.21791 0.10589
 H4090 H 0.70293 0.24299 0.10575
 H4091 H 0.71275 0.25420 0.08405
 H4092 H 0.71619 0.24038 0.06240
 C4093 C 0.21217 0.71135 0.05898
 C4094 C 0.19776 0.70683 0.05868
 C4095 C 0.19151 0.70067 0.07105
 C4096 C 0.19971 0.69903 0.08363
 C4097 C 0.21417 0.70338 0.08386
 C4098 C 0.22042 0.70954 0.07150
 C4099 C 0.23490 0.71384 0.07201
 C4100 C 0.24297 0.71210 0.08437
 C4101 C 0.23685 0.70609 0.09646
 C4102 C 0.22262 0.70177 0.09627
 C4103 C 0.17705 0.69633 0.07053
 C4104 C 0.16901 0.69804 0.05815
 C4105 C 0.17514 0.70405 0.04606
 C4106 C 0.18935 0.70840 0.04625
 C4107 C 0.19328 0.69294 0.09635
 C4108 C 0.18806 0.68790 0.10697
 C4109 C 0.21841 0.71835 0.04665
 C4110 C 0.22399 0.72454 0.03685
 H4111 H 0.24017 0.71852 0.06287
 H4112 H 0.25403 0.71542 0.08455
 H4113 H 0.24316 0.70476 0.10603
 H4114 H 0.21835 0.69715 0.10595
 H4115 H 0.17182 0.69159 0.07966
 H4116 H 0.15796 0.69469 0.05794
 H4117 H 0.16884 0.70535 0.03647
 H4118 H 0.19367 0.71299 0.03658
 C4119 C 0.21062 0.21183 0.55914
 C4120 C 0.20820 0.22012 0.57153
 C4121 C 0.20229 0.21370 0.58392
 C4122 C 0.19856 0.19909 0.58377
 C4123 C 0.20062 0.19088 0.57126
 C4124 C 0.20669 0.19727 0.55892
 C4125 C 0.20872 0.18885 0.54657
 C4126 C 0.20488 0.17451 0.54642
 C4127 C 0.19896 0.16826 0.55849
 C4128 C 0.19682 0.17630 0.57080
 C4129 C 0.20027 0.22214 0.59628
 C4130 C 0.20388 0.23654 0.59635
 C4131 C 0.20950 0.24286 0.58418
 C4132 C 0.21163 0.23481 0.57188
 C4133 C 0.19261 0.19254 0.59649
 C4134 C 0.18766 0.18729 0.60714
 C4135 C 0.21777 0.21815 0.54695
 C4136 C 0.22409 0.22374 0.53724
 H4137 H 0.21324 0.19327 0.53690
 H4138 H 0.20652 0.16822 0.53689
 H4139 H 0.19600 0.15712 0.55832
 H4140 H 0.19218 0.17097 0.57992
 H4141 H 0.19588 0.21773 0.60600
 H4142 H 0.20226 0.24284 0.60589
 H4143 H 0.21221 0.25407 0.58426
 H4144 H 0.21587 0.24025 0.56265
   
