data_POSCAR
  _audit_creation_date              2014-09-24
  _audit_creation_method            'ToBaCCo'
  _symmetry_space_group_name_H-M    'P1'
  _symmetry_Int_Tables_number       1
  _symmetry_cell_setting            triclinic
  loop_
  _symmetry_equiv_pos_as_xyz
 x,y,z
_cell_length_a 42.3847
_cell_length_b 43.2726
_cell_length_c 53.6366
_cell_angle_alpha 89.769700
_cell_angle_beta 89.974000
_cell_angle_gamma 89.948700
loop_
  _atom_site_label
  _atom_site_type_symbol
  _atom_site_fract_x
  _atom_site_fract_y
  _atom_site_fract_z
Zr1 Zr 0.25057 0.25367 0.29513
 O2 O 0.27902 0.27508 0.32255
 O3 O 0.21713 0.23047 0.31720
 O4 O 0.22515 0.28673 0.31536
 O5 O 0.30037 0.19142 0.28667
 O6 O 0.20262 0.31744 0.28568
 O7 O 0.27658 0.22136 0.31606
 O8 O 0.18389 0.20938 0.28858
 O9 O 0.20901 0.26028 0.27478
 O10 O 0.24380 0.21318 0.27484
 O11 O 0.25859 0.29335 0.27327
 O12 O 0.29210 0.24820 0.27391
 Zr13 Zr 0.25086 0.25314 0.20851
 Zr14 Zr 0.21786 0.29831 0.25153
 Zr15 Zr 0.28356 0.20874 0.25233
 Zr16 Zr 0.20360 0.22043 0.25348
 O17 O 0.33329 0.20452 0.25114
 O18 O 0.15611 0.23588 0.25316
 O19 O 0.24289 0.21311 0.23021
 O20 O 0.20978 0.25873 0.23006
 O21 O 0.25758 0.29403 0.22853
 O22 O 0.29204 0.24678 0.22931
 C23 C 0.19253 0.21476 0.31118
 C24 C 0.29484 0.19907 0.30946
 C25 C 0.20802 0.30981 0.30856
 O26 O 0.16815 0.30241 0.25022
 O27 O 0.20476 0.31837 0.21715
 O28 O 0.22692 0.28728 0.18770
 C29 C 0.21028 0.31080 0.19433
 O30 O 0.32209 0.30076 0.28280
 Zr31 Zr 0.29776 0.28665 0.25014
 O32 O 0.28369 0.27682 0.18638
 O33 O 0.22974 0.34576 0.25244
 O34 O 0.29792 0.33565 0.24997
 O35 O 0.34586 0.27337 0.24798
 O36 O 0.31476 0.30108 0.21488
 C37 C 0.30658 0.29483 0.19230
 O38 O 0.22144 0.23293 0.18117
 O39 O 0.27173 0.16128 0.25400
 O40 O 0.27490 0.21858 0.18835
 O41 O 0.29566 0.18733 0.21851
 O42 O 0.20107 0.17157 0.25602
 O43 O 0.18252 0.20218 0.22075
 C44 C 0.29091 0.19482 0.19556
 H45 H 0.24121 0.19461 0.28548
 H46 H 0.19093 0.26117 0.21933
 H47 H 0.31098 0.24327 0.21889
 H48 H 0.26221 0.31171 0.28384
 H49 H 0.14269 0.21815 0.25814
 H50 H 0.16329 0.32480 0.25073
 H51 H 0.20963 0.35743 0.25168
 H52 H 0.31933 0.34241 0.24493
 H53 H 0.17904 0.16613 0.26040
 H54 H 0.29188 0.14969 0.25474
 H55 H 0.33810 0.18211 0.25096
 H56 H 0.35815 0.29200 0.24333
 H57 H 0.16251 0.19173 0.22519
 H58 H 0.23012 0.23882 0.16463
 H59 H 0.27046 0.26914 0.33911
 H60 H 0.33862 0.31593 0.27825
 Zr61 Zr 0.75471 0.75316 0.29275
 O62 O 0.73146 0.72817 0.32138
 O63 O 0.78620 0.78042 0.31317
 O64 O 0.78659 0.72463 0.31209
 O65 O 0.69628 0.80816 0.28585
 O66 O 0.81157 0.69748 0.28157
 O67 O 0.72576 0.78200 0.31453
 O68 O 0.81486 0.80497 0.28310
 O69 O 0.79532 0.75188 0.27063
 O70 O 0.75467 0.79401 0.27191
 O71 O 0.75084 0.71254 0.27160
 O72 O 0.71154 0.75300 0.27320
 Zr73 Zr 0.74894 0.75265 0.20616
 Zr74 Zr 0.79036 0.71280 0.24816
 Zr75 Zr 0.71330 0.79300 0.25098
 Zr76 Zr 0.79406 0.79183 0.24891
 O77 O 0.66343 0.79079 0.25155
 O78 O 0.84313 0.78283 0.24628
 O79 O 0.75274 0.79362 0.22722
 O80 O 0.79171 0.75277 0.22602
 O81 O 0.74901 0.71155 0.22685
 O82 O 0.70863 0.75395 0.22862
 C83 C 0.80857 0.79848 0.30606
 C84 C 0.70415 0.80158 0.30849
 C85 C 0.80707 0.70477 0.30458
 O86 O 0.83992 0.71507 0.24379
 O87 O 0.80293 0.69330 0.21367
 O88 O 0.77529 0.72091 0.18471
 C89 C 0.79483 0.69938 0.19103
 O90 O 0.68964 0.69693 0.28373
 Zr91 Zr 0.70965 0.71389 0.25001
 O92 O 0.71776 0.72514 0.18568
 O93 O 0.78529 0.66428 0.25104
 O94 O 0.71621 0.66531 0.25010
 O95 O 0.66011 0.72085 0.24987
 O96 O 0.69233 0.69714 0.21560
 C97 C 0.69792 0.70439 0.19267
 O98 O 0.77400 0.77562 0.17741
 O99 O 0.71869 0.84158 0.25201
 O100 O 0.71979 0.78412 0.18676
 O101 O 0.69665 0.81255 0.21748
 O102 O 0.79007 0.84058 0.25142
 O103 O 0.80999 0.81265 0.21523
 C104 C 0.70133 0.80583 0.19440
 H105 H 0.75543 0.81280 0.28236
 H106 H 0.80994 0.75254 0.21447
 H107 H 0.68877 0.75501 0.21895
 H108 H 0.75063 0.69403 0.28252
 H109 H 0.85433 0.80219 0.25057
 H110 H 0.84786 0.69353 0.24450
 H111 H 0.80670 0.65531 0.24934
 H112 H 0.69562 0.65576 0.24600
 H113 H 0.81142 0.84880 0.25495
 H114 H 0.69721 0.85047 0.25342
 H115 H 0.65566 0.81239 0.25143
 H116 H 0.65013 0.70077 0.24587
 H117 H 0.82847 0.82591 0.21876
 H118 H 0.76503 0.76853 0.16134
 H119 H 0.74022 0.73532 0.33751
 H120 H 0.67506 0.67970 0.27995
 Zr121 Zr 0.75463 0.24670 -0.29269
 O122 O 0.73145 0.27186 -0.32126
 O123 O 0.78607 0.21940 -0.31315
 O124 O 0.78664 0.27509 -0.31198
 O125 O 0.69611 0.19189 -0.28583
 O126 O 0.81169 0.30203 -0.28142
 O127 O 0.72566 0.21797 -0.31451
 O128 O 0.81471 0.19470 -0.28314
 O129 O 0.79523 0.24778 -0.27057
 O130 O 0.75452 0.20581 -0.27190
 O131 O 0.75088 0.28730 -0.27148
 O132 O 0.71145 0.24700 -0.27313
 Zr133 Zr 0.74886 0.24710 -0.20608
 Zr134 Zr 0.79038 0.28683 -0.24804
 Zr135 Zr 0.71315 0.20697 -0.25096
 Zr136 Zr 0.79390 0.20780 -0.24890
 O137 O 0.66328 0.20939 -0.25149
 O138 O 0.84299 0.21660 -0.24627
 O139 O 0.75256 0.20615 -0.22721
 O140 O 0.79163 0.24682 -0.22595
 O141 O 0.74902 0.28823 -0.22672
 O142 O 0.70856 0.24599 -0.22854
 C143 C 0.80843 0.20128 -0.30608
 C144 C 0.70401 0.19843 -0.30847
 C145 C 0.80721 0.29479 -0.30442
 O146 O 0.83993 0.28437 -0.24367
 O147 O 0.80301 0.30622 -0.21353
 O148 O 0.77531 0.27869 -0.18458
 C149 C 0.79492 0.30014 -0.19089
 O150 O 0.68975 0.30320 -0.28358
 Zr151 Zr 0.70967 0.28608 -0.24989
 O152 O 0.71771 0.27469 -0.18557
 O153 O 0.78542 0.33538 -0.25088
 O154 O 0.71635 0.33463 -0.24992
 O155 O 0.66012 0.27931 -0.24974
 O156 O 0.69236 0.30282 -0.21547
 C157 C 0.69791 0.29552 -0.19255
 O158 O 0.77382 0.22398 -0.17735
 O159 O 0.71842 0.15836 -0.25205
 O160 O 0.71963 0.21569 -0.18673
 O161 O 0.69649 0.18740 -0.21750
 O162 O 0.78981 0.15907 -0.25150
 O163 O 0.80974 0.18682 -0.21527
 C164 C 0.70116 0.19405 -0.19441
 H165 H 0.75525 0.18704 -0.28237
 H166 H 0.80986 0.24695 -0.21442
 H167 H 0.68869 0.24499 -0.21887
 H168 H 0.75074 0.30583 -0.28238
 H169 H 0.85414 0.19721 -0.25060
 H170 H 0.84793 0.30587 -0.24438
 H171 H 0.80685 0.34425 -0.24920
 H172 H 0.69578 0.34425 -0.24580
 H173 H 0.81113 0.15078 -0.25507
 H174 H 0.69692 0.14956 -0.25345
 H175 H 0.65546 0.18782 -0.25140
 H176 H 0.65018 0.29944 -0.24573
 H177 H 0.82821 0.17350 -0.21882
 H178 H 0.76485 0.23108 -0.16127
 H179 H 0.74021 0.26470 -0.33741
 H180 H 0.67518 0.32046 -0.27978
 Zr181 Zr 0.24826 0.74857 -0.29461
 O182 O 0.27633 0.72688 -0.32216
 O183 O 0.21540 0.77273 -0.31656
 O184 O 0.22221 0.71643 -0.31515
 O185 O 0.29939 0.80943 -0.28557
 O186 O 0.19891 0.68573 -0.28585
 O187 O 0.27510 0.78054 -0.31520
 O188 O 0.18244 0.79404 -0.28793
 O189 O 0.20646 0.74254 -0.27444
 O190 O 0.24217 0.78893 -0.27404
 O191 O 0.25532 0.70842 -0.27308
 O192 O 0.28978 0.75282 -0.27327
 Zr193 Zr 0.24805 0.74786 -0.20800
 Zr194 Zr 0.21439 0.70403 -0.25148
 Zr195 Zr 0.28188 0.79216 -0.25141
 Zr196 Zr 0.20173 0.78220 -0.25285
 O197 O 0.33167 0.79534 -0.24989
 O198 O 0.15393 0.76779 -0.25276
 O199 O 0.24103 0.78833 -0.22941
 O200 O 0.20699 0.74348 -0.22970
 O201 O 0.25407 0.70711 -0.22835
 O202 O 0.28946 0.75367 -0.22865
 C203 C 0.19097 0.78889 -0.31064
 C204 C 0.29394 0.80236 -0.30854
 C205 C 0.20458 0.69364 -0.30863
 O206 O 0.16460 0.70096 -0.25031
 O207 O 0.20068 0.68380 -0.21729
 O208 O 0.22333 0.71389 -0.18757
 C209 C 0.20613 0.69077 -0.19430
 O210 O 0.31866 0.69966 -0.28252
 Zr211 Zr 0.29450 0.71396 -0.24980
 O212 O 0.28040 0.72330 -0.18599
 O213 O 0.22529 0.65635 -0.25281
 O214 O 0.29365 0.66496 -0.25000
 O215 O 0.34284 0.72622 -0.24747
 O216 O 0.31112 0.69880 -0.21464
 C217 C 0.30301 0.70496 -0.19202
 O218 O 0.21889 0.76822 -0.18052
 O219 O 0.27109 0.83989 -0.25285
 O220 O 0.27253 0.78177 -0.18752
 O221 O 0.29395 0.81299 -0.21741
 O222 O 0.20020 0.83113 -0.25499
 O223 O 0.18086 0.80053 -0.22003
 C224 C 0.28889 0.80537 -0.19453
 H225 H 0.24004 0.80767 -0.28456
 H226 H 0.18804 0.74130 -0.21904
 H227 H 0.30839 0.75669 -0.21815
 H228 H 0.25861 0.69014 -0.28381
 H229 H 0.14091 0.78586 -0.25766
 H230 H 0.15929 0.67869 -0.25104
 H231 H 0.20494 0.64511 -0.25217
 H232 H 0.31489 0.65768 -0.24496
 H233 H 0.17833 0.83709 -0.25945
 H234 H 0.29149 0.85103 -0.25344
 H235 H 0.33691 0.81765 -0.24956
 H236 H 0.35476 0.70728 -0.24296
 H237 H 0.16108 0.81145 -0.22443
 H238 H 0.22739 0.76193 -0.16403
 H239 H 0.26797 0.73324 -0.33869
 H240 H 0.33488 0.68412 -0.27804
 Zr241 Zr 1.25401 1.25362 0.79068
 O242 O 1.22954 1.22932 0.81906
 O243 O 1.28703 1.27870 0.81153
 O244 O 1.28369 1.22180 0.80913
 O245 O 1.19870 1.31193 0.78491
 O246 O 1.30642 1.19442 0.77767
 O247 O 1.22653 1.28325 0.81307
 O248 O 1.31648 1.30314 0.78187
 O249 O 1.29442 1.25086 0.76837
 O250 O 1.25617 1.29506 0.77062
 O251 O 1.24756 1.21417 0.76848
 O252 O 1.21085 1.25654 0.77116
 Zr253 Zr 1.24780 1.25640 0.70380
 Zr254 Zr 1.28689 1.21306 0.74489
 Zr255 Zr 1.21479 1.29704 0.74973
 Zr256 Zr 1.29528 1.29155 0.74745
 O257 O 1.16487 1.29756 0.75050
 O258 O 1.34374 1.27973 0.74495
 O259 O 1.25409 1.29632 0.72584
 O260 O 1.29053 1.25357 0.72363
 O261 O 1.24553 1.21474 0.72367
 O262 O 1.20775 1.25914 0.72650
 C263 C 1.30991 1.29636 0.80473
 C264 C 1.20604 1.30416 0.80741
 C265 C 1.30226 1.20056 0.80089
 O266 O 1.33657 1.21286 0.74096
 O267 O 1.29863 1.19428 0.71004
 O268 O 1.27274 1.22417 0.68156
 C269 C 1.29111 1.20148 0.68750
 O270 O 1.18553 1.20163 0.78047
 Zr271 Zr 1.20649 1.21849 0.74709
 O272 O 1.21528 1.23089 0.68291
 O273 O 1.27891 1.16480 0.74608
 O274 O 1.21011 1.16962 0.74630
 O275 O 1.15747 1.22840 0.74715
 O276 O 1.18831 1.20363 0.71244
 C277 C 1.19438 1.21101 0.68962
 O278 O 1.27373 1.27925 0.67548
 O279 O 1.22305 1.34518 0.75172
 O280 O 1.21984 1.28979 0.68525
 O281 O 1.19894 1.31852 0.71679
 O282 O 1.29381 1.34038 0.75054
 O283 O 1.31286 1.31231 0.71427
 C284 C 1.20265 1.31216 0.69353
 H285 H 1.25794 1.31347 0.78142
 H286 H 1.30876 1.25273 0.71209
 H287 H 1.18791 1.26153 0.71695
 H288 H 1.24619 1.19527 0.77889
 H289 H 1.35607 1.29825 0.74967
 H290 H 1.34327 1.19092 0.74097
 H291 H 1.29975 1.15466 0.74418
 H292 H 1.18898 1.16138 0.74209
 H293 H 1.31551 1.34749 0.75429
 H294 H 1.20214 1.35521 0.75346
 H295 H 1.15833 1.31955 0.75085
 H296 H 1.14627 1.20912 0.74266
 H297 H 1.33210 1.32432 0.71815
 H298 H 1.26435 1.27310 0.65930
 H299 H 1.23889 1.23552 0.83524
 H300 H 1.16973 1.18559 0.77635
 Zr301 Zr 0.74667 0.75478 0.79415
 O302 O 0.77161 0.77908 0.82208
 O303 O 0.71360 0.73013 0.81548
 O304 O 0.71716 0.78680 0.81238
 O305 O 0.80098 0.69569 0.78859
 O306 O 0.69480 0.81439 0.78071
 O307 O 0.77387 0.72484 0.81671
 O308 O 0.68345 0.70613 0.78622
 O309 O 0.70618 0.75806 0.77199
 O310 O 0.74368 0.71329 0.77452
 O311 O 0.75358 0.79402 0.77151
 O312 O 0.78963 0.75111 0.77442
 Zr313 Zr 0.75218 0.75135 0.70735
 Zr314 Zr 0.71413 0.79561 0.74807
 Zr315 Zr 0.78484 0.71057 0.75343
 Zr316 Zr 0.70444 0.71727 0.75155
 O317 O 0.83476 0.70929 0.75381
 O318 O 0.65618 0.72994 0.74930
 O319 O 0.74537 0.71170 0.72980
 O320 O 0.70963 0.75501 0.72730
 O321 O 0.75531 0.79313 0.72667
 O322 O 0.79239 0.74816 0.72977
 C323 C 0.69041 0.71277 0.80897
 C324 C 0.79394 0.70357 0.81105
 C325 C 0.69868 0.80808 0.80396
 O326 O 0.66447 0.79671 0.74415
 O327 O 0.70262 0.81437 0.71302
 O328 O 0.72778 0.78367 0.68488
 C329 C 0.70988 0.80671 0.69057
 O330 O 0.81593 0.80576 0.78298
 Zr331 Zr 0.79445 0.78894 0.74992
 O332 O 0.78504 0.77604 0.68595
 O333 O 0.72294 0.84372 0.74893
 O334 O 0.79159 0.83784 0.74860
 O335 O 0.84329 0.77824 0.74985
 O336 O 0.81262 0.80325 0.71497
 C337 C 0.80630 0.79569 0.69227
 O338 O 0.72556 0.72889 0.67938
 O339 O 0.77595 0.66255 0.75612
 O340 O 0.77897 0.71721 0.68902
 O341 O 0.79980 0.68841 0.72069
 O342 O 0.70507 0.66844 0.75505
 O343 O 0.68619 0.69664 0.71868
 C344 C 0.79570 0.69455 0.69741
 H345 H 0.74173 0.69495 0.78550
 H346 H 0.69135 0.75606 0.71584
 H347 H 0.81207 0.74532 0.72010
 H348 H 0.75527 0.81294 0.78173
 H349 H 0.64356 0.71166 0.75428
 H350 H 0.65817 0.81878 0.74399
 H351 H 0.70228 0.85418 0.74693
 H352 H 0.81281 0.84573 0.74414
 H353 H 0.68328 0.66170 0.75899
 H354 H 0.79672 0.65224 0.75780
 H355 H 0.84096 0.68721 0.75434
 H356 H 0.85478 0.79729 0.74504
 H357 H 0.66670 0.68510 0.72279
 H358 H 0.73495 0.73469 0.66308
 H359 H 0.76232 0.77308 0.83838
 H360 H 0.83198 0.82148 0.77858
 Zr361 Zr 1.25393 0.74708 0.20895
 O362 O 1.22941 0.77166 0.18074
 O363 O 1.28701 0.72224 0.18792
 O364 O 1.28357 0.77905 0.19070
 O365 O 1.19878 0.68869 0.21440
 O366 O 1.30619 0.80619 0.22231
 O367 O 1.22651 0.71764 0.18637
 O368 O 1.31658 0.69763 0.21740
 O369 O 1.29433 0.74970 0.23125
 O370 O 1.25625 0.70547 0.22874
 O371 O 1.24738 0.78632 0.23140
 O372 O 1.21078 0.74393 0.22847
 Zr373 Zr 1.24777 0.74350 0.29582
 Zr374 Zr 1.28670 0.78727 0.25498
 Zr375 Zr 1.21490 0.70325 0.24964
 Zr376 Zr 1.29535 0.70883 0.25191
 O377 O 1.16498 0.70266 0.24900
 O378 O 1.34377 0.72070 0.25444
 O379 O 1.25418 0.70381 0.27352
 O380 O 1.29049 0.74656 0.27598
 O381 O 1.24535 0.78534 0.27622
 O382 O 1.20773 0.74090 0.27314
 C383 C 1.30996 0.70458 0.19459
 C384 C 1.20607 0.69666 0.19194
 C385 C 1.30209 0.80021 0.19906
 O386 O 1.33638 0.78752 0.25886
 O387 O 1.29846 0.80571 0.28995
 O388 O 1.27266 0.77551 0.31826
 C389 C 1.29100 0.79826 0.31245
 O390 O 1.18532 0.79890 0.21952
 Zr391 Zr 1.20633 0.78174 0.25279
 O392 O 1.21516 0.76877 0.31688
 O393 O 1.27854 0.83552 0.25410
 O394 O 1.20976 0.83060 0.25387
 O395 O 1.15735 0.77174 0.25271
 O396 O 1.18809 0.79625 0.28752
 C397 C 1.19419 0.78869 0.31029
 O398 O 1.27376 0.72045 0.32401
 O399 O 1.22329 0.65514 0.24728
 O400 O 1.22000 0.70982 0.31416
 O401 O 1.19928 0.68134 0.28244
 O402 O 1.29405 0.66003 0.24852
 O403 O 1.31299 0.68776 0.28495
 C404 C 1.20298 0.68746 0.30573
 H405 H 1.25807 0.68716 0.21782
 H406 H 1.30872 0.74731 0.28751
 H407 H 1.18791 0.73838 0.28269
 H408 H 1.24595 0.80532 0.22111
 H409 H 1.35617 0.70224 0.24960
 H410 H 1.34302 0.80948 0.25898
 H411 H 1.29934 0.84568 0.25602
 H412 H 1.18860 0.83877 0.25814
 H413 H 1.31577 0.65299 0.24469
 H414 H 1.20241 0.64510 0.24551
 H415 H 1.15851 0.68067 0.24851
 H416 H 1.14607 0.79096 0.25731
 H417 H 1.33229 0.67583 0.28097
 H418 H 1.26433 0.72643 0.34023
 H419 H 1.23877 0.76562 0.16451
 H420 H 1.16943 0.81483 0.22376
 Zr421 Zr 0.74601 1.24475 0.20534
 O422 O 0.77178 1.22101 0.17751
 O423 O 0.71297 1.26922 0.18379
 O424 O 0.71736 1.21246 0.18664
 O425 O 0.79935 1.30449 0.21184
 O426 O 0.69506 1.18420 0.21796
 O427 O 0.77331 1.27518 0.18326
 O428 O 0.68187 1.29247 0.21287
 O429 O 0.70518 1.24066 0.22706
 O430 O 0.74196 1.28601 0.22517
 O431 O 0.75317 1.20543 0.22787
 O432 O 0.78853 1.24886 0.22556
 Zr433 Zr 0.74983 1.24740 0.29223
 Zr434 Zr 0.71333 1.20303 0.25089
 Zr435 Zr 0.78266 1.28913 0.24673
 Zr436 Zr 0.70236 1.28123 0.24769
 O437 O 0.83254 1.29115 0.24706
 O438 O 0.65429 1.26783 0.24927
 O439 O 0.74277 1.28715 0.26992
 O440 O 0.70773 1.24337 0.27180
 O441 O 0.75407 1.20586 0.27273
 O442 O 0.79040 1.25145 0.27028
 C443 C 0.68939 1.28622 0.19015
 C444 C 0.79296 1.29664 0.18925
 C445 C 0.69920 1.19078 0.19479
 O446 O 0.66361 1.20115 0.25413
 O447 O 0.70125 1.18385 0.28571
 O448 O 0.72549 1.21458 0.31426
 C449 C 0.70795 1.19143 0.30828
 O450 O 0.81590 1.19467 0.21698
 Zr451 Zr 0.79355 1.21089 0.24991
 O452 O 0.78277 1.22301 0.31384
 O453 O 0.72304 1.15506 0.24996
 O454 O 0.79157 1.16194 0.25091
 O455 O 0.84217 1.22238 0.25055
 O456 O 0.81136 1.19655 0.28494
 C457 C 0.80452 1.20377 0.30762
 O458 O 0.72232 1.26916 0.32008
 O459 O 0.77302 1.33703 0.24409
 O460 O 0.77547 1.28186 0.31103
 O461 O 0.79634 1.31132 0.27978
 O462 O 0.70227 1.33010 0.24455
 O463 O 0.68311 1.30127 0.28047
 C464 C 0.79181 1.30493 0.30297
 H465 H 0.73993 1.30442 0.21427
 H466 H 0.68925 1.24196 0.28304
 H467 H 0.80983 1.25452 0.28020
 H468 H 0.75538 1.18661 0.21756
 H469 H 0.64145 1.28598 0.24428
 H470 H 0.65769 1.17900 0.25410
 H471 H 0.70253 1.14427 0.25164
 H472 H 0.81284 1.15435 0.25554
 H473 H 0.68046 1.33659 0.24039
 H474 H 0.79365 1.34765 0.24276
 H475 H 0.83836 1.31332 0.24674
 H476 H 0.85394 1.20347 0.25536
 H477 H 0.66348 1.31254 0.27620
 H478 H 0.73152 1.26334 0.33645
 H479 H 0.76269 1.22707 0.16115
 H480 H 0.83221 1.17923 0.22147
 O481 O 0.47555 1.05183 0.03078
 O482 O 0.51197 0.94648 0.02978
 O483 O 0.43954 0.98480 0.03139
 O484 O 0.54802 1.01350 0.03112
 O485 O 0.45858 0.94196 0.01871
 O486 O 0.52889 1.05682 0.01935
 O487 O 0.55454 0.96231 0.01420
 O488 O 0.43283 1.03653 0.01520
 C489 C 0.44671 1.04947 0.03264
 C490 C 0.54081 0.94882 0.03154
 C491 C 0.44437 0.95696 0.03517
 C492 C 0.54378 1.04130 0.03520
 O493 O 0.51193 1.05278 -0.03032
 O494 O 0.47490 0.94769 -0.03102
 O495 O 0.43926 1.01506 -0.03142
 O496 O 0.54754 0.98540 -0.03202
 O497 O 0.52833 0.94222 -0.02007
 O498 O 0.45869 1.05773 -0.01885
 O499 O 0.55459 1.03652 -0.01513
 O500 O 0.43243 0.96335 -0.01514
 Co501 Co 0.49375 1.04965 0.00020
 Co502 Co 0.49346 0.94972 -0.00061
 Co503 Co 0.44182 0.99991 -0.00002
 Co504 Co 0.54535 0.99945 -0.00043
 O505 O 0.49360 0.99968 -0.00022
 C506 C 0.54073 1.05021 -0.03230
 C507 C 0.44605 0.95022 -0.03263
 C508 C 0.44418 1.04288 -0.03520
 C509 C 0.54311 0.95762 -0.03606
 O510 O 0.97934 0.54550 0.53579
 O511 O 1.02445 0.44321 0.51933
 O512 O 0.93792 0.47572 0.52781
 O513 O 1.07546 0.52470 0.50867
 O514 O 0.96714 0.43760 0.51347
 O515 O 1.03396 0.54315 0.52718
 O516 O 1.04210 0.48727 0.53269
 O517 O 0.93544 0.53324 0.51943
 C518 C 0.95028 0.54418 0.53730
 C519 C 1.03805 0.45890 0.53610
 C520 C 0.94732 0.44820 0.52911
 C521 C 1.06341 0.54538 0.52330
 O522 O 1.02278 0.55680 0.47817
 O523 O 0.97556 0.45214 0.46375
 O524 O 0.93805 0.52285 0.47212
 O525 O 1.06600 0.46843 0.49204
 O526 O 1.02868 0.45719 0.46868
 O527 O 0.96636 0.56100 0.48693
 O528 O 1.04466 0.51410 0.46863
 O529 O 0.93294 0.46589 0.48113
 Co530 Co 1.00004 0.54713 0.50621
 Co531 Co 0.99874 0.45139 0.49204
 Co532 Co 0.94162 0.49945 0.49998
 Co533 Co 1.04135 0.50170 0.50074
 O534 O 0.99359 0.49855 0.49902
 C535 C 1.03903 0.54138 0.46325
 C536 C 0.94658 0.45394 0.46319
 C537 C 0.94709 0.55039 0.47097
 C538 C 1.05698 0.45396 0.47352
 O539 O 1.03940 0.48601 0.04271
 O540 O 1.03872 0.51457 -0.04330
 O541 O 1.03835 0.44727 -0.01437
 O542 O 1.03832 0.55301 0.01405
 O543 O 1.01811 0.46300 -0.04792
 O544 O 1.01845 0.53732 0.04774
 O545 O 1.02371 0.55782 -0.02838
 O546 O 1.02443 0.44260 0.02814
 C547 C 1.04428 0.45803 0.04012
 C548 C 1.04336 0.54261 -0.04080
 C549 C 1.04026 0.44965 -0.03723
 C550 C 1.04042 0.55077 0.03690
 O551 O 0.95964 0.51518 0.04268
 O552 O 0.95920 0.48474 -0.04252
 O553 O 0.96125 0.44729 0.01505
 O554 O 0.96085 0.55291 -0.01465
 O555 O 0.97985 0.53647 -0.04833
 O556 O 0.98080 0.46365 0.04851
 O557 O 0.97515 0.55819 0.02733
 O558 O 0.97512 0.44186 -0.02712
 Co559 Co 0.99954 0.50048 0.04076
 Co560 Co 0.99900 0.49975 -0.04088
 Co561 Co 0.99978 0.45001 0.00040
 Co562 Co 0.99955 0.55022 -0.00038
 O563 O 0.99947 0.50012 -0.00004
 C564 C 0.95505 0.54321 0.03953
 C565 C 0.95489 0.45668 -0.03935
 C566 C 0.95917 0.44960 0.03785
 C567 C 0.95835 0.55045 -0.03741
 O568 O 0.53867 0.98530 0.54348
 O569 O 0.53795 1.01246 0.45729
 O570 O 0.53684 0.94567 0.48648
 O571 O 0.53743 1.05185 0.51452
 O572 O 0.51635 0.96096 0.45298
 O573 O 0.51734 1.03682 0.54824
 O574 O 0.52329 1.05594 0.47216
 O575 O 0.52348 0.94186 0.52894
 C576 C 0.54372 0.95736 0.54045
 C577 C 0.54308 1.04040 0.46016
 C578 C 0.53858 0.94775 0.46361
 C579 C 0.53941 1.04999 0.53738
 O580 O 0.45875 1.01458 0.54348
 O581 O 0.45796 0.98345 0.45824
 O582 O 0.46001 0.94658 0.51645
 O583 O 0.46009 1.05163 0.48548
 O584 O 0.47959 1.03490 0.45215
 O585 O 0.48034 0.96309 0.54951
 O586 O 0.47408 1.05731 0.52745
 O587 O 0.47327 0.94065 0.47425
 Co588 Co 0.49872 0.99983 0.54154
 Co589 Co 0.49800 0.99806 0.45978
 Co590 Co 0.49841 0.94888 0.50146
 Co591 Co 0.49873 1.04899 0.49997
 O592 O 0.49846 0.99894 0.50068
 C593 C 0.45398 1.04252 0.53981
 C594 C 0.45321 0.95551 0.46186
 C595 C 0.45813 0.94961 0.53920
 C596 C 0.45766 1.04846 0.46279
 O597 O 1.06236 1.02575 0.47286
 O598 O 0.94533 1.02489 0.52719
 O599 O 0.96594 1.01812 0.45164
 O600 O 1.04199 1.01657 0.54808
 O601 O 0.94968 1.03783 0.48488
 O602 O 1.05732 1.03751 0.51502
 O603 O 0.98964 1.03852 0.54304
 O604 O 1.01807 1.04010 0.45750
 C605 C 1.04640 1.04543 0.46106
 C606 C 0.96121 1.04381 0.53973
 C607 C 0.95238 1.03985 0.46211
 C608 C 1.05474 1.03895 0.53780
 O609 O 1.06240 0.97451 0.52688
 O610 O 0.94543 0.97530 0.47246
 O611 O 1.04211 0.98367 0.45164
 O612 O 0.96592 0.98211 0.54799
 O613 O 0.94977 0.96233 0.51477
 O614 O 1.05744 0.96276 0.48472
 O615 O 1.01811 0.96012 0.54219
 O616 O 0.98978 0.96169 0.45660
 Co617 Co 1.05476 1.00013 0.49987
 Co618 Co 0.95274 1.00009 0.49983
 Co619 Co 1.00401 1.00083 0.45895
 Co620 Co 1.00395 0.99939 0.54072
 O621 O 1.00385 1.00011 0.49984
 C622 C 1.04649 0.95488 0.53877
 C623 C 0.96135 0.95640 0.45989
 C624 C 1.05487 0.96129 0.46195
 C625 C 0.95255 0.96030 0.53754
 O626 O 0.55949 0.52702 -0.02669
 O627 O 0.44298 0.52524 0.02718
 O628 O 0.46306 0.51859 -0.04828
 O629 O 0.53953 0.51550 0.04844
 O630 O 0.44733 0.53820 -0.01493
 O631 O 0.55488 0.53734 0.01579
 O632 O 0.48737 0.53829 0.04328
 O633 O 0.51511 0.54106 -0.04230
 C634 C 0.54345 0.54647 -0.03875
 C635 C 0.45899 0.54389 0.03992
 C636 C 0.44969 0.54030 -0.03771
 C637 C 0.55272 0.53793 0.03862
 O638 O 0.55954 0.47381 0.02631
 O639 O 0.44307 0.47546 -0.02764
 O640 O 0.53963 0.48526 -0.04883
 O641 O 0.46306 0.48217 0.04778
 O642 O 0.44747 0.46245 0.01448
 O643 O 0.55505 0.46353 -0.01615
 O644 O 0.51517 0.45969 0.04185
 O645 O 0.48749 0.46245 -0.04377
 Co646 Co 0.55215 0.50043 -0.00019
 Co647 Co 0.45032 0.50034 -0.00022
 Co648 Co 0.50133 0.50169 -0.04114
 Co649 Co 0.50129 0.49906 0.04069
 O650 O 0.50127 0.50038 -0.00022
 C651 C 0.54353 0.45430 0.03830
 C652 C 0.45911 0.45687 -0.04046
 C653 C 0.55285 0.46286 -0.03897
 C654 C 0.44998 0.46031 0.03724
 C655 C 0.34054 1.14153 0.14075
 C656 C 0.32345 1.16774 0.13345
 C657 C 0.30639 1.18462 0.15111
 C658 C 0.30631 1.17547 0.17632
 C659 C 0.32299 1.14862 0.18330
 C660 C 0.33997 1.13182 0.16563
 C661 C 0.35927 1.12496 0.12289
 C662 C 0.37505 1.11110 0.10796
 C663 C 0.39352 1.09459 0.08988
 C664 C 0.37845 1.07522 0.07284
 C665 C 0.39597 1.06008 0.05455
 C666 C 0.42884 1.06415 0.05304
 C667 C 0.44396 1.08313 0.07057
 C668 C 0.42632 1.09833 0.08888
 H669 H 0.32372 1.17542 0.11420
 H670 H 0.29394 1.20521 0.14510
 H671 H 0.32346 1.14086 0.20251
 H672 H 0.35306 1.11152 0.17145
 H673 H 0.35310 1.07211 0.07349
 H674 H 0.38370 1.04547 0.04138
 H675 H 0.46924 1.08664 0.06985
 H676 H 0.43820 1.11327 0.10204
 C677 C 0.84723 0.63893 0.64530
 C678 C 0.82914 0.66387 0.63674
 C679 C 0.81177 0.68166 0.65358
 C680 C 0.81236 0.67469 0.67923
 C681 C 0.83028 0.64922 0.68754
 C682 C 0.84758 0.63150 0.67067
 C683 C 0.86575 0.62116 0.62811
 C684 C 0.88117 0.60641 0.61354
 C685 C 0.89905 0.58905 0.59567
 C686 C 0.88327 0.57040 0.57852
 C687 C 0.90016 0.55506 0.55999
 C688 C 0.93313 0.55824 0.55835
 C689 C 0.94897 0.57629 0.57612
 C690 C 0.93196 0.59170 0.59466
 H691 H 0.82871 0.66976 0.61709
 H692 H 0.79832 0.70113 0.64655
 H693 H 0.83129 0.64314 0.70713
 H694 H 0.86147 0.61219 0.67746
 H695 H 0.85781 0.56818 0.57917
 H696 H 0.88732 0.54119 0.54665
 H697 H 0.97434 0.57916 0.57528
 H698 H 0.94437 0.60612 0.60789
 C699 C 0.64702 0.85623 0.14010
 C700 C 0.66711 0.83238 0.13246
 C701 C 0.68521 0.81624 0.15002
 C702 C 0.68341 0.82378 0.17550
 C703 C 0.66335 0.84805 0.18289
 C704 C 0.64532 0.86413 0.16531
 C705 C 0.62806 0.87258 0.12212
 C706 C 0.61228 0.88634 0.10703
 C707 C 0.59392 0.90284 0.08875
 C708 C 0.56108 0.89940 0.08785
 C709 C 0.54353 0.91478 0.06949
 C710 C 0.55874 0.93366 0.05180
 C711 C 0.59167 0.93735 0.05314
 C712 C 0.60911 0.92203 0.07149
 H713 H 0.66864 0.82612 0.11296
 H714 H 0.70030 0.79766 0.14366
 H715 H 0.66132 0.85452 0.20231
 H716 H 0.62990 0.88260 0.17141
 H717 H 0.54909 0.88462 0.10117
 H718 H 0.51820 0.91156 0.06891
 H719 H 0.60401 0.95186 0.03985
 H720 H 0.63449 0.92491 0.07205
 C721 C 1.14622 0.36478 0.64197
 C722 C 1.16413 0.33974 0.63344
 C723 C 1.18327 0.32306 0.64999
 C724 C 1.18466 0.33121 0.67535
 C725 C 1.16702 0.35686 0.68357
 C726 C 1.14798 0.37346 0.66701
 C727 C 1.12558 0.38130 0.62525
 C728 C 1.10823 0.39517 0.61130
 C729 C 1.08790 0.41168 0.59434
 C730 C 1.06669 0.39549 0.57926
 C731 C 1.04903 0.41115 0.56117
 C732 C 1.05246 0.44325 0.55788
 C733 C 1.07277 0.45954 0.57388
 C734 C 1.09042 0.44381 0.59195
 H735 H 1.16297 0.33284 0.61406
 H736 H 1.19639 0.30341 0.64304
 H737 H 1.16749 0.36387 0.70293
 H738 H 1.13430 0.39284 0.67382
 H739 H 1.06448 0.37063 0.58099
 H740 H 1.03359 0.39797 0.54915
 H741 H 1.07604 0.48424 0.57176
 H742 H 1.10672 0.45659 0.60355
 C743 C 0.64673 1.14355 -0.14035
 C744 C 0.66668 1.16742 -0.13262
 C745 C 0.68483 1.18361 -0.15010
 C746 C 0.68321 1.17608 -0.17558
 C747 C 0.66329 1.15178 -0.18307
 C748 C 0.64521 1.13567 -0.16557
 C749 C 0.62774 1.12712 -0.12248
 C750 C 0.61195 1.11323 -0.10750
 C751 C 0.59361 1.09655 -0.08936
 C752 C 0.56082 1.10031 -0.08821
 C753 C 0.54331 1.08477 -0.06992
 C754 C 0.55854 1.06541 -0.05257
 C755 C 0.59141 1.06138 -0.05420
 C756 C 0.60880 1.07687 -0.07246
 H757 H 0.66805 1.17365 -0.11310
 H758 H 0.69981 1.20221 -0.14368
 H759 H 0.66142 1.14532 -0.20249
 H760 H 0.62990 1.11717 -0.17173
 H761 H 0.54884 1.11547 -0.10125
 H762 H 0.51802 1.08826 -0.06911
 H763 H 0.60376 1.04650 -0.04117
 H764 H 0.63415 1.07374 -0.07324
 C765 C 1.14704 0.63385 0.35682
 C766 C 1.14908 0.62535 0.33177
 C767 C 1.16800 0.64227 0.31535
 C768 C 1.18522 0.66806 0.32376
 C769 C 1.18359 0.67601 0.34915
 C770 C 1.16457 0.65901 0.36555
 C771 C 1.12642 0.61711 0.37336
 C772 C 1.10906 0.60316 0.38720
 C773 C 1.08869 0.58671 0.40413
 C774 C 1.09320 0.55507 0.40835
 C775 C 1.07558 0.53975 0.42664
 C776 C 1.05333 0.55599 0.44101
 C777 C 1.04788 0.58743 0.43581
 C778 C 1.06551 0.60269 0.41749
 H779 H 1.13569 0.60588 0.32482
 H780 H 1.16869 0.63541 0.29597
 H781 H 1.19640 0.69575 0.35623
 H782 H 1.16318 0.66576 0.38495
 H783 H 1.11105 0.54248 0.39808
 H784 H 1.08039 0.51556 0.43029
 H785 H 1.03092 0.60054 0.44657
 H786 H 1.06178 0.62717 0.41433
 C787 C 0.33855 0.85797 -0.13949
 C788 C 0.32176 0.83154 -0.13235
 C789 C 0.30467 0.81485 -0.15007
 C790 C 0.30429 0.82443 -0.17518
 C791 C 0.32066 0.85151 -0.18197
 C792 C 0.33765 0.86811 -0.16424
 C793 C 0.35737 0.87437 -0.12165
 C794 C 0.37330 0.88819 -0.10684
 C795 C 0.39200 0.90473 -0.08901
 C796 C 0.37720 0.92433 -0.07197
 C797 C 0.39500 0.93962 -0.05397
 C798 C 0.42788 0.93545 -0.05277
 C799 C 0.44272 0.91623 -0.07030
 C800 C 0.42481 0.90089 -0.08832
 H801 H 0.32231 0.82354 -0.11318
 H802 H 0.29246 0.79407 -0.14422
 H803 H 0.32086 0.85962 -0.20110
 H804 H 0.35051 0.88860 -0.16993
 H805 H 0.35185 0.92753 -0.07242
 H806 H 0.38295 0.95441 -0.04079
 H807 H 0.46801 0.91264 -0.06979
 H808 H 0.43647 0.88578 -0.10149
 C809 C 0.84055 0.36110 0.35612
 C810 C 0.82279 0.33576 0.36428
 C811 C 0.80627 0.31781 0.34708
 C812 C 0.80742 0.32502 0.32148
 C813 C 0.82490 0.35095 0.31359
 C814 C 0.84135 0.36883 0.33082
 C815 C 0.85872 0.37865 0.37361
 C816 C 0.87419 0.39306 0.38831
 C817 C 0.89260 0.40981 0.40614
 C818 C 0.87747 0.42743 0.42436
 C819 C 0.89516 0.44238 0.44261
 C820 C 0.92825 0.43981 0.44285
 C821 C 0.94334 0.42263 0.42410
 C822 C 0.92555 0.40765 0.40586
 H823 H 0.82208 0.32963 0.38387
 H824 H 0.79312 0.29801 0.35379
 H825 H 0.82629 0.35721 0.29405
 H826 H 0.85505 0.38842 0.32436
 H827 H 0.85197 0.42922 0.42470
 H828 H 0.88290 0.45556 0.45675
 H829 H 0.96878 0.42027 0.42384
 H830 H 0.93744 0.39402 0.39179
 C831 C 1.16621 0.36523 0.13669
 C832 C 1.18572 0.34035 0.13035
 C833 C 1.20058 0.32297 0.14903
 C834 C 1.19602 0.33020 0.17438
 C835 C 1.17682 0.35565 0.18049
 C836 C 1.16203 0.37297 0.16178
 C837 C 1.14914 0.38191 0.11769
 C838 C 1.13379 0.39568 0.10228
 C839 C 1.11412 0.41182 0.08459
 C840 C 1.09614 0.39513 0.06740
 C841 C 1.07434 0.41037 0.05211
 C842 C 1.07016 0.44254 0.05389
 C843 C 1.08925 0.45930 0.07050
 C844 C 1.11101 0.44400 0.08580
 H845 H 1.18905 0.33408 0.11099
 H846 H 1.21523 0.30361 0.14362
 H847 H 1.17277 0.36195 0.19975
 H848 H 1.14690 0.39211 0.16693
 H849 H 1.09827 0.37022 0.06634
 H850 H 1.06006 0.39684 0.03947
 H851 H 1.08658 0.48409 0.07232
 H852 H 1.12472 0.45715 0.09909
 C853 C 0.66823 0.86128 0.63194
 C854 C 0.68660 0.83542 0.62595
 C855 C 0.70069 0.81781 0.64492
 C856 C 0.69637 0.82581 0.67013
 C857 C 0.67828 0.85219 0.67581
 C858 C 0.66436 0.86970 0.65688
 C859 C 0.65168 0.87840 0.61291
 C860 C 0.63635 0.89288 0.59794
 C861 C 0.61629 0.90996 0.58114
 C862 C 0.59843 0.89421 0.56332
 C863 C 0.57573 0.90999 0.54929
 C864 C 0.57049 0.94177 0.55298
 C865 C 0.58951 0.95772 0.57013
 C866 C 0.61219 0.94185 0.58419
 H867 H 0.68963 0.82859 0.60669
 H868 H 0.71449 0.79771 0.63988
 H869 H 0.67451 0.85919 0.69494
 H870 H 0.65010 0.88958 0.66175
 H871 H 0.60127 0.86952 0.56088
 H872 H 0.56158 0.89710 0.53614
 H873 H 0.58603 0.98218 0.57337
 H874 H 0.62574 0.95425 0.59804
 C875 C 1.16262 0.63738 -0.13869
 C876 C 1.18235 0.66193 -0.13215
 C877 C 1.19732 0.67953 -0.15064
 C878 C 1.19272 0.67300 -0.17624
 C879 C 1.17316 0.64766 -0.18242
 C880 C 1.15830 0.63018 -0.16384
 C881 C 1.14568 0.62033 -0.11978
 C882 C 1.13057 0.60627 -0.10436
 C883 C 1.11132 0.58980 -0.08653
 C884 C 1.09371 0.60617 -0.06888
 C885 C 1.07254 0.59062 -0.05323
 C886 C 1.06861 0.55842 -0.05509
 C887 C 1.08729 0.54198 -0.07223
 C888 C 1.10844 0.55760 -0.08788
 H889 H 1.18585 0.66776 -0.11272
 H890 H 1.21216 0.69851 -0.14473
 H891 H 1.16882 0.64140 -0.20166
 H892 H 1.14304 0.61124 -0.16915
 H893 H 1.09566 0.63108 -0.06767
 H894 H 1.05855 0.60393 -0.04021
 H895 H 1.08481 0.51719 -0.07414
 H896 H 1.12186 0.54467 -0.10151
 C897 C 0.66556 1.13650 0.36643
 C898 C 0.66167 1.12846 0.34141
 C899 C 0.67582 1.14607 0.32262
 C900 C 0.69415 1.17218 0.32853
 C901 C 0.69844 1.17981 0.35381
 C902 C 0.68414 1.16211 0.37263
 C903 C 0.64897 1.11924 0.38539
 C904 C 0.63377 1.10475 0.40046
 C905 C 0.61404 1.08773 0.41757
 C906 C 0.60985 1.05583 0.41468
 C907 C 0.58772 1.03999 0.42932
 C908 C 0.56934 1.05598 0.44692
 C909 C 0.57464 1.08778 0.45037
 C910 C 0.59678 1.10352 0.43577
 H911 H 0.64726 1.10878 0.33636
 H912 H 0.67203 1.13937 0.30343
 H913 H 0.71241 1.19969 0.35905
 H914 H 0.68721 1.16864 0.39195
 H915 H 0.62295 1.04337 0.40057
 H916 H 0.58419 1.01552 0.42622
 H917 H 0.56097 1.10072 0.46384
 H918 H 0.59970 1.12821 0.43812
 C919 C 0.83723 0.64358 0.13365
 C920 C 0.81575 0.66691 0.12718
 C921 C 0.80172 0.68504 0.14576
 C922 C 0.80911 0.68011 0.17108
 C923 C 0.83055 0.65639 0.17730
 C924 C 0.84445 0.63836 0.15875
 C925 C 0.85297 0.62559 0.11476
 C926 C 0.86741 0.61050 0.09967
 C927 C 0.88624 0.59275 0.08247
 C928 C 0.88975 0.56079 0.08577
 C929 C 0.91108 0.54422 0.07098
 C930 C 0.92933 0.55952 0.05282
 C931 C 0.92465 0.59138 0.04895
 C932 C 0.90330 0.60786 0.06370
 H933 H 0.81005 0.67126 0.10779
 H934 H 0.78529 0.70300 0.14029
 H935 H 0.83681 0.65181 0.19653
 H936 H 0.86110 0.62047 0.16400
 H937 H 0.87679 0.54885 0.10031
 H938 H 0.91418 0.51972 0.07443
 H939 H 0.93825 0.60380 0.03506
 H940 H 0.90089 0.63258 0.06101
 C941 C 0.33313 1.14529 0.63007
 C942 C 0.31438 1.17076 0.62344
 C943 C 0.30026 1.18900 0.64198
 C944 C 0.30490 1.18204 0.66740
 C945 C 0.32349 1.15613 0.67371
 C946 C 0.33741 1.13802 0.65525
 C947 C 0.34933 1.12712 0.61148
 C948 C 0.36426 1.11163 0.59693
 C949 C 0.38372 1.09327 0.58053
 C950 C 0.38772 1.06154 0.58494
 C951 C 0.40957 1.04452 0.57095
 C952 C 0.42789 1.05912 0.55246
 C953 C 0.42277 1.09071 0.54751
 C954 C 0.40092 1.10763 0.56146
 H955 H 0.31096 1.17672 0.60399
 H956 H 0.28609 1.20868 0.63643
 H957 H 0.32757 1.14986 0.69301
 H958 H 0.35191 1.11847 0.66067
 H959 H 0.37469 1.05016 0.59974
 H960 H 0.41298 1.02026 0.57523
 H961 H 0.43639 1.10261 0.53334
 H962 H 0.39818 1.13215 0.55790
 C963 C 0.83766 0.35566 -0.13350
 C964 C 0.81609 0.33245 -0.12702
 C965 C 0.80195 0.31440 -0.14560
 C966 C 0.80932 0.31931 -0.17093
 C967 C 0.83087 0.34289 -0.17716
 C968 C 0.84487 0.36083 -0.15862
 C969 C 0.85343 0.37363 -0.11462
 C970 C 0.86786 0.38876 -0.09956
 C971 C 0.88661 0.40660 -0.08237
 C972 C 0.90393 0.39158 -0.06369
 C973 C 0.92510 0.40820 -0.04892
 C974 C 0.92936 0.44015 -0.05266
 C975 C 0.91088 0.45533 -0.07075
 C976 C 0.88973 0.43862 -0.08555
 H977 H 0.81037 0.32813 -0.10763
 H978 H 0.78544 0.29655 -0.14011
 H979 H 0.83713 0.34745 -0.19640
 H980 H 0.86159 0.37863 -0.16389
 H981 H 0.90184 0.36682 -0.06108
 H982 H 0.93888 0.39585 -0.03510
 H983 H 0.91365 0.47988 -0.07411
 H984 H 0.87658 0.45050 -0.10001
 C985 C 0.33317 0.85362 0.37032
 C986 C 0.31424 0.82822 0.37675
 C987 C 0.30009 0.81026 0.35807
 C988 C 0.30485 0.81742 0.33270
 C989 C 0.32363 0.84325 0.32658
 C990 C 0.33760 0.86108 0.34519
 C991 C 0.34933 0.87154 0.38908
 C992 C 0.36418 0.88684 0.40381
 C993 C 0.38348 0.90502 0.42044
 C994 C 0.40069 0.89045 0.43940
 C995 C 0.42234 0.90726 0.45361
 C996 C 0.42724 0.93896 0.44902
 C997 C 0.40890 0.95375 0.43063
 C998 C 0.38726 0.93684 0.41639
 H999 H 0.31070 0.82211 0.39616
 H1000 H 0.28577 0.79063 0.36348
 H1001 H 0.32782 0.84966 0.30733
 H1002 H 0.35223 0.88057 0.33991
 H1003 H 0.39812 0.86586 0.44270
 H1004 H 0.43598 0.89519 0.46768
 H1005 H 0.41214 0.97809 0.42661
 H1006 H 0.37422 0.94840 0.40170
 C1007 C 1.13870 1.17171 0.36966
 C1008 C 1.12834 1.17022 0.34494
 C1009 C 1.14543 1.18483 0.32602
 C1010 C 1.17326 1.20117 0.33154
 C1011 C 1.18307 1.20320 0.35658
 C1012 C 1.16591 1.18848 0.37549
 C1013 C 1.12238 1.15429 0.38858
 C1014 C 1.10873 1.13843 0.40363
 C1015 C 1.09251 1.11799 0.42053
 C1016 C 1.05979 1.11433 0.41869
 C1017 C 1.04449 1.09157 0.43275
 C1018 C 1.06182 1.07205 0.44872
 C1019 C 1.09449 1.07679 0.45126
 C1020 C 1.10973 1.09958 0.43718
 H1021 H 1.10737 1.15719 0.34021
 H1022 H 1.13711 1.18282 0.30701
 H1023 H 1.20436 1.21556 0.36151
 H1024 H 1.17423 1.18965 0.39456
 H1025 H 1.04626 1.12835 0.40576
 H1026 H 1.01930 1.08852 0.43042
 H1027 H 1.10843 1.06220 0.46346
 H1028 H 1.13509 1.10212 0.43866
 C1029 C 0.63586 0.66949 -0.13302
 C1030 C 0.62789 0.66502 -0.15805
 C1031 C 0.64521 0.67957 -0.17690
 C1032 C 0.67087 0.69882 -0.17097
 C1033 C 0.67828 0.70369 -0.14568
 C1034 C 0.66091 0.68906 -0.12685
 C1035 C 0.61934 0.65258 -0.11390
 C1036 C 0.60566 0.63726 -0.09850
 C1037 C 0.58951 0.61752 -0.08102
 C1038 C 0.55672 0.61412 -0.08243
 C1039 C 0.54144 0.59197 -0.06773
 C1040 C 0.55884 0.57280 -0.05152
 C1041 C 0.59159 0.57736 -0.04939
 C1042 C 0.60681 0.59954 -0.06411
 H1043 H 0.60861 0.64982 -0.16304
 H1044 H 0.63878 0.67530 -0.19612
 H1045 H 0.69784 0.71836 -0.14041
 H1046 H 0.66736 0.69259 -0.10753
 H1047 H 0.54311 0.62782 -0.09553
 H1048 H 0.51619 0.58905 -0.06977
 H1049 H 0.60560 0.56302 -0.03705
 H1050 H 0.63221 0.60190 -0.06294
 C1051 C 0.86489 1.15910 0.63688
 C1052 C 0.84131 1.18028 0.63041
 C1053 C 0.82306 1.19415 0.64896
 C1054 C 0.82812 1.18692 0.67429
 C1055 C 0.85214 1.16582 0.68058
 C1056 C 0.87035 1.15199 0.66198
 C1057 C 0.88257 1.14356 0.61781
 C1058 C 0.89704 1.12952 0.60219
 C1059 C 0.91385 1.11132 0.58419
 C1060 C 0.89710 1.09480 0.56615
 C1061 C 0.91282 1.07388 0.55074
 C1062 C 0.94550 1.06915 0.55330
 C1063 C 0.96238 1.08698 0.57066
 C1064 C 0.94659 1.10786 0.58607
 H1065 H 0.83682 1.18583 0.61102
 H1066 H 0.80488 1.21038 0.64342
 H1067 H 0.85673 1.15976 0.69985
 H1068 H 0.88847 1.13550 0.66717
 H1069 H 0.87174 1.09726 0.56461
 H1070 H 0.89922 1.06058 0.53749
 H1071 H 0.98757 1.08387 0.57304
 H1072 H 0.95974 1.12048 0.60004
 C1073 C 0.36537 0.66229 0.13684
 C1074 C 0.34073 0.68241 0.13058
 C1075 C 0.32303 0.69661 0.14934
 C1076 C 0.32969 0.69078 0.17467
 C1077 C 0.35490 0.67091 0.18071
 C1078 C 0.37255 0.65677 0.16192
 C1079 C 0.38230 0.64602 0.11768
 C1080 C 0.39625 0.63133 0.10211
 C1081 C 0.41260 0.61240 0.08427
 C1082 C 0.39548 0.59563 0.06659
 C1083 C 0.41083 0.57430 0.05127
 C1084 C 0.44352 0.56940 0.05355
 C1085 C 0.46075 0.58736 0.07061
 C1086 C 0.44533 0.60865 0.08592
 H1087 H 0.33488 0.68675 0.11122
 H1088 H 0.30385 0.71179 0.14398
 H1089 H 0.36075 0.66590 0.19996
 H1090 H 0.39151 0.64114 0.16697
 H1091 H 0.37012 0.59828 0.06522
 H1092 H 0.39695 0.56089 0.03827
 H1093 H 0.48595 0.58414 0.07279
 H1094 H 0.45879 0.62143 0.09960
 C1095 C 1.13907 0.83101 0.63224
 C1096 C 1.16499 0.81239 0.62642
 C1097 C 1.18207 0.79776 0.64542
 C1098 C 1.17360 0.80169 0.67076
 C1099 C 1.14683 0.82004 0.67615
 C1100 C 1.12988 0.83453 0.65708
 C1101 C 1.12278 0.84800 0.61303
 C1102 C 1.10913 0.86347 0.59771
 C1103 C 1.09289 0.88342 0.58043
 C1104 C 1.06010 0.88680 0.58197
 C1105 C 1.04472 0.90915 0.56752
 C1106 C 1.06202 0.92854 0.55144
 C1107 C 1.09478 0.92405 0.54919
 C1108 C 1.11010 0.90167 0.56367
 H1109 H 1.17235 0.80959 0.60721
 H1110 H 1.20224 0.78384 0.64013
 H1111 H 1.13905 0.82378 0.69515
 H1112 H 1.10986 0.84896 0.66179
 H1113 H 1.04656 0.87291 0.59498
 H1114 H 1.01947 0.91201 0.56963
 H1115 H 1.10871 0.93855 0.53692
 H1116 H 1.13551 0.89935 0.56240
 C1117 C 0.63554 0.33006 0.13198
 C1118 C 0.66113 0.31106 0.12589
 C1119 C 0.67826 0.29620 0.14475
 C1120 C 0.67008 0.30027 0.17000
 C1121 C 0.64388 0.31893 0.17582
 C1122 C 0.62680 0.33370 0.15695
 C1123 C 0.61922 0.34726 0.11290
 C1124 C 0.60565 0.36283 0.09758
 C1125 C 0.58956 0.38283 0.08024
 C1126 C 0.55677 0.38622 0.08160
 C1127 C 0.54151 0.40853 0.06702
 C1128 C 0.55895 0.42789 0.05099
 C1129 C 0.59172 0.42338 0.04893
 C1130 C 0.60692 0.40103 0.06352
 H1131 H 0.66818 0.30818 0.10663
 H1132 H 0.69826 0.28202 0.13956
 H1133 H 0.63684 0.32256 0.19500
 H1134 H 0.60710 0.34843 0.16188
 H1135 H 0.54311 0.37236 0.09454
 H1136 H 0.51624 0.41141 0.06901
 H1137 H 0.60576 0.43786 0.03672
 H1138 H 0.63233 0.39869 0.06239
 C1139 C 0.86500 0.84092 0.36294
 C1140 C 0.84135 0.81990 0.36951
 C1141 C 0.82311 0.80593 0.35101
 C1142 C 0.82825 0.81291 0.32565
 C1143 C 0.85235 0.83386 0.31926
 C1144 C 0.87055 0.84777 0.33780
 C1145 C 0.88270 0.85656 0.38194
 C1146 C 0.89719 0.87067 0.39750
 C1147 C 0.91401 0.88894 0.41542
 C1148 C 0.89730 0.90540 0.43354
 C1149 C 0.91301 0.92631 0.44893
 C1150 C 0.94566 0.93109 0.44629
 C1151 C 0.96253 0.91334 0.42884
 C1152 C 0.94674 0.89247 0.41344
 H1153 H 0.83679 0.81453 0.38893
 H1154 H 0.80487 0.78983 0.35662
 H1155 H 0.85701 0.83973 0.29997
 H1156 H 0.88872 0.86414 0.33254
 H1157 H 0.87194 0.90289 0.43517
 H1158 H 0.89942 0.93956 0.46225
 H1159 H 0.98769 0.91650 0.42638
 H1160 H 0.95987 0.87990 0.39941
 C1161 C 0.36531 0.33909 -0.13777
 C1162 C 0.34079 0.31893 -0.13140
 C1163 C 0.32308 0.30461 -0.15007
 C1164 C 0.32962 0.31036 -0.17543
 C1165 C 0.35469 0.33030 -0.18160
 C1166 C 0.37236 0.34456 -0.16289
 C1167 C 0.38232 0.35539 -0.11867
 C1168 C 0.39630 0.37005 -0.10312
 C1169 C 0.41267 0.38888 -0.08524
 C1170 C 0.39558 0.40550 -0.06742
 C1171 C 0.41094 0.42664 -0.05198
 C1172 C 0.44363 0.43152 -0.05425
 C1173 C 0.46084 0.41372 -0.07146
 C1174 C 0.44541 0.39260 -0.08690
 H1175 H 0.33505 0.31462 -0.11201
 H1176 H 0.30400 0.28939 -0.14461
 H1177 H 0.36044 0.33526 -0.20088
 H1178 H 0.39122 0.36022 -0.16804
 H1179 H 0.37022 0.40286 -0.06602
 H1180 H 0.39707 0.43994 -0.03887
 H1181 H 0.48603 0.41693 -0.07366
 H1182 H 0.45886 0.37994 -0.10068
 C1183 C 1.15937 0.35282 -0.13308
 C1184 C 1.15240 0.35971 -0.15799
 C1185 C 1.16755 0.34390 -0.17724
 C1186 C 1.19003 0.32081 -0.17194
 C1187 C 1.19698 0.31405 -0.14680
 C1188 C 1.18172 0.32996 -0.12751
 C1189 C 1.14295 0.36916 -0.11359
 C1190 C 1.12791 0.38361 -0.09846
 C1191 C 1.10827 0.40169 -0.08208
 C1192 C 1.08964 0.42520 -0.09234
 C1193 C 1.06836 0.44138 -0.07744
 C1194 C 1.06532 0.43435 -0.05193
 C1195 C 1.08490 0.41147 -0.04143
 C1196 C 1.10619 0.39510 -0.05650
 H1197 H 1.13512 0.37730 -0.16255
 H1198 H 1.16156 0.34980 -0.19630
 H1199 H 1.21417 0.29648 -0.14201
 H1200 H 1.18729 0.32437 -0.10830
 H1201 H 1.09102 0.43055 -0.11207
 H1202 H 1.05378 0.45901 -0.08603
 H1203 H 1.08301 0.40557 -0.02185
 H1204 H 1.12046 0.37691 -0.04835
 C1205 C 0.65650 0.85024 0.36745
 C1206 C 0.68018 0.82880 0.37319
 C1207 C 0.69564 0.81283 0.35407
 C1208 C 0.68757 0.81810 0.32890
 C1209 C 0.66367 0.83969 0.32341
 C1210 C 0.64831 0.85558 0.34253
 C1211 C 0.64020 0.86681 0.38685
 C1212 C 0.62537 0.88138 0.40201
 C1213 C 0.60602 0.89956 0.41851
 C1214 C 0.58756 0.92325 0.40836
 C1215 C 0.56649 0.93951 0.42336
 C1216 C 0.56351 0.93239 0.44886
 C1217 C 0.58297 0.90935 0.45925
 C1218 C 0.60405 0.89289 0.44408
 H1219 H 0.68671 0.82444 0.39241
 H1220 H 0.71394 0.79644 0.35901
 H1221 H 0.65682 0.84440 0.30432
 H1222 H 0.62998 0.87208 0.33785
 H1223 H 0.58888 0.92866 0.38864
 H1224 H 0.55200 0.95729 0.41486
 H1225 H 0.58111 0.90339 0.47883
 H1226 H 0.61822 0.87455 0.45214
 C1227 C 0.83984 0.65287 -0.13003
 C1228 C 0.81783 0.67588 -0.12414
 C1229 C 0.80285 0.69258 -0.14322
 C1230 C 0.80979 0.68644 -0.16842
 C1231 C 0.83199 0.66324 -0.17401
 C1232 C 0.84683 0.64667 -0.15499
 C1233 C 0.85596 0.63557 -0.11089
 C1234 C 0.87090 0.62020 -0.09624
 C1235 C 0.89047 0.60108 -0.08055
 C1236 C 0.89291 0.60644 -0.05487
 C1237 C 0.91420 0.58918 -0.04043
 C1238 C 0.93340 0.56660 -0.05165
 C1239 C 0.93000 0.56080 -0.07727
 C1240 C 0.90871 0.57790 -0.09157
 H1241 H 0.81229 0.68092 -0.10486
 H1242 H 0.78585 0.71021 -0.13825
 H1243 H 0.83797 0.65779 -0.19312
 H1244 H 0.86387 0.62897 -0.15978
 H1245 H 0.87895 0.62438 -0.04615
 H1246 H 0.91637 0.59414 -0.02073
 H1247 H 0.94431 0.54344 -0.08639
 H1248 H 0.90703 0.57354 -0.11141
 C1249 C 0.33906 1.14563 0.36739
 C1250 C 0.34459 1.13855 0.34233
 C1251 C 0.33022 1.15590 0.32349
 C1252 C 0.31009 1.18066 0.32947
 C1253 C 0.30455 1.18749 0.35477
 C1254 C 0.31899 1.17008 0.37359
 C1255 C 0.35499 1.12823 0.38649
 C1256 C 0.36962 1.11329 0.40154
 C1257 C 0.38886 1.09506 0.41804
 C1258 C 0.40686 1.07103 0.40805
 C1259 C 0.42839 1.05518 0.42299
 C1260 C 0.43222 1.06313 0.44819
 C1261 C 0.41310 1.08641 0.45846
 C1262 C 0.39159 1.10245 0.44336
 H1263 H 0.36020 1.11972 0.33735
 H1264 H 0.33499 1.14993 0.30427
 H1265 H 0.28913 1.20633 0.36006
 H1266 H 0.31467 1.17581 0.39294
 H1267 H 0.40495 1.06515 0.38849
 H1268 H 0.44263 1.03717 0.41465
 H1269 H 0.41562 1.09296 0.47782
 H1270 H 0.37779 1.12111 0.45123
 C1271 C 1.15937 0.64832 0.13230
 C1272 C 1.18167 0.67122 0.12677
 C1273 C 1.19694 0.68703 0.14609
 C1274 C 1.19004 0.68015 0.17123
 C1275 C 1.16760 0.65704 0.17648
 C1276 C 1.15245 0.64133 0.15720
 C1277 C 1.14296 0.63200 0.11279
 C1278 C 1.12793 0.61750 0.09770
 C1279 C 1.10832 0.59929 0.08139
 C1280 C 1.10597 0.60587 0.05583
 C1281 C 1.08473 0.58932 0.04087
 C1282 C 1.06547 0.56627 0.05146
 C1283 C 1.06879 0.55927 0.07695
 C1284 C 1.09002 0.57562 0.09174
 H1285 H 1.18721 0.67689 0.10757
 H1286 H 1.21410 0.70462 0.14134
 H1287 H 1.16164 0.65104 0.19553
 H1288 H 1.13520 0.62371 0.16174
 H1289 H 1.11998 0.62418 0.04760
 H1290 H 1.08262 0.59522 0.02130
 H1291 H 1.05446 0.54151 0.08562
 H1292 H 1.09160 0.57027 0.11146
 C1293 C 0.65658 1.14942 0.63268
 C1294 C 0.68033 1.17074 0.62688
 C1295 C 0.69568 1.18687 0.64596
 C1296 C 0.68746 1.18187 0.67113
 C1297 C 0.66347 1.16043 0.67667
 C1298 C 0.64821 1.14439 0.65761
 C1299 C 0.64045 1.13257 0.61335
 C1300 C 0.62577 1.11773 0.59827
 C1301 C 0.60662 1.09918 0.58192
 C1302 C 0.60428 1.10575 0.55634
 C1303 C 0.58334 1.08892 0.54134
 C1304 C 0.56436 1.06563 0.55190
 C1305 C 0.56774 1.05861 0.57738
 C1306 C 0.58868 1.07522 0.59222
 H1307 H 0.68701 1.17487 0.60766
 H1308 H 0.71406 1.20314 0.64098
 H1309 H 0.65649 1.15592 0.69577
 H1310 H 0.62984 1.12798 0.66234
 H1311 H 0.61803 1.12428 0.54816
 H1312 H 0.58115 1.09483 0.52177
 H1313 H 0.55364 1.04065 0.58601
 H1314 H 0.59028 1.06988 0.61193
 C1315 C 0.84024 0.34757 0.13102
 C1316 C 0.81884 0.32418 0.12481
 C1317 C 0.80336 0.30748 0.14366
 C1318 C 0.80917 0.31398 0.16897
 C1319 C 0.83072 0.33760 0.17489
 C1320 C 0.84606 0.35418 0.15610
 C1321 C 0.85692 0.36478 0.11208
 C1322 C 0.87216 0.37999 0.09749
 C1323 C 0.89192 0.39887 0.08171
 C1324 C 0.89366 0.39392 0.05593
 C1325 C 0.91480 0.41114 0.04130
 C1326 C 0.93456 0.43330 0.05241
 C1327 C 0.93194 0.43864 0.07817
 C1328 C 0.91081 0.42157 0.09266
 H1329 H 0.81418 0.31880 0.10545
 H1330 H 0.78691 0.28952 0.13841
 H1331 H 0.83583 0.34335 0.19410
 H1332 H 0.86260 0.37217 0.16116
 H1333 H 0.87919 0.37638 0.04724
 H1334 H 0.91634 0.40652 0.02151
 H1335 H 0.94669 0.45565 0.08723
 H1336 H 0.90969 0.42564 0.11256
 C1337 C 0.33912 0.85352 0.63556
 C1338 C 0.31854 0.82964 0.62916
 C1339 C 0.30335 0.81252 0.64779
 C1340 C 0.30856 0.81896 0.67334
 C1341 C 0.32939 0.84331 0.67937
 C1342 C 0.34446 0.86032 0.66066
 C1343 C 0.35563 0.87066 0.61658
 C1344 C 0.37057 0.88533 0.60152
 C1345 C 0.39001 0.90324 0.58490
 C1346 C 0.39190 0.89622 0.55945
 C1347 C 0.41324 0.91212 0.54409
 C1348 C 0.43303 0.93494 0.55420
 C1349 C 0.43011 0.94248 0.57957
 C1350 C 0.40877 0.92674 0.59477
 H1351 H 0.31433 0.82413 0.60976
 H1352 H 0.28761 0.79419 0.64200
 H1353 H 0.33430 0.84937 0.69857
 H1354 H 0.36047 0.87873 0.66580
 H1355 H 0.37751 0.87799 0.55164
 H1356 H 0.41504 0.90587 0.52461
 H1357 H 0.44486 0.96011 0.58782
 H1358 H 0.40750 0.93237 0.61442
 C1359 C 0.35245 1.14447 -0.14612
 C1360 C 0.35555 1.13883 -0.17163
 C1361 C 0.33939 1.15722 -0.18885
 C1362 C 0.31984 1.18156 -0.18076
 C1363 C 0.31702 1.18713 -0.15502
 C1364 C 0.33324 1.16868 -0.13783
 C1365 C 0.36914 1.12555 -0.12844
 C1366 C 0.38319 1.11002 -0.11344
 C1367 C 0.39997 1.09229 -0.09503
 C1368 C 0.39326 1.06090 -0.09144
 C1369 C 0.40834 1.04434 -0.07240
 C1370 C 0.43012 1.05917 -0.05671
 C1371 C 0.43731 1.09048 -0.06096
 C1372 C 0.42230 1.10690 -0.07998
 H1373 H 0.37042 1.12019 -0.17822
 H1374 H 0.34213 1.15223 -0.20850
 H1375 H 0.30223 1.20566 -0.14814
 H1376 H 0.33078 1.17326 -0.11808
 H1377 H 0.37599 1.04939 -0.10304
 H1378 H 0.40238 1.02024 -0.06956
 H1379 H 0.45414 1.10245 -0.04929
 H1380 H 0.42770 1.13116 -0.08266
 C1381 C 0.86340 0.65954 0.36040
 C1382 C 0.84273 0.68329 0.36713
 C1383 C 0.82458 0.69816 0.34895
 C1384 C 0.82682 0.68939 0.32375
 C1385 C 0.84806 0.66576 0.31714
 C1386 C 0.86616 0.65091 0.33538
 C1387 C 0.88030 0.64276 0.37933
 C1388 C 0.89349 0.62779 0.39519
 C1389 C 0.90788 0.60864 0.41395
 C1390 C 0.93009 0.62072 0.43059
 C1391 C 0.94312 0.60182 0.44918
 C1392 C 0.93393 0.57067 0.45130
 C1393 C 0.91179 0.55880 0.43431
 C1394 C 0.89888 0.57766 0.41582
 H1395 H 0.84030 0.69002 0.38647
 H1396 H 0.80865 0.71637 0.35470
 H1397 H 0.85043 0.65847 0.29794
 H1398 H 0.88196 0.63240 0.33002
 H1399 H 0.93719 0.64472 0.42928
 H1400 H 0.96023 0.61156 0.46191
 H1401 H 0.90427 0.53491 0.43534
 H1402 H 0.88169 0.56810 0.40305
 C1403 C 0.64679 1.13694 0.14222
 C1404 C 0.66513 1.16180 0.13385
 C1405 C 0.68249 1.17928 0.15087
 C1406 C 0.68160 1.17205 0.17646
 C1407 C 0.66322 1.14683 0.18458
 C1408 C 0.64596 1.12944 0.16755
 C1409 C 0.62830 1.11943 0.12494
 C1410 C 0.61253 1.10493 0.11050
 C1411 C 0.59366 1.08820 0.09298
 C1412 C 0.57104 1.10394 0.07884
 C1413 C 0.55399 1.08833 0.06059
 C1414 C 0.55944 1.05675 0.05625
 C1415 C 0.58146 1.04081 0.07113
 C1416 C 0.59855 1.05654 0.08938
 H1417 H 0.66583 1.16778 0.11423
 H1418 H 0.69633 1.19855 0.14403
 H1419 H 0.66201 1.14054 0.20412
 H1420 H 0.63179 1.11024 0.17417
 H1421 H 0.56704 1.12843 0.08158
 H1422 H 0.53704 1.10113 0.04951
 H1423 H 0.58611 1.01648 0.06818
 H1424 H 0.61600 1.04418 0.10031
 C1425 C 1.16364 0.64098 0.63199
 C1426 C 1.18207 0.66690 0.62665
 C1427 C 1.19530 0.68397 0.64599
 C1428 C 1.19024 0.67536 0.67104
 C1429 C 1.17171 0.64915 0.67624
 C1430 C 1.15846 0.63208 0.65679
 C1431 C 1.14891 0.62444 0.61200
 C1432 C 1.13572 0.61123 0.59529
 C1433 C 1.11847 0.59609 0.57585
 C1434 C 1.13359 0.57615 0.55914
 C1435 C 1.11595 0.56034 0.54119
 C1436 C 1.08306 0.56430 0.53999
 C1437 C 1.06834 0.58506 0.55640
 C1438 C 1.08594 0.60082 0.57419
 H1439 H 1.18600 0.67408 0.60752
 H1440 H 1.20938 0.70402 0.64125
 H1441 H 1.16739 0.64187 0.69528
 H1442 H 1.14401 0.61212 0.66108
 H1443 H 1.15882 0.57242 0.56029
 H1444 H 1.12785 0.54442 0.52881
 H1445 H 1.04305 0.58858 0.55592
 H1446 H 1.07405 0.61626 0.58699
 C1447 C 0.64488 0.86158 -0.14392
 C1448 C 0.64367 0.86853 -0.16936
 C1449 C 0.66131 0.85121 -0.18626
 C1450 C 0.68046 0.82664 -0.17792
 C1451 C 0.68162 0.81992 -0.15224
 C1452 C 0.66390 0.83731 -0.13536
 C1453 C 0.62627 0.87916 -0.12668
 C1454 C 0.61057 0.89370 -0.11217
 C1455 C 0.59192 0.91050 -0.09447
 C1456 C 0.59686 0.94216 -0.09095
 C1457 C 0.58012 0.95794 -0.07248
 C1458 C 0.55841 0.94207 -0.05729
 C1459 C 0.55289 0.91049 -0.06153
 C1460 C 0.56959 0.89481 -0.08000
 H1461 H 0.62899 0.88727 -0.17615
 H1462 H 0.65984 0.85709 -0.20587
 H1463 H 0.69603 0.80114 -0.14520
 H1464 H 0.66492 0.83175 -0.11566
 H1465 H 0.61409 0.95449 -0.10211
 H1466 H 0.58482 0.98227 -0.06962
 H1467 H 0.53619 0.89772 -0.05021
 H1468 H 0.56557 0.87032 -0.08264
 C1469 C 1.16669 0.36395 0.36705
 C1470 C 1.16161 0.37217 0.34209
 C1471 C 1.17514 0.35473 0.32296
 C1472 C 1.19386 0.32876 0.32861
 C1473 C 1.19902 0.32093 0.35382
 C1474 C 1.18549 0.33839 0.37286
 C1475 C 1.15095 0.38045 0.38663
 C1476 C 1.13650 0.39352 0.40279
 C1477 C 1.11726 0.40827 0.42131
 C1478 C 1.13067 0.42391 0.44154
 C1479 C 1.11119 0.43845 0.45908
 C1480 C 1.07822 0.43743 0.45638
 C1481 C 1.06512 0.42131 0.43618
 C1482 C 1.08450 0.40686 0.41881
 H1483 H 1.14684 0.39181 0.33742
 H1484 H 1.17073 0.36144 0.30381
 H1485 H 1.21329 0.30112 0.35891
 H1486 H 1.18934 0.33168 0.39210
 H1487 H 1.15606 0.42504 0.44363
 H1488 H 1.12182 0.45081 0.47445
 H1489 H 1.03980 0.42009 0.43363
 H1490 H 1.07389 0.39474 0.40328
 C1491 C 0.35267 0.85627 0.14638
 C1492 C 0.33353 0.83213 0.13797
 C1493 C 0.31714 0.81372 0.15506
 C1494 C 0.31974 0.81927 0.18082
 C1495 C 0.33920 0.84357 0.18903
 C1496 C 0.35552 0.86192 0.17190
 C1497 C 0.36954 0.87511 0.12880
 C1498 C 0.38371 0.89053 0.11381
 C1499 C 0.40056 0.90811 0.09539
 C1500 C 0.42268 0.89328 0.08025
 C1501 C 0.43760 0.90953 0.06110
 C1502 C 0.43052 0.94086 0.05683
 C1503 C 0.40900 0.95591 0.07264
 C1504 C 0.39401 0.93954 0.09180
 H1505 H 0.33126 0.82756 0.11821
 H1506 H 0.30243 0.79521 0.14810
 H1507 H 0.34176 0.84854 0.20869
 H1508 H 0.37034 0.88052 0.17857
 H1509 H 0.42793 0.86898 0.08292
 H1510 H 0.45424 0.89740 0.04933
 H1511 H 0.40314 0.98004 0.06978
 H1512 H 0.37689 0.95120 0.10347
 C1513 C 0.86416 0.33947 0.63994
 C1514 C 0.84340 0.31587 0.63315
 C1515 C 0.82503 0.30117 0.65127
 C1516 C 0.82714 0.30999 0.67647
 C1517 C 0.84848 0.33346 0.68313
 C1518 C 0.86680 0.34813 0.66495
 C1519 C 0.88119 0.35615 0.62107
 C1520 C 0.89443 0.37108 0.60525
 C1521 C 0.90877 0.39021 0.58649
 C1522 C 0.89949 0.42111 0.58449
 C1523 C 0.91223 0.43991 0.56590
 C1524 C 0.93448 0.42805 0.54897
 C1525 C 0.94400 0.39701 0.55126
 C1526 C 0.93114 0.37816 0.56994
 H1527 H 0.84107 0.30913 0.61381
 H1528 H 0.80903 0.28307 0.64548
 H1529 H 0.85076 0.34078 0.70233
 H1530 H 0.88266 0.36655 0.67035
 H1531 H 0.88217 0.43063 0.59720
 H1532 H 0.90445 0.46373 0.56473
 H1533 H 0.96119 0.38727 0.53857
 H1534 H 0.93844 0.35422 0.57136
 C1535 C 1.14287 1.16422 0.63213
 C1536 C 1.16680 1.18502 0.62573
 C1537 C 1.18331 1.20063 0.64441
 C1538 C 1.17612 1.19548 0.66975
 C1539 C 1.15170 1.17480 0.67590
 C1540 C 1.13524 1.15931 0.65721
 C1541 C 1.12698 1.14661 0.61328
 C1542 C 1.11345 1.13048 0.59850
 C1543 C 1.09705 1.10947 0.58241
 C1544 C 1.10340 1.10848 0.55678
 C1545 C 1.08899 1.08602 0.54188
 C1546 C 1.06839 1.06426 0.55262
 C1547 C 1.06160 1.06604 0.57822
 C1548 C 1.07582 1.08848 0.59297
 H1549 H 1.17298 1.18886 0.60636
 H1550 H 1.20198 1.21635 0.63899
 H1551 H 1.14548 1.17032 0.69516
 H1552 H 1.11681 1.14314 0.66235
 H1553 H 1.11991 1.12460 0.54845
 H1554 H 1.09457 1.08516 0.52218
 H1555 H 1.04562 1.04976 0.58696
 H1556 H 1.07077 1.08903 0.61278
 C1557 C 0.64674 0.65642 0.13552
 C1558 C 0.66944 0.67843 0.12898
 C1559 C 0.68604 0.69413 0.14756
 C1560 C 0.68016 0.68793 0.17296
 C1561 C 0.65718 0.66580 0.17929
 C1562 C 0.64062 0.65018 0.16068
 C1563 C 0.63012 0.63951 0.11660
 C1564 C 0.61589 0.62429 0.10158
 C1565 C 0.59852 0.60459 0.08500
 C1566 C 0.60455 0.60452 0.05930
 C1567 C 0.58897 0.58343 0.04382
 C1568 C 0.56747 0.56212 0.05403
 C1569 C 0.56101 0.56303 0.07973
 C1570 C 0.57641 0.58411 0.09506
 H1571 H 0.67443 0.68335 0.10956
 H1572 H 0.70358 0.71098 0.14199
 H1573 H 0.65200 0.66045 0.19860
 H1574 H 0.62314 0.63309 0.16593
 H1575 H 0.62169 0.62028 0.05134
 H1576 H 0.59435 0.58321 0.02407
 H1577 H 0.54438 0.54708 0.08809
 H1578 H 0.57155 0.58397 0.11490
 C1579 C 1.14263 0.83523 0.36795
 C1580 C 1.13473 0.83994 0.34290
 C1581 C 1.15120 0.82449 0.32417
 C1582 C 1.17588 0.80405 0.33024
 C1583 C 1.18332 0.79907 0.35555
 C1584 C 1.16682 0.81464 0.37428
 C1585 C 1.12681 0.85293 0.38680
 C1586 C 1.11334 0.86919 0.40154
 C1587 C 1.09700 0.89037 0.41756
 C1588 C 1.10326 0.89140 0.44319
 C1589 C 1.08893 0.91401 0.45801
 C1590 C 1.06849 0.93589 0.44719
 C1591 C 1.06179 0.93408 0.42157
 C1592 C 1.07594 0.91148 0.40690
 H1593 H 1.11612 0.85596 0.33782
 H1594 H 1.14477 0.82884 0.30493
 H1595 H 1.20222 0.78354 0.36090
 H1596 H 1.17321 0.81097 0.39362
 H1597 H 1.11964 0.87519 0.45158
 H1598 H 1.09442 0.91490 0.47772
 H1599 H 1.04593 0.95045 0.41277
 H1600 H 1.07096 0.91090 0.38709
 C1601 C 0.64670 0.34360 -0.13544
 C1602 C 0.64060 0.34982 -0.16060
 C1603 C 0.65717 0.33416 -0.17919
 C1604 C 0.68014 0.31200 -0.17285
 C1605 C 0.68600 0.30581 -0.14744
 C1606 C 0.66939 0.32155 -0.12888
 C1607 C 0.63009 0.36060 -0.11656
 C1608 C 0.61587 0.37594 -0.10160
 C1609 C 0.59852 0.39579 -0.08510
 C1610 C 0.60448 0.39594 -0.05940
 C1611 C 0.58895 0.41718 -0.04400
 C1612 C 0.56758 0.43857 -0.05431
 C1613 C 0.56119 0.43759 -0.08001
 C1614 C 0.57654 0.41636 -0.09526
 H1615 H 0.62313 0.36694 -0.16586
 H1616 H 0.65201 0.33950 -0.19851
 H1617 H 0.70353 0.28893 -0.14187
 H1618 H 0.67436 0.31666 -0.10945
 H1619 H 0.62153 0.38011 -0.05137
 H1620 H 0.59426 0.41745 -0.02425
 H1621 H 0.54465 0.45361 -0.08844
 H1622 H 0.57175 0.41644 -0.11510
 C1623 C 0.85705 1.15938 0.36627
 C1624 C 0.86502 1.15431 0.34130
 C1625 C 0.84815 1.16893 0.32225
 C1626 C 0.82296 1.18892 0.32790
 C1627 C 0.81531 1.19415 0.35311
 C1628 C 0.83224 1.17942 0.37216
 C1629 C 0.87377 1.14293 0.38554
 C1630 C 0.88823 1.12784 0.40064
 C1631 C 0.90603 1.10811 0.41709
 C1632 C 0.92960 1.08936 0.40697
 C1633 C 0.94524 1.06787 0.42193
 C1634 C 0.93757 1.06479 0.44732
 C1635 C 0.91468 1.08448 0.45768
 C1636 C 0.89883 1.10598 0.44256
 H1637 H 0.88412 1.13875 0.33653
 H1638 H 0.85474 1.16438 0.30310
 H1639 H 0.79605 1.20934 0.35816
 H1640 H 0.82578 1.18340 0.39143
 H1641 H 0.93536 1.09080 0.38731
 H1642 H 0.96296 1.05321 0.41348
 H1643 H 0.90834 1.08257 0.47719
 H1644 H 0.88054 1.12035 0.45056
 C1645 C 0.35462 0.66052 -0.13294
 C1646 C 0.32885 0.67946 -0.12730
 C1647 C 0.31217 0.69417 -0.14648
 C1648 C 0.32103 0.69000 -0.17158
 C1649 C 0.34715 0.67108 -0.17696
 C1650 C 0.36378 0.65648 -0.15778
 C1651 C 0.37114 0.64403 -0.11361
 C1652 C 0.38553 0.62887 -0.09853
 C1653 C 0.40333 0.60901 -0.08221
 C1654 C 0.39628 0.60674 -0.05673
 C1655 C 0.41213 0.58508 -0.04176
 C1656 C 0.43487 0.56538 -0.05231
 C1657 C 0.44240 0.56859 -0.07771
 C1658 C 0.42676 0.59024 -0.09251
 H1659 H 0.32148 0.68262 -0.10813
 H1660 H 0.29216 0.70854 -0.14164
 H1661 H 0.35470 0.66738 -0.19601
 H1662 H 0.38363 0.64175 -0.16235
 H1663 H 0.37809 0.62113 -0.04859
 H1664 H 0.40592 0.58305 -0.02223
 H1665 H 0.46000 0.55392 -0.08630
 H1666 H 0.43241 0.59179 -0.11218
 C1667 C 0.85876 0.84025 0.63371
 C1668 C 0.83456 0.81959 0.62779
 C1669 C 0.81767 0.80481 0.64682
 C1670 C 0.82475 0.81061 0.67205
 C1671 C 0.84935 0.83123 0.67774
 C1672 C 0.86619 0.84590 0.65869
 C1673 C 0.87537 0.85672 0.61441
 C1674 C 0.88966 0.87184 0.59925
 C1675 C 0.90721 0.89162 0.58270
 C1676 C 0.89972 0.89380 0.55729
 C1677 C 0.91524 0.91543 0.54210
 C1678 C 0.93810 0.93520 0.55235
 C1679 C 0.94608 0.93206 0.57767
 C1680 C 0.93076 0.91044 0.59269
 H1681 H 0.82852 0.81515 0.60851
 H1682 H 0.79887 0.78913 0.64174
 H1683 H 0.85549 0.83622 0.69690
 H1684 H 0.88482 0.86195 0.66347
 H1685 H 0.88143 0.87938 0.54939
 H1686 H 0.90868 0.91740 0.52264
 H1687 H 0.96378 0.94678 0.58602
 H1688 H 0.93673 0.90897 0.61230
 C1689 C 0.35815 0.33848 0.13287
 C1690 C 0.33214 0.31983 0.12741
 C1691 C 0.31554 0.30529 0.14671
 C1692 C 0.32473 0.30935 0.17174
 C1693 C 0.35116 0.32787 0.17694
 C1694 C 0.36771 0.34231 0.15763
 C1695 C 0.37433 0.35507 0.11344
 C1696 C 0.38833 0.37040 0.09826
 C1697 C 0.40559 0.39056 0.08184
 C1698 C 0.39812 0.39287 0.05644
 C1699 C 0.41333 0.41489 0.04143
 C1700 C 0.43581 0.43492 0.05186
 C1701 C 0.44377 0.43167 0.07717
 C1702 C 0.42878 0.40965 0.09201
 H1703 H 0.32445 0.31686 0.10832
 H1704 H 0.29529 0.29122 0.14202
 H1705 H 0.35895 0.33147 0.19593
 H1706 H 0.38774 0.35683 0.16205
 H1707 H 0.38009 0.37824 0.04842
 H1708 H 0.40681 0.41695 0.02196
 H1709 H 0.46120 0.44658 0.08566
 H1710 H 0.43472 0.40808 0.11162
   
