data_POSCAR
  _audit_creation_date              2014-09-24
  _audit_creation_method            'ToBaCCo'
  _symmetry_space_group_name_H-M    'P1'
  _symmetry_Int_Tables_number       1
  _symmetry_cell_setting            triclinic
  loop_
  _symmetry_equiv_pos_as_xyz
 x,y,z
_cell_length_a 66.8093
_cell_length_b 67.5861
_cell_length_c 68.5568
_cell_angle_alpha 89.333200
_cell_angle_beta 88.866000
_cell_angle_gamma 89.190200
loop_
  _atom_site_label
  _atom_site_type_symbol
  _atom_site_fract_x
  _atom_site_fract_y
  _atom_site_fract_z
C1 C 0.18200 0.20898 0.21827
 C2 C 0.19518 0.19310 0.22215
 C3 C 0.21159 0.18900 0.20963
 C4 C 0.21473 0.20105 0.19304
 C5 C 0.20171 0.21699 0.18890
 C6 C 0.18540 0.22083 0.20161
 H7 H 0.19266 0.18389 0.23497
 H8 H 0.22705 0.19772 0.18305
 H9 H 0.17564 0.23343 0.19879
 C10 C 0.69295 0.71906 0.72624
 C11 C 0.70524 0.70232 0.72923
 C12 C 0.72139 0.69807 0.71645
 C13 C 0.72520 0.71087 0.70054
 C14 C 0.71306 0.72770 0.69731
 C15 C 0.69696 0.73164 0.71025
 H16 H 0.70250 0.69284 0.74182
 H17 H 0.73762 0.70770 0.69062
 H18 H 0.68717 0.74425 0.70756
 C19 C 0.30262 0.78631 0.72485
 C20 C 0.30054 0.77426 0.70854
 C21 C 0.28527 0.77793 0.69520
 C22 C 0.27191 0.79385 0.69835
 C23 C 0.27358 0.80631 0.71465
 C24 C 0.28922 0.80225 0.72776
 H25 H 0.31087 0.76198 0.70620
 H26 H 0.26092 0.79702 0.68733
 H27 H 0.29050 0.81073 0.74095
 C28 C 0.80308 0.27668 0.22695
 C29 C 0.80056 0.26448 0.21060
 C30 C 0.78560 0.26853 0.19696
 C31 C 0.77278 0.28489 0.19972
 C32 C 0.77476 0.29723 0.21585
 C33 C 0.78991 0.29307 0.22929
 H34 H 0.81060 0.25208 0.20793
 H35 H 0.76155 0.28832 0.18895
 H36 H 0.79061 0.30215 0.24215
 C37 C 0.81158 0.71085 0.27794
 C38 C 0.79951 0.69447 0.27448
 C39 C 0.78335 0.68985 0.28705
 C40 C 0.77932 0.70191 0.30326
 C41 C 0.79122 0.71838 0.30699
 C42 C 0.80731 0.72274 0.29421
 H43 H 0.80242 0.68556 0.26167
 H44 H 0.76689 0.69845 0.31302
 H45 H 0.81690 0.73507 0.29724
 C46 C 0.31809 0.20583 -0.21659
 C47 C 0.30504 0.18992 -0.21954
 C48 C 0.28849 0.18654 -0.20707
 C49 C 0.28492 0.19919 -0.19128
 C50 C 0.29761 0.21509 -0.18787
 C51 C 0.31400 0.21838 -0.20061
 H52 H 0.30695 0.18066 -0.23222
 H53 H 0.27221 0.19662 -0.18158
 H54 H 0.32417 0.23012 -0.19724
 C55 C 0.69193 0.29196 -0.22314
 C56 C 0.70622 0.30676 -0.22727
 C57 C 0.72208 0.31017 -0.21461
 C58 C 0.72376 0.29864 -0.19757
 C59 C 0.70991 0.28382 -0.19309
 C60 C 0.69418 0.28057 -0.20588
 H61 H 0.70489 0.31615 -0.24006
 H62 H 0.73563 0.30154 -0.18749
 H63 H 0.68439 0.26829 -0.20269
 C64 C 0.19728 0.78874 0.27273
 C65 C 0.19910 0.77783 0.29011
 C66 C 0.21341 0.78275 0.30383
 C67 C 0.22605 0.79883 0.30004
 C68 C 0.22462 0.81016 0.28263
 C69 C 0.21002 0.80478 0.26908
 H70 H 0.18931 0.76545 0.29298
 H71 H 0.23734 0.80200 0.31059
 H72 H 0.20795 0.81332 0.25582
 C73 C 0.45227 0.44052 0.46426
 C74 C 0.46541 0.44248 0.44813
 C75 C 0.46298 0.45802 0.43457
 C76 C 0.44716 0.47168 0.43728
 C77 C 0.43385 0.46995 0.45331
 C78 C 0.43651 0.45429 0.46671
 H79 H 0.47762 0.43193 0.44618
 H80 H 0.44524 0.48374 0.42691
 H81 H 0.42633 0.45286 0.47912
 C82 C -0.04442 -0.06387 0.97032
 C83 C -0.03208 -0.06097 0.95380
 C84 C -0.03489 -0.04449 0.94150
 C85 C -0.05033 -0.03082 0.94586
 C86 C -0.06295 -0.03324 0.96248
 C87 C -0.05968 -0.04999 0.97458
 H88 H -0.02021 -0.07158 0.95052
 H89 H -0.05194 -0.01797 0.93645
 H90 H -0.06931 -0.05276 0.98715
 C91 C 1.03722 0.55126 0.96908
 C92 C 1.02364 0.54805 0.95409
 C93 C 1.02555 0.53138 0.94211
 C94 C 1.04131 0.51781 0.94527
 C95 C 1.05503 0.52070 0.96023
 C96 C 1.05282 0.53747 0.97206
 H97 H 1.01156 0.55860 0.95170
 H98 H 1.04291 0.50497 0.93604
 H99 H 1.06332 0.53983 0.98361
 C100 C 0.53836 0.05811 0.47359
 C101 C 0.52556 0.05663 0.45769
 C102 C 0.52661 0.04022 0.44537
 C103 C 0.54104 0.02532 0.44875
 C104 C 0.55445 0.02649 0.46436
 C105 C 0.55256 0.04293 0.47685
 H106 H 0.51497 0.06848 0.45459
 H107 H 0.54202 0.01313 0.43870
 H108 H 0.56147 0.04356 0.48980
 C109 C -0.03460 0.04678 0.52826
 C110 C -0.05031 0.03346 0.52595
 C111 C -0.05293 0.01706 0.53867
 C112 C -0.03920 0.01444 0.55393
 C113 C -0.02350 0.02771 0.55654
 C114 C -0.02133 0.04383 0.54365
 H115 H -0.06011 0.03577 0.51375
 H116 H -0.04121 0.00271 0.56463
 H117 H -0.00896 0.05383 0.54531
 C118 C 0.46166 0.55786 0.03372
 C119 C 0.44485 0.54606 0.03094
 C120 C 0.44091 0.52977 0.04324
 C121 C 0.45388 0.52552 0.05867
 C122 C 0.47099 0.53694 0.06157
 C123 C 0.47478 0.55301 0.04886
 H124 H 0.43479 0.54957 0.01916
 H125 H 0.45034 0.51349 0.06866
 H126 H 0.48820 0.56158 0.05045
 C127 C 0.53530 -0.05444 0.02428
 C128 C 0.55055 -0.04042 0.02112
 C129 C 0.55250 -0.02412 0.03344
 C130 C 0.53911 -0.02184 0.04929
 C131 C 0.52385 -0.03550 0.05287
 C132 C 0.52201 -0.05163 0.04034
 H133 H 0.56036 -0.04140 0.00841
 H134 H 0.54058 -0.00936 0.05890
 H135 H 0.51081 -0.06255 0.04393
 C136 C 1.04003 0.44326 0.52434
 C137 C 1.02644 0.44713 0.53969
 C138 C 1.02865 0.46367 0.55155
 C139 C 1.04471 0.47648 0.54791
 C140 C 1.05874 0.47298 0.53257
 C141 C 1.05605 0.45615 0.52090
 H142 H 1.01439 0.43693 0.54274
 H143 H 1.04642 0.48886 0.55756
 H144 H 1.06571 0.45346 0.50834
 C145 C 0.40946 0.01253 0.22672
 H146 H 0.41069 0.02560 0.23556
 C147 C 0.42270 0.00952 0.21100
 H148 H 0.43394 0.02051 0.20766
 C149 C 0.39317 -0.01757 0.22035
 H150 H 0.38186 -0.02825 0.22423
 C151 C 0.40606 -0.02114 0.20445
 H152 H 0.40453 -0.03460 0.19623
 N153 N 0.39496 -0.00084 0.23098
 C154 C 0.34718 0.03158 0.26148
 H155 H 0.34580 0.02289 0.27478
 C156 C 0.33422 0.04764 0.25827
 H157 H 0.32302 0.05140 0.26930
 C158 C 0.36345 0.03716 0.23093
 H159 H 0.37457 0.03282 0.22011
 C160 C 0.35088 0.05337 0.22716
 H161 H 0.35251 0.06134 0.21344
 Zn162 Zn 0.37806 0.00432 0.25287
 N163 N 0.36152 0.02675 0.24795
 C164 C 0.39343 0.02573 0.28473
 N165 N 0.39486 0.00878 0.27425
 C166 C 0.40910 -0.00521 0.27811
 C167 C 0.42248 -0.00258 0.29321
 C168 C 0.40650 0.02895 0.30000
 C169 C 0.34679 -0.02138 0.24497
 C170 C 0.33368 -0.03704 0.24821
 C171 C 0.35007 -0.04413 0.27864
 C172 C 0.36282 -0.02829 0.27485
 N173 N 0.36112 -0.01742 0.25813
 H174 H 0.38234 0.03690 0.28115
 H175 H 0.41006 -0.01843 0.26938
 H176 H 0.43355 -0.01402 0.29620
 H177 H 0.40529 0.04262 0.30805
 H178 H 0.34554 -0.01228 0.23195
 H179 H 0.32225 -0.03979 0.23764
 H180 H 0.35197 -0.05282 0.29185
 H181 H 0.37405 -0.02472 0.28532
 C182 C 0.33602 0.05879 0.24092
 C183 C 0.42106 -0.00748 0.19959
 C184 C 0.33525 -0.04872 0.26522
 C185 C 0.42130 0.01470 0.30438
 C186 C 0.09479 -0.00397 0.72575
 H187 H 0.09337 -0.01723 0.73465
 C188 C 0.08270 -0.00118 0.70955
 H189 H 0.07187 -0.01234 0.70615
 C190 C 0.11019 0.02695 0.71990
 H191 H 0.12076 0.03800 0.72410
 C192 C 0.09841 0.03034 0.70356
 H193 H 0.10036 0.04384 0.69513
 N194 N 0.10833 0.00992 0.73050
 C195 C 0.15413 -0.02149 0.76367
 H196 H 0.15396 -0.01282 0.77684
 C197 C 0.16759 -0.03736 0.76163
 H198 H 0.17754 -0.04098 0.77346
 C199 C 0.14119 -0.02728 0.73235
 H200 H 0.13114 -0.02309 0.72082
 C201 C 0.15442 -0.04324 0.72968
 H202 H 0.15439 -0.05116 0.71604
 Zn203 Zn 0.12375 0.00514 0.75299
 N204 N 0.14113 -0.01691 0.74924
 C205 C 0.10664 -0.01669 0.78477
 N206 N 0.10567 0.00040 0.77412
 C207 C 0.09134 0.01439 0.77790
 C208 C 0.07762 0.01177 0.79331
 C209 C 0.09321 -0.01992 0.80030
 C210 C 0.15490 0.03140 0.74507
 C211 C 0.16776 0.04709 0.74829
 C212 C 0.14982 0.05365 0.77852
 C213 C 0.13736 0.03778 0.77476
 N214 N 0.13996 0.02716 0.75815
 H215 H 0.11782 -0.02785 0.78129
 H216 H 0.09066 0.02767 0.76896
 H217 H 0.06630 0.02307 0.79604
 H218 H 0.09451 -0.03342 0.80887
 H219 H 0.15681 0.02254 0.73211
 H220 H 0.17940 0.05039 0.73759
 H221 H 0.14764 0.06182 0.79191
 H222 H 0.12577 0.03388 0.78525
 C223 C 0.16783 -0.04851 0.74446
 C224 C 0.08444 0.01615 0.69817
 C225 C 0.16527 0.05847 0.76520
 C226 C 0.07851 -0.00553 0.80482
 C227 C 0.60078 0.49038 0.22007
 H228 H 0.60088 0.47605 0.22726
 C229 C 0.58877 0.49371 0.20389
 H230 H 0.58013 0.48158 0.19849
 C231 C 0.61224 0.52336 0.21845
 H232 H 0.62107 0.53501 0.22443
 C233 C 0.60011 0.52747 0.20251
 H234 H 0.59979 0.54236 0.19656
 N235 N 0.61249 0.50501 0.22679
 C236 C 0.65798 0.47311 0.26035
 H237 H 0.65738 0.48159 0.27364
 C238 C 0.67140 0.45717 0.25856
 H239 H 0.68092 0.45330 0.27066
 C240 C 0.64623 0.46789 0.22847
 H241 H 0.63680 0.47237 0.21657
 C242 C 0.65935 0.45179 0.22609
 H243 H 0.65974 0.44398 0.21238
 Zn244 Zn 0.62788 0.49991 0.24925
 N245 N 0.64551 0.47796 0.24554
 C246 C 0.61027 0.47824 0.28112
 N247 N 0.60960 0.49514 0.27016
 C248 C 0.59535 0.50932 0.27352
 C249 C 0.58140 0.50711 0.28876
 C250 C 0.59659 0.47542 0.29656
 C251 C 0.65808 0.52721 0.24121
 C252 C 0.67032 0.54340 0.24435
 C253 C 0.65320 0.54851 0.27529
 C254 C 0.64134 0.53218 0.27160
 N255 N 0.64379 0.52206 0.25466
 H256 H 0.62141 0.46694 0.27798
 H257 H 0.59494 0.52246 0.26436
 H258 H 0.57015 0.51857 0.29112
 H259 H 0.59765 0.46208 0.30539
 H260 H 0.65983 0.51878 0.22795
 H261 H 0.68137 0.54749 0.23331
 H262 H 0.65111 0.55632 0.28890
 H263 H 0.63027 0.52757 0.28234
 C264 C 0.67208 0.44618 0.24130
 C265 C 0.58821 0.51251 0.19487
 C266 C 0.66788 0.55435 0.26154
 C267 C 0.58199 0.49005 0.30064
 C268 C 0.90993 0.51116 0.72340
 H269 H 0.91123 0.52359 0.73308
 C270 C 0.92359 0.50874 0.70792
 H271 H 0.93523 0.51955 0.70561
 C272 C 0.89303 0.48207 0.71468
 H273 H 0.88132 0.47152 0.71755
 C274 C 0.90634 0.47911 0.69898
 H275 H 0.90471 0.46624 0.68992
 N276 N 0.89492 0.49803 0.72638
 C277 C 0.84759 0.53015 0.75785
 H278 H 0.84551 0.52058 0.77047
 C279 C 0.83547 0.54700 0.75557
 H280 H 0.82423 0.55046 0.76665
 C281 C 0.86482 0.53720 0.72809
 H282 H 0.87599 0.53315 0.71721
 C283 C 0.85310 0.55421 0.72527
 H284 H 0.85542 0.56309 0.71219
 Zn285 Zn 0.87747 0.50227 0.74806
 N286 N 0.86203 0.52567 0.74429
 C287 C 0.89276 0.52073 0.78169
 N288 N 0.89369 0.50443 0.77025
 C289 C 0.90711 0.48954 0.77367
 C290 C 0.92018 0.49060 0.78925
 C291 C 0.90551 0.52237 0.79748
 C292 C 0.84567 0.47852 0.73716
 C293 C 0.83175 0.46334 0.73887
 C294 C 0.84626 0.45376 0.76962
 C295 C 0.85986 0.46916 0.76735
 N296 N 0.85947 0.48103 0.75120
 H297 H 0.88235 0.53263 0.77847
 H298 H 0.90772 0.47686 0.76417
 H299 H 0.93064 0.47851 0.79183
 H300 H 0.90475 0.53558 0.80626
 H301 H 0.84552 0.48834 0.72458
 H302 H 0.82107 0.46140 0.72739
 H303 H 0.84669 0.44458 0.78266
 H304 H 0.87060 0.47168 0.77859
 C305 C 0.83821 0.55931 0.73912
 C306 C 0.92186 0.49256 0.69543
 C307 C 0.83197 0.45068 0.75525
 C308 C 0.91951 0.50720 0.80138
 C309 C 0.22812 0.40138 0.00943
 H310 H 0.23707 0.40191 0.02239
 C311 C 0.21223 0.41476 0.00701
 H312 H 0.20885 0.42542 0.01832
 C313 C 0.22176 0.38684 -0.02108
 H314 H 0.22573 0.37618 -0.03216
 C315 C 0.20565 0.39985 -0.02403
 H316 H 0.19737 0.39907 -0.03741
 N317 N 0.23251 0.38771 -0.00447
 C318 C 0.26350 0.33846 0.02407
 H319 H 0.27687 0.33746 0.01494
 C320 C 0.26060 0.32498 0.03941
 H321 H 0.27177 0.31351 0.04190
 C322 C 0.23250 0.35438 0.03149
 H323 H 0.22152 0.36577 0.02829
 C324 C 0.22900 0.34122 0.04700
 H325 H 0.21547 0.34290 0.05580
 Zn326 Zn 0.25487 0.37075 -0.00041
 N327 N 0.24967 0.35295 0.02056
 C328 C 0.28733 0.38402 0.02196
 N329 N 0.27688 0.38691 0.00532
 C330 C 0.28138 0.40194 -0.00731
 C331 C 0.29720 0.41457 -0.00360
 C332 C 0.30331 0.39623 0.02620
 C333 C 0.24709 0.34150 -0.02771
 C334 C 0.25065 0.32948 -0.04388
 C335 C 0.28189 0.34630 -0.04978
 C336 C 0.27778 0.35794 -0.03345
 N337 N 0.26051 0.35549 -0.02290
 H338 H 0.28324 0.37234 0.03209
 H339 H 0.27264 0.40408 -0.02031
 H340 H 0.30074 0.42627 -0.01397
 H341 H 0.31137 0.39378 0.03958
 H342 H 0.23359 0.33970 -0.01893
 H343 H 0.23967 0.31859 -0.04761
 H344 H 0.29579 0.34835 -0.05790
 H345 H 0.28850 0.36879 -0.02916
 C346 C 0.24322 0.32633 0.05121
 C347 C 0.20074 0.41408 -0.00989
 C348 C 0.26824 0.33184 -0.05518
 C349 C 0.30845 0.41172 0.01331
 C350 C 0.72206 0.09948 -0.01345
 H351 H 0.73200 0.09941 -0.02610
 C352 C 0.70650 0.08594 -0.01197
 H353 H 0.70436 0.07563 -0.02370
 C354 C 0.71294 0.11294 0.01729
 H355 H 0.71574 0.12319 0.02885
 C356 C 0.69713 0.09972 0.01931
 H357 H 0.68790 0.09997 0.03248
 N358 N 0.72494 0.11267 0.00103
 C359 C 0.75754 0.16217 -0.02494
 H360 H 0.77005 0.16279 -0.01519
 C361 C 0.75591 0.17588 -0.04023
 H362 H 0.76717 0.18714 -0.04207
 C363 C 0.72746 0.14691 -0.03404
 H364 H 0.71635 0.13567 -0.03153
 C365 C 0.72523 0.16033 -0.04951
 H366 H 0.71254 0.15902 -0.05897
 Zn367 Zn 0.74722 0.12956 -0.00155
 N368 N 0.74360 0.14786 -0.02233
 C369 C 0.78186 0.11631 -0.02261
 N370 N 0.76998 0.11325 -0.00656
 C371 C 0.77330 0.09768 0.00575
 C372 C 0.78917 0.08447 0.00216
 C373 C 0.79796 0.10354 -0.02669
 C374 C 0.73618 0.15808 0.02599
 C375 C 0.73782 0.16957 0.04265
 C376 C 0.76893 0.15252 0.04968
 C377 C 0.76669 0.14137 0.03286
 N378 N 0.75040 0.14419 0.02152
 H379 H 0.77880 0.12852 -0.03244
 H380 H 0.76339 0.09538 0.01821
 H381 H 0.79126 0.07193 0.01192
 H382 H 0.80736 0.10640 -0.03942
 H383 H 0.72355 0.16024 0.01652
 H384 H 0.72643 0.18069 0.04582
 H385 H 0.78182 0.14981 0.05870
 H386 H 0.77801 0.13049 0.02890
 C387 C 0.73966 0.17497 -0.05287
 C388 C 0.69381 0.08594 0.00460
 C389 C 0.75435 0.16684 0.05479
 C390 C 0.80173 0.08726 -0.01430
 C391 C 0.21954 0.60479 0.49003
 H392 H 0.22907 0.60373 0.47712
 C393 C 0.20313 0.59235 0.49234
 H394 H 0.19992 0.58194 0.48097
 C395 C 0.21226 0.61967 0.52052
 H396 H 0.21608 0.63003 0.53168
 C397 C 0.19570 0.60754 0.52342
 H398 H 0.18696 0.60874 0.53683
 N399 N 0.22368 0.61823 0.50394
 C400 C 0.25852 0.66452 0.47492
 H401 H 0.27116 0.66499 0.48452
 C402 C 0.25736 0.67759 0.45906
 H403 H 0.26914 0.68824 0.45665
 C404 C 0.22754 0.65038 0.46687
 H405 H 0.21585 0.63989 0.47006
 C406 C 0.22580 0.66315 0.45083
 H407 H 0.21291 0.66204 0.44160
 Zn408 Zn 0.24671 0.63397 0.50022
 N409 N 0.24386 0.65109 0.47838
 C410 C 0.28050 0.61771 0.47992
 N411 N 0.26880 0.61651 0.49634
 C412 C 0.27200 0.60219 0.51007
 C413 C 0.28772 0.58854 0.50773
 C414 C 0.29638 0.60436 0.47699
 C415 C 0.23652 0.66435 0.52597
 C416 C 0.23831 0.67663 0.54205
 C417 C 0.26911 0.65946 0.54999
 C418 C 0.26673 0.64751 0.53374
 N419 N 0.25048 0.64997 0.52228
 H420 H 0.27749 0.62892 0.46898
 H421 H 0.26222 0.60133 0.52281
 H422 H 0.28988 0.57712 0.51872
 H423 H 0.30569 0.60575 0.46396
 H424 H 0.22393 0.66620 0.51641
 H425 H 0.22708 0.68804 0.54468
 H426 H 0.28192 0.65699 0.55918
 H427 H 0.27787 0.63627 0.53036
 C428 C 0.24088 0.67695 0.44668
 C429 C 0.19094 0.59365 0.50922
 C430 C 0.25472 0.67419 0.55439
 C431 C 0.30017 0.58952 0.49100
 C432 C 0.72379 0.90098 0.50867
 H433 H 0.73302 0.90097 0.52146
 C434 C 0.70786 0.91444 0.50711
 H435 H 0.70473 0.92455 0.51895
 C436 C 0.71680 0.88773 0.47772
 H437 H 0.72058 0.87757 0.46614
 C438 C 0.70071 0.90096 0.47555
 H439 H 0.69227 0.90083 0.46224
 N440 N 0.72788 0.88790 0.49416
 C441 C 0.76083 0.83934 0.52186
 H442 H 0.77405 0.83870 0.51251
 C443 C 0.75873 0.82602 0.53747
 H444 H 0.77053 0.81525 0.54019
 C445 C 0.72949 0.85437 0.52976
 H446 H 0.71797 0.86522 0.52655
 C447 C 0.72683 0.84142 0.54557
 H448 H 0.71324 0.84246 0.55440
 Zn449 Zn 0.75049 0.87106 0.49722
 N450 N 0.74644 0.85333 0.51848
 C451 C 0.78339 0.88561 0.51833
 N452 N 0.77251 0.88757 0.50184
 C453 C 0.77640 0.90215 0.48852
 C454 C 0.79202 0.91524 0.49131
 C455 C 0.79914 0.89841 0.52173
 C456 C 0.74144 0.84215 0.46988
 C457 C 0.74437 0.83029 0.45350
 C458 C 0.77584 0.84656 0.44712
 C459 C 0.77235 0.85803 0.46368
 N460 N 0.75525 0.85582 0.47455
 H461 H 0.77974 0.87429 0.52901
 H462 H 0.76732 0.90356 0.47567
 H463 H 0.79507 0.92652 0.48035
 H464 H 0.80745 0.89678 0.53507
 H465 H 0.72809 0.84052 0.47893
 H466 H 0.73309 0.81967 0.44986
 H467 H 0.78960 0.84844 0.43874
 H468 H 0.78343 0.86855 0.46788
 C469 C 0.74163 0.82709 0.54967
 C470 C 0.69610 0.91460 0.49035
 C471 C 0.76173 0.83249 0.44183
 C472 C 0.80364 0.91349 0.50812
 C473 C 0.00416 0.22257 0.41311
 H474 H 0.01680 0.23235 0.41382
 C475 C 0.00227 0.20691 0.42642
 H476 H 0.01369 0.20456 0.43723
 C477 C -0.02599 0.21377 0.39797
 H478 H -0.03709 0.21666 0.38702
 C479 C -0.02842 0.19786 0.41095
 H480 H -0.04146 0.18863 0.40988
 N481 N -0.00978 0.22562 0.39915
 C482 C 0.01989 0.25623 0.35061
 H483 H 0.01024 0.26912 0.34911
 C484 C 0.03604 0.25342 0.33764
 H485 H 0.03888 0.26435 0.32629
 C486 C 0.02791 0.22637 0.36733
 H487 H 0.02454 0.21569 0.37872
 C488 C 0.04426 0.22302 0.35475
 H489 H 0.05330 0.20972 0.35660
 Zn490 Zn -0.00606 0.24749 0.38207
 N491 N 0.01626 0.24289 0.36521
 C492 C 0.01473 0.28123 0.39497
 N493 N -0.00178 0.26990 0.39769
 C494 C -0.01546 0.27388 0.41212
 C495 C -0.01308 0.29012 0.42420
 C496 C 0.01770 0.29762 0.40673
 C497 C -0.03249 0.23821 0.35233
 C498 C -0.04842 0.24117 0.33966
 C499 C -0.05649 0.27174 0.35613
 C500 C -0.04033 0.26828 0.36836
 N501 N -0.02877 0.25168 0.36634
 H502 H 0.02563 0.27763 0.38369
 H503 H -0.02825 0.26440 0.41419
 H504 H -0.02408 0.29297 0.43567
 H505 H 0.03073 0.30668 0.40410
 H506 H -0.02285 0.22530 0.35081
 H507 H -0.05081 0.23048 0.32833
 H508 H -0.06564 0.28492 0.35822
 H509 H -0.03699 0.27900 0.37933
 C510 C 0.04853 0.23667 0.33970
 C511 C -0.01416 0.19426 0.42541
 C512 C -0.06065 0.25818 0.34142
 C513 C 0.00364 0.30230 0.42154
 C514 C -0.00096 0.71678 0.09256
 H515 H -0.01439 0.72577 0.09114
 C516 C 0.00219 0.70047 0.08055
 H517 H -0.00904 0.69683 0.07004
 C518 C 0.02987 0.71060 0.10817
 H519 H 0.04075 0.71475 0.11877
 C520 C 0.03359 0.69408 0.09651
 H521 H 0.04737 0.68567 0.09824
 N522 N 0.01270 0.72142 0.10616
 C523 C -0.01988 0.75307 0.15217
 H524 H -0.01143 0.76659 0.15264
 C525 C -0.03558 0.74988 0.16555
 H526 H -0.03905 0.76101 0.17637
 C527 C -0.02497 0.72180 0.13794
 H528 H -0.02065 0.71076 0.12736
 C529 C -0.04079 0.71803 0.15100
 H530 H -0.04872 0.70423 0.14998
 Zn531 Zn 0.00712 0.74396 0.12157
 N532 N -0.01497 0.73916 0.13864
 C533 C -0.01555 0.77639 0.10613
 N534 N 0.00150 0.76528 0.10431
 C535 C 0.01514 0.76888 0.08976
 C536 C 0.01220 0.78454 0.07665
 C537 C -0.01908 0.79225 0.09335
 C538 C 0.03438 0.73726 0.15168
 C539 C 0.05008 0.74158 0.16404
 C540 C 0.05488 0.77230 0.14631
 C541 C 0.03909 0.76741 0.13434
 N542 N 0.02927 0.75008 0.13712
 H543 H -0.02637 0.77311 0.11758
 H544 H 0.02842 0.75960 0.08847
 H545 H 0.02323 0.78710 0.06515
 H546 H -0.03250 0.80123 0.09534
 H547 H 0.02608 0.72375 0.15381
 H548 H 0.05370 0.73133 0.17574
 H549 H 0.06264 0.78606 0.14367
 H550 H 0.03460 0.77762 0.12296
 C551 C -0.04625 0.73213 0.16510
 C552 C 0.01962 0.68882 0.08249
 C553 C 0.06054 0.75935 0.16146
 C554 C -0.00503 0.79659 0.07844
 C555 C 0.49181 0.22714 0.59471
 H556 H 0.47785 0.23534 0.59622
 C557 C 0.49328 0.21130 0.58186
 H558 H 0.48012 0.20717 0.57401
 C559 C 0.52566 0.22261 0.60354
 H560 H 0.53835 0.22731 0.61175
 C561 C 0.52793 0.20693 0.59053
 H562 H 0.54249 0.19986 0.58889
 N563 N 0.50775 0.23224 0.60549
 C564 C 0.48043 0.26465 0.65424
 H565 H 0.48955 0.27776 0.65390
 C566 C 0.46547 0.26247 0.66860
 H567 H 0.46331 0.27394 0.67935
 C568 C 0.47286 0.23347 0.64105
 H569 H 0.47600 0.22199 0.63058
 C570 C 0.45765 0.23075 0.65504
 H571 H 0.44893 0.21739 0.65470
 Zn572 Zn 0.50465 0.25435 0.62205
 N573 N 0.48370 0.25036 0.64070
 C574 C 0.48220 0.28778 0.60827
 N575 N 0.49903 0.27645 0.60582
 C576 C 0.51236 0.28011 0.59103
 C577 C 0.50927 0.29597 0.57820
 C578 C 0.47851 0.30383 0.59574
 C579 C 0.53416 0.24425 0.64892
 C580 C 0.55084 0.24700 0.66049
 C581 C 0.55522 0.27916 0.64538
 C582 C 0.53842 0.27582 0.63414
 N583 N 0.52832 0.25855 0.63605
 H584 H 0.47158 0.28440 0.61987
 H585 H 0.52544 0.27063 0.58923
 H586 H 0.52000 0.29851 0.56642
 H587 H 0.46520 0.31288 0.59808
 H588 H 0.52571 0.23075 0.65030
 H589 H 0.55532 0.23541 0.67060
 H590 H 0.56283 0.29316 0.64393
 H591 H 0.53326 0.28723 0.62422
 C592 C 0.45375 0.24535 0.66909
 C593 C 0.51157 0.20095 0.57951
 C594 C 0.56156 0.26470 0.65886
 C595 C 0.49220 0.30814 0.58050
 C596 C 0.50268 0.72441 0.90904
 H597 H 0.51582 0.73341 0.91047
 C598 C 0.49990 0.70796 0.92124
 H599 H 0.51113 0.70424 0.93190
 C600 C 0.47225 0.71825 0.89314
 H601 H 0.46138 0.72243 0.88235
 C602 C 0.46890 0.70164 0.90501
 H603 H 0.45540 0.69323 0.90323
 N604 N 0.48908 0.72907 0.89516
 C605 C 0.52135 0.76032 0.84858
 H606 H 0.51240 0.77373 0.84740
 C607 C 0.53744 0.75707 0.83562
 H608 H 0.54072 0.76805 0.82443
 C609 C 0.52734 0.72936 0.86411
 H610 H 0.52322 0.71844 0.87502
 C611 C 0.54353 0.72552 0.85148
 H612 H 0.55194 0.71182 0.85316
 Zn613 Zn 0.49414 0.75147 0.87906
 N614 N 0.51672 0.74661 0.86257
 C615 C 0.51489 0.78481 0.89320
 N616 N 0.49856 0.77317 0.89557
 C617 C 0.48483 0.77654 0.91009
 C618 C 0.48697 0.79242 0.92268
 C619 C 0.51755 0.80096 0.90537
 C620 C 0.46806 0.74391 0.84860
 C621 C 0.45235 0.74758 0.83586
 C622 C 0.44533 0.77826 0.85255
 C623 C 0.46119 0.77402 0.86495
 N624 N 0.47209 0.75699 0.86287
 H625 H 0.52581 0.78175 0.88178
 H626 H 0.47213 0.76688 0.91182
 H627 H 0.47593 0.79468 0.93424
 H628 H 0.53035 0.81036 0.90287
 H629 H 0.47720 0.73065 0.84706
 H630 H 0.44958 0.73710 0.82444
 H631 H 0.43666 0.79176 0.85464
 H632 H 0.46480 0.78440 0.87615
 C633 C 0.54876 0.73945 0.83697
 C634 C 0.48289 0.69624 0.91921
 C635 C 0.44074 0.76497 0.83774
 C636 C 0.50342 0.80502 0.92031
 C637 C 0.14601 0.21882 0.22425
 C638 C 0.12977 0.22270 0.23687
 C639 C 0.13193 0.22103 0.25708
 C640 C 0.15064 0.21552 0.26461
 C641 C 0.16690 0.21170 0.25201
 C642 C 0.16476 0.21324 0.23168
 N643 N 0.11493 0.22490 0.26960
 N644 N 0.11572 0.22283 0.28804
 C645 C 0.09877 0.22662 0.30064
 C646 C 0.10056 0.22308 0.32067
 C647 C 0.08427 0.22637 0.33337
 C648 C 0.06587 0.23337 0.32621
 C649 C 0.06416 0.23707 0.30608
 C650 C 0.08045 0.23368 0.29338
 H651 H 0.14381 0.21990 0.20867
 H652 H 0.11542 0.22688 0.23089
 H653 H 0.15272 0.21423 0.28019
 H654 H 0.18122 0.20774 0.25820
 H655 H 0.11462 0.21770 0.32644
 H656 H 0.08612 0.22363 0.34883
 H657 H 0.05012 0.24227 0.30012
 H658 H 0.07870 0.23652 0.27793
 C659 C 0.67185 0.74282 0.74596
 C660 C 0.65570 0.74686 0.75865
 C661 C 0.64327 0.73162 0.76529
 C662 C 0.64720 0.71215 0.75915
 C663 C 0.66337 0.70808 0.74652
 C664 C 0.67585 0.72337 0.73976
 N665 N 0.62683 0.73628 0.77825
 N666 N 0.61464 0.72318 0.78434
 C667 C 0.59822 0.72770 0.79736
 C668 C 0.58522 0.71256 0.80301
 C669 C 0.56912 0.71637 0.81580
 C670 C 0.56577 0.73548 0.82321
 C671 C 0.57884 0.75070 0.81744
 C672 C 0.59493 0.74685 0.80463
 H673 H 0.68134 0.75486 0.74117
 H674 H 0.65287 0.76190 0.76332
 H675 H 0.63778 0.70011 0.76407
 H676 H 0.66595 0.69300 0.74182
 H677 H 0.58756 0.69775 0.79745
 H678 H 0.55916 0.70440 0.81970
 H679 H 0.57681 0.76550 0.82308
 H680 H 0.60483 0.75880 0.80051
 C681 C 0.32294 0.76254 0.74504
 C682 C 0.33825 0.75854 0.75817
 C683 C 0.34965 0.77392 0.76542
 C684 C 0.34545 0.79350 0.75950
 C685 C 0.33008 0.79754 0.74643
 C686 C 0.31872 0.78208 0.73899
 N687 N 0.36540 0.76924 0.77865
 N688 N 0.37682 0.78240 0.78524
 C689 C 0.39260 0.77769 0.79842
 C690 C 0.40499 0.79283 0.80453
 C691 C 0.42062 0.78873 0.81728
 C692 C 0.42409 0.76934 0.82421
 C693 C 0.41156 0.75415 0.81808
 C694 C 0.39596 0.75827 0.80529
 H695 H 0.31427 0.75037 0.73976
 H696 H 0.34130 0.74341 0.76268
 H697 H 0.35407 0.80565 0.76490
 H698 H 0.32728 0.81271 0.74188
 H699 H 0.40259 0.80783 0.79928
 H700 H 0.43016 0.80071 0.82148
 H701 H 0.41366 0.73912 0.82336
 H702 H 0.38653 0.74631 0.80084
 C703 C -0.17418 0.25315 0.24370
 C704 C -0.15893 0.24928 0.25694
 C705 C -0.15043 0.26465 0.26722
 C706 C -0.15758 0.28406 0.26437
 C707 C -0.17299 0.28799 0.25132
 C708 C -0.18156 0.27263 0.24056
 N709 N -0.13454 0.26018 0.28038
 N710 N -0.12479 0.27371 0.28858
 C711 C -0.10893 0.26940 0.30179
 C712 C -0.09753 0.28500 0.30854
 C713 C -0.08183 0.28137 0.32132
 C714 C -0.07737 0.26199 0.32779
 C715 C -0.08897 0.24634 0.32104
 C716 C -0.10457 0.24999 0.30812
 H717 H -0.18061 0.24061 0.23658
 H718 H -0.15367 0.23420 0.25916
 H719 H -0.15119 0.29624 0.27213
 H720 H -0.17742 0.30330 0.24914
 H721 H -0.10070 0.30001 0.30371
 H722 H -0.07301 0.29373 0.32589
 H723 H -0.08616 0.23128 0.32594
 H724 H -0.11328 0.23769 0.30318
 C725 C -0.16757 0.73508 0.25867
 C726 C -0.15158 0.73934 0.24591
 C727 C -0.13901 0.72415 0.23894
 C728 C -0.14261 0.70453 0.24491
 C729 C -0.15863 0.70024 0.25760
 C730 C -0.17131 0.71547 0.26460
 N731 N -0.12286 0.72897 0.22573
 N732 N -0.11051 0.71589 0.21950
 C733 C -0.09446 0.72044 0.20612
 C734 C -0.08109 0.70533 0.20060
 C735 C -0.06538 0.70913 0.18739
 C736 C -0.06282 0.72819 0.17936
 C737 C -0.07625 0.74340 0.18500
 C738 C -0.09193 0.73957 0.19827
 H739 H -0.17720 0.74708 0.26367
 H740 H -0.14900 0.75451 0.24137
 H741 H -0.13309 0.69252 0.23976
 H742 H -0.16100 0.68503 0.26210
 H743 H -0.08284 0.69054 0.20659
 H744 H -0.05513 0.69716 0.18362
 H745 H -0.07484 0.75818 0.17891
 H746 H -0.10214 0.75150 0.20227
 C747 C 0.34414 0.19318 0.76056
 C748 C 0.36038 0.19636 0.74783
 C749 C 0.36764 0.21539 0.74458
 C750 C 0.35869 0.23134 0.75453
 C751 C 0.34259 0.22822 0.76750
 C752 C 0.33480 0.20906 0.77065
 N753 N 0.38399 0.21805 0.73102
 N754 N 0.38993 0.23507 0.72552
 C755 C 0.40627 0.23742 0.71187
 C756 C 0.41035 0.25625 0.70425
 C757 C 0.42579 0.25889 0.69043
 C758 C 0.43760 0.24269 0.68412
 C759 C 0.43367 0.22384 0.69213
 C760 C 0.41812 0.22120 0.70579
 H761 H 0.33951 0.17805 0.76293
 H762 H 0.36731 0.18390 0.74039
 H763 H 0.36405 0.24624 0.75220
 H764 H 0.33577 0.24108 0.77429
 H765 H 0.40130 0.26886 0.70879
 H766 H 0.42820 0.27356 0.68441
 H767 H 0.44271 0.21110 0.68795
 H768 H 0.41539 0.20651 0.71161
 C769 C 0.65775 0.28006 0.77108
 C770 C 0.64207 0.27634 0.75853
 C771 C 0.64383 0.28090 0.73869
 C772 C 0.66153 0.28941 0.73142
 C773 C 0.67730 0.29319 0.74392
 C774 C 0.67583 0.28848 0.76407
 N775 N 0.62744 0.27666 0.72632
 N776 N 0.62778 0.28054 0.70811
 C777 C 0.61122 0.27616 0.69598
 C778 C 0.61215 0.28148 0.67621
 C779 C 0.59610 0.27766 0.66407
 C780 C 0.57884 0.26834 0.67156
 C781 C 0.57804 0.26286 0.69141
 C782 C 0.59405 0.26675 0.70352
 H783 H 0.65517 0.27693 0.78642
 H784 H 0.62838 0.26997 0.76435
 H785 H 0.66328 0.29296 0.71604
 H786 H 0.69089 0.29900 0.73740
 H787 H 0.62531 0.28868 0.67020
 H788 H 0.59724 0.28186 0.64881
 H789 H 0.56485 0.25592 0.69766
 H790 H 0.59295 0.26251 0.71877
 C791 C 0.17881 0.76364 0.25363
 C792 C 0.16386 0.75864 0.24065
 C793 C 0.15160 0.77334 0.23246
 C794 C 0.15461 0.79325 0.23719
 C795 C 0.16962 0.79828 0.25009
 C796 C 0.18180 0.78351 0.25853
 N797 N 0.13611 0.76766 0.21959
 N798 N 0.12376 0.78018 0.21251
 C799 C 0.10818 0.77458 0.19971
 C800 C 0.09469 0.78909 0.19320
 C801 C 0.07921 0.78416 0.18082
 C802 C 0.07700 0.76454 0.17466
 C803 C 0.09061 0.74998 0.18122
 C804 C 0.10607 0.75494 0.19365
 H805 H 0.18811 0.75198 0.25976
 H806 H 0.16173 0.74326 0.23708
 H807 H 0.14531 0.80489 0.23104
 H808 H 0.17145 0.81368 0.25377
 H809 H 0.09612 0.80426 0.19784
 H810 H 0.06881 0.79567 0.17630
 H811 H 0.08948 0.73479 0.17655
 H812 H 0.11636 0.74345 0.19846
 C813 C 0.21791 0.15401 0.22094
 C814 C 0.23093 0.13824 0.22518
 C815 C 0.25160 0.14023 0.22242
 C816 C 0.25920 0.15827 0.21531
 C817 C 0.24620 0.17408 0.21110
 C818 C 0.22540 0.17214 0.21390
 N819 N 0.26449 0.12376 0.22696
 N820 N 0.28338 0.12436 0.22427
 C821 C 0.29625 0.10789 0.22883
 C822 C 0.31674 0.10925 0.22452
 C823 C 0.32969 0.09336 0.22852
 C824 C 0.32233 0.07581 0.23703
 C825 C 0.30175 0.07455 0.24152
 C826 C 0.28881 0.09043 0.23743
 H827 H 0.20197 0.15194 0.22298
 H828 H 0.22489 0.12439 0.23058
 H829 H 0.27515 0.16019 0.21311
 H830 H 0.25246 0.18792 0.20594
 H831 H 0.32267 0.12265 0.21796
 H832 H 0.34549 0.09485 0.22511
 H833 H 0.29562 0.06115 0.24788
 H834 H 0.27301 0.08902 0.24090
 C835 C 0.72573 0.66224 0.72575
 C836 C 0.73781 0.64551 0.72895
 C837 C 0.75858 0.64646 0.72621
 C838 C 0.76721 0.66443 0.72022
 C839 C 0.75515 0.68119 0.71704
 C840 C 0.73425 0.68028 0.71977
 N841 N 0.77049 0.62902 0.72960
 N842 N 0.78940 0.62871 0.72691
 C843 C 0.80129 0.61125 0.73029
 C844 C 0.82189 0.61179 0.72626
 C845 C 0.83390 0.59496 0.72918
 C846 C 0.82549 0.57726 0.73628
 C847 C 0.80480 0.57681 0.74046
 C848 C 0.79279 0.59363 0.73746
 H849 H 0.70967 0.66098 0.72773
 H850 H 0.73098 0.63174 0.73351
 H851 H 0.78325 0.66556 0.71807
 H852 H 0.76220 0.69492 0.71270
 H853 H 0.82862 0.62529 0.72080
 H854 H 0.84982 0.59584 0.72606
 H855 H 0.79786 0.56333 0.74573
 H856 H 0.77689 0.59284 0.74067
 C857 C 0.75731 0.32258 0.78419
 C858 C 0.77114 0.33758 0.78066
 C859 C 0.76480 0.35620 0.77392
 C860 C 0.74435 0.35964 0.77053
 C861 C 0.73048 0.34465 0.77407
 C862 C 0.73680 0.32597 0.78104
 N863 N 0.77935 0.37136 0.77098
 N864 N 0.77474 0.38860 0.76472
 C865 C 0.78936 0.40376 0.76214
 C866 C 0.78335 0.42228 0.75484
 C867 C 0.79718 0.43750 0.75246
 C868 C 0.81732 0.43444 0.75745
 C869 C 0.82333 0.41578 0.76471
 C870 C 0.80950 0.40057 0.76701
 H871 H 0.76267 0.30828 0.78931
 H872 H 0.78686 0.33473 0.78328
 H873 H 0.73907 0.37395 0.76538
 H874 H 0.71477 0.34779 0.77175
 H875 H 0.76787 0.42495 0.75109
 H876 H 0.79204 0.45177 0.74706
 H877 H 0.83878 0.41290 0.76844
 H878 H 0.81453 0.38637 0.77266
 C879 C 0.24242 -0.16746 0.25959
 C880 C 0.25506 -0.15147 0.25597
 C881 C 0.26296 -0.14096 0.27138
 C882 C 0.25816 -0.14669 0.29061
 C883 C 0.24565 -0.16276 0.29433
 C884 C 0.23744 -0.17352 0.27888
 N885 N 0.27585 -0.12464 0.26711
 N886 N 0.28260 -0.11377 0.28044
 C887 C 0.29563 -0.09755 0.27623
 C888 C 0.30147 -0.08554 0.29153
 C889 C 0.31423 -0.06964 0.28798
 C890 C 0.32150 -0.06552 0.26898
 C891 C 0.31559 -0.07764 0.25363
 C892 C 0.30275 -0.09349 0.25720
 H893 H 0.23735 -0.17547 0.24709
 H894 H 0.25881 -0.14730 0.24105
 H895 H 0.26399 -0.13871 0.30281
 H896 H 0.24186 -0.16606 0.30941
 H897 H 0.29603 -0.08848 0.30625
 H898 H 0.31822 -0.06044 0.30008
 H899 H 0.32114 -0.07507 0.23888
 H900 H 0.29853 -0.10263 0.24513
 C901 C 0.24035 -0.17787 0.71022
 C902 C 0.22704 -0.16201 0.71311
 C903 C 0.23279 -0.14541 0.72342
 C904 C 0.25211 -0.14485 0.73102
 C905 C 0.26548 -0.16072 0.72826
 C906 C 0.25994 -0.17759 0.71770
 N907 N 0.21876 -0.12937 0.72589
 N908 N 0.22317 -0.11354 0.73460
 C909 C 0.20907 -0.09754 0.73698
 C910 C 0.21512 -0.08030 0.74615
 C911 C 0.20177 -0.06437 0.74860
 C912 C 0.18204 -0.06544 0.74192
 C913 C 0.17599 -0.08283 0.73276
 C914 C 0.18938 -0.09873 0.73030
 H915 H 0.23480 -0.19061 0.70274
 H916 H 0.21209 -0.16269 0.70734
 H917 H 0.25696 -0.13208 0.73896
 H918 H 0.28042 -0.15917 0.73377
 H919 H 0.23027 -0.07918 0.75131
 H920 H 0.20698 -0.05110 0.75546
 H921 H 0.16083 -0.08425 0.72771
 H922 H 0.18431 -0.11194 0.72323
 C923 C 0.74045 0.31290 0.21461
 C924 C 0.72749 0.32912 0.21711
 C925 C 0.73465 0.34711 0.22380
 C926 C 0.75506 0.34876 0.22800
 C927 C 0.76807 0.33256 0.22544
 C928 C 0.76093 0.31444 0.21870
 N929 N 0.72092 0.36344 0.22605
 N930 N 0.72616 0.37997 0.23290
 C931 C 0.71238 0.39629 0.23493
 C932 C 0.71880 0.41367 0.24360
 C933 C 0.70573 0.42988 0.24576
 C934 C 0.68598 0.42898 0.23913
 C935 C 0.67958 0.41151 0.23039
 C936 C 0.69263 0.39529 0.22835
 H937 H 0.73441 0.29909 0.20968
 H938 H 0.71178 0.32766 0.21387
 H939 H 0.76097 0.36255 0.23310
 H940 H 0.78379 0.33432 0.22846
 H941 H 0.73400 0.41465 0.24868
 H942 H 0.71116 0.44321 0.25234
 H943 H 0.66439 0.41030 0.22536
 H944 H 0.68729 0.38201 0.22160
 C945 C 0.77944 0.65456 0.27681
 C946 C 0.76756 0.63818 0.27330
 C947 C 0.74680 0.63929 0.27622
 C948 C 0.73795 0.65711 0.28264
 C949 C 0.74980 0.67353 0.28610
 C950 C 0.77070 0.67244 0.28326
 N951 N 0.73509 0.62218 0.27256
 N952 N 0.71625 0.62196 0.27567
 C953 C 0.70450 0.60489 0.27198
 C954 C 0.68400 0.60548 0.27654
 C955 C 0.67210 0.58907 0.27319
 C956 C 0.68054 0.57176 0.26512
 C957 C 0.70114 0.57123 0.26048
 C958 C 0.71304 0.58763 0.26392
 H959 H 0.79551 0.65316 0.27473
 H960 H 0.77455 0.62451 0.26839
 H961 H 0.72191 0.65838 0.28491
 H962 H 0.74258 0.68717 0.29077
 H963 H 0.67724 0.61872 0.28270
 H964 H 0.65624 0.59002 0.27669
 H965 H 0.70809 0.55802 0.25445
 H966 H 0.72887 0.58680 0.26029
 C967 C 0.28253 0.15136 0.78343
 C968 C 0.26968 0.13573 0.77985
 C969 C 0.24895 0.13826 0.78209
 C970 C 0.24113 0.15670 0.78799
 C971 C 0.25396 0.17237 0.79154
 C972 C 0.27482 0.16988 0.78929
 N973 N 0.23623 0.12194 0.77820
 N974 N 0.21731 0.12303 0.78054
 C975 C 0.20461 0.10672 0.77655
 C976 C 0.18402 0.10867 0.78026
 C977 C 0.17121 0.09302 0.77660
 C978 C 0.17883 0.07513 0.76903
 C979 C 0.19953 0.07324 0.76523
 C980 C 0.21232 0.08887 0.76898
 H981 H 0.29853 0.14889 0.78182
 H982 H 0.27589 0.12157 0.77535
 H983 H 0.22514 0.15905 0.78975
 H984 H 0.24754 0.18652 0.79576
 H985 H 0.17789 0.12237 0.78603
 H986 H 0.15532 0.09499 0.77946
 H987 H 0.20587 0.05955 0.75962
 H988 H 0.22820 0.08699 0.76600
 C989 C 0.18900 0.23594 0.15986
 C990 C 0.19221 0.24811 0.14351
 C991 C 0.21152 0.25429 0.13838
 C992 C 0.22775 0.24801 0.14976
 C993 C 0.22457 0.23578 0.16609
 C994 C 0.20515 0.22968 0.17136
 N995 N 0.21420 0.26704 0.12172
 N996 N 0.23126 0.27367 0.11658
 C997 C 0.23391 0.28654 0.10000
 C998 C 0.25301 0.29377 0.09561
 C999 C 0.25607 0.30661 0.07974
 C1000 C 0.24001 0.31243 0.06790
 C1001 C 0.22084 0.30502 0.07228
 C1002 C 0.21780 0.29220 0.08819
 H1003 H 0.17391 0.23128 0.16342
 H1004 H 0.17960 0.25281 0.13483
 H1005 H 0.24283 0.25261 0.14610
 H1006 H 0.23727 0.23138 0.17479
 H1007 H 0.26552 0.28956 0.10464
 H1008 H 0.27095 0.31225 0.07694
 H1009 H 0.20822 0.30899 0.06330
 H1010 H 0.20290 0.28675 0.09124
 C1011 C 0.71501 0.76172 0.68234
 C1012 C 0.71826 0.77432 0.66632
 C1013 C 0.72365 0.76660 0.64809
 C1014 C 0.72588 0.74602 0.64602
 C1015 C 0.72256 0.73339 0.66202
 C1016 C 0.71702 0.74109 0.68036
 N1017 N 0.72646 0.77997 0.63193
 N1018 N 0.73213 0.77414 0.61510
 C1019 C 0.73458 0.78764 0.59899
 C1020 C 0.74194 0.78049 0.58112
 C1021 C 0.74434 0.79328 0.56509
 C1022 C 0.73926 0.81347 0.56666
 C1023 C 0.73186 0.82060 0.58463
 C1024 C 0.72958 0.80783 0.60066
 H1025 H 0.71105 0.76815 0.69631
 H1026 H 0.71655 0.79015 0.66810
 H1027 H 0.72995 0.73971 0.63204
 H1028 H 0.72397 0.71757 0.65995
 H1029 H 0.74578 0.76496 0.57963
 H1030 H 0.74988 0.78734 0.55138
 H1031 H 0.72806 0.83612 0.58634
 H1032 H 0.72386 0.81373 0.61432
 C1033 C 0.78123 0.72225 0.34230
 C1034 C 0.77718 0.73403 0.35856
 C1035 C 0.77883 0.75461 0.35721
 C1036 C 0.78455 0.76337 0.33930
 C1037 C 0.78854 0.75161 0.32300
 C1038 C 0.78695 0.73090 0.32431
 N1039 N 0.77466 0.76621 0.37421
 N1040 N 0.77680 0.78489 0.37425
 C1041 C 0.77265 0.79650 0.39124
 C1042 C 0.77661 0.81677 0.39057
 C1043 C 0.77302 0.82848 0.40696
 C1044 C 0.76525 0.82010 0.42434
 C1045 C 0.76109 0.79976 0.42492
 C1046 C 0.76480 0.78804 0.40854
 H1047 H 0.78016 0.70634 0.34389
 H1048 H 0.77285 0.72711 0.37230
 H1049 H 0.78585 0.77927 0.33787
 H1050 H 0.79264 0.75875 0.30930
 H1051 H 0.78259 0.82347 0.37730
 H1052 H 0.77615 0.84414 0.40601
 H1053 H 0.75530 0.79286 0.43816
 H1054 H 0.76161 0.77239 0.40942
 C1055 C 0.28785 0.21991 -0.15265
 C1056 C 0.28414 0.23208 -0.13662
 C1057 C 0.28647 0.25256 -0.13830
 C1058 C 0.29262 0.26082 -0.15631
 C1059 C 0.29629 0.24866 -0.17240
 C1060 C 0.29390 0.22806 -0.17076
 N1061 N 0.28237 0.26455 -0.12156
 N1062 N 0.28481 0.28319 -0.12177
 C1063 C 0.28054 0.29506 -0.10497
 C1064 C 0.28449 0.31533 -0.10587
 C1065 C 0.28053 0.32730 -0.08971
 C1066 C 0.27241 0.31917 -0.07236
 C1067 C 0.26839 0.29881 -0.07153
 C1068 C 0.27245 0.28684 -0.08766
 H1069 H 0.28619 0.20408 -0.15081
 H1070 H 0.27947 0.22553 -0.12280
 H1071 H 0.29446 0.27664 -0.15799
 H1072 H 0.30071 0.25541 -0.18620
 H1073 H 0.29066 0.32185 -0.11914
 H1074 H 0.28357 0.34297 -0.09086
 H1075 H 0.26237 0.29208 -0.05830
 H1076 H 0.26927 0.27120 -0.08659
 C1077 C 0.69496 0.26666 -0.16369
 C1078 C 0.69681 0.25476 -0.14700
 C1079 C 0.71558 0.24751 -0.14143
 C1080 C 0.73264 0.25243 -0.15269
 C1081 C 0.73082 0.26435 -0.16939
 C1082 C 0.71194 0.27152 -0.17512
 N1083 N 0.71685 0.23498 -0.12449
 N1084 N 0.73340 0.22767 -0.11875
 C1085 C 0.73463 0.21492 -0.10197
 C1086 C 0.75331 0.20716 -0.09674
 C1087 C 0.75499 0.19432 -0.08071
 C1088 C 0.73792 0.18901 -0.06960
 C1089 C 0.71918 0.19696 -0.07481
 C1090 C 0.71753 0.20980 -0.09085
 H1091 H 0.68026 0.27217 -0.16760
 H1092 H 0.68357 0.25111 -0.13841
 H1093 H 0.74732 0.24696 -0.14871
 H1094 H 0.74413 0.26766 -0.17801
 H1095 H 0.76657 0.21094 -0.10523
 H1096 H 0.76959 0.18825 -0.07724
 H1097 H 0.70581 0.19336 -0.06640
 H1098 H 0.70292 0.21566 -0.09457
 C1099 C 0.19798 0.76545 0.33284
 C1100 C 0.19960 0.75390 0.34979
 C1101 C 0.21838 0.74754 0.35623
 C1102 C 0.23567 0.75309 0.34564
 C1103 C 0.23409 0.76473 0.32872
 C1104 C 0.21521 0.77092 0.32209
 N1105 N 0.21941 0.73528 0.37337
 N1106 N 0.23588 0.72812 0.37950
 C1107 C 0.23681 0.71570 0.39654
 C1108 C 0.25528 0.70752 0.40187
 C1109 C 0.25665 0.69501 0.41818
 C1110 C 0.23949 0.69050 0.42952
 C1111 C 0.22097 0.69889 0.42420
 C1112 C 0.21962 0.71136 0.40785
 H1113 H 0.18327 0.77020 0.32818
 H1114 H 0.18617 0.74976 0.35786
 H1115 H 0.25037 0.74834 0.35033
 H1116 H 0.24758 0.76856 0.32062
 H1117 H 0.26862 0.71070 0.39324
 H1118 H 0.27108 0.68858 0.42171
 H1119 H 0.20753 0.69598 0.43278
 H1120 H 0.20517 0.71758 0.40407
 C1121 C 0.30047 0.75938 0.66692
 C1122 C 0.29865 0.74754 0.65048
 C1123 C 0.27981 0.74135 0.64466
 C1124 C 0.26268 0.74717 0.65549
 C1125 C 0.26447 0.75905 0.67189
 C1126 C 0.28339 0.76528 0.67779
 N1127 N 0.27849 0.72924 0.62774
 N1128 N 0.26186 0.72284 0.62187
 C1129 C 0.26048 0.71076 0.60494
 C1130 C 0.24172 0.70389 0.59967
 C1131 C 0.23983 0.69203 0.58326
 C1132 C 0.25674 0.68686 0.57178
 C1133 C 0.27559 0.69383 0.57711
 C1134 C 0.27746 0.70567 0.59354
 H1135 H 0.31521 0.76415 0.67096
 H1136 H 0.31195 0.74319 0.64223
 H1137 H 0.24794 0.74255 0.65129
 H1138 H 0.25108 0.76319 0.68011
 H1139 H 0.22854 0.70767 0.60837
 H1140 H 0.22515 0.68668 0.57972
 H1141 H 0.28886 0.69033 0.56843
 H1142 H 0.29213 0.71087 0.59728
 C1143 C 0.80062 0.24969 0.16878
 C1144 C 0.79868 0.23794 0.15231
 C1145 C 0.77977 0.23209 0.14636
 C1146 C 0.76268 0.23816 0.15712
 C1147 C 0.76459 0.24998 0.17357
 C1148 C 0.78358 0.25586 0.17958
 N1149 N 0.77835 0.22014 0.12934
 N1150 N 0.76168 0.21387 0.12341
 C1151 C 0.76026 0.20205 0.10629
 C1152 C 0.74151 0.19517 0.10100
 C1153 C 0.73957 0.18369 0.08433
 C1154 C 0.75643 0.17893 0.07260
 C1155 C 0.77526 0.18588 0.07797
 C1156 C 0.77718 0.19732 0.09467
 H1157 H 0.81542 0.25422 0.17290
 H1158 H 0.81195 0.23341 0.14410
 H1159 H 0.74789 0.23382 0.15282
 H1160 H 0.75123 0.25436 0.18171
 H1161 H 0.72837 0.19867 0.10987
 H1162 H 0.72490 0.17835 0.08076
 H1163 H 0.78849 0.18273 0.06911
 H1164 H 0.79184 0.20255 0.09841
 C1165 C 0.43865 0.41355 0.48603
 C1166 C 0.44140 0.39822 0.49963
 C1167 C 0.46058 0.39333 0.50614
 C1168 C 0.47710 0.40396 0.49885
 C1169 C 0.47438 0.41924 0.48522
 C1170 C 0.45513 0.42421 0.47867
 N1171 N 0.46290 0.37750 0.52002
 N1172 N 0.47990 0.37270 0.52683
 C1173 C 0.48245 0.35677 0.54055
 C1174 C 0.50161 0.35257 0.54744
 C1175 C 0.50476 0.33691 0.56054
 C1176 C 0.48871 0.32510 0.56698
 C1177 C 0.46940 0.32948 0.56016
 C1178 C 0.46628 0.34517 0.54704
 H1179 H 0.42368 0.41691 0.48109
 H1180 H 0.42857 0.39010 0.50509
 H1181 H 0.49208 0.40048 0.50368
 H1182 H 0.48732 0.42736 0.47999
 H1183 H 0.51417 0.36145 0.54259
 H1184 H 0.51975 0.33412 0.56574
 H1185 H 0.45678 0.32052 0.56466
 H1186 H 0.45132 0.34811 0.54187
 C1187 C -0.05788 0.90757 -0.00999
 C1188 C -0.05504 0.89112 0.00224
 C1189 C -0.03578 0.88542 0.00790
 C1190 C -0.01925 0.89632 0.00105
 C1191 C -0.02206 0.91272 -0.01125
 C1192 C -0.04141 0.91857 -0.01683
 N1193 N -0.03343 0.86862 0.02062
 N1194 N -0.01640 0.86312 0.02687
 C1195 C -0.01397 0.84636 0.03962
 C1196 C 0.00513 0.84169 0.04644
 C1197 C 0.00804 0.82555 0.05902
 C1198 C -0.00816 0.81369 0.06498
 C1199 C -0.02735 0.81840 0.05804
 C1200 C -0.03024 0.83460 0.04548
 H1201 H -0.07293 0.91157 -0.01426
 H1202 H -0.06788 0.88280 0.00737
 H1203 H -0.00420 0.89221 0.00522
 H1204 H -0.00913 0.92104 -0.01615
 H1205 H 0.01777 0.85069 0.04208
 H1206 H 0.02295 0.82252 0.06433
 H1207 H -0.04008 0.80942 0.06213
 H1208 H -0.04516 0.83787 0.04034
 C1209 C 0.02998 0.58755 -0.02670
 C1210 C 0.02788 0.60426 -0.01499
 C1211 C 0.03098 0.60287 0.00510
 C1212 C 0.03624 0.58447 0.01343
 C1213 C 0.03827 0.56771 0.00174
 C1214 C 0.03514 0.56906 -0.01847
 N1215 N 0.02849 0.62027 0.01667
 N1216 N 0.03184 0.62030 0.03488
 C1217 C 0.02905 0.63770 0.04640
 C1218 C 0.03370 0.63689 0.06621
 C1219 C 0.03084 0.65353 0.07792
 C1220 C 0.02314 0.67128 0.06999
 C1221 C 0.01858 0.67208 0.05005
 C1222 C 0.02153 0.65546 0.03835
 H1223 H 0.02777 0.58915 -0.04225
 H1224 H 0.02387 0.61837 -0.02158
 H1225 H 0.03861 0.58300 0.02896
 H1226 H 0.04199 0.55365 0.00857
 H1227 H 0.03945 0.62329 0.07259
 H1228 H 0.03428 0.65241 0.09327
 H1229 H 0.01287 0.68561 0.04348
 H1230 H 0.01785 0.65648 0.02306
 C1231 C 0.55410 0.08290 0.49558
 C1232 C 0.55268 0.09888 0.50831
 C1233 C 0.53418 0.10806 0.51222
 C1234 C 0.51694 0.10088 0.50347
 C1235 C 0.51826 0.08462 0.49107
 C1236 C 0.53688 0.07543 0.48687
 N1237 N 0.53322 0.12441 0.52532
 N1238 N 0.51839 0.13643 0.52574
 C1239 C 0.51712 0.15245 0.53921
 C1240 C 0.50390 0.16820 0.53553
 C1241 C 0.50231 0.18405 0.54840
 C1242 C 0.51358 0.18421 0.56556
 C1243 C 0.52670 0.16816 0.56927
 C1244 C 0.52860 0.15253 0.55614
 H1245 H 0.56876 0.07656 0.49244
 H1246 H 0.56608 0.10432 0.51495
 H1247 H 0.50243 0.10761 0.50649
 H1248 H 0.50461 0.07908 0.48504
 H1249 H 0.49501 0.16831 0.52249
 H1250 H 0.49238 0.19626 0.54472
 H1251 H 0.53531 0.16746 0.58247
 H1252 H 0.53874 0.14036 0.55940
 C1253 C -0.03444 0.06111 0.49430
 C1254 C -0.03241 0.07709 0.48133
 C1255 C -0.02784 0.09587 0.48817
 C1256 C -0.02520 0.09853 0.50826
 C1257 C -0.02727 0.08256 0.52127
 C1258 C -0.03200 0.06368 0.51444
 N1259 N -0.02612 0.11193 0.47446
 N1260 N -0.02156 0.12931 0.47957
 C1261 C -0.01996 0.14534 0.46579
 C1262 C -0.01394 0.16384 0.47227
 C1263 C -0.01210 0.17976 0.45919
 C1264 C -0.01636 0.17743 0.43935
 C1265 C -0.02255 0.15886 0.43290
 C1266 C -0.02430 0.14293 0.44598
 H1267 H -0.03776 0.04670 0.48854
 H1268 H -0.03439 0.07483 0.46588
 H1269 H -0.02170 0.11294 0.51391
 H1270 H -0.02550 0.08505 0.53671
 H1271 H -0.01064 0.16590 0.48751
 H1272 H -0.00754 0.19394 0.46464
 H1273 H -0.02573 0.15658 0.41767
 H1274 H -0.02899 0.12877 0.44061
 C1275 C 0.47207 0.59316 1.02891
 C1276 C 0.47518 0.60980 1.01701
 C1277 C 0.47170 0.60904 0.99699
 C1278 C 0.46520 0.59129 0.98888
 C1279 C 0.46212 0.57461 1.00076
 C1280 C 0.46543 0.57538 1.02094
 N1281 N 0.47475 0.62648 0.98530
 N1282 N 0.47123 0.62703 0.96712
 C1283 C 0.47424 0.64451 0.95548
 C1284 C 0.46972 0.64413 0.93565
 C1285 C 0.47245 0.66093 0.92387
 C1286 C 0.47981 0.67845 0.93177
 C1287 C 0.48433 0.67878 0.95171
 C1288 C 0.48156 0.66198 0.96348
 H1289 H 0.47450 0.59431 1.04443
 H1290 H 0.48016 0.62340 1.02343
 H1291 H 0.46250 0.59031 0.97341
 H1292 H 0.45728 0.56107 0.99413
 H1293 H 0.46412 0.63075 0.92931
 H1294 H 0.46908 0.66013 0.90852
 H1295 H 0.48979 0.69212 0.95827
 H1296 H 0.48510 0.66266 0.97879
 C1297 C 0.55016 0.92110 1.00149
 C1298 C 0.54824 0.90480 0.98933
 C1299 C 0.52960 0.89620 0.98682
 C1300 C 0.51277 0.90400 0.99675
 C1301 C 0.51463 0.92016 1.00909
 C1302 C 0.53338 0.92911 1.01173
 N1303 N 0.52818 0.87952 0.97423
 N1304 N 0.51140 0.87222 0.96993
 C1305 C 0.50984 0.85542 0.95754
 C1306 C 0.49088 0.84962 0.95174
 C1307 C 0.48878 0.83333 0.93963
 C1308 C 0.50569 0.82237 0.93322
 C1309 C 0.52474 0.82820 0.93919
 C1310 C 0.52682 0.84461 0.95119
 H1311 H 0.56505 0.92675 1.00340
 H1312 H 0.56137 0.89880 0.98187
 H1313 H 0.49815 0.89766 0.99496
 H1314 H 0.50108 0.92599 1.01587
 H1315 H 0.47769 0.85786 0.95651
 H1316 H 0.47392 0.82950 0.93506
 H1317 H 0.53805 0.81993 0.93482
 H1318 H 0.54164 0.84874 0.95560
 C1319 C 0.05403 0.41406 0.50601
 C1320 C 0.05154 0.39755 0.49426
 C1321 C 0.03249 0.39246 0.48805
 C1322 C 0.01584 0.40411 0.49373
 C1323 C 0.01830 0.42061 0.50550
 C1324 C 0.03743 0.42576 0.51178
 N1325 N 0.03047 0.37543 0.47604
 N1326 N 0.01359 0.37010 0.46980
 C1327 C 0.01150 0.35307 0.45781
 C1328 C -0.00752 0.34831 0.45128
 C1329 C -0.01010 0.33182 0.43952
 C1330 C 0.00637 0.31977 0.43409
 C1331 C 0.02548 0.32460 0.44071
 C1332 C 0.02803 0.34110 0.45246
 H1333 H 0.06892 0.41753 0.51081
 H1334 H 0.06448 0.38865 0.49002
 H1335 H 0.00095 0.40051 0.48907
 H1336 H 0.00527 0.42948 0.50950
 H1337 H -0.02036 0.35746 0.45526
 H1338 H -0.02496 0.32866 0.43445
 H1339 H 0.03841 0.31547 0.43701
 H1340 H 0.04289 0.34445 0.45739
 C1341 C 0.40588 0.49114 0.44026
 C1342 C 0.39023 0.50484 0.44299
 C1343 C 0.38571 0.51220 0.46157
 C1344 C 0.39705 0.50570 0.47752
 C1345 C 0.41268 0.49198 0.47482
 C1346 C 0.41726 0.48454 0.45616
 N1347 N 0.36955 0.52619 0.46385
 N1348 N 0.36479 0.53361 0.48031
 C1349 C 0.34860 0.54756 0.48261
 C1350 C 0.34441 0.55530 0.50110
 C1351 C 0.32871 0.56893 0.50387
 C1352 C 0.31688 0.57506 0.48810
 C1353 C 0.32113 0.56723 0.46952
 C1354 C 0.33685 0.55361 0.46679
 H1355 H 0.40890 0.48551 0.42576
 H1356 H 0.38156 0.50971 0.43060
 H1357 H 0.39388 0.51121 0.49203
 H1358 H 0.42135 0.48737 0.48729
 H1359 H 0.35339 0.55078 0.51340
 H1360 H 0.32598 0.57486 0.51830
 H1361 H 0.31213 0.57143 0.45714
 H1362 H 0.33974 0.54778 0.45235
 C1363 C 0.91479 -0.01621 -0.01365
 C1364 C 0.89959 -0.00244 -0.00935
 C1365 C 0.89058 0.00855 -0.02421
 C1366 C 0.89705 0.00576 -0.04359
 C1367 C 0.91235 -0.00787 -0.04797
 C1368 C 0.92155 -0.01925 -0.03309
 N1369 N 0.87492 0.02240 -0.01926
 N1370 N 0.86517 0.03186 -0.03223
 C1371 C 0.84954 0.04576 -0.02736
 C1372 C 0.83840 0.05432 -0.04238
 C1373 C 0.82290 0.06779 -0.03817
 C1374 C 0.81835 0.07306 -0.01876
 C1375 C 0.82969 0.06450 -0.00369
 C1376 C 0.84512 0.05094 -0.00794
 H1377 H 0.92169 -0.02379 -0.00149
 H1378 H 0.89484 -0.00028 0.00569
 H1379 H 0.89021 0.01403 -0.05538
 H1380 H 0.91624 -0.00996 -0.06320
 H1381 H 0.84163 0.05040 -0.05739
 H1382 H 0.81427 0.07382 -0.05010
 H1383 H 0.82678 0.06844 0.01137
 H1384 H 0.85361 0.04458 0.00393
 C1385 C 0.56441 0.01099 0.03205
 C1386 C 0.57947 0.02485 0.02880
 C1387 C 0.59875 0.01873 0.02301
 C1388 C 0.60285 -0.00154 0.02043
 C1389 C 0.58782 -0.01544 0.02375
 C1390 C 0.56843 -0.00934 0.02965
 N1391 N 0.61388 0.03333 0.02011
 N1392 N 0.63149 0.02891 0.01405
 C1393 C 0.64668 0.04350 0.01146
 C1394 C 0.66544 0.03772 0.00392
 C1395 C 0.68071 0.05152 0.00150
 C1396 C 0.67746 0.07139 0.00673
 C1397 C 0.65857 0.07717 0.01426
 C1398 C 0.64329 0.06337 0.01657
 H1399 H 0.54957 0.01620 0.03628
 H1400 H 0.57612 0.04043 0.03078
 H1401 H 0.61767 -0.00665 0.01604
 H1402 H 0.59145 -0.03099 0.02201
 H1403 H 0.66826 0.02245 -0.00001
 H1404 H 0.69517 0.04658 -0.00410
 H1405 H 0.65557 0.09241 0.01821
 H1406 H 0.62890 0.06821 0.02243
 C1407 C 0.09300 0.47917 0.51984
 C1408 C 0.10899 0.49191 0.51632
 C1409 C 0.10759 0.51174 0.52168
 C1410 C 0.08991 0.51880 0.53070
 C1411 C 0.07388 0.50611 0.53432
 C1412 C 0.07503 0.48596 0.52895
 N1413 N 0.12433 0.52432 0.51789
 N1414 N 0.12398 0.54259 0.52222
 C1415 C 0.14079 0.55511 0.51855
 C1416 C 0.13933 0.57505 0.52369
 C1417 C 0.15555 0.58761 0.52056
 C1418 C 0.17357 0.58040 0.51219
 C1419 C 0.17494 0.56037 0.50692
 C1420 C 0.15871 0.54782 0.51007
 H1421 H 0.09527 0.46380 0.51607
 H1422 H 0.12264 0.48625 0.50952
 H1423 H 0.08840 0.53416 0.53486
 H1424 H 0.06035 0.51253 0.54061
 H1425 H 0.12559 0.58085 0.53018
 H1426 H 0.15393 0.60302 0.52455
 H1427 H 0.18869 0.55430 0.50069
 H1428 H 0.16023 0.53244 0.50601
 C1429 C 0.06855 0.48582 -0.03811
 C1430 C 0.08424 0.47229 -0.03508
 C1431 C 0.10326 0.47889 -0.03034
 C1432 C 0.10651 0.49930 -0.02876
 C1433 C 0.09088 0.51285 -0.03189
 C1434 C 0.07169 0.50628 -0.03655
 N1435 N 0.11899 0.46462 -0.02729
 N1436 N 0.13624 0.46957 -0.02167
 C1437 C 0.15207 0.45539 -0.01875
 C1438 C 0.17018 0.46178 -0.01128
 C1439 C 0.18596 0.44836 -0.00829
 C1440 C 0.18391 0.42828 -0.01288
 C1441 C 0.16572 0.42190 -0.02044
 C1442 C 0.14990 0.43532 -0.02331
 H1443 H 0.05390 0.48024 -0.04141
 H1444 H 0.08153 0.45659 -0.03630
 H1445 H 0.12114 0.50478 -0.02523
 H1446 H 0.09389 0.52850 -0.03090
 H1447 H 0.17206 0.47722 -0.00778
 H1448 H 0.19988 0.45375 -0.00267
 H1449 H 0.16365 0.40649 -0.02393
 H1450 H 0.13603 0.43002 -0.02911
 C1451 C 0.56729 0.99212 0.46077
 C1452 C 0.58243 0.97787 0.46331
 C1453 C 0.60022 0.98271 0.47236
 C1454 C 0.60269 1.00203 0.47908
 C1455 C 0.58760 1.01630 0.47664
 C1456 C 0.56956 1.01173 0.46732
 N1457 N 0.61561 0.96788 0.47436
 N1458 N 0.63231 0.97163 0.48203
 C1459 C 0.64790 0.95704 0.48402
 C1460 C 0.66590 0.96253 0.49236
 C1461 C 0.68153 0.94877 0.49443
 C1462 C 0.67941 0.92917 0.48818
 C1463 C 0.66128 0.92368 0.47980
 C1464 C 0.64565 0.93749 0.47774
 H1465 H 0.55360 0.98735 0.45426
 H1466 H 0.58026 0.96296 0.45822
 H1467 H 0.61639 1.00620 0.48602
 H1468 H 0.59071 1.03115 0.48133
 H1469 H 0.66784 0.97757 0.49718
 H1470 H 0.69539 0.95356 0.50065
 H1471 H 0.65910 0.90866 0.47505
 H1472 H 0.63184 0.93288 0.47127
 C1473 C 0.93263 0.98372 0.54265
 C1474 C 0.91700 0.97053 0.53999
 C1475 C 0.89942 0.97679 0.53098
 C1476 C 0.89756 0.99651 0.52461
 C1477 C 0.91315 1.00973 0.52715
 C1478 C 0.93110 1.00364 0.53620
 N1479 N 0.88377 0.96285 0.52835
 N1480 N 0.86724 0.96780 0.52064
 C1481 C 0.85157 0.95396 0.51780
 C1482 C 0.83362 0.96071 0.50975
 C1483 C 0.81804 0.94761 0.50665
 C1484 C 0.82018 0.92742 0.51152
 C1485 C 0.83825 0.92068 0.51964
 C1486 C 0.85381 0.93383 0.52277
 H1487 H 0.94618 0.97785 0.54903
 H1488 H 0.91868 0.95530 0.54483
 H1489 H 0.88401 1.00177 0.51774
 H1490 H 0.91058 1.02492 0.52263
 H1491 H 0.83170 0.97620 0.50592
 H1492 H 0.80422 0.95334 0.50065
 H1493 H 0.84047 0.90520 0.52331
 H1494 H 0.86759 0.92824 0.52895
 C1495 C 0.40488 0.52534 0.03441
 C1496 C 0.38862 0.51321 0.03075
 C1497 C 0.39052 0.49263 0.03249
 C1498 C 0.40894 0.48423 0.03806
 C1499 C 0.42521 0.49632 0.04168
 C1500 C 0.42340 0.51701 0.03985
 N1501 N 0.37367 0.48061 0.02835
 N1502 N 0.37434 0.46184 0.03013
 C1503 C 0.35764 0.44968 0.02584
 C1504 C 0.35929 0.42925 0.02899
 C1505 C 0.34333 0.41691 0.02495
 C1506 C 0.32541 0.42485 0.01756
 C1507 C 0.32381 0.44539 0.01433
 C1508 C 0.33977 0.45773 0.01847
 H1509 H 0.40292 0.54122 0.03313
 H1510 H 0.37449 0.51986 0.02653
 H1511 H 0.41082 0.46835 0.03944
 H1512 H 0.43934 0.48944 0.04556
 H1513 H 0.37302 0.42287 0.03460
 H1514 H 0.34509 0.40112 0.02736
 H1515 H 0.31012 0.45195 0.00885
 H1516 H 0.33814 0.47350 0.01591
 C1517 C 0.48340 0.44340 0.40703
 C1518 C 0.49687 0.44535 0.39128
 C1519 C 0.50436 0.46392 0.38599
 C1520 C 0.49810 0.48066 0.39659
 C1521 C 0.48458 0.47875 0.41229
 C1522 C 0.47712 0.46009 0.41772
 N1523 N 0.51829 0.46538 0.36990
 N1524 N 0.52614 0.48174 0.36480
 C1525 C 0.54007 0.48336 0.34873
 C1526 C 0.54843 0.50178 0.34442
 C1527 C 0.56206 0.50395 0.32886
 C1528 C 0.56756 0.48766 0.31724
 C1529 C 0.55914 0.46913 0.32163
 C1530 C 0.54551 0.46698 0.33724
 H1531 H 0.47772 0.42888 0.41073
 H1532 H 0.50153 0.43236 0.38320
 H1533 H 0.50370 0.49519 0.39280
 H1534 H 0.48020 0.49182 0.42039
 H1535 H 0.54441 0.51450 0.35322
 H1536 H 0.56850 0.51835 0.32607
 H1537 H 0.56286 0.45635 0.31283
 H1538 H 0.53919 0.45258 0.34026
 C1539 C -0.01616 -0.05734 0.91206
 C1540 C -0.00349 -0.05445 0.89583
 C1541 C 0.00407 -0.03568 0.89147
 C1542 C -0.00125 -0.01970 0.90354
 C1543 C -0.01393 -0.02256 0.91976
 C1544 C -0.02152 -0.04142 0.92420
 N1545 N 0.01715 -0.03327 0.87483
 N1546 N 0.02467 -0.01663 0.87018
 C1547 C 0.03786 -0.01420 0.85362
 C1548 C 0.04580 0.00449 0.84963
 C1549 C 0.05892 0.00735 0.83374
 C1550 C 0.06431 -0.00851 0.82152
 C1551 C 0.05620 -0.02726 0.82551
 C1552 C 0.04309 -0.03009 0.84141
 H1553 H -0.02195 -0.07199 0.91499
 H1554 H 0.00047 -0.06687 0.88662
 H1555 H 0.00445 -0.00505 0.90052
 H1556 H -0.01757 -0.01008 0.92899
 H1557 H 0.04192 0.01683 0.85896
 H1558 H 0.06511 0.02190 0.83123
 H1559 H 0.05984 -0.03970 0.81622
 H1560 H 0.03708 -0.04467 0.84415
 C1561 C -0.00210 0.00579 0.57762
 C1562 C 0.01075 0.00298 0.59329
 C1563 C 0.01635 0.01902 0.60457
 C1564 C 0.00909 0.03808 0.59989
 C1565 C -0.00370 0.04093 0.58417
 C1566 C -0.00952 0.02479 0.57293
 N1567 N 0.02921 0.01551 0.62076
 N1568 N 0.03431 0.02928 0.63207
 C1569 C 0.04706 0.02569 0.64833
 C1570 C 0.05147 0.04141 0.66056
 C1571 C 0.06364 0.03836 0.67671
 C1572 C 0.07166 0.01946 0.68089
 C1573 C 0.06728 0.00372 0.66850
 C1574 C 0.05508 0.00679 0.65238
 H1575 H -0.00613 -0.00688 0.56908
 H1576 H 0.01629 -0.01177 0.59672
 H1577 H 0.01320 0.05072 0.60841
 H1578 H -0.00935 0.05570 0.58103
 H1579 H 0.04533 0.05603 0.65763
 H1580 H 0.06649 0.05074 0.68610
 H1581 H 0.07346 -0.01094 0.67115
 H1582 H 0.05195 -0.00560 0.64310
 C1583 C 0.48804 0.51235 0.08393
 C1584 C 0.50081 0.50787 0.09932
 C1585 C 0.51105 0.52290 0.10857
 C1586 C 0.50812 0.54262 0.10249
 C1587 C 0.49500 0.54718 0.08741
 C1588 C 0.48485 0.53210 0.07781
 N1589 N 0.52403 0.51786 0.12428
 N1590 N 0.53761 0.52948 0.12973
 C1591 C 0.55016 0.52476 0.14587
 C1592 C 0.56820 0.53472 0.14770
 C1593 C 0.58071 0.53053 0.16336
 C1594 C 0.57512 0.51660 0.17785
 C1595 C 0.55680 0.50679 0.17600
 C1596 C 0.54454 0.51068 0.16008
 H1597 H 0.48088 0.50026 0.07670
 H1598 H 0.50297 0.49261 0.10388
 H1599 H 0.51567 0.55451 0.10965
 H1600 H 0.49261 0.56259 0.08351
 H1601 H 0.57270 0.54559 0.13680
 H1602 H 0.59483 0.53811 0.16396
 H1603 H 0.55167 0.49634 0.18702
 H1604 H 0.53049 0.50300 0.15909
 C1605 C 0.48936 -0.03663 0.06810
 C1606 C 0.47626 -0.03419 0.08408
 C1607 C 0.48344 -0.02815 0.10207
 C1608 C 0.50399 -0.02463 0.10396
 C1609 C 0.51710 -0.02708 0.08801
 C1610 C 0.50993 -0.03306 0.06988
 N1611 N 0.46959 -0.02560 0.11809
 N1612 N 0.47512 -0.01964 0.13466
 C1613 C 0.46135 -0.01697 0.15072
 C1614 C 0.46847 -0.00974 0.16827
 C1615 C 0.45543 -0.00671 0.18417
 C1616 C 0.43496 -0.01093 0.18278
 C1617 C 0.42786 -0.01834 0.16516
 C1618 C 0.44092 -0.02131 0.14924
 H1619 H 0.48335 -0.04102 0.05428
 H1620 H 0.46046 -0.03691 0.08243
 H1621 H 0.50992 -0.02002 0.11774
 H1622 H 0.53290 -0.02451 0.08992
 H1623 H 0.48419 -0.00641 0.16960
 H1624 H 0.46139 -0.00124 0.19762
 H1625 H 0.41214 -0.02153 0.16358
 H1626 H 0.43505 -0.02690 0.13581
 C1627 C 0.99362 0.46480 0.56546
 C1628 C 0.98010 0.46791 0.58098
 C1629 C 0.98691 0.47362 0.59920
 C1630 C 1.00752 0.47630 0.60177
 C1631 C 1.02106 0.47320 0.58627
 C1632 C 1.01427 0.46736 0.56795
 N1633 N 0.97266 0.47641 0.61484
 N1634 N 0.97780 0.48169 0.63176
 C1635 C 0.96354 0.48434 0.64741
 C1636 C 0.97025 0.49053 0.66552
 C1637 C 0.95674 0.49322 0.68113
 C1638 C 0.93622 0.48969 0.67887
 C1639 C 0.92953 0.48343 0.66065
 C1640 C 0.94305 0.48080 0.64505
 H1641 H 0.98792 0.46054 0.55147
 H1642 H 0.96426 0.46584 0.57881
 H1643 H 1.01316 0.48065 0.61576
 H1644 H 1.03689 0.47501 0.58871
 H1645 H 0.98600 0.49324 0.66754
 H1646 H 0.96239 0.49780 0.69504
 H1647 H 0.91379 0.48083 0.65840
 H1648 H 0.93749 0.47603 0.63117
 C1649 C 0.99059 0.53216 0.92924
 C1650 C 0.97710 0.52957 0.91419
 C1651 C 0.98383 0.52301 0.89590
 C1652 C 1.00434 0.51895 0.89281
 C1653 C 1.01786 0.52157 0.90784
 C1654 C 1.01115 0.52827 0.92622
 N1655 N 0.96963 0.52082 0.88072
 N1656 N 0.97468 0.51449 0.86389
 C1657 C 0.96054 0.51254 0.84862
 C1658 C 0.96711 0.50496 0.83067
 C1659 C 0.95378 0.50309 0.81537
 C1660 C 0.93358 0.50888 0.81775
 C1661 C 0.92701 0.51646 0.83583
 C1662 C 0.94035 0.51825 0.85115
 H1663 H 0.98491 0.53707 0.94330
 H1664 H 0.96133 0.53270 0.91677
 H1665 H 1.00993 0.51393 0.87876
 H1666 H 1.03363 0.51870 0.90497
 H1667 H 0.98264 0.50058 0.82852
 H1668 H 0.95936 0.49745 0.80155
 H1669 H 0.91150 0.52084 0.83817
 H1670 H 0.93490 0.52414 0.86491
 C1671 C 0.49222 0.04364 0.43148
 C1672 C 0.47893 0.04175 0.41614
 C1673 C 0.48571 0.03484 0.39799
 C1674 C 0.50609 0.03000 0.39525
 C1675 C 0.51941 0.03192 0.41056
 C1676 C 0.51260 0.03866 0.42890
 N1677 N 0.47159 0.03266 0.38272
 N1678 N 0.47668 0.02587 0.36608
 C1679 C 0.46260 0.02350 0.35083
 C1680 C 0.46925 0.01545 0.33311
 C1681 C 0.45587 0.01263 0.31801
 C1682 C 0.43553 0.01788 0.32038
 C1683 C 0.42891 0.02610 0.33816
 C1684 C 0.44230 0.02886 0.35328
 H1685 H 0.48648 0.04867 0.44548
 H1686 H 0.46325 0.04549 0.41845
 H1687 H 0.51172 0.02471 0.38131
 H1688 H 0.53507 0.02826 0.40802
 H1689 H 0.48486 0.01131 0.33103
 H1690 H 0.46149 0.00653 0.30440
 H1691 H 0.41330 0.03009 0.34050
 H1692 H 0.43679 0.03508 0.36687
   
