data_POSCAR
  _audit_creation_date              2014-09-24
  _audit_creation_method            'ToBaCCo'
  _symmetry_space_group_name_H-M    'P1'
  _symmetry_Int_Tables_number       1
  _symmetry_cell_setting            triclinic
  loop_
  _symmetry_equiv_pos_as_xyz
 x,y,z
_cell_length_a 39.3547
_cell_length_b 39.2558
_cell_length_c 37.5547
_cell_angle_alpha 90.349800
_cell_angle_beta 90.413800
_cell_angle_gamma 90.167400
loop_
  _atom_site_label
  _atom_site_type_symbol
  _atom_site_fract_x
  _atom_site_fract_y
  _atom_site_fract_z
C1 C 0.42180 0.02148 0.26902
 H2 H 0.42906 0.02625 0.24178
 C3 C 0.44169 0.03441 0.29687
 H4 H 0.46488 0.04805 0.29089
 C5 C 0.38174 -0.00058 0.30980
 H6 H 0.35745 -0.01258 0.31454
 C7 C 0.40137 0.01115 0.33853
 H8 H 0.39264 0.00703 0.36546
 N9 N 0.39250 0.00437 0.27588
 C10 C 0.39076 0.01020 0.16713
 H11 H 0.37839 0.03468 0.16818
 C12 C 0.40742 0.00005 0.13607
 H13 H 0.40826 0.01706 0.11349
 C14 C 0.40396 -0.04254 0.19437
 H15 H 0.40221 -0.05910 0.21720
 C16 C 0.41968 -0.05413 0.16351
 H17 H 0.43046 -0.07947 0.16275
 Zn18 Zn 0.36347 -0.00335 0.23673
 N19 N 0.38932 -0.01121 0.19543
 C20 C 0.34840 0.06695 0.22595
 N21 N 0.33537 0.03565 0.23349
 C22 C 0.30213 0.03175 0.24219
 C23 C 0.28010 0.05926 0.24116
 C24 C 0.32713 0.09550 0.22493
 C25 C 0.33852 -0.06831 0.26403
 C26 C 0.31714 -0.09692 0.26143
 C27 C 0.29070 -0.07193 0.20956
 C28 C 0.31320 -0.04478 0.21245
 N29 N 0.33566 -0.04270 0.23995
 H30 H 0.37528 0.06981 0.22092
 H31 H 0.29259 0.00739 0.25079
 H32 H 0.25384 0.05526 0.24840
 H33 H 0.33760 0.12023 0.21849
 H34 H 0.35776 -0.06704 0.28466
 H35 H 0.31992 -0.11710 0.28079
 H36 H 0.27330 -0.07187 0.18720
 H37 H 0.31255 -0.02480 0.19273
 C38 C 0.42126 -0.03278 0.13390
 C39 C 0.43137 0.02942 0.33209
 C40 C 0.29216 -0.09876 0.23430
 C41 C 0.29237 0.09155 0.23191
 C42 C 0.08255 0.03643 0.73827
 H43 H 0.07359 0.03533 0.76538
 C44 C 0.06095 0.04787 0.71120
 H45 H 0.03509 0.05492 0.71749
 C46 C 0.12713 0.02862 0.69686
 H47 H 0.15310 0.02127 0.69166
 C48 C 0.10606 0.03872 0.66886
 H49 H 0.11574 0.03888 0.64192
 N50 N 0.11481 0.02666 0.73054
 C51 C 0.12955 0.01918 0.84044
 H52 H 0.14822 0.03942 0.84091
 C53 C 0.11450 0.00877 0.87226
 H54 H 0.12127 0.02143 0.89703
 C55 C 0.09893 -0.02303 0.80806
 H56 H 0.09334 -0.03555 0.78295
 C57 C 0.08378 -0.03454 0.83913
 H58 H 0.06590 -0.05548 0.83741
 Zn59 Zn 0.14489 0.01126 0.76637
 N60 N 0.12166 0.00304 0.80925
 C61 C 0.16322 0.07745 0.77966
 N62 N 0.17699 0.04633 0.77308
 C63 C 0.21107 0.04220 0.76965
 C64 C 0.23280 0.07028 0.77312
 C65 C 0.18388 0.10617 0.78285
 C66 C 0.14625 -0.04971 0.72738
 C67 C 0.15140 -0.08463 0.72360
 C68 C 0.19396 -0.08167 0.77014
 C69 C 0.18751 -0.04671 0.77358
 N70 N 0.16346 -0.03159 0.75278
 H71 H 0.13595 0.07996 0.78181
 H72 H 0.22136 0.01739 0.76352
 H73 H 0.25979 0.06660 0.76958
 H74 H 0.17237 0.13082 0.78753
 H75 H 0.12606 -0.03796 0.71230
 H76 H 0.13561 -0.09910 0.70519
 H77 H 0.21143 -0.09389 0.78842
 H78 H 0.19972 -0.03231 0.79474
 C79 C 0.09195 -0.01896 0.87187
 C80 C 0.07261 0.04847 0.67598
 C81 C 0.17462 -0.10110 0.74595
 C82 C 0.21912 0.10282 0.77953
 C83 C 0.61944 0.53196 0.19079
 H84 H 0.62757 0.55294 0.20743
 C85 C 0.61220 0.53821 0.15508
 H86 H 0.61505 0.56382 0.14498
 C87 C 0.60453 0.47384 0.18382
 H88 H 0.60178 0.44872 0.19494
 C89 C 0.59627 0.47917 0.14794
 H90 H 0.58715 0.45806 0.13178
 N91 N 0.61661 0.49997 0.20436
 C92 C 0.60517 0.47654 0.31770
 H93 H 0.63165 0.47705 0.32561
 C94 C 0.58012 0.47072 0.34306
 H95 H 0.58759 0.46682 0.37055
 C96 C 0.56344 0.48195 0.27231
 H97 H 0.55714 0.48680 0.24473
 C98 C 0.53745 0.47591 0.29686
 H99 H 0.51129 0.47652 0.28788
 Zn100 Zn 0.63276 0.49290 0.25195
 N101 N 0.59648 0.48266 0.28324
 C102 C 0.63598 0.55580 0.28803
 N103 N 0.65416 0.53463 0.26660
 C104 C 0.68199 0.54623 0.24887
 C105 C 0.69099 0.58073 0.25041
 C106 C 0.64358 0.59055 0.28953
 C107 C 0.64917 0.42377 0.24709
 C108 C 0.66983 0.39502 0.24416
 C109 C 0.71882 0.43107 0.25400
 C110 C 0.69719 0.45903 0.25736
 N111 N 0.66310 0.45520 0.25244
 H112 H 0.61335 0.54659 0.30097
 H113 H 0.69486 0.52975 0.23021
 H114 H 0.71126 0.59010 0.23371
 H115 H 0.62693 0.60760 0.30393
 H116 H 0.62191 0.42103 0.24486
 H117 H 0.65834 0.37034 0.23909
 H118 H 0.74592 0.43482 0.25732
 H119 H 0.70787 0.48368 0.26355
 C120 C 0.54572 0.47079 0.33292
 C121 C 0.60101 0.51152 0.13304
 C122 C 0.70517 0.39869 0.24654
 C123 C 0.67048 0.60345 0.26938
 C124 C 0.91841 0.53731 0.79230
 H125 H 0.91816 0.55362 0.76919
 C126 C 0.94098 0.54390 0.82016
 H127 H 0.95770 0.56568 0.81820
 C128 C 0.89640 0.48892 0.82194
 H129 H 0.87901 0.46756 0.82229
 C130 C 0.91838 0.49466 0.85056
 H131 H 0.91754 0.47732 0.87285
 N132 N 0.89726 0.50992 0.79346
 C133 C 0.89027 0.49376 0.68078
 H134 H 0.86414 0.49957 0.67417
 C135 C 0.91347 0.48662 0.65383
 H136 H 0.90509 0.48752 0.62632
 C137 C 0.93292 0.48477 0.72457
 H138 H 0.94037 0.48314 0.75220
 C139 C 0.95680 0.47725 0.69863
 H140 H 0.98245 0.47105 0.70676
 Zn141 Zn 0.87058 0.50304 0.75284
 N142 N 0.90063 0.49370 0.71532
 C143 C 0.84578 0.56474 0.71968
 N144 N 0.84566 0.54355 0.74824
 C145 C 0.83031 0.55243 0.77923
 C146 C 0.81562 0.58428 0.78315
 C147 C 0.83064 0.59691 0.72229
 C148 C 0.85505 0.43414 0.75947
 C149 C 0.83417 0.40560 0.76272
 C150 C 0.78532 0.44283 0.76345
 C151 C 0.80705 0.47057 0.75957
 N152 N 0.84122 0.46579 0.75815
 H153 H 0.85891 0.55756 0.69565
 H154 H 0.83111 0.53524 0.80162
 H155 H 0.80509 0.59166 0.80862
 H156 H 0.83212 0.61446 0.70022
 H157 H 0.88231 0.43116 0.75788
 H158 H 0.84545 0.38050 0.76382
 H159 H 0.75818 0.44709 0.76440
 H160 H 0.79651 0.49584 0.75753
 C161 C 0.94731 0.47867 0.66275
 C162 C 0.94140 0.52223 0.84976
 C163 C 0.79893 0.40990 0.76510
 C164 C 0.81642 0.60706 0.75477
 C165 C 0.19433 0.43937 0.98071
 H166 H 0.19991 0.42972 0.95437
 C167 C 0.16228 0.45313 0.98769
 H168 H 0.14333 0.45397 0.96666
 C169 C 0.21014 0.44525 1.04154
 H170 H 0.22796 0.43993 1.06284
 C171 C 0.17869 0.45912 1.04959
 H172 H 0.17280 0.46505 1.07707
 N173 N 0.21673 0.43429 1.00795
 C174 C 0.32224 0.40341 1.00495
 H175 H 0.31882 0.37881 0.99229
 C176 C 0.35487 0.41596 1.01130
 H177 H 0.37671 0.40105 1.00341
 C178 C 0.29791 0.45316 1.03023
 H179 H 0.27572 0.46789 1.03684
 C180 C 0.33010 0.46614 1.03817
 H181 H 0.33251 0.49086 1.05092
 Zn182 Zn 0.25202 0.40245 1.00429
 N183 N 0.29463 0.42207 1.01439
 C184 C 0.27006 0.40395 0.93332
 N185 N 0.25384 0.38431 0.95767
 C186 C 0.24292 0.35229 0.94942
 C187 C 0.24929 0.33849 0.91572
 C188 C 0.27789 0.39076 0.89984
 C189 C 0.26487 0.36308 1.06618
 C190 C 0.25506 0.34373 1.09556
 C191 C 0.19972 0.33643 1.06837
 C192 C 0.21057 0.35584 1.03956
 N193 N 0.24251 0.36903 1.03911
 H194 H 0.27861 0.42925 0.94069
 H195 H 0.23042 0.33700 0.96928
 H196 H 0.24172 0.31252 0.90970
 H197 H 0.29258 0.40584 0.88139
 H198 H 0.28987 0.37451 1.06584
 H199 H 0.27298 0.33984 1.11716
 H200 H 0.17387 0.32709 1.06819
 H201 H 0.19293 0.36183 1.01829
 C202 C 0.35888 0.44739 1.02856
 C203 C 0.15368 0.46103 1.02292
 C204 C 0.22191 0.33060 1.09726
 C205 C 0.26782 0.35756 0.89109
 C206 C 0.79468 0.04886 0.97355
 H207 H 0.76924 0.03901 0.96942
 C208 C 0.82227 0.02673 0.97260
 H209 H 0.81722 0.00005 0.96745
 C210 C 0.83127 0.09580 0.98499
 H211 H 0.83431 0.12276 0.99045
 C212 C 0.85965 0.07455 0.98466
 H213 H 0.88459 0.08548 0.98971
 N214 N 0.79952 0.08243 0.98108
 C215 C 0.69291 0.09116 0.98294
 H216 H 0.69124 0.11236 0.96475
 C217 C 0.66382 0.07202 0.99001
 H218 H 0.64005 0.07827 0.97687
 C219 C 0.72511 0.05828 1.02380
 H220 H 0.74912 0.05299 1.03680
 C221 C 0.69659 0.03874 1.03192
 H222 H 0.69890 0.01831 1.05108
 Zn223 Zn 0.76191 0.11084 0.99067
 N224 N 0.72289 0.08382 0.99951
 C225 C 0.74639 0.11475 0.92132
 N226 N 0.75367 0.13620 0.94890
 C227 C 0.75344 0.17063 0.94459
 C228 C 0.74408 0.18448 0.91155
 C229 C 0.73641 0.12738 0.88847
 C230 C 0.78779 0.11465 1.05755
 C231 C 0.79307 0.12512 1.09245
 C232 C 0.76467 0.17793 1.07900
 C233 C 0.75952 0.16611 1.04389
 N234 N 0.77136 0.13491 1.03385
 H235 H 0.74734 0.08751 0.92532
 H236 H 0.76012 0.18727 0.96655
 H237 H 0.74339 0.21186 0.90821
 H238 H 0.73024 0.10969 0.86714
 H239 H 0.79587 0.08944 1.04973
 H240 H 0.80509 0.10737 1.11041
 H241 H 0.75506 0.20267 1.08682
 H242 H 0.74517 0.18136 1.02529
 C243 C 0.66545 0.04571 1.01503
 C244 C 0.85530 0.03921 0.97987
 C245 C 0.78149 0.15713 1.10386
 C246 C 0.73459 0.16260 0.88343
 C247 C 0.29582 0.57606 0.49930
 H248 H 0.27639 0.55666 0.49683
 C249 C 0.33020 0.56695 0.49910
 H250 H 0.33724 0.54043 0.49628
 C251 C 0.31064 0.63407 0.50879
 H252 H 0.30267 0.66009 0.51332
 C253 C 0.34490 0.62623 0.50860
 H254 H 0.36318 0.64661 0.51234
 N255 N 0.28695 0.60916 0.50461
 C256 C 0.18653 0.58545 0.53477
 H257 H 0.18968 0.59761 0.56050
 C258 C 0.15626 0.56826 0.52654
 H259 H 0.13626 0.56701 0.54615
 C260 C 0.20673 0.57629 0.47609
 H261 H 0.22574 0.58120 0.45609
 C262 C 0.17692 0.55929 0.46670
 H263 H 0.17340 0.55054 0.43951
 Zn264 Zn 0.24276 0.62494 0.51257
 N265 N 0.21022 0.59027 0.50906
 C266 C 0.19990 0.67181 0.47732
 N267 N 0.23115 0.65702 0.47726
 C268 C 0.25289 0.66153 0.44975
 C269 C 0.24364 0.68151 0.42092
 C270 C 0.18949 0.69209 0.44873
 C271 C 0.26118 0.62516 0.58297
 C272 C 0.27171 0.63948 0.61523
 C273 C 0.24555 0.69250 0.59766
 C274 C 0.23651 0.67748 0.56508
 N275 N 0.24473 0.64445 0.55836
 H276 H 0.18268 0.66695 0.49905
 H277 H 0.27699 0.64856 0.44925
 H278 H 0.26131 0.68418 0.39913
 H279 H 0.16433 0.70310 0.44893
 H280 H 0.26786 0.59913 0.57660
 H281 H 0.28563 0.62408 0.63418
 H282 H 0.23933 0.71894 0.60275
 H283 H 0.22425 0.69257 0.54479
 C284 C 0.15063 0.55681 0.49155
 C285 C 0.35501 0.59220 0.50487
 C286 C 0.26434 0.67366 0.62251
 C287 C 0.21148 0.69674 0.41985
 C288 C 0.71479 0.94093 0.46542
 H289 H 0.73727 0.94474 0.44950
 C290 C 0.69025 0.96648 0.46744
 H291 H 0.69366 0.98935 0.45195
 C292 C 0.68372 0.90660 0.50545
 H293 H 0.68180 0.88375 0.52117
 C294 C 0.65822 0.93128 0.50773
 H295 H 0.63640 0.92674 0.52449
 N296 N 0.71138 0.91189 0.48459
 C297 C 0.81448 0.91448 0.47675
 H298 H 0.81614 0.89936 0.45277
 C299 C 0.84021 0.93801 0.48444
 H300 H 0.86179 0.94004 0.46682
 C301 C 0.78395 0.93170 0.52792
 H302 H 0.76167 0.92934 0.54444
 C303 C 0.80878 0.95598 0.53623
 H304 H 0.80574 0.97163 0.55980
 Zn305 Zn 0.74980 0.88290 0.48663
 N306 N 0.78716 0.91151 0.49861
 C307 C 0.78637 0.84000 0.44300
 N308 N 0.75858 0.86053 0.44321
 C309 C 0.73817 0.86359 0.41405
 C310 C 0.74602 0.84595 0.38272
 C311 C 0.79577 0.82294 0.41200
 C312 C 0.76246 0.84671 0.55055
 C313 C 0.75701 0.82093 0.57525
 C314 C 0.71257 0.79799 0.53731
 C315 C 0.71881 0.82435 0.51333
 N316 N 0.74303 0.84830 0.52059
 H317 H 0.80165 0.83749 0.46690
 H318 H 0.71586 0.87955 0.41516
 H319 H 0.72975 0.84847 0.35951
 H320 H 0.81832 0.80719 0.41201
 H321 H 0.78206 0.86552 0.55544
 H322 H 0.77235 0.82052 0.59931
 H323 H 0.69263 0.77976 0.53142
 H324 H 0.70407 0.82601 0.48898
 C325 C 0.83725 0.95943 0.51418
 C326 C 0.66169 0.96200 0.48921
 C327 C 0.73161 0.79631 0.56896
 C328 C 0.77546 0.82589 0.38147
 C329 C 0.02604 0.29630 0.43340
 H330 H 0.04958 0.28353 0.42775
 C331 C 0.02608 0.32297 0.45804
 H332 H 0.04948 0.32969 0.47177
 C333 C -0.03222 0.30497 0.42054
 H334 H -0.05488 0.29803 0.40581
 C335 C -0.03300 0.33283 0.44425
 H336 H -0.05628 0.34706 0.44771
 N337 N -0.00305 0.28678 0.41616
 C338 C -0.01099 0.18145 0.41682
 H339 H -0.03349 0.18110 0.40016
 C340 C -0.00457 0.15412 0.43973
 H341 H -0.02243 0.13308 0.44031
 C342 C 0.03941 0.20899 0.43613
 H343 H 0.05736 0.22956 0.43389
 C344 C 0.04647 0.18270 0.45981
 H345 H 0.06959 0.18433 0.47544
 Zn346 Zn 0.00087 0.24704 0.38632
 N347 N 0.01066 0.20852 0.41578
 C348 C 0.06408 0.23270 0.35131
 N349 N 0.03804 0.25517 0.35497
 C350 C 0.03727 0.28454 0.33597
 C351 C 0.06323 0.29226 0.31211
 C352 C 0.09075 0.23954 0.32786
 C353 C -0.07155 0.23651 0.37101
 C354 C -0.09936 0.22970 0.34814
 C355 C -0.06012 0.22446 0.29951
 C356 C -0.03346 0.23173 0.32291
 N357 N -0.03931 0.23815 0.35791
 H358 H 0.06410 0.20926 0.36623
 H359 H 0.01628 0.30198 0.33930
 H360 H 0.06190 0.31592 0.29760
 H361 H 0.11121 0.22133 0.32528
 H362 H -0.07579 0.24052 0.39915
 H363 H -0.12482 0.22915 0.35886
 H364 H -0.05376 0.21957 0.27206
 H365 H -0.00783 0.23182 0.31289
 C366 C 0.02414 0.15481 0.46235
 C367 C -0.00375 0.34134 0.46401
 C368 C -0.09389 0.22388 0.31162
 C369 C 0.09050 0.26957 0.30770
 C370 C 0.01233 0.67655 0.09603
 H371 H 0.03306 0.67576 0.11491
 C372 C 0.00805 0.64948 0.07213
 H373 H 0.02519 0.62799 0.07351
 C374 C -0.03435 0.70558 0.07044
 H375 H -0.05060 0.72768 0.06960
 C376 C -0.03927 0.67920 0.04565
 H377 H -0.05982 0.68109 0.02650
 N378 N -0.00924 0.70361 0.09546
 C379 C -0.01170 0.81062 0.11141
 H380 H -0.03117 0.81149 0.13156
 C381 C -0.00237 0.84048 0.09355
 H382 H -0.01500 0.86419 0.09995
 C383 C 0.02910 0.77895 0.07918
 H384 H 0.04147 0.75488 0.07396
 C385 C 0.03922 0.80803 0.06088
 H386 H 0.05903 0.80561 0.04126
 Zn387 Zn -0.00395 0.73976 0.12946
 N388 N 0.00441 0.78074 0.10422
 C389 C 0.05969 0.75428 0.16223
 N390 N 0.03430 0.73077 0.15970
 C391 C 0.03515 0.70182 0.17954
 C392 C 0.06176 0.69605 0.20356
 C393 C 0.08701 0.74927 0.18548
 C394 C -0.07490 0.74964 0.14380
 C395 C -0.10429 0.74782 0.16463
 C396 C -0.06919 0.73321 0.21514
 C397 C -0.04065 0.73654 0.19373
 N398 N -0.04385 0.74301 0.15834
 H399 H 0.05859 0.77731 0.14671
 H400 H 0.01463 0.68351 0.17729
 H401 H 0.06177 0.67297 0.21916
 H402 H 0.10683 0.76842 0.18726
 H403 H -0.07705 0.75589 0.11591
 H404 H -0.12869 0.75264 0.15211
 H405 H -0.06505 0.72732 0.24290
 H406 H -0.01597 0.73333 0.20572
 C407 C 0.02383 0.83954 0.06831
 C408 C -0.01809 0.65046 0.04663
 C409 C -0.10192 0.73804 0.20064
 C410 C 0.08803 0.72012 0.20687
 C411 C 0.50784 0.18812 0.58361
 H412 H 0.53137 0.18941 0.59854
 C413 C 0.50071 0.15936 0.56272
 H414 H 0.51884 0.13867 0.56209
 C415 C 0.45624 0.21372 0.56528
 H416 H 0.43917 0.23526 0.56610
 C417 C 0.44823 0.18557 0.54386
 H418 H 0.42470 0.18561 0.52880
 N419 N 0.48576 0.21470 0.58445
 C420 C 0.50235 0.32502 0.59005
 H421 H 0.50791 0.32978 0.61778
 C422 C 0.49743 0.35261 0.56711
 H423 H 0.49913 0.37830 0.57768
 C424 C 0.49338 0.28621 0.54251
 H425 H 0.49226 0.26041 0.53257
 C426 C 0.48792 0.31299 0.51876
 H427 H 0.48274 0.30722 0.49104
 Zn428 Zn 0.49676 0.25508 0.61089
 N429 N 0.49889 0.29245 0.57785
 C430 C 0.56847 0.26504 0.62906
 N431 N 0.53880 0.24850 0.63639
 C432 C 0.53724 0.22554 0.66327
 C433 C 0.56572 0.21898 0.68451
 C434 C 0.59790 0.25900 0.64972
 C435 C 0.43293 0.24390 0.64611
 C436 C 0.40590 0.25225 0.66857
 C437 C 0.43819 0.30049 0.69005
 C438 C 0.46461 0.29119 0.66722
 N439 N 0.46123 0.26397 0.64484
 H440 H 0.56928 0.28315 0.60749
 H441 H 0.51355 0.21250 0.66846
 H442 H 0.56345 0.20085 0.70597
 H443 H 0.62102 0.27297 0.64425
 H444 H 0.43089 0.22147 0.62954
 H445 H 0.38338 0.23632 0.66842
 H446 H 0.44163 0.32260 0.70701
 H447 H 0.48782 0.30588 0.66739
 C448 C 0.48882 0.34673 0.53123
 C449 C 0.47082 0.15803 0.54210
 C450 C 0.40792 0.28134 0.69039
 C451 C 0.59652 0.23612 0.67835
 C452 C 0.53062 0.78256 0.90619
 H453 H 0.55040 0.76350 0.90702
 C454 C 0.53163 0.81003 0.92995
 H455 H 0.55241 0.81205 0.94891
 C456 C 0.47904 0.80257 0.88122
 H457 H 0.45853 0.79961 0.86218
 C458 C 0.47956 0.83106 0.90394
 H459 H 0.45917 0.84950 0.90265
 N460 N 0.50369 0.77830 0.88370
 C461 C 0.51056 0.66627 0.87606
 H462 H 0.51019 0.66192 0.84759
 C463 C 0.51675 0.63901 0.89924
 H464 H 0.52105 0.61379 0.88836
 C465 C 0.50534 0.70426 0.92480
 H466 H 0.49992 0.72941 0.93497
 C467 C 0.51144 0.67792 0.94879
 H468 H 0.51068 0.68369 0.97694
 Zn469 Zn 0.50125 0.73640 0.85737
 N470 N 0.50611 0.69843 0.88908
 C471 C 0.56318 0.71470 0.82463
 N472 N 0.53677 0.73698 0.82298
 C473 C 0.53488 0.76058 0.79661
 C474 C 0.55873 0.76084 0.76921
 C475 C 0.58820 0.71481 0.79837
 C476 C 0.42959 0.73726 0.85366
 C477 C 0.39812 0.74211 0.83686
 C478 C 0.42588 0.73629 0.78002
 C479 C 0.45657 0.73101 0.79785
 N480 N 0.45827 0.73356 0.83396
 H481 H 0.56512 0.69699 0.84641
 H482 H 0.51426 0.77873 0.79640
 H483 H 0.55659 0.77955 0.74826
 H484 H 0.60917 0.69707 0.80013
 H485 H 0.43150 0.73856 0.88239
 H486 H 0.37576 0.74680 0.85277
 H487 H 0.42533 0.73556 0.75120
 H488 H 0.47916 0.72611 0.78259
 C489 C 0.51800 0.64480 0.93618
 C490 C 0.50538 0.83418 0.92961
 C491 C 0.39648 0.74332 0.79958
 C492 C 0.58567 0.73757 0.76985
 C493 C -0.23124 0.69095 0.95313
 H494 H -0.21898 0.69420 0.97880
 C495 C -0.22718 0.71560 0.92680
 H496 H -0.21162 0.73779 0.93237
 C497 C -0.26566 0.65732 0.91447
 H498 H -0.28006 0.63427 0.90956
 C499 C -0.26200 0.68104 0.88737
 H500 H -0.27412 0.67616 0.86185
 N501 N -0.25032 0.66261 0.94654
 C502 C -0.25664 0.63899 1.05820
 H503 H -0.24074 0.61684 1.06101
 C504 C -0.26831 0.65577 1.08871
 H505 H -0.25988 0.64709 1.11463
 C506 C -0.28859 0.67593 1.02146
 H507 H -0.29636 0.68383 0.99512
 C508 C -0.30217 0.69226 1.05110
 H509 H -0.31966 0.71303 1.04671
 Zn510 Zn -0.25307 0.62899 0.98194
 N511 N -0.26595 0.65010 1.02532
 C512 C -0.18753 0.60382 1.00912
 N513 N -0.21032 0.60644 0.98178
 C514 C -0.20413 0.59162 0.94968
 C515 C -0.17637 0.57029 0.94515
 C516 C -0.15901 0.58274 1.00563
 C517 C -0.32008 0.60882 0.96532
 C518 C -0.34653 0.58616 0.95741
 C519 C -0.30610 0.54001 0.95852
 C520 C -0.28060 0.56339 0.96717
 N521 N -0.28781 0.59719 0.96994
 H522 H -0.19138 0.61755 1.03368
 H523 H -0.22190 0.59510 0.92791
 H524 H -0.17285 0.55793 0.91962
 H525 H -0.14173 0.57969 1.02795
 H526 H -0.32535 0.63570 0.96792
 H527 H -0.37218 0.59571 0.95437
 H528 H -0.29985 0.51321 0.95708
 H529 H -0.25523 0.55426 0.97239
 C530 C -0.29154 0.68278 1.08544
 C531 C -0.24252 0.71058 0.89332
 C532 C -0.33956 0.55136 0.95367
 C533 C -0.15408 0.56460 0.97376
 C534 C -0.20902 0.35545 0.54027
 H535 H -0.19137 0.36021 0.51889
 C536 C -0.19825 0.34099 0.57032
 H537 H -0.17179 0.33402 0.57235
 C538 C -0.26563 0.36135 0.56187
 H539 H -0.29116 0.37110 0.55924
 C540 C -0.25508 0.34488 0.59536
 H541 H -0.27390 0.34128 0.61592
 N542 N -0.24369 0.36610 0.53661
 C543 C -0.25748 0.38613 0.42366
 H544 H -0.26205 0.41329 0.42427
 C545 C -0.26398 0.36762 0.39249
 H546 H -0.27292 0.38059 0.36884
 C547 C -0.24424 0.33541 0.45487
 H548 H -0.23839 0.32283 0.47966
 C549 C -0.25099 0.31593 0.42447
 H550 H -0.24968 0.28840 0.42579
 Zn551 Zn -0.25344 0.39387 0.49734
 N552 N -0.24861 0.36974 0.45418
 C553 C -0.19985 0.43590 0.47523
 N554 N -0.22308 0.43031 0.50117
 C555 C -0.21805 0.44153 0.53511
 C556 C -0.18648 0.45442 0.54535
 C557 C -0.16830 0.44988 0.48409
 C558 C -0.31974 0.38094 0.48917
 C559 C -0.35369 0.38709 0.48216
 C560 C -0.34448 0.44632 0.49797
 C561 C -0.31006 0.43916 0.50340
 N562 N -0.29860 0.40692 0.49833
 H563 H -0.20403 0.42593 0.44871
 H564 H -0.23677 0.43602 0.55524
 H565 H -0.18120 0.45953 0.57322
 H566 H -0.14869 0.45121 0.46404
 H567 H -0.30973 0.35551 0.48575
 H568 H -0.36956 0.36580 0.47422
 H569 H -0.35333 0.47225 0.50130
 H570 H -0.29245 0.45932 0.51052
 C571 C -0.26188 0.33211 0.39331
 C572 C -0.22250 0.33534 0.60002
 C573 C -0.36640 0.42031 0.48566
 C574 C -0.16080 0.45676 0.51991
 C575 C 0.28898 -0.17612 0.04839
 H576 H 0.30273 -0.17858 0.02366
 C577 C 0.29603 -0.19686 0.07566
 H578 H 0.31546 -0.21601 0.07241
 C579 C 0.24665 -0.14631 0.08130
 H580 H 0.22792 -0.12643 0.08370
 C581 C 0.25309 -0.16881 0.11172
 H582 H 0.23820 -0.16496 0.13552
 N583 N 0.26322 -0.15042 0.05177
 C584 C 0.22760 -0.12924 -0.05595
 H585 H 0.23356 -0.10239 -0.05783
 C586 C 0.21328 -0.14635 -0.08509
 H587 H 0.20880 -0.13286 -0.10976
 C588 C 0.22651 -0.17974 -0.02162
 H589 H 0.23159 -0.19255 0.00323
 C590 C 0.21099 -0.19751 -0.04968
 H591 H 0.20496 -0.22427 -0.04665
 Zn592 Zn 0.25426 -0.12143 0.01297
 N593 N 0.23498 -0.14635 -0.02545
 C594 C 0.30761 -0.10593 -0.03418
 N595 N 0.29584 -0.10074 -0.00063
 C596 C 0.31418 -0.08233 0.02367
 C597 C 0.34502 -0.06718 0.01403
 C598 C 0.33780 -0.09082 -0.04507
 C599 C 0.18900 -0.10162 0.02834
 C600 C 0.16169 -0.07987 0.03402
 C601 C 0.20093 -0.03241 0.03550
 C602 C 0.22754 -0.05517 0.02920
 N603 N 0.22106 -0.08902 0.02554
 H604 H 0.29388 -0.12208 -0.05264
 H605 H 0.30482 -0.07941 0.05052
 H606 H 0.35926 -0.05234 0.03348
 H607 H 0.34650 -0.09531 -0.07196
 H608 H 0.18459 -0.12870 0.02530
 H609 H 0.13646 -0.09073 0.03564
 H610 H 0.20688 -0.00558 0.03753
 H611 H 0.25317 -0.04565 0.02648
 C612 C 0.20479 -0.18081 -0.08197
 C613 C 0.27679 -0.19342 0.10947
 C614 C 0.16719 -0.04461 0.03709
 C615 C 0.35669 -0.07080 -0.02100
 C616 C 0.28256 1.15903 0.45759
 H617 H 0.30258 1.15581 0.47716
 C618 C 0.28962 1.17491 0.42541
 H619 H 0.31508 1.18416 0.42032
 C620 C 0.22598 1.14752 0.43876
 H621 H 0.20186 1.13513 0.44321
 C622 C 0.23170 1.16419 0.40651
 H623 H 0.21183 1.16479 0.38641
 N624 N 0.25161 1.14461 0.46310
 C625 C 0.24775 1.11537 0.57403
 H626 H 0.24709 1.08809 0.56980
 C627 C 0.24227 1.12867 0.60786
 H628 H 0.23797 1.11139 0.62974
 C629 C 0.25270 1.17091 0.55004
 H630 H 0.25561 1.18712 0.52708
 C631 C 0.24786 1.18540 0.58384
 H632 H 0.24733 1.21284 0.58691
 Zn633 Zn 0.25039 1.11395 0.50154
 N634 N 0.25194 1.13644 0.54586
 C635 C 0.31476 1.08464 0.51956
 N636 N 0.28855 1.08542 0.49575
 C637 C 0.28947 1.06714 0.46493
 C638 C 0.31711 1.04633 0.45735
 C639 C 0.34330 1.06452 0.51272
 C640 C 0.17957 1.10258 0.50503
 C641 C 0.15038 1.08332 0.51180
 C642 C 0.18501 1.03263 0.51235
 C643 C 0.21334 1.05269 0.50503
 N644 N 0.21030 1.08707 0.50198
 H645 H 0.31383 1.10005 0.54348
 H646 H 0.26860 1.06893 0.44612
 H647 H 0.31730 1.03233 0.43246
 H648 H 0.36417 1.06431 0.53167
 H649 H 0.17795 1.13004 0.50379
 H650 H 0.12626 1.09607 0.51517
 H651 H 0.18817 1.00543 0.51556
 H652 H 0.23802 1.04084 0.50382
 C653 C 0.24137 1.16407 0.61287
 C654 C 0.26426 1.17671 0.39917
 C655 C 0.15319 1.04804 0.51655
 C656 C 0.34452 1.04486 0.48141
 C657 C 0.13468 0.42876 0.26666
 H658 H 0.10796 0.42453 0.27140
 C659 C 0.15725 0.40131 0.26790
 H660 H 0.14775 0.37607 0.27383
 C661 C 0.17965 0.46636 0.25217
 H662 H 0.18824 0.49141 0.24458
 C663 C 0.20298 0.43990 0.25350
 H664 H 0.22924 0.44525 0.24724
 N665 N 0.14629 0.46064 0.25927
 C666 C 0.14566 0.56525 0.23367
 H667 H 0.13074 0.56525 0.20950
 C668 C 0.16702 0.59307 0.24151
 H669 H 0.16862 0.61396 0.22289
 C670 C 0.16079 0.53949 0.28835
 H671 H 0.15794 0.51864 0.30680
 C672 C 0.18241 0.56634 0.29702
 H673 H 0.19565 0.56576 0.32232
 Zn674 Zn 0.11682 0.49842 0.25437
 N675 N 0.14345 0.53886 0.25690
 C676 C 0.06297 0.52807 0.28658
 N677 N 0.08643 0.50319 0.29172
 C678 C 0.08672 0.48369 0.32137
 C679 C 0.06241 0.48907 0.34753
 C680 C 0.03811 0.53421 0.31192
 C681 C 0.09167 0.50471 0.18186
 C682 C 0.06787 0.49706 0.15521
 C683 C 0.03947 0.45882 0.19559
 C684 C 0.06360 0.46743 0.22136
 N685 N 0.08878 0.49022 0.21438
 H686 H 0.06366 0.54314 0.26257
 H687 H 0.10589 0.46433 0.32488
 H688 H 0.06313 0.47364 0.37133
 H689 H 0.02001 0.55445 0.30755
 H690 H 0.11246 0.52175 0.17630
 H691 H 0.07084 0.50904 0.12948
 H692 H 0.01982 0.44082 0.20257
 H693 H 0.06187 0.45611 0.24743
 C694 C 0.18604 0.59355 0.27339
 C695 C 0.19190 0.40688 0.26152
 C696 C 0.04113 0.47382 0.16183
 C697 C 0.03780 0.51464 0.34291
 C698 C -0.19105 1.02219 0.27530
 H699 H -0.19913 0.99658 0.26863
 C700 C -0.21491 1.04841 0.27647
 H701 H -0.24119 1.04235 0.27067
 C702 C -0.14666 1.06125 0.28873
 H703 H -0.11979 1.06618 0.29232
 C704 C -0.16959 1.08824 0.28981
 H705 H -0.16023 1.11382 0.29479
 N706 N -0.15755 1.02915 0.28054
 C707 C -0.14693 0.94689 0.22130
 H708 H -0.13731 0.96511 0.20243
 C709 C -0.15985 0.91594 0.20894
 H710 H -0.16009 0.91097 0.18058
 C711 C -0.15888 0.93178 0.28091
 H712 H -0.15797 0.93808 0.30899
 C713 C -0.17238 0.90040 0.26959
 H714 H -0.18189 0.88257 0.28906
 Zn715 Zn -0.12444 0.99515 0.27131
 N716 N -0.14605 0.95403 0.25675
 C717 C -0.07778 0.95950 0.31570
 N718 N -0.09925 0.98659 0.31391
 C719 C -0.10631 1.00542 0.34351
 C720 C -0.09140 0.99767 0.37620
 C721 C -0.06279 0.95037 0.34826
 C722 C -0.11000 1.03758 0.21371
 C723 C -0.09747 1.04604 0.18046
 C724 C -0.05779 0.99960 0.18494
 C725 C -0.07115 0.99203 0.21866
 N726 N -0.09748 1.01050 0.23200
 H727 H -0.07320 0.94427 0.29215
 H728 H -0.12433 1.02595 0.34236
 H729 H -0.09761 1.01296 0.39936
 H730 H -0.04598 0.92863 0.34927
 H731 H -0.13156 1.05153 0.22335
 H732 H -0.10890 1.06750 0.16714
 H733 H -0.03798 0.98358 0.17412
 H734 H -0.06195 0.97009 0.23303
 C735 C -0.17224 0.89195 0.23321
 C736 C -0.20409 1.08212 0.28286
 C737 C -0.07204 1.02611 0.16461
 C738 C -0.06976 0.96962 0.37903
 C739 C 0.35097 0.55265 -0.20970
 H740 H 0.36130 0.53534 -0.19024
 C741 C 0.33609 0.58276 -0.19815
 H742 H 0.33508 0.58783 -0.16984
 C743 C 0.33916 0.56642 -0.26988
 H744 H 0.34075 0.55978 -0.29782
 C745 C 0.32387 0.59704 -0.25940
 H746 H 0.31377 0.61408 -0.27941
 N747 N 0.35257 0.54514 -0.24500
 C748 C 0.35439 0.43735 -0.27970
 H749 H 0.38143 0.43250 -0.28023
 C750 C 0.33238 0.41153 -0.28304
 H751 H 0.34195 0.38601 -0.28702
 C752 C 0.31006 0.47837 -0.27447
 H753 H 0.30142 0.50394 -0.26893
 C754 C 0.28479 0.45070 -0.27885
 H755 H 0.25824 0.45740 -0.27716
 Zn756 Zn 0.37476 0.50439 -0.25820
 N757 N 0.34238 0.47146 -0.27379
 C758 C 0.37878 0.46269 -0.19798
 N759 N 0.39636 0.48653 -0.21660
 C760 C 0.42550 0.50041 -0.20312
 C761 C 0.43752 0.49086 -0.16949
 C762 C 0.38995 0.45232 -0.16445
 C763 C 0.40313 0.49734 -0.32667
 C764 C 0.42486 0.50469 -0.35479
 C765 C 0.45274 0.54701 -0.31786
 C766 C 0.43002 0.53921 -0.29052
 N767 N 0.40626 0.51421 -0.29507
 H768 H 0.35498 0.45284 -0.20821
 H769 H 0.43884 0.51981 -0.21768
 H770 H 0.46032 0.50278 -0.15889
 H771 H 0.37478 0.43407 -0.15007
 H772 H 0.38353 0.47834 -0.33034
 H773 H 0.42200 0.49074 -0.37961
 H774 H 0.47150 0.56690 -0.31375
 H775 H 0.43101 0.55361 -0.26593
 C776 C 0.29530 0.41803 -0.28105
 C777 C 0.32276 0.60569 -0.22311
 C778 C 0.45027 0.52953 -0.35048
 C779 C 0.41939 0.46691 -0.14945
 C780 C 0.66741 -0.05725 -0.24540
 H781 H 0.66567 -0.04956 -0.21776
 C782 C 0.67839 -0.08849 -0.25401
 H783 H 0.68539 -0.10612 -0.23317
 C784 C 0.66102 -0.04173 -0.30650
 H785 H 0.65312 -0.02387 -0.32671
 C786 C 0.67155 -0.07594 -0.31714
 H787 H 0.67228 -0.08176 -0.34531
 N788 N 0.65753 -0.03403 -0.27302
 C789 C 0.64813 0.07588 -0.27520
 H790 H 0.62198 0.07986 -0.26758
 C791 C 0.66951 0.10381 -0.28026
 H792 H 0.65937 0.12922 -0.27665
 C793 C 0.69322 0.03782 -0.28739
 H794 H 0.70273 0.01212 -0.28933
 C795 C 0.71530 0.06488 -0.29328
 H796 H 0.74128 0.05900 -0.29997
 Zn797 Zn 0.63288 0.00604 -0.26565
 N798 N 0.66051 0.04366 -0.27785
 C799 C 0.63048 0.03700 -0.19794
 N800 N 0.61920 0.00975 -0.21732
 C801 C 0.59860 -0.01415 -0.20252
 C802 C 0.58698 -0.01000 -0.16762
 C803 C 0.61890 0.04252 -0.16348
 C804 C 0.59212 0.02499 -0.32477
 C805 C 0.57460 0.01602 -0.35590
 C806 C 0.56286 -0.03912 -0.33062
 C807 C 0.58016 -0.02893 -0.29973
 N808 N 0.59572 0.00207 -0.29799
 H809 H 0.64800 0.05500 -0.20925
 H810 H 0.59058 -0.03607 -0.21797
 H811 H 0.56939 -0.02834 -0.15661
 H812 H 0.62682 0.06522 -0.14907
 H813 H 0.60526 0.04911 -0.32358
 H814 H 0.57373 0.03392 -0.37772
 H815 H 0.55252 -0.06465 -0.33219
 H816 H 0.58430 -0.04725 -0.27880
 C817 C 0.70390 0.09853 -0.28851
 C818 C 0.67860 -0.09924 -0.29204
 C819 C 0.56130 -0.01700 -0.35979
 C820 C 0.59637 0.01923 -0.14831
 C821 C 0.05255 0.26450 0.83287
 H822 H 0.03585 0.28627 0.83124
 C823 C 0.08196 0.26354 0.81223
 H824 H 0.08728 0.28424 0.79414
 C825 C 0.06580 0.21096 0.85789
 H826 H 0.05981 0.19065 0.87604
 C827 C 0.09594 0.20925 0.83808
 H828 H 0.11220 0.18714 0.84027
 N829 N 0.04412 0.23781 0.85406
 C830 C -0.06827 0.24522 0.86134
 H831 H -0.07109 0.23933 0.88926
 C832 C -0.09718 0.25192 0.84051
 H833 H -0.12211 0.25117 0.85251
 C834 C -0.03246 0.25431 0.81190
 H835 H -0.00742 0.25490 0.80048
 C836 C -0.06055 0.26230 0.79050
 H837 H -0.05669 0.26924 0.76296
 Zn838 Zn 0.00143 0.24126 0.87888
 N839 N -0.03658 0.24699 0.84701
 C840 C -0.01528 0.30814 0.90428
 N841 N 0.00477 0.28034 0.90931
 C842 C 0.02738 0.27913 0.93687
 C843 C 0.02918 0.30570 0.96179
 C844 C -0.01364 0.33572 0.92810
 C845 C -0.00283 0.16957 0.89675
 C846 C -0.00757 0.14232 0.92035
 C847 C -0.02563 0.18267 0.96497
 C848 C -0.02005 0.20893 0.94093
 N849 N -0.00755 0.20231 0.90797
 H850 H -0.03280 0.30886 0.88200
 H851 H 0.04330 0.25693 0.94009
 H852 H 0.04683 0.30391 0.98393
 H853 H -0.03003 0.35748 0.92401
 H854 H 0.00548 0.16459 0.86984
 H855 H -0.00209 0.11659 0.91161
 H856 H -0.03529 0.18916 0.99100
 H857 H -0.02569 0.23478 0.94884
 C858 C -0.09335 0.26153 0.80490
 C859 C 0.10381 0.23546 0.81433
 C860 C -0.01812 0.14887 0.95540
 C861 C 0.00824 0.33431 0.95774
 C862 C 0.44847 0.26298 0.17408
 H863 H 0.46582 0.28427 0.17680
 C864 C 0.41978 0.26126 0.19557
 H865 H 0.41546 0.28107 0.21521
 C866 C 0.43284 0.21145 0.14515
 H867 H 0.43765 0.19233 0.12507
 C868 C 0.40327 0.20915 0.16560
 H869 H 0.38610 0.18779 0.16188
 N870 N 0.45542 0.23745 0.15066
 C871 C 0.56721 0.24452 0.14104
 H872 H 0.56920 0.24043 0.11262
 C873 C 0.59672 0.24956 0.16157
 H874 H 0.62132 0.24937 0.14884
 C875 C 0.53283 0.25018 0.19218
 H876 H 0.50814 0.24975 0.20441
 C877 C 0.56156 0.25643 0.21344
 H878 H 0.55848 0.26112 0.24168
 Zn879 Zn 0.49718 0.24086 0.12525
 N880 N 0.53594 0.24538 0.15640
 C881 C 0.51428 0.30774 0.10127
 N882 N 0.49393 0.28004 0.09584
 C883 C 0.47062 0.27929 0.06893
 C884 C 0.46866 0.30609 0.04472
 C885 C 0.51249 0.33558 0.07818
 C886 C 0.50006 0.16974 0.10988
 C887 C 0.50514 0.14091 0.08843
 C888 C 0.52040 0.17811 0.04008
 C889 C 0.51415 0.20610 0.06204
 N890 N 0.50391 0.20158 0.09620
 H891 H 0.53217 0.30812 0.12325
 H892 H 0.45432 0.25724 0.06559
 H893 H 0.45070 0.30456 0.02279
 H894 H 0.52934 0.35714 0.08228
 H895 H 0.49308 0.16672 0.13749
 H896 H 0.50218 0.11571 0.09960
 H897 H 0.52910 0.18223 0.01315
 H898 H 0.51844 0.23145 0.05199
 C899 C 0.59398 0.25648 0.19808
 C900 C 0.39720 0.23372 0.19191
 C901 C 0.51580 0.14507 0.05322
 C902 C 0.49011 0.33446 0.04896
 C903 C -0.04322 0.77195 0.68880
 H904 H -0.02024 0.78693 0.69178
 C905 C -0.06888 0.77657 0.71127
 H906 H -0.06607 0.79545 0.73215
 C907 C -0.07266 0.72836 0.65627
 H908 H -0.07409 0.71023 0.63453
 C909 C -0.10208 0.73312 0.68003
 H910 H -0.12474 0.71804 0.67502
 N911 N -0.04566 0.74712 0.66063
 C912 C 0.06274 0.75085 0.65460
 H913 H 0.06814 0.76376 0.62995
 C914 C 0.08877 0.74577 0.67967
 H915 H 0.11402 0.75538 0.67423
 C916 C 0.02384 0.72157 0.69130
 H917 H -0.00143 0.71170 0.69566
 C918 C 0.04897 0.71578 0.71681
 H919 H 0.04233 0.70205 0.74065
 Zn920 Zn -0.00738 0.74658 0.63081
 N921 N 0.03072 0.73960 0.66133
 C922 C 0.01318 0.81566 0.61026
 N923 N -0.00952 0.78947 0.60769
 C924 C -0.03968 0.79334 0.59029
 C925 C -0.04864 0.82452 0.57565
 C926 C 0.00541 0.84740 0.59526
 C927 C -0.01248 0.67822 0.60681
 C928 C -0.01188 0.65171 0.58177
 C929 C -0.00428 0.69326 0.53535
 C930 C -0.00503 0.71893 0.56124
 N931 N -0.00912 0.71110 0.59621
 H932 H 0.03651 0.81264 0.62515
 H933 H -0.05747 0.77230 0.58902
 H934 H -0.07328 0.82724 0.56295
 H935 H 0.02301 0.86847 0.59847
 H936 H -0.01528 0.67258 0.63480
 H937 H -0.01436 0.62568 0.59079
 H938 H -0.00077 0.70036 0.50786
 H939 H -0.00162 0.74513 0.55335
 C940 C 0.08190 0.72828 0.71142
 C941 C -0.10075 0.75668 0.70640
 C942 C -0.00753 0.65903 0.54548
 C943 C -0.02630 0.85219 0.57865
 C944 C 0.53682 0.78809 0.31798
 H945 H 0.51846 0.80790 0.32334
 C946 C 0.56182 0.79339 0.29255
 H947 H 0.56259 0.81748 0.27876
 C948 C 0.55832 0.73312 0.33069
 H949 H 0.55699 0.70988 0.34590
 C950 C 0.58424 0.73761 0.30574
 H951 H 0.60272 0.71757 0.30178
 N952 N 0.53514 0.75823 0.33612
 C953 C 0.42717 0.76172 0.36328
 H954 H 0.42693 0.76053 0.39205
 C955 C 0.39675 0.76684 0.34430
 H956 H 0.37307 0.76941 0.35856
 C957 C 0.45804 0.75990 0.30943
 H958 H 0.48161 0.75629 0.29550
 C959 C 0.42861 0.76583 0.28966
 H960 H 0.43013 0.76691 0.26091
 Zn961 Zn 0.49983 0.75664 0.37031
 N962 N 0.45721 0.75923 0.34567
 C963 C 0.48471 0.82040 0.40556
 N964 N 0.50788 0.79553 0.39898
 C965 C 0.54048 0.79816 0.41093
 C966 C 0.55137 0.82713 0.42920
 C967 C 0.49451 0.84985 0.42421
 C968 C 0.49995 0.68524 0.38649
 C969 C 0.50361 0.65698 0.40890
 C970 C 0.51167 0.69536 0.45869
 C971 C 0.50728 0.72270 0.43562
 N972 N 0.50243 0.71740 0.40005
 H973 H 0.45906 0.81799 0.39543
 H974 H 0.55835 0.77799 0.40522
 H975 H 0.57771 0.82916 0.43750
 H976 H 0.47632 0.87014 0.42814
 H977 H 0.49558 0.68156 0.35826
 H978 H 0.50203 0.63153 0.39771
 H979 H 0.51577 0.70040 0.48677
 H980 H 0.50795 0.74822 0.44640
 C981 C 0.39758 0.76999 0.30709
 C982 C 0.58604 0.76802 0.28621
 C983 C 0.51031 0.66199 0.44538
 C984 C 0.52847 0.85373 0.43525
 B985 B -0.01393 0.01185 1.04895
 B986 B -0.02924 -0.00007 1.00903
 B987 B -0.00415 0.03457 1.01251
 B988 B 0.02590 0.02709 1.04370
 B989 B 0.01946 -0.01306 1.05952
 B990 B -0.01532 -0.02972 1.03809
 B991 B 0.03320 -0.01760 0.98818
 B992 B 0.04904 -0.00551 1.02800
 B993 B 0.02398 -0.04015 1.02481
 B994 B -0.00631 -0.03282 0.99383
 B995 B 0.00018 0.00744 0.97786
 B996 B 0.03494 0.02407 0.99918
 B997 B 0.49552 0.52104 0.52794
 B998 B 0.46530 0.53017 0.49798
 B999 B 0.50509 0.54368 0.49140
 B1000 B 0.53234 0.51387 0.50642
 B1001 B 0.50817 0.48098 0.52187
 B1002 B 0.46624 0.49129 0.51673
 B1003 B 0.49471 0.48820 0.45084
 B1004 B 0.52483 0.47936 0.48084
 B1005 B 0.48515 0.46564 0.48730
 B1006 B 0.45773 0.49549 0.47230
 B1007 B 0.48193 0.52842 0.45682
 B1008 B 0.52386 0.51804 0.46196
 B1009 B 0.51944 0.99053 0.51603
 B1010 B 0.54535 1.00858 0.48646
 B1011 B 0.52346 0.97332 0.47534
 B1012 B 0.48484 0.97506 0.49477
 B1013 B 0.48308 1.01282 0.51771
 B1014 B 0.52109 1.03336 0.51255
 B1015 B 0.49127 1.02675 0.44715
 B1016 B 0.46547 1.00892 0.47693
 B1017 B 0.48730 1.04422 0.48753
 B1018 B 0.52582 1.04250 0.46844
 B1019 B 0.52766 1.00487 0.44552
 B1020 B 0.48982 0.98414 0.45072
 B1021 B -0.00628 0.47632 1.04457
 B1022 B 0.02819 0.47997 1.01863
 B1023 B -0.00203 0.45138 1.00822
 B1024 B -0.04038 0.46775 1.01876
 B1025 B -0.03332 0.50787 1.03559
 B1026 B 0.00964 0.51519 1.03566
 B1027 B -0.01076 0.50631 0.96719
 B1028 B -0.04508 0.50212 0.99296
 B1029 B -0.01501 0.53086 1.00322
 B1030 B 0.02348 0.51457 0.99285
 B1031 B 0.01638 0.47462 0.97584
 B1032 B -0.02637 0.46723 0.97576
 B1033 B -0.00414 0.51357 0.46449
 B1034 B 0.03017 0.51707 0.49124
 B1035 B -0.00444 0.54044 0.49941
 B1036 B -0.03938 0.51717 0.48903
 B1037 B -0.02545 0.47825 0.47455
 B1038 B 0.01802 0.47848 0.47577
 B1039 B -0.00457 0.48702 0.54341
 B1040 B -0.03850 0.48365 0.51655
 B1041 B -0.00402 0.46026 0.50847
 B1042 B 0.03095 0.48356 0.51892
 B1043 B 0.01699 0.52242 0.53340
 B1044 B -0.02646 0.52217 0.53216
 B1045 B 0.53379 0.00590 -0.03474
 B1046 B 0.54829 -0.00183 0.00673
 B1047 B 0.51820 0.02751 0.00025
 B1048 B 0.49181 0.01374 -0.03277
 B1049 B 0.50675 -0.02524 -0.04642
 B1050 B 0.54220 -0.03438 -0.02187
 B1051 B 0.48818 -0.02968 0.02331
 B1052 B 0.47405 -0.02246 -0.01793
 B1053 B 0.50458 -0.05152 -0.01118
 B1054 B 0.53025 -0.03751 0.02183
 B1055 B 0.51552 0.00126 0.03524
 B1056 B 0.48016 0.01063 0.01061
 B1057 B 0.48531 0.47402 -0.03614
 B1058 B 0.47859 0.47982 0.00761
 B1059 B 0.50474 0.44888 -0.00636
 B1060 B 0.52627 0.46296 -0.04211
 B1061 B 0.51309 0.50372 -0.05002
 B1062 B 0.48291 0.51380 -0.01919
 B1063 B 0.54261 0.50190 0.01610
 B1064 B 0.54945 0.49631 -0.02752
 B1065 B 0.52313 0.52720 -0.01369
 B1066 B 0.50181 0.51303 0.02193
 B1067 B 0.51492 0.47230 0.02984
 B1068 B 0.54499 0.46212 -0.00086
 B1069 B -0.02178 0.98857 0.49967
 B1070 B -0.04690 1.00723 0.52973
 B1071 B -0.02291 0.97373 0.54136
 B1072 B 0.01449 0.97624 0.51975
 B1073 B 0.01333 1.01250 0.49470
 B1074 B -0.02525 1.03147 0.50089
 B1075 B 0.00805 1.03050 0.56483
 B1076 B 0.03313 1.01208 0.53463
 B1077 B 0.00916 1.04556 0.52331
 B1078 B -0.02815 1.04308 0.54467
 B1079 B -0.02708 1.00684 0.56972
 B1080 B 0.01136 0.98778 0.56355
 B1081 B 0.76518 0.21644 0.22172
 B1082 B 0.75417 0.20011 0.26114
 B1083 B 0.78823 0.22628 0.25846
 B1084 B 0.77939 0.25668 0.22820
 B1085 B 0.73930 0.24948 0.21224
 B1086 B 0.72383 0.21393 0.23256
 B1087 B 0.73562 0.26187 0.28401
 B1088 B 0.74643 0.27870 0.24479
 B1089 B 0.71266 0.25279 0.24718
 B1090 B 0.72119 0.22207 0.27718
 B1091 B 0.76154 0.22926 0.29325
 B1092 B 0.77685 0.26489 0.27292
 B1093 B 0.72965 0.75048 0.68990
 B1094 B 0.71988 0.78363 0.71639
 B1095 B 0.70162 0.74563 0.72310
 B1096 B 0.73037 0.71465 0.71438
 B1097 B 0.76716 0.73485 0.70260
 B1098 B 0.76036 0.77779 0.70372
 B1099 B 0.75203 0.75373 0.77078
 B1100 B 0.76199 0.72079 0.74427
 B1101 B 0.77981 0.75877 0.73773
 B1102 B 0.75126 0.78955 0.74637
 B1103 B 0.71454 0.76949 0.75817
 B1104 B 0.72149 0.72642 0.75716
 B1105 B 0.26938 0.28775 0.78098
 B1106 B 0.25666 0.30094 0.74058
 B1107 B 0.29215 0.27755 0.74472
 B1108 B 0.28606 0.24859 0.77718
 B1109 B 0.24562 0.25413 0.79294
 B1110 B 0.22772 0.28706 0.77006
 B1111 B 0.24158 0.23616 0.72258
 B1112 B 0.25419 0.22337 0.76306
 B1113 B 0.21858 0.24679 0.75855
 B1114 B 0.22496 0.27563 0.72602
 B1115 B 0.26516 0.27001 0.71045
 B1116 B 0.28310 0.23712 0.73337
 B1117 B 0.22203 0.74243 0.29884
 B1118 B 0.23490 0.71038 0.27251
 B1119 B 0.20252 0.73500 0.25996
 B1120 B 0.21022 0.77546 0.27331
 B1121 B 0.24886 0.77545 0.29466
 B1122 B 0.26388 0.73459 0.29432
 B1123 B 0.25830 0.75538 0.22559
 B1124 B 0.24547 0.78745 0.25183
 B1125 B 0.27793 0.76278 0.26452
 B1126 B 0.27014 0.72234 0.25115
 B1127 B 0.23159 0.72242 0.22980
 B1128 B 0.21651 0.76308 0.23016
 B1129 B 0.25458 0.73168 0.73806
 B1130 B 0.25768 0.71509 0.77892
 B1131 B 0.27346 0.75383 0.77070
 B1132 B 0.24769 0.77408 0.74163
 B1133 B 0.21517 0.74680 0.73190
 B1134 B 0.22185 0.70967 0.75485
 B1135 B 0.21321 0.76109 0.80301
 B1136 B 0.21021 0.77809 0.76257
 B1137 B 0.19454 0.73878 0.76989
 B1138 B 0.22023 0.71890 0.79931
 B1139 B 0.25276 0.74655 0.80909
 B1140 B 0.24642 0.78326 0.78617
 B1141 B 0.22716 0.26976 0.21360
 B1142 B 0.23766 0.28910 0.25216
 B1143 B 0.20447 0.26229 0.25056
 B1144 B 0.21384 0.23001 0.22238
 B1145 B 0.25407 0.23725 0.20670
 B1146 B 0.26839 0.27442 0.22527
 B1147 B 0.25758 0.22894 0.27888
 B1148 B 0.24743 0.20998 0.24028
 B1149 B 0.28061 0.23705 0.24232
 B1150 B 0.27086 0.26899 0.27052
 B1151 B 0.23097 0.26174 0.28596
 B1152 B 0.21650 0.22463 0.26732
 B1153 B 0.76090 0.76490 0.26712
 B1154 B 0.76485 0.78125 0.22644
 B1155 B 0.77908 0.74194 0.23479
 B1156 B 0.75245 0.72267 0.26348
 B1157 B 0.72089 0.75104 0.27251
 B1158 B 0.72901 0.78781 0.24962
 B1159 B 0.71885 0.73663 0.20133
 B1160 B 0.71490 0.71984 0.24183
 B1161 B 0.70077 0.75949 0.23398
 B1162 B 0.72740 0.77863 0.20516
 B1163 B 0.75893 0.75002 0.19606
 B1164 B 0.75095 0.71343 0.21888
 B1165 B 0.73541 0.22857 0.77140
 B1166 B 0.74720 0.21405 0.73136
 B1167 B 0.71381 0.24071 0.73463
 B1168 B 0.72244 0.26925 0.76715
 B1169 B 0.76173 0.26034 0.78402
 B1170 B 0.77694 0.22552 0.76191
 B1171 B 0.76867 0.27624 0.71359
 B1172 B 0.75658 0.29127 0.75349
 B1173 B 0.78978 0.26473 0.75075
 B1174 B 0.78146 0.23586 0.71828
 B1175 B 0.74195 0.24490 0.70112
 B1176 B 0.72691 0.27981 0.72317
 C1177 C 0.45217 1.04197 0.36221
 C1178 C 0.47351 1.06996 0.36180
 C1179 C 0.48958 1.07003 0.39417
 C1180 C 0.47681 1.04210 0.41173
 O1181 O 0.45412 1.02524 0.39243
 H1182 H 0.47751 1.08766 0.34026
 H1183 H 0.50933 1.08734 0.40320
 C1184 C -0.03631 0.52744 0.87846
 C1185 C -0.01167 0.55261 0.88181
 C1186 C 0.00251 0.54795 0.91468
 C1187 C -0.01459 0.52058 0.92878
 O1188 O -0.03765 0.50806 0.90687
 H1189 H -0.00491 0.57231 0.86314
 H1190 H 0.02213 0.56327 0.92730
 C1191 C 0.07694 -0.03167 0.90523
 C1192 C 0.06495 -0.06440 0.90962
 C1193 C 0.04953 -0.06434 0.94178
 C1194 C 0.05389 -0.03186 0.95544
 O1195 O 0.07035 -0.01187 0.93303
 H1196 H 0.06588 -0.08547 0.89097
 H1197 H 0.03479 -0.08499 0.95281
 C1198 C 0.51940 0.46848 0.36090
 C1199 C 0.48502 0.46275 0.35580
 C1200 C 0.47070 0.46677 0.38869
 C1201 C 0.49735 0.47444 0.41139
 O1202 O 0.52667 0.47550 0.39450
 H1203 H 0.47175 0.45752 0.33104
 H1204 H 0.44392 0.46599 0.39499
 C1205 C 0.59358 0.51751 0.09497
 C1206 C 0.60825 0.54259 0.07454
 C1207 C 0.59288 0.54002 0.04202
 C1208 C 0.56979 0.51366 0.04490
 O1209 O 0.57049 0.49989 0.07700
 H1210 H 0.62749 0.56091 0.08247
 H1211 H 0.59711 0.55667 0.01976
 C1212 C 0.04940 1.05635 0.64630
 C1213 C 0.02396 1.08040 0.64718
 C1214 C 0.00656 1.07622 0.61590
 C1215 C 0.02258 1.04977 0.59847
 O1216 O 0.04864 1.03784 0.61684
 H1217 H 0.01813 1.09801 0.66854
 H1218 H -0.01621 1.08951 0.60771
 C1219 C -0.02764 0.47382 0.63426
 C1220 C 0.00534 0.46213 0.63789
 C1221 C 0.01899 0.46425 0.60461
 C1222 C -0.00683 0.47652 0.58336
 O1223 O -0.03467 0.48277 0.60141
 H1224 H 0.01821 0.45367 0.66176
 H1225 H 0.04476 0.45831 0.59696
 C1226 C 0.43689 -0.04474 0.10070
 C1227 C 0.43204 -0.07655 0.08575
 C1228 C 0.44988 -0.07610 0.05475
 C1229 C 0.46484 -0.04428 0.05354
 O1230 O 0.45651 -0.02515 0.08121
 H1231 H 0.41642 -0.09709 0.09565
 H1232 H 0.45070 -0.09623 0.03509
 C1233 C 0.39308 0.46081 0.03539
 C1234 C 0.40269 0.47879 0.06540
 C1235 C 0.43589 0.48686 0.06013
 C1236 C 0.44390 0.47348 0.02709
 O1237 O 0.41792 0.45752 0.01223
 H1238 H 0.38732 0.48529 0.08822
 H1239 H 0.45208 0.50159 0.07786
 C1240 C -0.13570 0.98447 0.52240
 C1241 C -0.13971 1.01313 0.54339
 C1242 C -0.10802 1.02664 0.54708
 C1243 C -0.08690 1.00529 0.52813
 O1244 O -0.10375 0.97994 0.51273
 H1245 H -0.16274 1.02257 0.55545
 H1246 H -0.10091 1.04854 0.56315
 C1247 C -0.11695 0.01720 0.98453
 C1248 C -0.11862 -0.01804 0.98381
 C1249 C -0.08704 -0.02882 0.99287
 C1250 C -0.06805 0.00034 0.99834
 O1251 O -0.08598 0.02826 0.99300
 H1252 H -0.14020 -0.03439 0.97838
 H1253 H -0.07885 -0.05501 0.99546
 C1254 C 0.39101 0.58322 0.50978
 C1255 C 0.41337 0.60239 0.53007
 C1256 C 0.44314 0.58549 0.52872
 C1257 C 0.43710 0.55707 0.50770
 O1258 O 0.40523 0.55548 0.49631
 H1259 H 0.40851 0.62559 0.54483
 H1260 H 0.46648 0.59317 0.54184
 C1261 C 0.11604 0.54850 0.47919
 C1262 C 0.10285 0.56066 0.44774
 C1263 C 0.06966 0.55163 0.44787
 C1264 C 0.06483 0.53385 0.47907
 O1265 O 0.09304 0.53251 0.49852
 H1266 H 0.11552 0.57598 0.42796
 H1267 H 0.05147 0.55864 0.42776
 C1268 C 0.63447 0.02657 0.02413
 C1269 C 0.62871 0.01172 0.05676
 C1270 C 0.59655 -0.00086 0.05471
 C1271 C 0.58502 0.00711 0.02093
 O1272 O 0.60802 0.02370 0.00232
 H1273 H 0.64545 0.01124 0.07975
 H1274 H 0.58280 -0.01375 0.07563
 C1275 C 0.63471 0.98821 0.49117
 C1276 C 0.63833 1.02177 0.48099
 C1277 C 0.60630 1.03482 0.48079
 C1278 C 0.58536 1.00839 0.49086
 O1279 O 0.60271 0.98043 0.49807
 H1280 H 0.66123 1.03480 0.47290
 H1281 H 0.59889 1.05995 0.47201
 C1282 C 0.11782 0.46262 1.03341
 C1283 C 0.10567 0.44415 1.06156
 C1284 C 0.07159 0.44729 1.05979
 C1285 C 0.06496 0.46832 1.03119
 O1286 O 0.09326 0.47704 1.01452
 H1287 H 0.11989 0.42841 1.07992
 H1288 H 0.05422 0.43443 1.07708
 C1289 C -0.00339 0.36981 0.48995
 C1290 C 0.01176 0.36823 0.52312
 C1291 C 0.01155 0.40078 0.53596
 C1292 C -0.00359 0.41999 0.50969
 O1293 O -0.01271 0.40114 0.48174
 H1294 H 0.02309 0.34621 0.53564
 H1295 H 0.02304 0.40955 0.56052
 C1296 C 0.50411 -0.13917 -0.04242
 C1297 C 0.51207 -0.14536 -0.00730
 C1298 C 0.51050 -0.11460 0.00924
 C1299 C 0.50134 -0.09155 -0.01677
 O1300 O 0.49759 -0.10653 -0.04840
 H1301 H 0.51917 -0.16938 0.00460
 H1302 H 0.51699 -0.10930 0.03677
 C1303 C 0.03520 -0.12880 1.05026
 C1304 C 0.06445 -0.12580 1.03042
 C1305 C 0.06486 -0.09314 1.01864
 C1306 C 0.03604 -0.07812 1.03210
 O1307 O 0.01803 -0.09980 1.05139
 H1308 H 0.08348 -0.14491 1.02499
 H1309 H 0.08378 -0.08210 1.00151
 C1310 C 0.48062 0.37580 0.50755
 C1311 C 0.46235 0.37403 0.47598
 C1312 C 0.46024 0.40683 0.46404
 C1313 C 0.47753 0.42615 0.48902
 O1314 O 0.48962 0.40739 0.51540
 H1315 H 0.45144 0.35167 0.46335
 H1316 H 0.44800 0.41549 0.43990
 C1317 C 0.46427 1.12821 0.51861
 C1318 C 0.44062 1.12646 0.49124
 C1319 C 0.44523 1.09529 0.47568
 C1320 C 0.47102 1.08018 0.49491
 O1321 O 0.48262 1.10018 0.52069
 H1322 H 0.42282 1.14578 0.48281
 H1323 H 0.43173 1.08511 0.45278
 C1324 C -0.02327 0.62097 1.02231
 C1325 C -0.04178 0.62106 0.99093
 C1326 C -0.04053 0.58837 0.97840
 C1327 C -0.02149 0.57062 1.00305
 O1328 O -0.01097 0.59044 1.02954
 H1329 H -0.05486 0.64221 0.97868
 H1330 H -0.05286 0.57855 0.95462
 C1331 C 0.52530 0.61648 -0.03865
 C1332 C 0.53246 0.62076 -0.00282
 C1333 C 0.53447 0.58882 0.01077
 C1334 C 0.52930 0.56697 -0.01763
 O1335 O 0.52343 0.58376 -0.04765
 H1336 H 0.53489 0.64423 0.01219
 H1337 H 0.53747 0.58237 0.03857
 C1338 C 0.02991 1.12827 0.48678
 C1339 C 0.05435 1.12822 0.51354
 C1340 C 0.05008 1.09826 0.53106
 C1341 C 0.02386 1.08176 0.51356
 O1342 O 0.01139 1.10005 0.48703
 H1343 H 0.07269 1.14776 0.52045
 H1344 H 0.06445 1.08958 0.55391
 C1345 C 0.76210 0.73474 0.86378
 C1346 C 0.77409 0.76779 0.86621
 C1347 C 0.77273 0.78007 0.83221
 C1348 C 0.76057 0.75342 0.81167
 O1349 O 0.75378 0.72629 0.83086
 H1350 H 0.78191 0.78167 0.88986
 H1351 H 0.77885 0.80562 0.82373
 C1352 C 0.27327 0.18642 0.36273
 C1353 C 0.29889 0.17087 0.34404
 C1354 C 0.29686 0.18395 0.31074
 C1355 C 0.27074 0.20739 0.31168
 O1356 O 0.25584 0.20828 0.34321
 H1357 H 0.31594 0.15114 0.35322
 H1358 H 0.31231 0.17648 0.28840
 C1359 C 0.72456 0.31167 0.36375
 C1360 C 0.69452 0.29382 0.36568
 C1361 C 0.69316 0.27481 0.33536
 C1362 C 0.72240 0.28274 0.31697
 O1363 O 0.74172 0.30494 0.33448
 H1364 H 0.67661 0.29364 0.38741
 H1365 H 0.67396 0.25611 0.32829
 C1366 C 0.19270 0.80000 0.88673
 C1367 C 0.16689 0.77626 0.88695
 C1368 C 0.16832 0.76057 0.85451
 C1369 C 0.19508 0.77574 0.83703
 O1370 O 0.20972 0.79979 0.85661
 H1371 H 0.15035 0.76989 0.90883
 H1372 H 0.15339 0.73890 0.84609
 C1373 C 0.28225 0.78481 0.13851
 C1374 C 0.30626 0.75919 0.14088
 C1375 C 0.30150 0.74477 0.17351
 C1376 C 0.27505 0.76256 0.18855
 O1377 O 0.26349 0.78665 0.16747
 H1378 H 0.32497 0.75161 0.12148
 H1379 H 0.31545 0.72371 0.18489
 C1380 C 0.78796 0.31984 0.63187
 C1381 C 0.81997 0.30672 0.63821
 C1382 C 0.81789 0.29108 0.67019
 C1383 C 0.78523 0.29662 0.68205
 O1384 O 0.76691 0.31367 0.65854
 H1385 H 0.84184 0.30634 0.62101
 H1386 H 0.83730 0.27528 0.68211
 C1387 C 0.23150 0.17818 0.64776
 C1388 C 0.20840 0.16272 0.66982
 C1389 C 0.20746 0.18255 0.69943
 C1390 C 0.22998 0.20895 0.69353
 O1391 O 0.24457 0.20632 0.66191
 H1392 H 0.19413 0.13951 0.66504
 H1393 H 0.19256 0.17746 0.72278
 C1394 C 0.69779 0.70077 0.11580
 C1395 C 0.67164 0.72424 0.11700
 C1396 C 0.67341 0.73848 0.15009
 C1397 C 0.70041 0.72287 0.16681
 O1398 O 0.71485 0.69971 0.14622
 H1399 H 0.65397 0.73122 0.09613
 H1400 H 0.65831 0.75947 0.15962
 C1401 C 0.20855 0.62272 0.28248
 C1402 C 0.23205 0.62345 0.31008
 C1403 C 0.24547 0.65542 0.30997
 C1404 C 0.22925 0.67194 0.28247
 O1405 O 0.20718 0.65208 0.26552
 H1406 H 0.23873 0.60335 0.32835
 H1407 H 0.26450 0.66560 0.32809
 C1408 C 0.72636 0.12631 0.71063
 C1409 C 0.76092 0.12447 0.70425
 C1410 C 0.77295 0.15643 0.71016
 C1411 C 0.74509 0.17562 0.71957
 O1412 O 0.71681 0.15756 0.71936
 H1413 H 0.77618 0.10261 0.69727
 H1414 H 0.79920 0.16457 0.70869
 C1415 C 0.77229 0.11119 0.27958
 C1416 C 0.73738 0.10844 0.27698
 C1417 C 0.72623 0.14053 0.27060
 C1418 C 0.75499 0.16074 0.26977
 O1419 O 0.78294 0.14303 0.27568
 H1420 H 0.72174 0.08584 0.27879
 H1421 H 0.70013 0.14824 0.26642
 C1422 C 0.30875 0.63872 0.78885
 C1423 C 0.31669 0.65385 0.82113
 C1424 C 0.29907 0.68338 0.82172
 C1425 C 0.28175 0.68461 0.78966
 O1426 O 0.28754 0.65740 0.76959
 H1427 H 0.33374 0.64489 0.84173
 H1428 H 0.29919 0.70207 0.84302
 C1429 C 0.27275 0.39019 0.72115
 C1430 C 0.23766 0.39195 0.72272
 C1431 C 0.22702 0.35944 0.72858
 C1432 C 0.25613 0.34001 0.73023
 O1433 O 0.28373 0.35856 0.72532
 H1434 H 0.22147 0.41407 0.72080
 H1435 H 0.20108 0.35106 0.73243
 C1436 C 0.81586 0.85815 0.22052
 C1437 C 0.82612 0.84308 0.18909
 C1438 C 0.80926 0.81291 0.18725
 C1439 C 0.78997 0.81147 0.21772
 O1440 O 0.79398 0.83891 0.23806
 H1441 H 0.84397 0.85270 0.16980
 H1442 H 0.81079 0.79420 0.16605
 C1443 C 0.68446 0.86672 0.69884
 C1444 C 0.67483 0.85170 0.66697
 C1445 C 0.68425 0.81875 0.66970
 C1446 C 0.69981 0.81581 0.70260
 O1447 O 0.69932 0.84488 0.72060
 H1448 H 0.66139 0.86282 0.64468
 H1449 H 0.67996 0.79973 0.64948
 C1450 C 0.21612 0.37827 0.26196
 C1451 C 0.25090 0.38169 0.26556
 C1452 C 0.26331 0.34957 0.26286
 C1453 C 0.23531 0.32880 0.25788
 O1454 O 0.20664 0.34617 0.25753
 H1455 H 0.26561 0.40471 0.26966
 H1456 H 0.28977 0.34218 0.26406
 C1457 C 0.13174 0.23206 0.78834
 C1458 C 0.12562 0.23090 0.75229
 C1459 C 0.15660 0.23334 0.73692
 C1460 C 0.17999 0.23535 0.76455
 O1461 O 0.16466 0.23515 0.79607
 H1462 H 0.10119 0.23041 0.73886
 H1463 H 0.16132 0.23585 0.70872
 C1464 C 0.61410 0.77369 0.26087
 C1465 C 0.61460 0.79775 0.23414
 C1466 C 0.64602 0.79524 0.21922
 C1467 C 0.66218 0.76952 0.23747
 O1468 O 0.64301 0.75690 0.26303
 H1469 H 0.59482 0.81547 0.22673
 H1470 H 0.65627 0.81096 0.19829
 C1471 C 0.62450 0.26502 0.21977
 C1472 C 0.62535 0.29014 0.24552
 C1473 C 0.65774 0.29019 0.25850
 C1474 C 0.67448 0.26471 0.24022
 O1475 O 0.65428 0.24967 0.21632
 H1476 H 0.60490 0.30686 0.25343
 H1477 H 0.66766 0.30712 0.27882
 C1478 C 0.10897 0.72362 0.73861
 C1479 C 0.10736 0.70257 0.76796
 C1480 C 0.13808 0.70589 0.78470
 C1481 C 0.15591 0.72928 0.76495
 O1482 O 0.13856 0.73934 0.73662
 H1483 H 0.08692 0.68581 0.77576
 H1484 H 0.14690 0.69184 0.80766
 C1485 C 0.87041 0.76357 0.72707
 C1486 C 0.86829 0.78731 0.75443
 C1487 C 0.83488 0.78793 0.76382
 C1488 C 0.81912 0.76443 0.74191
 O1489 O 0.84057 0.74963 0.71986
 H1490 H 0.88806 0.80339 0.76555
 H1491 H 0.82331 0.80485 0.78294
 C1492 C 0.36918 0.22988 0.21748
 C1493 C 0.37400 0.23392 0.25353
 C1494 C 0.34242 0.23385 0.26755
 C1495 C 0.32014 0.22913 0.23923
 O1496 O 0.33658 0.22712 0.20849
 H1497 H 0.39768 0.23850 0.26761
 H1498 H 0.33633 0.23947 0.29500
 C1499 C 0.36648 0.77732 0.28622
 C1500 C 0.36575 0.79630 0.25540
 C1501 C 0.33296 0.79494 0.24364
 C1502 C 0.31603 0.77511 0.26800
 O1503 O 0.33633 0.76458 0.29399
 H1504 H 0.38671 0.80928 0.24280
 H1505 H 0.32291 0.80644 0.21970
 C1506 C 0.87702 0.27276 0.78348
 C1507 C 0.87723 0.30121 0.76226
 C1508 C 0.84538 0.30311 0.74809
 C1509 C 0.82791 0.27525 0.76093
 O1510 O 0.84713 0.25706 0.78298
 H1511 H 0.89804 0.31879 0.75807
 H1512 H 0.83645 0.32252 0.73012
 C1513 C 0.54832 0.97165 0.60497
 C1514 C 0.54312 0.93826 0.59422
 C1515 C 0.53281 0.94004 0.55949
 C1516 C 0.53264 0.97427 0.55160
 O1517 O 0.54205 0.99335 0.57904
 H1518 H 0.54674 0.91530 0.60952
 H1519 H 0.52575 0.91900 0.54220
 C1520 C 0.01861 0.46616 1.13571
 C1521 C -0.00762 0.44237 1.13649
 C1522 C -0.02154 0.44239 1.10295
 C1523 C -0.00280 0.46591 1.08445
 O1524 O 0.02067 0.48068 1.10437
 H1525 H -0.01542 0.42618 1.15815
 H1526 H -0.04223 0.42670 1.09302
 C1527 C -0.06277 0.03126 1.12876
 C1528 C -0.08000 0.05227 1.10529
 C1529 C -0.06477 0.04792 1.07342
 C1530 C -0.03864 0.02529 1.07919
 O1531 O -0.03768 0.01470 1.11271
 H1532 H -0.10207 0.06799 1.10979
 H1533 H -0.07226 0.06000 1.04888
 C1534 C 0.47347 0.53658 0.61958
 C1535 C 0.50620 0.54914 0.62230
 C1536 C 0.51920 0.54687 0.58864
 C1537 C 0.49319 0.53389 0.56778
 O1538 O 0.46575 0.52739 0.58667
 H1539 H 0.51975 0.55679 0.64621
 H1540 H 0.54513 0.55190 0.58093
 C1541 C 0.43059 0.45867 -0.11270
 C1542 C 0.41702 0.43349 -0.09151
 C1543 C 0.43459 0.43544 -0.06020
 C1544 C 0.45766 0.46164 -0.06429
 O1545 O 0.45521 0.47563 -0.09618
 H1546 H 0.39702 0.41548 -0.09789
 H1547 H 0.43122 0.41901 -0.03756
 C1548 C -0.05468 0.96148 0.41414
 C1549 C -0.04301 0.92997 0.42474
 C1550 C -0.03084 0.93480 0.45858
 C1551 C -0.03596 0.96884 0.46605
 O1552 O -0.05048 0.98493 0.43920
 H1553 H -0.04310 0.90641 0.40966
 H1554 H -0.01863 0.91605 0.47531
 C1555 C 0.01418 0.52192 0.37208
 C1556 C -0.01313 0.54403 0.37176
 C1557 C -0.02494 0.54422 0.40594
 C1558 C -0.00350 0.52277 0.42426
 O1559 O 0.01947 0.50881 0.40366
 H1560 H -0.02306 0.55859 0.34968
 H1561 H -0.04602 0.55873 0.41638
 C1562 C 0.57931 0.02797 -0.11482
 C1563 C 0.56416 0.05907 -0.10937
 C1564 C 0.54641 0.05559 -0.07885
 C1565 C 0.55330 0.02314 -0.06666
 O1566 O 0.57244 0.00587 -0.08933
 H1567 H 0.56392 0.08072 -0.12707
 H1568 H 0.52887 0.07402 -0.06799
 C1569 C 0.63240 0.52690 -0.05189
 C1570 C 0.63577 0.49444 -0.06571
 C1571 C 0.60500 0.47930 -0.06084
 C1572 C 0.58518 0.50359 -0.04435
 O1573 O 0.60163 0.53256 -0.03944
 H1574 H 0.65826 0.48273 -0.07670
 H1575 H 0.59838 0.45310 -0.06680
 C1576 C 0.12355 1.02788 0.52803
 C1577 C 0.12547 0.99923 0.54905
 C1578 C 0.09270 0.98981 0.55481
 C1579 C 0.07312 1.01333 0.53688
 O1580 O 0.09183 1.03643 0.52058
 H1581 H 0.14799 0.98706 0.55961
 H1582 H 0.08407 0.96830 0.57023
 C1583 C 0.13914 -0.02261 1.03977
 C1584 C 0.14054 0.01227 1.04501
 C1585 C 0.10773 0.02301 1.04297
 C1586 C 0.08850 -0.00587 1.03654
 O1587 O 0.10749 -0.03346 1.03494
 H1588 H 0.16256 0.02833 1.04929
 H1589 H 0.09896 0.04906 1.04480
 C1590 C 0.60002 0.42759 0.47633
 C1591 C 0.57922 0.40675 0.45579
 C1592 C 0.54941 0.42360 0.45305
 C1593 C 0.55377 0.45322 0.47252
 O1594 O 0.58461 0.45594 0.48624
 H1595 H 0.58498 0.38259 0.44329
 H1596 H 0.52707 0.41491 0.43876
 C1597 C -0.12524 0.45883 0.53121
 C1598 C -0.11102 0.43701 0.55571
 C1599 C -0.07697 0.44224 0.55343
 C1600 C -0.07309 0.46754 0.52840
 O1601 O -0.10236 0.47705 0.51430
 H1602 H -0.12384 0.41804 0.57159
 H1603 H -0.05739 0.42866 0.56779
 C1604 C 0.38841 -0.05404 -0.03250
 C1605 C 0.39521 -0.04497 -0.06717
 C1606 C 0.42703 -0.03147 -0.06635
 C1607 C 0.43747 -0.03327 -0.03128
 O1608 O 0.41396 -0.04675 -0.01060
 H1609 H 0.37893 -0.04777 -0.09034
 H1610 H 0.44116 -0.02183 -0.08879
 C1611 C 0.37483 1.02416 0.47328
 C1612 C 0.37548 0.99715 0.44957
 C1613 C 0.40850 0.98711 0.44848
 C1614 C 0.42570 1.00874 0.47146
 O1615 O 0.40524 1.03097 0.48683
 H1616 H 0.35455 0.98618 0.43457
 H1617 H 0.41893 0.96695 0.43213
 C1618 C -0.12691 0.53887 0.97057
 C1619 C -0.12825 0.51148 0.94735
 C1620 C -0.09905 0.49405 0.95303
 C1621 C -0.08165 0.51209 0.97902
 O1622 O -0.09879 0.53908 0.99016
 H1623 H -0.14832 0.50461 0.92882
 H1624 H -0.09123 0.47097 0.93953
 C1625 C -0.00564 0.63075 0.51910
 C1626 C 0.00033 0.63395 0.48304
 C1627 C 0.00116 0.60145 0.46993
 C1628 C -0.00444 0.58069 0.49877
 O1629 O -0.00850 0.59849 0.52847
 H1630 H 0.00424 0.65696 0.46792
 H1631 H 0.00593 0.59418 0.44271
 C1632 C 0.52553 0.11545 0.03126
 C1633 C 0.55469 0.11482 0.01139
 C1634 C 0.55589 0.08308 -0.00279
 C1635 C 0.52686 0.06651 0.00845
 O1636 O 0.50867 0.08612 0.02999
 H1637 H 0.57357 0.13473 0.00876
 H1638 H 0.57617 0.07335 -0.01901
 C1639 C -0.01923 0.12137 0.98255
 C1640 C -0.01916 0.12757 1.01878
 C1641 C -0.01558 0.09672 1.03425
 C1642 C -0.01462 0.07328 1.00676
 O1643 O -0.01607 0.08835 0.97517
 H1644 H -0.01915 0.15179 1.03263
 H1645 H -0.01183 0.09221 1.06239
 C1646 C 0.51586 0.63263 0.46933
 C1647 C 0.53480 0.63344 0.50045
 C1648 C 0.53388 0.60101 0.51330
 C1649 C 0.51412 0.58285 0.48942
 O1650 O 0.50349 0.60194 0.46260
 H1651 H 0.54843 0.65484 0.51197
 H1652 H 0.54661 0.59181 0.53685
 C1653 C 0.54092 0.88685 0.44864
 C1654 C 0.57195 0.90032 0.43935
 C1655 C 0.57072 0.93349 0.44949
 C1656 C 0.53966 0.93772 0.46583
 O1657 O 0.52120 0.90949 0.46443
 H1658 H 0.59156 0.88848 0.42350
 H1659 H 0.58883 0.95283 0.44202
 C1660 C 0.00870 0.36238 0.98434
 C1661 C 0.01487 0.35849 1.02028
 C1662 C 0.01133 0.39023 1.03483
 C1663 C 0.00389 0.41142 1.00669
 O1664 O 0.00190 0.39435 0.97614
 H1665 H 0.02033 0.33516 1.03437
 H1666 H 0.01345 0.39660 1.06270
 C1667 C 0.49052 0.36176 0.02198
 C1668 C 0.48703 0.35602 -0.01412
 C1669 C 0.49178 0.38693 -0.02954
 C1670 C 0.49679 0.40960 -0.00177
 O1671 O 0.49675 0.39420 0.02955
 H1672 H 0.48291 0.33193 -0.02765
 H1673 H 0.49202 0.39224 -0.05778
 C1674 C -0.03784 0.88645 0.56810
 C1675 C -0.07012 0.89835 0.57454
 C1676 C -0.06953 0.93167 0.56514
 C1677 C -0.03726 0.93764 0.55239
 O1678 O -0.01770 0.91027 0.55498
 H1679 H -0.09093 0.88492 0.58693
 H1680 H -0.08969 0.94971 0.56958
 C1681 C 0.21075 0.31155 0.12925
 C1682 C 0.17941 0.29607 0.13296
 C1683 C 0.18059 0.28028 0.16501
 C1684 C 0.21222 0.28762 0.17921
 O1685 O 0.23073 0.30626 0.15731
 H1686 H 0.15840 0.29515 0.11430
 H1687 H 0.16110 0.26407 0.17609
 C1688 C 0.72422 0.77112 0.59704
 C1689 C 0.70193 0.74381 0.59515
 C1690 C 0.70121 0.73063 0.62889
 C1691 C 0.72272 0.75115 0.64869
 O1692 O 0.73694 0.77507 0.62928
 H1693 H 0.68729 0.73502 0.57241
 H1694 H 0.68597 0.70953 0.63818
 C1695 C 0.27547 0.68940 0.65623
 C1696 C 0.30614 0.68342 0.67303
 C1697 C 0.30432 0.70048 0.70469
 C1698 C 0.27254 0.71528 0.70491
 O1699 O 0.25522 0.70874 0.67537
 H1700 H 0.32685 0.66769 0.66376
 H1701 H 0.32314 0.70039 0.72582
 C1702 C 0.78596 0.16755 0.14176
 C1703 C 0.80676 0.15062 0.16551
 C1704 C 0.80179 0.16589 0.19733
 C1705 C 0.77912 0.19196 0.19122
 O1706 O 0.76916 0.19286 0.15734
 H1707 H 0.82373 0.12952 0.16074
 H1708 H 0.81409 0.15888 0.22194
 C1709 C 0.72303 0.17581 0.84873
 C1710 C 0.69948 0.15962 0.82712
 C1711 C 0.69917 0.17750 0.79631
 C1712 C 0.72225 0.20368 0.80130
 O1713 O 0.73677 0.20260 0.83324
 H1714 H 0.68491 0.13691 0.83277
 H1715 H 0.68433 0.17135 0.77285
 C1716 C 0.20164 0.71574 0.38757
 C1717 C 0.17151 0.73282 0.38142
 C1718 C 0.17422 0.74547 0.34768
 C1719 C 0.20560 0.73495 0.33589
 O1720 O 0.22210 0.71720 0.36000
 H1721 H 0.15013 0.73574 0.39909
 H1722 H 0.15557 0.76034 0.33332
 C1723 C 0.78469 0.80795 0.34850
 C1724 C 0.81707 0.80609 0.33494
 C1725 C 0.81358 0.78941 0.30317
 C1726 C 0.77945 0.78151 0.30024
 O1727 O 0.76190 0.79331 0.32752
 H1728 H 0.84010 0.81707 0.34604
 H1729 H 0.83336 0.78524 0.28387
 C1730 C 0.28070 0.34120 0.85872
 C1731 C 0.31441 0.33325 0.85425
 C1732 C 0.31525 0.31336 0.82453
 C1733 C 0.28213 0.31170 0.81221
 O1734 O 0.26094 0.32787 0.83366
 H1735 H 0.33539 0.33915 0.87205
 H1736 H 0.33716 0.30000 0.81436
 C1737 C 0.77667 0.38000 0.76864
 C1738 C 0.74508 0.38028 0.78425
 C1739 C 0.73366 0.34766 0.78158
 C1740 C 0.75909 0.32990 0.76446
 O1741 O 0.78519 0.34952 0.75668
 H1742 H 0.73202 0.40156 0.79637
 H1743 H 0.70945 0.33806 0.79069
 C1744 C 0.27074 0.87424 0.23177
 C1745 C 0.24322 0.87170 0.20857
 C1746 C 0.22955 0.84052 0.21421
 C1747 C 0.24968 0.82569 0.23990
 O1748 O 0.27431 0.84625 0.25111
 H1749 H 0.23353 0.89003 0.18974
 H1750 H 0.20795 0.82951 0.20030
 C1751 C 0.17303 0.86158 0.74921
 C1752 C 0.14336 0.84478 0.75711
 C1753 C 0.15252 0.81198 0.76278
 C1754 C 0.18710 0.81066 0.75676
 O1755 O 0.19976 0.84118 0.74941
 H1756 H 0.11839 0.85571 0.76066
 H1757 H 0.13590 0.79231 0.77248
 C1758 C 0.72747 0.36894 0.24083
 C1759 C 0.76055 0.37080 0.22910
 C1760 C 0.77147 0.33800 0.22751
 C1761 C 0.74434 0.31838 0.23836
 O1762 O 0.71758 0.33716 0.24637
 H1763 H 0.77504 0.39331 0.22243
 H1764 H 0.79660 0.32944 0.22018
 C1765 C 0.67163 0.64005 0.26104
 C1766 C 0.64449 0.65643 0.24559
 C1767 C 0.65647 0.68749 0.23624
 C1768 C 0.68989 0.68855 0.24776
 O1769 O 0.69946 0.65918 0.26199
 H1770 H 0.61959 0.64600 0.23964
 H1771 H 0.64264 0.70630 0.22114
 C1772 C 0.24074 0.13365 0.78051
 C1773 C 0.27561 0.13382 0.78445
 C1774 C 0.28506 0.16688 0.78020
 C1775 C 0.25535 0.18458 0.77397
 O1776 O 0.22843 0.16449 0.77463
 H1777 H 0.29234 0.11246 0.78903
 H1778 H 0.31077 0.17674 0.78033
 C1779 C 0.26894 0.12078 0.23045
 C1780 C 0.23425 0.11775 0.22568
 C1781 C 0.22205 0.14988 0.22817
 C1782 C 0.25007 0.17039 0.23411
 O1783 O 0.27869 0.15282 0.23518
 H1784 H 0.21944 0.09487 0.22107
 H1785 H 0.19567 0.15744 0.22634
 C1786 C 0.80745 0.64266 0.76140
 C1787 C 0.82273 0.66187 0.78774
 C1788 C 0.80841 0.69307 0.78511
 C1789 C 0.78471 0.69042 0.75785
 O1790 O 0.78454 0.65978 0.74292
 H1791 H 0.84258 0.65415 0.80606
 H1792 H 0.81524 0.71524 0.80080
 C1793 C 0.86971 0.73337 0.22032
 C1794 C 0.86863 0.71949 0.25424
 C1795 C 0.83527 0.71924 0.26342
 C1796 C 0.81826 0.73361 0.23513
 O1797 O 0.83890 0.74162 0.20878
 H1798 H 0.88920 0.70998 0.27055
 H1799 H 0.82472 0.71066 0.28835
 C1800 C 0.37833 0.29149 0.71259
 C1801 C 0.37574 0.32145 0.73183
 C1802 C 0.34417 0.32089 0.74646
 C1803 C 0.32948 0.29063 0.73551
 O1804 O 0.35024 0.27289 0.71482
 H1805 H 0.39414 0.34182 0.73449
 H1806 H 0.33329 0.34068 0.76286
 C1807 C 0.36479 0.75341 0.78124
 C1808 C 0.36358 0.77029 0.74913
 C1809 C 0.32998 0.77457 0.74183
 C1810 C 0.31306 0.75980 0.76986
 O1811 O 0.33417 0.74724 0.79399
 H1812 H 0.38466 0.77847 0.73291
 H1813 H 0.31907 0.78586 0.71816
 C1814 C 0.87726 0.21863 0.28588
 C1815 C 0.88145 0.21599 0.24947
 C1816 C 0.84982 0.21636 0.23527
 C1817 C 0.82769 0.21779 0.26356
 O1818 O 0.84446 0.21994 0.29449
 H1819 H 0.90461 0.21612 0.23424
 H1820 H 0.84392 0.21815 0.20719
 C1821 C 0.11875 0.27698 0.28272
 C1822 C 0.11892 0.30263 0.25771
 C1823 C 0.14977 0.30065 0.24161
 C1824 C 0.16644 0.27392 0.25770
 O1825 O 0.14754 0.25957 0.28261
 H1826 H 0.09919 0.32090 0.25181
 H1827 H 0.15907 0.31745 0.22118
 C1828 C 0.61259 0.73860 0.74267
 C1829 C 0.60821 0.74712 0.70736
 C1830 C 0.64021 0.74810 0.69345
 C1831 C 0.66179 0.74048 0.72138
 O1832 O 0.64487 0.73442 0.75103
 H1833 H 0.58464 0.75280 0.69366
 H1834 H 0.64672 0.75515 0.66666
 C1835 C 0.62534 0.23225 0.70410
 C1836 C 0.62020 0.22738 0.73996
 C1837 C 0.65148 0.22851 0.75521
 C1838 C 0.67429 0.23265 0.72779
 O1839 O 0.65821 0.23598 0.69657
 H1840 H 0.59625 0.22557 0.75380
 H1841 H 0.65662 0.22867 0.78351
 C1842 C 0.11667 0.71545 0.23204
 C1843 C 0.11688 0.69448 0.26145
 C1844 C 0.14814 0.69896 0.27682
 C1845 C 0.16476 0.72205 0.25551
 O1846 O 0.14561 0.73214 0.22858
 H1847 H 0.09667 0.67822 0.27090
 H1848 H 0.15768 0.68659 0.30052
   
