data_POSCAR
  _audit_creation_date              2014-09-24
  _audit_creation_method            'ToBaCCo'
  _symmetry_space_group_name_H-M    'P1'
  _symmetry_Int_Tables_number       1
  _symmetry_cell_setting            triclinic
  loop_
  _symmetry_equiv_pos_as_xyz
 x,y,z
_cell_length_a 43.0009
_cell_length_b 43.0223
_cell_length_c 37.6796
_cell_angle_alpha 91.156000
_cell_angle_beta 89.373900
_cell_angle_gamma 90.067500
loop_
  _atom_site_label
  _atom_site_type_symbol
  _atom_site_fract_x
  _atom_site_fract_y
  _atom_site_fract_z
C1 C 0.35503 -0.00267 0.25594
 C2 C 0.14062 0.00479 0.74147
 C3 C 0.63884 0.47677 0.25364
 C4 C 0.85222 0.51693 0.74897
 C5 C 0.26519 0.40130 1.00968
 C6 C 0.75456 0.11299 0.99276
 C7 C 0.23163 0.60234 0.51248
 C8 C 0.75946 0.88280 0.47985
 C9 C 0.00769 0.23597 0.37078
 C10 C -0.00069 0.75256 0.12335
 C11 C 0.50384 0.25208 0.62283
 C12 C 0.50095 0.75633 0.87746
 C13 C -0.23475 0.61066 0.97656
 C14 C -0.27035 0.38704 0.50945
 C15 C 0.25214 -0.10445 0.00895
 C16 C 0.25791 1.09800 0.52082
 C17 C 0.15319 0.50186 0.26330
 C18 C -0.14027 0.97360 0.23449
 C19 C 0.36104 0.50580 -0.24521
 C20 C 0.63695 0.02015 -0.25073
 C21 C -0.00013 0.26022 0.88680
 C22 C 0.50081 0.26152 0.14442
 C23 C 0.00119 0.74659 0.61342
 C24 C 0.48886 0.74710 0.36123
 B25 B -0.01787 0.02638 1.02546
 B26 B -0.03207 0.01758 0.98487
 B27 B -0.00038 0.04107 0.98929
 B28 B 0.02162 0.02801 1.02270
 B29 B 0.00345 -0.00400 1.03878
 B30 B -0.02993 -0.01033 1.01572
 B31 B 0.01930 -0.01627 0.96935
 B32 B 0.03344 -0.00804 1.01005
 B33 B 0.00203 -0.03130 1.00607
 B34 B -0.02001 -0.01842 0.97256
 B35 B -0.00211 0.01374 0.95646
 B36 B 0.03140 0.02006 0.97968
 B37 B 0.46555 0.52120 0.51662
 B38 B 0.44708 0.51033 0.47898
 B39 B 0.47912 0.53275 0.47636
 B40 B 0.50423 0.52208 0.50764
 B41 B 0.48786 0.49184 0.52939
 B42 B 0.45195 0.48460 0.51171
 B43 B 0.49595 0.47349 0.46022
 B44 B 0.51449 0.48538 0.49750
 B45 B 0.48261 0.46224 0.50003
 B46 B 0.45703 0.47300 0.46861
 B47 B 0.47364 0.50314 0.44679
 B48 B 0.50926 0.51043 0.46428
 B49 B 0.52883 0.97660 0.52073
 B50 B 0.54627 0.98640 0.48221
 B51 B 0.51547 0.96205 0.48155
 B52 B 0.48995 0.97329 0.51339
 B53 B 0.50493 1.00536 0.53358
 B54 B 0.54014 1.01373 0.51439
 B55 B 0.49561 1.01941 0.46402
 B56 B 0.47769 1.00891 0.50223
 B57 B 0.50831 1.03378 0.50326
 B58 B 0.53429 1.02243 0.47127
 B59 B 0.51927 0.99001 0.45109
 B60 B 0.48414 0.98211 0.46988
 B61 B 0.03107 0.49966 1.03150
 B62 B 0.05300 0.50314 0.99432
 B63 B 0.02625 0.47424 0.99743
 B64 B -0.00496 0.48831 1.02024
 B65 B 0.00256 0.52629 1.03052
 B66 B 0.03876 0.53507 1.01481
 B67 B 0.00186 0.52041 0.95851
 B68 B -0.01969 0.51671 0.99577
 B69 B 0.00700 0.54574 0.99252
 B70 B 0.03820 0.53173 0.96959
 B71 B 0.03060 0.49377 0.95909
 B72 B -0.00551 0.48477 0.97513
 B73 B -0.00187 0.50793 0.46537
 B74 B 0.01842 0.49834 0.50156
 B75 B -0.01111 0.52430 0.50502
 B76 B -0.03964 0.51316 0.47737
 B77 B -0.02788 0.47957 0.45705
 B78 B 0.00847 0.47054 0.47162
 B79 B -0.03178 0.46855 0.52789
 B80 B -0.05234 0.47851 0.49181
 B81 B -0.02295 0.45235 0.48819
 B82 B 0.00592 0.46358 0.51579
 B83 B -0.00601 0.49715 0.53622
 B84 B -0.04222 0.50603 0.52172
 B85 B 0.51349 0.03437 -0.02794
 B86 B 0.53494 0.02366 0.00716
 B87 B 0.50435 0.04824 0.01289
 B88 B 0.47570 0.03712 -0.01498
 B89 B 0.48878 0.00510 -0.03784
 B90 B 0.52563 -0.00289 -0.02441
 B91 B 0.48635 -0.00926 0.03258
 B92 B 0.46493 0.00113 -0.00262
 B93 B 0.49549 -0.02331 -0.00828
 B94 B 0.52401 -0.01219 0.01941
 B95 B 0.51118 0.01985 0.04193
 B96 B 0.47416 0.02780 0.02873
 B97 B 0.49809 0.48322 -0.03190
 B98 B 0.48207 0.49288 0.00808
 B99 B 0.51195 0.46727 0.00536
 B100 B 0.53688 0.47912 -0.02696
 B101 B 0.52201 0.51246 -0.04353
 B102 B 0.48794 0.52051 -0.02226
 B103 B 0.53460 0.52361 0.02634
 B104 B 0.55026 0.51457 -0.01372
 B105 B 0.52007 0.53958 -0.01063
 B106 B 0.49562 0.52773 0.02160
 B107 B 0.51062 0.49454 0.03831
 B108 B 0.54479 0.48670 0.01628
 B109 B 0.00341 0.97093 0.44220
 B110 B -0.02366 0.97916 0.47400
 B111 B 0.00338 0.95152 0.48111
 B112 B 0.03732 0.96262 0.46223
 B113 B 0.03121 0.99816 0.44440
 B114 B -0.00694 1.00835 0.45160
 B115 B 0.02112 1.00425 0.51553
 B116 B 0.04810 0.99520 0.48414
 B117 B 0.02122 1.02333 0.47739
 B118 B -0.01301 1.01210 0.49598
 B119 B -0.00679 0.97690 0.51392
 B120 B 0.03115 0.96672 0.50704
 B121 B 0.77010 0.21018 0.23521
 B122 B 0.76298 0.19081 0.27291
 B123 B 0.78636 0.22226 0.27377
 B124 B 0.77267 0.24871 0.24546
 B125 B 0.74003 0.23341 0.22714
 B126 B 0.73393 0.19717 0.24422
 B127 B 0.72952 0.23961 0.29863
 B128 B 0.73726 0.25915 0.26114
 B129 B 0.71348 0.22778 0.25995
 B130 B 0.72721 0.20114 0.28856
 B131 B 0.76022 0.21641 0.30661
 B132 B 0.76607 0.25250 0.29013
 B133 B 0.72772 0.78564 0.71335
 B134 B 0.74045 0.80725 0.74841
 B135 B 0.71460 0.77805 0.75437
 B136 B 0.72349 0.74831 0.72622
 B137 B 0.75533 0.75929 0.70262
 B138 B 0.76557 0.79607 0.71605
 B139 B 0.77176 0.75760 0.77240
 B140 B 0.75915 0.73600 0.73752
 B141 B 0.78494 0.76530 0.73119
 B142 B 0.77615 0.79489 0.75956
 B143 B 0.74411 0.78395 0.78302
 B144 B 0.73389 0.74728 0.76966
 B145 B 0.27551 0.26725 0.78803
 B146 B 0.26419 0.28811 0.75295
 B147 B 0.28832 0.25749 0.74678
 B148 B 0.27782 0.22935 0.77518
 B149 B 0.24631 0.24272 0.79844
 B150 B 0.23824 0.27950 0.78509
 B151 B 0.22997 0.23951 0.72882
 B152 B 0.24142 0.21851 0.76380
 B153 B 0.21715 0.24934 0.76982
 B154 B 0.22780 0.27747 0.74161
 B155 B 0.25908 0.26394 0.71831
 B156 B 0.26713 0.22717 0.73180
 B157 B 0.21785 0.74330 0.30420
 B158 B 0.22597 0.72154 0.26766
 B159 B 0.19651 0.74800 0.26768
 B160 B 0.20791 0.77946 0.29200
 B161 B 0.24446 0.77195 0.30653
 B162 B 0.25535 0.73610 0.29176
 B163 B 0.24681 0.77222 0.23422
 B164 B 0.23918 0.79415 0.27092
 B165 B 0.26810 0.76763 0.27066
 B166 B 0.25678 0.73634 0.24657
 B167 B 0.22010 0.74361 0.23211
 B168 B 0.20961 0.77987 0.24670
 B169 B 0.27101 0.73667 0.72339
 B170 B 0.26074 0.72049 0.76233
 B171 B 0.28482 0.75183 0.76169
 B172 B 0.27302 0.77590 0.72934
 B173 B 0.24122 0.75907 0.71063
 B174 B 0.23397 0.72478 0.73064
 B175 B 0.22714 0.77174 0.78049
 B176 B 0.23659 0.78759 0.74102
 B177 B 0.21308 0.75610 0.74191
 B178 B 0.22476 0.73251 0.77419
 B179 B 0.25653 0.74905 0.79285
 B180 B 0.26388 0.78370 0.77257
 B181 B 0.24654 0.26697 0.22820
 B182 B 0.24663 0.28716 0.26718
 B183 B 0.21993 0.25876 0.25961
 B184 B 0.23757 0.22969 0.23612
 B185 B 0.27536 0.24052 0.22968
 B186 B 0.28041 0.27633 0.24835
 B187 B 0.26547 0.23591 0.30093
 B188 B 0.26572 0.21595 0.26201
 B189 B 0.29233 0.24455 0.26966
 B190 B 0.27463 0.27329 0.29318
 B191 B 0.23689 0.26257 0.29964
 B192 B 0.23161 0.22678 0.28064
 B193 B 0.76323 0.74552 0.26416
 B194 B 0.75125 0.76426 0.22782
 B195 B 0.77681 0.73440 0.22403
 B196 B 0.76715 0.70718 0.25375
 B197 B 0.73513 0.72052 0.27614
 B198 B 0.72555 0.75611 0.26041
 B199 B 0.71949 0.71334 0.20619
 B200 B 0.73132 0.69437 0.24266
 B201 B 0.70589 0.72432 0.24662
 B202 B 0.71568 0.75157 0.21695
 B203 B 0.74787 0.73825 0.19461
 B204 B 0.75725 0.70261 0.21023
 B205 B 0.72038 0.25590 0.79973
 B206 B 0.72935 0.23906 0.75997
 B207 B 0.70686 0.27143 0.76237
 B208 B 0.72036 0.29510 0.79543
 B209 B 0.75151 0.27683 0.81323
 B210 B 0.75667 0.24213 0.79167
 B211 B 0.76531 0.28807 0.74340
 B212 B 0.75730 0.30482 0.78347
 B213 B 0.77906 0.27221 0.78105
 B214 B 0.76556 0.24905 0.74819
 B215 B 0.73431 0.26719 0.73047
 B216 B 0.72956 0.30217 0.75241
 C217 C 0.41947 1.02065 0.34316
 C218 C 0.38847 1.03087 0.34556
 C219 C 0.36771 1.02336 0.31805
 C220 C 0.37672 1.00404 0.28863
 C221 C 0.40622 0.98968 0.29076
 C222 C 0.42766 0.99881 0.31652
 C223 C 0.44147 1.03070 0.37149
 C224 C 0.47373 1.02745 0.36768
 C225 C 0.49278 1.03148 0.39707
 C226 C 0.47970 1.03671 0.43122
 C227 C 0.44877 1.04732 0.43309
 C228 C 0.42939 1.04405 0.40325
 C229 C 0.37822 1.04737 0.37612
 C230 C 0.39795 1.05266 0.40502
 H231 H 0.35422 1.05485 0.37850
 H232 H 0.38852 1.06362 0.42894
 H233 H 0.34455 1.03239 0.32076
 H234 H 0.41332 0.97191 0.27163
 H235 H 0.51727 1.02627 0.39360
 H236 H 0.43915 1.05580 0.45805
 H237 H 0.45033 0.98795 0.31596
 H238 H 0.48425 1.02041 0.34259
 C239 C -0.08082 0.52753 0.83619
 C240 C -0.08029 0.50134 0.81299
 C241 C -0.10261 0.49796 0.78657
 C242 C -0.12520 0.52100 0.78075
 C243 C -0.12662 0.54624 0.80530
 C244 C -0.10474 0.54954 0.83242
 C245 C -0.05643 0.52985 0.86437
 C246 C -0.05473 0.55463 0.88934
 C247 C -0.03378 0.55363 0.91750
 C248 C -0.01407 0.52793 0.92144
 C249 C -0.01334 0.50503 0.89433
 C250 C -0.03458 0.50543 0.86655
 C251 C -0.05737 0.47852 0.81594
 C252 C -0.03499 0.48052 0.84214
 H253 H -0.05691 0.45856 0.79790
 H254 H -0.01813 0.46191 0.84377
 H255 H -0.10124 0.47776 0.76911
 H256 H -0.14461 0.56369 0.80392
 H257 H -0.03482 0.57195 0.93739
 H258 H 0.00202 0.48520 0.89621
 H259 H -0.10696 0.56944 0.85014
 H260 H -0.07023 0.57429 0.88845
 C261 C 0.08698 -0.01404 0.83788
 C262 C 0.11965 -0.01061 0.83882
 C263 C 0.13608 -0.00252 0.80815
 C264 C 0.12055 0.00324 0.77619
 C265 C 0.08773 0.00492 0.77745
 C266 C 0.07118 -0.00460 0.80749
 C267 C 0.07047 -0.02447 0.87066
 C268 C 0.03893 -0.03331 0.87156
 C269 C 0.02351 -0.03741 0.90414
 C270 C 0.03885 -0.03105 0.93637
 C271 C 0.07136 -0.02645 0.93476
 C272 C 0.08725 -0.02437 0.90248
 C273 C 0.13561 -0.01454 0.87058
 C274 C 0.11955 -0.01996 0.90212
 H275 H 0.16064 -0.01171 0.87142
 H276 H 0.13257 -0.02072 0.92657
 H277 H 0.16130 -0.00199 0.80851
 H278 H 0.07448 0.01283 0.75523
 H279 H -0.00133 -0.04152 0.90387
 H280 H 0.08429 -0.01978 0.95791
 H281 H 0.04607 -0.00398 0.80688
 H282 H 0.02572 -0.03578 0.84743
 C283 C 0.57291 0.45043 0.33772
 C284 C 0.60481 0.45439 0.34517
 C285 C 0.62556 0.46350 0.31820
 C286 C 0.61533 0.46762 0.28314
 C287 C 0.58448 0.45866 0.27534
 C288 C 0.56336 0.45125 0.30225
 C289 C 0.55066 0.44628 0.36811
 C290 C 0.51825 0.44946 0.36467
 C291 C 0.49924 0.45291 0.39484
 C292 C 0.51203 0.45261 0.42906
 C293 C 0.54299 0.44265 0.43205
 C294 C 0.56294 0.44243 0.40234
 C295 C 0.61568 0.44920 0.37947
 C296 C 0.59523 0.44214 0.40721
 H297 H 0.64030 0.45100 0.38507
 H298 H 0.60472 0.43898 0.43341
 H299 H 0.64976 0.46757 0.32450
 H300 H 0.57627 0.45748 0.24834
 H301 H 0.47507 0.45900 0.39114
 H302 H 0.55271 0.43847 0.45762
 H303 H 0.53978 0.44580 0.29478
 H304 H 0.50760 0.45242 0.33916
 C305 C 0.59724 0.51627 0.15870
 C306 C 0.62436 0.49770 0.15594
 C307 C 0.63616 0.48310 0.18591
 C308 C 0.62251 0.48789 0.21970
 C309 C 0.59768 0.50939 0.22254
 C310 C 0.58454 0.52244 0.19256
 C311 C 0.58338 0.52838 0.12529
 C312 C 0.55339 0.54163 0.12378
 C313 C 0.53901 0.54610 0.09096
 C314 C 0.55441 0.53787 0.05899
 C315 C 0.58621 0.53012 0.06090
 C316 C 0.59995 0.52330 0.09322
 C317 C 0.64006 0.49442 0.12341
 C318 C 0.62860 0.50778 0.09292
 H319 H 0.66143 0.48113 0.12141
 H320 H 0.64134 0.50397 0.06822
 H321 H 0.65696 0.46907 0.18301
 H322 H 0.58837 0.51630 0.24830
 H323 H 0.51465 0.55246 0.09088
 H324 H 0.59913 0.52349 0.03746
 H325 H 0.56507 0.53801 0.19644
 H326 H 0.53966 0.54592 0.14753
 C327 C 0.08119 1.01590 0.64904
 C328 C 0.10797 1.03454 0.65238
 C329 C 0.12744 1.03091 0.68170
 C330 C 0.12098 1.00816 0.70753
 C331 C 0.09685 0.98687 0.70029
 C332 C 0.07677 0.99113 0.67222
 C333 C 0.06031 1.02090 0.61857
 C334 C 0.03122 1.00641 0.61609
 C335 C 0.01598 1.00526 0.58389
 C336 C 0.02956 1.01854 0.55361
 C337 C 0.05473 1.03909 0.55825
 C338 C 0.07070 1.03982 0.59066
 C339 C 0.11566 1.05563 0.62565
 C340 C 0.09794 1.05743 0.59478
 H341 H 0.13645 1.06977 0.62781
 H342 H 0.10584 1.07245 0.57376
 H343 H 0.14778 1.04563 0.68380
 H344 H 0.09229 0.96758 0.71751
 H345 H -0.00498 0.99139 0.58236
 H346 H 0.06427 1.05131 0.53573
 H347 H 0.05825 0.97443 0.66864
 H348 H 0.02086 0.99439 0.63817
 C349 C -0.09862 0.48576 0.65308
 C350 C -0.08165 0.49948 0.68128
 C351 C -0.09731 0.51389 0.70992
 C352 C -0.12995 0.51227 0.71293
 C353 C -0.14657 0.50273 0.68247
 C354 C -0.13116 0.48936 0.65305
 C355 C -0.08091 0.46943 0.62373
 C356 C -0.09523 0.45393 0.59488
 C357 C -0.07754 0.44507 0.56489
 C358 C -0.04591 0.45281 0.56294
 C359 C -0.03080 0.45958 0.59513
 C360 C -0.04807 0.47010 0.62465
 C361 C -0.04913 0.49810 0.68131
 C362 C -0.03267 0.48374 0.65355
 H363 H -0.03615 0.50849 0.70302
 H364 H -0.00748 0.48410 0.65426
 H365 H -0.08369 0.52480 0.73067
 H366 H -0.17176 0.50296 0.68290
 H367 H -0.08918 0.43505 0.54215
 H368 H -0.00573 0.46235 0.59538
 H369 H -0.14508 0.48108 0.63114
 H370 H -0.12004 0.45013 0.59419
 C371 C 0.41464 -0.02356 0.16158
 C372 C 0.42333 -0.00112 0.18747
 C373 C 0.40294 0.00672 0.21551
 C374 C 0.37547 -0.01048 0.22199
 C375 C 0.36883 -0.03504 0.19742
 C376 C 0.38739 -0.04068 0.16724
 C377 C 0.43535 -0.02838 0.12967
 C378 C 0.42565 -0.04343 0.09801
 C379 C 0.44398 -0.04191 0.06697
 C380 C 0.47273 -0.02633 0.06730
 C381 C 0.48464 -0.01699 0.10062
 C382 C 0.46513 -0.01468 0.13039
 C383 C 0.45286 0.01248 0.18603
 C384 C 0.47395 0.00453 0.15906
 H385 H 0.46007 0.02893 0.20651
 H386 H 0.49665 0.01551 0.15926
 H387 H 0.40916 0.02570 0.23343
 H388 H 0.34953 -0.05062 0.20062
 H389 H 0.43468 -0.05117 0.04243
 H390 H 0.50759 -0.00675 0.10257
 H391 H 0.38076 -0.05933 0.14921
 H392 H 0.40290 -0.05399 0.09606
 C393 C 0.35242 0.45180 0.02950
 C394 C 0.33072 0.46290 0.00488
 C395 C 0.30176 0.44819 0.00110
 C396 C 0.29426 0.42120 0.02013
 C397 C 0.31440 0.41350 0.04813
 C398 C 0.34303 0.42822 0.05242
 C399 C 0.38477 0.46475 0.02899
 C400 C 0.40914 0.45267 0.04939
 C401 C 0.43976 0.46278 0.04435
 C402 C 0.44688 0.48486 0.01865
 C403 C 0.42217 0.49921 0.00097
 C404 C 0.39160 0.48865 0.00498
 C405 C 0.33858 0.48766 -0.01700
 C406 C 0.36832 0.50049 -0.01668
 H407 H 0.32181 0.49661 -0.03547
 H408 H 0.37358 0.51896 -0.03496
 H409 H 0.28596 0.45634 -0.01891
 H410 H 0.30902 0.39579 0.06697
 H411 H 0.45797 0.45249 0.05983
 H412 H 0.42674 0.51706 -0.01826
 H413 H 0.35773 0.42034 0.07344
 H414 H 0.40529 0.43457 0.06833
 C415 C -0.15009 0.92812 0.48443
 C416 C -0.17602 0.94684 0.49267
 C417 C -0.20588 0.93289 0.49420
 C418 C -0.20947 0.90050 0.48698
 C419 C -0.18216 0.88240 0.48803
 C420 C -0.15305 0.89583 0.48562
 C421 C -0.11976 0.94305 0.47721
 C422 C -0.09599 0.92667 0.45995
 C423 C -0.06687 0.93965 0.45671
 C424 C -0.05988 0.96939 0.47035
 C425 C -0.08490 0.98751 0.48421
 C426 C -0.11523 0.97452 0.48679
 C427 C -0.17125 0.97877 0.49978
 C428 C -0.14119 0.99206 0.49837
 H429 H -0.19078 0.99347 0.50725
 H430 H -0.13845 1.01647 0.50525
 H431 H -0.22559 0.94713 0.50185
 H432 H -0.18309 0.85738 0.48888
 H433 H -0.04932 0.92428 0.44702
 H434 H -0.08075 1.01104 0.49379
 H435 H -0.13302 0.88066 0.48461
 H436 H -0.09932 0.90327 0.44965
 C437 C -0.15869 0.06680 0.96108
 C438 C -0.16085 0.09948 0.96334
 C439 C -0.18963 0.11361 0.96975
 C440 C -0.21682 0.09595 0.97542
 C441 C -0.21535 0.06452 0.96395
 C442 C -0.18651 0.04968 0.95864
 C443 C -0.12692 0.05238 0.96124
 C444 C -0.12175 0.02042 0.96618
 C445 C -0.09154 0.00907 0.97137
 C446 C -0.06565 0.02923 0.97144
 C447 C -0.07095 0.06059 0.96382
 C448 C -0.10091 0.07239 0.95999
 C449 C -0.13421 0.11794 0.96042
 C450 C -0.10486 0.10462 0.95793
 H451 H -0.13600 0.14308 0.96106
 H452 H -0.08484 0.11994 0.95672
 H453 H -0.19047 0.13863 0.97186
 H454 H -0.23590 0.05139 0.95753
 H455 H -0.08869 -0.01533 0.97704
 H456 H -0.05252 0.07707 0.96378
 H457 H -0.18627 0.02509 0.95224
 H458 H -0.14094 0.00428 0.96803
 C459 C 0.32344 0.56459 0.48376
 C460 C 0.29703 0.54915 0.47076
 C461 C 0.26727 0.56191 0.47809
 C462 C 0.26339 0.58616 0.50403
 C463 C 0.29089 0.59967 0.51787
 C464 C 0.32000 0.58926 0.50801
 C465 C 0.35455 0.55274 0.47384
 C466 C 0.38087 0.57110 0.47855
 C467 C 0.40981 0.55768 0.47754
 C468 C 0.41386 0.52562 0.47028
 C469 C 0.38752 0.50815 0.45957
 C470 C 0.35761 0.52207 0.46069
 C471 C 0.30100 0.52047 0.45250
 C472 C 0.33060 0.50631 0.44951
 H473 H 0.28089 0.50785 0.44283
 H474 H 0.33238 0.48312 0.43793
 H475 H 0.24747 0.55275 0.46384
 H476 H 0.29070 0.61984 0.53538
 H477 H 0.42802 0.57229 0.48772
 H478 H 0.38997 0.48380 0.45222
 H479 H 0.33970 0.60044 0.52046
 H480 H 0.37936 0.59557 0.48546
 C481 C 0.14615 0.54752 0.51873
 C482 C 0.14715 0.57868 0.53097
 C483 C 0.17487 0.59543 0.52874
 C484 C 0.20307 0.58098 0.51834
 C485 C 0.20266 0.54834 0.51327
 C486 C 0.17437 0.53210 0.51154
 C487 C 0.11504 0.53220 0.51573
 C488 C 0.10951 0.50553 0.49435
 C489 C 0.07906 0.49424 0.48987
 C490 C 0.05391 0.50835 0.50821
 C491 C 0.06032 0.53310 0.53177
 C492 C 0.08960 0.54683 0.53296
 C493 C 0.12064 0.59271 0.54597
 C494 C 0.09286 0.57633 0.54889
 H495 H 0.12163 0.61632 0.55649
 H496 H 0.07305 0.58782 0.56144
 H497 H 0.17443 0.62015 0.53486
 H498 H 0.22366 0.53492 0.51042
 H499 H 0.07520 0.47483 0.47173
 H500 H 0.04236 0.54297 0.54828
 H501 H 0.17478 0.50741 0.50557
 H502 H 0.12824 0.49440 0.47955
 C503 C 0.66595 0.06569 0.01509
 C504 C 0.66985 0.09768 0.02222
 C505 C 0.69870 0.11164 0.01601
 C506 C 0.72471 0.09435 0.00347
 C507 C 0.72187 0.06167 0.00495
 C508 C 0.69263 0.04753 0.00865
 C509 C 0.63372 0.05261 0.01635
 C510 C 0.62600 0.02347 0.00129
 C511 C 0.59490 0.01394 -0.00060
 C512 C 0.57079 0.03279 0.01349
 C513 C 0.57898 0.06066 0.03106
 C514 C 0.60962 0.07159 0.03041
 C515 C 0.64501 0.11549 0.03573
 C516 C 0.61578 0.10234 0.04112
 H517 H 0.64825 0.13991 0.04233
 H518 H 0.59725 0.11703 0.05164
 H519 H 0.70082 0.13636 0.02100
 H520 H 0.74177 0.04664 0.00560
 H521 H 0.58978 -0.00796 -0.01394
 H522 H 0.56157 0.07530 0.04316
 H523 H 0.69129 0.02243 0.00779
 H524 H 0.64359 0.00866 -0.01083
 C525 C 0.67209 0.93190 0.45945
 C526 C 0.67362 0.89947 0.46432
 C527 C 0.70219 0.88469 0.46650
 C528 C 0.73020 0.90145 0.46875
 C529 C 0.72902 0.93298 0.45890
 C530 C 0.70029 0.94819 0.45497
 C531 C 0.64053 0.94700 0.46079
 C532 C 0.63508 0.97897 0.45537
 C533 C 0.60500 0.99163 0.46005
 C534 C 0.58013 0.97288 0.47146
 C535 C 0.58616 0.94133 0.47710
 C536 C 0.61496 0.92813 0.47000
 C537 C 0.64675 0.88184 0.46949
 C538 C 0.61810 0.89601 0.47332
 H539 H 0.64810 0.85691 0.47291
 H540 H 0.59808 0.88162 0.47937
 H541 H 0.70227 0.85974 0.46858
 H542 H 0.74977 0.94598 0.45297
 H543 H 0.60155 1.01624 0.45615
 H544 H 0.56910 0.92678 0.48970
 H545 H 0.70050 0.97265 0.44908
 H546 H 0.65376 0.99438 0.44786
 C547 C 0.18361 0.46164 0.99800
 C548 C 0.19253 0.44127 0.96984
 C549 C 0.21887 0.42224 0.97301
 C550 C 0.23751 0.42374 1.00368
 C551 C 0.23040 0.44707 1.02940
 C552 C 0.20365 0.46525 1.02703
 C553 C 0.15270 0.47761 0.99603
 C554 C 0.13899 0.49360 1.02518
 C555 C 0.10814 0.50362 1.02382
 C556 C 0.09008 0.49790 0.99351
 C557 C 0.10530 0.48668 0.96264
 C558 C 0.13549 0.47440 0.96440
 C559 C 0.17480 0.43964 0.93886
 C560 C 0.14734 0.45658 0.93582
 H561 H 0.18203 0.42472 0.91677
 H562 H 0.13419 0.45406 0.91155
 H563 H 0.22412 0.40595 0.95157
 H564 H 0.24477 0.44995 1.05267
 H565 H 0.09832 0.51512 1.04709
 H566 H 0.09255 0.48424 0.93808
 H567 H 0.19886 0.48172 1.04836
 H568 H 0.15110 0.49710 1.04987
 C569 C -0.01373 0.32354 0.43030
 C570 C -0.02144 0.31943 0.39417
 C571 C -0.01564 0.29114 0.37642
 C572 C -0.00117 0.26597 0.39303
 C573 C 0.00848 0.27129 0.42856
 C574 C 0.00157 0.29912 0.44710
 C575 C -0.01955 0.35484 0.44772
 C576 C -0.01531 0.36140 0.48426
 C577 C -0.01879 0.39190 0.49806
 C578 C -0.02600 0.41654 0.47563
 C579 C -0.03092 0.40953 0.43948
 C580 C -0.02909 0.37924 0.42590
 C581 C -0.03322 0.34419 0.37494
 C582 C -0.03614 0.37364 0.39020
 H583 H -0.03900 0.34110 0.34715
 H584 H -0.04405 0.39237 0.37372
 H585 H -0.02070 0.29011 0.34865
 H586 H 0.02246 0.25456 0.44218
 H587 H -0.01436 0.39639 0.52594
 H588 H -0.03511 0.42781 0.42083
 H589 H 0.00965 0.30171 0.47404
 H590 H -0.00897 0.34334 0.50230
 C591 C 0.49438 -0.15307 -0.06573
 C592 C 0.48786 -0.15650 -0.10226
 C593 C 0.48798 -0.18597 -0.11864
 C594 C 0.49648 -0.21290 -0.10032
 C595 C 0.50593 -0.20853 -0.06465
 C596 C 0.50377 -0.17946 -0.04731
 C597 C 0.49389 -0.12094 -0.04937
 C598 C 0.49546 -0.11479 -0.01247
 C599 C 0.49517 -0.08406 0.00101
 C600 C 0.49405 -0.05885 -0.02207
 C601 C 0.49335 -0.06521 -0.05887
 C602 C 0.49140 -0.09558 -0.07232
 C603 C 0.48329 -0.13032 -0.12300
 C604 C 0.48616 -0.10049 -0.10860
 H605 H 0.47874 -0.13289 -0.15114
 H606 H 0.48358 -0.08094 -0.12602
 H607 H 0.48350 -0.18750 -0.14678
 H608 H 0.51720 -0.22675 -0.05037
 H609 H 0.49634 -0.08010 0.02941
 H610 H 0.49287 -0.04639 -0.07751
 H611 H 0.51143 -0.17759 -0.02014
 H612 H 0.49639 -0.13347 0.00622
 C613 C 0.00714 -0.16010 1.06277
 C614 C 0.02175 -0.16285 1.09600
 C615 C 0.02217 -0.19139 1.11345
 C616 C 0.00616 -0.21782 1.10029
 C617 C -0.00624 -0.21516 1.06562
 C618 C -0.00587 -0.18704 1.04736
 C619 C 0.00559 -0.12840 1.04631
 C620 C -0.00768 -0.12253 1.01287
 C621 C -0.00891 -0.09210 0.99962
 C622 C 0.00253 -0.06677 1.01966
 C623 C 0.01542 -0.07283 1.05308
 C624 C 0.01779 -0.10294 1.06587
 C625 C 0.03493 -0.13673 1.11271
 C626 C 0.03260 -0.10743 1.09825
 H627 H 0.04633 -0.13877 1.13808
 H628 H 0.04246 -0.08786 1.11283
 H629 H 0.03490 -0.19177 1.13761
 H630 H -0.01800 -0.23457 1.05292
 H631 H -0.01889 -0.08842 0.97378
 H632 H 0.02483 -0.05405 1.06924
 H633 H -0.01689 -0.18656 1.02178
 H634 H -0.01702 -0.14115 0.99658
 C635 C 0.49293 0.34029 0.56790
 C636 C 0.49133 0.31258 0.54747
 C637 C 0.49332 0.28362 0.56440
 C638 C 0.50131 0.28213 0.60076
 C639 C 0.50430 0.31054 0.61986
 C640 C 0.50023 0.33890 0.60392
 C641 C 0.48770 0.37041 0.55032
 C642 C 0.48094 0.39747 0.57002
 C643 C 0.47781 0.42554 0.55332
 C644 C 0.48251 0.42804 0.51636
 C645 C 0.48646 0.40044 0.49596
 C646 C 0.48795 0.37138 0.51290
 C647 C 0.48867 0.31439 0.51037
 C648 C 0.48859 0.34322 0.49333
 H649 H 0.48803 0.29328 0.49421
 H650 H 0.48793 0.34343 0.46460
 H651 H 0.48794 0.26287 0.54913
 H652 H 0.50957 0.31080 0.64790
 H653 H 0.47257 0.44553 0.57019
 H654 H 0.48803 0.40145 0.46730
 H655 H 0.50356 0.35959 0.62014
 H656 H 0.47746 0.39729 0.59845
 C657 C 0.50770 1.15973 0.57099
 C658 C 0.51754 1.18559 0.55144
 C659 C 0.51887 1.21532 0.56829
 C660 C 0.50623 1.22018 0.60288
 C661 C 0.49674 1.19366 0.62157
 C662 C 0.49715 1.16427 0.60602
 C663 C 0.50817 1.12832 0.55359
 C664 C 0.50544 1.10143 0.57345
 C665 C 0.50555 1.07253 0.55701
 C666 C 0.50708 1.06880 0.51970
 C667 C 0.51168 1.09578 0.49949
 C668 C 0.51330 1.12553 0.51656
 C669 C 0.52474 1.18144 0.51511
 C670 C 0.52144 1.15231 0.49776
 H671 H 0.53187 1.20120 0.49960
 H672 H 0.52625 1.15057 0.46951
 H673 H 0.52948 1.23432 0.55423
 H674 H 0.48818 1.19559 0.64862
 H675 H 0.50452 1.05307 0.57465
 H676 H 0.51516 1.09355 0.47102
 H677 H 0.48809 1.14554 0.62169
 H678 H 0.50440 1.10205 0.60208
 C679 C -0.00530 0.67103 1.05043
 C680 C 0.02099 0.69071 1.05047
 C681 C 0.02148 0.71747 1.07264
 C682 C -0.00271 0.72365 1.09761
 C683 C -0.02773 0.70226 1.09871
 C684 C -0.02934 0.67700 1.07507
 C685 C -0.00493 0.64249 1.02708
 C686 C -0.03134 0.62387 1.02152
 C687 C -0.02854 0.59463 1.00513
 C688 C 0.00066 0.58278 0.99482
 C689 C 0.02606 0.60370 0.99477
 C690 C 0.02336 0.63348 1.01068
 C691 C 0.04734 0.68235 1.03015
 C692 C 0.04892 0.65378 1.01174
 H693 H 0.06773 0.69718 1.03027
 H694 H 0.07051 0.64738 0.99842
 H695 H 0.04156 0.73271 1.07206
 H696 H -0.04632 0.70437 1.11809
 H697 H -0.04930 0.58118 1.00185
 H698 H 0.04868 0.59600 0.98516
 H699 H -0.04893 0.66143 1.07761
 H700 H -0.05416 0.63127 1.03050
 C701 C 0.51283 0.66783 -0.06587
 C702 C 0.52430 0.67176 -0.10077
 C703 C 0.52081 0.70020 -0.11768
 C704 C 0.50632 0.72608 -0.10086
 C705 C 0.49367 0.72120 -0.06653
 C706 C 0.49729 0.69295 -0.04917
 C707 C 0.51614 0.63643 -0.04940
 C708 C 0.50646 0.62978 -0.01439
 C709 C 0.50869 0.59951 -0.00132
 C710 C 0.52048 0.57516 -0.02288
 C711 C 0.53096 0.58210 -0.05736
 C712 C 0.52932 0.61216 -0.07040
 C713 C 0.53835 0.64697 -0.11939
 C714 C 0.54055 0.61776 -0.10466
 H715 H 0.54720 0.65000 -0.14615
 H716 H 0.55102 0.59916 -0.12051
 H717 H 0.52880 0.70146 -0.14482
 H718 H 0.47948 0.73865 -0.05321
 H719 H 0.50060 0.59508 0.02542
 H720 H 0.54075 0.56401 -0.07448
 H721 H 0.48683 0.69087 -0.02316
 H722 H 0.49694 0.64759 0.00312
 C723 C 0.03035 1.15412 0.43413
 C724 C 0.00514 1.17337 0.44416
 C725 C -0.00038 1.20090 0.42567
 C726 C 0.01824 1.20938 0.39604
 C727 C 0.04585 1.19208 0.39022
 C728 C 0.05167 1.16495 0.40869
 C729 C 0.03231 1.12235 0.44962
 C730 C 0.05284 1.09963 0.43607
 C731 C 0.05049 1.06896 0.44673
 C732 C 0.02863 1.05976 0.47246
 C733 C 0.00934 1.08291 0.48799
 C734 C 0.01027 1.11375 0.47582
 C735 C -0.01519 1.16422 0.47142
 C736 C -0.01231 1.13528 0.48737
 H737 H -0.03418 1.17928 0.47983
 H738 H -0.02920 1.12897 0.50754
 H739 H -0.02093 1.21446 0.43237
 H740 H 0.06313 1.19851 0.37080
 H741 H 0.06440 1.05227 0.43229
 H742 H -0.00822 1.07651 0.50734
 H743 H 0.07274 1.15243 0.40207
 H744 H 0.06935 1.10446 0.41514
 C745 C 0.78840 0.67872 0.89239
 C746 C 0.76829 0.68677 0.92091
 C747 C 0.76018 0.66473 0.94628
 C748 C 0.77425 0.63496 0.94714
 C749 C 0.79521 0.62790 0.91871
 C750 C 0.80189 0.64907 0.89190
 C751 C 0.79317 0.70179 0.86336
 C752 C 0.80821 0.69459 0.83070
 C753 C 0.80626 0.71495 0.80214
 C754 C 0.78949 0.74285 0.80563
 C755 C 0.78015 0.75250 0.84008
 C756 C 0.77964 0.73152 0.86792
 C757 C 0.75618 0.71689 0.92410
 C758 C 0.76256 0.73909 0.89874
 H759 H 0.74139 0.72339 0.94652
 H760 H 0.75215 0.76190 0.90217
 H761 H 0.74246 0.67140 0.96547
 H762 H 0.80680 0.60601 0.91580
 H763 H 0.81600 0.70774 0.77680
 H764 H 0.76902 0.77483 0.84447
 H765 H 0.81786 0.64182 0.87103
 H766 H 0.81950 0.67250 0.82590
 C767 C 0.27105 0.16143 0.43096
 C768 C 0.24383 0.16220 0.45241
 C769 C 0.24022 0.14161 0.48047
 C770 C 0.26350 0.11993 0.48871
 C771 C 0.29135 0.12066 0.46829
 C772 C 0.29486 0.14070 0.43974
 C773 C 0.27300 0.18262 0.39975
 C774 C 0.29775 0.18215 0.37469
 C775 C 0.29677 0.20058 0.34437
 C776 C 0.27120 0.21997 0.33841
 C777 C 0.24763 0.22189 0.36461
 C778 C 0.24795 0.20313 0.39438
 C779 C 0.22017 0.18350 0.44582
 C780 C 0.22236 0.20377 0.41768
 H781 H 0.19951 0.18438 0.46255
 H782 H 0.20320 0.21958 0.41346
 H783 H 0.21890 0.14218 0.49613
 H784 H 0.31096 0.10606 0.47395
 H785 H 0.31522 0.19835 0.32473
 H786 H 0.22755 0.23661 0.36105
 H787 H 0.31652 0.13980 0.42504
 H788 H 0.31740 0.16684 0.37732
 C789 C 0.71127 0.31826 0.42345
 C790 C 0.73539 0.31380 0.44787
 C791 C 0.74228 0.33696 0.47304
 C792 C 0.72211 0.36232 0.47964
 C793 C 0.69676 0.36548 0.45611
 C794 C 0.69187 0.34423 0.42811
 C795 C 0.70806 0.29524 0.39344
 C796 C 0.69186 0.30159 0.36207
 C797 C 0.69503 0.28188 0.33215
 C798 C 0.71317 0.25477 0.33351
 C799 C 0.72441 0.24596 0.36683
 C800 C 0.72493 0.26723 0.39520
 C801 C 0.75202 0.28589 0.44765
 C802 C 0.74556 0.26231 0.42305
 H803 H 0.76978 0.28196 0.46726
 H804 H 0.75889 0.24098 0.42407
 H805 H 0.76341 0.33488 0.48825
 H806 H 0.68078 0.38477 0.45818
 H807 H 0.68487 0.28905 0.30755
 H808 H 0.73711 0.22445 0.36960
 H809 H 0.67247 0.34806 0.41075
 H810 H 0.67911 0.32300 0.35923
 C811 C 0.23198 0.84393 0.91054
 C812 C 0.23969 0.82711 0.94099
 C813 C 0.25029 0.84296 0.97163
 C814 C 0.25037 0.87586 0.97367
 C815 C 0.24520 0.89197 0.94212
 C816 C 0.23611 0.87642 0.91122
 C817 C 0.22103 0.82629 0.87834
 C818 C 0.21542 0.84087 0.84625
 C819 C 0.21260 0.82350 0.81510
 C820 C 0.21250 0.79069 0.81459
 C821 C 0.21211 0.77622 0.84804
 C822 C 0.21856 0.79356 0.87940
 C823 C 0.23606 0.79466 0.94088
 C824 C 0.22539 0.77830 0.91091
 H825 H 0.24161 0.78168 0.96433
 H826 H 0.22363 0.75321 0.91202
 H827 H 0.25728 0.82938 0.99395
 H828 H 0.24612 0.91714 0.94219
 H829 H 0.21517 0.83693 0.79188
 H830 H 0.21197 0.75105 0.84912
 H831 H 0.23152 0.89060 0.88865
 H832 H 0.21640 0.86575 0.84370
 C833 C 0.25923 0.83711 0.10209
 C834 C 0.27889 0.86313 0.09939
 C835 C 0.27725 0.88177 0.06926
 C836 C 0.25501 0.87559 0.04243
 C837 C 0.23268 0.85237 0.04895
 C838 C 0.23525 0.83287 0.07756
 C839 C 0.26247 0.81669 0.13298
 C840 C 0.24795 0.78765 0.13406
 C841 C 0.24623 0.77190 0.16560
 C842 C 0.25890 0.78481 0.19694
 C843 C 0.27881 0.81066 0.19410
 C844 C 0.28039 0.82698 0.16208
 C845 C 0.29880 0.87094 0.12758
 C846 C 0.29865 0.85386 0.15892
 H847 H 0.31357 0.89131 0.12608
 H848 H 0.31295 0.86174 0.18084
 H849 H 0.29278 0.90151 0.06757
 H850 H 0.21360 0.84833 0.03099
 H851 H 0.23308 0.75047 0.16538
 H852 H 0.29106 0.81942 0.21720
 H853 H 0.21772 0.81510 0.08065
 H854 H 0.23683 0.77737 0.11107
 C855 C 0.76135 0.34788 0.61059
 C856 C 0.75364 0.32767 0.58214
 C857 C 0.73991 0.33952 0.55155
 C858 C 0.73765 0.37197 0.54603
 C859 C 0.74234 0.39113 0.57636
 C860 C 0.75434 0.37960 0.60766
 C861 C 0.77353 0.33412 0.64390
 C862 C 0.77784 0.35187 0.67504
 C863 C 0.78048 0.33740 0.70748
 C864 C 0.78162 0.30474 0.70988
 C865 C 0.78436 0.28750 0.67771
 C866 C 0.77775 0.30157 0.64520
 C867 C 0.75938 0.29568 0.58448
 C868 C 0.77176 0.28299 0.61508
 H869 H 0.75395 0.28014 0.56240
 H870 H 0.77494 0.25803 0.61586
 H871 H 0.73052 0.32276 0.53299
 H872 H 0.73565 0.41520 0.57686
 H873 H 0.77689 0.35237 0.73016
 H874 H 0.78567 0.26235 0.67838
 H875 H 0.75763 0.39605 0.62923
 H876 H 0.77573 0.37684 0.67569
 C877 C 0.22949 0.16393 0.60669
 C878 C 0.21823 0.13326 0.60746
 C879 C 0.22672 0.11196 0.58020
 C880 C 0.24908 0.11960 0.55365
 C881 C 0.26327 0.14925 0.55708
 C882 C 0.25293 0.17131 0.58213
 C883 C 0.21861 0.18647 0.63467
 C884 C 0.22293 0.21861 0.63193
 C885 C 0.21839 0.23795 0.66162
 C886 C 0.21176 0.22514 0.69506
 C887 C 0.20001 0.19457 0.69538
 C888 C 0.20363 0.17498 0.66519
 C889 C 0.19975 0.12381 0.63638
 C890 C 0.19388 0.14386 0.66548
 H891 H 0.19138 0.10008 0.63756
 H892 H 0.18160 0.13492 0.68839
 H893 H 0.21573 0.08966 0.58108
 H894 H 0.28197 0.15596 0.53936
 H895 H 0.22457 0.26223 0.65923
 H896 H 0.19061 0.18519 0.71957
 H897 H 0.26415 0.19382 0.58274
 H898 H 0.23129 0.22874 0.60758
 C899 C 0.72854 0.65617 0.07394
 C900 C 0.72424 0.62402 0.06859
 C901 C 0.73600 0.60957 0.03738
 C902 C 0.75406 0.62642 0.01242
 C903 C 0.76383 0.65648 0.02328
 C904 C 0.74983 0.67181 0.05222
 C905 C 0.71386 0.67145 0.10560
 C906 C 0.70985 0.70368 0.10844
 C907 C 0.70212 0.71733 0.14118
 C908 C 0.70157 0.69920 0.17203
 C909 C 0.69746 0.66691 0.16721
 C910 C 0.70370 0.65280 0.13375
 C911 C 0.70982 0.60662 0.09541
 C912 C 0.70128 0.62051 0.12817
 H913 H 0.70697 0.58172 0.09192
 H914 H 0.69260 0.60592 0.14920
 H915 H 0.73159 0.58505 0.03297
 H916 H 0.78181 0.66867 0.00887
 H917 H 0.70215 0.74249 0.14307
 H918 H 0.69162 0.65268 0.18953
 H919 H 0.75672 0.69549 0.05833
 H920 H 0.71428 0.71847 0.08606
 C921 C 0.20858 0.58595 0.25744
 C922 C 0.19328 0.57497 0.22668
 C923 C 0.17833 0.54614 0.22684
 C924 C 0.17639 0.52897 0.25828
 C925 C 0.19696 0.53712 0.28582
 C926 C 0.21246 0.56558 0.28577
 C927 C 0.21767 0.61940 0.25940
 C928 C 0.22855 0.63376 0.29074
 C929 C 0.23193 0.66591 0.29296
 C930 C 0.22370 0.68464 0.26445
 C931 C 0.21652 0.67009 0.23184
 C932 C 0.21231 0.63791 0.22948
 C933 C 0.19106 0.59370 0.19687
 C934 C 0.20073 0.62455 0.19813
 H935 H 0.18015 0.58491 0.17288
 H936 H 0.19716 0.63865 0.17501
 H937 H 0.16677 0.53843 0.20292
 H938 H 0.19845 0.52291 0.30914
 H939 H 0.24052 0.67605 0.31747
 H940 H 0.21201 0.68392 0.20874
 H941 H 0.22591 0.57180 0.30885
 H942 H 0.23356 0.62081 0.31420
 C943 C 0.68034 0.11179 0.73718
 C944 C 0.69607 0.08789 0.75498
 C945 C 0.68297 0.05812 0.75710
 C946 C 0.65400 0.05110 0.74177
 C947 C 0.63829 0.07524 0.72464
 C948 C 0.65134 0.10490 0.72192
 C949 C 0.69431 0.14384 0.73770
 C950 C 0.68096 0.16943 0.72062
 C951 C 0.69325 0.19942 0.72531
 C952 C 0.71869 0.20472 0.74768
 C953 C 0.73403 0.17872 0.76139
 C954 C 0.72189 0.14873 0.75709
 C955 C 0.72418 0.09409 0.77210
 C956 C 0.73669 0.12389 0.77334
 H957 H 0.73626 0.07579 0.78569
 H958 H 0.75800 0.12767 0.78793
 H959 H 0.69486 0.04083 0.77240
 H960 H 0.61527 0.07133 0.71406
 H961 H 0.68224 0.21846 0.71207
 H962 H 0.75466 0.18173 0.77732
 H963 H 0.63788 0.12238 0.70888
 H964 H 0.66076 0.16684 0.70408
 C965 C 0.81695 0.06401 0.26527
 C966 C 0.84215 0.06181 0.24114
 C967 C 0.85384 0.03301 0.23060
 C968 C 0.84269 0.00482 0.24470
 C969 C 0.82117 0.00782 0.27329
 C970 C 0.80716 0.03666 0.28209
 C971 C 0.80349 0.09576 0.27282
 C972 C 0.77436 0.10110 0.28956
 C973 C 0.76160 0.13134 0.29163
 C974 C 0.77817 0.15685 0.27813
 C975 C 0.80809 0.15136 0.26409
 C976 C 0.81990 0.12158 0.25959
 C977 C 0.85686 0.08843 0.22851
 C978 C 0.84671 0.11770 0.23874
 H979 H 0.87686 0.08663 0.21082
 H980 H 0.85903 0.13763 0.22836
 H981 H 0.87373 0.03337 0.21288
 H982 H 0.81541 -0.01202 0.28929
 H983 H 0.73840 0.13453 0.30253
 H984 H 0.82104 0.16982 0.25184
 H985 H 0.78980 0.03758 0.30305
 H986 H 0.76062 0.08194 0.29924
 C987 C 0.30786 0.59213 0.77394
 C988 C 0.33809 0.58870 0.78763
 C989 C 0.35404 0.56037 0.78320
 C990 C 0.34066 0.53462 0.76515
 C991 C 0.31026 0.53854 0.75199
 C992 C 0.29411 0.56646 0.75659
 C993 C 0.29289 0.62364 0.77607
 C994 C 0.26330 0.62979 0.76223
 C995 C 0.25229 0.66024 0.76052
 C996 C 0.27039 0.68559 0.77254
 C997 C 0.29824 0.67905 0.79004
 C998 C 0.30989 0.64861 0.79121
 C999 C 0.35292 0.61403 0.80420
 C1000 C 0.33915 0.64334 0.80591
 H1001 H 0.37600 0.61141 0.81501
 H1002 H 0.35208 0.66241 0.81789
 H1003 H 0.37765 0.55915 0.79251
 H1004 H 0.29926 0.52065 0.73596
 H1005 H 0.23007 0.66383 0.74806
 H1006 H 0.31196 0.69743 0.80129
 H1007 H 0.27137 0.56779 0.74495
 H1008 H 0.24871 0.61160 0.75147
 C1009 C 0.31327 0.41593 0.74006
 C1010 C 0.30012 0.43924 0.76241
 C1011 C 0.31382 0.46884 0.76459
 C1012 C 0.34187 0.47576 0.74633
 C1013 C 0.35487 0.45185 0.72466
 C1014 C 0.34064 0.42281 0.72106
 C1015 C 0.29897 0.38414 0.73994
 C1016 C 0.30905 0.35995 0.71693
 C1017 C 0.29697 0.33003 0.72003
 C1018 C 0.27485 0.32319 0.74644
 C1019 C 0.26281 0.34782 0.76752
 C1020 C 0.27462 0.37810 0.76437
 C1021 C 0.27459 0.43230 0.78433
 C1022 C 0.26251 0.40225 0.78581
 H1023 H 0.26456 0.45010 0.80169
 H1024 H 0.24354 0.39780 0.80420
 H1025 H 0.30392 0.48565 0.78324
 H1026 H 0.37688 0.45488 0.71114
 H1027 H 0.30542 0.31224 0.70177
 H1028 H 0.24494 0.34337 0.78727
 H1029 H 0.35238 0.40557 0.70463
 H1030 H 0.32630 0.36362 0.69643
 C1031 C 0.80533 0.88828 0.21727
 C1032 C 0.79085 0.91408 0.23402
 C1033 C 0.80669 0.94274 0.23628
 C1034 C 0.83881 0.94465 0.22784
 C1035 C 0.85322 0.91762 0.21340
 C1036 C 0.83668 0.89034 0.20721
 C1037 C 0.78782 0.85857 0.21429
 C1038 C 0.79713 0.83441 0.19113
 C1039 C 0.78270 0.80557 0.19273
 C1040 C 0.76016 0.79949 0.21892
 C1041 C 0.74753 0.82499 0.23836
 C1042 C 0.76082 0.85480 0.23531
 C1043 C 0.76169 0.91026 0.25062
 C1044 C 0.74783 0.88080 0.25297
 H1045 H 0.75056 0.92979 0.26418
 H1046 H 0.72652 0.87846 0.26829
 H1047 H 0.79369 0.96262 0.24564
 H1048 H 0.87786 0.91744 0.20718
 H1049 H 0.79002 0.78793 0.17396
 H1050 H 0.72845 0.82153 0.25688
 H1051 H 0.84919 0.87045 0.19648
 H1052 H 0.81557 0.83753 0.17179
 C1053 C 0.69432 0.93667 0.75935
 C1054 C 0.66814 0.94156 0.78187
 C1055 C 0.65082 0.96913 0.78005
 C1056 C 0.65936 0.99288 0.75661
 C1057 C 0.68598 0.98794 0.73497
 C1058 C 0.70327 0.96056 0.73647
 C1059 C 0.71006 0.90550 0.75938
 C1060 C 0.73510 0.89734 0.73652
 C1061 C 0.74621 0.86674 0.73466
 C1062 C 0.73245 0.84342 0.75530
 C1063 C 0.71022 0.85248 0.78096
 C1064 C 0.69823 0.88272 0.78240
 C1065 C 0.65855 0.91839 0.80514
 C1066 C 0.67343 0.88969 0.80560
 H1067 H 0.63874 0.92223 0.82272
 H1068 H 0.66457 0.87223 0.82345
 H1069 H 0.62970 0.97129 0.79582
 H1070 H 0.69304 1.00499 0.71577
 H1071 H 0.76433 0.86106 0.71546
 H1072 H 0.70128 0.83593 0.79932
 H1073 H 0.72299 0.95823 0.71870
 H1074 H 0.74564 0.91388 0.71893
 C1075 C 0.20722 0.41747 0.27847
 C1076 C 0.21206 0.43593 0.24833
 C1077 C 0.19624 0.46410 0.24547
 C1078 C 0.17333 0.47320 0.27066
 C1079 C 0.17015 0.45563 0.30162
 C1080 C 0.18681 0.42821 0.30545
 C1081 C 0.22188 0.38609 0.27888
 C1082 C 0.21904 0.36625 0.30791
 C1083 C 0.22846 0.33541 0.30473
 C1084 C 0.24015 0.32343 0.27225
 C1085 C 0.24791 0.34442 0.24555
 C1086 C 0.23809 0.37539 0.24816
 C1087 C 0.23092 0.42520 0.22011
 C1088 C 0.24332 0.39531 0.21979
 H1089 H 0.23473 0.43947 0.19708
 H1090 H 0.25628 0.38732 0.19651
 H1091 H 0.19969 0.47785 0.22193
 H1092 H 0.15441 0.46241 0.32292
 H1093 H 0.22476 0.32057 0.32724
 H1094 H 0.26055 0.33653 0.22207
 H1095 H 0.18232 0.41518 0.32911
 H1096 H 0.20887 0.37376 0.33292
 C1097 C 0.09020 0.24727 0.83272
 C1098 C 0.06519 0.25829 0.81279
 C1099 C 0.03574 0.26242 0.82921
 C1100 C 0.02993 0.25246 0.86446
 C1101 C 0.05527 0.23945 0.88257
 C1102 C 0.08456 0.23668 0.86708
 C1103 C 0.12206 0.24781 0.81679
 C1104 C 0.14856 0.24596 0.83783
 C1105 C 0.17794 0.24725 0.82261
 C1106 C 0.18221 0.24850 0.78547
 C1107 C 0.15567 0.25213 0.76427
 C1108 C 0.12565 0.25315 0.78010
 C1109 C 0.07010 0.26522 0.77683
 C1110 C 0.09941 0.26127 0.76043
 H1111 H 0.05090 0.27309 0.76096
 H1112 H 0.10184 0.26614 0.73244
 H1113 H 0.01844 0.27534 0.81511
 H1114 H 0.05306 0.23263 0.90991
 H1115 H 0.19739 0.24636 0.84051
 H1116 H 0.15843 0.25543 0.73598
 H1117 H 0.10266 0.22641 0.88263
 H1118 H 0.14708 0.24469 0.86639
 C1119 C 0.57820 0.72590 0.30765
 C1120 C 0.55386 0.73765 0.28716
 C1121 C 0.52460 0.74406 0.30333
 C1122 C 0.51846 0.73662 0.33941
 C1123 C 0.54320 0.72314 0.35811
 C1124 C 0.57198 0.71738 0.34259
 C1125 C 0.61012 0.72389 0.29188
 C1126 C 0.63634 0.72051 0.31316
 C1127 C 0.66589 0.72053 0.29834
 C1128 C 0.67072 0.72208 0.26141
 C1129 C 0.64450 0.72643 0.23980
 C1130 C 0.61431 0.72862 0.25516
 C1131 C 0.55935 0.74317 0.25095
 C1132 C 0.58861 0.73756 0.23500
 H1133 H 0.54068 0.75156 0.23461
 H1134 H 0.59152 0.74180 0.20691
 H1135 H 0.50783 0.75674 0.28821
 H1136 H 0.54148 0.71816 0.38584
 H1137 H 0.68504 0.71978 0.31666
 H1138 H 0.64771 0.72988 0.21159
 H1139 H 0.58933 0.70666 0.35881
 H1140 H 0.63470 0.71956 0.34170
 C1141 C 0.59005 0.24883 0.19766
 C1142 C 0.56355 0.25409 0.21920
 C1143 C 0.53426 0.25854 0.20317
 C1144 C 0.53181 0.26026 0.16567
 C1145 C 0.55965 0.25851 0.14546
 C1146 C 0.58803 0.25270 0.16097
 C1147 C 0.61982 0.24030 0.21467
 C1148 C 0.64420 0.22696 0.19494
 C1149 C 0.67236 0.22102 0.21069
 C1150 C 0.67786 0.22900 0.24666
 C1151 C 0.65223 0.23907 0.26764
 C1152 C 0.62287 0.24401 0.25177
 C1153 C 0.56700 0.25531 0.25634
 C1154 C 0.59631 0.25176 0.27217
 H1155 H 0.54699 0.26005 0.27331
 H1156 H 0.59796 0.25406 0.30077
 H1157 H 0.51389 0.26020 0.22007
 H1158 H 0.55917 0.26070 0.11688
 H1159 H 0.69032 0.21118 0.19357
 H1160 H 0.65492 0.24293 0.29587
 H1161 H 0.60828 0.25148 0.14378
 H1162 H 0.64184 0.22077 0.16717
 C1163 C 0.08759 0.75246 0.67681
 C1164 C 0.08516 0.76735 0.64389
 C1165 C 0.05722 0.76673 0.62523
 C1166 C 0.03076 0.75047 0.63735
 C1167 C 0.03382 0.73545 0.67037
 C1168 C 0.06139 0.73669 0.68982
 C1169 C 0.11837 0.75334 0.69539
 C1170 C 0.12343 0.74098 0.72936
 C1171 C 0.15308 0.74215 0.74479
 C1172 C 0.17834 0.75526 0.72649
 C1173 C 0.17307 0.76745 0.69267
 C1174 C 0.14366 0.76737 0.67768
 C1175 C 0.11097 0.78207 0.62879
 C1176 C 0.13970 0.78163 0.64503
 H1177 H 0.10915 0.79346 0.60349
 H1178 H 0.15914 0.79276 0.63181
 H1179 H 0.05728 0.77875 0.60065
 H1180 H 0.01489 0.72238 0.68180
 H1181 H 0.15625 0.73258 0.77086
 H1182 H 0.19182 0.77819 0.67791
 H1183 H 0.06198 0.72452 0.71457
 H1184 H 0.10478 0.73056 0.74439
 C1185 C 0.91000 0.74845 0.66686
 C1186 C 0.93637 0.75657 0.68677
 C1187 C 0.96594 0.75623 0.67026
 C1188 C 0.97012 0.74440 0.63502
 C1189 C 0.94326 0.73443 0.61681
 C1190 C 0.91393 0.73622 0.63237
 C1191 C 0.87870 0.75349 0.68310
 C1192 C 0.85205 0.75455 0.66227
 C1193 C 0.82319 0.75950 0.67785
 C1194 C 0.81949 0.76187 0.71509
 C1195 C 0.84640 0.76293 0.73607
 C1196 C 0.87614 0.76000 0.71993
 C1197 C 0.93275 0.76488 0.72287
 C1198 C 0.90335 0.76510 0.73950
 H1199 H 0.95298 0.77050 0.73867
 H1200 H 0.90180 0.77080 0.76760
 H1201 H 0.98506 0.76662 0.68458
 H1202 H 0.94457 0.72634 0.58950
 H1203 H 0.80363 0.76041 0.66012
 H1204 H 0.84430 0.76692 0.76447
 H1205 H 0.89450 0.72802 0.61686
 H1206 H 0.85313 0.75256 0.63368
 C1207 C 0.41844 0.25365 0.21554
 C1208 C 0.42543 0.23027 0.18995
 C1209 C 0.44974 0.23435 0.16554
 C1210 C 0.47101 0.25941 0.16851
 C1211 C 0.46379 0.28282 0.19406
 C1212 C 0.43785 0.28017 0.21702
 C1213 C 0.38992 0.24928 0.23862
 C1214 C 0.37748 0.27278 0.26108
 C1215 C 0.34779 0.26938 0.27642
 C1216 C 0.32993 0.24222 0.27025
 C1217 C 0.34493 0.21696 0.25361
 C1218 C 0.37339 0.22086 0.23566
 C1219 C 0.40836 0.20250 0.18883
 C1220 C 0.38357 0.19750 0.21199
 H1221 H 0.41434 0.18422 0.16976
 H1222 H 0.37096 0.17573 0.20971
 H1223 H 0.45161 0.21723 0.14433
 H1224 H 0.47863 0.30308 0.19660
 H1225 H 0.33771 0.28936 0.29012
 H1226 H 0.33324 0.19509 0.25120
 H1227 H 0.43367 0.29876 0.23614
 H1228 H 0.38918 0.29481 0.26475
 C1229 C 0.40129 0.76871 0.30567
 C1230 C 0.40887 0.78314 0.33839
 C1231 C 0.43753 0.77745 0.35422
 C1232 C 0.45995 0.75705 0.33889
 C1233 C 0.45205 0.74294 0.30590
 C1234 C 0.42353 0.74887 0.28944
 C1235 C 0.36883 0.77299 0.29184
 C1236 C 0.35822 0.75967 0.25967
 C1237 C 0.32657 0.76075 0.25092
 C1238 C 0.30466 0.77484 0.27416
 C1239 C 0.31574 0.79022 0.30467
 C1240 C 0.34728 0.78979 0.31336
 C1241 C 0.38708 0.80179 0.35668
 C1242 C 0.35685 0.80470 0.34469
 H1243 H 0.39304 0.81313 0.38165
 H1244 H 0.34045 0.81812 0.36077
 H1245 H 0.44103 0.78806 0.37991
 H1246 H 0.46682 0.72533 0.29373
 H1247 H 0.31908 0.74885 0.22690
 H1248 H 0.29971 0.80046 0.32364
 H1249 H 0.41866 0.73649 0.26493
 H1250 H 0.37382 0.74746 0.24162
 C1251 C 0.90975 0.26977 0.83207
 C1252 C 0.91474 0.28308 0.86608
 C1253 C 0.94426 0.28221 0.88148
 C1254 C 0.96991 0.26729 0.86475
 C1255 C 0.96430 0.25400 0.83060
 C1256 C 0.93514 0.25564 0.81442
 C1257 C 0.87722 0.26981 0.81756
 C1258 C 0.86949 0.25849 0.78330
 C1259 C 0.83857 0.25891 0.77157
 C1260 C 0.81455 0.27017 0.79389
 C1261 C 0.82229 0.28116 0.82811
 C1262 C 0.85309 0.28179 0.83960
 C1263 C 0.88988 0.29590 0.88568
 C1264 C 0.85970 0.29486 0.87296
 H1265 H 0.89366 0.30613 0.91181
 H1266 H 0.84121 0.30449 0.88958
 H1267 H 0.94607 0.29198 0.90774
 H1268 H 0.98161 0.24007 0.81680
 H1269 H 0.83352 0.25060 0.74493
 H1270 H 0.80446 0.29057 0.84575
 H1271 H 0.93254 0.24428 0.78882
 H1272 H 0.88704 0.24966 0.76508
 C1273 C 0.59149 0.98024 0.65482
 C1274 C 0.61973 0.99699 0.65243
 C1275 C 0.63244 1.01134 0.68250
 C1276 C 0.61894 1.00802 0.71638
 C1277 C 0.59322 0.98764 0.71916
 C1278 C 0.57883 0.97510 0.68879
 C1279 C 0.57668 0.96904 0.62086
 C1280 C 0.54576 0.95806 0.61858
 C1281 C 0.53121 0.95462 0.58535
 C1282 C 0.54728 0.96177 0.55372
 C1283 C 0.57939 0.96786 0.55642
 C1284 C 0.59357 0.97306 0.58902
 C1285 C 0.63568 0.99896 0.62010
 C1286 C 0.62334 0.98632 0.58924
 H1287 H 0.65794 1.01075 0.61852
 H1288 H 0.63636 0.98913 0.56470
 H1289 H 0.65382 1.02440 0.67948
 H1290 H 0.58413 0.98130 0.74491
 H1291 H 0.50648 0.94986 0.58483
 H1292 H 0.59276 0.97480 0.53385
 H1293 H 0.55846 0.96071 0.69227
 H1294 H 0.53178 0.95474 0.64219
 C1295 C 0.09512 0.49011 1.16855
 C1296 C 0.09334 0.51710 1.19056
 C1297 C 0.11211 0.52011 1.22041
 C1298 C 0.13304 0.49657 1.22967
 C1299 C 0.13244 0.46852 1.20939
 C1300 C 0.11428 0.46559 1.17898
 C1301 C 0.07655 0.48909 1.13510
 C1302 C 0.07894 0.46500 1.10912
 C1303 C 0.06314 0.46697 1.07685
 C1304 C 0.04462 0.49293 1.06992
 C1305 C 0.04084 0.51587 1.09679
 C1306 C 0.05696 0.51456 1.12849
 C1307 C 0.07294 0.54116 1.18269
 C1308 C 0.05477 0.53971 1.15254
 H1309 H 0.07121 0.56159 1.19992
 H1310 H 0.03961 0.55917 1.14731
 H1311 H 0.11092 0.54128 1.23650
 H1312 H 0.14555 0.44833 1.21669
 H1313 H 0.06677 0.44900 1.05673
 H1314 H 0.02682 0.53630 1.09249
 H1315 H 0.11528 0.44384 1.16424
 H1316 H 0.09387 0.44519 1.11260
 C1317 C -0.08819 0.00575 1.14351
 C1318 C -0.12086 0.00336 1.14128
 C1319 C -0.13772 -0.01085 1.16877
 C1320 C -0.12209 -0.02202 1.19880
 C1321 C -0.08952 -0.02580 1.19592
 C1322 C -0.07271 -0.01117 1.16931
 C1323 C -0.07107 0.02396 1.11647
 C1324 C -0.03973 0.03262 1.12017
 C1325 C -0.02303 0.04333 1.09089
 C1326 C -0.03700 0.04327 1.05726
 C1327 C -0.06979 0.04318 1.05649
 C1328 C -0.08694 0.03262 1.08576
 C1329 C -0.13612 0.01549 1.11188
 C1330 C -0.11933 0.02880 1.08397
 H1331 H -0.16117 0.01357 1.10979
 H1332 H -0.13178 0.03609 1.06071
 H1333 H -0.16292 -0.01031 1.16875
 H1334 H -0.07651 -0.03836 1.21537
 H1335 H 0.00192 0.04593 1.09340
 H1336 H -0.08198 0.04734 1.03236
 H1337 H -0.04765 -0.01304 1.16934
 H1338 H -0.02751 0.02933 1.14473
 C1339 C 0.40942 0.53164 0.65517
 C1340 C 0.37686 0.53420 0.65884
 C1341 C 0.36229 0.52710 0.69119
 C1342 C 0.37899 0.51462 0.71981
 C1343 C 0.41043 0.50665 0.71247
 C1344 C 0.42585 0.51678 0.68189
 C1345 C 0.42409 0.53934 0.62028
 C1346 C 0.45625 0.54353 0.61531
 C1347 C 0.46900 0.54476 0.58092
 C1348 C 0.45026 0.53906 0.55088
 C1349 C 0.41770 0.53873 0.55653
 C1350 C 0.40466 0.54086 0.59065
 C1351 C 0.35881 0.54095 0.62918
 C1352 C 0.37230 0.54235 0.59537
 H1353 H 0.33372 0.54249 0.63162
 H1354 H 0.35726 0.54466 0.57267
 H1355 H 0.33738 0.52938 0.69283
 H1356 H 0.42324 0.49145 0.72938
 H1357 H 0.49408 0.54580 0.57823
 H1358 H 0.40196 0.53266 0.53567
 H1359 H 0.45011 0.51080 0.67813
 H1360 H 0.47170 0.54465 0.63777
 C1361 C 0.41978 0.48042 -0.15430
 C1362 C 0.43214 0.49837 -0.18208
 C1363 C 0.41265 0.50928 -0.20874
 C1364 C 0.38190 0.49821 -0.21250
 C1365 C 0.36969 0.48146 -0.18345
 C1366 C 0.38813 0.47271 -0.15509
 C1367 C 0.44076 0.47171 -0.12456
 C1368 C 0.42987 0.45915 -0.09243
 C1369 C 0.44951 0.45743 -0.06313
 C1370 C 0.48055 0.46742 -0.06544
 C1371 C 0.49268 0.47341 -0.09959
 C1372 C 0.47272 0.47863 -0.12792
 C1373 C 0.46402 0.50483 -0.18357
 C1374 C 0.48408 0.49405 -0.15779
 H1375 H 0.47371 0.51798 -0.20530
 H1376 H 0.50858 0.49969 -0.16014
 H1377 H 0.42191 0.52642 -0.22657
 H1378 H 0.34563 0.47499 -0.18171
 H1379 H 0.43949 0.45032 -0.03829
 H1380 H 0.51706 0.47917 -0.10298
 H1381 H 0.37723 0.45949 -0.13433
 H1382 H 0.40578 0.45297 -0.08846
 C1383 C -0.06924 0.95919 0.31560
 C1384 C -0.07083 0.98683 0.29606
 C1385 C -0.09477 0.99131 0.27222
 C1386 C -0.11721 0.96823 0.26520
 C1387 C -0.11651 0.94123 0.28599
 C1388 C -0.09281 0.93677 0.31078
 C1389 C -0.04368 0.95640 0.34219
 C1390 C -0.03880 0.93004 0.36323
 C1391 C -0.01852 0.93179 0.39232
 C1392 C -0.00496 0.96035 0.40198
 C1393 C -0.00397 0.98342 0.37600
 C1394 C -0.02385 0.98223 0.34723
 C1395 C -0.04861 1.01028 0.30032
 C1396 C -0.02564 1.00810 0.32553
 H1397 H -0.04964 1.03119 0.28478
 H1398 H -0.00987 1.02757 0.32911
 H1399 H -0.09472 1.01249 0.25728
 H1400 H -0.13398 0.92330 0.28326
 H1401 H -0.01527 0.91157 0.40845
 H1402 H 0.00929 1.00458 0.38015
 H1403 H -0.09331 0.91579 0.32605
 H1404 H -0.05127 0.90859 0.35840
 C1405 C 0.08248 0.52106 0.34640
 C1406 C 0.07933 0.49619 0.32169
 C1407 C 0.10343 0.48919 0.29764
 C1408 C 0.12945 0.50895 0.29404
 C1409 C 0.13040 0.53584 0.31643
 C1410 C 0.10801 0.54108 0.34301
 C1411 C 0.05797 0.52527 0.37451
 C1412 C 0.06245 0.54323 0.40578
 C1413 C 0.04110 0.54154 0.43407
 C1414 C 0.01435 0.52292 0.43111
 C1415 C 0.00757 0.50955 0.39760
 C1416 C 0.03029 0.50796 0.37097
 C1417 C 0.05158 0.47926 0.32012
 C1418 C 0.02693 0.48615 0.34314
 H1419 H 0.04864 0.46087 0.30035
 H1420 H 0.00581 0.47251 0.34079
 H1421 H 0.10123 0.46896 0.28023
 H1422 H 0.14778 0.55363 0.31377
 H1423 H 0.04683 0.55291 0.45901
 H1424 H -0.01345 0.49613 0.39363
 H1425 H 0.11021 0.56165 0.35975
 H1426 H 0.08359 0.55633 0.40997
 C1427 C 0.58231 0.04846 -0.15648
 C1428 C 0.56713 0.04353 -0.18916
 C1429 C 0.58457 0.03603 -0.21994
 C1430 C 0.61655 0.02882 -0.21788
 C1431 C 0.63114 0.03349 -0.18483
 C1432 C 0.61448 0.04340 -0.15479
 C1433 C 0.56305 0.05555 -0.12414
 C1434 C 0.57592 0.06513 -0.09160
 C1435 C 0.55793 0.06456 -0.06059
 C1436 C 0.52743 0.05289 -0.06121
 C1437 C 0.51292 0.04986 -0.09453
 C1438 C 0.53061 0.05123 -0.12604
 C1439 C 0.53453 0.04415 -0.19033
 C1440 C 0.51663 0.04655 -0.15916
 H1441 H 0.52271 0.04031 -0.21530
 H1442 H 0.49159 0.04424 -0.16096
 H1443 H 0.57283 0.03520 -0.24516
 H1444 H 0.65582 0.02936 -0.18216
 H1445 H 0.56883 0.07131 -0.03614
 H1446 H 0.48861 0.04332 -0.09605
 H1447 H 0.62690 0.04573 -0.13011
 H1448 H 0.60003 0.07197 -0.08957
 C1449 C 0.67743 0.56191 -0.04230
 C1450 C 0.68036 0.59442 -0.04557
 C1451 C 0.70965 0.60839 -0.04558
 C1452 C 0.73662 0.59174 -0.03688
 C1453 C 0.73325 0.55919 -0.03263
 C1454 C 0.70441 0.54442 -0.03674
 C1455 C 0.64541 0.54844 -0.03923
 C1456 C 0.63878 0.51633 -0.04117
 C1457 C 0.60832 0.50549 -0.03515
 C1458 C 0.58439 0.52632 -0.02511
 C1459 C 0.59178 0.55805 -0.02237
 C1460 C 0.62075 0.56927 -0.03249
 C1461 C 0.65402 0.61349 -0.04407
 C1462 C 0.62505 0.60133 -0.03560
 H1463 H 0.65622 0.63850 -0.04621
 H1464 H 0.60566 0.61718 -0.03180
 H1465 H 0.71038 0.63327 -0.04736
 H1466 H 0.75188 0.54500 -0.02307
 H1467 H 0.60387 0.48074 -0.03685
 H1468 H 0.57579 0.57456 -0.01075
 H1469 H 0.70304 0.51976 -0.03200
 H1470 H 0.65679 0.49958 -0.04758
 C1471 C 0.17832 1.03595 0.50095
 C1472 C 0.18939 1.05512 0.47363
 C1473 C 0.21548 1.07402 0.47920
 C1474 C 0.23130 1.07438 0.51197
 C1475 C 0.22379 1.05028 0.53550
 C1476 C 0.19695 1.03227 0.53099
 C1477 C 0.14727 1.02067 0.49644
 C1478 C 0.13113 1.00627 0.52440
 C1479 C 0.10032 0.99648 0.52002
 C1480 C 0.08480 1.00122 0.48791
 C1481 C 0.10249 1.01107 0.45870
 C1482 C 0.13252 1.02289 0.46326
 C1483 C 0.17413 1.05564 0.44100
 C1484 C 0.14676 1.03901 0.43556
 H1485 H 0.18319 1.06952 0.41953
 H1486 H 0.13546 1.04062 0.41008
 H1487 H 0.22298 1.08832 0.45751
 H1488 H 0.23785 1.04659 0.55872
 H1489 H 0.08830 0.98632 0.54235
 H1490 H 0.09251 1.01109 0.43250
 H1491 H 0.19103 1.01575 0.55119
 H1492 H 0.14134 1.00391 0.55026
 C1493 C 0.15964 -0.06105 1.02505
 C1494 C 0.16402 -0.08823 1.00411
 C1495 C 0.19359 -0.10014 0.99822
 C1496 C 0.22043 -0.08698 1.01390
 C1497 C 0.21514 -0.06280 1.03927
 C1498 C 0.18552 -0.04893 1.04344
 C1499 C 0.12732 -0.04765 1.02725
 C1500 C 0.12030 -0.01762 1.04093
 C1501 C 0.09011 -0.00515 1.03775
 C1502 C 0.06629 -0.02269 1.02158
 C1503 C 0.07318 -0.05323 1.01035
 C1504 C 0.10302 -0.06522 1.01180
 C1505 C 0.13879 -0.10439 0.98972
 C1506 C 0.10882 -0.09365 0.99450
 H1507 H 0.14223 -0.12584 0.97456
 H1508 H 0.09006 -0.10698 0.98264
 H1509 H 0.19489 -0.12134 0.98240
 H1510 H 0.23358 -0.05499 1.05657
 H1511 H 0.08584 0.01859 1.04652
 H1512 H 0.05640 -0.06672 0.99556
 H1513 H 0.18284 -0.02968 1.06210
 H1514 H 0.13825 -0.00305 1.05231
 C1515 C 0.64273 0.43985 0.51649
 C1516 C 0.64625 0.41198 0.53527
 C1517 C 0.67484 0.39629 0.53450
 C1518 C 0.70057 0.40774 0.51520
 C1519 C 0.69677 0.43570 0.49684
 C1520 C 0.66854 0.45161 0.49775
 C1521 C 0.61111 0.45440 0.51538
 C1522 C 0.60501 0.48161 0.49658
 C1523 C 0.57464 0.49212 0.49271
 C1524 C 0.54933 0.47603 0.50768
 C1525 C 0.55566 0.45078 0.52951
 C1526 C 0.58609 0.43945 0.53277
 C1527 C 0.62083 0.39914 0.55340
 C1528 C 0.59138 0.41257 0.55215
 H1529 H 0.62355 0.37788 0.56799
 H1530 H 0.57228 0.40121 0.56574
 H1531 H 0.67661 0.37417 0.54758
 H1532 H 0.71509 0.44470 0.48005
 H1533 H 0.57110 0.51239 0.47671
 H1534 H 0.53702 0.43897 0.54294
 H1535 H 0.66717 0.47242 0.48241
 H1536 H 0.62317 0.49463 0.48368
 C1537 C -0.18322 0.43690 0.48525
 C1538 C -0.20322 0.44766 0.51271
 C1539 C -0.23230 0.43353 0.51781
 C1540 C -0.24143 0.40689 0.49787
 C1541 C -0.22274 0.39927 0.46776
 C1542 C -0.19416 0.41371 0.46179
 C1543 C -0.15107 0.45015 0.48297
 C1544 C -0.12880 0.43952 0.45797
 C1545 C -0.09812 0.44979 0.45967
 C1546 C -0.08848 0.47056 0.48649
 C1547 C -0.11138 0.48385 0.50909
 C1548 C -0.14223 0.47317 0.50821
 C1549 C -0.19371 0.47178 0.53570
 C1550 C -0.16382 0.48426 0.53352
 H1551 H -0.20921 0.48038 0.55653
 H1552 H -0.15717 0.50206 0.55275
 H1553 H -0.24775 0.44374 0.53743
 H1554 H -0.22941 0.38200 0.44823
 H1555 H -0.08210 0.44105 0.43990
 H1556 H -0.10493 0.50091 0.52924
 H1557 H -0.18079 0.40587 0.43895
 H1558 H -0.13430 0.42266 0.43743
 C1559 C 0.34008 -0.05411 -0.00487
 C1560 C 0.31410 -0.03742 0.00820
 C1561 C 0.28472 -0.05211 0.00970
 C1562 C 0.28211 -0.08468 0.00407
 C1563 C 0.30954 -0.10119 -0.00524
 C1564 C 0.33762 -0.08617 -0.01087
 C1565 C 0.37024 -0.03771 -0.00873
 C1566 C 0.39416 -0.04949 -0.03050
 C1567 C 0.42298 -0.03500 -0.03101
 C1568 C 0.42954 -0.00985 -0.00801
 C1569 C 0.40441 0.00429 0.01066
 C1570 C 0.37437 -0.00893 0.00904
 C1571 C 0.31841 -0.00702 0.02175
 C1572 C 0.34830 0.00620 0.02410
 H1573 H 0.29882 0.00589 0.03275
 H1574 H 0.35086 0.02884 0.03684
 H1575 H 0.26481 -0.03794 0.01613
 H1576 H 0.30917 -0.12627 -0.00845
 H1577 H 0.44004 -0.04413 -0.04924
 H1578 H 0.40815 0.02519 0.02657
 H1579 H 0.35766 -0.10013 -0.01820
 H1580 H 0.39068 -0.06966 -0.04760
 C1581 C 0.34778 1.05097 0.52867
 C1582 C 0.32559 1.04107 0.50347
 C1583 C 0.29597 1.05462 0.50339
 C1584 C 0.28779 1.07897 0.52743
 C1585 C 0.30938 1.08719 0.55391
 C1586 C 0.33883 1.07342 0.55455
 C1587 C 0.38027 1.03832 0.52530
 C1588 C 0.40460 1.04766 0.54784
 C1589 C 0.43503 1.03747 0.54141
 C1590 C 0.44232 1.01800 0.51219
 C1591 C 0.41759 1.00644 0.49151
 C1592 C 0.38704 1.01692 0.49729
 C1593 C 0.33350 1.01886 0.47724
 C1594 C 0.36354 1.00699 0.47426
 H1595 H 0.31641 1.01115 0.45803
 H1596 H 0.36868 0.99050 0.45287
 H1597 H 0.28001 1.04789 0.48253
 H1598 H 0.30436 1.10518 0.57352
 H1599 H 0.45271 1.04504 0.55957
 H1600 H 0.42218 0.99056 0.46940
 H1601 H 0.35458 1.08147 0.57483
 H1602 H 0.40076 1.06320 0.57027
 C1603 C -0.14972 0.55673 0.99590
 C1604 C -0.16734 0.55091 0.96512
 C1605 C -0.19573 0.56632 0.96062
 C1606 C -0.20596 0.58998 0.98464
 C1607 C -0.18741 0.59583 1.01483
 C1608 C -0.16026 0.57922 1.02065
 C1609 C -0.11891 0.54120 0.99911
 C1610 C -0.10113 0.54316 1.03017
 C1611 C -0.07038 0.53305 1.02985
 C1612 C -0.05651 0.52147 0.99829
 C1613 C -0.07581 0.51451 0.96931
 C1614 C -0.10679 0.52468 0.96932
 C1615 C -0.15545 0.53147 0.93789
 C1616 C -0.12538 0.51935 0.93949
 H1617 H -0.16881 0.52708 0.91408
 H1618 H -0.11640 0.50611 0.91685
 H1619 H -0.20906 0.56117 0.93697
 H1620 H -0.19300 0.61384 1.03418
 H1621 H -0.05695 0.53656 1.05372
 H1622 H -0.06654 0.50237 0.94610
 H1623 H -0.14695 0.58559 1.04380
 H1624 H -0.11026 0.55325 1.05458
 C1625 C 0.00079 0.65456 0.55891
 C1626 C 0.00499 0.65790 0.59590
 C1627 C 0.00752 0.68741 0.61177
 C1628 C 0.00410 0.71489 0.59244
 C1629 C -0.00252 0.71100 0.55577
 C1630 C -0.00305 0.68156 0.53914
 C1631 C -0.00227 0.62233 0.54328
 C1632 C -0.00267 0.61555 0.50643
 C1633 C -0.00547 0.58471 0.49373
 C1634 C -0.00835 0.56012 0.51750
 C1635 C -0.00968 0.56736 0.55411
 C1636 C -0.00478 0.59747 0.56698
 C1637 C 0.00443 0.63187 0.61755
 C1638 C -0.00142 0.60243 0.60353
 H1639 H 0.00724 0.63444 0.64601
 H1640 H -0.00271 0.58313 0.62155
 H1641 H 0.00940 0.68843 0.64012
 H1642 H -0.00964 0.73010 0.53973
 H1643 H -0.00560 0.58024 0.46539
 H1644 H -0.01275 0.54917 0.57331
 H1645 H -0.00850 0.68022 0.51124
 H1646 H -0.00023 0.63371 0.48723
 C1647 C 0.50720 0.17487 0.07980
 C1648 C 0.50817 0.17523 0.11731
 C1649 C 0.50735 0.20323 0.13642
 C1650 C 0.50330 0.23196 0.11974
 C1651 C 0.50387 0.23174 0.08220
 C1652 C 0.50560 0.20361 0.06255
 C1653 C 0.50729 0.14375 0.06068
 C1654 C 0.50768 0.13974 0.02329
 C1655 C 0.50712 0.10975 0.00745
 C1656 C 0.50580 0.08324 0.02857
 C1657 C 0.50503 0.08756 0.06572
 C1658 C 0.50661 0.11690 0.08163
 C1659 C 0.50887 0.14762 0.13609
 C1660 C 0.50760 0.11908 0.11866
 H1661 H 0.50957 0.14806 0.16485
 H1662 H 0.50747 0.09832 0.13451
 H1663 H 0.50810 0.20271 0.16518
 H1664 H 0.50340 0.25298 0.06752
 H1665 H 0.50743 0.10738 -0.02120
 H1666 H 0.50359 0.06787 0.08310
 H1667 H 0.50537 0.20472 0.03396
 H1668 H 0.50849 0.15945 0.00603
 C1669 C -0.00708 0.16881 0.93566
 C1670 C -0.00170 0.19459 0.95822
 C1671 C -0.00033 0.22472 0.94380
 C1672 C -0.00720 0.22968 0.90739
 C1673 C -0.01590 0.20320 0.88698
 C1674 C -0.01599 0.17362 0.90070
 C1675 C -0.00289 0.13704 0.94958
 C1676 C 0.00166 0.11148 0.92667
 C1677 C 0.00468 0.08198 0.93999
 C1678 C 0.00185 0.07653 0.97672
 C1679 C 0.00011 0.10253 1.00018
 C1680 C -0.00094 0.13301 0.98655
 C1681 C 0.00249 0.18964 0.99470
 C1682 C 0.00123 0.15955 1.00880
 H1683 H 0.00594 0.20929 1.01267
 H1684 H 0.00352 0.15698 1.03720
 H1685 H 0.00836 0.24320 0.96066
 H1686 H -0.02055 0.20444 0.85913
 H1687 H 0.00796 0.06336 0.92064
 H1688 H -0.00023 0.09911 1.02859
 H1689 H -0.02255 0.15456 0.88322
 H1690 H 0.00350 0.11394 0.89825
 C1691 C 0.47354 0.65899 0.41607
 C1692 C 0.48893 0.68344 0.43400
 C1693 C 0.49178 0.71264 0.41803
 C1694 C 0.47911 0.71847 0.38405
 C1695 C 0.46175 0.69407 0.36833
 C1696 C 0.45864 0.66527 0.38408
 C1697 C 0.47475 0.62712 0.43116
 C1698 C 0.46427 0.60083 0.41221
 C1699 C 0.46658 0.57147 0.42640
 C1700 C 0.47900 0.56707 0.46038
 C1701 C 0.49012 0.59321 0.47941
 C1702 C 0.48862 0.62309 0.46466
 C1703 C 0.50243 0.67817 0.46713
 C1704 C 0.50166 0.64881 0.48248
 H1705 H 0.51393 0.69700 0.48132
 H1706 H 0.51242 0.64597 0.50808
 H1707 H 0.50659 0.72960 0.43095
 H1708 H 0.45134 0.69602 0.34271
 H1709 H 0.45767 0.55225 0.41059
 H1710 H 0.50010 0.59031 0.50542
 H1711 H 0.44511 0.64795 0.37006
 H1712 H 0.45461 0.60220 0.38601
 C1713 C 0.51084 0.83520 0.41720
 C1714 C 0.49299 0.81254 0.43474
 C1715 C 0.48699 0.78369 0.41785
 C1716 C 0.49903 0.77637 0.38347
 C1717 C 0.51691 0.79951 0.36678
 C1718 C 0.52315 0.82793 0.38337
 C1719 C 0.51427 0.86669 0.43439
 C1720 C 0.52952 0.89124 0.41746
 C1721 C 0.53003 0.92077 0.43284
 C1722 C 0.51628 0.92693 0.46632
 C1723 C 0.50181 0.90229 0.48411
 C1724 C 0.50028 0.87239 0.46810
 C1725 C 0.48017 0.81931 0.46843
 C1726 C 0.48398 0.84847 0.48488
 H1727 H 0.46662 0.80190 0.48212
 H1728 H 0.47326 0.85262 0.51070
 H1729 H 0.47070 0.76812 0.43048
 H1730 H 0.52547 0.79636 0.33992
 H1731 H 0.54159 0.93886 0.41812
 H1732 H 0.49086 0.90653 0.50979
 H1733 H 0.53696 0.84413 0.36851
 H1734 H 0.54068 0.88855 0.39186
 C1735 C 0.02340 0.34549 0.94918
 C1736 C 0.00004 0.32545 0.96191
 C1737 C -0.00651 0.29733 0.94336
 C1738 C 0.00825 0.28967 0.91037
 C1739 C 0.02942 0.31198 0.89707
 C1740 C 0.03748 0.33858 0.91632
 C1741 C 0.02952 0.37538 0.96873
 C1742 C 0.05457 0.39476 0.96007
 C1743 C 0.05569 0.42513 0.97320
 C1744 C 0.03234 0.43719 0.99582
 C1745 C 0.00996 0.41608 1.00908
 C1746 C 0.00849 0.38521 0.99561
 C1747 C -0.01795 0.33482 0.99161
 C1748 C -0.01455 0.36451 1.00731
 H1749 H -0.03617 0.31977 1.00151
 H1750 H -0.03037 0.37145 1.02859
 H1751 H -0.02454 0.28239 0.95380
 H1752 H 0.04003 0.30964 0.87113
 H1753 H 0.07348 0.43957 0.96258
 H1754 H -0.00791 0.42420 1.02749
 H1755 H 0.05363 0.35439 0.90400
 H1756 H 0.07268 0.38734 0.94172
 C1757 C 0.50008 0.34673 0.08039
 C1758 C 0.52244 0.34236 0.10709
 C1759 C 0.52098 0.31651 0.12894
 C1760 C 0.49911 0.29246 0.12348
 C1761 C 0.47539 0.29802 0.09873
 C1762 C 0.47599 0.32453 0.07725
 C1763 C 0.50325 0.37509 0.05742
 C1764 C 0.48227 0.38304 0.03039
 C1765 C 0.48582 0.41097 0.01161
 C1766 C 0.51034 0.43168 0.01921
 C1767 C 0.53237 0.42229 0.04430
 C1768 C 0.52871 0.39519 0.06367
 C1769 C 0.54685 0.36347 0.11176
 C1770 C 0.55010 0.38906 0.09032
 H1771 H 0.56404 0.35999 0.13214
 H1772 H 0.56953 0.40462 0.09511
 H1773 H 0.53780 0.31530 0.14997
 H1774 H 0.45700 0.28108 0.09503
 H1775 H 0.46858 0.41683 -0.00766
 H1776 H 0.55205 0.43688 0.05083
 H1777 H 0.45782 0.32705 0.05797
 H1778 H 0.46258 0.36839 0.02419
 C1779 C -0.00711 0.82962 0.54647
 C1780 C 0.01436 0.80613 0.53692
 C1781 C 0.01629 0.77917 0.55742
 C1782 C -0.00191 0.77550 0.58879
 C1783 C -0.02139 0.80070 0.59891
 C1784 C -0.02439 0.82673 0.57803
 C1785 C -0.00848 0.85813 0.52459
 C1786 C -0.03105 0.88113 0.53058
 C1787 C -0.02856 0.90954 0.51418
 C1788 C -0.00419 0.91582 0.49000
 C1789 C 0.01645 0.89146 0.48074
 C1790 C 0.01434 0.86259 0.49789
 C1791 C 0.03481 0.81056 0.50811
 C1792 C 0.03535 0.83852 0.48962
 H1793 H 0.05156 0.79270 0.50076
 H1794 H 0.05259 0.84141 0.46875
 H1795 H 0.03324 0.76156 0.54985
 H1796 H -0.03448 0.80105 0.62350
 H1797 H -0.04512 0.92726 0.52234
 H1798 H 0.03523 0.89551 0.46199
 H1799 H -0.03950 0.84498 0.58799
 H1800 H -0.05022 0.87812 0.54890
 C1801 C 0.24675 0.33475 0.09524
 C1802 C 0.22703 0.36065 0.09203
 C1803 C 0.23148 0.38123 0.06379
 C1804 C 0.25730 0.37815 0.04015
 C1805 C 0.27696 0.35226 0.04466
 C1806 C 0.27175 0.33098 0.07128
 C1807 C 0.24180 0.31367 0.12577
 C1808 C 0.25844 0.28593 0.12894
 C1809 C 0.25750 0.26984 0.16041
 C1810 C 0.23975 0.28074 0.18975
 C1811 C 0.21888 0.30536 0.18451
 C1812 C 0.22025 0.32231 0.15281
 C1813 C 0.20397 0.36661 0.11802
 C1814 C 0.20123 0.34834 0.14827
 H1815 H 0.18884 0.38659 0.11585
 H1816 H 0.18427 0.35490 0.16854
 H1817 H 0.21488 0.39975 0.06144
 H1818 H 0.29719 0.34886 0.02763
 H1819 H 0.27217 0.24952 0.16180
 H1820 H 0.20338 0.31282 0.20588
 H1821 H 0.28842 0.31242 0.07345
 H1822 H 0.27310 0.27674 0.10783
 C1823 C 0.72528 0.84331 0.58051
 C1824 C 0.72615 0.82453 0.54946
 C1825 C 0.73593 0.83713 0.51718
 C1826 C 0.74955 0.86713 0.51543
 C1827 C 0.74889 0.88534 0.54710
 C1828 C 0.73682 0.87382 0.57892
 C1829 C 0.71443 0.82898 0.61434
 C1830 C 0.70750 0.84634 0.64541
 C1831 C 0.70362 0.83128 0.67773
 C1832 C 0.70934 0.79926 0.67998
 C1833 C 0.70890 0.78159 0.64806
 C1834 C 0.71141 0.79634 0.61523
 C1835 C 0.71848 0.79286 0.55108
 C1836 C 0.71267 0.77877 0.58355
 H1837 H 0.71918 0.77834 0.52725
 H1838 H 0.70939 0.75380 0.58391
 H1839 H 0.73185 0.82326 0.49353
 H1840 H 0.75708 0.90910 0.54722
 H1841 H 0.69828 0.84513 0.70105
 H1842 H 0.71041 0.75646 0.64874
 H1843 H 0.73739 0.88877 0.60230
 H1844 H 0.70592 0.87141 0.64520
 C1845 C 0.25837 0.65765 0.60568
 C1846 C 0.24413 0.67219 0.57672
 C1847 C 0.23047 0.65424 0.54968
 C1848 C 0.23458 0.62174 0.54791
 C1849 C 0.24515 0.60726 0.57883
 C1850 C 0.25705 0.62495 0.60728
 C1851 C 0.27330 0.67798 0.63363
 C1852 C 0.28701 0.66642 0.66451
 C1853 C 0.29470 0.68675 0.69263
 C1854 C 0.28826 0.71868 0.69066
 C1855 C 0.28309 0.73046 0.65664
 C1856 C 0.27279 0.71056 0.62929
 C1857 C 0.24472 0.70458 0.57393
 C1858 C 0.25920 0.72331 0.59933
 H1859 H 0.23410 0.71565 0.55149
 H1860 H 0.25868 0.74829 0.59613
 H1861 H 0.21851 0.66611 0.52882
 H1862 H 0.24689 0.58217 0.57948
 H1863 H 0.30318 0.67698 0.71672
 H1864 H 0.28081 0.75535 0.65342
 H1865 H 0.26635 0.61263 0.62945
 H1866 H 0.29009 0.64183 0.66833
 C1867 C 0.78690 0.15317 0.09431
 C1868 C 0.77685 0.12190 0.09120
 C1869 C 0.76847 0.10929 0.05819
 C1870 C 0.76737 0.12774 0.02781
 C1871 C 0.78117 0.15760 0.03046
 C1872 C 0.79025 0.17031 0.06319
 C1873 C 0.79095 0.16712 0.13081
 C1874 C 0.79941 0.19844 0.13759
 C1875 C 0.79674 0.21154 0.17199
 C1876 C 0.78501 0.19388 0.20013
 C1877 C 0.77888 0.16214 0.19335
 C1878 C 0.78273 0.14858 0.15984
 C1879 C 0.77318 0.10381 0.12133
 C1880 C 0.77559 0.11703 0.15504
 H1881 H 0.76622 0.07964 0.11889
 H1882 H 0.77037 0.10268 0.17767
 H1883 H 0.76116 0.08522 0.05663
 H1884 H 0.78458 0.17184 0.00746
 H1885 H 0.80138 0.23612 0.17584
 H1886 H 0.76768 0.14806 0.21308
 H1887 H 0.79901 0.19383 0.06372
 H1888 H 0.80668 0.21347 0.11647
 C1889 C 0.71554 0.17476 0.91328
 C1890 C 0.72154 0.18660 0.94766
 C1891 C 0.73273 0.16683 0.97367
 C1892 C 0.74251 0.13617 0.96502
 C1893 C 0.73652 0.12487 0.93035
 C1894 C 0.72313 0.14369 0.90498
 C1895 C 0.70438 0.19666 0.88611
 C1896 C 0.69361 0.18672 0.85277
 C1897 C 0.69111 0.20795 0.82555
 C1898 C 0.70123 0.23879 0.83058
 C1899 C 0.70431 0.24990 0.86580
 C1900 C 0.70610 0.22885 0.89367
 C1901 C 0.71800 0.21848 0.95529
 C1902 C 0.71180 0.23940 0.92840
 H1903 H 0.72256 0.22765 0.98173
 H1904 H 0.71209 0.26409 0.93469
 H1905 H 0.73331 0.17577 1.00061
 H1906 H 0.74184 0.10102 0.92289
 H1907 H 0.68373 0.19925 0.80009
 H1908 H 0.70945 0.27423 0.87104
 H1909 H 0.71984 0.13391 0.87865
 H1910 H 0.68847 0.16256 0.84699
 C1911 C 0.21530 0.66750 0.42704
 C1912 C 0.19694 0.64042 0.42835
 C1913 C 0.20193 0.61892 0.45544
 C1914 C 0.22630 0.62347 0.48016
 C1915 C 0.24749 0.64784 0.47370
 C1916 C 0.24156 0.67004 0.44854
 C1917 C 0.20828 0.69107 0.40013
 C1918 C 0.22125 0.72090 0.40173
 C1919 C 0.21997 0.73980 0.37247
 C1920 C 0.20607 0.72909 0.34085
 C1921 C 0.18729 0.70223 0.34207
 C1922 C 0.18855 0.68289 0.37180
 C1923 C 0.17488 0.63471 0.40169
 C1924 C 0.17177 0.65489 0.37308
 H1925 H 0.16104 0.61365 0.40197
 H1926 H 0.15604 0.64858 0.35184
 H1927 H 0.18710 0.59862 0.45664
 H1928 H 0.26779 0.65118 0.48999
 H1929 H 0.23245 0.76162 0.37398
 H1930 H 0.17458 0.69465 0.31878
 H1931 H 0.25804 0.68884 0.44582
 H1932 H 0.23374 0.72926 0.42477
 C1933 C 0.78305 0.82307 0.38680
 C1934 C 0.78116 0.80994 0.42072
 C1935 C 0.77609 0.82910 0.45074
 C1936 C 0.76705 0.86055 0.44754
 C1937 C 0.76923 0.87326 0.41327
 C1938 C 0.77734 0.85500 0.38351
 C1939 C 0.78810 0.80186 0.35543
 C1940 C 0.79597 0.81250 0.32151
 C1941 C 0.79433 0.79231 0.29210
 C1942 C 0.78231 0.76215 0.29573
 C1943 C 0.78073 0.74998 0.33015
 C1944 C 0.78412 0.76964 0.36003
 C1945 C 0.78235 0.77755 0.42421
 C1946 C 0.78216 0.75777 0.39434
 H1947 H 0.78077 0.76736 0.45024
 H1948 H 0.78024 0.73293 0.39812
 H1949 H 0.77945 0.81905 0.47644
 H1950 H 0.76485 0.89771 0.40943
 H1951 H 0.80064 0.80113 0.26649
 H1952 H 0.77427 0.72590 0.33389
 H1953 H 0.77779 0.86589 0.35791
 H1954 H 0.80263 0.83640 0.31733
 C1955 C 0.28711 0.34252 0.91451
 C1956 C 0.26646 0.33240 0.94129
 C1957 C 0.25748 0.35264 0.96914
 C1958 C 0.27241 0.38161 0.97489
 C1959 C 0.29359 0.39111 0.94809
 C1960 C 0.30035 0.37222 0.91826
 C1961 C 0.29355 0.32104 0.88333
 C1962 C 0.30798 0.33061 0.85152
 C1963 C 0.30769 0.31117 0.82108
 C1964 C 0.29360 0.28169 0.82201
 C1965 C 0.28557 0.27008 0.85561
 C1966 C 0.28235 0.29024 0.88498
 C1967 C 0.25568 0.30170 0.94094
 C1968 C 0.26464 0.28068 0.91422
 H1969 H 0.24056 0.29361 0.96203
 H1970 H 0.25569 0.25714 0.91523
 H1971 H 0.23971 0.34489 0.98755
 H1972 H 0.30535 0.41310 0.94922
 H1973 H 0.31643 0.32025 0.79639
 H1974 H 0.27672 0.24661 0.85793
 H1975 H 0.31672 0.38085 0.89887
 H1976 H 0.31715 0.35383 0.84884
 C1977 C 0.81211 0.42742 0.77895
 C1978 C 0.79710 0.45452 0.79142
 C1979 C 0.81002 0.48390 0.78308
 C1980 C 0.83414 0.48627 0.75704
 C1981 C 0.84620 0.45792 0.74278
 C1982 C 0.83571 0.42946 0.75359
 C1983 C 0.80056 0.39684 0.79013
 C1984 C 0.81885 0.37038 0.78579
 C1985 C 0.80528 0.34149 0.78662
 C1986 C 0.77329 0.33769 0.79401
 C1987 C 0.75608 0.36444 0.80490
 C1988 C 0.77008 0.39433 0.80347
 C1989 C 0.76872 0.45136 0.81019
 C1990 C 0.75453 0.42187 0.81410
 H1991 H 0.75632 0.47191 0.81950
 H1992 H 0.73147 0.42063 0.82585
 H1993 H 0.80128 0.50446 0.79681
 H1994 H 0.86567 0.45686 0.72447
 H1995 H 0.81965 0.32323 0.77589
 H1996 H 0.73173 0.36231 0.81209
 H1997 H 0.84609 0.40907 0.74115
 H1998 H 0.84325 0.37173 0.77870
 C1999 C 0.29250 0.91849 0.27436
 C2000 C 0.28850 0.93766 0.24490
 C2001 C 0.30717 0.96409 0.24111
 C2002 C 0.33276 0.96985 0.26366
 C2003 C 0.33686 0.94997 0.29252
 C2004 C 0.31680 0.92501 0.29807
 C2005 C 0.27291 0.89005 0.27704
 C2006 C 0.27188 0.87209 0.30764
 C2007 C 0.25785 0.84299 0.30670
 C2008 C 0.24593 0.83060 0.27481
 C2009 C 0.24149 0.85088 0.24655
 C2010 C 0.25514 0.88058 0.24740
 C2011 C 0.26760 0.92902 0.21807
 C2012 C 0.25212 0.90045 0.21865
 H2013 H 0.26475 0.94357 0.19519
 H2014 H 0.23793 0.89369 0.19619
 H2015 H 0.30354 0.97896 0.21862
 H2016 H 0.35579 0.95307 0.31087
 H2017 H 0.25772 0.82978 0.33079
 H2018 H 0.22926 0.84293 0.22305
 H2019 H 0.32162 0.91011 0.32006
 H2020 H 0.28231 0.87994 0.33219
 C2021 C 0.18100 0.91125 0.72700
 C2022 C 0.19744 0.93649 0.71279
 C2023 C 0.18429 0.96682 0.71528
 C2024 C 0.15753 0.97270 0.73696
 C2025 C 0.14251 0.94630 0.75123
 C2026 C 0.15392 0.91674 0.74671
 C2027 C 0.19390 0.87944 0.72320
 C2028 C 0.17591 0.85355 0.73133
 C2029 C 0.18976 0.82522 0.73583
 C2030 C 0.22179 0.82048 0.72954
 C2031 C 0.23932 0.84574 0.71622
 C2032 C 0.22520 0.87544 0.71281
 C2033 C 0.22727 0.93095 0.69811
 C2034 C 0.24144 0.90134 0.69968
 H2035 H 0.24056 0.95006 0.68739
 H2036 H 0.26522 0.89868 0.69034
 H2037 H 0.19488 0.98528 0.70034
 H2038 H 0.12074 0.94767 0.76575
 H2039 H 0.17531 0.80838 0.74873
 H2040 H 0.26382 0.84276 0.71012
 H2041 H 0.14138 0.89854 0.76001
 H2042 H 0.15122 0.85497 0.73650
 C2043 C 0.68873 0.38794 0.24898
 C2044 C 0.66117 0.39182 0.22941
 C2045 C 0.64613 0.42091 0.22943
 C2046 C 0.65849 0.44690 0.24793
 C2047 C 0.68636 0.44269 0.26663
 C2048 C 0.70133 0.41397 0.26688
 C2049 C 0.70273 0.35602 0.25074
 C2050 C 0.72860 0.34932 0.27186
 C2051 C 0.73976 0.31900 0.27419
 C2052 C 0.72571 0.29425 0.25539
 C2053 C 0.70078 0.30105 0.23293
 C2054 C 0.68870 0.33139 0.23128
 C2055 C 0.64844 0.36647 0.21064
 C2056 C 0.66211 0.33703 0.21118
 H2057 H 0.62744 0.36937 0.19541
 H2058 H 0.65120 0.31818 0.19637
 H2059 H 0.62413 0.42313 0.21594
 H2060 H 0.69617 0.46132 0.28262
 H2061 H 0.75917 0.31506 0.29157
 H2062 H 0.69018 0.28276 0.21719
 H2063 H 0.72239 0.41258 0.28201
 H2064 H 0.74018 0.36697 0.28754
 C2065 C 0.68783 0.56521 0.26593
 C2066 C 0.69885 0.54196 0.24203
 C2067 C 0.68513 0.51235 0.24160
 C2068 C 0.65918 0.50539 0.26341
 C2069 C 0.64875 0.52863 0.28756
 C2070 C 0.66311 0.55783 0.28920
 C2071 C 0.70130 0.59733 0.26333
 C2072 C 0.69250 0.62194 0.28634
 C2073 C 0.70315 0.65206 0.28057
 C2074 C 0.72238 0.65893 0.25140
 C2075 C 0.73404 0.63384 0.23070
 C2076 C 0.72329 0.60334 0.23607
 C2077 C 0.72207 0.54892 0.21698
 C2078 C 0.73376 0.57901 0.21379
 H2079 H 0.73048 0.53107 0.19858
 H2080 H 0.75082 0.58341 0.19310
 H2081 H 0.69318 0.49528 0.22209
 H2082 H 0.62822 0.52515 0.30382
 H2083 H 0.69622 0.66982 0.29939
 H2084 H 0.75021 0.63815 0.20909
 H2085 H 0.65330 0.57484 0.30749
 H2086 H 0.67729 0.61848 0.30887
 C2087 C 0.18932 0.09287 0.76107
 C2088 C 0.20716 0.06710 0.74948
 C2089 C 0.19287 0.03760 0.74583
 C2090 C 0.16007 0.03482 0.74772
 C2091 C 0.14276 0.06215 0.75546
 C2092 C 0.15702 0.09025 0.76313
 C2093 C 0.20498 0.12311 0.76736
 C2094 C 0.19112 0.14686 0.78785
 C2095 C 0.20469 0.17608 0.78966
 C2096 C 0.23132 0.18298 0.76946
 C2097 C 0.24751 0.15795 0.75276
 C2098 C 0.23486 0.12767 0.75288
 C2099 C 0.23843 0.07180 0.73955
 C2100 C 0.25141 0.10185 0.73919
 H2101 H 0.25233 0.05241 0.72973
 H2102 H 0.27487 0.10477 0.72900
 H2103 H 0.20757 0.01775 0.74104
 H2104 H 0.11757 0.06163 0.75594
 H2105 H 0.19336 0.19317 0.80610
 H2106 H 0.26941 0.16200 0.73914
 H2107 H 0.14239 0.11017 0.76902
 H2108 H 0.16977 0.14307 0.80258
 C2109 C 0.30229 0.08405 0.24855
 C2110 C 0.32539 0.07710 0.22271
 C2111 C 0.34153 0.04877 0.22363
 C2112 C 0.33465 0.02664 0.24981
 C2113 C 0.30814 0.03230 0.27157
 C2114 C 0.29260 0.06060 0.27143
 C2115 C 0.28965 0.11631 0.25090
 C2116 C 0.27205 0.12732 0.28025
 C2117 C 0.26392 0.15861 0.28335
 C2118 C 0.27301 0.17971 0.25727
 C2119 C 0.28777 0.16809 0.22622
 C2120 C 0.29793 0.13720 0.22397
 C2121 C 0.33253 0.09873 0.19652
 C2122 C 0.31825 0.12782 0.19647
 H2123 H 0.34959 0.09321 0.17597
 H2124 H 0.32474 0.14390 0.17587
 H2125 H 0.35973 0.04485 0.20417
 H2126 H 0.30051 0.01546 0.29079
 H2127 H 0.25078 0.16623 0.30657
 H2128 H 0.29408 0.18368 0.20509
 H2129 H 0.27342 0.06389 0.28984
 H2130 H 0.26557 0.11247 0.30186
 C2131 C 0.80269 0.60519 0.73559
 C2132 C 0.83460 0.60186 0.72750
 C2133 C 0.84955 0.57372 0.73346
 C2134 C 0.83297 0.54693 0.74368
 C2135 C 0.80028 0.54938 0.74650
 C2136 C 0.78551 0.57840 0.74408
 C2137 C 0.78869 0.63699 0.73328
 C2138 C 0.76012 0.64535 0.74938
 C2139 C 0.75004 0.67642 0.74966
 C2140 C 0.76750 0.69958 0.73246
 C2141 C 0.79430 0.69027 0.71361
 C2142 C 0.80629 0.66029 0.71648
 C2143 C 0.85129 0.62633 0.71245
 C2144 C 0.83693 0.65443 0.70533
 H2145 H 0.87560 0.62344 0.70522
 H2146 H 0.85066 0.67253 0.69307
 H2147 H 0.87453 0.57242 0.72946
 H2148 H 0.78570 0.52933 0.75011
 H2149 H 0.72892 0.68233 0.76414
 H2150 H 0.80753 0.70658 0.69873
 H2151 H 0.76055 0.57948 0.74762
 H2152 H 0.74637 0.62851 0.76357
 C2153 C 0.90488 0.75296 0.16918
 C2154 C 0.93012 0.74747 0.19158
 C2155 C 0.96067 0.74803 0.17763
 C2156 C 0.96688 0.75715 0.14212
 C2157 C 0.94096 0.76617 0.12194
 C2158 C 0.91069 0.76385 0.13499
 C2159 C 0.87280 0.74705 0.18275
 C2160 C 0.84770 0.74275 0.15979
 C2161 C 0.81809 0.73708 0.17323
 C2162 C 0.81207 0.73768 0.21007
 C2163 C 0.83760 0.73949 0.23318
 C2164 C 0.86810 0.74292 0.21949
 C2165 C 0.92443 0.74139 0.22760
 C2166 C 0.89404 0.74070 0.24161
 H2167 H 0.94371 0.73790 0.24536
 H2168 H 0.89083 0.73685 0.26974
 H2169 H 0.97902 0.73998 0.19446
 H2170 H 0.94324 0.77301 0.09480
 H2171 H 0.79964 0.73350 0.15428
 H2172 H 0.83397 0.73732 0.26149
 H2173 H 0.89194 0.77036 0.11779
 H2174 H 0.85074 0.74283 0.13129
 C2175 C 0.41264 0.25609 0.67636
 C2176 C 0.43914 0.26504 0.69586
 C2177 C 0.46885 0.26425 0.67936
 C2178 C 0.47262 0.25308 0.64392
 C2179 C 0.44564 0.24513 0.62501
 C2180 C 0.41645 0.24625 0.64079
 C2181 C 0.38144 0.25744 0.69424
 C2182 C 0.35419 0.25006 0.67596
 C2183 C 0.32572 0.25066 0.69312
 C2184 C 0.32271 0.25877 0.72946
 C2185 C 0.34988 0.26674 0.74815
 C2186 C 0.37925 0.26638 0.73056
 C2187 C 0.43564 0.27456 0.73160
 C2188 C 0.40643 0.27489 0.74866
 H2189 H 0.45585 0.28147 0.74677
 H2190 H 0.40511 0.28203 0.77637
 H2191 H 0.48861 0.27285 0.69407
 H2192 H 0.44719 0.23786 0.59735
 H2193 H 0.30588 0.24434 0.67710
 H2194 H 0.34831 0.27298 0.77607
 H2195 H 0.39735 0.23914 0.62430
 H2196 H 0.35396 0.24367 0.64821
 C2197 C 0.41022 0.74939 0.82470
 C2198 C 0.43619 0.75809 0.80434
 C2199 C 0.46537 0.76126 0.82079
 C2200 C 0.47008 0.75169 0.85634
 C2201 C 0.44353 0.74131 0.87503
 C2202 C 0.41443 0.73996 0.85963
 C2203 C 0.37894 0.75092 0.80855
 C2204 C 0.35215 0.75226 0.82968
 C2205 C 0.32326 0.75390 0.81435
 C2206 C 0.31960 0.75230 0.77708
 C2207 C 0.34662 0.75324 0.75557
 C2208 C 0.37638 0.75404 0.77144
 C2209 C 0.43253 0.76334 0.76786
 C2210 C 0.40347 0.75972 0.75140
 H2211 H 0.45253 0.76935 0.75164
 H2212 H 0.40197 0.76299 0.72304
 H2213 H 0.48345 0.77281 0.80601
 H2214 H 0.44442 0.73519 0.90248
 H2215 H 0.30378 0.75537 0.83264
 H2216 H 0.34451 0.75437 0.72700
 H2217 H 0.39535 0.73143 0.87559
 H2218 H 0.35311 0.75313 0.85832
 C2219 C 0.91817 0.21690 0.31898
 C2220 C 0.93973 0.23697 0.30289
 C2221 C 0.96971 0.24046 0.31731
 C2222 C 0.97830 0.22531 0.34896
 C2223 C 0.95805 0.20139 0.36017
 C2224 C 0.92856 0.19751 0.34583
 C2225 C 0.88517 0.21708 0.30686
 C2226 C 0.86138 0.20225 0.32584
 C2227 C 0.83068 0.20428 0.31515
 C2228 C 0.82244 0.22058 0.28459
 C2229 C 0.84615 0.23574 0.26546
 C2230 C 0.87732 0.23473 0.27698
 C2231 C 0.93083 0.25390 0.27318
 C2232 C 0.90047 0.25225 0.26002
 H2233 H 0.94746 0.26892 0.26014
 H2234 H 0.89473 0.26593 0.23717
 H2235 H 0.98571 0.25644 0.30483
 H2236 H 0.96394 0.18515 0.38021
 H2237 H 0.81337 0.19254 0.33107
 H2238 H 0.84029 0.24900 0.24232
 H2239 H 0.91409 0.17932 0.35641
 H2240 H 0.86583 0.18973 0.34978
 C2241 C 0.08868 0.25353 0.30079
 C2242 C 0.08012 0.27546 0.32758
 C2243 C 0.05394 0.27031 0.34931
 C2244 C 0.03472 0.24392 0.34439
 C2245 C 0.04215 0.22355 0.31562
 C2246 C 0.06875 0.22805 0.29446
 C2247 C 0.11951 0.25767 0.28200
 C2248 C 0.13264 0.23513 0.25866
 C2249 C 0.16375 0.23752 0.24734
 C2250 C 0.18255 0.26265 0.25855
 C2251 C 0.16802 0.28707 0.27756
 C2252 C 0.13747 0.28427 0.29060
 C2253 C 0.09829 0.30208 0.33340
 C2254 C 0.12604 0.30666 0.31485
 H2255 H 0.09134 0.31933 0.35330
 H2256 H 0.13968 0.32720 0.32123
 H2257 H 0.04952 0.28671 0.37088
 H2258 H 0.02813 0.20302 0.31071
 H2259 H 0.17368 0.21825 0.23220
 H2260 H 0.18119 0.30703 0.28563
 H2261 H 0.07366 0.21101 0.27376
 H2262 H 0.12000 0.21446 0.25087
 C2263 C 0.58852 0.77035 0.81753
 C2264 C 0.58583 0.77780 0.85411
 C2265 C 0.55756 0.77372 0.87200
 C2266 C 0.53111 0.76150 0.85481
 C2267 C 0.53546 0.75047 0.81945
 C2268 C 0.56320 0.75585 0.80072
 C2269 C 0.61929 0.77536 0.79946
 C2270 C 0.62396 0.77252 0.76239
 C2271 C 0.65385 0.77561 0.74745
 C2272 C 0.67970 0.78101 0.76923
 C2273 C 0.67467 0.78441 0.80607
 C2274 C 0.64493 0.78313 0.82092
 C2275 C 0.61179 0.78777 0.87328
 C2276 C 0.64095 0.78939 0.85725
 H2277 H 0.60981 0.79317 0.90144
 H2278 H 0.66063 0.79597 0.87351
 H2279 H 0.55670 0.77906 0.90012
 H2280 H 0.51819 0.73615 0.80645
 H2281 H 0.65686 0.77241 0.71905
 H2282 H 0.69403 0.78788 0.82387
 H2283 H 0.56506 0.74710 0.77371
 H2284 H 0.60481 0.76779 0.74476
 C2285 C 0.58882 0.26143 0.68539
 C2286 C 0.56436 0.24294 0.69853
 C2287 C 0.53696 0.23921 0.67852
 C2288 C 0.53381 0.25378 0.64535
 C2289 C 0.56054 0.26784 0.63075
 C2290 C 0.58724 0.27222 0.65057
 C2291 C 0.61646 0.26724 0.70809
 C2292 C 0.63883 0.28954 0.69944
 C2293 C 0.66589 0.29223 0.71881
 C2294 C 0.67179 0.27283 0.74774
 C2295 C 0.64764 0.25306 0.75920
 C2296 C 0.61987 0.25030 0.73952
 C2297 C 0.56798 0.22795 0.73105
 C2298 C 0.59555 0.23078 0.75055
 H2299 H 0.54957 0.21321 0.74111
 H2300 H 0.59764 0.21794 0.77485
 H2301 H 0.51814 0.22530 0.68900
 H2302 H 0.56066 0.27629 0.60388
 H2303 H 0.68287 0.30876 0.70937
 H2304 H 0.65076 0.23897 0.78224
 H2305 H 0.60663 0.28371 0.63795
 H2306 H 0.63605 0.30487 0.67737
 C2307 C 0.07443 0.73893 0.20195
 C2308 C 0.05503 0.76534 0.20397
 C2309 C 0.02985 0.76808 0.18062
 C2310 C 0.02534 0.74689 0.15179
 C2311 C 0.04427 0.71989 0.15148
 C2312 C 0.06820 0.71605 0.17587
 C2313 C 0.10206 0.73755 0.22602
 C2314 C 0.12148 0.71137 0.22804
 C2315 C 0.14974 0.71318 0.24600
 C2316 C 0.15987 0.74120 0.26180
 C2317 C 0.13829 0.76590 0.26434
 C2318 C 0.10958 0.76422 0.24666
 C2319 C 0.06191 0.78968 0.22797
 C2320 C 0.08905 0.78953 0.24809
 H2321 H 0.04705 0.81000 0.22969
 H2322 H 0.09430 0.80977 0.26455
 H2323 H 0.01412 0.78760 0.18420
 H2324 H 0.04108 0.70102 0.13265
 H2325 H 0.16414 0.69290 0.24563
 H2326 H 0.14476 0.78753 0.27752
 H2327 H 0.08225 0.69535 0.17312
 H2328 H 0.11570 0.68960 0.21497
   
