data_POSCAR
  _audit_creation_date              2014-09-24
  _audit_creation_method            'ToBaCCo'
  _symmetry_space_group_name_H-M    'P1'
  _symmetry_Int_Tables_number       1
  _symmetry_cell_setting            triclinic
  loop_
  _symmetry_equiv_pos_as_xyz
 x,y,z
_cell_length_a 61.9470
_cell_length_b 61.6483
_cell_length_c 61.9945
_cell_angle_alpha 90.051500
_cell_angle_beta 90.042200
_cell_angle_gamma 90.054100
loop_
  _atom_site_label
  _atom_site_type_symbol
  _atom_site_fract_x
  _atom_site_fract_y
  _atom_site_fract_z
O1 O 0.32170 0.35168 0.02171
 O2 O 0.35140 0.32175 -0.02001
 O3 O 0.32205 0.35187 -0.02010
 O4 O 0.35124 0.32175 0.02180
 O5 O 0.32600 0.29650 0.02162
 O6 O 0.29655 0.32694 -0.02046
 O7 O 0.32610 0.29656 -0.02036
 O8 O 0.29621 0.32668 0.02152
 Cu9 Cu 0.33912 0.33926 0.00088
 Cu10 Cu 0.30866 0.30914 0.00056
 C11 C 0.30381 0.34445 0.02866
 C12 C 0.34397 0.30396 -0.02723
 C13 C 0.30422 0.34477 -0.02740
 C14 C 0.34379 0.30389 0.02877
 O15 O 0.65129 0.68056 -0.02202
 O16 O 0.67972 0.64966 0.01985
 O17 O 0.65059 0.67996 0.01973
 O18 O 0.68028 0.65006 -0.02195
 O19 O 0.70609 0.67467 -0.02129
 O20 O 0.67610 0.70493 0.02053
 O21 O 0.70547 0.67439 0.02068
 O22 O 0.67687 0.70546 -0.02138
 Cu23 Cu 0.66292 0.66259 -0.00119
 Cu24 Cu 0.69373 0.69235 -0.00031
 C25 C 0.65902 0.69841 -0.02870
 C26 C 0.69752 0.65660 0.02735
 C27 C 0.65808 0.69763 0.02715
 C28 C 0.69839 0.65700 -0.02865
 O29 O 0.64974 0.31882 1.02184
 O30 O 0.67934 0.34892 0.98024
 O31 O 0.64957 0.31922 0.98005
 O32 O 0.67942 0.34864 1.02203
 O33 O 0.70467 0.32349 1.02182
 O34 O 0.67452 0.29373 0.97969
 O35 O 0.70455 0.32368 0.97985
 O36 O 0.67473 0.29337 1.02167
 Cu37 Cu 0.66202 0.33642 1.00108
 Cu38 Cu 0.69215 0.30601 1.00074
 C39 C 0.65700 0.30088 1.02877
 C40 C 0.69708 0.34160 0.97301
 C41 C 0.65677 0.30139 0.97277
 C42 C 0.69728 0.34134 1.02902
 O43 O 0.32281 0.64871 0.97867
 O44 O 0.35172 0.67813 1.02132
 O45 O 0.32183 0.64849 1.02049
 O46 O 0.35253 0.67856 0.97952
 O47 O 0.32748 0.70395 0.97906
 O48 O 0.29672 0.67378 1.02026
 O49 O 0.32681 0.70367 1.02101
 O50 O 0.29755 0.67388 0.97829
 Cu51 Cu 0.33971 0.66095 1.00003
 Cu52 Cu 0.30961 0.69137 0.99962
 C53 C 0.30517 0.65609 0.97128
 C54 C 0.34439 0.69602 1.02835
 C55 C 0.30393 0.65583 1.02733
 C56 C 0.34539 0.69648 0.97239
 O57 O -0.01944 0.35129 0.32025
 O58 O 0.02171 0.32115 0.35068
 O59 O 0.02239 0.35112 0.32123
 O60 O -0.02011 0.32190 0.35033
 O61 O -0.02009 0.29624 0.32556
 O62 O 0.02249 0.32597 0.29591
 O63 O 0.02190 0.29576 0.32560
 O64 O -0.01951 0.32584 0.29523
 Cu65 Cu 0.00112 0.33889 0.33811
 Cu66 Cu 0.00120 0.30839 0.30805
 C67 C -0.02641 0.34383 0.30244
 C68 C 0.02874 0.30321 0.34345
 C69 C 0.02962 0.34375 0.30353
 C70 C -0.02729 0.30396 0.34320
 O71 O 0.02036 0.67719 0.64912
 O72 O -0.02089 0.64761 0.67992
 O73 O -0.02149 0.67681 0.64964
 O74 O 0.02092 0.64758 0.67893
 O75 O 0.02135 0.67301 0.70398
 O76 O -0.02117 0.70265 0.67422
 O77 O -0.02062 0.67325 0.70476
 O78 O 0.02084 0.70285 0.67393
 Cu79 Cu -0.00033 0.65975 0.66194
 Cu80 Cu 0.00013 0.69053 0.69172
 C81 C 0.02757 0.69515 0.65615
 C82 C -0.02768 0.65522 0.69772
 C83 C -0.02851 0.69484 0.65667
 C84 C 0.02830 0.65510 0.69653
 O85 O 1.02007 0.65008 0.32061
 O86 O 0.97794 0.67911 0.35045
 O87 O 0.97822 0.64965 0.32042
 O88 O 1.01972 0.67987 0.35035
 O89 O 1.01952 0.70536 0.32546
 O90 O 0.97779 0.67508 0.29543
 O91 O 0.97757 0.70478 0.32570
 O92 O 1.01982 0.67535 0.29545
 Cu93 Cu 0.99902 0.66214 0.33793
 Cu94 Cu 0.99865 0.69270 0.30798
 C95 C 1.02706 0.65756 0.30286
 C96 C 0.97067 0.69700 0.34339
 C97 C 0.97099 0.65708 0.30273
 C98 C 1.02660 0.69793 0.34324
 O99 O 1.02203 0.34997 0.67887
 O100 O 0.97947 0.32129 0.64920
 O101 O 0.98017 0.35057 0.67939
 O102 O 1.02127 0.32024 0.64908
 O103 O 1.02111 0.29471 0.67393
 O104 O 0.97973 0.32500 0.70425
 O105 O 0.97913 0.29549 0.67382
 O106 O 1.02176 0.32466 0.70398
 Cu107 Cu 1.00077 0.33806 0.66167
 Cu108 Cu 1.00041 0.30740 0.69151
 C109 C 1.02908 0.34242 0.69656
 C110 C 0.97212 0.30341 0.65622
 C111 C 0.97299 0.34308 0.69707
 C112 C 1.02813 0.30215 0.65615
 O113 O 0.34881 0.02015 0.32026
 O114 O 0.31999 -0.02258 0.34970
 O115 O 0.34975 -0.02185 0.32017
 O116 O 0.31903 0.01944 0.34980
 O117 O 0.29386 0.01899 0.32463
 O118 O 0.32477 -0.02252 0.29480
 O119 O 0.29477 -0.02319 0.32458
 O120 O 0.32390 0.01965 0.29483
 Cu121 Cu 0.33689 -0.00115 0.33750
 Cu122 Cu 0.30679 -0.00182 0.30716
 C123 C 0.34148 0.02708 0.30242
 C124 C 0.30236 -0.03008 0.34235
 C125 C 0.34268 -0.02914 0.30234
 C126 C 0.30110 0.02616 0.34246
 O127 O 0.67883 -0.01958 0.64831
 O128 O 0.64829 0.02282 0.67648
 O129 O 0.67811 0.02244 0.64703
 O130 O 0.64895 -0.01920 0.67774
 O131 O 0.67387 -0.01806 0.70314
 O132 O 0.70324 0.02379 0.67222
 O133 O 0.67319 0.02414 0.70189
 O134 O 0.70400 -0.01842 0.67346
 Cu135 Cu 0.66106 0.00149 0.65987
 Cu136 Cu 0.69110 0.00297 0.69023
 C137 C 0.69670 -0.02616 0.65590
 C138 C 0.65537 0.03066 0.69406
 C139 C 0.69570 0.03019 0.65424
 C140 C 0.65626 -0.02566 0.69577
 O141 O 0.31978 1.01978 0.64982
 O142 O 0.35020 0.97819 0.67930
 O143 O 0.32037 0.97777 0.64982
 O144 O 0.34981 1.02024 0.67912
 O145 O 0.32504 1.02008 0.70466
 O146 O 0.29526 0.97745 0.67502
 O147 O 0.32534 0.97785 0.70475
 O148 O 0.29476 1.01962 0.67510
 Cu149 Cu 0.33753 0.99902 0.66200
 Cu150 Cu 0.30759 0.99873 0.69245
 C151 C 0.30197 1.02669 0.65725
 C152 C 0.34311 0.97098 0.69713
 C153 C 0.30271 0.97045 0.65722
 C154 C 0.34263 1.02734 0.69696
 O155 O 0.64933 0.97800 0.32339
 O156 O 0.67805 1.02094 0.35284
 O157 O 0.64837 1.02006 0.32317
 O158 O 0.67896 0.97889 0.35315
 O159 O 0.70427 0.97923 0.32816
 O160 O 0.67348 1.02057 0.29798
 O161 O 0.70334 1.02144 0.32788
 O162 O 0.67441 0.97837 0.29817
 Cu163 Cu 0.66117 0.99942 0.34064
 Cu164 Cu 0.69141 0.99994 0.31052
 C165 C 0.65679 0.97096 0.30565
 C166 C 0.69570 1.02849 0.34558
 C167 C 0.65555 1.02728 0.30539
 C168 C 0.69692 0.97212 0.34594
 C169 C 0.79723 0.86082 0.52186
 C170 C 0.79052 0.86971 0.50224
 C171 C 0.79849 0.86214 0.48255
 C172 C 0.81381 0.84513 0.48232
 C173 C 0.82091 0.83601 0.50212
 C174 C 0.81257 0.84385 0.52198
 C175 C 0.81940 0.83418 0.54134
 C176 C 0.83444 0.81742 0.54128
 C177 C 0.84323 0.80966 0.52186
 C178 C 0.83625 0.81889 0.50206
 C179 C 0.82231 0.83712 0.46288
 C180 C 0.83715 0.82019 0.46281
 C181 C 0.84442 0.81090 0.48220
 C182 C 0.85934 0.79355 0.48227
 C183 C 0.86598 0.78459 0.50189
 C184 C 0.85841 0.79252 0.52163
 H185 H 0.81303 0.83937 0.55675
 H186 H 0.83889 0.81042 0.55664
 H187 H 0.81753 0.84383 0.44748
 H188 H 0.84279 0.81440 0.44733
 H189 H 0.77870 0.88270 0.50230
 H190 H 0.87767 0.77149 0.50181
 C191 C 0.19687 0.13156 0.48039
 C192 C 0.20440 0.12342 0.50004
 C193 C 0.19703 0.13156 0.51975
 C194 C 0.18135 0.14822 0.52000
 C195 C 0.17345 0.15660 0.50019
 C196 C 0.18123 0.14826 0.48030
 C197 C 0.17270 0.15637 0.46091
 C198 C 0.15701 0.17251 0.46099
 C199 C 0.14921 0.18115 0.48047
 C200 C 0.15740 0.17305 0.50027
 C201 C 0.17290 0.15624 0.53947
 C202 C 0.15716 0.17233 0.53955
 C203 C 0.14925 0.18104 0.52016
 C204 C 0.13293 0.19706 0.52006
 C205 C 0.12499 0.20479 0.50042
 C206 C 0.13294 0.19723 0.48071
 H207 H 0.17784 0.15009 0.44544
 H208 H 0.15081 0.17791 0.44558
 H209 H 0.17814 0.14991 0.55488
 H210 H 0.15103 0.17765 0.55501
 H211 H 0.21649 0.11070 0.49999
 H212 H 0.11254 0.21716 0.50047
 C213 C 0.13362 0.80046 0.47973
 C214 C 0.12558 0.79265 0.49930
 C215 C 0.13451 0.79895 0.51904
 C216 C 0.15194 0.81378 0.51943
 C217 C 0.16006 0.82217 0.49972
 C218 C 0.15087 0.81552 0.47979
 C219 C 0.15878 0.82450 0.46052
 C220 C 0.17562 0.83946 0.46075
 C221 C 0.18521 0.84601 0.48026
 C222 C 0.17723 0.83746 0.49995
 C223 C 0.16117 0.82074 0.53896
 C224 C 0.17811 0.83557 0.53918
 C225 C 0.18622 0.84434 0.51990
 C226 C 0.20319 0.85972 0.51998
 C227 C 0.21095 0.86786 0.50042
 C228 C 0.20224 0.86130 0.48066
 H229 H 0.15184 0.82027 0.44506
 H230 H 0.18089 0.84600 0.44545
 H231 H 0.15530 0.81487 0.55432
 H232 H 0.18476 0.84013 0.55468
 H233 H 0.11239 0.78106 0.49915
 H234 H 0.22391 0.87972 0.50060
 C235 C 0.79154 0.14569 0.51800
 C236 C 0.78334 0.13825 0.49833
 C237 C 0.79148 0.14565 0.47864
 C238 C 0.80822 0.16126 0.47844
 C239 C 0.81665 0.16910 0.49828
 C240 C 0.80827 0.16132 0.51814
 C241 C 0.81640 0.16982 0.53756
 C242 C 0.83262 0.18545 0.53753
 C243 C 0.84138 0.19318 0.51809
 C244 C 0.83324 0.18505 0.49825
 C245 C 0.81632 0.16967 0.45900
 C246 C 0.83256 0.18529 0.45897
 C247 C 0.84135 0.19311 0.47839
 C248 C 0.85759 0.20926 0.47853
 C249 C 0.86534 0.21717 0.49821
 C250 C 0.85763 0.20932 0.51791
 H251 H 0.81006 0.16471 0.55300
 H252 H 0.83801 0.19164 0.55296
 H253 H 0.80996 0.16449 0.44357
 H254 H 0.83794 0.19140 0.44353
 H255 H 0.77063 0.12613 0.49834
 H256 H 0.87788 0.22947 0.49821
 C257 C 0.52173 0.80321 0.86653
 C258 C 0.50220 0.79528 0.87461
 C259 C 0.48238 0.80153 0.86582
 C260 C 0.48191 0.81639 0.84845
 C261 C 0.50158 0.82495 0.84034
 C262 C 0.52157 0.81840 0.84944
 C263 C 0.54080 0.82760 0.84160
 C264 C 0.54048 0.84266 0.82490
 C265 C 0.52092 0.84908 0.81535
 C266 C 0.50126 0.84029 0.82326
 C267 C 0.46232 0.82322 0.83926
 C268 C 0.46202 0.83805 0.82235
 C269 C 0.48127 0.84698 0.81427
 C270 C 0.48111 0.86234 0.79734
 C271 C 0.50061 0.87075 0.78968
 C272 C 0.52042 0.86445 0.79843
 H273 H 0.55630 0.82347 0.84852
 H274 H 0.55575 0.84936 0.81968
 H275 H 0.44698 0.81723 0.84511
 H276 H 0.44648 0.84249 0.81571
 H277 H 0.50245 0.78361 0.88770
 H278 H 0.50034 0.88263 0.77677
 C279 C 0.51947 0.20149 0.13880
 C280 C 0.49991 0.20931 0.13070
 C281 C 0.48009 0.20159 0.13825
 C282 C 0.47967 0.18561 0.15460
 C283 C 0.49940 0.17737 0.16289
 C284 C 0.51939 0.18527 0.15491
 C285 C 0.53872 0.17692 0.16340
 C286 C 0.53847 0.16087 0.17919
 C287 C 0.51888 0.15288 0.18741
 C288 C 0.49915 0.16117 0.17917
 C289 C 0.46008 0.17748 0.16269
 C290 C 0.45983 0.16179 0.17882
 C291 C 0.47916 0.15329 0.18716
 C292 C 0.47907 0.13727 0.20347
 C293 C 0.49862 0.12916 0.21129
 C294 C 0.51844 0.13661 0.20348
 H295 H 0.55427 0.18268 0.15790
 H296 H 0.55383 0.15482 0.18490
 H297 H 0.44472 0.18319 0.15665
 H298 H 0.44428 0.15637 0.18465
 H299 H 0.50012 0.22166 0.11823
 H300 H 0.49841 0.11675 0.22370
 C301 C 0.51839 0.14422 0.79094
 C302 C 0.49859 0.13659 0.78318
 C303 C 0.47903 0.14305 0.79239
 C304 C 0.47909 0.15790 0.80980
 C305 C 0.49904 0.16611 0.81764
 C306 C 0.51876 0.15929 0.80816
 C307 C 0.53826 0.16811 0.81580
 C308 C 0.53847 0.18296 0.83272
 C309 C 0.51919 0.18959 0.84265
 C310 C 0.49925 0.18130 0.83488
 C311 C 0.45977 0.16503 0.81931
 C312 C 0.45999 0.17977 0.83632
 C313 C 0.47952 0.18828 0.84422
 C314 C 0.47990 0.20346 0.86134
 C315 C 0.49967 0.21134 0.86889
 C316 C 0.51923 0.20470 0.85983
 H317 H 0.55357 0.16381 0.80859
 H318 H 0.55394 0.18934 0.83780
 H319 H 0.44424 0.15936 0.81364
 H320 H 0.44464 0.18446 0.84320
 H321 H 0.49841 0.12492 0.77006
 H322 H 0.49983 0.22300 0.88201
 C323 C 0.52102 0.79658 0.13849
 C324 C 0.50137 0.78889 0.13044
 C325 C 0.48164 0.79667 0.13813
 C326 C 0.48138 0.81260 0.15456
 C327 C 0.50120 0.82069 0.16282
 C328 C 0.52111 0.81271 0.15472
 C329 C 0.54052 0.82090 0.16323
 C330 C 0.54043 0.83685 0.17913
 C331 C 0.52092 0.84494 0.18744
 C332 C 0.50111 0.83683 0.17919
 C333 C 0.46188 0.82082 0.16274
 C334 C 0.46179 0.83647 0.17893
 C335 C 0.48120 0.84483 0.18726
 C336 C 0.48128 0.86082 0.20364
 C337 C 0.50093 0.86874 0.21147
 C338 C 0.52066 0.86114 0.20360
 H339 H 0.55600 0.81505 0.15766
 H340 H 0.55585 0.84277 0.18485
 H341 H 0.44645 0.81523 0.15671
 H342 H 0.44630 0.84197 0.18484
 H343 H 0.50143 0.77660 0.11789
 H344 H 0.50086 0.88112 0.22393
 C345 C 0.79727 0.47899 0.86295
 C346 C 0.78972 0.49875 0.87102
 C347 C 0.79852 0.51852 0.86437
 C348 C 0.81539 0.51871 0.84901
 C349 C 0.82318 0.49879 0.84056
 C350 C 0.81413 0.47884 0.84757
 C351 C 0.82207 0.45933 0.83893
 C352 C 0.83892 0.45933 0.82408
 C353 C 0.84820 0.47887 0.81699
 C354 C 0.84022 0.49880 0.82524
 C355 C 0.82501 0.53822 0.84228
 C356 C 0.84168 0.53823 0.82725
 C357 C 0.84941 0.51874 0.81838
 C358 C 0.86648 0.51859 0.80325
 C359 C 0.87442 0.49881 0.79562
 C360 C 0.86554 0.47904 0.80215
 H361 H 0.81537 0.44382 0.84359
 H362 H 0.84466 0.44381 0.81830
 H363 H 0.81988 0.55369 0.84873
 H364 H 0.84866 0.55371 0.82287
 H365 H 0.77686 0.49873 0.88290
 H366 H 0.88750 0.49881 0.78398
 C367 C 0.14113 0.52119 0.20564
 C368 C 0.13456 0.50143 0.21454
 C369 C 0.14233 0.48163 0.20675
 C370 C 0.15767 0.48148 0.18985
 C371 C 0.16455 0.50142 0.18066
 C372 C 0.15617 0.52135 0.18849
 C373 C 0.16334 0.54088 0.17924
 C374 C 0.17831 0.54087 0.16249
 C375 C 0.18701 0.52136 0.15464
 C376 C 0.18001 0.50143 0.16374
 C377 C 0.16671 0.46201 0.18229
 C378 C 0.18187 0.46202 0.16574
 C379 C 0.18858 0.48150 0.15609
 C380 C 0.20401 0.48168 0.13929
 C381 C 0.21060 0.50143 0.13041
 C382 C 0.20241 0.52119 0.13781
 H383 H 0.15753 0.55641 0.18491
 H384 H 0.18304 0.55637 0.15581
 H385 H 0.16235 0.44654 0.18929
 H386 H 0.18843 0.44656 0.16072
 H387 H 0.12275 0.50145 0.22746
 H388 H 0.22248 0.50142 0.11755
 C389 C 0.79594 0.51839 0.13822
 C390 C 0.78857 0.49851 0.13022
 C391 C 0.79756 0.47886 0.13698
 C392 C 0.81443 0.47893 0.15236
 C393 C 0.82202 0.49898 0.16074
 C394 C 0.81278 0.51879 0.15364
 C395 C 0.82051 0.53843 0.16223
 C396 C 0.83737 0.53869 0.17707
 C397 C 0.84688 0.51930 0.18422
 C398 C 0.83909 0.49924 0.17606
 C399 C 0.82423 0.45957 0.15919
 C400 C 0.84094 0.45982 0.17421
 C401 C 0.84850 0.47944 0.18298
 C402 C 0.86563 0.47987 0.19807
 C403 C 0.87338 0.49978 0.20562
 C404 C 0.86425 0.51941 0.19903
 H405 H 0.81363 0.55384 0.15752
 H406 H 0.84295 0.55431 0.18279
 H407 H 0.81922 0.44401 0.15282
 H408 H 0.84807 0.44444 0.17866
 H409 H 0.77574 0.49832 0.11830
 H410 H 0.88651 0.50000 0.21721
 C411 C 0.14361 0.47917 0.79284
 C412 C 0.13596 0.49890 0.78479
 C413 C 0.14354 0.51877 0.79263
 C414 C 0.15956 0.51907 0.80890
 C415 C 0.16760 0.49918 0.81719
 C416 C 0.15960 0.47915 0.80914
 C417 C 0.16826 0.45968 0.81714
 C418 C 0.18427 0.45981 0.83290
 C419 C 0.19227 0.47942 0.84128
 C420 C 0.18396 0.49932 0.83327
 C421 C 0.16822 0.53868 0.81663
 C422 C 0.18426 0.53881 0.83236
 C423 C 0.19227 0.51935 0.84100
 C424 C 0.20884 0.51932 0.85671
 C425 C 0.21690 0.49959 0.86434
 C426 C 0.20881 0.47973 0.85702
 H427 H 0.16295 0.44410 0.81106
 H428 H 0.19054 0.44434 0.83821
 H429 H 0.16290 0.55415 0.81035
 H430 H 0.19054 0.55438 0.83745
 H431 H 0.12360 0.49878 0.77238
 H432 H 0.22950 0.49970 0.87651
 C433 C 0.26762 0.38311 0.07347
 C434 C 0.25876 0.36384 0.06540
 C435 C 0.27070 0.35091 0.05118
 C436 C 0.29160 0.35719 0.04481
 C437 C 0.30047 0.37637 0.05338
 C438 C 0.28855 0.38921 0.06758
 C439 C 0.25509 0.39736 0.08692
 C440 C 0.24522 0.41022 0.09773
 C441 C 0.23426 0.42664 0.11005
 C442 C 0.21193 0.42958 0.10793
 C443 C 0.20182 0.44709 0.11816
 C444 C 0.21399 0.46172 0.13057
 C445 C 0.23626 0.45840 0.13301
 C446 C 0.24633 0.44092 0.12283
 H447 H 0.24253 0.35902 0.06979
 H448 H 0.26341 0.33625 0.04484
 H449 H 0.31651 0.38166 0.04885
 H450 H 0.29554 0.40412 0.07369
 H451 H 0.20248 0.41876 0.09789
 H452 H 0.18467 0.44962 0.11588
 H453 H 0.24590 0.46968 0.14236
 H454 H 0.26364 0.43891 0.12442
 C455 C 0.73232 0.61707 0.07247
 C456 C 0.71155 0.61112 0.06585
 C457 C 0.70007 0.62423 0.05154
 C458 C 0.70922 0.64354 0.04361
 C459 C 0.72994 0.64966 0.05072
 C460 C 0.74143 0.63646 0.06504
 C461 C 0.74450 0.60258 0.08597
 C462 C 0.75426 0.58962 0.09676
 C463 C 0.76532 0.57322 0.10899
 C464 C 0.75353 0.55943 0.12251
 C465 C 0.76372 0.54201 0.13268
 C466 C 0.78584 0.53828 0.12948
 C467 C 0.79771 0.55240 0.11626
 C468 C 0.78749 0.56983 0.10607
 H469 H 0.70438 0.59611 0.07145
 H470 H 0.68416 0.61906 0.04643
 H471 H 0.73743 0.66441 0.04489
 H472 H 0.75754 0.64117 0.07001
 H473 H 0.73634 0.56178 0.12471
 H474 H 0.75430 0.53112 0.14263
 H475 H 0.81471 0.54952 0.11335
 H476 H 0.79671 0.58026 0.09546
 C477 C 0.73311 0.38038 0.92818
 C478 C 0.71231 0.38658 0.93438
 C479 C 0.70044 0.37371 0.94859
 C480 C 0.70922 0.35438 0.95685
 C481 C 0.72999 0.34800 0.95017
 C482 C 0.74187 0.36097 0.93594
 C483 C 0.74563 0.39465 0.91475
 C484 C 0.75557 0.40751 0.90399
 C485 C 0.76672 0.42388 0.89178
 C486 C 0.75500 0.43755 0.87809
 C487 C 0.76520 0.45504 0.86803
 C488 C 0.78725 0.45896 0.87148
 C489 C 0.79908 0.44492 0.88483
 C490 C 0.78885 0.42742 0.89493
 H491 H 0.70539 0.40161 0.92852
 H492 H 0.68450 0.37909 0.95337
 H493 H 0.73721 0.33323 0.95626
 H494 H 0.75801 0.35606 0.93130
 H495 H 0.73784 0.43509 0.87572
 H496 H 0.75580 0.46587 0.85797
 H497 H 0.81603 0.44794 0.88794
 H498 H 0.79801 0.41708 0.90568
 C499 C 0.26999 0.61778 0.92524
 C500 C 0.29075 0.61164 0.93162
 C501 C 0.30233 0.62436 0.94624
 C502 C 0.29330 0.64348 0.95472
 C503 C 0.27257 0.64982 0.94787
 C504 C 0.26096 0.63699 0.93323
 C505 C 0.25780 0.60365 0.91131
 C506 C 0.24823 0.59087 0.90009
 C507 C 0.23762 0.57454 0.88729
 C508 C 0.24990 0.56136 0.87360
 C509 C 0.24028 0.54386 0.86297
 C510 C 0.21824 0.53942 0.86584
 C511 C 0.20584 0.55299 0.87917
 C512 C 0.21551 0.57050 0.88985
 H513 H 0.29787 0.59678 0.92558
 H514 H 0.31825 0.61903 0.95114
 H515 H 0.26516 0.66442 0.95413
 H516 H 0.24486 0.64185 0.92845
 H517 H 0.26705 0.56420 0.87167
 H518 H 0.25010 0.53341 0.85293
 H519 H 0.18890 0.54957 0.88182
 H520 H 0.20591 0.58045 0.90059
 C521 C 0.07201 0.26561 0.38242
 C522 C 0.06469 0.25737 0.36269
 C523 C 0.05108 0.26984 0.34964
 C524 C 0.04456 0.29067 0.35627
 C525 C 0.05247 0.29900 0.37588
 C526 C 0.06609 0.28653 0.38885
 C527 C 0.08432 0.25220 0.39687
 C528 C 0.09389 0.24120 0.40977
 C529 C 0.10439 0.22845 0.42609
 C530 C 0.12650 0.23097 0.43016
 C531 C 0.13609 0.22011 0.44751
 C532 C 0.12361 0.20665 0.46086
 C533 C 0.10157 0.20384 0.45641
 C534 C 0.09203 0.21465 0.43908
 H535 H 0.06909 0.24114 0.35762
 H536 H 0.04525 0.26296 0.33465
 H537 H 0.04779 0.31497 0.38144
 H538 H 0.07158 0.29302 0.40415
 H539 H 0.13616 0.24177 0.42033
 H540 H 0.15305 0.22269 0.45094
 H541 H 0.09169 0.19369 0.46670
 H542 H 0.07488 0.21272 0.43618
 C543 C 0.07148 0.73179 0.61692
 C544 C 0.06423 0.74033 0.63654
 C545 C 0.05037 0.72820 0.64965
 C546 C 0.04352 0.70740 0.64320
 C547 C 0.05132 0.69878 0.62369
 C548 C 0.06519 0.71091 0.61065
 C549 C 0.08418 0.74481 0.60246
 C550 C 0.09413 0.75552 0.58960
 C551 C 0.10512 0.76797 0.57336
 C552 C 0.12677 0.76372 0.56840
 C553 C 0.13669 0.77443 0.55115
 C554 C 0.12502 0.78947 0.53879
 C555 C 0.10346 0.79396 0.54411
 C556 C 0.09359 0.78329 0.56134
 H557 H 0.06892 0.75653 0.64149
 H558 H 0.04464 0.73530 0.66456
 H559 H 0.04640 0.68283 0.61826
 H560 H 0.07062 0.70419 0.59545
 H561 H 0.13577 0.75174 0.57746
 H562 H 0.15324 0.77055 0.54702
 H563 H 0.09418 0.80535 0.53458
 H564 H 0.07678 0.78656 0.56492
 C565 C 0.92597 0.73251 0.38277
 C566 C 0.93393 0.74182 0.36377
 C567 C 0.94807 0.73010 0.35055
 C568 C 0.95447 0.70897 0.35629
 C569 C 0.94599 0.69964 0.37518
 C570 C 0.93186 0.71134 0.38829
 C571 C 0.91263 0.74478 0.39732
 C572 C 0.90190 0.75440 0.41042
 C573 C 0.88961 0.76504 0.42702
 C574 C 0.89356 0.78682 0.43214
 C575 C 0.88314 0.79642 0.44975
 C576 C 0.86866 0.78428 0.46231
 C577 C 0.86449 0.76258 0.45688
 C578 C 0.87488 0.75302 0.43929
 H579 H 0.92952 0.75824 0.35938
 H580 H 0.95436 0.73773 0.33614
 H581 H 0.95053 0.68341 0.38006
 H582 H 0.92584 0.70399 0.40298
 H583 H 0.90511 0.79619 0.42290
 H584 H 0.88677 0.81308 0.45394
 H585 H 0.85354 0.75294 0.46656
 H586 H 0.87186 0.73610 0.43561
 C587 C 0.92642 0.26866 0.61715
 C588 C 0.93252 0.28980 0.61171
 C589 C 0.94701 0.30122 0.62470
 C590 C 0.95565 0.29166 0.64341
 C591 C 0.94906 0.27056 0.64907
 C592 C 0.93455 0.25910 0.63596
 C593 C 0.91263 0.25670 0.60271
 C594 C 0.90152 0.24742 0.58966
 C595 C 0.88879 0.23722 0.57308
 C596 C 0.87559 0.24999 0.55987
 C597 C 0.86487 0.24070 0.54231
 C598 C 0.86716 0.21851 0.53784
 C599 C 0.88007 0.20564 0.55136
 C600 C 0.89083 0.21497 0.56894
 H601 H 0.92637 0.29734 0.59717
 H602 H 0.95169 0.31744 0.61989
 H603 H 0.95545 0.26274 0.66334
 H604 H 0.92998 0.24271 0.64029
 H605 H 0.87406 0.26726 0.56279
 H606 H 0.85515 0.25089 0.53191
 H607 H 0.88225 0.18855 0.54793
 H608 H 0.90118 0.20498 0.57891
 C609 C 0.37976 0.07219 0.26617
 C610 C 0.38551 0.06681 0.28731
 C611 C 0.37273 0.05258 0.29927
 C612 C 0.35395 0.04349 0.29024
 C613 C 0.34795 0.04941 0.26914
 C614 C 0.36084 0.06365 0.25716
 C615 C 0.39409 0.08548 0.25358
 C616 C 0.40705 0.09614 0.24370
 C617 C 0.42360 0.10828 0.23280
 C618 C 0.43678 0.12238 0.24466
 C619 C 0.45443 0.13241 0.23483
 C620 C 0.45900 0.12852 0.21301
 C621 C 0.44549 0.11475 0.20101
 C622 C 0.42782 0.10467 0.21088
 H623 H 0.40016 0.07328 0.29442
 H624 H 0.37779 0.04841 0.31547
 H625 H 0.33361 0.04265 0.26172
 H626 H 0.35629 0.06765 0.24076
 H627 H 0.43379 0.12511 0.26166
 H628 H 0.46484 0.14282 0.24434
 H629 H 0.44901 0.11135 0.18423
 H630 H 0.41787 0.09359 0.20162
 C631 C 0.61631 0.07672 0.72833
 C632 C 0.61023 0.06966 0.70776
 C633 C 0.62318 0.05503 0.69647
 C634 C 0.64245 0.04719 0.70561
 C635 C 0.64869 0.05471 0.72614
 C636 C 0.63565 0.06936 0.73745
 C637 C 0.60202 0.09061 0.74031
 C638 C 0.58920 0.10172 0.74989
 C639 C 0.57295 0.11430 0.76076
 C640 C 0.55926 0.12774 0.74877
 C641 C 0.54194 0.13817 0.75880
 C642 C 0.53822 0.13533 0.78096
 C643 C 0.55227 0.12221 0.79302
 C644 C 0.56959 0.11176 0.78296
 H645 H 0.59526 0.07520 0.70058
 H646 H 0.61791 0.04961 0.68070
 H647 H 0.66341 0.04897 0.73362
 H648 H 0.64047 0.07466 0.75341
 H649 H 0.56158 0.12964 0.73156
 H650 H 0.53112 0.14803 0.74922
 H651 H 0.54941 0.11955 0.81005
 H652 H 0.57995 0.10121 0.79234
 C653 C 0.38210 0.92622 0.73305
 C654 C 0.38813 0.93239 0.71220
 C655 C 0.37519 0.94657 0.70036
 C656 C 0.35598 0.95483 0.70923
 C657 C 0.34977 0.94817 0.73004
 C658 C 0.36281 0.93397 0.74189
 C659 C 0.39645 0.91290 0.74556
 C660 C 0.40936 0.90226 0.75553
 C661 C 0.42579 0.89025 0.76674
 C662 C 0.43953 0.87654 0.75512
 C663 C 0.45709 0.86675 0.76534
 C664 C 0.46101 0.87051 0.78733
 C665 C 0.44690 0.88385 0.79907
 C666 C 0.42933 0.89367 0.78881
 H667 H 0.40307 0.92653 0.70523
 H668 H 0.38042 0.95134 0.68439
 H669 H 0.33509 0.95427 0.73732
 H670 H 0.35804 0.92937 0.75806
 H671 H 0.43706 0.87396 0.73800
 H672 H 0.46797 0.85670 0.75602
 H673 H 0.44993 0.88719 0.81596
 H674 H 0.41894 0.90445 0.79789
 C675 C 0.61892 0.92562 0.26907
 C676 C 0.61278 0.93128 0.29003
 C677 C 0.62544 0.94556 0.30214
 C678 C 0.64446 0.95443 0.29342
 C679 C 0.65085 0.94817 0.27254
 C680 C 0.63810 0.93389 0.26041
 C681 C 0.60462 0.91262 0.25608
 C682 C 0.59176 0.90247 0.24551
 C683 C 0.57540 0.89130 0.23331
 C684 C 0.57137 0.86920 0.23678
 C685 C 0.55396 0.85905 0.22647
 C686 C 0.54051 0.87096 0.21261
 C687 C 0.54490 0.89296 0.20887
 C688 C 0.56229 0.90306 0.21913
 H689 H 0.59791 0.92505 0.29685
 H690 H 0.62007 0.94999 0.31817
 H691 H 0.66538 0.95475 0.26536
 H692 H 0.64294 0.92972 0.24414
 H693 H 0.58128 0.86000 0.24789
 H694 H 0.55058 0.84213 0.22974
 H695 H 0.53454 0.90240 0.19840
 H696 H 0.56514 0.92020 0.21648
 C697 C 0.38233 0.26714 0.92823
 C698 C 0.36283 0.25861 0.93589
 C699 C 0.34999 0.27078 0.94998
 C700 C 0.35659 0.29160 0.95664
 C701 C 0.37598 0.30017 0.94845
 C702 C 0.38873 0.28802 0.93436
 C703 C 0.39652 0.25420 0.91513
 C704 C 0.40926 0.24375 0.90476
 C705 C 0.42547 0.23181 0.89313
 C706 C 0.42878 0.23555 0.87109
 C707 C 0.44605 0.22563 0.86043
 C708 C 0.46011 0.21186 0.87176
 C709 C 0.45643 0.20782 0.89372
 C710 C 0.43916 0.21771 0.90434
 H711 H 0.35778 0.24242 0.93131
 H712 H 0.33518 0.26372 0.95602
 H713 H 0.38151 0.31614 0.95321
 H714 H 0.40382 0.29474 0.92859
 H715 H 0.41841 0.24662 0.86232
 H716 H 0.44889 0.22918 0.84356
 H717 H 0.46727 0.19743 0.90273
 H718 H 0.43688 0.21486 0.92143
 C719 C 0.62101 0.73710 0.92815
 C720 C 0.61474 0.71586 0.93302
 C721 C 0.62747 0.70306 0.94653
 C722 C 0.64670 0.71134 0.95539
 C723 C 0.65325 0.73249 0.94988
 C724 C 0.64042 0.74532 0.93637
 C725 C 0.60666 0.75072 0.91596
 C726 C 0.59371 0.76167 0.90639
 C727 C 0.57722 0.77409 0.89573
 C728 C 0.57347 0.77143 0.87361
 C729 C 0.55584 0.78165 0.86384
 C730 C 0.54187 0.79463 0.87614
 C731 C 0.54600 0.79763 0.89821
 C732 C 0.56362 0.78744 0.90794
 H733 H 0.59971 0.70937 0.92680
 H734 H 0.62199 0.68684 0.95040
 H735 H 0.66794 0.73934 0.95648
 H736 H 0.64536 0.76178 0.93278
 H737 H 0.58374 0.76094 0.86407
 H738 H 0.55267 0.77889 0.84687
 H739 H 0.53525 0.80740 0.90796
 H740 H 0.56625 0.78944 0.92511
 C741 C 0.38270 0.73237 0.07342
 C742 C 0.38853 0.71118 0.06787
 C743 C 0.37572 0.69917 0.05367
 C744 C 0.35686 0.70820 0.04478
 C745 C 0.35077 0.72931 0.05092
 C746 C 0.36368 0.74134 0.06512
 C747 C 0.39715 0.74521 0.08639
 C748 C 0.41016 0.75560 0.09654
 C749 C 0.42668 0.76755 0.10777
 C750 C 0.43990 0.78186 0.09624
 C751 C 0.45739 0.79189 0.10640
 C752 C 0.46177 0.78779 0.12822
 C753 C 0.44823 0.77379 0.13988
 C754 C 0.43073 0.76370 0.12968
 H755 H 0.40326 0.70411 0.07412
 H756 H 0.38085 0.68295 0.04932
 H757 H 0.33637 0.73673 0.04433
 H758 H 0.35908 0.75779 0.06923
 H759 H 0.43704 0.78479 0.07925
 H760 H 0.46782 0.80248 0.09714
 H761 H 0.45160 0.77024 0.15666
 H762 H 0.42073 0.75249 0.13869
 C763 C 0.61842 0.26421 0.07322
 C764 C 0.63755 0.25532 0.06509
 C765 C 0.65048 0.26742 0.05101
 C766 C 0.64433 0.28851 0.04484
 C767 C 0.62530 0.29740 0.05349
 C768 C 0.61247 0.28533 0.06756
 C769 C 0.60417 0.25156 0.08653
 C770 C 0.59127 0.24166 0.09724
 C771 C 0.57481 0.23076 0.10949
 C772 C 0.57053 0.20869 0.10609
 C773 C 0.55293 0.19883 0.11630
 C774 C 0.53953 0.21099 0.12997
 C775 C 0.54417 0.23296 0.13366
 C776 C 0.56175 0.24278 0.12351
 H777 H 0.64226 0.23895 0.06932
 H778 H 0.66502 0.26011 0.04460
 H779 H 0.62011 0.31358 0.04912
 H780 H 0.59767 0.29234 0.07372
 H781 H 0.58039 0.19930 0.09509
 H782 H 0.54936 0.18193 0.11306
 H783 H 0.53384 0.24260 0.14399
 H784 H 0.56478 0.25990 0.12608
 C785 C 0.26416 0.07010 0.61858
 C786 C 0.25585 0.06224 0.63806
 C787 C 0.26838 0.04861 0.65106
 C788 C 0.28933 0.04260 0.64462
 C789 C 0.29770 0.05108 0.62529
 C790 C 0.28519 0.06471 0.61238
 C791 C 0.25080 0.08243 0.60411
 C792 C 0.23995 0.09205 0.59112
 C793 C 0.22748 0.10266 0.57466
 C794 C 0.21372 0.09035 0.56156
 C795 C 0.20321 0.09999 0.54410
 C796 C 0.20629 0.12209 0.53963
 C797 C 0.21976 0.13451 0.55306
 C798 C 0.23030 0.12482 0.57053
 H799 H 0.23954 0.06623 0.64295
 H800 H 0.26146 0.04233 0.66583
 H801 H 0.31376 0.04681 0.61989
 H802 H 0.29174 0.07063 0.59729
 H803 H 0.21158 0.07315 0.56448
 H804 H 0.19305 0.09015 0.53376
 H805 H 0.22254 0.15151 0.54962
 H806 H 0.24110 0.13445 0.58044
 C807 C 0.73005 0.07475 0.38246
 C808 C 0.73843 0.06759 0.36275
 C809 C 0.72693 0.05257 0.35027
 C810 C 0.70688 0.04441 0.35743
 C811 C 0.69850 0.05212 0.37714
 C812 C 0.71000 0.06712 0.38950
 C813 C 0.74219 0.08919 0.39610
 C814 C 0.75179 0.10082 0.40847
 C815 C 0.76248 0.11409 0.42433
 C816 C 0.78461 0.11155 0.42830
 C817 C 0.79436 0.12260 0.44547
 C818 C 0.78203 0.13628 0.45876
 C819 C 0.76000 0.13917 0.45435
 C820 C 0.75029 0.12816 0.43719
 H821 H 0.75397 0.07337 0.35718
 H822 H 0.73394 0.04711 0.33521
 H823 H 0.68315 0.04637 0.38325
 H824 H 0.70338 0.07253 0.40476
 H825 H 0.79414 0.10052 0.41860
 H826 H 0.81130 0.11993 0.44888
 H827 H 0.75022 0.14947 0.46459
 H828 H 0.73313 0.13008 0.43439
 C829 C 0.73369 0.92813 0.61900
 C830 C 0.71265 0.93346 0.61276
 C831 C 0.70050 0.94796 0.62505
 C832 C 0.70921 0.95738 0.64381
 C833 C 0.73021 0.95155 0.65027
 C834 C 0.74240 0.93704 0.63788
 C835 C 0.74643 0.91439 0.60523
 C836 C 0.75638 0.90331 0.59268
 C837 C 0.76732 0.89065 0.57654
 C838 C 0.75520 0.87755 0.56260
 C839 C 0.76518 0.86715 0.54526
 C840 C 0.78741 0.86967 0.54175
 C841 C 0.79965 0.88236 0.55607
 C842 C 0.78962 0.89283 0.57342
 H843 H 0.70577 0.92671 0.59815
 H844 H 0.68438 0.95205 0.61964
 H845 H 0.73739 0.95855 0.66461
 H846 H 0.75871 0.93307 0.64280
 H847 H 0.73791 0.87592 0.56473
 H848 H 0.75549 0.85758 0.53423
 H849 H 0.81677 0.88470 0.55338
 H850 H 0.79910 0.90312 0.58397
 C851 C 0.26643 0.92509 0.38124
 C852 C 0.28743 0.93101 0.38711
 C853 C 0.29933 0.94510 0.37411
 C854 C 0.29037 0.95351 0.35501
 C855 C 0.26947 0.94697 0.34888
 C856 C 0.25755 0.93288 0.36198
 C857 C 0.25366 0.91235 0.39589
 C858 C 0.24331 0.90242 0.40906
 C859 C 0.23141 0.89152 0.42576
 C860 C 0.21883 0.90373 0.44005
 C861 C 0.20881 0.89370 0.45757
 C862 C 0.21119 0.87132 0.46092
 C863 C 0.22348 0.85902 0.44635
 C864 C 0.23356 0.86910 0.42880
 H865 H 0.29443 0.92516 0.40204
 H866 H 0.31538 0.94977 0.37928
 H867 H 0.26211 0.95319 0.33430
 H868 H 0.24125 0.92849 0.35735
 H869 H 0.21722 0.92110 0.43796
 H870 H 0.19953 0.90343 0.46878
 H871 H 0.22569 0.84179 0.44889
 H872 H 0.24342 0.85954 0.41796
 C873 C 0.07495 0.38036 0.73238
 C874 C 0.06640 0.36141 0.74145
 C875 C 0.05183 0.34866 0.72964
 C876 C 0.04560 0.35483 0.70869
 C877 C 0.05465 0.37368 0.69963
 C878 C 0.06919 0.38631 0.71139
 C879 C 0.08880 0.39448 0.74469
 C880 C 0.09998 0.40732 0.75422
 C881 C 0.11279 0.42376 0.76465
 C882 C 0.11032 0.42799 0.78673
 C883 C 0.12104 0.44559 0.79619
 C884 C 0.13432 0.45906 0.78363
 C885 C 0.13708 0.45445 0.76164
 C886 C 0.12641 0.43687 0.75222
 H887 H 0.07069 0.35670 0.75772
 H888 H 0.04512 0.33427 0.73707
 H889 H 0.05025 0.37888 0.68354
 H890 H 0.07567 0.40097 0.70424
 H891 H 0.09963 0.41810 0.79645
 H892 H 0.11848 0.44912 0.81312
 H893 H 0.14709 0.46481 0.75169
 H894 H 0.12827 0.43388 0.73509
 C895 C 0.07238 0.61941 0.26674
 C896 C 0.06403 0.63851 0.25782
 C897 C 0.04964 0.65131 0.26972
 C898 C 0.04339 0.64505 0.29064
 C899 C 0.05223 0.62604 0.29955
 C900 C 0.06660 0.61335 0.28768
 C901 C 0.08609 0.60531 0.25432
 C902 C 0.09719 0.59253 0.24464
 C903 C 0.10993 0.57623 0.23398
 C904 C 0.10619 0.57111 0.21227
 C905 C 0.11698 0.55364 0.20270
 C906 C 0.13161 0.54120 0.21479
 C907 C 0.13561 0.54668 0.23640
 C908 C 0.12486 0.56414 0.24593
 H909 H 0.06836 0.64331 0.24158
 H910 H 0.04309 0.66582 0.26240
 H911 H 0.04780 0.62076 0.31561
 H912 H 0.07292 0.59858 0.29472
 H913 H 0.09450 0.58020 0.20295
 H914 H 0.11347 0.54940 0.18611
 H915 H 0.14666 0.53710 0.24601
 H916 H 0.12771 0.56781 0.26279
 C917 C 0.93011 0.38239 0.26462
 C918 C 0.93754 0.36253 0.25661
 C919 C 0.95125 0.34963 0.26914
 C920 C 0.95777 0.35654 0.28980
 C921 C 0.94978 0.37630 0.29787
 C922 C 0.93607 0.38912 0.28535
 C923 C 0.91747 0.39660 0.25126
 C924 C 0.90750 0.40931 0.24037
 C925 C 0.89634 0.42543 0.22788
 C926 C 0.87414 0.42872 0.23064
 C927 C 0.86387 0.44596 0.22018
 C928 C 0.87573 0.46000 0.20686
 C929 C 0.89787 0.45632 0.20377
 C930 C 0.90811 0.43908 0.21419
 H931 H 0.93310 0.35722 0.24055
 H932 H 0.95714 0.33452 0.26246
 H933 H 0.95445 0.38208 0.31370
 H934 H 0.93047 0.40451 0.29167
 H935 H 0.86494 0.41838 0.24136
 H936 H 0.84685 0.44881 0.22301
 H937 H 0.90729 0.46714 0.19374
 H938 H 0.92532 0.43680 0.21209
 C939 C 0.92924 0.61682 0.73615
 C940 C 0.93475 0.61013 0.71531
 C941 C 0.94830 0.62293 0.70258
 C942 C 0.95656 0.64263 0.71056
 C943 C 0.95046 0.64953 0.73133
 C944 C 0.93691 0.63665 0.74407
 C945 C 0.91686 0.60257 0.74972
 C946 C 0.90713 0.58978 0.76073
 C947 C 0.89627 0.57352 0.77334
 C948 C 0.90832 0.56001 0.78691
 C949 C 0.89839 0.54262 0.79738
 C950 C 0.87627 0.53862 0.79444
 C951 C 0.86412 0.55253 0.78124
 C952 C 0.87409 0.56993 0.77074
 H953 H 0.92896 0.59477 0.70905
 H954 H 0.95265 0.61716 0.68667
 H955 H 0.95657 0.66459 0.73795
 H956 H 0.93281 0.64193 0.76023
 H957 H 0.92553 0.56253 0.78888
 H958 H 0.90803 0.53190 0.80731
 H959 H 0.84711 0.54945 0.77853
 H960 H 0.86467 0.58015 0.76010
 C961 C 0.73445 0.61841 0.92808
 C962 C 0.71372 0.61205 0.93432
 C963 C 0.70160 0.62507 0.94819
 C964 C 0.71006 0.64477 0.95616
 C965 C 0.73075 0.65134 0.94923
 C966 C 0.74286 0.63819 0.93535
 C967 C 0.74740 0.60382 0.91540
 C968 C 0.75782 0.59066 0.90548
 C969 C 0.76975 0.57392 0.89455
 C970 C 0.76742 0.57080 0.87227
 C971 C 0.77741 0.55313 0.86219
 C972 C 0.78980 0.53850 0.87434
 C973 C 0.79239 0.54194 0.89657
 C974 C 0.78245 0.55959 0.90660
 H975 H 0.70707 0.59674 0.92884
 H976 H 0.68575 0.61941 0.95298
 H977 H 0.73784 0.66637 0.95491
 H978 H 0.75895 0.64323 0.93067
 H979 H 0.75745 0.58166 0.86283
 H980 H 0.77503 0.55051 0.84507
 H981 H 0.80173 0.53068 0.90619
 H982 H 0.78421 0.56173 0.92387
 C983 C 0.26959 0.38257 0.92747
 C984 C 0.26110 0.36276 0.93451
 C985 C 0.27267 0.34997 0.94917
 C986 C 0.29290 0.35692 0.95708
 C987 C 0.30137 0.37675 0.94952
 C988 C 0.28979 0.38941 0.93488
 C989 C 0.25747 0.39647 0.91330
 C990 C 0.24796 0.40906 0.90184
 C991 C 0.23743 0.42513 0.88871
 C992 C 0.21529 0.42915 0.89103
 C993 C 0.20568 0.44644 0.87998
 C994 C 0.21816 0.45979 0.86652
 C995 C 0.24022 0.45536 0.86388
 C996 C 0.24978 0.43809 0.87488
 H997 H 0.24543 0.35732 0.92890
 H998 H 0.26559 0.33484 0.95453
 H999 H 0.31686 0.38273 0.95508
 H1000 H 0.29651 0.40473 0.92955
 H1001 H 0.20562 0.41938 0.90186
 H1002 H 0.18871 0.44985 0.88246
 H1003 H 0.25011 0.46565 0.85374
 H1004 H 0.26695 0.43527 0.87312
 C1005 C 0.26704 0.61829 0.07084
 C1006 C 0.25925 0.63835 0.06375
 C1007 C 0.27161 0.65107 0.04970
 C1008 C 0.29195 0.64379 0.04244
 C1009 C 0.29976 0.62375 0.05013
 C1010 C 0.28738 0.61115 0.06417
 C1011 C 0.25386 0.60433 0.08400
 C1012 C 0.24320 0.59177 0.09442
 C1013 C 0.23099 0.57574 0.10607
 C1014 C 0.23446 0.57256 0.12819
 C1015 C 0.22436 0.55532 0.13886
 C1016 C 0.21071 0.54116 0.12747
 C1017 C 0.20688 0.54475 0.10545
 C1018 C 0.21693 0.56199 0.09482
 H1019 H 0.24348 0.64400 0.06877
 H1020 H 0.26502 0.66637 0.04424
 H1021 H 0.31530 0.61754 0.04506
 H1022 H 0.29354 0.59561 0.06952
 H1023 H 0.24548 0.58297 0.13700
 H1024 H 0.22775 0.55254 0.15577
 H1025 H 0.19660 0.53382 0.09639
 H1026 H 0.21428 0.56416 0.07768
 C1027 C 0.73357 0.37925 0.07279
 C1028 C 0.74165 0.35930 0.06567
 C1029 C 0.72945 0.34638 0.05161
 C1030 C 0.70901 0.35337 0.04435
 C1031 C 0.70087 0.37324 0.05216
 C1032 C 0.71307 0.38603 0.06621
 C1033 C 0.74664 0.39361 0.08564
 C1034 C 0.75715 0.40663 0.09568
 C1035 C 0.76915 0.42328 0.10672
 C1036 C 0.78197 0.43759 0.09475
 C1037 C 0.79184 0.45527 0.10483
 C1038 C 0.78907 0.45877 0.12702
 C1039 C 0.77662 0.44412 0.13911
 C1040 C 0.76669 0.42642 0.12897
 H1041 H 0.75756 0.35395 0.07060
 H1042 H 0.73628 0.33121 0.04606
 H1043 H 0.68523 0.37922 0.04712
 H1044 H 0.70669 0.40148 0.07157
 H1045 H 0.78382 0.43543 0.07750
 H1046 H 0.80123 0.46654 0.09526
 H1047 H 0.77410 0.44679 0.15619
 H1048 H 0.75662 0.41558 0.13835
 C1049 C 0.92641 0.72979 0.61910
 C1050 C 0.93335 0.70926 0.61254
 C1051 C 0.94792 0.69756 0.62516
 C1052 C 0.95590 0.70623 0.64468
 C1053 C 0.94839 0.72676 0.65139
 C1054 C 0.93380 0.73847 0.63864
 C1055 C 0.91250 0.74211 0.60510
 C1056 C 0.90132 0.75182 0.59243
 C1057 C 0.88861 0.76266 0.57626
 C1058 C 0.87517 0.75047 0.56270
 C1059 C 0.86463 0.76041 0.54540
 C1060 C 0.86736 0.78268 0.54153
 C1061 C 0.88045 0.79496 0.55546
 C1062 C 0.89102 0.78498 0.57277
 H1063 H 0.92776 0.70240 0.59743
 H1064 H 0.95315 0.68184 0.61938
 H1065 H 0.95407 0.73401 0.66628
 H1066 H 0.92856 0.75439 0.64385
 H1067 H 0.87335 0.73316 0.56511
 H1068 H 0.85479 0.75066 0.53467
 H1069 H 0.88303 0.81208 0.55249
 H1070 H 0.90156 0.79452 0.58301
 C1071 C 0.92750 0.26912 0.38071
 C1072 C 0.93475 0.26047 0.36113
 C1073 C 0.94940 0.27212 0.34839
 C1074 C 0.95710 0.29258 0.35517
 C1075 C 0.94928 0.30121 0.37475
 C1076 C 0.93466 0.28956 0.38735
 C1077 C 0.91342 0.25694 0.39467
 C1078 C 0.90206 0.24752 0.40737
 C1079 C 0.88904 0.23722 0.42365
 C1080 C 0.89103 0.21496 0.42772
 C1081 C 0.88010 0.20558 0.44514
 C1082 C 0.86708 0.21842 0.45859
 C1083 C 0.86480 0.24062 0.45415
 C1084 C 0.87567 0.24995 0.43675
 H1085 H 0.92933 0.24461 0.35586
 H1086 H 0.95496 0.26491 0.33345
 H1087 H 0.95465 0.31688 0.38059
 H1088 H 0.92917 0.29641 0.40249
 H1089 H 0.90151 0.20501 0.41784
 H1090 H 0.88230 0.18850 0.44855
 H1091 H 0.85500 0.25078 0.46451
 H1092 H 0.87418 0.26722 0.43389
 C1093 C 0.07086 0.26503 0.61799
 C1094 C 0.06441 0.28565 0.61119
 C1095 C 0.05070 0.29815 0.62404
 C1096 C 0.04312 0.29018 0.64397
 C1097 C 0.05027 0.26961 0.65094
 C1098 C 0.06397 0.25713 0.63798
 C1099 C 0.08337 0.25159 0.60371
 C1100 C 0.09313 0.24060 0.59093
 C1101 C 0.10386 0.22786 0.57470
 C1102 C 0.09170 0.21395 0.56160
 C1103 C 0.10143 0.20324 0.54430
 C1104 C 0.12347 0.20625 0.53999
 C1105 C 0.13576 0.21979 0.55348
 C1106 C 0.12598 0.23056 0.57079
 H1107 H 0.06959 0.29189 0.59570
 H1108 H 0.04572 0.31388 0.61808
 H1109 H 0.04490 0.26289 0.66616
 H1110 H 0.06882 0.24114 0.64336
 H1111 H 0.07455 0.21189 0.56436
 H1112 H 0.09169 0.19303 0.53391
 H1113 H 0.15271 0.22254 0.55016
 H1114 H 0.13549 0.24145 0.58070
 C1115 C 0.06952 0.73501 0.38135
 C1116 C 0.06257 0.74295 0.36138
 C1117 C 0.04881 0.73047 0.34843
 C1118 C 0.04167 0.70988 0.35537
 C1119 C 0.04931 0.70189 0.37527
 C1120 C 0.06307 0.71437 0.38811
 C1121 C 0.08217 0.74835 0.39562
 C1122 C 0.09214 0.75914 0.40843
 C1123 C 0.10325 0.77148 0.42474
 C1124 C 0.12539 0.76846 0.42825
 C1125 C 0.13557 0.77867 0.44568
 C1126 C 0.12368 0.79199 0.45969
 C1127 C 0.10161 0.79535 0.45578
 C1128 C 0.09147 0.78518 0.43836
 H1129 H 0.06743 0.75895 0.35602
 H1130 H 0.04340 0.73722 0.33323
 H1131 H 0.04434 0.68614 0.38122
 H1132 H 0.06831 0.70809 0.40357
 H1133 H 0.13461 0.75771 0.41795
 H1134 H 0.15253 0.77562 0.44869
 H1135 H 0.09216 0.80538 0.46657
 H1136 H 0.07430 0.78747 0.43591
 C1137 C 0.61813 0.93003 0.73325
 C1138 C 0.63725 0.93856 0.74184
 C1139 C 0.65005 0.95255 0.72947
 C1140 C 0.64378 0.95825 0.70839
 C1141 C 0.62479 0.94916 0.69977
 C1142 C 0.61209 0.93517 0.71212
 C1143 C 0.60387 0.91714 0.74636
 C1144 C 0.59104 0.90700 0.75695
 C1145 C 0.57472 0.89573 0.76909
 C1146 C 0.57206 0.87326 0.76694
 C1147 C 0.55479 0.86281 0.77715
 C1148 C 0.54009 0.87480 0.78959
 C1149 C 0.54309 0.89724 0.79203
 C1150 C 0.56035 0.90763 0.78187
 H1151 H 0.64203 0.93477 0.75822
 H1152 H 0.66455 0.95930 0.73658
 H1153 H 0.61951 0.95316 0.68360
 H1154 H 0.59728 0.92874 0.70534
 H1155 H 0.58297 0.86393 0.75692
 H1156 H 0.55250 0.84554 0.77487
 H1157 H 0.53177 0.90674 0.80140
 H1158 H 0.56213 0.92504 0.78350
 C1159 C 0.38227 0.92674 0.26621
 C1160 C 0.36285 0.93423 0.25740
 C1161 C 0.34962 0.94822 0.26931
 C1162 C 0.35576 0.95493 0.29015
 C1163 C 0.37512 0.94695 0.29897
 C1164 C 0.38825 0.93298 0.28707
 C1165 C 0.39672 0.91346 0.25374
 C1166 C 0.40970 0.90275 0.24392
 C1167 C 0.42618 0.89048 0.23304
 C1168 C 0.43034 0.89386 0.21108
 C1169 C 0.44786 0.88356 0.20119
 C1170 C 0.46131 0.86978 0.21321
 C1171 C 0.45681 0.86613 0.23509
 C1172 C 0.43930 0.87639 0.24494
 H1173 H 0.35810 0.92955 0.24123
 H1174 H 0.33484 0.95410 0.26206
 H1175 H 0.38031 0.95176 0.31496
 H1176 H 0.40327 0.92731 0.29404
 H1177 H 0.42043 0.90491 0.20179
 H1178 H 0.45133 0.88678 0.18438
 H1179 H 0.46717 0.85574 0.24462
 H1180 H 0.43637 0.87382 0.26197
 C1181 C 0.61637 0.07139 0.26875
 C1182 C 0.61010 0.06513 0.28950
 C1183 C 0.62310 0.05118 0.30159
 C1184 C 0.64260 0.04323 0.29307
 C1185 C 0.64905 0.05000 0.27236
 C1186 C 0.63597 0.06396 0.26027
 C1187 C 0.60197 0.08434 0.25586
 C1188 C 0.58910 0.09453 0.24536
 C1189 C 0.57280 0.10584 0.23322
 C1190 C 0.55951 0.09421 0.21906
 C1191 C 0.54226 0.10450 0.20879
 C1192 C 0.53819 0.12658 0.21249
 C1193 C 0.55181 0.13834 0.22634
 C1194 C 0.56908 0.12800 0.23666
 H1195 H 0.59493 0.07070 0.29620
 H1196 H 0.61767 0.04632 0.31747
 H1197 H 0.66395 0.04416 0.26533
 H1198 H 0.64093 0.06862 0.24417
 H1199 H 0.56212 0.07703 0.21642
 H1200 H 0.53176 0.09515 0.19833
 H1201 H 0.54868 0.15531 0.22959
 H1202 H 0.57913 0.13712 0.24774
 C1203 C 0.38094 0.07332 0.73233
 C1204 C 0.36201 0.06500 0.74148
 C1205 C 0.34918 0.05038 0.72983
 C1206 C 0.35524 0.04386 0.70893
 C1207 C 0.37409 0.05265 0.69978
 C1208 C 0.38681 0.06726 0.71140
 C1209 C 0.39506 0.08728 0.74450
 C1210 C 0.40781 0.09856 0.75401
 C1211 C 0.42406 0.11150 0.76452
 C1212 C 0.42934 0.10780 0.78619
 C1213 C 0.44678 0.11873 0.79560
 C1214 C 0.45902 0.13347 0.78341
 C1215 C 0.45336 0.13744 0.76185
 C1216 C 0.43594 0.12655 0.75248
 H1217 H 0.35736 0.06954 0.75771
 H1218 H 0.33479 0.04387 0.73733
 H1219 H 0.37921 0.04802 0.68372
 H1220 H 0.40146 0.07355 0.70417
 H1221 H 0.42042 0.09601 0.79558
 H1222 H 0.45116 0.11522 0.81215
 H1223 H 0.46279 0.14858 0.75217
 H1224 H 0.43214 0.12937 0.73565
 C1225 C 0.61943 0.73409 0.07176
 C1226 C 0.63887 0.74279 0.06416
 C1227 C 0.65181 0.73076 0.05001
 C1228 C 0.64535 0.70993 0.04325
 C1229 C 0.62598 0.70123 0.05134
 C1230 C 0.61315 0.71323 0.06547
 C1231 C 0.60524 0.74667 0.08522
 C1232 C 0.59241 0.75651 0.09608
 C1233 C 0.57604 0.76734 0.10853
 C1234 C 0.57194 0.78948 0.10550
 C1235 C 0.55446 0.79932 0.11592
 C1236 C 0.54099 0.78706 0.12946
 C1237 C 0.54545 0.76500 0.13277
 C1238 C 0.56292 0.75521 0.12239
 H1239 H 0.64385 0.75896 0.06888
 H1240 H 0.66661 0.73793 0.04404
 H1241 H 0.62054 0.68525 0.04650
 H1242 H 0.59811 0.70635 0.07122
 H1243 H 0.58185 0.79897 0.09462
 H1244 H 0.55102 0.81628 0.11297
 H1245 H 0.53507 0.75528 0.14298
 H1246 H 0.56580 0.73804 0.12469
 C1247 C 0.38208 0.26689 0.07327
 C1248 C 0.38824 0.28796 0.06761
 C1249 C 0.37547 0.30017 0.05358
 C1250 C 0.35632 0.29146 0.04494
 C1251 C 0.34994 0.27045 0.05115
 C1252 C 0.36280 0.25822 0.06519
 C1253 C 0.39639 0.25388 0.08619
 C1254 C 0.40925 0.24334 0.09636
 C1255 C 0.42558 0.23121 0.10764
 C1256 C 0.43877 0.21686 0.09614
 C1257 C 0.45609 0.20665 0.10637
 C1258 C 0.46033 0.21059 0.12827
 C1259 C 0.44681 0.22464 0.13990
 C1260 C 0.42948 0.23491 0.12962
 H1261 H 0.40317 0.29481 0.07369
 H1262 H 0.38084 0.31629 0.04918
 H1263 H 0.33531 0.26327 0.04476
 H1264 H 0.35794 0.24187 0.06937
 H1265 H 0.43604 0.21404 0.07910
 H1266 H 0.46650 0.19603 0.09713
 H1267 H 0.45008 0.22808 0.15673
 H1268 H 0.41952 0.24614 0.13862
 C1269 C 0.61811 0.26585 0.92733
 C1270 C 0.61220 0.28683 0.93355
 C1271 C 0.62503 0.29851 0.94797
 C1272 C 0.64404 0.28937 0.95644
 C1273 C 0.65014 0.26842 0.94976
 C1274 C 0.63719 0.25671 0.93531
 C1275 C 0.60387 0.25361 0.91359
 C1276 C 0.59096 0.24407 0.90252
 C1277 C 0.57447 0.23360 0.88989
 C1278 C 0.56037 0.24627 0.87755
 C1279 C 0.54282 0.23666 0.86710
 C1280 C 0.53924 0.21425 0.86881
 C1281 C 0.55370 0.20148 0.88077
 C1282 C 0.57127 0.21114 0.89128
 H1283 H 0.59744 0.29405 0.92751
 H1284 H 0.61988 0.31460 0.95273
 H1285 H 0.66465 0.26092 0.95601
 H1286 H 0.64187 0.24044 0.93066
 H1287 H 0.56257 0.26368 0.87653
 H1288 H 0.53169 0.24675 0.85811
 H1289 H 0.55097 0.18421 0.88249
 H1290 H 0.58195 0.20122 0.90097
 C1291 C 0.38476 0.73370 0.92901
 C1292 C 0.36504 0.74207 0.93624
 C1293 C 0.35190 0.72977 0.94992
 C1294 C 0.35839 0.70895 0.95662
 C1295 C 0.37801 0.70052 0.94886
 C1296 C 0.39108 0.71283 0.93517
 C1297 C 0.39921 0.74686 0.91638
 C1298 C 0.41205 0.75764 0.90645
 C1299 C 0.42825 0.77019 0.89542
 C1300 C 0.43307 0.76606 0.87372
 C1301 C 0.45024 0.77688 0.86374
 C1302 C 0.46267 0.79194 0.87539
 C1303 C 0.45750 0.79629 0.89700
 C1304 C 0.44034 0.78551 0.90694
 H1305 H 0.36004 0.75826 0.93165
 H1306 H 0.33691 0.73673 0.95563
 H1307 H 0.38348 0.68457 0.95367
 H1308 H 0.40634 0.70622 0.92975
 H1309 H 0.42396 0.75408 0.86472
 H1310 H 0.45425 0.77309 0.84715
 H1311 H 0.46708 0.80768 0.90627
 H1312 H 0.43688 0.78870 0.92378
 C1313 C 0.73429 0.92827 0.38469
 C1314 C 0.74275 0.93618 0.36529
 C1315 C 0.73043 0.95005 0.35233
 C1316 C 0.70951 0.95624 0.35871
 C1317 C 0.70102 0.94781 0.37801
 C1318 C 0.71333 0.93395 0.39088
 C1319 C 0.74733 0.91535 0.39897
 C1320 C 0.75785 0.90510 0.41177
 C1321 C 0.76988 0.89360 0.42801
 C1322 C 0.78383 0.90507 0.44167
 C1323 C 0.79382 0.89456 0.45895
 C1324 C 0.79004 0.87243 0.46269
 C1325 C 0.77643 0.86084 0.44868
 C1326 C 0.76640 0.87139 0.43139
 H1327 H 0.75900 0.93197 0.36039
 H1328 H 0.73744 0.95628 0.33759
 H1329 H 0.68498 0.95221 0.38338
 H1330 H 0.70664 0.92798 0.40589
 H1331 H 0.78648 0.92228 0.43934
 H1332 H 0.80407 0.90378 0.46976
 H1333 H 0.77307 0.84384 0.45156
 H1334 H 0.75547 0.86241 0.42106
 C1335 C 0.26675 0.92507 0.61878
 C1336 C 0.28766 0.93109 0.61278
 C1337 C 0.29951 0.94545 0.62558
 C1338 C 0.29060 0.95403 0.64463
 C1339 C 0.26973 0.94749 0.65084
 C1340 C 0.25785 0.93312 0.63794
 C1341 C 0.25425 0.91157 0.60452
 C1342 C 0.24437 0.90077 0.59163
 C1343 C 0.23333 0.88852 0.57521
 C1344 C 0.24515 0.87482 0.56161
 C1345 C 0.23508 0.86476 0.54408
 C1346 C 0.21306 0.86823 0.54003
 C1347 C 0.20113 0.88158 0.55398
 C1348 C 0.21123 0.89167 0.57152
 H1349 H 0.29468 0.92501 0.59796
 H1350 H 0.31553 0.95010 0.62034
 H1351 H 0.26240 0.95385 0.66539
 H1352 H 0.24163 0.92863 0.64269
 H1353 H 0.26229 0.87245 0.56417
 H1354 H 0.24456 0.85471 0.53333
 H1355 H 0.18421 0.88470 0.55087
 H1356 H 0.20199 0.90244 0.58179
 C1357 C 0.26321 0.06941 0.38134
 C1358 C 0.25480 0.06138 0.36194
 C1359 C 0.26733 0.04779 0.34888
 C1360 C 0.28839 0.04198 0.35517
 C1361 C 0.29684 0.05059 0.37444
 C1362 C 0.28433 0.06418 0.38740
 C1363 C 0.24991 0.08180 0.39584
 C1364 C 0.23915 0.09151 0.40885
 C1365 C 0.22681 0.10228 0.42534
 C1366 C 0.21304 0.09010 0.43853
 C1367 C 0.20268 0.09988 0.45602
 C1368 C 0.20590 0.12198 0.46043
 C1369 C 0.21935 0.13427 0.44690
 C1370 C 0.22975 0.12445 0.42940
 H1371 H 0.23843 0.06524 0.35714
 H1372 H 0.26035 0.04140 0.33417
 H1373 H 0.31298 0.04649 0.37974
 H1374 H 0.29097 0.07023 0.40243
 H1375 H 0.21080 0.07290 0.43567
 H1376 H 0.19254 0.09013 0.46643
 H1377 H 0.22226 0.15127 0.45029
 H1378 H 0.24054 0.13397 0.41943
 C1379 C 0.73073 0.07589 0.61538
 C1380 C 0.71029 0.06869 0.60896
 C1381 C 0.69878 0.05411 0.62180
 C1382 C 0.70757 0.04649 0.64130
 C1383 C 0.72800 0.05409 0.64784
 C1384 C 0.73952 0.06868 0.63491
 C1385 C 0.74278 0.08997 0.60132
 C1386 C 0.75228 0.10135 0.58867
 C1387 C 0.76284 0.11438 0.57256
 C1388 C 0.75054 0.12826 0.55961
 C1389 C 0.76014 0.13916 0.54235
 C1390 C 0.78218 0.13635 0.53792
 C1391 C 0.79460 0.12283 0.55126
 C1392 C 0.78496 0.11189 0.56854
 H1393 H 0.70334 0.07412 0.59386
 H1394 H 0.68311 0.04863 0.61629
 H1395 H 0.73521 0.04850 0.66274
 H1396 H 0.75537 0.07410 0.64000
 H1397 H 0.73339 0.13015 0.56244
 H1398 H 0.75028 0.14934 0.53207
 H1399 H 0.81154 0.12021 0.54785
 H1400 H 0.79458 0.10101 0.57832
 C1401 C 0.92686 0.61826 0.26572
 C1402 C 0.93433 0.63801 0.25744
 C1403 C 0.94825 0.65100 0.26970
 C1404 C 0.95494 0.64431 0.29035
 C1405 C 0.94691 0.62468 0.29870
 C1406 C 0.93299 0.61177 0.28645
 C1407 C 0.91413 0.60386 0.25257
 C1408 C 0.90417 0.59097 0.24183
 C1409 C 0.89320 0.57462 0.22939
 C1410 C 0.87160 0.56945 0.23368
 C1411 C 0.86178 0.55195 0.22312
 C1412 C 0.87352 0.53954 0.20819
 C1413 C 0.89500 0.54510 0.20361
 C1414 C 0.90477 0.56258 0.21413
 H1415 H 0.92978 0.64313 0.24136
 H1416 H 0.95416 0.66600 0.26281
 H1417 H 0.95170 0.61907 0.31454
 H1418 H 0.92738 0.59647 0.29298
 H1419 H 0.86257 0.57852 0.24562
 H1420 H 0.84529 0.54764 0.22706
 H1421 H 0.90434 0.53552 0.19232
 H1422 H 0.92155 0.56631 0.21083
 C1423 C 0.92902 0.38159 0.73446
 C1424 C 0.93632 0.36168 0.74247
 C1425 C 0.95022 0.34882 0.73010
 C1426 C 0.95706 0.35580 0.70959
 C1427 C 0.94922 0.37562 0.70152
 C1428 C 0.93532 0.38840 0.71388
 C1429 C 0.91620 0.39577 0.74772
 C1430 C 0.90614 0.40844 0.75860
 C1431 C 0.89503 0.42451 0.77124
 C1432 C 0.87332 0.42935 0.76712
 C1433 C 0.86332 0.44659 0.77789
 C1434 C 0.87498 0.45907 0.79287
 C1435 C 0.89658 0.45382 0.79728
 C1436 C 0.90652 0.43659 0.78656
 H1437 H 0.93163 0.35631 0.75843
 H1438 H 0.95598 0.33367 0.73678
 H1439 H 0.95414 0.38146 0.68580
 H1440 H 0.92984 0.40383 0.70756
 H1441 H 0.86433 0.42025 0.75515
 H1442 H 0.84675 0.45068 0.77406
 H1443 H 0.90586 0.46345 0.80859
 H1444 H 0.92337 0.43311 0.78973
 C1445 C 0.07412 0.61683 0.73196
 C1446 C 0.06611 0.63606 0.74093
 C1447 C 0.05155 0.64889 0.72926
 C1448 C 0.04477 0.64252 0.70851
 C1449 C 0.05325 0.62337 0.69954
 C1450 C 0.06779 0.61066 0.71118
 C1451 C 0.08806 0.60273 0.74414
 C1452 C 0.09932 0.58996 0.75364
 C1453 C 0.11224 0.57365 0.76410
 C1454 C 0.11005 0.56974 0.78625
 C1455 C 0.12093 0.55232 0.79581
 C1456 C 0.13409 0.53872 0.78327
 C1457 C 0.13656 0.54301 0.76118
 C1458 C 0.12573 0.56041 0.75166
 H1459 H 0.07085 0.64096 0.75704
 H1460 H 0.04528 0.66351 0.73663
 H1461 H 0.04842 0.61800 0.68361
 H1462 H 0.07385 0.59579 0.70409
 H1463 H 0.09948 0.57974 0.79598
 H1464 H 0.11859 0.54903 0.81281
 H1465 H 0.14647 0.53254 0.75124
 H1466 H 0.12738 0.56315 0.73448
 C1467 C 0.07535 0.38236 0.26837
 C1468 C 0.06943 0.38811 0.28937
 C1469 C 0.05495 0.37525 0.30092
 C1470 C 0.04612 0.35639 0.29164
 C1471 C 0.05253 0.35041 0.27068
 C1472 C 0.06704 0.36339 0.25909
 C1473 C 0.08905 0.39673 0.25622
 C1474 C 0.10005 0.40972 0.24669
 C1475 C 0.11254 0.42626 0.23607
 C1476 C 0.12565 0.44008 0.24835
 C1477 C 0.13601 0.45767 0.23861
 C1478 C 0.13344 0.46156 0.21645
 C1479 C 0.12065 0.44740 0.20409
 C1480 C 0.11026 0.42980 0.21387
 H1481 H 0.07572 0.40278 0.29669
 H1482 H 0.05041 0.38030 0.31703
 H1483 H 0.04599 0.33602 0.26308
 H1484 H 0.07145 0.35883 0.24280
 H1485 H 0.12736 0.43763 0.26557
 H1486 H 0.14563 0.46856 0.24842
 H1487 H 0.11820 0.45038 0.18705
 H1488 H 0.09996 0.41937 0.20426
   
