data_POSCAR
  _audit_creation_date              2014-09-24
  _audit_creation_method            'ToBaCCo'
  _symmetry_space_group_name_H-M    'P1'
  _symmetry_Int_Tables_number       1
  _symmetry_cell_setting            triclinic
  loop_
  _symmetry_equiv_pos_as_xyz
 x,y,z
_cell_length_a 55.5481
_cell_length_b 55.3655
_cell_length_c 54.8990
_cell_angle_alpha 89.900200
_cell_angle_beta 89.986000
_cell_angle_gamma 90.010600
loop_
  _atom_site_label
  _atom_site_type_symbol
  _atom_site_fract_x
  _atom_site_fract_y
  _atom_site_fract_z
O1 O 0.31607 0.34756 0.02261
 O2 O 0.34776 0.31617 -0.02649
 O3 O 0.31416 0.34891 -0.02440
 O4 O 0.34873 0.31395 0.02050
 O5 O 0.32064 0.28564 0.02055
 O6 O 0.28599 0.32069 -0.02476
 O7 O 0.31991 0.28762 -0.02680
 O8 O 0.28767 0.31956 0.02262
 Cu9 Cu 0.33449 0.33447 -0.00194
 Cu10 Cu 0.30068 0.30051 -0.00213
 C11 C 0.29644 0.33915 0.03074
 C12 C 0.33951 0.29648 -0.03472
 C13 C 0.29413 0.34089 -0.03197
 C14 C 0.34068 0.29380 0.02794
 O15 O 0.68572 0.65293 0.02402
 O16 O 0.65140 0.68385 -0.02387
 O17 O 0.68407 0.65047 -0.02292
 O18 O 0.65227 0.68618 0.02313
 O19 O 0.68024 0.71453 0.02103
 O20 O 0.71245 0.67839 -0.02536
 O21 O 0.67951 0.71206 -0.02630
 O22 O 0.71403 0.68094 0.02195
 Cu23 Cu 0.66555 0.66556 0.00043
 Cu24 Cu 0.69944 0.69935 -0.00229
 C25 C 0.70586 0.66138 0.03075
 C26 C 0.65956 0.70319 -0.03312
 C27 C 0.70363 0.65824 -0.03186
 C28 C 0.66052 0.70654 0.02954
 O29 O 0.65201 0.31563 1.02921
 O30 O 0.68665 0.34610 0.98131
 O31 O 0.65313 0.31300 0.98223
 O32 O 0.68495 0.34879 1.02824
 O33 O 0.71315 0.32072 1.03092
 O34 O 0.68099 0.28456 0.98454
 O35 O 0.71485 0.31800 0.98362
 O36 O 0.67992 0.28726 1.03187
 Cu37 Cu 0.66638 0.33369 1.00491
 Cu38 Cu 0.70009 0.29975 1.00791
 C39 C 0.65998 0.29627 1.03854
 C40 C 0.70675 0.33753 0.97467
 C41 C 0.66136 0.29261 0.97588
 C42 C 0.70445 0.34097 1.03727
 O43 O 0.31633 0.65250 0.97160
 O44 O 0.34716 0.68364 1.02142
 O45 O 0.31374 0.65082 1.01858
 O46 O 0.34894 0.68620 0.97447
 O47 O 0.32078 0.71443 0.97418
 O48 O 0.28549 0.67895 1.01870
 O49 O 0.31921 0.71209 1.02150
 O50 O 0.28786 0.68042 0.97135
 Cu51 Cu 0.33435 0.66547 0.99652
 Cu52 Cu 0.30046 0.69934 0.99641
 C53 C 0.29679 0.66089 0.96326
 C54 C 0.33869 0.70322 1.02969
 C55 C 0.29360 0.65875 1.02595
 C56 C 0.34099 0.70640 0.96708
 O57 O 0.02437 0.30513 0.33645
 O58 O -0.02149 0.33939 0.30312
 O59 O -0.02203 0.30532 0.33591
 O60 O 0.02486 0.33902 0.30342
 O61 O 0.02514 0.31153 0.27423
 O62 O -0.02216 0.27749 0.30707
 O63 O -0.02161 0.31195 0.27389
 O64 O 0.02464 0.27725 0.30766
 Cu65 Cu 0.00143 0.32496 0.32262
 Cu66 Cu 0.00153 0.29172 0.28776
 C67 C 0.03198 0.28526 0.32801
 C68 C -0.02901 0.33178 0.28274
 C69 C -0.02977 0.28558 0.32728
 C70 C 0.03261 0.33130 0.28316
 O71 O 0.02038 0.69208 0.66150
 O72 O -0.02473 0.65716 0.69532
 O73 O -0.02607 0.68967 0.66120
 O74 O 0.02157 0.65895 0.69530
 O75 O 0.02037 0.68719 0.72373
 O76 O -0.02763 0.71841 0.68908
 O77 O -0.02631 0.68555 0.72357
 O78 O 0.01926 0.72071 0.68951
 Cu79 Cu -0.00203 0.67165 0.67549
 Cu80 Cu -0.00366 0.70592 0.70930
 C81 C 0.02723 0.71240 0.66954
 C82 C -0.03292 0.66523 0.71526
 C83 C -0.03479 0.70927 0.66915
 C84 C 0.02867 0.66746 0.71546
 O85 O 1.02535 0.64663 0.32179
 O86 O 0.97983 0.68184 0.35488
 O87 O 0.97871 0.64800 0.32190
 O88 O 1.02630 0.67986 0.35516
 O89 O 1.02748 0.70805 0.32659
 O90 O 0.97960 0.67580 0.29294
 O91 O 0.98071 0.70991 0.32619
 O92 O 1.02654 0.67455 0.29296
 Cu93 Cu 1.00240 0.66126 0.34128
 Cu94 Cu 1.00366 0.69490 0.30672
 C95 C 1.03357 0.65455 0.30175
 C96 C 0.97283 0.70196 0.34637
 C97 C 0.97128 0.65627 0.30172
 C98 C 1.03476 0.69941 0.34673
 O99 O 0.97496 0.32327 0.64086
 O100 O 1.02099 0.35632 0.67536
 O101 O 1.02158 0.32355 0.64146
 O102 O 0.97433 0.35586 0.67496
 O103 O 0.97412 0.32726 0.70314
 O104 O 1.02164 0.29476 0.66943
 O105 O 1.02106 0.32775 0.70356
 O106 O 0.97475 0.29445 0.66880
 Cu107 Cu 0.99797 0.34263 0.65536
 Cu108 Cu 0.99788 0.30815 0.68909
 C109 C 0.96721 0.30322 0.64882
 C110 C 1.02871 0.34777 0.69532
 C111 C 1.02948 0.30364 0.64962
 C112 C 0.96635 0.34716 0.69476
 O113 O 0.31054 -0.02623 0.34649
 O114 O 0.34524 0.02051 0.31472
 O115 O 0.31247 0.02033 0.34820
 O116 O 0.34387 -0.02609 0.31280
 O117 O 0.31589 -0.02416 0.28422
 O118 O 0.28415 0.02263 0.31997
 O119 O 0.31722 0.02280 0.28619
 O120 O 0.28220 -0.02430 0.31827
 Cu121 Cu 0.33085 -0.00321 0.33338
 Cu122 Cu 0.29699 -0.00067 0.29926
 C123 C 0.29032 -0.03282 0.33812
 C124 C 0.33720 0.02954 0.29511
 C125 C 0.29302 0.02929 0.34019
 C126 C 0.33555 -0.03265 0.29236
 O127 O 0.65842 0.02792 0.68718
 O128 O 0.69238 -0.02015 0.65685
 O129 O 0.65851 -0.01870 0.68976
 O130 O 0.69244 0.02631 0.65464
 O131 O 0.72010 0.02792 0.68357
 O132 O 0.68588 -0.01748 0.71898
 O133 O 0.72011 -0.01890 0.68571
 O134 O 0.68573 0.02952 0.71644
 Cu135 Cu 0.67267 0.00367 0.66923
 Cu136 Cu 0.70572 0.00538 0.70417
 C137 C 0.66612 0.03669 0.70700
 C138 C 0.71216 -0.02732 0.66577
 C139 C 0.66621 -0.02548 0.71041
 C140 C 0.71212 0.03446 0.66292
 O141 O 0.34968 0.97983 0.68430
 O142 O 0.31393 1.02651 0.65358
 O143 O 0.34836 1.02641 0.68613
 O144 O 0.31566 0.97988 0.65201
 O145 O 0.28832 0.97773 0.68123
 O146 O 0.32132 1.02460 0.71565
 O147 O 0.28655 1.02471 0.68277
 O148 O 0.32261 0.97769 0.71379
 Cu149 Cu 0.33461 1.00347 0.66606
 Cu150 Cu 0.30192 1.00110 0.70134
 C151 C 0.34232 0.97095 0.70425
 C152 C 0.29402 1.03318 0.66264
 C153 C 0.34074 1.03300 0.70684
 C154 C 0.29648 0.97097 0.66074
 O155 O 0.68090 1.02024 0.34980
 O156 O 0.64784 0.97213 0.31843
 O157 O 0.68108 0.97346 0.35168
 O158 O 0.64794 1.01872 0.31606
 O159 O 0.67599 1.01771 0.28748
 O160 O 0.70932 0.97212 0.32332
 O161 O 0.67581 0.97081 0.28978
 O162 O 0.70922 1.01923 0.32151
 Cu163 Cu 0.66165 0.99629 0.33686
 Cu164 Cu 0.69548 0.99488 0.30266
 C165 C 0.70071 1.02773 0.34118
 C166 C 0.65602 0.96351 0.29873
 C167 C 0.70081 0.96521 0.34363
 C168 C 0.65612 1.02563 0.29564
 C169 C 0.87443 0.78176 0.50445
 C170 C 0.86788 0.79259 0.48249
 C171 C 0.85051 0.81095 0.48221
 C172 C 0.83861 0.81793 0.50395
 C173 C 0.84512 0.80605 0.52585
 C174 C 0.86336 0.78865 0.52611
 C175 C 0.81992 0.83761 0.50395
 C176 C 0.81410 0.85015 0.52566
 C177 C 0.79631 0.86803 0.52579
 C178 C 0.78495 0.87461 0.50416
 C179 C 0.79083 0.86310 0.48240
 C180 C 0.80773 0.84431 0.48229
 H181 H 0.88842 0.76807 0.50471
 H182 H 0.84679 0.81977 0.46505
 H183 H 0.83630 0.81010 0.54290
 H184 H 0.82334 0.84649 0.54257
 H185 H 0.77157 0.88889 0.50423
 H186 H 0.81107 0.83515 0.46527
 C187 C 0.12432 0.21674 0.49479
 C188 C 0.13149 0.20446 0.47389
 C189 C 0.14914 0.18649 0.47540
 C190 C 0.16085 0.18140 0.49778
 C191 C 0.15357 0.19454 0.51865
 C192 C 0.13501 0.21160 0.51717
 C193 C 0.18027 0.16248 0.49932
 C194 C 0.18650 0.15153 0.52184
 C195 C 0.20468 0.13402 0.52302
 C196 C 0.21606 0.12634 0.50177
 C197 C 0.20990 0.13643 0.47937
 C198 C 0.19268 0.15482 0.47816
 H199 H 0.11018 0.23023 0.49367
 H200 H 0.15327 0.17654 0.45902
 H201 H 0.16208 0.19181 0.53613
 H202 H 0.17726 0.15612 0.53852
 H203 H 0.22963 0.11226 0.50264
 H204 H 0.18922 0.16287 0.46057
 C205 C 0.12453 0.78312 0.50638
 C206 C 0.13105 0.79524 0.52761
 C207 C 0.14859 0.81340 0.52678
 C208 C 0.16072 0.81889 0.50473
 C209 C 0.15419 0.80583 0.48358
 C210 C 0.13578 0.78859 0.48436
 C211 C 0.17976 0.83820 0.50372
 C212 C 0.18586 0.84960 0.48142
 C213 C 0.20384 0.86730 0.48051
 C214 C 0.21515 0.87476 0.50187
 C215 C 0.20904 0.86429 0.52413
 C216 C 0.19195 0.84572 0.52506
 H217 H 0.11047 0.76952 0.50695
 H218 H 0.15228 0.82322 0.54335
 H219 H 0.16315 0.80882 0.46637
 H220 H 0.17667 0.84520 0.46466
 H221 H 0.22864 0.88892 0.50119
 H222 H 0.18844 0.83737 0.54251
 C223 C 0.87477 0.21663 0.49001
 C224 C 0.86394 0.21123 0.51226
 C225 C 0.84550 0.19403 0.51342
 C226 C 0.83850 0.18096 0.49239
 C227 C 0.85025 0.18639 0.47012
 C228 C 0.86781 0.20449 0.46894
 C229 C 0.81943 0.16168 0.49372
 C230 C 0.80699 0.15402 0.47255
 C231 C 0.78997 0.13540 0.47377
 C232 C 0.78414 0.12505 0.49617
 C233 C 0.79566 0.13267 0.51735
 C234 C 0.81359 0.15040 0.51615
 H235 H 0.88884 0.23020 0.48912
 H236 H 0.83686 0.19109 0.53081
 H237 H 0.84625 0.17656 0.45363
 H238 H 0.81027 0.16227 0.45502
 H239 H 0.77069 0.11085 0.49710
 H240 H 0.82294 0.15491 0.53278
 C241 C 0.50413 0.87835 0.78285
 C242 C 0.48240 0.86705 0.78847
 C243 C 0.48188 0.84793 0.80516
 C244 C 0.50304 0.84064 0.81752
 C245 C 0.52481 0.85284 0.81192
 C246 C 0.52535 0.87113 0.79427
 C247 C 0.50236 0.82070 0.83619
 C248 C 0.52357 0.80808 0.84277
 C249 C 0.52304 0.79021 0.86081
 C250 C 0.50129 0.78371 0.87162
 C251 C 0.48004 0.79540 0.86508
 C252 C 0.48056 0.81416 0.84794
 H253 H 0.50450 0.89295 0.76964
 H254 H 0.46486 0.83898 0.80825
 H255 H 0.54141 0.84859 0.82124
 H256 H 0.54064 0.81190 0.83413
 H257 H 0.50094 0.76966 0.88543
 H258 H 0.46394 0.82361 0.84427
 C259 C 0.49766 0.12386 0.21854
 C260 C 0.47621 0.13532 0.21226
 C261 C 0.47632 0.15441 0.19553
 C262 C 0.49791 0.16150 0.18381
 C263 C 0.51940 0.14913 0.19005
 C264 C 0.51926 0.13087 0.20773
 C265 C 0.49798 0.18137 0.16510
 C266 C 0.51945 0.19388 0.15928
 C267 C 0.51966 0.21164 0.14112
 C268 C 0.49836 0.21814 0.12944
 C269 C 0.47684 0.20654 0.13525
 C270 C 0.47666 0.18789 0.15252
 H271 H 0.49752 0.10927 0.23177
 H272 H 0.45948 0.16349 0.19190
 H273 H 0.53629 0.15321 0.18120
 H274 H 0.53617 0.19005 0.16857
 H275 H 0.49858 0.23208 0.11552
 H276 H 0.45988 0.17849 0.15561
 C277 C 0.50279 0.12743 0.78322
 C278 C 0.52430 0.13849 0.79008
 C279 C 0.52420 0.15678 0.80765
 C280 C 0.50261 0.16341 0.81963
 C281 C 0.48110 0.15142 0.81277
 C282 C 0.48119 0.13402 0.79428
 C283 C 0.50255 0.18240 0.83922
 C284 C 0.48106 0.19457 0.84567
 C285 C 0.48085 0.21153 0.86455
 C286 C 0.50220 0.21762 0.87637
 C287 C 0.52375 0.20641 0.86995
 C288 C 0.52391 0.18851 0.85195
 H289 H 0.50291 0.11347 0.76937
 H290 H 0.54107 0.16559 0.81172
 H291 H 0.46420 0.15512 0.82176
 H292 H 0.46433 0.19113 0.83627
 H293 H 0.50201 0.23102 0.89078
 H294 H 0.54073 0.17939 0.84834
 C295 C 0.49612 0.87156 0.21731
 C296 C 0.51783 0.86054 0.21115
 C297 C 0.51832 0.84227 0.19358
 C298 C 0.49714 0.83563 0.18089
 C299 C 0.47541 0.84758 0.18705
 C300 C 0.47489 0.86497 0.20554
 C301 C 0.49777 0.81666 0.16128
 C302 C 0.47653 0.80447 0.15409
 C303 C 0.47699 0.78753 0.13522
 C304 C 0.49874 0.78147 0.12413
 C305 C 0.52004 0.79271 0.13129
 C306 C 0.51956 0.81061 0.14929
 H307 H 0.49578 0.88552 0.23116
 H308 H 0.53533 0.83348 0.19007
 H309 H 0.45881 0.84387 0.17751
 H310 H 0.45948 0.80789 0.16291
 H311 H 0.49906 0.76808 0.10972
 H312 H 0.53623 0.81976 0.15347
 C313 C 0.78081 0.49661 0.87586
 C314 C 0.79218 0.47534 0.86867
 C315 C 0.81016 0.47599 0.85079
 C316 C 0.81623 0.49796 0.83902
 C317 C 0.80388 0.51917 0.84618
 C318 C 0.78683 0.51853 0.86493
 C319 C 0.83550 0.49888 0.81980
 C320 C 0.84760 0.52078 0.81443
 C321 C 0.86523 0.52174 0.79626
 C322 C 0.87194 0.50077 0.78403
 C323 C 0.86083 0.47884 0.78945
 C324 C 0.84231 0.47791 0.80676
 H325 H 0.76739 0.49615 0.89023
 H326 H 0.81942 0.45936 0.84656
 H327 H 0.80731 0.53635 0.83747
 H328 H 0.84379 0.53718 0.82434
 H329 H 0.88606 0.50148 0.77038
 H330 H 0.83346 0.46078 0.80978
 C331 C 0.21831 0.50026 0.12386
 C332 C 0.21207 0.47855 0.13505
 C333 C 0.19478 0.47826 0.15357
 C334 C 0.18239 0.49961 0.16023
 C335 C 0.18874 0.52140 0.14824
 C336 C 0.20696 0.52170 0.13057
 C337 C 0.16281 0.49898 0.17917
 C338 C 0.15573 0.52013 0.19179
 C339 C 0.13705 0.51937 0.20894
 C340 C 0.12601 0.49746 0.21462
 C341 C 0.13295 0.47633 0.20279
 C342 C 0.15073 0.47712 0.18477
 H343 H 0.23192 0.50044 0.10967
 H344 H 0.19121 0.46122 0.16250
 H345 H 0.17951 0.53814 0.15211
 H346 H 0.16454 0.53724 0.18857
 H347 H 0.11180 0.49686 0.22819
 H348 H 0.15469 0.46058 0.17516
 C349 C 0.78299 0.50259 0.12814
 C350 C 0.79454 0.52393 0.13480
 C351 C 0.81333 0.52339 0.15181
 C352 C 0.82007 0.50145 0.16329
 C353 C 0.80753 0.48016 0.15668
 C354 C 0.78964 0.48071 0.13875
 C355 C 0.84021 0.50065 0.18162
 C356 C 0.85245 0.47876 0.18672
 C357 C 0.87081 0.47791 0.20415
 C358 C 0.87813 0.49899 0.21583
 C359 C 0.86686 0.52091 0.21065
 C360 C 0.84764 0.52172 0.19416
 H361 H 0.76894 0.50296 0.11441
 H362 H 0.82268 0.54008 0.15557
 H363 H 0.81143 0.46299 0.16519
 H364 H 0.84816 0.46226 0.17719
 H365 H 0.89275 0.49836 0.22893
 H366 H 0.83870 0.53883 0.19140
 C367 C 0.21883 0.49955 0.87045
 C368 C 0.21221 0.52129 0.85954
 C369 C 0.19420 0.52164 0.84175
 C370 C 0.18148 0.50032 0.83561
 C371 C 0.18823 0.47852 0.84731
 C372 C 0.20714 0.47816 0.86420
 C373 C 0.16110 0.50103 0.81759
 C374 C 0.15352 0.47994 0.80517
 C375 C 0.13413 0.48078 0.78886
 C376 C 0.12283 0.50271 0.78383
 C377 C 0.13025 0.52377 0.79547
 C378 C 0.14878 0.52290 0.81269
 H379 H 0.23294 0.49934 0.88412
 H380 H 0.19028 0.53869 0.83301
 H381 H 0.17876 0.46182 0.84384
 H382 H 0.16251 0.46284 0.80786
 H383 H 0.10810 0.50338 0.77085
 H384 H 0.15317 0.53939 0.82220
 C385 C 0.26210 0.38505 0.07754
 C386 C 0.26782 0.38344 0.10488
 C387 C 0.25743 0.40138 0.11833
 C388 C 0.24241 0.41909 0.10305
 C389 C 0.22415 0.40325 0.08942
 C390 C 0.23451 0.38535 0.07600
 C391 C 0.26995 0.41054 0.06995
 C392 C 0.25963 0.42838 0.08331
 C393 C 0.27354 0.36653 0.06238
 C394 C 0.28362 0.35301 0.04856
 C395 C 0.23139 0.43899 0.11667
 C396 C 0.22252 0.45651 0.12607
 H397 H 0.27894 0.36943 0.11295
 H398 H 0.25966 0.40276 0.13792
 H399 H 0.20479 0.40580 0.09033
 H400 H 0.22404 0.37256 0.06541
 H401 H 0.28259 0.41428 0.05532
 H402 H 0.26344 0.44736 0.08013
 C403 C 0.74441 0.61627 0.07521
 C404 C 0.73854 0.61668 0.10254
 C405 C 0.75018 0.59921 0.11556
 C406 C 0.76653 0.58307 0.09995
 C407 C 0.78363 0.60057 0.08681
 C408 C 0.77198 0.61806 0.07378
 C409 C 0.73850 0.59050 0.06695
 C410 C 0.75008 0.57311 0.07990
 C411 C 0.73144 0.63434 0.06069
 C412 C 0.72004 0.64760 0.04761
 C413 C 0.77841 0.56357 0.11350
 C414 C 0.78667 0.54615 0.12372
 H415 H 0.72641 0.62959 0.11093
 H416 H 0.74802 0.59716 0.13511
 H417 H 0.80311 0.59939 0.08773
 H418 H 0.78150 0.63186 0.06353
 H419 H 0.72625 0.58625 0.05215
 H420 H 0.74773 0.55399 0.07618
 C421 C 0.74464 0.38251 0.92957
 C422 C 0.73771 0.38238 0.90250
 C423 C 0.74886 0.39996 0.88921
 C424 C 0.76583 0.41592 0.90431
 C425 C 0.78341 0.39827 0.91657
 C426 C 0.77224 0.38066 0.92988
 C427 C 0.73910 0.40820 0.93833
 C428 C 0.75020 0.42570 0.92510
 C429 C 0.73212 0.36435 0.94438
 C430 C 0.72091 0.35113 0.95765
 C431 C 0.77716 0.43554 0.89046
 C432 C 0.78491 0.45306 0.88002
 H433 H 0.72525 0.36955 0.89447
 H434 H 0.74595 0.40220 0.86978
 H435 H 0.80284 0.39944 0.91488
 H436 H 0.78212 0.36674 0.93959
 H437 H 0.72746 0.41231 0.95366
 H438 H 0.74805 0.44478 0.92912
 C439 C 0.26273 0.61493 0.91634
 C440 C 0.26942 0.58943 0.92495
 C441 C 0.25907 0.57156 0.91168
 C442 C 0.24296 0.58081 0.89100
 C443 C 0.25916 0.59759 0.87586
 C444 C 0.26959 0.61557 0.88922
 C445 C 0.23511 0.61556 0.91674
 C446 C 0.22471 0.59761 0.90341
 C447 C 0.27417 0.63349 0.93144
 C448 C 0.28417 0.64704 0.94530
 C449 C 0.23187 0.56087 0.87750
 C450 C 0.22287 0.54332 0.86827
 H451 H 0.28134 0.58572 0.94019
 H452 H 0.26212 0.55256 0.91555
 H453 H 0.26212 0.59557 0.85643
 H454 H 0.28148 0.62898 0.88123
 H455 H 0.22466 0.62897 0.92652
 H456 H 0.20533 0.59565 0.90177
 C457 C 0.07447 0.24859 0.37640
 C458 C 0.10187 0.24843 0.37262
 C459 C 0.11422 0.23794 0.39136
 C460 C 0.09792 0.22866 0.41198
 C461 C 0.07998 0.21156 0.39955
 C462 C 0.06763 0.22205 0.38082
 C463 C 0.07064 0.26105 0.40102
 C464 C 0.08292 0.25061 0.41966
 C465 C 0.06067 0.26046 0.35698
 C466 C 0.04818 0.27131 0.34272
 C467 C 0.11080 0.21808 0.43275
 C468 C 0.12062 0.21096 0.45099
 H469 H 0.11076 0.25581 0.35665
 H470 H 0.13369 0.23632 0.39144
 H471 H 0.07728 0.19287 0.40490
 H472 H 0.05436 0.21234 0.37013
 H473 H 0.05924 0.27677 0.40361
 H474 H 0.08202 0.25740 0.43818
 C475 C 0.07068 0.74961 0.62229
 C476 C 0.09778 0.74435 0.62370
 C477 C 0.11079 0.75514 0.60563
 C478 C 0.09541 0.77013 0.58794
 C479 C 0.08171 0.78810 0.60409
 C480 C 0.06868 0.77729 0.62219
 C481 C 0.06320 0.74185 0.59657
 C482 C 0.07615 0.75259 0.57858
 C483 C 0.05625 0.73744 0.64105
 C484 C 0.04348 0.72644 0.65494
 C485 C 0.10905 0.78105 0.56785
 C486 C 0.11950 0.78844 0.55008
 H487 H 0.10602 0.73322 0.63770
 H488 H 0.13019 0.75327 0.60415
 H489 H 0.08225 0.80755 0.60160
 H490 H 0.05806 0.78749 0.63520
 H491 H 0.04891 0.72900 0.59280
 H492 H 0.07294 0.74894 0.55943
 C493 C 0.92891 0.74101 0.39161
 C494 C 0.93234 0.73120 0.41752
 C495 C 0.91918 0.74305 0.43459
 C496 C 0.90378 0.76364 0.42420
 C497 C 0.88842 0.75183 0.40424
 C498 C 0.90165 0.73992 0.38708
 C499 C 0.93483 0.76806 0.39339
 C500 C 0.92161 0.77996 0.41054
 C501 C 0.94356 0.72779 0.37380
 C502 C 0.95646 0.71625 0.36053
 C503 C 0.88994 0.77583 0.44335
 C504 C 0.87940 0.78438 0.46050
 H505 H 0.94411 0.71620 0.42207
 H506 H 0.91969 0.73818 0.45375
 H507 H 0.86891 0.75281 0.40358
 H508 H 0.89348 0.73069 0.37173
 H509 H 0.94816 0.77707 0.38212
 H510 H 0.92360 0.79917 0.41396
 C511 C 0.92188 0.26672 0.60286
 C512 C 0.89463 0.27063 0.60578
 C513 C 0.88119 0.25911 0.58850
 C514 C 0.89636 0.24485 0.57007
 C515 C 0.91181 0.22770 0.58555
 C516 C 0.92523 0.23920 0.60279
 C517 C 0.92755 0.27476 0.57673
 C518 C 0.91417 0.26329 0.55955
 C519 C 0.93689 0.27928 0.62082
 C520 C 0.95027 0.29000 0.63431
 C521 C 0.88265 0.23257 0.55089
 C522 C 0.87310 0.22271 0.53387
 H523 H 0.88663 0.28143 0.62014
 H524 H 0.86167 0.26002 0.58806
 H525 H 0.91211 0.20823 0.58325
 H526 H 0.93702 0.22959 0.61524
 H527 H 0.94091 0.28833 0.57211
 H528 H 0.91609 0.26707 0.54022
 C529 C 0.38351 0.07631 0.26138
 C530 C 0.38145 0.07839 0.23357
 C531 C 0.39910 0.09217 0.22328
 C532 C 0.41703 0.10249 0.24185
 C533 C 0.42657 0.08045 0.25578
 C534 C 0.40900 0.06673 0.26602
 C535 C 0.38387 0.10248 0.27065
 C536 C 0.40154 0.11628 0.26035
 C537 C 0.36522 0.06087 0.27270
 C538 C 0.35162 0.04705 0.28261
 C539 C 0.43666 0.11649 0.23095
 C540 C 0.45410 0.12616 0.22228
 H541 H 0.36734 0.06989 0.22293
 H542 H 0.40011 0.09549 0.20382
 H543 H 0.44554 0.07600 0.25749
 H544 H 0.41293 0.05054 0.27648
 H545 H 0.37133 0.10955 0.28402
 H546 H 0.40415 0.13517 0.26488
 C547 C 0.61868 0.08240 0.74050
 C548 C 0.61899 0.10924 0.73332
 C549 C 0.60083 0.12234 0.74364
 C550 C 0.58422 0.10726 0.76008
 C551 C 0.60102 0.09530 0.77876
 C552 C 0.61915 0.08222 0.76846
 C553 C 0.59343 0.07349 0.73366
 C554 C 0.57537 0.08652 0.74393
 C555 C 0.63751 0.06763 0.72918
 C556 C 0.65147 0.05413 0.71934
 C557 C 0.56412 0.12054 0.77104
 C558 C 0.54647 0.12971 0.77982
 H559 H 0.63231 0.11723 0.72129
 H560 H 0.59858 0.14156 0.74045
 H561 H 0.59893 0.09704 0.79834
 H562 H 0.63258 0.07276 0.77920
 H563 H 0.59001 0.05824 0.72174
 H564 H 0.55651 0.08242 0.74077
 C565 C 0.38974 0.92512 0.73781
 C566 C 0.39564 0.90189 0.72376
 C567 C 0.41346 0.88845 0.73422
 C568 C 0.42358 0.89960 0.75766
 C569 C 0.40163 0.90331 0.77427
 C570 C 0.38381 0.91675 0.76381
 C571 C 0.41381 0.93852 0.73999
 C572 C 0.43155 0.92515 0.75040
 C573 C 0.37120 0.94018 0.72638
 C574 C 0.35726 0.95371 0.71652
 C575 C 0.44330 0.88590 0.76881
 C576 C 0.46062 0.87634 0.77783
 H577 H 0.38657 0.89644 0.70714
 H578 H 0.41966 0.87149 0.72657
 H579 H 0.40019 0.89596 0.79255
 H580 H 0.36709 0.92093 0.77313
 H581 H 0.41668 0.95697 0.73389
 H582 H 0.44960 0.93214 0.75319
 C583 C 0.60998 0.91742 0.26381
 C584 C 0.60980 0.89078 0.27170
 C585 C 0.59215 0.87747 0.26078
 C586 C 0.57649 0.89216 0.24310
 C587 C 0.59429 0.90358 0.22503
 C588 C 0.61191 0.91687 0.23593
 C589 C 0.58445 0.92659 0.26907
 C590 C 0.56690 0.91335 0.25822
 C591 C 0.62826 0.93240 0.27573
 C592 C 0.64180 0.94602 0.28600
 C593 C 0.55692 0.87867 0.23148
 C594 C 0.53963 0.86937 0.22212
 H595 H 0.62244 0.88306 0.28463
 H596 H 0.58965 0.85834 0.26435
 H597 H 0.59321 0.90133 0.20541
 H598 H 0.62593 0.92602 0.22566
 H599 H 0.58048 0.94215 0.28039
 H600 H 0.54792 0.91758 0.26026
 C601 C 0.38622 0.26190 0.91957
 C602 C 0.40747 0.25369 0.93538
 C603 C 0.42558 0.24326 0.92253
 C604 C 0.42079 0.24199 0.89505
 C605 C 0.41554 0.26813 0.88735
 C606 C 0.39735 0.27860 0.90025
 C607 C 0.37838 0.23921 0.90558
 C608 C 0.39661 0.22872 0.89266
 C609 C 0.36739 0.27346 0.93420
 C610 C 0.35362 0.28363 0.94770
 C611 C 0.44097 0.23088 0.88199
 C612 C 0.45867 0.22197 0.87304
 H613 H 0.40821 0.25584 0.95502
 H614 H 0.44182 0.23650 0.93119
 H615 H 0.42517 0.27754 0.87298
 H616 H 0.39140 0.29698 0.89691
 H617 H 0.36018 0.23209 0.90576
 H618 H 0.39402 0.21259 0.88175
 C619 C 0.61396 0.73760 0.91966
 C620 C 0.62200 0.76187 0.90877
 C621 C 0.60471 0.77280 0.89494
 C622 C 0.58115 0.75834 0.89342
 C623 C 0.57361 0.75415 0.91998
 C624 C 0.59081 0.74328 0.93373
 C625 C 0.60580 0.72242 0.89778
 C626 C 0.58853 0.73334 0.88397
 C627 C 0.63188 0.72571 0.93516
 C628 C 0.64526 0.71559 0.94912
 C629 C 0.56193 0.76998 0.87941
 C630 C 0.54480 0.77933 0.86981
 H631 H 0.63969 0.76971 0.91159
 H632 H 0.60757 0.79002 0.88590
 H633 H 0.55622 0.75930 0.92737
 H634 H 0.58814 0.73914 0.95288
 H635 H 0.61302 0.70471 0.89346
 H636 H 0.58094 0.72500 0.86781
 C637 C 0.38418 0.73743 0.07691
 C638 C 0.37740 0.76240 0.08695
 C639 C 0.39521 0.77280 0.10049
 C640 C 0.41798 0.75717 0.10262
 C641 C 0.42538 0.75181 0.07627
 C642 C 0.40767 0.74147 0.06280
 C643 C 0.39145 0.72250 0.09933
 C644 C 0.40925 0.73289 0.11286
 C645 C 0.36579 0.72598 0.06164
 C646 C 0.35239 0.71592 0.04769
 C647 C 0.43773 0.76821 0.11638
 C648 C 0.45513 0.77708 0.12594
 H649 H 0.36016 0.77108 0.08377
 H650 H 0.39324 0.79041 0.10894
 H651 H 0.44304 0.75581 0.06880
 H652 H 0.41018 0.73664 0.04380
 H653 H 0.38328 0.70534 0.10421
 H654 H 0.41632 0.72464 0.12932
 C655 C 0.61314 0.26260 0.08497
 C656 C 0.61267 0.27076 0.11171
 C657 C 0.59478 0.26020 0.12507
 C658 C 0.57922 0.24257 0.11032
 C659 C 0.59704 0.22441 0.09933
 C660 C 0.61490 0.23495 0.08599
 C661 C 0.58777 0.26785 0.07530
 C662 C 0.56999 0.25735 0.08859
 C663 C 0.63166 0.27412 0.06991
 C664 C 0.64541 0.28401 0.05618
 C665 C 0.55938 0.23134 0.12377
 C666 C 0.54181 0.22226 0.13283
 H667 H 0.62529 0.28360 0.11945
 H668 H 0.59205 0.26397 0.14427
 H669 H 0.59582 0.20500 0.10190
 H670 H 0.62897 0.22459 0.07712
 H671 H 0.58408 0.27891 0.05938
 H672 H 0.55108 0.25944 0.08404
 C673 C 0.25455 0.07652 0.61722
 C674 C 0.22716 0.07782 0.62100
 C675 C 0.21543 0.09049 0.60322
 C676 C 0.23229 0.10057 0.58348
 C677 C 0.24614 0.07857 0.57395
 C678 C 0.25779 0.06598 0.59162
 C679 C 0.26278 0.10290 0.61509
 C680 C 0.25108 0.11556 0.59734
 C681 C 0.26767 0.06237 0.63555
 C682 C 0.27935 0.04962 0.64891
 C683 C 0.22038 0.11373 0.56362
 C684 C 0.21224 0.12354 0.54580
 H685 H 0.21784 0.06960 0.63629
 H686 H 0.19607 0.09314 0.60328
 H687 H 0.24672 0.07330 0.55491
 H688 H 0.26834 0.04993 0.58768
 H689 H 0.27650 0.11097 0.62657
 H690 H 0.25477 0.13446 0.59363
 C691 C 0.73631 0.07429 0.38425
 C692 C 0.76383 0.07456 0.38172
 C693 C 0.77507 0.08865 0.39862
 C694 C 0.75766 0.10108 0.41636
 C695 C 0.74275 0.08050 0.42745
 C696 C 0.73156 0.06646 0.41063
 C697 C 0.72873 0.10096 0.38320
 C698 C 0.73998 0.11508 0.40011
 C699 C 0.72397 0.05852 0.36679
 C700 C 0.71329 0.04447 0.35397
 C701 C 0.76959 0.11550 0.43524
 C702 C 0.77906 0.12560 0.45215
 H703 H 0.77362 0.06464 0.36785
 H704 H 0.79448 0.09082 0.39920
 H705 H 0.74109 0.07723 0.44689
 H706 H 0.72034 0.05119 0.41569
 H707 H 0.71577 0.10813 0.37028
 H708 H 0.73666 0.13433 0.40169
 C709 C 0.74953 0.92826 0.61988
 C710 C 0.74402 0.90111 0.62097
 C711 C 0.75495 0.88816 0.60297
 C712 C 0.77030 0.90365 0.58568
 C713 C 0.78808 0.91707 0.60227
 C714 C 0.77714 0.93003 0.62029
 C715 C 0.74227 0.93610 0.59410
 C716 C 0.75315 0.92321 0.57618
 C717 C 0.73725 0.94272 0.63848
 C718 C 0.72619 0.95578 0.65201
 C719 C 0.78140 0.89010 0.56568
 C720 C 0.78905 0.87969 0.54803
 H721 H 0.73264 0.89279 0.63470
 H722 H 0.75293 0.86873 0.60128
 H723 H 0.80749 0.91638 0.60012
 H724 H 0.78718 0.94046 0.63358
 H725 H 0.72965 0.95059 0.59022
 H726 H 0.74984 0.92667 0.55699
 C727 C 0.25208 0.92434 0.38502
 C728 C 0.25359 0.89680 0.38213
 C729 C 0.24231 0.88436 0.40036
 C730 C 0.23067 0.90073 0.41962
 C731 C 0.21379 0.91748 0.40527
 C732 C 0.22506 0.92991 0.38706
 C733 C 0.26231 0.92947 0.41044
 C734 C 0.25109 0.91710 0.42856
 C735 C 0.26472 0.93825 0.36617
 C736 C 0.27603 0.95085 0.35237
 C737 C 0.21921 0.88779 0.43988
 C738 C 0.21131 0.87800 0.45782
 H739 H 0.26262 0.88787 0.36710
 H740 H 0.24168 0.86477 0.40093
 H741 H 0.19469 0.91934 0.40902
 H742 H 0.21561 0.94243 0.37519
 H743 H 0.27713 0.94179 0.41392
 H744 H 0.25631 0.91884 0.44754
 C745 C 0.07475 0.39197 0.73293
 C746 C 0.10148 0.39116 0.72578
 C747 C 0.11525 0.40792 0.73754
 C748 C 0.10089 0.42379 0.75527
 C749 C 0.08825 0.40598 0.77252
 C750 C 0.07450 0.38924 0.76077
 C751 C 0.06692 0.41811 0.72816
 C752 C 0.08061 0.43478 0.73986
 C753 C 0.05940 0.37459 0.72007
 C754 C 0.04581 0.36163 0.70902
 C755 C 0.11495 0.44250 0.76774
 C756 C 0.12476 0.45928 0.77760
 H757 H 0.10894 0.37851 0.71271
 H758 H 0.13450 0.40964 0.73456
 H759 H 0.09002 0.40642 0.79221
 H760 H 0.06449 0.37534 0.77039
 H761 H 0.05189 0.42311 0.71654
 H762 H 0.07730 0.45405 0.73825
 C763 C 0.07899 0.60901 0.26495
 C764 C 0.09107 0.59082 0.28218
 C765 C 0.10454 0.57388 0.27047
 C766 C 0.10465 0.57677 0.24266
 C767 C 0.11320 0.60277 0.23807
 C768 C 0.09967 0.61977 0.24982
 C769 C 0.06455 0.59356 0.24698
 C770 C 0.07801 0.57665 0.23529
 C771 C 0.06390 0.62668 0.27773
 C772 C 0.05049 0.64002 0.28855
 C773 C 0.11844 0.55786 0.23019
 C774 C 0.12799 0.54097 0.22028
 H775 H 0.08926 0.59125 0.30186
 H776 H 0.11429 0.55983 0.28013
 H777 H 0.12849 0.60741 0.22666
 H778 H 0.10337 0.63898 0.24848
 H779 H 0.04540 0.59575 0.24366
 H780 H 0.07037 0.56438 0.22196
 C781 C 0.92855 0.38089 0.24720
 C782 C 0.93638 0.40574 0.25667
 C783 C 0.92408 0.42445 0.24659
 C784 C 0.90506 0.41661 0.22796
 C785 C 0.88895 0.39859 0.24168
 C786 C 0.90132 0.37980 0.25181
 C787 C 0.93122 0.38253 0.21939
 C788 C 0.91885 0.40134 0.20926
 C789 C 0.94235 0.36134 0.25867
 C790 C 0.95482 0.34686 0.26917
 C791 C 0.89211 0.43737 0.21772
 C792 C 0.88210 0.45542 0.21073
 H793 H 0.95043 0.40842 0.27015
 H794 H 0.92760 0.44313 0.25144
 H795 H 0.86955 0.40039 0.24322
 H796 H 0.89251 0.36549 0.26201
 H797 H 0.94181 0.36999 0.20862
 H798 H 0.91883 0.40492 0.18981
 C799 C 0.92415 0.61711 0.75157
 C800 C 0.93257 0.59187 0.74384
 C801 C 0.91993 0.57362 0.75435
 C802 C 0.90004 0.58228 0.77163
 C803 C 0.88445 0.59939 0.75623
 C804 C 0.89714 0.61772 0.74567
 C805 C 0.92556 0.61700 0.77952
 C806 C 0.91285 0.59865 0.79009
 C807 C 0.93826 0.63615 0.73968
 C808 C 0.95088 0.65030 0.72893
 C809 C 0.88676 0.56198 0.78230
 C810 C 0.87657 0.54414 0.78954
 H811 H 0.94724 0.58861 0.73119
 H812 H 0.92379 0.55474 0.75070
 H813 H 0.86515 0.59734 0.75391
 H814 H 0.88873 0.63138 0.73430
 H815 H 0.93556 0.63019 0.79005
 H816 H 0.91197 0.59611 0.80968
 C817 C 0.73687 0.61158 0.92335
 C818 C 0.73213 0.58613 0.93333
 C819 C 0.74241 0.56831 0.91991
 C820 C 0.75648 0.57758 0.89774
 C821 C 0.77470 0.59571 0.90814
 C822 C 0.76438 0.61360 0.92162
 C823 C 0.72806 0.61087 0.89683
 C824 C 0.73839 0.59295 0.88334
 C825 C 0.72550 0.63020 0.93844
 C826 C 0.71553 0.64411 0.95197
 C827 C 0.76747 0.55776 0.88398
 C828 C 0.77634 0.54037 0.87433
 H829 H 0.72158 0.58241 0.94957
 H830 H 0.74065 0.54933 0.92465
 H831 H 0.79398 0.59463 0.90511
 H832 H 0.77480 0.62786 0.93014
 H833 H 0.71494 0.62336 0.88931
 H834 H 0.73414 0.59008 0.86427
 C835 C 0.25682 0.38641 0.92511
 C836 C 0.26148 0.38471 0.89759
 C837 C 0.24995 0.40210 0.88438
 C838 C 0.23490 0.41945 0.90000
 C839 C 0.25256 0.42954 0.91890
 C840 C 0.26405 0.41222 0.93205
 C841 C 0.22929 0.38575 0.92779
 C842 C 0.21775 0.40315 0.91456
 C843 C 0.26966 0.36833 0.93974
 C844 C 0.28093 0.35478 0.95264
 C845 C 0.22312 0.43882 0.88618
 C846 C 0.21493 0.45610 0.87567
 H847 H 0.27275 0.37102 0.88923
 H848 H 0.25133 0.40331 0.86469
 H849 H 0.25577 0.44868 0.92173
 H850 H 0.27708 0.41655 0.94613
 H851 H 0.21972 0.37274 0.93899
 H852 H 0.19830 0.40505 0.91444
 C853 C 0.25617 0.61323 0.06886
 C854 C 0.25785 0.61723 0.09649
 C855 C 0.24635 0.59990 0.10985
 C856 C 0.23434 0.58031 0.09425
 C857 C 0.25456 0.57043 0.07804
 C858 C 0.26599 0.58768 0.06474
 C859 C 0.22910 0.61139 0.06345
 C860 C 0.21760 0.59406 0.07682
 C861 C 0.26899 0.63126 0.05411
 C862 C 0.28029 0.64480 0.04122
 C863 C 0.22262 0.56100 0.10825
 C864 C 0.21454 0.54375 0.11892
 H865 H 0.26714 0.63237 0.10480
 H866 H 0.24580 0.60019 0.12961
 H867 H 0.25947 0.55147 0.07707
 H868 H 0.28069 0.58348 0.05241
 H869 H 0.21977 0.62274 0.05036
 H870 H 0.19844 0.59057 0.07518
 C871 C 0.73826 0.38765 0.08161
 C872 C 0.73373 0.41309 0.07152
 C873 C 0.74432 0.43088 0.08473
 C874 C 0.75848 0.42160 0.10682
 C875 C 0.77641 0.40321 0.09637
 C876 C 0.76577 0.38535 0.08310
 C877 C 0.72969 0.38862 0.10821
 C878 C 0.74034 0.40651 0.12149
 C879 C 0.72659 0.36905 0.06673
 C880 C 0.71644 0.35514 0.05334
 C881 C 0.76981 0.44140 0.12034
 C882 C 0.77893 0.45881 0.12973
 H883 H 0.72308 0.41682 0.05536
 H884 H 0.74273 0.44984 0.07988
 H885 H 0.79573 0.40409 0.09922
 H886 H 0.77596 0.37092 0.07458
 H887 H 0.71651 0.37632 0.11593
 H888 H 0.73629 0.40955 0.14058
 C889 C 0.92011 0.74146 0.62215
 C890 C 0.93402 0.74405 0.59815
 C891 C 0.92082 0.75379 0.57979
 C892 C 0.89493 0.76007 0.58710
 C893 C 0.89745 0.77674 0.60930
 C894 C 0.91072 0.76693 0.62777
 C895 C 0.89762 0.72666 0.61564
 C896 C 0.88437 0.73646 0.59719
 C897 C 0.93506 0.73061 0.64125
 C898 C 0.94870 0.72094 0.65526
 C899 C 0.88148 0.77045 0.56664
 C900 C 0.87221 0.77880 0.54866
 H901 H 0.95268 0.73869 0.59578
 H902 H 0.92819 0.75677 0.56170
 H903 H 0.88946 0.79459 0.61044
 H904 H 0.91411 0.77637 0.64474
 H905 H 0.89251 0.71003 0.62479
 H906 H 0.86790 0.72823 0.59051
 C907 C 0.92703 0.24957 0.37337
 C908 C 0.92981 0.22197 0.37423
 C909 C 0.91691 0.21128 0.39247
 C910 C 0.90254 0.22927 0.40799
 C911 C 0.88692 0.24334 0.38976
 C912 C 0.89981 0.25403 0.37153
 C913 C 0.93402 0.25822 0.39893
 C914 C 0.92119 0.24758 0.41707
 C915 C 0.94144 0.26162 0.35453
 C916 C 0.95444 0.27252 0.34080
 C917 C 0.88911 0.21847 0.42827
 C918 C 0.87894 0.21118 0.44624
 H919 H 0.94084 0.21175 0.36159
 H920 H 0.91688 0.19189 0.39547
 H921 H 0.86746 0.24469 0.39100
 H922 H 0.89141 0.26454 0.35714
 H923 H 0.94789 0.27157 0.40250
 H924 H 0.92409 0.25184 0.43615
 C925 C 0.07529 0.26792 0.60588
 C926 C 0.07480 0.24031 0.60849
 C927 C 0.08867 0.22865 0.59173
 C928 C 0.10165 0.24574 0.57401
 C929 C 0.11596 0.26313 0.59028
 C930 C 0.10207 0.27482 0.60708
 C931 C 0.06782 0.27285 0.57945
 C932 C 0.08163 0.26123 0.56275
 C933 C 0.05978 0.28060 0.62329
 C934 C 0.04595 0.29131 0.63629
 C935 C 0.11579 0.23328 0.55531
 C936 C 0.12562 0.22325 0.53857
 H937 H 0.06456 0.23078 0.62234
 H938 H 0.09031 0.20912 0.59122
 H939 H 0.13524 0.26595 0.58880
 H940 H 0.10945 0.28766 0.61999
 H941 H 0.05295 0.28452 0.57428
 H942 H 0.07858 0.26296 0.54328
 C943 C 0.07949 0.73440 0.39205
 C944 C 0.07054 0.75990 0.39814
 C945 C 0.08369 0.77107 0.41576
 C946 C 0.10452 0.75567 0.42558
 C947 C 0.11937 0.74878 0.40302
 C948 C 0.10616 0.73756 0.38533
 C949 C 0.07964 0.72088 0.41646
 C950 C 0.09277 0.73203 0.43405
 C951 C 0.06462 0.72217 0.37376
 C952 C 0.05111 0.71168 0.36027
 C953 C 0.11788 0.76760 0.44519
 C954 C 0.12707 0.77725 0.46251
 H955 H 0.05527 0.76847 0.38932
 H956 H 0.07968 0.78922 0.42202
 H957 H 0.13848 0.75240 0.40110
 H958 H 0.11396 0.73157 0.36824
 H959 H 0.07030 0.70393 0.41965
 H960 H 0.09467 0.72464 0.45228
 C961 C 0.61908 0.93127 0.74785
 C962 C 0.61928 0.90435 0.74120
 C963 C 0.60137 0.89140 0.75210
 C964 C 0.58501 0.90665 0.76858
 C965 C 0.57585 0.92714 0.75221
 C966 C 0.59369 0.94004 0.74135
 C967 C 0.62007 0.93187 0.77582
 C968 C 0.60212 0.91890 0.78674
 C969 C 0.63772 0.94563 0.73558
 C970 C 0.65158 0.95834 0.72451
 C971 C 0.56511 0.89306 0.77965
 C972 C 0.54755 0.88265 0.78721
 H973 H 0.63239 0.89617 0.72909
 H974 H 0.59913 0.87212 0.74933
 H975 H 0.55692 0.93121 0.74940
 H976 H 0.59003 0.95514 0.72925
 H977 H 0.63367 0.94154 0.78612
 H978 H 0.60035 0.91746 0.80638
 C979 C 0.38158 0.92407 0.25384
 C980 C 0.38079 0.92583 0.22591
 C981 C 0.39861 0.91306 0.21462
 C982 C 0.41542 0.89982 0.23240
 C983 C 0.39873 0.88415 0.24818
 C984 C 0.38092 0.89690 0.25946
 C985 C 0.40705 0.93219 0.26083
 C986 C 0.42477 0.91949 0.24960
 C987 C 0.36312 0.93828 0.26652
 C988 C 0.34957 0.95100 0.27790
 C989 C 0.43522 0.88647 0.22092
 C990 C 0.45273 0.87626 0.21302
 H991 H 0.36740 0.93611 0.21591
 H992 H 0.40049 0.91240 0.19495
 H993 H 0.40066 0.86474 0.25022
 H994 H 0.36761 0.88843 0.27116
 H995 H 0.41086 0.94672 0.27353
 H996 H 0.44374 0.92316 0.25269
 C997 C 0.61053 0.06947 0.25705
 C998 C 0.60826 0.09538 0.26669
 C999 C 0.59093 0.10860 0.25522
 C1000 C 0.57757 0.09462 0.23522
 C1001 C 0.56791 0.07190 0.24791
 C1002 C 0.58518 0.05872 0.25934
 C1003 C 0.61475 0.07224 0.22951
 C1004 C 0.59738 0.08549 0.21801
 C1005 C 0.62853 0.05483 0.26989
 C1006 C 0.64192 0.04195 0.28130
 C1007 C 0.55827 0.10850 0.22352
 C1008 C 0.54110 0.11913 0.21542
 H1009 H 0.61936 0.10272 0.28118
 H1010 H 0.58719 0.12728 0.25988
 H1011 H 0.54909 0.06658 0.24787
 H1012 H 0.58114 0.04212 0.26909
 H1013 H 0.63002 0.06454 0.21994
 H1014 H 0.59776 0.08915 0.19858
 C1015 C 0.38783 0.07576 0.74474
 C1016 C 0.39276 0.06720 0.77089
 C1017 C 0.41070 0.07971 0.78223
 C1018 C 0.42193 0.09954 0.76629
 C1019 C 0.40068 0.11545 0.75829
 C1020 C 0.38272 0.10293 0.74694
 C1021 C 0.41223 0.07411 0.73176
 C1022 C 0.43009 0.08657 0.74305
 C1023 C 0.36916 0.06180 0.73208
 C1024 C 0.35530 0.04924 0.72089
 C1025 C 0.44181 0.11265 0.77792
 C1026 C 0.45924 0.12274 0.78616
 H1027 H 0.38297 0.05266 0.77976
 H1028 H 0.41627 0.07589 0.80079
 H1029 H 0.39978 0.13480 0.76133
 H1030 H 0.36645 0.11154 0.74026
 H1031 H 0.41522 0.06402 0.71508
 H1032 H 0.44836 0.08714 0.73603
 C1033 C 0.61399 0.74494 0.07248
 C1034 C 0.61539 0.77265 0.07164
 C1035 C 0.59739 0.78380 0.08433
 C1036 C 0.57982 0.76612 0.09657
 C1037 C 0.59570 0.74963 0.11236
 C1038 C 0.61366 0.73849 0.09969
 C1039 C 0.58864 0.73881 0.06329
 C1040 C 0.57075 0.74990 0.07591
 C1041 C 0.63263 0.73239 0.05837
 C1042 C 0.64633 0.72104 0.04575
 C1043 C 0.55986 0.77745 0.10985
 C1044 C 0.54226 0.78527 0.12002
 H1045 H 0.62929 0.78261 0.06202
 H1046 H 0.59588 0.80331 0.08557
 H1047 H 0.59312 0.74702 0.13179
 H1048 H 0.62647 0.72635 0.10827
 H1049 H 0.58504 0.72678 0.04811
 H1050 H 0.55186 0.74736 0.07152
 C1051 C 0.38646 0.25580 0.07227
 C1052 C 0.38526 0.26177 0.09955
 C1053 C 0.40243 0.25033 0.11306
 C1054 C 0.41909 0.23405 0.09797
 C1055 C 0.42939 0.25059 0.07809
 C1056 C 0.41229 0.26199 0.06462
 C1057 C 0.38500 0.22812 0.07096
 C1058 C 0.40219 0.21666 0.08449
 C1059 C 0.36859 0.26856 0.05736
 C1060 C 0.35516 0.27979 0.04434
 C1061 C 0.43820 0.22237 0.11217
 C1062 C 0.45519 0.21425 0.12312
 H1063 H 0.37205 0.27384 0.10754
 H1064 H 0.40392 0.25259 0.13265
 H1065 H 0.44852 0.25312 0.07484
 H1066 H 0.41678 0.27427 0.04985
 H1067 H 0.37163 0.21839 0.06040
 H1068 H 0.40355 0.19713 0.08554
 C1069 C 0.61568 0.25432 0.93185
 C1070 C 0.59071 0.25523 0.94378
 C1071 C 0.57323 0.24413 0.93059
 C1072 C 0.58230 0.23311 0.90668
 C1073 C 0.60293 0.21617 0.91418
 C1074 C 0.62051 0.22734 0.92745
 C1075 C 0.61210 0.26522 0.90638
 C1076 C 0.59456 0.25407 0.89315
 C1077 C 0.63390 0.26687 0.94651
 C1078 C 0.64734 0.27818 0.95945
 C1079 C 0.56279 0.22175 0.89275
 C1080 C 0.54556 0.21390 0.88199
 H1081 H 0.58708 0.26384 0.96116
 H1082 H 0.55465 0.24323 0.93669
 H1083 H 0.60368 0.19715 0.90947
 H1084 H 0.63632 0.21790 0.93409
 H1085 H 0.62249 0.28029 0.89931
 H1086 H 0.58995 0.25961 0.87476
 C1087 C 0.38776 0.74514 0.92441
 C1088 C 0.38683 0.74027 0.89691
 C1089 C 0.40435 0.75196 0.88407
 C1090 C 0.42107 0.76738 0.90001
 C1091 C 0.43084 0.74990 0.91934
 C1092 C 0.41339 0.73825 0.93213
 C1093 C 0.38672 0.77277 0.92682
 C1094 C 0.40426 0.78448 0.91397
 C1095 C 0.36951 0.73211 0.93863
 C1096 C 0.35578 0.72065 0.95117
 C1097 C 0.44058 0.77932 0.88657
 C1098 C 0.45793 0.78759 0.87631
 H1099 H 0.37354 0.72873 0.88827
 H1100 H 0.40607 0.75045 0.86443
 H1101 H 0.44988 0.74694 0.92273
 H1102 H 0.41750 0.72533 0.94644
 H1103 H 0.37336 0.78228 0.93759
 H1104 H 0.40593 0.80401 0.91373
 C1105 C 0.73697 0.92008 0.39020
 C1106 C 0.73214 0.89282 0.38818
 C1107 C 0.74348 0.87945 0.40569
 C1108 C 0.75849 0.89471 0.42342
 C1109 C 0.74087 0.91346 0.43366
 C1110 C 0.72959 0.92675 0.41625
 C1111 C 0.76449 0.92256 0.38975
 C1112 C 0.77581 0.90921 0.40722
 C1113 C 0.72459 0.93503 0.37202
 C1114 C 0.71396 0.94835 0.35836
 C1115 C 0.77050 0.88113 0.44289
 C1116 C 0.78000 0.87181 0.46026
 H1117 H 0.72089 0.88475 0.37423
 H1118 H 0.74195 0.85993 0.40675
 H1119 H 0.73750 0.91605 0.45297
 H1120 H 0.71659 0.94072 0.42066
 H1121 H 0.77423 0.93372 0.37679
 H1122 H 0.79525 0.90894 0.40923
 C1123 C 0.26124 0.92431 0.61523
 C1124 C 0.27898 0.91082 0.59869
 C1125 C 0.26808 0.89699 0.58142
 C1126 C 0.24049 0.89799 0.58235
 C1127 C 0.23425 0.92493 0.58055
 C1128 C 0.24513 0.93874 0.59779
 C1129 C 0.24481 0.90460 0.62587
 C1130 C 0.23387 0.89072 0.60853
 C1131 C 0.27321 0.93979 0.63317
 C1132 C 0.28356 0.95357 0.64653
 C1133 C 0.22891 0.88383 0.56309
 C1134 C 0.21969 0.87391 0.54594
 H1135 H 0.29842 0.91194 0.60046
 H1136 H 0.27818 0.88627 0.56840
 H1137 H 0.22225 0.93252 0.56693
 H1138 H 0.24244 0.95813 0.59893
 H1139 H 0.24205 0.90179 0.64524
 H1140 H 0.22174 0.87601 0.61304
 C1141 C 0.25963 0.07591 0.38711
 C1142 C 0.26391 0.06636 0.41299
 C1143 C 0.25371 0.08018 0.43063
 C1144 C 0.24017 0.10226 0.42075
 C1145 C 0.22194 0.09198 0.40246
 C1146 C 0.23218 0.07812 0.38476
 C1147 C 0.26895 0.10204 0.38747
 C1148 C 0.25870 0.11592 0.40519
 C1149 C 0.27087 0.06043 0.36870
 C1150 C 0.28067 0.04667 0.35491
 C1151 C 0.22925 0.11645 0.44036
 C1152 C 0.22039 0.12650 0.45763
 H1153 H 0.27411 0.05013 0.41713
 H1154 H 0.25518 0.07577 0.44985
 H1155 H 0.20271 0.09538 0.40329
 H1156 H 0.22174 0.06963 0.37042
 H1157 H 0.28233 0.10903 0.37488
 H1158 H 0.26329 0.13480 0.40780
 C1159 C 0.74911 0.07644 0.61420
 C1160 C 0.74200 0.10320 0.61286
 C1161 C 0.75290 0.11543 0.59430
 C1162 C 0.76982 0.09968 0.57892
 C1163 C 0.75424 0.07845 0.57040
 C1164 C 0.74339 0.06627 0.58888
 C1165 C 0.77673 0.07641 0.61580
 C1166 C 0.78764 0.08866 0.59721
 C1167 C 0.73688 0.06278 0.63349
 C1168 C 0.72594 0.05044 0.64782
 C1169 C 0.78089 0.11242 0.55832
 C1170 C 0.78850 0.12208 0.54019
 H1171 H 0.72960 0.11181 0.62543
 H1172 H 0.74983 0.13452 0.59096
 H1173 H 0.75194 0.07338 0.55144
 H1174 H 0.73180 0.05078 0.58574
 H1175 H 0.78680 0.06764 0.63026
 H1176 H 0.80705 0.09037 0.59573
 C1177 C 0.92519 0.61143 0.26508
 C1178 C 0.93308 0.58550 0.27087
 C1179 C 0.91964 0.56836 0.25956
 C1180 C 0.89953 0.57871 0.24349
 C1181 C 0.91232 0.59600 0.22582
 C1182 C 0.92582 0.61321 0.23718
 C1183 C 0.89835 0.61233 0.27183
 C1184 C 0.88484 0.59509 0.26045
 C1185 C 0.94033 0.62928 0.27754
 C1186 C 0.95393 0.64246 0.28830
 C1187 C 0.88576 0.55954 0.23142
 C1188 C 0.87615 0.54252 0.22179
 H1189 H 0.94796 0.58097 0.28286
 H1190 H 0.92302 0.54917 0.26188
 H1191 H 0.91083 0.59490 0.20614
 H1192 H 0.93588 0.62684 0.22723
 H1193 H 0.89065 0.62538 0.28434
 H1194 H 0.86556 0.59336 0.26322
 C1195 C 0.91964 0.39066 0.73225
 C1196 C 0.92721 0.41689 0.72751
 C1197 C 0.91347 0.43338 0.73941
 C1198 C 0.89343 0.42214 0.75496
 C1199 C 0.90637 0.40437 0.77201
 C1200 C 0.92016 0.38781 0.76006
 C1201 C 0.89285 0.38963 0.72533
 C1202 C 0.87904 0.40622 0.73730
 C1203 C 0.93509 0.37350 0.71924
 C1204 C 0.94889 0.36076 0.70822
 C1205 C 0.87941 0.44067 0.76768
 C1206 C 0.86979 0.45738 0.77782
 H1207 H 0.94208 0.42208 0.71577
 H1208 H 0.91659 0.45268 0.73784
 H1209 H 0.90475 0.40470 0.79172
 H1210 H 0.93036 0.37395 0.76953
 H1211 H 0.88540 0.37696 0.71228
 H1212 H 0.85976 0.40778 0.73451
 C1213 C 0.07210 0.62022 0.75205
 C1214 C 0.07126 0.62017 0.78002
 C1215 C 0.08378 0.60154 0.79033
 C1216 C 0.09585 0.58488 0.77162
 C1217 C 0.11148 0.60165 0.75586
 C1218 C 0.09898 0.62025 0.74555
 C1219 C 0.06298 0.59516 0.74454
 C1220 C 0.07543 0.57665 0.75480
 C1221 C 0.05809 0.63945 0.74033
 C1222 C 0.04531 0.65339 0.72950
 C1223 C 0.10891 0.56428 0.78198
 C1224 C 0.11895 0.54626 0.78898
 H1225 H 0.06177 0.63359 0.79075
 H1226 H 0.08502 0.59900 0.80990
 H1227 H 0.13068 0.59919 0.75313
 H1228 H 0.10745 0.63373 0.73401
 H1229 H 0.04798 0.59219 0.73222
 H1230 H 0.07108 0.55785 0.75125
 C1231 C 0.07548 0.37990 0.24746
 C1232 C 0.07163 0.38200 0.21982
 C1233 C 0.08400 0.40066 0.20940
 C1234 C 0.09895 0.41533 0.22766
 C1235 C 0.11522 0.39674 0.24038
 C1236 C 0.10286 0.37809 0.25080
 C1237 C 0.06867 0.40477 0.25762
 C1238 C 0.08097 0.42333 0.24725
 C1239 C 0.06164 0.36053 0.25917
 C1240 C 0.04905 0.34620 0.26974
 C1241 C 0.11186 0.43593 0.21708
 C1242 C 0.12179 0.45390 0.20977
 H1243 H 0.06029 0.36987 0.20937
 H1244 H 0.08325 0.40452 0.19002
 H1245 H 0.13470 0.39807 0.24105
 H1246 H 0.11174 0.36343 0.26041
 H1247 H 0.05531 0.40758 0.27178
 H1248 H 0.07813 0.44201 0.25252
   
