data_POSCAR
  _audit_creation_date              2014-09-24
  _audit_creation_method            'ToBaCCo'
  _symmetry_space_group_name_H-M    'P1'
  _symmetry_Int_Tables_number       1
  _symmetry_cell_setting            triclinic
  loop_
  _symmetry_equiv_pos_as_xyz
 x,y,z
_cell_length_a 64.3891
_cell_length_b 64.3916
_cell_length_c 64.5973
_cell_angle_alpha 89.909900
_cell_angle_beta 89.897100
_cell_angle_gamma 89.734100
loop_
  _atom_site_label
  _atom_site_type_symbol
  _atom_site_fract_x
  _atom_site_fract_y
  _atom_site_fract_z
N1 N 0.37701 0.31906 0.33481
 N2 N 0.37568 0.33262 0.31962
 C3 C 0.39019 0.32813 0.30527
 C4 C 0.40123 0.31093 0.31187
 C5 C 0.39253 0.30558 0.33070
 H6 H 0.39213 0.33622 0.29071
 H7 H 0.39645 0.29221 0.34010
 Cu8 Cu 0.35425 0.35394 0.31939
 Cu9 Cu 0.35683 0.31835 0.35734
 Cu10 Cu 0.31862 0.35661 0.35726
 N11 N 0.33301 0.37545 0.31960
 N12 N 0.31941 0.37679 0.33475
 C13 C 0.30593 0.39231 0.33060
 C14 C 0.31136 0.40101 0.31179
 C15 C 0.32858 0.38997 0.30524
 H16 H 0.29253 0.39621 0.33995
 H17 H 0.33672 0.39191 0.29072
 N18 N 0.32037 0.33474 0.37859
 N19 N 0.33493 0.32022 0.37866
 C20 C 0.33061 0.30634 0.39367
 C21 C 0.31245 0.31236 0.40339
 C22 C 0.30641 0.33043 0.39353
 H23 H 0.33924 0.29217 0.39648
 H24 H 0.29219 0.33902 0.39620
 H25 H 0.33257 0.33228 0.34148
 H26 H 0.34996 0.34966 0.35662
 N27 N 0.37744 0.81966 -0.16540
 N28 N 0.37726 0.83420 -0.17972
 C29 C 0.39189 0.82976 -0.19401
 C30 C 0.40165 0.81144 -0.18830
 C31 C 0.39219 0.80553 -0.17001
 H32 H 0.39461 0.83863 -0.20798
 H33 H 0.39512 0.79148 -0.16127
 Cu34 Cu 0.35674 0.85650 -0.17957
 Cu35 Cu 0.35704 0.81879 -0.14324
 Cu36 Cu 0.31905 0.85693 -0.14320
 N37 N 0.33451 0.87709 -0.17970
 N38 N 0.31998 0.87731 -0.16538
 C39 C 0.30586 0.89207 -0.17002
 C40 C 0.31179 0.90148 -0.18833
 C41 C 0.33010 0.89169 -0.19401
 H42 H 0.29180 0.89502 -0.16130
 H43 H 0.33897 0.89436 -0.20800
 N44 N 0.32061 0.83497 -0.12202
 N45 N 0.33509 0.82040 -0.12206
 C46 C 0.33071 0.80641 -0.10717
 C47 C 0.31262 0.81248 -0.09735
 C48 C 0.30665 0.83064 -0.10708
 H49 H 0.33926 0.79217 -0.10449
 H50 H 0.29247 0.83927 -0.10432
 H51 H 0.33385 0.83370 -0.15983
 H52 H 0.35042 0.85017 -0.14279
 N53 N 0.87690 0.32022 -0.16581
 N54 N 0.87520 0.33349 -0.18122
 C55 C 0.88956 0.32888 -0.19570
 C56 C 0.90089 0.31194 -0.18894
 C57 C 0.89253 0.30685 -0.16989
 H58 H 0.89117 0.33671 -0.21043
 H59 H 0.89669 0.29367 -0.16033
 Cu60 Cu 0.85351 0.35456 -0.18157
 Cu61 Cu 0.85685 0.31947 -0.14316
 Cu62 Cu 0.81813 0.35716 -0.14348
 N63 N 0.83207 0.37591 -0.18136
 N64 N 0.81853 0.37714 -0.16614
 C65 C 0.80484 0.39248 -0.17025
 C66 C 0.81003 0.40118 -0.18913
 C67 C 0.82744 0.39039 -0.19571
 H68 H 0.79154 0.39633 -0.16072
 H69 H 0.83558 0.39243 -0.21023
 N70 N 0.82026 0.33554 -0.12196
 N71 N 0.83503 0.32124 -0.12177
 C72 C 0.83084 0.30737 -0.10669
 C73 C 0.81255 0.31319 -0.09708
 C74 C 0.80630 0.33112 -0.10706
 H75 H 0.83961 0.29330 -0.10384
 H76 H 0.79192 0.33948 -0.10453
 H77 H 0.83232 0.33283 -0.15908
 H78 H 0.84955 0.35067 -0.14427
 N79 N 0.87704 0.82009 0.33479
 N80 N 0.87571 0.83378 0.31972
 C81 C 0.89016 0.82936 0.30527
 C82 C 0.90115 0.81206 0.31169
 C83 C 0.89249 0.80659 0.33050
 H84 H 0.89204 0.83754 0.29075
 H85 H 0.89635 0.79310 0.33974
 Cu86 Cu 0.85426 0.85507 0.31970
 Cu87 Cu 0.85684 0.81911 0.35729
 Cu88 Cu 0.81814 0.85692 0.35712
 N89 N 0.83264 0.87621 0.31969
 N90 N 0.81871 0.87706 0.33458
 C91 C 0.80489 0.89221 0.33028
 C92 C 0.81040 0.90120 0.31161
 C93 C 0.82815 0.89077 0.30537
 H94 H 0.79128 0.89574 0.33949
 H95 H 0.83659 0.89307 0.29107
 N96 N 0.82017 0.83512 0.37851
 N97 N 0.83486 0.82072 0.37857
 C98 C 0.83066 0.80680 0.39357
 C99 C 0.81247 0.81268 0.40332
 C100 C 0.80628 0.83072 0.39349
 H101 H 0.83941 0.79270 0.39637
 H102 H 0.79202 0.83921 0.39622
 H103 H 0.83261 0.83287 0.34134
 H104 H 0.84955 0.85029 0.35687
 N105 N 0.62310 0.68069 0.33522
 N106 N 0.62416 0.66680 0.32035
 C107 C 0.60957 0.67113 0.30606
 C108 C 0.59878 0.68860 0.31237
 C109 C 0.60771 0.69426 0.33095
 H110 H 0.60741 0.66274 0.29174
 H111 H 0.60403 0.70787 0.34006
 Cu112 Cu 0.64550 0.64537 0.32050
 Cu113 Cu 0.64339 0.68166 0.35760
 Cu114 Cu 0.68171 0.64343 0.35761
 N115 N 0.66692 0.62402 0.32046
 N116 N 0.68084 0.62308 0.33530
 C117 C 0.69448 0.60774 0.33107
 C118 C 0.68882 0.59868 0.31255
 C119 C 0.67128 0.60935 0.30623
 H120 H 0.70812 0.60417 0.34017
 H121 H 0.66288 0.60709 0.29194
 N122 N 0.67999 0.66547 0.37873
 N123 N 0.66543 0.67999 0.37874
 C124 C 0.66971 0.69390 0.39367
 C125 C 0.68785 0.68788 0.40342
 C126 C 0.69390 0.66978 0.39365
 H127 H 0.66103 0.70803 0.39648
 H128 H 0.70805 0.66113 0.39644
 H129 H 0.66755 0.66763 0.34156
 H130 H 0.65051 0.65054 0.35746
 N131 N 0.62296 0.18028 -0.16537
 N132 N 0.62434 0.16671 -0.18051
 C133 C 0.60985 0.17120 -0.19487
 C134 C 0.59879 0.18841 -0.18830
 C135 C 0.60744 0.19373 -0.16949
 H136 H 0.60798 0.16313 -0.20941
 H137 H 0.60351 0.20711 -0.16014
 Cu138 Cu 0.64594 0.14553 -0.18064
 Cu139 Cu 0.64321 0.18125 -0.14296
 Cu140 Cu 0.68189 0.14347 -0.14322
 N141 N 0.66750 0.12430 -0.18066
 N142 N 0.68133 0.12336 -0.16573
 C143 C 0.69513 0.10817 -0.16998
 C144 C 0.68973 0.09927 -0.18867
 C145 C 0.67206 0.10978 -0.19497
 H146 H 0.70864 0.10455 -0.16069
 H147 H 0.66369 0.10754 -0.20929
 N148 N 0.67988 0.16523 -0.12186
 N149 N 0.66520 0.17962 -0.12178
 C150 C 0.66940 0.19351 -0.10679
 C151 C 0.68760 0.18761 -0.09710
 C152 C 0.69377 0.16958 -0.10693
 H153 H 0.66063 0.20759 -0.10396
 H154 H 0.70802 0.16107 -0.10423
 H155 H 0.66751 0.16766 -0.15902
 H156 H 0.65050 0.15014 -0.14352
 N157 N 0.12318 0.68070 -0.16539
 N158 N 0.12444 0.66700 -0.18042
 C159 C 0.10986 0.67137 -0.19471
 C160 C 0.09887 0.68864 -0.18823
 C161 C 0.10766 0.69416 -0.16954
 H162 H 0.10787 0.66316 -0.20916
 H163 H 0.10380 0.70761 -0.16027
 Cu164 Cu 0.14594 0.64573 -0.18056
 Cu165 Cu 0.14341 0.68157 -0.14299
 Cu166 Cu 0.18166 0.64337 -0.14287
 N167 N 0.16727 0.62430 -0.18032
 N168 N 0.18088 0.62307 -0.16521
 C169 C 0.19436 0.60754 -0.16926
 C170 C 0.18897 0.59872 -0.18797
 C171 C 0.17174 0.60971 -0.19457
 H172 H 0.20775 0.60369 -0.15990
 H173 H 0.16362 0.60770 -0.20906
 N174 N 0.17985 0.66534 -0.12170
 N175 N 0.16531 0.67988 -0.12174
 C176 C 0.16961 0.69383 -0.10684
 C177 C 0.18771 0.68780 -0.09704
 C178 C 0.19376 0.66968 -0.10677
 H179 H 0.16100 0.70803 -0.10416
 H180 H 0.20794 0.66107 -0.10402
 H181 H 0.16771 0.66758 -0.15887
 H182 H 0.15041 0.65030 -0.14341
 N183 N 0.12286 0.18082 0.33496
 N184 N 0.12412 0.16719 0.31987
 C185 C 0.10959 0.17167 0.30556
 C186 C 0.09865 0.18896 0.31207
 C187 C 0.10741 0.19437 0.33081
 H188 H 0.10759 0.16351 0.29109
 H189 H 0.10358 0.20780 0.34012
 Cu190 Cu 0.14556 0.14587 0.31966
 Cu191 Cu 0.14303 0.18151 0.35742
 Cu192 Cu 0.18126 0.14324 0.35736
 N193 N 0.16686 0.12439 0.31980
 N194 N 0.18051 0.12310 0.33487
 C195 C 0.19403 0.10763 0.33068
 C196 C 0.18858 0.09889 0.31193
 C197 C 0.17129 0.10988 0.30547
 H198 H 0.20747 0.10378 0.33995
 H199 H 0.16312 0.10791 0.29100
 N200 N 0.17944 0.16510 0.37866
 N201 N 0.16491 0.17965 0.37868
 C202 C 0.16923 0.19356 0.39360
 C203 C 0.18735 0.18752 0.40334
 C204 C 0.19337 0.16940 0.39357
 H205 H 0.16064 0.20776 0.39633
 H206 H 0.20757 0.16079 0.39628
 H207 H 0.16742 0.16769 0.34140
 H208 H 0.15008 0.15035 0.35675
 N209 N 0.62280 0.32003 0.66579
 N210 N 0.62386 0.33380 0.68076
 C211 C 0.60938 0.32940 0.69515
 C212 C 0.59862 0.31204 0.68880
 C213 C 0.60746 0.30650 0.67008
 H214 H 0.60731 0.33763 0.70959
 H215 H 0.60377 0.29300 0.66088
 Cu216 Cu 0.64516 0.35505 0.68082
 Cu217 Cu 0.64314 0.31912 0.64335
 Cu218 Cu 0.68137 0.35709 0.64351
 N219 N 0.66648 0.37629 0.68085
 N220 N 0.68036 0.37734 0.66593
 C221 C 0.69386 0.39267 0.67022
 C222 C 0.68819 0.40151 0.68890
 C223 C 0.67079 0.39075 0.69522
 H224 H 0.70740 0.39639 0.66104
 H225 H 0.66244 0.39284 0.70961
 N226 N 0.67974 0.33519 0.62222
 N227 N 0.66516 0.32081 0.62209
 C228 C 0.66945 0.30703 0.60697
 C229 C 0.68761 0.31296 0.59724
 C230 C 0.69366 0.33088 0.60722
 H231 H 0.66078 0.29300 0.60406
 H232 H 0.70782 0.33943 0.60448
 H233 H 0.66721 0.33302 0.65929
 H234 H 0.65011 0.35038 0.64364
 N235 N 0.62325 0.81956 1.16609
 N236 N 0.62469 0.83291 1.18140
 C237 C 0.61020 0.82845 1.19576
 C238 C 0.59906 0.81147 1.18906
 C239 C 0.60768 0.80622 1.17015
 H240 H 0.60832 0.83642 1.21037
 H241 H 0.60369 0.79302 1.16065
 Cu242 Cu 0.64615 0.85402 1.18172
 Cu243 Cu 0.64335 0.81887 1.14349
 Cu244 Cu 0.68155 0.85678 1.14360
 N245 N 0.66736 0.87539 1.18146
 N246 N 0.68082 0.87683 1.16620
 C247 C 0.69417 0.89235 1.17029
 C248 C 0.68883 0.90092 1.18919
 C249 C 0.67178 0.88981 1.19583
 H250 H 0.70743 0.89635 1.16082
 H251 H 0.66373 0.89166 1.21042
 N252 N 0.67975 0.83507 1.12218
 N253 N 0.66518 0.82069 1.12209
 C254 C 0.66943 0.80689 1.10698
 C255 C 0.68757 0.81281 1.09721
 C256 C 0.69365 0.83075 1.10715
 H257 H 0.66078 0.79284 1.10413
 H258 H 0.70784 0.83925 1.10443
 H259 H 0.66774 0.83239 1.15935
 H260 H 0.65026 0.85011 1.14444
 N261 N 0.12328 0.31967 1.16585
 N262 N 0.12458 0.33320 1.18102
 C263 C 0.11003 0.32883 1.19535
 C264 C 0.09900 0.31174 1.18877
 C265 C 0.10774 0.30633 1.16996
 H266 H 0.10804 0.33694 1.20987
 H267 H 0.10382 0.29303 1.16057
 Cu268 Cu 0.14599 0.35435 1.18123
 Cu269 Cu 0.14347 0.31887 1.14331
 Cu270 Cu 0.18164 0.35683 1.14338
 N271 N 0.16723 0.37569 1.18105
 N272 N 0.18082 0.37698 1.16588
 C273 C 0.19420 0.39246 1.16996
 C274 C 0.18876 0.40118 1.18876
 C275 C 0.17161 0.39019 1.19536
 H276 H 0.20754 0.39636 1.16055
 H277 H 0.16347 0.39217 1.20989
 N278 N 0.17992 0.33503 1.12205
 N279 N 0.16538 0.32062 1.12196
 C280 C 0.16967 0.30683 1.10686
 C281 C 0.18779 0.31279 1.09710
 C282 C 0.19384 0.33074 1.10704
 H283 H 0.16103 0.29277 1.10398
 H284 H 0.20800 0.33927 1.10431
 H285 H 0.16774 0.33253 1.15920
 H286 H 0.15035 0.35009 1.14402
 N287 N 0.12310 0.81961 0.66598
 N288 N 0.12453 0.83296 0.68129
 C289 C 0.11000 0.82852 0.69561
 C290 C 0.09885 0.81156 0.68889
 C291 C 0.10750 0.80630 0.67000
 H292 H 0.10809 0.83649 0.71022
 H293 H 0.10350 0.79311 0.66048
 Cu294 Cu 0.14609 0.85399 0.68170
 Cu295 Cu 0.14327 0.81889 0.64342
 Cu296 Cu 0.18149 0.85676 0.64360
 N297 N 0.16738 0.87528 0.68153
 N298 N 0.18078 0.87677 0.66621
 C299 C 0.19420 0.89220 0.67032
 C300 C 0.18900 0.90067 0.68929
 C301 C 0.17194 0.88959 0.69597
 H302 H 0.20745 0.89621 0.66082
 H303 H 0.16399 0.89140 0.71062
 N304 N 0.17970 0.83508 0.62216
 N305 N 0.16514 0.82069 0.62205
 C306 C 0.16944 0.80689 0.60696
 C307 C 0.18760 0.81282 0.59724
 C308 C 0.19364 0.83076 0.60719
 H309 H 0.16082 0.79282 0.60410
 H310 H 0.20785 0.83925 0.60453
 H311 H 0.16765 0.83238 0.65930
 H312 H 0.15017 0.85011 0.64441
 N313 N 0.37702 0.68070 0.66625
 N314 N 0.37564 0.66721 0.68148
 C315 C 0.38998 0.67173 0.69591
 C316 C 0.40097 0.68888 0.68931
 C317 C 0.39242 0.69417 0.67040
 H318 H 0.39185 0.66369 0.71050
 H319 H 0.39636 0.70748 0.66097
 Cu320 Cu 0.35438 0.64591 0.68164
 Cu321 Cu 0.35692 0.68141 0.64370
 Cu322 Cu 0.31898 0.64321 0.64362
 N323 N 0.33330 0.62443 0.68141
 N324 N 0.31979 0.62306 0.66623
 C325 C 0.30645 0.60752 0.67040
 C326 C 0.31187 0.59885 0.68925
 C327 C 0.32894 0.60993 0.69578
 H328 H 0.29315 0.60356 0.66103
 H329 H 0.33705 0.60802 0.71031
 N330 N 0.32076 0.66510 0.62224
 N331 N 0.33517 0.67964 0.62232
 C332 C 0.33087 0.69356 0.60731
 C333 C 0.31291 0.68753 0.59738
 C334 C 0.30697 0.66939 0.60714
 H335 H 0.33940 0.70773 0.60459
 H336 H 0.29290 0.66076 0.60428
 H337 H 0.33255 0.66745 0.65945
 H338 H 0.35017 0.65004 0.64438
 N339 N 0.37691 0.18065 1.16600
 N340 N 0.37556 0.16706 1.18116
 C341 C 0.39006 0.17138 1.19549
 C342 C 0.40112 0.18850 1.18891
 C343 C 0.39243 0.19398 1.17011
 H344 H 0.39201 0.16322 1.21000
 H345 H 0.39637 0.20731 1.16072
 Cu346 Cu 0.35418 0.14586 1.18131
 Cu347 Cu 0.35680 0.18153 1.14347
 Cu348 Cu 0.31881 0.14340 1.14329
 N349 N 0.33299 0.12447 1.18102
 N350 N 0.31951 0.12319 1.16582
 C351 C 0.30613 0.10767 1.16988
 C352 C 0.31148 0.09891 1.18869
 C353 C 0.32857 0.10992 1.19533
 H354 H 0.29286 0.10377 1.16044
 H355 H 0.33664 0.10791 1.20986
 N356 N 0.32064 0.16530 1.12195
 N357 N 0.33503 0.17986 1.12211
 C358 C 0.33076 0.19379 1.10711
 C359 C 0.31286 0.18774 1.09710
 C360 C 0.30690 0.16959 1.10681
 H361 H 0.33929 0.20797 1.10443
 H362 H 0.29286 0.16093 1.10387
 H363 H 0.33246 0.16767 1.15923
 H364 H 0.35005 0.15027 1.14409
 N365 N 0.87685 0.68097 1.16582
 N366 N 0.87555 0.66747 1.18106
 C367 C 0.89006 0.67192 1.19535
 C368 C 0.90104 0.68904 1.18867
 C369 C 0.89233 0.69438 1.16984
 H370 H 0.89204 0.66384 1.20991
 H371 H 0.89622 0.70766 1.16036
 Cu372 Cu 0.85419 0.64625 1.18141
 Cu373 Cu 0.85669 0.68166 1.14332
 Cu374 Cu 0.81874 0.64349 1.14350
 N375 N 0.83304 0.62482 1.18130
 N376 N 0.81956 0.62340 1.16611
 C377 C 0.80624 0.60785 1.17026
 C378 C 0.81162 0.59923 1.18913
 C379 C 0.82866 0.61035 1.19570
 H380 H 0.79298 0.60385 1.16085
 H381 H 0.83674 0.60846 1.21025
 N382 N 0.82045 0.66528 1.12206
 N383 N 0.83487 0.67980 1.12201
 C384 C 0.83056 0.69362 1.10691
 C385 C 0.81257 0.68754 1.09708
 C386 C 0.80662 0.66949 1.10698
 H387 H 0.83911 0.70775 1.10407
 H388 H 0.79254 0.66084 1.10419
 H389 H 0.83242 0.66790 1.15924
 H390 H 0.84998 0.65041 1.14417
 N391 N 0.87725 0.18047 0.66546
 N392 N 0.87662 0.16627 0.68007
 C393 C 0.89134 0.17040 0.69425
 C394 C 0.90174 0.18811 0.68815
 C395 C 0.89247 0.19406 0.66978
 H396 H 0.89380 0.16174 0.70840
 H397 H 0.89588 0.20783 0.66082
 Cu398 Cu 0.85537 0.14493 0.68018
 Cu399 Cu 0.85677 0.18155 0.64330
 Cu400 Cu 0.81879 0.14322 0.64329
 N401 N 0.83405 0.12368 0.68028
 N402 N 0.81999 0.12279 0.66559
 C403 C 0.80648 0.10749 0.67003
 C404 C 0.81231 0.09851 0.68860
 C405 C 0.82986 0.10912 0.69466
 H406 H 0.79280 0.10392 0.66107
 H407 H 0.83840 0.10689 0.70890
 N408 N 0.82025 0.16543 0.62217
 N409 N 0.83464 0.18000 0.62222
 C410 C 0.83019 0.19401 0.60733
 C411 C 0.81218 0.18800 0.59750
 C412 C 0.80631 0.16983 0.60722
 H413 H 0.83868 0.20819 0.60458
 H414 H 0.79223 0.16121 0.60440
 H415 H 0.83280 0.16717 0.65913
 H416 H 0.84987 0.15031 0.64305
 N417 N 0.31948 0.37680 0.66471
 N418 N 0.33451 0.37729 0.67844
 C419 C 0.33030 0.39228 0.69241
 C420 C 0.31163 0.40154 0.68712
 C421 C 0.30520 0.39135 0.66948
 H422 H 0.33955 0.39552 0.70598
 H423 H 0.29074 0.39373 0.66131
 Cu424 Cu 0.35707 0.35702 0.67818
 Cu425 Cu 0.31831 0.35606 0.64298
 Cu426 Cu 0.35635 0.31809 0.64313
 N427 N 0.37735 0.33446 0.67865
 N428 N 0.37702 0.31942 0.66492
 C429 C 0.39166 0.30525 0.66976
 C430 C 0.40168 0.31174 0.68747
 C431 C 0.39226 0.33035 0.69271
 H432 H 0.39419 0.29081 0.66159
 H433 H 0.39539 0.33964 0.70627
 N434 N 0.33414 0.31926 0.62228
 N435 N 0.31962 0.33379 0.62221
 C436 C 0.30567 0.32939 0.60735
 C437 C 0.31168 0.31121 0.59770
 C438 C 0.32979 0.30522 0.60748
 H439 H 0.29155 0.33809 0.60449
 H440 H 0.33850 0.29109 0.60471
 H441 H 0.33374 0.33357 0.66002
 H442 H 0.34976 0.34954 0.64184
 N443 N 0.31938 0.87692 0.16518
 N444 N 0.33316 0.87576 0.18014
 C445 C 0.32872 0.89027 0.19449
 C446 C 0.31132 0.90112 0.18811
 C447 C 0.30581 0.89232 0.16943
 H448 H 0.33698 0.89230 0.20890
 H449 H 0.29229 0.89609 0.16022
 Cu450 Cu 0.35454 0.85437 0.18010
 Cu451 Cu 0.31853 0.85670 0.14275
 Cu452 Cu 0.35679 0.81844 0.14264
 N453 N 0.37593 0.83300 0.18003
 N454 N 0.37705 0.81924 0.16504
 C455 C 0.39244 0.80564 0.16925
 C456 C 0.40129 0.81114 0.18792
 C457 C 0.39047 0.82854 0.19434
 H458 H 0.39618 0.79213 0.16002
 H459 H 0.39253 0.83678 0.20876
 N460 N 0.33483 0.82026 0.12143
 N461 N 0.32028 0.83479 0.12149
 C462 C 0.30638 0.83054 0.10653
 C463 C 0.31244 0.81249 0.09667
 C464 C 0.33056 0.80642 0.10641
 H465 H 0.29221 0.83919 0.10379
 H466 H 0.33922 0.79228 0.10357
 H467 H 0.33264 0.83250 0.15858
 H468 H 0.34983 0.84974 0.14298
 N469 N 0.81913 0.37704 0.16466
 N470 N 0.83289 0.37595 0.17965
 C471 C 0.82845 0.39056 0.19390
 C472 C 0.81105 0.40137 0.18746
 C473 C 0.80554 0.39245 0.16882
 H474 H 0.83669 0.39267 0.20831
 H475 H 0.79203 0.39617 0.15959
 Cu476 Cu 0.85424 0.35452 0.17982
 Cu477 Cu 0.81839 0.35676 0.14228
 Cu478 Cu 0.85667 0.31855 0.14240
 N479 N 0.87567 0.33317 0.17982
 N480 N 0.87686 0.31940 0.16484
 C481 C 0.89228 0.30585 0.16907
 C482 C 0.90109 0.31138 0.18775
 C483 C 0.89021 0.32877 0.19414
 H484 H 0.89608 0.29235 0.15985
 H485 H 0.89224 0.33703 0.20855
 N486 N 0.83479 0.32027 0.12113
 N487 N 0.82023 0.33480 0.12107
 C488 C 0.80639 0.33048 0.10608
 C489 C 0.81248 0.31236 0.09635
 C490 C 0.83055 0.30634 0.10620
 H491 H 0.79221 0.33909 0.10326
 H492 H 0.83920 0.29217 0.10349
 H493 H 0.83238 0.33251 0.15833
 H494 H 0.84963 0.34973 0.14276
 N495 N 0.81908 0.87724 0.66563
 N496 N 0.83272 0.87593 0.68070
 C497 C 0.82829 0.89045 0.69503
 C498 C 0.81103 0.90146 0.68853
 C499 C 0.80559 0.89273 0.66979
 H500 H 0.83648 0.89243 0.70949
 H501 H 0.79219 0.89664 0.66048
 Cu502 Cu 0.85406 0.85451 0.68074
 Cu503 Cu 0.81834 0.85715 0.64310
 Cu504 Cu 0.85670 0.81903 0.64282
 N505 N 0.87552 0.83321 0.68049
 N506 N 0.87686 0.81970 0.66530
 C507 C 0.89232 0.80615 0.66940
 C508 C 0.90099 0.81143 0.68821
 C509 C 0.88998 0.82863 0.69483
 H510 H 0.89620 0.79278 0.66002
 H511 H 0.89189 0.83665 0.70940
 N512 N 0.83480 0.82093 0.62158
 N513 N 0.82018 0.83538 0.62174
 C514 C 0.80621 0.83108 0.60687
 C515 C 0.81231 0.81307 0.59696
 C516 C 0.83051 0.80708 0.60659
 H517 H 0.79195 0.83962 0.60428
 H518 H 0.83917 0.79294 0.60377
 H519 H 0.83242 0.83282 0.65880
 H520 H 0.84967 0.85031 0.64353
 N521 N 0.67998 0.62292 0.66534
 N522 N 0.66558 0.62332 0.67979
 C523 C 0.66997 0.60869 0.69407
 C524 C 0.68800 0.59858 0.68816
 C525 C 0.69393 0.60796 0.66986
 H526 H 0.66127 0.60615 0.70817
 H527 H 0.70797 0.60491 0.66115
 Cu528 Cu 0.64345 0.64400 0.67970
 Cu529 Cu 0.68108 0.64348 0.64329
 Cu530 Cu 0.64305 0.68160 0.64335
 N531 N 0.62274 0.66610 0.67975
 N532 N 0.62244 0.68053 0.66533
 C533 C 0.60746 0.69448 0.66980
 C534 C 0.59795 0.68851 0.68803
 C535 C 0.60801 0.67046 0.69394
 H536 H 0.60446 0.70853 0.66109
 H537 H 0.60538 0.66171 0.70800
 N538 N 0.66519 0.68020 0.62235
 N539 N 0.67968 0.66563 0.62229
 C540 C 0.69368 0.67002 0.60740
 C541 C 0.68770 0.68820 0.59769
 C542 C 0.66959 0.69423 0.60750
 H543 H 0.70784 0.66136 0.60461
 H544 H 0.66099 0.70843 0.60479
 H545 H 0.66630 0.66669 0.66001
 H546 H 0.64973 0.65020 0.64295
 N547 N 0.68094 0.12264 0.16496
 N548 N 0.66690 0.12347 0.17974
 C549 C 0.67128 0.10886 0.19404
 C550 C 0.68894 0.09831 0.18781
 C551 C 0.69465 0.10738 0.16927
 H552 H 0.66284 0.10660 0.20835
 H553 H 0.70838 0.10391 0.16023
 Cu554 Cu 0.64543 0.14478 0.17967
 Cu555 Cu 0.68191 0.14307 0.14267
 Cu556 Cu 0.64346 0.18112 0.14250
 N557 N 0.62400 0.16611 0.17966
 N558 N 0.62303 0.18006 0.16480
 C559 C 0.60769 0.19369 0.16910
 C560 C 0.59874 0.18804 0.18772
 C561 C 0.60943 0.17049 0.19400
 H562 H 0.60412 0.20737 0.16002
 H563 H 0.60731 0.16215 0.20838
 N564 N 0.66559 0.17954 0.12138
 N565 N 0.68025 0.16511 0.12150
 C566 C 0.69420 0.16946 0.10657
 C567 C 0.68807 0.18748 0.09666
 C568 C 0.66984 0.19340 0.10633
 H569 H 0.70841 0.16088 0.10384
 H570 H 0.66107 0.20746 0.10339
 H571 H 0.66747 0.16704 0.15855
 H572 H 0.65057 0.14989 0.14266
 N573 N 0.18060 0.62308 0.16503
 N574 N 0.16698 0.62436 0.18017
 C575 C 0.17143 0.60983 0.19451
 C576 C 0.18870 0.59885 0.18796
 C577 C 0.19411 0.60760 0.16917
 H578 H 0.16329 0.60785 0.20903
 H579 H 0.20754 0.60374 0.15983
 Cu580 Cu 0.14570 0.64583 0.18037
 Cu581 Cu 0.18138 0.64331 0.14255
 Cu582 Cu 0.14317 0.68158 0.14261
 N583 N 0.12427 0.66715 0.18025
 N584 N 0.12298 0.68078 0.16512
 C585 C 0.10751 0.69430 0.16931
 C586 C 0.09880 0.68888 0.18811
 C587 C 0.10978 0.67161 0.19462
 H588 H 0.10364 0.70773 0.15998
 H589 H 0.10783 0.66347 0.20915
 N590 N 0.16506 0.67978 0.12129
 N591 N 0.17959 0.66523 0.12126
 C592 C 0.19349 0.66954 0.10627
 C593 C 0.18747 0.68768 0.09652
 C594 C 0.16937 0.69371 0.10633
 H595 H 0.20768 0.66092 0.10350
 H596 H 0.16076 0.70791 0.10360
 H597 H 0.16742 0.66758 0.15842
 H598 H 0.15006 0.65027 0.14317
 N599 N 0.18073 0.12227 0.66545
 N600 N 0.16730 0.12364 0.68075
 C601 C 0.17191 0.10917 0.69510
 C602 C 0.18905 0.09812 0.68837
 C603 C 0.19426 0.10677 0.66948
 H604 H 0.16395 0.10728 0.70973
 H605 H 0.20755 0.10283 0.65999
 Cu606 Cu 0.14598 0.14507 0.68108
 Cu607 Cu 0.18127 0.14240 0.64290
 Cu608 Cu 0.14296 0.18058 0.64309
 N609 N 0.12447 0.16631 0.68098
 N610 N 0.12295 0.17981 0.66576
 C611 C 0.10739 0.19322 0.66996
 C612 C 0.09887 0.18788 0.68887
 C613 C 0.11006 0.17076 0.69544
 H614 H 0.10332 0.20654 0.66055
 H615 H 0.10827 0.16270 0.71003
 N616 N 0.16472 0.17876 0.62162
 N617 N 0.17928 0.16424 0.62155
 C618 C 0.19315 0.16859 0.60654
 C619 C 0.18708 0.18672 0.59680
 C620 C 0.16898 0.19272 0.60666
 H621 H 0.20737 0.16002 0.60377
 H622 H 0.16038 0.20693 0.60399
 H623 H 0.16736 0.16673 0.65873
 H624 H 0.14989 0.14927 0.64377
 N625 N 0.31929 0.62299 0.33404
 N626 N 0.33287 0.62430 0.31887
 C627 C 0.32849 0.60984 0.30452
 C628 C 0.31133 0.59885 0.31110
 C629 C 0.30589 0.60753 0.32991
 H630 H 0.33664 0.60789 0.29000
 H631 H 0.29255 0.60363 0.33931
 Cu632 Cu 0.35412 0.64563 0.31873
 Cu633 Cu 0.31849 0.64308 0.35659
 Cu634 Cu 0.35669 0.68103 0.35673
 N635 N 0.37552 0.66679 0.31896
 N636 N 0.37686 0.68027 0.33417
 C637 C 0.39236 0.69365 0.33004
 C638 C 0.40103 0.68831 0.31119
 C639 C 0.39001 0.67123 0.30459
 H640 H 0.39628 0.70695 0.33945
 H641 H 0.39195 0.66318 0.29003
 N642 N 0.33479 0.67923 0.37808
 N643 N 0.32024 0.66483 0.37798
 C644 C 0.30631 0.66912 0.39298
 C645 C 0.31234 0.68707 0.40292
 C646 C 0.33048 0.69302 0.39318
 H647 H 0.29214 0.66059 0.39569
 H648 H 0.33911 0.70709 0.39604
 H649 H 0.33243 0.66739 0.34085
 H650 H 0.34981 0.64978 0.35598
 N651 N 0.31954 0.12282 0.83379
 N652 N 0.33310 0.12425 0.81862
 C653 C 0.32886 0.10971 0.80430
 C654 C 0.31180 0.09857 0.81089
 C655 C 0.30629 0.10722 0.82970
 H656 H 0.33704 0.10780 0.78979
 H657 H 0.29300 0.10319 0.83912
 Cu658 Cu 0.35417 0.14575 0.81836
 Cu659 Cu 0.31861 0.14292 0.85634
 Cu660 Cu 0.35680 0.18082 0.85672
 N661 N 0.37559 0.16690 0.81883
 N662 N 0.37702 0.18018 0.83421
 C663 C 0.39256 0.19356 0.83020
 C664 C 0.40114 0.18844 0.81123
 C665 C 0.39003 0.17148 0.80447
 H666 H 0.39653 0.20674 0.83974
 H667 H 0.39190 0.16360 0.78981
 N668 N 0.33486 0.17898 0.87802
 N669 N 0.32023 0.16466 0.87775
 C670 C 0.30620 0.16898 0.89265
 C671 C 0.31226 0.18685 0.90272
 C672 C 0.33052 0.19273 0.89315
 H673 H 0.29197 0.16051 0.89522
 H674 H 0.33920 0.20674 0.89613
 H675 H 0.33248 0.16732 0.84070
 H676 H 0.34990 0.14956 0.85563
 N677 N 0.81962 0.62247 0.83457
 N678 N 0.83333 0.62363 0.81950
 C679 C 0.82890 0.60918 0.80514
 C680 C 0.81160 0.59836 0.81162
 C681 C 0.80612 0.60712 0.83038
 H682 H 0.83711 0.60716 0.79066
 H683 H 0.79264 0.60340 0.83966
 Cu684 Cu 0.85461 0.64493 0.81941
 Cu685 Cu 0.81866 0.64276 0.85698
 Cu686 Cu 0.85669 0.68092 0.85679
 N687 N 0.87588 0.66623 0.81932
 N688 N 0.87700 0.67997 0.83431
 C689 C 0.89238 0.69344 0.83005
 C690 C 0.90122 0.68790 0.81132
 C691 C 0.89040 0.67058 0.80495
 H692 H 0.89612 0.70691 0.83928
 H693 H 0.89250 0.66230 0.79054
 N694 N 0.83472 0.67927 0.87808
 N695 N 0.82028 0.66476 0.87816
 C696 C 0.80636 0.66910 0.89317
 C697 C 0.81227 0.68722 0.90288
 C698 C 0.83034 0.69320 0.89303
 H699 H 0.79228 0.66047 0.89604
 H700 H 0.83890 0.70733 0.89578
 H701 H 0.83245 0.66701 0.84088
 H702 H 0.84979 0.64976 0.85644
 N703 N 0.81951 0.12288 0.33408
 N704 N 0.83294 0.12435 0.31880
 C705 C 0.82856 0.10988 0.30446
 C706 C 0.81157 0.09872 0.31115
 C707 C 0.80622 0.10730 0.33003
 H708 H 0.83660 0.10804 0.28986
 H709 H 0.79297 0.10327 0.33952
 Cu710 Cu 0.85402 0.14585 0.31842
 Cu711 Cu 0.81870 0.14297 0.35663
 Cu712 Cu 0.85670 0.18107 0.35659
 N713 N 0.87540 0.16703 0.31871
 N714 N 0.87681 0.18041 0.33399
 C715 C 0.89234 0.19378 0.32991
 C716 C 0.90096 0.18853 0.31101
 C717 C 0.88987 0.17151 0.30434
 H718 H 0.89632 0.20699 0.33940
 H719 H 0.89177 0.16352 0.28975
 N720 N 0.83492 0.17921 0.37802
 N721 N 0.82043 0.16476 0.37799
 C722 C 0.80651 0.16907 0.39300
 C723 C 0.81250 0.18709 0.40285
 C724 C 0.83061 0.19305 0.39307
 H725 H 0.79237 0.16051 0.39576
 H726 H 0.83921 0.20714 0.39589
 H727 H 0.83232 0.16740 0.34079
 H728 H 0.84994 0.14981 0.35569
 N729 N 0.68031 0.37674 0.33368
 N730 N 0.66687 0.37531 0.31845
 C731 C 0.67128 0.38979 0.30406
 C732 C 0.68829 0.40091 0.31067
 C733 C 0.69364 0.39229 0.32955
 H734 H 0.66322 0.39168 0.28950
 H735 H 0.70689 0.39628 0.33898
 Cu736 Cu 0.64574 0.35388 0.31827
 Cu737 Cu 0.68107 0.35664 0.35630
 Cu738 Cu 0.64308 0.31853 0.35643
 N739 N 0.62437 0.33266 0.31859
 N740 N 0.62299 0.31924 0.33388
 C741 C 0.60753 0.30582 0.32984
 C742 C 0.59892 0.31107 0.31095
 C743 C 0.60996 0.32815 0.30424
 H744 H 0.60359 0.29255 0.33933
 H745 H 0.60807 0.33614 0.28962
 N746 N 0.66486 0.32036 0.37778
 N747 N 0.67931 0.33485 0.37774
 C748 C 0.69319 0.33055 0.39277
 C749 C 0.68723 0.31247 0.40261
 C750 C 0.66919 0.30648 0.39281
 H751 H 0.70730 0.33914 0.39552
 H752 H 0.66064 0.29233 0.39561
 H753 H 0.66738 0.33226 0.34056
 H754 H 0.64979 0.34980 0.35554
 N755 N 0.68013 0.87719 0.83424
 N756 N 0.66671 0.87584 0.81899
 C757 C 0.67108 0.89045 0.80473
 C758 C 0.68808 0.90156 0.81142
 C759 C 0.69343 0.89280 0.83024
 H760 H 0.66303 0.89243 0.79017
 H761 H 0.70667 0.89675 0.83970
 Cu762 Cu 0.64565 0.85432 0.81850
 Cu763 Cu 0.68083 0.85700 0.85676
 Cu764 Cu 0.64279 0.81897 0.85672
 N765 N 0.62415 0.83322 0.81893
 N766 N 0.62270 0.81976 0.83418
 C767 C 0.60715 0.80644 0.83012
 C768 C 0.59854 0.81181 0.81125
 C769 C 0.60967 0.82885 0.80459
 H770 H 0.60316 0.79317 0.83958
 H771 H 0.60780 0.83691 0.79001
 N772 N 0.66455 0.82065 0.87810
 N773 N 0.67903 0.83512 0.87811
 C774 C 0.69288 0.83075 0.89314
 C775 C 0.68687 0.81267 0.90295
 C776 C 0.66883 0.80673 0.89311
 H777 H 0.70701 0.83931 0.89593
 H778 H 0.66024 0.79260 0.89586
 H779 H 0.66737 0.83253 0.84078
 H780 H 0.64973 0.85011 0.85567
 N781 N 0.18001 0.37677 0.83398
 N782 N 0.16670 0.37521 0.81864
 C783 C 0.17122 0.38959 0.80418
 C784 C 0.18816 0.40079 0.81086
 C785 C 0.19333 0.39233 0.82986
 H786 H 0.16331 0.39135 0.78953
 H787 H 0.20649 0.39641 0.83937
 Cu788 Cu 0.14556 0.35378 0.81840
 Cu789 Cu 0.18076 0.35667 0.85661
 Cu790 Cu 0.14285 0.31850 0.85662
 N791 N 0.12411 0.33265 0.81882
 N792 N 0.12272 0.31924 0.83413
 C793 C 0.10718 0.30589 0.83016
 C794 C 0.09852 0.31116 0.81130
 C795 C 0.10960 0.32819 0.80453
 H796 H 0.10322 0.29266 0.83969
 H797 H 0.10770 0.33618 0.78992
 N798 N 0.16464 0.32028 0.87795
 N799 N 0.17901 0.33485 0.87804
 C800 C 0.19282 0.33057 0.89313
 C801 C 0.18692 0.31241 0.90287
 C802 C 0.16897 0.30635 0.89294
 H803 H 0.20687 0.33924 0.89600
 H804 H 0.16047 0.29217 0.89565
 H805 H 0.16722 0.33224 0.84080
 H806 H 0.14953 0.34977 0.85569
 N807 N 0.18036 0.87677 0.33420
 N808 N 0.16683 0.87551 0.31904
 C809 C 0.17125 0.89004 0.30470
 C810 C 0.18839 0.90101 0.31128
 C811 C 0.19377 0.89225 0.33009
 H812 H 0.16315 0.89204 0.29018
 H813 H 0.20709 0.89611 0.33947
 Cu814 Cu 0.14563 0.85414 0.31885
 Cu815 Cu 0.18117 0.85653 0.35670
 Cu816 Cu 0.14316 0.81839 0.35660
 N817 N 0.12431 0.83289 0.31896
 N818 N 0.12301 0.81928 0.33409
 C819 C 0.10753 0.80591 0.32997
 C820 C 0.09881 0.81139 0.31119
 C821 C 0.10981 0.82855 0.30463
 H822 H 0.10363 0.79255 0.33935
 H823 H 0.10783 0.83674 0.29013
 N824 N 0.16498 0.82007 0.37794
 N825 N 0.17942 0.83458 0.37800
 C826 C 0.19324 0.83025 0.39307
 C827 C 0.18726 0.81215 0.40284
 C828 C 0.16926 0.80616 0.39295
 H829 H 0.20733 0.83886 0.39591
 H830 H 0.16068 0.79203 0.39572
 H831 H 0.16743 0.83233 0.34081
 H832 H 0.14991 0.84968 0.35607
 C833 C 0.26303 0.95600 0.23641
 C834 C 0.24970 0.94541 0.24979
 C835 C 0.23649 0.95606 0.26330
 C836 C 0.23654 0.97800 0.26363
 C837 C 0.24992 0.98897 0.25001
 C838 C 0.26321 0.97793 0.23630
 C839 C 0.27643 0.98909 0.22304
 C840 C 0.27650 1.01072 0.22310
 C841 C 0.26336 1.02197 0.23644
 C842 C 0.25000 1.01100 0.25009
 C843 C 0.22339 0.98924 0.27696
 C844 C 0.22349 1.01088 0.27705
 C845 C 0.23671 1.02204 0.26379
 C846 C 0.23685 1.04398 0.26365
 C847 C 0.25015 1.05456 0.25024
 C848 C 0.26337 1.04391 0.23673
 H849 H 0.28687 0.98116 0.21250
 H850 H 0.28699 1.01858 0.21261
 H851 H 0.21286 0.98139 0.28741
 H852 H 0.21304 1.01880 0.28758
 H853 H 0.24963 0.92855 0.24970
 H854 H 0.25020 1.07142 0.25029
 C855 C 0.23659 0.45568 0.76293
 C856 C 0.24947 0.44514 0.74900
 C857 C 0.26336 0.45578 0.73624
 C858 C 0.26410 0.47769 0.73683
 C859 C 0.25080 0.48865 0.75059
 C860 C 0.23712 0.47761 0.76386
 C861 C 0.22401 0.48880 0.77729
 C862 C 0.22423 0.51043 0.77760
 C863 C 0.23755 0.52166 0.76450
 C864 C 0.25098 0.51068 0.75087
 C865 C 0.27750 0.48891 0.72380
 C866 C 0.27768 0.51054 0.72408
 C867 C 0.26443 0.52172 0.73737
 C868 C 0.26435 0.54366 0.73767
 C869 C 0.25100 0.55424 0.75110
 C870 C 0.23763 0.54360 0.76439
 H871 H 0.21330 0.48092 0.78754
 H872 H 0.21373 0.51831 0.78812
 H873 H 0.28785 0.48105 0.71313
 H874 H 0.28825 0.51845 0.71371
 H875 H 0.24894 0.42831 0.74833
 H876 H 0.25097 0.57110 0.75116
 C877 C 0.76306 -0.04421 0.26423
 C878 C 0.74966 -0.05482 0.25103
 C879 C 0.73666 -0.04420 0.23730
 C880 C 0.73685 -0.02226 0.23675
 C881 C 0.75022 -0.01127 0.25029
 C882 C 0.76342 -0.02229 0.26407
 C883 C 0.77661 -0.01112 0.27728
 C884 C 0.77676 0.01051 0.27705
 C885 C 0.76369 0.02174 0.26364
 C886 C 0.75034 0.01076 0.25008
 C887 C 0.72381 -0.01103 0.22331
 C888 C 0.72394 0.01060 0.22310
 C889 C 0.73711 0.02177 0.23632
 C890 C 0.73732 0.04370 0.23630
 C891 C 0.75064 0.05431 0.24958
 C892 C 0.76377 0.04368 0.26318
 H893 H 0.78693 -0.01905 0.28792
 H894 H 0.78726 0.01838 0.28747
 H895 H 0.71332 -0.01889 0.21288
 H896 H 0.71357 0.01851 0.21249
 H897 H 0.74946 -0.07167 0.25133
 H898 H 0.75073 0.07117 0.24939
 C899 C 0.76251 0.45609 0.76403
 C900 C 0.74910 0.44554 0.75079
 C901 C 0.73591 0.45624 0.73730
 C902 C 0.73596 0.47818 0.73697
 C903 C 0.74939 0.48910 0.75050
 C904 C 0.76273 0.47802 0.76410
 C905 C 0.77597 0.48913 0.77731
 C906 C 0.77607 0.51077 0.77723
 C907 C 0.76295 0.52206 0.76391
 C908 C 0.74950 0.51113 0.75041
 C909 C 0.72282 0.48946 0.72368
 C910 C 0.72295 0.51109 0.72357
 C911 C 0.73619 0.52221 0.73677
 C912 C 0.73646 0.54413 0.73678
 C913 C 0.74993 0.55469 0.74996
 C914 C 0.76311 0.54401 0.76348
 H915 H 0.78641 0.48115 0.78780
 H916 H 0.78658 0.51858 0.78767
 H917 H 0.71230 0.48164 0.71325
 H918 H 0.71257 0.51905 0.71301
 H919 H 0.74901 0.42869 0.75090
 H920 H 0.75006 0.57154 0.74976
 C921 C 0.26317 0.45601 0.26357
 C922 C 0.24993 0.44543 0.25018
 C923 C 0.23675 0.45609 0.23666
 C924 C 0.23675 0.47802 0.23632
 C925 C 0.25006 0.48898 0.24995
 C926 C 0.26329 0.47794 0.26368
 C927 C 0.27646 0.48909 0.27693
 C928 C 0.27653 0.51072 0.27681
 C929 C 0.26343 0.52197 0.26346
 C930 C 0.25012 0.51101 0.24984
 C931 C 0.22365 0.48927 0.22297
 C932 C 0.22371 0.51091 0.22286
 C933 C 0.23688 0.52206 0.23611
 C934 C 0.23701 0.54399 0.23620
 C935 C 0.25026 0.55457 0.24958
 C936 C 0.26343 0.54391 0.26311
 H937 H 0.28686 0.48116 0.28749
 H938 H 0.28700 0.51857 0.28726
 H939 H 0.21319 0.48143 0.21250
 H940 H 0.21329 0.51883 0.21231
 H941 H 0.24991 0.42857 0.25026
 H942 H 0.25029 0.57142 0.24949
 C943 C 0.76280 0.95654 0.73663
 C944 C 0.74939 0.94599 0.74995
 C945 C 0.73622 0.95666 0.76349
 C946 C 0.73639 0.97860 0.76388
 C947 C 0.74986 0.98953 0.75031
 C948 C 0.76310 0.97847 0.73658
 C949 C 0.77641 0.98959 0.72337
 C950 C 0.77664 1.01122 0.72353
 C951 C 0.76361 1.02249 0.73695
 C952 C 0.75010 1.01157 0.75048
 C953 C 0.72331 0.98988 0.77724
 C954 C 0.72356 1.01152 0.77742
 C955 C 0.73686 1.02264 0.76419
 C956 C 0.73726 1.04456 0.76422
 C957 C 0.75078 1.05512 0.75101
 C958 C 0.76388 1.04443 0.73743
 H959 H 0.78682 0.98164 0.71282
 H960 H 0.78718 1.01904 0.71307
 H961 H 0.71273 0.98206 0.78767
 H962 H 0.71323 1.01948 0.78804
 H963 H 0.74925 0.92913 0.74982
 H964 H 0.75096 1.07197 0.75117
 C965 C 0.76271 0.45620 0.23574
 C966 C 0.74930 0.44554 0.24897
 C967 C 0.73619 0.45611 0.26265
 C968 C 0.73639 0.47804 0.26326
 C969 C 0.74983 0.48908 0.24976
 C970 C 0.76304 0.47813 0.23591
 C971 C 0.77634 0.48936 0.22279
 C972 C 0.77656 0.51099 0.22312
 C973 C 0.76350 0.52216 0.23661
 C974 C 0.75007 0.51111 0.25011
 C975 C 0.72332 0.48920 0.27673
 C976 C 0.72357 0.51083 0.27710
 C977 C 0.73687 0.52206 0.26397
 C978 C 0.73722 0.54399 0.26418
 C979 C 0.75065 0.55466 0.25097
 C980 C 0.76371 0.54410 0.23723
 H981 H 0.78671 0.48149 0.21214
 H982 H 0.78713 0.51889 0.21275
 H983 H 0.71273 0.48130 0.28708
 H984 H 0.71322 0.51870 0.28777
 H985 H 0.74915 0.42868 0.24871
 H986 H 0.75083 0.57151 0.25127
 C987 C 0.26416 -0.04463 0.76372
 C988 C 0.25056 -0.05528 0.75075
 C989 C 0.23747 -0.04471 0.73707
 C990 C 0.23769 -0.02277 0.73640
 C991 C 0.25119 -0.01174 0.74977
 C992 C 0.26454 -0.02271 0.76345
 C993 C 0.27780 -0.01149 0.77655
 C994 C 0.27784 0.01014 0.77636
 C995 C 0.26458 0.02132 0.76310
 C996 C 0.25123 0.01030 0.74958
 C997 C 0.22452 -0.01158 0.72306
 C998 C 0.22459 0.01006 0.72283
 C999 C 0.23782 0.02127 0.73595
 C1000 C 0.23782 0.04321 0.73608
 C1001 C 0.25108 0.05385 0.74940
 C1002 C 0.26442 0.04326 0.76281
 H1003 H 0.28821 -0.01938 0.78713
 H1004 H 0.28835 0.01804 0.78673
 H1005 H 0.21392 -0.01947 0.71277
 H1006 H 0.21409 0.01793 0.71234
 H1007 H 0.25029 -0.07213 0.75119
 H1008 H 0.25098 0.07071 0.74936
 C1009 C 0.26296 0.23613 0.95596
 C1010 C 0.24935 0.24936 0.94537
 C1011 C 0.23619 0.26299 0.95599
 C1012 C 0.23632 0.26337 0.97787
 C1013 C 0.24995 0.24991 0.98882
 C1014 C 0.26338 0.23628 0.97784
 C1015 C 0.27674 0.22307 0.98900
 C1016 C 0.27692 0.22323 1.01057
 C1017 C 0.26373 0.23660 1.02175
 C1018 C 0.25012 0.25006 1.01079
 C1019 C 0.22314 0.27673 0.98905
 C1020 C 0.22330 0.27688 1.01062
 C1021 C 0.23667 0.26368 1.02177
 C1022 C 0.23703 0.26375 1.04364
 C1023 C 0.25060 0.25051 1.05424
 C1024 C 0.26383 0.23694 1.04362
 H1025 H 0.28716 0.21244 0.98113
 H1026 H 0.28752 0.21278 1.01842
 H1027 H 0.21253 0.28718 0.98121
 H1028 H 0.21285 0.28747 1.01849
 H1029 H 0.24912 0.24915 0.92858
 H1030 H 0.25078 0.25068 1.07104
 C1031 C 0.23686 0.76353 0.54400
 C1032 C 0.25040 0.75026 0.55461
 C1033 C 0.26368 0.73672 0.54401
 C1034 C 0.26362 0.73640 0.52213
 C1035 C 0.25002 0.74987 0.51116
 C1036 C 0.23655 0.76347 0.52213
 C1037 C 0.22321 0.77669 0.51095
 C1038 C 0.22310 0.77658 0.48939
 C1039 C 0.23632 0.76324 0.47822
 C1040 C 0.24991 0.74976 0.48919
 C1041 C 0.27684 0.72305 0.51096
 C1042 C 0.27674 0.72295 0.48939
 C1043 C 0.26341 0.73618 0.47822
 C1044 C 0.26313 0.73617 0.45635
 C1045 C 0.24961 0.74945 0.44574
 C1046 C 0.23630 0.76295 0.45634
 H1047 H 0.21274 0.78728 0.51881
 H1048 H 0.21253 0.78706 0.48152
 H1049 H 0.28740 0.71257 0.51883
 H1050 H 0.28722 0.71238 0.48153
 H1051 H 0.25053 0.75041 0.57141
 H1052 H 0.24950 0.74934 0.42894
 C1053 C 0.23671 0.73693 0.04358
 C1054 C 0.25003 0.75028 0.05416
 C1055 C 0.26340 0.76359 0.04351
 C1056 C 0.26356 0.76369 0.02164
 C1057 C 0.25009 0.75022 0.01071
 C1058 C 0.23660 0.73677 0.02172
 C1059 C 0.22338 0.72354 0.01059
 C1060 C 0.22339 0.72353 -0.01097
 C1061 C 0.23663 0.73673 -0.02218
 C1062 C 0.25010 0.75020 -0.01125
 C1063 C 0.27680 0.77690 0.01043
 C1064 C 0.27681 0.77688 -0.01114
 C1065 C 0.26359 0.76365 -0.02226
 C1066 C 0.26350 0.76347 -0.04412
 C1067 C 0.25017 0.75013 -0.05470
 C1068 C 0.23678 0.73684 -0.04405
 H1069 H 0.21289 0.71307 0.01849
 H1070 H 0.21291 0.71305 -0.01880
 H1071 H 0.28727 0.78737 0.01826
 H1072 H 0.28730 0.78734 -0.01903
 H1073 H 0.25001 0.75029 0.07096
 H1074 H 0.25020 0.75011 -0.07150
 C1075 C 0.23629 0.23600 0.54388
 C1076 C 0.24965 0.24923 0.55456
 C1077 C 0.26300 0.26263 0.54401
 C1078 C 0.26317 0.26292 0.52214
 C1079 C 0.24970 0.24954 0.51111
 C1080 C 0.23619 0.23602 0.52201
 C1081 C 0.22298 0.22289 0.51078
 C1082 C 0.22303 0.22302 0.48922
 C1083 C 0.23629 0.23629 0.47812
 C1084 C 0.24976 0.24967 0.48915
 C1085 C 0.27643 0.27619 0.51104
 C1086 C 0.27648 0.27632 0.48948
 C1087 C 0.26327 0.26318 0.47825
 C1088 C 0.26317 0.26319 0.45638
 C1089 C 0.24983 0.24996 0.44570
 C1090 C 0.23647 0.23656 0.45626
 H1091 H 0.21247 0.21238 0.51860
 H1092 H 0.21255 0.21261 0.48131
 H1093 H 0.28691 0.28660 0.51896
 H1094 H 0.28698 0.28684 0.48166
 H1095 H 0.24963 0.24911 0.57136
 H1096 H 0.24985 0.25006 0.42890
 C1097 C 0.76294 0.73649 0.95605
 C1098 C 0.74950 0.74988 0.94548
 C1099 C 0.73612 0.76329 0.95612
 C1100 C 0.73608 0.76344 0.97800
 C1101 C 0.74965 0.74991 0.98893
 C1102 C 0.76314 0.73636 0.97793
 C1103 C 0.77645 0.72308 0.98906
 C1104 C 0.77652 0.72309 1.01063
 C1105 C 0.76332 0.73642 1.02184
 C1106 C 0.74974 0.74994 1.01090
 C1107 C 0.72284 0.77674 0.98921
 C1108 C 0.72295 0.77678 1.01077
 C1109 C 0.73628 0.76352 1.02191
 C1110 C 0.73656 0.76349 1.04378
 C1111 C 0.75004 0.75013 1.05435
 C1112 C 0.76332 0.73663 1.04371
 H1113 H 0.78695 0.71254 0.98117
 H1114 H 0.78706 0.71255 1.01846
 H1115 H 0.71229 0.78725 0.98137
 H1116 H 0.71248 0.78734 1.01867
 H1117 H 0.74947 0.74990 0.92868
 H1118 H 0.75015 0.75020 1.07115
 C1119 C 0.76314 0.23634 0.45604
 C1120 C 0.74972 0.24968 0.44537
 C1121 C 0.73637 0.26318 0.45593
 C1122 C 0.73627 0.26344 0.47780
 C1123 C 0.74979 0.24994 0.48883
 C1124 C 0.76330 0.23633 0.47791
 C1125 C 0.77658 0.22310 0.48915
 C1126 C 0.77661 0.22324 0.51072
 C1127 C 0.76336 0.23662 0.52183
 C1128 C 0.74982 0.25009 0.51080
 C1129 C 0.72302 0.27681 0.48892
 C1130 C 0.72305 0.27695 0.51048
 C1131 C 0.73633 0.26373 0.52171
 C1132 C 0.73659 0.26384 0.54359
 C1133 C 0.75007 0.25056 0.55425
 C1134 C 0.76333 0.23697 0.54370
 H1135 H 0.78708 0.21252 0.48133
 H1136 H 0.78715 0.21278 0.51863
 H1137 H 0.71251 0.28731 0.48101
 H1138 H 0.71257 0.28755 0.51831
 H1139 H 0.74970 0.24959 0.42857
 H1140 H 0.75017 0.25074 0.57105
 C1141 C 0.76331 0.26361 -0.04442
 C1142 C 0.74990 0.25036 -0.05500
 C1143 C 0.73663 0.23694 -0.04435
 C1144 C 0.73659 0.23671 -0.02247
 C1145 C 0.75010 0.25013 -0.01155
 C1146 C 0.76355 0.26363 -0.02255
 C1147 C 0.77681 0.27680 -0.01143
 C1148 C 0.77687 0.27674 0.01013
 C1149 C 0.76369 0.26349 0.02134
 C1150 C 0.75018 0.25006 0.01042
 C1151 C 0.72340 0.22345 -0.01126
 C1152 C 0.72348 0.22338 0.01031
 C1153 C 0.73674 0.23656 0.02143
 C1154 C 0.73700 0.23658 0.04330
 C1155 C 0.75041 0.24984 0.05386
 C1156 C 0.76366 0.26326 0.04320
 H1157 H 0.78727 0.28730 -0.01932
 H1158 H 0.78738 0.28719 0.01796
 H1159 H 0.71290 0.21301 -0.01909
 H1160 H 0.71303 0.21287 0.01821
 H1161 H 0.74982 0.25045 -0.07180
 H1162 H 0.75050 0.24976 0.07066
 C1163 C 0.76352 0.76342 0.45649
 C1164 C 0.75019 0.75006 0.44594
 C1165 C 0.73682 0.73678 0.45661
 C1166 C 0.73665 0.73672 0.47848
 C1167 C 0.75012 0.75021 0.48938
 C1168 C 0.76362 0.76363 0.47835
 C1169 C 0.77682 0.77690 0.48945
 C1170 C 0.77676 0.77701 0.51102
 C1171 C 0.76350 0.76384 0.52225
 C1172 C 0.75006 0.75031 0.51135
 C1173 C 0.72341 0.72354 0.48971
 C1174 C 0.72337 0.72363 0.51127
 C1175 C 0.73656 0.73690 0.52237
 C1176 C 0.73657 0.73720 0.54424
 C1177 C 0.74980 0.75066 0.55479
 C1178 C 0.76323 0.76388 0.54412
 H1179 H 0.78731 0.78734 0.48153
 H1180 H 0.78719 0.78754 0.51883
 H1181 H 0.71295 0.71304 0.48189
 H1182 H 0.71286 0.71320 0.51919
 H1183 H 0.75020 0.75003 0.42914
 H1184 H 0.74968 0.75079 0.57159
 C1185 C 1.04388 0.23741 0.26385
 C1186 C 1.05449 0.25074 0.25050
 C1187 C 1.04386 0.26388 0.23690
 C1188 C 1.02192 0.26379 0.23650
 C1189 C 1.01093 0.25041 0.25011
 C1190 C 1.02195 0.23718 0.26388
 C1191 C 1.01077 0.22393 0.27710
 C1192 C 0.98913 0.22375 0.27690
 C1193 C 0.97791 0.23684 0.26350
 C1194 C 0.98890 0.25025 0.24992
 C1195 C 1.01070 0.27688 0.22310
 C1196 C 0.98906 0.27673 0.22293
 C1197 C 0.97789 0.26347 0.23614
 C1198 C 0.95595 0.26319 0.23611
 C1199 C 0.94535 0.24981 0.24942
 C1200 C 0.95597 0.23669 0.26303
 H1201 H 1.01868 0.21354 0.28769
 H1202 H 0.98127 0.21319 0.28731
 H1203 H 1.01857 0.28739 0.21265
 H1204 H 0.98115 0.28712 0.21234
 H1205 H 1.07134 0.25084 0.25064
 H1206 H 0.92849 0.24966 0.24924
 C1207 C 0.45602 0.26380 0.73677
 C1208 C 0.44540 0.25005 0.74967
 C1209 C 0.45597 0.23705 0.76345
 C1210 C 0.47791 0.23740 0.76417
 C1211 C 0.48893 0.25100 0.75081
 C1212 C 0.47794 0.26437 0.73715
 C1213 C 0.48914 0.27770 0.72402
 C1214 C 0.51077 0.27774 0.72413
 C1215 C 0.52197 0.26442 0.73733
 C1216 C 0.51097 0.25103 0.75091
 C1217 C 0.48912 0.22419 0.77747
 C1218 C 0.51076 0.22425 0.77760
 C1219 C 0.52197 0.23752 0.76442
 C1220 C 0.54392 0.23742 0.76409
 C1221 C 0.55453 0.25072 0.75070
 C1222 C 0.54391 0.26418 0.73742
 H1223 H 0.48125 0.28811 0.71343
 H1224 H 0.51867 0.28826 0.71370
 H1225 H 0.48125 0.21351 0.78776
 H1226 H 0.51865 0.21367 0.78802
 H1227 H 0.42856 0.24964 0.74914
 H1228 H 0.57139 0.25059 0.75060
 C1229 C -0.04428 0.26313 0.76319
 C1230 C -0.05478 0.24997 0.74964
 C1231 C -0.04404 0.23639 0.73658
 C1232 C -0.02211 0.23609 0.73667
 C1233 C -0.01123 0.24942 0.75032
 C1234 C -0.02235 0.26291 0.76376
 C1235 C -0.01125 0.27606 0.77707
 C1236 C 0.01039 0.27595 0.77723
 C1237 C 0.02170 0.26270 0.76407
 C1238 C 0.01081 0.24933 0.75046
 C1239 C -0.01080 0.22282 0.72352
 C1240 C 0.01083 0.22272 0.72366
 C1241 C 0.02192 0.23594 0.73691
 C1242 C 0.04385 0.23601 0.73718
 C1243 C 0.05436 0.24932 0.75055
 C1244 C 0.04364 0.26266 0.76388
 H1245 H -0.01921 0.28666 0.78742
 H1246 H 0.01819 0.28644 0.78771
 H1247 H -0.01861 0.21241 0.71297
 H1248 H 0.01880 0.21218 0.71327
 H1249 H -0.07163 0.25022 0.74933
 H1250 H 0.07122 0.24934 0.75055
 C1251 C 0.45625 0.23617 0.23687
 C1252 C 0.44561 0.24938 0.25037
 C1253 C 0.45621 0.26261 0.26376
 C1254 C 0.47815 0.26268 0.26389
 C1255 C 0.48917 0.24939 0.25017
 C1256 C 0.47819 0.23611 0.23655
 C1257 C 0.48942 0.22297 0.22321
 C1258 C 0.51106 0.22299 0.22310
 C1259 C 0.52223 0.23616 0.23633
 C1260 C 0.51120 0.24942 0.25006
 C1261 C 0.48932 0.27585 0.27711
 C1262 C 0.51095 0.27590 0.27697
 C1263 C 0.52218 0.26276 0.26363
 C1264 C 0.54412 0.26279 0.26322
 C1265 C 0.55476 0.24962 0.24967
 C1266 C 0.54416 0.23632 0.23636
 H1267 H 0.48156 0.21253 0.21274
 H1268 H 0.51897 0.21257 0.21255
 H1269 H 0.48141 0.28629 0.28765
 H1270 H 0.51881 0.28640 0.28739
 H1271 H 0.42876 0.24940 0.25045
 H1272 H 0.57162 0.24970 0.24950
 C1273 C 1.04379 0.73678 0.76361
 C1274 C 1.05440 0.75019 0.75033
 C1275 C 1.04377 0.76337 0.73677
 C1276 C 1.02183 0.76324 0.73634
 C1277 C 1.01084 0.74980 0.74989
 C1278 C 1.02186 0.73653 0.76362
 C1279 C 1.01068 0.72324 0.77681
 C1280 C 0.98905 0.72310 0.77666
 C1281 C 0.97782 0.73622 0.76330
 C1282 C 0.98880 0.74964 0.74973
 C1283 C 1.01060 0.77637 0.72299
 C1284 C 0.98896 0.77621 0.72282
 C1285 C 0.97778 0.76294 0.73602
 C1286 C 0.95584 0.76275 0.73610
 C1287 C 0.94524 0.74936 0.74941
 C1288 C 0.95587 0.73614 0.76292
 H1289 H 1.01860 0.71280 0.78735
 H1290 H 0.98118 0.71257 0.78711
 H1291 H 1.01846 0.78693 0.71257
 H1292 H 0.98105 0.78664 0.71226
 H1293 H 1.07125 0.75033 0.75050
 H1294 H 0.92838 0.74929 0.74931
 C1295 C 0.45612 0.76279 0.23617
 C1296 C 0.44548 0.74946 0.24950
 C1297 C 0.45608 0.73628 0.26308
 C1298 C 0.47801 0.73635 0.26351
 C1299 C 0.48903 0.74973 0.24994
 C1300 C 0.47805 0.76300 0.23617
 C1301 C 0.48926 0.77622 0.22295
 C1302 C 0.51089 0.77634 0.22315
 C1303 C 0.52209 0.76323 0.23655
 C1304 C 0.51107 0.74985 0.25013
 C1305 C 0.48920 0.72323 0.27691
 C1306 C 0.51084 0.72336 0.27712
 C1307 C 0.52205 0.73660 0.26392
 C1308 C 0.54398 0.73682 0.26394
 C1309 C 0.55462 0.75017 0.25063
 C1310 C 0.54402 0.76332 0.23701
 H1311 H 0.48137 0.78663 0.21236
 H1312 H 0.51878 0.78687 0.21271
 H1313 H 0.48131 0.71268 0.28732
 H1314 H 0.51872 0.71296 0.28772
 H1315 H 0.42862 0.74938 0.24934
 H1316 H 0.57147 0.75029 0.25082
 C1317 C -0.04414 0.76367 0.26329
 C1318 C -0.05470 0.75044 0.24988
 C1319 C -0.04403 0.73718 0.23644
 C1320 C -0.02209 0.73711 0.23619
 C1321 C -0.01115 0.75040 0.24984
 C1322 C -0.02220 0.76371 0.26350
 C1323 C -0.01106 0.77684 0.27679
 C1324 C 0.01058 0.77683 0.27678
 C1325 C 0.02184 0.76367 0.26348
 C1326 C 0.01089 0.75039 0.24982
 C1327 C -0.01083 0.72396 0.22289
 C1328 C 0.01081 0.72396 0.22287
 C1329 C 0.02195 0.73710 0.23615
 C1330 C 0.04388 0.73715 0.23635
 C1331 C 0.05445 0.75036 0.24978
 C1332 C 0.04378 0.76360 0.26323
 H1333 H -0.01899 0.78729 0.28731
 H1334 H 0.01842 0.78727 0.28727
 H1335 H -0.01866 0.71352 0.21239
 H1336 H 0.01875 0.71351 0.21236
 H1337 H -0.07156 0.75046 0.24990
 H1338 H 0.07131 0.75034 0.24975
 C1339 C 0.45566 0.73699 0.73738
 C1340 C 0.44507 0.75016 0.75098
 C1341 C 0.45572 0.76371 0.76400
 C1342 C 0.47764 0.76396 0.76388
 C1343 C 0.48863 0.75052 0.75028
 C1344 C 0.47760 0.73707 0.73686
 C1345 C 0.48880 0.72384 0.72357
 C1346 C 0.51043 0.72387 0.72340
 C1347 C 0.52164 0.73708 0.73654
 C1348 C 0.51066 0.75051 0.75015
 C1349 C 0.48885 0.77720 0.77699
 C1350 C 0.51049 0.77721 0.77685
 C1351 C 0.52169 0.76393 0.76361
 C1352 C 0.54364 0.76388 0.76320
 C1353 C 0.55423 0.75062 0.74969
 C1354 C 0.54357 0.73722 0.73652
 H1355 H 0.48092 0.71329 0.71323
 H1356 H 0.51832 0.71339 0.71288
 H1357 H 0.48096 0.78768 0.78752
 H1358 H 0.51837 0.78776 0.78719
 H1359 H 0.42821 0.74999 0.75131
 H1360 H 0.57108 0.75064 0.74947
 N1361 N 0.42719 0.28300 0.30852
 C1362 C 0.41686 0.29931 0.29997
 N1363 N 0.42029 0.30403 0.27977
 N1364 N 0.43334 0.29267 0.26843
 C1365 C 0.44361 0.27635 0.27695
 N1366 N 0.44037 0.27170 0.29720
 N1367 N 0.42315 0.80723 0.78176
 C1368 C 0.41641 0.80026 0.80046
 N1369 N 0.42356 0.78168 0.80754
 N1370 N 0.43666 0.77034 0.79621
 C1371 C 0.44320 0.77725 0.77747
 N1372 N 0.43626 0.79588 0.77044
 N1373 N -0.08101 0.30411 0.77863
 C1374 C -0.08360 0.30020 0.79912
 N1375 N -0.07253 0.28455 0.80799
 N1376 N -0.05942 0.27314 0.79670
 C1377 C -0.05698 0.27699 0.77618
 N1378 N -0.06803 0.29262 0.76733
 N1379 N -0.08002 0.80511 0.27944
 C1380 C -0.08335 0.80040 0.29966
 N1381 N -0.07302 0.78405 0.30814
 N1382 N -0.05992 0.77273 0.29675
 C1383 C -0.05676 0.77738 0.27650
 N1384 N -0.06705 0.79372 0.26803
 N1385 N 0.57922 0.69498 0.28047
 C1386 C 0.58317 0.70020 0.30042
 N1387 N 0.57342 0.71702 0.30865
 N1388 N 0.56031 0.72832 0.29725
 C1389 C 0.55654 0.72315 0.27726
 N1390 N 0.56621 0.70632 0.26905
 N1391 N 0.58000 0.19585 0.77955
 C1392 C 0.58324 0.20018 0.79985
 N1393 N 0.57275 0.21628 0.80860
 N1394 N 0.55960 0.22773 0.79741
 C1395 C 0.55652 0.22346 0.77709
 N1396 N 0.56697 0.20737 0.76834
 N1397 N 1.07313 0.71676 0.80827
 C1398 C 1.08319 0.70020 0.79988
 N1399 N 1.07946 0.69520 0.77983
 N1400 N 1.06637 0.70650 0.76848
 C1401 C 1.05639 0.72308 0.77684
 N1402 N 1.05994 0.72801 0.79694
 N1403 N 1.07301 0.21717 0.30858
 C1404 C 1.08310 0.20064 0.30015
 N1405 N 1.07948 0.19577 0.28005
 N1406 N 1.06649 0.20716 0.26868
 C1407 C 1.05647 0.22369 0.27708
 N1408 N 1.05990 0.22851 0.29723
 N1409 N 0.57936 0.30556 0.72090
 C1410 C 0.58311 0.30048 0.70084
 N1411 N 0.57315 0.28392 0.69256
 N1412 N 0.56005 0.27274 0.70400
 C1413 C 0.55648 0.27776 0.72410
 N1414 N 0.56637 0.29432 0.73236
 N1415 N 0.57273 0.78406 0.19222
 C1416 C 0.58343 0.79992 0.20094
 N1417 N 0.58035 0.80423 0.22127
 N1418 N 0.56730 0.79293 0.23258
 C1419 C 0.55664 0.77707 0.22389
 N1420 N 0.55954 0.77282 0.20351
 N1421 N 1.07274 0.28427 0.19207
 C1422 C 1.08334 0.30026 0.20069
 N1423 N 1.08011 0.30479 0.22095
 N1424 N 1.06701 0.29357 0.23229
 C1425 C 1.05646 0.27758 0.22371
 N1426 N 1.05951 0.27312 0.20339
 N1427 N 1.07249 0.78416 0.69202
 C1428 C 1.08319 0.80002 0.70075
 N1429 N 1.08009 0.80433 0.72108
 N1430 N 1.06702 0.79302 0.73237
 C1431 C 1.05637 0.77716 0.72367
 N1432 N 1.05929 0.77292 0.70329
 N1433 N 0.41941 0.69609 0.72159
 C1434 C 0.41642 0.70049 0.70126
 N1435 N 0.42713 0.71641 0.69257
 N1436 N 0.44025 0.72762 0.70389
 C1437 C 0.44306 0.72329 0.72427
 N1438 N 0.43239 0.70737 0.73293
 N1439 N 0.42723 0.21607 0.19218
 C1440 C 0.41680 0.19992 0.20077
 N1441 N 0.42019 0.19518 0.22096
 N1442 N 0.43329 0.20636 0.23226
 C1443 C 0.44367 0.22252 0.22370
 N1444 N 0.44046 0.22719 0.20346
 N1445 N -0.07989 0.69595 0.22068
 C1446 C -0.08335 0.70061 0.20048
 N1447 N -0.07303 0.71682 0.19184
 N1448 N -0.05986 0.72805 0.20307
 C1449 C -0.05659 0.72345 0.22332
 N1450 N -0.06685 0.70724 0.23193
 N1451 N -0.07430 0.21737 0.69230
 C1452 C -0.08276 0.19972 0.70008
 N1453 N -0.07766 0.19370 0.71959
 N1454 N -0.06480 0.20508 0.73100
 C1455 C -0.05646 0.22277 0.72324
 N1456 N -0.06139 0.22872 0.70369
 N1457 N 0.30454 0.42006 0.27968
 C1458 C 0.29976 0.41662 0.29986
 N1459 N 0.28341 0.42695 0.30836
 N1460 N 0.27215 0.44012 0.29701
 C1461 C 0.27686 0.44338 0.27678
 N1462 N 0.29321 0.43311 0.26831
 N1463 N 0.28202 -0.07665 0.80739
 C1464 C 0.30062 -0.08380 0.80038
 N1465 N 0.30763 -0.07711 0.78168
 N1466 N 0.29630 -0.06406 0.77029
 C1467 C 0.27764 -0.05712 0.77725
 N1468 N 0.27069 -0.06359 0.79600
 N1469 N 0.80512 0.42182 0.78051
 C1470 C 0.79900 0.41621 0.79985
 N1471 N 0.78135 0.42472 0.80778
 N1472 N 0.77009 0.43807 0.79665
 C1473 C 0.77615 0.44345 0.77725
 N1474 N 0.79384 0.43511 0.76937
 N1475 N 0.78133 -0.07585 0.30802
 C1476 C 0.79937 -0.08387 0.30048
 N1477 N 0.80590 -0.07787 0.28139
 N1478 N 0.79466 -0.06464 0.27013
 C1479 C 0.77657 -0.05680 0.27763
 N1480 N 0.77010 -0.06259 0.29677
 N1481 N 0.30514 0.57994 0.72147
 C1482 C 0.30046 0.58319 0.70124
 N1483 N 0.28441 0.57260 0.69274
 N1484 N 0.27334 0.55936 0.70413
 C1485 C 0.27795 0.55629 0.72441
 N1486 N 0.29400 0.56683 0.73289
 N1487 N 0.30450 1.07993 0.22081
 C1488 C 0.29994 1.08327 0.20057
 N1489 N 0.28385 1.07282 0.19196
 N1490 N 0.27262 1.05963 0.20326
 C1491 C 0.27711 1.05648 0.22355
 N1492 N 0.29321 1.06687 0.23213
 N1493 N 0.80440 0.58068 0.22144
 C1494 C 0.80014 0.58360 0.20108
 N1495 N 0.78439 0.57272 0.19237
 N1496 N 0.77323 0.55950 0.20369
 C1497 C 0.77742 0.55675 0.22410
 N1498 N 0.79316 0.56760 0.23278
 N1499 N 0.78406 1.07326 0.69250
 C1500 C 0.80070 1.08311 0.70075
 N1501 N 0.80567 1.07948 0.72085
 N1502 N 0.79426 1.06669 0.73237
 C1503 C 0.77760 1.05690 0.72413
 N1504 N 0.77271 1.06035 0.70399
 N1505 N 0.69492 0.57858 0.28092
 C1506 C 0.70048 0.58307 0.30066
 N1507 N 0.71770 0.57387 0.30871
 N1508 N 0.72906 0.56081 0.29733
 C1509 C 0.72356 0.55650 0.27753
 N1510 N 0.70632 0.56560 0.26952
 N1511 N 0.69442 1.07839 0.78113
 C1512 C 0.70081 1.08432 0.80025
 N1513 N 0.71875 1.07621 0.80789
 N1514 N 0.73003 1.06292 0.79669
 C1515 C 0.72369 1.05720 0.77753
 N1516 N 0.70570 1.06514 0.76993
 N1517 N 0.19595 0.57942 0.78009
 C1518 C 0.20063 0.58303 0.80024
 N1519 N 0.21697 0.57281 0.80887
 N1520 N 0.22834 0.55960 0.79767
 C1521 C 0.22373 0.55617 0.77747
 N1522 N 0.20738 0.56632 0.76887
 N1523 N 0.19546 1.07993 0.27980
 C1524 C 0.20019 1.08331 0.29998
 N1525 N 0.21651 1.07294 0.30846
 N1526 N 0.22780 1.05979 0.29710
 C1527 C 0.22314 1.05660 0.27687
 N1528 N 0.20681 1.06690 0.26841
 N1529 N 0.69466 0.42063 0.72100
 C1530 C 0.69967 0.41705 0.70089
 N1531 N 0.71611 0.42720 0.69250
 N1532 N 0.72724 0.44032 0.70388
 C1533 C 0.72230 0.44372 0.72403
 N1534 N 0.70586 0.43363 0.73240
 N1535 N 0.71625 -0.07278 0.19245
 C1536 C 0.70032 -0.08351 0.20111
 N1537 N 0.69586 -0.08049 0.22143
 N1538 N 0.70708 -0.06747 0.23277
 C1539 C 0.72300 -0.05678 0.22414
 N1540 N 0.72740 -0.05963 0.20378
 N1541 N 0.21642 0.42721 0.19198
 C1542 C 0.20027 0.41679 0.20061
 N1543 N 0.19562 0.42014 0.22083
 N1544 N 0.20689 0.43318 0.23212
 C1545 C 0.22305 0.44353 0.22352
 N1546 N 0.22762 0.44037 0.20325
 N1547 N 0.19656 -0.08110 0.72161
 C1548 C 0.20066 -0.08388 0.70119
 N1549 N 0.21638 -0.07301 0.69235
 N1550 N 0.22769 -0.05992 0.70360
 C1551 C 0.22366 -0.05731 0.72407
 N1552 N 0.20794 -0.06815 0.73288
 N1553 N 0.28133 0.30706 0.42475
 C1554 C 0.30035 0.30033 0.41850
 N1555 N 0.30740 0.28166 0.42541
 N1556 N 0.29577 0.27006 0.43795
 C1557 C 0.27672 0.27675 0.44403
 N1558 N 0.26970 0.29545 0.43727
 N1559 N 0.28192 0.80752 -0.07533
 C1560 C 0.30059 0.80044 -0.08221
 N1561 N 0.30734 0.78146 -0.07587
 N1562 N 0.29574 0.76988 -0.06330
 C1563 C 0.27703 0.77693 -0.05656
 N1564 N 0.27033 0.79595 -0.06274
 N1565 N 0.78115 0.30742 -0.07631
 C1566 C 0.80043 0.30103 -0.08210
 N1567 N 0.80771 0.28257 -0.07487
 N1568 N 0.79607 0.27086 -0.06245
 C1569 C 0.77676 0.27722 -0.05683
 N1570 N 0.76950 0.29571 -0.06391
 N1571 N 0.78161 0.80742 0.42504
 C1572 C 0.80047 0.80057 0.41843
 N1573 N 0.80742 0.78174 0.42499
 N1574 N 0.79586 0.77011 0.43756
 C1575 C 0.77698 0.77694 0.44403
 N1576 N 0.77005 0.79579 0.43760
 N1577 N 0.69226 0.28282 0.57436
 C1578 C 0.69963 0.30102 0.58193
 N1579 N 0.71889 0.30732 0.57614
 N1580 N 0.73044 0.29575 0.56345
 C1581 C 0.72309 0.27752 0.55599
 N1582 N 0.70379 0.27127 0.56162
 N1583 N 0.71867 0.80726 1.07581
 C1584 C 0.69960 0.80077 1.08198
 N1585 N 0.69242 0.78230 1.07489
 N1586 N 0.70398 0.77067 1.06225
 C1587 C 0.72309 0.77713 1.05623
 N1588 N 0.73023 0.79563 1.06319
 N1589 N 0.21902 0.30730 1.07591
 C1590 C 0.19987 0.30084 1.08184
 N1591 N 0.19267 0.28248 1.07451
 N1592 N 0.20428 0.27092 1.06185
 C1593 C 0.22349 0.27734 1.05608
 N1594 N 0.23065 0.29573 1.06329
 N1595 N 0.19244 0.78250 0.57465
 C1596 C 0.19971 0.80080 0.58206
 N1597 N 0.21895 0.80714 0.57625
 N1598 N 0.23058 0.79550 0.56369
 C1599 C 0.22334 0.77717 0.55641
 N1600 N 0.20405 0.77088 0.56205
 N1601 N 0.28253 0.69241 0.57488
 C1602 C 0.30090 0.69961 0.58216
 N1603 N 0.30734 0.71877 0.57620
 N1604 N 0.29573 0.73039 0.56360
 C1605 C 0.27732 0.72321 0.55645
 N1606 N 0.27093 0.70401 0.56224
 N1607 N 0.30726 0.21908 1.07611
 C1608 C 0.30092 0.19982 1.08184
 N1609 N 0.28269 0.19252 1.07430
 N1610 N 0.27114 0.20412 1.06162
 C1611 C 0.27744 0.22342 1.05605
 N1612 N 0.29570 0.23070 1.06348
 N1613 N 0.78181 0.69262 1.07517
 C1614 C 0.80053 0.69954 1.08185
 N1615 N 0.80729 0.71838 1.07527
 N1616 N 0.79568 0.72997 1.06265
 C1617 C 0.77693 0.72308 1.05611
 N1618 N 0.77020 0.70420 1.06254
 N1619 N 0.78183 0.19284 0.57497
 C1620 C 0.80021 0.20003 0.58224
 N1621 N 0.80678 0.21909 0.57612
 N1622 N 0.79528 0.23064 0.56336
 C1623 C 0.77687 0.22347 0.55620
 N1624 N 0.77034 0.20438 0.56218
 N1625 N 0.71870 0.69297 0.42508
 C1626 C 0.69985 0.69987 0.41856
 N1627 N 0.69289 0.71864 0.42524
 N1628 N 0.70444 0.73017 0.43784
 C1629 C 0.72331 0.72329 0.44424
 N1630 N 0.73025 0.70449 0.43767
 N1631 N 0.71847 0.19287 -0.07552
 C1632 C 0.69962 0.19972 -0.08208
 N1633 N 0.69269 0.21858 -0.07559
 N1634 N 0.70427 0.23023 -0.06313
 C1635 C 0.72315 0.22340 -0.05671
 N1636 N 0.73005 0.20452 -0.06306
 N1637 N 0.21859 0.69294 -0.07543
 C1638 C 0.19974 0.69984 -0.08195
 N1639 N 0.19281 0.71864 -0.07533
 N1640 N 0.20438 0.73021 -0.06280
 C1641 C 0.22327 0.72335 -0.05642
 N1642 N 0.23017 0.70451 -0.06290
 N1643 N 0.21824 0.19265 0.42493
 C1644 C 0.19942 0.19957 0.41837
 N1645 N 0.19254 0.21843 0.42489
 N1646 N 0.20415 0.23002 0.43738
 C1647 C 0.22300 0.22312 0.44381
 N1648 N 0.22985 0.20423 0.43742
 N1649 N 0.30791 0.42593 0.71617
 C1650 C 0.29969 0.41690 0.69908
 N1651 N 0.27977 0.42142 0.69382
 N1652 N 0.26839 0.43429 0.70536
 C1653 C 0.27660 0.44326 0.72244
 N1654 N 0.29655 0.43889 0.72766
 N1655 N 0.30467 0.92041 0.22011
 C1656 C 0.29968 0.91669 0.20006
 N1657 N 0.28307 0.92671 0.19170
 N1658 N 0.27178 0.93984 0.20306
 C1659 C 0.27672 0.94338 0.22316
 N1660 N 0.29332 0.93343 0.23150
 N1661 N 0.80463 0.42104 0.21927
 C1662 C 0.79939 0.41698 0.19934
 N1663 N 0.78254 0.42667 0.19109
 N1664 N 0.77123 0.43979 0.20245
 C1665 C 0.77641 0.44366 0.22243
 N1666 N 0.79328 0.43407 0.23064
 N1667 N 0.78296 0.92726 0.69196
 C1668 C 0.79943 0.91710 0.70042
 N1669 N 0.80431 0.92072 0.72052
 N1670 N 0.79297 0.93379 0.73186
 C1671 C 0.77650 0.94389 0.72343
 N1672 N 0.77168 0.94044 0.70328
 N1673 N 0.69361 0.57784 0.71956
 C1674 C 0.69979 0.58316 0.70017
 N1675 N 0.71767 0.57489 0.69255
 N1676 N 0.72905 0.56191 0.70398
 C1677 C 0.72291 0.55673 0.72340
 N1678 N 0.70502 0.56491 0.73101
 N1679 N 0.71783 0.07354 0.19172
 C1680 C 0.70065 0.08282 0.19979
 N1681 N 0.69512 0.07842 0.21960
 N1682 N 0.70649 0.06545 0.23103
 C1683 C 0.72368 0.05626 0.22297
 N1684 N 0.72916 0.06048 0.20312
 N1685 N 0.19553 0.57978 0.22006
 C1686 C 0.20035 0.58328 0.19990
 N1687 N 0.21678 0.57307 0.19142
 N1688 N 0.22808 0.55993 0.20278
 C1689 C 0.22332 0.55660 0.22299
 N1690 N 0.20689 0.56676 0.23144
 N1691 N 0.19631 0.07920 0.72047
 C1692 C 0.20076 0.08251 0.70019
 N1693 N 0.21691 0.07205 0.69146
 N1694 N 0.22831 0.05889 0.70269
 C1695 C 0.22393 0.05577 0.72302
 N1696 N 0.20776 0.06616 0.73171
 N1697 N 0.30445 0.57996 0.27898
 C1698 C 0.29983 0.58325 0.29921
 N1699 N 0.28372 0.57276 0.30784
 N1700 N 0.27255 0.55959 0.29656
 C1701 C 0.27711 0.55648 0.27627
 N1702 N 0.29322 0.56692 0.26767
 N1703 N 0.28433 0.07234 0.80756
 C1704 C 0.30045 0.08286 0.79900
 N1705 N 0.30521 0.07952 0.77879
 N1706 N 0.29410 0.06638 0.76747
 C1707 C 0.27799 0.05591 0.77600
 N1708 N 0.27328 0.05908 0.79625
 N1709 N 0.80452 0.57966 0.77939
 C1710 C 0.79994 0.58292 0.79965
 N1711 N 0.78371 0.57261 0.80824
 N1712 N 0.77238 0.55961 0.79691
 C1713 C 0.77688 0.55652 0.77661
 N1714 N 0.79312 0.56679 0.76804
 N1715 N 0.80458 0.08001 0.27896
 C1716 C 0.80010 0.08310 0.29926
 N1717 N 0.78417 0.07240 0.30795
 N1718 N 0.77303 0.05920 0.29667
 C1719 C 0.77745 0.05628 0.27632
 N1720 N 0.79337 0.06694 0.26766
 N1721 N 0.71553 0.42741 0.30748
 C1722 C 0.69977 0.41656 0.29876
 N1723 N 0.69547 0.41955 0.27840
 N1724 N 0.70671 0.43265 0.26708
 C1725 C 0.72247 0.44346 0.27578
 N1726 N 0.72669 0.44065 0.29618
 N1727 N 0.69520 0.92044 0.77925
 C1728 C 0.69958 0.91726 0.79956
 N1729 N 0.71549 0.92791 0.80826
 N1730 N 0.72671 0.94113 0.79699
 C1731 C 0.72241 0.94411 0.77663
 N1732 N 0.70649 0.93352 0.76796
 N1733 N 0.21525 0.42745 0.80776
 C1734 C 0.19977 0.41632 0.79890
 N1735 N 0.19590 0.41892 0.77841
 N1736 N 0.20727 0.43193 0.76710
 C1737 C 0.22273 0.44303 0.77594
 N1738 N 0.22653 0.44061 0.79648
 N1739 N 0.21599 0.92712 0.30803
 C1740 C 0.19993 0.91664 0.29940
 N1741 N 0.19540 0.91997 0.27915
 N1742 N 0.20668 0.93305 0.26784
 C1743 C 0.22274 0.94348 0.27645
 N1744 N 0.22721 0.94033 0.29675
 N1745 N 0.42527 0.30792 0.71714
 C1746 C 0.41710 0.29995 0.69951
 N1747 N 0.42250 0.28038 0.69376
 N1748 N 0.43540 0.26909 0.70535
 C1749 C 0.44350 0.27703 0.72299
 N1750 N 0.43824 0.29664 0.72870
 N1751 N 0.42669 0.78272 0.19152
 C1752 C 0.41686 0.79947 0.19983
 N1753 N 0.42077 0.80459 0.21982
 N1754 N 0.43380 0.79324 0.23118
 C1755 C 0.44355 0.77649 0.22290
 N1756 N 0.43982 0.77141 0.20287
 N1757 N 0.92042 0.30482 0.21973
 C1758 C 0.91667 0.29976 0.19970
 N1759 N 0.92665 0.28312 0.19137
 N1760 N 0.93978 0.27184 0.20275
 C1761 C 0.94336 0.27685 0.22283
 N1762 N 0.93345 0.29349 0.23112
 N1763 N 0.92682 0.78337 0.69148
 C1764 C 0.91656 0.79971 0.70007
 N1765 N 0.92004 0.80436 0.72024
 N1766 N 0.93306 0.79292 0.73153
 C1767 C 0.94325 0.77657 0.72298
 N1768 N 0.93995 0.77198 0.70275
 N1769 N 0.58025 0.30384 0.27880
 C1770 C 0.58339 0.29946 0.29911
 N1771 N 0.57280 0.28349 0.30787
 N1772 N 0.55966 0.27222 0.29664
 C1773 C 0.55670 0.27655 0.27628
 N1774 N 0.56724 0.29251 0.26755
 N1775 N 0.57997 0.80472 0.77899
 C1776 C 0.58296 0.80032 0.79933
 N1777 N 0.57220 0.78443 0.80802
 N1778 N 0.55905 0.77325 0.79671
 C1779 C 0.55626 0.77756 0.77632
 N1780 N 0.56695 0.79346 0.76766
 N1781 N 0.07949 0.30403 0.77931
 C1782 C 0.08289 0.29955 0.79956
 N1783 N 0.07252 0.28346 0.80834
 N1784 N 0.05936 0.27213 0.79719
 C1785 C 0.05614 0.27654 0.77689
 N1786 N 0.06645 0.29265 0.76814
 N1787 N 0.07282 0.78370 0.30791
 C1788 C 0.08317 0.79993 0.29933
 N1789 N 0.07970 0.80471 0.27916
 N1790 N 0.06662 0.79350 0.26786
 C1791 C 0.05633 0.77727 0.27641
 N1792 N 0.05962 0.77255 0.29663
 N1793 N 0.57695 0.69410 0.71928
 C1794 C 0.58248 0.70033 0.69996
 N1795 N 0.57442 0.71832 0.69238
 N1796 N 0.56147 0.72977 0.70378
 C1797 C 0.55609 0.72358 0.72314
 N1798 N 0.56404 0.70557 0.73070
 N1799 N 0.57928 0.19444 0.21971
 C1800 C 0.58327 0.19973 0.19975
 N1801 N 0.57360 0.21664 0.19158
 N1802 N 0.56055 0.22794 0.20302
 C1803 C 0.55673 0.22270 0.22302
 N1804 N 0.56632 0.20579 0.23118
 N1805 N 0.07978 0.69574 0.22024
 C1806 C 0.08322 0.70051 0.20006
 N1807 N 0.07292 0.71688 0.19156
 N1808 N 0.05978 0.72816 0.20292
 C1809 C 0.05651 0.72346 0.22315
 N1810 N 0.06675 0.70709 0.23162
 N1811 N 0.08022 0.19495 0.72117
 C1812 C 0.08329 0.19946 0.70087
 N1813 N 0.07262 0.21553 0.69227
 N1814 N 0.05944 0.22678 0.70365
 C1815 C 0.05655 0.22233 0.72400
 N1816 N 0.06718 0.20626 0.73256
 N1817 N 0.41979 0.69539 0.27896
 C1818 C 0.41664 0.69984 0.29926
 N1819 N 0.42728 0.71578 0.30790
 N1820 N 0.44049 0.72696 0.29658
 C1821 C 0.44346 0.72258 0.27624
 N1822 N 0.43286 0.70664 0.26762
 N1823 N 0.41945 0.19616 0.77889
 C1824 C 0.41667 0.20013 0.79934
 N1825 N 0.42759 0.21576 0.80820
 N1826 N 0.44073 0.22709 0.79695
 C1827 C 0.44335 0.22319 0.77646
 N1828 N 0.43245 0.20757 0.76762
 N1829 N 0.92007 0.69485 0.77908
 C1830 C 0.91674 0.69948 0.79931
 N1831 N 0.92706 0.71572 0.80780
 N1832 N 0.94013 0.72699 0.79641
 C1833 C 0.94329 0.72242 0.77614
 N1834 N 0.93301 0.70619 0.76766
 N1835 N 0.91964 0.19578 0.27877
 C1836 C 0.91656 0.20010 0.29911
 N1837 N 0.92727 0.21596 0.30782
 N1838 N 0.94047 0.22718 0.29654
 C1839 C 0.94337 0.22292 0.27616
 N1840 N 0.93270 0.20707 0.26747
 N1841 N 0.28126 0.30650 0.57536
 C1842 C 0.29979 0.29929 0.58244
 N1843 N 0.30654 0.28031 0.57613
 N1844 N 0.29507 0.26886 0.56341
 C1845 C 0.27649 0.27603 0.55649
 N1846 N 0.26979 0.29505 0.56262
 N1847 N 0.30744 0.78183 0.07469
 C1848 C 0.30042 0.80053 0.08151
 N1849 N 0.28150 0.80736 0.07513
 N1850 N 0.26993 0.79583 0.06256
 C1851 C 0.27691 0.77709 0.05589
 N1852 N 0.29587 0.77029 0.06212
 N1853 N 0.78189 0.30736 0.07428
 C1854 C 0.80055 0.30032 0.08119
 N1855 N 0.80736 0.28136 0.07491
 N1856 N 0.79584 0.26976 0.06234
 C1857 C 0.77715 0.27677 0.05557
 N1858 N 0.77038 0.29577 0.06170
 N1859 N 0.78101 0.80752 0.57609
 C1860 C 0.80023 0.80104 0.58192
 N1861 N 0.80751 0.78260 0.57467
 N1862 N 0.79593 0.77100 0.56216
 C1863 C 0.77668 0.77745 0.55647
 N1864 N 0.76942 0.79591 0.56361
 N1865 N 0.28110 0.69261 0.42408
 C1866 C 0.30025 0.69906 0.41813
 N1867 N 0.30746 0.71742 0.42546
 N1868 N 0.29586 0.72899 0.43812
 C1869 C 0.27666 0.72257 0.44391
 N1870 N 0.26948 0.70418 0.43670
 N1871 N 0.30761 0.21683 0.92583
 C1872 C 0.30009 0.19886 0.91787
 N1873 N 0.28059 0.19285 0.92312
 N1874 N 0.26894 0.20448 0.93567
 C1875 C 0.27644 0.22247 0.94352
 N1876 N 0.29598 0.22843 0.93844
 N1877 N 0.78138 0.69247 0.92466
 C1878 C 0.80016 0.69931 0.91800
 N1879 N 0.80696 0.71813 0.92451
 N1880 N 0.79532 0.72976 0.93708
 C1881 C 0.77651 0.72294 0.94360
 N1882 N 0.76974 0.70410 0.93722
 N1883 N 0.80736 0.21776 0.42490
 C1884 C 0.80038 0.19915 0.41799
 N1885 N 0.78140 0.19250 0.42428
 N1886 N 0.76975 0.20411 0.43686
 C1887 C 0.77672 0.22274 0.44365
 N1888 N 0.79573 0.22936 0.43749
 N1889 N 0.69251 0.28153 0.42428
 C1890 C 0.69929 0.30038 0.41777
 N1891 N 0.71801 0.30726 0.42448
 N1892 N 0.72960 0.29563 0.43708
 C1893 C 0.72284 0.27674 0.44345
 N1894 N 0.70410 0.26989 0.43688
 N1895 N 0.69220 0.78163 0.92452
 C1896 C 0.69891 0.80055 0.91812
 N1897 N 0.71759 0.80747 0.92491
 N1898 N 0.72921 0.79582 0.93747
 C1899 C 0.72253 0.77687 0.94373
 N1900 N 0.70382 0.76998 0.93708
 N1901 N 0.21724 0.30752 0.92547
 C1902 C 0.19895 0.30027 0.91802
 N1903 N 0.19263 0.28100 0.92373
 N1904 N 0.20425 0.26932 0.93625
 C1905 C 0.22257 0.27655 0.94359
 N1906 N 0.22885 0.29586 0.93804
 N1907 N 0.21770 0.80718 0.42524
 C1908 C 0.19923 0.80007 0.41809
 N1909 N 0.19266 0.78102 0.42423
 N1910 N 0.20422 0.76941 0.43687
 C1911 C 0.22272 0.77650 0.44390
 N1912 N 0.22925 0.79559 0.43791
 N1913 N 0.71825 0.69310 0.57544
 C1914 C 0.69965 0.70021 0.58246
 N1915 N 0.69289 0.71920 0.57618
 N1916 N 0.70442 0.73078 0.56355
 C1917 C 0.72307 0.72371 0.55669
 N1918 N 0.72978 0.70466 0.56278
 N1919 N 0.71927 0.19296 0.07551
 C1920 C 0.70009 0.19949 0.08149
 N1921 N 0.69282 0.21794 0.07425
 N1922 N 0.70436 0.22952 0.06161
 C1923 C 0.72356 0.22302 0.05577
 N1924 N 0.73082 0.20455 0.06290
 N1925 N 0.21834 0.69283 0.07476
 C1926 C 0.19955 0.69978 0.08145
 N1927 N 0.19274 0.71872 0.07505
 N1928 N 0.20437 0.73036 0.06256
 C1929 C 0.22319 0.72343 0.05601
 N1930 N 0.22997 0.70446 0.06226
 N1931 N 0.21800 0.19194 0.57515
 C1932 C 0.19915 0.19882 0.58173
 N1933 N 0.19225 0.21767 0.57517
 N1934 N 0.20386 0.22930 0.56265
 C1935 C 0.22275 0.22245 0.55622
 N1936 N 0.22962 0.20357 0.56263
   
