data_POSCAR
  _audit_creation_date              2014-09-24
  _audit_creation_method            'ToBaCCo'
  _symmetry_space_group_name_H-M    'P1'
  _symmetry_Int_Tables_number       1
  _symmetry_cell_setting            triclinic
  loop_
  _symmetry_equiv_pos_as_xyz
 x,y,z
_cell_length_a 62.2447
_cell_length_b 62.0901
_cell_length_c 65.1655
_cell_angle_alpha 90.099500
_cell_angle_beta 89.999000
_cell_angle_gamma 89.935800
loop_
  _atom_site_label
  _atom_site_type_symbol
  _atom_site_fract_x
  _atom_site_fract_y
  _atom_site_fract_z
C1 C 0.39584 -0.02898 0.25084
 C2 C 0.40552 -0.00998 0.24369
 C3 C 0.41583 -0.00994 0.22456
 C4 C 0.41675 -0.02875 0.21272
 C5 C 0.40685 -0.04763 0.21977
 C6 C 0.39626 -0.04775 0.23881
 C7 C 0.40556 0.00969 0.25642
 C8 C 0.41594 0.00962 0.27552
 C9 C 0.41697 0.02846 0.28734
 C10 C 0.40710 0.04739 0.28026
 C11 C 0.39646 0.04751 0.26126
 C12 C 0.39594 0.02873 0.24928
 H13 H 0.38783 -0.02901 0.26562
 H14 H 0.42353 0.00462 0.21911
 H15 H 0.42360 -0.00502 0.28092
 H16 H 0.38787 0.02883 0.23454
 H17 H 0.40740 -0.06212 0.21046
 H18 H 0.40767 0.06196 0.28946
 C19 C 0.10349 -0.02832 0.74901
 C20 C 0.09385 -0.00931 0.75630
 C21 C 0.08384 -0.00924 0.77557
 C22 C 0.08317 -0.02802 0.78741
 C23 C 0.09304 -0.04689 0.78020
 C24 C 0.10333 -0.04704 0.76102
 C25 C 0.09363 0.01035 0.74359
 C26 C 0.08343 0.01016 0.72440
 C27 C 0.08233 0.02897 0.71259
 C28 C 0.09195 0.04798 0.71978
 C29 C 0.10240 0.04823 0.73887
 C30 C 0.10300 0.02949 0.75083
 H31 H 0.11132 -0.02843 0.73414
 H32 H 0.07617 0.00533 0.78115
 H33 H 0.07598 -0.00455 0.71891
 H34 H 0.11096 0.02969 0.76563
 H35 H 0.09273 -0.06138 0.78946
 H36 H 0.09133 0.06252 0.71059
 C37 C 0.60523 0.47075 0.24947
 C38 C 0.59552 0.48977 0.25665
 C39 C 0.58509 0.48980 0.27572
 C40 C 0.58409 0.47097 0.28746
 C41 C 0.59403 0.45209 0.28037
 C42 C 0.60472 0.45198 0.26140
 C43 C 0.59550 0.50943 0.24397
 C44 C 0.58505 0.50940 0.22491
 C45 C 0.58404 0.52821 0.21315
 C46 C 0.59398 0.54709 0.22022
 C47 C 0.60469 0.54720 0.23917
 C48 C 0.60521 0.52843 0.25112
 H49 H 0.61333 0.47067 0.23474
 H50 H 0.57735 0.50438 0.28119
 H51 H 0.57731 0.49483 0.21946
 H52 H 0.61333 0.52851 0.26584
 H53 H 0.59343 0.43755 0.28955
 H54 H 0.59338 0.56161 0.21101
 C55 C 0.89692 0.47057 0.75142
 C56 C 0.90631 0.48966 0.74415
 C57 C 0.91641 0.48977 0.72491
 C58 C 0.91740 0.47094 0.71310
 C59 C 0.90778 0.45198 0.72029
 C60 C 0.89742 0.45179 0.73943
 C61 C 0.90625 0.50936 0.75686
 C62 C 0.91629 0.50926 0.77612
 C63 C 0.91715 0.52810 0.78797
 C64 C 0.90744 0.54704 0.78074
 C65 C 0.89714 0.54720 0.76158
 C66 C 0.89678 0.52843 0.74958
 H67 H 0.88904 0.47042 0.76626
 H68 H 0.92389 0.50440 0.71936
 H69 H 0.92382 0.49461 0.78165
 H70 H 0.88895 0.52855 0.73472
 H71 H 0.90835 0.43745 0.71105
 H72 H 0.90787 0.56160 0.78996
 C73 C 0.25754 0.35784 1.02522
 C74 C 0.25770 0.37262 1.00891
 C75 C 0.27530 0.38663 1.00653
 C76 C 0.29259 0.38581 1.02038
 C77 C 0.29221 0.37106 1.03662
 C78 C 0.27476 0.35706 1.03909
 C79 C 0.23987 0.37265 0.99392
 C80 C 0.22220 0.38660 0.99641
 C81 C 0.20497 0.38587 0.98248
 C82 C 0.20549 0.37127 0.96608
 C83 C 0.22300 0.35735 0.96351
 C84 C 0.24015 0.35803 0.97743
 H85 H 0.24406 0.34694 1.02699
 H86 H 0.27561 0.39790 0.99384
 H87 H 0.22180 0.39776 1.00921
 H88 H 0.25367 0.34718 0.97552
 H89 H 0.30558 0.37045 1.04729
 H90 H 0.19220 0.37068 0.95532
 C91 C 0.74200 0.14198 1.02455
 C92 C 0.74169 0.12732 1.00809
 C93 C 0.72400 0.11345 1.00561
 C94 C 0.70676 0.11427 1.01952
 C95 C 0.70728 0.12891 1.03590
 C96 C 0.72483 0.14277 1.03847
 C97 C 0.75954 0.12722 0.99312
 C98 C 0.77724 0.11336 0.99573
 C99 C 0.79454 0.11406 0.98187
 C100 C 0.79405 0.12855 0.96543
 C101 C 0.77650 0.14239 0.96275
 C102 C 0.75927 0.14173 0.97660
 H103 H 0.75558 0.15275 1.02641
 H104 H 0.72359 0.10227 0.99283
 H105 H 0.77764 0.10231 1.00857
 H106 H 0.74574 0.15254 0.97461
 H107 H 0.69395 0.12953 1.04662
 H108 H 0.80739 0.12912 0.95474
 C109 C 0.24018 0.64258 0.52285
 C110 C 0.23995 0.62783 0.50647
 C111 C 0.22235 0.61380 0.50411
 C112 C 0.20513 0.61460 0.51805
 C113 C 0.20561 0.62933 0.53435
 C114 C 0.22305 0.64331 0.53680
 C115 C 0.25776 0.62780 0.49146
 C116 C 0.27533 0.61371 0.49380
 C117 C 0.29263 0.61452 0.47995
 C118 C 0.29226 0.62932 0.46376
 C119 C 0.27484 0.64338 0.46134
 C120 C 0.25763 0.64264 0.47520
 H121 H 0.25365 0.65348 0.52466
 H122 H 0.22199 0.60254 0.49139
 H123 H 0.27563 0.60241 0.50646
 H124 H 0.24421 0.65362 0.47342
 H125 H 0.19233 0.62996 0.54513
 H126 H 0.30560 0.62998 0.45307
 C127 C 0.76045 0.85838 0.52395
 C128 C 0.76059 0.87318 0.50765
 C129 C 0.77808 0.88735 0.50538
 C130 C 0.79531 0.88665 0.51934
 C131 C 0.79492 0.87187 0.53557
 C132 C 0.77757 0.85775 0.53792
 C133 C 0.74285 0.87302 0.49256
 C134 C 0.72520 0.88705 0.49475
 C135 C 0.70802 0.88608 0.48077
 C136 C 0.70860 0.87119 0.46461
 C137 C 0.72610 0.85721 0.46233
 C138 C 0.74318 0.85810 0.47632
 H139 H 0.74708 0.84736 0.52568
 H140 H 0.77833 0.89860 0.49268
 H141 H 0.72474 0.89842 0.50738
 H142 H 0.75668 0.84719 0.47465
 H143 H 0.80817 0.87125 0.54638
 H144 H 0.69535 0.87043 0.45381
 C145 C -0.02929 0.24472 0.32582
 C146 C -0.00872 0.24078 0.33372
 C147 C -0.00466 0.22177 0.34465
 C148 C -0.02121 0.20702 0.34802
 C149 C -0.04162 0.21079 0.33989
 C150 C -0.04566 0.22964 0.32884
 C151 C 0.00767 0.25772 0.33344
 C152 C 0.00369 0.27707 0.34390
 C153 C 0.02026 0.29190 0.34678
 C154 C 0.04061 0.28789 0.33862
 C155 C 0.04456 0.26871 0.32803
 C156 C 0.02819 0.25354 0.32551
 H157 H -0.03263 0.25975 0.31797
 H158 H 0.01096 0.21925 0.35166
 H159 H -0.01183 0.27984 0.35100
 H160 H 0.03154 0.23828 0.31803
 H161 H -0.05460 0.19957 0.34297
 H162 H 0.05360 0.29916 0.34139
 C163 C -0.02865 0.75366 0.17482
 C164 C -0.00814 0.75798 0.16694
 C165 C -0.00439 0.77721 0.15631
 C166 C -0.02115 0.79180 0.15318
 C167 C -0.04148 0.78767 0.16128
 C168 C -0.04524 0.76860 0.17206
 C169 C 0.00844 0.74120 0.16677
 C170 C 0.00468 0.72216 0.15576
 C171 C 0.02146 0.70763 0.15232
 C172 C 0.04180 0.71164 0.16052
 C173 C 0.04552 0.73051 0.17166
 C174 C 0.02894 0.74538 0.17471
 H175 H -0.03177 0.73844 0.18241
 H176 H 0.01112 0.78006 0.14923
 H177 H -0.01087 0.71946 0.14868
 H178 H 0.03212 0.76044 0.18259
 H179 H -0.05459 0.79878 0.15829
 H180 H 0.05499 0.70066 0.15740
 C181 C 0.47143 0.25311 0.67399
 C182 C 0.49157 0.25802 0.66561
 C183 C 0.49441 0.27720 0.65465
 C184 C 0.47710 0.29117 0.65173
 C185 C 0.45712 0.28646 0.66032
 C186 C 0.45430 0.26744 0.67143
 C187 C 0.50874 0.24188 0.66540
 C188 C 0.50575 0.22280 0.65424
 C189 C 0.52304 0.20889 0.65091
 C190 C 0.54314 0.21353 0.65930
 C191 C 0.54609 0.23244 0.67061
 C192 C 0.52899 0.24672 0.67358
 H193 H 0.46898 0.23795 0.68187
 H194 H 0.50967 0.28049 0.64725
 H195 H 0.49040 0.21957 0.64700
 H196 H 0.53154 0.26180 0.68162
 H197 H 0.44355 0.29706 0.65757
 H198 H 0.55667 0.20297 0.65625
 C199 C 0.47099 0.74477 0.82632
 C200 C 0.49134 0.74065 0.83465
 C201 C 0.49485 0.72190 0.84611
 C202 C 0.47796 0.70755 0.84957
 C203 C 0.45778 0.71147 0.84098
 C204 C 0.45432 0.73007 0.82941
 C205 C 0.50805 0.75724 0.83420
 C206 C 0.50468 0.77655 0.84489
 C207 C 0.52160 0.79101 0.84758
 C208 C 0.54169 0.78666 0.83900
 C209 C 0.54502 0.76752 0.82816
 C210 C 0.52830 0.75270 0.82583
 H211 H 0.46803 0.75962 0.81806
 H212 H 0.51029 0.71927 0.85343
 H213 H 0.48936 0.77957 0.85229
 H214 H 0.53116 0.73745 0.81817
 H215 H 0.44451 0.70061 0.84407
 H216 H 0.55497 0.79764 0.84160
 C217 C -0.28102 0.64627 0.99857
 C218 C -0.26195 0.65585 1.00564
 C219 C -0.26170 0.66615 1.02479
 C220 C -0.28035 0.66717 1.03675
 C221 C -0.29930 0.65737 1.02978
 C222 C -0.29964 0.64678 1.01072
 C223 C -0.24241 0.65575 0.99281
 C224 C -0.24264 0.66580 0.97355
 C225 C -0.22390 0.66674 0.96167
 C226 C -0.20493 0.65709 0.96884
 C227 C -0.20465 0.64677 0.98799
 C228 C -0.22332 0.64634 1.00003
 H229 H -0.28122 0.63823 0.98378
 H230 H -0.24708 0.67377 1.03018
 H231 H -0.25731 0.67331 0.96809
 H232 H -0.22309 0.63852 1.01489
 H233 H -0.31367 0.65799 1.03919
 H234 H -0.19045 0.65759 0.95960
 C235 C -0.28080 0.35421 0.50098
 C236 C -0.26166 0.34479 0.49384
 C237 C -0.26143 0.33436 0.47474
 C238 C -0.28017 0.33304 0.46294
 C239 C -0.29919 0.34268 0.46999
 C240 C -0.29952 0.35340 0.48899
 C241 C -0.24205 0.34510 0.50657
 C242 C -0.24205 0.33501 0.52580
 C243 C -0.22327 0.33426 0.53759
 C244 C -0.20447 0.34413 0.53039
 C245 C -0.20440 0.35450 0.51126
 C246 C -0.22312 0.35475 0.49928
 H247 H -0.28098 0.36232 0.51574
 H248 H -0.24675 0.32684 0.46930
 H249 H -0.25655 0.32730 0.53135
 H250 H -0.22306 0.36260 0.48443
 H251 H -0.31364 0.34182 0.46071
 H252 H -0.18997 0.34373 0.53960
 C253 C 0.22201 -0.14732 0.00045
 C254 C 0.24103 -0.15681 -0.00686
 C255 C 0.24112 -0.16695 -0.02611
 C256 C 0.22231 -0.16789 -0.03789
 C257 C 0.20341 -0.15816 -0.03063
 C258 C 0.20327 -0.14775 -0.01149
 C259 C 0.26066 -0.15683 0.00584
 C260 C 0.26057 -0.16703 0.02501
 C261 C 0.27933 -0.16794 0.03686
 C262 C 0.29820 -0.15810 0.02973
 C263 C 0.29835 -0.14762 0.01065
 C264 C 0.27965 -0.14723 -0.00136
 H265 H 0.22189 -0.13941 0.01530
 H266 H 0.25574 -0.17450 -0.03165
 H267 H 0.24597 -0.17465 0.03047
 H268 H 0.27977 -0.13926 -0.01615
 H269 H 0.18886 -0.15865 -0.03980
 H270 H 0.31270 -0.15855 0.03896
 C271 C 0.22218 1.14628 0.49887
 C272 C 0.24118 1.15594 0.50602
 C273 C 0.24135 1.16604 0.52528
 C274 C 0.22268 1.16678 0.53724
 C275 C 0.20382 1.15691 0.53016
 C276 C 0.20357 1.14653 0.51101
 C277 C 0.26070 1.15614 0.49317
 C278 C 0.26036 1.16638 0.47401
 C279 C 0.27904 1.16750 0.46206
 C280 C 0.29807 1.15785 0.46907
 C281 C 0.29847 1.14734 0.48812
 C282 C 0.27986 1.14673 0.50023
 H283 H 0.22199 1.13840 0.48402
 H284 H 0.25591 1.17372 0.53074
 H285 H 0.24563 1.17387 0.46866
 H286 H 0.28017 1.13874 0.51502
 H287 H 0.18941 1.15729 0.53951
 H288 H 0.31251 1.15847 0.45976
 C289 C 0.10619 0.50970 0.22632
 C290 C 0.12125 0.50962 0.24239
 C291 C 0.13565 0.52697 0.24448
 C292 C 0.13490 0.54426 0.23061
 C293 C 0.11988 0.54409 0.21460
 C294 C 0.10555 0.52688 0.21240
 C295 C 0.12119 0.49180 0.25739
 C296 C 0.13547 0.47433 0.25530
 C297 C 0.13458 0.45703 0.26917
 C298 C 0.11955 0.45734 0.28517
 C299 C 0.10533 0.47467 0.28736
 C300 C 0.10611 0.49185 0.27345
 H301 H 0.09501 0.49643 0.22470
 H302 H 0.14713 0.52711 0.25699
 H303 H 0.14696 0.47409 0.24280
 H304 H 0.09501 0.50522 0.27506
 H305 H 0.11929 0.55741 0.20386
 H306 H 0.11887 0.44401 0.29589
 C307 C -0.10633 0.99047 0.22615
 C308 C -0.12120 0.99032 0.24238
 C309 C -0.13529 0.97276 0.24460
 C310 C -0.13445 0.95544 0.23067
 C311 C -0.11961 0.95583 0.21449
 C312 C -0.10554 0.97326 0.21218
 C313 C -0.12127 1.00817 0.25743
 C314 C -0.13551 1.02565 0.25524
 C315 C -0.13482 1.04294 0.26920
 C316 C -0.11996 1.04260 0.28538
 C317 C -0.10578 1.02526 0.28765
 C318 C -0.10640 1.00809 0.27366
 H319 H -0.09539 1.00394 0.22450
 H320 H -0.14661 0.97250 0.25724
 H321 H -0.14684 1.02586 0.24260
 H322 H -0.09534 0.99471 0.27535
 H323 H -0.11894 0.94248 0.20371
 H324 H -0.11936 1.05590 0.29620
 C325 C 0.39268 0.49192 -0.27433
 C326 C 0.37816 0.49162 -0.25781
 C327 C 0.36442 0.47384 -0.25524
 C328 C 0.36521 0.45650 -0.26911
 C329 C 0.37970 0.45701 -0.28555
 C330 C 0.39345 0.47464 -0.28822
 C331 C 0.37809 0.50953 -0.24284
 C332 C 0.36416 0.52722 -0.24535
 C333 C 0.36477 0.54451 -0.23138
 C334 C 0.37927 0.54401 -0.21493
 C335 C 0.39317 0.52648 -0.21236
 C336 C 0.39259 0.50927 -0.22631
 H337 H 0.40337 0.50556 -0.27627
 H338 H 0.35335 0.47343 -0.24240
 H339 H 0.35309 0.52754 -0.25820
 H340 H 0.40341 0.49573 -0.22438
 H341 H 0.38030 0.44360 -0.29624
 H342 H 0.37981 0.55731 -0.20411
 C343 C 0.60662 0.00870 -0.27512
 C344 C 0.62117 0.00894 -0.25862
 C345 C 0.63508 0.02661 -0.25607
 C346 C 0.63440 0.04390 -0.26995
 C347 C 0.61988 0.04345 -0.28637
 C348 C 0.60599 0.02592 -0.28902
 C349 C 0.62110 -0.00891 -0.24364
 C350 C 0.63507 -0.02660 -0.24603
 C351 C 0.63431 -0.04383 -0.23209
 C352 C 0.61966 -0.04330 -0.21578
 C353 C 0.60573 -0.02577 -0.21331
 C354 C 0.60644 -0.00861 -0.22725
 H355 H 0.59582 -0.00485 -0.27703
 H356 H 0.64617 0.02697 -0.24326
 H357 H 0.64628 -0.02701 -0.25875
 H358 H 0.59559 0.00493 -0.22541
 H359 H 0.61938 0.05682 -0.29707
 H360 H 0.61906 -0.05659 -0.20501
 C361 C -0.00312 0.22106 0.92340
 C362 C -0.00808 0.24127 0.91511
 C363 C -0.02718 0.24412 0.90406
 C364 C -0.04100 0.22674 0.90095
 C365 C -0.03624 0.20668 0.90945
 C366 C -0.01731 0.20386 0.92065
 C367 C 0.00794 0.25854 0.91508
 C368 C 0.02698 0.25566 0.90394
 C369 C 0.04077 0.27305 0.90076
 C370 C 0.03605 0.29312 0.90930
 C371 C 0.01718 0.29597 0.92059
 C372 C 0.00301 0.27877 0.92341
 H373 H 0.01199 0.21861 0.93135
 H374 H -0.03051 0.25944 0.89673
 H375 H 0.03028 0.24032 0.89658
 H376 H -0.01206 0.28125 0.93143
 H377 H -0.04673 0.19307 0.90656
 H378 H 0.04652 0.30674 0.90636
 C379 C 0.50410 0.22109 0.07717
 C380 C 0.50861 0.24159 0.08511
 C381 C 0.52788 0.24517 0.09570
 C382 C 0.54232 0.22825 0.09870
 C383 C 0.53797 0.20792 0.09055
 C384 C 0.51888 0.20435 0.07982
 C385 C 0.49205 0.25839 0.08522
 C386 C 0.47292 0.25482 0.09603
 C387 C 0.45850 0.27174 0.09918
 C388 C 0.46271 0.29204 0.09098
 C389 C 0.48167 0.29559 0.08003
 C390 C 0.49644 0.27886 0.07723
 H391 H 0.48890 0.21806 0.06957
 H392 H 0.53091 0.26070 0.10279
 H393 H 0.46999 0.23931 0.10313
 H394 H 0.51154 0.28188 0.06945
 H395 H 0.54894 0.19465 0.09338
 H396 H 0.45175 0.30529 0.09391
 C397 C 0.00300 0.72165 0.57704
 C398 C 0.00758 0.74212 0.58501
 C399 C 0.02692 0.74566 0.59547
 C400 C 0.04138 0.72873 0.59833
 C401 C 0.03697 0.70843 0.59014
 C402 C 0.01780 0.70490 0.57953
 C403 C -0.00897 0.75892 0.58537
 C404 C -0.02782 0.75544 0.59665
 C405 C -0.04209 0.77244 0.60015
 C406 C -0.03801 0.79271 0.59177
 C407 C -0.01934 0.79615 0.58036
 C408 C -0.00473 0.77935 0.57722
 H409 H -0.01227 0.71865 0.56956
 H410 H 0.03000 0.76116 0.60260
 H411 H -0.03056 0.73993 0.60384
 H412 H 0.01018 0.78230 0.56910
 H413 H 0.04795 0.69515 0.59287
 H414 H -0.04881 0.80606 0.59491
 C415 C 0.49682 0.72061 0.42268
 C416 C 0.49243 0.74110 0.41473
 C417 C 0.47332 0.74472 0.40389
 C418 C 0.45892 0.72783 0.40066
 C419 C 0.46315 0.70749 0.40882
 C420 C 0.48209 0.70390 0.41979
 C421 C 0.50895 0.75791 0.41496
 C422 C 0.52829 0.75435 0.40448
 C423 C 0.54271 0.77129 0.40160
 C424 C 0.53827 0.79159 0.40978
 C425 C 0.51910 0.79513 0.42040
 C426 C 0.50434 0.77839 0.42293
 H427 H 0.51190 0.71756 0.43050
 H428 H 0.47038 0.76026 0.39682
 H429 H 0.53140 0.73885 0.39737
 H430 H 0.48909 0.78140 0.43045
 H431 H 0.45221 0.69426 0.40583
 H432 H 0.54922 0.80487 0.40703
 Zr433 Zr 0.01404 -0.03782 1.03392
 O434 O 0.03659 -0.02732 1.05610
 O435 O 0.00660 -0.06864 1.04441
 O436 O -0.00035 -0.03538 1.06330
 O437 O 0.05182 -0.05272 0.99747
 O438 O -0.03049 -0.01519 1.05764
 O439 O 0.04345 -0.05494 1.03156
 O440 O -0.01997 -0.07992 1.02272
 O441 O -0.01908 -0.03972 1.02849
 O442 O 0.01020 -0.05451 1.00625
 O443 O 0.00297 -0.00581 1.03322
 O444 O 0.03154 -0.02014 1.01194
 Zr445 Zr -0.01778 -0.00615 0.97637
 Zr446 Zr -0.02982 -0.00789 1.02616
 Zr447 Zr 0.02592 -0.03620 0.98407
 Zr448 Zr -0.02259 -0.05538 1.00039
 O449 O 0.05531 -0.02234 0.97453
 O450 O -0.05382 -0.06160 1.01195
 O451 O -0.00687 -0.03840 0.97685
 O452 O -0.03490 -0.02405 0.99835
 O453 O -0.01409 0.01067 1.00404
 O454 O 0.01526 -0.00445 0.98203
 C455 C -0.00770 -0.08211 1.03848
 C456 C 0.05569 -0.05870 1.01597
 C457 C -0.01778 -0.02602 1.06925
 O458 O -0.06032 -0.02076 1.03355
 O459 O -0.05408 0.01145 1.01321
 O460 O -0.04624 0.01238 0.97898
 C461 C -0.05787 0.01734 0.99466
 O462 O 0.04249 0.01412 1.03342
 Zr463 Zr 0.01884 0.01116 1.01006
 O464 O -0.01084 0.02524 0.96658
 O465 O -0.03133 0.02125 1.04298
 O466 O 0.00989 0.03785 1.02855
 O467 O 0.04874 0.01968 0.99676
 O468 O 0.01316 0.03743 0.99044
 C469 C 0.00127 0.03978 0.97451
 O470 O -0.04128 -0.01595 0.95481
 O471 O 0.02857 -0.06644 0.96924
 O472 O -0.00468 -0.01050 0.94667
 O473 O 0.02452 -0.03210 0.95208
 O474 O -0.01334 -0.08382 0.98461
 O475 O -0.04306 -0.06020 0.97469
 C476 C 0.01171 -0.02141 0.94046
 H477 H 0.01611 -0.06931 1.00672
 H478 H -0.05036 -0.02474 0.99484
 H479 H 0.02320 0.00334 0.97118
 H480 H 0.00536 0.00142 1.04658
 H481 H -0.05653 -0.07724 1.01040
 H482 H -0.06735 -0.01036 1.04295
 H483 H -0.04556 0.02159 1.04978
 H484 H 0.01958 0.04994 1.02504
 H485 H -0.02352 -0.09532 0.98864
 H486 H 0.04278 -0.06672 0.96239
 H487 H 0.06233 -0.03291 0.96529
 H488 H 0.05091 0.03529 0.99917
 H489 H -0.05078 -0.07404 0.97622
 H490 H -0.04328 -0.00390 0.94502
 H491 H 0.03871 -0.03939 1.06586
 H492 H 0.04800 0.02907 1.03370
 Zr493 Zr 0.51136 0.46195 0.53257
 O494 O 0.53384 0.47251 0.55478
 O495 O 0.50376 0.43121 0.54323
 O496 O 0.49690 0.46468 0.56189
 O497 O 0.54929 0.44681 0.49635
 O498 O 0.46679 0.48486 0.55601
 O499 O 0.54078 0.44480 0.53041
 O500 O 0.47730 0.41984 0.52147
 O501 O 0.47826 0.46005 0.52702
 O502 O 0.50762 0.44510 0.50498
 O503 O 0.50032 0.49397 0.53164
 O504 O 0.52896 0.47949 0.51056
 Zr505 Zr 0.47982 0.49329 0.47471
 Zr506 Zr 0.46756 0.49188 0.52447
 Zr507 Zr 0.52345 0.46325 0.48276
 Zr508 Zr 0.47485 0.44423 0.49898
 O509 O 0.55290 0.47702 0.47325
 O510 O 0.44355 0.43812 0.51042
 O511 O 0.49070 0.46103 0.47541
 O512 O 0.46258 0.47556 0.49672
 O513 O 0.48339 0.51028 0.50229
 O514 O 0.51283 0.49500 0.48050
 C515 C 0.48946 0.41772 0.53730
 C516 C 0.55309 0.44096 0.51489
 C517 C 0.47947 0.47413 0.56773
 O518 O 0.43704 0.47905 0.53186
 O519 O 0.44334 0.51111 0.51130
 O520 O 0.45134 0.51183 0.47709
 C521 C 0.43963 0.51688 0.49270
 O522 O 0.53986 0.51387 0.53187
 Zr523 Zr 0.51629 0.51079 0.50844
 O524 O 0.48679 0.52462 0.46477
 O525 O 0.46599 0.52116 0.54105
 O526 O 0.50731 0.53759 0.52675
 O527 O 0.54625 0.51921 0.49520
 O528 O 0.51070 0.53694 0.48865
 C529 C 0.49887 0.53920 0.47266
 O530 O 0.45642 0.48335 0.45309
 O531 O 0.52611 0.43291 0.46813
 O532 O 0.49308 0.48878 0.44509
 O533 O 0.52222 0.46717 0.45076
 O534 O 0.48416 0.41568 0.48342
 O535 O 0.45451 0.43926 0.47322
 C536 C 0.50950 0.47782 0.43902
 H537 H 0.51351 0.43029 0.50557
 H538 H 0.44714 0.47485 0.49316
 H539 H 0.52082 0.50272 0.46964
 H540 H 0.50267 0.50129 0.54496
 H541 H 0.44082 0.42247 0.50894
 H542 H 0.42997 0.48953 0.54116
 H543 H 0.45173 0.52155 0.54781
 H544 H 0.51702 0.54966 0.52321
 H545 H 0.47396 0.40421 0.48747
 H546 H 0.54035 0.43256 0.46133
 H547 H 0.55995 0.46638 0.46410
 H548 H 0.54841 0.53483 0.49752
 H549 H 0.44679 0.42542 0.47478
 H550 H 0.45448 0.49535 0.44322
 H551 H 0.53591 0.46049 0.56461
 H552 H 0.54539 0.52881 0.53208
 Zr553 Zr 0.48846 1.03797 0.53157
 O554 O 0.46595 1.02751 0.55377
 O555 O 0.49599 1.06880 0.54216
 O556 O 0.50287 1.03545 0.56092
 O557 O 0.45055 1.05283 0.49529
 O558 O 0.53301 1.01527 0.55512
 O559 O 0.45904 1.05509 0.52935
 O560 O 0.52244 1.08008 0.52037
 O561 O 0.52156 1.03989 0.52605
 O562 O 0.49220 1.05465 0.50395
 O563 O 0.49954 1.00597 0.53073
 O564 O 0.47091 1.02027 0.50959
 Zr565 Zr 0.52012 1.00631 0.47382
 Zr566 Zr 0.53231 1.00806 0.52360
 Zr567 Zr 0.47643 1.03633 0.48176
 Zr568 Zr 0.52498 1.05553 0.49798
 O569 O 0.44702 1.02244 0.47225
 O570 O 0.55624 1.06177 0.50946
 O571 O 0.50919 1.03855 0.47444
 O572 O 0.53730 1.02421 0.49582
 O573 O 0.51654 0.98949 0.50145
 O574 O 0.48711 1.00458 0.47958
 C575 C 0.51026 1.08228 0.53619
 C576 C 0.44674 1.05881 0.51381
 C577 C 0.52029 1.02605 0.56680
 O578 O 0.56279 1.02099 0.53101
 O579 O 0.55659 0.98880 0.51052
 O580 O 0.54865 0.98785 0.47630
 C581 C 0.56035 0.98293 0.49194
 O582 O 0.46003 0.98598 0.53096
 Zr583 Zr 0.48362 0.98897 0.50756
 O584 O 0.51323 0.97489 0.46397
 O585 O 0.53390 0.97888 0.54024
 O586 O 0.49263 0.96230 0.52595
 O587 O 0.45370 0.98044 0.49429
 O588 O 0.48930 0.96270 0.48786
 C589 C 0.50117 0.96034 0.47190
 O590 O 0.54353 1.01613 0.45220
 O591 O 0.47370 1.06657 0.46705
 O592 O 0.50690 1.01063 0.44418
 O593 O 0.47772 1.03224 0.44976
 O594 O 0.51565 1.08394 0.48229
 O595 O 0.54536 1.06035 0.47223
 C596 C 0.49048 1.02154 0.43806
 H597 H 0.48629 1.06945 0.50448
 H598 H 0.55275 1.02492 0.49227
 H599 H 0.47914 0.99678 0.46873
 H600 H 0.49719 0.99873 0.54406
 H601 H 0.55896 1.07741 0.50794
 H602 H 0.56986 1.01058 0.54035
 H603 H 0.54814 0.97856 0.54704
 H604 H 0.48294 0.95019 0.52242
 H605 H 0.52583 1.09546 0.48632
 H606 H 0.45947 1.06685 0.46024
 H607 H 0.43996 1.03301 0.46307
 H608 H 0.45156 0.96482 0.49663
 H609 H 0.55307 1.07420 0.47377
 H610 H 0.54551 1.00407 0.44237
 H611 H 0.46386 1.03958 0.56358
 H612 H 0.45451 0.97104 0.53118
 Zr613 Zr -0.01463 0.53828 1.03327
 O614 O -0.03723 0.52786 1.05540
 O615 O -0.00728 0.56918 1.04376
 O616 O -0.00036 0.53599 1.06270
 O617 O -0.05234 0.55288 0.99670
 O618 O 0.02985 0.51585 1.05715
 O619 O -0.04409 0.55530 1.03080
 O620 O 0.01934 0.58039 1.02213
 O621 O 0.01850 0.54023 1.02794
 O622 O -0.01074 0.55484 1.00560
 O623 O -0.00348 0.50630 1.03264
 O624 O -0.03201 0.52045 1.01127
 Zr625 Zr 0.01745 0.50640 0.97586
 Zr626 Zr 0.02932 0.50841 1.02568
 Zr627 Zr -0.02634 0.53639 0.98340
 Zr628 Zr 0.02207 0.55575 0.99983
 O629 O -0.05565 0.52239 0.97375
 O630 O 0.05325 0.56210 1.01146
 O631 O 0.00647 0.53862 0.97626
 O632 O 0.03446 0.52444 0.99786
 O633 O 0.01372 0.48971 1.00353
 O634 O -0.01559 0.50465 0.98142
 C635 C 0.00703 0.58264 1.03785
 C636 C -0.05630 0.55892 1.01518
 C637 C 0.01706 0.52669 1.06870
 O638 O 0.05976 0.52139 1.03317
 O639 O 0.05369 0.48908 1.01283
 O640 O 0.04596 0.48796 0.97858
 C641 C 0.05757 0.48311 0.99430
 O642 O -0.04295 0.48625 1.03274
 Zr643 Zr -0.01923 0.48917 1.00945
 O644 O 0.01063 0.47494 0.96608
 O645 O 0.03084 0.47934 1.04251
 O646 O -0.01029 0.46259 1.02800
 O647 O -0.04907 0.48053 0.99606
 O648 O -0.01342 0.46282 0.98989
 C649 C -0.00147 0.46041 0.97399
 O650 O 0.04101 0.51613 0.95434
 O651 O -0.02903 0.56656 0.96855
 O652 O 0.00445 0.51058 0.94611
 O653 O -0.02480 0.53216 0.95142
 O654 O 0.01281 0.58409 0.98399
 O655 O 0.04260 0.56050 0.97417
 C656 C -0.01193 0.52145 0.93985
 H657 H -0.01669 0.56963 1.00604
 H658 H 0.04993 0.52515 0.99440
 H659 H -0.02348 0.49679 0.97055
 H660 H -0.00590 0.49912 1.04600
 H661 H 0.05594 0.57774 1.00990
 H662 H 0.06678 0.51105 1.04261
 H663 H 0.04504 0.47907 1.04937
 H664 H -0.01995 0.45046 1.02448
 H665 H 0.02295 0.59564 0.98804
 H666 H -0.04321 0.56677 0.96164
 H667 H -0.06266 0.53291 0.96448
 H668 H -0.05121 0.46492 0.99847
 H669 H 0.05029 0.57436 0.97570
 H670 H 0.04306 0.50403 0.94457
 H671 H -0.03942 0.53997 1.06513
 H672 H -0.04845 0.47130 1.03300
 Zr673 Zr -0.01474 0.46341 0.46647
 O674 O -0.03738 0.47443 0.44462
 O675 O -0.00766 0.43263 0.45547
 O676 O -0.00058 0.46600 0.43702
 O677 O -0.05234 0.44850 0.50300
 O678 O 0.02979 0.48579 0.44271
 O679 O -0.04428 0.44659 0.46883
 O680 O 0.01901 0.42083 0.47678
 O681 O 0.01841 0.46109 0.47160
 O682 O -0.01081 0.44635 0.49387
 O683 O -0.00339 0.49529 0.46752
 O684 O -0.03189 0.48102 0.48883
 Zr685 Zr 0.01786 0.49404 0.52419
 Zr686 Zr 0.02944 0.49277 0.47428
 Zr687 Zr -0.02617 0.46457 0.51642
 Zr688 Zr 0.02203 0.44506 0.49945
 O689 O -0.05534 0.47863 0.52643
 O690 O 0.05310 0.43864 0.48756
 O691 O 0.00666 0.46192 0.52335
 O692 O 0.03464 0.47623 0.50182
 O693 O 0.01408 0.51123 0.49680
 O694 O -0.01521 0.49618 0.51883
 C695 C 0.00659 0.41895 0.46110
 C696 C -0.05642 0.44279 0.48446
 C697 C 0.01689 0.47521 0.43107
 O698 O 0.05978 0.47969 0.46648
 O699 O 0.05397 0.51173 0.48730
 O700 O 0.04644 0.51232 0.52160
 C701 C 0.05797 0.51737 0.50590
 O702 O -0.04274 0.51566 0.46795
 Zr703 Zr -0.01890 0.51216 0.49105
 O704 O 0.01130 0.52539 0.53450
 O705 O 0.03103 0.52208 0.45784
 O706 O -0.00991 0.53896 0.47285
 O707 O -0.04859 0.52085 0.50474
 O708 O -0.01278 0.53813 0.51099
 C709 C -0.00073 0.54016 0.52686
 O710 O 0.04148 0.48374 0.54541
 O711 O -0.02894 0.43417 0.53082
 O712 O 0.00499 0.48947 0.55393
 O713 O -0.02443 0.46825 0.54845
 O714 O 0.01268 0.41653 0.51490
 O715 O 0.04267 0.43972 0.52492
 C716 C -0.01143 0.47865 0.56012
 H717 H -0.01684 0.43163 0.49323
 H718 H 0.05012 0.47534 0.50519
 H719 H -0.02298 0.50392 0.52985
 H720 H -0.00583 0.50269 0.45428
 H721 H 0.05570 0.42295 0.48887
 H722 H 0.06681 0.49013 0.45716
 H723 H 0.04520 0.52234 0.45091
 H724 H -0.01945 0.55112 0.47662
 H725 H 0.02273 0.40498 0.51062
 H726 H -0.04309 0.43396 0.53780
 H727 H -0.06237 0.46801 0.53556
 H728 H -0.05063 0.53652 0.50258
 H729 H 0.05027 0.42582 0.52314
 H730 H 0.04367 0.49566 0.55535
 H731 H -0.03970 0.46251 0.43470
 H732 H -0.04814 0.53066 0.46794
 Zr733 Zr 0.48755 -0.03746 -0.03300
 O734 O 0.46495 -0.02667 -0.05500
 O735 O 0.49495 -0.06821 -0.04389
 O736 O 0.50183 -0.03476 -0.06239
 O737 O 0.44982 -0.05254 0.00333
 O738 O 0.53204 -0.01478 -0.05657
 O739 O 0.45812 -0.05450 -0.03078
 O740 O 0.52151 -0.07980 -0.02236
 O741 O 0.52068 -0.03955 -0.02767
 O742 O 0.49142 -0.05442 -0.00554
 O743 O 0.49869 -0.00550 -0.03195
 O744 O 0.47014 -0.01990 -0.01079
 Zr745 Zr 0.51956 -0.00647 0.02484
 Zr746 Zr 0.53149 -0.00779 -0.02500
 Zr747 Zr 0.47578 -0.03625 0.01688
 Zr748 Zr 0.52422 -0.05548 0.00024
 O749 O 0.44644 -0.02235 0.02663
 O750 O 0.55541 -0.06173 -0.01145
 O751 O 0.50858 -0.03866 0.02402
 O752 O 0.53661 -0.02422 0.00262
 O753 O 0.51586 0.01062 -0.00261
 O754 O 0.48652 -0.00456 0.01927
 C755 C 0.50922 -0.08180 -0.03812
 C756 C 0.44591 -0.05834 -0.01522
 C757 C 0.51925 -0.02542 -0.06827
 O758 O 0.56194 -0.02072 -0.03262
 O759 O 0.55583 0.01132 -0.01187
 O760 O 0.54806 0.01196 0.02239
 C761 C 0.55967 0.01702 0.00674
 O762 O 0.45920 0.01461 -0.03181
 Zr763 Zr 0.48292 0.01133 -0.00855
 O764 O 0.51276 0.02486 0.03503
 O765 O 0.53302 0.02151 -0.04145
 O766 O 0.49186 0.03814 -0.02676
 O767 O 0.45308 0.01988 0.00493
 O768 O 0.48874 0.03739 0.01136
 C769 C 0.50069 0.03954 0.02729
 O770 O 0.54308 -0.01661 0.04624
 O771 O 0.47311 -0.06661 0.03136
 O772 O 0.50649 -0.01100 0.05452
 O773 O 0.47724 -0.03243 0.04890
 O774 O 0.51495 -0.08402 0.01572
 O775 O 0.54473 -0.06062 0.02585
 C776 C 0.49007 -0.02188 0.06062
 H777 H 0.48548 -0.06919 -0.00618
 H778 H 0.55207 -0.02501 0.00608
 H779 H 0.47862 0.00317 0.03022
 H780 H 0.49628 0.00186 -0.04522
 H781 H 0.55811 -0.07739 -0.01008
 H782 H 0.56896 -0.01026 -0.04192
 H783 H 0.54723 0.02184 -0.04830
 H784 H 0.48221 0.05025 -0.02308
 H785 H 0.52511 -0.09552 0.01153
 H786 H 0.45892 -0.06690 0.03824
 H787 H 0.43941 -0.03299 0.03575
 H788 H 0.45096 0.03552 0.00271
 H789 H 0.55243 -0.07447 0.02415
 H790 H 0.54514 -0.00465 0.05617
 H791 H 0.46277 -0.03864 -0.06489
 H792 H 0.45371 0.02958 -0.03190
 Zr793 Zr 0.51150 0.53791 -0.03194
 O794 O 0.53388 0.52728 -0.05424
 O795 O 0.50416 0.56881 -0.04236
 O796 O 0.49698 0.53552 -0.06125
 O797 O 0.54958 0.55252 0.00430
 O798 O 0.46676 0.51556 -0.05545
 O799 O 0.54101 0.55482 -0.02973
 O800 O 0.47786 0.58033 -0.02046
 O801 O 0.47842 0.54008 -0.02634
 O802 O 0.50791 0.55462 -0.00424
 O803 O 0.50026 0.50599 -0.03118
 O804 O 0.52903 0.52009 -0.01006
 Zr805 Zr 0.47984 0.50649 0.02578
 Zr806 Zr 0.46752 0.50832 -0.02396
 Zr807 Zr 0.52366 0.53619 0.01784
 Zr808 Zr 0.47516 0.55574 0.00179
 O809 O 0.55303 0.52208 0.02722
 O810 O 0.44393 0.56222 -0.00967
 O811 O 0.49093 0.53865 0.02524
 O812 O 0.46268 0.52451 0.00389
 O813 O 0.48327 0.48965 -0.00191
 O814 O 0.51283 0.50453 0.01994
 C815 C 0.49004 0.58244 -0.03628
 C816 C 0.55336 0.55848 -0.01421
 C817 C 0.47950 0.52626 -0.06712
 O818 O 0.43707 0.52144 -0.03121
 O819 O 0.44323 0.48917 -0.01088
 O820 O 0.45128 0.48816 0.02331
 C821 C 0.43952 0.48328 0.00769
 O822 O 0.53967 0.48575 -0.03158
 Zr823 Zr 0.51616 0.48889 -0.00810
 O824 O 0.48665 0.47505 0.03555
 O825 O 0.46575 0.47918 -0.04074
 O826 O 0.50697 0.46227 -0.02654
 O827 O 0.54609 0.48012 0.00505
 O828 O 0.51044 0.46267 0.01155
 C829 C 0.49863 0.46041 0.02756
 O830 O 0.45651 0.51647 0.04746
 O831 O 0.52658 0.56641 0.03265
 O832 O 0.49314 0.51074 0.05541
 O833 O 0.52243 0.53211 0.04983
 O834 O 0.48462 0.58407 0.01761
 O835 O 0.45482 0.56069 0.02758
 C836 C 0.50963 0.52153 0.06153
 H837 H 0.51390 0.56937 -0.00473
 H838 H 0.44725 0.52532 0.00747
 H839 H 0.52079 0.49667 0.03075
 H840 H 0.50254 0.49874 -0.04454
 H841 H 0.44130 0.57788 -0.00809
 H842 H 0.42993 0.51109 -0.04058
 H843 H 0.45148 0.47895 -0.04748
 H844 H 0.51661 0.45010 -0.02308
 H845 H 0.47448 0.59566 0.01365
 H846 H 0.54082 0.56656 0.03945
 H847 H 0.56017 0.53260 0.03641
 H848 H 0.54815 0.46449 0.00260
 H849 H 0.44713 0.57457 0.02607
 H850 H 0.45450 0.50443 0.05726
 H851 H 0.53601 0.53934 -0.06400
 H852 H 0.54509 0.47076 -0.03190
 Zr853 Zr 0.01374 1.03735 0.46724
 O854 O 0.03623 1.02624 0.44526
 O855 O 0.00673 1.06816 0.45639
 O856 O -0.00057 1.03477 0.43785
 O857 O 0.05159 1.05212 0.50364
 O858 O -0.03100 1.01513 0.44362
 O859 O 0.04334 1.05407 0.46951
 O860 O -0.01974 1.08010 0.47789
 O861 O -0.01937 1.03982 0.47255
 O862 O 0.01003 1.05441 0.49472
 O863 O 0.00224 1.00553 0.46825
 O864 O 0.03093 1.01966 0.48946
 Zr865 Zr -0.01868 1.00687 0.52503
 Zr866 Zr -0.03054 1.00819 0.47518
 Zr867 Zr 0.02544 1.03614 0.51714
 Zr868 Zr -0.02277 1.05586 0.50047
 O869 O 0.05461 1.02192 0.52690
 O870 O -0.05386 1.06243 0.48874
 O871 O -0.00734 1.03894 0.52424
 O872 O -0.03551 1.02475 0.50281
 O873 O -0.01513 0.98967 0.49756
 O874 O 0.01434 1.00458 0.51949
 C875 C -0.00740 1.08192 0.46215
 C876 C 0.05558 1.05783 0.48509
 C877 C -0.01810 1.02561 0.43194
 O878 O -0.06085 1.02143 0.46758
 O879 O -0.05506 0.98933 0.48826
 O880 O -0.04734 0.98871 0.52253
 C881 C -0.05897 0.98370 0.50686
 O882 O 0.04154 0.98500 0.46843
 Zr883 Zr 0.01781 0.98858 0.49165
 O884 O -0.01224 0.97549 0.53518
 O885 O -0.03237 0.97889 0.45866
 O886 O 0.00861 0.96184 0.47338
 O887 O 0.04751 0.97971 0.50518
 O888 O 0.01163 0.96262 0.51150
 C889 C -0.00036 0.96065 0.52742
 O890 O -0.04213 1.01732 0.54639
 O891 O 0.02845 1.06650 0.53166
 O892 O -0.00561 1.01134 0.55472
 O893 O 0.02389 1.03242 0.54917
 O894 O -0.01322 1.08434 0.51598
 O895 O -0.04326 1.06130 0.52606
 C896 C 0.01091 1.02206 0.56087
 H897 H 0.01612 1.06912 0.49412
 H898 H -0.05097 1.02571 0.50626
 H899 H 0.02214 0.99679 0.53045
 H900 H 0.00459 0.99810 0.45498
 H901 H -0.05638 1.07813 0.49010
 H902 H -0.06798 1.01103 0.45826
 H903 H -0.04659 0.97869 0.45182
 H904 H 0.01812 0.94963 0.47705
 H905 H -0.02324 1.09594 0.51180
 H906 H 0.04264 1.06663 0.53856
 H907 H 0.06174 1.03249 0.53606
 H908 H 0.04946 0.96404 0.50293
 H909 H -0.05082 1.07522 0.52435
 H910 H -0.04434 1.00541 0.55631
 H911 H 0.03854 1.03815 0.43537
 H912 H 0.04686 0.96997 0.46833
 Zr913 Zr 0.71403 0.26163 0.21750
 O914 O 0.72506 0.28412 0.19553
 O915 O 0.68330 0.25458 0.20660
 O916 O 0.71663 0.24722 0.18812
 O917 O 0.69919 0.29964 0.25387
 O918 O 0.73630 0.21673 0.19394
 O919 O 0.69728 0.29131 0.21974
 O920 O 0.67143 0.22812 0.22811
 O921 O 0.71164 0.22844 0.22281
 O922 O 0.69700 0.25795 0.24495
 O923 O 0.74580 0.25012 0.21859
 O924 O 0.73162 0.27891 0.23976
 Zr925 Zr 0.74448 0.22924 0.27536
 Zr926 Zr 0.74323 0.21727 0.22551
 Zr927 Zr 0.71518 0.27345 0.26740
 Zr928 Zr 0.69564 0.22508 0.25070
 O929 O 0.72928 0.30271 0.27721
 O930 O 0.68919 0.19390 0.23888
 O931 O 0.71247 0.24060 0.27450
 O932 O 0.72671 0.21233 0.25310
 O933 O 0.76164 0.23276 0.24793
 O934 O 0.74669 0.26234 0.26983
 C935 C 0.66958 0.24046 0.21237
 C936 C 0.69349 0.30361 0.23531
 C937 C 0.72580 0.22963 0.18224
 O938 O 0.73013 0.18685 0.21788
 O939 O 0.76211 0.19273 0.23862
 O940 O 0.76268 0.20051 0.27289
 C941 C 0.76773 0.18884 0.25723
 O942 O 0.76618 0.28953 0.21883
 Zr943 Zr 0.76265 0.26577 0.24202
 O944 O 0.77577 0.23571 0.28558
 O945 O 0.77247 0.21544 0.20904
 O946 O 0.78936 0.25656 0.22379
 O947 O 0.77140 0.29557 0.25561
 O948 O 0.78856 0.25959 0.26190
 C949 C 0.79056 0.24759 0.27782
 O950 O 0.73413 0.20577 0.29671
 O951 O 0.68487 0.27650 0.28183
 O952 O 0.73993 0.24239 0.30505
 O953 O 0.71882 0.27194 0.29942
 O954 O 0.66723 0.23465 0.26620
 O955 O 0.69026 0.20454 0.27624
 C956 C 0.72915 0.25895 0.31115
 H957 H 0.68232 0.26406 0.24432
 H958 H 0.72579 0.19684 0.25655
 H959 H 0.75443 0.27017 0.28081
 H960 H 0.75320 0.25245 0.20533
 H961 H 0.67354 0.19137 0.24021
 H962 H 0.74054 0.17970 0.20858
 H963 H 0.77271 0.20118 0.20219
 H964 H 0.80151 0.26610 0.22750
 H965 H 0.65567 0.22460 0.26199
 H966 H 0.68470 0.29072 0.28875
 H967 H 0.71871 0.30988 0.28632
 H968 H 0.78703 0.29752 0.25342
 H969 H 0.67641 0.19693 0.27446
 H970 H 0.74601 0.20360 0.30666
 H971 H 0.71318 0.28643 0.18563
 H972 H 0.78115 0.29491 0.21880
 Zr973 Zr 0.78778 0.73714 0.71701
 O974 O 0.77766 0.71469 0.69453
 O975 O 0.81871 0.74466 0.70699
 O976 O 0.78577 0.75173 0.68771
 O977 O 0.80203 0.69899 0.75333
 O978 O 0.76556 0.78192 0.69335
 O979 O 0.80481 0.70763 0.71935
 O980 O 0.82967 0.77106 0.72910
 O981 O 0.78962 0.77030 0.72273
 O982 O 0.80398 0.74079 0.74492
 O983 O 0.75585 0.74825 0.71740
 O984 O 0.76978 0.71946 0.73862
 Zr985 Zr 0.75531 0.76867 0.77440
 Zr986 Zr 0.75783 0.78107 0.72474
 Zr987 Zr 0.78537 0.72488 0.76673
 Zr988 Zr 0.80478 0.77362 0.75106
 O989 O 0.77135 0.69538 0.77587
 O990 O 0.81120 0.80497 0.73976
 O991 O 0.78747 0.75770 0.77425
 O992 O 0.77351 0.78597 0.75279
 O993 O 0.73897 0.76518 0.74650
 O994 O 0.75367 0.73559 0.76847
 C995 C 0.83210 0.75889 0.71327
 C996 C 0.80829 0.69525 0.73488
 C997 C 0.77651 0.76923 0.68178
 O998 O 0.77081 0.81168 0.71773
 O999 O 0.73836 0.80533 0.73763
 O1000 O 0.73688 0.79723 0.77178
 C1001 C 0.73218 0.80900 0.75613
 O1002 O 0.73594 0.70864 0.71665
 Zr1003 Zr 0.73854 0.73221 0.74022
 O1004 O 0.72385 0.76169 0.78375
 O1005 O 0.72901 0.78272 0.70760
 O1006 O 0.71222 0.74129 0.72145
 O1007 O 0.72982 0.70216 0.75321
 O1008 O 0.71202 0.73782 0.75953
 C1009 C 0.70945 0.74964 0.77553
 O1010 O 0.76475 0.79208 0.79627
 O1011 O 0.81530 0.72208 0.78191
 O1012 O 0.75920 0.75534 0.80405
 O1013 O 0.78080 0.72609 0.79867
 O1014 O 0.83285 0.76424 0.76721
 O1015 O 0.80917 0.79400 0.77695
 C1016 C 0.76999 0.73886 0.81027
 H1017 H 0.81875 0.73485 0.74461
 H1018 H 0.77415 0.80145 0.75643
 H1019 H 0.74573 0.72757 0.77916
 H1020 H 0.74884 0.74595 0.70394
 H1021 H 0.82678 0.80768 0.74154
 H1022 H 0.76058 0.81879 0.70824
 H1023 H 0.72880 0.79702 0.70088
 H1024 H 0.70010 0.73155 0.72473
 H1025 H 0.84440 0.77447 0.76342
 H1026 H 0.81546 0.70778 0.78864
 H1027 H 0.78174 0.68827 0.78519
 H1028 H 0.71428 0.70002 0.75060
 H1029 H 0.82299 0.80178 0.77564
 H1030 H 0.75257 0.79403 0.80592
 H1031 H 0.78985 0.71262 0.68490
 H1032 H 0.72104 0.70309 0.71618
 Zr1033 Zr 0.21192 0.23811 0.78325
 O1034 O 0.22182 0.21561 0.80573
 O1035 O 0.18108 0.24605 0.79332
 O1036 O 0.21416 0.25274 0.81256
 O1037 O 0.19729 0.19999 0.74694
 O1038 O 0.23463 0.28269 0.80691
 O1039 O 0.19464 0.20877 0.78092
 O1040 O 0.17034 0.27251 0.77125
 O1041 O 0.21037 0.27127 0.77755
 O1042 O 0.19570 0.24184 0.75537
 O1043 O 0.24395 0.24886 0.78281
 O1044 O 0.22972 0.22016 0.76161
 Zr1045 Zr 0.24457 0.26907 0.72582
 Zr1046 Zr 0.24225 0.28168 0.77550
 Zr1047 Zr 0.21414 0.22566 0.73352
 Zr1048 Zr 0.19519 0.27466 0.74924
 O1049 O 0.22788 0.19597 0.72433
 O1050 O 0.18908 0.30614 0.76050
 O1051 O 0.21232 0.25847 0.72602
 O1052 O 0.22657 0.28665 0.74747
 O1053 O 0.26093 0.26550 0.75369
 O1054 O 0.24593 0.23600 0.73174
 C1055 C 0.16782 0.26042 0.78708
 C1056 C 0.19104 0.19636 0.76540
 C1057 C 0.22361 0.27014 0.81850
 O1058 O 0.22954 0.31243 0.78258
 O1059 O 0.26186 0.30571 0.76256
 O1060 O 0.26321 0.29746 0.72841
 C1061 C 0.26801 0.30926 0.74404
 O1062 O 0.26349 0.20902 0.78351
 Zr1063 Zr 0.26108 0.23254 0.75996
 O1064 O 0.27598 0.26172 0.71644
 O1065 O 0.27114 0.28307 0.79254
 O1066 O 0.28750 0.24139 0.77871
 O1067 O 0.26952 0.20236 0.74696
 O1068 O 0.28761 0.23779 0.74063
 C1069 C 0.29028 0.24954 0.72464
 O1070 O 0.23531 0.29250 0.70395
 O1071 O 0.18415 0.22314 0.71841
 O1072 O 0.24051 0.25569 0.69617
 O1073 O 0.21864 0.22671 0.70157
 O1074 O 0.16699 0.26551 0.73317
 O1075 O 0.19093 0.29496 0.72333
 C1076 C 0.22955 0.23933 0.68997
 H1077 H 0.18088 0.23607 0.75572
 H1078 H 0.22604 0.30212 0.74383
 H1079 H 0.25378 0.22785 0.72103
 H1080 H 0.25096 0.24651 0.79626
 H1081 H 0.17352 0.30902 0.75873
 H1082 H 0.23985 0.31947 0.79203
 H1083 H 0.27149 0.29738 0.79928
 H1084 H 0.29953 0.23151 0.77540
 H1085 H 0.15555 0.27589 0.73697
 H1086 H 0.18385 0.20883 0.71166
 H1087 H 0.21739 0.18894 0.71505
 H1088 H 0.28504 0.20005 0.74957
 H1089 H 0.17717 0.30287 0.72464
 H1090 H 0.24750 0.29427 0.69428
 H1091 H 0.20962 0.21372 0.81536
 H1092 H 0.27835 0.20333 0.78401
 Zr1093 Zr 0.28748 0.76329 0.28204
 O1094 O 0.27667 0.78589 0.30411
 O1095 O 0.31822 0.75603 0.29281
 O1096 O 0.28490 0.74895 0.31142
 O1097 O 0.30228 0.80119 0.24571
 O1098 O 0.26509 0.71858 0.30560
 O1099 O 0.30434 0.79287 0.27981
 O1100 O 0.32987 0.72947 0.27118
 O1101 O 0.28972 0.73009 0.27665
 O1102 O 0.30436 0.75949 0.25452
 O1103 O 0.25566 0.75198 0.28106
 O1104 O 0.26984 0.78066 0.25991
 Zr1105 Zr 0.25664 0.73104 0.22424
 Zr1106 Zr 0.25808 0.71911 0.27405
 Zr1107 Zr 0.28613 0.77508 0.23218
 Zr1108 Zr 0.30557 0.72661 0.24867
 O1109 O 0.27209 0.80441 0.22250
 O1110 O 0.31198 0.69538 0.26030
 O1111 O 0.28869 0.74221 0.22498
 O1112 O 0.27445 0.71404 0.24638
 O1113 O 0.23962 0.73469 0.25175
 O1114 O 0.25457 0.76416 0.22985
 C1115 C 0.33184 0.74179 0.28696
 C1116 C 0.30809 0.80513 0.26425
 C1117 C 0.27566 0.73144 0.31729
 O1118 O 0.27114 0.68864 0.28157
 O1119 O 0.23908 0.69464 0.26095
 O1120 O 0.23836 0.70241 0.22671
 C1121 C 0.23336 0.69077 0.24236
 O1122 O 0.23542 0.79153 0.28099
 Zr1123 Zr 0.23875 0.76771 0.25774
 O1124 O 0.22532 0.73766 0.21418
 O1125 O 0.22889 0.71744 0.29060
 O1126 O 0.21211 0.75867 0.27608
 O1127 O 0.23004 0.79753 0.24425
 O1128 O 0.21271 0.76163 0.23797
 C1129 C 0.21060 0.74962 0.22204
 O1130 O 0.26680 0.70749 0.20278
 O1131 O 0.31639 0.77794 0.21762
 O1132 O 0.26109 0.74413 0.19457
 O1133 O 0.28233 0.77356 0.20016
 O1134 O 0.33396 0.73605 0.23311
 O1135 O 0.31077 0.70607 0.22302
 C1136 C 0.27189 0.76061 0.18844
 H1137 H 0.31907 0.76551 0.25511
 H1138 H 0.27530 0.69854 0.24289
 H1139 H 0.24680 0.77202 0.21892
 H1140 H 0.24832 0.75437 0.29435
 H1141 H 0.32762 0.69276 0.25889
 H1142 H 0.26076 0.68155 0.29090
 H1143 H 0.22863 0.70319 0.29743
 H1144 H 0.19997 0.76828 0.27244
 H1145 H 0.34550 0.72593 0.23723
 H1146 H 0.31658 0.79217 0.21076
 H1147 H 0.28265 0.81151 0.21336
 H1148 H 0.21442 0.79957 0.24651
 H1149 H 0.32462 0.69842 0.22468
 H1150 H 0.25487 0.70537 0.19289
 H1151 H 0.28860 0.78812 0.31398
 H1152 H 0.22047 0.79698 0.28111
 Zr1153 Zr 0.21293 0.76288 0.71683
 O1154 O 0.22374 0.78539 0.69477
 O1155 O 0.18214 0.75575 0.70615
 O1156 O 0.21532 0.74847 0.68743
 O1157 O 0.19828 0.80088 0.75328
 O1158 O 0.23506 0.71800 0.69311
 O1159 O 0.19612 0.79252 0.71917
 O1160 O 0.17051 0.72925 0.72775
 O1161 O 0.21064 0.72970 0.72217
 O1162 O 0.19613 0.75919 0.74440
 O1163 O 0.24473 0.75143 0.71767
 O1164 O 0.23067 0.78021 0.73894
 Zr1165 Zr 0.24390 0.73059 0.77446
 Zr1166 Zr 0.24226 0.71858 0.72463
 Zr1167 Zr 0.21447 0.77474 0.76671
 Zr1168 Zr 0.19488 0.72632 0.75018
 O1169 O 0.22859 0.80405 0.77636
 O1170 O 0.18838 0.69510 0.73849
 O1171 O 0.21187 0.74189 0.77385
 O1172 O 0.22598 0.71362 0.75235
 O1173 O 0.26083 0.73412 0.74690
 O1174 O 0.24601 0.76369 0.76890
 C1175 C 0.16851 0.74157 0.71201
 C1176 C 0.19242 0.80482 0.73476
 C1177 C 0.22446 0.73089 0.68149
 O1178 O 0.22916 0.68812 0.71714
 O1179 O 0.26134 0.69411 0.73762
 O1180 O 0.26217 0.70192 0.77188
 C1181 C 0.26713 0.69025 0.75619
 O1182 O 0.26503 0.79087 0.71773
 Zr1183 Zr 0.26175 0.76713 0.74097
 O1184 O 0.27525 0.73712 0.78444
 O1185 O 0.27136 0.71678 0.70792
 O1186 O 0.28831 0.75793 0.72254
 O1187 O 0.27058 0.79694 0.75446
 O1188 O 0.28784 0.76099 0.76066
 C1189 C 0.28996 0.74900 0.77657
 O1190 O 0.23375 0.70711 0.79589
 O1191 O 0.18428 0.77773 0.78139
 O1192 O 0.23960 0.74375 0.80417
 O1193 O 0.21842 0.77328 0.79871
 O1194 O 0.16655 0.73586 0.76584
 O1195 O 0.18976 0.70584 0.77581
 C1196 C 0.22888 0.76031 0.81036
 H1197 H 0.18143 0.76526 0.74387
 H1198 H 0.22513 0.69813 0.75581
 H1199 H 0.25384 0.77154 0.77981
 H1200 H 0.25202 0.75376 0.70436
 H1201 H 0.17274 0.69254 0.73995
 H1202 H 0.23951 0.68097 0.70778
 H1203 H 0.27156 0.70251 0.70108
 H1204 H 0.30048 0.76749 0.72616
 H1205 H 0.15499 0.72576 0.76174
 H1206 H 0.18414 0.79197 0.78829
 H1207 H 0.21810 0.81120 0.78556
 H1208 H 0.28619 0.79890 0.75214
 H1209 H 0.17590 0.69820 0.77417
 H1210 H 0.24571 0.70495 0.80575
 H1211 H 0.21177 0.78767 0.68495
 H1212 H 0.28000 0.79626 0.71756
 Zr1213 Zr 0.28669 0.23743 0.21728
 O1214 O 0.27594 0.21492 0.19513
 O1215 O 0.31745 0.24469 0.20662
 O1216 O 0.28418 0.25189 0.18795
 O1217 O 0.30148 0.19942 0.25354
 O1218 O 0.26430 0.28225 0.19382
 O1219 O 0.30360 0.20784 0.21947
 O1220 O 0.32904 0.27113 0.22838
 O1221 O 0.28886 0.27061 0.22279
 O1222 O 0.30349 0.24113 0.24486
 O1223 O 0.25485 0.24876 0.21823
 O1224 O 0.26903 0.22000 0.23933
 Zr1225 Zr 0.25564 0.26950 0.27513
 Zr1226 Zr 0.25720 0.28161 0.22535
 Zr1227 Zr 0.28523 0.22548 0.26711
 Zr1228 Zr 0.30464 0.27399 0.25081
 O1229 O 0.27122 0.19611 0.27665
 O1230 O 0.31102 0.30523 0.23922
 O1231 O 0.28772 0.25832 0.27441
 O1232 O 0.27349 0.28656 0.25307
 O1233 O 0.23870 0.26596 0.24756
 O1234 O 0.25365 0.23641 0.26939
 C1235 C 0.33106 0.25886 0.21257
 C1236 C 0.30735 0.19553 0.23500
 C1237 C 0.27493 0.26943 0.18211
 O1238 O 0.27019 0.31210 0.21794
 O1239 O 0.23814 0.30605 0.23849
 O1240 O 0.23735 0.29817 0.27271
 C1241 C 0.23239 0.30988 0.25709
 O1242 O 0.23466 0.20926 0.21810
 Zr1243 Zr 0.23791 0.23296 0.24146
 O1244 O 0.22431 0.26284 0.28509
 O1245 O 0.22804 0.28332 0.20875
 O1246 O 0.21128 0.24209 0.22311
 O1247 O 0.22924 0.20308 0.25481
 O1248 O 0.21183 0.23894 0.26121
 C1249 C 0.20965 0.25089 0.27718
 O1250 O 0.26572 0.29296 0.29669
 O1251 O 0.31545 0.22256 0.28174
 O1252 O 0.26003 0.25629 0.30477
 O1253 O 0.28133 0.22687 0.29912
 O1254 O 0.33298 0.26452 0.26646
 O1255 O 0.30972 0.29449 0.27651
 C1256 C 0.27084 0.23978 0.31085
 H1257 H 0.31821 0.23510 0.24430
 H1258 H 0.27431 0.30205 0.25661
 H1259 H 0.24587 0.22850 0.28028
 H1260 H 0.24755 0.24643 0.20491
 H1261 H 0.32665 0.30784 0.24067
 H1262 H 0.25979 0.31923 0.20863
 H1263 H 0.22777 0.29758 0.20194
 H1264 H 0.19916 0.23247 0.22669
 H1265 H 0.34451 0.27465 0.26240
 H1266 H 0.31565 0.20831 0.28857
 H1267 H 0.28176 0.18897 0.28579
 H1268 H 0.21363 0.20105 0.25252
 H1269 H 0.32354 0.30218 0.27487
 H1270 H 0.25376 0.29505 0.30656
 H1271 H 0.28790 0.21271 0.18528
 H1272 H 0.21973 0.20379 0.21795
 Zr1273 Zr 0.71440 0.73715 0.28282
 O1274 O 0.72530 0.71455 0.30478
 O1275 O 0.68373 0.74447 0.29377
 O1276 O 0.71713 0.75150 0.31221
 O1277 O 0.69932 0.69928 0.24645
 O1278 O 0.73700 0.78182 0.30640
 O1279 O 0.69748 0.70760 0.28059
 O1280 O 0.67202 0.77107 0.27230
 O1281 O 0.71222 0.77036 0.27755
 O1282 O 0.69736 0.74100 0.25540
 O1283 O 0.74624 0.74838 0.28172
 O1284 O 0.73185 0.71974 0.26054
 Zr1285 Zr 0.74500 0.76932 0.22496
 Zr1286 Zr 0.74387 0.78126 0.27482
 Zr1287 Zr 0.71542 0.72537 0.23292
 Zr1288 Zr 0.69621 0.77388 0.24968
 O1289 O 0.72933 0.69601 0.22302
 O1290 O 0.68996 0.80512 0.26147
 O1291 O 0.71292 0.75824 0.22585
 O1292 O 0.72735 0.78636 0.24726
 O1293 O 0.76217 0.76563 0.25237
 O1294 O 0.74700 0.73620 0.23046
 C1295 C 0.67011 0.75873 0.28804
 C1296 C 0.69361 0.69534 0.26501
 C1297 C 0.72643 0.76900 0.31810
 O1298 O 0.73097 0.81178 0.28250
 O1299 O 0.76287 0.80568 0.26170
 O1300 O 0.76336 0.79791 0.22742
 C1301 C 0.76848 0.80954 0.24308
 O1302 O 0.76637 0.70880 0.28142
 Zr1303 Zr 0.76296 0.73260 0.25825
 O1304 O 0.77624 0.76257 0.21470
 O1305 O 0.77315 0.78283 0.29124
 O1306 O 0.78975 0.74158 0.27646
 O1307 O 0.77151 0.70274 0.24465
 O1308 O 0.78888 0.73856 0.23834
 C1309 C 0.79095 0.75055 0.22243
 O1310 O 0.73478 0.79291 0.20364
 O1311 O 0.68506 0.72257 0.21855
 O1312 O 0.74030 0.75626 0.19527
 O1313 O 0.71899 0.72691 0.20089
 O1314 O 0.66771 0.76453 0.23422
 O1315 O 0.69092 0.79446 0.22414
 C1316 C 0.72939 0.73982 0.18915
 H1317 H 0.68264 0.73501 0.25605
 H1318 H 0.72652 0.80187 0.24382
 H1319 H 0.75467 0.72831 0.21946
 H1320 H 0.75365 0.74598 0.29496
 H1321 H 0.67432 0.80779 0.26014
 H1322 H 0.74143 0.81883 0.29180
 H1323 H 0.77349 0.79707 0.29811
 H1324 H 0.80184 0.73194 0.27272
 H1325 H 0.65622 0.77467 0.23845
 H1326 H 0.68478 0.70835 0.21163
 H1327 H 0.71869 0.68894 0.21393
 H1328 H 0.78713 0.70065 0.24683
 H1329 H 0.67709 0.80214 0.22589
 H1330 H 0.74666 0.79498 0.19368
 H1331 H 0.71341 0.71234 0.31469
 H1332 H 0.78131 0.70331 0.28146
 Zr1333 Zr 0.78800 0.26192 0.78309
 O1334 O 0.77789 0.28439 0.80559
 O1335 O 0.81877 0.25402 0.79333
 O1336 O 0.78562 0.24726 0.81233
 O1337 O 0.80281 0.30007 0.74702
 O1338 O 0.76522 0.21729 0.80645
 O1339 O 0.80524 0.29128 0.78098
 O1340 O 0.82968 0.22755 0.77125
 O1341 O 0.78962 0.22876 0.77728
 O1342 O 0.80441 0.25822 0.75530
 O1343 O 0.75599 0.25113 0.78242
 O1344 O 0.77031 0.27985 0.76141
 Zr1345 Zr 0.75578 0.23093 0.72535
 Zr1346 Zr 0.75778 0.21832 0.77500
 Zr1347 Zr 0.78610 0.27438 0.73340
 Zr1348 Zr 0.80501 0.22541 0.74905
 O1349 O 0.77240 0.30406 0.72423
 O1350 O 0.81109 0.19392 0.76021
 O1351 O 0.78802 0.24157 0.72578
 O1352 O 0.77366 0.21337 0.74705
 O1353 O 0.73922 0.23447 0.75314
 O1354 O 0.75434 0.26400 0.73139
 C1355 C 0.83208 0.23964 0.78714
 C1356 C 0.80892 0.30371 0.76553
 C1357 C 0.77617 0.22984 0.81814
 O1358 O 0.77049 0.18757 0.78202
 O1359 O 0.73827 0.19428 0.76186
 O1360 O 0.73714 0.20253 0.72773
 C1361 C 0.73224 0.19073 0.74330
 O1362 O 0.73635 0.29092 0.78315
 Zr1363 Zr 0.73898 0.26742 0.75953
 O1364 O 0.72444 0.23824 0.71579
 O1365 O 0.72879 0.21688 0.79189
 O1366 O 0.71244 0.25850 0.77805
 O1367 O 0.73060 0.29761 0.74659
 O1368 O 0.71260 0.26216 0.73998
 C1369 C 0.71007 0.25042 0.72392
 O1370 O 0.76525 0.20752 0.70347
 O1371 O 0.81618 0.27694 0.71848
 O1372 O 0.75997 0.24435 0.69578
 O1373 O 0.78177 0.27336 0.70142
 O1374 O 0.83330 0.23460 0.73321
 O1375 O 0.80948 0.20512 0.72309
 C1376 C 0.77093 0.26075 0.68971
 H1377 H 0.81922 0.26401 0.75576
 H1378 H 0.77422 0.19790 0.74336
 H1379 H 0.74654 0.27214 0.72067
 H1380 H 0.74888 0.25346 0.79584
 H1381 H 0.82665 0.19106 0.75854
 H1382 H 0.76013 0.18052 0.79140
 H1383 H 0.72840 0.20254 0.79854
 H1384 H 0.70041 0.26835 0.77470
 H1385 H 0.84474 0.22425 0.73705
 H1386 H 0.81651 0.29125 0.71178
 H1387 H 0.78294 0.31111 0.71504
 H1388 H 0.71506 0.29989 0.74909
 H1389 H 0.82325 0.19725 0.72445
 H1390 H 0.75314 0.20573 0.69371
 H1391 H 0.79002 0.28629 0.81531
 H1392 H 0.72147 0.29658 0.78356
 C1393 C 0.42784 1.02824 0.30553
 C1394 C 0.43762 1.02751 0.32151
 C1395 C 0.44924 1.02613 0.34060
 C1396 C 0.45619 1.04488 0.35057
 C1397 C 0.46669 1.04350 0.36952
 C1398 C 0.47037 1.02336 0.37858
 C1399 C 0.46374 1.00459 0.36844
 C1400 C 0.45324 1.00597 0.34949
 C1401 C 0.47912 1.02214 0.39903
 C1402 C 0.48519 1.02154 0.41661
 H1403 H 0.45318 1.06056 0.34387
 H1404 H 0.47153 1.05814 0.37731
 H1405 H 0.46627 0.98895 0.37537
 H1406 H 0.44793 0.99136 0.34194
 C1407 C -0.07233 0.52785 0.80633
 C1408 C -0.06287 0.52711 0.82249
 C1409 C -0.05164 0.52577 0.84179
 C1410 C -0.04471 0.54453 0.85175
 C1411 C -0.03456 0.54319 0.87088
 C1412 C -0.03124 0.52308 0.88012
 C1413 C -0.03786 0.50430 0.87000
 C1414 C -0.04799 0.50564 0.85087
 C1415 C -0.02282 0.52193 0.90070
 C1416 C -0.01700 0.52139 0.91835
 H1417 H -0.04744 0.56018 0.84490
 H1418 H -0.02973 0.55784 0.87865
 H1419 H -0.03559 0.48869 0.87707
 H1420 H -0.05329 0.49102 0.84332
 C1421 C 0.07209 -0.02777 0.80684
 C1422 C 0.06266 -0.02704 0.82302
 C1423 C 0.05146 -0.02573 0.84235
 C1424 C 0.04474 -0.04453 0.85233
 C1425 C 0.03464 -0.04323 0.87148
 C1426 C 0.03115 -0.02313 0.88075
 C1427 C 0.03756 -0.00432 0.87061
 C1428 C 0.04766 -0.00562 0.85145
 C1429 C 0.02272 -0.02198 0.90133
 C1430 C 0.01686 -0.02142 0.91897
 H1431 H 0.04760 -0.06017 0.84546
 H1432 H 0.02996 -0.05791 0.87926
 H1433 H 0.03517 0.01130 0.87770
 H1434 H 0.05280 0.00903 0.84390
 C1435 C 0.57252 0.47118 0.30663
 C1436 C 0.56267 0.47191 0.32257
 C1437 C 0.55097 0.47325 0.34163
 C1438 C 0.54424 0.45446 0.35161
 C1439 C 0.53369 0.45580 0.37054
 C1440 C 0.52975 0.47593 0.37957
 C1441 C 0.53615 0.49474 0.36942
 C1442 C 0.54670 0.49340 0.35049
 C1443 C 0.52095 0.47714 0.40001
 C1444 C 0.51485 0.47776 0.41758
 H1445 H 0.54746 0.43879 0.34494
 H1446 H 0.52903 0.44113 0.37834
 H1447 H 0.53341 0.51038 0.37633
 H1448 H 0.55183 0.50804 0.34293
 C1449 C 0.57247 0.52799 0.19398
 C1450 C 0.56264 0.52725 0.17803
 C1451 C 0.55096 0.52590 0.15896
 C1452 C 0.54390 0.54468 0.14913
 C1453 C 0.53337 0.54334 0.13019
 C1454 C 0.52980 0.52323 0.12100
 C1455 C 0.53653 0.50444 0.13100
 C1456 C 0.54705 0.50577 0.14994
 C1457 C 0.52103 0.52206 0.10055
 C1458 C 0.51495 0.52150 0.08297
 H1459 H 0.54684 0.56033 0.15594
 H1460 H 0.52846 0.55800 0.12251
 H1461 H 0.53408 0.48881 0.12395
 H1462 H 0.55245 0.49114 0.15738
 C1463 C 0.07168 1.02865 0.69429
 C1464 C 0.06214 1.02790 0.67817
 C1465 C 0.05082 1.02660 0.65890
 C1466 C 0.04680 1.00646 0.64992
 C1467 C 0.03662 1.00516 0.63080
 C1468 C 0.03036 1.02398 0.62058
 C1469 C 0.03406 1.04410 0.62971
 C1470 C 0.04424 1.04540 0.64883
 C1471 C 0.02190 1.02280 0.60001
 C1472 C 0.01603 1.02218 0.58236
 H1473 H 0.05183 0.99181 0.65755
 H1474 H 0.03406 0.98953 0.62381
 H1475 H 0.02951 1.05878 0.62187
 H1476 H 0.04728 1.06106 0.65560
 C1477 C -0.07144 0.47125 0.69372
 C1478 C -0.06196 0.47205 0.67758
 C1479 C -0.05073 0.47348 0.65829
 C1480 C -0.04424 0.45475 0.64799
 C1481 C -0.03416 0.45619 0.62884
 C1482 C -0.03046 0.47637 0.61991
 C1483 C -0.03663 0.49512 0.63037
 C1484 C -0.04670 0.49368 0.64952
 C1485 C -0.02213 0.47770 0.59931
 C1486 C -0.01639 0.47844 0.58164
 H1487 H -0.04728 0.43904 0.65460
 H1488 H -0.02967 0.44156 0.62081
 H1489 H -0.03407 0.51081 0.62353
 H1490 H -0.05167 0.50828 0.65732
 C1491 C 0.42817 -0.02852 0.19347
 C1492 C 0.43788 -0.02779 0.17745
 C1493 C 0.44941 -0.02647 0.15831
 C1494 C 0.45602 -0.04527 0.14819
 C1495 C 0.46640 -0.04394 0.12917
 C1496 C 0.47028 -0.02381 0.12020
 C1497 C 0.46399 -0.00499 0.13049
 C1498 C 0.45361 -0.00632 0.14951
 C1499 C 0.47891 -0.02260 0.09971
 C1500 C 0.48488 -0.02197 0.08210
 H1501 H 0.45284 -0.06093 0.15482
 H1502 H 0.47097 -0.05861 0.12127
 H1503 H 0.46668 0.01065 0.12362
 H1504 H 0.44856 0.00833 0.15717
 C1505 C 0.31109 0.39967 0.01804
 C1506 C 0.32706 0.41069 0.01681
 C1507 C 0.34653 0.42334 0.01590
 C1508 C 0.36560 0.41530 0.02445
 C1509 C 0.38455 0.42745 0.02363
 C1510 C 0.38458 0.44775 0.01427
 C1511 C 0.36549 0.45583 0.00577
 C1512 C 0.34654 0.44368 0.00659
 C1513 C 0.40423 0.46008 0.01284
 C1514 C 0.42050 0.47053 0.01099
 H1515 H 0.36584 0.39962 0.03172
 H1516 H 0.39917 0.42096 0.03019
 H1517 H 0.36528 0.47146 -0.00159
 H1518 H 0.33194 0.45012 -0.00006
 C1519 C -0.18726 0.89986 0.51718
 C1520 C -0.17137 0.91100 0.51595
 C1521 C -0.15196 0.92375 0.51506
 C1522 C -0.13312 0.91623 0.52446
 C1523 C -0.11421 0.92843 0.52363
 C1524 C -0.11399 0.94828 0.51341
 C1525 C -0.13286 0.95584 0.50407
 C1526 C -0.15177 0.94363 0.50490
 C1527 C -0.09435 0.96061 0.51197
 C1528 C -0.07806 0.97104 0.51014
 H1529 H -0.13302 0.90091 0.53238
 H1530 H -0.09976 0.92234 0.53085
 H1531 H -0.13291 0.97111 0.49605
 H1532 H -0.16620 0.94966 0.49758
 C1533 C -0.18686 0.10035 0.98442
 C1534 C -0.17083 0.08941 0.98587
 C1535 C -0.15131 0.07684 0.98707
 C1536 C -0.13472 0.08313 1.00034
 C1537 C -0.11552 0.07135 1.00107
 C1538 C -0.11271 0.05321 0.98850
 C1539 C -0.12930 0.04690 0.97523
 C1540 C -0.14851 0.05869 0.97450
 C1541 C -0.09310 0.04076 0.98974
 C1542 C -0.07686 0.03021 0.99146
 H1543 H -0.13660 0.09717 1.01007
 H1544 H -0.10289 0.07636 1.01147
 H1545 H -0.12741 0.03286 0.96550
 H1546 H -0.16114 0.05369 0.96409
 C1547 C 0.31113 0.60063 0.48226
 C1548 C 0.32711 0.58959 0.48348
 C1549 C 0.34660 0.57692 0.48437
 C1550 C 0.34668 0.55667 0.49384
 C1551 C 0.36565 0.54451 0.49467
 C1552 C 0.38468 0.55249 0.48601
 C1553 C 0.38458 0.57271 0.47648
 C1554 C 0.36561 0.58486 0.47565
 C1555 C 0.40435 0.54016 0.48746
 C1556 C 0.42063 0.52968 0.48933
 H1557 H 0.33213 0.55031 0.50063
 H1558 H 0.36551 0.52894 0.50215
 H1559 H 0.39916 0.57913 0.46979
 H1560 H 0.36578 0.60048 0.46826
 C1561 C 0.18662 0.60074 0.51576
 C1562 C 0.17064 0.58972 0.51458
 C1563 C 0.15115 0.57708 0.51376
 C1564 C 0.15105 0.55676 0.50435
 C1565 C 0.13208 0.54464 0.50361
 C1566 C 0.11307 0.55272 0.51229
 C1567 C 0.11320 0.57301 0.52175
 C1568 C 0.13216 0.58513 0.52249
 C1569 C 0.09338 0.54044 0.51092
 C1570 C 0.07707 0.53003 0.50913
 H1571 H 0.16559 0.55032 0.49756
 H1572 H 0.13220 0.52902 0.49618
 H1573 H 0.09863 0.57951 0.52845
 H1574 H 0.13200 0.60080 0.52983
 C1575 C 0.68820 0.10050 0.01714
 C1576 C 0.67221 0.08952 0.01589
 C1577 C 0.65271 0.07689 0.01496
 C1578 C 0.63364 0.08502 0.02346
 C1579 C 0.61468 0.07289 0.02264
 C1580 C 0.61464 0.05252 0.01335
 C1581 C 0.63374 0.04436 0.00490
 C1582 C 0.65270 0.05649 0.00572
 C1583 C 0.59498 0.04021 0.01191
 C1584 C 0.57870 0.02976 0.01006
 H1585 H 0.63341 0.10075 0.03067
 H1586 H 0.60005 0.07945 0.02915
 H1587 H 0.63394 0.02867 -0.00240
 H1588 H 0.66731 0.04998 -0.00089
 C1589 C 0.68942 0.89988 0.48291
 C1590 C 0.67336 0.91082 0.48394
 C1591 C 0.65376 0.92335 0.48460
 C1592 C 0.63438 0.91423 0.47788
 C1593 C 0.61532 0.92626 0.47842
 C1594 C 0.61550 0.94754 0.48564
 C1595 C 0.63489 0.95669 0.49229
 C1596 C 0.65396 0.94465 0.49175
 C1597 C 0.59575 0.95977 0.48690
 C1598 C 0.57941 0.97018 0.48866
 H1599 H 0.63399 0.89780 0.47228
 H1600 H 0.60046 0.91893 0.47332
 H1601 H 0.63526 0.97308 0.49799
 H1602 H 0.66880 0.95193 0.49696
 C1603 C 0.18639 0.39967 0.98486
 C1604 C 0.17036 0.41064 0.98607
 C1605 C 0.15081 0.42322 0.98689
 C1606 C 0.15063 0.44359 0.99621
 C1607 C 0.13162 0.45570 0.99688
 C1608 C 0.11265 0.44756 0.98822
 C1609 C 0.11284 0.42721 0.97886
 C1610 C 0.13185 0.41511 0.97819
 C1611 C 0.09294 0.45986 0.98947
 C1612 C 0.07663 0.47032 0.99116
 H1613 H 0.16515 0.45008 1.00297
 H1614 H 0.13170 0.47136 1.00424
 H1615 H 0.09831 0.42067 0.97218
 H1616 H 0.13175 0.39941 0.97091
 C1617 C 0.01739 0.30947 0.36074
 C1618 C 0.01561 0.32346 0.37335
 C1619 C 0.01410 0.33947 0.38909
 C1620 C -0.00098 0.33713 0.40488
 C1621 C -0.00186 0.35227 0.42072
 C1622 C 0.01242 0.36966 0.42079
 C1623 C 0.02752 0.37196 0.40503
 C1624 C 0.02839 0.35684 0.38920
 C1625 C 0.01074 0.38597 0.43623
 C1626 C 0.00905 0.40052 0.44827
 H1627 H -0.01198 0.32362 0.40495
 H1628 H -0.01372 0.35052 0.43277
 H1629 H 0.03847 0.38552 0.40490
 H1630 H 0.04020 0.35864 0.37711
 C1631 C 0.51934 -0.19147 -0.13831
 C1632 C 0.51795 -0.17753 -0.12560
 C1633 C 0.51674 -0.16159 -0.10977
 C1634 C 0.50115 -0.16337 -0.09438
 C1635 C 0.50039 -0.14822 -0.07856
 C1636 C 0.51529 -0.13136 -0.07809
 C1637 C 0.53094 -0.12964 -0.09343
 C1638 C 0.53170 -0.14479 -0.10925
 C1639 C 0.51361 -0.11492 -0.06278
 C1640 C 0.51184 -0.10029 -0.05085
 H1641 H 0.48963 -0.17644 -0.09464
 H1642 H 0.48810 -0.14950 -0.06684
 H1643 H 0.54237 -0.11650 -0.09327
 H1644 H 0.54389 -0.14342 -0.12104
 C1645 C -0.01847 -0.19087 1.13900
 C1646 C -0.01685 -0.17710 1.12620
 C1647 C -0.01553 -0.16135 1.11026
 C1648 C -0.03058 -0.14463 1.10946
 C1649 C -0.02977 -0.12970 1.09351
 C1650 C -0.01398 -0.13157 1.07831
 C1651 C 0.00103 -0.14835 1.07906
 C1652 C 0.00021 -0.16329 1.09502
 C1653 C -0.01223 -0.11526 1.06294
 C1654 C -0.01040 -0.10066 1.05104
 H1655 H -0.04290 -0.14314 1.12113
 H1656 H -0.04128 -0.11660 1.09313
 H1657 H 0.01344 -0.14973 1.06747
 H1658 H 0.01181 -0.17631 1.09549
 C1659 C 0.47897 0.30852 0.63744
 C1660 C 0.48016 0.32231 0.62461
 C1661 C 0.48128 0.33806 0.60867
 C1662 C 0.46648 0.35503 0.60822
 C1663 C 0.46730 0.37011 0.59240
 C1664 C 0.48286 0.36816 0.57699
 C1665 C 0.49757 0.35111 0.57736
 C1666 C 0.49674 0.33602 0.59319
 C1667 C 0.48471 0.38460 0.56176
 C1668 C 0.48665 0.39923 0.54991
 H1669 H 0.45439 0.35662 0.62010
 H1670 H 0.45602 0.38341 0.59231
 H1671 H 0.50979 0.34964 0.56559
 H1672 H 0.50816 0.32284 0.59340
 C1673 C 0.52099 1.19163 0.63649
 C1674 C 0.51970 1.17790 0.62357
 C1675 C 0.51852 1.16217 0.60756
 C1676 C 0.53409 1.14594 0.60630
 C1677 C 0.53319 1.13087 0.59043
 C1678 C 0.51679 1.13209 0.57577
 C1679 C 0.50131 1.14841 0.57694
 C1680 C 0.50221 1.16349 0.59282
 C1681 C 0.51493 1.11557 0.56056
 C1682 C 0.51302 1.10086 0.54874
 H1683 H 0.54682 1.14491 0.61760
 H1684 H 0.54508 1.11812 0.58973
 H1685 H 0.48845 1.14930 0.56577
 H1686 H 0.49020 1.17610 0.59366
 C1687 C 0.01890 0.69137 1.13865
 C1688 C 0.01716 0.67767 1.12575
 C1689 C 0.01566 0.66199 1.10971
 C1690 C 0.03190 0.64658 1.10739
 C1691 C 0.03080 0.63168 1.09137
 C1692 C 0.01353 0.63227 1.07763
 C1693 C -0.00266 0.64776 1.07989
 C1694 C -0.00156 0.66267 1.09591
 C1695 C 0.01161 0.61589 1.06230
 C1696 C 0.00972 0.60123 1.05041
 H1697 H 0.04534 0.64607 1.11794
 H1698 H 0.04325 0.61957 1.08985
 H1699 H -0.01619 0.64815 1.06944
 H1700 H -0.01410 0.67467 1.09755
 C1701 C 0.48025 0.69150 -0.13655
 C1702 C 0.48168 0.67790 -0.12356
 C1703 C 0.48275 0.66226 -0.10751
 C1704 C 0.46638 0.64698 -0.10554
 C1705 C 0.46712 0.63202 -0.08962
 C1706 C 0.48416 0.63241 -0.07561
 C1707 C 0.50046 0.64779 -0.07749
 C1708 C 0.49973 0.66277 -0.09342
 C1709 C 0.48579 0.61588 -0.06044
 C1710 C 0.48749 0.60112 -0.04870
 H1711 H 0.45313 0.64660 -0.11632
 H1712 H 0.45459 0.61998 -0.08838
 H1713 H 0.51383 0.64801 -0.06684
 H1714 H 0.51237 0.67466 -0.09480
 C1715 C -0.01837 1.19071 0.36154
 C1716 C -0.01651 1.17690 0.37429
 C1717 C -0.01499 1.16107 0.39012
 C1718 C 0.00047 1.16325 0.40559
 C1719 C 0.00138 1.14824 0.42150
 C1720 C -0.01325 1.13115 0.42196
 C1721 C -0.02874 1.12902 0.40651
 C1722 C -0.02965 1.14401 0.39062
 C1723 C -0.01153 1.11490 0.43739
 C1724 C -0.00984 1.10037 0.44940
 H1725 H 0.01176 1.17652 0.40536
 H1726 H 0.01355 1.14984 0.43329
 H1727 H -0.03997 1.11569 0.40667
 H1728 H -0.04175 1.14233 0.37878
 C1729 C 0.77576 0.67733 0.94334
 C1730 C 0.77500 0.68688 0.92723
 C1731 C 0.77367 0.69823 0.90800
 C1732 C 0.79234 0.70595 0.89852
 C1733 C 0.79106 0.71626 0.87947
 C1734 C 0.77111 0.71895 0.86982
 C1735 C 0.75241 0.71154 0.87945
 C1736 C 0.75368 0.70124 0.89850
 C1737 C 0.77011 0.72757 0.84931
 C1738 C 0.76972 0.73357 0.83171
 H1739 H 0.80788 0.70372 0.90570
 H1740 H 0.80566 0.72171 0.87208
 H1741 H 0.73692 0.71331 0.87205
 H1742 H 0.73914 0.69532 0.90567
 C1743 C 0.27856 0.17822 0.44380
 C1744 C 0.27763 0.18785 0.42774
 C1745 C 0.27608 0.19928 0.40856
 C1746 C 0.29468 0.20645 0.39858
 C1747 C 0.29315 0.21677 0.37956
 C1748 C 0.27301 0.22003 0.37043
 C1749 C 0.25439 0.21318 0.38057
 C1750 C 0.25592 0.20286 0.39960
 C1751 C 0.27166 0.22862 0.34993
 C1752 C 0.27096 0.23458 0.33232
 H1753 H 0.31035 0.20376 0.40534
 H1754 H 0.30768 0.22178 0.37177
 H1755 H 0.23875 0.21539 0.37358
 H1756 H 0.24142 0.19738 0.40715
 C1757 C 0.72030 0.32147 0.44374
 C1758 C 0.72131 0.31163 0.42778
 C1759 C 0.72302 0.29995 0.40870
 C1760 C 0.70451 0.29281 0.39855
 C1761 C 0.70621 0.28230 0.37960
 C1762 C 0.72645 0.27881 0.37072
 C1763 C 0.74498 0.28563 0.38105
 C1764 C 0.74328 0.29613 0.40000
 C1765 C 0.72799 0.27011 0.35025
 C1766 C 0.72886 0.26412 0.33264
 H1767 H 0.68876 0.29569 0.40510
 H1768 H 0.69175 0.27732 0.37165
 H1769 H 0.76069 0.28325 0.37425
 H1770 H 0.75771 0.30160 0.40770
 C1771 C 0.22253 0.82147 0.94377
 C1772 C 0.22323 0.81192 0.92763
 C1773 C 0.22453 0.80056 0.90835
 C1774 C 0.24460 0.79673 0.89928
 C1775 C 0.24590 0.78648 0.88017
 C1776 C 0.22714 0.77995 0.87005
 C1777 C 0.20708 0.78346 0.87928
 C1778 C 0.20578 0.79372 0.89839
 C1779 C 0.22828 0.77141 0.84949
 C1780 C 0.22886 0.76549 0.83185
 H1781 H 0.25920 0.80197 0.90682
 H1782 H 0.26147 0.78407 0.87310
 H1783 H 0.19245 0.77869 0.87151
 H1784 H 0.19018 0.79660 0.90523
 C1785 C 0.27907 0.82143 0.05516
 C1786 C 0.27831 0.81188 0.07127
 C1787 C 0.27690 0.80055 0.09052
 C1788 C 0.25677 0.79654 0.09935
 C1789 C 0.25534 0.78635 0.11844
 C1790 C 0.27406 0.78006 0.12878
 C1791 C 0.29418 0.78375 0.11979
 C1792 C 0.29560 0.79394 0.10070
 C1793 C 0.27275 0.77158 0.14933
 C1794 C 0.27205 0.76572 0.16696
 H1795 H 0.24219 0.80159 0.09163
 H1796 H 0.23971 0.78380 0.12532
 H1797 H 0.30877 0.77917 0.12774
 H1798 H 0.31126 0.79698 0.09404
 C1799 C 0.77658 0.32299 0.55691
 C1800 C 0.77592 0.31336 0.57298
 C1801 C 0.77470 0.30191 0.59217
 C1802 C 0.75468 0.29819 0.60135
 C1803 C 0.75347 0.28780 0.62036
 C1804 C 0.77227 0.28101 0.63027
 C1805 C 0.79227 0.28442 0.62092
 C1806 C 0.79348 0.29482 0.60191
 C1807 C 0.77124 0.27228 0.65072
 C1808 C 0.77079 0.26617 0.66829
 H1809 H 0.74005 0.30361 0.59397
 H1810 H 0.73794 0.28547 0.62752
 H1811 H 0.80694 0.27946 0.62852
 H1812 H 0.80905 0.29761 0.59497
 C1813 C 0.22304 0.17797 0.55664
 C1814 C 0.22388 0.18750 0.57278
 C1815 C 0.22531 0.19882 0.59206
 C1816 C 0.24534 0.20165 0.60153
 C1817 C 0.24673 0.21189 0.62063
 C1818 C 0.22809 0.21943 0.63035
 C1819 C 0.20810 0.21692 0.62073
 C1820 C 0.20672 0.20667 0.60163
 C1821 C 0.22921 0.22801 0.65089
 C1822 C 0.22970 0.23400 0.66851
 H1823 H 0.25983 0.19564 0.59429
 H1824 H 0.26224 0.21352 0.62800
 H1825 H 0.19355 0.22248 0.62819
 H1826 H 0.19114 0.20457 0.59448
 C1827 C 0.72014 0.67855 0.05604
 C1828 C 0.72118 0.68822 0.07210
 C1829 C 0.72294 0.69968 0.09128
 C1830 C 0.70445 0.70672 0.10157
 C1831 C 0.70620 0.71701 0.12062
 C1832 C 0.72646 0.72037 0.12947
 C1833 C 0.74497 0.71367 0.11901
 C1834 C 0.74322 0.70339 0.09995
 C1835 C 0.72808 0.72888 0.15001
 C1836 C 0.72901 0.73474 0.16765
 H1837 H 0.68868 0.70393 0.09504
 H1838 H 0.69176 0.72191 0.12866
 H1839 H 0.76071 0.71596 0.12578
 H1840 H 0.75763 0.69800 0.09215
 C1841 C 0.14904 0.56259 0.23272
 C1842 C 0.16026 0.57845 0.23378
 C1843 C 0.17309 0.59784 0.23449
 C1844 C 0.19332 0.59780 0.24394
 C1845 C 0.20559 0.61671 0.24464
 C1846 C 0.19775 0.63578 0.23587
 C1847 C 0.17757 0.63579 0.22634
 C1848 C 0.16530 0.61689 0.22564
 C1849 C 0.21015 0.65542 0.23725
 C1850 C 0.22063 0.67170 0.23907
 H1851 H 0.19956 0.58321 0.25083
 H1852 H 0.22113 0.61648 0.25214
 H1853 H 0.17126 0.65041 0.21957
 H1854 H 0.14970 0.61716 0.21826
 C1855 C 0.64819 0.06245 0.73251
 C1856 C 0.65920 0.07844 0.73384
 C1857 C 0.67186 0.09792 0.73486
 C1858 C 0.69250 0.09765 0.74346
 C1859 C 0.70469 0.11660 0.74432
 C1860 C 0.69636 0.13595 0.73657
 C1861 C 0.67574 0.13620 0.72792
 C1862 C 0.66356 0.11726 0.72705
 C1863 C 0.70876 0.15558 0.73805
 C1864 C 0.71932 0.17180 0.73994
 H1865 H 0.69914 0.08284 0.74952
 H1866 H 0.72057 0.11618 0.75113
 H1867 H 0.66906 0.15104 0.72194
 H1868 H 0.64764 0.11770 0.72033
 C1869 C 0.85189 0.06037 0.26713
 C1870 C 0.84069 0.07627 0.26599
 C1871 C 0.82787 0.09569 0.26520
 C1872 C 0.80790 0.09581 0.25526
 C1873 C 0.79565 0.11476 0.25452
 C1874 C 0.80325 0.13372 0.26374
 C1875 C 0.82317 0.13357 0.27375
 C1876 C 0.83542 0.11463 0.27449
 C1877 C 0.79087 0.15339 0.26235
 C1878 C 0.78041 0.16972 0.26053
 H1879 H 0.80185 0.08132 0.24803
 H1880 H 0.78031 0.11465 0.24665
 H1881 H 0.82929 0.14810 0.28087
 H1882 H 0.85081 0.11478 0.28225
 C1883 C 0.35164 0.56203 0.76634
 C1884 C 0.34052 0.57797 0.76504
 C1885 C 0.32773 0.59741 0.76410
 C1886 C 0.30729 0.59719 0.75506
 C1887 C 0.29499 0.61609 0.75429
 C1888 C 0.30300 0.63535 0.76257
 C1889 C 0.32341 0.63555 0.77165
 C1890 C 0.33571 0.61665 0.77242
 C1891 C 0.29051 0.65495 0.76119
 C1892 C 0.27994 0.67121 0.75941
 H1893 H 0.30090 0.58244 0.74860
 H1894 H 0.27927 0.61571 0.74715
 H1895 H 0.32985 0.65032 0.77803
 H1896 H 0.35147 0.61706 0.77948
 C1897 C 0.35156 0.43786 0.73338
 C1898 C 0.34067 0.42180 0.73473
 C1899 C 0.32812 0.40224 0.73579
 C1900 C 0.30678 0.40279 0.74264
 C1901 C 0.29468 0.38378 0.74349
 C1902 C 0.30381 0.36409 0.73747
 C1903 C 0.32514 0.36356 0.73057
 C1904 C 0.33723 0.38256 0.72972
 C1905 C 0.29146 0.34444 0.73894
 C1906 C 0.28093 0.32820 0.74079
 H1907 H 0.29951 0.41787 0.74734
 H1908 H 0.27825 0.38443 0.74893
 H1909 H 0.33244 0.34847 0.72594
 H1910 H 0.35369 0.38190 0.72434
 C1911 C 0.85238 0.93796 0.23278
 C1912 C 0.84127 0.92202 0.23399
 C1913 C 0.82854 0.90257 0.23487
 C1914 C 0.83656 0.88338 0.22642
 C1915 C 0.82436 0.86444 0.22723
 C1916 C 0.80402 0.86454 0.23646
 C1917 C 0.79597 0.88376 0.24484
 C1918 C 0.80817 0.90270 0.24404
 C1919 C 0.79167 0.84489 0.23791
 C1920 C 0.78120 0.82860 0.23977
 H1921 H 0.85227 0.88304 0.21927
 H1922 H 0.83084 0.84971 0.22076
 H1923 H 0.78031 0.88406 0.25210
 H1924 H 0.80175 0.91740 0.25060
 C1925 C 0.64817 0.93761 0.76564
 C1926 C 0.65921 0.92160 0.76449
 C1927 C 0.67191 0.90210 0.76371
 C1928 C 0.66437 0.88328 0.77316
 C1929 C 0.67656 0.86431 0.77246
 C1930 C 0.69642 0.86400 0.76232
 C1931 C 0.70400 0.88284 0.75293
 C1932 C 0.69181 0.90182 0.75363
 C1933 C 0.70879 0.84431 0.76104
 C1934 C 0.71932 0.82802 0.75931
 H1935 H 0.64903 0.88327 0.78102
 H1936 H 0.67045 0.84987 0.77972
 H1937 H 0.71929 0.88283 0.74498
 H1938 H 0.69786 0.91623 0.74628
 C1939 C 0.14861 0.43858 0.26705
 C1940 C 0.15974 0.42263 0.26596
 C1941 C 0.17249 0.40317 0.26520
 C1942 C 0.16524 0.38449 0.27510
 C1943 C 0.17740 0.36550 0.27433
 C1944 C 0.19696 0.36504 0.26367
 C1945 C 0.20426 0.38375 0.25384
 C1946 C 0.19209 0.40274 0.25461
 C1947 C 0.20925 0.34532 0.26226
 C1948 C 0.21968 0.32898 0.26042
 H1949 H 0.15012 0.38458 0.28335
 H1950 H 0.17151 0.35117 0.28193
 H1951 H 0.21931 0.38361 0.24548
 H1952 H 0.19791 0.41703 0.24690
 C1953 C 0.05797 0.27114 0.88633
 C1954 C 0.07167 0.26997 0.87342
 C1955 C 0.08737 0.26891 0.85743
 C1956 C 0.10258 0.28535 0.85545
 C1957 C 0.11769 0.28448 0.83966
 C1958 C 0.11750 0.26723 0.82580
 C1959 C 0.10215 0.25089 0.82767
 C1960 C 0.08704 0.25176 0.84346
 C1961 C 0.13420 0.26537 0.81085
 C1962 C 0.14907 0.26337 0.79929
 H1963 H 0.10282 0.29873 0.86615
 H1964 H 0.12969 0.29704 0.83843
 H1965 H 0.10209 0.23737 0.81713
 H1966 H 0.07521 0.23906 0.84486
 C1967 C 0.56029 0.76878 0.38768
 C1968 C 0.57431 0.76725 0.37511
 C1969 C 0.59033 0.76598 0.35943
 C1970 C 0.60673 0.78136 0.35869
 C1971 C 0.62190 0.78059 0.34295
 C1972 C 0.62061 0.76452 0.32790
 C1973 C 0.60417 0.74918 0.32860
 C1974 C 0.58899 0.74995 0.34435
 C1975 C 0.63705 0.76293 0.31266
 C1976 C 0.65167 0.76125 0.30075
 H1977 H 0.60776 0.79389 0.37023
 H1978 H 0.63472 0.79238 0.34260
 H1979 H 0.60321 0.73658 0.31712
 H1980 H 0.57623 0.73810 0.34477
 C1981 C 0.55983 0.23080 0.11269
 C1982 C 0.57380 0.23234 0.12530
 C1983 C 0.58980 0.23359 0.14099
 C1984 C 0.58830 0.24948 0.15620
 C1985 C 0.60348 0.25020 0.17195
 C1986 C 0.62006 0.23497 0.17252
 C1987 C 0.62150 0.21905 0.15735
 C1988 C 0.60633 0.21833 0.14161
 C1989 C 0.63649 0.23650 0.18778
 C1990 C 0.65111 0.23809 0.19968
 H1991 H 0.57544 0.26124 0.15588
 H1992 H 0.60241 0.26269 0.18354
 H1993 H 0.63443 0.20735 0.15759
 H1994 H 0.60748 0.20590 0.12996
 C1995 C 0.05892 0.73123 0.61228
 C1996 C 0.07288 0.73279 0.62489
 C1997 C 0.08883 0.73412 0.64063
 C1998 C 0.10498 0.71847 0.64176
 C1999 C 0.12007 0.71932 0.65756
 C2000 C 0.11895 0.73574 0.67227
 C2001 C 0.10275 0.75134 0.67119
 C2002 C 0.08765 0.75050 0.65538
 C2003 C 0.13537 0.73739 0.68753
 C2004 C 0.15000 0.73909 0.69940
 H2005 H 0.10588 0.70567 0.63047
 H2006 H 0.13272 0.70733 0.65820
 H2007 H 0.10194 0.76422 0.68240
 H2008 H 0.07508 0.76256 0.65466
 C2009 C 0.94177 0.77011 0.61391
 C2010 C 0.92812 0.76857 0.62683
 C2011 C 0.91242 0.76728 0.64279
 C2012 C 0.91248 0.74974 0.65626
 C2013 C 0.89741 0.74874 0.67209
 C2014 C 0.88239 0.76534 0.67449
 C2015 C 0.88245 0.78296 0.66112
 C2016 C 0.89751 0.78396 0.64530
 C2017 C 0.86574 0.76348 0.68949
 C2018 C 0.85088 0.76160 0.70107
 H2019 H 0.92408 0.73685 0.65446
 H2020 H 0.89727 0.73494 0.68224
 H2021 H 0.87070 0.79574 0.66276
 H2022 H 0.89747 0.79765 0.63500
 C2023 C 0.44109 0.26918 0.11328
 C2024 C 0.42717 0.26762 0.12593
 C2025 C 0.41118 0.26633 0.14163
 C2026 C 0.41305 0.25084 0.15712
 C2027 C 0.39781 0.25002 0.17282
 C2028 C 0.38080 0.26477 0.17304
 C2029 C 0.37900 0.28031 0.15760
 C2030 C 0.39422 0.28113 0.14192
 C2031 C 0.36430 0.26308 0.18822
 C2032 C 0.34961 0.26137 0.20002
 H2033 H 0.42624 0.23944 0.15705
 H2034 H 0.39917 0.23782 0.18461
 H2035 H 0.36573 0.29163 0.15758
 H2036 H 0.39277 0.29324 0.13005
 C2037 C 0.44154 0.73046 0.38654
 C2038 C 0.42765 0.73212 0.37387
 C2039 C 0.41171 0.73358 0.35813
 C2040 C 0.39600 0.71758 0.35642
 C2041 C 0.38085 0.71863 0.34067
 C2042 C 0.38149 0.73562 0.32660
 C2043 C 0.39726 0.75158 0.32825
 C2044 C 0.41242 0.75053 0.34400
 C2045 C 0.36500 0.73744 0.31142
 C2046 C 0.35034 0.73924 0.29959
 H2047 H 0.39546 0.70435 0.36723
 H2048 H 0.36854 0.70636 0.33960
 H2049 H 0.39769 0.76489 0.31752
 H2050 H 0.42464 0.76288 0.34517
 C2051 C 0.94172 0.22862 0.88660
 C2052 C 0.92798 0.22982 0.87374
 C2053 C 0.91224 0.23093 0.85780
 C2054 C 0.89595 0.21546 0.85675
 C2055 C 0.88083 0.21636 0.84097
 C2056 C 0.88207 0.23266 0.82621
 C2057 C 0.89847 0.24803 0.82716
 C2058 C 0.91359 0.24713 0.84294
 C2059 C 0.86548 0.23460 0.81115
 C2060 C 0.85071 0.23665 0.79949
 H2061 H 0.89489 0.20282 0.86814
 H2062 H 0.86802 0.20456 0.84045
 H2063 H 0.89937 0.26082 0.81591
 H2064 H 0.92625 0.25908 0.84361
 C2065 C 0.59205 1.02578 0.69480
 C2066 C 0.58012 1.02614 0.68017
 C2067 C 0.56652 1.02694 0.66226
 C2068 C 0.56337 1.04651 0.65197
 C2069 C 0.55169 1.04708 0.63362
 C2070 C 0.54303 1.02808 0.62546
 C2071 C 0.54573 1.00860 0.63601
 C2072 C 0.55742 1.00803 0.65436
 C2073 C 0.53336 1.02813 0.60533
 C2074 C 0.52654 1.02759 0.58799
 H2075 H 0.57042 1.06123 0.65785
 H2076 H 0.54995 1.06219 0.62550
 H2077 H 0.53933 0.99375 0.62975
 H2078 H 0.55982 0.99279 0.66210
 C2079 C 0.09036 0.52698 1.19567
 C2080 C 0.07810 0.52747 1.18130
 C2081 C 0.06411 0.52832 1.16367
 C2082 C 0.06134 0.54774 1.15304
 C2083 C 0.04934 0.54825 1.13487
 C2084 C 0.04000 0.52933 1.12723
 C2085 C 0.04230 0.51002 1.13815
 C2086 C 0.05430 0.50952 1.15632
 C2087 C 0.03016 0.52918 1.10719
 C2088 C 0.02328 0.52846 1.08988
 H2089 H 0.06893 0.56237 1.15849
 H2090 H 0.04792 0.56322 1.12646
 H2091 H 0.03539 0.49523 1.13229
 H2092 H 0.05641 0.49438 1.16432
 C2093 C -0.09130 -0.02663 1.19623
 C2094 C -0.07909 -0.02696 1.18181
 C2095 C -0.06514 -0.02768 1.16413
 C2096 C -0.05575 -0.00875 1.15666
 C2097 C -0.04373 -0.00918 1.13849
 C2098 C -0.04100 -0.02855 1.12770
 C2099 C -0.04995 -0.04758 1.13545
 C2100 C -0.06195 -0.04715 1.15362
 C2101 C -0.03108 -0.02842 1.10768
 C2102 C -0.02411 -0.02773 1.09040
 H2103 H -0.05818 0.00642 1.16457
 H2104 H -0.03713 0.00569 1.13254
 H2105 H -0.04819 -0.06261 1.12714
 H2106 H -0.06922 -0.06188 1.15917
 C2107 C 0.40740 0.47481 0.69560
 C2108 C 0.41934 0.47445 0.68098
 C2109 C 0.43298 0.47363 0.66309
 C2110 C 0.44193 0.49255 0.65512
 C2111 C 0.45367 0.49194 0.63680
 C2112 C 0.45658 0.47239 0.62634
 C2113 C 0.44807 0.45338 0.63457
 C2114 C 0.43633 0.45400 0.65289
 C2115 C 0.46630 0.47226 0.60624
 C2116 C 0.47317 0.47271 0.58891
 H2117 H 0.43937 0.50784 0.66279
 H2118 H 0.45994 0.50679 0.63049
 H2119 H 0.44997 0.43822 0.62652
 H2120 H 0.42941 0.43927 0.65883
 C2121 C 0.40787 0.52630 -0.19523
 C2122 C 0.41973 0.52665 -0.18056
 C2123 C 0.43328 0.52742 -0.16260
 C2124 C 0.43627 0.54694 -0.15214
 C2125 C 0.44793 0.54746 -0.13376
 C2126 C 0.45672 0.52845 -0.12576
 C2127 C 0.45417 0.50902 -0.13649
 C2128 C 0.44251 0.50851 -0.15486
 C2129 C 0.46638 0.52844 -0.10563
 C2130 C 0.47321 0.52785 -0.08829
 H2131 H 0.42913 0.56166 -0.15790
 H2132 H 0.44955 0.56253 -0.12552
 H2133 H 0.46067 0.49417 -0.13035
 H2134 H 0.44023 0.49330 -0.16273
 C2135 C -0.09074 1.02523 0.30452
 C2136 C -0.07862 1.02566 0.31899
 C2137 C -0.06477 1.02650 0.33674
 C2138 C -0.06155 1.04607 0.34705
 C2139 C -0.04967 1.04664 0.36530
 C2140 C -0.04090 1.02763 0.37332
 C2141 C -0.04366 1.00816 0.36272
 C2142 C -0.05554 1.00759 0.34448
 C2143 C -0.03114 1.02766 0.39341
 C2144 C -0.02429 1.02712 0.41074
 H2145 H -0.06869 1.06079 0.34128
 H2146 H -0.04789 1.06175 0.37345
 H2147 H -0.03719 0.99331 0.36889
 H2148 H -0.05800 0.99234 0.33673
 C2149 C 0.09013 0.47472 0.30408
 C2150 C 0.07785 0.47435 0.31843
 C2151 C 0.06383 0.47363 0.33605
 C2152 C 0.06054 0.45414 0.34642
 C2153 C 0.04854 0.45373 0.36459
 C2154 C 0.03971 0.47279 0.37248
 C2155 C 0.04252 0.49218 0.36182
 C2156 C 0.05453 0.49260 0.34365
 C2157 C 0.02990 0.47294 0.39254
 C2158 C 0.02305 0.47360 0.40987
 H2159 H 0.06774 0.43939 0.34077
 H2160 H 0.04672 0.43868 0.37280
 H2161 H 0.03601 0.50708 0.36788
 H2162 H 0.05704 0.50779 0.33585
 C2163 C 0.59090 -0.02553 -0.19628
 C2164 C 0.57894 -0.02582 -0.18169
 C2165 C 0.56530 -0.02652 -0.16379
 C2166 C 0.56195 -0.04608 -0.15356
 C2167 C 0.55027 -0.04655 -0.13521
 C2168 C 0.54182 -0.02747 -0.12699
 C2169 C 0.54471 -0.00799 -0.13749
 C2170 C 0.55640 -0.00752 -0.15584
 C2171 C 0.53220 -0.02745 -0.10684
 C2172 C 0.52543 -0.02690 -0.08948
 H2173 H 0.56884 -0.06087 -0.15949
 H2174 H 0.54837 -0.06167 -0.12713
 H2175 H 0.53849 0.00692 -0.13118
 H2176 H 0.55897 0.00772 -0.16353
 C2177 C 0.68210 0.63665 0.00419
 C2178 C 0.66601 0.62743 -0.00135
 C2179 C 0.64677 0.61611 -0.00744
 C2180 C 0.64767 0.59406 -0.01206
 C2181 C 0.62878 0.58265 -0.01632
 C2182 C 0.60886 0.59322 -0.01605
 C2183 C 0.60803 0.61538 -0.01194
 C2184 C 0.62692 0.62679 -0.00768
 C2185 C 0.58922 0.58097 -0.01754
 C2186 C 0.57277 0.57066 -0.01714
 H2187 H 0.66288 0.58557 -0.01184
 H2188 H 0.62964 0.56548 -0.01919
 H2189 H 0.59273 0.62370 -0.01139
 H2190 H 0.62598 0.64380 -0.00404
 C2191 C 0.18435 1.13579 0.50397
 C2192 C 0.16832 1.12653 0.49836
 C2193 C 0.14913 1.11517 0.49217
 C2194 C 0.14999 1.09302 0.48800
 C2195 C 0.13112 1.08162 0.48366
 C2196 C 0.11126 1.09229 0.48340
 C2197 C 0.11048 1.11454 0.48705
 C2198 C 0.12935 1.12595 0.49140
 C2199 C 0.09158 1.08009 0.48184
 C2200 C 0.07508 1.06987 0.48221
 H2201 H 0.16516 1.08447 0.48864
 H2202 H 0.13194 1.06438 0.48115
 H2203 H 0.09521 1.12294 0.48718
 H2204 H 0.12843 1.14303 0.49468
 C2205 C 0.18403 -0.13713 0.99574
 C2206 C 0.16801 -0.12795 1.00154
 C2207 C 0.14886 -0.11665 1.00797
 C2208 C 0.14985 -0.09469 1.01293
 C2209 C 0.13103 -0.08326 1.01751
 C2210 C 0.11109 -0.09373 1.01723
 C2211 C 0.11017 -0.11582 1.01280
 C2212 C 0.12899 -0.12724 1.00822
 C2213 C 0.09149 -0.08140 1.01899
 C2214 C 0.07507 -0.07100 1.01876
 H2215 H 0.16509 -0.08627 1.01271
 H2216 H 0.13196 -0.06614 1.02062
 H2217 H 0.09484 -0.12405 1.01224
 H2218 H 0.12797 -0.14418 1.00432
 C2219 C 0.68214 0.36334 0.49564
 C2220 C 0.66599 0.37241 0.50130
 C2221 C 0.64669 0.38356 0.50757
 C2222 C 0.64749 0.40549 0.51268
 C2223 C 0.62855 0.41678 0.51712
 C2224 C 0.60867 0.40621 0.51655
 C2225 C 0.60793 0.38414 0.51197
 C2226 C 0.62687 0.37285 0.50753
 C2227 C 0.58897 0.41842 0.51818
 C2228 C 0.57250 0.42873 0.51783
 H2229 H 0.66268 0.41400 0.51269
 H2230 H 0.62935 0.43389 0.52035
 H2231 H 0.59266 0.37582 0.51120
 H2232 H 0.62600 0.35593 0.50352
 C2233 C -0.18522 0.36519 0.50408
 C2234 C -0.16920 0.37439 0.49835
 C2235 C -0.15003 0.38567 0.49202
 C2236 C -0.13029 0.37482 0.49108
 C2237 C -0.11142 0.38616 0.48661
 C2238 C -0.11216 0.40841 0.48300
 C2239 C -0.13198 0.41914 0.48343
 C2240 C -0.15086 0.40781 0.48789
 C2241 C -0.09246 0.42054 0.48134
 C2242 C -0.07594 0.43075 0.48163
 H2243 H -0.12940 0.35774 0.49433
 H2244 H -0.09618 0.37771 0.48661
 H2245 H -0.13277 0.43638 0.48096
 H2246 H -0.16599 0.41641 0.48867
 C2247 C 0.31754 -0.13689 0.00360
 C2248 C 0.33356 -0.12761 -0.00203
 C2249 C 0.35270 -0.11622 -0.00822
 C2250 C 0.37257 -0.12687 -0.00875
 C2251 C 0.39139 -0.11540 -0.01309
 C2252 C 0.39048 -0.09321 -0.01699
 C2253 C 0.37054 -0.08268 -0.01698
 C2254 C 0.35172 -0.09415 -0.01264
 C2255 C 0.41009 -0.08090 -0.01853
 C2256 C 0.42651 -0.07055 -0.01814
 H2257 H 0.37358 -0.14390 -0.00527
 H2258 H 0.40671 -0.12369 -0.01277
 H2259 H 0.36962 -0.06549 -0.01968
 H2260 H 0.33649 -0.08570 -0.01220
 C2261 C 0.31784 1.13681 0.49508
 C2262 C 0.33398 1.12769 0.50066
 C2263 C 0.35326 1.11646 0.50682
 C2264 C 0.35241 1.09450 0.51174
 C2265 C 0.37132 1.08315 0.51607
 C2266 C 0.39123 1.09368 0.51557
 C2267 C 0.39202 1.11577 0.51118
 C2268 C 0.37310 1.12713 0.50684
 C2269 C 0.41089 1.08142 0.51711
 C2270 C 0.42734 1.07107 0.51673
 H2271 H 0.33720 1.08604 0.51170
 H2272 H 0.37049 1.06603 0.51916
 H2273 H 0.40731 1.12405 0.51046
 H2274 H 0.37401 1.14406 0.50298
 C2275 C -0.18533 0.63630 0.99514
 C2276 C -0.16921 0.62725 1.00088
 C2277 C -0.14995 0.61612 1.00724
 C2278 C -0.15074 0.59416 1.01216
 C2279 C -0.13181 0.58291 1.01669
 C2280 C -0.11196 0.59355 1.01639
 C2281 C -0.11124 0.61564 1.01199
 C2282 C -0.13016 0.62689 1.00745
 C2283 C -0.09225 0.58139 1.01814
 C2284 C -0.07575 0.57112 1.01792
 H2285 H -0.16590 0.58562 1.01196
 H2286 H -0.13259 0.56579 1.01978
 H2287 H -0.09598 0.62401 1.01142
 H2288 H -0.12930 0.64383 1.00359
 C2289 C 0.01268 0.68354 0.57295
 C2290 C 0.00903 0.66526 0.56809
 C2291 C 0.00553 0.64321 0.56273
 C2292 C -0.00870 0.63786 0.54691
 C2293 C -0.01103 0.61639 0.54098
 C2294 C 0.00085 0.60031 0.55089
 C2295 C 0.01476 0.60562 0.56697
 C2296 C 0.01708 0.62708 0.57290
 C2297 C -0.00006 0.57864 0.54348
 C2298 C -0.00046 0.56080 0.53640
 H2299 H -0.01763 0.65029 0.53895
 H2300 H -0.02170 0.61238 0.52841
 H2301 H 0.02412 0.59326 0.57458
 H2302 H 0.02817 0.63114 0.58513
 C2303 C 0.51380 0.18297 0.07327
 C2304 C 0.51015 0.16469 0.06841
 C2305 C 0.50663 0.14264 0.06305
 C2306 C 0.49274 0.13734 0.04695
 C2307 C 0.49041 0.11586 0.04102
 C2308 C 0.50196 0.09974 0.05122
 C2309 C 0.51551 0.10500 0.06758
 C2310 C 0.51783 0.12647 0.07351
 C2311 C 0.50112 0.07806 0.04383
 C2312 C 0.50080 0.06021 0.03678
 H2313 H 0.48407 0.14979 0.03876
 H2314 H 0.48001 0.11188 0.02823
 H2315 H 0.52462 0.09261 0.07542
 H2316 H 0.52866 0.13050 0.08596
 C2317 C -0.01179 0.18277 0.92765
 C2318 C -0.00782 0.16468 0.93288
 C2319 C -0.00398 0.14281 0.93863
 C2320 C -0.01157 0.12616 0.92606
 C2321 C -0.00932 0.10478 0.93226
 C2322 C 0.00053 0.10009 0.95102
 C2323 C 0.00853 0.11672 0.96338
 C2324 C 0.00627 0.13810 0.95719
 C2325 C 0.00116 0.07841 0.95831
 C2326 C 0.00131 0.06052 0.96522
 H2327 H -0.01961 0.12973 0.91171
 H2328 H -0.01567 0.09199 0.92270
 H2329 H 0.01605 0.11318 0.97799
 H2330 H 0.01209 0.15093 0.96701
 C2331 C 0.48703 0.68254 0.42645
 C2332 C 0.49055 0.66428 0.43141
 C2333 C 0.49392 0.64225 0.43689
 C2334 C 0.48339 0.62602 0.42587
 C2335 C 0.48550 0.60458 0.43189
 C2336 C 0.49816 0.59940 0.44891
 C2337 C 0.50905 0.61558 0.45969
 C2338 C 0.50694 0.63704 0.45367
 C2339 C 0.49878 0.57774 0.45628
 C2340 C 0.49893 0.55988 0.46327
 H2341 H 0.47324 0.62999 0.41290
 H2342 H 0.47691 0.59214 0.42360
 H2343 H 0.51876 0.61167 0.47298
 H2344 H 0.51507 0.64954 0.46229
 C2345 C 0.51391 0.81650 0.42694
 C2346 C 0.51019 0.83478 0.43175
 C2347 C 0.50661 0.85685 0.43704
 C2348 C 0.49417 0.86216 0.45420
 C2349 C 0.49193 0.88368 0.46001
 C2350 C 0.50211 0.89985 0.44865
 C2351 C 0.51418 0.89457 0.43125
 C2352 C 0.51642 0.87305 0.42543
 C2353 C 0.50141 0.92162 0.45578
 C2354 C 0.50120 0.93957 0.46262
 H2355 H 0.48661 0.84968 0.46328
 H2356 H 0.48269 0.88768 0.47359
 H2357 H 0.52223 0.90699 0.42250
 H2358 H 0.52612 0.86901 0.41217
 C2359 C 0.01168 0.31709 0.92759
 C2360 C 0.00772 0.33521 0.93279
 C2361 C 0.00391 0.35712 0.93849
 C2362 C 0.01127 0.37369 0.92574
 C2363 C 0.00904 0.39511 0.93187
 C2364 C -0.00059 0.39993 0.95072
 C2365 C -0.00836 0.38339 0.96327
 C2366 C -0.00610 0.36196 0.95715
 C2367 C -0.00124 0.42168 0.95791
 C2368 C -0.00143 0.43962 0.96475
 H2369 H 0.01913 0.37001 0.91131
 H2370 H 0.01520 0.40783 0.92216
 H2371 H -0.01570 0.38704 0.97795
 H2372 H -0.01174 0.34921 0.96711
 C2373 C 0.48660 0.31694 0.07337
 C2374 C 0.49010 0.33520 0.06842
 C2375 C 0.49344 0.35723 0.06297
 C2376 C 0.48268 0.37344 0.07387
 C2377 C 0.48480 0.39489 0.06790
 C2378 C 0.49771 0.40012 0.05107
 C2379 C 0.50881 0.38396 0.04042
 C2380 C 0.50668 0.36249 0.04638
 C2381 C 0.49839 0.42180 0.04378
 C2382 C 0.49860 0.43968 0.03685
 H2383 H 0.47235 0.36943 0.08669
 H2384 H 0.47605 0.40730 0.07610
 H2385 H 0.51870 0.38791 0.02728
 H2386 H 0.51499 0.35001 0.03786
 C2387 C -0.01445 0.81747 0.57359
 C2388 C -0.01089 0.83571 0.56859
 C2389 C -0.00740 0.85770 0.56310
 C2390 C -0.01903 0.87393 0.57312
 C2391 C -0.01657 0.89535 0.56717
 C2392 C -0.00244 0.90052 0.55124
 C2393 C 0.00949 0.88435 0.54147
 C2394 C 0.00702 0.86291 0.54742
 C2395 C -0.00132 0.92216 0.54387
 C2396 C -0.00076 0.93999 0.53685
 H2397 H -0.03025 0.86997 0.58525
 H2398 H -0.02596 0.90778 0.57467
 H2399 H 0.02033 0.88826 0.52902
 H2400 H 0.01603 0.85042 0.53960
 C2401 C 0.27469 0.34286 0.05508
 C2402 C 0.27508 0.33068 0.06952
 C2403 C 0.27590 0.31675 0.08722
 C2404 C 0.25705 0.30746 0.09491
 C2405 C 0.25761 0.29545 0.11307
 C2406 C 0.27703 0.29263 0.12365
 C2407 C 0.29598 0.30147 0.11568
 C2408 C 0.29542 0.31348 0.09751
 C2409 C 0.27706 0.28271 0.14366
 C2410 C 0.27650 0.27575 0.16095
 H2411 H 0.24185 0.30996 0.08717
 H2412 H 0.24280 0.28892 0.11919
 H2413 H 0.31105 0.29964 0.12382
 H2414 H 0.31009 0.32067 0.09179
 C2415 C 0.77750 0.84273 0.55480
 C2416 C 0.77788 0.83059 0.56926
 C2417 C 0.77863 0.81668 0.58697
 C2418 C 0.79793 0.81401 0.59777
 C2419 C 0.79834 0.80201 0.61594
 C2420 C 0.77946 0.79257 0.62341
 C2421 C 0.76027 0.79480 0.61233
 C2422 C 0.75986 0.80680 0.59416
 C2423 C 0.77923 0.78264 0.64341
 C2424 C 0.77842 0.77563 0.66067
 H2425 H 0.81253 0.82166 0.59243
 H2426 H 0.81322 0.80065 0.62447
 H2427 H 0.74551 0.78781 0.61807
 H2428 H 0.74481 0.80883 0.58603
 C2429 C 0.22324 0.65824 0.55380
 C2430 C 0.22299 0.67031 0.56836
 C2431 C 0.22240 0.68411 0.58619
 C2432 C 0.24135 0.69336 0.59374
 C2433 C 0.24104 0.70523 0.61203
 C2434 C 0.22177 0.70795 0.62288
 C2435 C 0.20271 0.69915 0.61506
 C2436 C 0.20303 0.68729 0.59677
 C2437 C 0.22200 0.71773 0.64298
 C2438 C 0.22275 0.72461 0.66031
 H2439 H 0.25644 0.69094 0.58578
 H2440 H 0.25592 0.71172 0.61802
 H2441 H 0.18776 0.70091 0.62341
 H2442 H 0.18828 0.68014 0.59116
 C2443 C 0.72506 0.15685 0.05460
 C2444 C 0.72484 0.16892 0.06916
 C2445 C 0.72425 0.18273 0.08699
 C2446 C 0.70478 0.18628 0.09730
 C2447 C 0.70441 0.19817 0.11557
 C2448 C 0.72351 0.20662 0.12364
 C2449 C 0.74289 0.20352 0.11306
 C2450 C 0.74326 0.19163 0.09479
 C2451 C 0.72362 0.21645 0.14372
 C2452 C 0.72424 0.22335 0.16105
 H2453 H 0.68999 0.17939 0.09149
 H2454 H 0.68937 0.20022 0.12371
 H2455 H 0.75780 0.20975 0.11925
 H2456 H 0.75842 0.18891 0.08704
 C2457 C 0.77638 0.15717 0.94568
 C2458 C 0.77676 0.16912 0.93108
 C2459 C 0.77754 0.18281 0.91322
 C2460 C 0.79697 0.18564 0.90267
 C2461 C 0.79748 0.19746 0.88439
 C2462 C 0.77857 0.20657 0.87657
 C2463 C 0.75924 0.20417 0.88739
 C2464 C 0.75873 0.19235 0.90566
 C2465 C 0.77850 0.21641 0.85653
 C2466 C 0.77786 0.22338 0.83925
 H2467 H 0.81161 0.17827 0.90829
 H2468 H 0.81247 0.19898 0.87607
 H2469 H 0.74446 0.21091 0.88139
 H2470 H 0.74359 0.19019 0.91360
 C2471 C 0.27483 0.65843 0.44448
 C2472 C 0.27531 0.67059 0.43004
 C2473 C 0.27623 0.68449 0.41233
 C2474 C 0.29579 0.68761 0.40207
 C2475 C 0.29644 0.69956 0.38388
 C2476 C 0.27755 0.70850 0.37584
 C2477 C 0.25810 0.70584 0.38639
 C2478 C 0.25744 0.69389 0.40458
 C2479 C 0.27766 0.71833 0.35580
 C2480 C 0.27716 0.72522 0.33848
 H2481 H 0.31041 0.68033 0.40784
 H2482 H 0.31154 0.70126 0.37576
 H2483 H 0.24333 0.71245 0.38022
 H2484 H 0.24221 0.69151 0.41229
 C2485 C 0.72634 0.84210 0.44549
 C2486 C 0.72606 0.82990 0.43103
 C2487 C 0.72537 0.81596 0.41330
 C2488 C 0.74435 0.80709 0.40537
 C2489 C 0.74388 0.79515 0.38713
 C2490 C 0.72443 0.79197 0.37671
 C2491 C 0.70536 0.80038 0.38492
 C2492 C 0.70583 0.81232 0.40316
 C2493 C 0.72443 0.78215 0.35663
 C2494 C 0.72496 0.77526 0.33930
 H2495 H 0.75957 0.80989 0.41298
 H2496 H 0.75877 0.78896 0.38083
 H2497 H 0.69026 0.79828 0.37690
 H2498 H 0.69106 0.81919 0.40906
 C2499 C 0.22318 0.34254 0.94641
 C2500 C 0.22284 0.33059 0.93177
 C2501 C 0.22207 0.31693 0.91384
 C2502 C 0.24089 0.30740 0.90626
 C2503 C 0.24041 0.29562 0.88792
 C2504 C 0.22110 0.29327 0.87706
 C2505 C 0.20218 0.30237 0.88490
 C2506 C 0.20266 0.31413 0.90325
 C2507 C 0.22118 0.28349 0.85696
 C2508 C 0.22186 0.27655 0.83964
 H2509 H 0.25602 0.30952 0.91424
 H2510 H 0.25519 0.28889 0.88191
 H2511 H 0.18720 0.30089 0.87655
 H2512 H 0.18802 0.32151 0.90889
 C2513 C 0.88692 0.43247 0.74656
 C2514 C 0.87784 0.41635 0.75226
 C2515 C 0.86666 0.39708 0.75852
 C2516 C 0.87724 0.37714 0.75835
 C2517 C 0.86591 0.35822 0.76273
 C2518 C 0.84392 0.35911 0.76737
 C2519 C 0.83348 0.37911 0.76808
 C2520 C 0.84481 0.39803 0.76370
 C2521 C 0.83165 0.33946 0.76891
 C2522 C 0.82126 0.32303 0.76850
 H2523 H 0.89409 0.37615 0.75428
 H2524 H 0.87412 0.34285 0.76184
 H2525 H 0.81644 0.38002 0.77135
 H2526 H 0.83641 0.41332 0.76380
 C2527 C 0.38609 0.93404 0.24544
 C2528 C 0.37684 0.91798 0.25105
 C2529 C 0.36551 0.89877 0.25723
 C2530 C 0.37622 0.87891 0.25792
 C2531 C 0.36483 0.86001 0.26225
 C2532 C 0.34265 0.86084 0.26597
 C2533 C 0.33205 0.88077 0.26579
 C2534 C 0.34344 0.89967 0.26147
 C2535 C 0.33045 0.84113 0.26752
 C2536 C 0.32019 0.82463 0.26716
 H2537 H 0.39325 0.87796 0.25458
 H2538 H 0.37318 0.84469 0.26205
 H2539 H 0.31487 0.88162 0.26835
 H2540 H 0.33494 0.91489 0.26089
 C2541 C 0.11410 0.93373 0.75388
 C2542 C 0.12339 0.91768 0.74821
 C2543 C 0.13479 0.89848 0.74197
 C2544 C 0.12412 0.87862 0.74113
 C2545 C 0.13557 0.85973 0.73677
 C2546 C 0.15777 0.86055 0.73316
 C2547 C 0.16833 0.88048 0.73347
 C2548 C 0.15687 0.89938 0.73784
 C2549 C 0.17002 0.84085 0.73158
 C2550 C 0.18030 0.82433 0.73192
 H2551 H 0.10708 0.87767 0.74439
 H2552 H 0.12725 0.84441 0.73685
 H2553 H 0.18552 0.88134 0.73099
 H2554 H 0.16534 0.91460 0.73853
 C2555 C 0.61550 0.43272 0.25434
 C2556 C 0.62478 0.41666 0.24870
 C2557 C 0.63615 0.39743 0.24248
 C2558 C 0.62542 0.37762 0.24152
 C2559 C 0.63683 0.35870 0.23714
 C2560 C 0.65905 0.35946 0.23363
 C2561 C 0.66968 0.37936 0.23407
 C2562 C 0.65827 0.39827 0.23845
 C2563 C 0.67123 0.33972 0.23205
 C2564 C 0.68145 0.32316 0.23241
 H2565 H 0.60836 0.37671 0.24470
 H2566 H 0.62846 0.34341 0.23713
 H2567 H 0.68688 0.38016 0.23168
 H2568 H 0.66678 0.41346 0.23923
 C2569 C 0.61547 0.56644 0.24620
 C2570 C 0.62474 0.58251 0.25180
 C2571 C 0.63611 0.60173 0.25797
 C2572 C 0.65818 0.60081 0.26221
 C2573 C 0.66960 0.61971 0.26654
 C2574 C 0.65902 0.63966 0.26673
 C2575 C 0.63684 0.64050 0.26301
 C2576 C 0.62542 0.62160 0.25867
 C2577 C 0.67124 0.65936 0.26829
 C2578 C 0.68151 0.67586 0.26792
 H2579 H 0.66666 0.58558 0.26162
 H2580 H 0.68677 0.61885 0.26910
 H2581 H 0.62851 0.65583 0.26282
 H2582 H 0.60840 0.62257 0.25533
 C2583 C 0.11291 0.06759 0.74598
 C2584 C 0.12199 0.08373 0.75167
 C2585 C 0.13318 0.10303 0.75794
 C2586 C 0.15499 0.10206 0.76323
 C2587 C 0.16633 0.12098 0.76765
 C2588 C 0.15593 0.14100 0.76688
 C2589 C 0.13398 0.14191 0.76211
 C2590 C 0.12263 0.12299 0.75768
 C2591 C 0.16823 0.16064 0.76853
 C2592 C 0.17864 0.17705 0.76823
 H2593 H 0.16337 0.08676 0.76339
 H2594 H 0.18335 0.12006 0.77103
 H2595 H 0.12579 0.15729 0.76117
 H2596 H 0.10581 0.12398 0.75353
 C2597 C 0.38574 0.06678 0.25422
 C2598 C 0.37648 0.08283 0.24857
 C2599 C 0.36510 0.10202 0.24231
 C2600 C 0.34308 0.10107 0.23790
 C2601 C 0.33163 0.11993 0.23347
 C2602 C 0.34214 0.13989 0.23337
 C2603 C 0.36428 0.14078 0.23726
 C2604 C 0.37573 0.12191 0.24169
 C2605 C 0.32986 0.15957 0.23175
 C2606 C 0.31953 0.17606 0.23209
 H2607 H 0.33464 0.08582 0.23841
 H2608 H 0.31448 0.11903 0.23078
 H2609 H 0.37256 0.15612 0.23752
 H2610 H 0.39272 0.12290 0.24516
 C2611 C 0.88655 0.56648 0.75442
 C2612 C 0.87740 0.58257 0.74870
 C2613 C 0.86613 0.60180 0.74238
 C2614 C 0.84422 0.60084 0.73747
 C2615 C 0.83283 0.61974 0.73303
 C2616 C 0.84328 0.63972 0.73342
 C2617 C 0.86532 0.64062 0.73780
 C2618 C 0.87671 0.62172 0.74225
 C2619 C 0.83098 0.65939 0.73177
 C2620 C 0.82060 0.67584 0.73207
 H2621 H 0.83582 0.58557 0.73761
 H2622 H 0.81575 0.61883 0.72995
 H2623 H 0.87354 0.65598 0.73844
 H2624 H 0.89361 0.62272 0.74611
 C2625 C 0.93448 0.76390 0.17807
 C2626 C 0.91618 0.76032 0.18274
 C2627 C 0.89410 0.75688 0.18780
 C2628 C 0.87821 0.76884 0.17774
 C2629 C 0.85672 0.76649 0.18333
 C2630 C 0.85113 0.75214 0.19896
 C2631 C 0.86698 0.73985 0.20875
 C2632 C 0.88849 0.74221 0.20316
 C2633 C 0.82944 0.75121 0.20610
 C2634 C 0.81158 0.75079 0.21301
 H2635 H 0.88249 0.78025 0.16586
 H2636 H 0.84455 0.77617 0.17583
 H2637 H 0.86276 0.72885 0.22099
 H2638 H 0.90072 0.73295 0.21103
 C2639 C 0.43328 0.26195 0.67851
 C2640 C 0.41526 0.25796 0.68380
 C2641 C 0.39347 0.25409 0.68961
 C2642 C 0.38875 0.24585 0.70905
 C2643 C 0.36739 0.24367 0.71519
 C2644 C 0.35079 0.24974 0.70188
 C2645 C 0.35551 0.25756 0.68227
 C2646 C 0.37687 0.25972 0.67613
 C2647 C 0.32906 0.24925 0.70893
 C2648 C 0.31111 0.24926 0.71562
 H2649 H 0.40153 0.24157 0.71957
 H2650 H 0.36381 0.23773 0.73044
 H2651 H 0.34274 0.26241 0.67196
 H2652 H 0.38045 0.26621 0.66109
 C2653 C 0.43306 0.73479 0.82245
 C2654 C 0.41484 0.73813 0.81734
 C2655 C 0.39284 0.74129 0.81183
 C2656 C 0.37739 0.72656 0.81859
 C2657 C 0.35599 0.72905 0.81277
 C2658 C 0.35003 0.74631 0.80023
 C2659 C 0.36542 0.76125 0.79372
 C2660 C 0.38685 0.75875 0.79954
 C2661 C 0.32847 0.74777 0.79284
 C2662 C 0.31065 0.74853 0.78587
 H2663 H 0.38195 0.71301 0.82811
 H2664 H 0.34418 0.71734 0.81772
 H2665 H 0.36091 0.77454 0.78386
 H2666 H 0.39875 0.77020 0.79427
 C2667 C 0.93400 0.23397 0.32271
 C2668 C 0.91568 0.23730 0.31792
 C2669 C 0.89360 0.24051 0.31271
 C2670 C 0.87798 0.22693 0.32111
 C2671 C 0.85650 0.22932 0.31545
 C2672 C 0.85067 0.24532 0.30144
 C2673 C 0.86624 0.25916 0.29331
 C2674 C 0.88773 0.25677 0.29896
 C2675 C 0.82903 0.24651 0.29418
 C2676 C 0.81119 0.24713 0.28723
 H2677 H 0.88245 0.21431 0.33175
 H2678 H 0.84455 0.21845 0.32165
 H2679 H 0.86182 0.27146 0.28231
 H2680 H 0.89976 0.26731 0.29241
 C2681 C 0.06600 0.26393 0.32161
 C2682 C 0.08433 0.26051 0.31690
 C2683 C 0.10642 0.25722 0.31176
 C2684 C 0.12220 0.26971 0.32139
 C2685 C 0.14369 0.26741 0.31575
 C2686 C 0.14939 0.25258 0.30051
 C2687 C 0.13366 0.23980 0.29114
 C2688 C 0.11215 0.24210 0.29678
 C2689 C 0.17108 0.25161 0.29335
 C2690 C 0.18896 0.25116 0.28649
 H2691 H 0.11783 0.28146 0.33298
 H2692 H 0.15577 0.27747 0.32293
 H2693 H 0.13798 0.22841 0.27920
 H2694 H 0.10000 0.23242 0.28925
 C2695 C 0.56620 0.76238 0.82121
 C2696 C 0.58434 0.75868 0.81607
 C2697 C 0.60625 0.75509 0.81046
 C2698 C 0.62264 0.76383 0.82259
 C2699 C 0.64403 0.76158 0.81658
 C2700 C 0.64900 0.75056 0.79845
 C2701 C 0.63263 0.74145 0.78652
 C2702 C 0.61123 0.74371 0.79253
 C2703 C 0.67069 0.74982 0.79130
 C2704 C 0.68862 0.74961 0.78456
 H2705 H 0.61886 0.77272 0.83646
 H2706 H 0.65662 0.76879 0.82579
 H2707 H 0.63639 0.73303 0.77239
 H2708 H 0.59860 0.73698 0.78306
 C2709 C 0.56720 0.23786 0.67751
 C2710 C 0.58528 0.24179 0.68266
 C2711 C 0.60713 0.24559 0.68834
 C2712 C 0.62367 0.23777 0.67581
 C2713 C 0.64502 0.24000 0.68196
 C2714 C 0.64979 0.25008 0.70062
 C2715 C 0.63327 0.25832 0.71294
 C2716 C 0.61191 0.25607 0.70680
 C2717 C 0.67144 0.25065 0.70788
 C2718 C 0.68932 0.25068 0.71474
 H2719 H 0.62004 0.22956 0.66154
 H2720 H 0.65773 0.23346 0.67243
 H2721 H 0.63687 0.26600 0.72748
 H2722 H 0.59917 0.26207 0.71659
 C2723 C 0.06693 0.73536 0.17810
 C2724 C 0.08525 0.73883 0.18277
 C2725 C 0.10735 0.74218 0.18781
 C2726 C 0.11327 0.75871 0.20128
 C2727 C 0.13479 0.76123 0.20678
 C2728 C 0.15035 0.74724 0.19876
 C2729 C 0.14447 0.73096 0.18501
 C2730 C 0.12297 0.72845 0.17952
 C2731 C 0.17203 0.74854 0.20589
 C2732 C 0.18990 0.74919 0.21275
 H2733 H 0.10125 0.76937 0.20776
 H2734 H 0.13924 0.77374 0.21757
 H2735 H 0.15641 0.71997 0.17890
 H2736 H 0.11846 0.71561 0.16909
   
