data_POSCAR
  _audit_creation_date              2014-09-24
  _audit_creation_method            'ToBaCCo'
  _symmetry_space_group_name_H-M    'P1'
  _symmetry_Int_Tables_number       1
  _symmetry_cell_setting            triclinic
  loop_
  _symmetry_equiv_pos_as_xyz
 x,y,z
_cell_length_a 56.3605
_cell_length_b 56.4510
_cell_length_c 56.4181
_cell_angle_alpha 89.995000
_cell_angle_beta 90.074800
_cell_angle_gamma 89.924300
loop_
  _atom_site_label
  _atom_site_type_symbol
  _atom_site_fract_x
  _atom_site_fract_y
  _atom_site_fract_z
C1 C 0.24927 0.99539 -0.01741
 C2 C 0.25125 0.99531 0.00662
 C3 C 0.25112 0.97313 0.02072
 C4 C 0.25324 1.01756 0.02052
 C5 C 0.24861 1.01783 -0.03112
 C6 C 0.24794 0.97317 -0.03145
 C7 C 0.23152 0.95777 0.02035
 C8 C 0.23042 0.93866 0.03615
 C9 C 0.24886 0.93483 0.05239
 C10 C 0.26868 0.94972 0.05233
 C11 C 0.26978 0.96878 0.03665
 C12 C 0.23672 1.02212 0.03855
 C13 C 0.23900 1.04214 0.05286
 C14 C 0.25793 1.05783 0.04943
 C15 C 0.27444 1.05349 0.03134
 C16 C 0.27213 1.03339 0.01698
 C17 C 0.26536 1.02162 -0.04911
 C18 C 0.26484 1.04243 -0.06247
 C19 C 0.24748 1.05963 -0.05812
 C20 C 0.23058 1.05591 -0.04032
 C21 C 0.23107 1.03506 -0.02692
 C22 C 0.26594 0.95596 -0.03020
 C23 C 0.26524 0.93607 -0.04502
 C24 C 0.24660 0.93329 -0.06125
 C25 C 0.22852 0.95026 -0.06235
 C26 C 0.22922 0.97010 -0.04761
 H27 H 0.21675 0.96110 0.00850
 H28 H 0.21492 0.92733 0.03616
 H29 H 0.28299 0.94699 0.06489
 H30 H 0.28493 0.98055 0.03732
 H31 H 0.22213 1.01004 0.04163
 H32 H 0.22611 1.04515 0.06681
 H33 H 0.28528 1.02993 0.00343
 H34 H 0.27891 1.00849 -0.05271
 H35 H 0.27794 1.04508 -0.07627
 H36 H 0.21697 1.06904 -0.03692
 H37 H 0.21772 1.03225 -0.01342
 H38 H 0.28079 0.95823 -0.01822
 H39 H 0.27942 0.92313 -0.04415
 H40 H 0.21409 0.94836 -0.07491
 H41 H 0.21527 0.98326 -0.04897
 H42 H 0.28927 1.06536 0.02853
 C43 C 0.75050 0.49344 0.48063
 C44 C 0.75268 0.49358 0.50463
 C45 C 0.75261 0.47154 0.51895
 C46 C 0.75486 0.51594 0.51830
 C47 C 0.74969 0.51576 0.46672
 C48 C 0.74916 0.47109 0.46681
 C49 C 0.73298 0.45621 0.51888
 C50 C 0.73193 0.43730 0.53491
 C51 C 0.75046 0.43363 0.55110
 C52 C 0.77030 0.44848 0.55075
 C53 C 0.77135 0.46734 0.53483
 C54 C 0.73851 0.52073 0.53644
 C55 C 0.74105 0.54082 0.55060
 C56 C 0.76003 0.55632 0.54690
 C57 C 0.77635 0.55180 0.52873
 C58 C 0.77381 0.53164 0.51449
 C59 C 0.76628 0.51941 0.44854
 C60 C 0.76566 0.54013 0.43504
 C61 C 0.74836 0.55738 0.43945
 C62 C 0.73161 0.55380 0.45741
 C63 C 0.73220 0.53303 0.47095
 C64 C 0.76721 0.45393 0.46818
 C65 C 0.76649 0.43388 0.45359
 C66 C 0.74780 0.43088 0.43748
 C67 C 0.72967 0.44779 0.43626
 C68 C 0.73037 0.46780 0.45078
 H69 H 0.71815 0.45944 0.50708
 H70 H 0.71640 0.42601 0.53516
 H71 H 0.78468 0.44588 0.56326
 H72 H 0.78653 0.47909 0.53528
 H73 H 0.72388 0.50875 0.53974
 H74 H 0.72839 0.54410 0.56466
 H75 H 0.78683 0.52802 0.50086
 H76 H 0.77979 0.50624 0.44492
 H77 H 0.77864 0.54267 0.42112
 H78 H 0.71805 0.56697 0.46085
 H79 H 0.71898 0.53034 0.48459
 H80 H 0.78211 0.45637 0.48007
 H81 H 0.78072 0.42099 0.45455
 H82 H 0.71519 0.44572 0.42378
 H83 H 0.71638 0.48090 0.44933
 H84 H 0.79120 0.56361 0.52582
 C85 C 0.74891 1.00440 0.99397
 C86 C 0.74916 0.98032 0.99407
 C87 C 0.74757 0.96659 1.01647
 C88 C 0.75129 0.96626 0.97193
 C89 C 0.74982 1.01846 0.97178
 C90 C 0.74738 1.01839 1.01618
 C91 C 0.76546 0.95017 1.02206
 C92 C 0.76418 0.93684 1.04286
 C93 C 0.74493 0.93965 1.05825
 C94 C 0.72690 0.95585 1.05273
 C95 C 0.72816 0.96921 1.03187
 C96 C 0.77067 0.96919 0.95654
 C97 C 0.77313 0.95459 0.93663
 C98 C 0.75632 0.93690 0.93202
 C99 C 0.73692 0.93407 0.94720
 C100 C 0.73446 0.94860 0.96706
 C101 C 0.73197 1.01653 0.95447
 C102 C 0.73148 1.03220 0.93522
 C103 C 0.74881 1.04987 0.93319
 C104 C 0.76696 1.05140 0.95005
 C105 C 0.76743 1.03584 0.96925
 C106 C 0.72882 1.03475 1.01893
 C107 C 0.72786 1.04933 1.03887
 C108 C 0.74555 1.04783 1.05625
 C109 C 0.76404 1.03137 1.05377
 C110 C 0.76498 1.01673 1.03377
 H111 H 0.78048 0.94779 1.01033
 H112 H 0.77816 0.92428 1.04690
 H113 H 0.71184 0.95803 1.06444
 H114 H 0.71396 0.98146 1.02765
 H115 H 0.78411 0.98238 0.96024
 H116 H 0.78830 0.95683 0.92508
 H117 H 0.71949 0.94596 0.97880
 H118 H 0.71799 1.00353 0.95636
 H119 H 0.71726 1.03098 0.92235
 H120 H 0.78038 1.06505 0.94872
 H121 H 0.78121 1.03772 0.98252
 H122 H 0.71518 1.03637 1.00548
 H123 H 0.71352 1.06203 1.04050
 H124 H 0.77793 1.03014 1.06702
 H125 H 0.77966 1.00449 1.03174
 H126 H 0.72386 0.92040 0.94387
 C127 C 0.24861 0.48083 0.49494
 C128 C 0.24850 0.50492 0.49472
 C129 C 0.24919 0.51886 0.47243
 C130 C 0.24733 0.51904 0.51688
 C131 C 0.24715 0.46723 0.51744
 C132 C 0.25047 0.46663 0.47286
 C133 C 0.26677 0.53623 0.46962
 C134 C 0.26613 0.55165 0.45032
 C135 C 0.24783 0.55002 0.43363
 C136 C 0.23051 0.53237 0.43596
 C137 C 0.23117 0.51683 0.45531
 C138 C 0.26510 0.51729 0.53430
 C139 C 0.26446 0.53201 0.55426
 C140 C 0.24613 0.54861 0.55686
 C141 C 0.22830 0.55021 0.53966
 C142 C 0.22893 0.53557 0.51976
 C143 C 0.22791 0.47006 0.53302
 C144 C 0.22673 0.45676 0.55392
 C145 C 0.24467 0.44042 0.55932
 C146 C 0.26375 0.43742 0.54376
 C147 C 0.26496 0.45069 0.52291
 C148 C 0.23358 0.44893 0.46833
 C149 C 0.23584 0.43423 0.44857
 C150 C 0.25507 0.43693 0.43316
 C151 C 0.27193 0.45465 0.43744
 C152 C 0.26968 0.46942 0.45725
 H153 H 0.28069 0.53818 0.48274
 H154 H 0.27955 0.56529 0.44876
 H155 H 0.21618 0.53106 0.42322
 H156 H 0.21720 0.50385 0.45741
 H157 H 0.27965 0.50493 0.53217
 H158 H 0.27843 0.53076 0.56740
 H159 H 0.21517 0.53726 0.50644
 H160 H 0.21377 0.48241 0.52889
 H161 H 0.21179 0.45910 0.56576
 H162 H 0.27767 0.42475 0.54770
 H163 H 0.27985 0.44815 0.51105
 H164 H 0.21875 0.44638 0.48025
 H165 H 0.22275 0.42052 0.44549
 H166 H 0.28698 0.45679 0.42571
 H167 H 0.28317 0.48263 0.46069
 H168 H 0.21411 0.56305 0.54145
 C169 C 0.99456 0.24968 -0.00532
 C170 C 0.99457 0.24951 0.01878
 C171 C 0.97233 0.24758 0.03272
 C172 C 1.01694 0.25095 0.03267
 C173 C 1.01686 0.25085 -0.01920
 C174 C 0.97237 0.24904 -0.01951
 C175 C 0.96753 0.26445 0.05036
 C176 C 0.94758 0.26215 0.06480
 C177 C 0.93226 0.24289 0.06189
 C178 C 0.93681 0.22605 0.04422
 C179 C 0.95681 0.22834 0.02972
 C180 C 1.03256 0.27017 0.03008
 C181 C 1.05329 0.27140 0.04372
 C182 C 1.05848 0.25351 0.06018
 C183 C 1.04287 0.23443 0.06291
 C184 C 1.02220 0.23320 0.04929
 C185 C 1.03429 0.23312 -0.01726
 C186 C 1.05442 0.23375 -0.03174
 C187 C 1.05719 0.25204 -0.04833
 C188 C 1.03996 0.26983 -0.05013
 C189 C 1.01989 0.26919 -0.03571
 C190 C 0.96972 0.23155 -0.03700
 C191 C 0.95047 0.23217 -0.05256
 C192 C 0.93366 0.25037 -0.05093
 C193 C 0.93586 0.26761 -0.03316
 C194 C 0.95516 0.26696 -0.01751
 H195 H 0.97938 0.27930 0.05306
 H196 H 0.94429 0.27523 0.07847
 H197 H 0.92514 0.21099 0.04193
 H198 H 0.96046 0.21488 0.01654
 H199 H 1.02860 0.28427 0.01767
 H200 H 1.06513 0.28635 0.04152
 H201 H 1.01031 0.21833 0.05165
 H202 H 1.03204 0.21861 -0.00491
 H203 H 1.06756 0.21978 -0.03027
 H204 H 1.04182 0.28402 -0.06294
 H205 H 1.00657 0.28292 -0.03755
 H206 H 0.98290 0.21770 -0.03892
 H207 H 0.94907 0.21876 -0.06624
 H208 H 0.92306 0.28189 -0.03179
 H209 H 0.95714 0.28086 -0.00442
 H210 H 1.04659 0.22051 0.07564
 C211 C 0.49470 0.74936 0.49484
 C212 C 0.49501 0.74950 0.51894
 C213 C 0.47294 0.74794 0.53321
 C214 C 0.51757 0.75103 0.53248
 C215 C 0.51685 0.75011 0.48064
 C216 C 0.47232 0.74880 0.48098
 C217 C 0.46852 0.76505 0.55072
 C218 C 0.44871 0.76315 0.56541
 C219 C 0.43312 0.74404 0.56289
 C220 C 0.43730 0.72694 0.54538
 C221 C 0.45716 0.72884 0.53063
 C222 C 0.53320 0.77017 0.52939
 C223 C 0.55418 0.77145 0.54262
 C224 C 0.55960 0.75372 0.55915
 C225 C 0.54399 0.73474 0.56240
 C226 C 0.52306 0.73344 0.54920
 C227 C 0.53419 0.73230 0.48269
 C228 C 0.55418 0.73258 0.46798
 C229 C 0.55690 0.75057 0.45109
 C230 C 0.53975 0.76840 0.44915
 C231 C 0.51982 0.76815 0.46378
 C232 C 0.46924 0.73118 0.46370
 C233 C 0.44975 0.73184 0.44847
 C234 C 0.43314 0.75018 0.45022
 C235 C 0.43576 0.76757 0.46776
 C236 C 0.45531 0.76691 0.48310
 H237 H 0.48055 0.77982 0.55311
 H238 H 0.44570 0.77643 0.57895
 H239 H 0.42543 0.71199 0.54339
 H240 H 0.46050 0.71519 0.51756
 H241 H 0.52906 0.78415 0.51690
 H242 H 0.56606 0.78630 0.54009
 H243 H 0.51116 0.71864 0.55193
 H244 H 0.53200 0.71802 0.49530
 H245 H 0.56728 0.71860 0.46952
 H246 H 0.54163 0.78234 0.43608
 H247 H 0.50657 0.78193 0.46184
 H248 H 0.48227 0.71720 0.46168
 H249 H 0.44796 0.71837 0.43490
 H250 H 0.42309 0.78195 0.46914
 H251 H 0.45762 0.78091 0.49601
 H252 H 0.54796 0.72098 0.57520
 C253 C 0.00518 0.74945 0.00484
 C254 C -0.01887 0.75152 0.00473
 C255 C -0.03295 0.75276 0.02695
 C256 C -0.03255 0.75240 -0.01777
 C257 C 0.01913 0.74750 -0.01739
 C258 C 0.01926 0.74937 0.02706
 C259 C -0.03155 0.73482 0.04419
 C260 C -0.04619 0.73556 0.06421
 C261 C -0.06244 0.75417 0.06712
 C262 C -0.06374 0.77215 0.05007
 C263 C -0.04915 0.77141 0.03010
 C264 C -0.05061 0.73578 -0.02177
 C265 C -0.06386 0.73642 -0.04269
 C266 C -0.05931 0.75381 -0.05979
 C267 C -0.04145 0.77061 -0.05583
 C268 C -0.02818 0.76997 -0.03486
 C269 C 0.03728 0.76391 -0.02180
 C270 C 0.05171 0.76158 -0.04173
 C271 C 0.04828 0.74272 -0.05747
 C272 C 0.03006 0.72634 -0.05332
 C273 C 0.01557 0.72868 -0.03332
 C274 C 0.01893 0.76881 0.04262
 C275 C 0.03461 0.76964 0.06187
 C276 C 0.05072 0.75107 0.06564
 C277 C 0.05065 0.73144 0.05053
 C278 C 0.03508 0.73061 0.03132
 H279 H -0.01953 0.72002 0.04187
 H280 H -0.04509 0.72143 0.07717
 H281 H -0.07628 0.78660 0.05200
 H282 H -0.05062 0.78531 0.01694
 H283 H -0.05433 0.72220 -0.00873
 H284 H -0.07768 0.72338 -0.04545
 H285 H -0.01462 0.78322 -0.03189
 H286 H 0.04038 0.77844 -0.00964
 H287 H 0.06577 0.77434 -0.04465
 H288 H 0.02730 0.71157 -0.06528
 H289 H 0.00192 0.71561 -0.02999
 H290 H 0.00716 0.78365 0.03935
 H291 H 0.03464 0.78499 0.07338
 H292 H 0.06310 0.71703 0.05322
 H293 H 0.03572 0.71558 0.01941
 H294 H -0.03784 0.78426 -0.06884
 C295 C 0.50523 0.24963 0.50568
 C296 C 0.48119 0.25174 0.50572
 C297 C 0.46730 0.25308 0.52803
 C298 C 0.46732 0.25251 0.48332
 C299 C 0.51898 0.24739 0.48336
 C300 C 0.51948 0.24972 0.52781
 C301 C 0.46867 0.23508 0.54521
 C302 C 0.45417 0.23589 0.56532
 C303 C 0.43812 0.25462 0.56837
 C304 C 0.43685 0.27267 0.55141
 C305 C 0.45129 0.27187 0.53134
 C306 C 0.44916 0.23592 0.47957
 C307 C 0.43574 0.23648 0.45876
 C308 C 0.44021 0.25372 0.44151
 C309 C 0.45816 0.27047 0.44518
 C310 C 0.47162 0.26994 0.46604
 C311 C 0.53716 0.26367 0.47862
 C312 C 0.55137 0.26108 0.45856
 C313 C 0.54767 0.24210 0.44306
 C314 C 0.52944 0.22585 0.44753
 C315 C 0.51516 0.22844 0.46765
 C316 C 0.51923 0.26926 0.54324
 C317 C 0.53502 0.27022 0.56241
 C318 C 0.55115 0.25168 0.56623
 C319 C 0.55103 0.23196 0.55122
 C320 C 0.53535 0.23101 0.53210
 H321 H 0.48055 0.22019 0.54276
 H322 H 0.45517 0.22173 0.57825
 H323 H 0.42444 0.28718 0.55353
 H324 H 0.44985 0.28582 0.51823
 H325 H 0.44550 0.22245 0.49274
 H326 H 0.42184 0.22351 0.45614
 H327 H 0.48525 0.28315 0.46880
 H328 H 0.54046 0.27830 0.49060
 H329 H 0.56547 0.27369 0.45532
 H330 H 0.52653 0.21101 0.43571
 H331 H 0.50149 0.21547 0.47124
 H332 H 0.50744 0.28407 0.53995
 H333 H 0.53509 0.28564 0.57383
 H334 H 0.56349 0.21757 0.55394
 H335 H 0.53593 0.21589 0.52028
 H336 H 0.46166 0.28399 0.43202
 C337 C 1.00483 0.01754 0.24975
 C338 C 1.00487 -0.00643 0.25210
 C339 C 1.02706 -0.02059 0.25232
 C340 C 0.98256 -0.02022 0.25420
 C341 C 0.98236 0.03128 0.24866
 C342 C 1.02712 0.03150 0.24850
 C343 C 1.04256 -0.02059 0.23283
 C344 C 1.06170 -0.03642 0.23210
 C345 C 1.06543 -0.05235 0.25083
 C346 C 1.05037 -0.05191 0.27053
 C347 C 1.03128 -0.03619 0.27123
 C348 C 0.97803 -0.03848 0.23794
 C349 C 0.95800 -0.05275 0.24041
 C350 C 0.94231 -0.04904 0.25926
 C351 C 0.94658 -0.03071 0.27548
 C352 C 0.96668 -0.01637 0.27299
 C353 C 0.97841 0.04954 0.26508
 C354 C 0.95755 0.06288 0.26419
 C355 C 0.94046 0.05821 0.24679
 C356 C 0.94433 0.04014 0.23023
 C357 C 0.96524 0.02677 0.23109
 C358 C 1.04416 0.03038 0.26669
 C359 C 1.06416 0.04505 0.26603
 C360 C 1.06721 0.06102 0.24726
 C361 C 1.05041 0.06201 0.22902
 C362 C 1.03045 0.04740 0.22966
 H363 H 1.03931 -0.00901 0.21787
 H364 H 1.07313 -0.03668 0.21666
 H365 H 1.05297 -0.06416 0.28511
 H366 H 1.01940 -0.03656 0.28631
 H367 H 0.99016 -0.04179 0.22343
 H368 H 0.95498 -0.06690 0.22778
 H369 H 0.97011 -0.00263 0.28594
 H370 H 0.99146 0.05337 0.27866
 H371 H 0.95477 0.07688 0.27703
 H372 H 0.93129 0.03649 0.21659
 H373 H 0.96817 0.01304 0.21800
 H374 H 1.04169 0.01859 0.28162
 H375 H 1.07698 0.04426 0.28033
 H376 H 1.05253 0.07436 0.21447
 H377 H 1.01744 0.04865 0.21557
 H378 H 0.93465 -0.02773 0.29024
 C379 C 0.50599 0.51963 0.75004
 C380 C 0.50585 0.49565 0.75242
 C381 C 0.48346 0.48201 0.75469
 C382 C 0.52794 0.48133 0.75252
 C383 C 0.52837 0.53342 0.74853
 C384 C 0.48361 0.53353 0.74913
 C385 C 0.46772 0.48596 0.77360
 C386 C 0.44756 0.47173 0.77624
 C387 C 0.44307 0.45343 0.76007
 C388 C 0.45859 0.44961 0.74112
 C389 C 0.47869 0.46376 0.73848
 C390 C 0.53215 0.46570 0.77142
 C391 C 0.55116 0.44987 0.77062
 C392 C 0.56611 0.44936 0.75086
 C393 C 0.56239 0.46528 0.73215
 C394 C 0.54334 0.48122 0.73296
 C395 C 0.53163 0.54927 0.72963
 C396 C 0.55170 0.56371 0.72873
 C397 C 0.56871 0.56262 0.74678
 C398 C 0.56573 0.54671 0.76561
 C399 C 0.54562 0.53220 0.76653
 C400 C 0.46630 0.52914 0.73172
 C401 C 0.44548 0.54266 0.73105
 C402 C 0.44190 0.56078 0.74763
 C403 C 0.45919 0.56534 0.76485
 C404 C 0.47996 0.55186 0.76555
 H405 H 0.47133 0.49969 0.78651
 H406 H 0.43573 0.47474 0.79106
 H407 H 0.45534 0.43545 0.72857
 H408 H 0.49069 0.46035 0.72388
 H409 H 0.52035 0.46540 0.78656
 H410 H 0.55380 0.43758 0.78514
 H411 H 0.54010 0.49282 0.71801
 H412 H 0.51847 0.55060 0.71568
 H413 H 0.55376 0.57601 0.71413
 H414 H 0.57870 0.54584 0.77977
 H415 H 0.54322 0.52046 0.78151
 H416 H 0.46899 0.51537 0.71863
 H417 H 0.43227 0.53908 0.71755
 H418 H 0.45664 0.57938 0.77770
 H419 H 0.49316 0.55560 0.77900
 H420 H 0.57377 0.46491 0.71670
 C421 C 1.01952 1.00727 0.74926
 C422 C 0.99539 1.00750 0.74953
 C423 C 0.98143 1.02979 0.75037
 C424 C 0.98128 0.98534 0.74858
 C425 C 1.03311 0.98476 0.74765
 C426 C 1.03379 1.02930 0.75091
 C427 C 0.96420 1.03260 0.76810
 C428 C 0.94873 1.05191 0.76763
 C429 C 0.95020 1.06861 0.74935
 C430 C 0.96775 1.06627 0.73189
 C431 C 0.98331 1.04690 0.73239
 C432 C 0.98345 0.96787 0.76621
 C433 C 0.96900 0.94773 0.76561
 C434 C 0.95223 0.94499 0.74746
 C435 C 0.95010 0.96229 0.72984
 C436 C 0.96449 0.98238 0.73042
 C437 C 1.03008 0.96920 0.72843
 C438 C 1.04330 0.94824 0.72715
 C439 C 1.05978 0.94278 0.74495
 C440 C 1.06299 0.95833 0.76400
 C441 C 1.04980 0.97923 0.76530
 C442 C 1.05125 1.03377 0.73377
 C443 C 1.06620 1.05335 0.73591
 C444 C 1.06399 1.06866 0.75530
 C445 C 1.04643 1.06448 0.77239
 C446 C 1.03142 1.04485 0.77023
 H447 H 0.96237 1.01949 0.78199
 H448 H 0.93521 1.05342 0.78120
 H449 H 0.96899 1.07898 0.71755
 H450 H 0.99619 1.04480 0.71832
 H451 H 0.99601 0.97006 0.78058
 H452 H 0.97067 0.93451 0.77943
 H453 H 0.96246 0.99572 0.71677
 H454 H 1.01760 0.97337 0.71442
 H455 H 1.04080 0.93640 0.71225
 H456 H 1.07575 0.95432 0.77781
 H457 H 1.05249 0.99107 0.78017
 H458 H 1.05347 1.02190 0.71885
 H459 H 1.07974 1.05628 0.72260
 H460 H 1.04462 1.07608 0.78758
 H461 H 1.01839 1.04144 0.78390
 H462 H 0.93712 0.96039 0.71579
 C463 C 0.51846 0.50528 0.24833
 C464 C 0.49434 0.50563 0.24849
 C465 C 0.48013 0.48354 0.24762
 C466 C 0.48049 0.52799 0.24919
 C467 C 0.53280 0.52727 0.24989
 C468 C 0.53199 0.48273 0.24688
 C469 C 0.46334 0.48058 0.22947
 C470 C 0.44880 0.46061 0.22902
 C471 C 0.45076 0.44343 0.24679
 C472 C 0.46755 0.44616 0.26491
 C473 C 0.48217 0.46618 0.26538
 C474 C 0.48253 0.54503 0.23114
 C475 C 0.46714 0.56453 0.23059
 C476 C 0.44964 0.56709 0.24804
 C477 C 0.44800 0.55047 0.26635
 C478 C 0.46327 0.53102 0.26689
 C479 C 0.53042 0.54294 0.26911
 C480 C 0.54543 0.56258 0.27113
 C481 C 0.56297 0.56663 0.25402
 C482 C 0.56521 0.55120 0.23474
 C483 C 0.55027 0.53161 0.23273
 C484 C 0.54865 0.47728 0.26458
 C485 C 0.56191 0.45641 0.26335
 C486 C 0.55879 0.44081 0.24433
 C487 C 0.54231 0.44618 0.22650
 C488 C 0.52901 0.46710 0.22771
 H489 H 0.46142 0.49384 0.21572
 H490 H 0.43580 0.45872 0.21499
 H491 H 0.46909 0.43303 0.27884
 H492 H 0.49472 0.46837 0.27975
 H493 H 0.49540 0.54277 0.21708
 H494 H 0.46845 0.57722 0.21624
 H495 H 0.46132 0.51797 0.28083
 H496 H 0.51738 0.53963 0.28279
 H497 H 0.54367 0.57433 0.28621
 H498 H 0.57877 0.55410 0.22147
 H499 H 0.55250 0.51964 0.21788
 H500 H 0.55130 0.48918 0.27941
 H501 H 0.57467 0.45249 0.27718
 H502 H 0.53987 0.43430 0.21161
 H503 H 0.51656 0.47120 0.21366
 H504 H 0.43447 0.55220 0.27987
 O505 O 0.26259 0.18874 0.20353
 O506 O 0.28870 0.18155 0.23641
 O507 O 0.20059 0.21669 0.23880
 O508 O 0.19197 0.24732 0.26215
 O509 O 0.22885 0.25110 0.17600
 O510 O 0.26194 0.27703 0.16969
 O511 O 0.26263 0.28172 0.29912
 O512 O 0.23502 0.24975 0.30481
 O513 O 0.32347 0.25010 0.27007
 O514 O 0.33052 0.22328 0.23613
 O515 O 0.29477 0.31070 0.23911
 O516 O 0.26066 0.31817 0.21186
 O517 O 0.26278 0.31046 0.27083
 O518 O 0.23580 0.31816 0.23733
 O519 O 0.32331 0.28215 0.23860
 O520 O 0.33037 0.24865 0.21098
 O521 O 0.29504 0.25073 0.29867
 O522 O 0.26664 0.22331 0.30597
 O523 O 0.26237 0.21768 0.17540
 O524 O 0.28812 0.25066 0.16909
 O525 O 0.20048 0.25020 0.20470
 O526 O 0.19502 0.27711 0.23832
 O527 O 0.22914 0.18818 0.23705
 O528 O 0.26365 0.18039 0.26221
 Zr529 Zr 0.26128 0.20715 0.23602
 O530 O 0.28336 0.22724 0.25845
 Zr531 Zr 0.21955 0.24871 0.23681
 O532 O 0.23993 0.27063 0.25918
 Zr533 Zr 0.26103 0.24936 0.19494
 O534 O 0.28330 0.27120 0.21547
 Zr535 Zr 0.26294 0.24986 0.27977
 O536 O 0.24045 0.22747 0.25957
 Zr537 Zr 0.30434 0.25015 0.23797
 O538 O 0.28410 0.22813 0.21529
 Zr539 Zr 0.26256 0.29184 0.23853
 O540 O 0.24008 0.27190 0.21600
 O541 O 0.23908 0.22704 0.21432
 O542 O 0.28497 0.27222 0.26041
 C543 C 0.26309 0.19593 0.18194
 C544 C 0.20748 0.19501 0.23866
 C545 C 0.20718 0.25141 0.18300
 C546 C 0.26274 0.30345 0.29245
 C547 C 0.31671 0.25061 0.29177
 C548 C 0.31647 0.30381 0.23915
 H549 H 0.29302 0.21644 0.26835
 H550 H 0.29305 0.28110 0.20484
 H551 H 0.22886 0.21702 0.20416
 H552 H 0.22927 0.28018 0.26929
 H553 H 0.22447 0.23636 0.30061
 H554 H 0.19791 0.25513 0.27668
 H555 H 0.32721 0.26174 0.19975
 H556 H 0.30086 0.23991 0.17464
 H557 H 0.25705 0.20970 0.30063
 H558 H 0.25022 0.18267 0.27326
 H559 H 0.27380 0.31537 0.20060
 H560 H 0.25101 0.28947 0.17551
 H561 H 0.30115 0.18737 0.22551
 H562 H 0.32712 0.21160 0.24874
 H563 H 0.19982 0.28867 0.22603
 H564 H 0.22407 0.31445 0.24981
 O565 O 0.74882 0.82333 0.22958
 O566 O 0.72319 0.82948 0.26277
 O567 O 0.81165 0.79562 0.26344
 O568 O 0.82107 0.76489 0.28641
 O569 O 0.78343 0.76183 0.20050
 O570 O 0.75074 0.73575 0.19375
 O571 O 0.75059 0.72887 0.32345
 O572 O 0.77800 0.76020 0.32978
 O573 O 0.68967 0.75950 0.29511
 O574 O 0.68172 0.78679 0.26145
 O575 O 0.71910 0.70004 0.26262
 O576 O 0.75322 0.69345 0.23578
 O577 O 0.75080 0.70054 0.29474
 O578 O 0.77825 0.69379 0.26109
 O579 O 0.69004 0.72806 0.26280
 O580 O 0.68211 0.76193 0.23611
 O581 O 0.71831 0.75965 0.32360
 O582 O 0.75031 0.78781 0.33082
 O583 O 0.74929 0.79493 0.20089
 O584 O 0.72404 0.76147 0.19402
 O585 O 0.81209 0.76254 0.22898
 O586 O 0.81813 0.73506 0.26189
 O587 O 0.78254 0.82366 0.26298
 O588 O 0.74953 0.82970 0.28892
 Zr589 Zr 0.75082 0.80414 0.26155
 O590 O 0.72906 0.78341 0.28362
 Zr591 Zr 0.79328 0.76324 0.26121
 O592 O 0.77341 0.74078 0.28350
 Zr593 Zr 0.75139 0.76279 0.21967
 O594 O 0.72972 0.74017 0.23995
 Zr595 Zr 0.75025 0.76094 0.30452
 O596 O 0.77225 0.78369 0.28440
 Zr597 Zr 0.70844 0.76042 0.26287
 O598 O 0.72814 0.78323 0.24055
 Zr599 Zr 0.75093 0.71953 0.26265
 O600 O 0.77283 0.74015 0.24020
 O601 O 0.77317 0.78506 0.23931
 O602 O 0.72839 0.73846 0.28494
 C603 C 0.74820 0.81655 0.20786
 C604 C 0.80434 0.81717 0.26395
 C605 C 0.80517 0.76160 0.20732
 C606 C 0.75061 0.70724 0.31647
 C607 C 0.69661 0.75915 0.31678
 C608 C 0.69727 0.70652 0.26271
 H609 H 0.71902 0.79393 0.29337
 H610 H 0.72011 0.73028 0.22916
 H611 H 0.78310 0.79544 0.22925
 H612 H 0.78423 0.73122 0.29346
 H613 H 0.78976 0.77223 0.32479
 H614 H 0.81614 0.75545 0.30031
 H615 H 0.68560 0.74932 0.22445
 H616 H 0.71127 0.77208 0.19974
 H617 H 0.73750 0.79921 0.32712
 H618 H 0.76043 0.82410 0.30150
 H619 H 0.74043 0.69658 0.22417
 H620 H 0.76170 0.72322 0.19935
 H621 H 0.71048 0.82355 0.25220
 H622 H 0.68468 0.79817 0.27445
 H623 H 0.81318 0.72360 0.24956
 H624 H 0.78961 0.69717 0.27403
 O625 O 0.75035 0.18844 0.78247
 O626 O 0.72564 0.18118 0.74971
 O627 O 0.81247 0.21876 0.74941
 O628 O 0.82108 0.25003 0.72731
 O629 O 0.78229 0.25048 0.81255
 O630 O 0.74924 0.27539 0.81947
 O631 O 0.74931 0.28327 0.68934
 O632 O 0.77733 0.25260 0.68302
 O633 O 0.68901 0.25098 0.71773
 O634 O 0.68129 0.22429 0.75038
 O635 O 0.71718 0.31138 0.75003
 O636 O 0.75034 0.31915 0.77666
 O637 O 0.74884 0.31164 0.71799
 O638 O 0.77648 0.31838 0.75245
 O639 O 0.68877 0.28278 0.74972
 O640 O 0.68243 0.24789 0.77717
 O641 O 0.71745 0.25206 0.68915
 O642 O 0.74665 0.22461 0.68207
 O643 O 0.74945 0.21644 0.81152
 O644 O 0.72272 0.24949 0.81805
 O645 O 0.81122 0.25117 0.78441
 O646 O 0.81634 0.27932 0.75095
 O647 O 0.78460 0.18960 0.74995
 O648 O 0.74997 0.18261 0.72310
 Zr649 Zr 0.75187 0.20789 0.75076
 O650 O 0.72930 0.22823 0.72902
 Zr651 Zr 0.79273 0.25018 0.75181
 O652 O 0.77225 0.27197 0.72934
 Zr653 Zr 0.75060 0.24891 0.79302
 O654 O 0.72862 0.27135 0.77278
 Zr655 Zr 0.74958 0.25132 0.70822
 O656 O 0.77263 0.22913 0.72812
 Zr657 Zr 0.70795 0.25065 0.74979
 O658 O 0.72828 0.22793 0.77175
 Zr659 Zr 0.74932 0.29260 0.75019
 O660 O 0.77148 0.27241 0.77289
 O661 O 0.77330 0.22755 0.77337
 O662 O 0.72723 0.27321 0.72784
 C663 C 0.74926 0.19488 0.80424
 C664 C 0.80614 0.19696 0.74901
 C665 C 0.80405 0.25145 0.80603
 C666 C 0.74887 0.30488 0.69626
 C667 C 0.69575 0.25174 0.69607
 C668 C 0.69553 0.30449 0.74976
 H669 H 0.71977 0.21754 0.71891
 H670 H 0.71874 0.28100 0.78355
 H671 H 0.78352 0.21742 0.78345
 H672 H 0.78285 0.28176 0.71942
 H673 H 0.78859 0.23977 0.68717
 H674 H 0.81485 0.25666 0.71232
 H675 H 0.68443 0.26167 0.78782
 H676 H 0.71083 0.23779 0.81262
 H677 H 0.75799 0.21200 0.68645
 H678 H 0.76448 0.18425 0.71340
 H679 H 0.73851 0.31495 0.78888
 H680 H 0.75930 0.28858 0.81379
 H681 H 0.71221 0.18702 0.75939
 H682 H 0.68588 0.21187 0.73889
 H683 H 0.81178 0.28999 0.76411
 H684 H 0.78721 0.31613 0.73876
 O685 O 0.23746 0.79960 0.78310
 O686 O 0.26326 0.80650 0.75028
 O687 O 0.17548 0.77078 0.74801
 O688 O 0.16729 0.73984 0.72491
 O689 O 0.20373 0.73771 0.81138
 O690 O 0.23688 0.71187 0.81839
 O691 O 0.23872 0.70515 0.68909
 O692 O 0.21047 0.73658 0.68270
 O693 O 0.29873 0.73766 0.71792
 O694 O 0.30562 0.76467 0.75163
 O695 O 0.27027 0.67709 0.74990
 O696 O 0.23610 0.66999 0.77682
 O697 O 0.23875 0.67684 0.71782
 O698 O 0.21129 0.66967 0.75117
 O699 O 0.29865 0.70573 0.74987
 O700 O 0.30549 0.73971 0.77706
 O701 O 0.27043 0.73677 0.68912
 O702 O 0.24165 0.76352 0.68132
 O703 O 0.23734 0.77114 0.81172
 O704 O 0.26297 0.73823 0.81879
 O705 O 0.17548 0.73791 0.78247
 O706 O 0.17045 0.71033 0.74933
 O707 O 0.20386 0.79940 0.74957
 O708 O 0.23839 0.80685 0.72419
 Zr709 Zr 0.23616 0.78064 0.75094
 O710 O 0.25849 0.76030 0.72903
 Zr711 Zr 0.19472 0.73891 0.75052
 O712 O 0.21536 0.71673 0.72863
 Zr713 Zr 0.23603 0.73912 0.79269
 O714 O 0.25852 0.71703 0.77266
 Zr715 Zr 0.23831 0.73730 0.70790
 O716 O 0.21556 0.75990 0.72757
 Zr717 Zr 0.27955 0.73776 0.74996
 O718 O 0.25906 0.76008 0.77213
 Zr719 Zr 0.23802 0.69595 0.74979
 O720 O 0.21532 0.71616 0.77185
 O721 O 0.21402 0.76103 0.77281
 O722 O 0.26041 0.71530 0.72774
 C723 C 0.23809 0.79279 0.80481
 C724 C 0.18224 0.79248 0.74797
 C725 C 0.18209 0.73720 0.80423
 C726 C 0.23902 0.68353 0.69610
 C727 C 0.29207 0.73715 0.69616
 C728 C 0.29193 0.68404 0.74978
 H729 H 0.26810 0.77103 0.71906
 H730 H 0.26829 0.70733 0.78352
 H731 H 0.20376 0.77120 0.78278
 H732 H 0.20485 0.70697 0.71856
 H733 H 0.19971 0.74990 0.68658
 H734 H 0.17321 0.73153 0.71068
 H735 H 0.30241 0.72673 0.78842
 H736 H 0.27579 0.74876 0.81308
 H737 H 0.23170 0.77701 0.68634
 H738 H 0.22483 0.80447 0.71331
 H739 H 0.24903 0.67313 0.78826
 H740 H 0.22602 0.69933 0.81269
 H741 H 0.27590 0.80082 0.76108
 H742 H 0.30212 0.77627 0.73895
 H743 H 0.17529 0.69903 0.76187
 H744 H 0.19985 0.67293 0.73827
 O745 O 0.24833 0.32481 0.73114
 O746 O 0.22253 0.33109 0.76414
 O747 O 0.31108 0.29753 0.76543
 O748 O 0.32051 0.26702 0.78866
 O749 O 0.28327 0.26324 0.70262
 O750 O 0.25070 0.23704 0.69584
 O751 O 0.24994 0.23093 0.82559
 O752 O 0.27717 0.26235 0.83191
 O753 O 0.18906 0.26114 0.79675
 O754 O 0.18113 0.28813 0.76290
 O755 O 0.21890 0.20157 0.76473
 O756 O 0.25323 0.19497 0.73818
 O757 O 0.25038 0.20243 0.79706
 O758 O 0.27810 0.19559 0.76363
 O759 O 0.18972 0.22947 0.76463
 O760 O 0.18183 0.26318 0.73766
 O761 O 0.21757 0.26159 0.82536
 O762 O 0.24942 0.28996 0.83254
 O763 O 0.24904 0.29624 0.70263
 O764 O 0.22390 0.26266 0.69586
 O765 O 0.31179 0.26420 0.73123
 O766 O 0.31776 0.23698 0.76440
 O767 O 0.28188 0.32548 0.76471
 O768 O 0.24865 0.33152 0.79046
 Zr769 Zr 0.25023 0.30583 0.76324
 O770 O 0.22842 0.28513 0.78530
 Zr771 Zr 0.29283 0.26508 0.76336
 O772 O 0.27293 0.24268 0.78568
 Zr773 Zr 0.25114 0.26422 0.72162
 O774 O 0.22947 0.24162 0.74192
 Zr775 Zr 0.24959 0.26288 0.80645
 O776 O 0.27162 0.28559 0.78632
 Zr777 Zr 0.20799 0.26192 0.76459
 O778 O 0.22772 0.28469 0.74226
 Zr779 Zr 0.25065 0.22121 0.76486
 O780 O 0.27257 0.24178 0.74239
 O781 O 0.27275 0.28668 0.74123
 O782 O 0.22792 0.24019 0.78691
 C783 C 0.24784 0.31790 0.70946
 C784 C 0.30371 0.31907 0.76578
 C785 C 0.30498 0.26310 0.70954
 C786 C 0.25005 0.20926 0.81874
 C787 C 0.19591 0.26097 0.81845
 C788 C 0.19704 0.20795 0.76468
 H789 H 0.21829 0.29567 0.79493
 H790 H 0.21996 0.23162 0.73114
 H791 H 0.28269 0.29703 0.73115
 H792 H 0.28374 0.23324 0.79577
 H793 H 0.28890 0.27441 0.82695
 H794 H 0.31549 0.25776 0.80266
 H795 H 0.18541 0.25048 0.72613
 H796 H 0.21109 0.27330 0.70143
 H797 H 0.23651 0.30122 0.82878
 H798 H 0.25953 0.32605 0.80313
 H799 H 0.24052 0.19798 0.72645
 H800 H 0.26166 0.22457 0.70156
 H801 H 0.20986 0.32503 0.75360
 H802 H 0.18406 0.29968 0.77575
 H803 H 0.31297 0.22544 0.75209
 H804 H 0.28934 0.19906 0.77665
 O805 O 0.76533 0.68908 0.70226
 O806 O 0.79119 0.68179 0.73524
 O807 O 0.70321 0.71728 0.73712
 O808 O 0.69455 0.74797 0.76036
 O809 O 0.73203 0.75155 0.67446
 O810 O 0.76524 0.77734 0.66834
 O811 O 0.76508 0.78212 0.79776
 O812 O 0.73734 0.75018 0.80328
 O813 O 0.82603 0.75030 0.76911
 O814 O 0.83323 0.72345 0.73528
 O815 O 0.79771 0.81097 0.73800
 O816 O 0.76382 0.81852 0.71047
 O817 O 0.76551 0.81084 0.76946
 O818 O 0.73877 0.81860 0.73577
 O819 O 0.82618 0.78235 0.73767
 O820 O 0.83326 0.74875 0.71005
 O821 O 0.79742 0.75104 0.79753
 O822 O 0.76891 0.72374 0.80472
 O823 O 0.76542 0.71800 0.67411
 O824 O 0.79136 0.75086 0.66796
 O825 O 0.70348 0.75075 0.70298
 O826 O 0.69789 0.77772 0.73655
 O827 O 0.73167 0.68866 0.73556
 O828 O 0.76604 0.68081 0.76099
 Zr829 Zr 0.76389 0.70752 0.73472
 O830 O 0.78592 0.72756 0.75726
 Zr831 Zr 0.72232 0.74922 0.73521
 O832 O 0.74263 0.77109 0.75770
 Zr833 Zr 0.76408 0.74970 0.69361
 O834 O 0.78628 0.77149 0.71426
 Zr835 Zr 0.76544 0.75025 0.77844
 O836 O 0.74299 0.72792 0.75812
 Zr837 Zr 0.80710 0.75039 0.73690
 O838 O 0.78693 0.72840 0.71413
 Zr839 Zr 0.76546 0.79221 0.73718
 O840 O 0.74306 0.77232 0.71452
 O841 O 0.74191 0.72747 0.71286
 O842 O 0.78766 0.77253 0.75921
 C843 C 0.76601 0.69625 0.68067
 C844 C 0.71002 0.69556 0.73704
 C845 C 0.71032 0.75193 0.68132
 C846 C 0.76531 0.80385 0.79108
 C847 C 0.81913 0.75086 0.79076
 C848 C 0.81940 0.80402 0.73820
 H849 H 0.79547 0.71673 0.76722
 H850 H 0.79614 0.78135 0.70369
 H851 H 0.73172 0.71747 0.70264
 H852 H 0.73192 0.78067 0.76774
 H853 H 0.72681 0.73680 0.79903
 H854 H 0.70044 0.75571 0.77494
 H855 H 0.83032 0.76195 0.69889
 H856 H 0.80402 0.74009 0.67362
 H857 H 0.75946 0.71009 0.79925
 H858 H 0.75249 0.68308 0.77189
 H859 H 0.77709 0.81573 0.69935
 H860 H 0.75437 0.78985 0.67411
 H861 H 0.80377 0.68759 0.72448
 H862 H 0.82966 0.71176 0.74783
 H863 H 0.70277 0.78922 0.72424
 H864 H 0.72696 0.81495 0.74820
 O865 O 0.24926 0.68794 0.28200
 O866 O 0.22473 0.68095 0.24883
 O867 O 0.31140 0.71869 0.24962
 O868 O 0.32042 0.75007 0.22816
 O869 O 0.28066 0.74996 0.31283
 O870 O 0.24752 0.77462 0.31969
 O871 O 0.24830 0.78310 0.18935
 O872 O 0.27615 0.75304 0.18260
 O873 O 0.18809 0.75070 0.21736
 O874 O 0.18015 0.72400 0.25006
 O875 O 0.21602 0.81108 0.25001
 O876 O 0.24875 0.81905 0.27652
 O877 O 0.24772 0.81140 0.21808
 O878 O 0.27548 0.81786 0.25291
 O879 O 0.18765 0.78245 0.24937
 O880 O 0.18116 0.74753 0.27672
 O881 O 0.21671 0.75157 0.18895
 O882 O 0.25031 0.72390 0.18224
 O883 O 0.24796 0.71577 0.31121
 O884 O 0.22102 0.74880 0.31772
 O885 O 0.30984 0.75086 0.28497
 O886 O 0.31495 0.77953 0.25185
 O887 O 0.28358 0.68945 0.24924
 O888 O 0.25052 0.68294 0.22237
 Zr889 Zr 0.25089 0.70770 0.25049
 O890 O 0.22826 0.72797 0.22876
 Zr891 Zr 0.29166 0.75012 0.25221
 O892 O 0.27130 0.77179 0.22950
 Zr893 Zr 0.24918 0.74841 0.29299
 O894 O 0.22737 0.77096 0.27268
 Zr895 Zr 0.24881 0.75110 0.20816
 O896 O 0.27177 0.72922 0.22833
 Zr897 Zr 0.20684 0.75033 0.24951
 O898 O 0.22707 0.72751 0.27144
 Zr899 Zr 0.24815 0.79230 0.25025
 O900 O 0.27010 0.77214 0.27318
 O901 O 0.27212 0.72724 0.27340
 O902 O 0.22626 0.77291 0.22769
 C903 C 0.24794 0.69425 0.30380
 C904 C 0.30511 0.69688 0.24869
 C905 C 0.30247 0.75102 0.30651
 C906 C 0.24778 0.80469 0.19632
 C907 C 0.19497 0.75131 0.19574
 C908 C 0.19438 0.80416 0.24957
 H909 H 0.21856 0.71723 0.21890
 H910 H 0.21742 0.78057 0.28342
 H911 H 0.28229 0.71703 0.28345
 H912 H 0.28191 0.78165 0.21966
 H913 H 0.28884 0.74211 0.18790
 H914 H 0.31479 0.75772 0.21343
 H915 H 0.18306 0.76130 0.28740
 H916 H 0.20928 0.73701 0.31218
 H917 H 0.23689 0.71295 0.18488
 H918 H 0.26213 0.68862 0.21052
 H919 H 0.23744 0.81441 0.28907
 H920 H 0.25744 0.78796 0.31414
 H921 H 0.21123 0.68661 0.25852
 H922 H 0.18461 0.71165 0.23845
 H923 H 0.31042 0.78986 0.26528
 H924 H 0.28587 0.81616 0.23890
 O925 O 0.73719 0.29739 0.28205
 O926 O 0.76287 0.30428 0.24915
 O927 O 0.67486 0.26915 0.24704
 O928 O 0.66638 0.23838 0.22384
 O929 O 0.70310 0.23564 0.31016
 O930 O 0.73612 0.20949 0.31691
 O931 O 0.73749 0.20334 0.18763
 O932 O 0.70942 0.23491 0.18143
 O933 O 0.79777 0.23531 0.21639
 O934 O 0.80494 0.26218 0.25018
 O935 O 0.76901 0.17483 0.24826
 O936 O 0.73483 0.16790 0.27526
 O937 O 0.73744 0.17492 0.21625
 O938 O 0.71003 0.16776 0.24960
 O939 O 0.79758 0.20327 0.24822
 O940 O 0.80478 0.23709 0.27549
 O941 O 0.76936 0.23475 0.18768
 O942 O 0.74070 0.26179 0.18015
 O943 O 0.73698 0.26880 0.31054
 O944 O 0.76234 0.23572 0.31740
 O945 O 0.67476 0.23614 0.28135
 O946 O 0.66942 0.20874 0.24813
 O947 O 0.70343 0.29759 0.24863
 O948 O 0.73793 0.30491 0.22316
 Zr949 Zr 0.73561 0.27860 0.24980
 O950 O 0.75773 0.25819 0.22773
 Zr951 Zr 0.69389 0.23715 0.24935
 O952 O 0.71430 0.21492 0.22729
 Zr953 Zr 0.73535 0.23689 0.29137
 O954 O 0.75763 0.21475 0.27118
 Zr955 Zr 0.73732 0.23542 0.20657
 O956 O 0.71478 0.25809 0.22641
 Zr957 Zr 0.77870 0.23543 0.24849
 O958 O 0.75844 0.25779 0.27082
 Zr959 Zr 0.73689 0.19390 0.24830
 O960 O 0.71440 0.21417 0.27051
 O961 O 0.71341 0.25904 0.27166
 O962 O 0.75934 0.21320 0.22625
 C963 C 0.73787 0.29047 0.30373
 C964 C 0.68176 0.29081 0.24707
 C965 C 0.68144 0.23530 0.30308
 C966 C 0.73770 0.18169 0.19456
 C967 C 0.79102 0.23493 0.19466
 C968 C 0.79072 0.18162 0.24810
 H969 H 0.76738 0.26890 0.21777
 H970 H 0.76736 0.20494 0.28197
 H971 H 0.70327 0.26924 0.28172
 H972 H 0.70370 0.20527 0.21722
 H973 H 0.69871 0.24825 0.18539
 H974 H 0.67219 0.23007 0.20955
 H975 H 0.80165 0.22409 0.28681
 H976 H 0.77526 0.24609 0.31165
 H977 H 0.73068 0.27523 0.18518
 H978 H 0.72432 0.30267 0.21231
 H979 H 0.74784 0.17087 0.28666
 H980 H 0.72503 0.19712 0.31127
 H981 H 0.77551 0.29847 0.25988
 H982 H 0.80149 0.27383 0.23755
 H983 H 0.67424 0.19733 0.26056
 H984 H 0.69855 0.17118 0.23677
 C985 C 0.26043 0.07592 0.06368
 C986 C 0.26227 0.09217 0.07742
 C987 C 0.26385 0.11101 0.09452
 C988 C 0.27979 0.10922 0.11352
 C989 C 0.28023 0.12673 0.13105
 C990 C 0.26470 0.14609 0.12966
 C991 C 0.24898 0.14804 0.11050
 C992 C 0.24854 0.13052 0.09297
 C993 C 0.26445 0.16363 0.14816
 C994 C 0.26397 0.17832 0.16365
 H995 H 0.29160 0.09413 0.11497
 H996 H 0.29242 0.12503 0.14581
 H997 H 0.23686 0.16291 0.10928
 H998 H 0.23604 0.13200 0.07844
 C999 C 0.76302 0.57626 0.56247
 C1000 C 0.76495 0.59247 0.57623
 C1001 C 0.76662 0.61130 0.59333
 C1002 C 0.78244 0.60937 0.61242
 C1003 C 0.78294 0.62689 0.62994
 C1004 C 0.76759 0.64637 0.62845
 C1005 C 0.75198 0.64845 0.60921
 C1006 C 0.75148 0.63094 0.59169
 C1007 C 0.76739 0.66392 0.64694
 C1008 C 0.76691 0.67863 0.66241
 H1009 H 0.79410 0.59417 0.61394
 H1010 H 0.79504 0.62508 0.64477
 H1011 H 0.74001 0.66343 0.60792
 H1012 H 0.73907 0.63251 0.57710
 C1013 C 0.74366 0.92551 0.07944
 C1014 C 0.74309 0.91322 0.09690
 C1015 C 0.74293 0.89801 0.11738
 C1016 C 0.76194 0.89850 0.13341
 C1017 C 0.76254 0.88270 0.15250
 C1018 C 0.74414 0.86633 0.15563
 C1019 C 0.72496 0.86608 0.13979
 C1020 C 0.72436 0.88188 0.12070
 C1021 C 0.74539 0.84918 0.17446
 C1022 C 0.74661 0.83446 0.18990
 H1023 H 0.77645 0.91083 0.13094
 H1024 H 0.77749 0.88299 0.16459
 H1025 H 0.71068 0.85343 0.14199
 H1026 H 0.70964 0.88127 0.10835
 C1027 C 0.24346 0.42633 0.58054
 C1028 C 0.24293 0.41408 0.59803
 C1029 C 0.24279 0.39893 0.61856
 C1030 C 0.22400 0.38311 0.62218
 C1031 C 0.22457 0.36739 0.64134
 C1032 C 0.24393 0.36741 0.65695
 C1033 C 0.26256 0.38346 0.65352
 C1034 C 0.26199 0.39919 0.63436
 C1035 C 0.24513 0.35035 0.67587
 C1036 C 0.24630 0.33570 0.69139
 H1037 H 0.20913 0.38268 0.61000
 H1038 H 0.21012 0.35499 0.64377
 H1039 H 0.27765 0.38358 0.66543
 H1040 H 0.27666 0.41126 0.63166
 C1041 C 0.74735 0.06754 0.91486
 C1042 C 0.74652 0.08312 0.90026
 C1043 C 0.74596 0.10238 0.88355
 C1044 C 0.75503 0.09933 0.86065
 C1045 C 0.75539 0.11841 0.84483
 C1046 C 0.74673 0.14061 0.85185
 C1047 C 0.73752 0.14361 0.87470
 C1048 C 0.73716 0.12454 0.89052
 C1049 C 0.74745 0.16025 0.83561
 C1050 C 0.74820 0.17636 0.82160
 H1051 H 0.76200 0.08232 0.85512
 H1052 H 0.76255 0.11589 0.82719
 H1053 H 0.73077 0.16069 0.88032
 H1054 H 0.73021 0.12711 0.90823
 C1055 C 0.24623 0.56753 0.41515
 C1056 C 0.24529 0.58296 0.40040
 C1057 C 0.24464 0.60202 0.38347
 C1058 C 0.23462 0.62386 0.38981
 C1059 C 0.23494 0.64281 0.37383
 C1060 C 0.24531 0.64000 0.35146
 C1061 C 0.25517 0.61811 0.34505
 C1062 C 0.25485 0.59917 0.36103
 C1063 C 0.24604 0.65956 0.33510
 C1064 C 0.24682 0.67565 0.32108
 H1065 H 0.22679 0.62631 0.40717
 H1066 H 0.22727 0.65965 0.37897
 H1067 H 0.26323 0.61575 0.32779
 H1068 H 0.26276 0.58241 0.35600
 C1069 C 0.24639 0.91371 0.92240
 C1070 C 0.24585 0.89786 0.90807
 C1071 C 0.24484 0.87951 0.89037
 C1072 C 0.24139 0.88559 0.86653
 C1073 C 0.24006 0.86790 0.84923
 C1074 C 0.24215 0.84403 0.85567
 C1075 C 0.24565 0.83792 0.87951
 C1076 C 0.24699 0.85563 0.89683
 C1077 C 0.24067 0.82587 0.83781
 C1078 C 0.23945 0.81075 0.82275
 H1079 H 0.23967 0.90399 0.86133
 H1080 H 0.23735 0.87283 0.83086
 H1081 H 0.24730 0.81951 0.88469
 H1082 H 0.24962 0.85072 0.91521
 C1083 C 0.74759 0.41112 0.42135
 C1084 C 0.74711 0.39510 0.40723
 C1085 C 0.74622 0.37652 0.38977
 C1086 C 0.75647 0.38005 0.36744
 C1087 C 0.75487 0.36245 0.35008
 C1088 C 0.74301 0.34121 0.35496
 C1089 C 0.73289 0.33759 0.37735
 C1090 C 0.73448 0.35522 0.39472
 C1091 C 0.74108 0.32327 0.33692
 C1092 C 0.73954 0.30831 0.32175
 H1093 H 0.76550 0.39649 0.36338
 H1094 H 0.76275 0.36544 0.33283
 H1095 H 0.72367 0.32124 0.38131
 H1096 H 0.72642 0.35233 0.41189
 C1097 C 0.07840 0.25471 0.07385
 C1098 C 0.09577 0.25534 0.08634
 C1099 C 0.11618 0.25557 0.10171
 C1100 C 0.13197 0.23638 0.10175
 C1101 C 0.15107 0.23595 0.11761
 C1102 C 0.15445 0.25472 0.13350
 C1103 C 0.13884 0.27405 0.13326
 C1104 C 0.11974 0.27448 0.11740
 C1105 C 0.17340 0.25373 0.15061
 C1106 C 0.18899 0.25273 0.16525
 H1107 H 0.12932 0.22161 0.08978
 H1108 H 0.16298 0.22087 0.11769
 H1109 H 0.14124 0.28862 0.14553
 H1110 H 0.10757 0.28936 0.11761
 C1111 C 0.58090 0.75505 0.57316
 C1112 C 0.59847 0.75572 0.58535
 C1113 C 0.61909 0.75603 0.60041
 C1114 C 0.63466 0.73665 0.60060
 C1115 C 0.65392 0.73628 0.61626
 C1116 C 0.65768 0.75528 0.63180
 C1117 C 0.64230 0.77480 0.63137
 C1118 C 0.62304 0.77517 0.61571
 C1119 C 0.67667 0.75429 0.64884
 C1120 C 0.69223 0.75328 0.66349
 H1121 H 0.63170 0.72170 0.58894
 H1122 H 0.66564 0.72105 0.61652
 H1123 H 0.64499 0.78954 0.64337
 H1124 H 0.61105 0.79019 0.61578
 C1125 C 0.06327 0.74006 0.92380
 C1126 C 0.07718 0.73822 0.90768
 C1127 C 0.09443 0.73665 0.88897
 C1128 C 0.09293 0.75185 0.86940
 C1129 C 0.11056 0.75140 0.85198
 C1130 C 0.12978 0.73576 0.85407
 C1131 C 0.13113 0.72035 0.87350
 C1132 C 0.11350 0.72081 0.89092
 C1133 C 0.14833 0.73594 0.83657
 C1134 C 0.16383 0.73638 0.82188
 H1135 H 0.07835 0.76428 0.86779
 H1136 H 0.10936 0.76342 0.83705
 H1137 H 0.14594 0.70822 0.87531
 H1138 H 0.11492 0.70908 0.90606
 C1139 C 0.56329 0.23904 0.42316
 C1140 C 0.57708 0.23702 0.40697
 C1141 C 0.59419 0.23524 0.38816
 C1142 C 0.59242 0.25008 0.36834
 C1143 C 0.60995 0.24947 0.35082
 C1144 C 0.62932 0.23405 0.35308
 C1145 C 0.63093 0.21899 0.37275
 C1146 C 0.61341 0.21959 0.39027
 C1147 C 0.64779 0.23415 0.33552
 C1148 C 0.66324 0.23453 0.32078
 H1149 H 0.57772 0.26234 0.36661
 H1150 H 0.60855 0.26122 0.33570
 H1151 H 0.64586 0.20703 0.37469
 H1152 H 0.61502 0.20814 0.40561
 C1153 C 0.92239 0.75447 0.08592
 C1154 C 0.90847 0.75502 0.10214
 C1155 C 0.89134 0.75597 0.12104
 C1156 C 0.87919 0.73544 0.12789
 C1157 C 0.86184 0.73658 0.14557
 C1158 C 0.85652 0.75825 0.15646
 C1159 C 0.86879 0.77875 0.14973
 C1160 C 0.88614 0.77762 0.13205
 C1161 C 0.83837 0.75950 0.17437
 C1162 C 0.82317 0.76051 0.18937
 H1163 H 0.88298 0.71864 0.11942
 H1164 H 0.85247 0.72062 0.15062
 H1165 H 0.86483 0.79560 0.15803
 H1166 H 0.89534 0.79362 0.12683
 C1167 C 0.42220 0.25501 0.58831
 C1168 C 0.40832 0.25566 0.60455
 C1169 C 0.39123 0.25671 0.62347
 C1170 C 0.37820 0.23651 0.62962
 C1171 C 0.36086 0.23781 0.64730
 C1172 C 0.35645 0.25932 0.65888
 C1173 C 0.36961 0.27948 0.65286
 C1174 C 0.38695 0.27819 0.63518
 C1175 C 0.33829 0.26076 0.67675
 C1176 C 0.32305 0.26189 0.69169
 H1177 H 0.38128 0.21984 0.62060
 H1178 H 0.35079 0.22211 0.65181
 H1179 H 0.36635 0.29621 0.66170
 H1180 H 0.39684 0.29395 0.63050
 C1181 C 0.91612 0.25183 0.93249
 C1182 C 0.90122 0.25274 0.91715
 C1183 C 0.88408 0.25335 0.89822
 C1184 C 0.88587 0.27049 0.88033
 C1185 C 0.86991 0.27038 0.86131
 C1186 C 0.85213 0.25310 0.86008
 C1187 C 0.85026 0.23606 0.87805
 C1188 C 0.86621 0.23617 0.89706
 C1189 C 0.83571 0.25281 0.84052
 C1190 C 0.82156 0.25232 0.82448
 H1191 H 0.89972 0.28377 0.88097
 H1192 H 0.87150 0.28366 0.84754
 H1193 H 0.83656 0.22264 0.87729
 H1194 H 0.86475 0.22275 0.91070
 C1195 C 0.41440 0.75173 0.43296
 C1196 C 0.39941 0.75261 0.41773
 C1197 C 0.38219 0.75320 0.39889
 C1198 C 0.38385 0.77039 0.38105
 C1199 C 0.36788 0.77020 0.36204
 C1200 C 0.35023 0.75280 0.36079
 C1201 C 0.34847 0.73572 0.37872
 C1202 C 0.36443 0.73590 0.39772
 C1203 C 0.33387 0.75241 0.34120
 C1204 C 0.31981 0.75188 0.32509
 H1205 H 0.39761 0.78375 0.38170
 H1206 H 0.36938 0.78351 0.34829
 H1207 H 0.33487 0.72219 0.37794
 H1208 H 0.36309 0.72243 0.41134
 C1209 C 0.08697 0.07716 0.24706
 C1210 C 0.10306 0.09122 0.24656
 C1211 C 0.12180 0.10849 0.24564
 C1212 C 0.13597 0.11038 0.22533
 C1213 C 0.15351 0.12784 0.22401
 C1214 C 0.15695 0.14351 0.24296
 C1215 C 0.14289 0.14151 0.26333
 C1216 C 0.12535 0.12405 0.26466
 C1217 C 0.17473 0.16173 0.24143
 C1218 C 0.18963 0.17698 0.24014
 H1219 H 0.13331 0.09852 0.21047
 H1220 H 0.16427 0.12922 0.20817
 H1221 H 0.14539 0.15353 0.27809
 H1222 H 0.11442 0.12283 0.28040
 C1223 C 0.58861 0.57859 0.74631
 C1224 C 0.60483 0.59250 0.74560
 C1225 C 0.62372 0.60962 0.74446
 C1226 C 0.63709 0.61202 0.72367
 C1227 C 0.65477 0.62934 0.72218
 C1228 C 0.65915 0.64435 0.74147
 C1229 C 0.64590 0.64184 0.76232
 C1230 C 0.62822 0.62452 0.76381
 C1231 C 0.67707 0.66244 0.73982
 C1232 C 0.69208 0.67760 0.73850
 H1233 H 0.63370 0.60067 0.70856
 H1234 H 0.66489 0.63112 0.70597
 H1235 H 0.64913 0.65335 0.77735
 H1236 H 0.61793 0.62290 0.77993
 C1237 C 0.93361 0.08613 0.74799
 C1238 C 0.91822 0.10096 0.74718
 C1239 C 0.89919 0.11799 0.74669
 C1240 C 0.89665 0.13426 0.76526
 C1241 C 0.87746 0.14998 0.76545
 C1242 C 0.86069 0.14948 0.74710
 C1243 C 0.86331 0.13332 0.72843
 C1244 C 0.88251 0.11758 0.72825
 C1245 C 0.84095 0.16568 0.74745
 C1246 C 0.82476 0.17965 0.74802
 H1247 H 0.90935 0.13463 0.77969
 H1248 H 0.87563 0.16244 0.77994
 H1249 H 0.85047 0.13280 0.71413
 H1250 H 0.88422 0.10496 0.71388
 C1251 C 0.43229 0.58576 0.24658
 C1252 C 0.41698 0.60067 0.24580
 C1253 C 0.39802 0.61777 0.24533
 C1254 C 0.39723 0.63590 0.26226
 C1255 C 0.37813 0.65173 0.26262
 C1256 C 0.35970 0.64947 0.24608
 C1257 C 0.36057 0.63146 0.22902
 C1258 C 0.37969 0.61562 0.22866
 C1259 C 0.33997 0.66568 0.24669
 C1260 C 0.32377 0.67963 0.24747
 H1261 H 0.41123 0.63763 0.27533
 H1262 H 0.37764 0.66561 0.27587
 H1263 H 0.34643 0.62957 0.21613
 H1264 H 0.38004 0.60158 0.21558
 C1265 C 0.07377 0.92148 0.74366
 C1266 C 0.08595 0.90392 0.74308
 C1267 C 0.10103 0.88333 0.74291
 C1268 C 0.10086 0.86765 0.76217
 C1269 C 0.11657 0.84846 0.76274
 C1270 C 0.13252 0.84487 0.74405
 C1271 C 0.13246 0.86035 0.72464
 C1272 C 0.11675 0.87955 0.72407
 C1273 C 0.14962 0.82596 0.74526
 C1274 C 0.16432 0.81047 0.74644
 H1275 H 0.08887 0.87049 0.77690
 H1276 H 0.11654 0.83666 0.77789
 H1277 H 0.14479 0.85780 0.71014
 H1278 H 0.11712 0.89163 0.70915
 C1279 C 0.57292 0.41961 0.24307
 C1280 C 0.58524 0.40214 0.24251
 C1281 C 0.60047 0.38166 0.24235
 C1282 C 0.60051 0.36607 0.26169
 C1283 C 0.61631 0.34695 0.26223
 C1284 C 0.63215 0.34335 0.24345
 C1285 C 0.63188 0.35875 0.22396
 C1286 C 0.61608 0.37787 0.22342
 C1287 C 0.64927 0.32444 0.24457
 C1288 C 0.66394 0.30891 0.24566
 H1289 H 0.58860 0.36891 0.27648
 H1290 H 0.61643 0.33521 0.27742
 H1291 H 0.64411 0.35618 0.20938
 H1292 H 0.61628 0.38988 0.20844
 C1293 C 0.92351 0.93611 0.26206
 C1294 C 0.90734 0.92230 0.26399
 C1295 C 0.88862 0.90510 0.26559
 C1296 C 0.89081 0.88584 0.28112
 C1297 C 0.87343 0.86818 0.28146
 C1298 C 0.85382 0.86971 0.26626
 C1299 C 0.85146 0.88914 0.25097
 C1300 C 0.86884 0.90679 0.25062
 C1301 C 0.83645 0.85108 0.26583
 C1302 C 0.82187 0.83551 0.26513
 H1303 H 0.90612 0.88427 0.29264
 H1304 H 0.87544 0.85321 0.29332
 H1305 H 0.83638 0.89046 0.23911
 H1306 H 0.86706 0.92152 0.23843
 C1307 C 0.42315 0.43783 0.76318
 C1308 C 0.40696 0.42404 0.76519
 C1309 C 0.38818 0.40690 0.76692
 C1310 C 0.39041 0.38761 0.78241
 C1311 C 0.37296 0.37002 0.78288
 C1312 C 0.35323 0.37163 0.76784
 C1313 C 0.35083 0.39109 0.75259
 C1314 C 0.36828 0.40867 0.75212
 C1315 C 0.33580 0.35303 0.76751
 C1316 C 0.32120 0.33746 0.76689
 H1317 H 0.40581 0.38598 0.79381
 H1318 H 0.37502 0.35503 0.79470
 H1319 H 0.33566 0.39248 0.74085
 H1320 H 0.36645 0.42342 0.73996
 C1321 C 0.07602 0.25223 0.93661
 C1322 C 0.09217 0.25286 0.92266
 C1323 C 0.11087 0.25412 0.90540
 C1324 C 0.11995 0.27620 0.89868
 C1325 C 0.13730 0.27763 0.88106
 C1326 C 0.14561 0.25698 0.87008
 C1327 C 0.13665 0.23487 0.87692
 C1328 C 0.11929 0.23344 0.89455
 C1329 C 0.16321 0.25850 0.85173
 C1330 C 0.17804 0.25972 0.83643
 H1331 H 0.11345 0.29231 0.90687
 H1332 H 0.14412 0.29481 0.87590
 H1333 H 0.14297 0.21879 0.86853
 H1334 H 0.11228 0.21629 0.89953
 C1335 C 0.57670 0.75047 0.43505
 C1336 C 0.59279 0.75087 0.42100
 C1337 C 0.61147 0.75182 0.40369
 C1338 C 0.61435 0.73327 0.38744
 C1339 C 0.63176 0.73475 0.36986
 C1340 C 0.64631 0.75481 0.36844
 C1341 C 0.64355 0.77327 0.38480
 C1342 C 0.62614 0.77179 0.40238
 C1343 C 0.66396 0.75649 0.35013
 C1344 C 0.67879 0.75782 0.33483
 H1345 H 0.60300 0.71782 0.38822
 H1346 H 0.63375 0.72037 0.35730
 H1347 H 0.65471 0.78885 0.38385
 H1348 H 0.62397 0.78629 0.41477
 C1349 C 0.92745 0.75444 0.92001
 C1350 C 0.91529 0.75463 0.90241
 C1351 C 0.90023 0.75444 0.88181
 C1352 C 0.88750 0.77480 0.87545
 C1353 C 0.87179 0.77419 0.85626
 C1354 C 0.86874 0.75321 0.84335
 C1355 C 0.88172 0.73293 0.84950
 C1356 C 0.89743 0.73354 0.86870
 C1357 C 0.85166 0.75226 0.82440
 C1358 C 0.83699 0.75153 0.80886
 H1359 H 0.88945 0.79102 0.88554
 H1360 H 0.86178 0.78995 0.85170
 H1361 H 0.87943 0.71659 0.83969
 H1362 H 0.90710 0.71766 0.87354
 C1363 C 0.42601 0.25431 0.42030
 C1364 C 0.41365 0.25443 0.40284
 C1365 C 0.39838 0.25421 0.38237
 C1366 C 0.38558 0.27457 0.37611
 C1367 C 0.36974 0.27395 0.35702
 C1368 C 0.36662 0.25297 0.34411
 C1369 C 0.37964 0.23270 0.35019
 C1370 C 0.39549 0.23331 0.36928
 C1371 C 0.34944 0.25204 0.32524
 C1372 C 0.33468 0.25131 0.30977
 H1373 H 0.38760 0.29078 0.38618
 H1374 H 0.35970 0.28971 0.35253
 H1375 H 0.37730 0.21636 0.34038
 H1376 H 0.40521 0.21744 0.37404
 C1377 C 0.06839 0.75255 0.08398
 C1378 C 0.08391 0.75324 0.09868
 C1379 C 0.10300 0.75349 0.11562
 C1380 C 0.10474 0.73549 0.13262
 C1381 C 0.12386 0.73509 0.14842
 C1382 C 0.14137 0.75265 0.14724
 C1383 C 0.13959 0.77072 0.13031
 C1384 C 0.12045 0.77111 0.11450
 C1385 C 0.16087 0.75226 0.16370
 C1386 C 0.17679 0.75183 0.17798
 H1387 H 0.09143 0.72169 0.13354
 H1388 H 0.12504 0.72108 0.16150
 H1389 H 0.15299 0.78442 0.12930
 H1390 H 0.11935 0.78503 0.10131
 C1391 C 0.56887 0.25326 0.58454
 C1392 C 0.58440 0.25401 0.59923
 C1393 C 0.60350 0.25432 0.61618
 C1394 C 0.60424 0.23746 0.63438
 C1395 C 0.62336 0.23701 0.65018
 C1396 C 0.64188 0.25338 0.64782
 C1397 C 0.64109 0.27034 0.62970
 C1398 C 0.62195 0.27079 0.61389
 C1399 C 0.66145 0.25288 0.66421
 C1400 C 0.67745 0.25236 0.67841
 H1401 H 0.59014 0.22455 0.63622
 H1402 H 0.62376 0.22386 0.66417
 H1403 H 0.65528 0.28312 0.62776
 H1404 H 0.62163 0.28381 0.59979
 C1405 C 0.91242 0.24019 0.07768
 C1406 C 0.89621 0.23841 0.09148
 C1407 C 0.87728 0.23685 0.10850
 C1408 C 0.87681 0.21822 0.12491
 C1409 C 0.85912 0.21743 0.14227
 C1410 C 0.84186 0.23529 0.14329
 C1411 C 0.84221 0.25379 0.12674
 C1412 C 0.85988 0.25457 0.10939
 C1413 C 0.82402 0.23489 0.16151
 C1414 C 0.80903 0.23481 0.17673
 H1415 H 0.89024 0.20448 0.12445
 H1416 H 0.85903 0.20306 0.15499
 H1417 H 0.82896 0.26770 0.12739
 H1418 H 0.86016 0.26912 0.09687
 C1419 C 0.41337 0.74180 0.57889
 C1420 C 0.39724 0.74043 0.59283
 C1421 C 0.37838 0.73937 0.61000
 C1422 C 0.37247 0.71781 0.62079
 C1423 C 0.35482 0.71708 0.63821
 C1424 C 0.34306 0.73792 0.64492
 C1425 C 0.34886 0.75942 0.63399
 C1426 C 0.36648 0.76015 0.61659
 C1427 C 0.32517 0.73735 0.66310
 C1428 C 0.31014 0.73714 0.67829
 H1429 H 0.38162 0.70165 0.61590
 H1430 H 0.35046 0.70035 0.64653
 H1431 H 0.33987 0.77563 0.63903
 H1432 H 0.37098 0.77693 0.60843
 C1433 C 0.24692 0.08081 0.92772
 C1434 C 0.24684 0.09825 0.91539
 C1435 C 0.24712 0.11868 0.90015
 C1436 C 0.26855 0.13037 0.89557
 C1437 C 0.26911 0.14944 0.87976
 C1438 C 0.24824 0.15689 0.86846
 C1439 C 0.22676 0.14539 0.87326
 C1440 C 0.22620 0.12632 0.88908
 C1441 C 0.24901 0.17574 0.85132
 C1442 C 0.24958 0.19122 0.83661
 H1443 H 0.28484 0.12454 0.90395
 H1444 H 0.28582 0.15816 0.87610
 H1445 H 0.21054 0.15096 0.86455
 H1446 H 0.20956 0.11733 0.89241
 C1447 C 0.74776 0.57852 0.42521
 C1448 C 0.74767 0.59593 0.41284
 C1449 C 0.74795 0.61635 0.39758
 C1450 C 0.72690 0.62438 0.38703
 C1451 C 0.72742 0.64349 0.37124
 C1452 C 0.74898 0.65462 0.36594
 C1453 C 0.76998 0.64675 0.37670
 C1454 C 0.76946 0.62766 0.39248
 C1455 C 0.74967 0.67353 0.34886
 C1456 C 0.75019 0.68909 0.33423
 H1457 H 0.71019 0.61570 0.39076
 H1458 H 0.71110 0.64937 0.36295
 H1459 H 0.78676 0.65518 0.37266
 H1460 H 0.78585 0.62152 0.40046
 C1461 C 0.74511 0.06314 0.07488
 C1462 C 0.74429 0.07734 0.09081
 C1463 C 0.74282 0.09496 0.10915
 C1464 C 0.75758 0.09365 0.12911
 C1465 C 0.75635 0.11119 0.14658
 C1466 C 0.74038 0.13010 0.14412
 C1467 C 0.72558 0.13134 0.12421
 C1468 C 0.72680 0.11381 0.10676
 C1469 C 0.73930 0.14833 0.16189
 C1470 C 0.73847 0.16362 0.17675
 H1471 H 0.77006 0.07917 0.13109
 H1472 H 0.76789 0.11008 0.16192
 H1473 H 0.71319 0.14589 0.12213
 H1474 H 0.71536 0.11502 0.09136
 C1475 C 0.24596 0.56484 0.57649
 C1476 C 0.24532 0.57914 0.59234
 C1477 C 0.24406 0.59686 0.61060
 C1478 C 0.25724 0.59439 0.63152
 C1479 C 0.25609 0.61192 0.64902
 C1480 C 0.24178 0.63197 0.64562
 C1481 C 0.22857 0.63439 0.62472
 C1482 C 0.22971 0.61688 0.60725
 C1483 C 0.24073 0.65013 0.66345
 C1484 C 0.23987 0.66541 0.67834
 H1485 H 0.26841 0.57900 0.63427
 H1486 H 0.26639 0.60990 0.66512
 H1487 H 0.21747 0.64982 0.62191
 H1488 H 0.21948 0.61898 0.59111
 C1489 C 0.75922 0.92100 0.91230
 C1490 C 0.76117 0.90709 0.89620
 C1491 C 0.76298 0.88995 0.87741
 C1492 C 0.74800 0.89155 0.85762
 C1493 C 0.74887 0.87419 0.83996
 C1494 C 0.76469 0.85512 0.84201
 C1495 C 0.77983 0.85364 0.86168
 C1496 C 0.77896 0.87101 0.87934
 C1497 C 0.76509 0.83694 0.82414
 C1498 C 0.76524 0.82175 0.80912
 H1499 H 0.73549 0.90605 0.85601
 H1500 H 0.73707 0.87550 0.82484
 H1501 H 0.79212 0.83896 0.86345
 H1502 H 0.79053 0.86952 0.89463
 C1503 C 0.25773 0.42088 0.41351
 C1504 C 0.25950 0.40688 0.39747
 C1505 C 0.26108 0.38965 0.37873
 C1506 C 0.24602 0.39129 0.35902
 C1507 C 0.24671 0.37388 0.34138
 C1508 C 0.26244 0.35474 0.34339
 C1509 C 0.27766 0.35322 0.36299
 C1510 C 0.27697 0.37062 0.38063
 C1511 C 0.26270 0.33654 0.32552
 C1512 C 0.26276 0.32135 0.31050
 H1513 H 0.23358 0.40585 0.35742
 H1514 H 0.23485 0.37523 0.32632
 H1515 H 0.28989 0.33849 0.36473
 H1516 H 0.28862 0.36911 0.39585
 C1517 C 0.24703 0.91673 0.07025
 C1518 C 0.24602 0.90228 0.08594
 C1519 C 0.24537 0.88566 0.10526
 C1520 C 0.24594 0.89393 0.12868
 C1521 C 0.24614 0.87788 0.14757
 C1522 C 0.24580 0.85348 0.14310
 C1523 C 0.24506 0.84520 0.11969
 C1524 C 0.24486 0.86126 0.10080
 C1525 C 0.24648 0.83687 0.16244
 C1526 C 0.24710 0.82251 0.17824
 H1527 H 0.24641 0.91277 0.13233
 H1528 H 0.24673 0.88447 0.16559
 H1529 H 0.24480 0.82636 0.11604
 H1530 H 0.24449 0.85467 0.08277
 C1531 C 0.74867 0.41579 0.56921
 C1532 C 0.74771 0.40157 0.58512
 C1533 C 0.74714 0.38527 0.60471
 C1534 C 0.73959 0.36188 0.60135
 C1535 C 0.73959 0.34603 0.62042
 C1536 C 0.74715 0.35350 0.64288
 C1537 C 0.75456 0.37693 0.64626
 C1538 C 0.75455 0.39277 0.62721
 C1539 C 0.74773 0.33696 0.66228
 C1540 C 0.74827 0.32266 0.67813
 H1541 H 0.73385 0.35588 0.58403
 H1542 H 0.73386 0.32793 0.61761
 H1543 H 0.76048 0.38288 0.66354
 H1544 H 0.76046 0.41082 0.62998
 C1545 C 0.07959 0.08691 0.75785
 C1546 C 0.09399 0.10260 0.75967
 C1547 C 0.11180 0.12078 0.76131
 C1548 C 0.13502 0.11596 0.75386
 C1549 C 0.15238 0.13359 0.75498
 C1550 C 0.14663 0.15615 0.76356
 C1551 C 0.12343 0.16097 0.77113
 C1552 C 0.10604 0.14331 0.77000
 C1553 C 0.16445 0.17440 0.76422
 C1554 C 0.17938 0.18967 0.76453
 H1555 H 0.13967 0.09861 0.74707
 H1556 H 0.17024 0.12967 0.74904
 H1557 H 0.11877 0.17838 0.77776
 H1558 H 0.08815 0.14725 0.77578
 C1559 C 0.57940 0.58596 0.25650
 C1560 C 0.59382 0.60164 0.25806
 C1561 C 0.61165 0.61982 0.25932
 C1562 C 0.63221 0.61780 0.24553
 C1563 C 0.64966 0.63533 0.24657
 C1564 C 0.64666 0.65498 0.26143
 C1565 C 0.62612 0.65701 0.27527
 C1566 C 0.60863 0.63944 0.27422
 C1567 C 0.66455 0.67312 0.26219
 C1568 C 0.67955 0.68832 0.26254
 H1569 H 0.63473 0.60269 0.23395
 H1570 H 0.66545 0.63360 0.23578
 H1571 H 0.62360 0.67215 0.28680
 H1572 H 0.59281 0.64117 0.28497
 C1573 C 0.08267 0.93078 0.24951
 C1574 C 0.09729 0.91518 0.24888
 C1575 C 0.11410 0.89599 0.24874
 C1576 C 0.12289 0.88711 0.27023
 C1577 C 0.13860 0.86793 0.27029
 C1578 C 0.14556 0.85749 0.24887
 C1579 C 0.13680 0.86637 0.22737
 C1580 C 0.12107 0.88557 0.22731
 C1581 C 0.16217 0.83811 0.24900
 C1582 C 0.17654 0.82228 0.24924
 H1583 H 0.11752 0.89495 0.28691
 H1584 H 0.14533 0.86126 0.28701
 H1585 H 0.14214 0.85848 0.21070
 H1586 H 0.11428 0.89221 0.21060
 C1587 C 0.58424 0.43145 0.74944
 C1588 C 0.59876 0.41578 0.74882
 C1589 C 0.61551 0.39652 0.74870
 C1590 C 0.62604 0.38917 0.76998
 C1591 C 0.64170 0.36994 0.77013
 C1592 C 0.64685 0.35793 0.74903
 C1593 C 0.63635 0.36530 0.72773
 C1594 C 0.62067 0.38454 0.72757
 C1595 C 0.66339 0.33849 0.74920
 C1596 C 0.67772 0.32263 0.74945
 H1597 H 0.62207 0.39822 0.78644
 H1598 H 0.64979 0.36445 0.78668
 H1599 H 0.64029 0.35619 0.71129
 H1600 H 0.61252 0.39000 0.71105
 C1601 C 0.91922 0.07235 0.24586
 C1602 C 0.90175 0.08467 0.24548
 C1603 C 0.88128 0.09993 0.24545
 C1604 C 0.86803 0.10295 0.26624
 C1605 C 0.84896 0.11882 0.26664
 C1606 C 0.84307 0.13175 0.24627
 C1607 C 0.85612 0.12850 0.22539
 C1608 C 0.87519 0.11262 0.22498
 C1609 C 0.82423 0.14896 0.24700
 C1610 C 0.80876 0.16371 0.24757
 H1611 H 0.87266 0.09331 0.28219
 H1612 H 0.83904 0.12126 0.28290
 H1613 H 0.85176 0.13846 0.20955
 H1614 H 0.88538 0.11051 0.20885
 C1615 C 0.42072 0.57502 0.74692
 C1616 C 0.40328 0.58741 0.74673
 C1617 C 0.38284 0.60271 0.74692
 C1618 C 0.37041 0.60653 0.76807
 C1619 C 0.35132 0.62237 0.76860
 C1620 C 0.34458 0.63446 0.74797
 C1621 C 0.35682 0.63042 0.72674
 C1622 C 0.37592 0.61458 0.72622
 C1623 C 0.32566 0.65158 0.74874
 C1624 C 0.31010 0.66624 0.74931
 H1625 H 0.37568 0.59752 0.78420
 H1626 H 0.34203 0.62542 0.78512
 H1627 H 0.35180 0.63974 0.71071
 H1628 H 0.38547 0.61184 0.70979
 C1629 C 0.93651 0.92494 0.74718
 C1630 C 0.92276 0.90863 0.74650
 C1631 C 0.90577 0.88969 0.74525
 C1632 C 0.89320 0.88288 0.76555
 C1633 C 0.87584 0.86527 0.76405
 C1634 C 0.87095 0.85443 0.74224
 C1635 C 0.88366 0.86109 0.72199
 C1636 C 0.90102 0.87870 0.72350
 C1637 C 0.85274 0.83668 0.74061
 C1638 C 0.83747 0.82181 0.73937
 H1639 H 0.89665 0.89135 0.78244
 H1640 H 0.86610 0.86025 0.77981
 H1641 H 0.88001 0.85282 0.70505
 H1642 H 0.91055 0.88392 0.70767
 C1643 C 0.43481 0.42359 0.24670
 C1644 C 0.42083 0.40747 0.24619
 C1645 C 0.40356 0.38877 0.24518
 C1646 C 0.39083 0.38248 0.26553
 C1647 C 0.37321 0.36511 0.26425
 C1648 C 0.36824 0.35401 0.24260
 C1649 C 0.38110 0.36017 0.22229
 C1650 C 0.39871 0.37754 0.22357
 C1651 C 0.34987 0.33641 0.24120
 C1652 C 0.33453 0.32161 0.24015
 H1653 H 0.39436 0.39115 0.28230
 H1654 H 0.36337 0.36045 0.28006
 H1655 H 0.37739 0.35168 0.20546
 H1656 H 0.40837 0.38237 0.20770
   
