data_POSCAR
  _audit_creation_date              2014-09-24
  _audit_creation_method            'ToBaCCo'
  _symmetry_space_group_name_H-M    'P1'
  _symmetry_Int_Tables_number       1
  _symmetry_cell_setting            triclinic
  loop_
  _symmetry_equiv_pos_as_xyz
 x,y,z
_cell_length_a 65.5882
_cell_length_b 65.7180
_cell_length_c 65.7495
_cell_angle_alpha 90.018800
_cell_angle_beta 90.019200
_cell_angle_gamma 90.018300
loop_
  _atom_site_label
  _atom_site_type_symbol
  _atom_site_fract_x
  _atom_site_fract_y
  _atom_site_fract_z
O1 O 0.35312 0.38155 0.01947
 O2 O 0.38103 0.35372 -0.02041
 O3 O 0.35280 0.38164 -0.02016
 O4 O 0.38129 0.35357 0.01920
 O5 O 0.35751 0.32970 0.01926
 O6 O 0.32906 0.35774 -0.02005
 O7 O 0.35725 0.32985 -0.02030
 O8 O 0.32937 0.35765 0.01953
 Cu9 Cu 0.36946 0.37004 -0.00048
 Cu10 Cu 0.34090 0.34133 -0.00038
 C11 C 0.33652 0.37429 0.02621
 C12 C 0.37386 0.33707 -0.02705
 C13 C 0.33611 0.37442 -0.02674
 C14 C 0.37421 0.33687 0.02584
 O15 O 0.61930 0.64674 -0.02040
 O16 O 0.64701 0.61855 0.01938
 O17 O 0.61895 0.64665 0.01919
 O18 O 0.64738 0.61864 -0.02025
 O19 O 0.67124 0.64242 -0.01995
 O20 O 0.64284 0.67040 0.01946
 O21 O 0.67087 0.64234 0.01963
 O22 O 0.64320 0.67048 -0.02009
 Cu23 Cu 0.63075 0.63024 -0.00055
 Cu24 Cu 0.65945 0.65880 -0.00021
 C25 C 0.62656 0.66341 -0.02691
 C26 C 0.66363 0.62570 0.02620
 C27 C 0.62608 0.66328 0.02594
 C28 C 0.66413 0.62580 -0.02674
 O29 O 0.64683 0.38208 0.98075
 O30 O 0.61848 0.35441 1.02044
 O31 O 0.64669 0.38235 1.02037
 O32 O 0.61860 0.35413 0.98081
 O33 O 0.64236 0.33026 0.98107
 O34 O 0.67042 0.35846 1.02059
 O35 O 0.64225 0.33055 1.02066
 O36 O 0.67055 0.35817 0.98103
 Cu37 Cu 0.63025 0.37065 1.00056
 Cu38 Cu 0.65879 0.34195 1.00086
 C39 C 0.66350 0.37480 0.97423
 C40 C 0.62560 0.33780 1.02723
 C41 C 0.66331 0.37517 1.02714
 C42 C 0.62574 0.33742 0.97428
 O43 O 0.35357 0.61774 0.98043
 O44 O 0.38137 0.64588 1.02019
 O45 O 0.35343 0.61764 1.02002
 O46 O 0.38147 0.64601 0.98056
 O47 O 0.35745 0.66961 0.98058
 O48 O 0.32945 0.64128 1.01999
 O49 O 0.35735 0.66949 1.02017
 O50 O 0.32958 0.64138 0.98044
 Cu51 Cu 0.36989 0.62943 1.00030
 Cu52 Cu 0.34105 0.65783 1.00029
 C53 C 0.33685 0.62479 0.97376
 C54 C 0.37405 0.66244 1.02688
 C55 C 0.33668 0.62466 1.02664
 C56 C 0.37419 0.66261 0.97392
 O57 O -0.02043 0.38120 0.35398
 O58 O 0.01980 0.35361 0.38167
 O59 O 0.01927 0.38183 0.35380
 O60 O -0.01991 0.35291 0.38176
 O61 O -0.01958 0.32931 0.35778
 O62 O 0.01954 0.35819 0.32986
 O63 O 0.02008 0.33000 0.35769
 O64 O -0.02011 0.35757 0.33003
 Cu65 Cu -0.00035 0.36977 0.37023
 Cu66 Cu 0.00001 0.34139 0.34143
 C67 C -0.02703 0.37405 0.33731
 C68 C 0.02671 0.33713 0.37436
 C69 C 0.02599 0.37490 0.33708
 C70 C -0.02634 0.33621 0.37449
 O71 O 0.01968 0.64658 0.61820
 O72 O -0.02008 0.61875 0.64633
 O73 O -0.02003 0.64689 0.61836
 O74 O 0.01963 0.61853 0.64624
 O75 O 0.01985 0.64231 0.67004
 O76 O -0.01975 0.67062 0.64221
 O77 O -0.01981 0.64252 0.67014
 O78 O 0.01991 0.67033 0.64204
 Cu79 Cu -0.00023 0.63029 0.62988
 Cu80 Cu 0.00007 0.65884 0.65851
 C81 C 0.02649 0.66316 0.62537
 C82 C -0.02662 0.62593 0.66301
 C83 C -0.02655 0.66358 0.62558
 C84 C 0.02641 0.62564 0.66287
 O85 O 1.02029 0.61902 0.35359
 O86 O 0.98053 0.64690 0.38168
 O87 O 0.98057 0.61882 0.35362
 O88 O 1.02020 0.64706 0.38163
 O89 O 1.02005 0.67084 0.35784
 O90 O 0.98044 0.64262 0.32985
 O91 O 0.98041 0.67067 0.35788
 O92 O 1.02013 0.64283 0.32983
 Cu93 Cu 1.00040 0.63054 0.37002
 Cu94 Cu 1.00024 0.65913 0.34144
 C95 C 1.02692 0.62623 0.33696
 C96 C 0.97382 0.66354 0.37455
 C97 C 0.97384 0.62594 0.33699
 C98 C 1.02679 0.66375 0.37448
 O99 O 0.97968 0.35314 0.61812
 O100 O 1.01969 0.38092 0.64603
 O101 O 1.01939 0.35293 0.61791
 O102 O 0.97997 0.38111 0.64627
 O103 O 0.98002 0.35722 0.66996
 O104 O 1.01938 0.32908 0.64162
 O105 O 1.01968 0.35703 0.66971
 O106 O 0.97973 0.32929 0.64185
 Cu107 Cu 0.99968 0.36944 0.62969
 Cu108 Cu 0.99971 0.34075 0.65818
 C109 C 0.97298 0.33651 0.62527
 C110 C 1.02641 0.37366 0.66260
 C111 C 1.02601 0.33622 0.62496
 C112 C 0.97336 0.37392 0.66292
 O113 O 0.38184 0.02015 0.35372
 O114 O 0.35403 -0.01968 0.38172
 O115 O 0.38207 -0.01948 0.35361
 O116 O 0.35380 0.01993 0.38182
 O117 O 0.32991 0.01983 0.35808
 O118 O 0.35816 -0.01955 0.32989
 O119 O 0.33014 -0.01974 0.35797
 O120 O 0.35791 0.02004 0.33001
 Cu121 Cu 0.37035 0.00024 0.37011
 Cu122 Cu 0.34162 0.00013 0.34159
 C123 C 0.37457 0.02680 0.33712
 C124 C 0.33735 -0.02639 0.37458
 C125 C 0.37490 -0.02614 0.33696
 C126 C 0.33706 0.02650 0.37473
 O127 O 0.61769 0.02015 0.64567
 O128 O 0.64530 -0.02004 0.61798
 O129 O 0.61734 -0.01947 0.64615
 O130 O 0.64571 0.01959 0.61754
 O131 O 0.66965 0.01962 0.64124
 O132 O 0.64131 -0.01939 0.66982
 O133 O 0.66923 -0.01996 0.64168
 O134 O 0.64166 0.02019 0.66934
 Cu135 Cu 0.62909 0.00005 0.62944
 Cu136 Cu 0.65787 0.00013 0.65791
 C137 C 0.62501 0.02692 0.66221
 C138 C 0.66194 -0.02676 0.62515
 C139 C 0.62453 -0.02600 0.66284
 C140 C 0.66249 0.02617 0.62455
 O141 O 0.35377 1.02004 0.61867
 O142 O 0.38173 0.98027 0.64662
 O143 O 0.35378 0.98040 0.61845
 O144 O 0.38178 1.01992 0.64683
 O145 O 0.35782 1.01978 0.67049
 O146 O 0.32985 0.98031 0.64214
 O147 O 0.35776 0.98018 0.67027
 O148 O 0.32984 1.01990 0.64236
 Cu149 Cu 0.37019 1.00018 0.63025
 Cu150 Cu 0.34141 1.00004 0.65870
 C151 C 0.33707 1.02665 0.62579
 C152 C 0.37445 0.97352 0.66317
 C153 C 0.33708 0.97369 0.62551
 C154 C 0.37452 1.02650 0.66347
 O155 O 0.61912 0.97989 0.35290
 O156 O 0.64666 1.01985 0.38105
 O157 O 0.61872 1.01951 0.35285
 O158 O 0.64712 0.98023 0.38110
 O159 O 0.67107 0.98047 0.35743
 O160 O 0.64270 1.01972 0.32920
 O161 O 0.67061 1.02006 0.35738
 O162 O 0.64311 0.98015 0.32927
 Cu163 Cu 0.63049 0.99984 0.36936
 Cu164 Cu 0.65929 1.00012 0.34094
 C165 C 0.62645 0.97332 0.33630
 C166 C 0.66330 1.02668 0.37397
 C167 C 0.62591 1.02622 0.33624
 C168 C 0.66391 0.97376 0.37405
 C169 C 0.81830 0.79197 0.49012
 C170 C 0.81800 0.79171 0.51154
 C171 C 0.80462 0.80454 0.52208
 C172 C 0.79168 0.81775 0.51145
 C173 C 0.79204 0.81807 0.49003
 C174 C 0.80529 0.80512 0.47949
 H175 H 0.80566 0.80543 0.46300
 H176 H 0.80445 0.80443 0.53858
 C177 C 0.18201 0.20834 0.48954
 C178 C 0.18168 0.20830 0.51097
 C179 C 0.19468 0.19526 0.52171
 C180 C 0.20788 0.18214 0.51129
 C181 C 0.20815 0.18212 0.48986
 C182 C 0.19527 0.19528 0.47912
 H183 H 0.19540 0.19520 0.46262
 H184 H 0.19437 0.19515 0.53821
 C185 C 0.18240 0.79149 0.51036
 C186 C 0.18232 0.79157 0.48894
 C187 C 0.19547 0.80461 0.47837
 C188 C 0.20859 0.81768 0.48899
 C189 C 0.20866 0.81760 0.51042
 C190 C 0.19560 0.80446 0.52098
 H191 H 0.19555 0.80450 0.53748
 H192 H 0.19533 0.80478 0.46188
 C193 C 0.81800 0.20761 0.50943
 C194 C 0.81813 0.20760 0.48800
 C195 C 0.80499 0.19459 0.47735
 C196 C 0.79186 0.18150 0.48788
 C197 C 0.79178 0.18145 0.50930
 C198 C 0.80480 0.19458 0.51995
 H199 H 0.80482 0.19448 0.53645
 H200 H 0.80516 0.19450 0.46085
 C201 C 0.48866 0.81778 0.79208
 C202 C 0.51014 0.81814 0.79213
 C203 C 0.52093 0.80518 0.80516
 C204 C 0.51049 0.79198 0.81825
 C205 C 0.48902 0.79166 0.81826
 C206 C 0.47823 0.80451 0.80511
 H207 H 0.46169 0.80436 0.80519
 H208 H 0.53746 0.80553 0.80528
 C209 C 0.48900 0.18235 0.20806
 C210 C 0.51048 0.18230 0.20823
 C211 C 0.52121 0.19548 0.19536
 C212 C 0.51072 0.20857 0.18221
 C213 C 0.48924 0.20855 0.18197
 C214 C 0.47851 0.19550 0.19496
 H215 H 0.46197 0.19541 0.19472
 H216 H 0.53775 0.19538 0.19541
 C217 C 0.51134 0.18277 0.79160
 C218 C 0.48986 0.18267 0.79166
 C219 C 0.47924 0.19577 0.80470
 C220 C 0.48986 0.20885 0.81779
 C221 C 0.51134 0.20890 0.81778
 C222 C 0.52195 0.19591 0.80462
 H223 H 0.53849 0.19586 0.80468
 H224 H 0.46271 0.19562 0.80484
 C225 C 0.51099 0.81764 0.20799
 C226 C 0.48951 0.81772 0.20825
 C227 C 0.47870 0.80458 0.19539
 C228 C 0.48911 0.79149 0.18215
 C229 C 0.51059 0.79146 0.18185
 C230 C 0.52140 0.80447 0.19483
 H231 H 0.53794 0.80453 0.19452
 H232 H 0.46216 0.80472 0.19550
 C233 C 0.79213 0.48946 0.81844
 C234 C 0.79211 0.51090 0.81848
 C235 C 0.80510 0.52150 0.80531
 C236 C 0.81821 0.51093 0.79223
 C237 C 0.81828 0.48949 0.79224
 C238 C 0.80518 0.47889 0.80529
 H239 H 0.80530 0.46238 0.80539
 H240 H 0.80518 0.53801 0.80540
 C241 C 0.20798 0.48927 0.18183
 C242 C 0.20822 0.51070 0.18168
 C243 C 0.19534 0.52151 0.19479
 C244 C 0.18212 0.51114 0.20792
 C245 C 0.18183 0.48971 0.20802
 C246 C 0.19482 0.47890 0.19502
 H247 H 0.19453 0.46239 0.19501
 H248 H 0.19544 0.53802 0.19462
 C249 C 0.79128 0.51076 0.18263
 C250 C 0.79119 0.48933 0.18264
 C251 C 0.80417 0.47871 0.19580
 C252 C 0.81734 0.48927 0.20885
 C253 C 0.81745 0.51071 0.20884
 C254 C 0.80436 0.52133 0.19577
 H255 H 0.80452 0.53784 0.19566
 H256 H 0.80421 0.46220 0.19572
 C257 C 0.20778 0.51003 0.81820
 C258 C 0.20772 0.48859 0.81823
 C259 C 0.19472 0.47803 0.80503
 C260 C 0.18166 0.48863 0.79192
 C261 C 0.18168 0.51007 0.79193
 C262 C 0.19480 0.52064 0.80502
 H263 H 0.19474 0.53715 0.80512
 H264 H 0.19459 0.46152 0.80512
 C265 C 0.32554 0.38513 0.04163
 C266 C 0.31612 0.39417 0.05451
 C267 C 0.30466 0.40488 0.06978
 C268 C 0.30212 0.42597 0.06840
 C269 C 0.29057 0.43632 0.08297
 C270 C 0.28137 0.42567 0.09910
 C271 C 0.28414 0.40448 0.10043
 C272 C 0.29571 0.39417 0.08586
 C273 C 0.26870 0.43657 0.11431
 C274 C 0.25034 0.42800 0.12132
 C275 C 0.23822 0.43841 0.13537
 C276 C 0.24429 0.45749 0.14260
 C277 C 0.26258 0.46611 0.13582
 C278 C 0.27471 0.45574 0.12175
 C279 C 0.23156 0.46841 0.15666
 C280 C 0.22083 0.47775 0.16824
 H281 H 0.30892 0.43440 0.05597
 H282 H 0.28850 0.45259 0.08138
 H283 H 0.27748 0.39590 0.11282
 H284 H 0.29761 0.37784 0.08708
 H285 H 0.24516 0.41341 0.11567
 H286 H 0.22404 0.43165 0.14045
 H287 H 0.26744 0.48086 0.14137
 H288 H 0.28888 0.46262 0.11683
 C289 C 0.67454 0.61474 0.04159
 C290 C 0.68391 0.60565 0.05447
 C291 C 0.69535 0.59493 0.06975
 C292 C 0.71087 0.60493 0.08040
 C293 C 0.72227 0.59449 0.09501
 C294 C 0.71830 0.57386 0.09915
 C295 C 0.70258 0.56396 0.08843
 C296 C 0.69119 0.57445 0.07383
 C297 C 0.73070 0.56267 0.11437
 C298 C 0.73709 0.54259 0.11055
 C299 C 0.74917 0.53224 0.12467
 C300 C 0.75497 0.54178 0.14280
 C301 C 0.74858 0.56168 0.14683
 C302 C 0.73652 0.57208 0.13271
 C303 C 0.76769 0.53118 0.15712
 C304 C 0.77842 0.52207 0.16889
 H305 H 0.71426 0.62077 0.07731
 H306 H 0.73443 0.60245 0.10280
 H307 H 0.69899 0.54816 0.09145
 H308 H 0.67918 0.56657 0.06569
 H309 H 0.73310 0.53504 0.09646
 H310 H 0.75413 0.51686 0.12137
 H311 H 0.75295 0.56918 0.16085
 H312 H 0.73162 0.58742 0.13621
 C313 C 0.67469 0.38559 0.95893
 C314 C 0.68433 0.39456 0.94617
 C315 C 0.69610 0.40514 0.93105
 C316 C 0.68713 0.42046 0.91929
 C317 C 0.69867 0.43082 0.90471
 C318 C 0.71935 0.42595 0.90171
 C319 C 0.72819 0.41049 0.91360
 C320 C 0.71663 0.40017 0.92816
 C321 C 0.73171 0.43701 0.88637
 C322 C 0.74587 0.42651 0.87420
 C323 C 0.75783 0.43698 0.86006
 C324 C 0.75578 0.45805 0.85789
 C325 C 0.74162 0.46863 0.86979
 C326 C 0.72964 0.45819 0.88394
 C327 C 0.76848 0.46889 0.84375
 C328 C 0.77922 0.47812 0.83210
 H329 H 0.67122 0.42439 0.92137
 H330 H 0.69137 0.44248 0.89564
 H331 H 0.74414 0.40659 0.91186
 H332 H 0.72374 0.38838 0.93724
 H333 H 0.74761 0.41018 0.87551
 H334 H 0.76872 0.42865 0.85089
 H335 H 0.73995 0.48495 0.86824
 H336 H 0.71905 0.46673 0.89325
 C337 C 0.32586 0.61375 0.95848
 C338 C 0.31643 0.60449 0.94575
 C339 C 0.30494 0.59348 0.93070
 C340 C 0.30392 0.60065 0.91069
 C341 C 0.29237 0.59020 0.89617
 C342 C 0.28167 0.57242 0.90151
 C343 C 0.28292 0.56526 0.92165
 C344 C 0.29447 0.57574 0.93613
 C345 C 0.26903 0.56153 0.88625
 C346 C 0.26871 0.54013 0.88563
 C347 C 0.25648 0.52992 0.87152
 C348 C 0.24444 0.54094 0.85784
 C349 C 0.24474 0.56222 0.85823
 C350 C 0.25695 0.57247 0.87233
 C351 C 0.23157 0.53037 0.84362
 C352 C 0.22074 0.52129 0.83191
 H353 H 0.31200 0.61435 0.90632
 H354 H 0.29192 0.59595 0.88075
 H355 H 0.27465 0.55178 0.92630
 H356 H 0.29509 0.57010 0.95160
 H357 H 0.27802 0.53129 0.89597
 H358 H 0.25637 0.51343 0.87133
 H359 H 0.23540 0.57089 0.84776
 H360 H 0.25665 0.58894 0.87261
 C361 C 0.04221 0.32624 0.38520
 C362 C 0.05514 0.31690 0.39428
 C363 C 0.07043 0.30552 0.40507
 C364 C 0.06833 0.30201 0.42595
 C365 C 0.08289 0.29048 0.43635
 C366 C 0.09975 0.28228 0.42596
 C367 C 0.10181 0.28604 0.40499
 C368 C 0.08723 0.29759 0.39463
 C369 C 0.11492 0.26958 0.43688
 C370 C 0.12278 0.25185 0.42780
 C371 C 0.13675 0.23965 0.43823
 C372 C 0.14307 0.24501 0.45783
 C373 C 0.13546 0.26268 0.46696
 C374 C 0.12146 0.27490 0.45657
 C375 C 0.15704 0.23217 0.46874
 C376 C 0.16853 0.22134 0.47806
 H377 H 0.05533 0.30801 0.43416
 H378 H 0.08074 0.28763 0.45242
 H379 H 0.11475 0.28015 0.39663
 H380 H 0.08902 0.30024 0.37846
 H381 H 0.11784 0.24720 0.41278
 H382 H 0.14249 0.22594 0.43107
 H383 H 0.14030 0.26700 0.48211
 H384 H 0.11587 0.28857 0.46386
 C385 C 0.04184 0.67412 0.61439
 C386 C 0.05467 0.68350 0.60522
 C387 C 0.06988 0.69492 0.59436
 C388 C 0.08745 0.70163 0.60441
 C389 C 0.10200 0.71315 0.59401
 C390 C 0.09917 0.71812 0.57338
 C391 C 0.08152 0.71115 0.56337
 C392 C 0.06698 0.69965 0.57381
 C393 C 0.11438 0.73077 0.56244
 C394 C 0.11977 0.72628 0.54222
 C395 C 0.13390 0.73840 0.53188
 C396 C 0.14279 0.75514 0.54161
 C397 C 0.13757 0.75970 0.56173
 C398 C 0.12348 0.74759 0.57210
 C399 C 0.15698 0.76785 0.53084
 C400 C 0.16868 0.77859 0.52166
 H401 H 0.08985 0.69802 0.62031
 H402 H 0.11554 0.71806 0.60205
 H403 H 0.07878 0.71495 0.54758
 H404 H 0.05339 0.69459 0.56591
 H405 H 0.11321 0.71331 0.53445
 H406 H 0.13786 0.73473 0.51631
 H407 H 0.14429 0.77269 0.56935
 H408 H 0.11942 0.75161 0.58755
 C409 C 0.95864 0.67463 0.38563
 C410 C 0.94604 0.68418 0.39495
 C411 C 0.93120 0.69584 0.40606
 C412 C 0.93757 0.71156 0.41894
 C413 C 0.92320 0.72312 0.42956
 C414 C 0.90223 0.71912 0.42740
 C415 C 0.89598 0.70324 0.41445
 C416 C 0.91038 0.69168 0.40386
 C417 C 0.88698 0.73160 0.43848
 C418 C 0.86888 0.73785 0.42882
 C419 C 0.85472 0.74993 0.43915
 C420 C 0.85845 0.75590 0.45923
 C421 C 0.87634 0.74968 0.46901
 C422 C 0.89052 0.73761 0.45872
 C423 C 0.84405 0.76855 0.46980
 C424 C 0.83220 0.77921 0.47888
 H425 H 0.95364 0.71496 0.42069
 H426 H 0.92848 0.73542 0.43917
 H427 H 0.87997 0.69964 0.41267
 H428 H 0.90529 0.67953 0.39395
 H429 H 0.86585 0.73370 0.41317
 H430 H 0.84094 0.75473 0.43142
 H431 H 0.87936 0.75422 0.48457
 H432 H 0.90418 0.73284 0.46666
 C433 C 0.95757 0.32554 0.61436
 C434 C 0.94472 0.31610 0.60525
 C435 C 0.92952 0.30459 0.59445
 C436 C 0.91894 0.28899 0.60436
 C437 C 0.90449 0.27746 0.59380
 C438 C 0.90045 0.28138 0.57315
 C439 C 0.91108 0.29719 0.56336
 C440 C 0.92552 0.30871 0.57396
 C441 C 0.88542 0.26883 0.56182
 C442 C 0.88949 0.26250 0.54178
 C443 C 0.87556 0.25028 0.53130
 C444 C 0.85739 0.24426 0.54068
 C445 C 0.85311 0.25059 0.56055
 C446 C 0.86703 0.26280 0.57107
 C447 C 0.84326 0.23141 0.52996
 C448 C 0.83163 0.22058 0.52078
 H449 H 0.92198 0.28561 0.62020
 H450 H 0.89677 0.26522 0.60168
 H451 H 0.90813 0.30074 0.54755
 H452 H 0.93362 0.32078 0.56616
 H453 H 0.90361 0.26667 0.53435
 H454 H 0.87904 0.24538 0.51596
 H455 H 0.83906 0.24605 0.56792
 H456 H 0.86335 0.26764 0.58637
 C457 C 0.38542 0.04217 0.32609
 C458 C 0.39448 0.05501 0.31663
 C459 C 0.40522 0.07021 0.30512
 C460 C 0.39493 0.08750 0.29812
 C461 C 0.40524 0.10204 0.28650
 C462 C 0.42599 0.09946 0.28173
 C463 C 0.43623 0.08210 0.28897
 C464 C 0.42589 0.06757 0.30057
 C465 C 0.43683 0.11465 0.26900
 C466 C 0.45698 0.12040 0.27361
 C467 C 0.46727 0.13447 0.26141
 C468 C 0.45757 0.14296 0.24445
 C469 C 0.43751 0.13741 0.23978
 C470 C 0.42719 0.12336 0.25197
 C471 C 0.46833 0.15707 0.23166
 C472 C 0.47756 0.16871 0.22091
 H473 H 0.37894 0.08970 0.30159
 H474 H 0.39701 0.11537 0.28138
 H475 H 0.45212 0.07955 0.28533
 H476 H 0.43397 0.05420 0.30585
 H477 H 0.46473 0.11415 0.28674
 H478 H 0.48278 0.13870 0.26517
 H479 H 0.42991 0.14382 0.22663
 H480 H 0.41180 0.11903 0.24786
 C481 C 0.61419 0.04237 0.67317
 C482 C 0.60514 0.05525 0.68258
 C483 C 0.59440 0.07050 0.69406
 C484 C 0.57417 0.06718 0.69993
 C485 C 0.56388 0.08175 0.71153
 C486 C 0.57373 0.09984 0.71743
 C487 C 0.59404 0.10309 0.71132
 C488 C 0.60429 0.08850 0.69971
 C489 C 0.56298 0.11510 0.73016
 C490 C 0.57319 0.12492 0.74623
 C491 C 0.56297 0.13899 0.75848
 C492 C 0.54244 0.14345 0.75482
 C493 C 0.53217 0.13387 0.73880
 C494 C 0.54235 0.11977 0.72654
 C495 C 0.53179 0.15756 0.76772
 C496 C 0.52266 0.16917 0.77859
 H497 H 0.56641 0.05325 0.69571
 H498 H 0.54836 0.07868 0.71622
 H499 H 0.60194 0.11697 0.71541
 H500 H 0.61995 0.09123 0.69522
 H501 H 0.58897 0.12143 0.74958
 H502 H 0.57102 0.14626 0.77090
 H503 H 0.51628 0.13726 0.73581
 H504 H 0.53415 0.11265 0.71414
 C505 C 0.38530 0.95809 0.67413
 C506 C 0.39432 0.94518 0.68351
 C507 C 0.40499 0.92985 0.69493
 C508 C 0.42582 0.93205 0.69895
 C509 C 0.43610 0.91741 0.71046
 C510 C 0.42563 0.90036 0.71813
 C511 C 0.40471 0.89821 0.71386
 C512 C 0.39448 0.91287 0.70234
 C513 C 0.43641 0.88508 0.73081
 C514 C 0.42696 0.87684 0.74817
 C515 C 0.43726 0.86278 0.76037
 C516 C 0.45709 0.85676 0.75537
 C517 C 0.46657 0.86473 0.73805
 C518 C 0.45631 0.87882 0.72584
 C519 C 0.46789 0.84274 0.76824
 C520 C 0.47716 0.83123 0.77909
 H521 H 0.43408 0.94519 0.69335
 H522 H 0.45213 0.91963 0.71371
 H523 H 0.39630 0.88513 0.71933
 H524 H 0.37835 0.91100 0.69928
 H525 H 0.41177 0.88156 0.75254
 H526 H 0.42983 0.85676 0.77379
 H527 H 0.48190 0.86012 0.73402
 H528 H 0.46388 0.88469 0.71244
 C529 C 0.61564 0.95800 0.32513
 C530 C 0.60663 0.94526 0.31547
 C531 C 0.59597 0.93023 0.30363
 C532 C 0.59723 0.93066 0.28239
 C533 C 0.58690 0.91614 0.27078
 C534 C 0.57512 0.90097 0.28028
 C535 C 0.57392 0.90067 0.30165
 C536 C 0.58430 0.91521 0.31324
 C537 C 0.56408 0.88562 0.26790
 C538 C 0.57329 0.87701 0.25059
 C539 C 0.56276 0.86285 0.23869
 C540 C 0.54292 0.85709 0.24394
 C541 C 0.53366 0.86544 0.26120
 C542 C 0.54416 0.87961 0.27312
 C543 C 0.53191 0.84294 0.23138
 C544 C 0.52253 0.83129 0.22075
 H545 H 0.60616 0.94226 0.27480
 H546 H 0.58788 0.91695 0.25437
 H547 H 0.56518 0.88905 0.30940
 H548 H 0.58326 0.91472 0.32968
 H549 H 0.58870 0.88112 0.24632
 H550 H 0.57008 0.85645 0.22537
 H551 H 0.51827 0.86112 0.26535
 H552 H 0.53656 0.88614 0.28620
 C553 C 0.38478 0.32608 0.95758
 C554 C 0.39392 0.31666 0.94477
 C555 C 0.40475 0.30518 0.92960
 C556 C 0.39487 0.28950 0.91909
 C557 C 0.40546 0.27805 0.90463
 C558 C 0.42612 0.28212 0.90051
 C559 C 0.43589 0.29799 0.91109
 C560 C 0.42526 0.30944 0.92554
 C561 C 0.43746 0.26968 0.88544
 C562 C 0.45761 0.26348 0.88938
 C563 C 0.46811 0.25136 0.87540
 C564 C 0.45865 0.24533 0.85730
 C565 C 0.43868 0.25154 0.85315
 C566 C 0.42813 0.26364 0.86712
 C567 C 0.46937 0.23255 0.84313
 C568 C 0.47854 0.22178 0.83147
 H569 H 0.37902 0.28603 0.92219
 H570 H 0.39760 0.26576 0.89695
 H571 H 0.45170 0.30165 0.90808
 H572 H 0.43304 0.32156 0.93357
 H573 H 0.46512 0.26766 0.90344
 H574 H 0.48355 0.24656 0.87878
 H575 H 0.43124 0.24700 0.83915
 H576 H 0.41274 0.26839 0.86353
 C577 C 0.61568 0.67460 0.95785
 C578 C 0.60661 0.68427 0.94518
 C579 C 0.59590 0.69612 0.93021
 C580 C 0.58183 0.68682 0.91717
 C581 C 0.57135 0.69843 0.90274
 C582 C 0.57484 0.71950 0.90116
 C583 C 0.58903 0.72868 0.91434
 C584 C 0.59947 0.71706 0.92876
 C585 C 0.56367 0.73191 0.88594
 C586 C 0.57374 0.74742 0.87512
 C587 C 0.56315 0.75936 0.86107
 C588 C 0.54238 0.75596 0.85763
 C589 C 0.53224 0.74050 0.86820
 C590 C 0.54280 0.72853 0.88226
 C591 C 0.53138 0.76856 0.84352
 C592 C 0.52201 0.77920 0.83190
 H593 H 0.57897 0.67061 0.91815
 H594 H 0.56070 0.69089 0.89265
 H595 H 0.59184 0.74491 0.91370
 H596 H 0.61028 0.72442 0.93883
 H597 H 0.58985 0.75021 0.87742
 H598 H 0.57114 0.77127 0.85293
 H599 H 0.51614 0.73779 0.86568
 H600 H 0.53457 0.71690 0.89053
 C601 C 0.38489 0.67350 0.04226
 C602 C 0.39396 0.68296 0.05510
 C603 C 0.40471 0.69445 0.07034
 C604 C 0.42561 0.69818 0.06819
 C605 C 0.43598 0.70973 0.08274
 C606 C 0.42555 0.71775 0.09965
 C607 C 0.40457 0.71379 0.10174
 C608 C 0.39423 0.70222 0.08717
 C609 C 0.43645 0.73044 0.11485
 C610 C 0.42723 0.74802 0.12289
 C611 C 0.43764 0.76019 0.13691
 C612 C 0.45735 0.75494 0.14310
 C613 C 0.46662 0.73742 0.13530
 C614 C 0.45626 0.72524 0.12126
 C615 C 0.46825 0.76775 0.15712
 C616 C 0.47758 0.77855 0.16866
 H617 H 0.43385 0.69230 0.05517
 H618 H 0.45206 0.71273 0.08057
 H619 H 0.39618 0.71952 0.11471
 H620 H 0.37806 0.69939 0.08900
 H621 H 0.41213 0.75258 0.11805
 H622 H 0.43037 0.77378 0.14278
 H623 H 0.48186 0.73320 0.14004
 H624 H 0.46366 0.71168 0.11553
 C625 C 0.61459 0.32693 0.04262
 C626 C 0.60546 0.31760 0.05549
 C627 C 0.59471 0.30619 0.07077
 C628 C 0.57374 0.30275 0.06881
 C629 C 0.56340 0.29117 0.08335
 C630 C 0.57393 0.28285 0.10005
 C631 C 0.59498 0.28656 0.10197
 C632 C 0.60528 0.29816 0.08741
 C633 C 0.56308 0.27007 0.11519
 C634 C 0.57222 0.25229 0.12287
 C635 C 0.56187 0.24003 0.13682
 C636 C 0.54228 0.24538 0.14330
 C637 C 0.53310 0.26310 0.13587
 C638 C 0.54341 0.27538 0.12189
 C639 C 0.53144 0.23248 0.15726
 C640 C 0.52217 0.22160 0.16875
 H641 H 0.56543 0.30884 0.05593
 H642 H 0.54726 0.28836 0.08132
 H643 H 0.60345 0.28059 0.11478
 H644 H 0.62150 0.30077 0.08909
 H645 H 0.58723 0.24766 0.11780
 H646 H 0.56907 0.22629 0.14241
 H647 H 0.51795 0.26740 0.14084
 H648 H 0.53608 0.28909 0.11645
 C649 C 0.32604 0.04199 0.61488
 C650 C 0.31658 0.05480 0.60579
 C651 C 0.30505 0.06999 0.59503
 C652 C 0.30041 0.06728 0.57443
 C653 C 0.28879 0.08180 0.56410
 C654 C 0.28162 0.09923 0.57427
 C655 C 0.28649 0.10188 0.59494
 C656 C 0.29813 0.08735 0.60524
 C657 C 0.26889 0.11443 0.56342
 C658 C 0.25189 0.12325 0.57306
 C659 C 0.23969 0.13730 0.56274
 C660 C 0.24433 0.14276 0.54271
 C661 C 0.26127 0.13418 0.53303
 C662 C 0.27348 0.12010 0.54330
 C663 C 0.23152 0.15687 0.53196
 C664 C 0.22075 0.16850 0.52273
 H665 H 0.30562 0.05385 0.56641
 H666 H 0.28507 0.07919 0.54826
 H667 H 0.28142 0.11526 0.60312
 H668 H 0.30166 0.08961 0.62118
 H669 H 0.24780 0.11899 0.58843
 H670 H 0.22655 0.14378 0.57034
 H671 H 0.26502 0.13835 0.51753
 H672 H 0.28660 0.11377 0.53557
 C673 C 0.67358 0.04127 0.38436
 C674 C 0.68293 0.05416 0.39350
 C675 C 0.69434 0.06942 0.40430
 C676 C 0.69911 0.06664 0.42486
 C677 C 0.71069 0.08120 0.43521
 C678 C 0.71769 0.09873 0.42510
 C679 C 0.71266 0.10146 0.40447
 C680 C 0.70107 0.08689 0.39415
 C681 C 0.73046 0.11393 0.43592
 C682 C 0.74734 0.12287 0.42619
 C683 C 0.75960 0.13690 0.43649
 C684 C 0.75513 0.14221 0.45660
 C685 C 0.73832 0.13350 0.46639
 C686 C 0.72606 0.11944 0.45614
 C687 C 0.76802 0.15629 0.46733
 C688 C 0.77887 0.16789 0.47651
 H689 H 0.69405 0.05313 0.43284
 H690 H 0.71453 0.07854 0.45101
 H691 H 0.71760 0.11491 0.39634
 H692 H 0.69744 0.08920 0.37825
 H693 H 0.75130 0.11872 0.41075
 H694 H 0.77264 0.14349 0.42881
 H695 H 0.73471 0.13755 0.48195
 H696 H 0.71304 0.11300 0.46395
 C697 C 0.67281 0.95772 0.61434
 C698 C 0.68216 0.94476 0.60532
 C699 C 0.69356 0.92943 0.59463
 C700 C 0.69777 0.93178 0.57390
 C701 C 0.70934 0.91717 0.56363
 C702 C 0.71688 0.90002 0.57399
 C703 C 0.71241 0.89771 0.59480
 C704 C 0.70082 0.91233 0.60503
 C705 C 0.72967 0.88481 0.56324
 C706 C 0.74697 0.87647 0.57277
 C707 C 0.75929 0.86249 0.56250
 C708 C 0.75447 0.85663 0.54262
 C709 C 0.73721 0.86470 0.53305
 C710 C 0.72489 0.87871 0.54328
 C711 C 0.76747 0.84267 0.53188
 C712 C 0.77847 0.83120 0.52273
 H713 H 0.69229 0.94501 0.56573
 H714 H 0.71275 0.91952 0.54769
 H715 H 0.71778 0.88455 0.60312
 H716 H 0.69761 0.91035 0.62107
 H717 H 0.75121 0.88106 0.58801
 H718 H 0.77267 0.85639 0.57000
 H719 H 0.73332 0.86020 0.51768
 H720 H 0.71154 0.88467 0.53563
 C721 C 0.32632 0.95835 0.38559
 C722 C 0.31681 0.94567 0.39482
 C723 C 0.30521 0.93072 0.40582
 C724 C 0.29047 0.93694 0.41988
 C725 C 0.27892 0.92248 0.43037
 C726 C 0.28197 0.90157 0.42692
 C727 C 0.29689 0.89547 0.41280
 C728 C 0.30843 0.90996 0.40233
 C729 C 0.26947 0.88624 0.43784
 C730 C 0.26202 0.86895 0.42761
 C731 C 0.24989 0.85474 0.43780
 C732 C 0.24507 0.85761 0.45833
 C733 C 0.25251 0.87468 0.46868
 C734 C 0.26465 0.88890 0.45853
 C735 C 0.23228 0.84324 0.46876
 C736 C 0.22151 0.83144 0.47776
 H737 H 0.28779 0.95298 0.42263
 H738 H 0.26736 0.92767 0.44091
 H739 H 0.29977 0.87949 0.41000
 H740 H 0.31983 0.90499 0.39149
 H741 H 0.26524 0.86662 0.41163
 H742 H 0.24414 0.84162 0.42964
 H743 H 0.24887 0.87703 0.48458
 H744 H 0.27037 0.90189 0.46689
 C745 C 0.04184 0.38450 0.67361
 C746 C 0.05472 0.39354 0.68306
 C747 C 0.06998 0.40423 0.69460
 C748 C 0.06952 0.42549 0.69578
 C749 C 0.08404 0.43585 0.70742
 C750 C 0.09919 0.42505 0.71806
 C751 C 0.09961 0.40369 0.71663
 C752 C 0.08509 0.39337 0.70497
 C753 C 0.11430 0.43601 0.73083
 C754 C 0.11994 0.42828 0.74998
 C755 C 0.13390 0.43876 0.76217
 C756 C 0.14243 0.45705 0.75538
 C757 C 0.13701 0.46481 0.73631
 C758 C 0.12302 0.45438 0.72411
 C759 C 0.15646 0.46801 0.76813
 C760 C 0.16804 0.47731 0.77891
 H761 H 0.05783 0.43403 0.68787
 H762 H 0.08316 0.45227 0.70842
 H763 H 0.11124 0.39498 0.72442
 H764 H 0.08559 0.37691 0.70412
 H765 H 0.11328 0.41434 0.75570
 H766 H 0.13792 0.43267 0.77694
 H767 H 0.14356 0.47893 0.73089
 H768 H 0.11916 0.46058 0.70934
 C769 C 0.04232 0.61538 0.32594
 C770 C 0.05518 0.60632 0.31650
 C771 C 0.07041 0.59556 0.30502
 C772 C 0.08745 0.60592 0.29749
 C773 C 0.10202 0.59558 0.28592
 C774 C 0.09971 0.57471 0.28172
 C775 C 0.08260 0.56439 0.28950
 C776 C 0.06805 0.57477 0.30106
 C777 C 0.11491 0.56380 0.26904
 C778 C 0.12108 0.54392 0.27408
 C779 C 0.13512 0.53355 0.26190
 C780 C 0.14314 0.54289 0.24453
 C781 C 0.13719 0.56269 0.23944
 C782 C 0.12319 0.57310 0.25162
 C783 C 0.15713 0.53200 0.23170
 C784 C 0.16864 0.52267 0.22088
 H785 H 0.08944 0.62201 0.30051
 H786 H 0.11515 0.60387 0.28037
 H787 H 0.08026 0.54839 0.28632
 H788 H 0.05487 0.56662 0.30676
 H789 H 0.11518 0.53646 0.28753
 H790 H 0.13967 0.51824 0.26599
 H791 H 0.14325 0.57001 0.22598
 H792 H 0.11854 0.58827 0.24719
 C793 C 0.95747 0.38486 0.32638
 C794 C 0.94455 0.39390 0.31700
 C795 C 0.92925 0.40460 0.30556
 C796 C 0.91489 0.39373 0.29416
 C797 C 0.90034 0.40409 0.28260
 C798 C 0.89998 0.42550 0.28226
 C799 C 0.91438 0.43629 0.29391
 C800 C 0.92892 0.42589 0.30547
 C801 C 0.88487 0.43651 0.26955
 C802 C 0.87530 0.45424 0.27683
 C803 C 0.86129 0.46472 0.26470
 C804 C 0.85669 0.45763 0.24516
 C805 C 0.86608 0.43999 0.23780
 C806 C 0.88007 0.42949 0.24991
 C807 C 0.84260 0.46861 0.23251
 C808 C 0.83098 0.47790 0.22178
 H809 H 0.91499 0.37724 0.29415
 H810 H 0.88929 0.39536 0.27401
 H811 H 0.91466 0.45277 0.29377
 H812 H 0.94003 0.43445 0.31417
 H813 H 0.87850 0.45989 0.29198
 H814 H 0.85409 0.47835 0.27054
 H815 H 0.86270 0.43444 0.22265
 H816 H 0.88740 0.41607 0.24375
 C817 C 0.95809 0.61500 0.67411
 C818 C 0.94536 0.60583 0.68362
 C819 C 0.93031 0.59488 0.69517
 C820 C 0.91071 0.60293 0.69762
 C821 C 0.89621 0.59247 0.70918
 C822 C 0.90116 0.57381 0.71846
 C823 C 0.92088 0.56581 0.71580
 C824 C 0.93534 0.57629 0.70423
 C825 C 0.88593 0.56287 0.73107
 C826 C 0.88428 0.54154 0.73010
 C827 C 0.87021 0.53123 0.74229
 C828 C 0.85760 0.54209 0.75558
 C829 C 0.85903 0.56331 0.75659
 C830 C 0.87309 0.57365 0.74442
 C831 C 0.84346 0.53141 0.76843
 C832 C 0.83183 0.52225 0.77925
 H833 H 0.90665 0.61730 0.69064
 H834 H 0.88109 0.59889 0.71074
 H835 H 0.92524 0.55163 0.72296
 H836 H 0.95050 0.56998 0.70250
 H837 H 0.89377 0.53283 0.71981
 H838 H 0.86921 0.51480 0.74141
 H839 H 0.84940 0.57184 0.76691
 H840 H 0.87419 0.59003 0.74573
 C841 C 0.67470 0.61546 0.95883
 C842 C 0.68424 0.60633 0.94608
 C843 C 0.69582 0.59551 0.93095
 C844 C 0.69291 0.57459 0.92819
 C845 C 0.70443 0.56402 0.91374
 C846 C 0.71903 0.57425 0.90184
 C847 C 0.72174 0.59531 0.90466
 C848 C 0.71022 0.60584 0.91913
 C849 C 0.73153 0.56300 0.88673
 C850 C 0.73599 0.57167 0.86766
 C851 C 0.74806 0.56120 0.85359
 C852 C 0.75584 0.54197 0.85838
 C853 C 0.75142 0.53317 0.87725
 C854 C 0.73933 0.54359 0.89133
 C855 C 0.76853 0.53130 0.84405
 C856 C 0.77923 0.52218 0.83227
 H857 H 0.68177 0.56644 0.93722
 H858 H 0.70180 0.54787 0.91176
 H859 H 0.73303 0.60358 0.89595
 H860 H 0.71264 0.62202 0.92118
 H861 H 0.73000 0.58646 0.86356
 H862 H 0.75134 0.56812 0.83900
 H863 H 0.75745 0.51833 0.88115
 H864 H 0.73641 0.53662 0.90596
 C865 C 0.32552 0.38475 0.95883
 C866 C 0.31595 0.39382 0.94606
 C867 C 0.30431 0.40451 0.93087
 C868 C 0.29303 0.39361 0.91646
 C869 C 0.28137 0.40393 0.90195
 C870 C 0.28083 0.42534 0.90168
 C871 C 0.29235 0.43616 0.91615
 C872 C 0.30400 0.42580 0.93065
 C873 C 0.26811 0.43630 0.88652
 C874 C 0.27532 0.45414 0.87711
 C875 C 0.26322 0.46450 0.86297
 C876 C 0.24378 0.45719 0.85807
 C877 C 0.23649 0.43946 0.86732
 C878 C 0.24856 0.42907 0.88144
 C879 C 0.23119 0.46804 0.84380
 C880 C 0.22054 0.47725 0.83203
 H881 H 0.29320 0.37712 0.91646
 H882 H 0.27291 0.39516 0.89085
 H883 H 0.29205 0.45263 0.91651
 H884 H 0.31262 0.43440 0.94179
 H885 H 0.29038 0.45996 0.88050
 H886 H 0.26902 0.47821 0.85588
 H887 H 0.22143 0.43372 0.86372
 H888 H 0.24245 0.41556 0.88864
 C889 C 0.32620 0.61415 0.04101
 C890 C 0.31671 0.60486 0.05368
 C891 C 0.30517 0.59382 0.06868
 C892 C 0.30631 0.59932 0.08922
 C893 C 0.29479 0.58884 0.10373
 C894 C 0.28195 0.57270 0.09787
 C895 C 0.28100 0.56723 0.07720
 C896 C 0.29253 0.57773 0.06272
 C897 C 0.26939 0.56179 0.11320
 C898 C 0.26684 0.54055 0.11208
 C899 C 0.25467 0.53036 0.12626
 C900 C 0.24492 0.54124 0.14176
 C901 C 0.24745 0.56234 0.14309
 C902 C 0.25961 0.57256 0.12893
 C903 C 0.23208 0.53076 0.15608
 C904 C 0.22124 0.52179 0.16787
 H905 H 0.31607 0.61174 0.09401
 H906 H 0.29604 0.59326 0.11954
 H907 H 0.27106 0.55507 0.07216
 H908 H 0.29147 0.57339 0.04685
 H909 H 0.27437 0.53179 0.10033
 H910 H 0.25281 0.51402 0.12509
 H911 H 0.23990 0.57091 0.15498
 H912 H 0.26104 0.58893 0.13004
 C913 C 0.67375 0.38558 0.04163
 C914 C 0.68318 0.39475 0.05444
 C915 C 0.69462 0.40561 0.06967
 C916 C 0.70070 0.42572 0.06618
 C917 C 0.71219 0.43613 0.08078
 C918 C 0.71779 0.42652 0.09907
 C919 C 0.71148 0.40634 0.10249
 C920 C 0.69998 0.39597 0.08788
 C921 C 0.73039 0.43741 0.11439
 C922 C 0.74621 0.42725 0.12469
 C923 C 0.75830 0.43757 0.13885
 C924 C 0.75474 0.45816 0.14294
 C925 C 0.73898 0.46839 0.13288
 C926 C 0.72687 0.45810 0.11869
 C927 C 0.76749 0.46889 0.15717
 C928 C 0.77825 0.47804 0.16889
 H929 H 0.69669 0.43331 0.05210
 H930 H 0.71702 0.45155 0.07757
 H931 H 0.71532 0.39862 0.11652
 H932 H 0.69533 0.38041 0.09075
 H933 H 0.74948 0.41142 0.12152
 H934 H 0.77053 0.42954 0.14648
 H935 H 0.73606 0.48432 0.13597
 H936 H 0.71466 0.46628 0.11122
 C937 C 0.95900 0.67419 0.61528
 C938 C 0.94627 0.68386 0.60624
 C939 C 0.93120 0.69570 0.59559
 C940 C 0.91766 0.68630 0.58206
 C941 C 0.90306 0.69789 0.57175
 C942 C 0.90180 0.71905 0.57485
 C943 C 0.91550 0.72833 0.58848
 C944 C 0.93008 0.71672 0.59876
 C945 C 0.88635 0.73143 0.56389
 C946 C 0.87603 0.74731 0.57390
 C947 C 0.86178 0.75923 0.56350
 C948 C 0.85764 0.75544 0.54297
 C949 C 0.86770 0.73959 0.53290
 C950 C 0.88196 0.72765 0.54328
 C951 C 0.84339 0.76807 0.53213
 C952 C 0.83168 0.77878 0.52290
 H953 H 0.91836 0.67003 0.57953
 H954 H 0.89258 0.69026 0.56154
 H955 H 0.91513 0.74461 0.59098
 H956 H 0.94053 0.72417 0.60914
 H957 H 0.87885 0.75043 0.58983
 H958 H 0.85406 0.77144 0.57144
 H959 H 0.86464 0.73656 0.51699
 H960 H 0.88982 0.71571 0.53508
 C961 C 0.95934 0.32542 0.38480
 C962 C 0.94669 0.31564 0.39384
 C963 C 0.93170 0.30371 0.40449
 C964 C 0.91801 0.31307 0.41788
 C965 C 0.90345 0.30142 0.42818
 C966 C 0.90237 0.28024 0.42519
 C967 C 0.91623 0.27099 0.41171
 C968 C 0.93077 0.28266 0.40145
 C969 C 0.88693 0.26779 0.43610
 C970 C 0.87676 0.25181 0.42607
 C971 C 0.86247 0.23988 0.43640
 C972 C 0.85813 0.24376 0.45687
 C973 C 0.86806 0.25969 0.46696
 C974 C 0.88235 0.27165 0.45665
 C975 C 0.84379 0.23114 0.46762
 C976 C 0.83198 0.22047 0.47676
 H977 H 0.91855 0.32937 0.42031
 H978 H 0.89285 0.30902 0.43827
 H979 H 0.91599 0.25470 0.40930
 H980 H 0.94134 0.27525 0.39117
 H981 H 0.87973 0.24863 0.41019
 H982 H 0.85486 0.22761 0.42844
 H983 H 0.86485 0.26278 0.48283
 H984 H 0.89009 0.28367 0.46487
 C985 C 0.04037 0.32570 0.61446
 C986 C 0.05304 0.31619 0.60516
 C987 C 0.06806 0.30463 0.59414
 C988 C 0.06199 0.29149 0.57851
 C989 C 0.07650 0.27998 0.56802
 C990 C 0.09732 0.28144 0.57304
 C991 C 0.10327 0.29478 0.58871
 C992 C 0.08873 0.30629 0.59917
 C993 C 0.11270 0.26893 0.56212
 C994 C 0.12889 0.25977 0.57277
 C995 C 0.14315 0.24770 0.56255
 C996 C 0.14143 0.24464 0.54156
 C997 C 0.12546 0.25377 0.53080
 C998 C 0.11119 0.26584 0.54098
 C999 C 0.15587 0.23192 0.53107
 C1000 C 0.16776 0.22119 0.52209
 H1001 H 0.04603 0.29003 0.57454
 H1002 H 0.07139 0.26966 0.55623
 H1003 H 0.11919 0.29644 0.59275
 H1004 H 0.09360 0.31644 0.61122
 H1005 H 0.13032 0.26162 0.58908
 H1006 H 0.15540 0.24063 0.57104
 H1007 H 0.12399 0.25150 0.51454
 H1008 H 0.09907 0.27289 0.53230
 C1009 C 0.04119 0.67432 0.38490
 C1010 C 0.05387 0.68387 0.39415
 C1011 C 0.06884 0.69549 0.40519
 C1012 C 0.08965 0.69176 0.40232
 C1013 C 0.10416 0.70326 0.41286
 C1014 C 0.09804 0.71866 0.42643
 C1015 C 0.07707 0.72222 0.42926
 C1016 C 0.06259 0.71071 0.41870
 C1017 C 0.11341 0.73110 0.43744
 C1018 C 0.11035 0.73653 0.45792
 C1019 C 0.12462 0.74857 0.46815
 C1020 C 0.14215 0.75534 0.45809
 C1021 C 0.14542 0.74992 0.43776
 C1022 C 0.13116 0.73788 0.42750
 C1023 C 0.15661 0.76803 0.46859
 C1024 C 0.16847 0.77873 0.47765
 H1025 H 0.09466 0.67998 0.39193
 H1026 H 0.12017 0.69998 0.41055
 H1027 H 0.07186 0.73414 0.43937
 H1028 H 0.04652 0.71378 0.42098
 H1029 H 0.09699 0.73133 0.46608
 H1030 H 0.12195 0.75266 0.48390
 H1031 H 0.15891 0.75513 0.42981
 H1032 H 0.13383 0.73419 0.41167
 C1033 C 0.61346 0.95893 0.67412
 C1034 C 0.60420 0.94636 0.68377
 C1035 C 0.59322 0.93144 0.69549
 C1036 C 0.57840 0.93767 0.70948
 C1037 C 0.56794 0.92324 0.72111
 C1038 C 0.57218 0.90236 0.71892
 C1039 C 0.58706 0.89626 0.70476
 C1040 C 0.59750 0.91072 0.69313
 C1041 C 0.56125 0.88706 0.73149
 C1042 C 0.57176 0.87032 0.73978
 C1043 C 0.56154 0.85610 0.75187
 C1044 C 0.54071 0.85839 0.75584
 C1045 C 0.53010 0.87492 0.74760
 C1046 C 0.54028 0.88916 0.73551
 C1047 C 0.53024 0.84395 0.76855
 C1048 C 0.52126 0.83206 0.77926
 H1049 H 0.57503 0.95368 0.71149
 H1050 H 0.55678 0.92845 0.73207
 H1051 H 0.59050 0.88030 0.70254
 H1052 H 0.60893 0.90573 0.68233
 H1053 H 0.58795 0.86842 0.73720
 H1054 H 0.56991 0.84340 0.75824
 H1055 H 0.51397 0.87684 0.75058
 H1056 H 0.53171 0.90172 0.72915
 C1057 C 0.38597 0.95869 0.32583
 C1058 C 0.39525 0.94604 0.31629
 C1059 C 0.40630 0.93107 0.30471
 C1060 C 0.42077 0.93725 0.29036
 C1061 C 0.43131 0.92277 0.27886
 C1062 C 0.42748 0.90187 0.28155
 C1063 C 0.41294 0.89581 0.29609
 C1064 C 0.40244 0.91032 0.30759
 C1065 C 0.43843 0.88650 0.26908
 C1066 C 0.42806 0.86943 0.26129
 C1067 C 0.43828 0.85519 0.24921
 C1068 C 0.45898 0.85780 0.24477
 C1069 C 0.46946 0.87464 0.25255
 C1070 C 0.45928 0.88889 0.26463
 C1071 C 0.46943 0.84339 0.23200
 C1072 C 0.47840 0.83156 0.22122
 H1073 H 0.42383 0.95327 0.28795
 H1074 H 0.44218 0.92794 0.26761
 H1075 H 0.40984 0.87984 0.29871
 H1076 H 0.39129 0.90536 0.31869
 H1077 H 0.41196 0.86729 0.26422
 H1078 H 0.43000 0.84225 0.24321
 H1079 H 0.48549 0.87680 0.24921
 H1080 H 0.46776 0.90171 0.27061
 C1081 C 0.61480 0.04137 0.32511
 C1082 C 0.60547 0.05400 0.31560
 C1083 C 0.59436 0.06895 0.30406
 C1084 C 0.58036 0.06274 0.28924
 C1085 C 0.56975 0.07720 0.27781
 C1086 C 0.57302 0.09812 0.28102
 C1087 C 0.58708 0.10422 0.29601
 C1088 C 0.59767 0.08972 0.30745
 C1089 C 0.56197 0.11348 0.26864
 C1090 C 0.57209 0.13094 0.26142
 C1091 C 0.56179 0.14518 0.24942
 C1092 C 0.54125 0.14219 0.24449
 C1093 C 0.53100 0.12495 0.25170
 C1094 C 0.54127 0.11070 0.26370
 C1095 C 0.53072 0.15661 0.23182
 C1096 C 0.52168 0.16846 0.22112
 H1097 H 0.57773 0.04670 0.28644
 H1098 H 0.55925 0.07201 0.26620
 H1099 H 0.58975 0.12020 0.29902
 H1100 H 0.60845 0.09470 0.31891
 H1101 H 0.58807 0.13339 0.26473
 H1102 H 0.56988 0.15843 0.24386
 H1103 H 0.51510 0.12250 0.24798
 H1104 H 0.53298 0.09757 0.26923
 C1105 C 0.38543 0.04179 0.67463
 C1106 C 0.39453 0.05457 0.68417
 C1107 C 0.40530 0.06975 0.69575
 C1108 C 0.42573 0.07410 0.69142
 C1109 C 0.43627 0.08863 0.70288
 C1110 C 0.42648 0.09902 0.71885
 C1111 C 0.40591 0.09459 0.72303
 C1112 C 0.39541 0.08005 0.71155
 C1113 C 0.43771 0.11425 0.73126
 C1114 C 0.42816 0.13239 0.73747
 C1115 C 0.43862 0.14653 0.74948
 C1116 C 0.45874 0.14273 0.75544
 C1117 C 0.46842 0.12479 0.74925
 C1118 C 0.45800 0.11065 0.73723
 C1119 C 0.46941 0.15707 0.76811
 C1120 C 0.47855 0.16887 0.77880
 H1121 H 0.43352 0.06625 0.67919
 H1122 H 0.45201 0.09188 0.69913
 H1123 H 0.39803 0.10211 0.73539
 H1124 H 0.37962 0.07675 0.71509
 H1125 H 0.41266 0.13573 0.73291
 H1126 H 0.43100 0.16039 0.75415
 H1127 H 0.48397 0.12166 0.75387
 H1128 H 0.46569 0.09672 0.73293
 C1129 C 0.61492 0.67436 0.04110
 C1130 C 0.60557 0.68383 0.05373
 C1131 C 0.59443 0.69535 0.06868
 C1132 C 0.59907 0.69335 0.08936
 C1133 C 0.58848 0.70482 0.10383
 C1134 C 0.57309 0.71846 0.09780
 C1135 C 0.56848 0.72029 0.07697
 C1136 C 0.57909 0.70881 0.06253
 C1137 C 0.56205 0.73092 0.11311
 C1138 C 0.54094 0.73435 0.11126
 C1139 C 0.53066 0.74640 0.12546
 C1140 C 0.54129 0.75515 0.14172
 C1141 C 0.56225 0.75175 0.14377
 C1142 C 0.57257 0.73971 0.12958
 C1143 C 0.53073 0.76784 0.15610
 C1144 C 0.52171 0.77856 0.16795
 H1145 H 0.61089 0.68295 0.09429
 H1146 H 0.59221 0.70288 0.11975
 H1147 H 0.55693 0.73085 0.07180
 H1148 H 0.57543 0.71055 0.04655
 H1149 H 0.53236 0.72759 0.09891
 H1150 H 0.51443 0.74894 0.12373
 H1151 H 0.57064 0.75852 0.15626
 H1152 H 0.58885 0.73759 0.13128
 C1153 C 0.38535 0.32579 0.04101
 C1154 C 0.39467 0.31630 0.05366
 C1155 C 0.40573 0.30476 0.06865
 C1156 C 0.40082 0.30656 0.08928
 C1157 C 0.41132 0.29506 0.10379
 C1158 C 0.42690 0.28159 0.09784
 C1159 C 0.43178 0.27998 0.07705
 C1160 C 0.42125 0.29148 0.06258
 C1161 C 0.43787 0.26910 0.11318
 C1162 C 0.45902 0.26588 0.11156
 C1163 C 0.46925 0.25383 0.12581
 C1164 C 0.45851 0.24486 0.14186
 C1165 C 0.43750 0.24805 0.14368
 C1166 C 0.42723 0.26009 0.12945
 C1167 C 0.46903 0.23216 0.15627
 C1168 C 0.47806 0.22144 0.16812
 H1169 H 0.38885 0.31682 0.09415
 H1170 H 0.40738 0.29684 0.11968
 H1171 H 0.44349 0.26955 0.07195
 H1172 H 0.42512 0.28990 0.04664
 H1173 H 0.46768 0.27280 0.09938
 H1174 H 0.48552 0.25145 0.12426
 H1175 H 0.42902 0.24110 0.15600
 H1176 H 0.41091 0.26204 0.13096
 C1177 C 0.61480 0.32634 0.95896
 C1178 C 0.60569 0.31687 0.94614
 C1179 C 0.59490 0.30539 0.93090
 C1180 C 0.60473 0.29978 0.91286
 C1181 C 0.59441 0.28826 0.89823
 C1182 C 0.57408 0.28220 0.90144
 C1183 C 0.56429 0.28805 0.91957
 C1184 C 0.57465 0.29955 0.93419
 C1185 C 0.56322 0.26962 0.88610
 C1186 C 0.54258 0.27329 0.88153
 C1187 C 0.53232 0.26121 0.86732
 C1188 C 0.54253 0.24530 0.85750
 C1189 C 0.56307 0.24157 0.86186
 C1190 C 0.57337 0.25364 0.87605
 C1191 C 0.53181 0.23257 0.84324
 C1192 C 0.52266 0.22182 0.83151
 H1193 H 0.62039 0.30425 0.91014
 H1194 H 0.60228 0.28424 0.88433
 H1195 H 0.54875 0.28341 0.92262
 H1196 H 0.56691 0.30374 0.94814
 H1197 H 0.53442 0.28562 0.88882
 H1198 H 0.51643 0.26425 0.86402
 H1199 H 0.57108 0.22922 0.85442
 H1200 H 0.58916 0.25024 0.87943
 C1201 C 0.38511 0.67377 0.95865
 C1202 C 0.39421 0.68332 0.94589
 C1203 C 0.40497 0.69492 0.93074
 C1204 C 0.39478 0.71003 0.91972
 C1205 C 0.40526 0.72156 0.90523
 C1206 C 0.42612 0.71813 0.90156
 C1207 C 0.43621 0.70285 0.91267
 C1208 C 0.42569 0.69132 0.92715
 C1209 C 0.43732 0.73063 0.88640
 C1210 C 0.45722 0.73753 0.89050
 C1211 C 0.46759 0.74965 0.87641
 C1212 C 0.45825 0.75501 0.85804
 C1213 C 0.43853 0.74811 0.85375
 C1214 C 0.42812 0.73601 0.86782
 C1215 C 0.46883 0.76781 0.84376
 C1216 C 0.47787 0.77862 0.83201
 H1217 H 0.37876 0.71300 0.92243
 H1218 H 0.39712 0.73340 0.89715
 H1219 H 0.45219 0.69968 0.91003
 H1220 H 0.43373 0.67964 0.93557
 H1221 H 0.46463 0.73388 0.90476
 H1222 H 0.48282 0.75499 0.87993
 H1223 H 0.43117 0.75214 0.83955
 H1224 H 0.41293 0.73072 0.86410
 C1225 C 0.67512 0.95865 0.38513
 C1226 C 0.68470 0.94606 0.39444
 C1227 C 0.69631 0.93115 0.40554
 C1228 C 0.70980 0.93735 0.42083
 C1229 C 0.72131 0.92293 0.43144
 C1230 C 0.71949 0.90208 0.42689
 C1231 C 0.70583 0.89600 0.41153
 C1232 C 0.69432 0.91044 0.40094
 C1233 C 0.73194 0.88679 0.43799
 C1234 C 0.74075 0.87027 0.42758
 C1235 C 0.75274 0.85608 0.43798
 C1236 C 0.75607 0.85820 0.45889
 C1237 C 0.74730 0.87451 0.46940
 C1238 C 0.73531 0.88871 0.45905
 C1239 C 0.76868 0.84380 0.46956
 C1240 C 0.77929 0.83195 0.47871
 H1241 H 0.71152 0.95334 0.42446
 H1242 H 0.73189 0.92814 0.44298
 H1243 H 0.70389 0.88006 0.40785
 H1244 H 0.68390 0.90547 0.38916
 H1245 H 0.73867 0.86852 0.41134
 H1246 H 0.75952 0.84355 0.42968
 H1247 H 0.74979 0.87629 0.48560
 H1248 H 0.72853 0.90110 0.46754
 C1249 C 0.32610 0.95835 0.61448
 C1250 C 0.31672 0.94551 0.60532
 C1251 C 0.30531 0.93024 0.59449
 C1252 C 0.30084 0.93286 0.57384
 C1253 C 0.28937 0.91824 0.56343
 C1254 C 0.28218 0.90080 0.57357
 C1255 C 0.28688 0.89824 0.59430
 C1256 C 0.29837 0.91287 0.60467
 C1257 C 0.26957 0.88550 0.56266
 C1258 C 0.25255 0.87661 0.57220
 C1259 C 0.24045 0.86250 0.56182
 C1260 C 0.24520 0.85705 0.54180
 C1261 C 0.26218 0.86568 0.53222
 C1262 C 0.27429 0.87983 0.54256
 C1263 C 0.23244 0.84290 0.53098
 C1264 C 0.22165 0.83125 0.52176
 H1265 H 0.30607 0.94628 0.56582
 H1266 H 0.28578 0.92078 0.54756
 H1267 H 0.28180 0.88487 0.60247
 H1268 H 0.30178 0.91067 0.62064
 H1269 H 0.24836 0.88086 0.58755
 H1270 H 0.22729 0.85598 0.56934
 H1271 H 0.26603 0.86152 0.51675
 H1272 H 0.28743 0.88620 0.53490
 C1273 C 0.32589 0.04165 0.38581
 C1274 C 0.31633 0.05426 0.39511
 C1275 C 0.30473 0.06918 0.40620
 C1276 C 0.30809 0.08996 0.40296
 C1277 C 0.29658 0.10442 0.41353
 C1278 C 0.28155 0.09827 0.42752
 C1279 C 0.27836 0.07734 0.43072
 C1280 C 0.28987 0.06291 0.42013
 C1281 C 0.26909 0.11359 0.43856
 C1282 C 0.26409 0.11074 0.45918
 C1283 C 0.25200 0.12494 0.46943
 C1284 C 0.24476 0.14218 0.45924
 C1285 C 0.24976 0.14524 0.43878
 C1286 C 0.26185 0.13105 0.42850
 C1287 C 0.23198 0.15654 0.46974
 C1288 C 0.22117 0.16834 0.47873
 H1289 H 0.31958 0.09498 0.39224
 H1290 H 0.29957 0.12041 0.41091
 H1291 H 0.26672 0.07211 0.44116
 H1292 H 0.28709 0.04686 0.42271
 H1293 H 0.26965 0.09761 0.46743
 H1294 H 0.24823 0.12243 0.48528
 H1295 H 0.24418 0.15850 0.43074
 H1296 H 0.26520 0.13355 0.41257
 C1297 C 0.67370 0.04120 0.61334
 C1298 C 0.68329 0.05373 0.60398
 C1299 C 0.69495 0.06860 0.59286
 C1300 C 0.69151 0.08938 0.59594
 C1301 C 0.70308 0.10381 0.58539
 C1302 C 0.71827 0.09762 0.57159
 C1303 C 0.72153 0.07667 0.56854
 C1304 C 0.70995 0.06228 0.57911
 C1305 C 0.73081 0.11291 0.56060
 C1306 C 0.73602 0.10996 0.54004
 C1307 C 0.74815 0.12416 0.52984
 C1308 C 0.75523 0.14149 0.54000
 C1309 C 0.75003 0.14464 0.56040
 C1310 C 0.73790 0.13046 0.57064
 C1311 C 0.76802 0.15587 0.52952
 C1312 C 0.77881 0.16767 0.52051
 H1313 H 0.67990 0.09445 0.60651
 H1314 H 0.70003 0.11981 0.58789
 H1315 H 0.73329 0.07141 0.55825
 H1316 H 0.71281 0.04622 0.57667
 H1317 H 0.73059 0.09675 0.53181
 H1318 H 0.75207 0.12158 0.51404
 H1319 H 0.75549 0.15797 0.56843
 H1320 H 0.73437 0.13304 0.58652
 C1321 C 0.95854 0.61489 0.32596
 C1322 C 0.94576 0.60563 0.31655
 C1323 C 0.93061 0.59463 0.30513
 C1324 C 0.91099 0.60267 0.30278
 C1325 C 0.89639 0.59219 0.29134
 C1326 C 0.90123 0.57349 0.28208
 C1327 C 0.92096 0.56547 0.28466
 C1328 C 0.93553 0.57598 0.29609
 C1329 C 0.88587 0.56254 0.26957
 C1330 C 0.88420 0.54120 0.27054
 C1331 C 0.87000 0.53090 0.25846
 C1332 C 0.85727 0.54176 0.24527
 C1333 C 0.85873 0.56298 0.24426
 C1334 C 0.87291 0.57331 0.25633
 C1335 C 0.84299 0.53109 0.23252
 C1336 C 0.83123 0.52197 0.22176
 H1337 H 0.90700 0.61707 0.30975
 H1338 H 0.88128 0.59864 0.28987
 H1339 H 0.92524 0.55126 0.27751
 H1340 H 0.95069 0.56965 0.29774
 H1341 H 0.89377 0.53249 0.28075
 H1342 H 0.86899 0.51447 0.25936
 H1343 H 0.84902 0.57152 0.23403
 H1344 H 0.87401 0.58970 0.25502
 C1345 C 0.95813 0.38490 0.67410
 C1346 C 0.94541 0.39404 0.68367
 C1347 C 0.93029 0.40482 0.69534
 C1348 C 0.92988 0.42611 0.69527
 C1349 C 0.91546 0.43656 0.70695
 C1350 C 0.90125 0.42583 0.71889
 C1351 C 0.90171 0.40442 0.71872
 C1352 C 0.91614 0.39401 0.70703
 C1353 C 0.88620 0.43690 0.73165
 C1354 C 0.88153 0.43000 0.75137
 C1355 C 0.86751 0.44049 0.76346
 C1356 C 0.85795 0.45800 0.75604
 C1357 C 0.86244 0.46499 0.73644
 C1358 C 0.87648 0.45453 0.72431
 C1359 C 0.84375 0.46893 0.76865
 C1360 C 0.83204 0.47818 0.77934
 H1361 H 0.94081 0.43464 0.68633
 H1362 H 0.91567 0.45304 0.70694
 H1363 H 0.89082 0.39571 0.72752
 H1364 H 0.91628 0.37752 0.70716
 H1365 H 0.88897 0.41667 0.75757
 H1366 H 0.86423 0.43501 0.77865
 H1367 H 0.85510 0.47852 0.73053
 H1368 H 0.87955 0.46009 0.70912
 C1369 C 0.04172 0.61458 0.67387
 C1370 C 0.05450 0.60540 0.68333
 C1371 C 0.06966 0.59456 0.69487
 C1372 C 0.08636 0.60499 0.70306
 C1373 C 0.10085 0.59459 0.71470
 C1374 C 0.09882 0.57358 0.71832
 C1375 C 0.08204 0.56320 0.70989
 C1376 C 0.06757 0.57364 0.69826
 C1377 C 0.11397 0.56260 0.73104
 C1378 C 0.12049 0.54290 0.72570
 C1379 C 0.13452 0.53249 0.73786
 C1380 C 0.14223 0.54159 0.75550
 C1381 C 0.13591 0.56119 0.76091
 C1382 C 0.12189 0.57164 0.74877
 C1383 C 0.15635 0.53069 0.76823
 C1384 C 0.16800 0.52142 0.77898
 H1385 H 0.08815 0.62118 0.70051
 H1386 H 0.11372 0.60296 0.72074
 H1387 H 0.07990 0.54710 0.71261
 H1388 H 0.05466 0.56542 0.69207
 H1389 H 0.11487 0.53562 0.71202
 H1390 H 0.13933 0.51733 0.73352
 H1391 H 0.14170 0.56834 0.77460
 H1392 H 0.11697 0.58665 0.75346
 C1393 C 0.04109 0.38618 0.32603
 C1394 C 0.05368 0.39558 0.31653
 C1395 C 0.06862 0.40669 0.30495
 C1396 C 0.06238 0.42152 0.29101
 C1397 C 0.07682 0.43205 0.27944
 C1398 C 0.09775 0.42787 0.28165
 C1399 C 0.10388 0.41300 0.29579
 C1400 C 0.08940 0.40249 0.30735
 C1401 C 0.11307 0.43879 0.26908
 C1402 C 0.12985 0.42832 0.26080
 C1403 C 0.14406 0.43852 0.24865
 C1404 C 0.14170 0.45929 0.24462
 C1405 C 0.12513 0.46986 0.25286
 C1406 C 0.11091 0.45971 0.26501
 C1407 C 0.15610 0.46971 0.23181
 C1408 C 0.16795 0.47864 0.22100
 H1409 H 0.04632 0.42483 0.28896
 H1410 H 0.07158 0.44319 0.26849
 H1411 H 0.11988 0.40960 0.29803
 H1412 H 0.09442 0.39106 0.31811
 H1413 H 0.13179 0.41217 0.26340
 H1414 H 0.15679 0.43017 0.24228
 H1415 H 0.12316 0.48595 0.24983
 H1416 H 0.09831 0.46825 0.27136
   
