data_POSCAR
  _audit_creation_date              2014-09-24
  _audit_creation_method            'ToBaCCo'
  _symmetry_space_group_name_H-M    'P1'
  _symmetry_Int_Tables_number       1
  _symmetry_cell_setting            triclinic
  loop_
  _symmetry_equiv_pos_as_xyz
 x,y,z
_cell_length_a 75.1499
_cell_length_b 75.1117
_cell_length_c 75.0813
_cell_angle_alpha 90.024600
_cell_angle_beta 90.056000
_cell_angle_gamma 90.027800
loop_
  _atom_site_label
  _atom_site_type_symbol
  _atom_site_fract_x
  _atom_site_fract_y
  _atom_site_fract_z
C1 C 0.30627 0.44431 0.92189
 C2 C 0.32185 0.45157 0.92930
 C3 C 0.32998 0.44383 0.94434
 C4 C 0.32197 0.42873 0.95209
 C5 C 0.30639 0.42127 0.94489
 C6 C 0.29860 0.42923 0.92986
 H7 H 0.32784 0.46311 0.92307
 H8 H 0.32805 0.42250 0.96359
 H9 H 0.28669 0.42346 0.92413
 C10 C 0.44330 0.83138 0.44301
 C11 C 0.42830 0.82322 0.45077
 C12 C 0.42066 0.80785 0.44328
 C13 C 0.42832 0.80047 0.42790
 C14 C 0.44329 0.80829 0.41989
 C15 C 0.45074 0.82364 0.42761
 H16 H 0.42231 0.82899 0.46255
 H17 H 0.42242 0.78872 0.42197
 H18 H 0.46220 0.82974 0.42136
 C19 C 0.94287 0.92032 0.80662
 C20 C 0.95071 0.92823 0.82168
 C21 C 0.94329 0.94354 0.82958
 C22 C 0.92789 0.95102 0.82189
 C23 C 0.91984 0.94331 0.80684
 C24 C 0.92751 0.92804 0.79926
 H25 H 0.96248 0.92221 0.82742
 H26 H 0.92191 0.96273 0.82781
 H27 H 0.92130 0.92193 0.78776
 C28 C 0.44276 -0.08013 0.30704
 C29 C 0.45030 -0.07241 0.32235
 C30 C 0.44270 -0.05724 0.33023
 C31 C 0.42747 -0.04965 0.32245
 C32 C 0.41971 -0.05714 0.30714
 C33 C 0.42753 -0.07232 0.29948
 H34 H 0.46194 -0.07843 0.32834
 H35 H 0.42144 -0.03805 0.32852
 H36 H 0.42156 -0.07826 0.28778
 C37 C 0.80582 0.30515 0.32821
 C38 C 0.82126 0.29771 0.32071
 C39 C 0.82925 0.30532 0.30560
 C40 C 0.82144 0.32045 0.29784
 C41 C 0.80600 0.32811 0.30510
 C42 C 0.79824 0.32028 0.32022
 H43 H 0.82728 0.28616 0.32688
 H44 H 0.82760 0.32650 0.28630
 H45 H 0.78645 0.32619 0.32600
 C46 C -0.19261 0.83159 0.80719
 C47 C -0.17725 0.82376 0.79982
 C48 C -0.16965 0.80841 0.80733
 C49 C -0.17771 0.80067 0.82232
 C50 C -0.19307 0.80815 0.83003
 C51 C -0.20045 0.82354 0.82223
 H52 H -0.17097 0.82979 0.78833
 H53 H -0.17177 0.78890 0.82816
 H54 H -0.21222 0.82946 0.82806
 C55 C 0.94375 0.32916 0.44349
 C56 C 0.92879 0.32106 0.45127
 C57 C 0.92113 0.30572 0.44375
 C58 C 0.92876 0.29838 0.42833
 C59 C 0.94371 0.30625 0.42031
 C60 C 0.95116 0.32157 0.42807
 H61 H 0.92291 0.32690 0.46306
 H62 H 0.92284 0.28666 0.42236
 H63 H 0.96257 0.32782 0.42188
 C64 C 0.44370 0.44284 0.83051
 C65 C 0.45106 0.42747 0.82266
 C66 C 0.44354 0.41990 0.80726
 C67 C 0.42858 0.42801 0.79952
 C68 C 0.42099 0.44336 0.80704
 C69 C 0.42871 0.45072 0.82243
 H70 H 0.46251 0.42114 0.82871
 H71 H 0.42261 0.42217 0.78775
 H72 H 0.42279 0.46248 0.82830
 C73 C 0.80452 0.92246 0.94481
 C74 C 0.81966 0.93038 0.95245
 C75 C 0.82755 0.94550 0.94474
 C76 C 0.81993 0.95283 0.92929
 C77 C 0.80479 0.94512 0.92141
 C78 C 0.79713 0.93001 0.92936
 H79 H 0.82554 0.92454 0.96425
 H80 H 0.82602 0.96435 0.92316
 H81 H 0.78557 0.92389 0.92328
 C82 C 0.30749 0.83070 0.30694
 C83 C 0.32283 0.82284 0.29954
 C84 C 0.33037 0.80743 0.30702
 C85 C 0.32226 0.79968 0.32198
 C86 C 0.30695 0.80720 0.32960
 C87 C 0.29962 0.82261 0.32193
 H88 H 0.32915 0.82889 0.28808
 H89 H 0.32807 0.78790 0.32790
 H90 H 0.28789 0.82848 0.32789
 C91 C 0.80680 0.42129 0.44436
 C92 C 0.82231 0.42887 0.45160
 C93 C 0.83026 0.44400 0.44385
 C94 C 0.82214 0.45165 0.42875
 C95 C 0.80663 0.44428 0.42129
 C96 C 0.79902 0.42917 0.42927
 H97 H 0.82838 0.42272 0.46315
 H98 H 0.82808 0.46321 0.42252
 H99 H 0.78717 0.42332 0.42351
 C100 C 0.94463 0.82894 -0.05568
 C101 C 0.92949 0.82088 -0.04809
 C102 C 0.92171 0.80569 -0.05580
 C103 C 0.92939 0.79836 -0.07120
 C104 C 0.94450 0.80610 -0.07903
 C105 C 0.95209 0.82127 -0.07111
 H106 H 0.92349 0.82661 -0.03631
 H107 H 0.92337 0.78677 -0.07731
 H108 H 0.96365 0.82731 -0.07722
 C109 C 0.30575 0.32808 0.80532
 C110 C 0.29796 0.32014 0.82036
 C111 C 0.30559 0.30503 0.82833
 C112 C 0.32111 0.29771 0.82088
 C113 C 0.32914 0.30543 0.80584
 C114 C 0.32127 0.32054 0.79810
 H115 H 0.28611 0.32596 0.82611
 H116 H 0.32718 0.28618 0.82703
 H117 H 0.32745 0.32668 0.78662
 C118 C 0.17102 0.55654 0.55650
 C119 C 0.17868 0.54900 0.57183
 C120 C 0.19366 0.55676 0.57995
 C121 C 0.20111 0.57218 0.57238
 C122 C 0.19367 0.57995 0.55707
 C123 C 0.17869 0.57196 0.54918
 H124 H 0.17277 0.53722 0.57766
 H125 H 0.21254 0.57834 0.57864
 H126 H 0.17278 0.57794 0.53747
 C127 C 0.57918 0.69402 0.05554
 C128 C 0.57134 0.70179 0.07066
 C129 C 0.55586 0.69454 0.07826
 C130 C 0.54809 0.67943 0.07038
 C131 C 0.55570 0.67144 0.05526
 C132 C 0.57118 0.67892 0.04788
 H133 H 0.57750 0.71332 0.07674
 H134 H 0.53627 0.67366 0.07624
 H135 H 0.57722 0.67276 0.03635
 C136 C 0.69422 0.19393 0.67100
 C137 C 0.67918 0.20160 0.67902
 C138 C 0.67171 0.19423 0.69450
 C139 C 0.67964 0.17908 0.70210
 C140 C 0.69471 0.17108 0.69432
 C141 C 0.70195 0.17878 0.67882
 H142 H 0.67305 0.21316 0.67298
 H143 H 0.67380 0.17332 0.71395
 H144 H 0.71346 0.17278 0.67256
 C145 C 1.07838 0.05510 0.19362
 C146 C 1.07043 0.07018 0.20130
 C147 C 1.05538 0.07812 0.19354
 C148 C 1.04815 0.07063 0.17796
 C149 C 1.05588 0.05553 0.16994
 C150 C 1.07094 0.04781 0.17805
 H151 H 1.07617 0.07596 0.21320
 H152 H 1.03664 0.07683 0.17190
 H153 H 1.07716 0.03628 0.17205
 C154 C 0.05653 0.17012 1.05676
 C155 C 0.04886 0.17818 1.07180
 C156 C 0.05643 0.19352 1.07954
 C157 C 0.07179 0.20088 1.07168
 C158 C 0.07965 0.19303 1.05662
 C159 C 0.07185 0.17772 1.04922
 H160 H 0.03712 0.17225 1.07768
 H161 H 0.07787 0.21261 1.07747
 H162 H 0.07792 0.17150 1.03773
 C163 C 0.17098 0.69375 0.69399
 C164 C 0.17863 0.67835 0.70135
 C165 C 0.19363 0.67037 0.69354
 C166 C 0.20111 0.67815 0.67826
 C167 C 0.19368 0.69355 0.67065
 C168 C 0.17868 0.70130 0.67869
 H169 H 0.17268 0.67236 0.71304
 H170 H 0.21256 0.67199 0.67206
 H171 H 0.17278 0.71307 0.67284
 C172 C 1.19505 0.17168 0.19457
 C173 C 1.17995 0.17954 0.20232
 C174 C 1.17202 0.19470 0.19474
 C175 C 1.17956 0.20214 0.17931
 C176 C 1.19465 0.19451 0.17133
 C177 C 1.20236 0.17936 0.17915
 H178 H 1.17413 0.17362 0.21409
 H179 H 1.17343 0.21370 0.17328
 H180 H 1.21388 0.17329 0.17300
 C181 C 0.67086 1.05679 0.55542
 C182 C 0.67887 1.04898 0.57048
 C183 C 0.69402 1.05656 0.57843
 C184 C 0.70139 1.07206 0.57100
 C185 C 0.69372 1.08021 0.55594
 C186 C 0.67854 1.07232 0.54820
 H187 H 0.67313 1.03711 0.57630
 H188 H 0.71298 1.07796 0.57722
 H189 H 0.67246 1.07849 0.53667
 C190 C 0.55601 0.55530 0.17172
 C191 C 0.54826 0.57040 0.17961
 C192 C 0.55591 0.57839 0.19472
 C193 C 0.57141 0.57093 0.20208
 C194 C 0.57939 0.55583 0.19442
 C195 C 0.57151 0.54806 0.17931
 H196 H 0.53642 0.57616 0.17376
 H197 H 0.57749 0.57709 0.21362
 H198 H 0.57765 0.53654 0.17322
 C199 C 0.67083 0.69340 0.19311
 C200 C 0.67841 0.70092 0.17774
 C201 C 0.69335 0.69317 0.16959
 C202 C 0.70085 0.67778 0.17716
 C203 C 0.69350 0.67003 0.19252
 C204 C 0.67855 0.67802 0.20044
 H205 H 0.67245 0.71268 0.17191
 H206 H 0.71226 0.67163 0.17088
 H207 H 0.67272 0.67205 0.21218
 C208 C 0.16925 0.05637 1.05605
 C209 C 0.17737 0.04846 1.07101
 C210 C 0.19273 0.05585 1.07874
 C211 C 0.20017 0.07126 1.07120
 C212 C 0.19238 0.07940 1.05627
 C213 C 0.17702 0.07179 1.04873
 H214 H 0.17156 0.03666 1.07691
 H215 H 0.21191 0.07713 1.07717
 H216 H 0.17094 0.07814 1.03731
 C217 C 0.57847 0.19541 0.55500
 C218 C 0.57061 0.20313 0.57013
 C219 C 0.55516 0.19582 0.57772
 C220 C 0.54742 0.18072 0.56980
 C221 C 0.55504 0.17278 0.55468
 C222 C 0.57050 0.18031 0.54731
 H223 H 0.57676 0.21465 0.57624
 H224 H 0.53562 0.17490 0.57566
 H225 H 0.57656 0.17417 0.53577
 C226 C 0.07927 0.55594 0.69457
 C227 C 0.07126 0.57106 0.70216
 C228 C 0.05580 0.57852 0.69471
 C229 C 0.04822 0.57050 0.67958
 C230 C 0.05599 0.55538 0.67176
 C231 C 0.07145 0.54815 0.67944
 H232 H 0.07728 0.57725 0.71371
 H233 H 0.03640 0.57625 0.67367
 H234 H 0.07761 0.53661 0.67340
 C235 C 0.67132 0.55633 0.05585
 C236 C 0.67902 0.57167 0.04841
 C237 C 0.69404 0.57968 0.05621
 C238 C 0.70149 0.57198 0.07157
 C239 C 0.69401 0.55663 0.07924
 C240 C 0.67899 0.54886 0.07120
 H241 H 0.67310 0.57760 0.03667
 H242 H 0.71295 0.57814 0.07776
 H243 H 0.67305 0.53714 0.07711
 C244 C 0.05597 0.69458 0.57833
 C245 C 0.07147 0.70184 0.57076
 C246 C 0.07936 0.69407 0.55567
 C247 C 0.07139 0.67895 0.54802
 C248 C 0.05590 0.67147 0.55535
 C249 C 0.04825 0.67946 0.57044
 H250 H 0.07761 0.71338 0.57685
 H251 H 0.07747 0.67278 0.53649
 H252 H 0.03640 0.67369 0.57627
 C253 C 0.55469 1.05532 0.67164
 C254 C 0.56985 1.04776 0.67967
 C255 C 0.57754 1.05535 0.69496
 C256 C 0.56973 1.07060 0.70245
 C257 C 0.55456 1.07850 0.69476
 C258 C 0.54708 1.07060 0.67945
 H259 H 0.57597 1.03610 0.67382
 H260 H 0.57575 1.07652 0.71415
 H261 H 0.53546 1.07658 0.67336
 C262 C 0.44373 0.32896 0.94383
 C263 C 0.45128 0.32132 0.92849
 C264 C 0.44390 0.30596 0.92074
 C265 C 0.42890 0.29810 0.92867
 C266 C 0.42113 0.30550 0.94400
 C267 C 0.42873 0.32087 0.95153
 H268 H 0.46273 0.32756 0.92237
 H269 H 0.42303 0.28636 0.92270
 H270 H 0.42274 0.32676 0.96324
 C271 C 0.94366 0.44266 0.33047
 C272 C 0.92871 0.45055 0.32234
 C273 C 0.92111 0.44325 0.30686
 C274 C 0.92877 0.42795 0.29932
 C275 C 0.94370 0.41983 0.30712
 C276 C 0.95111 0.42735 0.32259
 H277 H 0.92272 0.46226 0.32822
 H278 H 0.92290 0.42215 0.28748
 H279 H 0.96254 0.42102 0.32868
 C280 C 0.30677 0.94387 0.42029
 C281 C 0.29903 0.92894 0.42849
 C282 C 0.30657 0.92141 0.44388
 C283 C 0.32195 0.92916 0.45119
 C284 C 0.32992 0.94410 0.44323
 C285 C 0.32215 0.95141 0.42784
 H286 H 0.28727 0.92296 0.42268
 H287 H 0.32793 0.92335 0.46295
 H288 H 0.32830 0.96281 0.42152
 O289 O 0.29756 0.49895 0.77354
 O290 O 0.29183 0.52938 0.77109
 O291 O 0.25095 0.47743 0.79796
 O292 O 0.22161 0.47690 0.79268
 O293 O 0.27296 0.45248 0.75125
 O294 O 0.27166 0.45908 0.72022
 O295 O 0.20365 0.52334 0.74957
 O296 O 0.20868 0.51987 0.77985
 O297 O 0.24878 0.54650 0.72745
 O298 O 0.28084 0.54037 0.72867
 O299 O 0.22716 0.50130 0.70386
 O300 O 0.22807 0.46943 0.70999
 O301 O 0.20360 0.50191 0.72808
 O302 O 0.21007 0.46893 0.72980
 O303 O 0.24868 0.52260 0.70372
 O304 O 0.28142 0.52067 0.71047
 O305 O 0.22710 0.54642 0.74858
 O306 O 0.23303 0.54067 0.78081
 O307 O 0.29770 0.47779 0.75173
 O308 O 0.29103 0.47925 0.72011
 O309 O 0.25156 0.45236 0.77268
 O310 O 0.21942 0.45961 0.76990
 O311 O 0.27272 0.49853 0.79789
 O312 O 0.26874 0.53060 0.79086
 Zr313 Zr 0.27173 0.50963 0.77214
 O314 O 0.25623 0.52669 0.75620
 Zr315 Zr 0.24056 0.47815 0.77193
 O316 O 0.22352 0.49418 0.75648
 Zr317 Zr 0.27187 0.47840 0.74069
 O318 O 0.25600 0.49397 0.72359
 Zr319 Zr 0.22922 0.52123 0.76063
 O320 O 0.24464 0.50525 0.77800
 Zr321 Zr 0.26034 0.52104 0.72915
 O322 O 0.27760 0.50545 0.74501
 Zr323 Zr 0.22893 0.48988 0.72938
 O324 O 0.24481 0.47239 0.74482
 O325 O 0.26743 0.48265 0.76762
 O326 O 0.23332 0.51690 0.73352
 C327 C 0.30518 0.48665 0.76438
 C328 C 0.26354 0.48626 0.80550
 C329 C 0.26398 0.44484 0.76364
 C330 C 0.19622 0.51467 0.73681
 C331 C 0.23587 0.55384 0.73592
 C332 C 0.23587 0.51397 0.69638
 H333 H 0.25906 0.53922 0.75912
 H334 H 0.25883 0.49100 0.71109
 H335 H 0.27501 0.47504 0.77524
 H336 H 0.21100 0.49153 0.75950
 H337 H 0.21433 0.51606 0.79114
 H338 H 0.21242 0.48590 0.78998
 H339 H 0.27938 0.51057 0.70226
 H340 H 0.29710 0.49090 0.72111
 H341 H 0.22289 0.54910 0.78029
 H342 H 0.27822 0.52953 0.80001
 H343 H 0.23926 0.47002 0.70308
 H344 H 0.25971 0.45352 0.72046
 H345 H 0.29685 0.52904 0.75892
 H346 H 0.27984 0.54758 0.73964
 H347 H 0.22148 0.45260 0.75892
 H348 H 0.20178 0.47116 0.73978
 O349 O 0.22658 0.00034 0.20223
 O350 O 0.22912 -0.03006 0.20806
 O351 O 0.20222 0.02193 0.24886
 O352 O 0.20752 0.02250 0.27822
 O353 O 0.24876 0.04697 0.22672
 O354 O 0.27978 0.04045 0.22792
 O355 O 0.25083 -0.02368 0.29624
 O356 O 0.22054 -0.02037 0.29127
 O357 O 0.27295 -0.04689 0.25112
 O358 O 0.27160 -0.04089 0.21901
 O359 O 0.29633 -0.00157 0.27257
 O360 O 0.29008 0.03032 0.27151
 O361 O 0.27222 -0.00217 0.29617
 O362 O 0.27037 0.03076 0.28963
 O363 O 0.29653 -0.02292 0.25109
 O364 O 0.28969 -0.02109 0.21830
 O365 O 0.25188 -0.04684 0.27286
 O366 O 0.21963 -0.04126 0.26696
 O367 O 0.24828 0.02159 0.20200
 O368 O 0.27988 0.02025 0.20859
 O369 O 0.22740 0.04707 0.24819
 O370 O 0.23022 0.03988 0.28035
 O371 O 0.20229 0.00077 0.22713
 O372 O 0.20943 -0.03127 0.23123
 Zr373 Zr 0.22806 -0.01025 0.22812
 O374 O 0.24409 -0.02723 0.24364
 Zr375 Zr 0.22824 0.02130 0.25923
 O376 O 0.24377 0.00537 0.27629
 Zr377 Zr 0.25937 0.02107 0.22782
 O378 O 0.27655 0.00561 0.24371
 Zr379 Zr 0.23971 -0.02171 0.27067
 O380 O 0.22226 -0.00583 0.25523
 Zr381 Zr 0.27109 -0.02149 0.23946
 O382 O 0.25514 -0.00601 0.22217
 Zr383 Zr 0.27081 0.00978 0.27080
 O384 O 0.25528 0.02716 0.25489
 O385 O 0.23250 0.01675 0.23234
 O386 O 0.26676 -0.01727 0.26649
 C387 C 0.23567 0.01266 0.19455
 C388 C 0.19468 0.01306 0.23629
 C389 C 0.23640 0.05460 0.23573
 C390 C 0.26357 -0.01494 0.30361
 C391 C 0.26456 -0.05422 0.26410
 C392 C 0.30383 -0.01424 0.26389
 H393 H 0.24122 -0.03977 0.24086
 H394 H 0.28903 0.00863 0.24084
 H395 H 0.22485 0.02433 0.22475
 H396 H 0.24076 0.00805 0.28882
 H397 H 0.20923 -0.01663 0.28561
 H398 H 0.21028 0.01353 0.28745
 H399 H 0.29789 -0.01098 0.22032
 H400 H 0.27892 0.00857 0.20255
 H401 H 0.22022 -0.04965 0.27714
 H402 H 0.20025 -0.03026 0.22177
 H403 H 0.29706 0.02963 0.26037
 H404 H 0.27958 0.04602 0.23987
 H405 H 0.24128 -0.02972 0.20303
 H406 H 0.26067 -0.04815 0.22007
 H407 H 0.24117 0.04691 0.27827
 H408 H 0.26041 0.02853 0.29794
 O409 O 0.54760 0.72693 0.24905
 O410 O 0.54188 0.72950 0.27949
 O411 O 0.50094 0.70244 0.22761
 O412 O 0.47161 0.70770 0.22707
 O413 O 0.52301 0.74901 0.20250
 O414 O 0.52175 0.78006 0.20900
 O415 O 0.45374 0.75104 0.27339
 O416 O 0.45870 0.72073 0.27002
 O417 O 0.49888 0.77325 0.29646
 O418 O 0.53094 0.77197 0.29036
 O419 O 0.47729 0.79658 0.25116
 O420 O 0.47821 0.79029 0.21927
 O421 O 0.45372 0.77243 0.25188
 O422 O 0.46013 0.77051 0.21889
 O423 O 0.49880 0.79682 0.27248
 O424 O 0.53157 0.79007 0.27055
 O425 O 0.47717 0.75213 0.29646
 O426 O 0.48306 0.71987 0.29084
 O427 O 0.54774 0.74865 0.22782
 O428 O 0.54113 0.78026 0.22917
 O429 O 0.50158 0.72759 0.20244
 O430 O 0.46943 0.73041 0.20970
 O431 O 0.52272 0.70258 0.24871
 O432 O 0.51875 0.70975 0.28078
 Zr433 Zr 0.52177 0.72837 0.25974
 O434 O 0.50630 0.74439 0.27676
 Zr435 Zr 0.49058 0.72846 0.22824
 O436 O 0.47357 0.74397 0.24423
 Zr437 Zr 0.52194 0.75968 0.22840
 O438 O 0.50610 0.77684 0.24391
 Zr439 Zr 0.47928 0.73995 0.27131
 O440 O 0.49466 0.72251 0.25538
 Zr441 Zr 0.51044 0.77141 0.27101
 O442 O 0.52768 0.75548 0.25547
 Zr443 Zr 0.47902 0.77103 0.23982
 O444 O 0.49487 0.75552 0.22238
 O445 O 0.51746 0.73278 0.23274
 O446 O 0.48342 0.76701 0.26686
 C447 C 0.55522 0.73604 0.23671
 C448 C 0.51353 0.69493 0.23646
 C449 C 0.51402 0.73659 0.19490
 C450 C 0.44635 0.76379 0.26470
 C451 C 0.48594 0.76484 0.30382
 C452 C 0.48599 0.80410 0.26382
 H453 H 0.50912 0.74153 0.28930
 H454 H 0.50895 0.78932 0.24089
 H455 H 0.52503 0.72513 0.22515
 H456 H 0.46104 0.74093 0.24159
 H457 H 0.46434 0.70942 0.26625
 H458 H 0.46243 0.71043 0.23607
 H459 H 0.52950 0.79826 0.26045
 H460 H 0.54720 0.77931 0.24084
 H461 H 0.47292 0.72043 0.29927
 H462 H 0.52821 0.70059 0.27974
 H463 H 0.48937 0.79725 0.21989
 H464 H 0.50980 0.77979 0.20343
 H465 H 0.54691 0.74167 0.27913
 H466 H 0.52992 0.76103 0.29762
 H467 H 0.47152 0.74135 0.20265
 H468 H 0.45182 0.76055 0.22117
 O469 O 0.00086 0.70276 0.72675
 O470 O -0.02953 0.70855 0.72910
 O471 O 0.02245 0.74941 0.70230
 O472 O 0.02298 0.77876 0.70755
 O473 O 0.04732 0.72734 0.74899
 O474 O 0.04074 0.72870 0.78004
 O475 O -0.02341 0.79676 0.75060
 O476 O -0.01994 0.79171 0.72030
 O477 O -0.04660 0.75175 0.77280
 O478 O -0.04059 0.71963 0.77156
 O479 O -0.00136 0.77321 0.79636
 O480 O 0.03045 0.77231 0.79023
 O481 O -0.00202 0.79679 0.77213
 O482 O 0.03096 0.79031 0.77038
 O483 O -0.02268 0.75171 0.79653
 O484 O -0.02085 0.71894 0.78973
 O485 O -0.04649 0.77340 0.75163
 O486 O -0.04079 0.76739 0.71940
 O487 O 0.02199 0.70264 0.74858
 O488 O 0.02059 0.70933 0.78017
 O489 O 0.04747 0.74877 0.72756
 O490 O 0.04026 0.78094 0.73035
 O491 O 0.00136 0.72763 0.70234
 O492 O -0.03072 0.73166 0.70934
 Zr493 Zr -0.00977 0.72864 0.72808
 O494 O -0.02682 0.74417 0.74401
 Zr495 Zr 0.02171 0.75981 0.72831
 O496 O 0.00570 0.77687 0.74373
 Zr497 Zr 0.02142 0.72849 0.75956
 O498 O 0.00587 0.74438 0.77664
 Zr499 Zr -0.02133 0.77118 0.73957
 O500 O -0.00537 0.75574 0.72222
 Zr501 Zr -0.02119 0.74008 0.77108
 O502 O -0.00562 0.72278 0.75523
 Zr503 Zr 0.01001 0.77145 0.77084
 O504 O 0.02748 0.75555 0.75542
 O505 O 0.01719 0.73292 0.73263
 O506 O -0.01701 0.76709 0.76668
 C507 C 0.01313 0.69513 0.73596
 C508 C 0.01364 0.73681 0.69475
 C509 C 0.05496 0.73631 0.73659
 C510 C -0.01477 0.80417 0.76339
 C511 C -0.05390 0.76469 0.76433
 C512 C -0.01401 0.76450 0.80386
 H513 H -0.03935 0.74137 0.74109
 H514 H 0.00885 0.74154 0.78914
 H515 H 0.02479 0.72532 0.72503
 H516 H 0.00837 0.78939 0.74070
 H517 H -0.01616 0.78603 0.70902
 H518 H 0.01399 0.78797 0.71024
 H519 H -0.01076 0.72096 0.79795
 H520 H 0.00892 0.70328 0.77919
 H521 H -0.04919 0.77756 0.71990
 H522 H -0.02964 0.72220 0.70018
 H523 H 0.02990 0.76108 0.79708
 H524 H 0.04637 0.74062 0.77974
 H525 H -0.02929 0.70360 0.74132
 H526 H -0.04781 0.72067 0.76059
 H527 H 0.04728 0.77885 0.74132
 H528 H 0.02870 0.79863 0.76043
 O529 O -0.02337 -0.04757 -0.00126
 O530 O -0.02089 -0.04185 0.02916
 O531 O -0.04781 -0.00079 -0.02265
 O532 O -0.04246 0.02851 -0.02329
 O533 O -0.00129 -0.02301 -0.04774
 O534 O 0.02976 -0.02167 -0.04122
 O535 O 0.00071 0.04634 0.02323
 O536 O -0.02956 0.04138 0.01979
 O537 O 0.02282 0.00118 0.04632
 O538 O 0.02159 -0.03089 0.04013
 O539 O 0.04627 0.02280 0.00106
 O540 O 0.04011 0.02194 -0.03076
 O541 O 0.02211 0.04639 0.00176
 O542 O 0.02023 0.03990 -0.03129
 O543 O 0.04648 0.00128 0.02235
 O544 O 0.03971 -0.03149 0.02039
 O545 O 0.00172 0.02288 0.04629
 O546 O -0.03050 0.01700 0.04055
 O547 O -0.00162 -0.04772 -0.02243
 O548 O 0.02996 -0.04106 -0.02107
 O549 O -0.02268 -0.00156 -0.04779
 O550 O -0.01973 0.03063 -0.04053
 O551 O -0.04773 -0.02262 -0.00162
 O552 O -0.04057 -0.01871 0.03047
 Zr553 Zr -0.02195 -0.02172 0.00944
 O554 O -0.00595 -0.00624 0.02652
 Zr555 Zr -0.02177 0.00949 -0.02201
 O556 O -0.00630 0.02651 -0.00596
 Zr557 Zr 0.00938 -0.02188 -0.02184
 O558 O 0.02652 -0.00603 -0.00626
 Zr559 Zr -0.01037 0.02079 0.02110
 O560 O -0.02778 0.00540 0.00510
 Zr561 Zr 0.02106 -0.01037 0.02082
 O562 O 0.00515 -0.02762 0.00523
 Zr563 Zr 0.02075 0.02106 -0.01032
 O564 O 0.00528 0.00519 -0.02783
 O565 O -0.01751 -0.01741 -0.01754
 O566 O 0.01669 0.01666 0.01672
 C567 C -0.01422 -0.05521 -0.01356
 C568 C -0.05535 -0.01337 -0.01383
 C569 C -0.01371 -0.01403 -0.05534
 C570 C 0.01345 0.05376 0.01456
 C571 C 0.01437 0.01409 0.05369
 C572 C 0.05378 0.01409 0.01372
 H573 H -0.00884 -0.00907 0.03905
 H574 H 0.03900 -0.00888 -0.00926
 H575 H -0.02516 -0.02499 -0.02514
 H576 H -0.00932 0.03904 -0.00859
 H577 H -0.04086 0.03574 0.01598
 H578 H -0.03980 0.03764 -0.01419
 H579 H 0.04790 -0.02943 0.01030
 H580 H 0.02902 -0.04711 -0.00940
 H581 H -0.02995 0.02714 0.04900
 H582 H -0.04976 -0.02815 0.02938
 H583 H 0.04689 0.01067 -0.03029
 H584 H 0.02946 -0.00974 -0.04681
 H585 H -0.00871 -0.04685 0.02885
 H586 H 0.01064 -0.02989 0.04736
 H587 H -0.00885 0.02847 -0.04763
 H588 H 0.01034 0.04826 -0.02897
 O589 O 0.04753 0.52291 0.50096
 O590 O 0.04176 0.52039 0.47053
 O591 O 0.00092 0.54734 0.52244
 O592 O -0.02842 0.54204 0.52298
 O593 O 0.02304 0.50075 0.54748
 O594 O 0.02174 0.46971 0.54095
 O595 O -0.04637 0.49881 0.47657
 O596 O -0.04138 0.52909 0.47998
 O597 O -0.00126 0.47665 0.45348
 O598 O 0.03081 0.47792 0.45960
 O599 O -0.02278 0.45320 0.49873
 O600 O -0.02187 0.45941 0.53058
 O601 O -0.04638 0.47738 0.49804
 O602 O -0.03987 0.47923 0.53105
 O603 O -0.00129 0.45301 0.47743
 O604 O 0.03145 0.45979 0.47936
 O605 O -0.02295 0.49777 0.45349
 O606 O -0.01705 0.53001 0.45919
 O607 O 0.04772 0.50116 0.52216
 O608 O 0.04108 0.46954 0.52077
 O609 O 0.00160 0.52215 0.54757
 O610 O -0.03056 0.51930 0.54030
 O611 O 0.02267 0.54724 0.50134
 O612 O 0.01864 0.54012 0.46927
 Zr613 Zr 0.02169 0.52147 0.49028
 O614 O 0.00619 0.50546 0.47323
 Zr615 Zr -0.00945 0.52131 0.52176
 O616 O -0.02648 0.50581 0.50574
 Zr617 Zr 0.02190 0.49011 0.52157
 O618 O 0.00603 0.47297 0.50603
 Zr619 Zr -0.02081 0.50989 0.47867
 O620 O -0.00541 0.52731 0.49464
 Zr621 Zr 0.01033 0.47844 0.47894
 O622 O 0.02760 0.49436 0.49450
 Zr623 Zr -0.02104 0.47874 0.51010
 O624 O -0.00515 0.49423 0.52758
 O625 O 0.01742 0.51701 0.51727
 O626 O -0.01668 0.48281 0.48306
 C627 C 0.05518 0.51378 0.51328
 C628 C 0.01349 0.55486 0.51360
 C629 C 0.01406 0.51315 0.55510
 C630 C -0.05377 0.48607 0.48525
 C631 C -0.01418 0.48508 0.44611
 C632 C -0.01409 0.44569 0.48607
 H633 H 0.00900 0.50835 0.46069
 H634 H 0.00888 0.46048 0.50903
 H635 H 0.02501 0.52466 0.52487
 H636 H -0.03900 0.50884 0.50838
 H637 H -0.03574 0.54039 0.48378
 H638 H -0.03761 0.53932 0.51395
 H639 H 0.02942 0.45160 0.48947
 H640 H 0.04714 0.47052 0.50911
 H641 H -0.02720 0.52946 0.45075
 H642 H 0.02810 0.54928 0.47033
 H643 H -0.01065 0.45255 0.53005
 H644 H 0.00981 0.46997 0.54652
 H645 H 0.04679 0.50822 0.47087
 H646 H 0.02978 0.48887 0.45236
 H647 H -0.02846 0.50836 0.54735
 H648 H -0.04820 0.48917 0.52877
 O649 O 0.54767 0.02377 0.50106
 O650 O 0.54194 0.02120 0.47065
 O651 O 0.50098 0.04812 0.52247
 O652 O 0.47168 0.04276 0.52311
 O653 O 0.52317 0.00155 0.54760
 O654 O 0.52197 -0.02948 0.54105
 O655 O 0.45382 -0.00044 0.47666
 O656 O 0.45878 0.02985 0.48010
 O657 O 0.49893 -0.02255 0.45355
 O658 O 0.53104 -0.02125 0.45973
 O659 O 0.47740 -0.04604 0.49878
 O660 O 0.47834 -0.03989 0.53063
 O661 O 0.45381 -0.02186 0.49813
 O662 O 0.46036 -0.02003 0.53118
 O663 O 0.49887 -0.04619 0.47746
 O664 O 0.53162 -0.03945 0.47944
 O665 O 0.47721 -0.00147 0.45361
 O666 O 0.48311 0.03078 0.45929
 O667 O 0.54791 0.00202 0.52226
 O668 O 0.54131 -0.02961 0.52087
 O669 O 0.50173 0.02294 0.54764
 O670 O 0.46958 0.02003 0.54039
 O671 O 0.52273 0.04805 0.50139
 O672 O 0.51879 0.04088 0.46933
 Zr673 Zr 0.52184 0.02226 0.49037
 O674 O 0.50636 0.00625 0.47332
 Zr675 Zr 0.49070 0.02207 0.52185
 O676 O 0.47368 0.00656 0.50583
 Zr677 Zr 0.52210 -0.00908 0.52167
 O678 O 0.50624 -0.02625 0.50612
 Zr679 Zr 0.47936 0.01066 0.47877
 O680 O 0.49474 0.02808 0.49474
 Zr681 Zr 0.51053 -0.02077 0.47903
 O682 O 0.52778 -0.00484 0.49460
 Zr683 Zr 0.47916 -0.02051 0.51019
 O684 O 0.49503 -0.00500 0.52767
 O685 O 0.51758 0.01782 0.51737
 O686 O 0.48351 -0.01642 0.48316
 C687 C 0.55534 0.01465 0.51337
 C688 C 0.51351 0.05568 0.51361
 C689 C 0.51416 0.01394 0.55521
 C690 C 0.44643 -0.01319 0.48533
 C691 C 0.48598 -0.01413 0.44621
 C692 C 0.48607 -0.05352 0.48608
 H693 H 0.50917 0.00914 0.46078
 H694 H 0.50909 -0.03873 0.50911
 H695 H 0.52514 0.02548 0.52497
 H696 H 0.46115 0.00957 0.50848
 H697 H 0.46442 0.04116 0.48387
 H698 H 0.46253 0.04006 0.51404
 H699 H 0.52959 -0.04763 0.48956
 H700 H 0.54733 -0.02866 0.50919
 H701 H 0.47295 0.03022 0.45086
 H702 H 0.52824 0.05007 0.47039
 H703 H 0.48957 -0.04672 0.53010
 H704 H 0.51002 -0.02928 0.54658
 H705 H 0.54697 0.00903 0.47099
 H706 H 0.52997 -0.01033 0.45245
 H707 H 0.47171 0.00910 0.54744
 H708 H 0.45199 -0.01013 0.52887
 O709 O 0.50110 0.54709 0.02307
 O710 O 0.47071 0.54127 0.02070
 O711 O 0.52270 0.50048 0.04759
 O712 O 0.52327 0.47114 0.04236
 O713 O 0.54755 0.52255 0.00090
 O714 O 0.54095 0.52115 -0.03015
 O715 O 0.47680 0.45305 -0.00073
 O716 O 0.48030 0.45810 0.02955
 O717 O 0.45357 0.49813 -0.02291
 O718 O 0.45968 0.53020 -0.02179
 O719 O 0.49877 0.47653 -0.04645
 O720 O 0.53061 0.47751 -0.04034
 O721 O 0.49821 0.45301 -0.02220
 O722 O 0.53119 0.45956 -0.02044
 O723 O 0.47745 0.49800 -0.04665
 O724 O 0.47937 0.53080 -0.03996
 O725 O 0.45369 0.47646 -0.00174
 O726 O 0.45949 0.48244 0.03047
 O727 O 0.52221 0.54723 0.00126
 O728 O 0.52078 0.54049 -0.03033
 O729 O 0.54772 0.50115 0.02236
 O730 O 0.54051 0.46896 0.01957
 O731 O 0.50162 0.52224 0.04751
 O732 O 0.46954 0.51818 0.04047
 Zr733 Zr 0.49048 0.52120 0.02175
 O734 O 0.47341 0.50565 0.00582
 Zr735 Zr 0.52196 0.49007 0.02158
 O736 O 0.50593 0.47298 0.00617
 Zr737 Zr 0.52164 0.52136 -0.00970
 O738 O 0.50608 0.50543 -0.02678
 Zr739 Zr 0.47889 0.47864 0.01030
 O740 O 0.49488 0.49411 0.02765
 Zr741 Zr 0.47902 0.50972 -0.02125
 O742 O 0.49460 0.52704 -0.00540
 Zr743 Zr 0.51021 0.47837 -0.02094
 O744 O 0.52770 0.49431 -0.00552
 O745 O 0.51743 0.51695 0.01724
 O746 O 0.48320 0.48271 -0.01681
 C747 C 0.51335 0.55473 0.01387
 C748 C 0.51389 0.51307 0.05513
 C749 C 0.55520 0.51360 0.01332
 C750 C 0.48546 0.44562 -0.01348
 C751 C 0.44625 0.48522 -0.01441
 C752 C 0.48609 0.48519 -0.05395
 H753 H 0.46089 0.50846 0.00873
 H754 H 0.50904 0.50825 -0.03928
 H755 H 0.52503 0.52457 0.02484
 H756 H 0.50860 0.46046 0.00922
 H757 H 0.48412 0.46377 0.04083
 H758 H 0.51426 0.46193 0.03969
 H759 H 0.48943 0.52873 -0.04820
 H760 H 0.50911 0.54652 -0.02938
 H761 H 0.45108 0.47227 0.02997
 H762 H 0.47063 0.52765 0.04963
 H763 H 0.53004 0.48872 -0.04721
 H764 H 0.54654 0.50922 -0.02986
 H765 H 0.47098 0.54625 0.00850
 H766 H 0.45251 0.52922 -0.01080
 H767 H 0.54753 0.47106 0.00863
 H768 H 0.52894 0.45124 -0.01048
 O769 O 0.77345 0.29726 0.49903
 O770 O 0.77094 0.29152 0.52946
 O771 O 0.79756 0.25048 0.47750
 O772 O 0.79213 0.22115 0.47699
 O773 O 0.75110 0.27281 0.45249
 O774 O 0.72006 0.27170 0.45905
 O775 O 0.74891 0.20345 0.52337
 O776 O 0.77919 0.20826 0.51991
 O777 O 0.72708 0.24870 0.54654
 O778 O 0.72849 0.28079 0.54041
 O779 O 0.70338 0.22732 0.50120
 O780 O 0.70955 0.22812 0.46939
 O781 O 0.72743 0.20355 0.50193
 O782 O 0.72927 0.21002 0.46890
 O783 O 0.70335 0.24881 0.52255
 O784 O 0.71031 0.28149 0.52070
 O785 O 0.74810 0.22692 0.54646
 O786 O 0.78032 0.23262 0.54071
 O787 O 0.75168 0.29756 0.47784
 O788 O 0.72005 0.29108 0.47922
 O789 O 0.77236 0.25124 0.45241
 O790 O 0.76935 0.21911 0.45963
 O791 O 0.79762 0.27224 0.49862
 O792 O 0.79055 0.26829 0.53069
 Zr793 Zr 0.77188 0.27141 0.50969
 O794 O 0.75585 0.25600 0.52674
 Zr795 Zr 0.77150 0.24024 0.47819
 O796 O 0.75595 0.22329 0.49420
 Zr797 Zr 0.74050 0.27177 0.47841
 O798 O 0.72331 0.25600 0.49397
 Zr799 Zr 0.76012 0.22895 0.52127
 O800 O 0.77758 0.24428 0.50531
 Zr801 Zr 0.72885 0.26028 0.52106
 O802 O 0.74481 0.27746 0.50549
 Zr803 Zr 0.72892 0.22887 0.48987
 O804 O 0.74445 0.24468 0.47239
 O805 O 0.76736 0.26715 0.48270
 O806 O 0.73306 0.23322 0.51691
 C807 C 0.76434 0.30496 0.48673
 C808 C 0.80516 0.26302 0.48634
 C809 C 0.76343 0.26374 0.44487
 C810 C 0.73611 0.19611 0.51470
 C811 C 0.73550 0.23576 0.55389
 C812 C 0.69594 0.23608 0.51386
 H813 H 0.75878 0.25880 0.53928
 H814 H 0.71084 0.25892 0.49097
 H815 H 0.77502 0.27469 0.47510
 H816 H 0.75890 0.21074 0.49155
 H817 H 0.79051 0.21384 0.51610
 H818 H 0.78932 0.21192 0.48593
 H819 H 0.70215 0.27956 0.51053
 H820 H 0.72106 0.29713 0.49089
 H821 H 0.77975 0.22247 0.54914
 H822 H 0.79975 0.27771 0.52964
 H823 H 0.70282 0.23941 0.46988
 H824 H 0.72028 0.25977 0.45344
 H825 H 0.75880 0.29662 0.52911
 H826 H 0.73944 0.27970 0.54764
 H827 H 0.75840 0.22126 0.45261
 H828 H 0.73914 0.20161 0.47119
 O829 O 0.75090 0.77355 -0.04801
 O830 O 0.72048 0.77087 -0.04233
 O831 O 0.77227 0.79785 -0.00123
 O832 O 0.77294 0.79248 0.02808
 O833 O 0.79737 0.75128 -0.02348
 O834 O 0.79082 0.72024 -0.02237
 O835 O 0.72659 0.74918 0.04587
 O836 O 0.73000 0.77948 0.04099
 O837 O 0.70345 0.72712 0.00066
 O838 O 0.70955 0.72837 -0.03141
 O839 O 0.74878 0.70366 0.02220
 O840 O 0.78057 0.70989 0.02130
 O841 O 0.74807 0.72778 0.04584
 O842 O 0.78107 0.72971 0.03935
 O843 O 0.72743 0.70346 0.00071
 O844 O 0.72932 0.71027 -0.03207
 O845 O 0.70351 0.74822 0.02241
 O846 O 0.70920 0.78045 0.01661
 O847 O 0.77210 0.75183 -0.04824
 O848 O 0.77063 0.72017 -0.04175
 O849 O 0.79744 0.77268 -0.00200
 O850 O 0.79022 0.76975 0.03017
 O851 O 0.75115 0.79778 -0.02300
 O852 O 0.71914 0.79055 -0.01913
 Zr853 Zr 0.74019 0.77197 -0.02217
 O854 O 0.72319 0.75592 -0.00671
 Zr855 Zr 0.77168 0.77179 0.00903
 O856 O 0.75571 0.75626 0.02603
 Zr857 Zr 0.77148 0.74066 -0.02245
 O858 O 0.75598 0.72347 -0.00661
 Zr859 Zr 0.72866 0.76032 0.02034
 O860 O 0.74457 0.77777 0.00496
 Zr861 Zr 0.72890 0.72890 -0.01091
 O862 O 0.74441 0.74487 -0.02815
 Zr863 Zr 0.76010 0.72921 0.02050
 O864 O 0.77751 0.74473 0.00464
 O865 O 0.76716 0.76755 -0.01788
 O866 O 0.73307 0.73325 0.01614
 C867 C 0.76324 0.76449 -0.05567
 C868 C 0.76339 0.80540 -0.01377
 C869 C 0.80497 0.76368 -0.01445
 C870 C 0.73528 0.73642 0.05325
 C871 C 0.69610 0.73557 0.01360
 C872 C 0.73611 0.69614 0.01351
 H873 H 0.71066 0.75881 -0.00952
 H874 H 0.75899 0.71099 -0.00949
 H875 H 0.77475 0.77523 -0.02542
 H876 H 0.75837 0.75926 0.03857
 H877 H 0.73377 0.79080 0.03537
 H878 H 0.76391 0.78977 0.03724
 H879 H 0.73944 0.70210 -0.03005
 H880 H 0.75897 0.72118 -0.04782
 H881 H 0.70079 0.77989 0.02676
 H882 H 0.72017 0.79973 -0.02858
 H883 H 0.78002 0.70304 0.01006
 H884 H 0.79639 0.72045 -0.01041
 H885 H 0.72089 0.75872 -0.04743
 H886 H 0.70240 0.73938 -0.03045
 H887 H 0.79728 0.75884 0.02803
 H888 H 0.77875 0.73958 0.04775
 O889 O 1.04749 0.22654 0.24877
 O890 O 1.04169 0.22884 0.27917
 O891 O 1.00081 0.20214 0.22708
 O892 O 0.97148 0.20746 0.22649
 O893 O 1.02303 0.24877 0.20226
 O894 O 1.02168 0.27981 0.20887
 O895 O 0.95359 0.25046 0.27303
 O896 O 0.95855 0.22020 0.26951
 O897 O 0.99875 0.27252 0.29632
 O898 O 1.03083 0.27128 0.29021
 O899 O 0.97721 0.29618 0.25114
 O900 O 0.97812 0.29015 0.21928
 O901 O 0.95359 0.27197 0.25164
 O902 O 0.96014 0.27029 0.21863
 O903 O 0.99870 0.29626 0.27249
 O904 O 1.03143 0.28952 0.27057
 O905 O 0.97701 0.25142 0.29617
 O906 O 0.98288 0.21920 0.29035
 O907 O 1.04769 0.24838 0.22767
 O908 O 1.04103 0.27996 0.22907
 O909 O 1.00155 0.22739 0.20207
 O910 O 0.96939 0.23026 0.20925
 O911 O 1.02259 0.20215 0.24818
 O912 O 1.01855 0.20912 0.28029
 Zr913 Zr 1.02163 0.22788 0.25936
 O914 O 1.00615 0.24381 0.27645
 Zr915 Zr 0.99049 0.22817 0.22783
 O916 O 0.97347 0.24360 0.24388
 Zr917 Zr 1.02186 0.25936 0.22819
 O918 O 1.00602 0.27644 0.24379
 Zr919 Zr 0.97914 0.23941 0.27094
 O920 O 0.99453 0.22205 0.25493
 Zr921 Zr 1.01032 0.27085 0.27086
 O922 O 1.02756 0.25500 0.25526
 Zr923 Zr 0.97894 0.27069 0.23964
 O924 O 0.99480 0.25527 0.22213
 O925 O 1.01737 0.23244 0.23239
 O926 O 0.98330 0.26650 0.26667
 C927 C 1.05516 0.23575 0.23654
 C928 C 1.01338 0.19458 0.23589
 C929 C 1.01404 0.23638 0.19459
 C930 C 0.94619 0.26323 0.26437
 C931 C 0.98581 0.26405 0.30363
 C932 C 0.98591 0.30362 0.26386
 H933 H 1.00896 0.24086 0.28898
 H934 H 1.00888 0.28894 0.24085
 H935 H 1.02496 0.22483 0.22478
 H936 H 0.96095 0.24059 0.24120
 H937 H 0.96419 0.20892 0.26567
 H938 H 0.96230 0.21014 0.23550
 H939 H 1.02940 0.29777 0.26050
 H940 H 1.04705 0.27900 0.24076
 H941 H 0.97273 0.21972 0.29876
 H942 H 1.02800 0.19996 0.27920
 H943 H 0.98938 0.29694 0.21982
 H944 H 1.00975 0.27953 0.20326
 H945 H 1.04670 0.24103 0.27893
 H946 H 1.02975 0.26034 0.29745
 H947 H 0.97153 0.24121 0.20223
 H948 H 0.95180 0.26034 0.22084
 O949 O 0.74872 1.04767 0.72674
 O950 O 0.77911 1.04189 0.72922
 O951 O 0.72714 1.00103 0.70228
 O952 O 0.72664 0.97167 0.70754
 O953 O 0.70220 1.02313 0.74890
 O954 O 0.70876 1.02188 0.77994
 O955 O 0.77305 0.95378 0.75085
 O956 O 0.76951 0.95867 0.72053
 O957 O 0.79613 0.99887 0.77296
 O958 O 0.79005 1.03097 0.77169
 O959 O 0.75085 0.97742 0.79647
 O960 O 0.71902 0.97827 0.79017
 O961 O 0.75163 0.95377 0.77231
 O962 O 0.71863 0.96016 0.77040
 O963 O 0.77218 0.99890 0.79664
 O964 O 0.77034 1.03163 0.78984
 O965 O 0.79607 0.97720 0.75178
 O966 O 0.79031 0.98305 0.71954
 O967 O 0.72755 1.04787 0.74850
 O968 O 0.72892 1.04123 0.78011
 O969 O 0.70207 1.00165 0.72750
 O970 O 0.70931 0.96951 0.73030
 O971 O 0.74825 1.02279 0.70239
 O972 O 0.78030 1.01875 0.70948
 Zr973 Zr 0.75934 1.02181 0.72815
 O974 O 0.77637 1.00632 0.74415
 Zr975 Zr 0.72785 0.99065 0.72831
 O976 O 0.74385 0.97362 0.74380
 Zr977 Zr 0.72810 1.02203 0.75952
 O978 O 0.74363 1.00618 0.77667
 Zr979 Zr 0.77089 0.97930 0.73971
 O980 O 0.75495 0.99470 0.72229
 Zr981 Zr 0.77070 1.01048 0.77119
 O982 O 0.75515 1.02774 0.75528
 Zr983 Zr 0.73953 0.97908 0.77089
 O984 O 0.72208 0.99496 0.75540
 O985 O 0.73237 1.01754 0.73261
 O986 O 0.76654 0.98345 0.76681
 C987 C 0.73645 1.05533 0.73589
 C988 C 0.73598 1.01361 0.69476
 C989 C 0.69456 1.01410 0.73651
 C990 C 0.76443 0.94640 0.76365
 C991 C 0.80347 0.98596 0.76447
 C992 C 0.76350 0.98614 0.80399
 H993 H 0.78890 1.00913 0.74125
 H994 H 0.74064 1.00904 0.78916
 H995 H 0.72477 1.02513 0.72498
 H996 H 0.74121 0.96108 0.74079
 H997 H 0.76571 0.96429 0.70922
 H998 H 0.73557 0.96243 0.71031
 H999 H 0.76021 1.02964 0.79800
 H1000 H 0.74058 1.04729 0.77915
 H1001 H 0.79872 0.97289 0.72007
 H1002 H 0.77925 1.02820 0.70031
 H1003 H 0.71959 0.98947 0.79707
 H1004 H 0.70317 1.00994 0.77968
 H1005 H 0.77881 1.04691 0.74141
 H1006 H 0.79730 1.02991 0.76076
 H1007 H 0.70234 0.97157 0.74129
 H1008 H 0.72093 0.95182 0.76048
 O1009 O 0.79787 0.49890 0.27293
 O1010 O 0.79214 0.52932 0.27050
 O1011 O 0.75125 0.47737 0.29733
 O1012 O 0.72190 0.47689 0.29204
 O1013 O 0.77328 0.45242 0.25067
 O1014 O 0.77198 0.45900 0.21963
 O1015 O 0.70398 0.52329 0.24893
 O1016 O 0.70901 0.51986 0.27921
 O1017 O 0.74912 0.54643 0.22678
 O1018 O 0.78120 0.54030 0.22806
 O1019 O 0.72751 0.50127 0.20322
 O1020 O 0.72840 0.46939 0.20934
 O1021 O 0.70393 0.50186 0.22744
 O1022 O 0.71040 0.46888 0.22915
 O1023 O 0.74905 0.52255 0.20308
 O1024 O 0.78178 0.52059 0.20985
 O1025 O 0.72742 0.54637 0.24789
 O1026 O 0.73336 0.54065 0.28014
 O1027 O 0.79801 0.47773 0.25114
 O1028 O 0.79136 0.47917 0.21951
 O1029 O 0.75186 0.45231 0.27207
 O1030 O 0.71972 0.45957 0.26926
 O1031 O 0.77302 0.49847 0.29728
 O1032 O 0.76904 0.53055 0.29024
 Zr1033 Zr 0.77204 0.50957 0.27152
 O1034 O 0.75656 0.52665 0.25556
 Zr1035 Zr 0.74086 0.47811 0.27130
 O1036 O 0.72385 0.49414 0.25583
 Zr1037 Zr 0.77219 0.47834 0.24009
 O1038 O 0.75634 0.49391 0.22297
 Zr1039 Zr 0.72955 0.52119 0.25998
 O1040 O 0.74495 0.50521 0.27737
 Zr1041 Zr 0.76068 0.52098 0.22851
 O1042 O 0.77793 0.50539 0.24440
 Zr1043 Zr 0.72926 0.48983 0.22873
 O1044 O 0.74513 0.47234 0.24419
 O1045 O 0.76773 0.48260 0.26701
 O1046 O 0.73366 0.51685 0.23288
 C1047 C 0.80549 0.48659 0.26379
 C1048 C 0.76384 0.48620 0.30488
 C1049 C 0.76429 0.44479 0.26306
 C1050 C 0.69655 0.51462 0.23617
 C1051 C 0.73620 0.55377 0.23522
 C1052 C 0.73623 0.51393 0.19574
 H1053 H 0.75939 0.53918 0.25848
 H1054 H 0.75917 0.49093 0.21047
 H1055 H 0.77531 0.47499 0.27463
 H1056 H 0.71132 0.49149 0.25885
 H1057 H 0.71466 0.51604 0.29050
 H1058 H 0.71271 0.48589 0.28932
 H1059 H 0.77974 0.51049 0.20164
 H1060 H 0.79744 0.49082 0.22051
 H1061 H 0.72322 0.54909 0.27960
 H1062 H 0.77850 0.52947 0.29940
 H1063 H 0.73960 0.46997 0.20245
 H1064 H 0.76003 0.45345 0.21986
 H1065 H 0.79716 0.52900 0.25832
 H1066 H 0.78015 0.54755 0.23901
 H1067 H 0.72179 0.45256 0.25829
 H1068 H 0.70211 0.47111 0.23913
 O1069 O 0.50112 0.20239 0.72672
 O1070 O 0.47075 0.20813 0.72915
 O1071 O 0.52262 0.24924 0.70253
 O1072 O 0.52327 0.27852 0.70799
 O1073 O 0.54760 0.22686 0.74910
 O1074 O 0.54104 0.22800 0.78014
 O1075 O 0.47680 0.29622 0.75116
 O1076 O 0.48027 0.29139 0.72085
 O1077 O 0.45363 0.25099 0.77303
 O1078 O 0.45976 0.21892 0.77170
 O1079 O 0.49889 0.27247 0.79673
 O1080 O 0.53068 0.27161 0.79063
 O1081 O 0.49823 0.29616 0.77264
 O1082 O 0.53125 0.28965 0.77081
 O1083 O 0.47756 0.25099 0.79679
 O1084 O 0.47947 0.21824 0.78989
 O1085 O 0.45372 0.27277 0.75198
 O1086 O 0.45948 0.26702 0.71974
 O1087 O 0.52225 0.20212 0.74854
 O1088 O 0.52087 0.20865 0.78018
 O1089 O 0.54771 0.24839 0.72778
 O1090 O 0.54048 0.28056 0.73080
 O1091 O 0.50155 0.22745 0.70246
 O1092 O 0.46949 0.23135 0.70955
 Zr1093 Zr 0.49048 0.22825 0.72823
 O1094 O 0.47344 0.24367 0.74426
 Zr1095 Zr 0.52195 0.25943 0.72863
 O1096 O 0.50594 0.27639 0.74414
 Zr1097 Zr 0.52170 0.22791 0.75968
 O1098 O 0.50616 0.24371 0.77686
 Zr1099 Zr 0.47890 0.27072 0.73996
 O1100 O 0.49487 0.25538 0.72252
 Zr1101 Zr 0.47909 0.23943 0.77130
 O1102 O 0.49465 0.22223 0.75534
 Zr1103 Zr 0.51027 0.27083 0.77120
 O1104 O 0.52773 0.25500 0.75570
 O1105 O 0.51744 0.23251 0.73277
 O1106 O 0.48325 0.26648 0.76705
 C1107 C 0.51338 0.19469 0.73588
 C1108 C 0.51378 0.23671 0.69490
 C1109 C 0.55523 0.23591 0.73675
 C1110 C 0.48546 0.30358 0.76397
 C1111 C 0.44629 0.26392 0.76459
 C1112 C 0.48622 0.26376 0.80417
 H1113 H 0.46092 0.24086 0.74132
 H1114 H 0.50914 0.24082 0.78935
 H1115 H 0.52504 0.22496 0.72511
 H1116 H 0.50860 0.28894 0.74118
 H1117 H 0.48407 0.28580 0.70953
 H1118 H 0.51421 0.28766 0.71068
 H1119 H 0.48956 0.22026 0.79813
 H1120 H 0.50920 0.20261 0.77919
 H1121 H 0.45107 0.27717 0.72029
 H1122 H 0.47057 0.22196 0.70032
 H1123 H 0.53018 0.26032 0.79738
 H1124 H 0.54662 0.23993 0.77995
 H1125 H 0.47103 0.20308 0.74132
 H1126 H 0.45257 0.21996 0.76072
 H1127 H 0.54755 0.27837 0.74172
 H1128 H 0.52894 0.29808 0.76096
 O1129 O 0.29767 0.75156 0.47725
 O1130 O 0.29198 0.72109 0.47971
 O1131 O 0.25102 0.77297 0.45282
 O1132 O 0.22167 0.77337 0.45804
 O1133 O 0.27304 0.79793 0.49951
 O1134 O 0.27175 0.79133 0.53056
 O1135 O 0.20381 0.72692 0.50113
 O1136 O 0.20881 0.73040 0.47085
 O1137 O 0.24897 0.70385 0.52330
 O1138 O 0.28103 0.71005 0.52211
 O1139 O 0.22734 0.74901 0.54687
 O1140 O 0.22817 0.78085 0.54076
 O1141 O 0.20374 0.74834 0.52262
 O1142 O 0.21019 0.78135 0.52089
 O1143 O 0.24887 0.72775 0.54703
 O1144 O 0.28161 0.72976 0.54032
 O1145 O 0.22728 0.70389 0.50215
 O1146 O 0.23319 0.70965 0.46992
 O1147 O 0.29779 0.77272 0.49905
 O1148 O 0.29116 0.77119 0.53068
 O1149 O 0.25160 0.79800 0.47807
 O1150 O 0.21947 0.79068 0.48084
 O1151 O 0.27281 0.75191 0.45289
 O1152 O 0.26888 0.71982 0.45990
 Zr1153 Zr 0.27186 0.74079 0.47863
 O1154 O 0.25639 0.72368 0.49456
 Zr1155 Zr 0.24063 0.77219 0.47883
 O1156 O 0.22363 0.75611 0.49425
 Zr1157 Zr 0.27198 0.77201 0.51009
 O1158 O 0.25614 0.75640 0.52717
 Zr1159 Zr 0.22937 0.72908 0.49010
 O1160 O 0.24475 0.74510 0.47275
 Zr1161 Zr 0.26051 0.72934 0.52162
 O1162 O 0.27774 0.74497 0.50578
 Zr1163 Zr 0.22906 0.76043 0.52135
 O1164 O 0.24491 0.77796 0.50594
 O1165 O 0.26751 0.76775 0.48316
 O1166 O 0.23348 0.73342 0.51721
 C1167 C 0.30527 0.76390 0.48640
 C1168 C 0.26363 0.76418 0.44529
 C1169 C 0.26404 0.80554 0.48710
 C1170 C 0.19638 0.73556 0.51388
 C1171 C 0.23607 0.69649 0.51482
 C1172 C 0.23606 0.73635 0.55435
 H1173 H 0.25923 0.71116 0.49164
 H1174 H 0.25898 0.75938 0.53967
 H1175 H 0.27507 0.77538 0.47555
 H1176 H 0.21110 0.75874 0.49121
 H1177 H 0.21445 0.73423 0.45956
 H1178 H 0.21246 0.76438 0.46076
 H1179 H 0.27957 0.73986 0.54852
 H1180 H 0.29726 0.75956 0.52967
 H1181 H 0.22305 0.70120 0.47043
 H1182 H 0.27835 0.72092 0.45076
 H1183 H 0.23940 0.78033 0.54763
 H1184 H 0.25981 0.79689 0.53028
 H1185 H 0.29703 0.72146 0.49188
 H1186 H 0.28004 0.70285 0.51113
 H1187 H 0.22155 0.79770 0.49181
 H1188 H 0.20187 0.77908 0.51093
 O1189 O 0.29725 0.25053 0.97686
 O1190 O 0.29137 0.22014 0.97928
 O1191 O 0.25069 0.27223 0.95240
 O1192 O 0.22137 0.27293 0.95767
 O1193 O 0.27293 0.29710 0.99910
 O1194 O 0.27160 0.29051 1.03015
 O1195 O 0.20327 0.22651 1.00077
 O1196 O 0.20824 0.23001 0.97048
 O1197 O 0.24825 0.20318 1.02290
 O1198 O 0.28034 0.20915 1.02171
 O1199 O 0.22698 0.24853 1.04650
 O1200 O 0.22797 0.28035 1.04033
 O1201 O 0.20335 0.24791 1.02228
 O1202 O 0.20994 0.28089 1.02051
 O1203 O 0.24837 0.22713 1.04666
 O1204 O 0.28109 0.22885 1.03988
 O1205 O 0.22657 0.20336 1.00173
 O1206 O 0.23249 0.20911 0.96951
 O1207 O 0.29752 0.27167 0.99868
 O1208 O 0.29087 0.27028 1.03028
 O1209 O 0.25148 0.29732 0.97767
 O1210 O 0.21931 0.29020 0.98046
 O1211 O 0.27237 0.25106 0.95248
 O1212 O 0.26824 0.21901 0.95951
 Zr1213 Zr 0.27136 0.23997 0.97823
 O1214 O 0.25580 0.22296 0.99416
 Zr1215 Zr 0.24035 0.27158 0.97843
 O1216 O 0.22325 0.25561 0.99386
 Zr1217 Zr 0.27170 0.27119 1.00968
 O1218 O 0.25577 0.25568 1.02676
 Zr1219 Zr 0.22881 0.22854 0.98971
 O1220 O 0.24429 0.24446 0.97235
 Zr1221 Zr 0.25996 0.22859 1.02121
 O1222 O 0.27729 0.24411 1.00537
 Zr1223 Zr 0.22871 0.25989 1.02096
 O1224 O 0.24466 0.27732 1.00554
 O1225 O 0.26720 0.26696 0.98274
 O1226 O 0.23296 0.23285 1.01682
 C1227 C 0.30495 0.26279 0.98604
 C1228 C 0.26322 0.26336 0.94486
 C1229 C 0.26397 0.30478 0.98671
 C1230 C 0.19591 0.23517 1.01356
 C1231 C 0.23530 0.19590 1.01440
 C1232 C 0.23565 0.23585 1.05400
 H1233 H 0.25855 0.21042 0.99123
 H1234 H 0.25864 0.25865 1.03926
 H1235 H 0.27482 0.27454 0.97513
 H1236 H 0.21073 0.25831 0.99083
 H1237 H 0.21389 0.23379 0.95919
 H1238 H 0.21214 0.26395 0.96036
 H1239 H 0.27915 0.23899 1.04807
 H1240 H 0.29688 0.25860 1.02929
 H1241 H 0.22231 0.20073 0.97001
 H1242 H 0.27771 0.22005 0.95035
 H1243 H 0.23919 0.27977 1.04719
 H1244 H 0.25971 0.29617 1.02986
 H1245 H 0.29638 0.22043 0.99147
 H1246 H 0.27929 0.20195 1.01072
 H1247 H 0.22143 0.29720 0.99144
 H1248 H 0.20160 0.27866 1.01056
 C1249 C 0.28539 0.37599 0.78485
 N1250 N 0.27744 0.36788 0.79889
 N1251 N 0.28372 0.35253 0.80518
 C1252 C 0.29819 0.34469 0.79770
 N1253 N 0.30601 0.35278 0.78353
 N1254 N 0.29974 0.36812 0.77723
 C1255 C 0.27911 0.39342 0.77859
 N1256 N 0.28752 0.40189 0.76503
 N1257 N 0.28245 0.41813 0.76000
 C1258 C 0.26878 0.42648 0.76836
 N1259 N 0.26027 0.41794 0.78182
 N1260 N 0.26534 0.40170 0.78683
 C1261 C 0.28769 -0.12202 0.28700
 N1262 N 0.30202 -0.12990 0.27938
 N1263 N 0.30828 -0.14525 0.28567
 C1264 C 0.30049 -0.15337 0.29987
 N1265 N 0.28602 -0.14546 0.30734
 N1266 N 0.27976 -0.13011 0.30106
 C1267 C 0.28122 -0.10473 0.28056
 N1268 N 0.26735 -0.09651 0.28871
 N1269 N 0.26189 -0.08053 0.28331
 C1270 C 0.27009 -0.07217 0.26953
 N1271 N 0.28389 -0.08043 0.26131
 N1272 N 0.28936 -0.09642 0.26673
 C1273 C 0.78741 0.87864 0.78685
 N1274 N 0.77949 0.87062 0.80096
 N1275 N 0.78581 0.85534 0.80738
 C1276 C 0.80033 0.84744 0.80000
 N1277 N 0.80811 0.85549 0.78576
 N1278 N 0.80180 0.87077 0.77933
 C1279 C 0.78092 0.89588 0.78027
 N1280 N 0.78917 0.90417 0.76649
 N1281 N 0.78373 0.92014 0.76100
 C1282 C 0.76984 0.92840 0.76908
 N1283 N 0.76153 0.92005 0.78278
 N1284 N 0.76696 0.90409 0.78827
 C1285 C 0.46326 0.87210 0.28640
 N1286 N 0.47109 0.88010 0.30060
 N1287 N 0.46474 0.89538 0.30697
 C1288 C 0.45032 0.90328 0.29942
 N1289 N 0.44261 0.89528 0.28511
 N1290 N 0.44894 0.88000 0.27873
 C1291 C 0.46972 0.85482 0.27994
 N1292 N 0.46145 0.84645 0.26620
 N1293 N 0.46683 0.83041 0.26086
 C1294 C 0.48067 0.82217 0.26906
 N1295 N 0.48901 0.83060 0.28272
 N1296 N 0.48363 0.84663 0.28805
 C1297 C -0.03712 0.87228 0.78610
 N1298 N -0.02915 0.88028 0.80021
 N1299 N -0.03534 0.89564 0.80655
 C1300 C -0.04974 0.90362 0.79904
 N1301 N -0.05760 0.89562 0.78482
 N1302 N -0.05142 0.88025 0.77847
 C1303 C -0.03080 0.85494 0.77963
 N1304 N -0.03913 0.84663 0.76589
 N1305 N -0.03385 0.83057 0.76052
 C1306 C -0.02005 0.82223 0.76870
 N1307 N -0.01166 0.83060 0.78237
 N1308 N -0.01693 0.84666 0.78774
 C1309 C -0.03548 -0.12399 -0.03529
 N1310 N -0.04961 -0.13211 -0.02753
 N1311 N -0.05584 -0.14743 -0.03394
 C1312 C -0.04825 -0.15527 -0.04840
 N1313 N -0.03396 -0.14715 -0.05599
 N1314 N -0.02771 -0.13183 -0.04958
 C1315 C -0.02925 -0.10658 -0.02889
 N1316 N -0.01551 -0.09819 -0.03708
 N1317 N -0.01048 -0.08197 -0.03193
 C1318 C -0.01900 -0.07355 -0.01840
 N1319 N -0.03265 -0.08201 -0.01011
 N1320 N -0.03767 -0.09823 -0.01525
 C1321 C -0.03633 0.37739 0.46373
 N1322 N -0.05047 0.36931 0.47152
 N1323 N -0.05662 0.35389 0.46527
 C1324 C -0.04889 0.34593 0.45096
 N1325 N -0.03465 0.35401 0.44328
 N1326 N -0.02849 0.36943 0.44953
 C1327 C -0.03004 0.39479 0.47009
 N1328 N -0.01624 0.40309 0.46192
 N1329 N -0.01099 0.41919 0.46720
 C1330 C -0.01934 0.42759 0.48085
 N1331 N -0.03308 0.41924 0.48910
 N1332 N -0.03833 0.40313 0.48382
 C1333 C 0.46327 -0.12147 0.46320
 N1334 N 0.47091 -0.12931 0.44884
 N1335 N 0.46460 -0.14461 0.44246
 C1336 C 0.45038 -0.15275 0.45016
 N1337 N 0.44288 -0.14490 0.46467
 N1338 N 0.44918 -0.12958 0.47104
 C1339 C 0.46973 -0.10419 0.46972
 N1340 N 0.46158 -0.09594 0.48358
 N1341 N 0.46697 -0.07991 0.48900
 C1342 C 0.48071 -0.07157 0.48076
 N1343 N 0.48893 -0.07988 0.46697
 N1344 N 0.48354 -0.09589 0.46155
 C1345 C 0.46342 0.37729 -0.03593
 N1346 N 0.44930 0.36915 -0.02815
 N1347 N 0.44323 0.35370 -0.03441
 C1348 C 0.45101 0.34577 -0.04870
 N1349 N 0.46523 0.35391 -0.05636
 N1350 N 0.47131 0.36935 -0.05011
 C1351 C 0.46963 0.39471 -0.02955
 N1352 N 0.48340 0.40307 -0.03772
 N1353 N 0.48860 0.41918 -0.03242
 C1354 C 0.48023 0.42752 -0.01874
 N1355 N 0.46652 0.41911 -0.01050
 N1356 N 0.46132 0.40300 -0.01581
 C1357 C 0.78625 0.37354 0.46505
 N1358 N 0.80071 0.38134 0.47257
 N1359 N 0.80705 0.39662 0.46619
 C1360 C 0.79920 0.40473 0.45204
 N1361 N 0.78462 0.39694 0.44465
 N1362 N 0.77827 0.38166 0.45102
 C1363 C 0.77986 0.35618 0.47143
 N1364 N 0.76592 0.34800 0.46334
 N1365 N 0.76073 0.33183 0.46847
 C1366 C 0.76929 0.32326 0.48190
 N1367 N 0.78314 0.33151 0.49009
 N1368 N 0.78833 0.34768 0.48495
 C1369 C 0.78432 0.87446 -0.03477
 N1370 N 0.79843 0.88257 -0.02691
 N1371 N 0.80463 0.89795 -0.03319
 C1372 C 0.79699 0.90583 -0.04759
 N1373 N 0.78276 0.89775 -0.05531
 N1374 N 0.77655 0.88237 -0.04904
 C1375 C 0.77815 0.85698 -0.02855
 N1376 N 0.76459 0.84852 -0.03699
 N1377 N 0.75964 0.83223 -0.03202
 C1378 C 0.76805 0.82381 -0.01841
 N1379 N 0.78151 0.83235 -0.00985
 N1380 N 0.78646 0.84864 -0.01483
 C1381 C 0.78508 0.28496 0.37608
 N1382 N 0.77741 0.29919 0.36802
 N1383 N 0.78380 0.30540 0.35268
 C1384 C 0.79812 0.29765 0.34480
 N1385 N 0.80565 0.28331 0.35285
 N1386 N 0.79927 0.27709 0.36818
 C1387 C 0.77870 0.27875 0.39349
 N1388 N 0.78687 0.26499 0.40187
 N1389 N 0.78175 0.25996 0.41809
 C1390 C 0.76825 0.26851 0.42652
 N1391 N 0.75996 0.28218 0.41807
 N1392 N 0.76509 0.28720 0.40185
 C1393 C 0.78584 0.78720 -0.12367
 N1394 N 0.77831 0.80163 -0.13151
 N1395 N 0.78496 0.80822 -0.14657
 C1396 C 0.79944 0.80071 -0.15443
 N1397 N 0.80680 0.78614 -0.14659
 N1398 N 0.80017 0.77953 -0.13153
 C1399 C 0.77918 0.78055 -0.10653
 N1400 N 0.78721 0.76658 -0.09835
 N1401 N 0.78185 0.76119 -0.08232
 C1402 C 0.76823 0.76955 -0.07389
 N1403 N 0.76008 0.78341 -0.08216
 N1404 N 0.76544 0.78880 -0.09818
 C1405 C 0.28531 0.46484 0.87421
 N1406 N 0.29968 0.47253 0.88202
 N1407 N 0.30614 0.46621 0.89729
 C1408 C 0.29849 0.45194 0.90537
 N1409 N 0.28400 0.44438 0.89759
 N1410 N 0.27754 0.45069 0.88232
 C1411 C 0.27887 0.47114 0.85685
 N1412 N 0.26507 0.46288 0.84857
 N1413 N 0.25991 0.46796 0.83237
 C1414 C 0.26835 0.48148 0.82385
 N1415 N 0.28205 0.48984 0.83220
 N1416 N 0.28721 0.48477 0.84840
 C1417 C 0.28636 -0.03668 0.37194
 N1418 N 0.27860 -0.05075 0.38018
 N1419 N 0.28492 -0.05675 0.39563
 C1420 C 0.29925 -0.04894 0.40347
 N1421 N 0.30690 -0.03476 0.39523
 N1422 N 0.30059 -0.02875 0.37978
 C1423 C 0.27990 -0.03055 0.35452
 N1424 N 0.28802 -0.01679 0.34607
 N1425 N 0.28263 -0.01166 0.32996
 C1426 C 0.26893 -0.02010 0.32171
 N1427 N 0.26075 -0.03379 0.33020
 N1428 N 0.26613 -0.03892 0.34632
 C1429 C -0.03586 -0.03596 -0.12379
 N1430 N -0.05017 -0.02824 -0.13163
 N1431 N -0.05672 -0.03469 -0.14681
 C1432 C -0.04928 -0.04915 -0.15478
 N1433 N -0.03480 -0.05670 -0.14694
 N1434 N -0.02823 -0.05026 -0.13176
 C1435 C -0.02931 -0.02951 -0.10651
 N1436 N -0.01558 -0.03780 -0.09819
 N1437 N -0.01033 -0.03261 -0.08204
 C1438 C -0.01861 -0.01891 -0.07364
 N1439 N -0.03223 -0.01052 -0.08204
 N1440 N -0.03748 -0.01571 -0.09818
 C1441 C -0.03669 0.46227 0.37801
 N1442 N -0.05070 0.47023 0.36986
 N1443 N -0.05688 0.46404 0.35442
 C1444 C -0.04935 0.44961 0.34648
 N1445 N -0.03521 0.44178 0.35466
 N1446 N -0.02901 0.44797 0.37009
 C1447 C -0.03036 0.46866 0.39539
 N1448 N -0.01659 0.46046 0.40375
 N1449 N -0.01127 0.46585 0.41981
 C1450 C -0.01954 0.47963 0.42810
 N1451 N -0.03325 0.48787 0.41969
 N1452 N -0.03855 0.48249 0.40363
 C1453 C 0.46309 -0.03701 0.37829
 N1454 N 0.44883 -0.02926 0.37036
 N1455 N 0.44253 -0.03553 0.35500
 C1456 C 0.45021 -0.04979 0.34695
 N1457 N 0.46457 -0.05743 0.35488
 N1458 N 0.47088 -0.05118 0.37024
 C1459 C 0.46955 -0.03059 0.39560
 N1460 N 0.48346 -0.03869 0.40383
 N1461 N 0.48887 -0.03328 0.41985
 C1462 C 0.48057 -0.01958 0.42822
 N1463 N 0.46672 -0.01143 0.41994
 N1464 N 0.46132 -0.01683 0.40393
 C1465 C 0.46365 0.46257 -0.12213
 N1466 N 0.47123 0.44820 -0.13001
 N1467 N 0.46494 0.44197 -0.14540
 C1468 C 0.45080 0.44983 -0.15355
 N1469 N 0.44338 0.46434 -0.14565
 N1470 N 0.44966 0.47057 -0.13027
 C1471 C 0.47004 0.46895 -0.10477
 N1472 N 0.46197 0.48290 -0.09659
 N1473 N 0.46727 0.48824 -0.08051
 C1474 C 0.48084 0.47984 -0.07203
 N1475 N 0.48898 0.46596 -0.08026
 N1476 N 0.48368 0.46061 -0.09634
 C1477 C 0.46333 0.78803 0.37172
 N1478 N 0.44921 0.78020 0.37981
 N1479 N 0.44302 0.78649 0.39520
 C1480 C 0.45067 0.80085 0.40312
 N1481 N 0.46489 0.80858 0.39503
 N1482 N 0.47109 0.80230 0.37964
 C1483 C 0.46969 0.78154 0.35440
 N1484 N 0.48353 0.78964 0.34608
 N1485 N 0.48887 0.78416 0.33007
 C1486 C 0.48057 0.77037 0.32180
 N1487 N 0.46679 0.76222 0.33017
 N1488 N 0.46145 0.76770 0.34618
 C1489 C -0.03576 0.78647 0.87243
 N1490 N -0.04976 0.77847 0.88055
 N1491 N -0.05584 0.78453 0.89607
 C1492 C -0.04818 0.79883 0.90410
 N1493 N -0.03407 0.80673 0.89598
 N1494 N -0.02798 0.80067 0.88045
 C1495 C -0.02959 0.78028 0.85493
 N1496 N -0.01598 0.78866 0.84650
 N1497 N -0.01085 0.78348 0.83033
 C1498 C -0.01913 0.76972 0.82200
 N1499 N -0.03268 0.76129 0.83048
 N1500 N -0.03781 0.76647 0.84665
 C1501 C 0.37840 0.78683 0.28708
 N1502 N 0.37056 0.80109 0.27924
 N1503 N 0.35522 0.80747 0.28541
 C1504 C 0.34709 0.79985 0.29967
 N1505 N 0.35492 0.78549 0.30740
 N1506 N 0.37027 0.77911 0.30124
 C1507 C 0.39570 0.78030 0.28077
 N1508 N 0.40391 0.76648 0.28905
 N1509 N 0.41993 0.76103 0.28376
 C1510 C 0.42832 0.76919 0.26999
 N1511 N 0.42006 0.78293 0.26164
 N1512 N 0.40405 0.78838 0.26693
 C1513 C -0.12164 0.78791 0.78722
 N1514 N -0.12976 0.78010 0.80134
 N1515 N -0.14509 0.78646 0.80756
 C1516 C -0.15292 0.80088 0.79993
 N1517 N -0.14480 0.80858 0.78572
 N1518 N -0.12947 0.80224 0.77949
 C1519 C -0.10437 0.78138 0.78080
 N1520 N -0.09601 0.78957 0.76704
 N1521 N -0.08005 0.78408 0.76163
 C1522 C -0.07185 0.77019 0.76978
 N1523 N -0.08025 0.76193 0.78349
 N1524 N -0.09622 0.76742 0.78890
 C1525 C 0.87373 0.28465 0.46462
 N1526 N 0.88162 0.27701 0.45028
 N1527 N 0.89681 0.28351 0.44385
 C1528 C 0.90471 0.29790 0.45149
 N1529 N 0.89684 0.30540 0.46596
 N1530 N 0.88165 0.29891 0.47239
 C1531 C 0.85643 0.27821 0.47103
 N1532 N 0.84812 0.28649 0.48477
 N1533 N 0.83195 0.28136 0.48992
 C1534 C 0.82350 0.26775 0.48152
 N1535 N 0.83189 0.25935 0.46789
 N1536 N 0.84806 0.26448 0.46274
 C1537 C 0.87380 0.78510 -0.03562
 N1538 N 0.88182 0.79920 -0.02766
 N1539 N 0.89716 0.80553 -0.03388
 C1540 C 0.90510 0.79803 -0.04830
 N1541 N 0.89710 0.78380 -0.05613
 N1542 N 0.88176 0.77746 -0.04993
 C1543 C 0.85637 0.77879 -0.02942
 N1544 N 0.84796 0.76520 -0.03788
 N1545 N 0.83172 0.76013 -0.03287
 C1546 C 0.82331 0.76846 -0.01921
 N1547 N 0.83180 0.78195 -0.01065
 N1548 N 0.84803 0.78701 -0.01566
 C1549 C -0.12439 -0.03425 -0.03498
 N1550 N -0.13237 -0.02647 -0.04921
 N1551 N -0.14777 -0.03270 -0.05544
 C1552 C -0.15580 -0.04696 -0.04772
 N1553 N -0.14785 -0.05459 -0.03337
 N1554 N -0.13245 -0.04838 -0.02713
 C1555 C -0.10691 -0.02808 -0.02876
 N1556 N -0.09851 -0.03652 -0.01516
 N1557 N -0.08222 -0.03158 -0.01016
 C1558 C -0.07375 -0.01801 -0.01856
 N1559 N -0.08222 -0.00946 -0.03206
 N1560 N -0.09850 -0.01441 -0.03707
 C1561 C -0.12209 0.46365 0.46311
 N1562 N -0.13008 0.44952 0.47103
 N1563 N -0.14555 0.44333 0.46496
 C1564 C -0.15370 0.45098 0.45069
 N1565 N -0.14568 0.46524 0.44292
 N1566 N -0.13021 0.47144 0.44898
 C1567 C -0.10466 0.46998 0.46934
 N1568 N -0.09636 0.48372 0.46103
 N1569 N -0.08025 0.48902 0.46625
 C1570 C -0.07185 0.48078 0.47999
 N1571 N -0.08020 0.46710 0.48835
 N1572 N -0.09631 0.46181 0.48313
 C1573 C 0.37822 -0.03569 0.46302
 N1574 N 0.37024 -0.02808 0.44869
 N1575 N 0.35481 -0.03433 0.44257
 C1576 C 0.34673 -0.04843 0.45051
 N1577 N 0.35470 -0.05593 0.46494
 N1578 N 0.37013 -0.04969 0.47106
 C1579 C 0.39560 -0.02931 0.46930
 N1580 N 0.40387 -0.03740 0.48319
 N1581 N 0.41995 -0.03209 0.48846
 C1582 C 0.42836 -0.01848 0.48004
 N1583 N 0.42004 -0.01033 0.46621
 N1584 N 0.40396 -0.01564 0.46094
 C1585 C 0.37787 0.46304 -0.03656
 N1586 N 0.36973 0.47096 -0.05061
 N1587 N 0.35418 0.46490 -0.05662
 C1588 C 0.34611 0.45066 -0.04887
 N1589 N 0.35428 0.44288 -0.03469
 N1590 N 0.36983 0.44893 -0.02867
 C1591 C 0.39535 0.46925 -0.03037
 N1592 N 0.40375 0.46092 -0.01670
 N1593 N 0.41988 0.46615 -0.01148
 C1594 C 0.42820 0.47990 -0.01973
 N1595 N 0.41977 0.48829 -0.03336
 N1596 N 0.40364 0.48306 -0.03858
 C1597 C 0.37360 0.46456 0.78620
 N1598 N 0.38151 0.45034 0.77836
 N1599 N 0.39670 0.44381 0.78479
 C1600 C 0.40457 0.45122 0.79932
 N1601 N 0.39668 0.46556 0.80703
 N1602 N 0.38150 0.47209 0.80061
 C1603 C 0.35633 0.47108 0.77979
 N1604 N 0.34796 0.48470 0.78821
 N1605 N 0.33183 0.48994 0.78304
 C1606 C 0.32347 0.48175 0.76924
 N1607 N 0.33191 0.46824 0.76071
 N1608 N 0.34804 0.46300 0.76588
 C1609 C 0.37185 -0.03668 0.28667
 N1610 N 0.37988 -0.05082 0.27881
 N1611 N 0.39519 -0.05713 0.28515
 C1612 C 0.40307 -0.04959 0.29960
 N1613 N 0.39505 -0.03534 0.30735
 N1614 N 0.37974 -0.02902 0.30102
 C1615 C 0.35456 -0.03026 0.28021
 N1616 N 0.34618 -0.01655 0.28847
 N1617 N 0.33014 -0.01124 0.28309
 C1618 C 0.32189 -0.01945 0.26923
 N1619 N 0.33032 -0.03309 0.26090
 N1620 N 0.34636 -0.03839 0.26628
 C1621 C 0.12781 0.53657 0.71453
 N1622 N 0.11978 0.52854 0.70047
 N1623 N 0.10427 0.53453 0.69431
 C1624 C 0.09616 0.54879 0.70195
 N1625 N 0.10420 0.55672 0.71611
 N1626 N 0.11971 0.55073 0.72228
 C1627 C 0.14528 0.53043 0.72083
 N1628 N 0.15362 0.53880 0.73453
 N1629 N 0.16975 0.53363 0.73979
 C1630 C 0.17813 0.51990 0.73155
 N1631 N 0.16973 0.51147 0.71792
 N1632 N 0.15361 0.51663 0.71266
 C1633 C 0.12603 0.03453 0.21454
 N1634 N 0.11795 0.04869 0.22232
 N1635 N 0.10269 0.05501 0.21588
 C1636 C 0.09490 0.04746 0.20138
 N1637 N 0.10295 0.03319 0.19372
 N1638 N 0.11821 0.02685 0.20016
 C1639 C 0.14338 0.02821 0.22097
 N1640 N 0.15180 0.01457 0.21262
 N1641 N 0.16798 0.00948 0.21778
 C1642 C 0.17634 0.01783 0.23148
 N1643 N 0.16784 0.03136 0.23994
 N1644 N 0.15166 0.03645 0.23478
 C1645 C 0.62354 0.71420 0.21446
 N1646 N 0.63144 0.69979 0.22195
 N1647 N 0.64659 0.69338 0.21536
 C1648 C 0.65445 0.70111 0.20101
 N1649 N 0.64657 0.71564 0.19365
 N1650 N 0.63142 0.72206 0.20024
 C1651 C 0.60630 0.72062 0.22104
 N1652 N 0.59803 0.73453 0.21300
 N1653 N 0.58192 0.73970 0.21828
 C1654 C 0.57349 0.73117 0.23180
 N1655 N 0.58184 0.71737 0.23996
 N1656 N 0.59795 0.71219 0.23468
 C1657 C 0.12348 0.71452 0.71491
 N1658 N 0.13136 0.70016 0.72252
 N1659 N 0.14658 0.69376 0.71607
 C1660 C 0.15452 0.70145 0.70175
 N1661 N 0.14667 0.71593 0.69427
 N1662 N 0.13145 0.72233 0.70071
 C1663 C 0.10617 0.72092 0.72133
 N1664 N 0.09790 0.73474 0.71312
 N1665 N 0.08174 0.73990 0.71826
 C1666 C 0.07327 0.73144 0.73180
 N1667 N 0.08161 0.71773 0.74012
 N1668 N 0.09777 0.71257 0.73498
 C1669 C 0.62720 0.21469 0.53546
 N1670 N 0.61913 0.22269 0.54951
 N1671 N 0.60355 0.21675 0.55553
 C1672 C 0.59541 0.20257 0.54776
 N1673 N 0.60347 0.19468 0.53361
 N1674 N 0.61905 0.20062 0.52758
 C1675 C 0.64474 0.22073 0.52934
 N1676 N 0.65311 0.21232 0.51571
 N1677 N 0.66932 0.21736 0.51061
 C1678 C 0.67777 0.23100 0.51896
 N1679 N 0.66936 0.23948 0.53253
 N1680 N 0.65314 0.23444 0.53763
 C1681 C 0.62780 0.71341 0.03583
 N1682 N 0.61964 0.69934 0.02794
 N1683 N 0.60410 0.69335 0.03404
 C1684 C 0.59610 0.70118 0.04826
 N1685 N 0.60426 0.71535 0.05603
 N1686 N 0.61979 0.72134 0.04994
 C1687 C 0.64526 0.71957 0.02959
 N1688 N 0.65365 0.73327 0.03790
 N1689 N 0.66976 0.73849 0.03266
 C1690 C 0.67807 0.73021 0.01891
 N1691 N 0.66964 0.71657 0.01053
 N1692 N 0.65353 0.71135 0.01578
 C1693 C 0.12196 0.03659 0.03608
 N1694 N 0.13012 0.02856 0.05005
 N1695 N 0.14549 0.03480 0.05633
 C1696 C 0.15334 0.04934 0.04894
 N1697 N 0.14516 0.05723 0.03483
 N1698 N 0.12980 0.05100 0.02853
 C1699 C 0.10461 0.03022 0.02970
 N1700 N 0.09617 0.03859 0.01608
 N1701 N 0.08009 0.03328 0.01080
 C1702 C 0.07186 0.01939 0.01894
 N1703 N 0.08036 0.01095 0.03249
 N1704 N 0.09643 0.01626 0.03777
 C1705 C 0.12361 0.53568 0.53532
 N1706 N 0.13147 0.55010 0.52780
 N1707 N 0.14665 0.55653 0.53433
 C1708 C 0.15459 0.54882 0.54866
 N1709 N 0.14676 0.53428 0.55605
 N1710 N 0.13158 0.52784 0.54952
 C1711 C 0.10633 0.52925 0.52881
 N1712 N 0.09809 0.51535 0.53689
 N1713 N 0.08196 0.51016 0.53166
 C1714 C 0.07347 0.51867 0.51815
 N1715 N 0.08179 0.53247 0.50996
 N1716 N 0.09793 0.53766 0.51519
 C1717 C 0.62393 0.03654 0.53504
 N1718 N 0.63207 0.02857 0.54906
 N1719 N 0.64734 0.03494 0.55545
 C1720 C 0.65511 0.04958 0.54813
 N1721 N 0.64697 0.05738 0.53395
 N1722 N 0.63170 0.05101 0.52755
 C1723 C 0.60658 0.03014 0.52866
 N1724 N 0.59808 0.03858 0.51513
 N1725 N 0.58191 0.03340 0.50999
 C1726 C 0.57365 0.01957 0.51820
 N1727 N 0.58223 0.01102 0.53163
 N1728 N 0.59840 0.01621 0.53676
 C1729 C 0.62376 0.53550 0.03498
 N1730 N 0.63164 0.54984 0.02732
 N1731 N 0.64688 0.55625 0.03375
 C1732 C 0.65484 0.54861 0.04810
 N1733 N 0.64698 0.53416 0.05563
 N1734 N 0.63175 0.52773 0.04920
 C1735 C 0.60644 0.52908 0.02857
 N1736 N 0.59817 0.51528 0.03681
 N1737 N 0.58201 0.51009 0.03168
 C1738 C 0.57351 0.51850 0.01811
 N1739 N 0.58185 0.53220 0.00976
 N1740 N 0.59802 0.53738 0.01490
 C1741 C 0.03669 0.03625 0.12208
 N1742 N 0.05076 0.02836 0.13019
 N1743 N 0.05681 0.03444 0.14574
 C1744 C 0.04907 0.04868 0.15382
 N1745 N 0.03487 0.05643 0.14568
 N1746 N 0.02882 0.05036 0.13014
 C1747 C 0.03047 0.03004 0.10460
 N1748 N 0.01678 0.03836 0.09624
 N1749 N 0.01152 0.03313 0.08011
 C1750 C 0.01975 0.01938 0.07175
 N1751 N 0.03339 0.01100 0.08015
 N1752 N 0.03865 0.01624 0.09628
 C1753 C 0.03563 0.53469 0.62388
 N1754 N 0.05001 0.52713 0.63177
 N1755 N 0.05629 0.53350 0.64711
 C1756 C 0.04845 0.54769 0.65516
 N1757 N 0.03395 0.55511 0.64728
 N1758 N 0.02767 0.54875 0.63195
 C1759 C 0.02932 0.52834 0.60647
 N1760 N 0.01550 0.53652 0.59818
 N1761 N 0.01039 0.53143 0.58196
 C1762 C 0.01890 0.51795 0.57344
 N1763 N 0.03262 0.50966 0.58181
 N1764 N 0.03774 0.51477 0.59802
 C1765 C 0.53513 0.03529 0.62424
 N1766 N 0.52725 0.04946 0.63218
 N1767 N 0.53339 0.05574 0.64760
 C1768 C 0.54768 0.04815 0.65573
 N1769 N 0.55539 0.03381 0.64779
 N1770 N 0.54926 0.02752 0.63237
 C1771 C 0.52900 0.02901 0.60674
 N1772 N 0.53744 0.01540 0.59837
 N1773 N 0.53248 0.01035 0.58209
 C1774 C 0.51890 0.01872 0.57359
 N1775 N 0.51037 0.03223 0.58203
 N1776 N 0.51533 0.03729 0.59831
 C1777 C 0.53550 0.53463 0.12389
 N1778 N 0.52766 0.54879 0.13190
 N1779 N 0.53399 0.55515 0.14722
 C1780 C 0.54841 0.54763 0.15514
 N1781 N 0.55613 0.53334 0.14715
 N1782 N 0.54981 0.52697 0.13183
 C1783 C 0.52917 0.52828 0.10649
 N1784 N 0.53744 0.51456 0.09813
 N1785 N 0.53232 0.50945 0.08192
 C1786 C 0.51873 0.51786 0.07348
 N1787 N 0.51035 0.53148 0.08191
 N1788 N 0.51547 0.53658 0.09812
 C1789 C 0.21359 0.53644 0.62814
 N1790 N 0.19942 0.52867 0.62004
 N1791 N 0.19327 0.53495 0.60463
 C1792 C 0.20102 0.54926 0.59670
 N1793 N 0.21528 0.55692 0.60480
 N1794 N 0.22144 0.55064 0.62021
 C1795 C 0.21988 0.53004 0.64552
 N1796 N 0.23371 0.53820 0.65384
 N1797 N 0.23897 0.53289 0.66993
 C1798 C 0.23060 0.51923 0.67829
 N1799 N 0.21683 0.51100 0.66993
 N1800 N 0.21157 0.51631 0.65383
 C1801 C 0.21369 0.03463 0.12610
 N1802 N 0.19928 0.02709 0.11823
 N1803 N 0.19282 0.03363 0.10305
 C1804 C 0.20050 0.04798 0.09514
 N1805 N 0.21504 0.05538 0.10298
 N1806 N 0.22150 0.04885 0.11816
 C1807 C 0.22015 0.02812 0.14337
 N1808 N 0.23406 0.03621 0.15162
 N1809 N 0.23926 0.03100 0.16776
 C1810 C 0.23076 0.01750 0.17625
 N1811 N 0.21696 0.00929 0.16793
 N1812 N 0.21176 0.01450 0.15178
 C1813 C 0.71352 0.21364 0.62232
 N1814 N 0.69950 0.22153 0.63050
 N1815 N 0.69354 0.21544 0.64606
 C1816 C 0.70136 0.20122 0.65406
 N1817 N 0.71548 0.19344 0.64588
 N1818 N 0.72144 0.19952 0.63033
 C1819 C 0.71965 0.21985 0.60483
 N1820 N 0.73328 0.21151 0.59642
 N1821 N 0.73846 0.21673 0.58028
 C1822 C 0.73019 0.23048 0.57195
 N1823 N 0.71661 0.23888 0.58040
 N1824 N 0.71143 0.23366 0.59654
 C1825 C 0.71310 0.71358 0.12138
 N1826 N 0.72095 0.69934 0.12925
 N1827 N 0.71484 0.69303 0.14465
 C1828 C 0.70063 0.70068 0.15281
 N1829 N 0.69289 0.71502 0.14495
 N1830 N 0.69899 0.72134 0.12954
 C1831 C 0.71935 0.72004 0.10402
 N1832 N 0.71107 0.73384 0.09579
 N1833 N 0.71631 0.73924 0.07973
 C1834 C 0.73003 0.73105 0.07130
 N1835 N 0.73838 0.71732 0.07958
 N1836 N 0.73314 0.71192 0.09564
 C1837 C 0.53548 0.71513 0.12612
 N1838 N 0.52756 0.70104 0.11805
 N1839 N 0.53384 0.69471 0.10272
 C1840 C 0.54830 0.70219 0.09485
 N1841 N 0.55610 0.71641 0.10290
 N1842 N 0.54983 0.72275 0.11823
 C1843 C 0.52919 0.72144 0.14353
 N1844 N 0.53759 0.73506 0.15197
 N1845 N 0.53250 0.74014 0.16819
 C1846 C 0.51883 0.73180 0.17656
 N1847 N 0.51034 0.71829 0.16805
 N1848 N 0.51542 0.71321 0.15183
 C1849 C 0.03538 0.71527 0.62607
 N1850 N 0.02756 0.70109 0.61803
 N1851 N 0.03391 0.69473 0.60275
 C1852 C 0.04835 0.70226 0.59488
 N1853 N 0.05606 0.71656 0.60290
 N1854 N 0.04971 0.72293 0.61819
 C1855 C 0.02900 0.72162 0.64344
 N1856 N 0.03726 0.73535 0.65183
 N1857 N 0.03210 0.74046 0.66802
 C1858 C 0.01849 0.73203 0.67641
 N1859 N 0.01014 0.71840 0.66795
 N1860 N 0.01529 0.71330 0.65176
 C1861 C 0.53515 0.62617 0.21512
 N1862 N 0.54949 0.61836 0.22284
 N1863 N 0.55588 0.60306 0.21656
 C1864 C 0.54821 0.59496 0.20230
 N1865 N 0.53375 0.60275 0.19470
 N1866 N 0.52735 0.61805 0.20098
 C1867 C 0.52876 0.64356 0.22140
 N1868 N 0.51497 0.65182 0.21314
 N1869 N 0.50984 0.66803 0.21819
 C1870 C 0.51831 0.67657 0.23171
 N1871 N 0.53200 0.66824 0.24007
 N1872 N 0.53712 0.65203 0.23502
 C1873 C 0.03494 0.62637 0.71483
 N1874 N 0.02732 0.61829 0.70057
 N1875 N 0.03375 0.60296 0.69438
 C1876 C 0.04807 0.59511 0.70219
 N1877 N 0.05556 0.60317 0.71657
 N1878 N 0.04913 0.61850 0.72276
 C1879 C 0.02852 0.64377 0.72102
 N1880 N 0.03661 0.65216 0.73485
 N1881 N 0.03144 0.66837 0.73985
 C1882 C 0.01798 0.67679 0.73121
 N1883 N 0.00978 0.66834 0.71748
 N1884 N 0.01495 0.65212 0.71248
 C1885 C 0.03612 0.12194 0.03685
 N1886 N 0.05031 0.12986 0.02898
 N1887 N 0.05661 0.14526 0.03513
 C1888 C 0.04899 0.15336 0.04940
 N1889 N 0.03470 0.14544 0.05717
 N1890 N 0.02839 0.13004 0.05102
 C1891 C 0.02969 0.10457 0.03056
 N1892 N 0.01593 0.09629 0.03886
 N1893 N 0.01058 0.08021 0.03360
 C1894 C 0.01877 0.07182 0.01984
 N1895 N 0.03245 0.08016 0.01148
 N1896 N 0.03781 0.09623 0.01674
 C1897 C 0.03514 0.62364 0.53497
 N1898 N 0.02735 0.63176 0.54910
 N1899 N 0.03375 0.64708 0.55537
 C1900 C 0.04821 0.65488 0.54778
 N1901 N 0.05586 0.64678 0.53353
 N1902 N 0.04947 0.63147 0.52725
 C1903 C 0.02875 0.60625 0.52869
 N1904 N 0.03709 0.59778 0.51507
 N1905 N 0.03196 0.58157 0.51001
 C1906 C 0.01828 0.57322 0.51837
 N1907 N 0.00983 0.58175 0.53188
 N1908 N 0.01497 0.59797 0.53694
 C1909 C 0.53458 0.12476 0.53450
 N1910 N 0.54884 0.13265 0.52673
 N1911 N 0.55512 0.14804 0.53293
 C1912 C 0.54742 0.15615 0.54715
 N1913 N 0.53303 0.14828 0.55479
 N1914 N 0.52674 0.13289 0.54860
 C1915 C 0.52834 0.10727 0.52835
 N1916 N 0.51464 0.09894 0.53667
 N1917 N 0.50965 0.08264 0.53173
 C1918 C 0.51818 0.07408 0.51828
 N1919 N 0.53178 0.08249 0.50986
 N1920 N 0.53676 0.09879 0.51480
 C1921 C 0.53496 0.62357 0.03501
 N1922 N 0.54915 0.63148 0.02714
 N1923 N 0.55554 0.64682 0.03338
 C1924 C 0.54800 0.65485 0.04773
 N1925 N 0.53368 0.64696 0.05547
 N1926 N 0.52729 0.63162 0.04925
 C1927 C 0.52859 0.60615 0.02880
 N1928 N 0.51502 0.59776 0.03730
 N1929 N 0.50990 0.58153 0.03229
 C1930 C 0.51816 0.57309 0.01861
 N1931 N 0.53161 0.58154 0.01001
 N1932 N 0.53673 0.59778 0.01502
 C1933 C 0.71346 0.12785 0.53676
 N1934 N 0.69929 0.11991 0.52885
 N1935 N 0.69307 0.10445 0.53490
 C1936 C 0.70073 0.09625 0.54913
 N1937 N 0.71504 0.10421 0.55690
 N1938 N 0.72127 0.11968 0.55086
 C1939 C 0.71984 0.14527 0.53056
 N1940 N 0.73363 0.15351 0.53887
 N1941 N 0.73898 0.16960 0.53366
 C1942 C 0.73074 0.17805 0.51995
 N1943 N 0.71701 0.16975 0.51159
 N1944 N 0.71166 0.15367 0.51680
 C1945 C 0.71404 0.62788 0.03605
 N1946 N 0.72175 0.62001 0.05038
 N1947 N 0.71557 0.60460 0.05662
 C1948 C 0.70143 0.59644 0.04879
 N1949 N 0.69384 0.60431 0.03436
 N1950 N 0.70001 0.61972 0.02812
 C1951 C 0.72032 0.64526 0.02967
 N1952 N 0.71214 0.65344 0.01578
 N1953 N 0.71735 0.66954 0.01045
 C1954 C 0.73095 0.67804 0.01881
 N1955 N 0.73920 0.66981 0.03263
 N1956 N 0.73399 0.65372 0.03796
 C1957 C 0.21351 0.62200 0.71340
 N1958 N 0.22132 0.63002 0.69923
 N1959 N 0.21517 0.64548 0.69309
 C1960 C 0.20097 0.65354 0.70086
 N1961 N 0.19327 0.64552 0.71513
 N1962 N 0.19941 0.63006 0.72128
 C1963 C 0.21980 0.60460 0.71971
 N1964 N 0.21153 0.59628 0.73345
 N1965 N 0.21680 0.58021 0.73877
 C1966 C 0.23054 0.57186 0.73053
 N1967 N 0.23888 0.58022 0.71685
 N1968 N 0.23360 0.59630 0.71154
 C1969 C 0.21534 0.12359 0.21465
 N1970 N 0.22300 0.13154 0.20036
 N1971 N 0.21677 0.14695 0.19418
 C1972 C 0.20261 0.15502 0.20204
 N1973 N 0.19509 0.14709 0.21645
 N1974 N 0.20132 0.13168 0.22263
 C1975 C 0.22154 0.10610 0.22081
 N1976 N 0.21328 0.09776 0.23455
 N1977 N 0.21826 0.08149 0.23954
 C1978 C 0.23168 0.07296 0.23097
 N1979 N 0.24004 0.08136 0.21733
 N1980 N 0.23506 0.09764 0.21234
 C1981 C 0.71500 1.12408 0.71440
 N1982 N 0.72251 1.13191 0.69997
 N1983 N 0.71614 1.14721 0.69367
 C1984 C 0.70197 1.15532 0.70149
 N1985 N 0.69463 1.14748 0.71608
 N1986 N 0.70099 1.13218 0.72239
 C1987 C 0.72133 1.10669 0.72070
 N1988 N 0.71321 1.09844 0.73458
 N1989 N 0.71829 1.08223 0.73967
 C1990 C 0.73168 1.07367 0.73107
 N1991 N 0.73990 1.08199 0.71729
 N1992 N 0.73482 1.09820 0.71220
 C1993 C 0.71361 0.62179 0.21247
 N1994 N 0.72131 0.62976 0.19820
 N1995 N 0.71509 0.64517 0.19202
 C1996 C 0.70092 0.65324 0.19985
 N1997 N 0.69333 0.64527 0.21421
 N1998 N 0.69954 0.62986 0.22039
 C1999 C 0.71997 0.60444 0.21884
 N2000 N 0.71177 0.59616 0.23265
 N2001 N 0.71710 0.58013 0.23802
 C2002 C 0.73084 0.57177 0.22979
 N2003 N 0.73910 0.58009 0.21603
 N2004 N 0.73377 0.59613 0.21065
 C2005 C 0.53462 0.12580 0.71454
 N2006 N 0.52692 0.11782 0.70026
 N2007 N 0.53318 0.10243 0.69406
 C2008 C 0.54742 0.09437 0.70183
 N2009 N 0.55494 0.10236 0.71627
 N2010 N 0.54870 0.11774 0.72248
 C2011 C 0.52838 0.14326 0.72076
 N2012 N 0.53657 0.15155 0.73459
 N2013 N 0.53154 0.16779 0.73964
 C2014 C 0.51814 0.17635 0.73104
 N2015 N 0.50985 0.16799 0.71730
 N2016 N 0.51487 0.15175 0.71225
 C2017 C 1.03478 0.12587 0.21418
 N2018 N 1.04893 0.11783 0.22202
 N2019 N 1.05527 0.10254 0.21565
 C2020 C 1.04773 0.09467 0.20119
 N2021 N 1.03345 0.10268 0.19349
 N2022 N 1.02710 0.11797 0.19984
 C2023 C 1.02846 0.14324 0.22055
 N2024 N 1.01476 0.15163 0.21227
 N2025 N 1.00968 0.16783 0.21741
 C2026 C 1.01812 0.17623 0.23103
 N2027 N 1.03171 0.16777 0.23942
 N2028 N 1.03678 0.15157 0.23428
 C2029 C 0.21364 0.62832 0.53729
 N2030 N 0.22140 0.62031 0.55150
 N2031 N 0.21522 0.60485 0.55762
 C2032 C 0.20104 0.59679 0.54978
 N2033 N 0.19338 0.60480 0.53547
 N2034 N 0.19955 0.62026 0.52935
 C2035 C 0.21995 0.64572 0.53100
 N2036 N 0.21171 0.65403 0.51722
 N2037 N 0.21700 0.67010 0.51192
 C2038 C 0.23074 0.67846 0.52019
 N2039 N 0.23904 0.67011 0.53391
 N2040 N 0.23374 0.65404 0.53922
 C2041 C 0.21253 0.12777 1.03665
 N2042 N 0.19825 0.11992 1.02884
 N2043 N 0.19202 0.10446 1.03490
 C2044 C 0.19981 0.09624 1.04902
 N2045 N 0.21418 0.10409 1.05673
 N2046 N 0.22042 0.11955 1.05067
 C2047 C 0.21892 0.14517 1.03043
 N2048 N 0.23283 0.15334 1.03861
 N2049 N 0.23820 0.16941 1.03336
 C2050 C 0.22987 0.17789 1.01974
 N2051 N 0.21602 0.16968 1.01150
 N2052 N 0.21065 0.15361 1.01675
 C2053 C 0.21373 0.71387 0.62254
 N2054 N 0.19956 0.72165 0.63060
 N2055 N 0.19337 0.71536 0.64598
 C2056 C 0.20108 0.70105 0.65393
 N2057 N 0.21535 0.69339 0.64588
 N2058 N 0.22155 0.69967 0.63050
 C2059 C 0.22004 0.72027 0.60518
 N2060 N 0.23387 0.71212 0.59689
 N2061 N 0.23914 0.71743 0.58082
 C2062 C 0.23079 0.73109 0.57243
 N2063 N 0.21703 0.73932 0.58077
 N2064 N 0.21176 0.73401 0.59685
 C2065 C 0.21402 0.21419 1.12268
 N2066 N 0.22203 0.20018 1.13079
 N2067 N 0.21605 0.19412 1.14634
 C2068 C 0.20183 0.20182 1.15443
 N2069 N 0.19393 0.21594 1.14633
 N2070 N 0.19989 0.22201 1.13077
 C2071 C 0.22010 0.22034 1.10516
 N2072 N 0.21171 0.23396 1.09673
 N2073 N 0.21681 0.23907 1.08053
 C2074 C 0.23049 0.23074 1.07216
 N2075 N 0.23894 0.21719 1.08062
 N2076 N 0.23384 0.21209 1.09682
 C2077 C 0.71395 0.53642 0.12749
 N2078 N 0.69980 0.52862 0.11939
 N2079 N 0.69365 0.53488 0.10397
 C2080 C 0.70137 0.54918 0.09603
 N2081 N 0.71562 0.55688 0.10412
 N2082 N 0.72178 0.55063 0.11954
 C2083 C 0.72024 0.53003 0.14487
 N2084 N 0.73406 0.53819 0.15320
 N2085 N 0.73932 0.53287 0.16929
 C2086 C 0.73096 0.51920 0.17765
 N2087 N 0.71720 0.51097 0.16927
 N2088 N 0.71195 0.51629 0.15318
 C2089 C 0.71453 1.03550 0.62608
 N2090 N 0.72227 1.04984 0.61829
 N2091 N 0.71595 1.05632 0.60303
 C2092 C 0.70164 1.04875 0.59495
 N2093 N 0.69403 1.03428 0.60271
 N2094 N 0.70034 1.02779 0.61797
 C2095 C 0.72083 1.02902 0.64343
 N2096 N 0.71255 1.01524 0.65168
 N2097 N 0.71763 1.01005 0.66788
 C2098 C 0.73119 1.01844 0.67641
 N2099 N 0.73958 1.03211 0.66808
 N2100 N 0.73450 1.03730 0.65189
 C2101 C 0.53492 0.21604 0.62579
 N2102 N 0.52701 0.20197 0.61766
 N2103 N 0.53324 0.19578 0.60225
 C2104 C 0.54763 0.20337 0.59437
 N2105 N 0.55541 0.21757 0.60248
 N2106 N 0.54919 0.22378 0.61788
 C2107 C 0.52871 0.22217 0.64329
 N2108 N 0.53705 0.23578 0.65179
 N2109 N 0.53205 0.24067 0.66809
 C2110 C 0.51851 0.23214 0.67649
 N2111 N 0.51007 0.21864 0.66792
 N2112 N 0.51507 0.21375 0.65162
 C2113 C 1.03600 0.21437 0.12615
 N2114 N 1.02821 0.20012 0.11825
 N2115 N 1.03464 0.19357 0.10308
 C2116 C 1.04915 0.20096 0.09517
 N2117 N 1.05678 0.21539 0.10307
 N2118 N 1.05035 0.22194 0.11825
 C2119 C 1.02955 0.22090 0.14343
 N2120 N 1.03790 0.23457 0.15182
 N2121 N 1.03269 0.23979 0.16796
 C2122 C 1.01894 0.23154 0.17629
 N2123 N 1.01050 0.21798 0.16781
 N2124 N 1.01570 0.21276 0.15168
 C2125 C 0.62396 0.21461 0.71523
 N2126 N 0.63187 0.22243 0.70101
 N2127 N 0.64717 0.21616 0.69463
 C2128 C 0.65517 0.20181 0.70221
 N2129 N 0.64728 0.19412 0.71656
 N2130 N 0.63198 0.20038 0.72295
 C2131 C 0.60657 0.22086 0.72158
 N2132 N 0.59820 0.21245 0.73521
 N2133 N 0.58199 0.21749 0.74031
 C2134 C 0.57356 0.23113 0.73197
 N2135 N 0.58200 0.23964 0.71844
 N2136 N 0.59821 0.23460 0.71335
 C2137 C 1.12406 0.21478 0.21526
 N2138 N 1.13209 0.20055 0.22295
 N2139 N 1.14746 0.19438 0.21663
 C2140 C 1.15541 0.20218 0.20238
 N2141 N 1.14741 0.21654 0.19483
 N2142 N 1.13204 0.22272 0.20114
 C2143 C 1.10662 0.22093 0.22154
 N2144 N 1.09827 0.23472 0.21336
 N2145 N 1.08202 0.23968 0.21840
 C2146 C 1.07351 0.23104 0.23180
 N2147 N 1.08193 0.21735 0.24008
 N2148 N 1.09818 0.21239 0.23505
 C2149 C 0.12797 0.71352 0.53597
 N2150 N 0.11988 0.69937 0.52815
 N2151 N 0.10435 0.69337 0.53425
 C2152 C 0.09629 0.70124 0.54840
 N2153 N 0.10439 0.71548 0.55611
 N2154 N 0.11991 0.72150 0.55003
 C2155 C 0.14544 0.71969 0.52974
 N2156 N 0.15377 0.73348 0.53796
 N2157 N 0.16990 0.73868 0.53274
 C2158 C 0.17829 0.73029 0.51911
 N2159 N 0.16992 0.71656 0.51083
 N2160 N 0.15379 0.71136 0.51604
 C2161 C 0.12779 0.21292 1.03622
 N2162 N 0.11976 0.19865 1.02857
 N2163 N 0.10437 0.19250 1.03488
 C2164 C 0.09640 0.20037 1.04910
 N2165 N 0.10443 0.21474 1.05664
 N2166 N 0.11981 0.22089 1.05033
 C2167 C 0.14514 0.21921 1.02978
 N2168 N 0.15347 0.23305 1.03790
 N2169 N 0.16953 0.23831 1.03254
 C2170 C 0.17785 0.22992 1.01887
 N2171 N 0.16947 0.21614 1.01068
 N2172 N 0.15341 0.21088 1.01604
 C2173 C 0.62806 0.53648 0.21412
 N2174 N 0.61996 0.55060 0.22195
 N2175 N 0.60441 0.55657 0.21586
 C2176 C 0.59633 0.54869 0.20170
 N2177 N 0.60443 0.53447 0.19398
 N2178 N 0.61998 0.52849 0.20006
 C2179 C 0.64555 0.53035 0.22034
 N2180 N 0.65389 0.51659 0.21211
 N2181 N 0.67003 0.51144 0.21731
 C2182 C 0.67844 0.51984 0.23095
 N2183 N 0.67007 0.53354 0.23924
 N2184 N 0.65392 0.53870 0.23404
 C2185 C 0.62561 1.03525 0.71534
 N2186 N 0.61763 1.04950 0.72306
 N2187 N 0.60223 1.05567 0.71679
 C2188 C 0.59420 1.04788 0.70255
 N2189 N 0.60217 1.03351 0.69497
 N2190 N 0.61756 1.02732 0.70123
 C2191 C 0.64308 1.02907 0.72157
 N2192 N 0.65142 1.01534 0.71329
 N2193 N 0.66768 1.01034 0.71829
 C2194 C 0.67620 1.01887 0.73178
 N2195 N 0.66780 1.03251 0.74016
 N2196 N 0.65154 1.03751 0.73515
 C2197 C 0.87383 0.46447 0.28581
 N2198 N 0.88167 0.47200 0.30025
 N2199 N 0.89682 0.46546 0.30673
 C2200 C 0.90473 0.45111 0.29906
 N2201 N 0.89691 0.44371 0.28450
 N2202 N 0.88176 0.45025 0.27800
 C2203 C 0.85659 0.47101 0.27932
 N2204 N 0.84833 0.46292 0.26541
 N2205 N 0.83222 0.46817 0.26019
 C2206 C 0.82377 0.48170 0.26868
 N2207 N 0.83210 0.48989 0.28249
 N2208 N 0.84822 0.48465 0.28771
 C2209 C 0.87156 0.96341 0.78700
 N2210 N 0.87949 0.94920 0.77917
 N2211 N 0.89492 0.94299 0.78531
 C2212 C 0.90304 0.95074 0.79952
 N2213 N 0.89511 0.96505 0.80724
 N2214 N 0.87968 0.97127 0.80111
 C2215 C 0.85418 0.96976 0.78069
 N2216 N 0.84594 0.98362 0.78886
 N2217 N 0.82988 0.98894 0.78355
 C2218 C 0.82148 0.98061 0.76987
 N2219 N 0.82976 0.96681 0.76164
 N2220 N 0.84582 0.96149 0.76696
 C2221 C 0.37787 0.28593 0.78657
 N2222 N 0.36984 0.30004 0.77866
 N2223 N 0.35427 0.30606 0.78462
 C2224 C 0.34610 0.29822 0.79872
 N2225 N 0.35413 0.28401 0.80653
 N2226 N 0.36970 0.27798 0.80058
 C2227 C 0.39537 0.27976 0.78045
 N2228 N 0.40366 0.26596 0.78866
 N2229 N 0.41980 0.26076 0.78347
 C2230 C 0.42824 0.26919 0.76989
 N2231 N 0.41991 0.28295 0.76164
 N2232 N 0.40378 0.28814 0.76682
 C2233 C 0.87778 0.28542 0.28621
 N2234 N 0.86966 0.27764 0.30034
 N2235 N 0.85415 0.28379 0.30632
 C2236 C 0.84614 0.29797 0.29843
 N2237 N 0.85426 0.30564 0.28420
 N2238 N 0.86976 0.29950 0.27821
 C2239 C 0.89524 0.27915 0.28007
 N2240 N 0.90360 0.28735 0.26631
 N2241 N 0.91973 0.28211 0.26116
 C2242 C 0.92810 0.26847 0.26958
 N2243 N 0.91969 0.26020 0.28327
 N2244 N 0.90356 0.26544 0.28843
 C2245 C 0.37343 0.78647 0.46428
 N2246 N 0.38130 0.80077 0.47205
 N2247 N 0.39642 0.80737 0.46557
 C2248 C 0.40427 0.79997 0.45104
 N2249 N 0.39642 0.78555 0.44340
 N2250 N 0.38130 0.77894 0.44987
 C2251 C 0.35623 0.77983 0.47078
 N2252 N 0.34792 0.76611 0.46242
 N2253 N 0.33185 0.76075 0.46767
 C2254 C 0.32352 0.76890 0.48148
 N2255 N 0.33191 0.78250 0.48995
 N2256 N 0.34797 0.78786 0.48471
 C2257 C 0.37356 0.28450 0.96455
 N2258 N 0.38146 0.27696 0.95016
 N2259 N 0.39670 0.28343 0.94384
 C2260 C 0.40465 0.29771 0.95163
 N2261 N 0.39678 0.30511 0.96614
 N2262 N 0.38154 0.29865 0.97247
 C2263 C 0.35623 0.27807 0.97087
 N2264 N 0.34797 0.28616 0.98476
 N2265 N 0.33179 0.28101 0.98985
 C2266 C 0.32327 0.26758 0.98124
 N2267 N 0.33160 0.25938 0.96745
 N2268 N 0.34778 0.26452 0.96236
 C2269 C 0.78567 0.46470 0.37357
 N2270 N 0.79999 0.47246 0.38140
 N2271 N 0.80644 0.46616 0.39668
 C2272 C 0.79886 0.45185 0.40474
 N2273 N 0.78441 0.44423 0.39693
 N2274 N 0.77795 0.45051 0.38165
 C2275 C 0.77922 0.47101 0.35620
 N2276 N 0.76544 0.46273 0.34791
 N2277 N 0.76026 0.46782 0.33171
 C2278 C 0.76867 0.48139 0.32322
 N2279 N 0.78234 0.48977 0.33159
 N2280 N 0.78751 0.48468 0.34778
 C2281 C 0.78518 0.96451 0.87271
 N2282 N 0.79920 0.97252 0.88083
 N2283 N 0.80524 0.96653 0.89640
 C2284 C 0.79752 0.95231 0.90448
 N2285 N 0.78339 0.94442 0.89637
 N2286 N 0.77733 0.95040 0.88080
 C2287 C 0.77903 0.97061 0.85517
 N2288 N 0.76541 0.96220 0.84674
 N2289 N 0.76030 0.96730 0.83053
 C2290 C 0.76861 0.98099 0.82215
 N2291 N 0.78216 0.98946 0.83063
 N2292 N 0.78728 0.98436 0.84683
 C2293 C 0.28569 0.78621 0.37691
 N2294 N 0.27809 0.80055 0.36898
 N2295 N 0.28465 0.80702 0.35383
 C2296 C 0.29908 0.79944 0.34600
 N2297 N 0.30655 0.78498 0.35390
 N2298 N 0.30000 0.77850 0.36905
 C2299 C 0.27915 0.77972 0.39416
 N2300 N 0.28739 0.76598 0.40250
 N2301 N 0.28216 0.76076 0.41862
 C2302 C 0.26847 0.76907 0.42698
 N2303 N 0.26011 0.78271 0.41856
 N2304 N 0.26536 0.78793 0.40244
 C2305 C 0.28479 0.28461 0.87607
 N2306 N 0.27702 0.29876 0.86796
 N2307 N 0.28343 0.30503 0.85266
 C2308 C 0.29787 0.29743 0.84487
 N2309 N 0.30551 0.28317 0.85295
 N2310 N 0.29911 0.27689 0.86825
 C2311 C 0.27841 0.27836 0.89346
 N2312 N 0.28674 0.26473 0.90192
 N2313 N 0.28163 0.25970 0.91814
 C2314 C 0.26800 0.26810 0.92650
 N2315 N 0.25956 0.28162 0.91797
 N2316 N 0.26467 0.28665 0.90175
 C2317 C 0.46404 0.28600 0.87250
 N2318 N 0.47170 0.30031 0.88046
 N2319 N 0.46548 0.30648 0.89588
 C2320 C 0.45135 0.29860 0.90397
 N2321 N 0.44381 0.28418 0.89602
 N2322 N 0.45002 0.27801 0.88060
 C2323 C 0.47035 0.27970 0.85510
 N2324 N 0.46221 0.26583 0.84684
 N2325 N 0.46744 0.26058 0.83072
 C2326 C 0.48103 0.26899 0.82229
 N2327 N 0.48925 0.28279 0.83061
 N2328 N 0.48401 0.28805 0.84672
 C2329 C 0.96352 0.28646 0.37187
 N2330 N 0.94943 0.27856 0.37993
 N2331 N 0.94331 0.28468 0.39541
 C2332 C 0.95103 0.29895 0.40346
 N2333 N 0.96522 0.30675 0.39539
 N2334 N 0.97135 0.30063 0.37991
 C2335 C 0.96978 0.28018 0.35445
 N2336 N 0.98359 0.28836 0.34616
 N2337 N 0.98886 0.28307 0.33006
 C2338 C 0.98050 0.26941 0.32167
 N2339 N 0.96674 0.26117 0.33000
 N2340 N 0.96148 0.26645 0.34609
 C2341 C 0.46329 0.37170 0.78682
 N2342 N 0.44918 0.37986 0.77904
 N2343 N 0.44308 0.39527 0.78537
 C2344 C 0.45083 0.40313 0.79973
 N2345 N 0.46504 0.39497 0.80740
 N2346 N 0.47115 0.37957 0.80108
 C2347 C 0.46954 0.35434 0.78035
 N2348 N 0.48331 0.34595 0.78851
 N2349 N 0.48855 0.32989 0.78311
 C2350 C 0.48020 0.32163 0.76935
 N2351 N 0.46649 0.33006 0.76112
 N2352 N 0.46126 0.34612 0.76653
 C2353 C 0.96365 0.37175 0.28661
 N2354 N 0.94952 0.37987 0.27883
 N2355 N 0.94336 0.39524 0.28518
 C2356 C 0.95107 0.40311 0.29956
 N2357 N 0.96531 0.39499 0.30722
 N2358 N 0.97147 0.37962 0.30088
 C2359 C 0.96995 0.35440 0.28014
 N2360 N 0.98375 0.34606 0.28828
 N2361 N 0.98901 0.33000 0.28291
 C2362 C 0.98066 0.32169 0.26918
 N2363 N 0.96692 0.33008 0.26096
 N2364 N 0.96166 0.34615 0.26634
 C2365 C 0.28579 0.87404 0.46518
 N2366 N 0.30020 0.88194 0.47270
 N2367 N 0.30660 0.89713 0.46614
 C2368 C 0.29887 0.90501 0.45179
 N2369 N 0.28434 0.89713 0.44441
 N2370 N 0.27793 0.88195 0.45096
 C2371 C 0.27939 0.85676 0.47169
 N2372 N 0.26554 0.84846 0.46354
 N2373 N 0.26039 0.83230 0.46874
 C2374 C 0.26888 0.82386 0.48228
 N2375 N 0.28262 0.83223 0.49055
 N2376 N 0.28777 0.84839 0.48535
 C2377 C 0.28576 0.37349 0.96542
 N2378 N 0.27784 0.38163 0.95137
 N2379 N 0.28420 0.39693 0.94506
 C2380 C 0.29874 0.40471 0.95253
 N2381 N 0.30654 0.39659 0.96670
 N2382 N 0.30018 0.38128 0.97302
 C2383 C 0.27939 0.35611 0.97170
 N2384 N 0.28777 0.34760 0.98528
 N2385 N 0.28261 0.33140 0.99032
 C2386 C 0.26887 0.32311 0.98198
 N2387 N 0.26039 0.33168 0.96851
 N2388 N 0.26554 0.34789 0.96347
 C2389 C 0.78572 0.37600 0.28448
 N2390 N 0.77776 0.36794 0.29855
 N2391 N 0.78402 0.35261 0.30489
 C2392 C 0.79849 0.34472 0.29744
 N2393 N 0.80632 0.35276 0.28325
 N2394 N 0.80007 0.36810 0.27690
 C2395 C 0.77945 0.39341 0.27816
 N2396 N 0.78788 0.40186 0.26459
 N2397 N 0.78280 0.41808 0.25951
 C2398 C 0.76911 0.42644 0.26782
 N2399 N 0.76058 0.41793 0.28129
 N2400 N 0.76566 0.40171 0.28636
   
