data_POSCAR
  _audit_creation_date              2014-09-24
  _audit_creation_method            'ToBaCCo'
  _symmetry_space_group_name_H-M    'P1'
  _symmetry_Int_Tables_number       1
  _symmetry_cell_setting            triclinic
  loop_
  _symmetry_equiv_pos_as_xyz
 x,y,z
_cell_length_a 38.9830
_cell_length_b 38.9352
_cell_length_c 38.6947
_cell_angle_alpha 89.896200
_cell_angle_beta 90.279400
_cell_angle_gamma 89.748200
loop_
  _atom_site_label
  _atom_site_type_symbol
  _atom_site_fract_x
  _atom_site_fract_y
  _atom_site_fract_z
C1 C 0.24290 1.00228 -0.01284
 C2 C 0.24297 1.00221 0.02238
 C3 C 0.23604 0.97045 0.04261
 C4 C 0.25067 1.03388 0.04247
 C5 C 0.23717 1.03470 -0.03258
 C6 C 0.25039 0.97038 -0.03269
 C7 C 0.20778 0.94975 0.03436
 C8 C 0.19833 0.92281 0.05618
 C9 C 0.21669 0.91631 0.08686
 C10 C 0.24553 0.93643 0.09460
 C11 C 0.25516 0.96313 0.07263
 C12 C 0.28001 1.05312 0.03495
 C13 C 0.29000 1.08008 0.05642
 C14 C 0.27100 1.08844 0.08625
 C15 C 0.24109 1.06938 0.09324
 C16 C 0.23111 1.04250 0.07157
 C17 C 0.25727 1.04271 -0.06155
 C18 C 0.25138 1.07303 -0.08015
 C19 C 0.22539 1.09594 -0.06997
 C20 C 0.20504 1.08764 -0.04134
 C21 C 0.21064 1.05723 -0.02307
 C22 C 0.27851 0.94972 -0.02328
 C23 C 0.28783 0.92155 -0.04339
 C24 C 0.26944 0.91341 -0.07359
 C25 C 0.24114 0.93395 -0.08302
 C26 C 0.23176 0.96224 -0.06276
 H27 H 0.19226 0.95521 0.01170
 H28 H 0.17608 0.90762 0.04946
 H29 H 0.26062 0.93178 0.11768
 H30 H 0.27711 0.97869 0.07952
 H31 H 0.29591 1.04651 0.01304
 H32 H 0.31310 1.09392 0.04978
 H33 H 0.20845 1.02784 0.07796
 H34 H 0.27779 1.02569 -0.06951
 H35 H 0.26766 1.07883 -0.10195
 H36 H 0.18467 1.10470 -0.03304
 H37 H 0.19419 1.05126 -0.00141
 H38 H 0.29388 0.95591 -0.00076
 H39 H 0.30979 0.90632 -0.03539
 H40 H 0.22636 0.92839 -0.10605
 H41 H 0.21016 0.97801 -0.07072
 H42 H 0.22538 1.07466 0.11557
 C43 C 0.76590 0.48843 0.46871
 C44 C 0.77826 0.49189 0.50169
 C45 C 0.78568 0.46231 0.52503
 C46 C 0.78292 0.52648 0.51767
 C47 C 0.75433 0.51959 0.44946
 C48 C 0.76405 0.45466 0.45030
 C49 C 0.76113 0.43672 0.53124
 C50 C 0.76619 0.41275 0.55786
 C51 C 0.79548 0.41460 0.57914
 C52 C 0.82051 0.43931 0.57201
 C53 C 0.81580 0.46272 0.54510
 C54 C 0.76683 0.53393 0.54915
 C55 C 0.77070 0.56606 0.56454
 C56 C 0.79055 0.59159 0.54863
 C57 C 0.80676 0.58420 0.51717
 C58 C 0.80345 0.55171 0.50209
 C59 C 0.77174 0.52992 0.41961
 C60 C 0.76571 0.56246 0.40538
 C61 C 0.74216 0.58516 0.42083
 C62 C 0.72316 0.57383 0.44935
 C63 C 0.72886 0.54115 0.46326
 C64 C 0.79046 0.43003 0.45321
 C65 C 0.78788 0.39835 0.43639
 C66 C 0.75966 0.39113 0.41499
 C67 C 0.73396 0.41617 0.41077
 C68 C 0.73599 0.44745 0.42847
 H69 H 0.73736 0.43632 0.51665
 H70 H 0.74633 0.39412 0.56304
 H71 H 0.84337 0.44116 0.58791
 H72 H 0.83504 0.48225 0.54089
 H73 H 0.75095 0.51489 0.56167
 H74 H 0.75759 0.57105 0.58861
 H75 H 0.81675 0.54629 0.47820
 H76 H 0.79142 0.51363 0.40858
 H77 H 0.78071 0.57032 0.38332
 H78 H 0.70451 0.59055 0.46146
 H79 H 0.71484 0.53340 0.48606
 H80 H 0.81322 0.43524 0.46840
 H81 H 0.80831 0.37966 0.43964
 H82 H 0.71189 0.41122 0.39446
 H83 H 0.71539 0.46596 0.42532
 H84 H 0.82239 0.60336 0.50453
 C85 C 0.72517 0.97111 0.98564
 C86 C 0.71872 1.00487 0.97948
 C87 C 0.71267 1.02991 1.00777
 C88 C 0.71840 1.01985 0.94401
 C89 C 0.72763 0.94491 0.95789
 C90 C 0.73367 0.95765 1.02053
 C91 C 0.68346 1.05101 1.00564
 C92 C 0.67988 1.07933 1.02727
 C93 C 0.70514 1.08681 1.05196
 C94 C 0.73353 1.06469 1.05561
 C95 C 0.73755 1.03667 1.03328
 C96 C 0.69648 1.00799 0.91772
 C97 C 0.69565 1.02453 0.88546
 C98 C 0.71601 1.05366 0.87938
 C99 C 0.73790 1.06529 0.90571
 C100 C 0.73917 1.04850 0.93751
 C101 C 0.75262 0.94662 0.93185
 C102 C 0.75841 0.91832 0.91021
 C103 C 0.74005 0.88774 0.91522
 C104 C 0.71442 0.88658 0.94043
 C105 C 0.70804 0.91495 0.96126
 C106 C 0.76732 0.94632 1.02620
 C107 C 0.77513 0.92492 1.05395
 C108 C 0.74943 0.91421 1.07698
 C109 C 0.71615 0.92818 1.07314
 C110 C 0.70824 0.94951 1.04477
 H111 H 0.66412 1.04645 0.98599
 H112 H 0.65772 1.09595 1.02410
 H113 H 0.75354 1.07025 1.07425
 H114 H 0.76085 1.02152 1.03474
 H115 H 0.67967 0.98641 0.92231
 H116 H 0.67850 1.01509 0.86557
 H117 H 0.75626 1.05815 0.95738
 H118 H 0.76868 0.96910 0.92937
 H119 H 0.77853 0.91959 0.89106
 H120 H 0.69985 0.86332 0.94461
 H121 H 0.68881 0.91295 0.98127
 H122 H 0.78722 0.95226 1.00770
 H123 H 0.80123 0.91550 1.05629
 H124 H 0.69571 0.92082 1.09042
 H125 H 0.68199 0.95774 1.04049
 H126 H 0.75432 1.08726 0.90174
 C127 C 0.24644 0.51867 0.50249
 C128 C 0.24892 0.48395 0.49946
 C129 C 0.25918 0.46267 0.52978
 C130 C 0.24179 0.46643 0.46599
 C131 C 0.25324 0.54138 0.47270
 C132 C 0.24089 0.53581 0.53649
 C133 C 0.28772 0.47226 0.54973
 C134 C 0.29677 0.45367 0.57917
 C135 C 0.27787 0.42471 0.58905
 C136 C 0.25020 0.41410 0.56827
 C137 C 0.24092 0.43298 0.53881
 C138 C 0.26096 0.43752 0.45586
 C139 C 0.25223 0.41943 0.42589
 C140 C 0.22433 0.43012 0.40534
 C141 C 0.20541 0.45915 0.41527
 C142 C 0.21374 0.47682 0.44546
 C143 C 0.22805 0.56463 0.46129
 C144 C 0.23683 0.59162 0.43929
 C145 C 0.27116 0.59649 0.42978
 C146 C 0.29615 0.57266 0.44029
 C147 C 0.28711 0.54486 0.46114
 C148 C 0.21659 0.52296 0.55984
 C149 C 0.21071 0.53955 0.59123
 C150 C 0.22837 0.56979 0.59959
 C151 C 0.25226 0.58301 0.57610
 C152 C 0.25855 0.56613 0.54495
 H153 H 0.30272 0.49456 0.54275
 H154 H 0.31841 0.46228 0.59449
 H155 H 0.23508 0.39194 0.57528
 H156 H 0.21901 0.42497 0.52357
 H157 H 0.28256 0.42878 0.47128
 H158 H 0.26754 0.39734 0.41869
 H159 H 0.19765 0.49814 0.45323
 H160 H 0.20200 0.56275 0.47070
 H161 H 0.21728 0.60999 0.43159
 H162 H 0.32275 0.57613 0.43316
 H163 H 0.30697 0.52759 0.47045
 H164 H 0.20193 0.50021 0.55365
 H165 H 0.19204 0.52889 0.60884
 H166 H 0.26659 0.60603 0.58198
 H167 H 0.27742 0.57677 0.52758
 H168 H 0.18364 0.46780 0.40004
 C169 C 0.98760 0.23787 -0.02295
 C170 C 0.98700 0.23730 0.01236
 C171 C 0.95399 0.24235 0.03135
 C172 C 1.01966 0.23345 0.03257
 C173 C 1.01894 0.24863 -0.04196
 C174 C 0.95675 0.22947 -0.04424
 C175 C 0.93054 0.26768 0.02029
 C176 C 0.89937 0.27234 0.03724
 C177 C 0.89115 0.25252 0.06634
 C178 C 0.91496 0.22790 0.07824
 C179 C 0.94607 0.22278 0.06081
 C180 C 1.02543 0.25228 0.06298
 C181 C 1.05673 0.24951 0.08077
 C182 C 1.08334 0.22845 0.06803
 C183 C 1.07711 0.20907 0.03804
 C184 C 1.04549 0.21089 0.02112
 C185 C 1.03052 0.22995 -0.07068
 C186 C 1.05779 0.24206 -0.09058
 C187 C 1.07405 0.27320 -0.08214
 C188 C 1.06257 0.29151 -0.05299
 C189 C 1.03531 0.27943 -0.03326
 C190 C 0.93558 0.20170 -0.03551
 C191 C 0.90811 0.19254 -0.05683
 C192 C 0.90181 0.21022 -0.08801
 C193 C 0.92311 0.23800 -0.09670
 C194 C 0.94991 0.24772 -0.07487
 H195 H 0.93633 0.28391 -0.00166
 H196 H 0.88173 0.29176 0.02767
 H197 H 0.90929 0.21211 0.10053
 H198 H 0.96375 0.20327 0.07006
 H199 H 1.00599 0.26970 0.07261
 H200 H 1.06032 0.26491 0.10373
 H201 H 1.04140 0.19497 -0.00142
 H202 H 1.01808 0.20620 -0.07795
 H203 H 1.06574 0.22703 -0.11264
 H204 H 1.07432 0.31556 -0.04553
 H205 H 1.02640 0.29461 -0.01163
 H206 H 0.94067 0.18664 -0.01248
 H207 H 0.89236 0.17098 -0.04925
 H208 H 0.91905 0.25275 -0.12008
 H209 H 0.96564 0.26938 -0.08221
 H210 H 1.09658 0.19206 0.02772
 C211 C 0.49652 0.74918 0.49593
 C212 C 0.49526 0.74922 0.53108
 C213 C 0.46255 0.74375 0.55029
 C214 C 0.52750 0.75473 0.55113
 C215 C 0.52940 0.74648 0.47706
 C216 C 0.46606 0.75250 0.47293
 C217 C 0.45595 0.76178 0.58105
 C218 C 0.42568 0.75613 0.59955
 C219 C 0.40121 0.73255 0.58749
 C220 C 0.40792 0.71430 0.55702
 C221 C 0.43845 0.71938 0.53898
 C222 C 0.54720 0.78414 0.54484
 C223 C 0.57952 0.78776 0.55990
 C224 C 0.59251 0.76255 0.58243
 C225 C 0.57187 0.73417 0.59070
 C226 C 0.53957 0.73022 0.57500
 C227 C 0.54370 0.71390 0.47132
 C228 C 0.56676 0.70893 0.44424
 C229 C 0.57674 0.73675 0.42357
 C230 C 0.56508 0.76990 0.43156
 C231 C 0.54099 0.77464 0.45772
 C232 C 0.46286 0.72978 0.44491
 C233 C 0.44272 0.73848 0.41640
 C234 C 0.42456 0.76952 0.41578
 C235 C 0.42477 0.79074 0.44508
 C236 C 0.44575 0.78240 0.47350
 H237 H 0.47413 0.78046 0.59066
 H238 H 0.42115 0.77070 0.62290
 H239 H 0.38974 0.69561 0.54740
 H240 H 0.44332 0.70387 0.51633
 H241 H 0.53794 0.80386 0.52732
 H242 H 0.59463 0.81015 0.55349
 H243 H 0.52460 0.70750 0.58045
 H244 H 0.53447 0.69183 0.48555
 H245 H 0.57554 0.68317 0.43837
 H246 H 0.57230 0.79162 0.41569
 H247 H 0.52960 0.79979 0.46133
 H248 H 0.47804 0.70646 0.44391
 H249 H 0.44242 0.72161 0.39416
 H250 H 0.41071 0.81479 0.44495
 H251 H 0.44819 0.80052 0.49457
 H252 H 0.58127 0.71437 0.60803
 C253 C 0.01384 0.74885 0.01697
 C254 C -0.01979 0.74085 0.01167
 C255 C -0.04360 0.73543 0.04106
 C256 C -0.03440 0.73681 -0.02337
 C257 C 0.03861 0.75511 -0.01139
 C258 C 0.02931 0.74972 0.05219
 C259 C -0.03525 0.71265 0.06802
 C260 C -0.05325 0.71386 0.09906
 C261 C -0.08152 0.73609 0.10285
 C262 C -0.09247 0.75561 0.07414
 C263 C -0.07331 0.75568 0.04374
 C264 C -0.03809 0.70375 -0.03691
 C265 C -0.05292 0.69893 -0.06936
 C266 C -0.06620 0.72699 -0.08826
 C267 C -0.06308 0.76022 -0.07417
 C268 C -0.04677 0.76510 -0.04219
 C269 C 0.06084 0.78320 -0.00822
 C270 C 0.09093 0.78469 -0.02738
 C271 C 0.09885 0.75881 -0.05132
 C272 C 0.07495 0.73233 -0.05690
 C273 C 0.04560 0.72998 -0.03639
 C274 C 0.01708 0.77187 0.07803
 C275 C 0.03214 0.77152 0.11094
 C276 C 0.06039 0.75004 0.11794
 C277 C 0.07300 0.72857 0.09184
 C278 C 0.05747 0.72825 0.05938
 H279 H -0.01329 0.69566 0.06594
 H280 H -0.04470 0.69766 0.12023
 H281 H -0.11429 0.77279 0.07578
 H282 H -0.08065 0.77303 0.02308
 H283 H -0.02913 0.68162 -0.02237
 H284 H -0.05496 0.67294 -0.07908
 H285 H -0.04443 0.79079 -0.03178
 H286 H 0.05617 0.80278 0.01109
 H287 H 0.10836 0.80581 -0.02279
 H288 H 0.08018 0.71176 -0.07492
 H289 H 0.03006 0.70717 -0.03835
 H290 H -0.00420 0.78910 0.07278
 H291 H 0.02223 0.78853 0.13067
 H292 H 0.09462 0.71164 0.09665
 H293 H 0.06737 0.71109 0.03977
 H294 H -0.07269 0.78252 -0.08793
 C295 C 0.47265 0.26086 0.50159
 C296 C 0.50686 0.25884 0.49529
 C297 C 0.52091 0.24747 0.46182
 C298 C 0.53327 0.26499 0.52217
 C299 C 0.45924 0.26130 0.53772
 C300 C 0.44684 0.26152 0.47289
 C301 C 0.52347 0.21215 0.45516
 C302 C 0.54621 0.20002 0.43012
 C303 C 0.56588 0.22313 0.41076
 C304 C 0.56119 0.25859 0.41551
 C305 C 0.53937 0.27064 0.44137
 C306 C 0.55129 0.23712 0.53660
 C307 C 0.58064 0.24260 0.55660
 C308 C 0.59348 0.27591 0.56101
 C309 C 0.57549 0.30386 0.54672
 C310 C 0.54526 0.29846 0.52781
 C311 C 0.43356 0.28483 0.54745
 C312 C 0.41790 0.28240 0.57992
 C313 C 0.42801 0.25668 0.60342
 C314 C 0.45396 0.23353 0.59388
 C315 C 0.46884 0.23537 0.56119
 C316 C 0.45055 0.28365 0.44428
 C317 C 0.42379 0.28788 0.42026
 C318 C 0.39256 0.27089 0.42515
 C319 C 0.38921 0.24803 0.45297
 C320 C 0.41617 0.24304 0.47630
 H321 H 0.51009 0.19390 0.47134
 H322 H 0.54953 0.17258 0.42687
 H323 H 0.57640 0.27690 0.40118
 H324 H 0.53848 0.29790 0.44685
 H325 H 0.54335 0.21103 0.53132
 H326 H 0.59441 0.22063 0.56697
 H327 H 0.53230 0.32016 0.51592
 H328 H 0.42515 0.30463 0.52959
 H329 H 0.39802 0.30066 0.58668
 H330 H 0.46186 0.21314 0.61129
 H331 H 0.48690 0.21562 0.55379
 H332 H 0.47330 0.29918 0.44152
 H333 H 0.42662 0.30609 0.39929
 H334 H 0.36524 0.23472 0.45722
 H335 H 0.41249 0.22582 0.49797
 H336 H 0.58510 0.32974 0.54978
 C337 C 0.99334 0.02778 0.23754
 C338 C 0.98897 -0.00554 0.24767
 C339 C 0.95454 -0.02210 0.24857
 C340 C 1.01789 -0.02782 0.25951
 C341 C 1.02693 0.04562 0.24056
 C342 C 0.96408 0.04871 0.22423
 C343 C 0.92675 -0.00676 0.26572
 C344 C 0.89549 -0.02398 0.26851
 C345 C 0.89185 -0.05762 0.25573
 C346 C 0.91985 -0.07297 0.23879
 C347 C 0.95061 -0.05524 0.23494
 C348 C 1.01452 -0.04580 0.29072
 C349 C 1.03830 -0.07088 0.30021
 C350 C 1.06644 -0.07855 0.27888
 C351 C 1.07094 -0.05910 0.24845
 C352 C 1.04661 -0.03421 0.23866
 C353 C 1.03833 0.06655 0.21332
 C354 C 1.06906 0.08465 0.21621
 C355 C 1.08924 0.08155 0.24615
 C356 C 1.07793 0.06082 0.27343
 C357 C 1.04666 0.04367 0.27102
 C358 C 0.94375 0.03720 0.19658
 C359 C 0.91451 0.05563 0.18654
 C360 C 0.90538 0.08619 0.20356
 C361 C 0.92688 0.09865 0.22992
 C362 C 0.95595 0.08007 0.24013
 H363 H 0.92940 0.01825 0.27758
 H364 H 0.87462 -0.01136 0.28189
 H365 H 0.91818 -0.09855 0.22809
 H366 H 0.97172 -0.06774 0.22180
 H367 H 0.99266 -0.04118 0.30729
 H368 H 1.03406 -0.08481 0.32406
 H369 H 1.04951 -0.02090 0.21427
 H370 H 1.02339 0.06888 0.18974
 H371 H 1.07740 0.10047 0.19483
 H372 H 1.09295 0.05853 0.29696
 H373 H 1.03781 0.02909 0.29306
 H374 H 0.95000 0.01345 0.18346
 H375 H 0.89863 0.04555 0.16592
 H376 H 0.92071 0.12207 0.24358
 H377 H 0.97148 0.08953 0.26133
 H378 H 1.09224 -0.06403 0.23132
 C379 C 0.52141 0.52074 0.73495
 C380 C 0.52039 0.48582 0.73798
 C381 C 0.48875 0.46815 0.74922
 C382 C 0.55065 0.46313 0.73204
 C383 C 0.55436 0.54001 0.73275
 C384 C 0.48892 0.54080 0.73348
 C385 C 0.47907 0.46941 0.78406
 C386 C 0.45403 0.44708 0.79654
 C387 C 0.43761 0.42412 0.77407
 C388 C 0.44582 0.42442 0.73878
 C389 C 0.47174 0.44582 0.72657
 C390 C 0.55702 0.43522 0.75436
 C391 C 0.58484 0.41335 0.74888
 C392 C 0.60724 0.41933 0.72137
 C393 C 0.60083 0.44684 0.69873
 C394 C 0.57233 0.46813 0.70357
 C395 C 0.55783 0.56752 0.70939
 C396 C 0.58915 0.58470 0.70627
 C397 C 0.61762 0.57416 0.72595
 C398 C 0.61394 0.54749 0.75000
 C399 C 0.58241 0.53119 0.75402
 C400 C 0.46319 0.53167 0.70977
 C401 C 0.43155 0.54837 0.71004
 C402 C 0.42541 0.57532 0.73321
 C403 C 0.45185 0.58605 0.75546
 C404 C 0.48342 0.56875 0.75568
 H405 H 0.49245 0.48610 0.80193
 H406 H 0.44806 0.44711 0.82385
 H407 H 0.43370 0.40663 0.72109
 H408 H 0.47939 0.44420 0.69975
 H409 H 0.54073 0.43051 0.77642
 H410 H 0.58951 0.39250 0.76689
 H411 H 0.56741 0.48866 0.68528
 H412 H 0.53654 0.57521 0.69301
 H413 H 0.59148 0.60531 0.68760
 H414 H 0.63549 0.53938 0.76586
 H415 H 0.58014 0.51116 0.77330
 H416 H 0.46737 0.51106 0.69150
 H417 H 0.41171 0.53998 0.69232
 H418 H 0.44764 0.60675 0.77361
 H419 H 0.50316 0.57647 0.77383
 H420 H 0.61778 0.45172 0.67719
 C421 C 1.04055 1.00672 0.75372
 C422 C 1.00626 1.00187 0.74846
 C423 C 0.98216 1.02824 0.73500
 C424 C 0.98858 0.96981 0.75893
 C425 C 1.06219 0.97724 0.76506
 C426 C 1.05822 1.04063 0.74957
 C427 C 0.97315 1.05704 0.75474
 C428 C 0.94395 1.07644 0.74605
 C429 C 0.92273 1.06659 0.71810
 C430 C 0.93321 1.03890 0.69737
 C431 C 0.96268 1.02020 0.70558
 C432 C 0.96824 0.97075 0.78866
 C433 C 0.94407 0.94525 0.79478
 C434 C 0.93942 0.91833 0.77113
 C435 C 0.96157 0.91592 0.74258
 C436 C 0.98600 0.94162 0.73649
 C437 C 1.08794 0.96461 0.74323
 C438 C 1.10683 0.93533 0.75250
 C439 C 1.10003 0.91825 0.78372
 C440 C 1.07530 0.93191 0.80619
 C441 C 1.05686 0.96140 0.79715
 C442 C 1.05045 1.06371 0.72261
 C443 C 1.06639 1.09585 0.72093
 C444 C 1.09202 1.10507 0.74496
 C445 C 1.10115 1.08119 0.77075
 C446 C 1.08414 1.04976 0.77329
 H447 H 0.98751 1.06327 0.77791
 H448 H 0.93702 1.09768 0.76262
 H449 H 0.91806 1.03083 0.67532
 H450 H 0.96914 0.99799 0.69007
 H451 H 0.96966 0.99247 0.80607
 H452 H 0.92767 0.94769 0.81717
 H453 H 1.00118 0.94078 0.71314
 H454 H 1.09267 0.97683 0.71855
 H455 H 1.12566 0.92535 0.73465
 H456 H 1.06984 0.91947 0.83060
 H457 H 1.03787 0.97143 0.81483
 H458 H 1.03223 1.05705 0.70259
 H459 H 1.05912 1.11319 0.70020
 H460 H 1.12056 1.08708 0.78989
 H461 H 1.09107 1.03264 0.79431
 H462 H 0.95858 0.89553 0.72386
 C463 C 0.47770 0.51207 0.25862
 C464 C 0.51177 0.50662 0.26346
 C465 C 0.52708 0.47174 0.26508
 C466 C 0.53629 0.53501 0.26843
 C467 C 0.46235 0.54683 0.25646
 C468 C 0.45338 0.48374 0.25262
 C469 C 0.52132 0.45050 0.29373
 C470 C 0.53907 0.41947 0.29728
 C471 C 0.56385 0.40968 0.27292
 C472 C 0.57003 0.43119 0.24448
 C473 C 0.55169 0.46193 0.24057
 C474 C 0.55344 0.53785 0.30022
 C475 C 0.58201 0.55906 0.30343
 C476 C 0.59348 0.57819 0.27504
 C477 C 0.57539 0.57667 0.24366
 C478 C 0.54741 0.55462 0.24018
 C479 C 0.46417 0.56550 0.22553
 C480 C 0.44530 0.59576 0.22132
 C481 C 0.42307 0.60714 0.24739
 C482 C 0.42096 0.58833 0.27830
 C483 C 0.44059 0.55844 0.28283
 C484 C 0.44019 0.47881 0.21925
 C485 C 0.41172 0.45785 0.21405
 C486 C 0.39658 0.44090 0.24205
 C487 C 0.41077 0.44440 0.27521
 C488 C 0.43854 0.46638 0.28060
 H489 H 0.50414 0.45849 0.31404
 H490 H 0.53413 0.40354 0.31968
 H491 H 0.58882 0.42419 0.22520
 H492 H 0.55716 0.47847 0.21876
 H493 H 0.54575 0.52226 0.32204
 H494 H 0.59575 0.55981 0.32782
 H495 H 0.53600 0.55125 0.21492
 H496 H 0.47893 0.55588 0.20401
 H497 H 0.44701 0.60953 0.19705
 H498 H 0.40410 0.59662 0.29885
 H499 H 0.43802 0.54372 0.30646
 H500 H 0.45081 0.49268 0.19752
 H501 H 0.40093 0.45556 0.18831
 H502 H 0.39893 0.43204 0.29721
 H503 H 0.44708 0.47132 0.30675
 H504 H 0.58431 0.59067 0.22125
 O505 O 0.26767 0.17137 0.20204
 O506 O 0.30056 0.17433 0.25554
 O507 O 0.16663 0.19600 0.23364
 O508 O 0.13960 0.23912 0.25999
 O509 O 0.21222 0.24359 0.14493
 O510 O 0.25108 0.29269 0.13926
 O511 O 0.22221 0.31609 0.32274
 O512 O 0.18720 0.26543 0.32997
 O513 O 0.32024 0.28272 0.30264
 O514 O 0.34671 0.24637 0.25880
 O515 O 0.27040 0.35778 0.23556
 O516 O 0.22515 0.35244 0.18953
 O517 O 0.21847 0.35221 0.27672
 O518 O 0.18708 0.35212 0.22375
 O519 O 0.31796 0.32749 0.25119
 O520 O 0.34552 0.27943 0.21959
 O521 O 0.27231 0.27880 0.33547
 O522 O 0.23216 0.23252 0.34254
 O523 O 0.27094 0.21023 0.15830
 O524 O 0.29513 0.26371 0.14725
 O525 O 0.16503 0.24010 0.17903
 O526 O 0.14095 0.27953 0.22026
 O527 O 0.21497 0.16551 0.24632
 O528 O 0.25893 0.16783 0.28804
 Zr529 Zr 0.25460 0.20169 0.24545
 O530 O 0.27355 0.23948 0.27927
 Zr531 Zr 0.18382 0.24711 0.22954
 O532 O 0.20000 0.28726 0.26225
 Zr533 Zr 0.25232 0.25593 0.17957
 O534 O 0.27194 0.29590 0.21025
 Zr535 Zr 0.23280 0.26778 0.30067
 O536 O 0.21353 0.22680 0.27049
 Zr537 Zr 0.30162 0.27599 0.25140
 O538 O 0.28568 0.23602 0.21776
 Zr539 Zr 0.23087 0.32138 0.23416
 O540 O 0.21099 0.28362 0.20046
 O541 O 0.22319 0.21985 0.20593
 O542 O 0.26223 0.30390 0.27447
 C543 C 0.27411 0.17980 0.17055
 C544 C 0.18247 0.16796 0.24152
 C545 C 0.17981 0.23947 0.14944
 C546 C 0.21742 0.34594 0.30924
 C547 C 0.30470 0.28279 0.33197
 C548 C 0.30249 0.35551 0.24274
 H549 H 0.28775 0.22804 0.29714
 H550 H 0.28532 0.31137 0.19524
 H551 H 0.21445 0.20107 0.19112
 H552 H 0.18002 0.29897 0.27265
 H553 H 0.17493 0.24447 0.32252
 H554 H 0.13969 0.25649 0.27861
 H555 H 0.34031 0.29581 0.20070
 H556 H 0.31554 0.25682 0.16095
 H557 H 0.25358 0.21884 0.34191
 H558 H 0.24055 0.17439 0.30434
 H559 H 0.24705 0.35165 0.17675
 H560 H 0.22867 0.30465 0.14070
 H561 H 0.31819 0.18396 0.23999
 H562 H 0.34134 0.22802 0.27561
 H563 H 0.14803 0.29671 0.20283
 H564 H 0.16778 0.34269 0.23721
 O565 O 0.73714 0.83832 0.19681
 O566 O 0.68744 0.84310 0.23381
 O567 O 0.82025 0.82522 0.26445
 O568 O 0.83447 0.79195 0.30950
 O569 O 0.80847 0.75375 0.18044
 O570 O 0.77007 0.70845 0.16793
 O571 O 0.73505 0.72265 0.35337
 O572 O 0.76445 0.77650 0.36208
 O573 O 0.65321 0.73787 0.29211
 O574 O 0.64330 0.77145 0.23545
 O575 O 0.71906 0.66236 0.27115
 O576 O 0.77549 0.65836 0.23900
 O577 O 0.75451 0.67862 0.32029
 O578 O 0.80398 0.67179 0.28081
 O579 O 0.67105 0.69081 0.25360
 O580 O 0.65687 0.72976 0.20625
 O581 O 0.68349 0.75688 0.33855
 O582 O 0.71804 0.80786 0.34925
 O583 O 0.75592 0.79333 0.16447
 O584 O 0.72677 0.73865 0.15601
 O585 O 0.84020 0.76794 0.22773
 O586 O 0.84692 0.74370 0.28418
 O587 O 0.77086 0.85511 0.25456
 O588 O 0.71449 0.85763 0.27807
 Zr589 Zr 0.73341 0.81715 0.24711
 O590 O 0.70290 0.78524 0.27852
 Zr591 Zr 0.80430 0.77367 0.26788
 O592 O 0.77700 0.74012 0.30038
 Zr593 Zr 0.75803 0.75148 0.19886
 O594 O 0.72893 0.71645 0.22794
 Zr595 Zr 0.73290 0.76487 0.31907
 O596 O 0.76246 0.80003 0.29008
 Zr597 Zr 0.68703 0.74226 0.25000
 O598 O 0.71391 0.77645 0.21724
 Zr599 Zr 0.75807 0.69927 0.27046
 O600 O 0.78859 0.73083 0.23887
 O601 O 0.77659 0.79325 0.22643
 O602 O 0.71509 0.72280 0.29147
 C603 C 0.74770 0.82510 0.16827
 C604 C 0.80328 0.85340 0.26041
 C605 C 0.83716 0.75907 0.19588
 C606 C 0.74386 0.69106 0.34898
 C607 C 0.65634 0.74463 0.32447
 C608 C 0.68689 0.66373 0.26419
 H609 H 0.68304 0.79841 0.28724
 H610 H 0.72147 0.69723 0.21308
 H611 H 0.79132 0.80846 0.21242
 H612 H 0.79183 0.73211 0.31961
 H613 H 0.77822 0.79681 0.35561
 H614 H 0.82656 0.78014 0.33065
 H615 H 0.67088 0.71466 0.19136
 H616 H 0.70583 0.75304 0.15757
 H617 H 0.69746 0.81842 0.33854
 H618 H 0.72655 0.85583 0.30057
 H619 H 0.75741 0.65332 0.22174
 H620 H 0.78507 0.69349 0.18223
 H621 H 0.67543 0.82846 0.21677
 H622 H 0.63766 0.78717 0.25467
 H623 H 0.84636 0.72215 0.27066
 H624 H 0.81439 0.68147 0.30201
 O625 O 0.73429 0.13757 0.75346
 O626 O 0.70540 0.14377 0.70002
 O627 O 0.83591 0.17140 0.73171
 O628 O 0.85976 0.22058 0.70809
 O629 O 0.78465 0.20530 0.82194
 O630 O 0.74291 0.24819 0.83366
 O631 O 0.77677 0.29648 0.65228
 O632 O 0.80883 0.24498 0.63574
 O633 O 0.67727 0.25784 0.67005
 O634 O 0.65193 0.21822 0.70780
 O635 O 0.72656 0.32879 0.73448
 O636 O 0.76016 0.32577 0.78337
 O637 O 0.78176 0.32658 0.70224
 O638 O 0.80899 0.31618 0.76256
 O639 O 0.67894 0.29766 0.72211
 O640 O 0.65483 0.24374 0.75344
 O641 O 0.72466 0.26244 0.63645
 O642 O 0.76820 0.21472 0.62429
 O643 O 0.73218 0.16895 0.80290
 O644 O 0.69936 0.22163 0.81631
 O645 O 0.83293 0.20976 0.78956
 O646 O 0.85737 0.25262 0.75035
 O647 O 0.79084 0.14009 0.71193
 O648 O 0.74704 0.14674 0.66781
 Zr649 Zr 0.74807 0.17354 0.71527
 O650 O 0.72630 0.21435 0.68673
 Zr651 Zr 0.81517 0.22050 0.73894
 O652 O 0.79765 0.26265 0.70958
 Zr653 Zr 0.74531 0.21921 0.78757
 O654 O 0.72539 0.26289 0.76195
 Zr655 Zr 0.76571 0.24628 0.66873
 O656 O 0.78782 0.20367 0.69489
 Zr657 Zr 0.69691 0.24631 0.71910
 O658 O 0.71432 0.20234 0.74644
 Zr659 Zr 0.76534 0.29221 0.74082
 O660 O 0.78541 0.25175 0.77147
 O661 O 0.77717 0.18839 0.75770
 O662 O 0.73503 0.27772 0.69893
 C663 C 0.72915 0.14062 0.78611
 C664 C 0.82283 0.14379 0.71950
 C665 C 0.81729 0.20446 0.81829
 C666 C 0.78308 0.32410 0.66918
 C667 C 0.69207 0.26435 0.64129
 C668 C 0.69468 0.32628 0.72691
 H669 H 0.71239 0.20476 0.66765
 H670 H 0.71135 0.27683 0.77789
 H671 H 0.78681 0.16855 0.77057
 H672 H 0.81775 0.27569 0.70139
 H673 H 0.82795 0.25647 0.64792
 H674 H 0.85228 0.21397 0.68455
 H675 H 0.65644 0.26327 0.76968
 H676 H 0.68194 0.20854 0.80318
 H677 H 0.74521 0.20473 0.62042
 H678 H 0.76669 0.15522 0.65418
 H679 H 0.75167 0.31183 0.80285
 H680 H 0.76314 0.26347 0.83372
 H681 H 0.68572 0.15190 0.71391
 H682 H 0.65855 0.19973 0.69162
 H683 H 0.85117 0.26622 0.77100
 H684 H 0.82700 0.31648 0.74464
 O685 O 0.26237 0.82390 0.81433
 O686 O 0.28850 0.83055 0.75820
 O687 O 0.16484 0.78194 0.79088
 O688 O 0.14385 0.73767 0.76118
 O689 O 0.22605 0.74188 0.87014
 O690 O 0.27156 0.69917 0.87144
 O691 O 0.23136 0.68042 0.68741
 O692 O 0.19016 0.72620 0.68458
 O693 O 0.32603 0.72833 0.70524
 O694 O 0.34927 0.76542 0.74785
 O695 O 0.29306 0.64228 0.76156
 O696 O 0.26110 0.63253 0.81087
 O697 O 0.23536 0.64205 0.73154
 O698 O 0.21155 0.63783 0.79269
 O699 O 0.33493 0.68146 0.75177
 O700 O 0.35475 0.73283 0.78789
 O701 O 0.27642 0.72511 0.67441
 O702 O 0.22848 0.76568 0.67240
 O703 O 0.27698 0.78374 0.85462
 O704 O 0.31102 0.73279 0.86010
 O705 O 0.17629 0.73683 0.83970
 O706 O 0.15618 0.69492 0.79620
 O707 O 0.20431 0.82251 0.77712
 O708 O 0.24294 0.82927 0.72902
 Zr709 Zr 0.25026 0.79414 0.77014
 O710 O 0.27380 0.76214 0.73317
 Zr711 Zr 0.19143 0.73529 0.78763
 O712 O 0.21151 0.70132 0.75054
 Zr713 Zr 0.26435 0.73649 0.83227
 O714 O 0.28768 0.70185 0.79788
 Zr715 Zr 0.23733 0.72857 0.71170
 O716 O 0.21279 0.76317 0.74617
 Zr717 Zr 0.30987 0.72940 0.75705
 O718 O 0.28963 0.76456 0.79347
 Zr719 Zr 0.24988 0.67150 0.77436
 O720 O 0.22710 0.70282 0.81254
 O721 O 0.22704 0.76794 0.81021
 O722 O 0.27434 0.69675 0.73386
 C723 C 0.27348 0.81494 0.84445
 C724 C 0.17386 0.81318 0.78577
 C725 C 0.19315 0.74092 0.86799
 C726 C 0.23049 0.64969 0.69967
 C727 C 0.30932 0.72610 0.67665
 C728 C 0.32385 0.65044 0.75362
 H729 H 0.28470 0.77669 0.71544
 H730 H 0.30476 0.68756 0.81033
 H731 H 0.21681 0.78422 0.82688
 H732 H 0.19270 0.68727 0.74090
 H733 H 0.17499 0.74392 0.69478
 H734 H 0.14603 0.72351 0.74011
 H735 H 0.35613 0.71203 0.80256
 H736 H 0.32805 0.74630 0.84702
 H737 H 0.24738 0.78251 0.67310
 H738 H 0.22335 0.82059 0.71526
 H739 H 0.27252 0.64372 0.83069
 H740 H 0.25170 0.68344 0.87016
 H741 H 0.30948 0.82324 0.77077
 H742 H 0.33886 0.78492 0.73511
 H743 H 0.16557 0.68054 0.81516
 H744 H 0.19189 0.63926 0.77647
 O745 O 0.27861 0.35759 0.72384
 O746 O 0.23636 0.37440 0.76468
 O747 O 0.35120 0.30405 0.78887
 O748 O 0.35594 0.25610 0.81787
 O749 O 0.31696 0.26332 0.68828
 O750 O 0.26706 0.23100 0.67242
 O751 O 0.23465 0.22828 0.85928
 O752 O 0.28114 0.26323 0.87496
 O753 O 0.16467 0.28260 0.80607
 O754 O 0.16324 0.32039 0.75818
 O755 O 0.19892 0.18951 0.76594
 O756 O 0.24776 0.16952 0.73680
 O757 O 0.23815 0.18506 0.82010
 O758 O 0.28338 0.16872 0.77497
 O759 O 0.16509 0.23622 0.75640
 O760 O 0.16891 0.28879 0.71780
 O761 O 0.20064 0.28299 0.85247
 O762 O 0.25314 0.31206 0.86870
 O763 O 0.27495 0.31688 0.68199
 O764 O 0.23353 0.27286 0.66722
 O765 O 0.35145 0.25679 0.73539
 O766 O 0.34522 0.21499 0.78496
 O767 O 0.31832 0.35111 0.77729
 O768 O 0.26754 0.36874 0.80910
 Zr769 Zr 0.26889 0.33108 0.76981
 O770 O 0.22847 0.30798 0.79671
 Zr771 Zr 0.31875 0.26220 0.77838
 O772 O 0.28091 0.23646 0.80716
 Zr773 Zr 0.26780 0.27061 0.70971
 O774 O 0.22810 0.24386 0.73494
 Zr775 Zr 0.24888 0.27211 0.83174
 O776 O 0.28980 0.29773 0.80739
 Zr777 Zr 0.19788 0.27867 0.76312
 O778 O 0.23562 0.30610 0.73500
 Zr779 Zr 0.24829 0.21033 0.77278
 O780 O 0.28833 0.23354 0.74394
 O781 O 0.30017 0.29753 0.74258
 O782 O 0.21630 0.24383 0.79971
 C783 C 0.27924 0.34802 0.69218
 C784 C 0.34679 0.33666 0.78583
 C785 C 0.34639 0.25793 0.70252
 C786 C 0.23270 0.19657 0.85075
 C787 C 0.17081 0.28532 0.83867
 C788 C 0.16993 0.20361 0.75854
 H789 H 0.21500 0.32612 0.80831
 H790 H 0.21459 0.23146 0.71729
 H791 H 0.31872 0.30983 0.73040
 H792 H 0.29185 0.22087 0.82419
 H793 H 0.30306 0.27501 0.87012
 H794 H 0.34346 0.24984 0.83913
 H795 H 0.17116 0.26859 0.70249
 H796 H 0.21783 0.29243 0.67150
 H797 H 0.23929 0.33182 0.86049
 H798 H 0.28199 0.36002 0.82835
 H799 H 0.24029 0.17926 0.71437
 H800 H 0.27978 0.21135 0.68262
 H801 H 0.21939 0.36871 0.74647
 H802 H 0.17309 0.33990 0.77110
 H803 H 0.34115 0.20123 0.76385
 H804 H 0.29484 0.16919 0.79783
 O805 O 0.79175 0.67008 0.66213
 O806 O 0.83270 0.65489 0.70581
 O807 O 0.69982 0.68545 0.71917
 O808 O 0.68012 0.71996 0.75949
 O809 O 0.73309 0.76162 0.64194
 O810 O 0.77585 0.80457 0.64182
 O811 O 0.77513 0.76813 0.82780
 O812 O 0.74389 0.71709 0.82560
 O813 O 0.86961 0.74338 0.77838
 O814 O 0.88472 0.72279 0.72082
 O815 O 0.81498 0.83453 0.75695
 O816 O 0.76578 0.84854 0.71684
 O817 O 0.76800 0.81779 0.79770
 O818 O 0.72915 0.83467 0.75044
 O819 O 0.86220 0.80198 0.74625
 O820 O 0.87895 0.76718 0.69560
 O821 O 0.82886 0.73024 0.81804
 O822 O 0.78751 0.68330 0.81718
 O823 O 0.78764 0.71966 0.63127
 O824 O 0.81848 0.77310 0.63461
 O825 O 0.69262 0.74327 0.67972
 O826 O 0.67985 0.77023 0.73588
 O827 O 0.74683 0.65181 0.71097
 O828 O 0.79773 0.64052 0.74317
 Zr829 Zr 0.78860 0.68559 0.71392
 O830 O 0.81655 0.71048 0.75298
 Zr831 Zr 0.72019 0.73500 0.72611
 O832 O 0.74500 0.76162 0.76645
 Zr833 Zr 0.77970 0.75775 0.66930
 O834 O 0.80678 0.78617 0.70695
 Zr835 Zr 0.78254 0.73040 0.78988
 O836 O 0.75459 0.70213 0.75264
 Zr837 Zr 0.84163 0.75373 0.73279
 O838 O 0.81714 0.72612 0.69250
 Zr839 Zr 0.77298 0.80277 0.74571
 O840 O 0.74516 0.77825 0.70557
 O841 O 0.75255 0.71588 0.68825
 O842 O 0.80945 0.77267 0.77137
 C843 C 0.79147 0.68688 0.63353
 C844 C 0.71437 0.65612 0.71456
 C845 C 0.70190 0.75492 0.65010
 C846 C 0.76938 0.80059 0.82603
 C847 C 0.86015 0.73439 0.80880
 C848 C 0.84760 0.83007 0.75570
 H849 H 0.83294 0.69380 0.76307
 H850 H 0.81851 0.80571 0.69587
 H851 H 0.73964 0.70306 0.67038
 H852 H 0.72772 0.76933 0.78339
 H853 H 0.72804 0.70135 0.81342
 H854 H 0.68655 0.72734 0.78308
 H855 H 0.87116 0.78842 0.68383
 H856 H 0.83869 0.75837 0.63956
 H857 H 0.80845 0.67140 0.80912
 H858 H 0.78216 0.64159 0.76327
 H859 H 0.78639 0.85217 0.70250
 H860 H 0.76014 0.81941 0.65524
 H861 H 0.84867 0.66877 0.69176
 H862 H 0.88139 0.70022 0.73205
 H863 H 0.68394 0.79069 0.72126
 H864 H 0.71283 0.82290 0.76591
 O865 O 0.26670 0.68232 0.32032
 O866 O 0.22648 0.66025 0.28308
 O867 O 0.33513 0.73054 0.24252
 O868 O 0.33405 0.77552 0.20759
 O869 O 0.31057 0.78153 0.34099
 O870 O 0.26228 0.81320 0.35954
 O871 O 0.21209 0.79814 0.17615
 O872 O 0.25547 0.75866 0.16096
 O873 O 0.14661 0.75192 0.24419
 O874 O 0.15448 0.71442 0.29530
 O875 O 0.18296 0.84497 0.26776
 O876 O 0.23281 0.86908 0.29067
 O877 O 0.21853 0.84487 0.21062
 O878 O 0.26684 0.86547 0.25124
 O879 O 0.15267 0.79960 0.28818
 O880 O 0.16100 0.75185 0.33030
 O881 O 0.17549 0.74969 0.19342
 O882 O 0.21936 0.71288 0.17658
 O883 O 0.27372 0.72782 0.35640
 O884 O 0.23035 0.77114 0.37121
 O885 O 0.34015 0.78109 0.29058
 O886 O 0.32788 0.81845 0.23802
 O887 O 0.30593 0.68433 0.26270
 O888 O 0.25038 0.66308 0.23669
 Zr889 Zr 0.25603 0.70421 0.27195
 O890 O 0.21197 0.72464 0.24764
 Zr891 Zr 0.30267 0.77241 0.25184
 O892 O 0.26124 0.79491 0.22483
 Zr893 Zr 0.26019 0.77068 0.32571
 O894 O 0.21749 0.79483 0.30261
 Zr895 Zr 0.22709 0.75703 0.20743
 O896 O 0.27150 0.73398 0.22934
 Zr897 Zr 0.18530 0.75701 0.28178
 O898 O 0.22657 0.73253 0.30767
 Zr899 Zr 0.23238 0.82446 0.25959
 O900 O 0.27591 0.80443 0.28623
 O901 O 0.28916 0.74048 0.29253
 O902 O 0.19843 0.78824 0.24014
 C903 C 0.27331 0.69543 0.34998
 C904 C 0.33278 0.69846 0.24968
 C905 C 0.33843 0.78379 0.32370
 C906 C 0.21125 0.83055 0.18152
 C907 C 0.14768 0.74968 0.21114
 C908 C 0.15573 0.83151 0.28045
 H909 H 0.19742 0.70586 0.23873
 H910 H 0.20581 0.80892 0.32027
 H911 H 0.30905 0.72945 0.30413
 H912 H 0.27032 0.80860 0.20538
 H913 H 0.27563 0.74344 0.16428
 H914 H 0.31843 0.77508 0.18741
 H915 H 0.16628 0.77265 0.34394
 H916 H 0.21639 0.74995 0.37094
 H917 H 0.23987 0.69819 0.17952
 H918 H 0.26774 0.66608 0.21837
 H919 H 0.22928 0.86154 0.31479
 H920 H 0.27157 0.83259 0.34596
 H921 H 0.20678 0.66845 0.29690
 H922 H 0.15584 0.69741 0.27640
 H923 H 0.32656 0.83398 0.25821
 H924 H 0.27634 0.86283 0.22773
 O925 O 0.73198 0.31326 0.30239
 O926 O 0.76133 0.33487 0.25383
 O927 O 0.63638 0.27952 0.25887
 O928 O 0.61974 0.24515 0.21589
 O929 O 0.69025 0.21360 0.32862
 O930 O 0.73907 0.17785 0.32447
 O931 O 0.71184 0.21129 0.13912
 O932 O 0.67347 0.25708 0.14481
 O933 O 0.80639 0.24614 0.17784
 O934 O 0.82444 0.27475 0.23080
 O935 O 0.77071 0.15223 0.20662
 O936 O 0.72916 0.13093 0.24911
 O937 O 0.71885 0.16160 0.16927
 O938 O 0.68654 0.13956 0.22054
 O939 O 0.81244 0.19200 0.21438
 O940 O 0.82699 0.23374 0.26222
 O941 O 0.75997 0.25598 0.14346
 O942 O 0.71188 0.29703 0.14889
 O943 O 0.73957 0.26374 0.33280
 O944 O 0.77683 0.21461 0.32667
 O945 O 0.64372 0.22381 0.29443
 O946 O 0.62971 0.19420 0.24003
 O947 O 0.67613 0.32202 0.26133
 O948 O 0.71928 0.34125 0.22060
 Zr949 Zr 0.72326 0.29647 0.25137
 O950 O 0.75125 0.27577 0.20967
 Zr951 Zr 0.66434 0.23559 0.24587
 O952 O 0.68874 0.21312 0.20307
 Zr953 Zr 0.73248 0.22402 0.29636
 O954 O 0.75976 0.19990 0.25616
 Zr955 Zr 0.71743 0.25007 0.17632
 O956 O 0.68885 0.27372 0.21626
 Zr957 Zr 0.78535 0.23732 0.22705
 O958 O 0.76075 0.26134 0.26943
 Zr959 Zr 0.72534 0.17744 0.22089
 O960 O 0.69833 0.19741 0.26382
 O961 O 0.69675 0.26050 0.28042
 O962 O 0.75292 0.21291 0.19197
 C963 C 0.73892 0.29673 0.33039
 C964 C 0.64512 0.31086 0.26353
 C965 C 0.65769 0.21528 0.32329
 C966 C 0.71336 0.17839 0.14116
 C967 C 0.79249 0.25305 0.14846
 C968 C 0.80217 0.16167 0.20644
 H969 H 0.76362 0.29433 0.19767
 H970 H 0.77583 0.18287 0.26621
 H971 H 0.68454 0.27114 0.30010
 H972 H 0.67132 0.20247 0.18791
 H973 H 0.65658 0.27007 0.15874
 H974 H 0.62403 0.23625 0.19238
 H975 H 0.82615 0.21082 0.27326
 H976 H 0.79354 0.23270 0.32065
 H977 H 0.73157 0.31194 0.15460
 H978 H 0.70082 0.33696 0.20351
 H979 H 0.74954 0.13243 0.26434
 H980 H 0.72451 0.16053 0.31290
 H981 H 0.78249 0.32334 0.26220
 H982 H 0.81619 0.29578 0.21901
 H983 H 0.63883 0.17484 0.25398
 H984 H 0.66813 0.14740 0.20466
 N985 N 0.31010 0.15805 0.12482
 N986 N 0.30918 0.13401 0.10072
 C987 C 0.28150 0.11423 0.10710
 C988 C 0.26593 0.12675 0.13680
 N989 N 0.28468 0.15385 0.14691
 H990 H 0.24209 0.11891 0.14857
 N991 N 0.80124 0.68010 0.57139
 N992 N 0.80150 0.65516 0.54804
 C993 C 0.79425 0.62569 0.56494
 C994 C 0.78983 0.63337 0.59938
 N995 N 0.79436 0.66740 0.60234
 H996 H 0.78369 0.61601 0.62032
 N997 N 0.78462 0.84513 0.12312
 N998 N 0.78650 0.86936 0.09932
 C999 C 0.75723 0.88795 0.10085
 C1000 C 0.73719 0.87418 0.12714
 N1001 N 0.75534 0.84745 0.14003
 H1002 H 0.71206 0.88228 0.13576
 N1003 N 0.30453 0.40169 0.67425
 N1004 N 0.30498 0.42256 0.64728
 C1005 C 0.28614 0.40762 0.62218
 C1006 C 0.27431 0.37649 0.63462
 N1007 N 0.28637 0.37395 0.66715
 H1008 H 0.25759 0.35821 0.62202
 N1009 N 0.70910 0.08144 0.79131
 N1010 N 0.70505 0.05764 0.81552
 C1011 C 0.71465 0.07191 0.84581
 C1012 C 0.72439 0.10540 0.83935
 N1013 N 0.72058 0.11028 0.80517
 H1014 H 0.73391 0.12425 0.85752
 N1015 N 0.30550 0.67600 0.40059
 N1016 N 0.30643 0.64916 0.42172
 C1017 C 0.28118 0.62783 0.41139
 C1018 C 0.26475 0.64227 0.38340
 N1019 N 0.28067 0.67218 0.37751
 H1020 H 0.24312 0.63229 0.36897
 N1021 N 0.30621 0.83623 0.89298
 N1022 N 0.30561 0.86171 0.91550
 C1023 C 0.28011 0.88322 0.90574
 C1024 C 0.26530 0.87015 0.87586
 N1025 N 0.28243 0.84089 0.86891
 H1026 H 0.24309 0.87959 0.86185
 N1027 N 0.76335 0.30334 0.38801
 N1028 N 0.76988 0.32783 0.41084
 C1029 C 0.75708 0.35736 0.39768
 C1030 C 0.74250 0.35013 0.36585
 N1031 N 0.74700 0.31617 0.36081
 H1032 H 0.73066 0.36789 0.34779
 N1033 N 0.16955 0.21622 0.09196
 N1034 N 0.14380 0.21219 0.06988
 C1035 C 0.11576 0.22692 0.08412
 C1036 C 0.12531 0.23996 0.11600
 N1037 N 0.15890 0.23274 0.11978
 H1038 H 0.10957 0.25298 0.13491
 N1039 N 0.68135 0.78010 0.59645
 N1040 N 0.65273 0.78312 0.57815
 C1041 C 0.62825 0.76551 0.59509
 C1042 C 0.64291 0.75150 0.62461
 N1043 N 0.67604 0.76131 0.62442
 H1044 H 0.63072 0.73618 0.64439
 N1045 N 0.18355 0.77085 0.92179
 N1046 N 0.15788 0.77776 0.94297
 C1047 C 0.13090 0.75870 0.93248
 C1048 C 0.14103 0.73974 0.90412
 N1049 N 0.17394 0.74806 0.89841
 H1050 H 0.12568 0.72304 0.88799
 N1051 N 0.64010 0.18355 0.37458
 N1052 N 0.61514 0.18422 0.39773
 C1053 C 0.59401 0.21042 0.38889
 C1054 C 0.60675 0.22574 0.35952
 N1055 N 0.63538 0.20825 0.35152
 H1056 H 0.59694 0.24813 0.34601
 N1057 N 0.89505 0.73717 0.19008
 N1058 N 0.91684 0.72891 0.16527
 C1059 C 0.90276 0.73967 0.13515
 C1060 C 0.87150 0.75489 0.14243
 N1061 N 0.86780 0.75283 0.17687
 H1062 H 0.85252 0.76502 0.12457
 N1063 N 0.40513 0.24008 0.69124
 N1064 N 0.42749 0.23936 0.66558
 C1065 C 0.41177 0.25333 0.63774
 C1066 C 0.37875 0.26243 0.64716
 N1067 N 0.37569 0.25362 0.68069
 H1068 H 0.35889 0.27401 0.63125
 N1069 N 0.82766 0.17655 0.87362
 N1070 N 0.85006 0.17764 0.89944
 C1071 C 0.87454 0.20039 0.89041
 C1072 C 0.86661 0.21272 0.85771
 N1073 N 0.83736 0.19721 0.84836
 H1074 H 0.87986 0.23181 0.84250
 N1075 N 0.40057 0.78542 0.32856
 N1076 N 0.42444 0.78140 0.35272
 C1077 C 0.40808 0.78042 0.38335
 C1078 C 0.37344 0.78382 0.37728
 N1079 N 0.36980 0.78685 0.34276
 H1080 H 0.35283 0.78095 0.39572
 N1081 N 0.17423 0.11020 0.26338
 N1082 N 0.14991 0.08670 0.26569
 C1083 C 0.12221 0.09950 0.24903
 C1084 C 0.13021 0.13171 0.23651
 N1085 N 0.16288 0.13736 0.24609
 H1086 H 0.11376 0.14952 0.22262
 N1087 N 0.70626 0.59453 0.71818
 N1088 N 0.68126 0.57197 0.72202
 C1089 C 0.65155 0.58978 0.72085
 C1090 C 0.65908 0.62412 0.71615
 N1091 N 0.69354 0.62593 0.71469
 H1092 H 0.64146 0.64568 0.71548
 N1093 N 0.84003 0.09084 0.69094
 N1094 N 0.86713 0.07027 0.68921
 C1095 C 0.89082 0.08240 0.71169
 C1096 C 0.87716 0.11129 0.72727
 N1097 N 0.84558 0.11554 0.71366
 H1098 H 0.88894 0.12801 0.74618
 N1099 N 0.38676 0.68731 0.22101
 N1100 N 0.41131 0.66379 0.21978
 C1101 C 0.40225 0.63842 0.24162
 C1102 C 0.37096 0.64703 0.25614
 N1103 N 0.36226 0.67770 0.24247
 H1104 H 0.35609 0.63263 0.27471
 N1105 N 0.12205 0.83406 0.81284
 N1106 N 0.10218 0.86166 0.81348
 C1107 C 0.11636 0.88494 0.79210
 C1108 C 0.14594 0.87067 0.77835
 N1109 N 0.14838 0.83893 0.79198
 H1110 H 0.16344 0.88179 0.75985
 N1111 N 0.59171 0.32437 0.29201
 N1112 N 0.56950 0.34993 0.29511
 C1113 C 0.58227 0.37672 0.27727
 C1114 C 0.61351 0.36681 0.26337
 N1115 N 0.61831 0.33400 0.27327
 H1116 H 0.63047 0.38147 0.24698
 N1117 N 0.80804 0.91459 0.27208
 N1118 N 0.83147 0.93912 0.27140
 C1119 C 0.86093 0.92459 0.26022
 C1120 C 0.85474 0.89007 0.25443
 N1121 N 0.82162 0.88503 0.26217
 H1122 H 0.87233 0.87035 0.24575
 N1123 N 0.39671 0.35552 0.81860
 N1124 N 0.42078 0.37939 0.81682
 C1125 C 0.41447 0.39777 0.78785
 C1126 C 0.38572 0.38456 0.77194
 N1127 N 0.37552 0.35836 0.79193
 H1128 H 0.37396 0.39250 0.74779
 N1129 N 0.14386 0.31811 0.88392
 N1130 N 0.11849 0.31514 0.90627
 C1131 C 0.10135 0.28614 0.89820
 C1132 C 0.11695 0.27170 0.86945
 N1133 N 0.14312 0.29258 0.86145
 H1134 H 0.11149 0.24751 0.85689
 N1135 N 0.60788 0.70975 0.34162
 N1136 N 0.58733 0.70576 0.36847
 C1137 C 0.59545 0.73060 0.39131
 C1138 C 0.62147 0.75011 0.37760
 N1139 N 0.62841 0.73627 0.34660
 H1140 H 0.63433 0.77190 0.38912
 N1141 N 0.89906 0.69386 0.83520
 N1142 N 0.91833 0.69063 0.86324
 C1143 C 0.91754 0.72112 0.87982
 C1144 C 0.89691 0.74335 0.86070
 N1145 N 0.88618 0.72525 0.83314
 H1146 H 0.88891 0.76925 0.86694
 N1147 N 0.30878 0.28959 0.39374
 N1148 N 0.33114 0.28586 0.41924
 C1149 C 0.36186 0.27988 0.40465
 C1150 C 0.35770 0.28030 0.36902
 N1151 N 0.32400 0.28630 0.36340
 H1152 H 0.37654 0.27419 0.34948
 N1153 N 0.08576 0.75708 0.20641
 N1154 N 0.06172 0.75827 0.18208
 C1155 C 0.07728 0.75045 0.15203
 C1156 C 0.11155 0.74445 0.15866
 N1157 N 0.11578 0.74880 0.19281
 H1158 H 0.13172 0.73899 0.14030
 N1159 N 0.67833 0.29694 0.58892
 N1160 N 0.65190 0.30165 0.56765
 C1161 C 0.62654 0.28096 0.57884
 C1162 C 0.63819 0.26346 0.60754
 N1163 N 0.67049 0.27409 0.61294
 H1164 H 0.62460 0.24470 0.62291
 N1165 N 0.80448 0.27191 0.08979
 N1166 N 0.83010 0.27231 0.06744
 C1167 C 0.85739 0.25745 0.08315
 C1168 C 0.84759 0.24806 0.11619
 N1169 N 0.81446 0.25761 0.11922
 H1170 H 0.86285 0.23549 0.13598
 N1171 N 0.31577 0.71407 0.61525
 N1172 N 0.33961 0.71519 0.59097
 C1173 C 0.36852 0.72708 0.60602
 C1174 C 0.36162 0.73303 0.64053
 N1175 N 0.32849 0.72457 0.64517
 H1176 H 0.37887 0.74244 0.66033
 N1177 N 0.20584 0.18209 0.90509
 N1178 N 0.20322 0.15591 0.92672
 C1179 C 0.22013 0.12924 0.91237
 C1180 C 0.23298 0.13992 0.88083
 N1181 N 0.22346 0.17300 0.87743
 H1182 H 0.24861 0.12566 0.86277
 N1183 N 0.72520 0.67472 0.40693
 N1184 N 0.72356 0.64670 0.42640
 C1185 C 0.73832 0.62095 0.40834
 C1186 C 0.74919 0.63421 0.37722
 N1187 N 0.74063 0.66770 0.37738
 H1188 H 0.76130 0.62074 0.35606
 N1189 N 0.69145 0.17201 0.08276
 N1190 N 0.68816 0.14809 0.05873
 C1191 C 0.70283 0.11923 0.07142
 C1192 C 0.71525 0.12618 0.10413
 N1193 N 0.70755 0.15936 0.11016
 H1194 H 0.72823 0.10889 0.12187
 N1195 N 0.21044 0.59220 0.68701
 N1196 N 0.20937 0.57024 0.66097
 C1197 C 0.22257 0.58649 0.63328
 C1198 C 0.23145 0.61945 0.64314
 N1199 N 0.22345 0.62183 0.67678
 H1200 H 0.24358 0.63928 0.62790
 N1201 N 0.75584 0.80210 0.88703
 N1202 N 0.74733 0.82447 0.91123
 C1203 C 0.74898 0.85593 0.89673
 C1204 C 0.75888 0.85220 0.86270
 N1205 N 0.76277 0.81816 0.85775
 H1206 H 0.76171 0.87200 0.84325
 N1207 N 0.19544 0.40294 0.32208
 N1208 N 0.19694 0.42607 0.34707
 C1209 C 0.21501 0.41178 0.37328
 C1210 C 0.22416 0.37882 0.36368
 N1211 N 0.21140 0.37440 0.33167
 H1212 H 0.23956 0.36033 0.37787
 N1213 N 0.18223 0.84151 0.12707
 N1214 N 0.18344 0.86355 0.10104
 C1215 C 0.20575 0.88836 0.11019
 C1216 C 0.21775 0.88105 0.14315
 N1217 N 0.20240 0.85171 0.15264
 H1218 H 0.23714 0.89438 0.15799
 N1219 N 0.81163 0.37907 0.66279
 N1220 N 0.81598 0.40333 0.63921
 C1221 C 0.79892 0.39325 0.61054
 C1222 C 0.78404 0.36182 0.61728
 N1223 N 0.79265 0.35398 0.65008
 H1224 H 0.76812 0.34647 0.60036
 N1225 N 0.11668 0.19019 0.72865
 N1226 N 0.09582 0.16388 0.72362
 C1227 C 0.10767 0.13758 0.74319
 C1228 C 0.13689 0.14887 0.76038
 N1229 N 0.14149 0.18172 0.75056
 H1230 H 0.15373 0.13459 0.77752
 N1231 N 0.67801 0.60845 0.29134
 N1232 N 0.65335 0.58568 0.29591
 C1233 C 0.62608 0.59683 0.27744
 C1234 C 0.63476 0.62717 0.26125
 N1235 N 0.66738 0.63345 0.27063
 H1236 H 0.61878 0.64343 0.24507
 N1237 N 0.10508 0.84724 0.31276
 N1238 N 0.08112 0.87136 0.31341
 C1239 C 0.08797 0.89363 0.28755
 C1240 C 0.11751 0.88233 0.27111
 N1241 N 0.12711 0.85336 0.28766
 H1242 H 0.13042 0.89339 0.24907
 N1243 N 0.69126 0.38580 0.70933
 N1244 N 0.66859 0.41104 0.70656
 C1245 C 0.63841 0.39839 0.71751
 C1246 C 0.64318 0.36441 0.72694
 N1247 N 0.67653 0.35773 0.72148
 H1248 H 0.62459 0.34660 0.73728
 N1249 N 0.82004 0.10897 0.17819
 N1250 N 0.84713 0.08842 0.17659
 C1251 C 0.87232 0.10328 0.19528
 C1252 C 0.85975 0.13401 0.20816
 N1253 N 0.82713 0.13643 0.19695
 H1254 H 0.87221 0.15194 0.22541
 N1255 N 0.33571 0.59266 0.73415
 N1256 N 0.36204 0.57214 0.72786
 C1257 C 0.39065 0.59004 0.73536
 C1258 C 0.38103 0.62244 0.74636
 N1259 N 0.34655 0.62288 0.74518
 H1260 H 0.39728 0.64341 0.75457
 N1261 N 0.85774 0.88146 0.78912
 N1262 N 0.88173 0.90478 0.79443
 C1263 C 0.90892 0.89603 0.77482
 C1264 C 0.90071 0.86610 0.75722
 N1265 N 0.86854 0.85807 0.76692
 H1266 H 0.91596 0.85221 0.73855
 N1267 N 0.31304 0.41215 0.21930
 N1268 N 0.33796 0.43503 0.21752
 C1269 C 0.36405 0.42275 0.23698
 C1270 C 0.35442 0.39162 0.25088
 N1271 N 0.32241 0.38598 0.23913
 H1272 H 0.36941 0.37445 0.26707
   
