data_POSCAR
  _audit_creation_date              2014-09-24
  _audit_creation_method            'ToBaCCo'
  _symmetry_space_group_name_H-M    'P1'
  _symmetry_Int_Tables_number       1
  _symmetry_cell_setting            triclinic
  loop_
  _symmetry_equiv_pos_as_xyz
 x,y,z
_cell_length_a 77.8085
_cell_length_b 78.0121
_cell_length_c 74.8764
_cell_angle_alpha 89.922200
_cell_angle_beta 90.069000
_cell_angle_gamma 89.965100
loop_
  _atom_site_label
  _atom_site_type_symbol
  _atom_site_fract_x
  _atom_site_fract_y
  _atom_site_fract_z
C1 C 0.35806 0.33266 0.34039
 C2 C 0.34494 0.33245 0.35321
 C3 C 0.33296 0.34549 0.35362
 C4 C 0.33385 0.35889 0.34116
 C5 C 0.34679 0.35914 0.32854
 C6 C 0.35903 0.34592 0.32818
 C7 C 0.37115 0.32142 0.33656
 N8 N 0.38013 0.32750 0.32231
 C9 C 0.37274 0.34252 0.31713
 C10 C 0.34399 0.37318 0.31777
 N11 N 0.32957 0.38142 0.32346
 C12 C 0.32336 0.37271 0.33782
 C13 C 0.32167 0.34187 0.36724
 N14 N 0.32648 0.32689 0.37514
 C15 C 0.34072 0.32106 0.36652
 H16 H 0.37359 0.30944 0.34341
 H17 H 0.37700 0.35050 0.30616
 H18 H 0.35183 0.37694 0.30651
 H19 H 0.31165 0.37572 0.34494
 H20 H 0.31089 0.34976 0.37117
 H21 H 0.34742 0.30922 0.36943
 C22 C 0.35810 0.83431 -0.15629
 C23 C 0.34491 0.83372 -0.14358
 C24 C 0.33180 0.84562 -0.14413
 C25 C 0.33177 0.85838 -0.15735
 C26 C 0.34474 0.85895 -0.16987
 C27 C 0.35802 0.84675 -0.16937
 C28 C 0.37192 0.82381 -0.15946
 N29 N 0.38044 0.82940 -0.17431
 C30 C 0.37185 0.84358 -0.18033
 C31 C 0.34106 0.87231 -0.18128
 N32 N 0.32612 0.88005 -0.17602
 C33 C 0.32048 0.87137 -0.16129
 C34 C 0.32045 0.84152 -0.13071
 N35 N 0.32637 0.82740 -0.12194
 C36 C 0.34140 0.82262 -0.12978
 H37 H 0.37484 0.81249 -0.15171
 H38 H 0.37513 0.85123 -0.19187
 H39 H 0.34903 0.87600 -0.19244
 H40 H 0.30876 0.87375 -0.15398
 H41 H 0.30850 0.84810 -0.12797
 H42 H 0.34930 0.81185 -0.12583
 C43 C 0.85727 0.33186 -0.15804
 C44 C 0.84455 0.33188 -0.14479
 C45 C 0.83260 0.34494 -0.14424
 C46 C 0.83312 0.35810 -0.15699
 C47 C 0.84554 0.35803 -0.17010
 C48 C 0.85778 0.34479 -0.17059
 C49 C 0.87031 0.32063 -0.16194
 N50 N 0.87898 0.32628 -0.17668
 C51 C 0.87117 0.34116 -0.18199
 C52 C 0.84235 0.37186 -0.18105
 N53 N 0.82817 0.38044 -0.17501
 C54 C 0.82261 0.37192 -0.16014
 C55 C 0.82157 0.34144 -0.13036
 N56 N 0.82645 0.32647 -0.12247
 C57 C 0.84056 0.32058 -0.13130
 H58 H 0.87276 0.30896 -0.15458
 H59 H 0.87483 0.34912 -0.19316
 H60 H 0.84999 0.37515 -0.19259
 H61 H 0.81131 0.37484 -0.15235
 H62 H 0.81080 0.34932 -0.12637
 H63 H 0.84720 0.30869 -0.12853
 C64 C 0.85879 0.83309 0.34572
 C65 C 0.84588 0.83298 0.35877
 C66 C 0.83389 0.84601 0.35925
 C67 C 0.83457 0.85928 0.34662
 C68 C 0.84718 0.85933 0.33372
 C69 C 0.85945 0.84612 0.33329
 C70 C 0.87182 0.82184 0.34180
 N71 N 0.88058 0.82758 0.32717
 C72 C 0.87288 0.84254 0.32196
 C73 C 0.84406 0.87314 0.32274
 N74 N 0.82973 0.88161 0.32855
 C75 C 0.82400 0.87302 0.34331
 C76 C 0.82260 0.84230 0.37283
 N77 N 0.82735 0.82723 0.38059
 C78 C 0.84164 0.82149 0.37200
 H79 H 0.87413 0.81006 0.34901
 H80 H 0.87663 0.85056 0.31086
 H81 H 0.85183 0.87646 0.31131
 H82 H 0.81255 0.87584 0.35089
 H83 H 0.81170 0.85008 0.37666
 H84 H 0.84822 0.80955 0.37470
 C85 C 0.64147 0.66588 0.34169
 C86 C 0.65497 0.66668 0.35409
 C87 C 0.66792 0.65459 0.35367
 C88 C 0.66751 0.64145 0.34091
 C89 C 0.65415 0.64057 0.32877
 C90 C 0.64103 0.65293 0.32914
 C91 C 0.62773 0.67650 0.33834
 N92 N 0.61888 0.67036 0.32404
 C93 C 0.62695 0.65585 0.31840
 C94 C 0.65736 0.62682 0.31777
 N95 N 0.67238 0.61931 0.32291
 C96 C 0.67863 0.62826 0.33708
 C97 C 0.67947 0.65876 0.36689
 N98 N 0.67381 0.67307 0.37547
 C99 C 0.65878 0.67795 0.36762
 H100 H 0.62489 0.68825 0.34541
 H101 H 0.62307 0.64803 0.30719
 H102 H 0.64927 0.62262 0.30686
 H103 H 0.69065 0.62572 0.34388
 H104 H 0.69128 0.65198 0.36976
 H105 H 0.65098 0.68880 0.37152
 C106 C 0.64168 0.16616 -0.15639
 C107 C 0.65485 0.16668 -0.14362
 C108 C 0.66793 0.15475 -0.14412
 C109 C 0.66795 0.14203 -0.15734
 C110 C 0.65500 0.14152 -0.16992
 C111 C 0.64175 0.15375 -0.16947
 C112 C 0.62788 0.17668 -0.15960
 N113 N 0.61936 0.17115 -0.17448
 C114 C 0.62793 0.15697 -0.18048
 C115 C 0.65866 0.12817 -0.18130
 N116 N 0.67357 0.12038 -0.17597
 C117 C 0.67921 0.12902 -0.16122
 C118 C 0.67926 0.15878 -0.13065
 N119 N 0.67337 0.17289 -0.12190
 C120 C 0.65837 0.17773 -0.12980
 H121 H 0.62497 0.18798 -0.15185
 H122 H 0.62464 0.14935 -0.19202
 H123 H 0.65070 0.12452 -0.19249
 H124 H 0.69091 0.12658 -0.15386
 H125 H 0.69120 0.15216 -0.12787
 H126 H 0.65048 0.18850 -0.12587
 C127 C 0.14138 0.66787 -0.15724
 C128 C 0.15419 0.66793 -0.14405
 C129 C 0.16623 0.65495 -0.14354
 C130 C 0.16572 0.64180 -0.15626
 C131 C 0.15322 0.64180 -0.16931
 C132 C 0.14088 0.65495 -0.16977
 C133 C 0.12826 0.67904 -0.16113
 N134 N 0.11957 0.67335 -0.17585
 C135 C 0.12743 0.65853 -0.18115
 C136 C 0.15647 0.62803 -0.18029
 N137 N 0.17077 0.61956 -0.17430
 C138 C 0.17634 0.62810 -0.15946
 C139 C 0.17736 0.65852 -0.12977
 N140 N 0.17248 0.67347 -0.12190
 C141 C 0.15825 0.67927 -0.13063
 H142 H 0.12580 0.69070 -0.15382
 H143 H 0.12376 0.65057 -0.19231
 H144 H 0.14881 0.62471 -0.19181
 H145 H 0.18772 0.62526 -0.15173
 H146 H 0.18823 0.65071 -0.12585
 H147 H 0.15157 0.69114 -0.12787
 C148 C 0.14301 0.16669 0.34472
 C149 C 0.15596 0.16675 0.35775
 C150 C 0.16805 0.15380 0.35811
 C151 C 0.16742 0.14067 0.34537
 C152 C 0.15476 0.14066 0.33248
 C153 C 0.14240 0.15379 0.33218
 C154 C 0.12987 0.17788 0.34095
 N155 N 0.12107 0.17222 0.32629
 C156 C 0.12887 0.15738 0.32093
 C157 C 0.15789 0.12695 0.32143
 N158 N 0.17228 0.11849 0.32717
 C159 C 0.17803 0.12699 0.34197
 C160 C 0.17932 0.15742 0.37177
 N161 N 0.17443 0.17234 0.37970
 C162 C 0.16010 0.17809 0.37112
 H163 H 0.12749 0.18955 0.34828
 H164 H 0.12513 0.14945 0.30977
 H165 H 0.15007 0.12368 0.31000
 H166 H 0.18950 0.12415 0.34954
 H167 H 0.19027 0.14968 0.37557
 H168 H 0.15340 0.18993 0.37395
 C169 C 0.64007 0.33325 0.65812
 C170 C 0.65348 0.33243 0.64564
 C171 C 0.66644 0.34450 0.64599
 C172 C 0.66614 0.35764 0.65875
 C173 C 0.65287 0.35855 0.67096
 C174 C 0.63974 0.34622 0.67067
 C175 C 0.62633 0.32269 0.66152
 N176 N 0.61758 0.32887 0.67587
 C177 C 0.62572 0.34335 0.68146
 C178 C 0.65618 0.37230 0.68194
 N179 N 0.67116 0.37978 0.67671
 C180 C 0.67730 0.37081 0.66251
 C181 C 0.67786 0.34034 0.63268
 N182 N 0.67212 0.32605 0.62412
 C183 C 0.65717 0.32116 0.63206
 H184 H 0.62342 0.31095 0.65446
 H185 H 0.62191 0.35119 0.69269
 H186 H 0.64817 0.37652 0.69288
 H187 H 0.68926 0.37331 0.65564
 H188 H 0.68964 0.34712 0.62973
 H189 H 0.64935 0.31033 0.62818
 C190 C 0.64323 0.83329 1.15755
 C191 C 0.65666 0.83257 1.14510
 C192 C 0.66982 0.84439 1.14581
 C193 C 0.66968 0.85722 1.15892
 C194 C 0.65639 0.85798 1.17114
 C195 C 0.64310 0.84583 1.17049
 C196 C 0.62934 0.82286 1.16056
 N197 N 0.62058 0.82856 1.17520
 C198 C 0.62907 0.84278 1.18122
 C199 C 0.65980 0.87149 1.18241
 N200 N 0.67483 0.87897 1.17734
 C201 C 0.68094 0.87021 1.16298
 C202 C 0.68129 0.84025 1.13251
 N203 N 0.67537 0.82620 1.12366
 C204 C 0.66025 0.82149 1.13135
 H205 H 0.62654 0.81148 1.15288
 H206 H 0.62562 0.85051 1.19262
 H207 H 0.65176 0.87561 1.19338
 H208 H 0.69290 0.87279 1.15614
 H209 H 0.69326 0.84682 1.12983
 H210 H 0.65228 0.81084 1.12724
 C211 C 0.14178 0.33239 1.15708
 C212 C 0.15484 0.33220 1.14419
 C213 C 0.16693 0.34513 1.14384
 C214 C 0.16621 0.35839 1.15644
 C215 C 0.15335 0.35857 1.16915
 C216 C 0.14102 0.34543 1.16945
 C217 C 0.12865 0.32121 1.16086
 N218 N 0.11975 0.32700 1.17538
 C219 C 0.12744 0.34193 1.18062
 C220 C 0.15629 0.37247 1.18003
 N221 N 0.17070 0.38071 1.17430
 C222 C 0.17679 0.37210 1.15983
 C223 C 0.17822 0.34145 1.13025
 N224 N 0.17334 0.32653 1.12233
 C225 C 0.15901 0.32081 1.13088
 H226 H 0.12637 0.30944 1.15367
 H227 H 0.12360 0.34997 1.19165
 H228 H 0.14852 0.37618 1.19136
 H229 H 0.18845 0.37512 1.15264
 H230 H 0.18912 0.34923 1.12642
 H231 H 0.15227 0.30901 1.12800
 C232 C 0.14280 0.83250 0.65577
 C233 C 0.15593 0.83216 0.64296
 C234 C 0.16791 0.84519 0.64239
 C235 C 0.16703 0.85868 0.65471
 C236 C 0.15418 0.85901 0.66735
 C237 C 0.14189 0.84585 0.66785
 C238 C 0.12968 0.82135 0.65971
 N239 N 0.12070 0.82758 0.67388
 C240 C 0.12816 0.84259 0.67892
 C241 C 0.15711 0.87301 0.67808
 N242 N 0.17157 0.88132 0.67238
 C243 C 0.17755 0.87247 0.65792
 C244 C 0.17930 0.84135 0.62895
 N245 N 0.17458 0.82625 0.62131
 C246 C 0.16026 0.82057 0.62989
 H247 H 0.12718 0.80935 0.65297
 H248 H 0.12393 0.85069 0.68979
 H249 H 0.14913 0.87655 0.68927
 H250 H 0.18915 0.87513 0.65052
 H251 H 0.19016 0.84914 0.62501
 H252 H 0.15363 0.80866 0.62721
 C253 C 0.35861 0.66664 0.65895
 C254 C 0.34546 0.66688 0.64613
 C255 C 0.33340 0.65392 0.64578
 C256 C 0.33424 0.64058 0.65831
 C257 C 0.34721 0.64029 0.67093
 C258 C 0.35953 0.65343 0.67123
 C259 C 0.37175 0.67783 0.66273
 N260 N 0.38073 0.67177 0.67702
 C261 C 0.37328 0.65681 0.68227
 C262 C 0.34431 0.62633 0.68179
 N263 N 0.32982 0.61819 0.67615
 C264 C 0.32365 0.62687 0.66173
 C265 C 0.32209 0.65757 0.63217
 N266 N 0.32695 0.67249 0.62420
 C267 C 0.34125 0.67826 0.63278
 H268 H 0.37421 0.68977 0.65583
 H269 H 0.37751 0.64886 0.69329
 H270 H 0.35214 0.62258 0.69309
 H271 H 0.31190 0.62395 0.65463
 H272 H 0.31125 0.64973 0.62828
 H273 H 0.34800 0.69004 0.62982
 C274 C 0.35859 0.16450 1.15554
 C275 C 0.34521 0.16536 1.14302
 C276 C 0.33217 0.15338 1.14341
 C277 C 0.33237 0.14030 1.15628
 C278 C 0.34554 0.13941 1.16858
 C279 C 0.35879 0.15162 1.16822
 C280 C 0.37239 0.17499 1.15893
 N281 N 0.38106 0.16883 1.17337
 C282 C 0.37279 0.15446 1.17908
 C283 C 0.34202 0.12587 1.17976
 N284 N 0.32695 0.11832 1.17462
 C285 C 0.32110 0.12727 1.16013
 C286 C 0.32066 0.15772 1.13019
 N287 N 0.32642 0.17204 1.12167
 C288 C 0.34149 0.17674 1.12952
 H289 H 0.37541 0.18666 1.15177
 H290 H 0.37650 0.14667 1.19041
 H291 H 0.35015 0.12196 1.19074
 H292 H 0.30922 0.12510 1.15302
 H293 H 0.30875 0.15112 1.12737
 H294 H 0.34933 0.18758 1.12570
 C295 C 0.85878 0.66702 1.15685
 C296 C 0.84559 0.66739 1.14408
 C297 C 0.83359 0.65437 1.14355
 C298 C 0.83452 0.64084 1.15586
 C299 C 0.84754 0.64044 1.16842
 C300 C 0.85979 0.65362 1.16889
 C301 C 0.87183 0.67824 1.16085
 N302 N 0.88084 0.67201 1.17504
 C303 C 0.87350 0.65691 1.18001
 C304 C 0.84472 0.62636 1.17912
 N305 N 0.83022 0.61825 1.17346
 C306 C 0.82398 0.62707 1.15916
 C307 C 0.82219 0.65822 1.13006
 N308 N 0.82693 0.67331 1.12236
 C309 C 0.84125 0.67899 1.13097
 H310 H 0.87421 0.69032 1.15418
 H311 H 0.87776 0.64882 1.19089
 H312 H 0.85260 0.62252 1.19035
 H313 H 0.81219 0.62420 1.15210
 H314 H 0.81136 0.65041 1.12611
 H315 H 0.84792 0.69087 1.12823
 C316 C 0.85950 0.16686 0.65430
 C317 C 0.84597 0.16770 0.64194
 C318 C 0.83294 0.15570 0.64250
 C319 C 0.83333 0.14261 0.65535
 C320 C 0.84672 0.14174 0.66747
 C321 C 0.85987 0.15405 0.66698
 C322 C 0.87325 0.17743 0.65753
 N323 N 0.88213 0.17153 0.67205
 C324 C 0.87387 0.15706 0.67776
 C325 C 0.84347 0.12806 0.67859
 N326 N 0.82843 0.12058 0.67353
 C327 C 0.82217 0.12951 0.65931
 C328 C 0.82127 0.16002 0.62943
 N329 N 0.82691 0.17434 0.62085
 C330 C 0.84206 0.17908 0.62849
 H331 H 0.87584 0.18903 0.65012
 H332 H 0.87745 0.14914 0.68901
 H333 H 0.85159 0.12387 0.68950
 H334 H 0.81013 0.12700 0.65256
 H335 H 0.80934 0.15339 0.62675
 H336 H 0.84981 0.18995 0.62458
 C337 C 0.33329 0.35978 0.65842
 C338 C 0.33254 0.34655 0.64579
 C339 C 0.34461 0.33358 0.64615
 C340 C 0.35766 0.33368 0.65907
 C341 C 0.35850 0.34678 0.67144
 C342 C 0.34618 0.35993 0.67114
 C343 C 0.32270 0.37348 0.66184
 N344 N 0.32878 0.38204 0.67636
 C345 C 0.34322 0.37381 0.68206
 C346 C 0.37218 0.34329 0.68256
 N347 N 0.37967 0.32836 0.67724
 C348 C 0.37077 0.32244 0.66286
 C349 C 0.34052 0.32232 0.63269
 N350 N 0.32628 0.32817 0.62402
 C351 C 0.32134 0.34303 0.63205
 H352 H 0.31100 0.37650 0.65466
 H353 H 0.35098 0.37746 0.69343
 H354 H 0.37634 0.35113 0.69365
 H355 H 0.37329 0.31057 0.65588
 H356 H 0.34729 0.31055 0.62972
 H357 H 0.31052 0.35089 0.62813
 C358 C 0.33297 0.85910 0.15685
 C359 C 0.33258 0.84589 0.14418
 C360 C 0.34565 0.83394 0.14368
 C361 C 0.35928 0.83495 0.15590
 C362 C 0.35971 0.84799 0.16837
 C363 C 0.34646 0.86020 0.16881
 C364 C 0.32169 0.87211 0.16080
 N365 N 0.32797 0.88118 0.17488
 C366 C 0.34316 0.87391 0.17984
 C367 C 0.37388 0.84523 0.17902
 N368 N 0.38202 0.83075 0.17342
 C369 C 0.37312 0.82445 0.15921
 C370 C 0.34176 0.82249 0.13032
 N371 N 0.32657 0.82715 0.12267
 C372 C 0.32088 0.84148 0.13119
 H373 H 0.30954 0.87442 0.15417
 H374 H 0.35129 0.87822 0.19066
 H375 H 0.37776 0.85312 0.19018
 H376 H 0.37598 0.81266 0.15223
 H377 H 0.34959 0.81167 0.12641
 H378 H 0.30894 0.84809 0.12847
 C379 C 0.83512 0.35853 0.15633
 C380 C 0.83416 0.34498 0.14409
 C381 C 0.84620 0.33198 0.14461
 C382 C 0.85943 0.33238 0.15733
 C383 C 0.86047 0.34580 0.16931
 C384 C 0.84818 0.35897 0.16884
 C385 C 0.82454 0.37228 0.15961
 N386 N 0.83081 0.38114 0.17384
 C387 C 0.84535 0.37306 0.17949
 C388 C 0.87424 0.34253 0.18037
 N389 N 0.88159 0.32743 0.17541
 C390 C 0.87253 0.32118 0.16129
 C391 C 0.84182 0.32036 0.13159
 N392 N 0.82744 0.32601 0.12304
 C393 C 0.82271 0.34111 0.13069
 H394 H 0.81272 0.37511 0.15257
 H395 H 0.85324 0.37694 0.19068
 H396 H 0.87853 0.35063 0.19121
 H397 H 0.87491 0.30910 0.15466
 H398 H 0.84849 0.30848 0.12886
 H399 H 0.81184 0.34890 0.12676
 C400 C 0.83210 0.85812 0.65633
 C401 C 0.83143 0.84470 0.64390
 C402 C 0.84438 0.83261 0.64347
 C403 C 0.85814 0.83367 0.65552
 C404 C 0.85883 0.84690 0.66775
 C405 C 0.84572 0.85926 0.66813
 C406 C 0.82101 0.87134 0.66017
 N407 N 0.82754 0.88055 0.67402
 C408 C 0.84270 0.87319 0.67894
 C409 C 0.87309 0.84418 0.67828
 N410 N 0.88102 0.82953 0.67285
 C411 C 0.87191 0.82309 0.65886
 C412 C 0.84025 0.82101 0.63033
 N413 N 0.82505 0.82571 0.62275
 C414 C 0.81958 0.84022 0.63109
 H415 H 0.80883 0.87370 0.65364
 H416 H 0.85100 0.87759 0.68958
 H417 H 0.87717 0.85223 0.68925
 H418 H 0.87459 0.81116 0.65205
 H419 H 0.84796 0.81007 0.62651
 H420 H 0.80769 0.84692 0.62835
 C421 C 0.66494 0.64032 0.65755
 C422 C 0.66575 0.65370 0.64506
 C423 C 0.65375 0.66672 0.64550
 C424 C 0.64069 0.66652 0.65838
 C425 C 0.63978 0.65328 0.67063
 C426 C 0.65205 0.64008 0.67024
 C427 C 0.67551 0.62657 0.66091
 N428 N 0.66942 0.61789 0.67535
 C429 C 0.65498 0.62609 0.68106
 C430 C 0.62614 0.65673 0.68176
 N431 N 0.61873 0.67176 0.67658
 C432 C 0.62764 0.67779 0.66226
 C433 C 0.65795 0.67815 0.63221
 N434 N 0.67220 0.67236 0.62357
 C435 C 0.67701 0.65736 0.63144
 H436 H 0.68721 0.62361 0.65376
 H437 H 0.64722 0.62236 0.69240
 H438 H 0.62195 0.64880 0.69279
 H439 H 0.62519 0.68976 0.65541
 H440 H 0.65126 0.69000 0.62936
 H441 H 0.68782 0.64949 0.62751
 C442 C 0.66793 0.14038 0.15749
 C443 C 0.66838 0.15363 0.14482
 C444 C 0.65535 0.16563 0.14430
 C445 C 0.64174 0.16466 0.15650
 C446 C 0.64126 0.15160 0.16898
 C447 C 0.65444 0.13933 0.16944
 C448 C 0.67913 0.12729 0.16147
 N449 N 0.67281 0.11823 0.17554
 C450 C 0.65767 0.12557 0.18047
 C451 C 0.62711 0.15441 0.17960
 N452 N 0.61903 0.16893 0.17396
 C453 C 0.62795 0.17521 0.15977
 C454 C 0.65926 0.17710 0.13095
 N455 N 0.67441 0.17241 0.12331
 C456 C 0.68006 0.15804 0.13182
 H457 H 0.69126 0.12491 0.15486
 H458 H 0.64951 0.12128 0.19127
 H459 H 0.62318 0.14652 0.19077
 H460 H 0.62513 0.18702 0.15276
 H461 H 0.65144 0.18795 0.12704
 H462 H 0.69198 0.15139 0.12909
 C463 C 0.16489 0.64092 0.15600
 C464 C 0.16586 0.65450 0.14377
 C465 C 0.15386 0.66753 0.14430
 C466 C 0.14064 0.66712 0.15701
 C467 C 0.13960 0.65367 0.16898
 C468 C 0.15185 0.64048 0.16851
 C469 C 0.17545 0.62714 0.15930
 N470 N 0.16919 0.61827 0.17354
 C471 C 0.15467 0.62637 0.17918
 C472 C 0.12588 0.65695 0.18005
 N473 N 0.11856 0.67209 0.17512
 C474 C 0.12759 0.67836 0.16100
 C475 C 0.15826 0.67920 0.13130
 N476 N 0.17262 0.67354 0.12276
 C477 C 0.17731 0.65840 0.13040
 H478 H 0.18726 0.62431 0.15229
 H479 H 0.14680 0.62249 0.19037
 H480 H 0.12160 0.64883 0.19089
 H481 H 0.12524 0.69047 0.15438
 H482 H 0.15162 0.69111 0.12859
 H483 H 0.18816 0.65060 0.12647
 C484 C 0.16727 0.14233 0.65590
 C485 C 0.16836 0.15597 0.64375
 C486 C 0.15631 0.16896 0.64416
 C487 C 0.14292 0.16845 0.65666
 C488 C 0.14175 0.15495 0.66856
 C489 C 0.15405 0.14179 0.66820
 C490 C 0.17777 0.12852 0.65924
 N491 N 0.17130 0.11953 0.67330
 C492 C 0.15670 0.12759 0.67877
 C493 C 0.12783 0.15812 0.67940
 N494 N 0.12052 0.17324 0.67440
 C495 C 0.12975 0.17961 0.66047
 C496 C 0.16077 0.18063 0.63120
 N497 N 0.17522 0.17503 0.62280
 C498 C 0.17992 0.15992 0.63049
 H499 H 0.18966 0.12572 0.65236
 H500 H 0.14864 0.12361 0.68978
 H501 H 0.12341 0.14993 0.69012
 H502 H 0.12743 0.19173 0.65385
 H503 H 0.15408 0.19250 0.62839
 H504 H 0.19082 0.15215 0.62663
 C505 C 0.33364 0.64123 0.34112
 C506 C 0.33282 0.65454 0.35366
 C507 C 0.34488 0.66751 0.35332
 C508 C 0.35799 0.66732 0.34050
 C509 C 0.35890 0.65414 0.32822
 C510 C 0.34658 0.64100 0.32850
 C511 C 0.32309 0.62750 0.33773
 N512 N 0.32926 0.61884 0.32332
 C513 C 0.34371 0.62705 0.31767
 C514 C 0.37264 0.65753 0.31721
 N515 N 0.38012 0.67247 0.32249
 C516 C 0.37116 0.67850 0.33676
 C517 C 0.34072 0.67882 0.36672
 N518 N 0.32645 0.67300 0.37531
 C519 C 0.32157 0.65811 0.36731
 H520 H 0.31138 0.62451 0.34485
 H521 H 0.35153 0.62331 0.30639
 H522 H 0.37687 0.64960 0.30621
 H523 H 0.37366 0.69040 0.34368
 H524 H 0.34748 0.69058 0.36970
 H525 H 0.31076 0.65025 0.37121
 C526 C 0.33240 0.14025 0.84328
 C527 C 0.33195 0.15350 0.85591
 C528 C 0.34502 0.16545 0.85644
 C529 C 0.35867 0.16441 0.84428
 C530 C 0.35915 0.15135 0.83186
 C531 C 0.34592 0.13913 0.83138
 C532 C 0.32114 0.12722 0.83929
 N533 N 0.32747 0.11815 0.82524
 C534 C 0.34266 0.12541 0.82036
 C535 C 0.37331 0.15411 0.82124
 N536 N 0.38140 0.16862 0.82682
 C537 C 0.37247 0.17493 0.84099
 C538 C 0.34109 0.17696 0.86971
 N539 N 0.32588 0.17234 0.87730
 C540 C 0.32022 0.15798 0.86883
 H541 H 0.30898 0.12492 0.84584
 H542 H 0.35083 0.12108 0.80959
 H543 H 0.37722 0.14621 0.81009
 H544 H 0.37528 0.18675 0.84794
 H545 H 0.34891 0.18778 0.87361
 H546 H 0.30828 0.15139 0.87152
 C547 C 0.83310 0.64196 0.84205
 C548 C 0.83222 0.65548 0.85434
 C549 C 0.84430 0.66842 0.85386
 C550 C 0.85750 0.66800 0.84115
 C551 C 0.85847 0.65462 0.82911
 C552 C 0.84613 0.64151 0.82954
 C553 C 0.82254 0.62819 0.83880
 N554 N 0.82879 0.61931 0.82459
 C555 C 0.84330 0.62739 0.81892
 C556 C 0.87229 0.65782 0.81814
 N557 N 0.87975 0.67284 0.82321
 C558 C 0.87070 0.67910 0.83730
 C559 C 0.84006 0.67997 0.86701
 N560 N 0.82573 0.67432 0.87560
 C561 C 0.82088 0.65930 0.86784
 H562 H 0.81077 0.62534 0.84587
 H563 H 0.85120 0.62347 0.80777
 H564 H 0.87658 0.64971 0.80731
 H565 H 0.87316 0.69112 0.84403
 H566 H 0.84683 0.69177 0.86982
 H567 H 0.81003 0.65152 0.87180
 C568 C 0.83294 0.14296 0.34411
 C569 C 0.83234 0.15637 0.35654
 C570 C 0.84526 0.16848 0.35693
 C571 C 0.85895 0.16742 0.34481
 C572 C 0.85959 0.15417 0.33259
 C573 C 0.84649 0.14182 0.33226
 C574 C 0.82186 0.12973 0.34033
 N575 N 0.82831 0.12051 0.32646
 C576 C 0.84343 0.12788 0.32147
 C577 C 0.87379 0.15685 0.32202
 N578 N 0.88176 0.17149 0.32741
 C579 C 0.87272 0.17796 0.34142
 C580 C 0.84121 0.18005 0.37012
 N581 N 0.82609 0.17529 0.37779
 C582 C 0.82059 0.16080 0.36944
 H583 H 0.80972 0.12737 0.34692
 H584 H 0.85167 0.12347 0.31080
 H585 H 0.87782 0.14877 0.31107
 H586 H 0.87545 0.18988 0.34823
 H587 H 0.84891 0.19099 0.37394
 H588 H 0.80875 0.15406 0.37224
 C589 C 0.66612 0.35818 0.34068
 C590 C 0.66635 0.34508 0.35352
 C591 C 0.65339 0.33303 0.35385
 C592 C 0.64004 0.33382 0.34129
 C593 C 0.63976 0.34673 0.32864
 C594 C 0.65290 0.35906 0.32836
 C595 C 0.67730 0.37132 0.33692
 N596 N 0.67124 0.38025 0.32262
 C597 C 0.65628 0.37277 0.31732
 C598 C 0.62579 0.34380 0.31776
 N599 N 0.61763 0.32935 0.32342
 C600 C 0.62632 0.32323 0.33787
 C601 C 0.65703 0.32177 0.36750
 N602 N 0.67196 0.32665 0.37549
 C603 C 0.67774 0.34092 0.36691
 H604 H 0.68924 0.37383 0.34386
 H605 H 0.64833 0.37697 0.30628
 H606 H 0.62202 0.35158 0.30644
 H607 H 0.62339 0.31152 0.34499
 H608 H 0.64919 0.31094 0.37137
 H609 H 0.68953 0.34768 0.36989
 C610 C 0.66733 0.85991 0.84297
 C611 C 0.66777 0.84667 0.85565
 C612 C 0.65473 0.83469 0.85615
 C613 C 0.64111 0.83569 0.84392
 C614 C 0.64064 0.84874 0.83144
 C615 C 0.65384 0.86099 0.83099
 C616 C 0.67855 0.87297 0.83902
 N617 N 0.67224 0.88205 0.82492
 C618 C 0.65708 0.87474 0.81996
 C619 C 0.62648 0.84596 0.82078
 N620 N 0.61840 0.83145 0.82641
 C621 C 0.62732 0.82516 0.84062
 C622 C 0.65864 0.82322 0.86951
 N623 N 0.67381 0.82787 0.87717
 C624 C 0.67947 0.84223 0.86866
 H625 H 0.69068 0.87532 0.84565
 H626 H 0.64892 0.87905 0.80914
 H627 H 0.62257 0.85385 0.80960
 H628 H 0.62450 0.81336 0.84763
 H629 H 0.65081 0.81239 0.87341
 H630 H 0.69139 0.84885 0.87140
 C631 C 0.16449 0.35996 0.84446
 C632 C 0.16547 0.34636 0.85667
 C633 C 0.15338 0.33341 0.85619
 C634 C 0.14008 0.33393 0.84356
 C635 C 0.13902 0.34740 0.83160
 C636 C 0.15136 0.36051 0.83202
 C637 C 0.17511 0.37366 0.84111
 N638 N 0.16881 0.38259 0.82692
 C639 C 0.15420 0.37461 0.82135
 C640 C 0.12521 0.34422 0.82059
 N641 N 0.11785 0.32912 0.82554
 C642 C 0.12694 0.32279 0.83962
 C643 C 0.15781 0.32170 0.86915
 N644 N 0.17227 0.32724 0.87762
 C645 C 0.17700 0.34236 0.86998
 H646 H 0.18699 0.37641 0.84807
 H647 H 0.14627 0.37855 0.81020
 H648 H 0.12092 0.35237 0.80977
 H649 H 0.12458 0.31067 0.84622
 H650 H 0.15112 0.30983 0.87188
 H651 H 0.18792 0.35008 0.87385
 C652 C 0.16645 0.85893 0.34509
 C653 C 0.16749 0.84531 0.35728
 C654 C 0.15534 0.83243 0.35693
 C655 C 0.14190 0.83301 0.34445
 C656 C 0.14078 0.84649 0.33252
 C657 C 0.15318 0.85955 0.33282
 C658 C 0.17708 0.87260 0.34162
 N659 N 0.17065 0.88156 0.32752
 C660 C 0.15594 0.87364 0.32213
 C661 C 0.12685 0.84339 0.32166
 N662 N 0.11947 0.82831 0.32668
 C663 C 0.12868 0.82193 0.34065
 C664 C 0.15982 0.82071 0.36986
 N665 N 0.17437 0.82619 0.37819
 C666 C 0.17912 0.84127 0.37048
 H667 H 0.18905 0.87529 0.34843
 H668 H 0.14789 0.87763 0.31110
 H669 H 0.12247 0.85157 0.31090
 H670 H 0.12633 0.80982 0.34726
 H671 H 0.15308 0.80889 0.37268
 H672 H 0.19012 0.84894 0.37426
 O673 O 0.22751 0.98306 0.25158
 O674 O 0.25202 1.01661 0.22832
 O675 O 0.25227 0.98327 0.22828
 O676 O 0.22744 1.01653 0.25179
 O677 O 0.24670 1.01660 0.27343
 O678 O 0.27114 0.98296 0.25029
 O679 O 0.27129 1.01647 0.24994
 O680 O 0.24638 0.98332 0.27359
 Cu681 Cu 0.23789 0.99987 0.23782
 Cu682 Cu 0.26082 0.99983 0.26398
 C683 C 0.23272 0.97746 0.26658
 C684 C 0.26583 1.02231 0.23513
 C685 C 0.26589 0.97733 0.23534
 C686 C 0.23288 1.02233 0.26661
 O687 O 0.27092 0.48351 0.75155
 O688 O 0.24601 0.51726 0.77403
 O689 O 0.24562 0.48400 0.77426
 O690 O 0.27130 0.51702 0.75142
 O691 O 0.25279 0.51711 0.72907
 O692 O 0.22726 0.48389 0.75178
 O693 O 0.22743 0.51741 0.75176
 O694 O 0.25256 0.48388 0.72907
 Cu695 Cu 0.26033 0.50042 0.76504
 Cu696 Cu 0.23812 0.50059 0.73821
 C697 C 0.26602 0.47793 0.73644
 C698 C 0.23246 0.52314 0.76677
 C699 C 0.23208 0.47825 0.76691
 C700 C 0.26641 0.52275 0.73635
 O701 O 0.75464 -0.01673 0.27492
 O702 O 0.72946 0.01622 0.25134
 O703 O 0.72982 -0.01734 0.25171
 O704 O 0.75432 0.01656 0.27456
 O705 O 0.77311 0.01675 0.25251
 O706 O 0.74873 -0.01727 0.22978
 O707 O 0.74826 0.01603 0.22931
 O708 O 0.77361 -0.01676 0.25306
 Cu709 Cu 0.74014 -0.00032 0.26530
 Cu710 Cu 0.76284 -0.00032 0.23898
 C711 C 0.76841 -0.02242 0.26803
 C712 C 0.73458 0.02183 0.23632
 C713 C 0.73514 -0.02318 0.23688
 C714 C 0.76786 0.02252 0.26740
 O715 O 0.75321 0.48308 0.77328
 O716 O 0.72783 0.51638 0.75046
 O717 O 0.72797 0.48283 0.75057
 O718 O 0.75321 0.51637 0.77315
 O719 O 0.77152 0.51660 0.75069
 O720 O 0.74648 0.48285 0.72827
 O721 O 0.74614 0.51613 0.72800
 O722 O 0.77178 0.48306 0.75105
 Cu723 Cu 0.73868 0.49968 0.76408
 Cu724 Cu 0.76086 0.49967 0.73729
 C725 C 0.76681 0.47732 0.76608
 C726 C 0.73263 0.52196 0.73533
 C727 C 0.73297 0.47703 0.73560
 C728 C 0.76665 0.52227 0.76575
 O729 O 0.22774 0.51673 0.24849
 O730 O 0.25340 0.48354 0.27116
 O731 O 0.25322 0.51676 0.27105
 O732 O 0.22796 0.48319 0.24861
 O733 O 0.24621 0.48342 0.22608
 O734 O 0.27149 0.51697 0.24854
 O735 O 0.27166 0.48343 0.24864
 O736 O 0.24601 0.51665 0.22598
 Cu737 Cu 0.23871 0.50006 0.26205
 Cu738 Cu 0.26071 0.50013 0.23508
 C739 C 0.23249 0.52239 0.23336
 C740 C 0.26690 0.47778 0.26377
 C741 C 0.26667 0.52262 0.26363
 C742 C 0.23279 0.47753 0.23352
 O743 O 0.74785 1.01771 0.77145
 O744 O 0.77238 0.98400 0.74844
 O745 O 0.77266 1.01755 0.74833
 O746 O 0.74754 0.98440 0.77164
 O747 O 0.72875 0.98428 0.74956
 O748 O 0.75374 1.01761 0.72637
 O749 O 0.75358 0.98430 0.72637
 O750 O 0.72886 1.01782 0.74957
 Cu751 Cu 0.76203 1.00089 0.76214
 Cu752 Cu 0.73931 1.00102 0.73578
 C753 C 0.73419 1.02359 0.76444
 C754 C 0.76715 0.97833 0.73349
 C755 C 0.76743 1.02334 0.73342
 C756 C 0.73390 0.97860 0.76455
 O757 O 0.75420 0.51618 0.22590
 O758 O 0.72883 0.48280 0.24852
 O759 O 0.72891 0.51640 0.24859
 O760 O 0.75424 0.48297 0.22596
 O761 O 0.77260 0.48278 0.24843
 O762 O 0.74730 0.51617 0.27104
 O763 O 0.74720 0.48288 0.27098
 O764 O 0.77258 0.51629 0.24836
 Cu765 Cu 0.73965 0.49959 0.23503
 Cu766 Cu 0.76178 0.49952 0.26193
 C767 C 0.76771 0.52197 0.23325
 C768 C 0.73371 0.47706 0.26359
 C769 C 0.73382 0.52207 0.26366
 C770 C 0.76775 0.47714 0.23333
 O771 O 0.24625 -0.01688 0.72595
 O772 O 0.27094 0.01642 0.74940
 O773 O 0.27094 -0.01712 0.74938
 O774 O 0.24615 0.01641 0.72606
 O775 O 0.22734 0.01663 0.74809
 O776 O 0.25174 -0.01730 0.77102
 O777 O 0.25212 0.01605 0.77140
 O778 O 0.22705 -0.01684 0.74760
 Cu779 Cu 0.26050 -0.00028 0.73554
 Cu780 Cu 0.23765 -0.00037 0.76171
 C781 C 0.23242 -0.02256 0.73273
 C782 C 0.26575 0.02197 0.76440
 C783 C 0.26549 -0.02306 0.76414
 C784 C 0.23255 0.02232 0.73315
 O785 O 0.25139 0.22817 0.98219
 O786 O 0.22800 0.25191 1.01701
 O787 O 0.22785 0.25196 0.98228
 O788 O 0.25154 0.22810 1.01692
 O789 O 0.27164 0.24804 1.01695
 O790 O 0.24810 0.27175 0.98214
 O791 O 0.24825 0.27170 1.01704
 O792 O 0.27149 0.24811 0.98205
 Cu793 Cu 0.23767 0.23804 0.99961
 Cu794 Cu 0.26189 0.26189 0.99954
 C795 C 0.26539 0.23414 0.97608
 C796 C 0.23418 0.26582 1.02305
 C797 C 0.23397 0.26589 0.97621
 C798 C 0.26560 0.23404 1.02293
 O799 O 0.25028 0.76999 0.48238
 O800 O 0.27339 0.74588 0.51723
 O801 O 0.27335 0.74589 0.48255
 O802 O 0.25030 0.76999 0.51733
 O803 O 0.22966 0.75060 0.51718
 O804 O 0.25270 0.72653 0.48238
 O805 O 0.25275 0.72651 0.51742
 O806 O 0.22963 0.75062 0.48259
 Cu807 Cu 0.26388 0.75991 0.49988
 Cu808 Cu 0.23917 0.73656 0.49990
 C809 C 0.23602 0.76441 0.47650
 C810 C 0.26697 0.73212 0.52337
 C811 C 0.26691 0.73215 0.47642
 C812 C 0.23605 0.76441 0.52323
 O813 O 0.27154 0.75191 -0.01706
 O814 O 0.24804 0.72838 0.01782
 O815 O 0.24800 0.72841 -0.01706
 O816 O 0.27156 0.75185 0.01782
 O817 O 0.25157 0.77192 0.01773
 O818 O 0.22785 0.74832 -0.01701
 O819 O 0.22790 0.74830 0.01773
 O820 O 0.25154 0.77198 -0.01701
 Cu821 Cu 0.26180 0.73813 0.00038
 Cu822 Cu 0.23770 0.76214 0.00035
 C823 C 0.26555 0.76594 -0.02304
 C824 C 0.23398 0.73434 0.02380
 C825 C 0.23393 0.73436 -0.02305
 C826 C 0.26557 0.76586 0.02380
 O827 O 0.25269 0.27377 0.51718
 O828 O 0.22964 0.24911 0.48282
 O829 O 0.22976 0.24960 0.51739
 O830 O 0.25260 0.27331 0.48215
 O831 O 0.27334 0.25402 0.48258
 O832 O 0.25050 0.23030 0.51783
 O833 O 0.25038 0.22981 0.48290
 O834 O 0.27344 0.25448 0.51726
 Cu835 Cu 0.23914 0.26344 0.49985
 Cu836 Cu 0.26397 0.24019 0.50016
 C837 C 0.26695 0.26828 0.52320
 C838 C 0.23606 0.23524 0.47698
 C839 C 0.23624 0.23591 0.52367
 C840 C 0.26683 0.26768 0.47627
 O841 O 0.74845 0.77200 0.98226
 O842 O 0.77215 0.74799 1.01680
 O843 O 0.77196 0.74818 0.98203
 O844 O 0.74866 0.77182 1.01703
 O845 O 0.72854 0.75191 1.01709
 O846 O 0.75169 0.72842 0.98197
 O847 O 0.75187 0.72823 1.01688
 O848 O 0.72834 0.75208 0.98219
 Cu849 Cu 0.76234 0.76199 0.99953
 Cu850 Cu 0.73809 0.73817 0.99953
 C851 C 0.73440 0.76608 0.97622
 C852 C 0.76600 0.73406 1.02285
 C853 C 0.76574 0.73432 0.97593
 C854 C 0.73467 0.76583 1.02314
 O855 O 0.74560 0.27334 0.48247
 O856 O 0.76994 0.25022 0.51714
 O857 O 0.76983 0.25040 0.48220
 O858 O 0.74571 0.27319 0.51716
 O859 O 0.72634 0.25255 0.51730
 O860 O 0.75046 0.22975 0.48236
 O861 O 0.75056 0.22958 0.51695
 O862 O 0.72623 0.25269 0.48227
 Cu863 Cu 0.75974 0.26383 0.49975
 Cu864 Cu 0.73640 0.23912 0.49972
 C865 C 0.73181 0.26691 0.47634
 C866 C 0.76440 0.23596 0.52300
 C867 C 0.76425 0.23619 0.47627
 C868 C 0.73195 0.26672 0.52329
 O869 O 0.75197 0.27145 0.01795
 O870 O 0.72836 0.24796 -0.01685
 O871 O 0.72855 0.24789 0.01804
 O872 O 0.75182 0.27153 -0.01694
 O873 O 0.77202 0.25167 -0.01697
 O874 O 0.74860 0.22788 0.01786
 O875 O 0.74840 0.22795 -0.01688
 O876 O 0.77218 0.25159 0.01778
 Cu877 Cu 0.73816 0.26170 0.00055
 Cu878 Cu 0.76233 0.23777 0.00043
 C879 C 0.76608 0.26551 0.02389
 C880 C 0.73435 0.23396 -0.02286
 C881 C 0.73462 0.23389 0.02400
 C882 C 0.76588 0.26563 -0.02298
 O883 O 0.77067 0.75056 0.48336
 O884 O 0.74682 0.72653 0.51763
 O885 O 0.74705 0.72676 0.48275
 O886 O 0.77015 0.75009 0.51813
 O887 O 0.75011 0.77011 0.51784
 O888 O 0.72701 0.74678 0.48251
 O889 O 0.72654 0.74632 0.51738
 O890 O 0.75039 0.77034 0.48307
 Cu891 Cu 0.76068 0.73647 0.50043
 Cu892 Cu 0.73647 0.76036 0.50022
 C893 C 0.76460 0.76454 0.47732
 C894 C 0.73267 0.73239 0.52349
 C895 C 0.73314 0.73285 0.47649
 C896 C 0.76405 0.76407 0.52407
 O897 O 1.01789 0.22744 0.25209
 O898 O 0.98436 0.25223 0.22877
 O899 O 1.01777 0.25212 0.22876
 O900 O 0.98429 0.22748 0.25207
 O901 O 0.98465 0.24620 0.27413
 O902 O 1.01768 0.27124 0.25043
 O903 O 0.98409 0.27095 0.25082
 O904 O 1.01806 0.24655 0.27377
 Cu905 Cu 1.00107 0.23790 0.23825
 Cu906 Cu 1.00112 0.26065 0.26446
 C907 C 1.02382 0.23284 0.26687
 C908 C 0.97840 0.26577 0.23586
 C909 C 1.02348 0.26588 0.23560
 C910 C 0.97873 0.23262 0.26709
 O911 O 0.51590 0.27099 0.75111
 O912 O 0.48299 0.24527 0.77413
 O913 O 0.51633 0.24579 0.77382
 O914 O 0.48228 0.27057 0.75146
 O915 O 0.48252 0.25227 0.72902
 O916 O 0.51642 0.22729 0.75158
 O917 O 0.48281 0.22698 0.75169
 O918 O 0.51587 0.25256 0.72879
 Cu919 Cu 0.49936 0.26003 0.76485
 Cu920 Cu 0.49942 0.23791 0.73805
 C921 C 0.52157 0.26614 0.73603
 C922 C 0.47722 0.23175 0.76683
 C923 C 0.52222 0.23231 0.76656
 C924 C 0.47654 0.26565 0.73642
 O925 O -0.01749 0.27184 0.74929
 O926 O 0.01657 0.24752 0.72636
 O927 O -0.01681 0.24715 0.72598
 O928 O 0.01613 0.27226 0.74957
 O929 O 0.01590 0.25351 0.77165
 O930 O -0.01665 0.22805 0.74772
 O931 O 0.01690 0.22878 0.74845
 O932 O -0.01752 0.25273 0.77101
 Cu933 Cu -0.00041 0.26162 0.73563
 Cu934 Cu -0.00034 0.23886 0.76189
 C935 C -0.02343 0.26636 0.76403
 C936 C 0.02264 0.23404 0.73354
 C937 C -0.02238 0.23330 0.73278
 C938 C 0.02170 0.26716 0.76463
 O939 O 0.48279 0.27014 0.24810
 O940 O 0.51658 0.24504 0.22576
 O941 O 0.48328 0.24479 0.22558
 O942 O 0.51643 0.27048 0.24822
 O943 O 0.51636 0.25227 0.27079
 O944 O 0.48321 0.22657 0.24814
 O945 O 0.51683 0.22682 0.24832
 O946 O 0.48304 0.25190 0.27064
 Cu947 Cu 0.49977 0.25948 0.23469
 Cu948 Cu 0.49989 0.23753 0.26171
 C949 C 0.47709 0.26528 0.26318
 C950 C 0.52250 0.23164 0.23322
 C951 C 0.47754 0.23131 0.23300
 C952 C 0.52209 0.26577 0.26338
 O953 O 1.01694 0.77229 0.74815
 O954 O 0.98327 0.74746 0.77107
 O955 O 1.01668 0.74750 0.77125
 O956 O 0.98332 0.77245 0.74803
 O957 O 0.98354 0.75385 0.72587
 O958 O 1.01674 0.72865 0.74932
 O959 O 0.98308 0.72886 0.74892
 O960 O 1.01692 0.75352 0.72614
 Cu961 Cu 1.00003 0.76182 0.76182
 Cu962 Cu 1.00007 0.73931 0.73538
 C963 C 1.02277 0.76709 0.73326
 C964 C 0.97735 0.73396 0.76387
 C965 C 1.02250 0.73386 0.76425
 C966 C 0.97770 0.76743 0.73299
 O967 O 0.51759 0.77244 0.24865
 O968 O 0.48372 0.74753 0.27118
 O969 O 0.51710 0.74711 0.27139
 O970 O 0.48398 0.77278 0.24849
 O971 O 0.48412 0.75449 0.22603
 O972 O 0.51704 0.72870 0.24906
 O973 O 0.48341 0.72924 0.24874
 O974 O 0.51747 0.75394 0.22640
 Cu975 Cu 0.50062 0.76183 0.26215
 Cu976 Cu 0.50050 0.73972 0.23535
 C977 C 0.52337 0.76741 0.23367
 C978 C 0.47770 0.73418 0.26377
 C979 C 0.52276 0.73353 0.26414
 C980 C 0.47836 0.76801 0.23335
 O981 O -0.01715 0.77220 0.25210
 O982 O 0.01630 0.74746 0.22874
 O983 O -0.01706 0.74745 0.22881
 O984 O 0.01647 0.77224 0.25192
 O985 O 0.01638 0.75347 0.27398
 O986 O -0.01699 0.72853 0.25073
 O987 O 0.01662 0.72869 0.25080
 O988 O -0.01703 0.75320 0.27395
 Cu989 Cu -0.00038 0.76176 0.23822
 Cu990 Cu -0.00024 0.73906 0.26455
 C991 C -0.02290 0.76686 0.26699
 C992 C 0.02224 0.73388 0.23582
 C993 C -0.02279 0.73377 0.23582
 C994 C 0.02221 0.76707 0.26688
 O995 O 0.51649 0.75498 0.77406
 O996 O 0.48323 0.72946 0.75132
 O997 O 0.51687 0.72970 0.75139
 O998 O 0.48315 0.75465 0.77396
 O999 O 0.48299 0.77318 0.75169
 O1000 O 0.51652 0.74803 0.72893
 O1001 O 0.48314 0.74793 0.72898
 O1002 O 0.51658 0.77329 0.75158
 Cu1003 Cu 0.49996 0.74032 0.76490
 Cu1004 Cu 0.49979 0.76247 0.73807
 C1005 C 0.52226 0.76847 0.76669
 C1006 C 0.47742 0.73439 0.73630
 C1007 C 0.52249 0.73460 0.73630
 C1008 C 0.47727 0.76817 0.76671
 C1009 C 0.42222 0.30219 0.29752
 C1010 C 0.41242 0.31395 0.28761
 C1011 C 0.39861 0.32237 0.29587
 C1012 C 0.39463 0.31917 0.31396
 C1013 C 0.40483 0.30748 0.32371
 C1014 C 0.41854 0.29888 0.31554
 C1015 C 0.43652 0.29302 0.28880
 C1016 C 0.44609 0.28101 0.29863
 C1017 C 0.45942 0.27205 0.29019
 C1018 C 0.46330 0.27514 0.27209
 C1019 C 0.45371 0.28742 0.26250
 C1020 C 0.44021 0.29631 0.27077
 C1021 C 0.42856 0.28693 0.32500
 C1022 C 0.44208 0.27811 0.31667
 C1023 C 0.41652 0.31694 0.26960
 C1024 C 0.43021 0.30830 0.26134
 H1025 H 0.42585 0.28428 0.33892
 H1026 H 0.44940 0.26891 0.32441
 H1027 H 0.40907 0.32600 0.26181
 H1028 H 0.43291 0.31095 0.24741
 H1029 H 0.39080 0.33111 0.28810
 H1030 H 0.40218 0.30510 0.33768
 H1031 H 0.46678 0.26270 0.29772
 H1032 H 0.45653 0.28983 0.24855
 C1033 C 0.42252 0.80492 0.80152
 C1034 C 0.41444 0.81857 0.79268
 C1035 C 0.40057 0.82694 0.80091
 C1036 C 0.39454 0.82173 0.81795
 C1037 C 0.40327 0.80810 0.82665
 C1038 C 0.41709 0.79966 0.81850
 C1039 C 0.43683 0.79581 0.79275
 C1040 C 0.44474 0.78200 0.80155
 C1041 C 0.45808 0.77314 0.79303
 C1042 C 0.46354 0.77800 0.77581
 C1043 C 0.45559 0.79204 0.76726
 C1044 C 0.44218 0.80096 0.77567
 C1045 C 0.42548 0.78592 0.82698
 C1046 C 0.43906 0.77722 0.81864
 C1047 C 0.42025 0.82345 0.77564
 C1048 C 0.43388 0.81480 0.76728
 H1049 H 0.42143 0.78175 0.84012
 H1050 H 0.44509 0.76661 0.82559
 H1051 H 0.41414 0.83399 0.76864
 H1052 H 0.43788 0.81892 0.75410
 H1053 H 0.39436 0.83717 0.79362
 H1054 H 0.39959 0.80392 0.83984
 H1055 H 0.46412 0.76241 0.79977
 H1056 H 0.45966 0.79589 0.75401
 C1057 C -0.07920 0.30173 0.79870
 C1058 C -0.08521 0.29573 0.81519
 C1059 C -0.09907 0.30404 0.82341
 C1060 C -0.10720 0.31836 0.81530
 C1061 C -0.10071 0.32418 0.79866
 C1062 C -0.08681 0.31593 0.79037
 C1063 C -0.06470 0.29290 0.78995
 C1064 C -0.05874 0.29883 0.77337
 C1065 C -0.04508 0.29025 0.76500
 C1066 C -0.03747 0.27578 0.77310
 C1067 C -0.04359 0.27010 0.78980
 C1068 C -0.05719 0.27861 0.79827
 C1069 C -0.08043 0.32155 0.77379
 C1070 C -0.06664 0.31315 0.76545
 C1071 C -0.07725 0.28146 0.82318
 C1072 C -0.06350 0.27303 0.81486
 H1073 H -0.08618 0.33251 0.76718
 H1074 H -0.06217 0.31788 0.75266
 H1075 H -0.08176 0.27670 0.83595
 H1076 H -0.05779 0.26203 0.82143
 H1077 H -0.10318 0.29928 0.83624
 H1078 H -0.10651 0.33489 0.79177
 H1079 H -0.04052 0.29473 0.75215
 H1080 H -0.03784 0.25901 0.79619
 C1081 C -0.07788 0.80283 0.30229
 C1082 C -0.08380 0.79687 0.31884
 C1083 C -0.09755 0.80527 0.32716
 C1084 C -0.10566 0.81962 0.31909
 C1085 C -0.09923 0.82542 0.30241
 C1086 C -0.08545 0.81708 0.29401
 C1087 C -0.06355 0.79387 0.29340
 C1088 C -0.05770 0.79973 0.27675
 C1089 C -0.04424 0.79101 0.26823
 C1090 C -0.03669 0.77646 0.27624
 C1091 C -0.04267 0.77087 0.29303
 C1092 C -0.05608 0.77951 0.30165
 C1093 C -0.07919 0.82264 0.27738
 C1094 C -0.06555 0.81412 0.26890
 C1095 C -0.07589 0.78255 0.32676
 C1096 C -0.06228 0.77401 0.31831
 H1097 H -0.08491 0.83364 0.27082
 H1098 H -0.06117 0.81879 0.25605
 H1099 H -0.08032 0.77783 0.33957
 H1100 H -0.05661 0.76296 0.32483
 H1101 H -0.10160 0.80056 0.34004
 H1102 H -0.10503 0.83615 0.29556
 H1103 H -0.03977 0.79543 0.25531
 H1104 H -0.03697 0.75972 0.29936
 C1105 C 0.57672 0.69562 0.29910
 C1106 C 0.58019 0.69866 0.31721
 C1107 C 0.59382 0.68995 0.32547
 C1108 C 0.60421 0.67848 0.31570
 C1109 C 0.60038 0.67550 0.29753
 C1110 C 0.58663 0.68399 0.28920
 C1111 C 0.56259 0.70499 0.29025
 C1112 C 0.55915 0.70199 0.27211
 C1113 C 0.54586 0.71112 0.26371
 C1114 C 0.53626 0.72338 0.27325
 C1115 C 0.53986 0.72617 0.29146
 C1116 C 0.55297 0.71695 0.30005
 C1117 C 0.58275 0.68128 0.27108
 C1118 C 0.56921 0.69008 0.26270
 C1119 C 0.57009 0.71051 0.32665
 C1120 C 0.55674 0.71955 0.31820
 H1121 H 0.59029 0.67232 0.26329
 H1122 H 0.56669 0.68765 0.24870
 H1123 H 0.57263 0.71296 0.34065
 H1124 H 0.54938 0.72870 0.32592
 H1125 H 0.59634 0.69218 0.33950
 H1126 H 0.60830 0.66694 0.28972
 H1127 H 0.54325 0.70894 0.24967
 H1128 H 0.53249 0.73550 0.29895
 C1129 C 0.57723 0.19567 0.80130
 C1130 C 0.58530 0.18204 0.79248
 C1131 C 0.59919 0.17366 0.80071
 C1132 C 0.60526 0.17885 0.81775
 C1133 C 0.59654 0.19247 0.82643
 C1134 C 0.58270 0.20091 0.81827
 C1135 C 0.56288 0.20477 0.79253
 C1136 C 0.55497 0.21855 0.80132
 C1137 C 0.54158 0.22738 0.79281
 C1138 C 0.53605 0.22253 0.77561
 C1139 C 0.54401 0.20853 0.76707
 C1140 C 0.55748 0.19963 0.77546
 C1141 C 0.57432 0.21463 0.82674
 C1142 C 0.56070 0.22332 0.81840
 C1143 C 0.57945 0.17717 0.77544
 C1144 C 0.56578 0.18582 0.76709
 H1145 H 0.57840 0.21879 0.83988
 H1146 H 0.55467 0.23391 0.82534
 H1147 H 0.58555 0.16665 0.76845
 H1148 H 0.56174 0.18170 0.75392
 H1149 H 0.60539 0.16345 0.79344
 H1150 H 0.60025 0.19663 0.83962
 H1151 H 0.53553 0.23809 0.79956
 H1152 H 0.53989 0.20468 0.75384
 C1153 C 1.07772 0.69790 0.79942
 C1154 C 1.08357 0.70372 0.81604
 C1155 C 1.09743 0.69539 0.82431
 C1156 C 1.10571 0.68124 0.81611
 C1157 C 1.09935 0.67556 0.79936
 C1158 C 1.08546 0.68384 0.79102
 C1159 C 1.06328 0.70680 0.79058
 C1160 C 1.05751 0.70108 0.77385
 C1161 C 1.04396 0.70979 0.76537
 C1162 C 1.03628 0.72417 0.77350
 C1163 C 1.04217 0.72960 0.79038
 C1164 C 1.05566 0.72097 0.79896
 C1165 C 1.07925 0.67841 0.77431
 C1166 C 1.06552 0.68688 0.76588
 C1167 C 1.07550 0.71785 0.82410
 C1168 C 1.06179 0.72634 0.81569
 H1169 H 1.08510 0.66756 0.76765
 H1170 H 1.06119 0.68232 0.75297
 H1171 H 1.07987 0.72246 0.83696
 H1172 H 1.05600 0.73725 0.82232
 H1173 H 1.10142 0.70000 0.83725
 H1174 H 1.10528 0.66499 0.79242
 H1175 H 1.03957 0.70550 0.75238
 H1176 H 1.03638 0.74062 0.79680
 C1177 C 1.07921 0.19692 0.30176
 C1178 C 1.08675 0.18273 0.29341
 C1179 C 1.10064 0.17440 0.30170
 C1180 C 1.10720 0.18016 0.31833
 C1181 C 1.09911 0.19444 0.32648
 C1182 C 1.08526 0.20283 0.31827
 C1183 C 1.06477 0.20587 0.29299
 C1184 C 1.05734 0.22017 0.30131
 C1185 C 1.04382 0.22881 0.29279
 C1186 C 1.03771 0.22326 0.27604
 C1187 C 1.04522 0.20875 0.26797
 C1188 C 1.05879 0.20004 0.27638
 C1189 C 1.07738 0.21710 0.32627
 C1190 C 1.06367 0.22564 0.31792
 C1191 C 1.08035 0.17720 0.27682
 C1192 C 1.06661 0.18570 0.26845
 H1193 H 1.08191 0.22179 0.33905
 H1194 H 1.05803 0.23665 0.32450
 H1195 H 1.08605 0.16625 0.27020
 H1196 H 1.06212 0.18106 0.25564
 H1197 H 1.10640 0.16371 0.29479
 H1198 H 1.10326 0.19913 0.33933
 H1199 H 1.03815 0.23993 0.29916
 H1200 H 1.04066 0.20436 0.25508
 C1201 C 0.57546 0.30382 0.70093
 C1202 C 0.58548 0.31538 0.71081
 C1203 C 0.59922 0.32380 0.70243
 C1204 C 0.60293 0.32082 0.68425
 C1205 C 0.59244 0.30941 0.67450
 C1206 C 0.57881 0.30078 0.68280
 C1207 C 0.56135 0.29451 0.70982
 C1208 C 0.55162 0.28262 0.70004
 C1209 C 0.53853 0.27346 0.70866
 C1210 C 0.53504 0.27624 0.72690
 C1211 C 0.54475 0.28844 0.73642
 C1212 C 0.55802 0.29751 0.72797
 C1213 C 0.56860 0.28899 0.67338
 C1214 C 0.55527 0.28002 0.68187
 C1215 C 0.58172 0.31809 0.72894
 C1216 C 0.56818 0.30936 0.73736
 H1217 H 0.57105 0.28654 0.65937
 H1218 H 0.54782 0.27092 0.67417
 H1219 H 0.58934 0.32700 0.73671
 H1220 H 0.56576 0.31178 0.75138
 H1221 H 0.60723 0.33231 0.71023
 H1222 H 0.59487 0.30719 0.66046
 H1223 H 0.53107 0.26417 0.70119
 H1224 H 0.54222 0.29061 0.75047
 C1225 C 0.57834 0.80411 0.19911
 C1226 C 0.58627 0.81784 0.20791
 C1227 C 0.60017 0.82621 0.19976
 C1228 C 0.60641 0.82092 0.18283
 C1229 C 0.59782 0.80722 0.17416
 C1230 C 0.58396 0.79878 0.18224
 C1231 C 0.56399 0.79500 0.20782
 C1232 C 0.55622 0.78111 0.19906
 C1233 C 0.54284 0.77226 0.20753
 C1234 C 0.53719 0.77720 0.22465
 C1235 C 0.54501 0.79130 0.23315
 C1236 C 0.55846 0.80021 0.22480
 C1237 C 0.57570 0.78496 0.17379
 C1238 C 0.56209 0.77626 0.18207
 C1239 C 0.58028 0.82279 0.22486
 C1240 C 0.56662 0.81413 0.23315
 H1241 H 0.57989 0.78073 0.16073
 H1242 H 0.55617 0.76559 0.17516
 H1243 H 0.58628 0.83338 0.23182
 H1244 H 0.56248 0.81831 0.24625
 H1245 H 0.60627 0.83649 0.20702
 H1246 H 0.60165 0.80298 0.16104
 H1247 H 0.53691 0.76148 0.20081
 H1248 H 0.54079 0.79522 0.24632
 C1249 C 1.07818 0.30218 0.20015
 C1250 C 1.08419 0.29622 0.18365
 C1251 C 1.09792 0.30467 0.17534
 C1252 C 1.10593 0.31906 0.18338
 C1253 C 1.09939 0.32487 0.19999
 C1254 C 1.08563 0.31649 0.20837
 C1255 C 1.06389 0.29315 0.20905
 C1256 C 1.05797 0.29901 0.22566
 C1257 C 1.04457 0.29021 0.23421
 C1258 C 1.03717 0.27558 0.22627
 C1259 C 1.04321 0.26999 0.20952
 C1260 C 1.05656 0.27872 0.20087
 C1261 C 1.07927 0.32206 0.22496
 C1262 C 1.06568 0.31347 0.23345
 C1263 C 1.07640 0.28183 0.17578
 C1264 C 1.06284 0.27322 0.18425
 H1265 H 1.08490 0.33310 0.23148
 H1266 H 1.06123 0.31815 0.24626
 H1267 H 1.08090 0.27711 0.16301
 H1268 H 1.05727 0.26212 0.17777
 H1269 H 1.10206 0.29994 0.16251
 H1270 H 1.10509 0.33565 0.20681
 H1271 H 1.04006 0.29463 0.24709
 H1272 H 1.03762 0.25878 0.20325
 C1273 C 1.07819 0.80299 0.69873
 C1274 C 1.08203 0.79937 0.68082
 C1275 C 1.09589 0.80771 0.67262
 C1276 C 1.10610 0.81945 0.68226
 C1277 C 1.10197 0.82294 0.70024
 C1278 C 1.08801 0.81480 0.70851
 C1279 C 1.06372 0.79411 0.70746
 C1280 C 1.05988 0.79773 0.72538
 C1281 C 1.04623 0.78910 0.73368
 C1282 C 1.03663 0.77674 0.72424
 C1283 C 1.04065 0.77334 0.70624
 C1284 C 1.05414 0.78204 0.69777
 C1285 C 1.08375 0.81811 0.72641
 C1286 C 1.06989 0.80975 0.73469
 C1287 C 1.07199 0.78738 0.67148
 C1288 C 1.05831 0.77882 0.67983
 H1289 H 1.09121 0.82721 0.73411
 H1290 H 1.06708 0.81265 0.74852
 H1291 H 1.07481 0.78448 0.65765
 H1292 H 1.05098 0.76956 0.67220
 H1293 H 1.09865 0.80509 0.65873
 H1294 H 1.10978 0.83172 0.70794
 H1295 H 1.04331 0.79175 0.74755
 H1296 H 1.03330 0.76392 0.69884
 C1297 C 0.42282 0.69714 0.70182
 C1298 C 0.41909 0.70044 0.68380
 C1299 C 0.40540 0.69180 0.67561
 C1300 C 0.39525 0.68009 0.68536
 C1301 C 0.39930 0.67690 0.70345
 C1302 C 0.41309 0.68535 0.71171
 C1303 C 0.43708 0.70637 0.71055
 C1304 C 0.44081 0.70309 0.72858
 C1305 C 0.45425 0.71206 0.73688
 C1306 C 0.46374 0.72441 0.72732
 C1307 C 0.45984 0.72748 0.70921
 C1308 C 0.44657 0.71845 0.70074
 C1309 C 0.41724 0.68237 0.72972
 C1310 C 0.43090 0.69105 0.73800
 C1311 C 0.42904 0.71244 0.67435
 C1312 C 0.44251 0.72133 0.68270
 H1313 H 0.40984 0.67328 0.73751
 H1314 H 0.43363 0.68841 0.75193
 H1315 H 0.42629 0.71508 0.66043
 H1316 H 0.44976 0.73057 0.67497
 H1317 H 0.40271 0.69419 0.66165
 H1318 H 0.39154 0.66814 0.71123
 H1319 H 0.45709 0.70966 0.75083
 H1320 H 0.46711 0.73690 0.70171
 C1321 C 0.42339 0.19371 0.19825
 C1322 C 0.41324 0.18235 0.20825
 C1323 C 0.39944 0.17398 0.19994
 C1324 C 0.39578 0.17681 0.18170
 C1325 C 0.40640 0.18800 0.17183
 C1326 C 0.42009 0.19658 0.18006
 C1327 C 0.43758 0.20297 0.20705
 C1328 C 0.44743 0.21467 0.19714
 C1329 C 0.46058 0.22381 0.20568
 C1330 C 0.46401 0.22120 0.22397
 C1331 C 0.45419 0.20919 0.23363
 C1332 C 0.44085 0.20014 0.22527
 C1333 C 0.43043 0.20817 0.17051
 C1334 C 0.44383 0.21710 0.17892
 C1335 C 0.41696 0.17980 0.22644
 C1336 C 0.43056 0.18850 0.23478
 H1337 H 0.42802 0.21048 0.15646
 H1338 H 0.45137 0.22605 0.17111
 H1339 H 0.40924 0.17105 0.23430
 H1340 H 0.43294 0.18620 0.24885
 H1341 H 0.39133 0.16563 0.20782
 H1342 H 0.40401 0.19009 0.15775
 H1343 H 0.46812 0.23295 0.19810
 H1344 H 0.45667 0.20716 0.24773
 C1345 C -0.07729 0.69716 0.20047
 C1346 C -0.08101 0.70081 0.18253
 C1347 C -0.09465 0.69226 0.17413
 C1348 C -0.10474 0.68030 0.18360
 C1349 C -0.10072 0.67678 0.20162
 C1350 C -0.08698 0.68512 0.21009
 C1351 C -0.06308 0.70625 0.20943
 C1352 C -0.05935 0.70261 0.22739
 C1353 C -0.04593 0.71142 0.23589
 C1354 C -0.03646 0.72399 0.22661
 C1355 C -0.04037 0.72744 0.20858
 C1356 C -0.05362 0.71855 0.19990
 C1357 C -0.08285 0.68179 0.22804
 C1358 C -0.06923 0.69035 0.23652
 C1359 C -0.07111 0.71303 0.17336
 C1360 C -0.05767 0.72179 0.18192
 H1361 H -0.09022 0.67251 0.23561
 H1362 H -0.06650 0.68742 0.25039
 H1363 H -0.07384 0.71595 0.15950
 H1364 H -0.05044 0.73122 0.17441
 H1365 H -0.09733 0.69492 0.16021
 H1366 H -0.10844 0.66783 0.20920
 H1367 H -0.04309 0.70874 0.24979
 H1368 H -0.03311 0.73702 0.20130
 C1369 C -0.07614 0.19617 0.69673
 C1370 C -0.08186 0.20185 0.67999
 C1371 C -0.09553 0.19334 0.67163
 C1372 C -0.10383 0.17923 0.67990
 C1373 C -0.09748 0.17359 0.69668
 C1374 C -0.08376 0.18202 0.70511
 C1375 C -0.06203 0.20536 0.70576
 C1376 C -0.05643 0.19980 0.72264
 C1377 C -0.04326 0.20882 0.73133
 C1378 C -0.03579 0.22337 0.72330
 C1379 C -0.04147 0.22863 0.70627
 C1380 C -0.05458 0.21968 0.69745
 C1381 C -0.07770 0.17673 0.72194
 C1382 C -0.06426 0.18546 0.73055
 C1383 C -0.07391 0.21609 0.67197
 C1384 C -0.06052 0.22486 0.68057
 H1385 H -0.08346 0.16580 0.72858
 H1386 H -0.06006 0.18102 0.74355
 H1387 H -0.07818 0.22059 0.65901
 H1388 H -0.05485 0.23587 0.67399
 H1389 H -0.09947 0.19787 0.65862
 H1390 H -0.10334 0.16298 0.70364
 H1391 H -0.03902 0.20465 0.74443
 H1392 H -0.03580 0.23976 0.69991
 C1393 C 0.30462 0.42370 0.29857
 C1394 C 0.31602 0.41360 0.28860
 C1395 C 0.32443 0.39981 0.29692
 C1396 C 0.32158 0.39614 0.31514
 C1397 C 0.31034 0.40671 0.32499
 C1398 C 0.30173 0.42039 0.31675
 C1399 C 0.29532 0.43786 0.28976
 C1400 C 0.28357 0.44767 0.29964
 C1401 C 0.27440 0.46080 0.29109
 C1402 C 0.27702 0.46425 0.27281
 C1403 C 0.28908 0.45447 0.26317
 C1404 C 0.29816 0.44115 0.27156
 C1405 C 0.29009 0.43068 0.32627
 C1406 C 0.28112 0.44405 0.31785
 C1407 C 0.31860 0.41733 0.27043
 C1408 C 0.30986 0.43090 0.26207
 H1409 H 0.28776 0.42826 0.34031
 H1410 H 0.27214 0.45157 0.32563
 H1411 H 0.32738 0.40964 0.26258
 H1412 H 0.31217 0.43330 0.24801
 H1413 H 0.33281 0.39174 0.28905
 H1414 H 0.30823 0.40430 0.33905
 H1415 H 0.26523 0.46832 0.29864
 H1416 H 0.29113 0.45696 0.24909
 C1417 C 0.30134 -0.07833 0.79919
 C1418 C 0.31561 -0.08586 0.79091
 C1419 C 0.32394 -0.09969 0.79927
 C1420 C 0.31814 -0.10619 0.81591
 C1421 C 0.30376 -0.09812 0.82397
 C1422 C 0.29536 -0.08434 0.81569
 C1423 C 0.29241 -0.06394 0.79036
 C1424 C 0.27804 -0.05651 0.79862
 C1425 C 0.26942 -0.04302 0.79006
 C1426 C 0.27506 -0.03693 0.77333
 C1427 C 0.28962 -0.04444 0.76531
 C1428 C 0.29831 -0.05799 0.77376
 C1429 C 0.28102 -0.07647 0.82362
 C1430 C 0.27249 -0.06280 0.81522
 C1431 C 0.32120 -0.07950 0.77433
 C1432 C 0.31271 -0.06580 0.76591
 H1433 H 0.27628 -0.08097 0.83639
 H1434 H 0.26143 -0.05717 0.82175
 H1435 H 0.33222 -0.08519 0.76777
 H1436 H 0.31741 -0.06134 0.75311
 H1437 H 0.33470 -0.10543 0.79242
 H1438 H 0.29900 -0.10224 0.83681
 H1439 H 0.25826 -0.03735 0.79639
 H1440 H 0.29407 -0.03990 0.75244
 C1441 C 0.80371 0.42261 0.80091
 C1442 C 0.81736 0.41456 0.79206
 C1443 C 0.82572 0.40065 0.80026
 C1444 C 0.82049 0.39456 0.81728
 C1445 C 0.80686 0.40326 0.82598
 C1446 C 0.79844 0.41712 0.81786
 C1447 C 0.79461 0.43695 0.79216
 C1448 C 0.78078 0.44484 0.80095
 C1449 C 0.77191 0.45818 0.79244
 C1450 C 0.77675 0.46368 0.77522
 C1451 C 0.79082 0.45577 0.76669
 C1452 C 0.79975 0.44235 0.77510
 C1453 C 0.78469 0.42549 0.82634
 C1454 C 0.77600 0.43909 0.81802
 C1455 C 0.82225 0.42042 0.77504
 C1456 C 0.81361 0.43408 0.76671
 H1457 H 0.78051 0.42139 0.83947
 H1458 H 0.76538 0.44510 0.82497
 H1459 H 0.83279 0.41433 0.76804
 H1460 H 0.81773 0.43811 0.75354
 H1461 H 0.83594 0.39447 0.79297
 H1462 H 0.80266 0.39953 0.83915
 H1463 H 0.76115 0.46418 0.79917
 H1464 H 0.79465 0.45986 0.75345
 C1465 C 0.80524 -0.07657 0.30386
 C1466 C 0.81920 -0.08444 0.29536
 C1467 C 0.82756 -0.09821 0.30377
 C1468 C 0.82204 -0.10437 0.32066
 C1469 C 0.80810 -0.09585 0.32903
 C1470 C 0.79967 -0.08212 0.32069
 C1471 C 0.79614 -0.06237 0.29488
 C1472 C 0.78201 -0.05467 0.30331
 C1473 C 0.77315 -0.04146 0.29456
 C1474 C 0.77830 -0.03592 0.27746
 C1475 C 0.79267 -0.04365 0.26929
 C1476 C 0.80160 -0.05692 0.27793
 C1477 C 0.78561 -0.07393 0.32882
 C1478 C 0.77692 -0.06045 0.32027
 C1479 C 0.82439 -0.07853 0.27846
 C1480 C 0.81575 -0.06501 0.26990
 H1481 H 0.78119 -0.07807 0.34185
 H1482 H 0.76606 -0.05459 0.32694
 H1483 H 0.83517 -0.08448 0.27172
 H1484 H 0.82011 -0.06093 0.25683
 H1485 H 0.83803 -0.10425 0.29672
 H1486 H 0.80366 -0.09965 0.34209
 H1487 H 0.76216 -0.03560 0.30101
 H1488 H 0.79675 -0.03952 0.25614
 C1489 C 0.30448 0.57632 0.70127
 C1490 C 0.31605 0.58631 0.71118
 C1491 C 0.32459 0.59995 0.70279
 C1492 C 0.32171 0.60360 0.68455
 C1493 C 0.31031 0.59313 0.67478
 C1494 C 0.30155 0.57960 0.68309
 C1495 C 0.29505 0.56232 0.71017
 C1496 C 0.28314 0.55262 0.70035
 C1497 C 0.27387 0.53963 0.70898
 C1498 C 0.27656 0.53619 0.72725
 C1499 C 0.28876 0.54587 0.73682
 C1500 C 0.29794 0.55906 0.72837
 C1501 C 0.28975 0.56943 0.67364
 C1502 C 0.28066 0.55621 0.68214
 C1503 C 0.31866 0.58262 0.72936
 C1504 C 0.30980 0.56918 0.73780
 H1505 H 0.28739 0.57183 0.65959
 H1506 H 0.27155 0.54878 0.67440
 H1507 H 0.32757 0.59022 0.73716
 H1508 H 0.31215 0.56681 0.75185
 H1509 H 0.33311 0.60795 0.71060
 H1510 H 0.30817 0.59550 0.66070
 H1511 H 0.26459 0.53219 0.70147
 H1512 H 0.29087 0.54338 0.75090
 C1513 C 0.30205 1.07694 0.19955
 C1514 C 0.31651 1.08427 0.20768
 C1515 C 0.32490 1.09798 0.19925
 C1516 C 0.31897 1.10458 0.18268
 C1517 C 0.30442 1.09669 0.17474
 C1518 C 0.29596 1.08301 0.18310
 C1519 C 0.29302 1.06269 0.20851
 C1520 C 0.27846 1.05546 0.20040
 C1521 C 0.26975 1.04213 0.20909
 C1522 C 0.27548 1.03602 0.22579
 C1523 C 0.29023 1.04332 0.23364
 C1524 C 0.29903 1.05670 0.22506
 C1525 C 0.28143 1.07533 0.17533
 C1526 C 0.27282 1.06180 0.18384
 C1527 C 0.32220 1.07786 0.22423
 C1528 C 0.31362 1.06431 0.23276
 H1529 H 0.27661 1.07988 0.16259
 H1530 H 0.26162 1.05631 0.17743
 H1531 H 0.33336 1.08341 0.23068
 H1532 H 0.31840 1.05981 0.24553
 H1533 H 0.33579 1.10360 0.20601
 H1534 H 0.29959 1.10088 0.16194
 H1535 H 0.25844 1.03661 0.20289
 H1536 H 0.29477 1.03875 0.24649
 C1537 C 0.80521 0.57608 0.19839
 C1538 C 0.81677 0.58607 0.20831
 C1539 C 0.82518 0.59982 0.19998
 C1540 C 0.82218 0.60358 0.18179
 C1541 C 0.81077 0.59314 0.17200
 C1542 C 0.80215 0.57949 0.18026
 C1543 C 0.79594 0.56193 0.20723
 C1544 C 0.78406 0.55222 0.19740
 C1545 C 0.77494 0.53909 0.20597
 C1546 C 0.77775 0.53553 0.22420
 C1547 C 0.78993 0.54523 0.23378
 C1548 C 0.79896 0.55855 0.22538
 C1549 C 0.79037 0.56931 0.17079
 C1550 C 0.78143 0.55594 0.17923
 C1551 C 0.81951 0.58225 0.22645
 C1552 C 0.81080 0.56869 0.23482
 H1553 H 0.78791 0.57180 0.15678
 H1554 H 0.77234 0.54850 0.17149
 H1555 H 0.82842 0.58985 0.23425
 H1556 H 0.81325 0.56622 0.24884
 H1557 H 0.83369 0.60780 0.20781
 H1558 H 0.80853 0.59562 0.15796
 H1559 H 0.76567 0.53164 0.19845
 H1560 H 0.79212 0.54265 0.24783
 C1561 C 0.80370 1.07829 0.69855
 C1562 C 0.81560 1.08805 0.70829
 C1563 C 0.82380 1.10194 0.69997
 C1564 C 0.82028 1.10603 0.68197
 C1565 C 0.80846 1.09586 0.67237
 C1566 C 0.80006 1.08208 0.68062
 C1567 C 0.79475 1.06392 0.70736
 C1568 C 0.78258 1.05439 0.69771
 C1569 C 0.77379 1.04102 0.70626
 C1570 C 0.77720 1.03706 0.72429
 C1571 C 0.78967 1.04658 0.73367
 C1572 C 0.79839 1.06012 0.72530
 C1573 C 0.78798 1.07210 0.67133
 C1574 C 0.77934 1.05853 0.67975
 C1575 C 0.81893 1.08383 0.72622
 C1576 C 0.81051 1.07007 0.73457
 H1577 H 0.78506 1.07490 0.65748
 H1578 H 0.77001 1.05124 0.67215
 H1579 H 0.82810 1.09126 0.73389
 H1580 H 0.81342 1.06729 0.74842
 H1581 H 0.83264 1.10971 0.70764
 H1582 H 0.80582 1.09860 0.65846
 H1583 H 0.76428 1.03373 0.69890
 H1584 H 0.79233 1.04370 0.74757
 C1585 C 0.69721 0.57699 0.29813
 C1586 C 0.68544 0.58683 0.28826
 C1587 C 0.67718 0.60071 0.29652
 C1588 C 0.68053 0.60473 0.31456
 C1589 C 0.69222 0.59448 0.32428
 C1590 C 0.70067 0.58070 0.31611
 C1591 C 0.70624 0.56263 0.28940
 C1592 C 0.71828 0.55303 0.29918
 C1593 C 0.72714 0.53967 0.29072
 C1594 C 0.72395 0.53579 0.27264
 C1595 C 0.71162 0.54540 0.26311
 C1596 C 0.70281 0.55892 0.27140
 C1597 C 0.71262 0.57064 0.32552
 C1598 C 0.72132 0.55707 0.31719
 C1599 C 0.68231 0.58270 0.27029
 C1600 C 0.69081 0.56895 0.26201
 H1601 H 0.71539 0.57337 0.33942
 H1602 H 0.73055 0.54973 0.32489
 H1603 H 0.67324 0.59018 0.26252
 H1604 H 0.68806 0.56624 0.24812
 H1605 H 0.66843 0.60854 0.28876
 H1606 H 0.69472 0.59717 0.33822
 H1607 H 0.73654 0.53231 0.29820
 H1608 H 0.70912 0.54258 0.24917
 C1609 C 0.69831 1.07878 0.79936
 C1610 C 0.70421 1.08467 0.81593
 C1611 C 0.69583 1.09845 0.82418
 C1612 C 0.68153 1.10662 0.81600
 C1613 C 0.67580 1.10023 0.79929
 C1614 C 0.68412 1.08642 0.79098
 C1615 C 0.70724 1.06440 0.79057
 C1616 C 0.70142 1.05857 0.77390
 C1617 C 0.71012 1.04504 0.76548
 C1618 C 0.72460 1.03743 0.77360
 C1619 C 0.73015 1.04340 0.79041
 C1620 C 0.72153 1.05687 0.79893
 C1621 C 0.67861 1.08017 0.77432
 C1622 C 0.68710 1.06648 0.76593
 C1623 C 0.71847 1.07670 0.82397
 C1624 C 0.72699 1.06305 0.81561
 H1625 H 0.66766 1.08594 0.76767
 H1626 H 0.68246 1.06211 0.75307
 H1627 H 0.72315 1.08111 0.83680
 H1628 H 0.73799 1.05733 0.82222
 H1629 H 0.70051 1.10248 0.83708
 H1630 H 0.66512 1.10607 0.79236
 H1631 H 0.70574 1.04060 0.75254
 H1632 H 0.74125 1.03765 0.79682
 C1633 C 0.19552 0.57773 0.80151
 C1634 C 0.20080 0.58319 0.81846
 C1635 C 0.19228 0.59694 0.82662
 C1636 C 0.17854 0.60555 0.81794
 C1637 C 0.17332 0.59949 0.80092
 C1638 C 0.18177 0.58570 0.79269
 C1639 C 0.20470 0.56348 0.79275
 C1640 C 0.19953 0.55809 0.77569
 C1641 C 0.20850 0.54472 0.76730
 C1642 C 0.22262 0.53685 0.77583
 C1643 C 0.22751 0.54237 0.79302
 C1644 C 0.21860 0.55566 0.80153
 C1645 C 0.17687 0.57986 0.77567
 C1646 C 0.18559 0.56629 0.76732
 C1647 C 0.21464 0.57490 0.82693
 C1648 C 0.22341 0.56138 0.81859
 H1649 H 0.16626 0.58589 0.76869
 H1650 H 0.18145 0.56226 0.75416
 H1651 H 0.21883 0.57898 0.84006
 H1652 H 0.23409 0.55543 0.82553
 H1653 H 0.19648 0.60065 0.83980
 H1654 H 0.16302 0.60562 0.79365
 H1655 H 0.20461 0.54061 0.75408
 H1656 H 0.23831 0.53640 0.79976
 C1657 C 0.19663 1.07676 0.30237
 C1658 C 0.20238 1.08233 0.31911
 C1659 C 0.19401 1.09605 0.32748
 C1660 C 0.17995 1.10453 0.31923
 C1661 C 0.17428 1.09836 0.30240
 C1662 C 0.18257 1.08459 0.29397
 C1663 C 0.20564 1.06254 0.29337
 C1664 C 0.19998 1.05704 0.27651
 C1665 C 0.20878 1.04371 0.26788
 C1666 C 0.22321 1.03598 0.27597
 C1667 C 0.22859 1.04159 0.29297
 C1668 C 0.21985 1.05485 0.30172
 C1669 C 0.17719 1.07865 0.27714
 C1670 C 0.18574 1.06511 0.26857
 C1671 C 0.21654 1.07417 0.32715
 C1672 C 0.22514 1.06068 0.31859
 H1673 H 0.16633 1.08458 0.27048
 H1674 H 0.18123 1.06099 0.25557
 H1675 H 0.22110 1.07834 0.34011
 H1676 H 0.23607 1.05483 0.32519
 H1677 H 0.19860 1.09986 0.34049
 H1678 H 0.16371 1.10435 0.29544
 H1679 H 0.20453 1.03953 0.25481
 H1680 H 0.23963 1.03572 0.29936
 C1681 C 0.69624 0.42205 0.70135
 C1682 C 0.68446 0.41229 0.71125
 C1683 C 0.67613 0.39843 0.70304
 C1684 C 0.67940 0.39434 0.68501
 C1685 C 0.69109 0.40451 0.67525
 C1686 C 0.69963 0.41827 0.68338
 C1687 C 0.70534 0.43639 0.71002
 C1688 C 0.71738 0.44592 0.70021
 C1689 C 0.72628 0.45929 0.70862
 C1690 C 0.72312 0.46325 0.72667
 C1691 C 0.71080 0.45371 0.73624
 C1692 C 0.70196 0.44018 0.72801
 C1693 C 0.71159 0.42825 0.67392
 C1694 C 0.72035 0.44181 0.68221
 C1695 C 0.68139 0.41649 0.72922
 C1696 C 0.68995 0.43022 0.73743
 H1697 H 0.71431 0.42547 0.66004
 H1698 H 0.72958 0.44909 0.67448
 H1699 H 0.67232 0.40907 0.73701
 H1700 H 0.68724 0.43300 0.75132
 H1701 H 0.66738 0.39065 0.71083
 H1702 H 0.69355 0.40178 0.66132
 H1703 H 0.73567 0.46659 0.70111
 H1704 H 0.70833 0.45659 0.75016
 C1705 C 0.69949 -0.07869 0.20233
 C1706 C 0.70309 -0.08244 0.18440
 C1707 C 0.69475 -0.09626 0.17617
 C1708 C 0.68302 -0.10652 0.18579
 C1709 C 0.67957 -0.10249 0.20381
 C1710 C 0.68771 -0.08856 0.21211
 C1711 C 0.70834 -0.06423 0.21108
 C1712 C 0.70471 -0.06045 0.22901
 C1713 C 0.71328 -0.04679 0.23732
 C1714 C 0.72558 -0.03711 0.22787
 C1715 C 0.72901 -0.04108 0.20987
 C1716 C 0.72036 -0.05458 0.20138
 C1717 C 0.68441 -0.08438 0.23003
 C1718 C 0.69273 -0.07053 0.23832
 C1719 C 0.71505 -0.07234 0.17507
 C1720 C 0.72358 -0.05868 0.18343
 H1721 H 0.67533 -0.09188 0.23772
 H1722 H 0.68983 -0.06776 0.25217
 H1723 H 0.71793 -0.07510 0.16121
 H1724 H 0.73280 -0.05130 0.17579
 H1725 H 0.69734 -0.09893 0.16225
 H1726 H 0.67081 -0.11032 0.21150
 H1727 H 0.71062 -0.04390 0.25120
 H1728 H 0.73839 -0.03367 0.20245
 C1729 C 0.19558 0.42303 0.19905
 C1730 C 0.18425 0.41287 0.20908
 C1731 C 0.17591 0.39905 0.20082
 C1732 C 0.17872 0.39539 0.18260
 C1733 C 0.18990 0.40600 0.17270
 C1734 C 0.19846 0.41971 0.18088
 C1735 C 0.20478 0.43726 0.20779
 C1736 C 0.21642 0.44715 0.19784
 C1737 C 0.22547 0.46038 0.20631
 C1738 C 0.22282 0.46386 0.22457
 C1739 C 0.21088 0.45399 0.23427
 C1740 C 0.20192 0.44057 0.22597
 C1741 C 0.21000 0.43006 0.17130
 C1742 C 0.21888 0.44351 0.17965
 C1743 C 0.18168 0.41661 0.22724
 C1744 C 0.19032 0.43026 0.23553
 H1745 H 0.21233 0.42764 0.15726
 H1746 H 0.22778 0.45108 0.17181
 H1747 H 0.17296 0.40888 0.23514
 H1748 H 0.18801 0.43266 0.24957
 H1749 H 0.16757 0.39094 0.20873
 H1750 H 0.19199 0.40361 0.15864
 H1751 H 0.23456 0.46796 0.19870
 H1752 H 0.20881 0.45651 0.24834
 C1753 C 0.19587 -0.07676 0.69691
 C1754 C 0.18170 -0.08443 0.70524
 C1755 C 0.17340 -0.09822 0.69687
 C1756 C 0.17918 -0.10460 0.68018
 C1757 C 0.19331 -0.09627 0.67196
 C1758 C 0.20169 -0.08252 0.68026
 C1759 C 0.20492 -0.06256 0.70588
 C1760 C 0.21925 -0.05505 0.69762
 C1761 C 0.22805 -0.04183 0.70637
 C1762 C 0.22264 -0.03610 0.72330
 C1763 C 0.20808 -0.04364 0.73130
 C1764 C 0.19921 -0.05691 0.72266
 C1765 C 0.21594 -0.07452 0.67229
 C1766 C 0.22458 -0.06104 0.68083
 C1767 C 0.17626 -0.07832 0.72197
 C1768 C 0.18486 -0.06480 0.73052
 H1769 H 0.22056 -0.07882 0.65941
 H1770 H 0.23560 -0.05533 0.67429
 H1771 H 0.16532 -0.08412 0.72858
 H1772 H 0.18030 -0.06056 0.74346
 H1773 H 0.16277 -0.10410 0.70380
 H1774 H 0.19796 -0.10024 0.65903
 H1775 H 0.23919 -0.03612 0.70005
 H1776 H 0.20379 -0.03936 0.74431
 C1777 C 0.30135 0.30237 0.41866
 C1778 C 0.31867 0.29866 0.41518
 C1779 C 0.32693 0.30689 0.40092
 C1780 C 0.31795 0.31861 0.38997
 C1781 C 0.30052 0.32210 0.39369
 C1782 C 0.29220 0.31409 0.40806
 C1783 C 0.29259 0.29373 0.43363
 C1784 C 0.27528 0.29751 0.43718
 C1785 C 0.26699 0.28918 0.45137
 C1786 C 0.27582 0.27696 0.46179
 C1787 C 0.29319 0.27335 0.45803
 C1788 C 0.30166 0.28177 0.44403
 C1789 C 0.27488 0.31752 0.41200
 C1790 C 0.26658 0.30941 0.42635
 C1791 C 0.32738 0.28676 0.42600
 C1792 C 0.31900 0.27841 0.44015
 H1793 H 0.26767 0.32656 0.40393
 H1794 H 0.25321 0.31242 0.42893
 H1795 H 0.34076 0.28379 0.42346
 H1796 H 0.32616 0.26923 0.44809
 H1797 H 0.34038 0.30425 0.39849
 H1798 H 0.29331 0.33083 0.38531
 H1799 H 0.25359 0.29197 0.45408
 H1800 H 0.30012 0.26402 0.46602
 C1801 C 0.30109 0.80157 -0.07933
 C1802 C 0.31324 0.79273 -0.08964
 C1803 C 0.32152 0.80130 -0.10367
 C1804 C 0.31791 0.81869 -0.10734
 C1805 C 0.30577 0.82737 -0.09666
 C1806 C 0.29725 0.81884 -0.08274
 C1807 C 0.29214 0.79253 -0.06474
 C1808 C 0.27975 0.80128 -0.05463
 C1809 C 0.27107 0.79253 -0.04097
 C1810 C 0.27488 0.77522 -0.03727
 C1811 C 0.28751 0.76672 -0.04742
 C1812 C 0.29608 0.77528 -0.06127
 C1813 C 0.28490 0.82723 -0.07221
 C1814 C 0.27625 0.81858 -0.05843
 C1815 C 0.31681 0.77545 -0.08579
 C1816 C 0.30842 0.76689 -0.07180
 H1817 H 0.28181 0.84056 -0.07470
 H1818 H 0.26675 0.82549 -0.05070
 H1819 H 0.32617 0.76849 -0.09365
 H1820 H 0.31155 0.75357 -0.06927
 H1821 H 0.33055 0.79429 -0.11186
 H1822 H 0.30300 0.84077 -0.09905
 H1823 H 0.26143 0.79920 -0.03317
 H1824 H 0.29046 0.75338 -0.04475
 C1825 C 0.80102 0.30126 -0.07955
 C1826 C 0.81832 0.29746 -0.08308
 C1827 C 0.82671 0.30598 -0.09709
 C1828 C 0.81788 0.31805 -0.10776
 C1829 C 0.80047 0.32163 -0.10396
 C1830 C 0.79203 0.31335 -0.08984
 C1831 C 0.79211 0.29230 -0.06488
 C1832 C 0.77483 0.29618 -0.06130
 C1833 C 0.76640 0.28759 -0.04738
 C1834 C 0.77504 0.27501 -0.03726
 C1835 C 0.79237 0.27126 -0.04107
 C1836 C 0.80100 0.27995 -0.05481
 C1837 C 0.77474 0.31687 -0.08587
 C1838 C 0.76630 0.30847 -0.07180
 C1839 C 0.82685 0.28517 -0.07258
 C1840 C 0.81832 0.27652 -0.05872
 H1841 H 0.76766 0.32619 -0.09370
 H1842 H 0.75296 0.31156 -0.06919
 H1843 H 0.84020 0.28212 -0.07516
 H1844 H 0.82534 0.26705 -0.05102
 H1845 H 0.84013 0.30324 -0.09957
 H1846 H 0.79335 0.33062 -0.11212
 H1847 H 0.75303 0.29049 -0.04463
 H1848 H 0.79916 0.26166 -0.03331
 C1849 C 0.80096 0.80117 0.42230
 C1850 C 0.81836 0.79751 0.41919
 C1851 C 0.82707 0.80632 0.40559
 C1852 C 0.81845 0.81855 0.39492
 C1853 C 0.80094 0.82198 0.39830
 C1854 C 0.79218 0.81342 0.41202
 C1855 C 0.79172 0.79191 0.43654
 C1856 C 0.77434 0.79566 0.43973
 C1857 C 0.76560 0.78681 0.45325
 C1858 C 0.77405 0.77410 0.46337
 C1859 C 0.79148 0.77047 0.45996
 C1860 C 0.80041 0.77942 0.44662
 C1861 C 0.77478 0.81679 0.41557
 C1862 C 0.76602 0.80810 0.42923
 C1863 C 0.82668 0.78506 0.42968
 C1864 C 0.81784 0.77613 0.44312
 H1865 H 0.76786 0.82622 0.40773
 H1866 H 0.75261 0.81109 0.43154
 H1867 H 0.84011 0.78212 0.42741
 H1868 H 0.82471 0.76656 0.45083
 H1869 H 0.84056 0.80368 0.40343
 H1870 H 0.79399 0.83109 0.39012
 H1871 H 0.75216 0.78962 0.45570
 H1872 H 0.79811 0.76078 0.46774
 C1873 C 0.69684 0.30107 0.58066
 C1874 C 0.70045 0.31836 0.58414
 C1875 C 0.69215 0.32658 0.59837
 C1876 C 0.68045 0.31758 0.60930
 C1877 C 0.67705 0.30017 0.60557
 C1878 C 0.68513 0.29190 0.59123
 C1879 C 0.70556 0.29236 0.56573
 C1880 C 0.70188 0.27508 0.56218
 C1881 C 0.71030 0.26683 0.54804
 C1882 C 0.72254 0.27567 0.53768
 C1883 C 0.72605 0.29302 0.54142
 C1884 C 0.71753 0.30145 0.55538
 C1885 C 0.68179 0.27461 0.58729
 C1886 C 0.68998 0.26636 0.57298
 C1887 C 0.71235 0.32710 0.57335
 C1888 C 0.72079 0.31876 0.55925
 H1889 H 0.67276 0.26739 0.59533
 H1890 H 0.68704 0.25301 0.57040
 H1891 H 0.71525 0.34045 0.57589
 H1892 H 0.72996 0.32593 0.55133
 H1893 H 0.69472 0.34001 0.60079
 H1894 H 0.66834 0.29294 0.61394
 H1895 H 0.70759 0.25345 0.54534
 H1896 H 0.73538 0.29996 0.53348
 C1897 C 0.70016 0.80082 1.08049
 C1898 C 0.68805 0.79192 1.09081
 C1899 C 0.68000 0.80032 1.10507
 C1900 C 0.68377 0.81761 1.10895
 C1901 C 0.69590 0.82635 1.09830
 C1902 C 0.70420 0.81799 1.08414
 C1903 C 0.70883 0.79196 1.06561
 C1904 C 0.72117 0.80077 1.05548
 C1905 C 0.72958 0.79219 1.04153
 C1906 C 0.72555 0.77499 1.03759
 C1907 C 0.71298 0.76644 1.04778
 C1908 C 0.70468 0.77482 1.06189
 C1909 C 0.71650 0.82644 1.07359
 C1910 C 0.72489 0.81796 1.05954
 C1911 C 0.68428 0.77475 1.08671
 C1912 C 0.69241 0.76637 1.07246
 H1913 H 0.71974 0.83969 1.07627
 H1914 H 0.73435 0.82491 1.05180
 H1915 H 0.67495 0.76774 1.09458
 H1916 H 0.68911 0.75313 1.06974
 H1917 H 0.67098 0.79326 1.11324
 H1918 H 0.69880 0.83969 1.10086
 H1919 H 0.73919 0.79890 1.03373
 H1920 H 0.70987 0.75317 1.04493
 C1921 C 0.19895 0.30130 1.07959
 C1922 C 0.20796 0.31323 1.09002
 C1923 C 0.19947 0.32149 1.10410
 C1924 C 0.18200 0.31807 1.10771
 C1925 C 0.17316 0.30616 1.09690
 C1926 C 0.18159 0.29766 1.08294
 C1927 C 0.20790 0.29238 1.06494
 C1928 C 0.19897 0.28020 1.05471
 C1929 C 0.20762 0.27155 1.04099
 C1930 C 0.22501 0.27516 1.03734
 C1931 C 0.23369 0.28758 1.04760
 C1932 C 0.22523 0.29612 1.06151
 C1933 C 0.17303 0.28553 1.07229
 C1934 C 0.18159 0.27691 1.05846
 C1935 C 0.22531 0.31660 1.08621
 C1936 C 0.23379 0.30824 1.07216
 H1937 H 0.15963 0.28260 1.07474
 H1938 H 0.17455 0.26757 1.05064
 H1939 H 0.23241 0.32580 1.09416
 H1940 H 0.24717 0.31122 1.06967
 H1941 H 0.20659 0.33036 1.11237
 H1942 H 0.15969 0.30355 1.09922
 H1943 H 0.20081 0.26208 1.03311
 H1944 H 0.24710 0.29037 1.04496
 C1945 C 0.20052 0.80055 0.57910
 C1946 C 0.20946 0.81257 0.58948
 C1947 C 0.20087 0.82098 0.60340
 C1948 C 0.18336 0.81762 0.60688
 C1949 C 0.17459 0.80561 0.59614
 C1950 C 0.18313 0.79697 0.58234
 C1951 C 0.20956 0.79148 0.56462
 C1952 C 0.20069 0.77924 0.55444
 C1953 C 0.20942 0.77044 0.54088
 C1954 C 0.22685 0.77396 0.53735
 C1955 C 0.23550 0.78644 0.54755
 C1956 C 0.22694 0.79514 0.56130
 C1957 C 0.17463 0.78477 0.57174
 C1958 C 0.18328 0.77601 0.55807
 C1959 C 0.22686 0.81587 0.58579
 C1960 C 0.23543 0.80735 0.57190
 H1961 H 0.16120 0.78188 0.57410
 H1962 H 0.17627 0.76662 0.55028
 H1963 H 0.23391 0.82512 0.59370
 H1964 H 0.24884 0.81027 0.56951
 H1965 H 0.20792 0.82993 0.61164
 H1966 H 0.16110 0.80304 0.59838
 H1967 H 0.20263 0.76093 0.53305
 H1968 H 0.24893 0.78916 0.54500
 C1969 C 0.30171 0.69710 0.58071
 C1970 C 0.31905 0.70075 0.58417
 C1971 C 0.32735 0.69248 0.59841
 C1972 C 0.31839 0.68078 0.60937
 C1973 C 0.30094 0.67735 0.60566
 C1974 C 0.29258 0.68539 0.59130
 C1975 C 0.29291 0.70579 0.56577
 C1976 C 0.27558 0.70207 0.56225
 C1977 C 0.26724 0.71047 0.54811
 C1978 C 0.27604 0.72272 0.53773
 C1979 C 0.29343 0.72626 0.54145
 C1980 C 0.30196 0.71776 0.55540
 C1981 C 0.27524 0.68201 0.58738
 C1982 C 0.26690 0.69017 0.57306
 C1983 C 0.32774 0.71265 0.57335
 C1984 C 0.31932 0.72106 0.55925
 H1985 H 0.26805 0.67298 0.59545
 H1986 H 0.25352 0.68720 0.57051
 H1987 H 0.34113 0.71558 0.57588
 H1988 H 0.32646 0.73024 0.55131
 H1989 H 0.34081 0.69508 0.60082
 H1990 H 0.29374 0.66863 0.61404
 H1991 H 0.25382 0.70774 0.54543
 H1992 H 0.30034 0.73560 0.53348
 C1993 C 0.30106 0.19815 1.07921
 C1994 C 0.31318 0.20694 1.08964
 C1995 C 0.32146 0.19829 1.10364
 C1996 C 0.31789 0.18087 1.10717
 C1997 C 0.30577 0.17225 1.09639
 C1998 C 0.29725 0.18086 1.08250
 C1999 C 0.29214 0.20727 1.06463
 C2000 C 0.27978 0.19857 1.05441
 C2001 C 0.27112 0.20738 1.04075
 C2002 C 0.27493 0.22470 1.03715
 C2003 C 0.28752 0.23316 1.04742
 C2004 C 0.29606 0.22454 1.06127
 C2005 C 0.28493 0.17253 1.07186
 C2006 C 0.27630 0.18125 1.05810
 C2007 C 0.31672 0.22424 1.08590
 C2008 C 0.30835 0.23287 1.07192
 H2009 H 0.28187 0.15917 1.07426
 H2010 H 0.26683 0.17437 1.05028
 H2011 H 0.32606 0.23116 1.09385
 H2012 H 0.31147 0.24620 1.06948
 H2013 H 0.33048 0.20525 1.11191
 H2014 H 0.30303 0.15883 1.09866
 H2015 H 0.26151 0.20074 1.03287
 H2016 H 0.29045 0.24651 1.04483
 C2017 C 0.80127 0.69861 1.07957
 C2018 C 0.81859 0.70236 1.08303
 C2019 C 0.82704 0.69387 1.09705
 C2020 C 0.81823 0.68185 1.10778
 C2021 C 0.80079 0.67835 1.10408
 C2022 C 0.79230 0.68660 1.08995
 C2023 C 0.79233 0.70750 1.06484
 C2024 C 0.77503 0.70366 1.06131
 C2025 C 0.76657 0.71218 1.04734
 C2026 C 0.77521 0.72467 1.03712
 C2027 C 0.79257 0.72838 1.04088
 C2028 C 0.80122 0.71975 1.05467
 C2029 C 0.77498 0.68313 1.08603
 C2030 C 0.76651 0.69147 1.07191
 C2031 C 0.82711 0.71456 1.07244
 C2032 C 0.81856 0.72315 1.05854
 H2033 H 0.76791 0.67388 1.09393
 H2034 H 0.75316 0.68841 1.06934
 H2035 H 0.84049 0.71757 1.07497
 H2036 H 0.82557 0.73254 1.05076
 H2037 H 0.84048 0.69655 1.09945
 H2038 H 0.79371 0.66940 1.11229
 H2039 H 0.75319 0.70932 1.04463
 H2040 H 0.79934 0.73791 1.03305
 C2041 C 0.80094 0.20034 0.57873
 C2042 C 0.79739 0.18297 0.58194
 C2043 C 0.80612 0.17441 0.59571
 C2044 C 0.81818 0.18314 0.60646
 C2045 C 0.82150 0.20063 0.60300
 C2046 C 0.81300 0.20924 0.58912
 C2047 C 0.79176 0.20941 0.56428
 C2048 C 0.79539 0.22676 0.56100
 C2049 C 0.78658 0.23534 0.54729
 C2050 C 0.77405 0.22673 0.53708
 C2051 C 0.77058 0.20932 0.54058
 C2052 C 0.77947 0.20057 0.55410
 C2053 C 0.81625 0.22661 0.58546
 C2054 C 0.80764 0.23521 0.57161
 C2055 C 0.78514 0.17451 0.57134
 C2056 C 0.77628 0.18318 0.55770
 H2057 H 0.82555 0.23363 0.59338
 H2058 H 0.81053 0.24860 0.56923
 H2059 H 0.78229 0.16110 0.57367
 H2060 H 0.76686 0.17621 0.54991
 H2061 H 0.80359 0.16094 0.59793
 H2062 H 0.83049 0.20765 0.61125
 H2063 H 0.78927 0.24875 0.54476
 H2064 H 0.76103 0.20257 0.53274
 C2065 C 0.69873 0.69827 0.41873
 C2066 C 0.70258 0.68104 0.41515
 C2067 C 0.69424 0.67275 0.40096
 C2068 C 0.68227 0.68162 0.39018
 C2069 C 0.67870 0.69898 0.39398
 C2070 C 0.68678 0.70731 0.40828
 C2071 C 0.70740 0.70703 0.43368
 C2072 C 0.70341 0.72422 0.43735
 C2073 C 0.71170 0.73250 0.45155
 C2074 C 0.72409 0.72380 0.46189
 C2075 C 0.72797 0.70656 0.45798
 C2076 C 0.71958 0.69808 0.44395
 C2077 C 0.68318 0.72452 0.41233
 C2078 C 0.69131 0.73282 0.42665
 C2079 C 0.71472 0.67245 0.42583
 C2080 C 0.72312 0.68084 0.43994
 H2081 H 0.67398 0.73164 0.40437
 H2082 H 0.68815 0.74610 0.42933
 H2083 H 0.71781 0.65915 0.42321
 H2084 H 0.73245 0.67377 0.44778
 H2085 H 0.69699 0.65937 0.39848
 H2086 H 0.66980 0.70613 0.38573
 H2087 H 0.70871 0.74580 0.45436
 H2088 H 0.73744 0.69974 0.46590
 C2089 C 0.69868 0.19853 -0.07918
 C2090 C 0.70251 0.18127 -0.08262
 C2091 C 0.69397 0.17280 -0.09656
 C2092 C 0.68183 0.18153 -0.10725
 C2093 C 0.67823 0.19891 -0.10356
 C2094 C 0.68652 0.20741 -0.08951
 C2095 C 0.70765 0.20751 -0.06458
 C2096 C 0.70372 0.22475 -0.06109
 C2097 C 0.71232 0.23326 -0.04723
 C2098 C 0.72497 0.22472 -0.03708
 C2099 C 0.72877 0.20742 -0.04080
 C2100 C 0.72006 0.19873 -0.05447
 C2101 C 0.68296 0.22468 -0.08564
 C2102 C 0.69137 0.23318 -0.07162
 C2103 C 0.71487 0.17284 -0.07208
 C2104 C 0.72354 0.18144 -0.05829
 H2105 H 0.67359 0.23167 -0.09350
 H2106 H 0.68825 0.24649 -0.06908
 H2107 H 0.71795 0.15951 -0.07459
 H2108 H 0.73306 0.17450 -0.05056
 H2109 H 0.69674 0.15941 -0.09897
 H2110 H 0.66919 0.20595 -0.11175
 H2111 H 0.70938 0.24660 -0.04456
 H2112 H 0.73843 0.20073 -0.03301
 C2113 C 0.19831 0.69882 -0.07934
 C2114 C 0.18097 0.70258 -0.08273
 C2115 C 0.17244 0.69404 -0.09663
 C2116 C 0.18119 0.68197 -0.10732
 C2117 C 0.19865 0.67844 -0.10368
 C2118 C 0.20721 0.68674 -0.08966
 C2119 C 0.20735 0.70778 -0.06476
 C2120 C 0.22466 0.70392 -0.06130
 C2121 C 0.23321 0.71249 -0.04745
 C2122 C 0.22465 0.72504 -0.03728
 C2123 C 0.20728 0.72879 -0.04097
 C2124 C 0.19853 0.72010 -0.05463
 C2125 C 0.22455 0.68326 -0.08583
 C2126 C 0.23311 0.69165 -0.07184
 C2127 C 0.17252 0.71486 -0.07219
 C2128 C 0.18117 0.72352 -0.05842
 H2129 H 0.23157 0.67395 -0.09370
 H2130 H 0.24648 0.68858 -0.06933
 H2131 H 0.15913 0.71788 -0.07466
 H2132 H 0.17421 0.73297 -0.05068
 H2133 H 0.15899 0.69674 -0.09901
 H2134 H 0.20571 0.66947 -0.11187
 H2135 H 0.24660 0.70959 -0.04480
 H2136 H 0.20056 0.73837 -0.03317
 C2137 C 0.20036 0.19817 0.42185
 C2138 C 0.18290 0.20158 0.41871
 C2139 C 0.17435 0.19281 0.40500
 C2140 C 0.18317 0.18089 0.39421
 C2141 C 0.20073 0.17766 0.39763
 C2142 C 0.20934 0.18619 0.41147
 C2143 C 0.20944 0.20745 0.43617
 C2144 C 0.22689 0.20399 0.43936
 C2145 C 0.23550 0.21293 0.45294
 C2146 C 0.22682 0.22544 0.46307
 C2147 C 0.20931 0.22872 0.45968
 C2148 C 0.20054 0.21970 0.44631
 C2149 C 0.22680 0.18308 0.41505
 C2150 C 0.23542 0.19179 0.42880
 C2151 C 0.17437 0.21377 0.42929
 C2152 C 0.18305 0.22272 0.44281
 H2153 H 0.23388 0.17384 0.40715
 H2154 H 0.24888 0.18902 0.43111
 H2155 H 0.16089 0.21651 0.42700
 H2156 H 0.17602 0.23210 0.45057
 H2157 H 0.16082 0.19526 0.40282
 H2158 H 0.20782 0.16877 0.38936
 H2159 H 0.24899 0.21038 0.45539
 H2160 H 0.20250 0.23825 0.46747
 C2161 C 0.30354 0.42393 0.70149
 C2162 C 0.31500 0.41379 0.71143
 C2163 C 0.32348 0.40013 0.70304
 C2164 C 0.32066 0.39660 0.68478
 C2165 C 0.30936 0.40720 0.67498
 C2166 C 0.30066 0.42076 0.68329
 C2167 C 0.29420 0.43800 0.71037
 C2168 C 0.28244 0.44787 0.70051
 C2169 C 0.27329 0.46096 0.70911
 C2170 C 0.27597 0.46432 0.72739
 C2171 C 0.28802 0.45445 0.73701
 C2172 C 0.29707 0.44117 0.72858
 C2173 C 0.28899 0.43109 0.67380
 C2174 C 0.27998 0.44437 0.68229
 C2175 C 0.31757 0.41739 0.72962
 C2176 C 0.30880 0.43088 0.73804
 H2177 H 0.28666 0.42877 0.65974
 H2178 H 0.27098 0.45193 0.67452
 H2179 H 0.32639 0.40967 0.73745
 H2180 H 0.31112 0.43319 0.75211
 H2181 H 0.33191 0.39203 0.71087
 H2182 H 0.30726 0.40491 0.66089
 H2183 H 0.26412 0.46854 0.70157
 H2184 H 0.29011 0.45688 0.75109
 C2185 C 0.30261 0.92291 0.20016
 C2186 C 0.31475 0.91330 0.20979
 C2187 C 0.32317 0.89962 0.20137
 C2188 C 0.31962 0.89556 0.18338
 C2189 C 0.30755 0.90556 0.17389
 C2190 C 0.29893 0.91914 0.18224
 C2191 C 0.29344 0.93707 0.20907
 C2192 C 0.28105 0.94645 0.19953
 C2193 C 0.27212 0.95968 0.20816
 C2194 C 0.27562 0.96363 0.22616
 C2195 C 0.28827 0.95421 0.23544
 C2196 C 0.29713 0.94084 0.22699
 C2197 C 0.28661 0.92896 0.17306
 C2198 C 0.27778 0.94235 0.18157
 C2199 C 0.31811 0.91748 0.22772
 C2200 C 0.30948 0.93104 0.23615
 H2201 H 0.28366 0.92619 0.15922
 H2202 H 0.26828 0.94952 0.17405
 H2203 H 0.32746 0.91018 0.23530
 H2204 H 0.31243 0.93381 0.25000
 H2205 H 0.33220 0.89197 0.20896
 H2206 H 0.30488 0.90285 0.15999
 H2207 H 0.26248 0.96689 0.20087
 H2208 H 0.29100 0.95709 0.24932
 C2209 C 0.80557 0.42320 0.19863
 C2210 C 0.81720 0.41328 0.20858
 C2211 C 0.82570 0.39957 0.20029
 C2212 C 0.82272 0.39579 0.18212
 C2213 C 0.81125 0.40618 0.17229
 C2214 C 0.80254 0.41979 0.18050
 C2215 C 0.79619 0.43729 0.20742
 C2216 C 0.78424 0.44694 0.19756
 C2217 C 0.77503 0.46002 0.20609
 C2218 C 0.77782 0.46359 0.22431
 C2219 C 0.79005 0.45395 0.23392
 C2220 C 0.79918 0.44069 0.22557
 C2221 C 0.79069 0.42990 0.17100
 C2222 C 0.78165 0.44321 0.17940
 C2223 C 0.81990 0.41711 0.22670
 C2224 C 0.81109 0.43061 0.23504
 H2225 H 0.78825 0.42740 0.15700
 H2226 H 0.77251 0.45060 0.17163
 H2227 H 0.82886 0.40956 0.23454
 H2228 H 0.81351 0.43310 0.24905
 H2229 H 0.83426 0.39163 0.20814
 H2230 H 0.80903 0.40369 0.15826
 H2231 H 0.76572 0.46743 0.19855
 H2232 H 0.79224 0.45654 0.24796
 C2233 C 0.80305 0.92306 0.69882
 C2234 C 0.81511 0.91341 0.70851
 C2235 C 0.82324 0.89947 0.70025
 C2236 C 0.81949 0.89519 0.68236
 C2237 C 0.80750 0.90523 0.67280
 C2238 C 0.79917 0.91908 0.68099
 C2239 C 0.79416 0.93749 0.70757
 C2240 C 0.78184 0.94692 0.69798
 C2241 C 0.77315 0.96037 0.70648
 C2242 C 0.77679 0.96450 0.72441
 C2243 C 0.78938 0.95505 0.73374
 C2244 C 0.79802 0.94145 0.72542
 C2245 C 0.78693 0.92896 0.67176
 C2246 C 0.77838 0.94261 0.68012
 C2247 C 0.81866 0.91779 0.72634
 C2248 C 0.81030 0.93160 0.73463
 H2249 H 0.78384 0.92603 0.65798
 H2250 H 0.76893 0.94981 0.67256
 H2251 H 0.82795 0.91046 0.73396
 H2252 H 0.81338 0.93452 0.74841
 H2253 H 0.83221 0.89179 0.70789
 H2254 H 0.80467 0.90234 0.65897
 H2255 H 0.76354 0.96759 0.69916
 H2256 H 0.79223 0.95806 0.74756
 C2257 C 0.69473 0.57586 0.70036
 C2258 C 0.68322 0.58589 0.71030
 C2259 C 0.67470 0.59958 0.70194
 C2260 C 0.67754 0.60326 0.68372
 C2261 C 0.68890 0.59276 0.67391
 C2262 C 0.69763 0.57918 0.68219
 C2263 C 0.70413 0.56178 0.70922
 C2264 C 0.71597 0.55204 0.69938
 C2265 C 0.72520 0.53896 0.70797
 C2266 C 0.72253 0.53549 0.72623
 C2267 C 0.71040 0.54522 0.73582
 C2268 C 0.70126 0.55848 0.72741
 C2269 C 0.70937 0.56897 0.67271
 C2270 C 0.71843 0.55567 0.68117
 C2271 C 0.68065 0.58216 0.72847
 C2272 C 0.68947 0.56865 0.73687
 H2273 H 0.71171 0.57139 0.65867
 H2274 H 0.72748 0.54821 0.67341
 H2275 H 0.67178 0.58978 0.73629
 H2276 H 0.68714 0.56625 0.75091
 H2277 H 0.66623 0.60759 0.70978
 H2278 H 0.69101 0.59516 0.65985
 H2279 H 0.73444 0.53148 0.70044
 H2280 H 0.70831 0.54271 0.74990
 C2281 C 0.69785 0.07624 0.20090
 C2282 C 0.70156 0.08002 0.18298
 C2283 C 0.69304 0.09369 0.17461
 C2284 C 0.68105 0.10376 0.18407
 C2285 C 0.67747 0.09968 0.20205
 C2286 C 0.68579 0.08591 0.21050
 C2287 C 0.70693 0.06201 0.20984
 C2288 C 0.70325 0.05824 0.22777
 C2289 C 0.71209 0.04484 0.23628
 C2290 C 0.72471 0.03541 0.22704
 C2291 C 0.72817 0.03933 0.20902
 C2292 C 0.71927 0.05257 0.20033
 C2293 C 0.68241 0.08173 0.22841
 C2294 C 0.69096 0.06810 0.23689
 C2295 C 0.71381 0.07013 0.17384
 C2296 C 0.72255 0.05667 0.18238
 H2297 H 0.67311 0.08908 0.23597
 H2298 H 0.68800 0.06534 0.25073
 H2299 H 0.71677 0.07291 0.16000
 H2300 H 0.73201 0.04946 0.17489
 H2301 H 0.69574 0.09642 0.16072
 H2302 H 0.66851 0.10738 0.20962
 H2303 H 0.70938 0.04200 0.25017
 H2304 H 0.73780 0.03210 0.20177
 C2305 C 0.19445 0.57620 0.19846
 C2306 C 0.19742 0.57960 0.18032
 C2307 C 0.18870 0.59320 0.17206
 C2308 C 0.17728 0.60361 0.18186
 C2309 C 0.17436 0.59985 0.20005
 C2310 C 0.18287 0.58614 0.20839
 C2311 C 0.20386 0.56212 0.20730
 C2312 C 0.20094 0.55876 0.22547
 C2313 C 0.21011 0.54551 0.23388
 C2314 C 0.22233 0.53588 0.22429
 C2315 C 0.22503 0.53941 0.20605
 C2316 C 0.21578 0.55247 0.19747
 C2317 C 0.18023 0.58234 0.22653
 C2318 C 0.18907 0.56884 0.23492
 C2319 C 0.20923 0.56946 0.17084
 C2320 C 0.21830 0.55616 0.17929
 H2321 H 0.17130 0.58990 0.23434
 H2322 H 0.18670 0.56638 0.24894
 H2323 H 0.21163 0.57195 0.15683
 H2324 H 0.22741 0.54877 0.17154
 H2325 H 0.19088 0.59568 0.15802
 H2326 H 0.16583 0.60781 0.20788
 H2327 H 0.20799 0.54295 0.24794
 H2328 H 0.23432 0.53200 0.19853
 C2329 C 0.19590 0.07703 0.69818
 C2330 C 0.19930 0.08068 0.68017
 C2331 C 0.19083 0.09445 0.67191
 C2332 C 0.17922 0.10476 0.68160
 C2333 C 0.17589 0.10076 0.69965
 C2334 C 0.18414 0.08690 0.70797
 C2335 C 0.20500 0.06276 0.70701
 C2336 C 0.20161 0.05913 0.72504
 C2337 C 0.21046 0.04568 0.73344
 C2338 C 0.22281 0.03607 0.72401
 C2339 C 0.22600 0.03987 0.70592
 C2340 C 0.21707 0.05316 0.69733
 C2341 C 0.18105 0.08284 0.72598
 C2342 C 0.18960 0.06916 0.73435
 C2343 C 0.21127 0.07061 0.67083
 C2344 C 0.22005 0.05712 0.67928
 H2345 H 0.17199 0.09035 0.73369
 H2346 H 0.18688 0.06650 0.74827
 H2347 H 0.21400 0.07329 0.65692
 H2348 H 0.22929 0.04977 0.67164
 H2349 H 0.19333 0.09711 0.65797
 H2350 H 0.16722 0.10864 0.70740
 H2351 H 0.20796 0.04292 0.74739
 H2352 H 0.23541 0.03249 0.69852
 C2353 C 0.30422 0.57673 0.29839
 C2354 C 0.30132 0.58000 0.31656
 C2355 C 0.30996 0.59363 0.32481
 C2356 C 0.32122 0.60420 0.31497
 C2357 C 0.32407 0.60057 0.29675
 C2358 C 0.31564 0.58683 0.28842
 C2359 C 0.29491 0.56260 0.28957
 C2360 C 0.29778 0.55934 0.27137
 C2361 C 0.28873 0.54603 0.26300
 C2362 C 0.27669 0.53622 0.27264
 C2363 C 0.27403 0.53965 0.29090
 C2364 C 0.28317 0.55278 0.29945
 C2365 C 0.31822 0.58314 0.27025
 C2366 C 0.30949 0.56959 0.26189
 C2367 C 0.28967 0.56971 0.32608
 C2368 C 0.28071 0.55636 0.31765
 H2369 H 0.32703 0.59082 0.26241
 H2370 H 0.31181 0.56722 0.24784
 H2371 H 0.28733 0.57210 0.34012
 H2372 H 0.27172 0.54884 0.32543
 H2373 H 0.30784 0.59600 0.33887
 H2374 H 0.33248 0.60864 0.28890
 H2375 H 0.29081 0.54354 0.24893
 H2376 H 0.26487 0.53211 0.29846
 C2377 C 0.30232 0.07635 0.79983
 C2378 C 0.31445 0.08598 0.79027
 C2379 C 0.32279 0.09969 0.79873
 C2380 C 0.31918 0.10375 0.81670
 C2381 C 0.30711 0.09373 0.82612
 C2382 C 0.29857 0.08012 0.81773
 C2383 C 0.29323 0.06217 0.79088
 C2384 C 0.28084 0.05276 0.80035
 C2385 C 0.27196 0.03953 0.79166
 C2386 C 0.27551 0.03560 0.77367
 C2387 C 0.28817 0.04502 0.76446
 C2388 C 0.29698 0.05840 0.77297
 C2389 C 0.28625 0.07027 0.82684
 C2390 C 0.27750 0.05686 0.81828
 C2391 C 0.31788 0.08181 0.77237
 C2392 C 0.30933 0.06822 0.76388
 H2393 H 0.28324 0.07304 0.84066
 H2394 H 0.26800 0.04967 0.82575
 H2395 H 0.32723 0.08913 0.76484
 H2396 H 0.31233 0.06546 0.75005
 H2397 H 0.33182 0.10736 0.79119
 H2398 H 0.30437 0.09646 0.84000
 H2399 H 0.26231 0.03232 0.79889
 H2400 H 0.29094 0.04217 0.75060
 C2401 C 0.80388 0.57687 0.80008
 C2402 C 0.81543 0.58680 0.79007
 C2403 C 0.82380 0.60065 0.79827
 C2404 C 0.82078 0.60456 0.81640
 C2405 C 0.80938 0.59417 0.82628
 C2406 C 0.80080 0.58043 0.81816
 C2407 C 0.79466 0.56261 0.79139
 C2408 C 0.78280 0.55295 0.80130
 C2409 C 0.77374 0.53970 0.79286
 C2410 C 0.77659 0.53598 0.77469
 C2411 C 0.78874 0.54564 0.76503
 C2412 C 0.79772 0.55907 0.77329
 C2413 C 0.78903 0.57030 0.82771
 C2414 C 0.78014 0.55683 0.81940
 C2415 C 0.81820 0.58282 0.77200
 C2416 C 0.80953 0.56916 0.76377
 H2417 H 0.78655 0.57291 0.84168
 H2418 H 0.77106 0.54943 0.82721
 H2419 H 0.82710 0.59037 0.76413
 H2420 H 0.81200 0.56657 0.74979
 H2421 H 0.83231 0.60858 0.79037
 H2422 H 0.80712 0.59677 0.84027
 H2423 H 0.76448 0.53228 0.80044
 H2424 H 0.79097 0.54295 0.75103
 C2425 C 0.80373 0.07797 0.30180
 C2426 C 0.81573 0.08760 0.29206
 C2427 C 0.82390 0.10155 0.30028
 C2428 C 0.82023 0.10586 0.31817
 C2429 C 0.80830 0.09584 0.32778
 C2430 C 0.79994 0.08198 0.31964
 C2431 C 0.79483 0.06352 0.29311
 C2432 C 0.78257 0.05411 0.30276
 C2433 C 0.77387 0.04062 0.29432
 C2434 C 0.77745 0.03644 0.27640
 C2435 C 0.78997 0.04588 0.26700
 C2436 C 0.79861 0.05952 0.27527
 C2437 C 0.78776 0.07212 0.32893
 C2438 C 0.77919 0.05845 0.32062
 C2439 C 0.81920 0.08319 0.27423
 C2440 C 0.81083 0.06935 0.26600
 H2441 H 0.78473 0.07507 0.34271
 H2442 H 0.76979 0.05126 0.32822
 H2443 H 0.82845 0.09051 0.26657
 H2444 H 0.81385 0.06641 0.25222
 H2445 H 0.83282 0.10922 0.29260
 H2446 H 0.80554 0.09875 0.34161
 H2447 H 0.76432 0.03340 0.30169
 H2448 H 0.79277 0.04283 0.25319
 C2449 C 0.69656 0.42238 0.29792
 C2450 C 0.68481 0.41261 0.28798
 C2451 C 0.67639 0.39881 0.29621
 C2452 C 0.67955 0.39478 0.31430
 C2453 C 0.69121 0.40495 0.32409
 C2454 C 0.69983 0.41866 0.31594
 C2455 C 0.70577 0.43665 0.28923
 C2456 C 0.71778 0.44617 0.29908
 C2457 C 0.72680 0.45947 0.29065
 C2458 C 0.72376 0.46336 0.27253
 C2459 C 0.71145 0.45383 0.26293
 C2460 C 0.70251 0.44037 0.27118
 C2461 C 0.71177 0.42863 0.32544
 C2462 C 0.72064 0.44213 0.31713
 C2463 C 0.68187 0.41675 0.26996
 C2464 C 0.69053 0.43042 0.26172
 H2465 H 0.71440 0.42590 0.33937
 H2466 H 0.72984 0.44941 0.32489
 H2467 H 0.67282 0.40933 0.26214
 H2468 H 0.68791 0.43315 0.24779
 H2469 H 0.66767 0.39103 0.28840
 H2470 H 0.69357 0.40228 0.33807
 H2471 H 0.73617 0.46677 0.29819
 H2472 H 0.70908 0.45667 0.24896
 C2473 C 0.69728 0.92404 0.79970
 C2474 C 0.68522 0.91439 0.79005
 C2475 C 0.67691 0.90062 0.79845
 C2476 C 0.68048 0.89651 0.81644
 C2477 C 0.69247 0.90655 0.82595
 C2478 C 0.70098 0.92023 0.81762
 C2479 C 0.70635 0.93828 0.79082
 C2480 C 0.71867 0.94770 0.80037
 C2481 C 0.72755 0.96097 0.79175
 C2482 C 0.72408 0.96494 0.77373
 C2483 C 0.71148 0.95552 0.76443
 C2484 C 0.70267 0.94209 0.77288
 C2485 C 0.71322 0.93009 0.82682
 C2486 C 0.72196 0.94356 0.81833
 C2487 C 0.68185 0.91861 0.77213
 C2488 C 0.69039 0.93225 0.76371
 H2489 H 0.71618 0.92729 0.84066
 H2490 H 0.73140 0.95076 0.82586
 H2491 H 0.67255 0.91128 0.76453
 H2492 H 0.68743 0.93505 0.74986
 H2493 H 0.66794 0.89294 0.79084
 H2494 H 0.69516 0.90380 0.83984
 H2495 H 0.73716 0.96819 0.79905
 H2496 H 0.70877 0.95841 0.75055
 C2497 C 0.19411 0.42455 0.80192
 C2498 C 0.18240 0.41469 0.79204
 C2499 C 0.17388 0.40102 0.80040
 C2500 C 0.17692 0.39721 0.81857
 C2501 C 0.18848 0.40753 0.82832
 C2502 C 0.19720 0.42110 0.82004
 C2503 C 0.20351 0.43859 0.79305
 C2504 C 0.21554 0.44816 0.80283
 C2505 C 0.22478 0.46120 0.79423
 C2506 C 0.22194 0.46478 0.77601
 C2507 C 0.20962 0.45522 0.76648
 C2508 C 0.20046 0.44201 0.77491
 C2509 C 0.20913 0.43114 0.82946
 C2510 C 0.21819 0.44441 0.82099
 C2511 C 0.17963 0.41855 0.77392
 C2512 C 0.18847 0.43201 0.76552
 H2513 H 0.21162 0.42862 0.84346
 H2514 H 0.22740 0.45174 0.82870
 H2515 H 0.17061 0.41105 0.76615
 H2516 H 0.18600 0.43451 0.75151
 H2517 H 0.16525 0.39313 0.79261
 H2518 H 0.19075 0.40501 0.84234
 H2519 H 0.23416 0.46854 0.80171
 H2520 H 0.20740 0.45783 0.75244
 C2521 C 0.19565 0.92349 0.30215
 C2522 C 0.18374 0.91368 0.29248
 C2523 C 0.17536 0.90001 0.30096
 C2524 C 0.17871 0.89614 0.31905
 C2525 C 0.19049 0.90639 0.32860
 C2526 C 0.19909 0.91996 0.32019
 C2527 C 0.20489 0.93756 0.29315
 C2528 C 0.21710 0.94710 0.30272
 C2529 C 0.22614 0.96020 0.29398
 C2530 C 0.22290 0.96388 0.27585
 C2531 C 0.21041 0.95433 0.26654
 C2532 C 0.20146 0.94106 0.27510
 C2533 C 0.21122 0.92996 0.32940
 C2534 C 0.22011 0.94327 0.32079
 C2535 C 0.18062 0.91761 0.27444
 C2536 C 0.18929 0.93110 0.26591
 H2537 H 0.21398 0.92738 0.34333
 H2538 H 0.22947 0.95057 0.32834
 H2539 H 0.17144 0.91015 0.26683
 H2540 H 0.18654 0.93366 0.25197
 H2541 H 0.16657 0.89217 0.29331
 H2542 H 0.19301 0.90382 0.34257
 H2543 H 0.23566 0.96754 0.30128
 H2544 H 0.20788 0.95700 0.25258
 C2545 C 0.42168 0.30277 0.70207
 C2546 C 0.41188 0.31447 0.71200
 C2547 C 0.39810 0.32298 0.70373
 C2548 C 0.39415 0.31996 0.68561
 C2549 C 0.40436 0.30834 0.67583
 C2550 C 0.41803 0.29963 0.68401
 C2551 C 0.43594 0.29350 0.71079
 C2552 C 0.44552 0.28156 0.70093
 C2553 C 0.45884 0.27252 0.70938
 C2554 C 0.46271 0.27549 0.72750
 C2555 C 0.45310 0.28770 0.73712
 C2556 C 0.43961 0.29666 0.72885
 C2557 C 0.42805 0.28774 0.67452
 C2558 C 0.44153 0.27882 0.68286
 C2559 C 0.41595 0.31730 0.73005
 C2560 C 0.42962 0.30858 0.73832
 H2561 H 0.42537 0.28521 0.66057
 H2562 H 0.44886 0.26967 0.67510
 H2563 H 0.40850 0.32631 0.73786
 H2564 H 0.43230 0.31112 0.75226
 H2565 H 0.39029 0.33167 0.71153
 H2566 H 0.40175 0.30608 0.66183
 H2567 H 0.46621 0.26322 0.70183
 H2568 H 0.45591 0.29002 0.75109
 C2569 C 0.42433 0.80576 0.19835
 C2570 C 0.41436 0.81734 0.20824
 C2571 C 0.40058 0.82576 0.19990
 C2572 C 0.39675 0.82274 0.18174
 C2573 C 0.40719 0.81132 0.17197
 C2574 C 0.42088 0.80269 0.18023
 C2575 C 0.43849 0.79644 0.20720
 C2576 C 0.44817 0.78453 0.19740
 C2577 C 0.46129 0.77535 0.20600
 C2578 C 0.46487 0.77814 0.22422
 C2579 C 0.45521 0.79036 0.23376
 C2580 C 0.44191 0.79945 0.22534
 C2581 C 0.43103 0.79089 0.17080
 C2582 C 0.44441 0.78191 0.17925
 C2583 C 0.41822 0.82007 0.22636
 C2584 C 0.43180 0.81132 0.23474
 H2585 H 0.42851 0.78842 0.15680
 H2586 H 0.45182 0.77279 0.17153
 H2587 H 0.41064 0.82900 0.23414
 H2588 H 0.43429 0.81376 0.24875
 H2589 H 0.39260 0.83428 0.20771
 H2590 H 0.40467 0.80907 0.15795
 H2591 H 0.46871 0.76604 0.19852
 H2592 H 0.45780 0.79254 0.24780
 C2593 C 0.92361 0.30228 0.20070
 C2594 C 0.91984 0.29867 0.18277
 C2595 C 0.90616 0.30723 0.17442
 C2596 C 0.89607 0.31916 0.18392
 C2597 C 0.90014 0.32264 0.20192
 C2598 C 0.91392 0.31429 0.21035
 C2599 C 0.93787 0.29318 0.20961
 C2600 C 0.94165 0.29680 0.22755
 C2601 C 0.95512 0.28799 0.23600
 C2602 C 0.96462 0.27547 0.22670
 C2603 C 0.96065 0.27205 0.20868
 C2604 C 0.94734 0.28092 0.20005
 C2605 C 0.91811 0.31758 0.22828
 C2606 C 0.93177 0.30902 0.23672
 C2607 C 0.92975 0.28648 0.17358
 C2608 C 0.94323 0.27772 0.18209
 H2609 H 0.91074 0.32683 0.23588
 H2610 H 0.93454 0.31191 0.25058
 H2611 H 0.92697 0.28359 0.15972
 H2612 H 0.95047 0.26832 0.17455
 H2613 H 0.90344 0.30460 0.16051
 H2614 H 0.89242 0.33157 0.20952
 H2615 H 0.95800 0.29066 0.24989
 H2616 H 0.96793 0.26251 0.20137
 C2617 C 0.92338 0.80463 0.69782
 C2618 C 0.91970 0.80124 0.67981
 C2619 C 0.90599 0.80981 0.67153
 C2620 C 0.89576 0.82152 0.68117
 C2621 C 0.89980 0.82484 0.69922
 C2622 C 0.91360 0.81648 0.70758
 C2623 C 0.93758 0.79541 0.70669
 C2624 C 0.94123 0.79877 0.72472
 C2625 C 0.95459 0.78980 0.73317
 C2626 C 0.96410 0.77735 0.72379
 C2627 C 0.96029 0.77420 0.70568
 C2628 C 0.94709 0.78325 0.69705
 C2629 C 0.91768 0.81955 0.72558
 C2630 C 0.93129 0.81089 0.73399
 C2631 C 0.92968 0.78917 0.67052
 C2632 C 0.94311 0.78029 0.67900
 H2633 H 0.91025 0.82868 0.73326
 H2634 H 0.93397 0.81359 0.74791
 H2635 H 0.92698 0.78645 0.65661
 H2636 H 0.95038 0.77098 0.67139
 H2637 H 0.90329 0.80731 0.65759
 H2638 H 0.89198 0.83358 0.70695
 H2639 H 0.95735 0.79227 0.74712
 H2640 H 0.96758 0.76471 0.69831
 C2641 C 0.57570 0.30396 0.29835
 C2642 C 0.57894 0.30115 0.31656
 C2643 C 0.59249 0.30991 0.32485
 C2644 C 0.60301 0.32123 0.31503
 C2645 C 0.59941 0.32401 0.29677
 C2646 C 0.58575 0.31545 0.28839
 C2647 C 0.56169 0.29450 0.28948
 C2648 C 0.55846 0.29728 0.27124
 C2649 C 0.54527 0.28807 0.26282
 C2650 C 0.53553 0.27596 0.27245
 C2651 C 0.53893 0.27339 0.29075
 C2652 C 0.55193 0.28269 0.29935
 C2653 C 0.58209 0.31794 0.27019
 C2654 C 0.56865 0.30905 0.26177
 C2655 C 0.56872 0.28943 0.32606
 C2656 C 0.55547 0.28032 0.31759
 H2657 H 0.58973 0.32678 0.26235
 H2658 H 0.56630 0.31131 0.24770
 H2659 H 0.57108 0.28716 0.34013
 H2660 H 0.54800 0.27129 0.32536
 H2661 H 0.59483 0.30786 0.33894
 H2662 H 0.60745 0.33246 0.28894
 H2663 H 0.54281 0.29008 0.24872
 H2664 H 0.53145 0.26418 0.29830
 C2665 C 0.57623 0.80629 0.80153
 C2666 C 0.58614 0.81791 0.79161
 C2667 C 0.59988 0.82639 0.79993
 C2668 C 0.60370 0.82340 0.81810
 C2669 C 0.59331 0.81195 0.82791
 C2670 C 0.57968 0.80326 0.81966
 C2671 C 0.56212 0.79692 0.79271
 C2672 C 0.55249 0.78498 0.80254
 C2673 C 0.53940 0.77578 0.79398
 C2674 C 0.53580 0.77856 0.77575
 C2675 C 0.54542 0.79079 0.76617
 C2676 C 0.55870 0.79991 0.77455
 C2677 C 0.56957 0.79142 0.82914
 C2678 C 0.55625 0.78240 0.82070
 C2679 C 0.58228 0.82062 0.77348
 C2680 C 0.56876 0.81181 0.76511
 H2681 H 0.57210 0.78898 0.84314
 H2682 H 0.54887 0.77326 0.82845
 H2683 H 0.58982 0.82957 0.76567
 H2684 H 0.56625 0.81423 0.75110
 H2685 H 0.60782 0.83494 0.79209
 H2686 H 0.59583 0.80973 0.84194
 H2687 H 0.53201 0.76647 0.80150
 H2688 H 0.54281 0.79297 0.75212
 C2689 C 0.07591 0.30404 0.80015
 C2690 C 0.08557 0.31613 0.79055
 C2691 C 0.09930 0.32447 0.79902
 C2692 C 0.10337 0.32090 0.81702
 C2693 C 0.09331 0.30890 0.82648
 C2694 C 0.07967 0.30036 0.81809
 C2695 C 0.06173 0.29491 0.79119
 C2696 C 0.05232 0.28255 0.80069
 C2697 C 0.03913 0.27361 0.79198
 C2698 C 0.03523 0.27705 0.77394
 C2699 C 0.04464 0.28970 0.76471
 C2700 C 0.05799 0.29858 0.77324
 C2701 C 0.06980 0.28808 0.82723
 C2702 C 0.05640 0.27929 0.81866
 C2703 C 0.08141 0.31948 0.77262
 C2704 C 0.06782 0.31089 0.76412
 H2705 H 0.07257 0.28513 0.84108
 H2706 H 0.04920 0.26982 0.82615
 H2707 H 0.08874 0.32880 0.76506
 H2708 H 0.06508 0.31383 0.75026
 H2709 H 0.10700 0.33345 0.79145
 H2710 H 0.09603 0.30621 0.84038
 H2711 H 0.03192 0.26396 0.79922
 H2712 H 0.04182 0.29239 0.75080
 C2713 C 0.07714 0.80348 0.30174
 C2714 C 0.08677 0.81551 0.29204
 C2715 C 0.10064 0.82377 0.30035
 C2716 C 0.10487 0.82017 0.31830
 C2717 C 0.09484 0.80822 0.32787
 C2718 C 0.08106 0.79976 0.31963
 C2719 C 0.06280 0.79446 0.29293
 C2720 C 0.05341 0.78216 0.30254
 C2721 C 0.04004 0.77333 0.29398
 C2722 C 0.03596 0.77682 0.27600
 C2723 C 0.04537 0.78939 0.26666
 C2724 C 0.05889 0.79816 0.27503
 C2725 C 0.07122 0.78755 0.32887
 C2726 C 0.05765 0.77886 0.32046
 C2727 C 0.08244 0.81890 0.27415
 C2728 C 0.06871 0.81041 0.26581
 H2729 H 0.07410 0.78458 0.34269
 H2730 H 0.05047 0.76943 0.32803
 H2731 H 0.08976 0.82817 0.26651
 H2732 H 0.06583 0.81337 0.25198
 H2733 H 0.10832 0.83270 0.29270
 H2734 H 0.09769 0.80551 0.34174
 H2735 H 0.03284 0.76374 0.30132
 H2736 H 0.04240 0.79211 0.25279
 C2737 C 0.57694 0.69736 0.70162
 C2738 C 0.58054 0.70063 0.68357
 C2739 C 0.59413 0.69191 0.67532
 C2740 C 0.60432 0.68016 0.68501
 C2741 C 0.60041 0.67700 0.70312
 C2742 C 0.58671 0.68552 0.71146
 C2743 C 0.56277 0.70664 0.71042
 C2744 C 0.55916 0.70338 0.72847
 C2745 C 0.54577 0.71236 0.73682
 C2746 C 0.53620 0.72471 0.72729
 C2747 C 0.54000 0.72778 0.70917
 C2748 C 0.55322 0.71873 0.70065
 C2749 C 0.58269 0.68258 0.72950
 C2750 C 0.56912 0.69132 0.73785
 C2751 C 0.57055 0.71265 0.67417
 C2752 C 0.55716 0.72159 0.68258
 H2753 H 0.59012 0.67347 0.73725
 H2754 H 0.56648 0.68869 0.75179
 H2755 H 0.57320 0.71527 0.66023
 H2756 H 0.54986 0.73084 0.67489
 H2757 H 0.59672 0.69427 0.66133
 H2758 H 0.60820 0.66821 0.71085
 H2759 H 0.54301 0.70996 0.75079
 H2760 H 0.53267 0.73719 0.70169
 C2761 C 0.57678 0.19406 0.19868
 C2762 C 0.58023 0.19706 0.18056
 C2763 C 0.59390 0.18840 0.17237
 C2764 C 0.60432 0.17698 0.18222
 C2765 C 0.60051 0.17402 0.20039
 C2766 C 0.58674 0.18249 0.20866
 C2767 C 0.56263 0.20339 0.20744
 C2768 C 0.55920 0.20041 0.22559
 C2769 C 0.54585 0.20949 0.23391
 C2770 C 0.53616 0.22165 0.22426
 C2771 C 0.53977 0.22442 0.20605
 C2772 C 0.55294 0.21527 0.19755
 C2773 C 0.58288 0.17980 0.22678
 C2774 C 0.56931 0.18857 0.23509
 C2775 C 0.57008 0.20885 0.17103
 C2776 C 0.55669 0.21784 0.17940
 H2777 H 0.59046 0.17089 0.23463
 H2778 H 0.56680 0.18616 0.24910
 H2779 H 0.57260 0.21128 0.15702
 H2780 H 0.54928 0.22693 0.17161
 H2781 H 0.59641 0.19060 0.15834
 H2782 H 0.60848 0.16550 0.20826
 H2783 H 0.54323 0.20731 0.24795
 H2784 H 0.53233 0.23367 0.19848
 C2785 C 0.07674 0.69729 0.20051
 C2786 C 0.08044 0.70094 0.18257
 C2787 C 0.09405 0.69237 0.17418
 C2788 C 0.10415 0.68039 0.18366
 C2789 C 0.10016 0.67687 0.20167
 C2790 C 0.08645 0.68524 0.21014
 C2791 C 0.06255 0.70641 0.20946
 C2792 C 0.05885 0.70276 0.22741
 C2793 C 0.04545 0.71159 0.23590
 C2794 C 0.03595 0.72416 0.22662
 C2795 C 0.03983 0.72761 0.20859
 C2796 C 0.05307 0.71872 0.19992
 C2797 C 0.08234 0.68191 0.22808
 C2798 C 0.06875 0.69049 0.23656
 C2799 C 0.07052 0.71318 0.17340
 C2800 C 0.05710 0.72196 0.18195
 H2801 H 0.08972 0.67262 0.23565
 H2802 H 0.06603 0.68757 0.25042
 H2803 H 0.07323 0.71610 0.15954
 H2804 H 0.04985 0.73139 0.17443
 H2805 H 0.09672 0.69502 0.16027
 H2806 H 0.10789 0.66790 0.20925
 H2807 H 0.04263 0.70889 0.24980
 H2808 H 0.03255 0.73719 0.20130
 C2809 C 0.07811 0.19809 0.69913
 C2810 C 0.08208 0.20182 0.68127
 C2811 C 0.09590 0.19338 0.67310
 C2812 C 0.10591 0.18142 0.68271
 C2813 C 0.10164 0.17781 0.70064
 C2814 C 0.08773 0.18606 0.70888
 C2815 C 0.06369 0.20707 0.70784
 C2816 C 0.05971 0.20332 0.72571
 C2817 C 0.04609 0.21200 0.73397
 C2818 C 0.03663 0.22451 0.72456
 C2819 C 0.04080 0.22808 0.70663
 C2820 C 0.05428 0.21933 0.69818
 C2821 C 0.08334 0.18264 0.72673
 C2822 C 0.06954 0.19109 0.73499
 C2823 C 0.07223 0.21403 0.67197
 C2824 C 0.05859 0.22267 0.68030
 H2825 H 0.09066 0.17338 0.73441
 H2826 H 0.06661 0.18809 0.74879
 H2827 H 0.07516 0.21702 0.65817
 H2828 H 0.05140 0.23207 0.67268
 H2829 H 0.09878 0.19610 0.65925
 H2830 H 0.10930 0.16887 0.70832
 H2831 H 0.04304 0.20922 0.74780
 H2832 H 0.03356 0.23762 0.69924
 C2833 C 0.42245 0.69761 0.29789
 C2834 C 0.41869 0.70090 0.31589
 C2835 C 0.40490 0.69236 0.32400
 C2836 C 0.39469 0.68075 0.31420
 C2837 C 0.39875 0.67758 0.29614
 C2838 C 0.41264 0.68592 0.28795
 C2839 C 0.43684 0.70670 0.28925
 C2840 C 0.44060 0.70341 0.27124
 C2841 C 0.45419 0.71222 0.26304
 C2842 C 0.46381 0.72442 0.27266
 C2843 C 0.45986 0.72752 0.29073
 C2844 C 0.44643 0.71864 0.29911
 C2845 C 0.41682 0.68294 0.26996
 C2846 C 0.43059 0.69150 0.26177
 C2847 C 0.42873 0.71278 0.32539
 C2848 C 0.44233 0.72153 0.31713
 H2849 H 0.40935 0.67394 0.26214
 H2850 H 0.43335 0.68885 0.24786
 H2851 H 0.42597 0.71542 0.33929
 H2852 H 0.44966 0.73068 0.32489
 H2853 H 0.40220 0.69474 0.33795
 H2854 H 0.39094 0.66890 0.28832
 H2855 H 0.45707 0.70979 0.24911
 H2856 H 0.46722 0.73682 0.29828
 C2857 C 0.42349 0.19380 0.80187
 C2858 C 0.42007 0.19686 0.81998
 C2859 C 0.40647 0.18816 0.82826
 C2860 C 0.39608 0.17667 0.81850
 C2861 C 0.39987 0.17366 0.80034
 C2862 C 0.41358 0.18215 0.79199
 C2863 C 0.43755 0.20319 0.79300
 C2864 C 0.44094 0.20018 0.77486
 C2865 C 0.45416 0.20933 0.76643
 C2866 C 0.46377 0.22161 0.77595
 C2867 C 0.46022 0.22440 0.79417
 C2868 C 0.44718 0.21517 0.80278
 C2869 C 0.41740 0.17942 0.77387
 C2870 C 0.43089 0.18825 0.76547
 C2871 C 0.43017 0.20873 0.82940
 C2872 C 0.44346 0.21777 0.82093
 H2873 H 0.40987 0.17045 0.76610
 H2874 H 0.43337 0.18581 0.75147
 H2875 H 0.42766 0.21119 0.84340
 H2876 H 0.45083 0.22694 0.82864
 H2877 H 0.40396 0.19040 0.84228
 H2878 H 0.39193 0.16509 0.79254
 H2879 H 0.45674 0.20715 0.75239
 H2880 H 0.46760 0.23375 0.80165
 C2881 C 0.92216 0.69765 0.79841
 C2882 C 0.91832 0.70122 0.81633
 C2883 C 0.90451 0.69277 0.82451
 C2884 C 0.89436 0.68099 0.81486
 C2885 C 0.89852 0.67754 0.79688
 C2886 C 0.91242 0.68579 0.78862
 C2887 C 0.93655 0.70666 0.78968
 C2888 C 0.94040 0.70310 0.77175
 C2889 C 0.95398 0.71185 0.76345
 C2890 C 0.96351 0.72425 0.77289
 C2891 C 0.95948 0.72760 0.79090
 C2892 C 0.94607 0.71879 0.79938
 C2893 C 0.91669 0.68254 0.77070
 C2894 C 0.93047 0.69102 0.76243
 C2895 C 0.92828 0.71327 0.82567
 C2896 C 0.94188 0.72194 0.81732
 H2897 H 0.90928 0.67340 0.76300
 H2898 H 0.93329 0.68816 0.74858
 H2899 H 0.92545 0.71612 0.83952
 H2900 H 0.94915 0.73123 0.82497
 H2901 H 0.90173 0.69536 0.83841
 H2902 H 0.89076 0.66872 0.78917
 H2903 H 0.95691 0.70923 0.74957
 H2904 H 0.96678 0.73705 0.79832
 C2905 C 0.92419 0.19603 0.30237
 C2906 C 0.92054 0.19956 0.32034
 C2907 C 0.90679 0.19112 0.32866
 C2908 C 0.89649 0.17942 0.31906
 C2909 C 0.90049 0.17599 0.30103
 C2910 C 0.91434 0.18420 0.29266
 C2911 C 0.93846 0.20509 0.29347
 C2912 C 0.94207 0.20159 0.27547
 C2913 C 0.95549 0.21041 0.26700
 C2914 C 0.96509 0.22283 0.27633
 C2915 C 0.96130 0.22613 0.29441
 C2916 C 0.94805 0.21723 0.30306
 C2917 C 0.91839 0.18100 0.27468
 C2918 C 0.93206 0.18951 0.26625
 C2919 C 0.93060 0.21160 0.32959
 C2920 C 0.94408 0.22032 0.32108
 H2921 H 0.91090 0.17188 0.26704
 H2922 H 0.93471 0.18670 0.25236
 H2923 H 0.92792 0.21442 0.34347
 H2924 H 0.95142 0.22962 0.32864
 H2925 H 0.90412 0.19371 0.34257
 H2926 H 0.89262 0.16726 0.29334
 H2927 H 0.95823 0.20784 0.25307
 H2928 H 0.96866 0.23560 0.30173
 C2929 C 0.30138 0.30368 0.58035
 C2930 C 0.31873 0.30009 0.58389
 C2931 C 0.32692 0.30835 0.59816
 C2932 C 0.31785 0.31998 0.60909
 C2933 C 0.30040 0.32338 0.60528
 C2934 C 0.29215 0.31534 0.59089
 C2935 C 0.29267 0.29494 0.56541
 C2936 C 0.27533 0.29857 0.56183
 C2937 C 0.26706 0.29009 0.54773
 C2938 C 0.27595 0.27785 0.53745
 C2939 C 0.29337 0.27442 0.54120
 C2940 C 0.30182 0.28300 0.55511
 C2941 C 0.27481 0.31865 0.58690
 C2942 C 0.26655 0.31045 0.57258
 C2943 C 0.32752 0.28823 0.57313
 C2944 C 0.31919 0.27978 0.55903
 H2945 H 0.26754 0.32764 0.59492
 H2946 H 0.25316 0.31334 0.56998
 H2947 H 0.34092 0.28535 0.57572
 H2948 H 0.32639 0.27062 0.55115
 H2949 H 0.34038 0.30579 0.60064
 H2950 H 0.29313 0.33204 0.61364
 H2951 H 0.25363 0.29273 0.54502
 H2952 H 0.30034 0.26508 0.53332
 C2953 C 0.30105 0.80129 0.08025
 C2954 C 0.29726 0.81858 0.08360
 C2955 C 0.30581 0.82709 0.09749
 C2956 C 0.31794 0.81838 0.10822
 C2957 C 0.32148 0.80097 0.10465
 C2958 C 0.31316 0.79242 0.09064
 C2959 C 0.29210 0.79229 0.06564
 C2960 C 0.29601 0.77504 0.06221
 C2961 C 0.28746 0.76653 0.04831
 C2962 C 0.27489 0.77509 0.03807
 C2963 C 0.27111 0.79239 0.04174
 C2964 C 0.27976 0.80109 0.05544
 C2965 C 0.31668 0.77513 0.08684
 C2966 C 0.30829 0.76661 0.07282
 C2967 C 0.28495 0.82701 0.07299
 C2968 C 0.27631 0.81839 0.05920
 H2969 H 0.32602 0.76814 0.09475
 H2970 H 0.31140 0.75328 0.07033
 H2971 H 0.28191 0.84035 0.07544
 H2972 H 0.26684 0.82534 0.05141
 H2973 H 0.30311 0.84051 0.09979
 H2974 H 0.33052 0.79396 0.11288
 H2975 H 0.29038 0.75318 0.04568
 H2976 H 0.26152 0.79910 0.03388
 C2977 C 0.80157 0.30070 0.08049
 C2978 C 0.79264 0.31269 0.09090
 C2979 C 0.80120 0.32093 0.10496
 C2980 C 0.81867 0.31744 0.10855
 C2981 C 0.82742 0.30543 0.09780
 C2982 C 0.81891 0.29695 0.08385
 C2983 C 0.79256 0.29184 0.06582
 C2984 C 0.80141 0.27962 0.05560
 C2985 C 0.79270 0.27104 0.04185
 C2986 C 0.77533 0.27478 0.03817
 C2987 C 0.76673 0.28723 0.04844
 C2988 C 0.77524 0.29570 0.06238
 C2989 C 0.82739 0.28476 0.07322
 C2990 C 0.81877 0.27620 0.05937
 C2991 C 0.77529 0.31617 0.08708
 C2992 C 0.76676 0.30787 0.07302
 H2993 H 0.84078 0.28175 0.07568
 H2994 H 0.82576 0.26683 0.05156
 H2995 H 0.76826 0.32542 0.09501
 H2996 H 0.75339 0.31094 0.07051
 H2997 H 0.79414 0.32988 0.11320
 H2998 H 0.84089 0.30276 0.10012
 H2999 H 0.79945 0.26153 0.03397
 H3000 H 0.75333 0.29011 0.04580
 C3001 C 0.79924 0.79961 0.58066
 C3002 C 0.81134 0.79076 0.59110
 C3003 C 0.81971 0.79939 0.60503
 C3004 C 0.81626 0.81684 0.60846
 C3005 C 0.80411 0.82550 0.59771
 C3006 C 0.79550 0.81692 0.58390
 C3007 C 0.79029 0.79055 0.56609
 C3008 C 0.77800 0.79933 0.55581
 C3009 C 0.76939 0.79060 0.54209
 C3010 C 0.77320 0.77329 0.53848
 C3011 C 0.78569 0.76474 0.54882
 C3012 C 0.79419 0.77328 0.56273
 C3013 C 0.78321 0.82532 0.57324
 C3014 C 0.77456 0.81666 0.55948
 C3015 C 0.81482 0.77345 0.58740
 C3016 C 0.80643 0.76487 0.57342
 H3017 H 0.78020 0.83869 0.57560
 H3018 H 0.76513 0.82359 0.55163
 H3019 H 0.82414 0.76648 0.59535
 H3020 H 0.80952 0.75153 0.57099
 H3021 H 0.82875 0.79240 0.61328
 H3022 H 0.80146 0.83895 0.59990
 H3023 H 0.75986 0.79730 0.53415
 H3024 H 0.78863 0.75139 0.54622
 C3025 C 0.30142 0.69736 0.41895
 C3026 C 0.29224 0.68570 0.40834
 C3027 C 0.30053 0.67774 0.39394
 C3028 C 0.31796 0.68121 0.39019
 C3029 C 0.32697 0.69285 0.40116
 C3030 C 0.31874 0.70104 0.41544
 C3031 C 0.29268 0.70598 0.43393
 C3032 C 0.30177 0.71791 0.44431
 C3033 C 0.29331 0.72634 0.45830
 C3034 C 0.27592 0.72278 0.46204
 C3035 C 0.26708 0.71058 0.45166
 C3036 C 0.27537 0.70224 0.43748
 C3037 C 0.32747 0.71289 0.42627
 C3038 C 0.31911 0.72123 0.44042
 C3039 C 0.27492 0.68230 0.41230
 C3040 C 0.26664 0.69039 0.42666
 H3041 H 0.34085 0.71584 0.42372
 H3042 H 0.32628 0.73037 0.44836
 H3043 H 0.26770 0.67331 0.40423
 H3044 H 0.25328 0.68741 0.42924
 H3045 H 0.29329 0.66907 0.38555
 H3046 H 0.34042 0.69547 0.39872
 H3047 H 0.30024 0.73565 0.46626
 H3048 H 0.25368 0.70783 0.45436
 C3049 C 0.30045 0.19845 0.91958
 C3050 C 0.29659 0.18117 0.91628
 C3051 C 0.30509 0.17258 0.90241
 C3052 C 0.31724 0.18120 0.89167
 C3053 C 0.32082 0.19861 0.89518
 C3054 C 0.31256 0.20724 0.90916
 C3055 C 0.29159 0.20752 0.93419
 C3056 C 0.29558 0.22476 0.93758
 C3057 C 0.28713 0.23333 0.95149
 C3058 C 0.27459 0.22485 0.96178
 C3059 C 0.27071 0.20756 0.95814
 C3060 C 0.27926 0.19880 0.94443
 C3061 C 0.31615 0.22452 0.91291
 C3062 C 0.30785 0.23311 0.92693
 C3063 C 0.28429 0.17282 0.92692
 C3064 C 0.27573 0.18151 0.94071
 H3065 H 0.32548 0.23145 0.90498
 H3066 H 0.31101 0.24643 0.92939
 H3067 H 0.28119 0.15948 0.92451
 H3068 H 0.26627 0.17462 0.94853
 H3069 H 0.30234 0.15917 0.90015
 H3070 H 0.32986 0.20557 0.88694
 H3071 H 0.29012 0.24667 0.95410
 H3072 H 0.26113 0.20091 0.96604
 C3073 C 0.80045 0.69937 0.91868
 C3074 C 0.79136 0.68749 0.90826
 C3075 C 0.79972 0.67933 0.89403
 C3076 C 0.81715 0.68279 0.89027
 C3077 C 0.82607 0.69468 0.90103
 C3078 C 0.81776 0.70308 0.91515
 C3079 C 0.79165 0.70814 0.93352
 C3080 C 0.80066 0.72025 0.94374
 C3081 C 0.79214 0.72877 0.95766
 C3082 C 0.77481 0.72508 0.96149
 C3083 C 0.76604 0.71273 0.95122
 C3084 C 0.77437 0.70432 0.93713
 C3085 C 0.82640 0.71515 0.92580
 C3086 C 0.81798 0.72364 0.93981
 C3087 C 0.77406 0.68404 0.91224
 C3088 C 0.76572 0.69227 0.92647
 H3089 H 0.83977 0.71813 0.92321
 H3090 H 0.82509 0.73292 0.94762
 H3091 H 0.76690 0.67489 0.90431
 H3092 H 0.75237 0.68923 0.92910
 H3093 H 0.79254 0.67048 0.88578
 H3094 H 0.83951 0.69733 0.89859
 H3095 H 0.79901 0.73820 0.96553
 H3096 H 0.75267 0.70988 0.95398
 C3097 C 0.80032 0.20105 0.42007
 C3098 C 0.79685 0.18367 0.41689
 C3099 C 0.80550 0.17521 0.40305
 C3100 C 0.81739 0.18404 0.39220
 C3101 C 0.82063 0.20154 0.39561
 C3102 C 0.81221 0.21006 0.40957
 C3103 C 0.79126 0.21001 0.43463
 C3104 C 0.79482 0.22737 0.43790
 C3105 C 0.78614 0.23583 0.45174
 C3106 C 0.77379 0.22710 0.46206
 C3107 C 0.77038 0.20969 0.45856
 C3108 C 0.77915 0.20105 0.44492
 C3109 C 0.81540 0.22744 0.41322
 C3110 C 0.80690 0.23593 0.42718
 C3111 C 0.78478 0.17510 0.42760
 C3112 C 0.77603 0.18366 0.44134
 H3113 H 0.82456 0.23454 0.40522
 H3114 H 0.80974 0.24933 0.42954
 H3115 H 0.78199 0.16168 0.42529
 H3116 H 0.76674 0.17660 0.44922
 H3117 H 0.80304 0.16172 0.40088
 H3118 H 0.82950 0.20863 0.38729
 H3119 H 0.78878 0.24925 0.45427
 H3120 H 0.76096 0.20284 0.46649
 C3121 C 0.69662 0.30153 0.41903
 C3122 C 0.70026 0.31883 0.41556
 C3123 C 0.69197 0.32710 0.40131
 C3124 C 0.68026 0.31814 0.39034
 C3125 C 0.67685 0.30072 0.39406
 C3126 C 0.68490 0.29241 0.40843
 C3127 C 0.70534 0.29276 0.43397
 C3128 C 0.70164 0.27547 0.43749
 C3129 C 0.71008 0.26716 0.45163
 C3130 C 0.72234 0.27595 0.46201
 C3131 C 0.72585 0.29331 0.45830
 C3132 C 0.71732 0.30181 0.44435
 C3133 C 0.68154 0.27511 0.41235
 C3134 C 0.68973 0.26680 0.42667
 C3135 C 0.71217 0.32752 0.42639
 C3136 C 0.72060 0.31913 0.44050
 H3137 H 0.67251 0.26792 0.40427
 H3138 H 0.68678 0.25345 0.42922
 H3139 H 0.71508 0.34088 0.42386
 H3140 H 0.72979 0.32626 0.44844
 H3141 H 0.69456 0.34053 0.39890
 H3142 H 0.66813 0.29353 0.38567
 H3143 H 0.70736 0.25377 0.45430
 H3144 H 0.73521 0.30021 0.46626
 C3145 C 0.69919 0.80182 0.91966
 C3146 C 0.70307 0.81909 0.91630
 C3147 C 0.69457 0.82766 0.90236
 C3148 C 0.68242 0.81904 0.89162
 C3149 C 0.67883 0.80163 0.89521
 C3150 C 0.68707 0.79302 0.90925
 C3151 C 0.70805 0.79276 0.93432
 C3152 C 0.70406 0.77552 0.93777
 C3153 C 0.71253 0.76695 0.95170
 C3154 C 0.72511 0.77541 0.96196
 C3155 C 0.72898 0.79270 0.95828
 C3156 C 0.72040 0.80147 0.94454
 C3157 C 0.68347 0.77575 0.91307
 C3158 C 0.69177 0.76717 0.92713
 C3159 C 0.71538 0.82744 0.92692
 C3160 C 0.72395 0.81876 0.94076
 H3161 H 0.67412 0.76882 0.90514
 H3162 H 0.68860 0.75386 0.92963
 H3163 H 0.71849 0.84077 0.92447
 H3164 H 0.73342 0.82565 0.94857
 H3165 H 0.69734 0.84107 0.90004
 H3166 H 0.66978 0.79467 0.88697
 H3167 H 0.70954 0.75361 0.95434
 H3168 H 0.73860 0.79935 0.96615
 C3169 C 0.19831 0.30155 0.91990
 C3170 C 0.18094 0.29789 0.91663
 C3171 C 0.17237 0.30650 0.90277
 C3172 C 0.18110 0.31854 0.89202
 C3173 C 0.19860 0.32194 0.89552
 C3174 C 0.20722 0.31358 0.90949
 C3175 C 0.20738 0.29256 0.93448
 C3176 C 0.22472 0.29633 0.93785
 C3177 C 0.23329 0.28774 0.95171
 C3178 C 0.22470 0.27526 0.96198
 C3179 C 0.20730 0.27161 0.95837
 C3180 C 0.19855 0.28031 0.94470
 C3181 C 0.22459 0.31697 0.91322
 C3182 C 0.23318 0.30853 0.92720
 C3183 C 0.17248 0.28567 0.92726
 C3184 C 0.18116 0.27698 0.94102
 H3185 H 0.23161 0.32623 0.90529
 H3186 H 0.24657 0.31154 0.92965
 H3187 H 0.15907 0.28273 0.92487
 H3188 H 0.17418 0.26759 0.94883
 H3189 H 0.15889 0.30389 0.90052
 H3190 H 0.20563 0.33092 0.88727
 H3191 H 0.24670 0.29056 0.95430
 H3192 H 0.20056 0.26209 0.96626
 C3193 C 0.20044 0.80044 0.42041
 C3194 C 0.18300 0.79698 0.41729
 C3195 C 0.17444 0.80561 0.40346
 C3196 C 0.18322 0.81750 0.39257
 C3197 C 0.20078 0.82073 0.39592
 C3198 C 0.20941 0.81233 0.40987
 C3199 C 0.20951 0.79140 0.43494
 C3200 C 0.22692 0.79497 0.43815
 C3201 C 0.23549 0.78629 0.45197
 C3202 C 0.22682 0.77395 0.46233
 C3203 C 0.20934 0.77053 0.45889
 C3204 C 0.20060 0.77930 0.44528
 C3205 C 0.22685 0.81552 0.41345
 C3206 C 0.23544 0.80703 0.42739
 C3207 C 0.17447 0.78491 0.42804
 C3208 C 0.18314 0.77617 0.44176
 H3209 H 0.23392 0.82467 0.40542
 H3210 H 0.24889 0.80988 0.42971
 H3211 H 0.16101 0.78212 0.42577
 H3212 H 0.17611 0.76689 0.44967
 H3213 H 0.16090 0.80315 0.40133
 H3214 H 0.20784 0.82959 0.38757
 H3215 H 0.24896 0.78894 0.45445
 H3216 H 0.20253 0.76112 0.46685
 C3217 C 0.69758 0.69726 0.58042
 C3218 C 0.68029 0.70107 0.58394
 C3219 C 0.67193 0.69270 0.59806
 C3220 C 0.68079 0.68074 0.60884
 C3221 C 0.69820 0.67717 0.60508
 C3222 C 0.70660 0.68529 0.59085
 C3223 C 0.70645 0.70604 0.56561
 C3224 C 0.72372 0.70213 0.56204
 C3225 C 0.73212 0.71057 0.54801
 C3226 C 0.72346 0.72305 0.53777
 C3227 C 0.70612 0.72681 0.54154
 C3228 C 0.69753 0.71826 0.55539
 C3229 C 0.72389 0.68175 0.58689
 C3230 C 0.73229 0.68998 0.57269
 C3231 C 0.67172 0.71323 0.57329
 C3232 C 0.68021 0.72173 0.55931
 H3233 H 0.73100 0.67253 0.59483
 H3234 H 0.74563 0.68688 0.57009
 H3235 H 0.65837 0.71629 0.57586
 H3236 H 0.67317 0.73110 0.55150
 H3237 H 0.65850 0.69544 0.60050
 H3238 H 0.70533 0.66826 0.61334
 H3239 H 0.74550 0.70767 0.54530
 H3240 H 0.69933 0.73634 0.53369
 C3241 C 0.69970 0.19835 0.08078
 C3242 C 0.68765 0.20721 0.09121
 C3243 C 0.67945 0.19863 0.10528
 C3244 C 0.68301 0.18121 0.10885
 C3245 C 0.69510 0.17254 0.09810
 C3246 C 0.70355 0.18107 0.08414
 C3247 C 0.70851 0.20738 0.06608
 C3248 C 0.72078 0.19860 0.05583
 C3249 C 0.72930 0.20732 0.04203
 C3250 C 0.72544 0.22462 0.03834
 C3251 C 0.71294 0.23315 0.04865
 C3252 C 0.70454 0.22462 0.06262
 C3253 C 0.71579 0.17267 0.07348
 C3254 C 0.72430 0.18131 0.05961
 C3255 C 0.68408 0.22449 0.08739
 C3256 C 0.69233 0.23303 0.07330
 H3257 H 0.71888 0.15933 0.07594
 H3258 H 0.73371 0.17438 0.05177
 H3259 H 0.67479 0.23146 0.09534
 H3260 H 0.68918 0.24635 0.07079
 H3261 H 0.67046 0.20563 0.11353
 H3262 H 0.69783 0.15912 0.10041
 H3263 H 0.73884 0.20064 0.03413
 H3264 H 0.70997 0.24649 0.04600
 C3265 C 0.19850 0.69899 0.08031
 C3266 C 0.18117 0.70277 0.08366
 C3267 C 0.17266 0.69424 0.09758
 C3268 C 0.18139 0.68216 0.10831
 C3269 C 0.19885 0.67864 0.10473
 C3270 C 0.20742 0.68693 0.09070
 C3271 C 0.20752 0.70790 0.06568
 C3272 C 0.22482 0.70401 0.06224
 C3273 C 0.23334 0.71252 0.04833
 C3274 C 0.22475 0.72504 0.03808
 C3275 C 0.20739 0.72881 0.04175
 C3276 C 0.19868 0.72019 0.05547
 C3277 C 0.22475 0.68342 0.08690
 C3278 C 0.23328 0.69177 0.07286
 C3279 C 0.17271 0.71503 0.07305
 C3280 C 0.18134 0.72364 0.05924
 H3281 H 0.23177 0.67412 0.09482
 H3282 H 0.24664 0.68868 0.07036
 H3283 H 0.15933 0.71806 0.07550
 H3284 H 0.17436 0.73307 0.05144
 H3285 H 0.15920 0.69694 0.09989
 H3286 H 0.20589 0.66964 0.11296
 H3287 H 0.24672 0.70961 0.04568
 H3288 H 0.20066 0.73837 0.03388
 C3289 C 0.20103 0.20044 0.58028
 C3290 C 0.18362 0.20399 0.58348
 C3291 C 0.17515 0.19547 0.59741
 C3292 C 0.18399 0.18362 0.60833
 C3293 C 0.20151 0.18030 0.60490
 C3294 C 0.21005 0.18859 0.59085
 C3295 C 0.21000 0.20935 0.56563
 C3296 C 0.22739 0.20570 0.56234
 C3297 C 0.23587 0.21424 0.54840
 C3298 C 0.22713 0.22653 0.53799
 C3299 C 0.20969 0.23003 0.54151
 C3300 C 0.20104 0.22140 0.55525
 C3301 C 0.22746 0.18531 0.58719
 C3302 C 0.23596 0.19368 0.57314
 C3303 C 0.17504 0.21601 0.57269
 C3304 C 0.18362 0.22462 0.55885
 H3305 H 0.23457 0.17618 0.59524
 H3306 H 0.24938 0.19077 0.57076
 H3307 H 0.16160 0.21887 0.57502
 H3308 H 0.17655 0.23387 0.55091
 H3309 H 0.16164 0.19799 0.59960
 H3310 H 0.20860 0.17145 0.61327
 H3311 H 0.24931 0.21153 0.54587
 H3312 H 0.20284 0.23941 0.53351
   
