data_POSCAR
  _audit_creation_date              2014-09-24
  _audit_creation_method            'ToBaCCo'
  _symmetry_space_group_name_H-M    'P1'
  _symmetry_Int_Tables_number       1
  _symmetry_cell_setting            triclinic
  loop_
  _symmetry_equiv_pos_as_xyz
 x,y,z
_cell_length_a 32.3215
_cell_length_b 32.3301
_cell_length_c 32.2371
_cell_angle_alpha 89.872500
_cell_angle_beta 90.785000
_cell_angle_gamma 89.813400
loop_
  _atom_site_label
  _atom_site_type_symbol
  _atom_site_fract_x
  _atom_site_fract_y
  _atom_site_fract_z
C1 C 0.24496 0.95118 -0.02990
 C2 C 0.25762 0.94959 0.01232
 C3 C 0.26824 0.98607 0.03288
 C4 C 0.26643 1.02527 0.01385
 C5 C 0.25333 1.02770 -0.02864
 C6 C 0.24317 0.99037 -0.04913
 H7 H 0.23718 0.99153 -0.08221
 H8 H 0.27386 0.98390 0.06605
 C9 C 0.73483 0.53259 0.51332
 C10 C 0.73549 0.53118 0.46968
 C11 C 0.73451 0.49241 0.45025
 C12 C 0.73265 0.45530 0.47314
 C13 C 0.72629 0.45778 0.51660
 C14 C 0.72715 0.49663 0.53563
 H15 H 0.72426 0.49885 0.56901
 H16 H 0.73698 0.49104 0.41680
 C17 C 0.76210 1.01848 0.95209
 C18 C 0.75746 0.97507 0.95095
 C19 C 0.75370 0.95386 0.98879
 C20 C 0.75054 0.97404 1.02767
 C21 C 0.75082 1.01807 1.02742
 C22 C 0.75805 1.03886 0.99003
 H23 H 0.75991 1.07238 0.99035
 H24 H 0.75133 0.92051 0.98730
 C25 C 0.25460 0.47017 0.53009
 C26 C 0.24986 0.51358 0.52861
 C27 C 0.25523 0.53411 0.49087
 C28 C 0.26179 0.51288 0.45368
 C29 C 0.26153 0.46895 0.45417
 C30 C 0.26032 0.44870 0.49284
 H31 H 0.26287 0.41532 0.49391
 H32 H 0.25346 0.56763 0.49032
 C33 C 1.02753 0.25115 -0.01450
 C34 C 1.03197 0.23861 0.02792
 C35 C 0.99569 0.23418 0.05170
 C36 C 0.95585 0.24154 0.03527
 C37 C 0.95200 0.25212 -0.00701
 C38 C 0.98738 0.25857 -0.03022
 H39 H 0.98266 0.26581 -0.06283
 H40 H 0.99830 0.22706 0.08449
 C41 C 0.52555 0.74147 0.52633
 C42 C 0.52405 0.74449 0.48264
 C43 C 0.48629 0.73889 0.46204
 C44 C 0.44917 0.73388 0.48333
 C45 C 0.44958 0.73647 0.52729
 C46 C 0.48824 0.73800 0.54792
 H47 H 0.48933 0.73750 0.58155
 H48 H 0.48567 0.73953 0.42837
 C49 C -0.03814 0.76443 0.04088
 C50 C 0.00532 0.75733 0.04625
 C51 C 0.02998 0.74986 0.01156
 C52 C 0.01461 0.75114 -0.02932
 C53 C -0.02766 0.76204 -0.03532
 C54 C -0.05272 0.76815 -0.00058
 H55 H -0.08473 0.77628 -0.00658
 H56 H 0.06286 0.74499 0.01694
 C57 C 0.47112 0.26450 0.54942
 C58 C 0.51497 0.26465 0.55048
 C59 C 0.53639 0.26085 0.51335
 C60 C 0.51595 0.25744 0.47504
 C61 C 0.47242 0.26159 0.47321
 C62 C 0.45091 0.26521 0.51052
 H63 H 0.41753 0.26715 0.50934
 H64 H 0.56993 0.25991 0.51447
 C65 C 1.04163 0.02877 0.25102
 C66 C 1.04367 -0.01359 0.26375
 C67 C 1.00664 -0.03522 0.27042
 C68 C 0.96722 -0.01842 0.26295
 C69 C 0.96483 0.02404 0.25228
 C70 C 1.00162 0.04679 0.24811
 H71 H 0.99843 0.07982 0.24369
 H72 H 1.00888 -0.06804 0.27678
 C73 C 0.54212 0.53095 0.73901
 C74 C 0.54470 0.48715 0.73880
 C75 C 0.50861 0.46424 0.74434
 C76 C 0.46961 0.48279 0.74657
 C77 C 0.46619 0.52603 0.74107
 C78 C 0.50262 0.54937 0.73840
 H79 H 0.50010 0.58264 0.73535
 H80 H 0.51096 0.43080 0.74638
 C81 C 1.02864 0.96821 0.74815
 C82 C 0.98569 0.96814 0.74170
 C83 C 0.96364 1.00483 0.74558
 C84 C 0.98250 1.04358 0.75259
 C85 C 1.02687 1.04441 0.75342
 C86 C 1.04853 1.00621 0.75353
 H87 H 1.08192 1.00591 0.75740
 H88 H 0.93038 1.00270 0.74149
 C89 C 0.52662 0.46823 0.25442
 C90 C 0.48338 0.46602 0.24845
 C91 C 0.45994 0.50213 0.25028
 C92 C 0.47779 0.54138 0.25473
 C93 C 0.52168 0.54445 0.25535
 C94 C 0.54505 0.50746 0.25757
 H95 H 0.57847 0.50928 0.26022
 H96 H 0.42659 0.49946 0.24708
 O97 O 0.27019 0.13802 0.17600
 O98 O 0.31535 0.12755 0.23897
 O99 O 0.16055 0.18635 0.23316
 O100 O 0.14660 0.24190 0.27547
 O101 O 0.21075 0.24423 0.12416
 O102 O 0.26959 0.29086 0.11464
 O103 O 0.26312 0.30704 0.33697
 O104 O 0.21733 0.24836 0.34883
 O105 O 0.37301 0.24333 0.29409
 O106 O 0.38382 0.19412 0.23463
 O107 O 0.32784 0.34892 0.23008
 O108 O 0.26426 0.35914 0.18022
 O109 O 0.27268 0.35431 0.28569
 O110 O 0.22796 0.36874 0.23167
 O111 O 0.37572 0.29785 0.23933
 O112 O 0.38911 0.24062 0.19294
 O113 O 0.32255 0.25510 0.34110
 O114 O 0.27375 0.20696 0.35698
 O115 O 0.26736 0.18776 0.12583
 O116 O 0.31365 0.24221 0.11428
 O117 O 0.16082 0.24094 0.17316
 O118 O 0.14871 0.29116 0.22768
 O119 O 0.21061 0.13670 0.23490
 O120 O 0.26689 0.12264 0.27798
 Zr121 Zr 0.26603 0.17044 0.23308
 O122 O 0.30300 0.20652 0.27329
 Zr123 Zr 0.19326 0.24303 0.23008
 O124 O 0.22852 0.28377 0.26756
 Zr125 Zr 0.26645 0.24269 0.15902
 O126 O 0.30633 0.28018 0.19444
 Zr127 Zr 0.26717 0.24898 0.30696
 O128 O 0.22927 0.20764 0.27216
 Zr129 Zr 0.34101 0.24374 0.23676
 O130 O 0.30607 0.20564 0.19642
 Zr131 Zr 0.26997 0.31851 0.23157
 O132 O 0.22948 0.28304 0.19348
 O133 O 0.22812 0.20426 0.19316
 O134 O 0.30729 0.28513 0.27271
 C135 C 0.26986 0.15013 0.13781
 C136 C 0.17259 0.14825 0.23484
 C137 C 0.17284 0.24189 0.13535
 C138 C 0.26768 0.34441 0.32379
 C139 C 0.36057 0.25050 0.33101
 C140 C 0.36526 0.33576 0.23486
 H141 H 0.31902 0.18824 0.29225
 H142 H 0.32407 0.29617 0.17556
 H143 H 0.21081 0.18590 0.17565
 H144 H 0.20971 0.30190 0.28329
 H145 H 0.20020 0.22393 0.34184
 H146 H 0.15530 0.26066 0.29813
 H147 H 0.38281 0.26093 0.17075
 H148 H 0.33632 0.22490 0.12594
 H149 H 0.26448 0.17987 0.34637
 H150 H 0.24826 0.13142 0.30044
 H151 H 0.29021 0.35742 0.16437
 H152 H 0.24663 0.31027 0.12042
 H153 H 0.33467 0.13333 0.21612
 H154 H 0.37961 0.17664 0.25944
 H155 H 0.15744 0.31057 0.20569
 H156 H 0.20086 0.35742 0.23976
 O157 O 0.73891 0.87536 0.20473
 O158 O 0.69486 0.88636 0.26517
 O159 O 0.84737 0.82371 0.26643
 O160 O 0.86188 0.76776 0.30725
 O161 O 0.79762 0.76646 0.15592
 O162 O 0.73704 0.72094 0.14448
 O163 O 0.74539 0.70861 0.36882
 O164 O 0.79274 0.76623 0.37848
 O165 O 0.63655 0.76987 0.32336
 O166 O 0.62526 0.82041 0.26198
 O167 O 0.67789 0.66438 0.25872
 O168 O 0.74198 0.65204 0.21294
 O169 O 0.73245 0.66101 0.31850
 O170 O 0.77663 0.64263 0.26571
 O171 O 0.63026 0.71566 0.26595
 O172 O 0.61667 0.77227 0.22229
 O173 O 0.68818 0.76079 0.37117
 O174 O 0.73660 0.80881 0.38497
 O175 O 0.74006 0.82484 0.15573
 O176 O 0.69474 0.76960 0.14166
 O177 O 0.84785 0.76804 0.20594
 O178 O 0.85783 0.71845 0.26063
 O179 O 0.79875 0.87453 0.25964
 O180 O 0.74417 0.88814 0.30761
 Zr181 Zr 0.74283 0.84195 0.26122
 O182 O 0.70562 0.80706 0.30141
 Zr183 Zr 0.81447 0.76768 0.26129
 O184 O 0.77889 0.72838 0.29877
 Zr185 Zr 0.74100 0.76912 0.18863
 O186 O 0.70060 0.73271 0.22401
 Zr187 Zr 0.74181 0.76519 0.33653
 O188 O 0.77982 0.80501 0.30153
 Zr189 Zr 0.66649 0.76946 0.26543
 O190 O 0.70173 0.80663 0.22474
 Zr191 Zr 0.73624 0.69413 0.26271
 O192 O 0.77708 0.72819 0.22460
 O193 O 0.78021 0.80678 0.22288
 O194 O 0.70027 0.72865 0.30283
 C195 C 0.73908 0.86291 0.16685
 C196 C 0.83624 0.86191 0.26346
 C197 C 0.83593 0.76699 0.16785
 C198 C 0.73847 0.67149 0.35648
 C199 C 0.65007 0.76471 0.36077
 C200 C 0.64029 0.67758 0.26120
 H201 H 0.69008 0.82587 0.31972
 H202 H 0.68248 0.71698 0.20483
 H203 H 0.79777 0.82425 0.20511
 H204 H 0.79744 0.71011 0.31522
 H205 H 0.80961 0.79074 0.37143
 H206 H 0.85283 0.74990 0.33033
 H207 H 0.62551 0.75734 0.19717
 H208 H 0.67210 0.78734 0.15198
 H209 H 0.74516 0.83564 0.37329
 H210 H 0.76746 0.88137 0.32673
 H211 H 0.71732 0.65558 0.19473
 H212 H 0.75950 0.70105 0.15129
 H213 H 0.67420 0.87947 0.24333
 H214 H 0.62824 0.83639 0.28799
 H215 H 0.84798 0.69854 0.23943
 H216 H 0.80416 0.65332 0.27389
 O217 O 0.75114 0.14656 0.80220
 O218 O 0.71835 0.13195 0.74522
 O219 O 0.86460 0.20594 0.75270
 O220 O 0.87897 0.26286 0.71819
 O221 O 0.80473 0.25772 0.86375
 O222 O 0.74742 0.29095 0.87861
 O223 O 0.75826 0.31171 0.64458
 O224 O 0.79072 0.25649 0.62692
 O225 O 0.64383 0.25607 0.69815
 O226 O 0.63203 0.21537 0.75160
 O227 O 0.70028 0.36580 0.75991
 O228 O 0.75821 0.38190 0.79122
 O229 O 0.74175 0.36038 0.69209
 O230 O 0.80468 0.37087 0.74895
 O231 O 0.65058 0.31915 0.74307
 O232 O 0.63987 0.26458 0.80273
 O233 O 0.69201 0.26318 0.64773
 O234 O 0.75357 0.20687 0.63803
 O235 O 0.75525 0.19228 0.85558
 O236 O 0.69965 0.24992 0.86454
 O237 O 0.85735 0.25783 0.81752
 O238 O 0.86620 0.31118 0.75840
 O239 O 0.81690 0.15436 0.75163
 O240 O 0.75728 0.14545 0.69727
 Zr241 Zr 0.75772 0.18374 0.75044
 O242 O 0.71569 0.21934 0.71489
 Zr243 Zr 0.82765 0.25840 0.75776
 O244 O 0.79225 0.29421 0.71547
 Zr245 Zr 0.75246 0.25186 0.82652
 O246 O 0.71704 0.29445 0.79140
 Zr247 Zr 0.75133 0.25824 0.67858
 O248 O 0.79409 0.22221 0.71377
 Zr249 Zr 0.67979 0.25994 0.75131
 O250 O 0.71478 0.21674 0.78714
 Zr251 Zr 0.75300 0.33078 0.75088
 O252 O 0.78892 0.29539 0.79379
 O253 O 0.79375 0.21676 0.79257
 O254 O 0.71346 0.29765 0.71205
 C255 C 0.75343 0.15516 0.84069
 C256 C 0.85460 0.16781 0.75159
 C257 C 0.84298 0.25836 0.85477
 C258 C 0.74799 0.34835 0.65440
 C259 C 0.65420 0.26015 0.66038
 C260 C 0.66320 0.35656 0.74991
 H261 H 0.69801 0.20074 0.69803
 H262 H 0.70046 0.31160 0.81045
 H263 H 0.81171 0.19899 0.81028
 H264 H 0.81101 0.31096 0.69825
 H265 H 0.81924 0.25689 0.63844
 H266 H 0.86837 0.25622 0.69006
 H267 H 0.61367 0.27738 0.79271
 H268 H 0.68524 0.22357 0.85853
 H269 H 0.72482 0.19795 0.63222
 H270 H 0.78428 0.14899 0.68357
 H271 H 0.76233 0.37006 0.81931
 H272 H 0.75165 0.31938 0.86814
 H273 H 0.68981 0.14293 0.74707
 H274 H 0.64193 0.19254 0.76972
 H275 H 0.86097 0.32604 0.78466
 H276 H 0.80799 0.38019 0.71993
 O277 O 0.23259 0.83570 0.81090
 O278 O 0.27992 0.84700 0.75149
 O279 O 0.12503 0.78887 0.74755
 O280 O 0.10879 0.73469 0.70769
 O281 O 0.17557 0.72855 0.85798
 O282 O 0.23551 0.68043 0.86743
 O283 O 0.22694 0.67143 0.64455
 O284 O 0.17800 0.73031 0.63516
 O285 O 0.33469 0.73393 0.68856
 O286 O 0.34775 0.77794 0.75440
 O287 O 0.28853 0.62337 0.75052
 O288 O 0.22882 0.61322 0.79927
 O289 O 0.23382 0.62279 0.69534
 O290 O 0.18759 0.60914 0.75154
 O291 O 0.33722 0.67291 0.74064
 O292 O 0.35671 0.72419 0.78736
 O293 O 0.28324 0.72567 0.64056
 O294 O 0.23342 0.77217 0.62749
 O295 O 0.23554 0.78481 0.85976
 O296 O 0.27859 0.72831 0.87147
 O297 O 0.12532 0.73342 0.80791
 O298 O 0.11393 0.68361 0.75259
 O299 O 0.17520 0.83783 0.75398
 O300 O 0.23131 0.85190 0.70837
 Zr301 Zr 0.23075 0.80406 0.75322
 O302 O 0.26666 0.76880 0.71197
 Zr303 Zr 0.15749 0.73241 0.75222
 O304 O 0.19139 0.69269 0.71377
 Zr305 Zr 0.23188 0.73033 0.82497
 O306 O 0.27047 0.69304 0.78839
 Zr307 Zr 0.22961 0.72851 0.67621
 O308 O 0.19298 0.76909 0.71220
 Zr309 Zr 0.30501 0.72904 0.74674
 O310 O 0.27162 0.76689 0.78858
 Zr311 Zr 0.23251 0.65661 0.75018
 O312 O 0.19375 0.69166 0.78900
 O313 O 0.19302 0.76951 0.79125
 O314 O 0.26956 0.69003 0.70961
 C315 C 0.23456 0.82293 0.84884
 C316 C 0.13729 0.82653 0.75059
 C317 C 0.13745 0.73098 0.84584
 C318 C 0.23050 0.63380 0.65733
 C319 C 0.32133 0.73056 0.65083
 C320 C 0.32578 0.63508 0.74408
 H321 H 0.28244 0.78789 0.69417
 H322 H 0.28867 0.67607 0.80658
 H323 H 0.17591 0.78734 0.80914
 H324 H 0.17224 0.67556 0.69697
 H325 H 0.16141 0.75498 0.64257
 H326 H 0.11700 0.71738 0.68391
 H327 H 0.34611 0.71550 0.81461
 H328 H 0.30177 0.74519 0.86107
 H329 H 0.23072 0.79965 0.64046
 H330 H 0.20928 0.84546 0.68775
 H331 H 0.25384 0.61635 0.81700
 H332 H 0.21192 0.66193 0.86104
 H333 H 0.29913 0.83973 0.77458
 H334 H 0.34401 0.79685 0.73045
 H335 H 0.12339 0.66358 0.77401
 H336 H 0.16453 0.61746 0.73283
 O337 O 0.24380 0.37228 0.71019
 O338 O 0.19830 0.38279 0.77033
 O339 O 0.35276 0.32580 0.77493
 O340 O 0.36686 0.27180 0.81909
 O341 O 0.30962 0.26287 0.66532
 O342 O 0.24919 0.21839 0.65099
 O343 O 0.25227 0.20742 0.87629
 O344 O 0.29523 0.26774 0.88758
 O345 O 0.14205 0.26527 0.82511
 O346 O 0.13201 0.31511 0.76246
 O347 O 0.18904 0.16088 0.76609
 O348 O 0.25354 0.14944 0.72065
 O349 O 0.24370 0.15934 0.82551
 O350 O 0.28926 0.14267 0.77202
 O351 O 0.13955 0.21081 0.76994
 O352 O 0.12583 0.26456 0.72404
 O353 O 0.19131 0.25580 0.87531
 O354 O 0.23666 0.30760 0.89077
 O355 O 0.25203 0.32234 0.66121
 O356 O 0.20693 0.26668 0.64630
 O357 O 0.35767 0.26945 0.71716
 O358 O 0.36703 0.22097 0.77283
 O359 O 0.30232 0.37451 0.76601
 O360 O 0.24710 0.38689 0.81287
 Zr361 Zr 0.24778 0.33997 0.76726
 O362 O 0.21032 0.30417 0.80635
 Zr363 Zr 0.32192 0.26859 0.77084
 O364 O 0.28641 0.22825 0.80715
 Zr365 Zr 0.25142 0.26681 0.69496
 O366 O 0.21102 0.22921 0.72916
 Zr367 Zr 0.24645 0.26370 0.84333
 O368 O 0.28439 0.30477 0.80944
 Zr369 Zr 0.17427 0.26526 0.76878
 O370 O 0.20951 0.30330 0.72918
 Zr371 Zr 0.24654 0.19231 0.76960
 O372 O 0.28749 0.22759 0.73288
 O373 O 0.28779 0.30588 0.73059
 O374 O 0.20784 0.22576 0.80788
 C375 C 0.24769 0.36015 0.67246
 C376 C 0.34021 0.36335 0.77009
 C377 C 0.34730 0.26542 0.67890
 C378 C 0.24819 0.16994 0.86366
 C379 C 0.15367 0.25903 0.86291
 C380 C 0.15102 0.17300 0.76760
 H381 H 0.19329 0.32255 0.82376
 H382 H 0.19398 0.21255 0.70978
 H383 H 0.30552 0.32337 0.71302
 H384 H 0.30521 0.21087 0.82428
 H385 H 0.31126 0.29290 0.88092
 H386 H 0.35784 0.25336 0.84172
 H387 H 0.13729 0.25247 0.69850
 H388 H 0.18412 0.28497 0.65526
 H389 H 0.24477 0.33465 0.87923
 H390 H 0.26952 0.38032 0.83310
 H391 H 0.22875 0.15166 0.70242
 H392 H 0.27062 0.19801 0.65948
 H393 H 0.17884 0.37604 0.74738
 H394 H 0.13223 0.33070 0.78884
 H395 H 0.35840 0.20010 0.75205
 H396 H 0.31475 0.15327 0.78549
 O397 O 0.76385 0.64755 0.67026
 O398 O 0.81275 0.63538 0.73022
 O399 O 0.65946 0.69429 0.73750
 O400 O 0.64557 0.75094 0.77744
 O401 O 0.70334 0.75594 0.62453
 O402 O 0.76296 0.80182 0.61286
 O403 O 0.76410 0.81337 0.83532
 O404 O 0.72117 0.75271 0.84871
 O405 O 0.87402 0.74955 0.78546
 O406 O 0.88112 0.70121 0.72674
 O407 O 0.82582 0.85667 0.72668
 O408 O 0.76043 0.86816 0.67954
 O409 O 0.77216 0.86148 0.78451
 O410 O 0.72618 0.87702 0.73235
 O411 O 0.87340 0.80514 0.73456
 O412 O 0.87982 0.75255 0.67933
 O413 O 0.82589 0.76200 0.83489
 O414 O 0.77827 0.71293 0.85303
 O415 O 0.75862 0.69854 0.62150
 O416 O 0.80525 0.75238 0.60867
 O417 O 0.65578 0.74989 0.67565
 O418 O 0.64660 0.79964 0.73164
 O419 O 0.70876 0.64477 0.72875
 O420 O 0.76538 0.63106 0.77322
 Zr421 Zr 0.76359 0.67873 0.72821
 O422 O 0.80220 0.71379 0.76762
 Zr423 Zr 0.69105 0.75142 0.73088
 O424 O 0.72808 0.79131 0.76729
 Zr425 Zr 0.76078 0.75258 0.65613
 O426 O 0.80243 0.78897 0.69055
 Zr427 Zr 0.76849 0.75569 0.80410
 O428 O 0.72899 0.71506 0.77017
 Zr429 Zr 0.83878 0.75136 0.73018
 O430 O 0.80202 0.71432 0.69052
 Zr431 Zr 0.76788 0.82663 0.72995
 O432 O 0.72549 0.79212 0.69320
 O433 O 0.72387 0.71372 0.69127
 O434 O 0.80685 0.79222 0.76849
 C435 C 0.76055 0.66059 0.63250
 C436 C 0.67132 0.65626 0.73417
 C437 C 0.66606 0.75255 0.63740
 C438 C 0.76749 0.85108 0.82251
 C439 C 0.86335 0.75704 0.82293
 C440 C 0.86317 0.84308 0.73047
 H441 H 0.81895 0.69507 0.78546
 H442 H 0.81982 0.80494 0.67126
 H443 H 0.70546 0.69599 0.67426
 H444 H 0.70981 0.80906 0.78404
 H445 H 0.70389 0.72838 0.84168
 H446 H 0.65702 0.76615 0.80154
 H447 H 0.90801 0.75946 0.68971
 H448 H 0.82890 0.73573 0.61926
 H449 H 0.77072 0.68553 0.84180
 H450 H 0.74615 0.63936 0.79536
 H451 H 0.78584 0.86681 0.66281
 H452 H 0.74014 0.82106 0.61959
 H453 H 0.83066 0.64145 0.70630
 H454 H 0.87687 0.68289 0.75091
 H455 H 0.65402 0.81920 0.70929
 H456 H 0.69945 0.86570 0.74155
 O457 O 0.23962 0.63755 0.30044
 O458 O 0.20395 0.62285 0.24409
 O459 O 0.35112 0.69273 0.24060
 O460 O 0.36861 0.75014 0.21132
 O461 O 0.29859 0.75276 0.35673
 O462 O 0.24156 0.78012 0.37643
 O463 O 0.23878 0.80188 0.13974
 O464 O 0.27749 0.74815 0.12357
 O465 O 0.13196 0.75351 0.19833
 O466 O 0.11740 0.71333 0.25083
 O467 O 0.19303 0.85859 0.24482
 O468 O 0.24492 0.86994 0.28997
 O469 O 0.24537 0.85277 0.18800
 O470 O 0.29742 0.86073 0.25013
 O471 O 0.14113 0.81199 0.25271
 O472 O 0.13131 0.74795 0.30340
 O473 O 0.17785 0.75121 0.14550
 O474 O 0.23822 0.69708 0.13381
 O475 O 0.24984 0.68393 0.35244
 O476 O 0.19339 0.74264 0.36234
 O477 O 0.34888 0.74156 0.30950
 O478 O 0.35716 0.79781 0.25086
 O479 O 0.30287 0.64215 0.24692
 O480 O 0.24084 0.63504 0.19465
 Zr481 Zr 0.24473 0.67368 0.24743
 O482 O 0.20239 0.71039 0.21320
 Zr483 Zr 0.31713 0.74616 0.25077
 O484 O 0.28135 0.78278 0.20959
 Zr485 Zr 0.24495 0.74315 0.32262
 O486 O 0.20951 0.78667 0.28851
 Zr487 Zr 0.23754 0.74816 0.17484
 O488 O 0.28043 0.71085 0.20865
 Zr489 Zr 0.16960 0.75242 0.25081
 O490 O 0.20450 0.70841 0.28558
 Zr491 Zr 0.24524 0.82135 0.24629
 O492 O 0.28154 0.78501 0.28796
 O493 O 0.28358 0.70605 0.28749
 O494 O 0.20261 0.78913 0.20977
 C495 C 0.24590 0.64657 0.33851
 C496 C 0.34050 0.65487 0.24283
 C497 C 0.33614 0.74649 0.34710
 C498 C 0.24265 0.83967 0.15025
 C499 C 0.14076 0.75283 0.15994
 C500 C 0.15510 0.84923 0.24917
 H501 H 0.18327 0.69228 0.19742
 H502 H 0.19462 0.80498 0.30787
 H503 H 0.30195 0.68773 0.30417
 H504 H 0.30010 0.79827 0.19123
 H505 H 0.30536 0.74177 0.13495
 H506 H 0.35737 0.74855 0.18267
 H507 H 0.13077 0.77533 0.31705
 H508 H 0.18087 0.71478 0.36040
 H509 H 0.21013 0.68501 0.13290
 H510 H 0.26727 0.63780 0.17973
 H511 H 0.25438 0.85759 0.31657
 H512 H 0.24235 0.80919 0.36678
 H513 H 0.17649 0.63362 0.25201
 H514 H 0.12828 0.68481 0.24876
 H515 H 0.35545 0.81071 0.27862
 H516 H 0.31136 0.86032 0.22299
 O517 O 0.73975 0.33500 0.31820
 O518 O 0.78412 0.34850 0.25820
 O519 O 0.62909 0.29392 0.24803
 O520 O 0.61349 0.24104 0.20548
 O521 O 0.67185 0.22871 0.35849
 O522 O 0.73013 0.17949 0.37052
 O523 O 0.73435 0.17655 0.14728
 O524 O 0.68587 0.23575 0.13701
 O525 O 0.83997 0.23410 0.19859
 O526 O 0.85085 0.27627 0.26606
 O527 O 0.78780 0.12386 0.25576
 O528 O 0.72294 0.11504 0.30021
 O529 O 0.73766 0.12592 0.19637
 O530 O 0.68795 0.11096 0.24638
 O531 O 0.83814 0.17226 0.24879
 O532 O 0.85607 0.22133 0.29837
 O533 O 0.79057 0.23052 0.14788
 O534 O 0.74106 0.27770 0.13344
 O535 O 0.73085 0.28362 0.36559
 O536 O 0.77440 0.22622 0.37731
 O537 O 0.62419 0.23801 0.30658
 O538 O 0.61420 0.18909 0.25034
 O539 O 0.67989 0.34114 0.26042
 O540 O 0.73649 0.35478 0.21584
 Zr541 Zr 0.73465 0.30586 0.25943
 O542 O 0.77176 0.27072 0.21932
 Zr543 Zr 0.65940 0.23636 0.25276
 O544 O 0.69423 0.19668 0.21491
 Zr545 Zr 0.72981 0.23017 0.32887
 O546 O 0.76931 0.19270 0.29340
 Zr547 Zr 0.73527 0.23262 0.18065
 O548 O 0.69789 0.27311 0.21577
 Zr549 Zr 0.80707 0.22894 0.25490
 O550 O 0.77252 0.26662 0.29582
 Zr551 Zr 0.73258 0.15839 0.25204
 O552 O 0.69261 0.19340 0.28990
 O553 O 0.69405 0.27150 0.29449
 O554 O 0.77254 0.19216 0.21476
 C555 C 0.73666 0.32157 0.35574
 C556 C 0.64191 0.33104 0.25416
 C557 C 0.63453 0.23372 0.34482
 C558 C 0.73726 0.13844 0.15868
 C559 C 0.82830 0.23314 0.16019
 C560 C 0.82561 0.13472 0.25119
 H561 H 0.78908 0.28981 0.20304
 H562 H 0.78598 0.17479 0.31215
 H563 H 0.67701 0.28948 0.31229
 H564 H 0.67579 0.18039 0.19655
 H565 H 0.66879 0.26007 0.14445
 H566 H 0.62168 0.22269 0.18249
 H567 H 0.84337 0.21370 0.32502
 H568 H 0.79747 0.24454 0.36934
 H569 H 0.74394 0.30460 0.14760
 H570 H 0.71549 0.34849 0.19413
 H571 H 0.74760 0.11556 0.31873
 H572 H 0.70639 0.16172 0.36274
 H573 H 0.80422 0.33967 0.27993
 H574 H 0.84980 0.29524 0.24194
 H575 H 0.62138 0.16894 0.27249
 H576 H 0.66285 0.12343 0.23368
 C577 C 0.24851 0.09567 0.03708
 C578 C 0.27293 0.05980 0.04004
 C579 C 0.30147 0.05771 0.07397
 C580 C 0.30054 0.08687 0.10617
 C581 C 0.27195 0.11952 0.10466
 C582 C 0.24859 0.12508 0.06823
 C583 C 0.20337 0.13342 0.06297
 C584 C 0.20319 0.10106 0.02883
 H585 H 0.32341 0.03241 0.07667
 H586 H 0.32141 0.08338 0.13252
 H587 H 0.19710 0.16525 0.05132
 H588 H 0.18527 0.12423 0.09059
 H589 H 0.19663 0.11446 -0.00237
 H590 H 0.18507 0.07296 0.03656
 C591 C 0.78131 0.57184 0.56117
 C592 C 0.74467 0.56981 0.53739
 C593 C 0.71632 0.60270 0.54050
 C594 C 0.72235 0.63335 0.57095
 C595 C 0.75627 0.63078 0.59895
 C596 C 0.78696 0.60173 0.59107
 C597 C 0.81154 0.57381 0.61880
 C598 C 0.80576 0.54063 0.58571
 H599 H 0.68837 0.60311 0.52158
 H600 H 0.69915 0.65732 0.57445
 H601 H 0.79546 0.56671 0.64823
 H602 H 0.84415 0.58414 0.62239
 H603 H 0.78739 0.51402 0.59688
 H604 H 0.83509 0.53211 0.57022
 C605 C 0.76187 0.90812 0.06297
 C606 C 0.74625 0.94870 0.06359
 C607 C 0.72374 0.95983 0.09954
 C608 C 0.72136 0.93261 0.13404
 C609 C 0.74025 0.89326 0.13282
 C610 C 0.75854 0.88134 0.09591
 C611 C 0.80012 0.86264 0.08878
 C612 C 0.80404 0.89235 0.05251
 H613 H 0.70695 0.98867 0.10111
 H614 H 0.70463 0.94217 0.16128
 H615 H 0.79791 0.82975 0.07908
 H616 H 0.82246 0.86882 0.11457
 H617 H 0.80457 0.87636 0.02203
 H618 H 0.82853 0.91603 0.05725
 C619 C 0.28368 0.41666 0.57850
 C620 C 0.25308 0.44574 0.56903
 C621 C 0.21975 0.44798 0.59725
 C622 C 0.21837 0.42145 0.63257
 C623 C 0.24964 0.39140 0.63961
 C624 C 0.28188 0.39092 0.61164
 C625 C 0.32042 0.36833 0.60085
 C626 C 0.32263 0.39753 0.56311
 H627 H 0.19441 0.46930 0.59152
 H628 H 0.19221 0.42322 0.65312
 H629 H 0.31442 0.33555 0.59239
 H630 H 0.34561 0.37322 0.62413
 H631 H 0.31820 0.38129 0.53304
 H632 H 0.34914 0.41931 0.56453
 C633 C 0.73858 0.04765 0.88355
 C634 C 0.76818 0.04541 0.91548
 C635 C 0.79699 0.07824 0.91841
 C636 C 0.79104 0.11494 0.89553
 C637 C 0.75719 0.11894 0.86806
 C638 C 0.73380 0.08333 0.85977
 C639 C 0.68787 0.07860 0.85792
 C640 C 0.69317 0.03970 0.88405
 H641 H 0.82133 0.07737 0.94184
 H642 H 0.81210 0.14051 0.90014
 H643 H 0.67645 0.07226 0.82589
 H644 H 0.67141 0.10394 0.87422
 H645 H 0.68482 0.01096 0.86708
 H646 H 0.67994 0.04249 0.91559
 C647 C 0.23741 0.53887 0.38395
 C648 C 0.26659 0.53921 0.41634
 C649 C 0.29340 0.57376 0.41863
 C650 C 0.28597 0.60934 0.39429
 C651 C 0.25229 0.61071 0.36626
 C652 C 0.23096 0.57357 0.35902
 C653 C 0.18542 0.56612 0.35663
 C654 C 0.19254 0.52832 0.38400
 H655 H 0.31735 0.57497 0.44243
 H656 H 0.30582 0.63603 0.39817
 H657 H 0.17493 0.55821 0.32464
 H658 H 0.16724 0.59092 0.37190
 H659 H 0.18617 0.49866 0.36779
 H660 H 0.17864 0.53122 0.41523
 C661 C 0.25683 0.87776 0.95061
 C662 C 0.23568 0.91567 0.94567
 C663 C 0.20785 0.91845 0.91122
 C664 C 0.20729 0.88831 0.87989
 C665 C 0.23327 0.85360 0.88260
 C666 C 0.25536 0.84747 0.91977
 C667 C 0.29986 0.83654 0.92521
 C668 C 0.30192 0.86949 0.95855
 H669 H 0.18773 0.94504 0.90717
 H670 H 0.18757 0.89293 0.85292
 H671 H 0.31849 0.84406 0.89746
 H672 H 0.30412 0.80463 0.93751
 H673 H 0.32183 0.89619 0.95033
 H674 H 0.30825 0.85582 0.98956
 C675 C 0.71390 0.38137 0.45391
 C676 C 0.73956 0.41600 0.45014
 C677 C 0.77027 0.41435 0.41930
 C678 C 0.77014 0.38292 0.38921
 C679 C 0.74016 0.35157 0.39000
 C680 C 0.71454 0.34961 0.42475
 C681 C 0.66880 0.34374 0.42701
 C682 C 0.66820 0.37846 0.45884
 H683 H 0.79242 0.43922 0.41641
 H684 H 0.79220 0.38425 0.36426
 H685 H 0.66060 0.31311 0.44027
 H686 H 0.65251 0.35174 0.39743
 H687 H 0.65970 0.36777 0.49039
 H688 H 0.65165 0.40668 0.44773
 C689 C 0.10473 0.25972 0.04083
 C690 C 0.07065 0.23399 0.04878
 C691 C 0.07581 0.20479 0.08128
 C692 C 0.11029 0.20626 0.10811
 C693 C 0.14091 0.23651 0.10305
 C694 C 0.13927 0.26061 0.06705
 C695 C 0.14441 0.30614 0.06181
 C696 C 0.10670 0.30523 0.03308
 H697 H 0.05233 0.18178 0.08724
 H698 H 0.11202 0.18500 0.13403
 H699 H 0.17348 0.31392 0.04554
 H700 H 0.13918 0.32351 0.09102
 H701 H 0.11424 0.31250 0.00033
 H702 H 0.07953 0.32208 0.04552
 C703 C 0.59593 0.77064 0.54476
 C704 C 0.56478 0.74125 0.55065
 C705 C 0.57113 0.71158 0.58223
 C706 C 0.60474 0.71497 0.61002
 C707 C 0.63313 0.74761 0.60627
 C708 C 0.62988 0.77328 0.57146
 C709 C 0.63034 0.81940 0.56875
 C710 C 0.59317 0.81636 0.53944
 H711 H 0.54890 0.68704 0.58681
 H712 H 0.60775 0.69294 0.63528
 H713 H 0.65861 0.83102 0.55336
 H714 H 0.62314 0.83447 0.59879
 H715 H 0.60012 0.82614 0.50721
 H716 H 0.56431 0.82955 0.55246
 C717 C 0.03973 0.76263 0.89934
 C718 C 0.04245 0.74267 0.93802
 C719 C 0.07565 0.71407 0.94352
 C720 C 0.10659 0.70964 0.91357
 C721 C 0.10479 0.73295 0.87687
 C722 C 0.06972 0.75742 0.86945
 C723 C 0.06733 0.80160 0.85610
 C724 C 0.03472 0.80756 0.88902
 H725 H 0.07827 0.69531 0.97129
 H726 H 0.13219 0.68864 0.91945
 H727 H 0.05488 0.80497 0.82394
 H728 H 0.09643 0.81883 0.86260
 H729 H 0.00380 0.81496 0.87542
 H730 H 0.04487 0.82809 0.91481
 C731 C 0.57204 0.21815 0.44015
 C732 C 0.54185 0.24910 0.43869
 C733 C 0.54075 0.27403 0.40254
 C734 C 0.56999 0.26786 0.37068
 C735 C 0.60147 0.23743 0.37493
 C736 C 0.60051 0.21300 0.41019
 C737 C 0.62380 0.18040 0.43330
 C738 C 0.59158 0.18610 0.46758
 H739 H 0.51853 0.29903 0.39957
 H740 H 0.56921 0.28812 0.34386
 H741 H 0.65537 0.19069 0.44259
 H742 H 0.62210 0.14987 0.41760
 H743 H 0.60512 0.19910 0.49658
 H744 H 0.57126 0.15879 0.47183
 C745 C 0.88948 0.76072 0.06440
 C746 C 0.93191 0.76744 0.07337
 C747 C 0.94099 0.77875 0.11505
 C748 C 0.90993 0.77915 0.14564
 C749 C 0.86852 0.76856 0.13586
 C750 C 0.85901 0.76166 0.09425
 C751 C 0.83527 0.72725 0.07473
 C752 C 0.86856 0.72583 0.04199
 H753 H 0.97136 0.78832 0.12484
 H754 H 0.91860 0.78730 0.17713
 H755 H 0.80472 0.73779 0.06239
 H756 H 0.83445 0.69907 0.09455
 H757 H 0.85673 0.73501 0.01075
 H758 H 0.88717 0.69684 0.04279
 C759 C 0.41046 0.23515 0.58686
 C760 C 0.44450 0.26179 0.58658
 C761 C 0.44752 0.28935 0.62064
 C762 C 0.41638 0.29016 0.65165
 C763 C 0.38109 0.26415 0.64873
 C764 C 0.38036 0.23679 0.61577
 C765 C 0.35456 0.20443 0.59562
 C766 C 0.38833 0.20251 0.56247
 H767 H 0.47261 0.31139 0.62240
 H768 H 0.41908 0.31216 0.67682
 H769 H 0.32456 0.21694 0.58378
 H770 H 0.35252 0.17596 0.61485
 H771 H 0.37711 0.21334 0.53159
 H772 H 0.40564 0.17275 0.56232
 C773 C 0.90098 0.21720 0.94731
 C774 C 0.91290 0.25292 0.96899
 C775 C 0.89796 0.29113 0.95365
 C776 C 0.87649 0.29332 0.91526
 C777 C 0.87086 0.25756 0.89092
 C778 C 0.87991 0.21951 0.90954
 C779 C 0.90284 0.18341 0.89238
 C780 C 0.92565 0.18053 0.93376
 H781 H 0.90642 0.31959 0.96921
 H782 H 0.86588 0.32308 0.90378
 H783 H 0.92311 0.19206 0.86615
 H784 H 0.88238 0.15656 0.88638
 H785 H 0.95931 0.18678 0.93127
 H786 H 0.91782 0.15224 0.95163
 C787 C 0.38167 0.75992 0.45452
 C788 C 0.41190 0.72900 0.45676
 C789 C 0.41321 0.70031 0.42365
 C790 C 0.39025 0.70716 0.38684
 C791 C 0.36447 0.74203 0.38289
 C792 C 0.35795 0.76574 0.41868
 C793 C 0.35864 0.81167 0.42349
 C794 C 0.38470 0.80521 0.46258
 H795 H 0.43553 0.67524 0.42442
 H796 H 0.39348 0.68589 0.36123
 H797 H 0.32739 0.82446 0.42976
 H798 H 0.37557 0.82739 0.39816
 H799 H 0.36848 0.81426 0.49137
 H800 H 0.41682 0.81706 0.45992
 C801 C 0.11688 0.04712 0.25748
 C802 C 0.07663 0.05408 0.24149
 C803 C 0.07209 0.08985 0.21580
 C804 C 0.10314 0.12015 0.21341
 C805 C 0.14086 0.11521 0.23489
 C806 C 0.14799 0.07685 0.25408
 C807 C 0.16521 0.06775 0.29617
 C808 C 0.13164 0.03527 0.30007
 H809 H 0.04401 0.09554 0.19805
 H810 H 0.09707 0.14797 0.19562
 H811 H 0.16156 0.09409 0.31796
 H812 H 0.19689 0.05438 0.29491
 H813 H 0.10864 0.04232 0.32442
 H814 H 0.14476 0.00351 0.30095
 C815 C 0.57842 0.59435 0.76504
 C816 C 0.57830 0.55922 0.73976
 C817 C 0.61189 0.55588 0.71216
 C818 C 0.64277 0.58721 0.71059
 C819 C 0.64022 0.62315 0.73576
 C820 C 0.60724 0.62470 0.76267
 C821 C 0.58802 0.65051 0.79529
 C822 C 0.55499 0.61643 0.79798
 H823 H 0.61365 0.53011 0.69088
 H824 H 0.66782 0.58390 0.68886
 H825 H 0.57591 0.68032 0.78278
 H826 H 0.60795 0.65291 0.82354
 H827 H 0.52388 0.62708 0.78739
 H828 H 0.55566 0.59934 0.82793
 C829 C 0.91430 0.07013 0.77009
 C830 C 0.95471 0.07772 0.75599
 C831 C 0.96132 0.11719 0.73829
 C832 C 0.92880 0.14688 0.73649
 C833 C 0.88880 0.13754 0.75153
 C834 C 0.88232 0.09811 0.76694
 C835 C 0.86418 0.08453 0.80708
 C836 C 0.89965 0.05368 0.81064
 H837 H 0.99047 0.12479 0.72416
 H838 H 0.93483 0.17693 0.72301
 H839 H 0.83351 0.06958 0.80267
 H840 H 0.86521 0.10907 0.83113
 H841 H 0.88934 0.02098 0.80841
 H842 H 0.92149 0.06045 0.83668
 C843 C 0.41149 0.57018 0.27874
 C844 C 0.44767 0.57616 0.25580
 C845 C 0.44574 0.60586 0.22379
 C846 C 0.40997 0.63067 0.21810
 C847 C 0.37461 0.62478 0.24288
 C848 C 0.37577 0.59295 0.27196
 C849 C 0.36570 0.59341 0.31701
 C850 C 0.40537 0.56894 0.32450
 H851 H 0.47141 0.60947 0.20289
 H852 H 0.41005 0.65473 0.19468
 H853 H 0.33732 0.57536 0.32366
 H854 H 0.36635 0.62497 0.33049
 H855 H 0.39980 0.53701 0.33595
 H856 H 0.42947 0.58654 0.34189
 C857 C 0.04931 0.89782 0.72143
 C858 C 0.05334 0.92954 0.75076
 C859 C 0.08114 0.92301 0.78420
 C860 C 0.10734 0.88828 0.78496
 C861 C 0.10589 0.85912 0.75265
 C862 C 0.07456 0.86303 0.72264
 C863 C 0.07699 0.86151 0.67644
 C864 C 0.04923 0.89962 0.67524
 H865 H 0.08379 0.94560 0.80885
 H866 H 0.12977 0.88496 0.80992
 H867 H 0.06179 0.83349 0.66348
 H868 H 0.10875 0.86740 0.66503
 H869 H 0.01804 0.89348 0.66170
 H870 H 0.06485 0.92771 0.66321
 C871 C 0.54855 0.39732 0.22997
 C872 C 0.55344 0.43086 0.25704
 C873 C 0.58544 0.42812 0.28718
 C874 C 0.61401 0.39524 0.28663
 C875 C 0.61072 0.36397 0.25643
 C876 C 0.57600 0.36425 0.23016
 C877 C 0.57354 0.36016 0.18407
 C878 C 0.54347 0.39644 0.18394
 H879 H 0.58938 0.45225 0.31013
 H880 H 0.63925 0.39482 0.30910
 H881 H 0.55892 0.33058 0.17440
 H882 H 0.60338 0.36721 0.16885
 H883 H 0.51162 0.38762 0.17410
 H884 H 0.55585 0.42465 0.16877
 C885 C 0.93506 0.91765 0.28762
 C886 C 0.93309 0.95384 0.26328
 C887 C 0.89906 0.95686 0.23520
 C888 C 0.86701 0.92732 0.23556
 C889 C 0.86891 0.89318 0.26280
 C890 C 0.90448 0.88796 0.28695
 C891 C 0.90875 0.87999 0.33242
 C892 C 0.94243 0.91267 0.33319
 H893 H 0.89731 0.98117 0.21216
 H894 H 0.84102 0.93092 0.21426
 H895 H 0.92057 0.84832 0.33915
 H896 H 0.88068 0.88908 0.34983
 H897 H 0.97364 0.89978 0.34044
 H898 H 0.93396 0.94081 0.35097
 C899 C 0.43878 0.42259 0.78225
 C900 C 0.43438 0.45469 0.75325
 C901 C 0.39942 0.45397 0.72670
 C902 C 0.36780 0.42496 0.73318
 C903 C 0.37153 0.39527 0.76521
 C904 C 0.40849 0.39321 0.78774
 C905 C 0.41562 0.39212 0.83359
 C906 C 0.44923 0.42426 0.82738
 H907 H 0.39637 0.47581 0.70133
 H908 H 0.34078 0.42535 0.71292
 H909 H 0.42789 0.36170 0.84429
 H910 H 0.38868 0.40397 0.85115
 H911 H 0.48087 0.41225 0.83417
 H912 H 0.44201 0.45474 0.84147
 C913 C 0.05658 0.27808 0.92129
 C914 C 0.05987 0.25201 0.95618
 C915 C 0.09321 0.22341 0.95648
 C916 C 0.12419 0.22552 0.92616
 C917 C 0.12146 0.25495 0.89392
 C918 C 0.08598 0.27912 0.89081
 C919 C 0.08167 0.32476 0.88511
 C920 C 0.04916 0.32364 0.91870
 H921 H 0.09552 0.19931 0.97972
 H922 H 0.15017 0.20432 0.92795
 H923 H 0.06877 0.33290 0.85400
 H924 H 0.11012 0.34186 0.89439
 H925 H 0.01755 0.33118 0.90688
 H926 H 0.05864 0.34010 0.94753
 C927 C 0.59706 0.73250 0.45867
 C928 C 0.56000 0.75485 0.45676
 C929 C 0.55604 0.78578 0.42590
 C930 C 0.58568 0.78963 0.39471
 C931 C 0.62036 0.76336 0.39453
 C932 C 0.62700 0.73728 0.42874
 C933 C 0.63809 0.69237 0.43021
 C934 C 0.60501 0.68724 0.46296
 H935 H 0.52856 0.80503 0.42425
 H936 H 0.58072 0.81195 0.37002
 H937 H 0.66998 0.68714 0.44252
 H938 H 0.63080 0.67612 0.40067
 H939 H 0.61790 0.67907 0.49407
 H940 H 0.57829 0.66823 0.45235
 C941 C 0.95296 0.73250 0.89456
 C942 C 0.95132 0.76475 0.92346
 C943 C 0.92485 0.79841 0.91407
 C944 C 0.89704 0.79652 0.88025
 C945 C 0.89620 0.76163 0.85427
 C946 C 0.92671 0.73138 0.86016
 C947 C 0.92265 0.68544 0.86291
 C948 C 0.95150 0.68686 0.90059
 H949 H 0.92347 0.82479 0.93467
 H950 H 0.87491 0.82137 0.87556
 H951 H 0.93652 0.66963 0.83582
 H952 H 0.89069 0.67549 0.87039
 H953 H 0.98202 0.67204 0.89514
 H954 H 0.93630 0.67789 0.93000
 C955 C 0.41545 0.28828 0.42663
 C956 C 0.44776 0.26034 0.43402
 C957 C 0.45249 0.22878 0.40385
 C958 C 0.42524 0.22626 0.36890
 C959 C 0.39178 0.25430 0.36417
 C960 C 0.38884 0.28509 0.39390
 C961 C 0.36248 0.32027 0.40733
 C962 C 0.39257 0.32413 0.44454
 H963 H 0.47612 0.20527 0.40787
 H964 H 0.42917 0.20139 0.34684
 H965 H 0.33093 0.31018 0.41610
 H966 H 0.36357 0.34689 0.38555
 H967 H 0.37776 0.31684 0.47456
 H968 H 0.41115 0.35299 0.44419
 C969 C 0.04913 0.79308 0.09907
 C970 C 0.02892 0.75699 0.08577
 C971 C 0.04441 0.71901 0.10121
 C972 C 0.08177 0.71751 0.12440
 C973 C 0.10474 0.75379 0.13180
 C974 C 0.08557 0.79150 0.12240
 C975 C 0.10269 0.82864 0.10124
 C976 C 0.06285 0.83042 0.07568
 H977 H 0.02995 0.69028 0.09185
 H978 H 0.09362 0.68787 0.13494
 H979 H 0.13044 0.82132 0.08256
 H980 H 0.10626 0.85520 0.12282
 H981 H 0.06764 0.82441 0.04215
 H982 H 0.04354 0.85800 0.08260
 C983 C 0.56328 0.30125 0.59901
 C984 C 0.54107 0.26543 0.58838
 C985 C 0.55600 0.22762 0.60457
 C986 C 0.59424 0.22570 0.62618
 C987 C 0.61900 0.26128 0.63109
 C988 C 0.60082 0.29925 0.62060
 C989 C 0.61819 0.33469 0.59684
 C990 C 0.57709 0.33718 0.57350
 H991 H 0.54002 0.19909 0.59730
 H992 H 0.60516 0.19613 0.63789
 H993 H 0.64454 0.32548 0.57699
 H994 H 0.62395 0.36204 0.61680
 H995 H 0.57994 0.33017 0.53996
 H996 H 0.55933 0.36576 0.58052
 C997 C 0.88305 0.22261 0.05733
 C998 C 0.92059 0.24312 0.06454
 C999 C 0.92507 0.26464 0.10251
 C1000 C 0.89526 0.26136 0.13374
 C1001 C 0.85975 0.23703 0.12761
 C1002 C 0.85324 0.21995 0.08809
 C1003 C 0.84264 0.17647 0.07687
 C1004 C 0.87517 0.17926 0.04341
 H1005 H 0.95264 0.28265 0.10881
 H1006 H 0.90041 0.27719 0.16292
 H1007 H 0.81059 0.17380 0.06422
 H1008 H 0.85068 0.15403 0.10194
 H1009 H 0.86150 0.17783 0.01165
 H1010 H 0.90218 0.15849 0.04897
 C1011 C 0.37765 0.71370 0.54931
 C1012 C 0.41184 0.74004 0.55327
 C1013 C 0.41164 0.76816 0.58688
 C1014 C 0.38211 0.76516 0.61841
 C1015 C 0.35117 0.73474 0.61670
 C1016 C 0.34773 0.71148 0.58007
 C1017 C 0.34319 0.66584 0.57473
 C1018 C 0.37575 0.66838 0.54114
 H1019 H 0.43611 0.79075 0.59033
 H1020 H 0.38431 0.78578 0.64478
 H1021 H 0.31203 0.65730 0.56255
 H1022 H 0.35372 0.64818 0.60258
 H1023 H 0.36326 0.66149 0.50962
 H1024 H 0.40510 0.65215 0.54950
 C1025 C 0.22528 0.06770 0.91272
 C1026 C 0.25267 0.06451 0.94684
 C1027 C 0.28157 0.09725 0.95150
 C1028 C 0.27931 0.13285 0.92583
 C1029 C 0.24908 0.13593 0.89400
 C1030 C 0.22389 0.10179 0.88693
 C1031 C 0.17798 0.09962 0.88194
 C1032 C 0.17946 0.06198 0.91027
 H1033 H 0.30632 0.09535 0.97435
 H1034 H 0.30161 0.15742 0.93027
 H1035 H 0.16840 0.09216 0.84956
 H1036 H 0.16192 0.12666 0.89575
 H1037 H 0.17074 0.03286 0.89415
 H1038 H 0.16422 0.06708 0.94055
 C1039 C 0.70936 0.57289 0.40946
 C1040 C 0.73631 0.56883 0.44332
 C1041 C 0.76473 0.60178 0.44931
 C1042 C 0.76476 0.63648 0.42205
 C1043 C 0.73728 0.63833 0.38751
 C1044 C 0.71005 0.60550 0.38303
 C1045 C 0.67616 0.58909 0.35612
 C1046 C 0.67520 0.55199 0.38613
 H1047 H 0.78759 0.60043 0.47409
 H1048 H 0.78717 0.66084 0.42707
 H1049 H 0.68699 0.58101 0.32457
 H1050 H 0.64792 0.60867 0.35710
 H1051 H 0.68517 0.52255 0.37157
 H1052 H 0.64635 0.55018 0.40441
 C1053 C 0.71999 0.08010 0.05978
 C1054 C 0.74594 0.04547 0.06383
 C1055 C 0.77299 0.04406 0.09848
 C1056 C 0.77005 0.07418 0.12999
 C1057 C 0.74127 0.10705 0.12632
 C1058 C 0.71810 0.11040 0.08979
 C1059 C 0.67250 0.11571 0.08384
 C1060 C 0.67469 0.08233 0.05080
 H1061 H 0.79588 0.01965 0.10134
 H1062 H 0.79020 0.07191 0.15703
 H1063 H 0.66440 0.14671 0.07108
 H1064 H 0.65473 0.10626 0.11159
 H1065 H 0.66792 0.09409 0.01898
 H1066 H 0.65830 0.05340 0.05934
 C1067 C 0.26001 0.53568 0.60292
 C1068 C 0.23901 0.53916 0.56488
 C1069 C 0.20920 0.57106 0.56064
 C1070 C 0.20561 0.60180 0.59108
 C1071 C 0.23087 0.60041 0.62683
 C1072 C 0.25546 0.56523 0.63353
 C1073 C 0.29995 0.56193 0.64638
 C1074 C 0.30487 0.52960 0.61258
 H1075 H 0.19076 0.57386 0.53245
 H1076 H 0.18439 0.62736 0.58594
 H1077 H 0.30378 0.54902 0.67819
 H1078 H 0.31745 0.59084 0.64048
 H1079 H 0.31160 0.49815 0.62502
 H1080 H 0.32506 0.53980 0.58686
 C1081 C 0.78385 0.95230 0.88042
 C1082 C 0.75475 0.94992 0.91217
 C1083 C 0.72542 0.91756 0.90931
 C1084 C 0.72987 0.88534 0.88041
 C1085 C 0.76295 0.88523 0.85257
 C1086 C 0.78744 0.92101 0.85089
 C1087 C 0.83345 0.92502 0.85032
 C1088 C 0.82939 0.95921 0.88241
 H1089 H 0.70079 0.91540 0.93166
 H1090 H 0.70813 0.85991 0.88066
 H1091 H 0.84467 0.93630 0.81989
 H1092 H 0.84952 0.89700 0.86257
 H1093 H 0.83799 0.99021 0.87034
 H1094 H 0.84314 0.95103 0.91317
 C1095 C 0.23391 0.40859 0.41422
 C1096 C 0.26097 0.44218 0.41664
 C1097 C 0.29052 0.44456 0.38456
 C1098 C 0.29257 0.41326 0.35334
 C1099 C 0.26585 0.37841 0.35418
 C1100 C 0.23671 0.37834 0.38527
 C1101 C 0.20268 0.35335 0.40290
 C1102 C 0.19946 0.38733 0.43609
 H1103 H 0.31292 0.46937 0.38448
 H1104 H 0.31593 0.41551 0.32968
 H1105 H 0.21384 0.32318 0.41538
 H1106 H 0.17533 0.35179 0.38169
 H1107 H 0.20832 0.37617 0.46759
 H1108 H 0.17010 0.40526 0.43424
 C1109 C 0.28655 0.89353 0.05816
 C1110 C 0.25234 0.91317 0.03949
 C1111 C 0.21330 0.90573 0.05714
 C1112 C 0.21006 0.88337 0.09469
 C1113 C 0.24581 0.86854 0.11545
 C1114 C 0.28308 0.87068 0.09425
 C1115 C 0.32526 0.88277 0.10908
 C1116 C 0.32925 0.90764 0.06917
 H1117 H 0.18584 0.92015 0.04391
 H1118 H 0.17994 0.87891 0.10821
 H1119 H 0.34671 0.85586 0.11082
 H1120 H 0.32448 0.90227 0.13745
 H1121 H 0.35276 0.89473 0.04789
 H1122 H 0.33172 0.94141 0.07472
 C1123 C 0.75651 0.39314 0.54710
 C1124 C 0.72428 0.42193 0.54509
 C1125 C 0.69652 0.42282 0.57876
 C1126 C 0.70518 0.40063 0.61555
 C1127 C 0.74101 0.37610 0.61886
 C1128 C 0.76420 0.37029 0.58285
 C1129 C 0.80994 0.37291 0.57756
 C1130 C 0.80146 0.39807 0.53848
 H1131 H 0.67036 0.44384 0.57814
 H1132 H 0.68439 0.40321 0.64150
 H1133 H 0.82397 0.34217 0.57124
 H1134 H 0.82544 0.39091 0.60266
 H1135 H 0.81062 0.38182 0.50966
 H1136 H 0.81190 0.43074 0.54090
 C1137 C 0.08976 0.08137 0.73121
 C1138 C 0.05386 0.08172 0.75518
 C1139 C 0.05196 0.11146 0.78713
 C1140 C 0.08352 0.14166 0.79158
 C1141 C 0.11836 0.14136 0.76541
 C1142 C 0.12131 0.10965 0.73654
 C1143 C 0.12907 0.11192 0.69104
 C1144 C 0.09426 0.08085 0.68526
 H1145 H 0.02646 0.11126 0.80856
 H1146 H 0.08086 0.16498 0.81547
 H1147 H 0.15994 0.09924 0.68300
 H1148 H 0.12186 0.14291 0.67769
 H1149 H 0.10508 0.05029 0.67388
 H1150 H 0.06671 0.09379 0.66870
 C1151 C 0.53902 0.61912 0.27458
 C1152 C 0.54527 0.58374 0.25035
 C1153 C 0.57963 0.58428 0.22360
 C1154 C 0.61001 0.61519 0.22677
 C1155 C 0.60632 0.64733 0.25581
 C1156 C 0.56857 0.65052 0.27678
 C1157 C 0.56031 0.65794 0.32162
 C1158 C 0.52826 0.62356 0.31915
 H1159 H 0.58483 0.55886 0.20245
 H1160 H 0.63724 0.61295 0.20767
 H1161 H 0.54649 0.68896 0.32703
 H1162 H 0.58726 0.65024 0.34195
 H1163 H 0.49603 0.63485 0.32314
 H1164 H 0.53678 0.59579 0.33784
 C1165 C 0.08381 0.92805 0.29398
 C1166 C 0.08090 0.95914 0.26341
 C1167 C 0.10051 0.95094 0.22541
 C1168 C 0.12389 0.91435 0.21994
 C1169 C 0.12646 0.88420 0.25164
 C1170 C 0.10519 0.89153 0.28807
 C1171 C 0.11964 0.88977 0.33218
 C1172 C 0.09594 0.92991 0.33877
 H1173 H 0.09657 0.97205 0.19953
 H1174 H 0.13984 0.90954 0.19101
 H1175 H 0.15375 0.89324 0.33551
 H1176 H 0.10629 0.86305 0.34906
 H1177 H 0.11624 0.95646 0.34657
 H1178 H 0.06884 0.92614 0.35929
 C1179 C 0.61469 0.46233 0.76300
 C1180 C 0.58289 0.46248 0.73324
 C1181 C 0.58213 0.42942 0.70443
 C1182 C 0.60744 0.39431 0.71029
 C1183 C 0.63506 0.39214 0.74423
 C1184 C 0.64065 0.42821 0.76786
 C1185 C 0.64207 0.43308 0.81392
 C1186 C 0.61354 0.47025 0.80850
 H1187 H 0.55864 0.42867 0.68014
 H1188 H 0.60433 0.36838 0.68932
 H1189 H 0.67350 0.44147 0.82544
 H1190 H 0.62746 0.40676 0.83040
 H1191 H 0.62852 0.50004 0.81690
 H1192 H 0.58229 0.46546 0.82168
 C1193 C 0.89281 0.04247 0.27565
 C1194 C 0.92514 0.04698 0.24749
 C1195 C 0.91959 0.07615 0.21521
 C1196 C 0.88597 0.10379 0.21541
 C1197 C 0.85670 0.10204 0.24725
 C1198 C 0.85895 0.06894 0.27515
 C1199 C 0.85650 0.06863 0.32138
 C1200 C 0.89360 0.03950 0.32178
 H1201 H 0.94267 0.07941 0.19139
 H1202 H 0.88397 0.12778 0.19193
 H1203 H 0.82767 0.05375 0.33232
 H1204 H 0.86327 0.09938 0.33528
 H1205 H 0.88605 0.00782 0.33275
 H1206 H 0.92196 0.05328 0.33585
 C1207 C 0.39340 0.54193 0.76445
 C1208 C 0.42605 0.54821 0.73703
 C1209 C 0.42065 0.57902 0.70628
 C1210 C 0.38694 0.60648 0.70760
 C1211 C 0.35740 0.60299 0.73902
 C1212 C 0.35947 0.56835 0.76502
 C1213 C 0.35643 0.56552 0.81111
 C1214 C 0.39354 0.53645 0.81036
 H1215 H 0.44395 0.58370 0.68293
 H1216 H 0.38506 0.63159 0.68532
 H1217 H 0.32746 0.55004 0.82083
 H1218 H 0.36300 0.59545 0.82677
 H1219 H 0.38573 0.50427 0.81948
 H1220 H 0.42171 0.54940 0.82558
 C1221 C 0.96257 0.89601 0.75764
 C1222 C 0.96148 0.93081 0.73193
 C1223 C 0.93104 0.93227 0.70007
 C1224 C 0.89867 0.90350 0.69925
 C1225 C 0.89732 0.87216 0.72936
 C1226 C 0.93169 0.86666 0.75566
 C1227 C 0.93365 0.85953 0.80143
 C1228 C 0.96745 0.89208 0.80353
 H1229 H 0.93012 0.95787 0.67833
 H1230 H 0.87402 0.90673 0.67637
 H1231 H 0.94508 0.82796 0.80924
 H1232 H 0.90475 0.86895 0.81715
 H1233 H 0.99817 0.87919 0.81272
 H1234 H 0.95809 0.92062 0.82021
 C1235 C 0.46125 0.39362 0.26641
 C1236 C 0.46046 0.42753 0.23942
 C1237 C 0.43179 0.42677 0.20595
 C1238 C 0.40092 0.39639 0.20389
 C1239 C 0.39901 0.36567 0.23462
 C1240 C 0.43160 0.36284 0.26356
 C1241 C 0.43020 0.35804 0.30962
 C1242 C 0.46276 0.39182 0.31260
 H1243 H 0.43108 0.45169 0.18343
 H1244 H 0.37759 0.39797 0.17949
 H1245 H 0.44180 0.32727 0.32006
 H1246 H 0.39982 0.36735 0.32246
 H1247 H 0.49316 0.38044 0.32454
 H1248 H 0.45130 0.42073 0.32720
   
