data_POSCAR
  _audit_creation_date              2014-09-24
  _audit_creation_method            'ToBaCCo'
  _symmetry_space_group_name_H-M    'P1'
  _symmetry_Int_Tables_number       1
  _symmetry_cell_setting            triclinic
  loop_
  _symmetry_equiv_pos_as_xyz
 x,y,z
_cell_length_a 90.8288
_cell_length_b 90.9263
_cell_length_c 91.2719
_cell_angle_alpha 89.957600
_cell_angle_beta 89.945300
_cell_angle_gamma 89.922600
loop_
  _atom_site_label
  _atom_site_type_symbol
  _atom_site_fract_x
  _atom_site_fract_y
  _atom_site_fract_z
N1 N 0.35658 0.31580 0.32638
 N2 N 0.35638 0.32612 0.31626
 C3 C 0.36823 0.32450 0.30750
 C4 C 0.37617 0.31256 0.31246
 C5 C 0.36854 0.30725 0.32439
 H6 H 0.37106 0.33158 0.29839
 H7 H 0.37161 0.29806 0.33125
 Cu8 Cu 0.34112 0.34114 0.31632
 Cu9 Cu 0.34185 0.31470 0.34192
 Cu10 Cu 0.31493 0.34189 0.34212
 N11 N 0.32623 0.35652 0.31646
 N12 N 0.31598 0.35672 0.32666
 C13 C 0.30742 0.36867 0.32473
 C14 C 0.31266 0.37630 0.31277
 C15 C 0.32455 0.36836 0.30771
 H16 H 0.29823 0.37170 0.33163
 H17 H 0.33154 0.37114 0.29852
 N18 N 0.31575 0.32594 0.35679
 N19 N 0.32598 0.31558 0.35668
 C20 C 0.32414 0.30689 0.36850
 C21 C 0.31227 0.31207 0.37633
 C22 C 0.30715 0.32409 0.36869
 H23 H 0.33112 0.29771 0.37145
 H24 H 0.29808 0.33114 0.37181
 H25 H 0.32501 0.32494 0.33050
 H26 H 0.33695 0.33666 0.34225
 N27 N 0.35697 0.81601 -0.17391
 N28 N 0.35681 0.82637 -0.18399
 C29 C 0.36857 0.82461 -0.19284
 C30 C 0.37644 0.81260 -0.18793
 C31 C 0.36885 0.80735 -0.17594
 H32 H 0.37134 0.83163 -0.20200
 H33 H 0.37187 0.79810 -0.16909
 Cu34 Cu 0.34169 0.84158 -0.18402
 Cu35 Cu 0.34222 0.81501 -0.15842
 Cu36 Cu 0.31520 0.84209 -0.15828
 N37 N 0.32648 0.85669 -0.18389
 N38 N 0.31618 0.85684 -0.17374
 C39 C 0.30747 0.86868 -0.17573
 C40 C 0.31262 0.87624 -0.18777
 C41 C 0.32462 0.86841 -0.19276
 H42 H 0.29822 0.87165 -0.16884
 H43 H 0.33153 0.87113 -0.20202
 N44 N 0.31616 0.82625 -0.14353
 N45 N 0.32640 0.81591 -0.14362
 C46 C 0.32458 0.80724 -0.13177
 C47 C 0.31270 0.81244 -0.12394
 C48 C 0.30757 0.82443 -0.13161
 H49 H 0.33153 0.79804 -0.12883
 H50 H 0.29849 0.83147 -0.12852
 H51 H 0.32533 0.82527 -0.17007
 H52 H 0.33710 0.83697 -0.15815
 N53 N 0.85636 0.31642 -0.17404
 N54 N 0.85606 0.32658 -0.18431
 C55 C 0.86776 0.32474 -0.19322
 C56 C 0.87576 0.31290 -0.18813
 C57 C 0.86828 0.30782 -0.17601
 H58 H 0.87050 0.33170 -0.20244
 H59 H 0.87147 0.29877 -0.16898
 Cu60 Cu 0.84116 0.34197 -0.18426
 Cu61 Cu 0.84183 0.31566 -0.15831
 Cu62 Cu 0.81482 0.34260 -0.15828
 N63 N 0.82575 0.35685 -0.18428
 N64 N 0.81556 0.35711 -0.17401
 C65 C 0.80696 0.36904 -0.17594
 C66 C 0.81208 0.37653 -0.18803
 C67 C 0.82394 0.36857 -0.19315
 H68 H 0.79792 0.37221 -0.16888
 H69 H 0.83095 0.37135 -0.20233
 N70 N 0.81595 0.32701 -0.14331
 N71 N 0.82624 0.31674 -0.14334
 C72 C 0.82438 0.30802 -0.13154
 C73 C 0.81240 0.31312 -0.12380
 C74 C 0.80726 0.32511 -0.13148
 H75 H 0.83128 0.29876 -0.12867
 H76 H 0.79799 0.33198 -0.12856
 H77 H 0.82511 0.32593 -0.16998
 H78 H 0.83699 0.33783 -0.15821
 N79 N 0.85635 0.81615 0.32615
 N80 N 0.85612 0.82644 0.31599
 C81 C 0.86789 0.82471 0.30715
 C82 C 0.87585 0.81279 0.31213
 C83 C 0.86830 0.80760 0.32416
 H84 H 0.87066 0.83169 0.29794
 H85 H 0.87150 0.79857 0.33119
 Cu86 Cu 0.84092 0.84154 0.31614
 Cu87 Cu 0.84170 0.81515 0.34177
 Cu88 Cu 0.81484 0.84242 0.34210
 N89 N 0.82605 0.85694 0.31635
 N90 N 0.81586 0.85720 0.32662
 C91 C 0.80730 0.86915 0.32472
 C92 C 0.81244 0.87667 0.31266
 C93 C 0.82428 0.86871 0.30752
 H94 H 0.79823 0.87228 0.33174
 H95 H 0.83111 0.87137 0.29817
 N96 N 0.81574 0.82652 0.35680
 N97 N 0.82595 0.81614 0.35666
 C98 C 0.82408 0.80740 0.36844
 C99 C 0.81219 0.81257 0.37627
 C100 C 0.80710 0.82462 0.36867
 H101 H 0.83100 0.79816 0.37130
 H102 H 0.79798 0.83163 0.37173
 H103 H 0.82481 0.82554 0.33035
 H104 H 0.83688 0.83724 0.34209
 N105 N 0.64323 0.68382 0.32701
 N106 N 0.64343 0.67356 0.31685
 C107 C 0.63162 0.67528 0.30809
 C108 C 0.62371 0.68720 0.31311
 C109 C 0.63132 0.69242 0.32506
 H110 H 0.62888 0.66835 0.29888
 H111 H 0.62836 0.70170 0.33188
 Cu112 Cu 0.65873 0.65859 0.31674
 Cu113 Cu 0.65808 0.68495 0.34241
 Cu114 Cu 0.68543 0.65822 0.34211
 N115 N 0.67409 0.64369 0.31644
 N116 N 0.68447 0.64355 0.32650
 C117 C 0.69311 0.63166 0.32447
 C118 C 0.68780 0.62404 0.31255
 C119 C 0.67578 0.63189 0.30768
 H120 H 0.70233 0.62861 0.33133
 H121 H 0.66863 0.62899 0.29868
 N122 N 0.68441 0.67397 0.35696
 N123 N 0.67402 0.68416 0.35702
 C124 C 0.67585 0.69283 0.36884
 C125 C 0.68788 0.68780 0.37651
 C126 C 0.69311 0.67589 0.36876
 H127 H 0.66879 0.70193 0.37185
 H128 H 0.70233 0.66898 0.37172
 H129 H 0.67484 0.67486 0.33059
 H130 H 0.66324 0.66284 0.34261
 N131 N 0.64321 0.18321 -0.17306
 N132 N 0.64363 0.17318 -0.18343
 C133 C 0.63185 0.17490 -0.19223
 C134 C 0.62365 0.18650 -0.18694
 C135 C 0.63111 0.19158 -0.17484
 H136 H 0.62930 0.16817 -0.20166
 H137 H 0.62791 0.20062 -0.16783
 Cu138 Cu 0.65895 0.15824 -0.18389
 Cu139 Cu 0.65810 0.18438 -0.15779
 Cu140 Cu 0.68511 0.15744 -0.15768
 N141 N 0.67394 0.14298 -0.18338
 N142 N 0.68397 0.14256 -0.17299
 C143 C 0.69241 0.13051 -0.17480
 C144 C 0.68733 0.12309 -0.18693
 C145 C 0.67571 0.13124 -0.19222
 H146 H 0.70147 0.12734 -0.16779
 H147 H 0.66898 0.12869 -0.20165
 N148 N 0.68434 0.17345 -0.14314
 N149 N 0.67404 0.18373 -0.14321
 C150 C 0.67598 0.19257 -0.13153
 C151 C 0.68801 0.18757 -0.12383
 C152 C 0.69311 0.17550 -0.13141
 H153 H 0.66897 0.20174 -0.12861
 H154 H 0.70229 0.16856 -0.12839
 H155 H 0.67504 0.17413 -0.16945
 H156 H 0.66303 0.16217 -0.15784
 N157 N 0.14332 0.68386 -0.17301
 N158 N 0.14334 0.67343 -0.18300
 C159 C 0.13152 0.67514 -0.19174
 C160 C 0.12376 0.68721 -0.18689
 C161 C 0.13148 0.69256 -0.17506
 H162 H 0.12867 0.66807 -0.20082
 H163 H 0.12858 0.70195 -0.16836
 Cu164 Cu 0.15839 0.65822 -0.18319
 Cu165 Cu 0.15815 0.68490 -0.15763
 Cu166 Cu 0.18516 0.65799 -0.15766
 N167 N 0.17362 0.64321 -0.18302
 N168 N 0.18409 0.64318 -0.17307
 C169 C 0.19280 0.63135 -0.17515
 C170 C 0.18741 0.62365 -0.18698
 C171 C 0.17530 0.63140 -0.19176
 H172 H 0.20218 0.62843 -0.16845
 H173 H 0.16817 0.62852 -0.20080
 N174 N 0.18432 0.67384 -0.14298
 N175 N 0.17400 0.68409 -0.14296
 C176 C 0.17590 0.69283 -0.13119
 C177 C 0.18794 0.68777 -0.12352
 C178 C 0.19307 0.67579 -0.13122
 H179 H 0.16890 0.70198 -0.12822
 H180 H 0.20228 0.66885 -0.12828
 H181 H 0.17469 0.67442 -0.16946
 H182 H 0.16299 0.66269 -0.15733
 N183 N 0.14318 0.18367 0.32699
 N184 N 0.14338 0.17339 0.31685
 C185 C 0.13156 0.17509 0.30809
 C186 C 0.12366 0.18702 0.31306
 C187 C 0.13127 0.19227 0.32501
 H188 H 0.12886 0.16817 0.29885
 H189 H 0.12833 0.20160 0.33175
 Cu190 Cu 0.15875 0.15851 0.31647
 Cu191 Cu 0.15807 0.18482 0.34229
 Cu192 Cu 0.18553 0.15824 0.34190
 N193 N 0.17422 0.14373 0.31628
 N194 N 0.18463 0.14363 0.32630
 C195 C 0.19331 0.13178 0.32423
 C196 C 0.18799 0.12415 0.31232
 C197 C 0.17592 0.13195 0.30750
 H198 H 0.20254 0.12873 0.33106
 H199 H 0.16873 0.12902 0.29853
 N200 N 0.18445 0.17393 0.35677
 N201 N 0.17406 0.18411 0.35684
 C202 C 0.17592 0.19280 0.36864
 C203 C 0.18794 0.18775 0.37631
 C204 C 0.19315 0.17584 0.36857
 H205 H 0.16887 0.20191 0.37165
 H206 H 0.20236 0.16890 0.37154
 H207 H 0.17490 0.17484 0.33040
 H208 H 0.16343 0.16275 0.34237
 N209 N 0.64295 0.31677 0.67313
 N210 N 0.64321 0.32695 0.68336
 C211 C 0.63142 0.32523 0.69219
 C212 C 0.62347 0.31338 0.68713
 C213 C 0.63101 0.30823 0.67508
 H214 H 0.62881 0.33198 0.70160
 H215 H 0.62791 0.29912 0.66813
 Cu216 Cu 0.65876 0.34161 0.68355
 Cu217 Cu 0.65775 0.31564 0.65765
 Cu218 Cu 0.68513 0.34231 0.65787
 N219 N 0.67375 0.35683 0.68360
 N220 N 0.68410 0.35697 0.67350
 C221 C 0.69274 0.36882 0.67555
 C222 C 0.68749 0.37640 0.68754
 C223 C 0.67545 0.36860 0.69242
 H224 H 0.70188 0.37192 0.66861
 H225 H 0.66844 0.37140 0.70159
 N226 N 0.68403 0.32660 0.64298
 N227 N 0.67360 0.31647 0.64291
 C228 C 0.67543 0.30778 0.63110
 C229 C 0.68754 0.31271 0.62346
 C230 C 0.69278 0.32459 0.63121
 H231 H 0.66841 0.29866 0.62814
 H232 H 0.70214 0.33134 0.62835
 H233 H 0.67467 0.32564 0.66921
 H234 H 0.66292 0.33781 0.65755
 N235 N 0.64335 0.81586 1.17387
 N236 N 0.64352 0.82620 1.18395
 C237 C 0.63170 0.82453 1.19275
 C238 C 0.62384 0.81254 1.18784
 C239 C 0.63147 0.80726 1.17590
 H240 H 0.62882 0.83168 1.20176
 H241 H 0.62839 0.79809 1.16899
 Cu242 Cu 0.65841 0.84160 1.18378
 Cu243 Cu 0.65784 0.81505 1.15816
 Cu244 Cu 0.68451 0.84235 1.15767
 N245 N 0.67342 0.85686 1.18336
 N246 N 0.68362 0.85709 1.17311
 C247 C 0.69227 0.86894 1.17505
 C248 C 0.68714 0.87651 1.18709
 C249 C 0.67520 0.86863 1.19215
 H250 H 0.70153 0.87190 1.16818
 H251 H 0.66831 0.87134 1.20143
 N252 N 0.68360 0.82651 1.14296
 N253 N 0.67343 0.81613 1.14313
 C254 C 0.67535 0.80738 1.13137
 C255 C 0.68722 0.81255 1.12353
 C256 C 0.69227 0.82460 1.13112
 H257 H 0.66852 0.79806 1.12857
 H258 H 0.70145 0.83153 1.12809
 H259 H 0.67465 0.82550 1.16948
 H260 H 0.66248 0.83714 1.15779
 N261 N 0.14308 0.31610 1.17365
 N262 N 0.14348 0.32611 1.18405
 C263 C 0.13170 0.32435 1.19287
 C264 C 0.12355 0.31272 1.18761
 C265 C 0.13102 0.30769 1.17546
 H266 H 0.12904 0.33118 1.20220
 H267 H 0.12775 0.29879 1.16832
 Cu268 Cu 0.15871 0.34117 1.18444
 Cu269 Cu 0.15768 0.31523 1.15805
 Cu270 Cu 0.18438 0.34237 1.15775
 N271 N 0.17357 0.35660 1.18376
 N272 N 0.18347 0.35707 1.17324
 C273 C 0.19186 0.36915 1.17497
 C274 C 0.18692 0.37656 1.18718
 C275 C 0.17537 0.36835 1.19258
 H276 H 0.20078 0.37238 1.16781
 H277 H 0.16871 0.37088 1.20208
 N278 N 0.18351 0.32658 1.14301
 N279 N 0.17335 0.31620 1.14315
 C280 C 0.17534 0.30739 1.13145
 C281 C 0.18726 0.31253 1.12366
 C282 C 0.19223 0.32465 1.13121
 H283 H 0.16853 0.29806 1.12866
 H284 H 0.20138 0.33162 1.12818
 H285 H 0.17453 0.32544 1.16951
 H286 H 0.16220 0.33744 1.15824
 N287 N 0.14297 0.81636 0.67321
 N288 N 0.14340 0.82637 0.68360
 C289 C 0.13167 0.82460 0.69247
 C290 C 0.12352 0.81295 0.68726
 C291 C 0.13094 0.80792 0.67508
 H292 H 0.12912 0.83134 0.70190
 H293 H 0.12768 0.79895 0.66801
 Cu294 Cu 0.15874 0.84129 0.68419
 Cu295 Cu 0.15762 0.81546 0.65766
 Cu296 Cu 0.18439 0.84250 0.65740
 N297 N 0.17352 0.85677 0.68332
 N298 N 0.18345 0.85721 0.67283
 C299 C 0.19192 0.86922 0.67463
 C300 C 0.18697 0.87663 0.68684
 C301 C 0.17536 0.86848 0.69217
 H302 H 0.20094 0.87239 0.66755
 H303 H 0.16875 0.87096 0.70172
 N304 N 0.18352 0.82671 0.64271
 N305 N 0.17332 0.81637 0.64281
 C306 C 0.17534 0.80754 0.63113
 C307 C 0.18731 0.81264 0.62339
 C308 C 0.19231 0.82472 0.63097
 H309 H 0.16853 0.79821 0.62833
 H310 H 0.20155 0.83161 0.62805
 H311 H 0.17461 0.82552 0.66918
 H312 H 0.16227 0.83760 0.65803
 N313 N 0.35672 0.68368 0.67318
 N314 N 0.35631 0.67362 0.68355
 C315 C 0.36813 0.67527 0.69231
 C316 C 0.37628 0.68691 0.68707
 C317 C 0.36880 0.69205 0.67499
 H318 H 0.37070 0.66848 0.70170
 H319 H 0.37198 0.70111 0.66798
 Cu320 Cu 0.34086 0.65886 0.68433
 Cu321 Cu 0.34190 0.68478 0.65785
 Cu322 Cu 0.31485 0.65797 0.65795
 N323 N 0.32595 0.64355 0.68369
 N324 N 0.31586 0.64318 0.67337
 C325 C 0.30750 0.63108 0.67518
 C326 C 0.31268 0.62357 0.68725
 C327 C 0.32433 0.63172 0.69244
 H328 H 0.29851 0.62785 0.66813
 H329 H 0.33123 0.62907 0.70174
 N330 N 0.31570 0.67381 0.64324
 N331 N 0.32601 0.68405 0.64323
 C332 C 0.32415 0.69276 0.63142
 C333 C 0.31217 0.68771 0.62371
 C334 C 0.30702 0.67574 0.63141
 H335 H 0.33119 0.70187 0.62843
 H336 H 0.29788 0.66876 0.62840
 H337 H 0.32503 0.67477 0.66953
 H338 H 0.33708 0.66259 0.65815
 N339 N 0.35659 0.18420 1.17357
 N340 N 0.35633 0.17393 1.18374
 C341 C 0.36815 0.17554 1.19250
 C342 C 0.37617 0.18735 1.18745
 C343 C 0.36861 0.19263 1.17547
 H344 H 0.37093 0.16850 1.20165
 H345 H 0.37181 0.20169 1.16847
 Cu346 Cu 0.34113 0.15892 1.18371
 Cu347 Cu 0.34184 0.18532 1.15806
 Cu348 Cu 0.31488 0.15821 1.15796
 N349 N 0.32619 0.14364 1.18364
 N350 N 0.31597 0.14336 1.17344
 C351 C 0.30753 0.13133 1.17535
 C352 C 0.31277 0.12379 1.18739
 C353 C 0.32456 0.13184 1.19244
 H354 H 0.29844 0.12816 1.16839
 H355 H 0.33151 0.12914 1.20167
 N356 N 0.31576 0.17413 1.14325
 N357 N 0.32602 0.18444 1.14330
 C358 C 0.32419 0.19313 1.13148
 C359 C 0.31227 0.18800 1.12370
 C360 C 0.30715 0.17601 1.13138
 H361 H 0.33118 0.20228 1.12852
 H362 H 0.29806 0.16899 1.12832
 H363 H 0.32499 0.17511 1.16962
 H364 H 0.33690 0.16332 1.15779
 N365 N 0.85682 0.68382 1.17312
 N366 N 0.85667 0.67350 1.18324
 C367 C 0.86852 0.67511 1.19194
 C368 C 0.87643 0.68702 1.18695
 C369 C 0.86877 0.69236 1.17506
 H370 H 0.87130 0.66813 1.20114
 H371 H 0.87174 0.70164 1.16826
 Cu372 Cu 0.84137 0.65858 1.18334
 Cu373 Cu 0.84194 0.68504 1.15774
 Cu374 Cu 0.81482 0.65814 1.15788
 N375 N 0.82634 0.64342 1.18339
 N376 N 0.81598 0.64327 1.17331
 C377 C 0.80746 0.63131 1.17529
 C378 C 0.81281 0.62368 1.18721
 C379 C 0.82473 0.63159 1.19215
 H380 H 0.79824 0.62826 1.16844
 H381 H 0.83177 0.62880 1.20128
 N382 N 0.81568 0.67404 1.14317
 N383 N 0.82596 0.68431 1.14317
 C384 C 0.82405 0.69306 1.13141
 C385 C 0.81210 0.68796 1.12368
 C386 C 0.80701 0.67594 1.13133
 H387 H 0.83101 0.70223 1.12845
 H388 H 0.79792 0.66892 1.12828
 H389 H 0.82520 0.67496 1.16957
 H390 H 0.83683 0.66306 1.15754
 N391 N 0.85687 0.18356 0.67298
 N392 N 0.85636 0.17364 0.68346
 C393 C 0.86815 0.17533 0.69225
 C394 C 0.87642 0.18683 0.68688
 C395 C 0.86900 0.19188 0.67472
 H396 H 0.87065 0.16861 0.70171
 H397 H 0.87228 0.20082 0.66762
 Cu398 Cu 0.84087 0.15891 0.68430
 Cu399 Cu 0.84214 0.18457 0.65756
 Cu400 Cu 0.81507 0.15783 0.65770
 N401 N 0.82599 0.14356 0.68362
 N402 N 0.81599 0.14311 0.67320
 C403 C 0.80765 0.13099 0.67500
 C404 C 0.81275 0.12355 0.68715
 C405 C 0.82432 0.13176 0.69241
 H406 H 0.79873 0.12770 0.66789
 H407 H 0.83115 0.12919 0.70177
 N408 N 0.81601 0.17358 0.64290
 N409 N 0.82635 0.18378 0.64286
 C410 C 0.82450 0.19250 0.63106
 C411 C 0.81250 0.18747 0.62337
 C412 C 0.80732 0.17552 0.63109
 H413 H 0.83149 0.20166 0.62811
 H414 H 0.79811 0.16862 0.62814
 H415 H 0.82515 0.17478 0.66930
 H416 H 0.83726 0.16246 0.65813
 N417 N 0.31550 0.35653 0.67356
 N418 N 0.32570 0.35625 0.68380
 C419 C 0.32394 0.36799 0.69264
 C420 C 0.31206 0.37595 0.68760
 C421 C 0.30695 0.36848 0.67551
 H422 H 0.33086 0.37071 0.70188
 H423 H 0.29799 0.37174 0.66841
 Cu424 Cu 0.34068 0.34100 0.68377
 Cu425 Cu 0.31471 0.34204 0.65778
 Cu426 Cu 0.34212 0.31531 0.65758
 N427 N 0.35627 0.32634 0.68360
 N428 N 0.35673 0.31629 0.67324
 C429 C 0.36876 0.30783 0.67515
 C430 C 0.37612 0.31287 0.68735
 C431 C 0.36798 0.32458 0.69250
 H432 H 0.37205 0.29889 0.66806
 H433 H 0.37047 0.33128 0.70196
 N434 N 0.32641 0.31631 0.64272
 N435 N 0.31597 0.32646 0.64279
 C436 C 0.30726 0.32451 0.63101
 C437 C 0.31254 0.31265 0.62324
 C438 C 0.32461 0.30764 0.63089
 H439 H 0.29789 0.33128 0.62819
 H440 H 0.33161 0.29848 0.62797
 H441 H 0.32504 0.32517 0.66908
 H442 H 0.33695 0.33748 0.65772
 N443 N 0.31592 0.85678 0.17347
 N444 N 0.32598 0.85634 0.18383
 C445 C 0.32433 0.86815 0.19260
 C446 C 0.31266 0.87632 0.18738
 C447 C 0.30752 0.86885 0.17530
 H448 H 0.33128 0.87081 0.20184
 H449 H 0.29854 0.87212 0.16823
 Cu450 Cu 0.34086 0.84095 0.18391
 Cu451 Cu 0.31505 0.84222 0.15776
 Cu452 Cu 0.34205 0.81510 0.15782
 N453 N 0.35621 0.82604 0.18388
 N454 N 0.35661 0.81595 0.17355
 C455 C 0.36869 0.80754 0.17541
 C456 C 0.37618 0.81271 0.18746
 C457 C 0.36804 0.82440 0.19264
 H458 H 0.37194 0.79854 0.16836
 H459 H 0.37073 0.83138 0.20184
 N460 N 0.32639 0.81622 0.14288
 N461 N 0.31613 0.82654 0.14287
 C462 C 0.30746 0.82471 0.13104
 C463 C 0.31257 0.81275 0.12332
 C464 C 0.32452 0.80757 0.13104
 H465 H 0.29825 0.83167 0.12811
 H466 H 0.33143 0.79834 0.12809
 H467 H 0.32505 0.82521 0.16907
 H468 H 0.33719 0.83723 0.15778
 N469 N 0.81595 0.35696 0.17326
 N470 N 0.82630 0.35680 0.18334
 C471 C 0.82458 0.36853 0.19219
 C472 C 0.81255 0.37639 0.18733
 C473 C 0.80733 0.36884 0.17533
 H474 H 0.83158 0.37124 0.20139
 H475 H 0.79821 0.37198 0.16838
 Cu476 Cu 0.84096 0.34123 0.18352
 Cu477 Cu 0.81502 0.34233 0.15764
 Cu478 Cu 0.84213 0.31513 0.15778
 N479 N 0.85651 0.32654 0.18346
 N480 N 0.85673 0.31614 0.17344
 C481 C 0.86865 0.30757 0.17557
 C482 C 0.87614 0.31286 0.18758
 C483 C 0.86823 0.32488 0.19236
 H484 H 0.87185 0.29847 0.16864
 H485 H 0.87090 0.33191 0.20153
 N486 N 0.82643 0.31626 0.14287
 N487 N 0.81616 0.32658 0.14282
 C488 C 0.80759 0.32480 0.13092
 C489 C 0.81277 0.31288 0.12320
 C490 C 0.82466 0.30767 0.13098
 H491 H 0.79842 0.33177 0.12793
 H492 H 0.83164 0.29849 0.12803
 H493 H 0.82501 0.32524 0.16920
 H494 H 0.83708 0.33712 0.15759
 N495 N 0.81621 0.85726 0.67312
 N496 N 0.82646 0.85700 0.68328
 C497 C 0.82470 0.86875 0.69214
 C498 C 0.81276 0.87668 0.68717
 C499 C 0.80759 0.86915 0.67513
 H500 H 0.83167 0.87147 0.70134
 H501 H 0.79839 0.87221 0.66826
 Cu502 Cu 0.84159 0.84182 0.68344
 Cu503 Cu 0.81543 0.84266 0.65756
 Cu504 Cu 0.84243 0.81544 0.65770
 N505 N 0.85668 0.82660 0.68344
 N506 N 0.85694 0.81627 0.67337
 C507 C 0.86888 0.80770 0.67544
 C508 C 0.87642 0.81301 0.68741
 C509 C 0.86847 0.82497 0.69227
 H510 H 0.87200 0.79850 0.66859
 H511 H 0.87125 0.83210 0.70133
 N512 N 0.82676 0.81661 0.64275
 N513 N 0.81655 0.82698 0.64268
 C514 C 0.80786 0.82511 0.63087
 C515 C 0.81288 0.81305 0.62326
 C516 C 0.82479 0.80785 0.63101
 H517 H 0.79861 0.83200 0.62794
 H518 H 0.83151 0.79844 0.62822
 H519 H 0.82557 0.82567 0.66901
 H520 H 0.83753 0.83753 0.65738
 N521 N 0.68414 0.64326 0.67353
 N522 N 0.67379 0.64347 0.68366
 C523 C 0.67538 0.63162 0.69238
 C524 C 0.68730 0.62366 0.68743
 C525 C 0.69264 0.63127 0.67549
 H526 H 0.66831 0.62884 0.70151
 H527 H 0.70178 0.62812 0.66857
 Cu528 Cu 0.65883 0.65875 0.68363
 Cu529 Cu 0.68524 0.65805 0.65802
 Cu530 Cu 0.65809 0.68504 0.65794
 N531 N 0.64347 0.67364 0.68357
 N532 N 0.64325 0.68393 0.67342
 C533 C 0.63127 0.69246 0.67538
 C534 C 0.62366 0.68717 0.68734
 C535 C 0.63163 0.67527 0.69232
 H536 H 0.62814 0.70161 0.66848
 H537 H 0.62888 0.66827 0.70150
 N538 N 0.67401 0.68417 0.64325
 N539 N 0.68433 0.67390 0.64327
 C540 C 0.69303 0.67579 0.63145
 C541 C 0.68790 0.68776 0.62374
 C542 C 0.67589 0.69285 0.63143
 H543 H 0.70220 0.66881 0.62847
 H544 H 0.66888 0.70198 0.62842
 H545 H 0.67488 0.67483 0.66951
 H546 H 0.66312 0.66295 0.65768
 N547 N 0.68423 0.14292 0.17329
 N548 N 0.67430 0.14348 0.18378
 C549 C 0.67599 0.13172 0.19262
 C550 C 0.68749 0.12342 0.18729
 C551 C 0.69255 0.13078 0.17509
 H552 H 0.66916 0.12917 0.20199
 H553 H 0.70144 0.12742 0.16794
 Cu554 Cu 0.65930 0.15875 0.18434
 Cu555 Cu 0.68505 0.15747 0.15765
 Cu556 Cu 0.65789 0.18426 0.15756
 N557 N 0.64378 0.17351 0.18358
 N558 N 0.64321 0.18337 0.17305
 C559 C 0.63106 0.19170 0.17481
 C560 C 0.62369 0.18671 0.18703
 C561 C 0.63200 0.17524 0.19241
 H562 H 0.62777 0.20063 0.16769
 H563 H 0.62952 0.16856 0.20191
 N564 N 0.67365 0.18338 0.14277
 N565 N 0.68399 0.17315 0.14277
 C566 C 0.69275 0.17515 0.13101
 C567 C 0.68761 0.18716 0.12335
 C568 C 0.67556 0.19217 0.13103
 H569 H 0.70207 0.16833 0.12812
 H570 H 0.66863 0.20140 0.12815
 H571 H 0.67507 0.17440 0.16917
 H572 H 0.66293 0.16207 0.15813
 N573 N 0.18384 0.64304 0.17294
 N574 N 0.17383 0.64352 0.18336
 C575 C 0.17554 0.63175 0.19220
 C576 C 0.18708 0.62349 0.18685
 C577 C 0.19217 0.63091 0.17471
 H578 H 0.16869 0.62916 0.20156
 H579 H 0.20111 0.62760 0.16759
 Cu580 Cu 0.15870 0.65867 0.18344
 Cu581 Cu 0.18497 0.65782 0.15748
 Cu582 Cu 0.15784 0.68473 0.15731
 N583 N 0.14346 0.67372 0.18319
 N584 N 0.14298 0.68362 0.17268
 C585 C 0.13084 0.69197 0.17438
 C586 C 0.12341 0.68698 0.18656
 C587 C 0.13170 0.67552 0.19203
 H588 H 0.12760 0.70089 0.16723
 H589 H 0.12916 0.66883 0.20150
 N590 N 0.17377 0.68390 0.14270
 N591 N 0.18413 0.67368 0.14274
 C592 C 0.19298 0.67575 0.13105
 C593 C 0.18789 0.68780 0.12341
 C594 C 0.17575 0.69273 0.13100
 H595 H 0.20227 0.66887 0.12816
 H596 H 0.16873 0.70188 0.12805
 H597 H 0.17447 0.67446 0.16889
 H598 H 0.16260 0.66243 0.15723
 N599 N 0.18401 0.14274 0.67324
 N600 N 0.17390 0.14312 0.68357
 C601 C 0.17558 0.13132 0.69236
 C602 C 0.18727 0.12318 0.68718
 C603 C 0.19242 0.13066 0.67508
 H604 H 0.16872 0.12871 0.70169
 H605 H 0.20142 0.12740 0.66802
 Cu606 Cu 0.15897 0.15844 0.68427
 Cu607 Cu 0.18501 0.15755 0.65782
 Cu608 Cu 0.15793 0.18432 0.65772
 N609 N 0.14345 0.17317 0.68341
 N610 N 0.14306 0.18321 0.67304
 C611 C 0.13095 0.19160 0.67481
 C612 C 0.12346 0.18649 0.68691
 C613 C 0.13162 0.17486 0.69217
 H614 H 0.12775 0.20063 0.66778
 H615 H 0.12908 0.16814 0.70162
 N616 N 0.17382 0.18361 0.64310
 N617 N 0.18416 0.17338 0.64310
 C618 C 0.19286 0.17533 0.63128
 C619 C 0.18768 0.18731 0.62360
 C620 C 0.17567 0.19234 0.63131
 H621 H 0.20206 0.16840 0.62829
 H622 H 0.16862 0.20147 0.62835
 H623 H 0.17481 0.17435 0.66948
 H624 H 0.16281 0.16216 0.65811
 N625 N 0.31589 0.64311 0.32643
 N626 N 0.32636 0.64316 0.31645
 C627 C 0.32474 0.63133 0.30772
 C628 C 0.31268 0.62355 0.31256
 C629 C 0.30728 0.63124 0.32440
 H630 H 0.33189 0.62843 0.29869
 H631 H 0.29797 0.62827 0.33118
 Cu632 Cu 0.34158 0.65815 0.31635
 Cu633 Cu 0.31471 0.65792 0.34185
 Cu634 Cu 0.34174 0.68479 0.34195
 N635 N 0.35665 0.67332 0.31657
 N636 N 0.35664 0.68369 0.32662
 C637 C 0.36850 0.69233 0.32467
 C638 C 0.37627 0.68704 0.31283
 C639 C 0.36852 0.67503 0.30787
 H640 H 0.37140 0.70162 0.33148
 H641 H 0.37145 0.66800 0.29877
 N642 N 0.32582 0.68401 0.35655
 N643 N 0.31549 0.67379 0.35652
 C644 C 0.30678 0.67571 0.36833
 C645 C 0.31194 0.68764 0.37605
 C646 C 0.32396 0.69269 0.36836
 H647 H 0.29761 0.66874 0.37130
 H648 H 0.33103 0.70176 0.37137
 H649 H 0.32520 0.67439 0.33004
 H650 H 0.33688 0.66259 0.34220
 N651 N 0.31607 0.14286 0.82703
 N652 N 0.32610 0.14329 0.81664
 C653 C 0.32447 0.13150 0.80787
 C654 C 0.31287 0.12331 0.81314
 C655 C 0.30773 0.13075 0.82525
 H656 H 0.33125 0.12894 0.79847
 H657 H 0.29871 0.12752 0.83229
 Cu658 Cu 0.34086 0.15872 0.81579
 Cu659 Cu 0.31491 0.15767 0.84236
 Cu660 Cu 0.34186 0.18450 0.84241
 N661 N 0.35634 0.17342 0.81669
 N662 N 0.35676 0.18339 0.82712
 C663 C 0.36889 0.19172 0.82537
 C664 C 0.37638 0.18664 0.81325
 C665 C 0.36817 0.17509 0.80794
 H666 H 0.37209 0.20073 0.83241
 H667 H 0.37071 0.16840 0.79847
 N668 N 0.32593 0.18377 0.85700
 N669 N 0.31563 0.17353 0.85698
 C670 C 0.30686 0.17547 0.86874
 C671 C 0.31196 0.18744 0.87643
 C672 C 0.32399 0.19250 0.86877
 H673 H 0.29767 0.16852 0.87170
 H674 H 0.33099 0.20163 0.87175
 H675 H 0.32497 0.17456 0.83064
 H676 H 0.33711 0.16233 0.84191
 N677 N 0.81583 0.64302 0.82667
 N678 N 0.82631 0.64309 0.81671
 C679 C 0.82465 0.63130 0.80791
 C680 C 0.81255 0.62355 0.81270
 C681 C 0.80717 0.63120 0.82458
 H682 H 0.83178 0.62843 0.79886
 H683 H 0.79784 0.62822 0.83134
 Cu684 Cu 0.84145 0.65814 0.81685
 Cu685 Cu 0.81478 0.65775 0.84219
 Cu686 Cu 0.84204 0.68457 0.84240
 N687 N 0.85684 0.67294 0.81703
 N688 N 0.85692 0.68334 0.82704
 C689 C 0.86875 0.69200 0.82496
 C690 C 0.87641 0.68668 0.81306
 C691 C 0.86864 0.67463 0.80822
 H692 H 0.87164 0.70139 0.83164
 H693 H 0.87141 0.66769 0.79901
 N694 N 0.82607 0.68377 0.85701
 N695 N 0.81573 0.67354 0.85698
 C696 C 0.80701 0.67548 0.86878
 C697 C 0.81216 0.68741 0.87649
 C698 C 0.82417 0.69246 0.86881
 H699 H 0.79780 0.66856 0.87175
 H700 H 0.83118 0.70158 0.87180
 H701 H 0.82531 0.67453 0.83069
 H702 H 0.83692 0.66263 0.84268
 N703 N 0.81583 0.14321 0.32638
 N704 N 0.82617 0.14345 0.31629
 C705 C 0.82463 0.13165 0.30751
 C706 C 0.81273 0.12369 0.31241
 C707 C 0.80734 0.13124 0.32436
 H708 H 0.83174 0.12887 0.29842
 H709 H 0.79814 0.12812 0.33119
 Cu710 Cu 0.84126 0.15856 0.31615
 Cu711 Cu 0.81482 0.15787 0.34193
 Cu712 Cu 0.84175 0.18501 0.34181
 N713 N 0.85625 0.17376 0.31618
 N714 N 0.85641 0.18411 0.32622
 C715 C 0.86835 0.19266 0.32418
 C716 C 0.87597 0.18729 0.31225
 C717 C 0.86808 0.17535 0.30740
 H718 H 0.87144 0.20185 0.33101
 H719 H 0.87093 0.16822 0.29836
 N720 N 0.82600 0.18398 0.35665
 N721 N 0.81575 0.17367 0.35670
 C722 C 0.80713 0.17549 0.36859
 C723 C 0.81226 0.18744 0.37628
 C724 C 0.82417 0.19261 0.36851
 H725 H 0.79803 0.16847 0.37163
 H726 H 0.83116 0.20174 0.37149
 H727 H 0.82503 0.17459 0.33029
 H728 H 0.83695 0.16284 0.34213
 N729 N 0.68372 0.35699 0.32644
 N730 N 0.67360 0.35669 0.31613
 C731 C 0.67534 0.36850 0.30735
 C732 C 0.68713 0.37649 0.31253
 C733 C 0.69224 0.36894 0.32459
 H734 H 0.66845 0.37126 0.29810
 H735 H 0.70130 0.37204 0.33161
 Cu736 Cu 0.65870 0.34136 0.31605
 Cu737 Cu 0.68462 0.34240 0.34212
 Cu738 Cu 0.65751 0.31550 0.34213
 N739 N 0.64329 0.32651 0.31611
 N740 N 0.64292 0.31644 0.32645
 C741 C 0.63095 0.30795 0.32459
 C742 C 0.62345 0.31303 0.31248
 C743 C 0.63151 0.32477 0.30728
 H744 H 0.62780 0.29890 0.33161
 H745 H 0.62885 0.33163 0.29796
 N746 N 0.67320 0.31649 0.35702
 N747 N 0.68353 0.32671 0.35700
 C748 C 0.69224 0.32476 0.36879
 C749 C 0.68706 0.31284 0.37652
 C750 C 0.67507 0.30778 0.36883
 H751 H 0.70155 0.33158 0.37166
 H752 H 0.66815 0.29856 0.37174
 H753 H 0.67462 0.32547 0.33073
 H754 H 0.66259 0.33756 0.34210
 N755 N 0.68401 0.85676 0.82652
 N756 N 0.67372 0.85664 0.81638
 C757 C 0.67548 0.86842 0.80758
 C758 C 0.68744 0.87625 0.81257
 C759 C 0.69264 0.86863 0.82455
 H760 H 0.66848 0.87128 0.79843
 H761 H 0.70178 0.87168 0.83149
 Cu762 Cu 0.65858 0.84157 0.81644
 Cu763 Cu 0.68497 0.84209 0.84211
 Cu764 Cu 0.65768 0.81537 0.84223
 N765 N 0.64317 0.82675 0.81655
 N766 N 0.64289 0.81652 0.82677
 C767 C 0.63092 0.80802 0.82482
 C768 C 0.62341 0.81321 0.81277
 C769 C 0.63140 0.82505 0.80772
 H770 H 0.62782 0.79887 0.83174
 H771 H 0.62877 0.83192 0.79841
 N772 N 0.67355 0.81614 0.85694
 N773 N 0.68392 0.82633 0.85691
 C774 C 0.69265 0.82434 0.86868
 C775 C 0.68748 0.81240 0.87638
 C776 C 0.67543 0.80740 0.86873
 H777 H 0.70191 0.83120 0.87160
 H778 H 0.66842 0.79827 0.87170
 H779 H 0.67460 0.82546 0.83062
 H780 H 0.66284 0.83748 0.84239
 N781 N 0.18371 0.35673 0.82656
 N782 N 0.17377 0.35630 0.81609
 C783 C 0.17558 0.36807 0.80727
 C784 C 0.18717 0.37622 0.81261
 C785 C 0.19212 0.36878 0.82480
 H786 H 0.16882 0.37070 0.79788
 H787 H 0.20100 0.37205 0.83198
 Cu788 Cu 0.15879 0.34103 0.81556
 Cu789 Cu 0.18455 0.34209 0.84211
 Cu790 Cu 0.15755 0.31524 0.84213
 N791 N 0.14342 0.32615 0.81611
 N792 N 0.14291 0.31619 0.82657
 C793 C 0.13080 0.30785 0.82477
 C794 C 0.12344 0.31288 0.81256
 C795 C 0.13168 0.32443 0.80726
 H796 H 0.12747 0.29896 0.83191
 H797 H 0.12915 0.33120 0.79784
 N798 N 0.17329 0.31615 0.85696
 N799 N 0.18357 0.32642 0.85693
 C800 C 0.19233 0.32451 0.86867
 C801 C 0.18728 0.31253 0.87639
 C802 C 0.17525 0.30743 0.86876
 H803 H 0.20157 0.33142 0.87154
 H804 H 0.16834 0.29822 0.87173
 H805 H 0.17445 0.32520 0.83054
 H806 H 0.16229 0.33739 0.84178
 N807 N 0.18341 0.85718 0.32676
 N808 N 0.17326 0.85689 0.31648
 C809 C 0.17511 0.86859 0.30758
 C810 C 0.18699 0.87650 0.31263
 C811 C 0.19205 0.86902 0.32475
 H812 H 0.16829 0.87128 0.29824
 H813 H 0.20120 0.87207 0.33166
 Cu814 Cu 0.15825 0.84166 0.31619
 Cu815 Cu 0.18434 0.84253 0.34229
 Cu816 Cu 0.15757 0.81524 0.34193
 N817 N 0.14334 0.82632 0.31608
 N818 N 0.14310 0.81605 0.32624
 C819 C 0.13122 0.80744 0.32419
 C820 C 0.12370 0.81263 0.31216
 C821 C 0.13160 0.82457 0.30721
 H822 H 0.12807 0.79835 0.33115
 H823 H 0.12878 0.83162 0.29808
 N824 N 0.17316 0.81634 0.35692
 N825 N 0.18334 0.82671 0.35704
 C826 C 0.19200 0.82480 0.36887
 C827 C 0.18695 0.81276 0.37649
 C828 C 0.17506 0.80759 0.36870
 H829 H 0.20120 0.83172 0.37183
 H830 H 0.16824 0.79828 0.37152
 H831 H 0.17443 0.82574 0.33063
 H832 H 0.16227 0.83746 0.34228
 C833 C 0.24001 1.03108 0.25917
 C834 C 0.24954 1.03868 0.24990
 C835 C 0.25918 1.03129 0.24055
 C836 C 0.25935 1.01576 0.24028
 C837 C 0.24964 1.00786 0.24962
 C838 C 0.23995 1.01555 0.25918
 C839 C 0.23052 1.00751 0.26841
 C840 C 0.23053 0.99217 0.26823
 C841 C 0.23999 0.98436 0.25882
 C842 C 0.24967 0.99227 0.24945
 C843 C 0.26894 1.00795 0.23101
 C844 C 0.26899 0.99261 0.23087
 C845 C 0.25945 0.98458 0.23998
 C846 C 0.25936 0.96905 0.23995
 C847 C 0.24970 0.96146 0.24908
 C848 C 0.24016 0.96884 0.25852
 H849 H 0.22304 1.01304 0.27584
 H850 H 0.22307 0.98646 0.27554
 H851 H 0.27650 1.01365 0.22381
 H852 H 0.27658 0.98707 0.22356
 H853 H 0.24950 1.05063 0.25002
 H854 H 0.24975 0.94950 0.24896
 C855 C 0.25933 0.46872 0.74055
 C856 C 0.24980 0.46124 0.74993
 C857 C 0.24031 0.46875 0.75933
 C858 C 0.24019 0.48429 0.75943
 C859 C 0.24986 0.49206 0.74993
 C860 C 0.25950 0.48424 0.74045
 C861 C 0.26899 0.49215 0.73116
 C862 C 0.26907 0.50748 0.73120
 C863 C 0.25963 0.51543 0.74049
 C864 C 0.24990 0.50766 0.74994
 C865 C 0.23073 0.49224 0.76871
 C866 C 0.23073 0.50758 0.76868
 C867 C 0.24022 0.51547 0.75940
 C868 C 0.24037 0.53100 0.75924
 C869 C 0.25001 0.53846 0.74998
 C870 C 0.25957 0.53096 0.74066
 H871 H 0.27645 0.48651 0.72379
 H872 H 0.27660 0.51308 0.72388
 H873 H 0.22324 0.48665 0.77608
 H874 H 0.22324 0.51322 0.77600
 H875 H 0.24979 0.44928 0.74994
 H876 H 0.25005 0.55041 0.75001
 C877 C 0.74090 0.03104 0.24081
 C878 C 0.75047 0.03849 0.25012
 C879 C 0.76001 0.03096 0.25943
 C880 C 0.76012 0.01543 0.25956
 C881 C 0.75044 0.00768 0.25009
 C882 C 0.74076 0.01551 0.24065
 C883 C 0.73126 0.00762 0.23140
 C884 C 0.73125 -0.00772 0.23139
 C885 C 0.74074 -0.01568 0.24062
 C886 C 0.75043 -0.00792 0.25008
 C887 C 0.76959 0.00748 0.26882
 C888 C 0.76957 -0.00786 0.26881
 C889 C 0.76010 -0.01574 0.25954
 C890 C 0.75995 -0.03126 0.25941
 C891 C 0.75042 -0.03872 0.25006
 C892 C 0.74088 -0.03120 0.24073
 H893 H 0.72373 0.01326 0.22411
 H894 H 0.72370 -0.01333 0.22411
 H895 H 0.77709 0.01306 0.27615
 H896 H 0.77708 -0.01351 0.27612
 H897 H 0.75050 0.05044 0.25013
 H898 H 0.75039 -0.05067 0.25006
 C899 C 0.74051 0.53101 0.74083
 C900 C 0.75017 0.53847 0.75005
 C901 C 0.75980 0.53097 0.75928
 C902 C 0.75993 0.51544 0.75943
 C903 C 0.75018 0.50766 0.75004
 C904 C 0.74041 0.51547 0.74068
 C905 C 0.73087 0.50756 0.73148
 C906 C 0.73091 0.49222 0.73145
 C907 C 0.74048 0.48428 0.74063
 C908 C 0.75021 0.49206 0.75002
 C909 C 0.76948 0.50750 0.76863
 C910 C 0.76947 0.49217 0.76864
 C911 C 0.75995 0.48425 0.75942
 C912 C 0.75983 0.46872 0.75929
 C913 C 0.75025 0.46124 0.75001
 C914 C 0.74062 0.46875 0.74076
 H915 H 0.72330 0.51319 0.72423
 H916 H 0.72336 0.48660 0.72419
 H917 H 0.77703 0.51311 0.77590
 H918 H 0.77700 0.48654 0.77594
 H919 H 0.75018 0.55043 0.75006
 H920 H 0.75025 0.44928 0.75005
 C921 C 0.25957 0.46903 0.25931
 C922 C 0.25014 0.46156 0.24986
 C923 C 0.24065 0.46906 0.24047
 C924 C 0.24044 0.48459 0.24041
 C925 C 0.25005 0.49236 0.24995
 C926 C 0.25970 0.48455 0.25943
 C927 C 0.26915 0.49245 0.26872
 C928 C 0.26916 0.50778 0.26871
 C929 C 0.25967 0.51572 0.25946
 C930 C 0.25000 0.50796 0.25000
 C931 C 0.23094 0.49253 0.23117
 C932 C 0.23085 0.50787 0.23127
 C933 C 0.24029 0.51577 0.24058
 C934 C 0.24038 0.53130 0.24077
 C935 C 0.24991 0.53877 0.25011
 C936 C 0.25953 0.53125 0.25934
 H937 H 0.27666 0.48681 0.27604
 H938 H 0.27666 0.51339 0.27605
 H939 H 0.22347 0.48692 0.22382
 H940 H 0.22333 0.51352 0.22398
 H941 H 0.25018 0.44961 0.24984
 H942 H 0.24988 0.55072 0.25014
 C943 C 0.75901 0.96895 0.74074
 C944 C 0.74961 0.96152 0.75027
 C945 C 0.74020 0.96908 0.75971
 C946 C 0.74002 0.98461 0.75970
 C947 C 0.74960 0.99234 0.75008
 C948 C 0.75919 0.98448 0.74058
 C949 C 0.76865 0.99234 0.73123
 C950 C 0.76865 1.00767 0.73113
 C951 C 0.75919 1.01566 0.74037
 C952 C 0.74958 1.00793 0.74996
 C953 C 0.73061 0.99260 0.76901
 C954 C 0.73060 1.00794 0.76890
 C955 C 0.73998 1.01579 0.75947
 C956 C 0.74012 1.03131 0.75923
 C957 C 0.74953 1.03874 0.74970
 C958 C 0.75904 1.03119 0.74036
 H959 H 0.77615 0.98667 0.72392
 H960 H 0.77612 1.01324 0.72372
 H961 H 0.72320 0.98703 0.77648
 H962 H 0.72316 1.01362 0.77626
 H963 H 0.74959 0.94957 0.75032
 H964 H 0.74953 1.05069 0.74964
 C965 C 0.75952 0.46900 0.24043
 C966 C 0.75011 0.46144 0.24985
 C967 C 0.74062 0.46887 0.25930
 C968 C 0.74037 0.48439 0.25944
 C969 C 0.74996 0.49225 0.24994
 C970 C 0.75962 0.48453 0.24040
 C971 C 0.76907 0.49251 0.23115
 C972 C 0.76906 0.50784 0.23123
 C973 C 0.75954 0.51570 0.24053
 C974 C 0.74989 0.50785 0.24997
 C975 C 0.73087 0.49225 0.26876
 C976 C 0.73075 0.50759 0.26874
 C977 C 0.74017 0.51557 0.25946
 C978 C 0.74019 0.53110 0.25934
 C979 C 0.74971 0.53865 0.25002
 C980 C 0.75935 0.53123 0.24071
 H981 H 0.77656 0.48694 0.22377
 H982 H 0.77656 0.51350 0.22393
 H983 H 0.72346 0.48659 0.27615
 H984 H 0.72324 0.51316 0.27609
 H985 H 0.75017 0.44949 0.24981
 H986 H 0.74964 0.55060 0.25005
 C987 C 0.26018 -0.03131 0.75956
 C988 C 0.25074 -0.03885 0.75019
 C989 C 0.24116 -0.03142 0.74083
 C990 C 0.24089 -0.01588 0.74073
 C991 C 0.25054 -0.00804 0.75016
 C992 C 0.26026 -0.01579 0.75963
 C993 C 0.26970 -0.00783 0.76888
 C994 C 0.26963 0.00750 0.76885
 C995 C 0.26010 0.01538 0.75959
 C996 C 0.25045 0.00755 0.75016
 C997 C 0.23129 -0.00800 0.73154
 C998 C 0.23119 0.00734 0.73154
 C999 C 0.24069 0.01531 0.74073
 C1000 C 0.24077 0.03084 0.74082
 C1001 C 0.25033 0.03837 0.75009
 C1002 C 0.25991 0.03091 0.75943
 H1003 H 0.27723 -0.01342 0.77620
 H1004 H 0.27710 0.01315 0.77618
 H1005 H 0.22378 -0.01366 0.72427
 H1006 H 0.22363 0.01293 0.72425
 H1007 H 0.25082 -0.05080 0.75022
 H1008 H 0.25030 0.05032 0.75006
 C1009 C 0.25901 0.24016 0.96894
 C1010 C 0.24951 0.24958 0.96149
 C1011 C 0.24015 0.25913 0.96898
 C1012 C 0.24009 0.25931 0.98445
 C1013 C 0.24971 0.24972 0.99219
 C1014 C 0.25924 0.24009 0.98440
 C1015 C 0.26871 0.23073 0.99225
 C1016 C 0.26885 0.23081 1.00752
 C1017 C 0.25952 0.24025 1.01545
 C1018 C 0.24984 0.24979 1.00773
 C1019 C 0.23078 0.26877 0.99238
 C1020 C 0.23087 0.26880 1.00767
 C1021 C 0.24030 0.25941 1.01553
 C1022 C 0.24053 0.25929 1.03101
 C1023 C 0.25012 0.24991 1.03842
 C1024 C 0.25955 0.24046 1.03091
 H1025 H 0.27609 0.22326 0.98662
 H1026 H 0.27635 0.22342 1.01309
 H1027 H 0.22334 0.27621 0.98680
 H1028 H 0.22350 0.27627 1.01331
 H1029 H 0.24949 0.24956 0.94958
 H1030 H 0.25022 0.24993 1.05033
 C1031 C 0.25985 0.74068 0.46888
 C1032 C 0.25034 0.75007 0.46140
 C1033 C 0.24077 0.75945 0.46884
 C1034 C 0.24064 0.75962 0.48433
 C1035 C 0.25033 0.75012 0.49210
 C1036 C 0.25998 0.74058 0.48435
 C1037 C 0.26943 0.73124 0.49224
 C1038 C 0.26946 0.73125 0.50751
 C1039 C 0.26002 0.74061 0.51540
 C1040 C 0.25034 0.75013 0.50764
 C1041 C 0.23116 0.76894 0.49222
 C1042 C 0.23116 0.76894 0.50752
 C1043 C 0.24065 0.75963 0.51542
 C1044 C 0.24079 0.75947 0.53089
 C1045 C 0.25039 0.75013 0.53834
 C1046 C 0.25992 0.74075 0.53087
 H1047 H 0.27690 0.72384 0.48664
 H1048 H 0.27695 0.72388 0.51310
 H1049 H 0.22366 0.77629 0.48662
 H1050 H 0.22366 0.77629 0.51313
 H1051 H 0.25036 0.75004 0.44949
 H1052 H 0.25041 0.75011 0.55025
 C1053 C 0.26003 0.75955 -0.03125
 C1054 C 0.25052 0.75019 -0.03874
 C1055 C 0.24105 0.74072 -0.03129
 C1056 C 0.24097 0.74049 -0.01582
 C1057 C 0.25062 0.74996 -0.00803
 C1058 C 0.26019 0.75959 -0.01577
 C1059 C 0.26958 0.76893 -0.00784
 C1060 C 0.26961 0.76882 0.00745
 C1061 C 0.26028 0.75934 0.01531
 C1062 C 0.25069 0.74981 0.00751
 C1063 C 0.23155 0.73111 -0.00796
 C1064 C 0.23161 0.73096 0.00732
 C1065 C 0.24110 0.74019 0.01524
 C1066 C 0.24127 0.74018 0.03072
 C1067 C 0.25082 0.74949 0.03821
 C1068 C 0.26018 0.75908 0.03079
 H1069 H 0.27697 0.77641 -0.01341
 H1070 H 0.27703 0.77621 0.01308
 H1071 H 0.22403 0.72380 -0.01357
 H1072 H 0.22416 0.72353 0.01289
 H1073 H 0.25048 0.75026 -0.05065
 H1074 H 0.25081 0.74943 0.05012
 C1075 C 0.25941 0.25937 0.46895
 C1076 C 0.24984 0.25008 0.46145
 C1077 C 0.24028 0.24070 0.46889
 C1078 C 0.24013 0.24051 0.48437
 C1079 C 0.24979 0.24997 0.49216
 C1080 C 0.25949 0.25947 0.48443
 C1081 C 0.26897 0.26872 0.49235
 C1082 C 0.26895 0.26867 0.50764
 C1083 C 0.25946 0.25936 0.51550
 C1084 C 0.24977 0.24992 0.50771
 C1085 C 0.23065 0.23118 0.49224
 C1086 C 0.23062 0.23115 0.50752
 C1087 C 0.24006 0.24043 0.51544
 C1088 C 0.24015 0.24054 0.53092
 C1089 C 0.24972 0.24983 0.53841
 C1090 C 0.25932 0.25916 0.53097
 H1091 H 0.27649 0.27607 0.48677
 H1092 H 0.27644 0.27598 0.51326
 H1093 H 0.22318 0.22383 0.48662
 H1094 H 0.22313 0.22376 0.51311
 H1095 H 0.24987 0.25013 0.44954
 H1096 H 0.24969 0.24980 0.55032
 C1097 C 0.75979 0.74100 0.96886
 C1098 C 0.75026 0.75042 0.96142
 C1099 C 0.74068 0.75973 0.96893
 C1100 C 0.74058 0.75984 0.98440
 C1101 C 0.75028 0.75033 0.99213
 C1102 C 0.75994 0.74084 0.98432
 C1103 C 0.76940 0.73147 0.99218
 C1104 C 0.76942 0.73142 1.00745
 C1105 C 0.75996 0.74073 1.01539
 C1106 C 0.75028 0.75027 1.00767
 C1107 C 0.73108 0.76910 0.99234
 C1108 C 0.73108 0.76904 1.00763
 C1109 C 0.74058 0.75972 1.01549
 C1110 C 0.74069 0.75950 1.03096
 C1111 C 0.75029 0.75013 1.03837
 C1112 C 0.75984 0.74080 1.03086
 H1113 H 0.77688 0.72410 0.98655
 H1114 H 0.77691 0.72402 1.01301
 H1115 H 0.72355 0.77646 0.98677
 H1116 H 0.72355 0.77636 1.01326
 H1117 H 0.75025 0.75044 0.94951
 H1118 H 0.75030 0.75007 1.05028
 C1119 C 0.75973 0.24042 0.46882
 C1120 C 0.75020 0.24975 0.46129
 C1121 C 0.74058 0.25911 0.46869
 C1122 C 0.74037 0.25928 0.48416
 C1123 C 0.75004 0.24980 0.49198
 C1124 C 0.75978 0.24031 0.48428
 C1125 C 0.76924 0.23102 0.49222
 C1126 C 0.76919 0.23105 0.50749
 C1127 C 0.75965 0.24035 0.51533
 C1128 C 0.74996 0.24981 0.50752
 C1129 C 0.73082 0.26857 0.49201
 C1130 C 0.73073 0.26856 0.50730
 C1131 C 0.74020 0.25928 0.51524
 C1132 C 0.74026 0.25912 0.53072
 C1133 C 0.74984 0.24981 0.53821
 C1134 C 0.75948 0.24051 0.53079
 H1135 H 0.77679 0.22367 0.48666
 H1136 H 0.77669 0.22372 0.51313
 H1137 H 0.72333 0.27590 0.48636
 H1138 H 0.72318 0.27590 0.51288
 H1139 H 0.75027 0.24972 0.44937
 H1140 H 0.74982 0.24981 0.55012
 C1141 C 0.75948 0.25945 -0.03126
 C1142 C 0.74989 0.25011 -0.03867
 C1143 C 0.74038 0.24074 -0.03117
 C1144 C 0.74034 0.24058 -0.01570
 C1145 C 0.75002 0.25009 -0.00798
 C1146 C 0.75965 0.25960 -0.01578
 C1147 C 0.76911 0.26894 -0.00792
 C1148 C 0.76917 0.26892 0.00737
 C1149 C 0.75977 0.25957 0.01530
 C1150 C 0.75008 0.25007 0.00757
 C1151 C 0.73096 0.23121 -0.00776
 C1152 C 0.73101 0.23121 0.00752
 C1153 C 0.74045 0.24056 0.01537
 C1154 C 0.74057 0.24073 0.03083
 C1155 C 0.75013 0.25007 0.03826
 C1156 C 0.75969 0.25940 0.03077
 H1157 H 0.77654 0.27633 -0.01357
 H1158 H 0.77664 0.27630 0.01295
 H1159 H 0.72350 0.22381 -0.01333
 H1160 H 0.72359 0.22380 0.01317
 H1161 H 0.74984 0.25012 -0.05059
 H1162 H 0.75012 0.25009 0.05017
 C1163 C 0.75943 0.75974 0.46912
 C1164 C 0.74986 0.75046 0.46161
 C1165 C 0.74035 0.74101 0.46902
 C1166 C 0.74026 0.74076 0.48449
 C1167 C 0.74989 0.75024 0.49231
 C1168 C 0.75954 0.75981 0.48459
 C1169 C 0.76897 0.76909 0.49255
 C1170 C 0.76895 0.76901 0.50784
 C1171 C 0.75952 0.75961 0.51568
 C1172 C 0.74991 0.75012 0.50785
 C1173 C 0.73086 0.73134 0.49234
 C1174 C 0.73088 0.73121 0.50761
 C1175 C 0.74029 0.74051 0.51555
 C1176 C 0.74041 0.74052 0.53102
 C1177 C 0.74988 0.74987 0.53855
 C1178 C 0.75936 0.75935 0.53115
 H1179 H 0.77644 0.77651 0.48698
 H1180 H 0.77640 0.77636 0.51350
 H1181 H 0.72340 0.72398 0.48671
 H1182 H 0.72345 0.72376 0.51317
 H1183 H 0.74985 0.75053 0.44970
 H1184 H 0.74984 0.74979 0.55046
 C1185 C 0.96864 0.25939 0.24077
 C1186 C 0.96120 0.24977 0.25008
 C1187 C 0.96876 0.24026 0.25941
 C1188 C 0.98431 0.24021 0.25952
 C1189 C 0.99204 0.24994 0.25006
 C1190 C 0.98418 0.25959 0.24063
 C1191 C 0.99204 0.26915 0.23139
 C1192 C 1.00738 0.26926 0.23139
 C1193 C 1.01538 0.25979 0.24060
 C1194 C 1.00765 0.25002 0.25003
 C1195 C 0.99231 0.23076 0.26877
 C1196 C 1.00767 0.23081 0.26871
 C1197 C 1.01553 0.24034 0.25943
 C1198 C 1.03107 0.24054 0.25923
 C1199 C 1.03848 0.25017 0.24991
 C1200 C 1.03091 0.25976 0.24070
 H1201 H 0.98637 0.27665 0.22410
 H1202 H 1.01294 0.27684 0.22409
 H1203 H 0.98674 0.22323 0.27611
 H1204 H 1.01336 0.22331 0.27599
 H1205 H 0.94924 0.24970 0.25010
 H1206 H 1.05045 0.25023 0.24985
 C1207 C 0.53117 0.24011 0.75926
 C1208 C 0.53864 0.24968 0.74993
 C1209 C 0.53113 0.25928 0.74067
 C1210 C 0.51559 0.25939 0.74053
 C1211 C 0.50781 0.24965 0.74995
 C1212 C 0.51563 0.23996 0.75939
 C1213 C 0.50772 0.23046 0.76866
 C1214 C 0.49237 0.23043 0.76866
 C1215 C 0.48442 0.23990 0.75940
 C1216 C 0.49219 0.24963 0.74996
 C1217 C 0.50764 0.26891 0.73131
 C1218 C 0.49228 0.26890 0.73133
 C1219 C 0.48437 0.25935 0.74055
 C1220 C 0.46882 0.25921 0.74071
 C1221 C 0.46136 0.24956 0.74996
 C1222 C 0.46888 0.23999 0.75926
 H1223 H 0.51337 0.22296 0.77597
 H1224 H 0.48676 0.22291 0.77597
 H1225 H 0.51325 0.27646 0.72402
 H1226 H 0.48663 0.27644 0.72406
 H1227 H 0.55061 0.24969 0.74994
 H1228 H 0.44940 0.24954 0.74997
 C1229 C -0.03130 0.25950 0.75940
 C1230 C -0.03879 0.24981 0.75026
 C1231 C -0.03130 0.24019 0.74098
 C1232 C -0.01575 0.24005 0.74080
 C1233 C -0.00795 0.24979 0.75017
 C1234 C -0.01575 0.25958 0.75953
 C1235 C -0.00783 0.26914 0.76869
 C1236 C 0.00752 0.26911 0.76869
 C1237 C 0.01546 0.25955 0.75951
 C1238 C 0.00767 0.24979 0.75014
 C1239 C -0.00781 0.23053 0.73157
 C1240 C 0.00755 0.23054 0.73153
 C1241 C 0.01548 0.24006 0.74073
 C1242 C 0.03103 0.24020 0.74087
 C1243 C 0.03850 0.24980 0.75013
 C1244 C 0.03100 0.25942 0.75937
 H1245 H -0.01345 0.27671 0.77595
 H1246 H 0.01314 0.27667 0.77595
 H1247 H -0.01344 0.22300 0.72430
 H1248 H 0.01319 0.22301 0.72424
 H1249 H -0.05075 0.24982 0.75032
 H1250 H 0.05047 0.24981 0.75013
 C1251 C 0.46865 0.25933 0.25916
 C1252 C 0.46117 0.24972 0.24990
 C1253 C 0.46871 0.24019 0.24057
 C1254 C 0.48426 0.24015 0.24037
 C1255 C 0.49202 0.24988 0.24978
 C1256 C 0.48419 0.25950 0.25926
 C1257 C 0.49208 0.26900 0.26851
 C1258 C 0.50743 0.26907 0.26848
 C1259 C 0.51540 0.25967 0.25917
 C1260 C 0.50764 0.24998 0.24971
 C1261 C 0.49224 0.23072 0.23108
 C1262 C 0.50760 0.23082 0.23101
 C1263 C 0.51548 0.24036 0.24022
 C1264 C 0.53102 0.24060 0.24029
 C1265 C 0.53847 0.25017 0.24961
 C1266 C 0.53095 0.25961 0.25901
 H1267 H 0.48643 0.27644 0.27588
 H1268 H 0.51303 0.27655 0.27582
 H1269 H 0.48666 0.22317 0.22379
 H1270 H 0.51326 0.22336 0.22367
 H1271 H 0.44921 0.24968 0.24996
 H1272 H 0.55044 0.25020 0.24959
 C1273 C 0.96887 0.75964 0.74065
 C1274 C 0.96133 0.75006 0.74989
 C1275 C 0.96877 0.74044 0.75920
 C1276 C 0.98431 0.74025 0.75939
 C1277 C 0.99215 0.74995 0.74998
 C1278 C 0.98440 0.75971 0.74056
 C1279 C 0.99236 0.76924 0.73137
 C1280 C 1.00770 0.76921 0.73140
 C1281 C 1.01559 0.75963 0.74060
 C1282 C 1.00776 0.74990 0.75000
 C1283 C 0.99221 0.73073 0.76866
 C1284 C 1.00757 0.73068 0.76868
 C1285 C 1.01553 0.74016 0.75942
 C1286 C 1.03107 0.74024 0.75925
 C1287 C 1.03858 0.74981 0.74995
 C1288 C 1.03112 0.75948 0.74074
 H1289 H 0.98677 0.77680 0.72408
 H1290 H 1.01335 0.77675 0.72413
 H1291 H 0.98655 0.72322 0.77597
 H1292 H 1.01319 0.72315 0.77598
 H1293 H 0.94937 0.75013 0.74984
 H1294 H 1.05055 0.74978 0.74994
 C1295 C 0.46870 0.75933 0.24046
 C1296 C 0.46122 0.74984 0.24984
 C1297 C 0.46873 0.74040 0.25927
 C1298 C 0.48428 0.74023 0.25939
 C1299 C 0.49206 0.74986 0.24987
 C1300 C 0.48424 0.75948 0.24035
 C1301 C 0.49215 0.76896 0.23107
 C1302 C 0.50749 0.76906 0.23116
 C1303 C 0.51543 0.75964 0.24047
 C1304 C 0.50766 0.74990 0.24990
 C1305 C 0.49223 0.73080 0.26871
 C1306 C 0.50759 0.73077 0.26867
 C1307 C 0.51549 0.74025 0.25937
 C1308 C 0.53103 0.74043 0.25923
 C1309 C 0.53849 0.75007 0.24997
 C1310 C 0.53097 0.75962 0.24068
 H1311 H 0.48651 0.77638 0.22367
 H1312 H 0.51310 0.77660 0.22386
 H1313 H 0.48661 0.72335 0.27610
 H1314 H 0.51324 0.72329 0.27599
 H1315 H 0.44926 0.74989 0.24986
 H1316 H 0.55046 0.75015 0.25000
 C1317 C -0.03128 0.75962 0.25933
 C1318 C -0.03874 0.74999 0.25010
 C1319 C -0.03121 0.74038 0.24084
 C1320 C -0.01566 0.74027 0.24068
 C1321 C -0.00790 0.75001 0.25008
 C1322 C -0.01573 0.75973 0.25947
 C1323 C -0.00784 0.76925 0.26868
 C1324 C 0.00751 0.76929 0.26868
 C1325 C 0.01548 0.75980 0.25946
 C1326 C 0.00772 0.75004 0.25008
 C1327 C -0.00769 0.73077 0.23147
 C1328 C 0.00768 0.73081 0.23146
 C1329 C 0.01557 0.74034 0.24068
 C1330 C 0.03112 0.74054 0.24080
 C1331 C 0.03857 0.75016 0.25007
 C1332 C 0.03102 0.75973 0.25933
 H1333 H -0.01348 0.77676 0.27598
 H1334 H 0.01309 0.77681 0.27599
 H1335 H -0.01329 0.72323 0.22419
 H1336 H 0.01335 0.72332 0.22415
 H1337 H -0.05071 0.74997 0.25009
 H1338 H 0.05054 0.75021 0.25006
 C1339 C 0.46850 0.74059 0.74096
 C1340 C 0.46107 0.75026 0.75023
 C1341 C 0.46861 0.75986 0.75942
 C1342 C 0.48415 0.75991 0.75951
 C1343 C 0.49191 0.75012 0.75012
 C1344 C 0.48406 0.74039 0.74077
 C1345 C 0.49196 0.73081 0.73156
 C1346 C 0.50732 0.73075 0.73154
 C1347 C 0.51529 0.74026 0.74072
 C1348 C 0.50752 0.75005 0.75010
 C1349 C 0.49212 0.76943 0.76868
 C1350 C 0.50746 0.76938 0.76865
 C1351 C 0.51535 0.75979 0.75945
 C1352 C 0.53089 0.75962 0.75928
 C1353 C 0.53835 0.74995 0.75006
 C1354 C 0.53083 0.74033 0.74085
 H1355 H 0.48631 0.72328 0.72430
 H1356 H 0.51294 0.72316 0.72428
 H1357 H 0.48652 0.77699 0.77597
 H1358 H 0.51311 0.77692 0.77589
 H1359 H 0.44911 0.75032 0.75030
 H1360 H 0.55031 0.74991 0.75005
 C1361 C 0.38977 0.30701 0.30664
 C1362 C 0.40113 0.30231 0.30164
 C1363 C 0.41452 0.29662 0.29541
 C1364 C 0.41828 0.30017 0.28095
 C1365 C 0.43076 0.29393 0.27450
 C1366 C 0.43957 0.28413 0.28247
 C1367 C 0.43601 0.28082 0.29704
 C1368 C 0.42351 0.28707 0.30352
 C1369 C 0.45101 0.27612 0.27506
 C1370 C 0.45966 0.26880 0.26818
 H1371 H 0.41136 0.30746 0.27456
 H1372 H 0.43328 0.29638 0.26315
 H1373 H 0.44264 0.27308 0.30322
 H1374 H 0.42065 0.28421 0.31469
 C1375 C 0.38931 0.80732 0.80652
 C1376 C 0.40072 0.80267 0.80156
 C1377 C 0.41424 0.79708 0.79542
 C1378 C 0.41803 0.80058 0.78095
 C1379 C 0.43059 0.79439 0.77458
 C1380 C 0.43943 0.78467 0.78262
 C1381 C 0.43587 0.78147 0.79722
 C1382 C 0.42330 0.78767 0.80362
 C1383 C 0.45095 0.77668 0.77527
 C1384 C 0.45965 0.76938 0.76844
 H1385 H 0.41105 0.80773 0.77447
 H1386 H 0.43313 0.79677 0.76322
 H1387 H 0.44254 0.77382 0.80346
 H1388 H 0.42041 0.78482 0.81478
 C1389 C -0.11056 0.30741 0.80615
 C1390 C -0.09913 0.30277 0.80126
 C1391 C -0.08565 0.29712 0.79513
 C1392 C -0.07662 0.28771 0.80334
 C1393 C -0.06412 0.28138 0.79692
 C1394 C -0.06059 0.28449 0.78229
 C1395 C -0.06944 0.29417 0.77422
 C1396 C -0.08192 0.30049 0.78063
 C1397 C -0.04906 0.27645 0.77500
 C1398 C -0.04031 0.26910 0.76827
 H1399 H -0.07944 0.28497 0.81455
 H1400 H -0.05747 0.27373 0.80318
 H1401 H -0.06697 0.29646 0.76284
 H1402 H -0.08888 0.30767 0.77416
 C1403 C -0.11041 0.80739 0.30645
 C1404 C -0.09895 0.80279 0.30157
 C1405 C -0.08549 0.79710 0.29543
 C1406 C -0.07683 0.78714 0.30339
 C1407 C -0.06434 0.78082 0.29693
 C1408 C -0.06047 0.78446 0.28252
 C1409 C -0.06897 0.79465 0.27469
 C1410 C -0.08144 0.80096 0.28113
 C1411 C -0.04896 0.77649 0.27512
 C1412 C -0.04027 0.76916 0.26830
 H1413 H -0.07989 0.78401 0.31443
 H1414 H -0.05797 0.77280 0.30300
 H1415 H -0.06619 0.79738 0.26346
 H1416 H -0.08810 0.80859 0.27486
 C1417 C 0.61038 0.69307 0.30702
 C1418 C 0.59934 0.69811 0.30168
 C1419 C 0.58648 0.70440 0.29494
 C1420 C 0.57240 0.70188 0.30075
 C1421 C 0.56001 0.70823 0.29412
 C1422 C 0.56172 0.71708 0.28167
 C1423 C 0.57580 0.71951 0.27586
 C1424 C 0.58813 0.71320 0.28247
 C1425 C 0.54937 0.72422 0.27484
 C1426 C 0.54018 0.73111 0.26823
 H1427 H 0.57102 0.69509 0.31041
 H1428 H 0.54917 0.70632 0.29870
 H1429 H 0.57724 0.72638 0.26625
 H1430 H 0.59896 0.71524 0.27790
 C1431 C 0.61022 0.19226 0.80707
 C1432 C 0.59913 0.19731 0.80185
 C1433 C 0.58628 0.20372 0.79519
 C1434 C 0.57216 0.20117 0.80089
 C1435 C 0.55983 0.20771 0.79431
 C1436 C 0.56166 0.21679 0.78203
 C1437 C 0.57578 0.21927 0.77637
 C1438 C 0.58803 0.21276 0.78291
 C1439 C 0.54938 0.22399 0.77511
 C1440 C 0.54027 0.23086 0.76838
 H1441 H 0.57070 0.19419 0.81041
 H1442 H 0.54895 0.20577 0.79878
 H1443 H 0.57734 0.22631 0.76691
 H1444 H 0.59889 0.21484 0.77843
 C1445 C 1.11039 0.69301 0.80705
 C1446 C 1.09932 0.69800 0.80174
 C1447 C 1.08646 0.70426 0.79499
 C1448 C 1.07237 0.70163 0.80072
 C1449 C 1.05999 0.70801 0.79411
 C1450 C 1.06172 0.71699 0.78176
 C1451 C 1.07580 0.71952 0.77603
 C1452 C 1.08813 0.71318 0.78261
 C1453 C 1.04936 0.72409 0.77493
 C1454 C 1.04017 0.73094 0.76829
 H1455 H 1.07098 0.69472 0.81030
 H1456 H 1.04915 0.70601 0.79863
 H1457 H 1.07725 0.72649 0.76649
 H1458 H 1.09896 0.71528 0.77808
 C1459 C 1.11039 0.19295 0.30688
 C1460 C 1.09938 0.19803 0.30154
 C1461 C 1.08651 0.20435 0.29483
 C1462 C 1.08816 0.21312 0.28235
 C1463 C 1.07585 0.21952 0.27580
 C1464 C 1.06178 0.21721 0.28167
 C1465 C 1.06006 0.20836 0.29413
 C1466 C 1.07244 0.20192 0.30072
 C1467 C 1.04945 0.22439 0.27486
 C1468 C 1.04026 0.23126 0.26824
 H1469 H 1.09897 0.21509 0.27772
 H1470 H 1.07732 0.22637 0.26619
 H1471 H 1.04922 0.20654 0.29876
 H1472 H 1.07107 0.19514 0.31038
 C1473 C 0.61008 0.30759 0.69317
 C1474 C 0.59901 0.30256 0.69845
 C1475 C 0.58618 0.29623 0.70522
 C1476 C 0.57225 0.29759 0.69872
 C1477 C 0.55993 0.29108 0.70534
 C1478 C 0.56157 0.28322 0.71845
 C1479 C 0.57548 0.28199 0.72495
 C1480 C 0.58774 0.28846 0.71836
 C1481 C 0.54934 0.27579 0.72520
 C1482 C 0.54023 0.26873 0.73174
 H1483 H 0.57095 0.30357 0.68854
 H1484 H 0.54923 0.29206 0.70020
 H1485 H 0.57687 0.27589 0.73507
 H1486 H 0.59845 0.28731 0.72346
 C1487 C 0.61016 0.80708 0.19357
 C1488 C 0.59875 0.80244 0.19848
 C1489 C 0.58532 0.79677 0.20468
 C1490 C 0.57620 0.78747 0.19648
 C1491 C 0.56368 0.78123 0.20293
 C1492 C 0.56024 0.78431 0.21758
 C1493 C 0.56922 0.79382 0.22567
 C1494 C 0.58172 0.80004 0.21924
 C1495 C 0.54867 0.77640 0.22490
 C1496 C 0.53994 0.76913 0.23169
 H1497 H 0.57894 0.78476 0.18525
 H1498 H 0.55695 0.77368 0.19668
 H1499 H 0.56683 0.79604 0.23709
 H1500 H 0.58877 0.80710 0.22572
 C1501 C 1.10984 0.30728 0.19327
 C1502 C 1.09839 0.30264 0.19810
 C1503 C 1.08489 0.29695 0.20413
 C1504 C 1.07719 0.28581 0.19684
 C1505 C 1.06472 0.27951 0.20331
 C1506 C 1.05989 0.28437 0.21706
 C1507 C 1.06740 0.29575 0.22418
 C1508 C 1.07986 0.30204 0.21772
 C1509 C 1.04848 0.27649 0.22468
 C1510 C 1.03984 0.26924 0.23163
 H1511 H 1.08104 0.28172 0.18637
 H1512 H 1.05915 0.27054 0.19783
 H1513 H 1.06393 0.29940 0.23494
 H1514 H 1.08580 0.31058 0.22350
 C1515 C 1.10996 0.80741 0.69317
 C1516 C 1.09868 0.80271 0.69834
 C1517 C 1.08553 0.79695 0.70500
 C1518 C 1.07368 0.79216 0.69639
 C1519 C 1.06133 0.78580 0.70305
 C1520 C 1.06080 0.78426 0.71832
 C1521 C 1.07255 0.78927 0.72689
 C1522 C 1.08486 0.79560 0.72026
 C1523 C 1.04903 0.77633 0.72528
 C1524 C 1.04016 0.76903 0.73189
 H1525 H 1.07412 0.79309 0.68456
 H1526 H 1.05236 0.78180 0.69633
 H1527 H 1.07235 0.78794 0.73869
 H1528 H 1.09399 0.79917 0.72700
 C1529 C 0.38969 0.69262 0.69313
 C1530 C 0.40078 0.69751 0.69848
 C1531 C 0.41368 0.70356 0.70531
 C1532 C 0.41286 0.70841 0.71984
 C1533 C 0.42512 0.71479 0.72648
 C1534 C 0.43831 0.71637 0.71867
 C1535 C 0.43923 0.71139 0.70417
 C1536 C 0.42692 0.70497 0.69750
 C1537 C 0.45036 0.72402 0.72549
 C1538 C 0.45938 0.73115 0.73206
 H1539 H 0.40268 0.70742 0.72596
 H1540 H 0.42425 0.71874 0.73765
 H1541 H 0.44933 0.71268 0.69799
 H1542 H 0.42765 0.70128 0.68624
 C1543 C 0.38988 0.19267 0.19316
 C1544 C 0.40131 0.19722 0.19809
 C1545 C 0.41473 0.20285 0.20427
 C1546 C 0.41857 0.19919 0.21868
 C1547 C 0.43098 0.20551 0.22515
 C1548 C 0.43964 0.21549 0.21724
 C1549 C 0.43599 0.21892 0.20272
 C1550 C 0.42357 0.21258 0.19624
 C1551 C 0.45111 0.22346 0.22465
 C1552 C 0.45977 0.23073 0.23152
 H1553 H 0.41177 0.19172 0.22500
 H1554 H 0.43358 0.20297 0.23646
 H1555 H 0.44247 0.22680 0.19659
 H1556 H 0.42066 0.21554 0.18511
 C1557 C -0.11018 0.69274 0.19300
 C1558 C -0.09909 0.69766 0.19832
 C1559 C -0.08623 0.70384 0.20513
 C1560 C -0.08769 0.71098 0.21861
 C1561 C -0.07542 0.71735 0.22526
 C1562 C -0.06160 0.71661 0.21848
 C1563 C -0.06006 0.70939 0.20501
 C1564 C -0.07238 0.70299 0.19834
 C1565 C -0.04938 0.72398 0.22529
 C1566 C -0.04028 0.73097 0.23187
 H1567 H -0.09834 0.71173 0.22393
 H1568 H -0.07675 0.72299 0.23564
 H1569 H -0.04944 0.70885 0.19964
 H1570 H -0.07114 0.69750 0.18788
 C1571 C -0.11012 0.19251 0.69285
 C1572 C -0.09905 0.19746 0.69817
 C1573 C -0.08624 0.20370 0.70503
 C1574 C -0.08775 0.21086 0.71851
 C1575 C -0.07552 0.21725 0.72519
 C1576 C -0.06167 0.21652 0.71846
 C1577 C -0.06009 0.20927 0.70501
 C1578 C -0.07237 0.20284 0.69830
 C1579 C -0.04949 0.22389 0.72532
 C1580 C -0.04041 0.23086 0.73197
 H1581 H -0.09842 0.21160 0.72381
 H1582 H -0.07687 0.22294 0.73554
 H1583 H -0.04945 0.20873 0.69966
 H1584 H -0.07110 0.19731 0.68787
 C1585 C 0.30690 0.38979 0.30688
 C1586 C 0.30175 0.40099 0.30199
 C1587 C 0.29514 0.41412 0.29610
 C1588 C 0.30379 0.42641 0.29260
 C1589 C 0.29725 0.43891 0.28638
 C1590 C 0.28206 0.43913 0.28372
 C1591 C 0.27344 0.42692 0.28742
 C1592 C 0.27995 0.41447 0.29359
 C1593 C 0.27525 0.45108 0.27592
 C1594 C 0.26861 0.45999 0.26871
 H1595 H 0.31557 0.42623 0.29447
 H1596 H 0.30404 0.44822 0.28337
 H1597 H 0.26172 0.42691 0.28520
 H1598 H 0.27316 0.40502 0.29618
 C1599 C 0.30714 -0.11100 0.80665
 C1600 C 0.30206 -0.09974 0.80181
 C1601 C 0.29558 -0.08650 0.79603
 C1602 C 0.30431 -0.07421 0.79271
 C1603 C 0.29786 -0.06162 0.78655
 C1604 C 0.28269 -0.06132 0.78377
 C1605 C 0.27400 -0.07352 0.78733
 C1606 C 0.28040 -0.08605 0.79343
 C1607 C 0.27594 -0.04927 0.77606
 C1608 C 0.26929 -0.04031 0.76893
 H1609 H 0.31608 -0.07447 0.79462
 H1610 H 0.30469 -0.05229 0.78368
 H1611 H 0.26229 -0.07348 0.78504
 H1612 H 0.27357 -0.09551 0.79583
 C1613 C 0.80694 0.38952 0.80665
 C1614 C 0.80227 0.40100 0.80192
 C1615 C 0.79646 0.41454 0.79614
 C1616 C 0.80340 0.42144 0.78427
 C1617 C 0.79707 0.43393 0.77789
 C1618 C 0.78383 0.43961 0.78339
 C1619 C 0.77710 0.43291 0.79549
 C1620 C 0.78341 0.42043 0.80188
 C1621 C 0.77620 0.45104 0.77556
 C1622 C 0.76913 0.45972 0.76847
 H1623 H 0.81345 0.41693 0.77971
 H1624 H 0.80222 0.43885 0.76837
 H1625 H 0.76671 0.43704 0.79965
 H1626 H 0.77791 0.41514 0.81100
 C1627 C 0.80703 -0.11052 0.30716
 C1628 C 0.80197 -0.09927 0.30230
 C1629 C 0.79542 -0.08614 0.29636
 C1630 C 0.80410 -0.07388 0.29284
 C1631 C 0.79761 -0.06141 0.28652
 C1632 C 0.78243 -0.06119 0.28377
 C1633 C 0.77378 -0.07338 0.28747
 C1634 C 0.78025 -0.08581 0.29374
 C1635 C 0.77566 -0.04922 0.27598
 C1636 C 0.76902 -0.04030 0.26878
 H1637 H 0.81586 -0.07404 0.29478
 H1638 H 0.80443 -0.05212 0.28354
 H1639 H 0.76207 -0.07338 0.28520
 H1640 H 0.77346 -0.09525 0.29636
 C1641 C 0.30723 0.60997 0.69314
 C1642 C 0.30262 0.59867 0.69831
 C1643 C 0.29695 0.58543 0.70487
 C1644 C 0.29677 0.58405 0.72014
 C1645 C 0.29044 0.57168 0.72667
 C1646 C 0.28426 0.56059 0.71799
 C1647 C 0.28466 0.56182 0.70269
 C1648 C 0.29103 0.57422 0.69613
 C1649 C 0.27631 0.54884 0.72499
 C1650 C 0.26906 0.53998 0.73167
 H1651 H 0.30125 0.59267 0.72700
 H1652 H 0.28999 0.57094 0.73851
 H1653 H 0.27974 0.55341 0.69587
 H1654 H 0.29107 0.57521 0.68430
 C1655 C 0.30734 1.11019 0.19332
 C1656 C 0.30274 1.09888 0.19851
 C1657 C 0.29706 1.08564 0.20508
 C1658 C 0.29676 1.08429 0.22036
 C1659 C 0.29035 1.07194 0.22688
 C1660 C 0.28422 1.06085 0.21817
 C1661 C 0.28480 1.06201 0.20287
 C1662 C 0.29124 1.07438 0.19633
 C1663 C 0.27611 1.04918 0.22512
 C1664 C 0.26873 1.04038 0.23171
 H1665 H 0.30121 1.09292 0.22723
 H1666 H 0.28981 1.07121 0.23872
 H1667 H 0.27996 1.05357 0.19603
 H1668 H 0.29141 1.07529 0.18450
 C1669 C 0.80725 0.61018 0.19323
 C1670 C 0.80254 0.59900 0.19855
 C1671 C 0.79671 0.58594 0.20531
 C1672 C 0.79352 0.57344 0.19689
 C1673 C 0.78714 0.56107 0.20348
 C1674 C 0.78399 0.56117 0.21851
 C1675 C 0.78741 0.57357 0.22694
 C1676 C 0.79376 0.58591 0.22036
 C1677 C 0.77612 0.54924 0.22529
 C1678 C 0.76886 0.54031 0.23183
 H1679 H 0.79575 0.57334 0.18524
 H1680 H 0.78439 0.55161 0.19683
 H1681 H 0.78485 0.57380 0.23854
 H1682 H 0.79615 0.59552 0.22697
 C1683 C 0.80731 1.10992 0.69303
 C1684 C 0.80269 1.09862 0.69820
 C1685 C 0.79697 1.08539 0.70476
 C1686 C 0.79152 1.07397 0.69599
 C1687 C 0.78506 1.06159 0.70251
 C1688 C 0.78412 1.06059 0.71780
 C1689 C 0.78988 1.07186 0.72653
 C1690 C 0.79630 1.08421 0.72004
 C1691 C 0.77598 1.04891 0.72471
 C1692 C 0.76858 1.04014 0.73136
 H1693 H 0.79199 1.07476 0.68416
 H1694 H 0.78049 1.05302 0.69566
 H1695 H 0.78903 1.07128 0.73836
 H1696 H 0.80046 1.09297 0.72693
 C1697 C 0.69323 0.61039 0.30676
 C1698 C 0.69774 0.59900 0.30171
 C1699 C 0.70325 0.58558 0.29538
 C1700 C 0.70118 0.58286 0.28043
 C1701 C 0.70734 0.57036 0.27397
 C1702 C 0.71559 0.56047 0.28242
 C1703 C 0.71742 0.56300 0.29745
 C1704 C 0.71122 0.57553 0.30393
 C1705 C 0.72349 0.54882 0.27522
 C1706 C 0.73073 0.54005 0.26841
 H1707 H 0.69510 0.59058 0.27369
 H1708 H 0.70606 0.56862 0.26230
 H1709 H 0.72395 0.55553 0.30404
 H1710 H 0.71292 0.57756 0.31550
 C1711 C 0.69280 1.11042 0.80735
 C1712 C 0.69788 1.09933 0.80216
 C1713 C 0.70448 1.08647 0.79574
 C1714 C 0.71756 1.08796 0.78778
 C1715 C 0.72412 1.07567 0.78139
 C1716 C 0.71766 1.06177 0.78288
 C1717 C 0.70458 1.06019 0.79087
 C1718 C 0.69799 1.07256 0.79732
 C1719 C 0.72445 1.04952 0.77554
 C1720 C 0.73108 1.04042 0.76855
 H1721 H 0.72264 1.09865 0.78641
 H1722 H 0.73416 1.07704 0.77512
 H1723 H 0.69945 1.04949 0.79199
 H1724 H 0.68783 1.07131 0.80342
 C1725 C 0.19309 0.61023 0.80696
 C1726 C 0.19784 0.59907 0.80160
 C1727 C 0.20363 0.58603 0.79479
 C1728 C 0.20757 0.58644 0.77997
 C1729 C 0.21376 0.57406 0.77334
 C1730 C 0.21604 0.56118 0.78146
 C1731 C 0.21191 0.56066 0.79624
 C1732 C 0.20568 0.57308 0.80290
 C1733 C 0.22371 0.54912 0.77468
 C1734 C 0.23088 0.54009 0.76814
 H1735 H 0.20606 0.59639 0.77360
 H1736 H 0.21703 0.57461 0.76193
 H1737 H 0.21372 0.55078 0.80263
 H1738 H 0.20265 0.57266 0.81438
 C1739 C 0.19338 1.11046 0.30660
 C1740 C 0.19789 1.09901 0.30168
 C1741 C 0.20339 1.08549 0.29558
 C1742 C 0.21355 1.07694 0.30341
 C1743 C 0.21970 1.06437 0.29700
 C1744 C 0.21565 1.06027 0.28276
 C1745 C 0.20523 1.06864 0.27509
 C1746 C 0.19910 1.08120 0.28149
 C1747 C 0.22344 1.04871 0.27530
 C1748 C 0.23060 1.03999 0.26835
 H1749 H 0.21698 1.08021 0.31430
 H1750 H 0.22792 1.05812 0.30294
 H1751 H 0.20222 1.06572 0.26398
 H1752 H 0.19132 1.08776 0.27530
 C1753 C 0.69294 0.39003 0.69332
 C1754 C 0.69756 0.40140 0.69830
 C1755 C 0.70327 0.41476 0.70452
 C1756 C 0.69926 0.41887 0.71876
 C1757 C 0.70560 0.43127 0.72523
 C1758 C 0.71596 0.43963 0.71749
 C1759 C 0.71977 0.43569 0.70314
 C1760 C 0.71342 0.42328 0.69666
 C1761 C 0.72388 0.45110 0.72491
 C1762 C 0.73114 0.45979 0.73176
 H1763 H 0.69150 0.41232 0.72498
 H1764 H 0.70276 0.43409 0.73642
 H1765 H 0.72794 0.44194 0.69713
 H1766 H 0.71664 0.42014 0.68566
 C1767 C 0.69310 -0.11021 0.19315
 C1768 C 0.69833 -0.09920 0.19831
 C1769 C 0.70496 -0.08634 0.20469
 C1770 C 0.71790 -0.08788 0.21285
 C1771 C 0.72441 -0.07558 0.21925
 C1772 C 0.71808 -0.06164 0.21753
 C1773 C 0.70513 -0.06002 0.20935
 C1774 C 0.69858 -0.07239 0.20290
 C1775 C 0.72492 -0.04935 0.22471
 C1776 C 0.73166 -0.04025 0.23156
 H1777 H 0.72293 -0.09859 0.21433
 H1778 H 0.73436 -0.07695 0.22565
 H1779 H 0.70011 -0.04929 0.20805
 H1780 H 0.68856 -0.07108 0.19660
 C1781 C 0.19270 0.39004 0.19305
 C1782 C 0.19788 0.40118 0.19802
 C1783 C 0.20463 0.41412 0.20414
 C1784 C 0.21877 0.41305 0.21011
 C1785 C 0.22540 0.42535 0.21639
 C1786 C 0.21797 0.43885 0.21676
 C1787 C 0.20385 0.44003 0.21070
 C1788 C 0.19718 0.42766 0.20436
 C1789 C 0.22482 0.45100 0.22419
 C1790 C 0.23152 0.46002 0.23118
 H1791 H 0.22462 0.40265 0.21005
 H1792 H 0.23626 0.42428 0.22119
 H1793 H 0.19795 0.45038 0.21106
 H1794 H 0.18622 0.42862 0.19979
 C1795 C 0.19286 -0.11002 0.69285
 C1796 C 0.19806 -0.09899 0.69801
 C1797 C 0.20480 -0.08623 0.70447
 C1798 C 0.21744 -0.08804 0.71303
 C1799 C 0.22409 -0.07588 0.71955
 C1800 C 0.21818 -0.06178 0.71757
 C1801 C 0.20554 -0.05989 0.70898
 C1802 C 0.19885 -0.07212 0.70241
 C1803 C 0.22518 -0.04961 0.72482
 C1804 C 0.23197 -0.04053 0.73167
 H1805 H 0.22211 -0.09888 0.71473
 H1806 H 0.23380 -0.07748 0.72625
 H1807 H 0.20084 -0.04904 0.70746
 H1808 H 0.18904 -0.07059 0.69583
 C1809 C 0.30676 0.30642 0.38995
 C1810 C 0.30214 0.30149 0.40132
 C1811 C 0.29655 0.29526 0.41470
 C1812 C 0.29919 0.28042 0.41786
 C1813 C 0.29301 0.27401 0.43033
 C1814 C 0.28416 0.28240 0.43974
 C1815 C 0.28174 0.29732 0.43675
 C1816 C 0.28794 0.30375 0.42425
 C1817 C 0.27621 0.27518 0.45130
 C1818 C 0.26892 0.26839 0.46003
 H1819 H 0.30570 0.27371 0.41047
 H1820 H 0.29473 0.26239 0.43240
 H1821 H 0.27471 0.30384 0.44381
 H1822 H 0.28573 0.31521 0.42184
 C1823 C 0.30717 0.80682 -0.11030
 C1824 C 0.30250 0.80198 -0.09892
 C1825 C 0.29678 0.79595 -0.08550
 C1826 C 0.30183 0.78229 -0.08048
 C1827 C 0.29558 0.77592 -0.06799
 C1828 C 0.28428 0.78320 -0.06044
 C1829 C 0.27942 0.79699 -0.06531
 C1830 C 0.28567 0.80337 -0.07780
 C1831 C 0.27650 0.77569 -0.04893
 C1832 C 0.26937 0.76874 -0.04021
 H1833 H 0.31031 0.77639 -0.08642
 H1834 H 0.29921 0.76511 -0.06452
 H1835 H 0.27048 0.80257 -0.05973
 H1836 H 0.28159 0.81388 -0.08166
 C1837 C 0.80652 0.30711 -0.11048
 C1838 C 0.80159 0.30181 -0.09942
 C1839 C 0.79560 0.29506 -0.08646
 C1840 C 0.79464 0.30291 -0.07327
 C1841 C 0.78848 0.29627 -0.06083
 C1842 C 0.78333 0.28178 -0.06159
 C1843 C 0.78443 0.27394 -0.07475
 C1844 C 0.79054 0.28054 -0.08714
 C1845 C 0.77590 0.27501 -0.04942
 C1846 C 0.76888 0.26843 -0.04034
 H1847 H 0.79848 0.31416 -0.07266
 H1848 H 0.78754 0.30247 -0.05075
 H1849 H 0.78033 0.26277 -0.07549
 H1850 H 0.79115 0.27439 -0.09729
 C1851 C 0.80656 0.80677 0.38979
 C1852 C 0.80187 0.80167 0.40107
 C1853 C 0.79624 0.79519 0.41432
 C1854 C 0.79067 0.80405 0.42562
 C1855 C 0.78455 0.79756 0.43815
 C1856 C 0.78406 0.78221 0.43941
 C1857 C 0.78987 0.77340 0.42822
 C1858 C 0.79595 0.77986 0.41573
 C1859 C 0.77622 0.77530 0.45126
 C1860 C 0.76897 0.76869 0.46014
 H1861 H 0.79077 0.81592 0.42461
 H1862 H 0.77988 0.80446 0.44664
 H1863 H 0.78931 0.76152 0.42897
 H1864 H 0.80012 0.77291 0.40703
 C1865 C 0.69337 0.30673 0.61009
 C1866 C 0.69827 0.30148 0.59898
 C1867 C 0.70424 0.29475 0.58600
 C1868 C 0.70472 0.30244 0.57267
 C1869 C 0.71090 0.29581 0.56022
 C1870 C 0.71654 0.28149 0.56112
 C1871 C 0.71594 0.27383 0.57442
 C1872 C 0.70981 0.28042 0.58681
 C1873 C 0.72388 0.27473 0.54889
 C1874 C 0.73085 0.26814 0.53977
 H1875 H 0.70048 0.31355 0.57194
 H1876 H 0.71147 0.30187 0.55002
 H1877 H 0.72045 0.26282 0.57529
 H1878 H 0.70959 0.27440 0.59706
 C1879 C 0.69297 0.80670 1.11008
 C1880 C 0.69780 0.80156 1.09889
 C1881 C 0.70368 0.79493 1.08582
 C1882 C 0.70665 0.77982 1.08572
 C1883 C 0.71291 0.77329 1.07336
 C1884 C 0.71625 0.78179 1.06100
 C1885 C 0.71313 0.79689 1.06098
 C1886 C 0.70682 0.80345 1.07338
 C1887 C 0.72401 0.77499 1.04902
 C1888 C 0.73120 0.76843 1.04004
 H1889 H 0.70436 0.77315 1.09529
 H1890 H 0.71547 0.76164 1.07358
 H1891 H 0.71584 0.80358 1.05153
 H1892 H 0.70462 0.81517 1.07337
 C1893 C 0.19315 0.30656 1.11032
 C1894 C 0.19813 0.30132 1.09924
 C1895 C 0.20420 0.29465 1.08628
 C1896 C 0.20481 0.30243 1.07301
 C1897 C 0.21104 0.29587 1.06056
 C1898 C 0.21662 0.28152 1.06139
 C1899 C 0.21587 0.27375 1.07462
 C1900 C 0.20970 0.28028 1.08702
 C1901 C 0.22409 0.27483 1.04919
 C1902 C 0.23114 0.26828 1.04010
 H1903 H 0.20063 0.31357 1.07234
 H1904 H 0.21169 0.30202 1.05041
 H1905 H 0.22030 0.26270 1.07541
 H1906 H 0.20935 0.27418 1.09722
 C1907 C 0.19320 0.80671 0.61005
 C1908 C 0.19817 0.80151 0.59895
 C1909 C 0.20424 0.79485 0.58599
 C1910 C 0.20493 0.80263 0.57273
 C1911 C 0.21120 0.79605 0.56031
 C1912 C 0.21674 0.78169 0.56117
 C1913 C 0.21590 0.77393 0.57441
 C1914 C 0.20969 0.78048 0.58677
 C1915 C 0.22424 0.77497 0.54901
 C1916 C 0.23133 0.76842 0.53995
 H1917 H 0.20080 0.81380 0.57203
 H1918 H 0.21194 0.80219 0.55016
 H1919 H 0.22031 0.76287 0.57524
 H1920 H 0.20929 0.77439 0.59698
 C1921 C 0.30663 0.69336 0.61009
 C1922 C 0.30200 0.69824 0.59871
 C1923 C 0.29638 0.70432 0.58526
 C1924 C 0.30098 0.71828 0.58065
 C1925 C 0.29485 0.72465 0.56812
 C1926 C 0.28411 0.71709 0.56011
 C1927 C 0.27970 0.70301 0.56456
 C1928 C 0.28584 0.69663 0.57710
 C1929 C 0.27636 0.72458 0.54856
 C1930 C 0.26925 0.73155 0.53984
 H1931 H 0.30901 0.72439 0.58695
 H1932 H 0.29812 0.73565 0.56494
 H1933 H 0.27120 0.69719 0.55861
 H1934 H 0.28211 0.68588 0.58064
 C1935 C 0.30676 0.19361 1.11005
 C1936 C 0.30212 0.19842 1.09865
 C1937 C 0.29645 0.20439 1.08518
 C1938 C 0.30098 0.21834 1.08047
 C1939 C 0.29475 0.22461 1.06794
 C1940 C 0.28399 0.21697 1.06003
 C1941 C 0.27967 0.20290 1.06457
 C1942 C 0.28591 0.19661 1.07711
 C1943 C 0.27612 0.22438 1.04853
 C1944 C 0.26894 0.23129 1.03983
 H1945 H 0.30902 0.22452 1.08669
 H1946 H 0.29795 0.23562 1.06469
 H1947 H 0.27115 0.19702 1.05870
 H1948 H 0.28224 0.18587 1.08072
 C1949 C 0.80660 0.69357 1.11003
 C1950 C 0.80199 0.69840 1.09862
 C1951 C 0.79640 0.70442 1.08515
 C1952 C 0.78582 0.69673 1.07704
 C1953 C 0.77965 0.70309 1.06450
 C1954 C 0.78410 0.71713 1.05999
 C1955 C 0.79490 0.72468 1.06793
 C1956 C 0.80105 0.71833 1.08046
 C1957 C 0.77632 0.72461 1.04847
 C1958 C 0.76919 0.73159 1.03977
 H1959 H 0.78208 0.68599 1.08061
 H1960 H 0.77108 0.69729 1.05862
 H1961 H 0.79818 0.73567 1.06471
 H1962 H 0.80916 0.72442 1.08669
 C1963 C 0.80681 0.19329 0.60989
 C1964 C 0.80205 0.19841 0.59867
 C1965 C 0.79629 0.20492 0.58549
 C1966 C 0.79571 0.22025 0.58425
 C1967 C 0.78954 0.22674 0.57182
 C1968 C 0.78392 0.21796 0.56055
 C1969 C 0.78462 0.20261 0.56168
 C1970 C 0.79083 0.19609 0.57414
 C1971 C 0.77613 0.22489 0.54871
 C1972 C 0.76894 0.23154 0.53982
 H1973 H 0.79976 0.22719 0.59301
 H1974 H 0.78879 0.23862 0.57117
 H1975 H 0.78007 0.19573 0.55313
 H1976 H 0.79112 0.18421 0.57505
 C1977 C 0.69341 0.69345 0.39013
 C1978 C 0.69803 0.69835 0.40150
 C1979 C 0.70363 0.70451 0.41491
 C1980 C 0.69958 0.71879 0.41901
 C1981 C 0.70579 0.72524 0.43144
 C1982 C 0.71606 0.71744 0.43986
 C1983 C 0.71988 0.70303 0.43595
 C1984 C 0.71365 0.69656 0.42350
 C1985 C 0.72391 0.72491 0.45133
 C1986 C 0.73105 0.73186 0.46003
 H1987 H 0.69191 0.72507 0.41240
 H1988 H 0.70297 0.73648 0.43421
 H1989 H 0.72801 0.69699 0.44223
 H1990 H 0.71691 0.68553 0.42039
 C1991 C 0.69355 0.19333 -0.11026
 C1992 C 0.69815 0.19834 -0.09893
 C1993 C 0.70369 0.20469 -0.08559
 C1994 C 0.70145 0.21967 -0.08279
 C1995 C 0.70756 0.22614 -0.07032
 C1996 C 0.71591 0.21768 -0.06055
 C1997 C 0.71795 0.20263 -0.06319
 C1998 C 0.71181 0.19613 -0.07568
 C1999 C 0.72375 0.22489 -0.04891
 C2000 C 0.73095 0.23168 -0.04013
 H2001 H 0.69528 0.22641 -0.09042
 H2002 H 0.70617 0.23784 -0.06854
 H2003 H 0.72461 0.19605 -0.05584
 H2004 H 0.71368 0.18455 -0.07777
 C2005 C 0.19355 0.69341 -0.10992
 C2006 C 0.19827 0.69821 -0.09855
 C2007 C 0.20405 0.70415 -0.08511
 C2008 C 0.21563 0.69701 -0.07786
 C2009 C 0.22195 0.70336 -0.06541
 C2010 C 0.21670 0.71686 -0.06015
 C2011 C 0.20489 0.72381 -0.06720
 C2012 C 0.19857 0.71747 -0.07964
 C2013 C 0.22457 0.72449 -0.04881
 C2014 C 0.23174 0.73152 -0.04022
 H2015 H 0.22002 0.68675 -0.08203
 H2016 H 0.23124 0.69802 -0.06019
 H2017 H 0.20092 0.73438 -0.06337
 H2018 H 0.18970 0.72315 -0.08521
 C2019 C 0.19344 0.19333 0.38995
 C2020 C 0.19805 0.19817 0.40134
 C2021 C 0.20363 0.20428 0.41475
 C2022 C 0.19941 0.21848 0.41898
 C2023 C 0.20560 0.22491 0.43143
 C2024 C 0.21599 0.21716 0.43975
 C2025 C 0.21999 0.20284 0.43571
 C2026 C 0.21379 0.19639 0.42324
 C2027 C 0.22380 0.22463 0.45123
 C2028 C 0.23094 0.23157 0.45992
 H2029 H 0.19163 0.22470 0.41246
 H2030 H 0.20265 0.23610 0.43430
 H2031 H 0.22822 0.19686 0.44190
 H2032 H 0.21718 0.18542 0.42003
 C2033 C 0.30671 0.38971 0.69317
 C2034 C 0.30207 0.40121 0.69786
 C2035 C 0.29616 0.41472 0.70360
 C2036 C 0.28273 0.42010 0.69830
 C2037 C 0.27630 0.43252 0.70469
 C2038 C 0.28329 0.43964 0.71637
 C2039 C 0.29687 0.43443 0.72148
 C2040 C 0.30332 0.42200 0.71508
 C2041 C 0.27567 0.45108 0.72419
 C2042 C 0.26861 0.45975 0.73131
 H2043 H 0.27705 0.41448 0.68951
 H2044 H 0.26567 0.43630 0.70084
 H2045 H 0.30224 0.43970 0.73067
 H2046 H 0.31365 0.41786 0.71935
 C2047 C 0.30722 0.89000 0.19309
 C2048 C 0.30260 0.90141 0.19800
 C2049 C 0.29697 0.91486 0.20416
 C2050 C 0.30029 0.91851 0.21869
 C2051 C 0.29401 0.93099 0.22510
 C2052 C 0.28442 0.93992 0.21700
 C2053 C 0.28137 0.93648 0.20235
 C2054 C 0.28765 0.92398 0.19593
 C2055 C 0.27636 0.95142 0.22428
 C2056 C 0.26898 0.96013 0.23102
 H2057 H 0.30737 0.91148 0.22519
 H2058 H 0.29623 0.93339 0.23651
 H2059 H 0.27377 0.94318 0.19608
 H2060 H 0.28494 0.92120 0.18471
 C2061 C 0.80696 0.39001 0.19307
 C2062 C 0.80207 0.40139 0.19778
 C2063 C 0.79582 0.41479 0.20343
 C2064 C 0.80412 0.42401 0.21254
 C2065 C 0.79766 0.43655 0.21871
 C2066 C 0.78289 0.43989 0.21580
 C2067 C 0.77469 0.43081 0.20650
 C2068 C 0.78112 0.41829 0.20034
 C2069 C 0.77554 0.45141 0.22374
 C2070 C 0.76865 0.46008 0.23101
 H2071 H 0.81546 0.42135 0.21510
 H2072 H 0.80404 0.44341 0.22604
 H2073 H 0.76320 0.43320 0.20434
 H2074 H 0.77455 0.41117 0.19344
 C2075 C 0.80703 0.89017 0.69309
 C2076 C 0.80191 0.90139 0.69798
 C2077 C 0.79526 0.91453 0.70380
 C2078 C 0.77990 0.91563 0.70433
 C2079 C 0.77324 0.92803 0.71047
 C2080 C 0.78188 0.93943 0.71613
 C2081 C 0.79727 0.93847 0.71544
 C2082 C 0.80396 0.92604 0.70925
 C2083 C 0.77478 0.95113 0.72404
 C2084 C 0.76803 0.95992 0.73130
 H2085 H 0.77307 0.90677 0.70027
 H2086 H 0.76134 0.92855 0.71119
 H2087 H 0.80405 0.94712 0.72000
 H2088 H 0.81586 0.92527 0.70899
 C2089 C 0.69278 0.61005 0.69330
 C2090 C 0.69743 0.59876 0.69848
 C2091 C 0.70314 0.58556 0.70510
 C2092 C 0.70338 0.58427 0.72039
 C2093 C 0.70965 0.57189 0.72697
 C2094 C 0.71571 0.56069 0.71831
 C2095 C 0.71525 0.56182 0.70301
 C2096 C 0.70895 0.57423 0.69640
 C2097 C 0.72368 0.54893 0.72531
 C2098 C 0.73097 0.54006 0.73194
 H2099 H 0.69898 0.59298 0.72721
 H2100 H 0.71015 0.57123 0.73882
 H2101 H 0.72009 0.55332 0.69622
 H2102 H 0.70884 0.57513 0.68457
 C2103 C 0.69288 0.10976 0.19314
 C2104 C 0.69745 0.09844 0.19830
 C2105 C 0.70309 0.08521 0.20491
 C2106 C 0.70326 0.08390 0.22019
 C2107 C 0.70975 0.07164 0.22678
 C2108 C 0.71604 0.06056 0.21815
 C2109 C 0.71559 0.06167 0.20284
 C2110 C 0.70908 0.07397 0.19622
 C2111 C 0.72412 0.04892 0.22519
 C2112 C 0.73143 0.04010 0.23186
 H2113 H 0.69870 0.09253 0.22702
 H2114 H 0.71025 0.07101 0.23863
 H2115 H 0.72061 0.05326 0.19608
 H2116 H 0.70900 0.07487 0.18439
 C2117 C 0.19253 0.60983 0.19261
 C2118 C 0.19718 0.59851 0.19772
 C2119 C 0.20289 0.58533 0.20435
 C2120 C 0.20307 0.58413 0.21963
 C2121 C 0.20952 0.57190 0.22630
 C2122 C 0.21577 0.56074 0.21775
 C2123 C 0.21531 0.56174 0.20243
 C2124 C 0.20882 0.57401 0.19573
 C2125 C 0.22379 0.54913 0.22490
 C2126 C 0.23102 0.54034 0.23169
 H2127 H 0.19854 0.59281 0.22641
 H2128 H 0.21004 0.57136 0.23815
 H2129 H 0.22030 0.55326 0.19573
 H2130 H 0.20872 0.57483 0.18389
 C2131 C 0.19274 0.10959 0.69312
 C2132 C 0.19734 0.09830 0.69834
 C2133 C 0.20302 0.08509 0.70497
 C2134 C 0.20337 0.08386 0.72025
 C2135 C 0.20975 0.07153 0.72684
 C2136 C 0.21582 0.06032 0.71820
 C2137 C 0.21523 0.06138 0.70289
 C2138 C 0.20881 0.07374 0.69628
 C2139 C 0.22386 0.04863 0.72521
 C2140 C 0.23121 0.03983 0.73186
 H2141 H 0.19896 0.09257 0.72707
 H2142 H 0.21030 0.07091 0.73869
 H2143 H 0.22003 0.05286 0.69611
 H2144 H 0.20861 0.07458 0.68444
 C2145 C 0.30713 0.61004 0.30665
 C2146 C 0.30247 0.59877 0.30152
 C2147 C 0.29680 0.58550 0.29508
 C2148 C 0.28935 0.57514 0.30372
 C2149 C 0.28312 0.56268 0.29721
 C2150 C 0.28438 0.56055 0.28206
 C2151 C 0.29208 0.57076 0.27349
 C2152 C 0.29828 0.58320 0.27999
 C2153 C 0.27639 0.54896 0.27493
 C2154 C 0.26907 0.54021 0.26825
 H2155 H 0.28808 0.57686 0.31540
 H2156 H 0.27700 0.55496 0.30388
 H2157 H 0.29291 0.56933 0.26174
 H2158 H 0.30393 0.59119 0.27320
 C2159 C 0.30730 0.10985 0.80713
 C2160 C 0.30257 0.09868 0.80184
 C2161 C 0.29675 0.08564 0.79510
 C2162 C 0.29422 0.07287 0.80336
 C2163 C 0.28790 0.06049 0.79675
 C2164 C 0.28417 0.06087 0.78186
 C2165 C 0.28693 0.07357 0.77360
 C2166 C 0.29320 0.08590 0.78019
 C2167 C 0.27646 0.04890 0.77504
 C2168 C 0.26931 0.03996 0.76841
 H2169 H 0.29693 0.07257 0.81491
 H2170 H 0.28570 0.05077 0.80326
 H2171 H 0.28395 0.07402 0.76211
 H2172 H 0.29508 0.09572 0.77372
 C2173 C 0.80700 0.61005 0.80673
 C2174 C 0.80239 0.59879 0.80153
 C2175 C 0.79679 0.58556 0.79496
 C2176 C 0.79134 0.57410 0.80370
 C2177 C 0.78506 0.56167 0.79714
 C2178 C 0.78433 0.56066 0.78184
 C2179 C 0.79005 0.57200 0.77314
 C2180 C 0.79628 0.58440 0.77968
 C2181 C 0.77648 0.54886 0.77487
 C2182 C 0.76927 0.53998 0.76822
 H2183 H 0.79166 0.57492 0.81554
 H2184 H 0.78050 0.55304 0.80396
 H2185 H 0.78934 0.57144 0.76131
 H2186 H 0.80039 0.59322 0.77282
 C2187 C 0.80737 0.11007 0.30649
 C2188 C 0.80285 0.09872 0.30139
 C2189 C 0.79726 0.08535 0.29509
 C2190 C 0.78935 0.07535 0.30374
 C2191 C 0.78301 0.06289 0.29733
 C2192 C 0.78464 0.06037 0.28228
 C2193 C 0.79281 0.07021 0.27371
 C2194 C 0.79912 0.08265 0.28010
 C2195 C 0.77668 0.04872 0.27519
 C2196 C 0.76944 0.03993 0.26845
 H2197 H 0.78778 0.07739 0.31533
 H2198 H 0.77649 0.05549 0.30401
 H2199 H 0.79389 0.06850 0.26201
 H2200 H 0.80512 0.09035 0.27329
 C2201 C 0.69283 0.39002 0.30678
 C2202 C 0.69794 0.40127 0.30200
 C2203 C 0.70450 0.41445 0.29626
 C2204 C 0.71984 0.41591 0.29629
 C2205 C 0.72640 0.42828 0.29002
 C2206 C 0.71767 0.43929 0.28371
 C2207 C 0.70230 0.43798 0.28387
 C2208 C 0.69571 0.42558 0.29018
 C2209 C 0.72474 0.45100 0.27580
 C2210 C 0.73152 0.45982 0.26862
 H2211 H 0.72675 0.40733 0.30087
 H2212 H 0.73830 0.42906 0.28970
 H2213 H 0.69546 0.44632 0.27879
 H2214 H 0.68383 0.42451 0.29005
 C2215 C 0.69299 0.88989 0.80692
 C2216 C 0.69787 0.90128 0.80224
 C2217 C 0.70413 0.91467 0.79663
 C2218 C 0.69554 0.92450 0.78844
 C2219 C 0.70199 0.93703 0.78224
 C2220 C 0.71704 0.93975 0.78425
 C2221 C 0.72553 0.93005 0.79267
 C2222 C 0.71910 0.91755 0.79885
 C2223 C 0.72426 0.95139 0.77635
 C2224 C 0.73108 0.96014 0.76913
 H2225 H 0.68397 0.92231 0.78657
 H2226 H 0.69538 0.94432 0.77554
 H2227 H 0.73723 0.93190 0.79407
 H2228 H 0.72587 0.90996 0.80504
 C2229 C 0.19277 0.38984 0.80691
 C2230 C 0.19773 0.40118 0.80218
 C2231 C 0.20406 0.41452 0.79648
 C2232 C 0.19552 0.42431 0.78819
 C2233 C 0.20203 0.43675 0.78188
 C2234 C 0.21708 0.43945 0.78389
 C2235 C 0.22552 0.42981 0.79242
 C2236 C 0.21904 0.41739 0.79871
 C2237 C 0.22433 0.45103 0.77592
 C2238 C 0.23117 0.45978 0.76869
 H2239 H 0.18394 0.42215 0.78634
 H2240 H 0.19546 0.44401 0.77510
 H2241 H 0.23722 0.43164 0.79382
 H2242 H 0.22577 0.40985 0.80501
 C2243 C 0.19292 0.88982 0.30660
 C2244 C 0.19819 0.90088 0.30156
 C2245 C 0.20489 0.91382 0.29542
 C2246 C 0.21940 0.91310 0.29028
 C2247 C 0.22591 0.92546 0.28396
 C2248 C 0.21799 0.93862 0.28271
 C2249 C 0.20352 0.93944 0.28798
 C2250 C 0.19698 0.92704 0.29436
 C2251 C 0.22465 0.95071 0.27504
 C2252 C 0.23119 0.95972 0.26788
 H2253 H 0.22561 0.90294 0.29100
 H2254 H 0.23706 0.92469 0.27978
 H2255 H 0.19725 0.94953 0.28695
 H2256 H 0.18574 0.92769 0.29830
 C2257 C 0.38959 0.30721 0.69337
 C2258 C 0.40076 0.30234 0.69861
 C2259 C 0.41372 0.29621 0.70533
 C2260 C 0.41258 0.29011 0.71935
 C2261 C 0.42488 0.28374 0.72597
 C2262 C 0.43843 0.28340 0.71862
 C2263 C 0.43965 0.28958 0.70461
 C2264 C 0.42729 0.29599 0.69795
 C2265 C 0.45060 0.27586 0.72538
 C2266 C 0.45970 0.26873 0.73187
 H2267 H 0.40213 0.29015 0.72509
 H2268 H 0.42379 0.27893 0.73678
 H2269 H 0.45006 0.28931 0.69882
 H2270 H 0.42830 0.30061 0.68706
 C2271 C 0.38989 0.80726 0.19316
 C2272 C 0.40132 0.80254 0.19795
 C2273 C 0.41481 0.79665 0.20379
 C2274 C 0.42112 0.80289 0.21633
 C2275 C 0.43355 0.79642 0.22272
 C2276 C 0.43973 0.78372 0.21656
 C2277 C 0.43366 0.77772 0.20379
 C2278 C 0.42124 0.78418 0.19741
 C2279 C 0.45106 0.77586 0.22430
 C2280 C 0.45971 0.76868 0.23132
 H2281 H 0.41618 0.81246 0.22141
 H2282 H 0.43800 0.80100 0.23273
 H2283 H 0.43820 0.76775 0.19910
 H2284 H 0.41639 0.77921 0.18777
 C2285 C 0.88976 0.30741 0.19347
 C2286 C 0.90111 0.30276 0.19852
 C2287 C 0.91444 0.29693 0.20478
 C2288 C 0.92348 0.28752 0.19657
 C2289 C 0.93593 0.28113 0.20301
 C2290 C 0.93937 0.28414 0.21766
 C2291 C 0.93044 0.29371 0.22578
 C2292 C 0.91800 0.30008 0.21937
 C2293 C 0.95089 0.27613 0.22496
 C2294 C 0.95961 0.26884 0.23177
 H2295 H 0.92077 0.28491 0.18532
 H2296 H 0.94267 0.27360 0.19669
 H2297 H 0.93293 0.29595 0.23717
 H2298 H 0.91103 0.30725 0.22585
 C2299 C 0.89004 0.80754 0.69329
 C2300 C 0.90143 0.80290 0.69828
 C2301 C 0.91488 0.79718 0.70439
 C2302 C 0.92318 0.78677 0.69661
 C2303 C 0.93561 0.78036 0.70304
 C2304 C 0.93982 0.78437 0.71725
 C2305 C 0.93172 0.79503 0.72488
 C2306 C 0.91929 0.80142 0.71847
 C2307 C 0.95125 0.77637 0.72470
 C2308 C 0.95992 0.76910 0.73159
 H2309 H 0.91978 0.78333 0.68577
 H2310 H 0.94167 0.77196 0.69715
 H2311 H 0.93474 0.79802 0.73596
 H2312 H 0.91289 0.80935 0.72464
 C2313 C 0.60998 0.30723 0.30663
 C2314 C 0.59882 0.30202 0.30176
 C2315 C 0.58578 0.29530 0.29582
 C2316 C 0.57302 0.30363 0.29330
 C2317 C 0.56064 0.29706 0.28690
 C2318 C 0.56101 0.28213 0.28310
 C2319 C 0.57371 0.27381 0.28583
 C2320 C 0.58603 0.28035 0.29218
 C2321 C 0.54898 0.27533 0.27543
 C2322 C 0.53999 0.26869 0.26834
 H2323 H 0.57274 0.31521 0.29607
 H2324 H 0.55095 0.30363 0.28466
 H2325 H 0.57419 0.26231 0.28273
 H2326 H 0.59584 0.27380 0.29404
 C2327 C 0.60999 0.80749 0.80672
 C2328 C 0.59885 0.80260 0.80145
 C2329 C 0.58586 0.79656 0.79473
 C2330 C 0.57279 0.79481 0.80275
 C2331 C 0.56040 0.78847 0.79614
 C2332 C 0.56108 0.78389 0.78149
 C2333 C 0.57411 0.78580 0.77349
 C2334 C 0.58645 0.79209 0.78008
 C2335 C 0.54901 0.77625 0.77471
 C2336 C 0.53999 0.76911 0.76816
 H2337 H 0.57224 0.79818 0.81412
 H2338 H 0.55041 0.78696 0.80245
 H2339 H 0.57481 0.78219 0.76219
 H2340 H 0.59651 0.79329 0.77381
 C2341 C 0.10983 0.30739 0.80671
 C2342 C 0.09851 0.30272 0.80163
 C2343 C 0.08522 0.29700 0.79521
 C2344 C 0.07484 0.28958 0.80385
 C2345 C 0.06244 0.28320 0.79732
 C2346 C 0.06037 0.28429 0.78214
 C2347 C 0.07062 0.29197 0.77358
 C2348 C 0.08299 0.29831 0.78009
 C2349 C 0.04877 0.27626 0.77501
 C2350 C 0.04000 0.26894 0.76831
 H2351 H 0.07651 0.28843 0.81555
 H2352 H 0.05470 0.27711 0.80401
 H2353 H 0.06926 0.29267 0.76181
 H2354 H 0.09100 0.30392 0.77329
 C2355 C 0.11006 0.80717 0.30639
 C2356 C 0.09867 0.80252 0.30146
 C2357 C 0.08526 0.79685 0.29529
 C2358 C 0.07634 0.78725 0.30340
 C2359 C 0.06382 0.78103 0.29699
 C2360 C 0.06017 0.78443 0.28246
 C2361 C 0.06892 0.79425 0.27447
 C2362 C 0.08143 0.80046 0.28087
 C2363 C 0.04865 0.77651 0.27512
 C2364 C 0.03996 0.76924 0.26831
 H2365 H 0.07925 0.78432 0.31453
 H2366 H 0.05727 0.77325 0.30317
 H2367 H 0.06635 0.79674 0.26315
 H2368 H 0.08831 0.80778 0.27448
 C2369 C 0.61013 0.69276 0.69330
 C2370 C 0.59893 0.69754 0.69858
 C2371 C 0.58589 0.70346 0.70536
 C2372 C 0.57293 0.70548 0.69726
 C2373 C 0.56050 0.71176 0.70389
 C2374 C 0.56101 0.71597 0.71865
 C2375 C 0.57392 0.71375 0.72676
 C2376 C 0.58631 0.70752 0.72014
 C2377 C 0.54893 0.72364 0.72541
 C2378 C 0.53990 0.73081 0.73195
 H2379 H 0.57251 0.70238 0.68581
 H2380 H 0.55062 0.71356 0.69749
 H2381 H 0.57448 0.71712 0.73814
 H2382 H 0.59627 0.70604 0.72650
 C2383 C 0.61023 0.19242 0.19303
 C2384 C 0.59912 0.19740 0.19830
 C2385 C 0.58623 0.20368 0.20501
 C2386 C 0.58772 0.21149 0.21812
 C2387 C 0.57544 0.21802 0.22461
 C2388 C 0.56155 0.21678 0.21807
 C2389 C 0.55997 0.20887 0.20500
 C2390 C 0.57232 0.20230 0.19847
 C2391 C 0.54929 0.22422 0.22477
 C2392 C 0.54016 0.23124 0.23132
 H2393 H 0.59840 0.21266 0.22327
 H2394 H 0.57680 0.22419 0.23467
 H2395 H 0.54928 0.20792 0.19984
 H2396 H 0.57106 0.19628 0.18832
 C2397 C 0.10987 0.69263 0.19243
 C2398 C 0.09874 0.69757 0.19770
 C2399 C 0.08594 0.70384 0.20459
 C2400 C 0.07191 0.70239 0.19834
 C2401 C 0.05967 0.70889 0.20513
 C2402 C 0.06148 0.71680 0.21817
 C2403 C 0.07549 0.71808 0.22444
 C2404 C 0.08766 0.71162 0.21769
 C2405 C 0.04933 0.72422 0.22511
 C2406 C 0.04025 0.73121 0.23178
 H2407 H 0.07045 0.69635 0.18822
 H2408 H 0.04888 0.70789 0.20020
 H2409 H 0.07704 0.72421 0.23449
 H2410 H 0.09843 0.71279 0.22263
 C2411 C 0.11005 0.19226 0.69297
 C2412 C 0.09897 0.19724 0.69830
 C2413 C 0.08612 0.20351 0.70509
 C2414 C 0.07214 0.20197 0.69875
 C2415 C 0.05981 0.20846 0.70540
 C2416 C 0.06149 0.21646 0.71840
 C2417 C 0.07545 0.21787 0.72475
 C2418 C 0.08771 0.21142 0.71813
 C2419 C 0.04925 0.22382 0.72524
 C2420 C 0.04014 0.23082 0.73187
 H2421 H 0.07078 0.19586 0.68865
 H2422 H 0.04907 0.20733 0.70038
 H2423 H 0.07688 0.22407 0.73479
 H2424 H 0.09846 0.21268 0.72311
 C2425 C 0.38974 0.69284 0.30697
 C2426 C 0.40090 0.69801 0.30206
 C2427 C 0.41395 0.70468 0.29611
 C2428 C 0.42629 0.69611 0.29254
 C2429 C 0.43872 0.70271 0.28625
 C2430 C 0.43882 0.71789 0.28360
 C2431 C 0.42654 0.72643 0.28733
 C2432 C 0.41415 0.71986 0.29357
 C2433 C 0.45077 0.72475 0.27585
 C2434 C 0.45971 0.73139 0.26868
 H2435 H 0.42619 0.68434 0.29439
 H2436 H 0.44806 0.69596 0.28318
 H2437 H 0.42641 0.73814 0.28507
 H2438 H 0.40464 0.72658 0.29617
 C2439 C 0.38979 0.19237 0.80720
 C2440 C 0.40088 0.19733 0.80190
 C2441 C 0.41376 0.20359 0.79513
 C2442 C 0.42779 0.20160 0.80125
 C2443 C 0.44013 0.20806 0.79463
 C2444 C 0.43842 0.21648 0.78187
 C2445 C 0.42439 0.21835 0.77576
 C2446 C 0.41212 0.21193 0.78236
 C2447 C 0.45069 0.22373 0.77501
 C2448 C 0.45980 0.23066 0.76833
 H2449 H 0.42918 0.19516 0.81114
 H2450 H 0.45092 0.20660 0.79946
 H2451 H 0.42293 0.22489 0.76594
 H2452 H 0.40133 0.21353 0.77755
 C2453 C 0.88966 0.69260 0.80686
 C2454 C 0.90067 0.69768 0.80150
 C2455 C 0.91351 0.70398 0.79476
 C2456 C 0.91192 0.71209 0.78183
 C2457 C 0.92420 0.71852 0.77526
 C2458 C 0.93817 0.71690 0.78156
 C2459 C 0.93983 0.70871 0.79447
 C2460 C 0.92749 0.70223 0.80106
 C2461 C 0.95045 0.72419 0.77477
 C2462 C 0.95961 0.73111 0.76817
 H2463 H 0.90116 0.71353 0.77690
 H2464 H 0.92277 0.72488 0.76532
 H2465 H 0.95058 0.70743 0.79945
 H2466 H 0.92881 0.69598 0.81108
 C2467 C 0.88964 0.19264 0.30642
 C2468 C 0.90107 0.19718 0.30145
 C2469 C 0.91455 0.20284 0.29538
 C2470 C 0.91875 0.19899 0.28112
 C2471 C 0.93123 0.20538 0.27479
 C2472 C 0.93957 0.21560 0.28269
 C2473 C 0.93555 0.21921 0.29707
 C2474 C 0.92308 0.21280 0.30342
 C2475 C 0.95110 0.22359 0.27537
 C2476 C 0.95981 0.23084 0.26851
 H2477 H 0.91218 0.19138 0.27477
 H2478 H 0.93409 0.20272 0.26357
 H2479 H 0.94177 0.22730 0.30318
 H2480 H 0.91986 0.21590 0.31442
 C2481 C 0.30672 0.30670 0.60988
 C2482 C 0.30183 0.30145 0.59878
 C2483 C 0.29591 0.29473 0.58580
 C2484 C 0.29385 0.30296 0.57295
 C2485 C 0.28762 0.29635 0.56054
 C2486 C 0.28352 0.28151 0.56099
 C2487 C 0.28577 0.27329 0.57378
 C2488 C 0.29194 0.27987 0.58613
 C2489 C 0.27588 0.27473 0.54897
 C2490 C 0.26875 0.26813 0.54001
 H2491 H 0.29685 0.31448 0.57259
 H2492 H 0.28578 0.30283 0.55075
 H2493 H 0.28246 0.26186 0.57428
 H2494 H 0.29341 0.27341 0.59601
 C2495 C 0.30671 0.80702 0.10989
 C2496 C 0.30156 0.80219 0.09872
 C2497 C 0.29503 0.79632 0.08562
 C2498 C 0.30376 0.79281 0.07343
 C2499 C 0.29733 0.78652 0.06098
 C2500 C 0.28215 0.78377 0.06071
 C2501 C 0.27344 0.78750 0.07282
 C2502 C 0.27985 0.79375 0.08524
 C2503 C 0.27550 0.77590 0.04877
 C2504 C 0.26903 0.76861 0.03983
 H2505 H 0.31553 0.79469 0.07365
 H2506 H 0.30418 0.78352 0.05173
 H2507 H 0.26172 0.78525 0.07280
 H2508 H 0.27300 0.79632 0.09462
 C2509 C 0.80688 0.30698 0.10986
 C2510 C 0.80178 0.30176 0.09885
 C2511 C 0.79548 0.29508 0.08604
 C2512 C 0.79714 0.30159 0.07220
 C2513 C 0.79092 0.29495 0.05983
 C2514 C 0.78305 0.28179 0.06130
 C2515 C 0.78143 0.27531 0.07514
 C2516 C 0.78760 0.28193 0.08747
 C2517 C 0.77592 0.27501 0.04899
 C2518 C 0.76903 0.26842 0.03983
 H2519 H 0.80316 0.31179 0.07101
 H2520 H 0.79214 0.30010 0.04920
 H2521 H 0.77525 0.26520 0.07640
 H2522 H 0.78618 0.27683 0.09811
 C2523 C 0.80686 0.80708 0.61003
 C2524 C 0.80164 0.80192 0.59905
 C2525 C 0.79510 0.79541 0.58628
 C2526 C 0.79946 0.79968 0.57215
 C2527 C 0.79298 0.79311 0.55985
 C2528 C 0.78217 0.78230 0.56172
 C2529 C 0.77785 0.77810 0.57585
 C2530 C 0.78428 0.78463 0.58808
 C2531 C 0.77524 0.77528 0.54942
 C2532 C 0.76852 0.76851 0.54027
 H2533 H 0.80782 0.80803 0.57067
 H2534 H 0.79637 0.79643 0.54895
 H2535 H 0.76949 0.76976 0.57743
 H2536 H 0.78082 0.78126 0.59894
 C2537 C 0.30645 0.69324 0.38972
 C2538 C 0.30188 0.69807 0.40116
 C2539 C 0.29634 0.70409 0.41466
 C2540 C 0.28555 0.69654 0.42267
 C2541 C 0.27940 0.70294 0.43520
 C2542 C 0.28406 0.71687 0.43981
 C2543 C 0.29510 0.72424 0.43200
 C2544 C 0.30124 0.71787 0.41947
 C2545 C 0.27628 0.72442 0.45128
 C2546 C 0.26916 0.73145 0.45995
 H2547 H 0.28162 0.68592 0.41900
 H2548 H 0.27068 0.69726 0.44100
 H2549 H 0.29857 0.73514 0.43532
 H2550 H 0.30950 0.72385 0.41333
 C2551 C 0.30637 0.19307 0.89004
 C2552 C 0.30170 0.19790 0.90142
 C2553 C 0.29602 0.20391 0.91486
 C2554 C 0.30075 0.21776 0.91964
 C2555 C 0.29449 0.22410 0.93212
 C2556 C 0.28351 0.21662 0.93989
 C2557 C 0.27899 0.20264 0.93530
 C2558 C 0.28525 0.19629 0.92281
 C2559 C 0.27561 0.22410 0.95132
 C2560 C 0.26839 0.23102 0.95998
 H2561 H 0.30896 0.22382 0.91349
 H2562 H 0.29785 0.23504 0.93541
 H2563 H 0.27030 0.19690 0.94107
 H2564 H 0.28142 0.18563 0.91913
 C2565 C 0.80659 0.69305 0.89010
 C2566 C 0.80195 0.69792 0.90147
 C2567 C 0.79633 0.70403 0.91489
 C2568 C 0.78543 0.69659 0.92284
 C2569 C 0.77922 0.70308 0.93530
 C2570 C 0.78394 0.71701 0.93986
 C2571 C 0.79508 0.72428 0.93211
 C2572 C 0.80128 0.71780 0.91967
 C2573 C 0.77616 0.72467 0.95126
 C2574 C 0.76906 0.73175 0.95990
 H2575 H 0.78147 0.68597 0.91920
 H2576 H 0.77043 0.69749 0.94106
 H2577 H 0.79861 0.73516 0.93540
 H2578 H 0.80964 0.72369 0.91357
 C2579 C 0.80671 0.19306 0.38990
 C2580 C 0.80205 0.19792 0.40128
 C2581 C 0.79641 0.20396 0.41471
 C2582 C 0.80131 0.21773 0.41955
 C2583 C 0.79518 0.22407 0.43210
 C2584 C 0.78414 0.21668 0.43987
 C2585 C 0.77944 0.20277 0.43522
 C2586 C 0.78558 0.19642 0.42266
 C2587 C 0.77632 0.22422 0.45132
 C2588 C 0.76914 0.23123 0.45994
 H2589 H 0.80956 0.22373 0.41340
 H2590 H 0.79868 0.23495 0.43545
 H2591 H 0.77072 0.19709 0.44100
 H2592 H 0.78161 0.18583 0.41893
 C2593 C 0.69292 0.30688 0.38986
 C2594 C 0.69790 0.30162 0.40092
 C2595 C 0.70401 0.29486 0.41380
 C2596 C 0.70967 0.28058 0.41285
 C2597 C 0.71597 0.27395 0.42512
 C2598 C 0.71666 0.28154 0.43845
 C2599 C 0.71092 0.29581 0.43949
 C2600 C 0.70457 0.30247 0.42716
 C2601 C 0.72414 0.27473 0.45056
 C2602 C 0.73119 0.26811 0.45960
 H2603 H 0.70936 0.27463 0.40257
 H2604 H 0.72052 0.26297 0.42416
 H2605 H 0.71153 0.30182 0.44971
 H2606 H 0.70026 0.31355 0.42799
 C2607 C 0.69316 0.80661 0.88987
 C2608 C 0.69789 0.80157 0.90114
 C2609 C 0.70357 0.79516 0.91439
 C2610 C 0.70328 0.77987 0.91616
 C2611 C 0.70941 0.77346 0.92865
 C2612 C 0.71586 0.78228 0.93945
 C2613 C 0.71594 0.79760 0.93782
 C2614 C 0.70978 0.80404 0.92531
 C2615 C 0.72382 0.77534 0.95118
 C2616 C 0.73113 0.76869 0.95998
 H2617 H 0.69862 0.77289 0.90774
 H2618 H 0.70952 0.76158 0.92968
 H2619 H 0.72111 0.80450 0.94600
 H2620 H 0.71013 0.81588 0.92400
 C2621 C 0.19326 0.30676 0.88977
 C2622 C 0.19852 0.30194 0.90090
 C2623 C 0.20514 0.29609 0.91398
 C2624 C 0.22018 0.29271 0.91403
 C2625 C 0.22662 0.28649 0.92647
 C2626 C 0.21807 0.28361 0.93893
 C2627 C 0.20306 0.28715 0.93897
 C2628 C 0.19660 0.29341 0.92650
 C2629 C 0.22471 0.27586 0.95097
 C2630 C 0.23121 0.26864 0.95996
 H2631 H 0.22689 0.29466 0.90440
 H2632 H 0.23820 0.28360 0.92625
 H2633 H 0.19632 0.28479 0.94848
 H2634 H 0.18495 0.29596 0.92654
 C2635 C 0.19285 0.80679 0.38981
 C2636 C 0.19791 0.80158 0.40086
 C2637 C 0.20419 0.79493 0.41372
 C2638 C 0.21182 0.78163 0.41234
 C2639 C 0.21823 0.77510 0.42460
 C2640 C 0.21709 0.78180 0.43837
 C2641 C 0.20942 0.79510 0.43984
 C2642 C 0.20295 0.80167 0.42751
 C2643 C 0.22442 0.77505 0.45062
 C2644 C 0.23139 0.76846 0.45975
 H2645 H 0.21291 0.77636 0.40174
 H2646 H 0.22423 0.76487 0.42330
 H2647 H 0.20856 0.80040 0.45043
 H2648 H 0.19712 0.81200 0.42868
 C2649 C 0.69347 0.69337 0.61010
 C2650 C 0.69815 0.69817 0.59870
 C2651 C 0.70382 0.70413 0.58522
 C2652 C 0.71505 0.69678 0.57763
 C2653 C 0.72121 0.70308 0.56506
 C2654 C 0.71614 0.71673 0.56001
 C2655 C 0.70469 0.72391 0.56742
 C2656 C 0.69854 0.71762 0.57999
 C2657 C 0.72392 0.72428 0.54855
 C2658 C 0.73106 0.73129 0.53990
 H2659 H 0.71930 0.68639 0.58164
 H2660 H 0.73024 0.69756 0.55956
 H2661 H 0.70088 0.73459 0.56376
 H2662 H 0.68994 0.72346 0.58582
 C2663 C 0.69343 0.19315 0.11000
 C2664 C 0.69830 0.19842 0.09889
 C2665 C 0.70422 0.20516 0.08591
 C2666 C 0.70878 0.21984 0.08643
 C2667 C 0.71495 0.22643 0.07406
 C2668 C 0.71661 0.21839 0.06107
 C2669 C 0.71195 0.20373 0.06046
 C2670 C 0.70573 0.19711 0.07288
 C2671 C 0.72411 0.22516 0.04895
 C2672 C 0.73117 0.23175 0.03991
 H2673 H 0.70775 0.22615 0.09645
 H2674 H 0.71870 0.23772 0.07469
 H2675 H 0.71334 0.19739 0.05051
 H2676 H 0.70228 0.18572 0.07238
 C2677 C 0.19357 0.69367 0.10992
 C2678 C 0.19827 0.69873 0.09863
 C2679 C 0.20393 0.70496 0.08527
 C2680 C 0.21199 0.69622 0.07546
 C2681 C 0.21817 0.70250 0.06288
 C2682 C 0.21628 0.71753 0.06005
 C2683 C 0.20796 0.72618 0.06970
 C2684 C 0.20181 0.71992 0.08228
 C2685 C 0.22431 0.72456 0.04840
 C2686 C 0.23169 0.73122 0.03965
 H2687 H 0.21375 0.68465 0.07771
 H2688 H 0.22476 0.69577 0.05560
 H2689 H 0.20664 0.73786 0.06772
 H2690 H 0.19568 0.72682 0.08981
 C2691 C 0.19328 0.19308 0.61005
 C2692 C 0.19794 0.19813 0.59875
 C2693 C 0.20353 0.20449 0.58542
 C2694 C 0.21174 0.19596 0.57557
 C2695 C 0.21786 0.20245 0.56305
 C2696 C 0.21572 0.21747 0.56034
 C2697 C 0.20732 0.22592 0.57009
 C2698 C 0.20123 0.21945 0.58258
 C2699 C 0.22353 0.22469 0.54868
 C2700 C 0.23071 0.23149 0.53989
 H2701 H 0.21370 0.18440 0.57773
 H2702 H 0.22459 0.19589 0.55574
 H2703 H 0.20587 0.23761 0.56826
 H2704 H 0.19503 0.22620 0.59019
   
