data_POSCAR
  _audit_creation_date              2014-09-24
  _audit_creation_method            'ToBaCCo'
  _symmetry_space_group_name_H-M    'P1'
  _symmetry_Int_Tables_number       1
  _symmetry_cell_setting            triclinic
  loop_
  _symmetry_equiv_pos_as_xyz
 x,y,z
_cell_length_a 60.4573
_cell_length_b 60.7413
_cell_length_c 59.8404
_cell_angle_alpha 90.122600
_cell_angle_beta 90.063400
_cell_angle_gamma 89.765700
loop_
  _atom_site_label
  _atom_site_type_symbol
  _atom_site_fract_x
  _atom_site_fract_y
  _atom_site_fract_z
N1 N 0.37686 1.36913 0.32011
 N2 N 0.36117 1.38388 0.32295
 C3 C 0.36146 1.39805 0.30563
 C4 C 0.37793 1.39141 0.29082
 C5 C 0.38735 1.37299 0.30076
 H6 H 0.34985 1.41148 0.30351
 H7 H 0.40110 1.36323 0.29472
 Cu8 Cu 0.34084 1.38187 0.34820
 Cu9 Cu 0.38280 1.34624 0.34197
 Cu10 Cu 0.33493 1.33040 0.36855
 N11 N 0.31677 1.37421 0.36834
 N12 N 0.31413 1.35395 0.37547
 C13 C 0.29537 1.35275 0.38742
 C14 C 0.28563 1.37351 0.38813
 C15 C 0.29990 1.38673 0.37583
 H16 H 0.28949 1.33779 0.39508
 H17 H 0.29781 1.40393 0.37174
 N18 N 0.36176 1.31180 0.36726
 N19 N 0.38033 1.31828 0.35785
 C20 C 0.39598 1.30277 0.36086
 C21 C 0.38684 1.28557 0.37281
 C22 C 0.36509 1.29190 0.37656
 H23 H 0.41273 1.30394 0.35466
 H24 H 0.35276 1.28305 0.38600
 H25 H 0.34965 1.34339 0.34027
 H26 H 0.36002 1.35246 0.36826
 N27 N 0.37286 0.86545 0.81506
 N28 N 0.36371 0.88410 0.82137
 C29 C 0.36726 0.89950 0.80566
 C30 C 0.37924 0.88994 0.78845
 C31 C 0.38253 0.86831 0.79505
 H32 H 0.36091 0.91615 0.80637
 H33 H 0.39140 0.85561 0.78605
 Cu34 Cu 0.34636 0.88596 0.84846
 Cu35 Cu 0.37195 0.83907 0.83350
 Cu36 Cu 0.33887 0.84155 0.88074
 N37 N 0.32129 0.88377 0.86845
 N38 N 0.31776 0.86610 0.88054
 C39 C 0.29853 0.86864 0.89168
 C40 C 0.28961 0.88905 0.88622
 C41 C 0.30459 0.89815 0.87147
 H42 H 0.29158 0.85653 0.90285
 H43 H 0.30311 0.91375 0.86291
 N44 N 0.35718 0.81551 0.87310
 N45 N 0.36910 0.81437 0.85464
 C46 C 0.37974 0.79488 0.85404
 C47 C 0.37450 0.78318 0.87310
 C48 C 0.36014 0.79679 0.88483
 H49 H 0.39122 0.78988 0.84114
 H50 H 0.35247 0.79334 0.90076
 H51 H 0.34131 0.84634 0.84724
 H52 H 0.36624 0.85407 0.86384
 N53 N 0.86899 1.34987 0.81160
 N54 N 0.85793 1.36846 0.81303
 C55 C 0.86360 1.38150 0.79582
 C56 C 0.87890 1.37034 0.78260
 C57 C 0.88178 1.35023 0.79323
 H58 H 0.85656 1.39763 0.79289
 H59 H 0.89279 1.33700 0.78841
 Cu60 Cu 0.83656 1.37352 0.83679
 Cu61 Cu 0.86699 1.32719 0.83437
 Cu62 Cu 0.82573 1.33319 0.87395
 N63 N 0.81060 1.37449 0.85593
 N64 N 0.80695 1.35927 0.87106
 C65 C 0.78841 1.36446 0.88241
 C66 C 0.77983 1.38379 0.87369
 C67 C 0.79429 1.38965 0.85684
 H68 H 0.78133 1.35461 0.89560
 H69 H 0.79312 1.40397 0.84618
 N70 N 0.84658 1.30802 0.87370
 N71 N 0.86252 1.30605 0.85877
 C72 C 0.87427 1.28769 0.86310
 C73 C 0.86519 1.27741 0.88148
 C74 C 0.84758 1.29070 0.88774
 H75 H 0.88821 1.28195 0.85337
 H76 H 0.83651 1.28804 0.90165
 H77 H 0.83380 1.33381 0.84054
 H78 H 0.85430 1.34594 0.86049
 N79 N 0.87777 0.85315 0.31810
 N80 N 0.86060 0.86555 0.31323
 C81 C 0.86458 0.87666 0.29435
 C82 C 0.88565 0.87130 0.28692
 C83 C 0.89365 0.85642 0.30267
 H84 H 0.85313 0.88830 0.28706
 H85 H 0.90946 0.84803 0.30263
 Cu86 Cu 0.83503 0.86716 0.33245
 Cu87 Cu 0.87733 0.83340 0.34384
 Cu88 Cu 0.82502 0.82531 0.36672
 N89 N 0.81199 0.86911 0.35474
 N90 N 0.80744 0.85230 0.36769
 C91 C 0.78945 0.85716 0.38000
 C92 C 0.78261 0.87832 0.37462
 C93 C 0.79737 0.88541 0.35858
 H94 H 0.78192 0.84610 0.39188
 H95 H 0.79694 0.90090 0.34972
 N96 N 0.84986 0.80480 0.37125
 N97 N 0.86991 0.80824 0.36330
 C98 C 0.88308 0.79133 0.36934
 C99 C 0.87071 0.77652 0.38167
 C100 C 0.84972 0.78570 0.38255
 H101 H 0.90020 0.78958 0.36440
 H102 H 0.83536 0.77904 0.39084
 H103 H 0.84463 0.82851 0.33780
 H104 H 0.85094 0.84567 0.36290
 N105 N 0.61639 0.63205 0.32533
 N106 N 0.63478 0.62179 0.31979
 C107 C 0.63159 0.61115 0.30026
 C108 C 0.60991 0.61478 0.29339
 C109 C 0.60078 0.62797 0.30986
 H110 H 0.64412 0.60163 0.29165
 H111 H 0.58435 0.63509 0.31004
 Cu112 Cu 0.66095 0.62369 0.33894
 Cu113 Cu 0.61486 0.65199 0.35075
 Cu114 Cu 0.66626 0.67085 0.36752
 N115 N 0.68649 0.62886 0.35828
 N116 N 0.68869 0.64762 0.36904
 C117 C 0.70790 0.64741 0.38043
 C118 C 0.71830 0.62730 0.37691
 C119 C 0.70413 0.61593 0.36274
 H120 H 0.71363 0.66083 0.39080
 H121 H 0.70662 0.59962 0.35590
 N122 N 0.63853 0.68737 0.37278
 N123 N 0.61891 0.67952 0.36744
 C124 C 0.60330 0.69445 0.37277
 C125 C 0.61351 0.71276 0.38190
 C126 C 0.63591 0.70756 0.38175
 H127 H 0.58590 0.69249 0.36914
 H128 H 0.64939 0.71775 0.38749
 H129 H 0.64575 0.66082 0.34131
 H130 H 0.64440 0.64613 0.36862
 N131 N 0.64768 0.16350 0.79270
 N132 N 0.65629 0.14434 0.79808
 C133 C 0.64980 0.12930 0.78282
 C134 C 0.63671 0.13988 0.76685
 C135 C 0.63603 0.16163 0.77376
 H136 H 0.65427 0.11206 0.78340
 H137 H 0.62642 0.17491 0.76663
 Cu138 Cu 0.67469 0.14113 0.82498
 Cu139 Cu 0.64883 0.18839 0.81245
 Cu140 Cu 0.68430 0.18943 0.85487
 N141 N 0.69833 0.14401 0.84799
 N142 N 0.70218 0.16263 0.85874
 C143 C 0.71992 0.16006 0.87203
 C144 C 0.72783 0.13878 0.86964
 C145 C 0.71365 0.12903 0.85429
 H146 H 0.72657 0.17284 0.88266
 H147 H 0.71488 0.11252 0.84760
 N148 N 0.65843 0.20878 0.85412
 N149 N 0.64405 0.20755 0.83770
 C150 C 0.62744 0.22184 0.84136
 C151 C 0.63177 0.23291 0.86102
 C152 C 0.65168 0.22435 0.86866
 H153 H 0.61357 0.22439 0.83021
 H154 H 0.66043 0.22888 0.88376
 H155 H 0.68459 0.17321 0.82342
 H156 H 0.66236 0.16696 0.84403
 N157 N 1.11680 0.62865 0.82334
 N158 N 1.13236 0.61370 0.82590
 C159 C 1.13181 0.59965 0.80846
 C160 C 1.11510 0.60634 0.79413
 C161 C 1.10590 0.62477 0.80415
 H162 H 1.14314 0.58603 0.80605
 H163 H 1.09227 0.63464 0.79799
 Cu164 Cu 1.15270 0.61475 0.85108
 Cu165 Cu 1.11168 0.65177 0.84527
 Cu166 Cu 1.15749 0.66336 0.87782
 N167 N 1.17832 0.62162 0.86936
 N168 N 1.18046 0.64097 0.87895
 C169 C 1.20001 0.64181 0.88961
 C170 C 1.21078 0.62189 0.88659
 C171 C 1.19646 0.60942 0.87365
 H172 H 1.20580 0.65580 0.89911
 H173 H 1.19924 0.59294 0.86734
 N174 N 1.13220 0.68360 0.87478
 N175 N 1.11434 0.67885 0.86308
 C176 C 1.09958 0.69539 0.86528
 C177 C 1.10867 0.71135 0.87903
 C178 C 1.12934 0.70327 0.88471
 H179 H 1.08354 0.69584 0.85730
 H180 H 1.14119 0.71089 0.89580
 H181 H 1.14529 0.65386 0.84693
 H182 H 1.13162 0.64246 0.87233
 N183 N 1.11842 0.13306 0.32195
 N184 N 1.13075 0.11546 0.32509
 C185 C 1.12746 0.10115 0.30826
 C186 C 1.11232 0.11023 0.29358
 C187 C 1.10689 0.13055 0.30280
 H188 H 1.13615 0.08566 0.30642
 H189 H 1.09549 0.14262 0.29610
 Cu190 Cu 1.15153 0.11327 0.34964
 Cu191 Cu 1.11849 0.15745 0.34348
 Cu192 Cu 1.16621 0.16002 0.37546
 N193 N 1.17897 0.11537 0.36617
 N194 N 1.18498 0.13399 0.37552
 C195 C 1.20513 0.13144 0.38466
 C196 C 1.21223 0.11007 0.38076
 C197 C 1.19510 0.10030 0.36901
 H198 H 1.21388 0.14423 0.39356
 H199 H 1.19466 0.08373 0.36237
 N200 N 1.14485 0.18445 0.37356
 N201 N 1.12617 0.18332 0.36216
 C202 C 1.11435 0.20185 0.36596
 C203 C 1.12632 0.21528 0.38032
 C204 C 1.14553 0.20370 0.38467
 H205 H 1.09822 0.20527 0.35893
 H206 H 1.15862 0.20857 0.39595
 H207 H 1.15172 0.15293 0.34484
 H208 H 1.13622 0.14472 0.37041
 N209 N 0.62024 1.36420 0.68191
 N210 N 0.63706 1.37784 0.68226
 C211 C 0.63368 1.39283 0.69861
 C212 C 0.61349 1.38841 0.70860
 C213 C 0.60548 1.37020 0.69753
 H214 H 0.64507 1.40579 0.70310
 H215 H 0.59052 1.36129 0.70139
 Cu216 Cu 0.66163 1.37410 0.66135
 Cu217 Cu 0.61949 1.33816 0.66329
 Cu218 Cu 0.66286 1.33034 0.62655
 N219 N 0.68578 1.36958 0.64010
 N220 N 0.68623 1.35218 0.62699
 C221 C 0.70473 1.35252 0.61457
 C222 C 0.71650 1.37123 0.61993
 C223 C 0.70396 1.38177 0.63616
 H224 H 0.70918 1.34019 0.60229
 H225 H 0.70800 1.39695 0.64467
 N226 N 0.63768 1.31006 0.62866
 N227 N 0.62152 1.31275 0.64323
 C228 C 0.60765 1.29555 0.64181
 C229 C 0.61527 1.28158 0.62535
 C230 C 0.63425 1.29126 0.61724
 H231 H 0.59304 1.29330 0.65194
 H232 H 0.64509 1.28468 0.60449
 H233 H 0.65344 1.33490 0.65935
 H234 H 0.63831 1.35121 0.63765
 N235 N 0.64690 0.83853 1.20225
 N236 N 0.65469 0.85788 1.19659
 C237 C 0.64858 0.87280 1.21211
 C238 C 0.63639 0.86207 1.22840
 C239 C 0.63584 0.84031 1.22161
 H240 H 0.65267 0.89010 1.21153
 H241 H 0.62728 0.82684 1.22957
 Cu242 Cu 0.67212 0.86142 1.16952
 Cu243 Cu 0.65045 0.81266 1.18360
 Cu244 Cu 0.66790 0.82278 1.12971
 N245 N 0.69296 0.85997 1.14476
 N246 N 0.69158 0.84448 1.12944
 C247 C 0.70841 0.84667 1.11493
 C248 C 0.72094 0.86458 1.12146
 C249 C 0.71059 0.87270 1.14041
 H250 H 0.71132 0.83598 1.10074
 H251 H 0.71591 0.88639 1.15066
 N252 N 0.65102 0.79649 1.13793
 N253 N 0.64551 0.79209 1.15876
 C254 C 0.63340 0.77358 1.15916
 C255 C 0.63098 0.76605 1.13748
 C256 C 0.64250 0.78094 1.12444
 H257 H 0.62564 0.76699 1.17397
 H258 H 0.64417 0.78080 1.10645
 H259 H 0.67583 0.82198 1.16208
 H260 H 0.64733 0.83266 1.15643
 N261 N 1.12074 1.35656 1.18160
 N262 N 1.13616 1.37164 1.18358
 C263 C 1.13224 1.38359 1.20216
 C264 C 1.11323 1.37570 1.21219
 C265 C 1.10633 1.35861 1.19862
 H266 H 1.14239 1.39704 1.20801
 H267 H 1.09229 1.34798 1.20136
 Cu268 Cu 1.15990 1.37390 1.16170
 Cu269 Cu 1.12132 1.33442 1.15806
 Cu270 Cu 1.16338 1.33802 1.11893
 N271 N 1.18301 1.37628 1.13917
 N272 N 1.18455 1.36181 1.12285
 C273 C 1.20242 1.36642 1.11035
 C274 C 1.21254 1.38490 1.11913
 C275 C 1.19973 1.39080 1.13736
 H276 H 1.20760 1.35711 1.09585
 H277 H 1.20274 1.40430 1.14875
 N278 N 1.14037 1.31514 1.11785
 N279 N 1.12468 1.31352 1.13308
 C280 C 1.11242 1.29559 1.12867
 C281 C 1.12062 1.28554 1.10965
 C282 C 1.13826 1.29843 1.10314
 H283 H 1.09855 1.29014 1.13857
 H284 H 1.14918 1.29538 1.08916
 H285 H 1.15505 1.33514 1.15224
 H286 H 1.13745 1.35371 1.13480
 N287 N 1.13267 0.85528 0.68691
 N288 N 1.14901 0.86951 0.68649
 C289 C 1.14781 0.88244 0.70475
 C290 C 1.12962 0.87624 0.71719
 C291 C 1.12032 0.85897 0.70531
 H292 H 1.15920 0.89558 0.70867
 H293 H 1.10594 0.84951 0.70997
 Cu294 Cu 1.17037 0.87012 0.66217
 Cu295 Cu 1.12920 0.83256 0.66395
 Cu296 Cu 1.16804 0.83203 0.62149
 N297 N 1.19237 0.86883 0.63840
 N298 N 1.19160 0.85342 0.62298
 C299 C 1.20913 0.85540 0.60936
 C300 C 1.22149 0.87314 0.61643
 C301 C 1.21036 0.88140 0.63486
 H302 H 1.21258 0.84482 0.59523
 H303 H 1.21534 0.89514 0.64520
 N304 N 1.14316 0.81155 0.62252
 N305 N 1.12872 0.81101 0.63903
 C306 C 1.11476 0.79405 0.63547
 C307 C 1.12061 0.78379 0.61560
 C308 C 1.13860 0.79536 0.60790
 H309 H 1.10135 0.78948 0.64645
 H310 H 1.14814 0.79167 0.59309
 H311 H 1.16219 0.83134 0.65585
 H312 H 1.14414 0.84997 0.63890
 N313 N 0.38379 0.63709 0.67358
 N314 N 0.36568 0.62559 0.67663
 C315 C 0.36831 0.61295 0.69495
 C316 C 0.38928 0.61669 0.70359
 C317 C 0.39859 0.63202 0.68951
 H318 H 0.35580 0.60220 0.70173
 H319 H 0.41444 0.63994 0.69159
 Cu320 Cu 0.34013 0.62901 0.65688
 Cu321 Cu 0.38562 0.66039 0.65180
 Cu322 Cu 0.34434 0.66326 0.61231
 N323 N 0.31908 0.62841 0.63211
 N324 N 0.32126 0.64116 0.61453
 C325 C 0.30458 0.63723 0.60017
 C326 C 0.29108 0.62125 0.60926
 C327 C 0.30080 0.61603 0.62957
 H328 H 0.30205 0.64588 0.58460
 H329 H 0.29504 0.60407 0.64157
 N330 N 0.36914 0.68418 0.61336
 N331 N 0.38473 0.68307 0.62875
 C332 C 0.39770 0.70089 0.62723
 C333 C 0.39003 0.71384 0.60997
 C334 C 0.37200 0.70271 0.60136
 H335 H 0.41116 0.70472 0.63847
 H336 H 0.36092 0.70848 0.58842
 H337 H 0.35177 0.66566 0.64572
 H338 H 0.36560 0.64304 0.62928
 N339 N 0.36850 0.15310 1.19044
 N340 N 0.35526 0.13602 1.19030
 C341 C 0.35921 0.12387 1.20871
 C342 C 0.37555 0.13425 1.22105
 C343 C 0.38096 0.15274 1.20901
 H344 H 0.35095 0.10863 1.21277
 H345 H 0.39381 0.16446 1.21297
 Cu346 Cu 0.33449 0.13141 1.16589
 Cu347 Cu 0.37060 0.17297 1.16548
 Cu348 Cu 0.33046 0.16957 1.12455
 N349 N 0.30954 0.13226 1.14540
 N350 N 0.30818 0.14649 1.12890
 C351 C 0.28955 0.14246 1.11714
 C352 C 0.27855 0.12502 1.12707
 C353 C 0.29172 0.11906 1.14496
 H354 H 0.28417 0.15178 1.10273
 H355 H 0.28869 0.10586 1.15665
 N356 N 0.35486 0.19147 1.12382
 N357 N 0.37052 0.19179 1.13921
 C358 C 0.38531 0.20743 1.13425
 C359 C 0.37865 0.21788 1.11504
 C360 C 0.35912 0.20754 1.10884
 H361 H 0.39962 0.21151 1.14426
 H362 H 0.34894 0.21138 1.09448
 H363 H 0.33660 0.17044 1.15797
 H364 H 0.35588 0.15379 1.14010
 N365 N 0.87630 0.63105 1.18276
 N366 N 0.86181 0.61522 1.18000
 C367 C 0.86455 0.60009 1.19619
 C368 C 0.88157 0.60698 1.20996
 C369 C 0.88865 0.62668 1.20092
 H370 H 0.85432 0.58568 1.19834
 H371 H 0.90165 0.63717 1.20722
 Cu372 Cu 0.83976 0.61703 1.15665
 Cu373 Cu 0.87746 0.65646 1.16308
 Cu374 Cu 0.83371 0.66318 1.12599
 N375 N 0.81301 0.62275 1.13993
 N376 N 0.81077 0.64018 1.12710
 C377 C 0.79079 0.63927 1.11699
 C378 C 0.77994 0.62052 1.12439
 C379 C 0.79455 0.61055 1.13894
 H380 H 0.78436 0.65157 1.10564
 H381 H 0.79199 0.59536 1.14796
 N382 N 0.85894 0.68422 1.12810
 N383 N 0.87574 0.68106 1.14189
 C384 C 0.89044 0.69742 1.13937
 C385 C 0.88259 0.71186 1.12344
 C386 C 0.86248 0.70306 1.11666
 H387 H 0.90560 0.69904 1.14881
 H388 H 0.85142 0.70978 1.10418
 H389 H 0.84331 0.65677 1.15816
 H390 H 0.86034 0.64433 1.13535
 N391 N 0.87043 0.14658 0.68576
 N392 N 0.85649 0.13003 0.68524
 C393 C 0.86014 0.11713 0.70320
 C394 C 0.87708 0.12630 0.71570
 C395 C 0.88317 0.14496 0.70412
 H396 H 0.85087 0.10248 0.70720
 H397 H 0.89603 0.15646 0.70866
 Cu398 Cu 0.83435 0.12764 0.66161
 Cu399 Cu 0.87117 0.16916 0.66281
 Cu400 Cu 0.83350 0.16429 0.61957
 N401 N 0.81351 0.12508 0.63681
 N402 N 0.81406 0.13902 0.62005
 C403 C 0.79820 0.13383 0.60524
 C404 C 0.78681 0.11586 0.61321
 C405 C 0.79690 0.11072 0.63336
 H406 H 0.79445 0.14312 0.59030
 H407 H 0.79228 0.09769 0.64469
 N408 N 0.85442 0.18877 0.62191
 N409 N 0.86925 0.19034 0.63802
 C410 C 0.88109 0.20883 0.63497
 C411 C 0.87302 0.21950 0.61627
 C412 C 0.85612 0.20639 0.60844
 H413 H 0.89409 0.21456 0.64592
 H414 H 0.84583 0.20954 0.59400
 H415 H 0.83830 0.16681 0.65379
 H416 H 0.85849 0.14944 0.63789
 N417 N 1.37392 0.38618 0.67016
 N418 N 1.39153 0.37381 0.66703
 C419 C 1.40602 0.37732 0.68373
 C420 C 1.39694 0.39260 0.69826
 C421 C 1.37655 0.39794 0.68907
 H422 H 1.42148 0.36851 0.68575
 H423 H 1.36435 0.40922 0.69580
 Cu424 Cu 1.39301 0.35239 0.64300
 Cu425 Cu 1.34888 0.38546 0.64958
 Cu426 Cu 1.34469 0.33629 0.62061
 N427 N 1.39028 0.32455 0.62747
 N428 N 1.37107 0.31783 0.61991
 C429 C 1.37331 0.29739 0.61161
 C430 C 1.39523 0.29078 0.61403
 C431 C 1.40552 0.30867 0.62412
 H432 H 1.35990 0.28827 0.60414
 H433 H 1.42256 0.30989 0.62944
 N434 N 1.32013 0.35760 0.62293
 N435 N 1.32196 0.37673 0.63324
 C436 C 1.30303 0.38819 0.63053
 C437 C 1.28854 0.37560 0.61795
 C438 C 1.29996 0.35631 0.61350
 H439 H 1.30001 0.40446 0.63726
 H440 H 1.29425 0.34267 0.60342
 H441 H 1.35344 0.35227 0.64983
 H442 H 1.36029 0.36614 0.62293
 N443 N 1.37022 0.88980 1.17022
 N444 N 1.38146 0.87197 1.17528
 C445 C 1.39130 0.87478 1.19522
 C446 C 1.38621 0.89576 1.20306
 C447 C 1.37296 0.90489 1.18648
 H448 H 1.40166 0.86249 1.20310
 H449 H 1.36487 0.92079 1.18663
 Cu450 Cu 1.38280 0.84718 1.15482
 Cu451 Cu 1.35114 0.89071 1.14405
 Cu452 Cu 1.33623 0.83826 1.12598
 N453 N 1.37903 0.82066 1.13732
 N454 N 1.36059 0.81659 1.12645
 C455 C 1.36220 0.79647 1.11694
 C456 C 1.38304 0.78766 1.12178
 C457 C 1.39312 0.80371 1.13479
 H458 H 1.34931 0.78910 1.10691
 H459 H 1.40928 0.80301 1.14247
 N460 N 1.31795 0.86508 1.12041
 N461 N 1.32456 0.88497 1.12626
 C462 C 1.30896 0.89978 1.12075
 C463 C 1.29137 0.88887 1.11106
 C464 C 1.29768 0.86682 1.11103
 H465 H 1.30983 0.91710 1.12485
 H466 H 1.28811 0.85304 1.10496
 H467 H 1.34442 0.85901 1.15236
 H468 H 1.35918 0.86218 1.12524
 N469 N 0.85778 0.37528 1.18367
 N470 N 0.87195 0.35887 1.18493
 C471 C 0.88380 0.36109 1.20398
 C472 C 0.87597 0.37955 1.21549
 C473 C 0.85949 0.38802 1.20191
 H474 H 0.89641 0.34964 1.20948
 H475 H 0.84982 0.40280 1.20460
 Cu476 Cu 0.87188 0.33575 1.16182
 Cu477 Cu 0.83885 0.37985 1.15800
 Cu478 Cu 0.82372 0.33102 1.13327
 N479 N 0.86636 0.31105 1.14137
 N480 N 0.84735 0.30921 1.13080
 C481 C 0.84732 0.29048 1.11878
 C482 C 0.86746 0.27992 1.12167
 C483 C 0.87918 0.29352 1.13614
 H484 H 0.83368 0.28513 1.10844
 H485 H 0.89560 0.29064 1.14272
 N486 N 0.80621 0.35847 1.13043
 N487 N 0.81284 0.37733 1.13899
 C488 C 0.79814 0.39320 1.13397
 C489 C 0.78120 0.38394 1.12166
 C490 C 0.78688 0.36184 1.11970
 H491 H 0.79932 0.41005 1.13968
 H492 H 0.77775 0.34918 1.11099
 H493 H 0.83318 0.34737 1.16215
 H494 H 0.84727 0.35428 1.13529
 N495 N 0.84959 0.86481 0.68793
 N496 N 0.86343 0.84826 0.69061
 C497 C 0.87737 0.85311 0.70753
 C498 C 0.87206 0.87389 0.71563
 C499 C 0.85443 0.88080 0.70270
 H500 H 0.89014 0.84223 0.71378
 H501 H 0.84498 0.89581 0.70479
 Cu502 Cu 0.86101 0.82166 0.67230
 Cu503 Cu 0.82429 0.86346 0.66793
 Cu504 Cu 0.81706 0.81498 0.63849
 N505 N 0.85769 0.79542 0.65356
 N506 N 0.83960 0.79256 0.64170
 C507 C 0.84101 0.77352 0.63038
 C508 C 0.86116 0.76389 0.63502
 C509 C 0.87146 0.77824 0.64979
 H510 H 0.82885 0.76773 0.61852
 H511 H 0.88780 0.77644 0.65694
 N512 N 0.79624 0.83966 0.63692
 N513 N 0.79951 0.85860 0.64718
 C514 C 0.78315 0.87262 0.64151
 C515 C 0.76892 0.86190 0.62701
 C516 C 0.77775 0.84106 0.62452
 H517 H 0.78155 0.88930 0.64764
 H518 H 0.77150 0.82808 0.61390
 H519 H 0.82162 0.82979 0.66952
 H520 H 0.83777 0.84121 0.64556
 N521 N 0.64177 0.63384 0.68693
 N522 N 0.62617 0.64879 0.68441
 C523 C 0.61104 0.64650 0.70071
 C524 C 0.61757 0.62930 0.71436
 C525 C 0.63718 0.62163 0.70511
 H526 H 0.59664 0.65693 0.70281
 H527 H 0.64728 0.60811 0.71106
 Cu528 Cu 0.62724 0.67044 0.66055
 Cu529 Cu 0.66638 0.63142 0.66576
 Cu530 Cu 0.67829 0.68192 0.64220
 N531 N 0.63294 0.69573 0.64160
 N532 N 0.65307 0.70037 0.63492
 C533 C 0.65269 0.71915 0.62312
 C534 C 0.63108 0.72672 0.62215
 C535 C 0.61896 0.71137 0.63411
 H536 H 0.66714 0.72655 0.61566
 H537 H 0.60143 0.71181 0.63761
 N538 N 0.69917 0.65702 0.64204
 N539 N 0.69440 0.63737 0.65001
 C540 C 0.71090 0.62332 0.64464
 C541 C 0.72682 0.63477 0.63269
 C542 C 0.71876 0.65608 0.63150
 H543 H 0.71106 0.60599 0.64873
 H544 H 0.72593 0.66965 0.62239
 H545 H 0.66623 0.66404 0.66933
 H546 H 0.65863 0.65452 0.64062
 N547 N 0.64380 1.13123 1.18072
 N548 N 0.63293 1.14899 1.18692
 C549 C 0.62262 1.14497 1.20641
 C550 C 0.62698 1.12330 1.21265
 C551 C 0.64031 1.11509 1.19565
 H552 H 0.61256 1.15695 1.21515
 H553 H 0.64804 1.09904 1.19471
 Cu554 Cu 0.63315 1.17548 1.16850
 Cu555 Cu 0.66388 1.13135 1.15525
 Cu556 Cu 0.68083 1.18407 1.14190
 N557 N 0.63737 1.20144 1.14983
 N558 N 0.65654 1.20504 1.14022
 C559 C 0.65550 1.22388 1.12854
 C560 C 0.63437 1.23247 1.13052
 C561 C 0.62325 1.21776 1.14421
 H562 H 0.66888 1.23025 1.11850
 H563 H 0.60621 1.21878 1.14959
 N564 N 0.69822 1.15767 1.13481
 N565 N 0.69124 1.13751 1.13873
 C566 C 0.70638 1.12307 1.13108
 C567 C 0.72377 1.13475 1.12179
 C568 C 0.71791 1.15668 1.12448
 H569 H 0.70495 1.10542 1.13268
 H570 H 0.72703 1.17097 1.11911
 H571 H 0.67105 1.16172 1.16652
 H572 H 0.65689 1.16117 1.13880
 N573 N 0.14360 0.63157 1.19208
 N574 N 0.12742 0.64585 1.18947
 C575 C 0.11218 0.64267 1.20552
 C576 C 0.11939 0.62570 1.21932
 C577 C 0.13948 0.61910 1.21014
 H578 H 0.09743 0.65262 1.20744
 H579 H 0.15018 0.60592 1.21575
 Cu580 Cu 0.12837 0.66812 1.16605
 Cu581 Cu 0.16829 0.62992 1.17109
 Cu582 Cu 0.17978 0.68122 1.14960
 N583 N 0.13412 0.69393 1.14769
 N584 N 0.15439 0.69930 1.14212
 C585 C 0.15406 0.71824 1.13062
 C586 C 0.13227 0.72521 1.12846
 C587 C 0.12006 0.70922 1.13961
 H588 H 0.16875 0.72592 1.12402
 H589 H 0.10237 0.70884 1.14214
 N590 N 0.20101 0.65661 1.14880
 N591 N 0.19629 0.63665 1.15593
 C592 C 0.21265 0.62280 1.14981
 C593 C 0.22844 0.63469 1.13819
 C594 C 0.22051 0.65608 1.13804
 H595 H 0.21267 0.60528 1.15297
 H596 H 0.22755 0.66994 1.12929
 H597 H 0.16726 0.66243 1.17573
 H598 H 0.16059 0.65370 1.14649
 N599 N 0.13426 1.11844 0.67862
 N600 N 0.12455 1.13683 0.68489
 C601 C 0.11398 1.13336 0.70437
 C602 C 0.11700 1.11143 0.71055
 C603 C 0.12975 1.10250 0.69346
 H604 H 0.10494 1.14598 0.71331
 H605 H 0.13653 1.08604 0.69245
 Cu606 Cu 0.12746 1.16361 0.66713
 Cu607 Cu 0.15440 1.11733 0.65326
 Cu608 Cu 0.17465 1.16858 0.63867
 N609 N 0.13231 1.18851 0.64710
 N610 N 0.15147 1.19092 0.63709
 C611 C 0.15145 1.20992 0.62562
 C612 C 0.13091 1.21998 0.62807
 C613 C 0.11916 1.20573 0.64188
 H614 H 0.16523 1.21543 0.61563
 H615 H 0.10254 1.20790 0.64816
 N616 N 0.19033 1.14090 0.63206
 N617 N 0.18207 1.12135 0.63656
 C618 C 0.19644 1.10576 0.62977
 C619 C 0.21472 1.11598 0.62049
 C620 C 0.21013 1.13832 0.62219
 H621 H 0.19400 1.08831 0.63219
 H622 H 0.22033 1.15183 0.61669
 H623 H 0.16428 1.14728 0.66413
 H624 H 0.14923 1.14745 0.63687
 N625 N 1.35572 0.63278 0.31577
 N626 N 1.37058 0.64853 0.31630
 C627 C 1.38355 0.64688 0.29809
 C628 C 1.37662 0.62898 0.28557
 C629 C 1.35897 0.62037 0.29736
 H630 H 1.39704 0.65787 0.29424
 H631 H 1.34881 0.60654 0.29254
 Cu632 Cu 1.37182 0.66996 0.34053
 Cu633 Cu 1.33254 0.63031 0.33827
 Cu634 Cu 1.32879 0.67328 0.37583
 N635 N 1.36724 0.69545 0.35982
 N636 N 1.34941 0.69726 0.37219
 C637 C 1.34958 0.71671 0.38290
 C638 C 1.36890 0.72764 0.37745
 C639 C 1.37978 0.71351 0.36274
 H640 H 1.33710 0.72191 0.39472
 H641 H 1.39535 0.71631 0.35438
 N642 N 1.30948 0.64756 0.37714
 N643 N 1.31039 0.63131 0.36250
 C644 C 1.29442 0.61666 0.36741
 C645 C 1.28332 0.62398 0.38626
 C646 C 1.29334 0.64353 0.39198
 H647 H 1.29116 0.60174 0.35810
 H648 H 1.28876 0.65428 0.40565
 H649 H 1.33230 0.66381 0.34243
 H650 H 1.34801 0.64717 0.36362
 N651 N 1.35694 1.12539 0.81602
 N652 N 1.37051 1.14217 0.81458
 C653 C 1.38500 1.13820 0.79788
 C654 C 1.38030 1.11770 0.78879
 C655 C 1.36248 1.11010 0.80079
 H656 H 1.39773 1.14944 0.79247
 H657 H 1.35341 1.09510 0.79770
 Cu658 Cu 1.36717 1.16756 0.83451
 Cu659 Cu 1.33123 1.12562 0.83509
 Cu660 Cu 1.32478 1.16941 0.87148
 N661 N 1.36411 1.19152 0.85617
 N662 N 1.34741 1.19231 0.87023
 C663 C 1.34888 1.21084 0.88255
 C664 C 1.36760 1.22225 0.87607
 C665 C 1.37690 1.20942 0.85932
 H666 H 1.33722 1.21561 0.89539
 H667 H 1.39161 1.21314 0.84982
 N668 N 1.30375 1.14450 0.86991
 N669 N 1.30609 1.12829 0.85536
 C670 C 1.28869 1.11469 0.85685
 C671 C 1.27483 1.12240 0.87333
 C672 C 1.28486 1.14126 0.88147
 H673 H 1.28621 1.10012 0.84677
 H674 H 1.27851 1.15209 0.89434
 H675 H 1.32787 1.15970 0.83882
 H676 H 1.34541 1.14518 0.85998
 N677 N 0.86275 0.62407 0.81774
 N678 N 0.88157 0.63301 0.82384
 C679 C 0.89694 0.62905 0.80809
 C680 C 0.88723 0.61698 0.79107
 C681 C 0.86550 0.61409 0.79784
 H682 H 0.91370 0.63518 0.80865
 H683 H 0.85263 0.60534 0.78900
 Cu684 Cu 0.88370 0.65062 0.85071
 Cu685 Cu 0.83629 0.62581 0.83629
 Cu686 Cu 0.83919 0.65981 0.88284
 N687 N 0.88198 0.67592 0.87037
 N688 N 0.86427 0.68014 0.88238
 C689 C 0.86721 0.69937 0.89328
 C690 C 0.88792 0.70755 0.88775
 C691 C 0.89678 0.69215 0.87322
 H692 H 0.85518 0.70681 0.90435
 H693 H 0.91251 0.69302 0.86467
 N694 N 0.81280 0.64191 0.87563
 N695 N 0.81155 0.62956 0.85748
 C696 C 0.79187 0.61930 0.85716
 C697 C 0.78012 0.62526 0.87606
 C698 C 0.79394 0.63965 0.88743
 H699 H 0.78676 0.60762 0.84454
 H700 H 0.79054 0.64779 0.90314
 H701 H 0.84398 0.65647 0.84938
 H702 H 0.85140 0.63192 0.86652
 N703 N 0.87313 1.12143 0.32326
 N704 N 0.88498 1.13951 0.32284
 C705 C 0.89706 1.13989 0.30399
 C706 C 0.89266 1.12088 0.29201
 C707 C 0.87750 1.10947 0.30484
 H708 H 0.90808 1.15308 0.29932
 H709 H 0.86947 1.09412 0.30065
 Cu710 Cu 0.88343 1.16091 0.34687
 Cu711 Cu 0.85167 1.11594 0.34687
 Cu712 Cu 0.83388 1.16468 0.37141
 N713 N 0.87652 1.18467 0.36733
 N714 N 0.85690 1.18638 0.37659
 C715 C 0.85600 1.20501 0.38876
 C716 C 0.87629 1.21540 0.38722
 C717 C 0.88891 1.20198 0.37346
 H718 H 0.84164 1.21050 0.39802
 H719 H 0.90558 1.20493 0.36771
 N720 N 0.81674 1.13718 0.37216
 N721 N 0.82387 1.11841 0.36364
 C722 C 0.80876 1.10266 0.36750
 C723 C 0.79120 1.11200 0.37904
 C724 C 0.79694 1.13391 0.38174
 H725 H 0.81029 1.08581 0.36185
 H726 H 0.78764 1.14654 0.39038
 H727 H 0.84540 1.14827 0.34312
 H728 H 0.85761 1.14098 0.37080
 N729 N 0.64765 0.37261 0.31047
 N730 N 0.63688 0.35469 0.30480
 C731 C 0.62525 0.35867 0.28601
 C732 C 0.62870 0.38040 0.27959
 C733 C 0.64299 0.38868 0.29572
 H734 H 0.61475 0.34667 0.27798
 H735 H 0.65019 0.40492 0.29634
 Cu736 Cu 0.63839 0.32785 0.32268
 Cu737 Cu 0.66863 0.37318 0.33518
 Cu738 Cu 0.66658 0.32929 0.37128
 N739 N 0.63404 0.30579 0.34599
 N740 N 0.64425 0.30726 0.36531
 C741 C 0.63796 0.29056 0.37850
 C742 C 0.62312 0.27749 0.36682
 C743 C 0.62110 0.28776 0.34611
 H744 H 0.64452 0.28775 0.39504
 H745 H 0.61080 0.28275 0.33223
 N746 N 0.68815 0.35308 0.37448
 N747 N 0.68870 0.37020 0.36100
 C748 C 0.70608 0.38290 0.36659
 C749 C 0.71712 0.37309 0.38427
 C750 C 0.70524 0.35424 0.38884
 H751 H 0.71115 0.39746 0.35761
 H752 H 0.70917 0.34195 0.40127
 H753 H 0.67334 0.33979 0.33861
 H754 H 0.64852 0.35236 0.35282
 N755 N 0.63928 0.87566 0.81522
 N756 N 0.62365 0.86069 0.81582
 C757 C 0.61139 0.86234 0.79701
 C758 C 0.62023 0.87899 0.78395
 C759 C 0.63782 0.88701 0.79608
 H760 H 0.59763 0.85180 0.79278
 H761 H 0.64882 0.90015 0.79125
 Cu762 Cu 0.62196 0.83962 0.84047
 Cu763 Cu 0.66100 0.87930 0.83857
 Cu764 Cu 0.66446 0.83793 0.87746
 N765 N 0.62609 0.81512 0.86126
 N766 N 0.64322 0.81424 0.87480
 C767 C 0.64245 0.79552 0.88670
 C768 C 0.62375 0.78403 0.88053
 C769 C 0.61365 0.79698 0.86436
 H770 H 0.65431 0.79087 0.89939
 H771 H 0.59858 0.79334 0.85536
 N772 N 0.68421 0.86355 0.87758
 N773 N 0.68210 0.87991 0.86330
 C774 C 0.69784 0.89497 0.86741
 C775 C 0.71064 0.88760 0.88498
 C776 C 0.70156 0.86763 0.89106
 H777 H 0.70057 0.90963 0.85761
 H778 H 0.70737 0.85677 0.90411
 H779 H 0.66146 0.84552 0.84405
 H780 H 0.64501 0.86262 0.86436
 N781 N 0.13979 0.36553 0.81584
 N782 N 0.12599 0.34886 0.81562
 C783 C 0.11268 0.35048 0.79769
 C784 C 0.11826 0.36934 0.78610
 C785 C 0.13545 0.37860 0.79819
 H786 H 0.09987 0.33881 0.79344
 H787 H 0.14466 0.39327 0.79406
 Cu788 Cu 0.12640 0.32668 0.83887
 Cu789 Cu 0.16303 0.36783 0.83847
 Cu790 Cu 0.17652 0.31649 0.86011
 N791 N 0.13168 0.30155 0.85804
 N792 N 0.15154 0.29720 0.86577
 C793 C 0.15102 0.27822 0.87726
 C794 C 0.12948 0.27027 0.87704
 C795 C 0.11769 0.28570 0.86462
 H796 H 0.16533 0.27107 0.88535
 H797 H 0.10040 0.28525 0.86004
 N798 N 0.19648 0.34201 0.86148
 N799 N 0.19107 0.36178 0.85414
 C800 C 0.20754 0.37587 0.85900
 C801 C 0.22416 0.36438 0.87001
 C802 C 0.21650 0.34296 0.87123
 H803 H 0.20740 0.39316 0.85476
 H804 H 0.22450 0.32918 0.87936
 H805 H 0.16538 0.33532 0.83323
 H806 H 0.15560 0.34283 0.86181
 N807 N 0.13919 0.86844 0.31618
 N808 N 0.12469 0.85239 0.31711
 C809 C 0.11003 0.85480 0.30030
 C810 C 0.11586 0.87316 0.28801
 C811 C 0.13448 0.88137 0.29855
 H812 H 0.09642 0.84378 0.29694
 H813 H 0.14375 0.89583 0.29388
 Cu814 Cu 0.12674 0.82916 0.33942
 Cu815 Cu 0.16289 0.87157 0.33801
 Cu816 Cu 0.16228 0.83520 0.38230
 N817 N 0.12598 0.81010 0.36556
 N818 N 0.13875 0.81367 0.38294
 C819 C 0.13481 0.79833 0.39859
 C820 C 0.11906 0.78386 0.39041
 C821 C 0.11381 0.79197 0.36933
 H822 H 0.14395 0.79692 0.41405
 H823 H 0.10203 0.78527 0.35758
 N824 N 0.18502 0.85784 0.37874
 N825 N 0.18531 0.87189 0.36197
 C826 C 0.20360 0.88443 0.36368
 C827 C 0.21548 0.87756 0.38219
 C828 C 0.20322 0.86073 0.39131
 H829 H 0.20850 0.89687 0.35179
 H830 H 0.20756 0.85100 0.40577
 H831 H 0.16491 0.83909 0.34783
 H832 H 0.14421 0.85702 0.36254
 O833 O 0.97674 0.91649 0.89019
 O834 O 0.97702 0.89011 0.86481
 C835 C 0.96917 0.90810 0.87231
 C836 C 0.95046 0.91886 0.86059
 C837 C 0.94198 0.90961 0.84091
 H838 H 0.95020 0.89548 0.83355
 O839 O 1.01750 1.07409 0.88713
 O840 O 1.01735 1.09945 0.86082
 C841 C 1.02520 1.08179 0.86903
 C842 C 1.04404 1.07070 0.85777
 C843 C 1.05233 1.07924 0.83775
 H844 H 1.04383 1.09289 0.82985
 O845 O 0.88849 0.97453 0.92061
 O846 O 0.86192 0.97341 0.89535
 C847 C 0.87040 0.96658 0.91352
 C848 C 0.85954 0.94878 0.92625
 C849 C 0.83909 0.94028 0.91922
 H850 H 0.83101 0.94706 0.90459
 O851 O 1.10742 1.01807 0.91917
 O852 O 1.13378 1.01805 0.89374
 C853 C 1.12550 1.02568 0.91172
 C854 C 1.13653 1.04394 0.92392
 C855 C 1.15758 1.05151 0.91745
 H856 H 1.16631 1.04339 0.90394
 O857 O 0.92090 0.88727 0.98199
 O858 O 0.89510 0.86171 0.98227
 C859 C 0.91301 0.86937 0.97446
 C860 C 0.92423 0.85771 0.95588
 C861 C 0.91589 0.83762 0.94805
 H862 H 0.90210 0.83006 0.95662
 O863 O 1.07449 1.10703 0.97789
 O864 O 1.09974 1.13310 0.97680
 C865 C 1.08181 1.12481 0.96963
 C866 C 1.06976 1.13564 0.95106
 C867 C 1.07671 1.15622 0.94311
 H868 H 1.09007 1.16471 0.95151
 O869 O 0.91738 1.01626 0.88765
 O870 O 0.89108 1.01528 0.86210
 C871 C 0.90915 1.02314 0.86942
 C872 C 0.92051 1.04090 0.85708
 C873 C 0.91263 1.04813 0.83627
 H874 H 0.89821 1.04037 0.82902
 O875 O 1.07797 0.97470 0.88840
 O876 O 1.10384 0.97452 0.86248
 C877 C 1.08584 0.96698 0.87034
 C878 C 1.07415 0.94863 0.85890
 C879 C 1.08119 0.94076 0.83792
 H880 H 1.09468 0.94891 0.82946
 O881 O 1.02038 0.88744 0.92132
 O882 O 1.02070 0.86107 0.89594
 C883 C 1.02819 0.86944 0.91387
 C884 C 1.04658 0.85847 0.92586
 C885 C 1.05534 0.83846 0.91798
 H886 H 1.04832 0.83084 0.90323
 O887 O 0.97356 1.10477 0.91657
 O888 O 0.97361 1.13014 0.89027
 C889 C 0.96607 1.12268 0.90854
 C890 C 0.94833 1.13480 0.92051
 C891 C 0.94092 1.15544 0.91292
 H892 H 0.94820 1.16241 0.89802
 O893 O 0.88774 1.07746 0.97713
 O894 O 0.86136 1.10263 0.97677
 C895 C 0.86962 1.08481 0.96925
 C896 C 0.85838 1.07287 0.95074
 C897 C 0.83830 1.08080 0.94194
 H898 H 0.83049 1.09510 0.94941
 O899 O 1.10823 0.91922 0.98057
 O900 O 1.13422 0.89364 0.98098
 C901 C 1.12624 0.91135 0.97300
 C902 C 1.13770 0.92241 0.95425
 C903 C 1.15810 0.91430 0.94664
 H904 H 1.16598 0.90080 0.95541
 O905 O 0.97424 1.07408 0.88621
 O906 O 0.97412 1.09936 0.85983
 C907 C 0.96675 1.08149 0.86785
 C908 C 0.94882 1.06945 0.85623
 C909 C 0.94096 1.07630 0.83525
 H910 H 0.94899 1.08985 0.82683
 O911 O 1.02005 0.91662 0.88986
 O912 O 1.02030 0.89036 0.86436
 C913 C 1.02772 0.90849 0.87186
 C914 C 1.04575 0.92000 0.85982
 C915 C 1.05322 0.91223 0.83904
 H916 H 1.04559 0.89779 0.83180
 O917 O 1.10820 0.97511 0.91915
 O918 O 1.13435 0.97479 0.89352
 C919 C 1.12635 0.96747 0.91168
 C920 C 1.13784 0.94958 0.92408
 C921 C 1.15826 0.94105 0.91662
 H922 H 1.16596 0.94782 0.90184
 O923 O 0.88795 1.01754 0.91895
 O924 O 0.86150 1.01656 0.89358
 C925 C 0.86978 1.02486 0.91122
 C926 C 0.85847 1.04362 0.92247
 C927 C 0.83846 1.05194 0.91391
 H928 H 0.83114 1.04434 0.89929
 O929 O 0.91774 1.10772 0.97724
 O930 O 0.89153 1.13307 0.97681
 C931 C 0.90963 1.12535 0.96929
 C932 C 0.92105 1.13639 0.95055
 C933 C 0.91412 1.15719 0.94301
 H934 H 0.90116 1.16583 0.95195
 O935 O 1.07820 0.88894 0.98088
 O936 O 1.10420 0.86336 0.98117
 C937 C 1.08618 0.87099 0.97342
 C938 C 1.07480 0.85922 0.95507
 C939 C 1.08316 0.83908 0.94713
 H940 H 1.09722 0.83155 0.95539
 O941 O 1.07797 1.01772 0.88774
 O942 O 1.10404 1.01789 0.86203
 C943 C 1.08589 1.02536 0.86970
 C944 C 1.07402 1.04350 0.85803
 C945 C 1.08234 1.05265 0.83809
 H946 H 1.09744 1.04619 0.83086
 O947 O 0.91739 0.97335 0.88876
 O948 O 0.89099 0.97219 0.86334
 C949 C 0.90922 0.96502 0.87108
 C950 C 0.92086 0.94641 0.85994
 C951 C 0.91239 0.93667 0.84032
 H952 H 0.89735 0.94307 0.83288
 O953 O 1.01666 1.10455 0.91741
 O954 O 1.01666 1.12997 0.89115
 C955 C 1.02408 1.12244 0.90951
 C956 C 1.04179 1.13438 0.92156
 C957 C 1.04922 1.15480 0.91368
 H958 H 1.04180 1.16185 0.89883
 O959 O 0.97723 0.88660 0.92105
 O960 O 0.97746 0.86017 0.89574
 C961 C 0.96983 0.86839 0.91371
 C962 C 0.95178 0.85712 0.92597
 C963 C 0.94302 0.83700 0.91827
 H964 H 0.94982 0.82927 0.90345
 O965 O 1.10521 1.07710 0.97838
 O966 O 1.13051 1.10312 0.97727
 C967 C 1.12298 1.08483 0.97035
 C968 C 1.13500 1.07272 0.95258
 C969 C 1.15587 1.08001 0.94581
 H970 H 1.16303 1.09434 0.95379
 O971 O 0.89086 0.91783 0.98169
 O972 O 0.86509 0.89223 0.98204
 C973 C 0.87281 0.91006 0.97427
 C974 C 0.86083 0.92138 0.95605
 C975 C 0.84024 0.91343 0.94903
 H976 H 0.83266 0.89992 0.95793
 Cu977 Cu 0.99856 0.90441 0.90814
 Cu978 Cu 0.99891 0.87282 0.87763
 Cu979 Cu 0.99539 1.08680 0.90443
 Cu980 Cu 0.99543 1.11724 0.87284
 Cu981 Cu 0.90545 0.99550 0.90650
 Cu982 Cu 0.87368 0.99427 0.87608
 Cu983 Cu 1.09031 0.99640 0.90612
 Cu984 Cu 1.12161 0.99629 0.87536
 C985 C 0.93997 0.93740 0.86982
 H986 H 0.94632 0.94442 0.88518
 C987 C 0.92280 0.91810 0.83079
 C988 C 1.05482 1.05267 0.86766
 H989 H 1.04859 1.04617 0.88326
 C990 C 1.07164 1.07072 0.82796
 C991 C 0.87026 0.93926 0.94477
 H992 H 0.88628 0.94533 0.95000
 C993 C 0.82938 0.92252 0.93049
 C994 C 1.12551 1.05455 0.94171
 H995 H 1.10923 1.04907 0.94670
 C996 C 1.16743 1.06949 0.92848
 C997 C 0.94232 0.86722 0.94489
 H998 H 0.94861 0.88289 0.95070
 C999 C 0.92492 0.82723 0.92917
 C1000 C 1.05208 1.12497 0.94035
 H1001 H 1.04677 1.10900 0.94625
 C1002 C 1.06666 1.16588 0.92433
 C1003 C 0.93869 1.05154 0.86679
 H1004 H 0.94454 1.04631 0.88306
 C1005 C 0.92280 1.06577 0.82510
 C1006 C 1.05623 0.93828 0.86952
 H1007 H 1.05079 0.94411 0.88573
 C1008 C 1.07078 0.92256 0.82777
 C1009 C 1.05634 0.86866 0.94450
 H1010 H 1.04997 0.88432 0.95039
 C1011 C 1.07368 0.82866 0.92848
 C1012 C 0.93835 1.12551 0.93939
 H1013 H 0.94369 1.10942 0.94507
 C1014 C 0.92394 1.16693 0.92416
 C1015 C 0.86823 1.05413 0.94098
 H1016 H 0.88384 1.04807 0.94745
 C1017 C 0.82826 1.07055 0.92344
 C1018 C 1.12780 0.94018 0.94301
 H1019 H 1.11191 0.94631 0.94866
 C1020 C 1.16844 0.92330 0.92778
 O1021 O 1.02142 0.91973 1.11376
 O1022 O 1.02223 0.89476 1.14042
 C1023 C 1.02961 0.91242 1.13187
 C1024 C 1.04821 0.92433 1.14277
 C1025 C 1.05764 0.91629 1.16268
 H1026 H 1.05119 0.90138 1.17004
 O1027 O 0.97606 1.07933 1.11106
 O1028 O 0.97582 1.10510 1.13709
 C1029 C 0.96875 1.08694 1.12942
 C1030 C 0.95153 1.07467 1.14160
 C1031 C 0.94571 1.08043 1.16357
 H1032 H 0.95463 1.09344 1.17204
 O1033 O 0.88935 1.01965 1.08068
 O1034 O 0.86350 1.02026 1.10665
 C1035 C 0.87125 1.02724 1.08825
 C1036 C 0.85936 1.04471 1.07583
 C1037 C 0.83854 1.05208 1.08313
 H1038 H 0.83092 1.04459 1.09760
 O1039 O 1.10986 0.97900 1.08221
 O1040 O 1.13581 0.97952 1.10811
 C1041 C 1.12787 0.97151 1.09018
 C1042 C 1.13905 0.95278 1.07875
 C1043 C 1.15932 0.94422 1.08663
 H1044 H 1.16750 0.95181 1.10078
 O1045 O 1.07840 0.88902 1.02445
 O1046 O 1.10425 0.86329 1.02460
 C1047 C 1.08618 0.87106 1.03208
 C1048 C 1.07434 0.85948 1.05021
 C1049 C 1.08140 0.83865 1.05763
 H1050 H 1.09510 0.83048 1.04935
 O1051 O 0.91674 1.10903 1.02093
 O1052 O 0.89047 1.13431 1.02064
 C1053 C 0.90855 1.12689 1.02849
 C1054 C 0.92003 1.13864 1.04697
 C1055 C 0.91288 1.15954 1.05446
 H1056 H 0.89920 1.16768 1.04614
 O1057 O 0.92009 0.97794 1.11269
 O1058 O 0.89419 0.97840 1.13862
 C1059 C 0.91235 0.97089 1.13104
 C1060 C 0.92412 0.95316 1.14322
 C1061 C 0.91585 0.94531 1.16357
 H1062 H 0.90190 0.95362 1.17120
 O1063 O 1.07909 1.02253 1.11178
 O1064 O 1.10481 1.02343 1.13790
 C1065 C 1.08675 1.03066 1.12976
 C1066 C 1.07471 1.04907 1.14085
 C1067 C 1.08208 1.05780 1.16137
 H1068 H 1.09652 1.05080 1.16945
 O1069 O 0.97755 0.88825 1.08544
 O1070 O 0.97803 0.86318 1.11202
 C1071 C 0.97009 0.87053 1.09383
 C1072 C 0.95160 0.85897 1.08240
 C1073 C 0.94238 0.83941 1.09102
 H1074 H 0.94912 0.83217 1.10609
 O1075 O 1.01770 1.10998 1.07950
 O1076 O 1.01752 1.13592 1.10535
 C1077 C 1.02499 1.12807 1.08716
 C1078 C 1.04298 1.13953 1.07527
 C1079 C 1.05113 1.15963 1.08328
 H1080 H 1.04294 1.16757 1.09723
 O1081 O 0.89008 0.91778 1.02516
 O1082 O 0.86424 0.89225 1.02527
 C1083 C 0.87195 0.91026 1.03264
 C1084 C 0.86011 0.92232 1.05053
 C1085 C 0.83924 0.91532 1.05796
 H1086 H 0.83120 0.90175 1.04954
 O1087 O 1.10626 1.07885 1.02202
 O1088 O 1.13161 1.10482 1.02071
 C1089 C 1.12429 1.08706 1.02905
 C1090 C 1.13666 1.07608 1.04733
 C1091 C 1.15727 1.08413 1.05430
 H1092 H 1.16408 1.09845 1.04610
 O1093 O 1.01917 1.07988 1.11002
 O1094 O 1.01883 1.10578 1.13591
 C1095 C 1.02677 1.08796 1.12805
 C1096 C 1.04533 1.07692 1.13983
 C1097 C 1.05285 1.08522 1.16035
 H1098 H 1.04430 1.09901 1.16799
 O1099 O 0.97815 0.92002 1.11425
 O1100 O 0.97869 0.89509 1.14097
 C1101 C 0.97082 0.91269 1.13263
 C1102 C 0.95246 0.92442 1.14390
 C1103 C 0.94345 0.91628 1.16385
 H1104 H 0.95027 0.90142 1.17112
 O1105 O 1.10952 1.02205 1.08132
 O1106 O 1.13549 1.02283 1.10718
 C1107 C 1.12746 1.02996 1.08892
 C1108 C 1.13849 1.04809 1.07660
 C1109 C 1.15929 1.05627 1.08324
 H1110 H 1.16800 1.04853 1.09698
 O1111 O 0.88938 0.97674 1.08254
 O1112 O 0.86341 0.97737 1.10839
 C1113 C 0.87142 0.96936 1.09052
 C1114 C 0.86000 0.95105 1.07906
 C1115 C 0.83941 0.94354 1.08665
 H1116 H 0.83192 0.95129 1.10110
 O1117 O 1.07572 1.10896 1.02153
 O1118 O 1.10107 1.13492 1.02037
 C1119 C 1.08339 1.12716 1.02855
 C1120 C 1.07189 1.13901 1.04684
 C1121 C 1.08020 1.15894 1.05541
 H1122 H 1.09504 1.16593 1.04829
 O1123 O 0.92081 0.88783 1.02586
 O1124 O 0.89492 0.86237 1.02592
 C1125 C 0.91280 0.87016 1.03371
 C1126 C 0.92383 0.85895 1.05266
 C1127 C 0.91503 0.83946 1.06132
 H1128 H 0.90098 0.83192 1.05310
 O1129 O 1.07908 0.97943 1.11222
 O1130 O 1.10483 0.98011 1.13831
 C1131 C 1.08696 0.97219 1.13047
 C1132 C 1.07581 0.95378 1.14225
 C1133 C 1.08449 0.94579 1.16244
 H1134 H 1.09828 0.95426 1.17011
 O1135 O 0.91905 1.02070 1.11192
 O1136 O 0.89334 1.02113 1.13805
 C1137 C 0.91130 1.02843 1.13004
 C1138 C 0.92326 1.04617 1.14176
 C1139 C 0.91740 1.05229 1.16359
 H1140 H 0.90389 1.04394 1.17183
 O1141 O 0.97457 1.10910 1.08003
 O1142 O 0.97441 1.13499 1.10592
 C1143 C 0.96681 1.12699 1.08785
 C1144 C 0.94857 1.13847 1.07598
 C1145 C 0.94126 1.15926 1.08318
 H1146 H 0.94916 1.16695 1.09744
 O1147 O 1.02052 0.88935 1.08342
 O1148 O 1.02119 0.86412 1.10986
 C1149 C 1.02823 0.87156 1.09136
 C1150 C 1.04593 0.85978 1.07918
 C1151 C 1.05322 0.83906 1.08642
 H1152 H 1.04552 0.83153 1.10083
 O1153 O 1.10819 0.91974 1.02441
 O1154 O 1.13403 0.89402 1.02465
 C1155 C 1.12617 0.91199 1.03216
 C1156 C 1.13785 0.92362 1.05046
 C1157 C 1.15790 0.91527 1.05868
 H1158 H 1.16523 0.90080 1.05104
 O1159 O 0.88831 1.07722 1.02076
 O1160 O 0.86183 1.10229 1.02053
 C1161 C 0.87011 1.08458 1.02826
 C1162 C 0.85881 1.07275 1.04656
 C1163 C 0.83803 1.07987 1.05414
 H1164 H 0.82979 1.09350 1.04591
 Cu1165 Cu 0.99931 0.90683 1.09659
 Cu1166 Cu 1.00019 0.87684 1.12857
 Cu1167 Cu 0.99684 1.09198 1.09254
 Cu1168 Cu 0.99659 1.12306 1.12366
 Cu1169 Cu 0.90833 0.90521 1.00371
 Cu1170 Cu 0.87732 0.87451 1.00385
 Cu1171 Cu 1.09066 0.90682 1.00261
 Cu1172 Cu 1.12183 0.87607 1.00289
 Cu1173 Cu 0.90529 1.09042 0.99907
 Cu1174 Cu 0.87364 1.12058 0.99867
 Cu1175 Cu 1.08783 1.09041 1.00013
 Cu1176 Cu 1.11827 1.12159 0.99859
 Cu1177 Cu 0.90705 0.99872 1.09432
 Cu1178 Cu 0.87598 0.99938 1.12552
 Cu1179 Cu 1.09188 1.00074 1.09428
 Cu1180 Cu 1.12278 1.00154 1.12551
 C1181 C 1.05745 0.94311 1.13269
 H1182 H 1.05073 0.94907 1.11703
 C1183 C 1.07585 0.92685 1.17265
 C1184 C 0.94041 1.05735 1.13097
 H1185 H 0.94475 1.05290 1.11398
 C1186 C 0.92869 1.06924 1.17476
 C1187 C 0.86927 1.05499 1.05738
 H1188 H 0.88549 1.04963 1.05187
 C1189 C 0.82784 1.06968 1.07244
 C1190 C 1.12862 0.94244 1.06049
 H1191 H 1.11292 0.94869 1.05444
 C1192 C 1.16871 0.92533 1.07672
 C1193 C 1.05641 0.86975 1.06093
 H1194 H 1.05106 0.88593 1.05551
 C1195 C 1.07089 0.82830 1.07573
 C1196 C 0.93800 1.12843 1.05777
 H1197 H 0.94347 1.11229 1.05231
 C1198 C 0.92359 1.17010 1.07248
 C1199 C 0.94269 0.94289 1.13374
 H1200 H 0.94908 0.94881 1.11796
 C1201 C 0.92506 0.92657 1.17384
 C1202 C 1.05623 1.05872 1.13030
 H1203 H 1.05062 1.05240 1.11434
 C1204 C 1.07126 1.07596 1.17120
 C1205 C 0.94222 0.86843 1.06314
 H1206 H 0.94886 0.88365 1.05660
 C1207 C 0.92387 0.82965 1.08061
 C1208 C 1.05323 1.12955 1.05683
 H1209 H 1.04710 1.11393 1.05071
 C1210 C 1.06995 1.16936 1.07374
 C1211 C 0.87015 0.94039 1.06096
 H1212 H 0.88627 0.94580 1.05535
 C1213 C 0.82873 0.92576 1.07613
 C1214 C 1.12753 1.05798 1.05846
 H1215 H 1.11146 1.05194 1.05334
 C1216 C 1.16893 1.07427 1.07205
 O1217 O 0.98092 0.41690 0.39169
 O1218 O 0.98133 0.39067 0.36616
 C1219 C 0.97357 0.40871 0.37360
 C1220 C 0.95564 0.42004 0.36118
 C1221 C 0.94844 0.41172 0.34054
 H1222 H 0.95588 0.39672 0.33430
 O1223 O 1.02430 0.57640 0.39133
 O1224 O 1.02467 0.60196 0.36523
 C1225 C 1.03237 0.58424 0.37344
 C1226 C 1.05111 0.57274 0.36240
 C1227 C 1.06069 0.58111 0.34275
 H1228 H 1.05433 0.59629 0.33578
 O1229 O 0.89187 0.47559 0.41873
 O1230 O 0.86669 0.47495 0.39205
 C1231 C 0.87410 0.46791 0.41063
 C1232 C 0.86212 0.45048 0.42288
 C1233 C 0.84093 0.44396 0.41610
 H1234 H 0.83341 0.45172 0.40167
 O1235 O 1.11095 0.51753 0.42397
 O1236 O 1.13711 0.51708 0.39831
 C1237 C 1.12900 0.52495 0.41621
 C1238 C 1.14031 0.54351 0.42744
 C1239 C 1.16024 0.55148 0.41875
 H1240 H 1.16806 0.54284 0.40501
 O1241 O 0.92052 0.38898 0.48019
 O1242 O 0.89537 0.36278 0.48007
 C1243 C 0.91339 0.37069 0.47282
 C1244 C 0.92603 0.35873 0.45542
 C1245 C 0.91987 0.33738 0.44891
 H1246 H 0.90627 0.32929 0.45729
 O1247 O 1.08134 0.60829 0.48099
 O1248 O 1.10662 0.63435 0.48073
 C1249 C 1.08878 0.62622 0.47316
 C1250 C 1.07671 0.63728 0.45472
 C1251 C 1.08404 0.65749 0.44596
 H1252 H 1.09868 0.66513 0.45285
 O1253 O 0.92242 0.51804 0.38835
 O1254 O 0.89745 0.51773 0.36146
 C1255 C 0.91513 0.52540 0.36991
 C1256 C 0.92712 0.54344 0.35864
 C1257 C 0.91950 0.55208 0.33825
 H1258 H 0.90486 0.54524 0.33049
 O1259 O 1.08139 0.47433 0.39277
 O1260 O 1.10769 0.47407 0.36726
 C1261 C 1.08956 0.46670 0.37478
 C1262 C 1.07829 0.44856 0.36287
 C1263 C 1.08657 0.44068 0.34248
 H1264 H 1.10036 0.44902 0.33475
 O1265 O 1.02400 0.38718 0.42337
 O1266 O 1.02403 0.36096 0.39783
 C1267 C 1.03142 0.36898 0.41596
 C1268 C 1.04906 0.35709 0.42825
 C1269 C 1.05567 0.33602 0.42129
 H1270 H 1.04756 0.32843 0.40710
 O1271 O 0.97941 0.60559 0.42065
 O1272 O 0.97967 0.63120 0.39458
 C1273 C 0.97177 0.62339 0.41256
 C1274 C 0.95331 0.63494 0.42397
 C1275 C 0.94645 0.65587 0.41678
 H1276 H 0.95487 0.66367 0.40294
 O1277 O 0.88782 0.57605 0.47665
 O1278 O 0.86219 0.60197 0.47592
 C1279 C 0.87011 0.58397 0.46843
 C1280 C 0.85916 0.57231 0.44957
 C1281 C 0.83851 0.57933 0.44128
 H1282 H 0.82996 0.59283 0.44942
 O1283 O 1.11165 0.41615 0.48307
 O1284 O 1.13766 0.39059 0.48334
 C1285 C 1.12979 0.40851 0.47565
 C1286 C 1.14148 0.42055 0.45767
 C1287 C 1.16303 0.41454 0.45112
 H1288 H 1.17154 0.40139 0.45984
 O1289 O 0.98107 0.57519 0.39019
 O1290 O 0.98149 0.60076 0.36408
 C1291 C 0.97399 0.58280 0.37175
 C1292 C 0.95621 0.57121 0.35951
 C1293 C 0.94868 0.57929 0.33893
 H1294 H 0.95711 0.59305 0.33128
 O1295 O 1.02419 0.41635 0.39178
 O1296 O 1.02458 0.39018 0.36618
 C1297 C 1.03203 0.40820 0.37387
 C1298 C 1.05037 0.41965 0.36240
 C1299 C 1.05916 0.41165 0.34216
 H1300 H 1.05223 0.39701 0.33459
 O1301 O 1.11109 0.47437 0.42416
 O1302 O 1.13738 0.47421 0.39864
 C1303 C 1.12929 0.46684 0.41671
 C1304 C 1.14106 0.44912 0.42894
 C1305 C 1.16244 0.44273 0.42249
 H1306 H 1.17023 0.45090 0.40851
 O1307 O 0.89078 0.51853 0.41746
 O1308 O 0.86564 0.51796 0.39074
 C1309 C 0.87288 0.52583 0.40903
 C1310 C 0.86064 0.54391 0.42047
 C1311 C 0.84005 0.55124 0.41239
 H1312 H 0.83298 0.54346 0.39774
 O1313 O 0.91847 0.60570 0.47742
 O1314 O 0.89312 0.63190 0.47680
 C1315 C 0.91121 0.62378 0.46965
 C1316 C 0.92374 0.63517 0.45184
 C1317 C 0.91719 0.65615 0.44444
 H1318 H 0.90337 0.66441 0.45241
 O1319 O 1.08182 0.38574 0.48309
 O1320 O 1.10743 0.35981 0.48341
 C1321 C 1.08952 0.36769 0.47558
 C1322 C 1.07762 0.35625 0.45723
 C1323 C 1.08412 0.33512 0.44988
 H1324 H 1.09762 0.32664 0.45815
 O1325 O 1.08138 0.51734 0.39258
 O1326 O 1.10761 0.51689 0.36700
 C1327 C 1.08955 0.52468 0.37452
 C1328 C 1.07851 0.54309 0.36266
 C1329 C 1.08722 0.55111 0.34254
 H1330 H 1.10079 0.54231 0.33480
 O1331 O 0.92232 0.47511 0.38823
 O1332 O 0.89742 0.47456 0.36130
 C1333 C 0.91523 0.46726 0.36986
 C1334 C 0.92752 0.44894 0.35889
 C1335 C 0.92121 0.44095 0.33770
 H1336 H 0.90828 0.44948 0.32866
 O1337 O 1.02255 0.60623 0.42235
 O1338 O 1.02260 0.63179 0.39623
 C1339 C 1.02979 0.62429 0.41466
 C1340 C 1.04737 0.63638 0.42667
 C1341 C 1.05433 0.65689 0.41878
 H1342 H 1.04531 0.66456 0.40522
 O1343 O 0.98086 0.38750 0.42289
 O1344 O 0.98105 0.36119 0.39742
 C1345 C 0.97340 0.36943 0.41537
 C1346 C 0.95538 0.35813 0.42740
 C1347 C 0.94891 0.33687 0.42105
 H1348 H 0.95737 0.32865 0.40742
 O1349 O 1.11119 0.57777 0.48114
 O1350 O 1.13675 0.60355 0.48057
 C1351 C 1.12897 0.58550 0.47317
 C1352 C 1.14025 0.57350 0.45479
 C1353 C 1.15994 0.58156 0.44539
 H1354 H 1.16707 0.59665 0.45177
 O1355 O 0.89032 0.41936 0.47905
 O1356 O 0.86491 0.39341 0.47883
 C1357 C 0.87259 0.41135 0.47116
 C1358 C 0.86120 0.42291 0.45259
 C1359 C 0.83984 0.41679 0.44574
 H1360 H 0.83119 0.40401 0.45475
 Cu1361 Cu 1.00252 0.40466 0.40995
 Cu1362 Cu 1.00276 0.37313 0.37931
 Cu1363 Cu 1.00182 0.58825 0.40872
 Cu1364 Cu 1.00211 0.61898 0.37740
 Cu1365 Cu 0.90935 0.49686 0.40583
 Cu1366 Cu 0.87930 0.49621 0.37369
 Cu1367 Cu 1.09355 0.49588 0.41094
 Cu1368 Cu 1.12509 0.49550 0.38026
 C1369 C 0.94508 0.43862 0.37022
 H1370 H 0.95016 0.44469 0.38647
 C1371 C 0.93152 0.42216 0.32827
 C1372 C 1.06022 0.55377 0.37222
 H1373 H 1.05343 0.54763 0.38773
 C1374 C 1.07883 0.57041 0.33257
 C1375 C 0.87205 0.43996 0.44121
 H1376 H 0.88855 0.44472 0.44632
 C1377 C 0.82950 0.42732 0.42753
 C1378 C 1.13058 0.55443 0.44566
 H1379 H 1.11509 0.54842 0.45231
 C1380 C 1.16999 0.57069 0.42723
 C1381 C 0.94397 0.36888 0.44473
 H1382 H 0.94868 0.38542 0.44950
 C1383 C 0.93126 0.32631 0.43177
 C1384 C 1.05836 0.62687 0.44490
 H1385 H 1.05305 0.61096 0.45097
 C1386 C 1.07295 0.66742 0.42784
 C1387 C 0.94556 0.55307 0.36907
 H1388 H 0.95118 0.54691 0.38508
 C1389 C 0.93014 0.57011 0.32830
 C1390 C 1.06001 0.43816 0.37251
 H1391 H 1.05370 0.44411 0.38836
 C1392 C 1.07736 0.42207 0.33206
 C1393 C 1.05995 0.36696 0.44637
 H1394 H 1.05501 0.38333 0.45165
 C1395 C 1.07302 0.32481 0.43201
 C1396 C 0.94196 0.62480 0.44163
 H1397 H 0.94699 0.60853 0.44707
 C1398 C 0.92847 0.66664 0.42694
 C1399 C 0.86992 0.55446 0.43915
 H1400 H 0.88592 0.54909 0.44527
 C1401 C 0.82873 0.56885 0.42271
 C1402 C 1.13078 0.43804 0.44664
 H1403 H 1.11415 0.44272 0.45147
 C1404 C 1.17373 0.42566 0.43358
 O1405 O 1.02243 0.42155 0.61454
 O1406 O 1.02182 0.39647 0.64112
 C1407 C 1.02965 0.41412 0.63298
 C1408 C 1.04781 0.42581 0.64459
 C1409 C 1.05507 0.41910 0.66584
 H1410 H 1.04648 0.40597 0.67437
 O1411 O 0.97709 0.57706 0.61148
 O1412 O 0.97653 0.60294 0.63739
 C1413 C 0.96916 0.58502 0.62947
 C1414 C 0.95067 0.57373 0.64082
 C1415 C 0.94206 0.58188 0.66108
 H1416 H 0.94945 0.59617 0.66891
 O1417 O 0.88763 0.51974 0.57968
 O1418 O 0.86182 0.51995 0.60571
 C1419 C 0.86956 0.52725 0.58746
 C1420 C 0.85774 0.54508 0.57551
 C1421 C 0.83747 0.55308 0.58356
 H1422 H 0.83010 0.54566 0.59822
 O1423 O 1.11201 0.47713 0.58258
 O1424 O 1.13751 0.47755 0.60897
 C1425 C 1.12987 0.46966 0.59085
 C1426 C 1.14157 0.45133 0.57948
 C1427 C 1.16282 0.44494 0.58636
 H1428 H 1.17076 0.45367 0.59995
 O1429 O 1.08126 0.38671 0.52672
 O1430 O 1.10689 0.36081 0.52743
 C1431 C 1.08888 0.36892 0.53481
 C1432 C 1.07685 0.35812 0.55340
 C1433 C 1.08358 0.33749 0.56171
 H1434 H 1.09704 0.32881 0.55360
 O1435 O 0.91765 0.60580 0.52092
 O1436 O 0.89227 0.63197 0.52054
 C1437 C 0.91005 0.62386 0.52849
 C1438 C 0.92184 0.63515 0.54704
 C1439 C 0.91402 0.65531 0.55569
 H1440 H 0.89959 0.66312 0.54838
 O1441 O 0.91835 0.47731 0.61078
 O1442 O 0.89255 0.47762 0.63681
 C1443 C 0.91067 0.47015 0.62911
 C1444 C 0.92278 0.45284 0.64153
 C1445 C 0.91509 0.44572 0.66240
 H1446 H 0.90013 0.45292 0.66920
 O1447 O 1.08134 0.52070 0.61200
 O1448 O 1.10660 0.52124 0.63861
 C1449 C 1.08865 0.52850 0.63026
 C1450 C 1.07624 0.54639 0.64161
 C1451 C 1.08347 0.55491 0.66223
 H1452 H 1.09825 0.54827 0.66996
 O1453 O 0.97963 0.39180 0.58322
 O1454 O 0.97887 0.36654 0.60961
 C1455 C 0.97173 0.37416 0.59115
 C1456 C 0.95389 0.36251 0.57897
 C1457 C 0.94704 0.34164 0.58606
 H1458 H 0.95483 0.33423 0.60052
 O1459 O 1.02057 0.60701 0.58108
 O1460 O 1.01973 0.63280 0.60707
 C1461 C 1.02778 0.62500 0.58913
 C1462 C 1.04625 0.63664 0.57808
 C1463 C 1.05378 0.65675 0.58668
 H1464 H 1.04504 0.66437 0.60049
 O1465 O 0.88830 0.41890 0.52255
 O1466 O 0.86303 0.39283 0.52251
 C1467 C 0.87030 0.41098 0.52996
 C1468 C 0.85825 0.42288 0.54784
 C1469 C 0.83715 0.41616 0.55500
 H1470 H 0.82903 0.40257 0.54666
 O1471 O 1.11214 0.57879 0.52461
 O1472 O 1.13777 0.60451 0.52444
 C1473 C 1.13013 0.58661 0.53216
 C1474 C 1.14183 0.57493 0.55046
 C1475 C 1.16215 0.58263 0.55882
 H1476 H 1.16957 0.59715 0.55157
 O1477 O 1.02043 0.57634 0.61116
 O1478 O 1.01966 0.60217 0.63710
 C1479 C 1.02764 0.58433 0.62937
 C1480 C 1.04607 0.57329 0.64128
 C1481 C 1.05326 0.58127 0.66205
 H1482 H 1.04422 0.59456 0.67000
 O1483 O 0.97919 0.42138 0.61440
 O1484 O 0.97860 0.39625 0.64094
 C1485 C 0.97122 0.41400 0.63255
 C1486 C 0.95265 0.42575 0.64353
 C1487 C 0.94498 0.41915 0.66467
 H1488 H 0.95373 0.40631 0.67361
 O1489 O 1.11249 0.52023 0.58228
 O1490 O 1.13787 0.52062 0.60877
 C1491 C 1.13031 0.52790 0.59039
 C1492 C 1.14192 0.54598 0.57875
 C1493 C 1.16233 0.55370 0.58669
 H1494 H 1.17025 0.54538 0.60056
 O1495 O 0.88785 0.47685 0.58033
 O1496 O 0.86198 0.47715 0.60630
 C1497 C 0.86985 0.46949 0.58822
 C1498 C 0.85821 0.45158 0.57641
 C1499 C 0.83728 0.44465 0.58347
 H1500 H 0.82955 0.45269 0.59764
 O1501 O 1.08090 0.60802 0.52452
 O1502 O 1.10623 0.63403 0.52464
 C1503 C 1.08834 0.62601 0.53224
 C1504 C 1.07615 0.63720 0.55058
 C1505 C 1.08364 0.65723 0.55968
 H1506 H 1.09840 0.66484 0.55303
 O1507 O 0.92071 0.39088 0.52362
 O1508 O 0.89570 0.36455 0.52363
 C1509 C 0.91346 0.37287 0.53134
 C1510 C 0.92560 0.36174 0.54970
 C1511 C 0.91938 0.34062 0.55674
 H1512 H 0.90634 0.33206 0.54791
 O1513 O 1.08171 0.47792 0.61308
 O1514 O 1.10705 0.47838 0.63961
 C1515 C 1.08916 0.47083 0.63160
 C1516 C 1.07707 0.45341 0.64372
 C1517 C 1.08428 0.44631 0.66482
 H1518 H 1.09878 0.45377 0.67225
 O1519 O 0.91800 0.52013 0.61028
 O1520 O 0.89220 0.52038 0.63632
 C1521 C 0.91018 0.52777 0.62840
 C1522 C 0.92178 0.54578 0.64011
 C1523 C 0.91347 0.55406 0.66032
 H1524 H 0.89913 0.54647 0.66788
 O1525 O 0.97727 0.60575 0.57947
 O1526 O 0.97669 0.63159 0.60540
 C1527 C 0.96940 0.62361 0.58717
 C1528 C 0.95111 0.63499 0.57535
 C1529 C 0.94319 0.65517 0.58349
 H1530 H 0.95095 0.66262 0.59796
 O1531 O 1.02285 0.39017 0.58508
 O1532 O 1.02204 0.36500 0.61156
 C1533 C 1.03005 0.37228 0.59343
 C1534 C 1.04818 0.36000 0.58216
 C1535 C 1.05540 0.33959 0.59047
 H1536 H 1.04757 0.33290 0.60521
 O1537 O 1.11184 0.41644 0.52645
 O1538 O 1.13781 0.39086 0.52700
 C1539 C 1.12995 0.40899 0.53419
 C1540 C 1.14166 0.42151 0.55192
 C1541 C 1.16302 0.41540 0.55898
 H1542 H 1.17138 0.40172 0.55094
 O1543 O 0.88669 0.57656 0.52040
 O1544 O 0.86110 0.60251 0.51995
 C1545 C 0.86874 0.58463 0.52788
 C1546 C 0.85724 0.57336 0.54649
 C1547 C 0.83704 0.58138 0.55502
 H1548 H 0.82915 0.59553 0.54739
 Cu1549 Cu 1.00114 0.40877 0.59670
 Cu1550 Cu 1.00025 0.37854 0.62844
 Cu1551 Cu 0.99890 0.58891 0.59322
 Cu1552 Cu 0.99809 0.61997 0.62430
 Cu1553 Cu 0.90740 0.40718 0.50136
 Cu1554 Cu 0.87724 0.37576 0.50124
 Cu1555 Cu 1.09405 0.40375 0.50480
 Cu1556 Cu 1.12500 0.37288 0.50534
 Cu1557 Cu 0.90511 0.58839 0.49890
 Cu1558 Cu 0.87459 0.61967 0.49820
 Cu1559 Cu 1.09387 0.59067 0.50286
 Cu1560 Cu 1.12441 0.62172 0.50258
 Cu1561 Cu 0.90554 0.49846 0.59261
 Cu1562 Cu 0.87454 0.49879 0.62391
 Cu1563 Cu 1.09439 0.49896 0.59479
 Cu1564 Cu 1.12485 0.49948 0.62661
 C1565 C 1.05874 0.44316 0.63382
 H1566 H 1.05337 0.44830 0.61736
 C1567 C 1.07336 0.42925 0.67611
 C1568 C 0.94051 0.55556 0.63059
 H1569 H 0.94678 0.54943 0.61480
 C1570 C 0.92336 0.57219 0.67085
 C1571 C 0.86731 0.55510 0.55679
 H1572 H 0.88308 0.54910 0.55066
 C1573 C 0.82700 0.57119 0.57350
 C1574 C 1.13121 0.43964 0.56214
 H1575 H 1.11469 0.44436 0.55695
 C1576 C 1.17381 0.42715 0.57611
 C1577 C 1.05894 0.36905 0.56358
 H1578 H 1.05370 0.38498 0.55739
 C1579 C 1.07294 0.32802 0.58030
 C1580 C 0.94052 0.62521 0.55694
 H1581 H 0.94644 0.60949 0.55076
 C1582 C 0.92471 0.66543 0.57388
 C1583 C 0.94163 0.44284 0.63228
 H1584 H 0.94735 0.44794 0.61594
 C1585 C 0.92613 0.42902 0.67428
 C1586 C 1.05748 0.55566 0.63134
 H1587 H 1.05208 0.54954 0.61522
 C1588 C 1.07209 0.57242 0.67258
 C1589 C 0.94313 0.37243 0.56072
 H1590 H 0.94804 0.38874 0.55545
 C1591 C 0.92995 0.33043 0.57496
 C1592 C 1.05737 0.62713 0.55988
 H1593 H 1.05172 0.61148 0.55335
 C1594 C 1.07257 0.66708 0.57786
 C1595 C 0.86844 0.44076 0.55849
 H1596 H 0.88476 0.44589 0.55323
 C1597 C 0.82645 0.42710 0.57278
 C1598 C 1.13197 0.55652 0.56047
 H1599 H 1.11611 0.55076 0.55445
 C1600 C 1.17255 0.57211 0.57699
 O1601 O 0.48155 0.92469 0.38431
 O1602 O 0.48149 0.89907 0.35813
 C1603 C 0.47417 0.91711 0.36597
 C1604 C 0.45624 0.92885 0.35409
 C1605 C 0.44878 0.92113 0.33335
 H1606 H 0.45750 0.90768 0.32532
 O1607 O 0.52601 1.08238 0.38739
 O1608 O 0.52635 1.10865 0.36201
 C1609 C 0.53388 1.09060 0.36960
 C1610 C 0.55255 1.07960 0.35806
 C1611 C 0.56123 1.08865 0.33846
 H1612 H 0.55305 1.10272 0.33098
 O1613 O 0.39132 0.98249 0.41368
 O1614 O 0.36606 0.98378 0.38708
 C1615 C 0.37315 0.97594 0.40539
 C1616 C 0.36040 0.95885 0.41714
 C1617 C 0.33950 0.95227 0.40943
 H1618 H 0.33261 0.95986 0.39460
 O1619 O 0.61391 1.02292 0.41783
 O1620 O 0.64035 1.02246 0.39247
 C1621 C 0.63238 1.02981 0.41066
 C1622 C 0.64416 1.04708 0.42334
 C1623 C 0.66428 1.05570 0.41560
 H1624 H 0.67175 1.04915 0.40053
 O1625 O 0.41873 0.89714 0.47242
 O1626 O 0.39270 0.87183 0.47140
 C1627 C 0.41102 0.87940 0.46436
 C1628 C 0.42339 0.86773 0.44642
 C1629 C 0.41652 0.84692 0.43882
 H1630 H 0.40273 0.83895 0.44696
 O1631 O 0.58362 1.10810 0.47767
 O1632 O 0.60974 1.13331 0.47904
 C1633 C 0.59190 1.12598 0.47060
 C1634 C 0.58072 1.13815 0.45225
 C1635 C 0.58898 1.15841 0.44468
 H1636 H 0.60381 1.16501 0.45224
 O1637 O 0.42423 1.02446 0.38522
 O1638 O 0.39919 1.02554 0.35840
 C1639 C 0.41718 1.03233 0.36692
 C1640 C 0.42967 1.04990 0.35560
 C1641 C 0.42296 1.05714 0.33448
 H1642 H 0.40895 1.04942 0.32638
 O1643 O 0.58239 0.98215 0.38598
 O1644 O 0.60854 0.98163 0.36032
 C1645 C 0.59025 0.97458 0.36787
 C1646 C 0.57849 0.95673 0.35603
 C1647 C 0.58660 0.94862 0.33567
 H1648 H 0.60102 0.95609 0.32813
 O1649 O 0.52323 0.89270 0.41519
 O1650 O 0.52311 0.86707 0.38904
 C1651 C 0.53051 0.87458 0.40736
 C1652 C 0.54832 0.86268 0.41940
 C1653 C 0.55699 0.84264 0.41127
 H1654 H 0.55005 0.83516 0.39640
 O1655 O 0.48209 1.11217 0.41757
 O1656 O 0.48243 1.13833 0.39208
 C1657 C 0.47450 1.13016 0.40984
 C1658 C 0.45578 1.14124 0.42123
 C1659 C 0.44654 1.16071 0.41249
 H1660 H 0.45355 1.16808 0.39764
 O1661 O 0.39306 1.08137 0.47563
 O1662 O 0.36743 1.10732 0.47558
 C1663 C 0.37524 1.08942 0.46784
 C1664 C 0.36385 1.07835 0.44906
 C1665 C 0.34349 1.08639 0.44128
 H1666 H 0.33553 1.09999 0.44987
 O1667 O 0.60880 0.92225 0.47624
 O1668 O 0.63446 0.89634 0.47684
 C1669 C 0.62683 0.91424 0.46894
 C1670 C 0.63870 0.92520 0.45044
 C1671 C 0.65812 0.91573 0.44198
 H1672 H 0.66513 0.90136 0.45006
 O1673 O 0.48295 1.08221 0.38672
 O1674 O 0.48327 1.10824 0.36109
 C1675 C 0.47575 1.09015 0.36849
 C1676 C 0.45807 1.07839 0.35622
 C1677 C 0.45097 1.08555 0.33503
 H1678 H 0.45897 1.09942 0.32711
 O1679 O 0.52459 0.92407 0.38576
 O1680 O 0.52449 0.89852 0.35952
 C1681 C 0.53219 0.91629 0.36760
 C1682 C 0.55044 0.92785 0.35609
 C1683 C 0.55894 0.91983 0.33579
 H1684 H 0.55167 0.90544 0.32804
 O1685 O 0.61207 0.98024 0.41688
 O1686 O 0.63842 0.97944 0.39144
 C1687 C 0.62984 0.97195 0.40926
 C1688 C 0.64019 0.95304 0.42100
 C1689 C 0.65951 0.94304 0.41259
 H1690 H 0.66720 0.94942 0.39761
 O1691 O 0.39303 1.02507 0.41471
 O1692 O 0.36781 1.02648 0.38808
 C1693 C 0.37542 1.03328 0.40665
 C1694 C 0.36396 1.05114 0.41893
 C1695 C 0.34359 1.05946 0.41135
 H1696 H 0.33595 1.05256 0.39653
 O1697 O 0.42334 1.11138 0.47601
 O1698 O 0.39764 1.13726 0.47588
 C1699 C 0.41560 1.12932 0.46834
 C1700 C 0.42708 1.14072 0.44990
 C1701 C 0.41819 1.16020 0.44103
 H1702 H 0.40365 1.16753 0.44862
 O1703 O 0.57909 0.89179 0.47536
 O1704 O 0.60480 0.86592 0.47596
 C1705 C 0.58709 0.87388 0.46786
 C1706 C 0.57609 0.86258 0.44904
 C1707 C 0.58462 0.84274 0.44067
 H1708 H 0.59872 0.83508 0.44875
 O1709 O 0.58448 1.02502 0.38648
 O1710 O 0.61071 1.02479 0.36092
 C1711 C 0.59286 1.03281 0.36873
 C1712 C 0.58180 1.05171 0.35760
 C1713 C 0.59063 1.06138 0.33817
 H1714 H 0.60568 1.05481 0.33093
 O1715 O 0.42248 0.98169 0.38407
 O1716 O 0.39738 0.98266 0.35732
 C1717 C 0.41498 0.97458 0.36559
 C1718 C 0.42681 0.95648 0.35399
 C1719 C 0.41915 0.94812 0.33345
 H1720 H 0.40441 0.95506 0.32590
 O1721 O 0.52535 1.11145 0.41897
 O1722 O 0.52580 1.13781 0.39370
 C1723 C 0.53316 1.12942 0.41170
 C1724 C 0.55161 1.14012 0.42389
 C1725 C 0.55975 1.16061 0.41697
 H1726 H 0.55138 1.16931 0.40363
 O1727 O 0.48002 0.89563 0.41563
 O1728 O 0.47984 0.86994 0.38953
 C1729 C 0.47198 0.87810 0.40747
 C1730 C 0.45307 0.86728 0.41865
 C1731 C 0.44549 0.84688 0.41088
 H1732 H 0.45351 0.83937 0.39660
 O1733 O 0.61373 1.07764 0.47874
 O1734 O 0.63990 1.10278 0.48036
 C1735 C 0.63210 1.08523 0.47200
 C1736 C 0.64399 1.07411 0.45358
 C1737 C 0.66409 1.08249 0.44570
 H1738 H 0.67170 1.09631 0.45416
 O1739 O 0.38759 0.92662 0.47290
 O1740 O 0.36131 0.90156 0.47216
 C1741 C 0.36949 0.91939 0.46501
 C1742 C 0.35841 0.93146 0.44673
 C1743 C 0.33733 0.92533 0.43917
 H1744 H 0.32844 0.91255 0.44793
 Cu1745 Cu 0.50248 0.91180 0.40288
 Cu1746 Cu 0.50223 0.88104 0.37147
 Cu1747 Cu 0.50400 1.09447 0.40525
 Cu1748 Cu 0.50449 1.12593 0.37470
 Cu1749 Cu 0.41030 1.00323 0.40210
 Cu1750 Cu 0.38011 1.00479 0.36996
 Cu1751 Cu 0.59557 1.00272 0.40431
 Cu1752 Cu 0.62714 1.00201 0.37368
 C1753 C 0.44539 0.94673 0.36412
 H1754 H 0.45105 0.95264 0.38022
 C1755 C 0.43001 0.93031 0.32304
 C1756 C 0.56274 1.06098 0.36734
 H1757 H 0.55612 1.05405 0.38258
 C1758 C 0.58048 1.08005 0.32857
 C1759 C 0.36961 0.94845 0.43584
 H1760 H 0.38595 0.95313 0.44154
 C1761 C 0.32772 0.93554 0.42039
 C1762 C 0.63432 1.05622 0.44249
 H1763 H 0.61860 1.04996 0.44829
 C1764 C 0.67424 1.07354 0.42663
 C1765 C 0.44194 0.87760 0.43645
 H1766 H 0.44741 0.89361 0.44218
 C1767 C 0.42744 0.83632 0.42097
 C1768 C 0.56201 1.12919 0.44174
 H1769 H 0.55583 1.11335 0.44712
 C1770 C 0.57855 1.16992 0.42712
 C1771 C 0.44743 1.06039 0.36625
 H1772 H 0.45247 1.05499 0.38274
 C1773 C 0.43347 1.07485 0.32403
 C1774 C 0.56021 0.94645 0.36596
 H1775 H 0.55407 0.95246 0.38185
 C1776 C 0.57704 0.93014 0.32553
 C1777 C 0.55783 0.87231 0.43846
 H1778 H 0.55147 0.88786 0.44466
 C1779 C 0.57528 0.83270 0.42178
 C1780 C 0.44601 1.13147 0.44004
 H1781 H 0.45273 1.11625 0.44662
 C1782 C 0.42760 1.17018 0.42220
 C1783 C 0.37387 1.06058 0.43792
 H1784 H 0.38976 1.05450 0.44366
 C1785 C 0.33330 1.07714 0.42241
 C1786 C 0.62994 0.94400 0.44000
 H1787 H 0.61476 0.95122 0.44630
 C1788 C 0.66842 0.92422 0.42290
 O1789 O 0.51717 0.91982 0.60791
 O1790 O 0.51618 0.89328 0.63299
 C1791 C 0.52403 0.91137 0.62603
 C1792 C 0.54158 0.92257 0.63887
 C1793 C 0.54793 0.91476 0.65995
 H1794 H 0.53971 0.90053 0.66691
 O1795 O 0.47907 1.08070 0.61050
 O1796 O 0.47944 1.10677 0.63622
 C1797 C 0.47162 1.08890 0.62850
 C1798 C 0.45320 1.07795 0.64020
 C1799 C 0.44502 1.08672 0.66019
 H1800 H 0.45315 1.10076 0.66772
 O1801 O 0.39096 1.02516 0.57975
 O1802 O 0.36452 1.02557 0.60511
 C1803 C 0.37288 1.03296 0.58717
 C1804 C 0.36186 1.05116 0.57502
 C1805 C 0.34177 1.06006 0.58273
 H1806 H 0.33393 1.05325 0.59743
 O1807 O 0.60586 0.97692 0.58156
 O1808 O 0.63131 0.97575 0.60798
 C1809 C 0.62375 0.96909 0.58938
 C1810 C 0.63577 0.95185 0.57689
 C1811 C 0.65638 0.94431 0.58451
 H1812 H 0.66361 0.95137 0.59945
 O1813 O 0.57764 0.89170 0.51883
 O1814 O 0.60336 0.86584 0.51932
 C1815 C 0.58514 0.87363 0.52641
 C1816 C 0.57279 0.86181 0.54399
 C1817 C 0.57993 0.84105 0.55147
 H1818 H 0.59413 0.83322 0.54374
 O1819 O 0.42325 1.11114 0.51962
 O1820 O 0.39769 1.13716 0.51928
 C1821 C 0.41553 1.12917 0.52711
 C1822 C 0.42694 1.14065 0.54560
 C1823 C 0.41914 1.16109 0.55318
 H1824 H 0.40558 1.16904 0.54448
 O1825 O 0.41945 0.98118 0.61036
 O1826 O 0.39322 0.98133 0.63593
 C1827 C 0.41103 0.97332 0.62805
 C1828 C 0.42169 0.95410 0.63884
 C1829 C 0.41342 0.94534 0.65888
 H1830 H 0.39948 0.95317 0.66708
 O1831 O 0.57627 1.01987 0.61281
 O1832 O 0.60174 1.01859 0.63919
 C1833 C 0.58421 1.02693 0.63111
 C1834 C 0.57351 1.04566 0.64261
 C1835 C 0.58232 1.05380 0.66264
 H1836 H 0.59658 1.04575 0.66999
 O1837 O 0.47476 0.89145 0.57507
 O1838 O 0.47394 0.86456 0.59978
 C1839 C 0.46706 0.87320 0.58175
 C1840 C 0.44960 0.86226 0.56857
 C1841 C 0.44331 0.84052 0.57321
 H1842 H 0.45216 0.83132 0.58588
 O1843 O 0.52268 1.10946 0.57985
 O1844 O 0.52291 1.13584 0.60525
 C1845 C 0.53024 1.12754 0.58719
 C1846 C 0.54805 1.13876 0.57479
 C1847 C 0.55454 1.16018 0.58067
 H1848 H 0.54564 1.16893 0.59365
 O1849 O 0.38858 0.92681 0.51656
 O1850 O 0.36236 0.90170 0.51594
 C1851 C 0.37053 0.91927 0.52408
 C1852 C 0.35935 0.93075 0.54289
 C1853 C 0.33842 0.92394 0.55032
 H1854 H 0.32989 0.91090 0.54149
 O1855 O 0.61136 1.07697 0.52243
 O1856 O 0.63755 1.10208 0.52407
 C1857 C 0.62899 1.08434 0.53119
 C1858 C 0.63924 1.07241 0.55022
 C1859 C 0.65955 1.07933 0.55926
 H1860 H 0.66793 1.09335 0.55207
 O1861 O 0.52195 1.08059 0.61177
 O1862 O 0.52257 1.10673 0.63739
 C1863 C 0.52955 1.08839 0.62993
 C1864 C 0.54703 1.07607 0.64202
 C1865 C 0.55598 1.08399 0.66219
 H1866 H 0.54932 1.09887 0.66963
 O1867 O 0.47426 0.92050 0.60694
 O1868 O 0.47324 0.89376 0.63179
 C1869 C 0.46630 0.91222 0.62464
 C1870 C 0.44856 0.92401 0.63684
 C1871 C 0.44019 0.91556 0.65688
 H1872 H 0.44741 0.90077 0.66393
 O1873 O 0.60644 1.01955 0.58230
 O1874 O 0.63197 1.01834 0.60865
 C1875 C 0.62458 1.02633 0.59047
 C1876 C 0.63700 1.04400 0.57904
 C1877 C 0.65745 1.05090 0.58752
 H1878 H 0.66460 1.04242 0.60172
 O1879 O 0.39065 0.98247 0.57857
 O1880 O 0.36419 0.98270 0.60391
 C1881 C 0.37229 0.97532 0.58575
 C1882 C 0.36041 0.95801 0.57307
 C1883 C 0.33966 0.95076 0.58034
 H1884 H 0.33242 0.95796 0.59522
 O1885 O 0.58177 1.10779 0.52115
 O1886 O 0.60788 1.13304 0.52244
 C1887 C 0.58945 1.12559 0.52911
 C1888 C 0.57704 1.13764 0.54652
 C1889 C 0.58362 1.15883 0.55292
 H1890 H 0.59785 1.16622 0.54496
 O1891 O 0.41730 0.89509 0.51571
 O1892 O 0.39121 0.86982 0.51470
 C1893 C 0.40932 0.87699 0.52251
 C1894 C 0.42115 0.86428 0.53977
 C1895 C 0.41473 0.84271 0.54487
 H1896 H 0.40086 0.83546 0.53612
 O1897 O 0.57530 0.97683 0.61202
 O1898 O 0.60065 0.97558 0.63852
 C1899 C 0.58263 0.96870 0.63014
 C1900 C 0.57027 0.95067 0.64106
 C1901 C 0.57639 0.94271 0.66226
 H1902 H 0.58978 0.95051 0.67129
 O1903 O 0.42043 1.02427 0.61115
 O1904 O 0.39418 1.02471 0.63668
 C1905 C 0.41238 1.03199 0.62915
 C1906 C 0.42406 1.05017 0.64076
 C1907 C 0.41591 1.05935 0.66080
 H1908 H 0.40118 1.05265 0.66845
 O1909 O 0.47971 1.11091 0.58027
 O1910 O 0.47987 1.13713 0.60583
 C1911 C 0.47234 1.12910 0.58776
 C1912 C 0.45450 1.14065 0.57547
 C1913 C 0.44626 1.16104 0.58302
 H1914 H 0.45324 1.16861 0.59782
 O1915 O 0.51777 0.89095 0.57617
 O1916 O 0.51691 0.86429 0.60113
 C1917 C 0.52497 0.87267 0.58351
 C1918 C 0.54325 0.86131 0.57177
 C1919 C 0.55056 0.84056 0.57897
 H1920 H 0.54242 0.83260 0.59288
 O1921 O 0.60824 0.92146 0.51992
 O1922 O 0.63402 0.89566 0.52040
 C1923 C 0.62600 0.91352 0.52796
 C1924 C 0.63703 0.92479 0.54677
 C1925 C 0.65764 0.91740 0.55463
 H1926 H 0.66606 0.90398 0.54619
 O1927 O 0.39239 1.08166 0.51943
 O1928 O 0.36688 1.10772 0.51912
 C1929 C 0.37448 1.08981 0.52693
 C1930 C 0.36270 1.07883 0.54545
 C1931 C 0.34265 1.08750 0.55342
 H1932 H 0.33522 1.10160 0.54522
 Cu1933 Cu 0.49603 0.90835 0.58898
 Cu1934 Cu 0.49494 0.87627 0.61894
 Cu1935 Cu 0.50090 1.09280 0.59303
 Cu1936 Cu 0.50128 1.12425 0.62378
 Cu1937 Cu 0.40560 0.91399 0.49447
 Cu1938 Cu 0.37421 0.88377 0.49344
 Cu1939 Cu 0.59085 0.90942 0.49760
 Cu1940 Cu 0.62180 0.87839 0.49822
 Cu1941 Cu 0.41057 1.09373 0.49770
 Cu1942 Cu 0.37983 1.12495 0.49746
 Cu1943 Cu 0.59505 1.09004 0.49982
 Cu1944 Cu 0.62644 1.12028 0.50165
 Cu1945 Cu 0.40811 1.00330 0.59254
 Cu1946 Cu 0.37641 1.00359 0.62302
 Cu1947 Cu 0.58829 0.99833 0.59461
 Cu1948 Cu 0.61894 0.99690 0.62630
 C1949 C 0.55267 0.94063 0.62968
 H1950 H 0.54801 0.94648 0.61324
 C1951 C 0.56521 0.92476 0.67188
 C1952 C 0.44283 1.05954 0.63076
 H1953 H 0.44898 1.05293 0.61512
 C1954 C 0.42629 1.07778 0.67050
 C1955 C 0.37208 1.06054 0.55623
 H1956 H 0.38774 1.05401 0.55038
 C1957 C 0.33215 1.07833 0.57208
 C1958 C 0.62632 0.94220 0.55786
 H1959 H 0.61025 0.94776 0.55210
 C1960 C 0.66739 0.92708 0.57351
 C1961 C 0.55430 0.87171 0.55411
 H1962 H 0.54891 0.88787 0.54868
 C1963 C 0.56890 0.83032 0.56896
 C1964 C 0.44479 1.13067 0.55668
 H1965 H 0.45072 1.11475 0.55103
 C1966 C 0.42848 1.17132 0.57199
 C1967 C 0.43938 0.94339 0.62808
 H1968 H 0.44562 0.94981 0.61245
 C1969 C 0.42256 0.92600 0.66797
 C1970 C 0.55573 1.05672 0.63258
 H1971 H 0.54918 1.05067 0.61688
 C1972 C 0.57375 1.07296 0.67258
 C1973 C 0.43865 0.87387 0.55160
 H1974 H 0.44337 0.89068 0.54799
 C1975 C 0.42583 0.83057 0.56142
 C1976 C 0.55916 1.12776 0.55744
 H1977 H 0.55432 1.11119 0.55287
 C1978 C 0.57238 1.17037 0.56981
 C1979 C 0.37009 0.94800 0.55424
 H1980 H 0.38630 0.95326 0.54878
 C1981 C 0.32844 0.93384 0.56908
 C1982 C 0.62813 1.05467 0.56022
 H1983 H 0.61225 1.04951 0.55369
 C1984 C 0.66879 1.06865 0.57794
 O1985 O 0.47866 0.42460 0.88299
 O1986 O 0.47988 0.39986 0.85600
 C1987 C 0.47168 0.41731 0.86437
 C1988 C 0.45336 0.42903 0.85289
 C1989 C 0.44552 0.42205 0.83189
 H1990 H 0.45327 0.40814 0.82363
 O1991 O 0.51874 0.58423 0.88805
 O1992 O 0.51873 0.61021 0.86239
 C1993 C 0.52686 0.59255 0.87042
 C1994 C 0.54637 0.58180 0.85977
 C1995 C 0.55597 0.59045 0.84022
 H1996 H 0.54882 0.60494 0.83252
 O1997 O 0.38876 0.48007 0.91473
 O1998 O 0.36298 0.48058 0.88861
 C1999 C 0.37085 0.47266 0.90654
 C2000 C 0.35939 0.45431 0.91772
 C2001 C 0.33900 0.44660 0.90969
 H2002 H 0.33132 0.45450 0.89543
 O2003 O 0.60941 0.52797 0.92189
 O2004 O 0.63600 0.52850 0.89672
 C2005 C 0.62748 0.53585 0.91463
 C2006 C 0.63811 0.55426 0.92685
 C2007 C 0.65891 0.56244 0.92045
 H2008 H 0.66792 0.55443 0.90706
 O2009 O 0.42014 0.39164 0.97147
 O2010 O 0.39490 0.36555 0.97073
 C2011 C 0.41278 0.37373 0.96338
 C2012 C 0.42475 0.36274 0.94472
 C2013 C 0.41778 0.34221 0.93644
 H2014 H 0.40436 0.33377 0.94471
 O2015 O 0.57322 0.61500 0.97937
 O2016 O 0.59786 0.64162 0.98083
 C2017 C 0.58048 0.63337 0.97240
 C2018 C 0.56885 0.64484 0.95389
 C2019 C 0.57567 0.66576 0.94655
 H2020 H 0.58901 0.67411 0.95513
 O2021 O 0.41866 0.52426 0.88599
 O2022 O 0.39279 0.52465 0.85997
 C2023 C 0.41069 0.53210 0.86803
 C2024 C 0.42199 0.55038 0.85660
 C2025 C 0.41391 0.55817 0.83615
 H2026 H 0.40004 0.54998 0.82825
 O2027 O 0.57982 0.48505 0.89041
 O2028 O 0.60632 0.48568 0.86513
 C2029 C 0.58816 0.47794 0.87230
 C2030 C 0.57704 0.46015 0.85963
 C2031 C 0.58569 0.45328 0.83903
 H2032 H 0.59971 0.46184 0.83199
 O2033 O 0.52135 0.39445 0.91412
 O2034 O 0.52309 0.36963 0.88722
 C2035 C 0.52982 0.37707 0.90589
 C2036 C 0.54815 0.36595 0.91791
 C2037 C 0.55909 0.34766 0.90847
 H2038 H 0.55379 0.34128 0.89243
 O2039 O 0.47371 0.61240 0.91811
 O2040 O 0.47323 0.63863 0.89270
 C2041 C 0.46571 0.63031 0.91066
 C2042 C 0.44729 0.64124 0.92293
 C2043 C 0.43934 0.66210 0.91642
 H2044 H 0.44717 0.67064 0.90270
 O2045 O 0.38662 0.57961 0.97795
 O2046 O 0.35997 0.60452 0.97792
 C2047 C 0.36839 0.58685 0.97028
 C2048 C 0.35717 0.57482 0.95198
 C2049 C 0.33558 0.58055 0.94542
 H2050 H 0.32672 0.59336 0.95436
 O2051 O 0.60676 0.42406 0.97778
 O2052 O 0.63290 0.39862 0.97780
 C2053 C 0.62509 0.41668 0.97048
 C2054 C 0.63735 0.42904 0.95315
 C2055 C 0.65831 0.42184 0.94620
 H2056 H 0.66533 0.40712 0.95358
 O2057 O 0.47542 0.58329 0.88642
 O2058 O 0.47507 0.60924 0.86074
 C2059 C 0.46788 0.59110 0.86826
 C2060 C 0.44999 0.57924 0.85639
 C2061 C 0.44159 0.58690 0.83585
 H2062 H 0.44873 0.60130 0.82805
 O2063 O 0.52181 0.42597 0.88526
 O2064 O 0.52333 0.40137 0.85815
 C2065 C 0.53032 0.41903 0.86716
 C2066 C 0.54893 0.43134 0.85696
 C2067 C 0.55810 0.42455 0.83645
 H2068 H 0.55127 0.41046 0.82780
 O2069 O 0.60964 0.48477 0.92160
 O2070 O 0.63622 0.48531 0.89642
 C2071 C 0.62790 0.47737 0.91414
 C2072 C 0.63905 0.45886 0.92583
 C2073 C 0.66025 0.45156 0.91932
 H2074 H 0.66908 0.46035 0.90641
 O2075 O 0.38886 0.52287 0.91705
 O2076 O 0.36292 0.52324 0.89109
 C2077 C 0.37061 0.53019 0.90957
 C2078 C 0.35834 0.54714 0.92233
 C2079 C 0.33678 0.55307 0.91603
 H2080 H 0.32907 0.54502 0.90187
 O2081 O 0.41614 0.61046 0.97840
 O2082 O 0.38963 0.63549 0.97829
 C2083 C 0.40787 0.62816 0.97071
 C2084 C 0.41925 0.64012 0.95244
 C2085 C 0.41154 0.66087 0.94560
 H2086 H 0.39742 0.66817 0.95396
 O2087 O 0.57637 0.39409 0.97635
 O2088 O 0.60256 0.36872 0.97639
 C2089 C 0.58473 0.37654 0.96840
 C2090 C 0.57447 0.36562 0.94891
 C2091 C 0.58468 0.34704 0.93960
 H2092 H 0.59875 0.33967 0.94800
 O2093 O 0.57916 0.52798 0.89112
 O2094 O 0.60568 0.52858 0.86587
 C2095 C 0.58731 0.53579 0.87327
 C2096 C 0.57572 0.55389 0.86133
 C2097 C 0.58467 0.56246 0.84160
 H2098 H 0.59924 0.55478 0.83447
 O2099 O 0.41981 0.48142 0.88496
 O2100 O 0.39407 0.48191 0.85882
 C2101 C 0.41222 0.47445 0.86648
 C2102 C 0.42431 0.45710 0.85409
 C2103 C 0.41690 0.45012 0.83306
 H2104 H 0.40295 0.45842 0.82536
 O2105 O 0.51668 0.61388 0.91895
 O2106 O 0.51636 0.64006 0.89347
 C2107 C 0.52372 0.63218 0.91168
 C2108 C 0.54103 0.64412 0.92424
 C2109 C 0.54808 0.66491 0.91712
 H2110 H 0.54052 0.67231 0.90252
 O2111 O 0.47827 0.39400 0.91299
 O2112 O 0.47966 0.36898 0.88629
 C2113 C 0.47135 0.37616 0.90444
 C2114 C 0.45317 0.36402 0.91564
 C2115 C 0.44570 0.34366 0.90736
 H2116 H 0.45339 0.33673 0.89260
 O2117 O 0.60458 0.58565 0.97982
 O2118 O 0.62929 0.61222 0.98127
 C2119 C 0.62256 0.59414 0.97310
 C2120 C 0.63550 0.58296 0.95537
 C2121 C 0.65623 0.59100 0.94875
 H2122 H 0.66290 0.60549 0.95685
 O2123 O 0.38907 0.42133 0.97178
 O2124 O 0.36379 0.39526 0.97098
 C2125 C 0.37128 0.41341 0.96384
 C2126 C 0.35961 0.42521 0.94573
 C2127 C 0.33924 0.41763 0.93748
 H2128 H 0.33147 0.40345 0.94506
 Cu2129 Cu 0.49983 0.41222 0.90148
 Cu2130 Cu 0.50162 0.38249 0.86919
 Cu2131 Cu 0.49612 0.59578 0.90533
 Cu2132 Cu 0.49578 0.62710 0.87470
 Cu2133 Cu 0.40662 0.50209 0.90333
 Cu2134 Cu 0.37561 0.50269 0.87197
 Cu2135 Cu 0.59196 0.50640 0.90888
 Cu2136 Cu 0.62369 0.50705 0.87850
 C2137 C 0.44270 0.44665 0.86373
 H2138 H 0.44833 0.45186 0.88010
 C2139 C 0.42721 0.43251 0.82187
 C2140 C 0.55642 0.56349 0.87014
 H2141 H 0.54954 0.55703 0.88547
 C2142 C 0.57526 0.58094 0.83106
 C2143 C 0.36941 0.44367 0.93588
 H2144 H 0.38527 0.44940 0.94195
 C2145 C 0.32880 0.42826 0.91946
 C2146 C 0.62673 0.56451 0.94447
 H2147 H 0.61061 0.55846 0.94933
 C2148 C 0.66819 0.58080 0.93139
 C2149 C 0.44261 0.37331 0.93436
 H2150 H 0.44797 0.38918 0.94059
 C2151 C 0.42805 0.33248 0.91769
 C2152 C 0.55135 0.63432 0.94275
 H2153 H 0.54616 0.61812 0.94810
 C2154 C 0.56529 0.67597 0.92817
 C2155 C 0.44017 0.56084 0.86649
 H2156 H 0.44624 0.55503 0.88247
 C2157 C 0.42342 0.57646 0.82572
 C2158 C 0.55850 0.44925 0.86837
 H2159 H 0.55189 0.45435 0.88440
 C2160 C 0.57655 0.43542 0.82741
 C2161 C 0.55600 0.37480 0.93818
 H2162 H 0.54822 0.38934 0.94521
 C2163 C 0.57761 0.33831 0.91913
 C2164 C 0.43723 0.63053 0.94112
 H2165 H 0.44307 0.61440 0.94615
 C2166 C 0.42152 0.67212 0.92777
 C2167 C 0.36833 0.55793 0.94047
 H2168 H 0.38507 0.55359 0.94524
 C2169 C 0.32522 0.56965 0.92753
 C2170 C 0.62792 0.44764 0.94298
 H2171 H 0.61156 0.45302 0.94801
 C2172 C 0.67011 0.43306 0.92951
 O2173 O 0.51814 0.42212 1.10875
 O2174 O 0.51850 0.39590 1.13417
 C2175 C 0.52604 0.41394 1.12657
 C2176 C 0.54472 0.42500 1.13816
 C2177 C 0.55369 0.41578 1.15765
 H2178 H 0.54576 0.40157 1.16498
 O2179 O 0.47168 0.57824 1.11388
 O2180 O 0.47094 0.60330 1.14058
 C2181 C 0.46383 0.58541 1.13219
 C2182 C 0.44569 0.57318 1.14325
 C2183 C 0.43758 0.57983 1.16420
 H2184 H 0.44574 0.59310 1.17300
 O2185 O 0.38558 0.51975 1.07892
 O2186 O 0.35882 0.51868 1.10390
 C2187 C 0.36718 0.52680 1.08628
 C2188 C 0.35577 0.54516 1.07477
 C2189 C 0.33553 0.55307 1.08295
 H2190 H 0.32790 0.54516 1.09720
 O2191 O 0.60710 0.48148 1.08003
 O2192 O 0.63294 0.48131 1.10605
 C2193 C 0.62507 0.47381 1.08790
 C2194 C 0.63623 0.45527 1.07632
 C2195 C 0.65571 0.44580 1.08504
 H2196 H 0.66333 0.45271 1.09985
 O2197 O 0.57636 0.39234 1.02008
 O2198 O 0.60238 0.36678 1.01993
 C2199 C 0.58424 0.37432 1.02746
 C2200 C 0.57245 0.36248 1.04548
 C2201 C 0.58038 0.34221 1.05369
 H2202 H 0.59480 0.33459 1.04616
 O2203 O 0.41559 0.61006 1.02237
 O2204 O 0.38915 0.63517 1.02214
 C2205 C 0.40710 0.62762 1.03019
 C2206 C 0.41765 0.63888 1.04944
 C2207 C 0.40911 0.65892 1.05738
 H2208 H 0.39584 0.66686 1.04825
 O2209 O 0.41521 0.47699 1.11032
 O2210 O 0.38859 0.47584 1.13545
 C2211 C 0.40705 0.46897 1.12808
 C2212 C 0.41916 0.45123 1.13985
 C2213 C 0.41159 0.44271 1.16032
 H2214 H 0.39648 0.44919 1.16749
 O2215 O 0.57546 0.52341 1.11105
 O2216 O 0.60131 0.52337 1.13705
 C2217 C 0.58314 0.53076 1.12934
 C2218 C 0.57129 0.54858 1.14146
 C2219 C 0.57990 0.55675 1.16156
 H2220 H 0.59453 0.54918 1.16872
 O2221 O 0.47469 0.39215 1.07815
 O2222 O 0.47455 0.36603 1.10367
 C2223 C 0.46708 0.37411 1.08557
 C2224 C 0.44912 0.36279 1.07309
 C2225 C 0.43965 0.34312 1.08108
 H2226 H 0.44569 0.33579 1.09642
 O2227 O 0.51358 0.61001 1.08361
 O2228 O 0.51299 0.63539 1.11001
 C2229 C 0.52059 0.62805 1.09162
 C2230 C 0.53806 0.64029 1.07958
 C2231 C 0.54554 0.66075 1.08759
 H2232 H 0.53821 0.66799 1.10241
 O2233 O 0.38893 0.42109 1.01542
 O2234 O 0.36362 0.39506 1.01449
 C2235 C 0.37102 0.41290 1.02270
 C2236 C 0.35908 0.42368 1.04148
 C2237 C 0.33888 0.41508 1.04896
 H2238 H 0.33137 0.40162 1.03986
 O2239 O 0.60305 0.58446 1.02333
 O2240 O 0.62778 0.61102 1.02466
 C2241 C 0.62061 0.59260 1.03155
 C2242 C 0.63283 0.58064 1.04932
 C2243 C 0.65372 0.58799 1.05615
 H2244 H 0.66060 0.60256 1.04848
 O2245 O 0.51501 0.57991 1.11411
 O2246 O 0.51454 0.60503 1.14074
 C2247 C 0.52273 0.58759 1.13228
 C2248 C 0.54188 0.57641 1.14313
 C2249 C 0.55091 0.58442 1.16330
 H2250 H 0.54350 0.59855 1.17149
 O2251 O 0.47492 0.42145 1.10988
 O2252 O 0.47532 0.39541 1.13549
 C2253 C 0.46766 0.41343 1.12803
 C2254 C 0.44944 0.42464 1.14003
 C2255 C 0.44234 0.41700 1.16090
 H2256 H 0.45185 0.40420 1.16906
 O2257 O 0.60620 0.52463 1.08083
 O2258 O 0.63225 0.52460 1.10663
 C2259 C 0.62409 0.53241 1.08870
 C2260 C 0.63495 0.55114 1.07707
 C2261 C 0.65610 0.55863 1.08348
 H2262 H 0.66512 0.55002 1.09646
 O2263 O 0.38680 0.47674 1.07788
 O2264 O 0.36006 0.47556 1.10285
 C2265 C 0.36879 0.46857 1.08484
 C2266 C 0.35814 0.45046 1.07209
 C2267 C 0.33821 0.44120 1.07960
 H2268 H 0.33065 0.44742 1.09475
 O2269 O 0.57117 0.61315 1.02304
 O2270 O 0.59584 0.63976 1.02439
 C2271 C 0.57801 0.63112 1.03133
 C2272 C 0.56565 0.64183 1.04974
 C2273 C 0.57249 0.66239 1.05772
 H2274 H 0.58621 0.67072 1.04978
 O2275 O 0.41993 0.39171 1.01539
 O2276 O 0.39461 0.36570 1.01449
 C2277 C 0.41214 0.37379 1.02280
 C2278 C 0.42280 0.36266 1.04198
 C2279 C 0.41383 0.34305 1.05009
 H2280 H 0.40022 0.33538 1.04125
 O2281 O 0.57674 0.48030 1.11027
 O2282 O 0.60248 0.48007 1.13639
 C2283 C 0.58475 0.47225 1.12814
 C2284 C 0.57363 0.45318 1.13892
 C2285 C 0.58270 0.44322 1.15814
 H2286 H 0.59778 0.44972 1.16529
 O2287 O 0.41456 0.51986 1.11076
 O2288 O 0.38795 0.51883 1.13590
 C2289 C 0.40602 0.52688 1.12883
 C2290 C 0.41709 0.54484 1.14141
 C2291 C 0.40890 0.55206 1.16216
 H2292 H 0.39429 0.54435 1.16901
 O2293 O 0.47057 0.60946 1.08439
 O2294 O 0.46971 0.63474 1.11086
 C2295 C 0.46245 0.62711 1.09247
 C2296 C 0.44422 0.63851 1.08033
 C2297 C 0.43508 0.65843 1.08831
 H2298 H 0.44142 0.66560 1.10359
 O2299 O 0.51782 0.39180 1.07826
 O2300 O 0.51771 0.36553 1.10365
 C2301 C 0.52527 0.37364 1.08569
 C2302 C 0.54339 0.36219 1.07378
 C2303 C 0.55138 0.34192 1.08161
 H2304 H 0.54371 0.33433 1.09601
 O2305 O 0.60574 0.42337 1.02131
 O2306 O 0.63170 0.39775 1.02112
 C2307 C 0.62370 0.41549 1.02898
 C2308 C 0.63518 0.42663 1.04763
 C2309 C 0.65457 0.41746 1.05653
 H2310 H 0.66167 0.40283 1.04898
 O2311 O 0.38584 0.57951 1.02154
 O2312 O 0.35938 0.60460 1.02147
 C2313 C 0.36755 0.58682 1.02904
 C2314 C 0.35602 0.57478 1.04714
 C2315 C 0.33585 0.58265 1.05585
 H2316 H 0.32821 0.59727 1.04888
 Cu2317 Cu 0.49630 0.40949 1.09121
 Cu2318 Cu 0.49654 0.37814 1.12183
 Cu2319 Cu 0.49274 0.59186 1.09644
 Cu2320 Cu 0.49198 0.62208 1.12827
 Cu2321 Cu 0.40708 0.40904 0.99346
 Cu2322 Cu 0.37676 0.37773 0.99259
 Cu2323 Cu 0.58862 0.41098 0.99893
 Cu2324 Cu 0.61997 0.38038 0.99877
 Cu2325 Cu 0.40373 0.59244 1.00006
 Cu2326 Cu 0.37195 0.62252 0.99989
 Cu2327 Cu 0.58550 0.59693 1.00116
 Cu2328 Cu 0.61512 0.62886 1.00300
 Cu2329 Cu 0.40322 0.49840 1.09199
 Cu2330 Cu 0.37111 0.49714 1.12197
 Cu2331 Cu 0.58886 0.50250 1.09293
 Cu2332 Cu 0.61980 0.50243 1.12416
 C2333 C 0.55464 0.44387 1.12908
 H2334 H 0.54790 0.45099 1.11394
 C2335 C 0.57292 0.42438 1.16758
 C2336 C 0.43553 0.55547 1.13219
 H2337 H 0.44163 0.55033 1.11597
 C2338 C 0.41908 0.56948 1.17383
 C2339 C 0.36576 0.55593 1.05666
 H2340 H 0.38153 0.55003 1.05043
 C2341 C 0.32551 0.57181 1.07372
 C2342 C 0.62623 0.44564 1.05747
 H2343 H 0.61102 0.45254 1.05087
 C2344 C 0.66482 0.42674 1.07531
 C2345 C 0.55381 0.37218 1.05553
 H2346 H 0.54786 0.38798 1.04963
 C2347 C 0.56986 0.33180 1.07175
 C2348 C 0.43535 0.62896 1.06086
 H2349 H 0.44189 0.61341 1.05486
 C2350 C 0.41745 0.66880 1.07692
 C2351 C 0.43806 0.44203 1.12990
 H2352 H 0.44353 0.44797 1.11378
 C2353 C 0.42312 0.42552 1.17112
 C2354 C 0.55217 0.55838 1.13245
 H2355 H 0.54565 0.55233 1.11674
 C2356 C 0.57007 0.57475 1.17249
 C2357 C 0.44056 0.37234 1.05344
 H2358 H 0.44732 0.38769 1.04737
 C2359 C 0.42178 0.33334 1.06973
 C2360 C 0.54816 0.63102 1.06052
 H2361 H 0.54295 0.61502 1.05455
 C2362 C 0.56267 0.67188 1.07661
 C2363 C 0.36844 0.44158 1.05297
 H2364 H 0.38409 0.44820 1.04741
 C2365 C 0.32841 0.42346 1.06818
 C2366 C 0.62365 0.56213 1.05975
 H2367 H 0.60737 0.55660 1.05472
 C2368 C 0.66576 0.57699 1.07289
 C2369 C 1.10510 1.07750 1.26919
 C2370 C 1.10476 1.10048 1.27219
 C2371 C 1.09794 1.11397 1.25441
 C2372 C 1.09182 1.10465 1.23380
 C2373 C 1.09214 1.08152 1.23101
 C2374 C 1.09873 1.06811 1.24886
 C2375 C 1.08579 1.07219 1.21047
 C2376 C 1.07914 1.08570 1.19261
 C2377 C 1.07933 1.10871 1.19550
 C2378 C 1.08553 1.11808 1.21588
 H2379 H 1.09786 1.13170 1.25642
 H2380 H 1.09906 1.05035 1.24706
 H2381 H 1.08557 1.05444 1.20856
 H2382 H 1.08538 1.13584 1.21762
 H2383 H 1.11013 1.06672 1.28266
 H2384 H 1.07470 1.11954 1.18191
 C2385 C 1.11143 0.57383 0.76859
 C2386 C 1.10881 0.59651 0.77245
 C2387 C 1.09999 0.60986 0.75549
 C2388 C 1.09370 0.60070 0.73494
 C2389 C 1.09585 0.57778 0.73135
 C2390 C 1.10483 0.56450 0.74827
 C2391 C 1.08890 0.56857 0.71098
 C2392 C 1.08008 0.58204 0.69400
 C2393 C 1.07869 0.60491 0.69764
 C2394 C 1.08527 0.61411 0.71794
 H2395 H 1.09826 0.62744 0.75817
 H2396 H 1.10669 0.54691 0.74581
 H2397 H 1.08997 0.55092 0.70853
 H2398 H 1.08379 0.63175 0.72032
 H2399 H 1.11816 0.56324 0.78147
 H2400 H 1.07259 0.61580 0.68471
 C2401 C 0.61591 1.14475 0.73214
 C2402 C 0.62522 1.13083 0.74854
 C2403 C 0.62213 1.10792 0.74647
 C2404 C 0.60948 1.09927 0.72882
 C2405 C 0.60045 1.11353 0.71254
 C2406 C 0.60387 1.13620 0.71430
 C2407 C 0.58831 1.10493 0.69459
 C2408 C 0.58476 1.08217 0.69274
 C2409 C 0.59322 1.06815 0.70943
 C2410 C 0.60556 1.07660 0.72723
 H2411 H 0.62885 1.09681 0.75890
 H2412 H 0.59714 1.14736 0.70191
 H2413 H 0.58222 1.11594 0.68173
 H2414 H 0.61211 1.06539 0.73967
 H2415 H 0.61820 1.16239 0.73266
 H2416 H 0.59046 1.05057 0.70863
 C2417 C 0.57588 0.60626 1.27108
 C2418 C 0.59907 0.60765 1.27237
 C2419 C 0.61172 0.60280 1.25329
 C2420 C 0.60137 0.59675 1.23318
 C2421 C 0.57805 0.59523 1.23211
 C2422 C 0.56547 0.60003 1.25118
 C2423 C 0.56775 0.58870 1.21209
 C2424 C 0.58052 0.58352 1.19315
 C2425 C 0.60366 0.58567 1.19432
 C2426 C 0.61398 0.59218 1.21411
 H2427 H 0.62958 0.60408 1.25394
 H2428 H 0.54759 0.59895 1.25072
 H2429 H 0.54992 0.58701 1.21142
 H2430 H 0.63185 0.59347 1.21454
 H2431 H 0.56573 0.60979 1.28554
 H2432 H 0.61385 0.58217 1.17985
 C2433 C 0.91911 0.87663 1.26433
 C2434 C 0.89620 0.87942 1.26768
 C2435 C 0.88385 0.89073 1.25131
 C2436 C 0.89404 0.89925 1.23226
 C2437 C 0.91711 0.89709 1.22949
 C2438 C 0.92950 0.88566 1.24558
 C2439 C 0.92730 0.90631 1.21063
 C2440 C 0.91457 0.91706 1.19414
 C2441 C 0.89147 0.91833 1.19690
 C2442 C 0.88137 0.90979 1.21586
 H2443 H 0.86611 0.89257 1.25289
 H2444 H 0.94721 0.88366 1.24366
 H2445 H 0.94511 0.90522 1.20895
 H2446 H 0.86358 0.91124 1.21758
 H2447 H 0.92924 0.86808 1.27647
 H2448 H 0.88102 0.92568 1.18424
 C2449 C 0.90082 0.36285 0.74894
 C2450 C 0.88915 0.37768 0.76281
 C2451 C 0.88795 0.39999 0.75642
 C2452 C 0.89810 0.40727 0.73670
 C2453 C 0.90909 0.39206 0.72267
 C2454 C 0.91042 0.36992 0.72899
 C2455 C 0.91842 0.39920 0.70247
 C2456 C 0.91737 0.42154 0.69627
 C2457 C 0.90715 0.43664 0.71092
 C2458 C 0.89743 0.42955 0.73078
 H2459 H 0.87957 0.41192 0.76690
 H2460 H 0.91888 0.35802 0.71849
 H2461 H 0.92598 0.38723 0.69139
 H2462 H 0.88939 0.44153 0.74152
 H2463 H 0.90210 0.34556 0.75300
 H2464 H 0.90659 0.45403 0.70704
 C2465 C 0.38829 0.92331 0.76562
 C2466 C 0.38638 0.90031 0.76730
 C2467 C 0.39136 0.88719 0.74859
 C2468 C 0.39835 0.89682 0.72856
 C2469 C 0.40053 0.91994 0.72712
 C2470 C 0.39537 0.93304 0.74573
 C2471 C 0.40806 0.92949 0.70719
 C2472 C 0.41349 0.91619 0.68870
 C2473 C 0.41077 0.89326 0.69025
 C2474 C 0.40331 0.88367 0.70998
 H2475 H 0.38964 0.86947 0.74948
 H2476 H 0.39692 0.95078 0.74495
 H2477 H 0.41020 0.94718 0.70624
 H2478 H 0.40155 0.86594 0.71074
 H2479 H 0.38465 0.93380 0.77980
 H2480 H 0.41441 0.88269 0.67611
 C2481 C 0.37719 0.42232 1.26440
 C2482 C 0.38367 0.40073 1.27009
 C2483 C 0.39608 0.38844 1.25449
 C2484 C 0.40193 0.39742 1.23380
 C2485 C 0.39630 0.41942 1.22873
 C2486 C 0.38383 0.43170 1.24412
 C2487 C 0.40325 0.42867 1.20837
 C2488 C 0.41503 0.41588 1.19260
 C2489 C 0.41925 0.39357 1.19755
 C2490 C 0.41318 0.38460 1.21803
 H2491 H 0.40067 0.37154 1.25798
 H2492 H 0.37913 0.44855 1.24047
 H2493 H 0.39974 0.44585 1.20509
 H2494 H 0.41712 0.36751 1.22144
 H2495 H 0.36767 0.43234 1.27590
 H2496 H 0.42724 0.38281 1.18558
 C2497 C 0.89538 1.13338 0.75247
 C2498 C 0.88639 1.11835 0.73709
 C2499 C 0.88654 1.09579 0.74221
 C2500 C 0.89574 1.08830 0.76240
 C2501 C 0.90446 1.10360 0.77786
 C2502 C 0.90417 1.12610 0.77275
 C2503 C 0.91329 1.09619 0.79821
 C2504 C 0.91391 1.07357 0.80326
 C2505 C 0.90556 1.05849 0.78751
 C2506 C 0.89645 1.06578 0.76735
 H2507 H 0.87987 1.08404 0.73035
 H2508 H 0.91081 1.13807 0.78439
 H2509 H 0.91931 1.10811 0.81024
 H2510 H 0.89003 1.05378 0.75562
 H2511 H 0.89531 1.15086 0.74897
 H2512 H 0.90617 1.04096 0.79069
 C2513 C 0.88824 0.57357 0.23353
 C2514 C 0.88951 0.59648 0.23071
 C2515 C 0.89831 0.60948 0.24795
 C2516 C 0.90580 0.59978 0.26778
 C2517 C 0.90489 0.57668 0.27036
 C2518 C 0.89604 0.56371 0.25313
 C2519 C 0.91284 0.56699 0.29011
 C2520 C 0.92142 0.58016 0.30743
 C2521 C 0.92167 0.60318 0.30477
 C2522 C 0.91411 0.61287 0.28510
 H2523 H 0.89901 0.62722 0.24611
 H2524 H 0.89512 0.54598 0.25483
 H2525 H 0.91262 0.54924 0.29183
 H2526 H 0.91466 0.63063 0.28348
 H2527 H 0.88154 0.56324 0.22042
 H2528 H 0.92758 0.61381 0.31802
 C2529 C 0.39418 1.14197 0.25734
 C2530 C 0.38661 1.12662 0.24153
 C2531 C 0.39075 1.10413 0.24479
 C2532 C 0.40255 1.09702 0.26362
 C2533 C 0.40981 1.11254 0.27968
 C2534 C 0.40551 1.13497 0.27639
 C2535 C 0.42088 1.10533 0.29893
 C2536 C 0.42478 1.08278 0.30235
 C2537 C 0.41828 1.06760 0.28584
 C2538 C 0.40720 1.07464 0.26668
 H2539 H 0.38526 1.09227 0.23243
 H2540 H 0.41097 1.14710 0.28848
 H2541 H 0.42563 1.11714 0.31164
 H2542 H 0.40201 1.06255 0.25443
 H2543 H 0.39115 1.15940 0.25503
 H2544 H 0.42138 1.05016 0.28801
 C2545 C 0.42213 0.60753 0.72721
 C2546 C 0.39903 0.60854 0.72467
 C2547 C 0.38543 0.60302 0.74279
 C2548 C 0.39480 0.59701 0.76336
 C2549 C 0.41807 0.59610 0.76578
 C2550 C 0.43158 0.60125 0.74754
 C2551 C 0.42742 0.58995 0.78634
 C2552 C 0.41378 0.58461 0.80449
 C2553 C 0.39067 0.58599 0.80200
 C2554 C 0.38127 0.59209 0.78163
 H2555 H 0.36760 0.60402 0.74110
 H2556 H 0.44943 0.60060 0.74904
 H2557 H 0.44524 0.58878 0.78805
 H2558 H 0.36342 0.59288 0.78016
 H2559 H 0.43295 0.61161 0.71343
 H2560 H 0.37983 0.58225 0.81587
 C2561 C 1.13743 0.89531 0.75347
 C2562 C 1.12208 0.88589 0.73865
 C2563 C 1.09954 0.88596 0.74437
 C2564 C 1.09241 0.89544 0.76459
 C2565 C 1.10804 0.90453 0.77954
 C2566 C 1.13051 0.90437 0.77380
 C2567 C 1.10096 0.91352 0.80001
 C2568 C 1.07834 0.91388 0.80567
 C2569 C 1.06294 0.90531 0.79029
 C2570 C 1.06990 0.89607 0.77007
 H2571 H 1.08752 0.87899 0.73294
 H2572 H 1.14275 0.91129 0.78501
 H2573 H 1.11312 0.91980 0.81167
 H2574 H 1.05764 0.88943 0.75871
 H2575 H 1.15490 0.89535 0.74950
 H2576 H 1.04539 0.90579 0.79384
 C2577 C 1.08010 0.38137 0.23665
 C2578 C 1.10302 0.38321 0.23333
 C2579 C 1.11622 0.39200 0.25044
 C2580 C 1.10670 0.39884 0.27068
 C2581 C 1.08357 0.39736 0.27374
 C2582 C 1.07041 0.38858 0.25660
 C2583 C 1.07401 0.40477 0.29382
 C2584 C 1.08733 0.41338 0.31103
 C2585 C 1.11041 0.41406 0.30794
 C2586 C 1.11996 0.40704 0.28794
 H2587 H 1.13397 0.39316 0.24818
 H2588 H 1.05267 0.38723 0.25864
 H2589 H 1.05621 0.40420 0.29583
 H2590 H 1.13775 0.40801 0.28599
 H2591 H 1.06959 0.37469 0.22366
 H2592 H 1.12120 0.41998 0.32107
 C2593 C 0.61856 0.85798 0.26584
 C2594 C 0.62520 0.87164 0.24815
 C2595 C 0.62055 0.89431 0.24925
 C2596 C 0.60927 0.90317 0.26768
 C2597 C 0.60261 0.88922 0.28530
 C2598 C 0.60738 0.86667 0.28423
 C2599 C 0.59153 0.89805 0.30382
 C2600 C 0.58715 0.92072 0.30511
 C2601 C 0.59364 0.93447 0.28746
 C2602 C 0.60455 0.92576 0.26885
 H2603 H 0.62539 0.90503 0.23568
 H2604 H 0.60249 0.85577 0.29764
 H2605 H 0.58690 0.88738 0.31753
 H2606 H 0.60946 0.93671 0.25549
 H2607 H 0.62210 0.84050 0.26559
 H2608 H 0.59032 0.95200 0.28811
 C2609 C 0.58019 0.39930 0.73056
 C2610 C 0.60333 0.39883 0.72839
 C2611 C 0.61654 0.40667 0.74596
 C2612 C 0.60674 0.41408 0.76587
 C2613 C 0.58343 0.41428 0.76798
 C2614 C 0.57031 0.40716 0.75009
 C2615 C 0.57363 0.42130 0.78803
 C2616 C 0.58683 0.42789 0.80617
 C2617 C 0.61001 0.42746 0.80391
 C2618 C 0.61986 0.42075 0.78393
 H2619 H 0.63441 0.40607 0.74452
 H2620 H 0.55243 0.40723 0.75137
 H2621 H 0.55576 0.42176 0.78945
 H2622 H 0.63774 0.42052 0.78270
 H2623 H 0.56971 0.39341 0.71715
 H2624 H 0.62060 0.43207 0.81774
 C2625 C 1.24335 1.10559 1.13656
 C2626 C 1.25733 1.11478 1.12033
 C2627 C 1.25113 1.11366 1.09772
 C2628 C 1.23130 1.10331 1.09139
 C2629 C 1.21716 1.09447 1.10788
 C2630 C 1.22337 1.09573 1.13043
 C2631 C 1.19703 1.08467 1.10157
 C2632 C 1.19088 1.08333 1.07889
 C2633 C 1.20554 1.09155 1.06265
 C2634 C 1.22540 1.10156 1.06883
 H2635 H 1.26193 1.12042 1.08505
 H2636 H 1.21281 1.08902 1.14333
 H2637 H 1.18596 1.07860 1.11436
 H2638 H 1.23615 1.10795 1.05592
 H2639 H 1.24772 1.10632 1.15410
 H2640 H 1.20164 1.09029 1.04504
 C2641 C 1.26663 0.61296 0.57647
 C2642 C 1.27028 0.61247 0.59968
 C2643 C 1.25377 0.60394 0.61368
 C2644 C 1.23379 0.59622 0.60468
 C2645 C 1.23034 0.59665 0.58131
 C2646 C 1.24691 0.60500 0.56736
 C2647 C 1.21039 0.58877 0.57231
 C2648 C 1.19368 0.58065 0.58639
 C2649 C 1.19725 0.58066 0.60965
 C2650 C 1.21712 0.58824 0.61868
 H2651 H 1.25624 0.60372 0.63162
 H2652 H 1.24459 0.60547 0.54941
 H2653 H 1.20802 0.58872 0.55436
 H2654 H 1.21938 0.58798 0.63664
 H2655 H 1.27913 0.61931 0.56530
 H2656 H 1.18454 0.57500 0.62097
 C2657 C 0.76405 1.10610 0.57985
 C2658 C 0.76684 1.10606 0.60316
 C2659 C 0.74989 1.09787 0.61679
 C2660 C 0.73006 1.09044 0.60726
 C2661 C 0.72737 1.09057 0.58378
 C2662 C 0.74458 1.09822 0.57022
 C2663 C 0.70746 1.08333 0.57427
 C2664 C 0.68996 1.07627 0.58793
 C2665 C 0.69279 1.07646 0.61129
 C2666 C 0.71267 1.08332 0.62085
 H2667 H 0.75179 1.09808 0.63480
 H2668 H 0.74283 1.09845 0.55220
 H2669 H 0.70565 1.08307 0.55625
 H2670 H 0.71435 1.08330 0.63888
 H2671 H 0.77697 1.11227 0.56905
 H2672 H 0.67947 1.07157 0.62228
 C2673 C 0.74428 0.60275 1.13490
 C2674 C 0.75767 0.61238 1.11844
 C2675 C 0.75018 0.61297 1.09624
 C2676 C 0.72971 0.60358 1.09047
 C2677 C 0.71619 0.59421 1.10720
 C2678 C 0.72362 0.59401 1.12940
 C2679 C 0.69551 0.58522 1.10146
 C2680 C 0.68825 0.58514 1.07910
 C2681 C 0.70231 0.59382 1.06256
 C2682 C 0.72266 0.60312 1.06819
 H2683 H 0.76059 0.62005 1.08341
 H2684 H 0.71357 0.58685 1.14247
 H2685 H 0.68494 0.57873 1.11447
 H2686 H 0.73293 0.60988 1.05508
 H2687 H 0.74980 0.60211 1.15211
 H2688 H 0.69757 0.59348 1.04511
 C2689 C 1.26515 0.92179 0.89293
 C2690 C 1.26830 0.89884 0.89352
 C2691 C 1.25081 0.88538 0.90055
 C2692 C 1.23039 0.89468 0.90671
 C2693 C 1.22744 0.91779 0.90616
 C2694 C 1.24497 0.93118 0.89929
 C2695 C 1.20710 0.92710 0.91264
 C2696 C 1.18961 0.91359 0.91968
 C2697 C 1.19264 0.89060 0.91968
 C2698 C 1.21282 0.88125 0.91333
 H2699 H 1.25291 0.86766 0.90084
 H2700 H 1.24306 0.94892 0.89878
 H2701 H 1.20505 0.94484 0.91269
 H2702 H 1.21468 0.86350 0.91366
 H2703 H 1.27839 0.93258 0.88775
 H2704 H 1.17933 0.87977 0.92460
 C2705 C 1.25106 0.36338 0.40697
 C2706 C 1.26540 0.37953 0.39829
 C2707 C 1.25885 0.40181 0.39972
 C2708 C 1.23841 0.40773 0.40914
 C2709 C 1.22398 0.39128 0.41704
 C2710 C 1.23056 0.36918 0.41605
 C2711 C 1.20309 0.39716 0.42548
 C2712 C 1.19646 0.41939 0.42631
 C2713 C 1.21140 0.43566 0.41921
 C2714 C 1.23208 0.42989 0.41060
 H2715 H 1.26957 0.41471 0.39368
 H2716 H 1.21977 0.35632 0.42214
 H2717 H 1.19178 0.38438 0.43072
 H2718 H 1.24305 0.44278 0.40492
 H2719 H 1.25522 0.34607 0.40630
 H2720 H 1.20705 0.45294 0.42018
 C2721 C 0.76238 0.91343 0.38282
 C2722 C 0.76297 0.89030 0.38294
 C2723 C 0.74449 0.87863 0.39055
 C2724 C 0.72557 0.88990 0.39789
 C2725 C 0.72518 0.91318 0.39798
 C2726 C 0.74369 0.92479 0.39040
 C2727 C 0.70636 0.92442 0.40578
 C2728 C 0.68793 0.91263 0.41345
 C2729 C 0.68835 0.88947 0.41269
 C2730 C 0.70701 0.87822 0.40508
 H2731 H 0.74463 0.86079 0.39039
 H2732 H 0.74371 0.94263 0.39032
 H2733 H 0.70626 0.94226 0.40636
 H2734 H 0.70693 0.86038 0.40488
 H2735 H 0.77649 0.92277 0.37709
 H2736 H 0.67416 0.88001 0.41802
 C2737 C 0.74610 0.40620 0.86476
 C2738 C 0.75935 0.39532 0.88060
 C2739 C 0.75279 0.39522 0.90310
 C2740 C 0.73308 0.40564 0.90971
 C2741 C 0.71942 0.41587 0.89356
 C2742 C 0.72618 0.41620 0.87114
 C2743 C 0.69911 0.42528 0.90007
 C2744 C 0.69240 0.42486 0.92262
 C2745 C 0.70676 0.41553 0.93859
 C2746 C 0.72675 0.40586 0.93219
 H2747 H 0.76310 0.38714 0.91548
 H2748 H 0.71601 0.42406 0.85853
 H2749 H 0.68829 0.43228 0.88748
 H2750 H 0.73720 0.39842 0.94484
 H2751 H 0.75086 0.40645 0.84733
 H2752 H 0.70246 0.41552 0.95615
 C2753 C 0.75634 0.85781 1.10101
 C2754 C 0.74155 0.87264 1.11117
 C2755 C 0.74672 0.89515 1.11178
 C2756 C 0.76653 0.90279 1.10243
 C2757 C 0.78162 0.88767 1.09283
 C2758 C 0.77632 0.86523 1.09212
 C2759 C 0.80180 0.89521 1.08424
 C2760 C 0.80699 0.91780 1.08460
 C2761 C 0.79144 0.93272 1.09355
 C2762 C 0.77153 0.92528 1.10255
 H2763 H 0.73525 0.90673 1.11934
 H2764 H 0.78763 0.85341 1.08473
 H2765 H 0.81361 0.88337 1.07775
 H2766 H 0.76003 0.93713 1.10957
 H2767 H 0.75270 0.84038 1.10045
 H2768 H 0.79459 0.95025 1.09357
 C2769 C 0.75294 0.36235 0.60227
 C2770 C 0.73787 0.37818 0.61028
 C2771 C 0.74321 0.40060 0.60870
 C2772 C 0.76333 0.40715 0.59911
 C2773 C 0.77853 0.39108 0.59143
 C2774 C 0.77316 0.36873 0.59308
 C2775 C 0.79891 0.39762 0.58242
 C2776 C 0.80429 0.42008 0.58082
 C2777 C 0.78870 0.43589 0.58793
 C2778 C 0.76850 0.42950 0.59708
 H2779 H 0.73158 0.41294 0.61456
 H2780 H 0.78458 0.35617 0.58727
 H2781 H 0.81079 0.38522 0.57723
 H2782 H 0.75696 0.44205 0.60264
 H2783 H 0.74925 0.34497 0.60343
 H2784 H 0.79217 0.45330 0.58648
 C2785 C 0.25700 0.86617 0.59640
 C2786 C 0.24227 0.88111 0.60648
 C2787 C 0.24734 0.90363 0.60669
 C2788 C 0.26690 0.91120 0.59677
 C2789 C 0.28183 0.89599 0.58703
 C2790 C 0.27672 0.87351 0.58693
 C2791 C 0.30169 0.90347 0.57770
 C2792 C 0.30677 0.92604 0.57766
 C2793 C 0.29143 0.94106 0.58679
 C2794 C 0.27177 0.93371 0.59638
 H2795 H 0.23590 0.91527 0.61419
 H2796 H 0.28794 0.86163 0.57950
 H2797 H 0.31340 0.89163 0.57101
 H2798 H 0.26040 0.94563 0.60352
 H2799 H 0.25343 0.84871 0.59616
 H2800 H 0.29466 0.95858 0.58658
 C2801 C 0.23622 0.41826 1.11396
 C2802 C 0.23297 0.39555 1.11105
 C2803 C 0.24938 0.38296 1.10032
 C2804 C 0.26882 0.39289 1.09260
 C2805 C 0.27178 0.41583 1.09516
 C2806 C 0.25537 0.42836 1.10589
 C2807 C 0.29108 0.42579 1.08700
 C2808 C 0.30777 0.41306 1.07673
 C2809 C 0.30475 0.39015 1.07484
 C2810 C 0.28542 0.38022 1.08249
 H2811 H 0.24719 0.36537 1.09831
 H2812 H 0.25736 0.44595 1.10809
 H2813 H 0.29296 0.44347 1.08847
 H2814 H 0.28354 0.36257 1.08065
 H2815 H 0.22376 0.42829 1.12211
 H2816 H 0.31747 0.37974 1.06766
 C2817 C 0.76438 1.14307 0.88887
 C2818 C 0.74776 1.12918 0.88045
 C2819 C 0.75040 1.10623 0.88248
 C2820 C 0.76931 1.09734 0.89288
 C2821 C 0.78590 1.11154 0.90114
 C2822 C 0.78326 1.13435 0.89904
 C2823 C 0.80493 1.10273 0.91124
 C2824 C 0.80767 1.07981 0.91339
 C2825 C 0.79093 1.06584 0.90533
 C2826 C 0.77196 1.07451 0.89516
 H2827 H 0.73767 1.09531 0.87624
 H2828 H 0.79583 1.14549 0.90523
 H2829 H 0.81781 1.11373 0.91702
 H2830 H 0.75938 1.06335 0.88906
 H2831 H 0.76300 1.16077 0.88735
 H2832 H 0.79245 1.04816 0.90701
 C2833 C 0.75518 0.63520 0.39450
 C2834 C 0.73988 0.61980 0.38624
 C2835 C 0.74533 0.59725 0.38707
 C2836 C 0.76569 0.59023 0.39606
 C2837 C 0.78094 0.60590 0.40417
 C2838 C 0.77551 0.62834 0.40329
 C2839 C 0.80140 0.59890 0.41294
 C2840 C 0.80685 0.57634 0.41386
 C2841 C 0.79134 0.56092 0.40597
 C2842 C 0.77104 0.56778 0.39712
 H2843 H 0.73368 0.58513 0.38100
 H2844 H 0.78699 0.64062 0.40941
 H2845 H 0.81320 0.61105 0.41866
 H2846 H 0.75950 0.55550 0.39114
 H2847 H 0.75161 0.65266 0.39395
 H2848 H 0.79484 0.54345 0.40680
 C2849 C 0.23666 1.07725 0.38769
 C2850 C 0.23373 1.10023 0.38724
 C2851 C 0.25152 1.11388 0.39317
 C2852 C 0.27180 1.10480 0.39977
 C2853 C 0.27453 1.08170 0.40044
 C2854 C 0.25688 1.06806 0.39426
 C2855 C 0.29477 1.07267 0.40750
 C2856 C 0.31223 1.08650 0.41402
 C2857 C 0.30939 1.10945 0.41293
 C2858 C 0.28937 1.11852 0.40587
 H2859 H 0.24971 1.13161 0.39258
 H2860 H 0.25866 1.05031 0.39466
 H2861 H 0.29677 1.05495 0.40841
 H2862 H 0.28758 1.13627 0.40531
 H2863 H 0.22324 1.06633 0.38330
 H2864 H 0.32274 1.12042 0.41751
 C2865 C 0.24813 0.63192 0.90148
 C2866 C 0.23292 0.61561 0.89509
 C2867 C 0.23902 0.59333 0.89688
 C2868 C 0.26003 0.58742 0.90491
 C2869 C 0.27522 0.60398 0.91114
 C2870 C 0.26909 0.62617 0.90939
 C2871 C 0.29634 0.59810 0.91883
 C2872 C 0.30255 0.57583 0.92037
 C2873 C 0.28721 0.55949 0.91440
 C2874 C 0.26615 0.56523 0.90674
 H2875 H 0.22741 0.58057 0.89224
 H2876 H 0.28053 0.63908 0.91404
 H2877 H 0.30811 0.61085 0.92311
 H2878 H 0.25469 0.55231 0.90215
 H2879 H 0.24399 0.64921 0.90009
 H2880 H 0.29152 0.54222 0.91571
 C2881 C 1.11463 1.26141 1.07618
 C2882 C 1.11278 1.26489 1.09931
 C2883 C 1.10330 1.24849 1.11269
 C2884 C 1.09563 1.22888 1.10311
 C2885 C 1.09700 1.22569 1.07975
 C2886 C 1.10662 1.24205 1.06643
 C2887 C 1.08868 1.20627 1.07016
 C2888 C 1.07929 1.18982 1.08369
 C2889 C 1.07874 1.19301 1.10700
 C2890 C 1.08663 1.21239 1.11658
 H2891 H 1.10216 1.25084 1.13061
 H2892 H 1.10792 1.23989 1.04850
 H2893 H 1.08918 1.20416 1.05218
 H2894 H 1.08575 1.21445 1.13455
 H2895 H 1.12187 1.27387 1.06557
 H2896 H 1.07230 1.18043 1.11797
 C2897 C 1.11188 0.76122 0.58183
 C2898 C 1.11106 0.76390 0.60516
 C2899 C 1.10229 0.74699 0.61836
 C2900 C 1.09502 0.72733 0.60842
 C2901 C 1.09596 0.72477 0.58493
 C2902 C 1.10424 0.74192 0.57179
 C2903 C 1.08875 0.70509 0.57500
 C2904 C 1.08077 0.68778 0.58825
 C2905 C 1.08026 0.69043 0.61164
 C2906 C 1.08718 0.71003 0.62160
 H2907 H 1.10185 0.74880 0.63638
 H2908 H 1.10507 0.74029 0.55377
 H2909 H 1.08909 0.70337 0.55697
 H2910 H 1.08655 0.71158 0.63963
 H2911 H 1.11846 0.77411 0.57131
 H2912 H 1.07464 0.67722 0.62232
 C2913 C 0.59593 1.24658 0.63441
 C2914 C 0.60561 1.26045 0.61848
 C2915 C 0.60609 1.25405 0.59597
 C2916 C 0.59699 1.23388 0.58937
 C2917 C 0.58786 1.21968 0.60559
 C2918 C 0.58733 1.22622 0.62806
 C2919 C 0.57961 1.19912 0.59911
 C2920 C 0.57992 1.19267 0.57652
 C2921 C 0.58827 1.20734 0.56046
 C2922 C 0.59691 1.22766 0.56684
 H2923 H 0.61329 1.26488 0.58359
 H2924 H 0.58031 1.21559 0.64070
 H2925 H 0.57350 1.18796 0.61177
 H2926 H 0.60355 1.23848 0.55416
 H2927 H 0.59548 1.25128 0.65188
 H2928 H 0.58821 1.20310 0.54288
 C2929 C 0.61201 0.73021 1.14464
 C2930 C 0.61723 0.74741 1.12989
 C2931 C 0.60895 0.74687 1.10796
 C2932 C 0.59590 0.72923 1.10071
 C2933 C 0.59105 0.71182 1.11556
 C2934 C 0.59905 0.71255 1.13752
 C2935 C 0.57888 0.69367 1.10796
 C2936 C 0.57191 0.69254 1.08561
 C2937 C 0.57619 0.71024 1.07120
 C2938 C 0.58800 0.72850 1.07871
 H2939 H 0.61255 0.76017 1.09652
 H2940 H 0.59552 0.69935 1.14912
 H2941 H 0.57586 0.67992 1.11907
 H2942 H 0.59145 0.74176 1.06716
 H2943 H 0.61823 0.73021 1.16160
 H2944 H 0.57087 0.70964 1.05392
 C2945 C 0.85758 1.24243 0.90220
 C2946 C 0.87270 1.25652 0.89171
 C2947 C 0.89508 1.25028 0.89044
 C2948 C 0.90225 1.23009 0.89926
 C2949 C 0.88683 1.21572 0.90919
 C2950 C 0.86454 1.22211 0.91071
 C2951 C 0.89393 1.19517 0.91729
 C2952 C 0.91638 1.18890 0.91599
 C2953 C 0.93160 1.20373 0.90662
 C2954 C 0.92460 1.22401 0.89820
 H2955 H 0.90695 1.26117 0.88269
 H2956 H 0.85249 1.21135 0.91836
 H2957 H 0.88186 1.18394 0.92418
 H2958 H 0.93669 1.23495 0.89087
 H2959 H 0.84025 1.24686 0.90329
 H2960 H 0.94905 1.19972 0.90588
 C2961 C 0.86237 0.73912 0.39711
 C2962 C 0.87801 0.75511 0.39105
 C2963 C 0.90065 0.75038 0.39380
 C2964 C 0.90756 0.72997 0.40233
 C2965 C 0.89167 0.71399 0.40817
 C2966 C 0.86913 0.71876 0.40555
 C2967 C 0.89857 0.69346 0.41637
 C2968 C 0.92120 0.68862 0.41887
 C2969 C 0.93686 0.70474 0.41321
 C2970 C 0.93011 0.72521 0.40501
 H2971 H 0.91293 0.76257 0.38944
 H2972 H 0.85672 0.70669 0.40991
 H2973 H 0.88632 0.68110 0.42038
 H2974 H 0.94253 0.73729 0.40073
 H2975 H 0.84485 0.74213 0.39502
 H2976 H 0.95438 0.70154 0.41526
 C2977 C 0.42123 1.26394 0.38166
 C2978 C 0.39801 1.26519 0.38055
 C2979 C 0.38547 1.24691 0.38720
 C2980 C 0.39590 1.22780 0.39515
 C2981 C 0.41923 1.22683 0.39651
 C2982 C 0.43173 1.24495 0.38960
 C2983 C 0.42960 1.20787 0.40501
 C2984 C 0.41690 1.18991 0.41226
 C2985 C 0.39372 1.19095 0.41038
 C2986 C 0.38332 1.20971 0.40193
 H2987 H 0.36759 1.24745 0.38617
 H2988 H 0.44963 1.24452 0.39051
 H2989 H 0.44746 1.20729 0.40647
 H2990 H 0.36543 1.21010 0.40084
 H2991 H 0.43134 1.27777 0.37679
 H2992 H 0.38359 1.17717 0.41541
 C2993 C 0.39085 0.74642 0.86340
 C2994 C 0.38346 0.76138 0.87975
 C2995 C 0.38528 0.75561 0.90242
 C2996 C 0.39459 0.73528 0.90867
 C2997 C 0.40184 0.72032 0.89206
 C2998 C 0.39982 0.72604 0.86947
 C2999 C 0.41089 0.69987 0.89831
 C3000 C 0.41293 0.69417 0.92101
 C3001 C 0.40603 0.70943 0.93735
 C3002 C 0.39689 0.72971 0.93125
 H3003 H 0.37989 0.76709 0.91521
 H3004 H 0.40526 0.71480 0.85649
 H3005 H 0.41590 0.68825 0.88550
 H3006 H 0.39163 0.74104 0.94423
 H3007 H 0.38952 0.75038 0.84581
 H3008 H 0.40776 0.70571 0.95495
 C3009 C 1.07544 0.73509 0.88657
 C3010 C 1.09852 0.73225 0.88667
 C3011 C 1.11198 0.74940 0.89459
 C3012 C 1.10257 0.76896 0.90265
 C3013 C 1.07933 0.77154 0.90286
 C3014 C 1.06591 0.75454 0.89468
 C3015 C 1.06994 0.79100 0.91135
 C3016 C 1.08351 0.80802 0.91947
 C3017 C 1.10662 0.80533 0.91881
 C3018 C 1.11605 0.78597 0.91056
 H3019 H 1.12981 0.74762 0.89444
 H3020 H 1.04807 0.75624 0.89467
 H3021 H 1.05211 0.79275 0.91191
 H3022 H 1.13390 0.78432 0.91035
 H3023 H 1.06469 0.72212 0.88066
 H3024 H 1.11748 0.81833 0.92447
 C3025 C 1.13617 0.25170 0.39714
 C3026 C 1.11983 0.23672 0.39023
 C3027 C 1.09746 0.24206 0.39363
 C3028 C 1.09148 0.26201 0.40398
 C3029 C 1.10805 0.27702 0.41070
 C3030 C 1.13034 0.27170 0.40715
 C3031 C 1.10204 0.29720 0.42057
 C3032 C 1.07964 0.30263 0.42375
 C3033 C 1.06336 0.28727 0.41755
 C3034 C 1.06920 0.26720 0.40774
 H3035 H 1.08472 0.23053 0.38864
 H3036 H 1.14328 0.28298 0.41215
 H3037 H 1.11474 0.30895 0.42509
 H3038 H 1.05628 0.25583 0.40291
 H3039 H 1.15353 0.24805 0.39460
 H3040 H 1.04599 0.29091 0.42012
 C3041 C 0.57970 0.73528 0.39104
 C3042 C 0.60284 0.73379 0.38880
 C3043 C 0.61566 0.75265 0.39287
 C3044 C 0.60561 0.77258 0.39915
 C3045 C 0.58235 0.77385 0.40136
 C3046 C 0.56957 0.75510 0.39722
 C3047 C 0.57235 0.79374 0.40802
 C3048 C 0.58540 0.81224 0.41286
 C3049 C 0.60847 0.81085 0.41028
 C3050 C 0.61848 0.79124 0.40341
 H3051 H 0.63347 0.75198 0.39107
 H3052 H 0.55173 0.75571 0.39890
 H3053 H 0.55457 0.79465 0.41013
 H3054 H 0.63632 0.79061 0.40171
 H3055 H 0.56931 0.72109 0.38819
 H3056 H 0.61880 0.82500 0.41370
 C3057 C 0.59524 0.25082 0.86840
 C3058 C 0.61835 0.25071 0.87092
 C3059 C 0.62867 0.26806 0.88226
 C3060 C 0.61608 0.28555 0.89080
 C3061 C 0.59278 0.28544 0.88854
 C3062 C 0.58252 0.26795 0.87734
 C3063 C 0.58019 0.30279 0.89754
 C3064 C 0.59065 0.32034 0.90857
 C3065 C 0.61390 0.32055 0.90999
 C3066 C 0.62647 0.30325 0.90138
 H3067 H 0.64653 0.26823 0.88394
 H3068 H 0.56471 0.26759 0.87537
 H3069 H 0.56230 0.30241 0.89633
 H3070 H 0.64432 0.30376 0.90296
 H3071 H 0.58699 0.23753 0.85971
 H3072 H 0.62247 0.33418 0.91780
 C3073 C 0.91677 0.73406 1.11676
 C3074 C 0.89357 0.73239 1.11601
 C3075 C 0.88110 0.75066 1.10895
 C3076 C 0.89165 0.77039 1.10295
 C3077 C 0.91500 0.77180 1.10355
 C3078 C 0.92739 0.75349 1.11046
 C3079 C 0.92556 0.79139 1.09698
 C3080 C 0.91303 0.80960 1.08976
 C3081 C 0.88978 0.80816 1.09000
 C3082 C 0.87922 0.78878 1.09642
 H3083 H 0.86320 0.74968 1.10857
 H3084 H 0.94528 0.75420 1.11103
 H3085 H 0.94347 0.79221 1.09683
 H3086 H 0.86131 0.78814 1.09612
 H3087 H 0.92680 0.72020 1.12202
 H3088 H 0.87968 0.82207 1.08498
 C3089 C 0.86472 0.25521 0.59752
 C3090 C 0.88020 0.24080 0.60718
 C3091 C 0.90255 0.24685 0.60818
 C3092 C 0.90942 0.26713 0.59953
 C3093 C 0.89365 0.28178 0.59032
 C3094 C 0.87135 0.27566 0.58936
 C3095 C 0.90042 0.30235 0.58232
 C3096 C 0.92287 0.30835 0.58286
 C3097 C 0.93847 0.29330 0.59144
 C3098 C 0.93179 0.27299 0.59988
 H3099 H 0.91460 0.23565 0.61537
 H3100 H 0.85905 0.28665 0.58229
 H3101 H 0.88810 0.31379 0.57608
 H3102 H 0.94413 0.26184 0.60662
 H3103 H 0.84739 0.25085 0.59670
 H3104 H 0.95593 0.29718 0.59160
 C3105 C 0.40582 0.75003 0.62114
 C3106 C 0.39765 0.73613 0.60428
 C3107 C 0.39675 0.74367 0.58215
 C3108 C 0.40419 0.76489 0.57688
 C3109 C 0.41204 0.77887 0.59404
 C3110 C 0.41277 0.77130 0.61610
 C3111 C 0.41900 0.80022 0.58890
 C3112 C 0.41876 0.80777 0.56671
 C3113 C 0.41137 0.79352 0.54970
 C3114 C 0.40399 0.77236 0.55475
 H3115 H 0.39063 0.73293 0.56906
 H3116 H 0.41876 0.78179 0.62945
 H3117 H 0.42428 0.81105 0.60228
 H3118 H 0.39825 0.76180 0.54135
 H3119 H 0.40644 0.74461 0.63835
 H3120 H 0.41141 0.79868 0.53239
 C3121 C 0.41307 0.23812 1.10553
 C3122 C 0.38985 0.23702 1.10508
 C3123 C 0.37763 0.25515 1.09739
 C3124 C 0.38851 0.27453 1.09099
 C3125 C 0.41191 0.27555 1.09165
 C3126 C 0.42402 0.25713 1.09867
 C3127 C 0.42278 0.29497 1.08532
 C3128 C 0.41055 0.31339 1.07831
 C3129 C 0.38729 0.31232 1.07818
 C3130 C 0.37638 0.29308 1.08437
 H3131 H 0.35971 0.25451 1.09736
 H3132 H 0.44192 0.25755 1.09927
 H3133 H 0.44070 0.29559 1.08536
 H3134 H 0.35847 0.29271 1.08398
 H3135 H 0.42277 0.22428 1.11144
 H3136 H 0.37748 0.32643 1.07314
 C3137 C 1.11196 1.07779 0.73270
 C3138 C 1.10992 1.10083 0.73027
 C3139 C 1.10105 1.11305 0.74822
 C3140 C 1.09466 1.10262 0.76809
 C3141 C 1.09649 1.07952 0.77010
 C3142 C 1.10516 1.06728 0.75228
 C3143 C 1.08944 1.06906 0.78981
 C3144 C 1.08071 1.08151 0.80762
 C3145 C 1.07981 1.10460 0.80563
 C3146 C 1.08654 1.11502 0.78606
 H3147 H 1.09953 1.13078 0.74715
 H3148 H 1.10671 1.04954 0.75347
 H3149 H 1.09024 1.05128 0.79105
 H3150 H 1.08532 1.13279 0.78497
 H3151 H 1.11845 1.06761 0.71937
 H3152 H 1.07378 1.11471 0.81927
 C3153 C 1.08645 0.62203 0.24298
 C3154 C 1.10888 0.61730 0.23853
 C3155 C 1.12066 0.60412 0.25387
 C3156 C 1.11042 0.59613 0.27326
 C3157 C 1.08778 0.60040 0.27709
 C3158 C 1.07594 0.61336 0.26181
 C3159 C 1.07742 0.59178 0.29619
 C3160 C 1.08962 0.57962 0.31210
 C3161 C 1.11244 0.57639 0.30837
 C3162 C 1.12260 0.58419 0.28904
 H3163 H 1.13805 0.60062 0.25129
 H3164 H 1.05858 0.61695 0.26452
 H3165 H 1.05984 0.59443 0.29845
 H3166 H 1.14011 0.58114 0.28661
 H3167 H 1.07668 0.63192 0.23162
 H3168 H 1.12270 0.56799 0.32050
 C3169 C 0.62274 1.08928 0.23435
 C3170 C 0.62017 1.11229 0.23221
 C3171 C 0.61089 1.12409 0.25023
 C3172 C 0.60444 1.11326 0.26984
 C3173 C 0.60654 1.09014 0.27147
 C3174 C 0.61577 1.07833 0.25363
 C3175 C 0.59918 1.07926 0.29082
 C3176 C 0.58999 1.09130 0.30868
 C3177 C 0.58904 1.11443 0.30716
 C3178 C 0.59597 1.12525 0.28790
 H3179 H 0.60911 1.14181 0.24941
 H3180 H 0.61760 1.06060 0.25456
 H3181 H 0.60007 1.06146 0.29168
 H3182 H 0.59462 1.14303 0.28713
 H3183 H 0.62962 1.07945 0.22094
 H3184 H 0.58278 1.12427 0.32089
 C3185 C 0.58308 0.62258 0.73644
 C3186 C 0.60624 0.62137 0.73470
 C3187 C 0.61853 0.61288 0.75265
 C3188 C 0.60787 0.60576 0.77216
 C3189 C 0.58453 0.60657 0.77361
 C3190 C 0.57230 0.61504 0.75562
 C3191 C 0.57386 0.59878 0.79292
 C3192 C 0.58627 0.59041 0.81097
 C3193 C 0.60953 0.59054 0.80953
 C3194 C 0.62019 0.59792 0.79030
 H3195 H 0.63642 0.61220 0.75161
 H3196 H 0.55441 0.61589 0.75640
 H3197 H 0.55595 0.59879 0.79367
 H3198 H 0.63810 0.59750 0.78964
 H3199 H 0.57326 0.62904 0.72278
 H3200 H 0.61962 0.58489 0.82335
 C3201 C 0.88063 0.90862 0.73648
 C3202 C 0.88139 0.88550 0.73526
 C3203 C 0.89018 0.87358 0.75330
 C3204 C 0.89780 0.88457 0.77247
 C3205 C 0.89711 0.90783 0.77351
 C3206 C 0.88857 0.91969 0.75535
 C3207 C 0.90497 0.91879 0.79265
 C3208 C 0.91344 0.90677 0.81084
 C3209 C 0.91352 0.88361 0.80973
 C3210 C 0.90591 0.87264 0.79073
 H3211 H 0.89055 0.85575 0.75269
 H3212 H 0.88788 0.93752 0.75580
 H3213 H 0.90488 0.93663 0.79321
 H3214 H 0.90632 0.85480 0.79035
 H3215 H 0.87399 0.91817 0.72276
 H3216 H 0.91944 0.87388 0.82366
 C3217 C 0.86850 0.40211 0.24851
 C3218 C 0.88275 0.38813 0.23628
 C3219 C 0.90388 0.38349 0.24509
 C3220 C 0.91084 0.39333 0.26522
 C3221 C 0.89606 0.40668 0.27757
 C3222 C 0.87488 0.41083 0.26911
 C3223 C 0.90269 0.41583 0.29809
 C3224 C 0.92445 0.41289 0.30609
 C3225 C 0.93935 0.40051 0.29285
 C3226 C 0.93250 0.39047 0.27299
 H3227 H 0.91532 0.37318 0.23582
 H3228 H 0.86333 0.42112 0.27826
 H3229 H 0.89069 0.42499 0.30781
 H3230 H 0.94430 0.38077 0.26351
 H3231 H 0.85198 0.40584 0.24261
 H3232 H 0.95648 0.39855 0.29766
 C3233 C 0.38967 0.92808 0.22751
 C3234 C 0.39255 0.90535 0.22354
 C3235 C 0.40179 0.89229 0.24062
 C3236 C 0.40797 0.90162 0.26109
 C3237 C 0.40563 0.92451 0.26459
 C3238 C 0.39640 0.93758 0.24769
 C3239 C 0.41263 0.93390 0.28487
 C3240 C 0.42159 0.92057 0.30186
 C3241 C 0.42290 0.89766 0.29842
 C3242 C 0.41640 0.88833 0.27818
 H3243 H 0.40372 0.87470 0.23840
 H3244 H 0.39436 0.95516 0.25008
 H3245 H 0.41152 0.95157 0.28719
 H3246 H 0.41794 0.87068 0.27593
 H3247 H 0.38276 0.93879 0.21486
 H3248 H 0.42898 0.88683 0.31141
 C3249 C 0.42918 0.39982 0.72350
 C3250 C 0.40620 0.39989 0.71992
 C3251 C 0.39206 0.40627 0.73739
 C3252 C 0.40072 0.41230 0.75826
 C3253 C 0.42387 0.41239 0.76167
 C3254 C 0.43796 0.40617 0.74414
 C3255 C 0.43251 0.41873 0.78251
 C3256 C 0.41827 0.42487 0.80005
 C3257 C 0.39526 0.42420 0.79653
 C3258 C 0.38658 0.41810 0.77583
 H3259 H 0.37430 0.40606 0.73494
 H3260 H 0.45574 0.40611 0.74642
 H3261 H 0.45027 0.41929 0.78493
 H3262 H 0.36879 0.41789 0.77359
 H3263 H 0.44040 0.39503 0.71025
 H3264 H 0.38388 0.42834 0.80986
 C3265 C 1.08204 0.87945 1.26460
 C3266 C 1.10494 0.88188 1.26773
 C3267 C 1.11742 0.89266 1.25131
 C3268 C 1.10722 0.90086 1.23195
 C3269 C 1.08411 0.89877 1.22914
 C3270 C 1.07167 0.88802 1.24558
 C3271 C 1.07388 0.90740 1.20993
 C3272 C 1.08651 0.91769 1.19318
 C3273 C 1.10961 0.91907 1.19603
 C3274 C 1.11980 0.91097 1.21528
 H3275 H 1.13515 0.89433 1.25340
 H3276 H 1.05395 0.88616 1.24370
 H3277 H 1.05608 0.90629 1.20820
 H3278 H 1.13757 0.91243 1.21702
 H3279 H 1.07209 0.87125 1.27708
 H3280 H 1.11996 0.92622 1.18324
 C3281 C 1.09923 0.36214 0.74972
 C3282 C 1.10854 0.37720 0.76487
 C3283 C 1.10856 0.39972 0.75956
 C3284 C 1.09936 0.40711 0.73935
 C3285 C 1.09040 0.39177 0.72407
 C3286 C 1.09038 0.36933 0.72944
 C3287 C 1.08176 0.39907 0.70360
 C3288 C 1.08164 0.42161 0.69823
 C3289 C 1.09011 0.43676 0.71385
 C3290 C 1.09899 0.42958 0.73414
 H3291 H 1.11547 0.41150 0.77124
 H3292 H 1.08356 0.35733 0.71794
 H3293 H 1.07560 0.38711 0.69168
 H3294 H 1.10558 0.44161 0.74574
 H3295 H 1.09916 0.34469 0.75335
 H3296 H 1.08986 0.45425 0.71040
 C3297 C 0.62930 0.89428 0.74653
 C3298 C 0.61329 0.88669 0.76164
 C3299 C 0.59083 0.88775 0.75577
 C3300 C 0.58441 0.89697 0.73522
 C3301 C 0.60069 0.90461 0.72017
 C3302 C 0.62309 0.90298 0.72590
 C3303 C 0.59435 0.91384 0.69967
 C3304 C 0.57188 0.91580 0.69399
 C3305 C 0.55580 0.90843 0.70922
 C3306 C 0.56201 0.89901 0.72958
 H3307 H 0.57840 0.88213 0.76746
 H3308 H 0.63579 0.90870 0.71457
 H3309 H 0.60693 0.91915 0.68800
 H3310 H 0.54928 0.89344 0.74095
 H3311 H 0.64673 0.89345 0.75067
 H3312 H 0.53836 0.91002 0.70542
 C3313 C 0.62210 0.41453 1.25855
 C3314 C 0.61998 0.39150 1.26077
 C3315 C 0.60907 0.37981 1.24364
 C3316 C 0.60066 0.39077 1.22478
 C3317 C 0.60248 0.41387 1.22309
 C3318 C 0.61324 0.42558 1.24008
 C3319 C 0.59349 0.42486 1.20446
 C3320 C 0.58304 0.41296 1.18721
 C3321 C 0.58212 0.38983 1.18885
 C3322 C 0.59059 0.37891 1.20750
 H3323 H 0.60749 0.36209 1.24451
 H3324 H 0.61489 0.44330 1.23907
 H3325 H 0.59434 0.44265 1.20362
 H3326 H 0.58937 0.36114 1.20832
 H3327 H 0.63015 0.42430 1.27128
 H3328 H 0.57493 0.38003 1.17560
 C3329 C 0.90808 1.13109 1.25468
 C3330 C 0.90110 1.11477 1.26968
 C3331 C 0.90172 1.09258 1.26304
 C3332 C 0.90896 1.08676 1.24158
 C3333 C 0.91548 1.10333 1.22643
 C3334 C 0.91510 1.12543 1.23319
 C3335 C 0.92205 1.09754 1.20472
 C3336 C 0.92244 1.07534 1.19797
 C3337 C 0.91642 1.05899 1.21341
 C3338 C 0.90965 1.06464 1.23496
 H3339 H 0.89664 1.07984 1.27457
 H3340 H 0.92008 1.13834 1.22181
 H3341 H 0.92638 1.11037 1.19298
 H3342 H 0.90491 1.05171 1.24643
 H3343 H 0.90762 1.14831 1.25934
 H3344 H 0.91701 1.04174 1.20884
 C3345 C 0.92072 0.60793 0.76801
 C3346 C 0.89758 0.60947 0.76994
 C3347 C 0.88435 0.60386 0.75149
 C3348 C 0.89401 0.59666 0.73147
 C3349 C 0.91727 0.59495 0.72976
 C3350 C 0.93048 0.60069 0.74813
 C3351 C 0.92688 0.58733 0.70981
 C3352 C 0.91348 0.58130 0.69160
 C3353 C 0.89038 0.58347 0.69342
 C3354 C 0.88074 0.59106 0.71315
 H3355 H 0.86651 0.60524 0.75256
 H3356 H 0.94834 0.59948 0.74715
 H3357 H 0.94470 0.58560 0.70864
 H3358 H 0.86289 0.59244 0.71412
 H3359 H 0.93133 0.61203 0.78198
 H3360 H 0.87973 0.57932 0.67949
 C3361 C 0.39024 1.08388 0.76725
 C3362 C 0.38986 1.10697 0.76885
 C3363 C 0.39697 1.11961 0.75066
 C3364 C 0.40378 1.10929 0.73081
 C3365 C 0.40407 1.08603 0.72931
 C3366 C 0.39746 1.07349 0.74773
 C3367 C 0.41095 1.07573 0.70945
 C3368 C 0.41752 1.08840 0.69103
 C3369 C 0.41668 1.11152 0.69259
 C3370 C 0.40998 1.12186 0.71229
 H3371 H 0.39639 1.13742 0.75164
 H3372 H 0.39758 1.05566 0.74694
 H3373 H 0.41164 1.05791 0.70848
 H3374 H 0.40963 1.13968 0.71303
 H3375 H 0.38485 1.07384 0.78114
 H3376 H 0.42128 1.12166 0.67849
 C3377 C 0.39547 0.63621 1.24913
 C3378 C 0.38560 0.62124 1.26391
 C3379 C 0.38430 0.59891 1.25782
 C3380 C 0.39290 0.59159 1.23728
 C3381 C 0.40246 0.60686 1.22240
 C3382 C 0.40364 0.62913 1.22848
 C3383 C 0.41072 0.59962 1.20171
 C3384 C 0.41013 0.57716 1.19579
 C3385 C 0.40090 0.56210 1.21098
 C3386 C 0.39222 0.56925 1.23141
 H3387 H 0.37694 0.58718 1.26920
 H3388 H 0.41096 0.64106 1.21730
 H3389 H 0.41736 0.61160 1.19016
 H3390 H 0.38515 0.55727 1.24270
 H3391 H 0.39653 0.65351 1.25336
 H3392 H 0.40057 0.54467 1.20723
 C3393 C 1.13613 1.23538 0.89654
 C3394 C 1.12146 1.25078 0.88687
 C3395 C 1.09860 1.24617 0.88718
 C3396 C 1.09064 1.22669 0.89673
 C3397 C 1.10563 1.21130 0.90592
 C3398 C 1.12830 1.21583 0.90580
 C3399 C 1.09772 1.19158 0.91497
 C3400 C 1.07491 1.18709 0.91529
 C3401 C 1.06011 1.20276 0.90648
 C3402 C 1.06790 1.22232 0.89720
 H3403 H 1.08678 1.25772 0.88026
 H3404 H 1.14003 1.20421 0.91283
 H3405 H 1.10941 1.17956 0.92136
 H3406 H 1.05613 1.23403 0.89040
 H3407 H 1.15379 1.23803 0.89669
 H3408 H 1.04244 1.19994 0.90684
 C3409 C 1.11510 0.76055 0.42358
 C3410 C 1.11149 0.76442 0.40062
 C3411 C 1.10073 0.74810 0.38793
 C3412 C 1.09432 0.72819 0.39774
 C3413 C 1.09762 0.72473 0.42084
 C3414 C 1.10794 0.74108 0.43362
 C3415 C 1.09066 0.70495 0.43071
 C3416 C 1.08099 0.68827 0.41761
 C3417 C 1.07874 0.69169 0.39442
 C3418 C 1.08499 0.71152 0.38468
 H3419 H 1.09811 0.75032 0.37017
 H3420 H 1.11069 0.73873 0.45135
 H3421 H 1.09254 0.70273 0.44857
 H3422 H 1.08274 0.71371 0.36685
 H3423 H 1.12305 0.77271 0.43405
 H3424 H 1.07219 0.67897 0.38362
 C3425 C 0.60196 1.24381 0.35931
 C3426 C 0.61314 1.25785 0.37428
 C3427 C 0.61447 1.25162 0.39697
 C3428 C 0.60524 1.23181 0.40442
 C3429 C 0.59480 1.21759 0.38907
 C3430 C 0.59313 1.22380 0.36658
 C3431 C 0.58626 1.19740 0.39646
 C3432 C 0.58747 1.19143 0.41921
 C3433 C 0.59736 1.20615 0.43438
 C3434 C 0.60632 1.22601 0.42705
 H3435 H 0.62238 1.26222 0.40911
 H3436 H 0.58504 1.21316 0.35456
 H3437 H 0.57902 1.18625 0.38437
 H3438 H 0.61402 1.23687 0.43912
 H3439 H 0.60051 1.24782 0.34177
 H3440 H 0.59807 1.20244 0.45205
 C3441 C 0.63178 0.74770 0.89841
 C3442 C 0.61624 0.76280 0.88989
 C3443 C 0.59362 0.75774 0.89102
 C3444 C 0.58659 0.73795 0.90079
 C3445 C 0.60238 0.72280 0.90912
 C3446 C 0.62493 0.72783 0.90779
 C3447 C 0.59538 0.70282 0.91848
 C3448 C 0.57273 0.69776 0.91976
 C3449 C 0.55718 0.71325 0.91192
 C3450 C 0.56403 0.73308 0.90245
 H3451 H 0.58149 0.76939 0.88475
 H3452 H 0.63728 0.71643 0.91406
 H3453 H 0.60758 0.69099 0.92421
 H3454 H 0.55167 0.74457 0.89638
 H3455 H 0.64931 0.75115 0.89761
 H3456 H 0.53962 0.70998 0.91304
 C3457 C 0.85856 1.24341 1.10413
 C3458 C 0.87449 1.25861 1.11156
 C3459 C 0.89703 1.25333 1.10905
 C3460 C 0.90353 1.23323 1.09924
 C3461 C 0.88735 1.21802 1.09208
 C3462 C 0.86490 1.22332 1.09458
 C3463 C 0.89387 1.19767 1.08279
 C3464 C 0.91643 1.19227 1.08061
 C3465 C 0.93233 1.20784 1.08730
 C3466 C 0.92597 1.22805 1.09654
 H3467 H 0.90951 1.26493 1.11446
 H3468 H 0.85223 1.21189 1.08923
 H3469 H 0.88140 1.18583 1.07790
 H3470 H 0.93863 1.23956 1.10173
 H3471 H 0.84108 1.24688 1.10598
 H3472 H 0.94981 1.20435 1.08545
 C3473 C 0.85533 0.72716 0.61734
 C3474 C 0.86997 0.74374 0.62432
 C3475 C 0.89262 0.74156 0.61963
 C3476 C 0.90048 0.72322 0.60763
 C3477 C 0.88557 0.70667 0.60064
 C3478 C 0.86306 0.70874 0.60573
 C3479 C 0.89342 0.68823 0.58887
 C3480 C 0.91605 0.68601 0.58407
 C3481 C 0.93067 0.70276 0.59070
 C3482 C 0.92297 0.72120 0.60237
 H3483 H 0.90399 0.75439 0.62469
 H3484 H 0.85140 0.69620 0.60059
 H3485 H 0.88206 0.67528 0.58410
 H3486 H 0.93463 0.73377 0.60742
 H3487 H 0.83781 0.72845 0.62087
 H3488 H 0.94817 0.70146 0.58704
 C3489 C 0.42775 1.26686 0.60902
 C3490 C 0.40469 1.27038 0.60789
 C3491 C 0.39119 1.25296 0.60048
 C3492 C 0.40040 1.23270 0.59419
 C3493 C 0.42354 1.22957 0.59496
 C3494 C 0.43705 1.24674 0.60249
 C3495 C 0.43272 1.20942 0.58801
 C3496 C 0.41898 1.19233 0.58038
 C3497 C 0.39592 1.19550 0.58034
 C3498 C 0.38673 1.21550 0.58707
 H3499 H 0.37341 1.25481 0.59975
 H3500 H 0.45484 1.24464 0.60326
 H3501 H 0.45052 1.20722 0.58806
 H3502 H 0.36892 1.21754 0.58662
 H3503 H 0.43883 1.27971 0.61453
 H3504 H 0.38492 1.18245 0.57510
 C3505 C 0.41486 0.76258 1.11871
 C3506 C 0.39219 0.76717 1.11520
 C3507 C 0.37907 0.75077 1.10506
 C3508 C 0.38834 0.73037 1.09879
 C3509 C 0.41114 0.72634 1.10205
 C3510 C 0.42421 0.74256 1.11205
 C3511 C 0.42056 0.70623 1.09516
 C3512 C 0.40740 0.68979 1.08528
 C3513 C 0.38453 0.69377 1.08286
 C3514 C 0.37516 0.71387 1.08934
 H3515 H 0.36157 0.75355 1.10239
 H3516 H 0.44173 0.73978 1.11473
 H3517 H 0.43820 0.70362 1.09706
 H3518 H 0.35757 0.71647 1.08698
 H3519 H 0.42578 0.77458 1.12617
 H3520 H 0.37376 0.68130 1.07594
 C3521 C 0.92137 0.73091 0.89439
 C3522 C 0.89824 0.72853 0.89485
 C3523 C 0.88509 0.74647 0.90160
 C3524 C 0.89489 0.76654 0.90767
 C3525 C 0.91818 0.76870 0.90732
 C3526 C 0.93125 0.75076 0.90066
 C3527 C 0.92798 0.78868 0.91383
 C3528 C 0.91477 0.80654 0.92075
 C3529 C 0.89160 0.80431 0.92046
 C3530 C 0.88177 0.78452 0.91406
 H3531 H 0.86724 0.74496 0.90177
 H3532 H 0.94912 0.75206 0.90029
 H3533 H 0.94584 0.79013 0.91407
 H3534 H 0.86390 0.78326 0.91421
 H3535 H 0.93191 0.71733 0.88940
 H3536 H 0.88101 0.81793 0.92526
 C3537 C 0.86677 0.25228 0.40349
 C3538 C 0.88286 0.23670 0.39718
 C3539 C 0.90535 0.24176 0.39999
 C3540 C 0.91174 0.26224 0.40859
 C3541 C 0.89546 0.27797 0.41445
 C3542 C 0.87302 0.27277 0.41199
 C3543 C 0.90189 0.29873 0.42237
 C3544 C 0.92443 0.30398 0.42454
 C3545 C 0.94045 0.28800 0.41911
 C3546 C 0.93417 0.26734 0.41118
 H3547 H 0.91792 0.22979 0.39550
 H3548 H 0.86031 0.28463 0.41642
 H3549 H 0.88937 0.31097 0.42625
 H3550 H 0.94687 0.25540 0.40692
 H3551 H 0.84934 0.24886 0.40139
 H3552 H 0.95790 0.29151 0.42100
 C3553 C 0.36093 0.76257 0.39628
 C3554 C 0.37602 0.74808 0.38582
 C3555 C 0.39840 0.75429 0.38443
 C3556 C 0.40562 0.77419 0.39383
 C3557 C 0.39019 0.78873 0.40375
 C3558 C 0.36788 0.78280 0.40478
 C3559 C 0.39731 0.80893 0.41253
 C3560 C 0.41987 0.81456 0.41233
 C3561 C 0.43517 0.79942 0.40324
 C3562 C 0.42809 0.77964 0.39379
 H3563 H 0.41046 0.74332 0.37691
 H3564 H 0.35581 0.79372 0.41238
 H3565 H 0.38516 0.82034 0.41917
 H3566 H 0.44023 0.76851 0.38665
 H3567 H 0.34353 0.75866 0.39745
 H3568 H 0.45273 0.80279 0.40343
 C3569 C 0.36053 0.25881 0.89429
 C3570 C 0.37552 0.24376 0.88473
 C3571 C 0.39804 0.24945 0.88350
 C3572 C 0.40548 0.26980 0.89186
 C3573 C 0.39018 0.28487 0.90119
 C3574 C 0.36774 0.27921 0.90228
 C3575 C 0.39755 0.30530 0.90933
 C3576 C 0.42018 0.31084 0.90876
 C3577 C 0.43524 0.29552 0.89966
 C3578 C 0.42796 0.27531 0.89119
 H3579 H 0.40983 0.23793 0.87639
 H3580 H 0.35577 0.29054 0.90939
 H3581 H 0.38557 0.31694 0.91588
 H3582 H 0.43998 0.26391 0.88427
 H3583 H 0.34309 0.25498 0.89529
 H3584 H 0.45278 0.29899 0.89934
 C3585 C 1.13950 0.75995 1.10901
 C3586 C 1.12451 0.74431 1.11752
 C3587 C 1.10165 0.74829 1.11487
 C3588 C 1.09402 0.76747 1.10427
 C3589 C 1.10931 0.78311 1.09630
 C3590 C 1.13198 0.77912 1.09865
 C3591 C 1.10170 0.80265 1.08644
 C3592 C 1.07891 0.80682 1.08440
 C3593 C 1.06383 0.79086 1.09182
 C3594 C 1.07130 0.77139 1.10170
 H3595 H 1.08964 0.73657 1.12089
 H3596 H 1.14395 0.79093 1.09259
 H3597 H 1.11352 0.81491 1.08105
 H3598 H 1.05930 0.75951 1.10752
 H3599 H 1.15718 0.75782 1.11061
 H3600 H 1.04618 0.79351 1.09013
 C3601 C 1.13899 0.25421 0.60800
 C3602 C 1.12375 0.24003 0.61847
 C3603 C 1.10126 0.24635 0.61892
 C3604 C 1.09421 0.26614 0.60899
 C3605 C 1.10981 0.28028 0.59900
 C3606 C 1.13214 0.27415 0.59863
 C3607 C 1.10285 0.30034 0.58961
 C3608 C 1.08033 0.30637 0.58957
 C3609 C 1.06489 0.29175 0.59899
 C3610 C 1.07177 0.27199 0.60876
 H3611 H 1.08903 0.23574 0.62648
 H3612 H 1.14435 0.28476 0.59101
 H3613 H 1.11509 0.31139 0.58272
 H3614 H 1.05949 0.26124 0.61606
 H3615 H 1.15644 0.25032 0.60738
 H3616 H 1.04738 0.29552 0.59877
 C3617 C 0.63780 0.76371 0.60504
 C3618 C 0.62292 0.74704 0.61117
 C3619 C 0.60023 0.75001 0.60687
 C3620 C 0.59250 0.76942 0.59681
 C3621 C 0.60762 0.78611 0.59092
 C3622 C 0.63023 0.78305 0.59502
 C3623 C 0.59987 0.80572 0.58135
 C3624 C 0.57714 0.80898 0.57767
 C3625 C 0.56226 0.79216 0.58329
 C3626 C 0.56987 0.77253 0.59273
 H3627 H 0.58855 0.73727 0.61126
 H3628 H 0.64205 0.79569 0.59064
 H3629 H 0.61147 0.81871 0.57737
 H3630 H 0.55804 0.75988 0.59704
 H3631 H 0.65534 0.76204 0.60826
 H3632 H 0.54468 0.79422 0.58039
 C3633 C 0.64016 0.26896 1.11214
 C3634 C 0.62562 0.25237 1.11923
 C3635 C 0.60288 0.25467 1.11487
 C3636 C 0.59479 0.27322 1.10345
 C3637 C 0.60958 0.28983 1.09649
 C3638 C 0.63222 0.28753 1.10095
 C3639 C 0.60147 0.30858 1.08547
 C3640 C 0.57869 0.31105 1.08140
 C3641 C 0.56419 0.29423 1.08802
 C3642 C 0.57216 0.27549 1.09891
 H3643 H 0.59151 0.24190 1.12002
 H3644 H 0.64380 0.30011 1.09581
 H3645 H 0.61277 0.32156 1.08071
 H3646 H 0.56058 0.26288 1.10398
 H3647 H 0.65772 0.26772 1.11542
 H3648 H 0.54660 0.29568 1.08488
 C3649 C 1.23963 1.10340 0.86381
 C3650 C 1.25375 1.11234 0.88011
 C3651 C 1.24822 1.11047 0.90276
 C3652 C 1.22887 1.09942 0.90912
 C3653 C 1.21452 1.09081 0.89259
 C3654 C 1.22004 1.09296 0.86998
 C3655 C 1.19482 1.08037 0.89894
 C3656 C 1.18933 1.07826 0.92165
 C3657 C 1.20421 1.08610 0.93792
 C3658 C 1.22368 1.09671 0.93173
 H3659 H 1.25927 1.11703 0.91538
 H3660 H 1.20931 1.08642 0.85707
 H3661 H 1.18348 1.07457 0.88621
 H3662 H 1.23462 1.10290 0.94463
 H3663 H 1.24370 1.10467 0.84624
 H3664 H 1.20064 1.08427 0.95554
 C3665 C 1.26152 0.61606 0.42067
 C3666 C 1.26411 0.61403 0.39743
 C3667 C 1.24771 0.60347 0.38482
 C3668 C 1.22860 0.59548 0.39525
 C3669 C 1.22618 0.59742 0.41868
 C3670 C 1.24283 0.60760 0.43126
 C3671 C 1.20709 0.58931 0.42911
 C3672 C 1.19015 0.57963 0.41636
 C3673 C 1.19259 0.57832 0.39298
 C3674 C 1.21169 0.58595 0.38257
 H3675 H 1.24946 0.60215 0.36684
 H3676 H 1.24126 0.60929 0.44922
 H3677 H 1.20555 0.59034 0.44712
 H3678 H 1.21313 0.58461 0.36457
 H3679 H 1.27405 0.62414 0.43067
 H3680 H 1.17961 0.57152 0.38261
 C3681 C 0.76911 1.07808 0.38758
 C3682 C 0.77066 1.10116 0.38676
 C3683 C 0.75243 1.11395 0.39352
 C3684 C 0.73309 1.10395 0.40128
 C3685 C 0.73174 1.08075 0.40223
 C3686 C 0.74982 1.06796 0.39525
 C3687 C 0.71241 1.07080 0.41030
 C3688 C 0.69452 1.08381 0.41757
 C3689 C 0.69601 1.10686 0.41628
 C3690 C 0.71510 1.11684 0.40821
 H3691 H 0.75312 1.13174 0.39272
 H3692 H 0.74911 1.05015 0.39586
 H3693 H 0.71144 1.05301 0.41132
 H3694 H 0.71582 1.13465 0.40746
 H3695 H 0.78288 1.06777 0.38258
 H3696 H 0.68228 1.11720 0.42139
 C3697 C 0.74325 0.60896 0.86671
 C3698 C 0.75808 0.61696 0.88289
 C3699 C 0.75194 0.61633 0.90555
 C3700 C 0.73143 0.60750 0.91196
 C3701 C 0.71668 0.59952 0.89551
 C3702 C 0.72272 0.60044 0.87293
 C3703 C 0.69616 0.59075 0.90189
 C3704 C 0.69015 0.58965 0.92458
 C3705 C 0.70511 0.59745 0.94079
 C3706 C 0.72548 0.60633 0.93455
 H3707 H 0.76328 0.62222 0.91824
 H3708 H 0.71163 0.59445 0.86007
 H3709 H 0.68475 0.58509 0.88915
 H3710 H 0.73662 0.61221 0.94742
 H3711 H 0.74743 0.60941 0.84913
 H3712 H 0.70113 0.59651 0.95840
 C3713 C 1.26837 0.92171 1.10058
 C3714 C 1.26993 0.89887 1.10428
 C3715 C 1.25076 0.88599 1.10226
 C3716 C 1.23034 0.89580 1.09685
 C3717 C 1.22901 0.91880 1.09333
 C3718 C 1.24815 0.93156 1.09518
 C3719 C 1.20865 0.92858 1.08765
 C3720 C 1.18967 0.91558 1.08507
 C3721 C 1.19111 0.89278 1.08892
 C3722 C 1.21121 0.88300 1.09485
 H3723 H 1.25159 0.86841 1.10521
 H3724 H 1.24751 0.94918 1.09241
 H3725 H 1.20771 0.94613 1.08449
 H3726 H 1.21185 0.86537 1.09757
 H3727 H 1.28283 0.93208 1.10174
 H3728 H 1.17662 0.88249 1.08714
 C3729 C 1.25081 0.36520 0.60427
 C3730 C 1.26611 0.38165 0.60999
 C3731 C 1.26000 0.40387 0.60763
 C3732 C 1.23896 0.40960 0.59950
 C3733 C 1.22365 0.39292 0.59393
 C3734 C 1.22974 0.37077 0.59642
 C3735 C 1.20251 0.39867 0.58605
 C3736 C 1.19645 0.42092 0.58358
 C3737 C 1.21199 0.43733 0.58885
 C3738 C 1.23300 0.43173 0.59678
 H3739 H 1.27172 0.41672 0.61171
 H3740 H 1.21823 0.35776 0.59226
 H3741 H 1.19066 0.38585 0.58228
 H3742 H 1.24457 0.44473 0.60079
 H3743 H 1.25501 0.34796 0.60609
 H3744 H 1.20792 0.45458 0.58674
 C3745 C 0.73259 0.85635 0.60792
 C3746 C 0.74888 0.87074 0.61608
 C3747 C 0.74597 0.89355 0.61354
 C3748 C 0.72701 0.90190 0.60300
 C3749 C 0.71068 0.88726 0.59499
 C3750 C 0.71364 0.86453 0.59750
 C3751 C 0.69153 0.89559 0.58487
 C3752 C 0.68838 0.91840 0.58271
 C3753 C 0.70484 0.93283 0.59042
 C3754 C 0.72402 0.92465 0.60046
 H3755 H 0.75851 0.90482 0.61952
 H3756 H 0.70126 0.85309 0.59150
 H3757 H 0.67877 0.88435 0.57927
 H3758 H 0.73641 0.93610 0.60640
 H3759 H 0.73431 0.83871 0.60983
 H3760 H 0.70280 0.95047 0.58874
 C3761 C 0.76061 0.41833 1.11126
 C3762 C 0.76105 0.39527 1.11338
 C3763 C 0.74200 0.38320 1.10798
 C3764 C 0.72277 0.39400 1.10062
 C3765 C 0.72254 0.41719 1.09850
 C3766 C 0.74156 0.42919 1.10386
 C3767 C 0.70339 0.42795 1.09081
 C3768 C 0.68454 0.41576 1.08499
 C3769 C 0.68486 0.39274 1.08755
 C3770 C 0.70377 0.38197 1.09530
 H3771 H 0.74198 0.36546 1.10975
 H3772 H 0.74173 0.44695 1.10228
 H3773 H 0.70333 0.44568 1.08875
 H3774 H 0.70359 0.36421 1.09697
 H3775 H 0.77508 0.42806 1.11510
 H3776 H 0.67040 0.38305 1.08348
 C3777 C 0.76140 1.14022 1.10511
 C3778 C 0.74434 1.12589 1.11162
 C3779 C 0.74722 1.10308 1.10850
 C3780 C 0.76685 1.09473 1.09924
 C3781 C 0.78382 1.10935 1.09287
 C3782 C 0.78091 1.13203 1.09581
 C3783 C 0.80352 1.10105 1.08387
 C3784 C 0.80661 1.07827 1.08121
 C3785 C 0.78964 1.06383 1.08753
 C3786 C 0.76988 1.07200 1.09641
 H3787 H 0.73432 1.09174 1.11326
 H3788 H 0.79379 1.14345 1.09104
 H3789 H 0.81667 1.11229 1.07939
 H3790 H 0.75704 1.06054 1.10117
 H3791 H 0.75989 1.15782 1.10731
 H3792 H 0.79165 1.04621 1.08548
 C3793 C 0.76395 0.64060 0.61516
 C3794 C 0.74703 0.62612 0.62162
 C3795 C 0.74928 0.60356 0.61674
 C3796 C 0.76805 0.59564 0.60539
 C3797 C 0.78488 0.61042 0.59891
 C3798 C 0.78268 0.63284 0.60395
 C3799 C 0.80376 0.60248 0.58779
 C3800 C 0.80617 0.57989 0.58327
 C3801 C 0.78921 0.56539 0.58954
 C3802 C 0.77030 0.57319 0.60043
 H3803 H 0.73633 0.59220 0.62142
 H3804 H 0.79545 0.64440 0.59923
 H3805 H 0.81687 0.61375 0.58330
 H3806 H 0.75755 0.56162 0.60517
 H3807 H 0.76282 0.65802 0.61886
 H3808 H 0.79068 0.54793 0.58612
 C3809 C 0.23656 1.08239 0.60928
 C3810 C 0.23510 1.10542 0.61158
 C3811 C 0.25341 1.11831 0.60551
 C3812 C 0.27280 1.10845 0.59737
 C3813 C 0.27409 1.08531 0.59525
 C3814 C 0.25586 1.07244 0.60122
 C3815 C 0.29355 1.07547 0.58714
 C3816 C 0.31167 1.08854 0.58096
 C3817 C 0.31018 1.11153 0.58318
 C3818 C 0.29094 1.12140 0.59134
 H3819 H 0.25280 1.13604 0.60721
 H3820 H 0.25651 1.05467 0.59964
 H3821 H 0.29450 1.05773 0.58532
 H3822 H 0.29026 1.13917 0.59293
 H3823 H 0.22280 1.07193 0.61363
 H3824 H 0.32405 1.12190 0.57881
 C3825 C 0.26527 0.64063 1.12011
 C3826 C 0.24810 0.62625 1.12609
 C3827 C 0.24951 0.60399 1.11976
 C3828 C 0.26775 0.59622 1.10753
 C3829 C 0.28493 0.61084 1.10164
 C3830 C 0.28352 0.63300 1.10804
 C3831 C 0.30336 0.60298 1.08978
 C3832 C 0.30499 0.58061 1.08396
 C3833 C 0.28765 0.56630 1.08956
 C3834 C 0.26916 0.57405 1.10117
 H3835 H 0.23631 0.59275 1.12399
 H3836 H 0.29656 0.64442 1.10375
 H3837 H 0.31680 0.61406 1.08579
 H3838 H 0.25611 0.56263 1.10544
 H3839 H 0.26470 0.65781 1.12490
 H3840 H 0.28853 0.54903 1.08512
 C3841 C 0.73390 0.92066 0.89271
 C3842 C 0.73106 0.89774 0.89355
 C3843 C 0.74822 0.88441 0.90175
 C3844 C 0.76819 0.89379 0.90870
 C3845 C 0.77091 0.91689 0.90796
 C3846 C 0.75361 0.93020 0.90004
 C3847 C 0.79090 0.92625 0.91504
 C3848 C 0.80831 0.91277 0.92261
 C3849 C 0.80549 0.88979 0.92283
 C3850 C 0.78558 0.88040 0.91610
 H3851 H 0.74631 0.86667 0.90211
 H3852 H 0.75540 0.94792 0.89932
 H3853 H 0.79280 0.94399 0.91492
 H3854 H 0.78385 0.86266 0.91653
 H3855 H 0.72082 0.93123 0.88648
 H3856 H 0.81880 0.87898 0.92808
 C3857 C 0.75278 0.36403 0.40346
 C3858 C 0.73836 0.37987 0.39437
 C3859 C 0.74460 0.40212 0.39452
 C3860 C 0.76509 0.40846 0.40344
 C3861 C 0.77970 0.39233 0.41203
 C3862 C 0.77332 0.37018 0.41209
 C3863 C 0.80054 0.39856 0.42015
 C3864 C 0.80697 0.42079 0.42005
 C3865 C 0.79197 0.43675 0.41209
 C3866 C 0.77131 0.43064 0.40375
 H3867 H 0.73349 0.41449 0.38777
 H3868 H 0.78428 0.35759 0.41865
 H3869 H 0.81194 0.38601 0.42599
 H3870 H 0.76023 0.44326 0.39746
 H3871 H 0.74845 0.34676 0.40339
 H3872 H 0.79622 0.45405 0.41227
 C3873 C 0.25227 0.86998 0.39937
 C3874 C 0.23744 0.88508 0.38971
 C3875 C 0.24360 0.90724 0.38761
 C3876 C 0.26427 0.91434 0.39554
 C3877 C 0.27913 0.89895 0.40503
 C3878 C 0.27302 0.87681 0.40675
 C3879 C 0.29982 0.90592 0.41279
 C3880 C 0.30579 0.92826 0.41185
 C3881 C 0.29075 0.94349 0.40261
 C3882 C 0.27026 0.93657 0.39437
 H3883 H 0.23214 0.91899 0.38035
 H3884 H 0.28421 0.86480 0.41400
 H3885 H 0.31132 0.89385 0.41940
 H3886 H 0.25902 0.94865 0.38733
 H3887 H 0.24792 0.85278 0.40095
 H3888 H 0.29467 0.96085 0.40197
 C3889 C 0.26236 0.35851 0.88526
 C3890 C 0.24518 0.37304 0.87927
 C3891 C 0.24815 0.39579 0.88251
 C3892 C 0.26789 0.40386 0.89175
 C3893 C 0.28495 0.38904 0.89778
 C3894 C 0.28204 0.36642 0.89440
 C3895 C 0.30468 0.39708 0.90700
 C3896 C 0.30767 0.41980 0.91026
 C3897 C 0.29058 0.43440 0.90425
 C3898 C 0.27085 0.42651 0.89511
 H3899 H 0.23506 0.40723 0.87817
 H3900 H 0.29499 0.35483 0.89883
 H3901 H 0.31787 0.38569 0.91126
 H3902 H 0.25794 0.43812 0.89065
 H3903 H 0.26074 0.34095 0.88275
 H3904 H 0.29242 0.45196 0.90679
   
