data_POSCAR
  _audit_creation_date              2014-09-24
  _audit_creation_method            'ToBaCCo'
  _symmetry_space_group_name_H-M    'P1'
  _symmetry_Int_Tables_number       1
  _symmetry_cell_setting            triclinic
  loop_
  _symmetry_equiv_pos_as_xyz
 x,y,z
_cell_length_a 52.3248
_cell_length_b 49.4666
_cell_length_c 50.5810
_cell_angle_alpha 90.725700
_cell_angle_beta 90.525400
_cell_angle_gamma 90.595800
loop_
  _atom_site_label
  _atom_site_type_symbol
  _atom_site_fract_x
  _atom_site_fract_y
  _atom_site_fract_z
C1 C 0.35633 0.32069 0.35358
 C2 C 0.33412 0.32352 0.36869
 C3 C 0.31768 0.34474 0.36394
 C4 C 0.32315 0.36341 0.34408
 C5 C 0.34513 0.36060 0.32935
 C6 C 0.36172 0.33904 0.33394
 C7 C 0.37601 0.30242 0.35403
 N8 N 0.39298 0.30910 0.33497
 C9 C 0.38444 0.33149 0.32257
 C10 C 0.34628 0.38210 0.31251
 N11 N 0.32549 0.39778 0.31646
 C12 C 0.31107 0.38652 0.33566
 C13 C 0.29830 0.34303 0.38198
 N14 N 0.30247 0.32131 0.39749
 C15 C 0.32430 0.30916 0.38954
 H16 H 0.37781 0.28541 0.36716
 H17 H 0.39412 0.34165 0.30663
 H18 H 0.36134 0.38623 0.29854
 H19 H 0.29358 0.39490 0.34338
 H20 H 0.28246 0.35680 0.38392
 H21 H 0.33264 0.29154 0.39852
 C22 C 0.36783 0.80711 -0.17829
 C23 C 0.35260 0.80933 -0.15562
 C24 C 0.33454 0.82979 -0.15333
 C25 C 0.33188 0.84881 -0.17389
 C26 C 0.34711 0.84618 -0.19592
 C27 C 0.36476 0.82553 -0.19814
 C28 C 0.38698 0.78966 -0.18634
 N29 N 0.39516 0.79758 -0.21059
 C30 C 0.38156 0.81947 -0.21775
 C31 C 0.34175 0.86660 -0.21274
 N32 N 0.32350 0.88233 -0.20198
 C33 C 0.31708 0.87173 -0.17807
 C34 C 0.32276 0.82634 -0.12914
 N35 N 0.33342 0.80472 -0.11699
 C36 C 0.35163 0.79439 -0.13300
 H37 H 0.39439 0.77274 -0.17539
 H38 H 0.38384 0.83046 -0.23599
 H39 H 0.35081 0.86989 -0.23163
 H40 H 0.30303 0.88004 -0.16475
 H41 H 0.30783 0.83877 -0.12089
 H42 H 0.36331 0.77706 -0.12853
 C43 C 0.85656 0.31208 -0.13787
 C44 C 0.83766 0.31310 -0.11837
 C45 C 0.82470 0.33678 -0.11430
 C46 C 0.82981 0.35929 -0.12956
 C47 C 0.84728 0.35829 -0.14992
 C48 C 0.86145 0.33429 -0.15381
 C49 C 0.87252 0.29178 -0.14554
 N50 N 0.88755 0.30072 -0.16541
 C51 C 0.88069 0.32659 -0.17105
 C52 C 0.84442 0.38241 -0.16360
 N53 N 0.82596 0.39732 -0.15141
 C54 C 0.81749 0.38330 -0.13044
 C55 C 0.80504 0.33166 -0.09742
 N56 N 0.80546 0.30524 -0.09105
 C57 C 0.82563 0.29356 -0.10335
 H58 H 0.87353 0.27197 -0.13671
 H59 H 0.88950 0.33913 -0.18587
 H60 H 0.85411 0.38801 -0.18157
 H61 H 0.80194 0.38926 -0.11769
 H62 H 0.79018 0.34566 -0.09187
 H63 H 0.82966 0.27214 -0.10343
 C64 C 0.85874 0.81210 0.32889
 C65 C 0.84403 0.80393 0.35060
 C66 C 0.82267 0.81850 0.35731
 C67 C 0.81576 0.84116 0.34295
 C68 C 0.82995 0.84935 0.32158
 C69 C 0.85166 0.83457 0.31441
 C70 C 0.88056 0.80204 0.31759
 N71 N 0.88675 0.81767 0.29660
 C72 C 0.86920 0.83761 0.29455
 C73 C 0.81872 0.87260 0.31212
 N74 N 0.79834 0.87840 0.32766
 C75 C 0.79644 0.85914 0.34637
 C76 C 0.81181 0.80665 0.37883
 N77 N 0.82596 0.78502 0.38561
 C78 C 0.84585 0.78311 0.36855
 H79 H 0.89094 0.78448 0.32409
 H80 H 0.86916 0.85316 0.27967
 H81 H 0.82527 0.88465 0.29575
 H82 H 0.78223 0.85851 0.36180
 H83 H 0.79481 0.81343 0.38886
 H84 H 0.86041 0.76773 0.36911
 C85 C 0.63538 0.66403 0.34845
 C86 C 0.65525 0.65539 0.36493
 C87 C 0.67014 0.63380 0.35737
 C88 C 0.66559 0.62077 0.33308
 C89 C 0.64587 0.62905 0.31671
 C90 C 0.63050 0.65091 0.32454
 C91 C 0.61882 0.68532 0.35042
 N92 N 0.60380 0.68547 0.32845
 C93 C 0.61072 0.66451 0.31245
 C94 C 0.64703 0.61336 0.29397
 N95 N 0.66707 0.59622 0.29629
 C96 C 0.67845 0.60061 0.32014
 C97 C 0.68875 0.63073 0.37645
 N98 N 0.68556 0.65012 0.39526
 C99 C 0.66512 0.66530 0.38843
 H100 H 0.61796 0.69989 0.36654
 H101 H 0.60247 0.65993 0.29319
 H102 H 0.63473 0.61483 0.27673
 H103 H 0.69512 0.59017 0.32744
 H104 H 0.70407 0.61619 0.37617
 H105 H 0.65832 0.68269 0.39939
 C106 C 0.62711 0.14875 -0.15218
 C107 C 0.64706 0.13927 -0.13644
 C108 C 0.66209 0.11844 -0.14534
 C109 C 0.65700 0.10657 -0.17015
 C110 C 0.63734 0.11602 -0.18607
 C111 C 0.62220 0.13758 -0.17697
 C112 C 0.61150 0.17043 -0.14890
 N113 N 0.59706 0.17320 -0.17105
 C114 C 0.60329 0.15312 -0.18846
 C115 C 0.63849 0.10182 -0.20976
 N116 N 0.65819 0.08412 -0.20832
 C117 C 0.66951 0.08702 -0.18416
 C118 C 0.68194 0.11586 -0.12740
 N119 N 0.67914 0.13482 -0.10802
 C120 C 0.65773 0.14906 -0.11332
 H121 H 0.61140 0.18395 -0.13188
 H122 H 0.59547 0.15063 -0.20824
 H123 H 0.62628 0.10457 -0.22690
 H124 H 0.68613 0.07621 -0.17731
 H125 H 0.69799 0.10234 -0.12914
 H126 H 0.65119 0.16638 -0.10209
 C127 C 0.13906 0.68090 -0.14947
 C128 C 0.16109 0.67611 -0.13425
 C129 C 0.17541 0.65315 -0.13898
 C130 C 0.16794 0.63475 -0.15904
 C131 C 0.14591 0.63926 -0.17351
 C132 C 0.13153 0.66241 -0.16880
 C133 C 0.12246 0.70232 -0.15089
 N134 N 0.10531 0.69715 -0.17073
 C135 C 0.11065 0.67267 -0.18163
 C136 C 0.14374 0.61921 -0.19238
 N137 N 0.16424 0.60282 -0.19020
 C138 C 0.17916 0.61204 -0.16975
 C139 C 0.19578 0.65393 -0.12161
 N140 N 0.19417 0.67670 -0.10648
 C141 C 0.17313 0.69052 -0.11417
 H142 H 0.12333 0.72067 -0.13898
 H143 H 0.10074 0.66333 -0.19830
 H144 H 0.12895 0.61747 -0.20745
 H145 H 0.19714 0.60339 -0.16357
 H146 H 0.21067 0.63899 -0.12000
 H147 H 0.16689 0.70948 -0.10562
 C148 C 0.13998 0.19767 0.33806
 C149 C 0.15666 0.19030 0.35866
 C150 C 0.17048 0.16660 0.35643
 C151 C 0.16822 0.15028 0.33359
 C152 C 0.15151 0.15744 0.31368
 C153 C 0.13742 0.18115 0.31590
 C154 C 0.12336 0.21885 0.33473
 N155 N 0.11088 0.21529 0.31119
 C156 C 0.11946 0.19229 0.29957
 C157 C 0.15248 0.13783 0.29427
 N158 N 0.16986 0.11914 0.30159
 C159 C 0.17960 0.12650 0.32570
 C160 C 0.18352 0.16339 0.37982
 N161 N 0.17823 0.18454 0.39614
 C162 C 0.16199 0.20131 0.38340
 H163 H 0.12020 0.23530 0.34861
 H164 H 0.11296 0.18399 0.28075
 H165 H 0.14171 0.13753 0.27588
 H166 H 0.19380 0.11543 0.33672
 H167 H 0.19556 0.14651 0.38489
 H168 H 0.15383 0.21942 0.39191
 C169 C 0.65314 0.31303 0.67268
 C170 C 0.67058 0.30699 0.65292
 C171 C 0.69313 0.32135 0.65126
 C172 C 0.69865 0.34190 0.66981
 C173 C 0.68134 0.34829 0.68961
 C174 C 0.65800 0.33351 0.69107
 C175 C 0.62911 0.30317 0.67662
 N176 N 0.61860 0.31677 0.69704
 C177 C 0.63601 0.33540 0.70635
 C178 C 0.69210 0.36986 0.70382
 N179 N 0.71524 0.37611 0.69312
 C180 C 0.71919 0.35914 0.67238
 C181 C 0.70553 0.31199 0.62903
 N182 N 0.69079 0.29228 0.61751
 C183 C 0.66944 0.28905 0.63205
 H184 H 0.61941 0.28782 0.66467
 H185 H 0.63243 0.35011 0.72185
 H186 H 0.68377 0.38011 0.72065
 H187 H 0.73587 0.35942 0.65986
 H188 H 0.72369 0.31919 0.62166
 H189 H 0.65394 0.27505 0.62741
 C190 C 0.63214 0.82792 1.16590
 C191 C 0.65143 0.83605 1.14887
 C192 C 0.66617 0.85891 1.15442
 C193 C 0.66150 0.87397 1.17782
 C194 C 0.64210 0.86577 1.19456
 C195 C 0.62736 0.84271 1.18851
 C196 C 0.61467 0.80704 1.16449
 N197 N 0.59927 0.80887 1.18581
 C198 C 0.60685 0.83069 1.20065
 C199 C 0.64123 0.88384 1.21531
 N200 N 0.65969 0.90285 1.21201
 C201 C 0.67218 0.89716 1.18909
 C202 C 0.68183 0.86260 1.13269
 N203 N 0.67640 0.84262 1.11466
 C204 C 0.65797 0.82643 1.12449
 H205 H 0.61310 0.79181 1.14896
 H206 H 0.59813 0.83744 1.21886
 H207 H 0.62829 0.88301 1.23188
 H208 H 0.68794 0.90886 1.18132
 H209 H 0.69480 0.87940 1.12950
 H210 H 0.64896 0.80963 1.11393
 C211 C 0.12961 0.34457 1.12936
 C212 C 0.15093 0.34961 1.11345
 C213 C 0.16852 0.36930 1.12102
 C214 C 0.16551 0.38356 1.14475
 C215 C 0.14481 0.37826 1.16076
 C216 C 0.12658 0.35868 1.15295
 C217 C 0.11017 0.32578 1.12758
 N218 N 0.09553 0.32789 1.14955
 C219 C 0.10542 0.34796 1.16527
 C220 C 0.14835 0.39333 1.18361
 N221 N 0.17068 0.40735 1.18165
 C222 C 0.18126 0.40155 1.15794
 C223 C 0.18827 0.36855 1.10341
 N224 N 0.18339 0.34851 1.08555
 C225 C 0.16059 0.33675 1.09140
 H226 H 0.10743 0.31097 1.11182
 H227 H 0.09823 0.35389 1.18446
 H228 H 0.13608 0.39338 1.20073
 H229 H 0.19950 0.40911 1.15115
 H230 H 0.20568 0.38056 1.10444
 H231 H 0.15221 0.31949 1.08105
 C232 C 0.13161 0.83007 0.65128
 C233 C 0.15179 0.83766 0.63487
 C234 C 0.16715 0.85963 0.64162
 C235 C 0.16269 0.87410 0.66515
 C236 C 0.14290 0.86645 0.68155
 C237 C 0.12709 0.84437 0.67444
 C238 C 0.11436 0.80896 0.64998
 N239 N 0.09937 0.81013 0.67167
 C240 C 0.10698 0.83169 0.68681
 C241 C 0.14429 0.88287 0.70376
 N242 N 0.16441 0.90023 0.70118
 C243 C 0.17565 0.89508 0.67753
 C244 C 0.18582 0.86150 0.62266
 N245 N 0.18216 0.84109 0.60479
 C246 C 0.16139 0.82641 0.61208
 H247 H 0.11305 0.79359 0.63458
 H248 H 0.09891 0.83736 0.70568
 H249 H 0.13199 0.88177 0.72082
 H250 H 0.19255 0.90516 0.67017
 H251 H 0.20133 0.87614 0.62229
 H252 H 0.15404 0.80860 0.60181
 C253 C 0.36405 0.66517 0.63867
 C254 C 0.34618 0.67603 0.62089
 C255 C 0.32207 0.66437 0.61853
 C256 C 0.31531 0.64208 0.63373
 C257 C 0.33275 0.63147 0.65126
 C258 C 0.35732 0.64286 0.65351
 C259 C 0.38874 0.67238 0.64597
 N260 N 0.39695 0.65475 0.66452
 C261 C 0.37791 0.63668 0.66916
 C262 C 0.32058 0.61085 0.66430
 N263 N 0.29623 0.60873 0.65490
 C264 C 0.29285 0.62763 0.63607
 C265 C 0.30850 0.67890 0.60050
 N266 N 0.32364 0.69917 0.59161
 C267 C 0.34678 0.69769 0.60392
 H268 H 0.39980 0.68921 0.63852
 H269 H 0.37878 0.62054 0.68339
 H270 H 0.32875 0.59850 0.67967
 H271 H 0.27517 0.63106 0.62540
 H272 H 0.28893 0.67497 0.59436
 H273 H 0.36273 0.71136 0.60083
 C274 C 0.36617 0.18042 1.16411
 C275 C 0.35000 0.18684 1.14283
 C276 C 0.32875 0.17079 1.13725
 C277 C 0.32338 0.14820 1.15275
 C278 C 0.33912 0.14209 1.17387
 C279 C 0.36074 0.15813 1.17945
 C280 C 0.38799 0.19241 1.17450
 N281 N 0.39587 0.17776 1.19555
 C282 C 0.37935 0.15678 1.19871
 C283 C 0.32873 0.11992 1.18609
 N284 N 0.30717 0.11230 1.17266
 C285 C 0.30384 0.12939 1.15213
 C286 C 0.31617 0.18202 1.11618
 N287 N 0.32926 0.20446 1.10876
 C288 C 0.35003 0.20757 1.12486
 H289 H 0.39741 0.21040 1.16727
 H290 H 0.38068 0.14179 1.21406
 H291 H 0.33631 0.11017 1.20348
 H292 H 0.28805 0.12858 1.13815
 H293 H 0.29868 0.17446 1.10704
 H294 H 0.36393 0.22388 1.12376
 C295 C 0.86132 0.67988 1.14987
 C296 C 0.84399 0.68900 1.13079
 C297 C 0.82230 0.67389 1.12434
 C298 C 0.81777 0.64914 1.13715
 C299 C 0.83491 0.64040 1.15622
 C300 C 0.85677 0.65583 1.16260
 C301 C 0.88329 0.69109 1.16068
 N302 N 0.89208 0.67441 1.17975
 C303 C 0.87599 0.65278 1.18109
 C304 C 0.82545 0.61670 1.16623
 N305 N 0.80304 0.61054 1.15374
 C306 C 0.79814 0.63019 1.13586
 C307 C 0.80863 0.68866 1.10604
 N308 N 0.82158 0.71215 1.10155
 C309 C 0.84317 0.71240 1.11657
 H310 H 0.89180 0.71033 1.15554
 H311 H 0.87784 0.63634 1.19489
 H312 H 0.83421 0.60488 1.18166
 H313 H 0.78132 0.63092 1.12328
 H314 H 0.79042 0.68302 1.09715
 H315 H 0.85710 0.72874 1.11746
 C316 C 0.88100 0.16488 0.65322
 C317 C 0.86242 0.17076 0.63406
 C318 C 0.84038 0.15495 0.63155
 C319 C 0.83670 0.13286 0.64864
 C320 C 0.85566 0.12680 0.66687
 C321 C 0.87780 0.14264 0.66900
 C322 C 0.90197 0.17912 0.66301
 N323 N 0.91138 0.16574 0.68426
 C324 C 0.89689 0.14323 0.68775
 C325 C 0.84608 0.10803 0.68378
 N326 N 0.82164 0.10227 0.67675
 C327 C 0.81556 0.11709 0.65511
 C328 C 0.82529 0.16693 0.61242
 N329 N 0.83781 0.18923 0.60345
 C330 C 0.86029 0.19180 0.61681
 H331 H 0.90892 0.19843 0.65605
 H332 H 0.89887 0.12936 0.70404
 H333 H 0.85541 0.10097 0.70158
 H334 H 0.79658 0.11849 0.64659
 H335 H 0.80650 0.16021 0.60587
 H336 H 0.87409 0.20800 0.61428
 C337 C 0.32904 0.36429 0.65938
 C338 C 0.33020 0.34002 0.64454
 C339 C 0.35032 0.32230 0.64874
 C340 C 0.36935 0.32834 0.66782
 C341 C 0.36806 0.35229 0.68190
 C342 C 0.34816 0.37013 0.67767
 C343 C 0.31310 0.38654 0.65914
 N344 N 0.32276 0.40526 0.67659
 C345 C 0.34410 0.39533 0.68785
 C346 C 0.38926 0.35445 0.69771
 N347 N 0.40366 0.33223 0.69403
 C348 C 0.39178 0.31590 0.67575
 C349 C 0.34804 0.30203 0.63008
 N350 N 0.32722 0.30679 0.61467
 C351 C 0.31602 0.32986 0.62339
 H352 H 0.29642 0.38930 0.64670
 H353 H 0.35605 0.40594 0.70227
 H354 H 0.39403 0.37122 0.71089
 H355 H 0.39916 0.29691 0.66837
 H356 H 0.36123 0.28555 0.62720
 H357 H 0.29969 0.33928 0.61416
 C358 C 0.33250 0.87442 0.16591
 C359 C 0.32866 0.85843 0.14315
 C360 C 0.34342 0.83578 0.13888
 C361 C 0.36254 0.82908 0.15731
 C362 C 0.36661 0.84514 0.17963
 C363 C 0.35140 0.86794 0.18399
 C364 C 0.31987 0.89653 0.17576
 N365 N 0.33067 0.90366 0.19935
 C366 C 0.35005 0.88642 0.20452
 C367 C 0.38576 0.83341 0.19431
 N368 N 0.39327 0.81062 0.18148
 C369 C 0.37920 0.80780 0.15889
 C370 C 0.33476 0.82375 0.11566
 N371 N 0.31533 0.83876 0.10582
 C372 C 0.31150 0.85998 0.12251
 H373 H 0.30376 0.90644 0.16661
 H374 H 0.36182 0.88687 0.22224
 H375 H 0.39321 0.84057 0.21319
 H376 H 0.38072 0.79123 0.14481
 H377 H 0.34204 0.80546 0.10663
 H378 H 0.29703 0.87524 0.11996
 C379 C 0.82109 0.35177 0.14843
 C380 C 0.81334 0.33172 0.13010
 C381 C 0.82860 0.30949 0.12563
 C382 C 0.85168 0.30685 0.13952
 C383 C 0.85936 0.32654 0.15767
 C384 C 0.84400 0.34927 0.16208
 C385 C 0.80991 0.37532 0.15709
 N386 N 0.82549 0.38721 0.17555
 C387 C 0.84638 0.37145 0.17874
 C388 C 0.88204 0.31810 0.16872
 N389 N 0.88816 0.29384 0.15768
 C390 C 0.86975 0.28686 0.13976
 C391 C 0.81629 0.29317 0.10725
 N392 N 0.79389 0.30493 0.10050
 C393 C 0.79187 0.32848 0.11437
 H394 H 0.79173 0.38314 0.15049
 H395 H 0.86201 0.37567 0.19240
 H396 H 0.89305 0.32866 0.18392
 H397 H 0.86932 0.26835 0.12810
 H398 H 0.82302 0.27402 0.09960
 H399 H 0.77590 0.34217 0.11317
 C400 C 0.83771 0.86195 0.64675
 C401 C 0.83297 0.84412 0.62557
 C402 C 0.84651 0.82038 0.62339
 C403 C 0.86526 0.81433 0.64229
 C404 C 0.87015 0.83203 0.66322
 C405 C 0.85614 0.85602 0.66554
 C406 C 0.82555 0.88499 0.65495
 N407 N 0.83601 0.89322 0.67835
 C408 C 0.85485 0.87576 0.68496
 C409 C 0.88847 0.82028 0.67898
 N410 N 0.89467 0.79602 0.66804
 C411 C 0.88052 0.79218 0.64569
 C412 C 0.83647 0.80609 0.60212
 N413 N 0.81725 0.82074 0.59146
 C414 C 0.81501 0.84403 0.60560
 H415 H 0.80948 0.89434 0.64518
 H416 H 0.86589 0.87661 0.70316
 H417 H 0.89638 0.82859 0.69722
 H418 H 0.88114 0.77444 0.63296
 H419 H 0.84228 0.78626 0.59535
 H420 H 0.80077 0.85935 0.60215
 C421 C 0.68652 0.62074 0.64927
 C422 C 0.67966 0.64221 0.63302
 C423 C 0.65727 0.65614 0.63752
 C424 C 0.64142 0.64863 0.65858
 C425 C 0.64827 0.62734 0.67461
 C426 C 0.67094 0.61334 0.66993
 C427 C 0.70785 0.60479 0.65029
 N428 N 0.70559 0.58798 0.67112
 C429 C 0.68305 0.59297 0.68324
 C430 C 0.63018 0.62520 0.69403
 N431 N 0.61251 0.64466 0.69027
 C432 C 0.61916 0.65911 0.66865
 C433 C 0.65618 0.67648 0.61911
 N434 N 0.67736 0.67509 0.60380
 C435 C 0.69180 0.65422 0.61222
 H436 H 0.72420 0.60590 0.63736
 H437 H 0.67631 0.58314 0.70089
 H438 H 0.63013 0.61088 0.71004
 H439 H 0.60886 0.67626 0.66106
 H440 H 0.64129 0.69138 0.61720
 H441 H 0.70993 0.64827 0.60396
 C442 C 0.66337 0.12788 0.17620
 C443 C 0.66492 0.13724 0.15035
 C444 C 0.64863 0.15720 0.14159
 C445 C 0.63009 0.16774 0.15877
 C446 C 0.62855 0.15827 0.18437
 C447 C 0.64542 0.13842 0.19317
 C448 C 0.67827 0.11035 0.19034
 N449 N 0.66980 0.11018 0.21556
 C450 C 0.64971 0.12721 0.21751
 C451 C 0.60973 0.17250 0.19697
 N452 N 0.59964 0.19037 0.17973
 C453 C 0.61203 0.18775 0.15633
 C454 C 0.65651 0.16399 0.11653
 N455 N 0.67706 0.14861 0.11027
 C456 C 0.68215 0.13213 0.13076
 H457 H 0.69458 0.09932 0.18308
 H458 H 0.63943 0.13164 0.23551
 H459 H 0.60395 0.17011 0.21731
 H460 H 0.60825 0.19960 0.13890
 H461 H 0.64867 0.17978 0.10436
 H462 H 0.69813 0.11844 0.13188
 C463 C 0.18368 0.65285 0.15107
 C464 C 0.17853 0.67446 0.13421
 C465 C 0.15714 0.69019 0.13821
 C466 C 0.14063 0.68445 0.15927
 C467 C 0.14598 0.66318 0.17595
 C468 C 0.16764 0.64732 0.17192
 C469 C 0.20235 0.63353 0.15112
 N470 N 0.19811 0.61655 0.17154
 C471 C 0.17698 0.62485 0.18454
 C472 C 0.12691 0.66203 0.19433
 N473 N 0.11006 0.68202 0.18938
 C474 C 0.11821 0.69591 0.16797
 C475 C 0.15700 0.70947 0.11872
 N476 N 0.17780 0.70584 0.10321
 C477 C 0.19104 0.68444 0.11251
 H478 H 0.21765 0.63162 0.13697
 H479 H 0.16855 0.61475 0.20125
 H480 H 0.12540 0.64768 0.21025
 H481 H 0.10863 0.71305 0.15942
 H482 H 0.14288 0.72508 0.11610
 H483 H 0.20849 0.67667 0.10414
 C484 C 0.17397 0.14267 0.68072
 C485 C 0.17851 0.15653 0.65730
 C486 C 0.16324 0.17796 0.65025
 C487 C 0.14290 0.18560 0.66665
 C488 C 0.13844 0.17185 0.68994
 C489 C 0.15420 0.15022 0.69710
 C490 C 0.18625 0.12144 0.69228
 N491 N 0.17456 0.11582 0.71541
 C492 C 0.15492 0.13330 0.71863
 C493 C 0.11756 0.18356 0.70172
 N494 N 0.10921 0.20391 0.68615
 C495 C 0.12460 0.20535 0.66472
 C496 C 0.17276 0.18789 0.62688
 N497 N 0.19332 0.17289 0.61983
 C498 C 0.19686 0.15364 0.63827
 H499 H 0.20271 0.11107 0.68449
 H500 H 0.14219 0.13371 0.73539
 H501 H 0.10897 0.17749 0.72012
 H502 H 0.12253 0.21961 0.64881
 H503 H 0.16546 0.20491 0.61602
 H504 H 0.21202 0.13890 0.63809
 C505 C 0.33027 0.63778 0.34570
 C506 C 0.32229 0.65514 0.36617
 C507 C 0.33775 0.67672 0.37419
 C508 C 0.36147 0.68097 0.36212
 C509 C 0.36931 0.66353 0.34231
 C510 C 0.35368 0.64204 0.33397
 C511 C 0.31833 0.61708 0.33174
 N512 N 0.33400 0.60905 0.31187
 C513 C 0.35568 0.62413 0.31317
 C514 C 0.39165 0.67352 0.33238
 N515 N 0.39761 0.69682 0.34548
 C516 C 0.37938 0.70157 0.36385
 C517 C 0.32462 0.69108 0.39306
 N518 N 0.30175 0.67861 0.39689
 C519 C 0.30010 0.65667 0.38053
 H520 H 0.29924 0.60931 0.33509
 H521 H 0.37130 0.62291 0.29932
 H522 H 0.40201 0.66516 0.31583
 H523 H 0.37850 0.71938 0.37646
 H524 H 0.33125 0.70925 0.40324
 H525 H 0.28382 0.64304 0.37897
 C526 C 0.34075 0.13110 0.84975
 C527 C 0.33645 0.14659 0.87252
 C528 C 0.35092 0.16958 0.87753
 C529 C 0.37017 0.17717 0.85999
 C530 C 0.37462 0.16195 0.83732
 C531 C 0.35953 0.13863 0.83205
 C532 C 0.32781 0.10923 0.83920
 N533 N 0.33800 0.10312 0.81538
 C534 C 0.35747 0.12088 0.81077
 C535 C 0.39385 0.17517 0.82373
 N536 N 0.40092 0.19773 0.83780
 C537 C 0.38642 0.19906 0.85984
 C538 C 0.34091 0.18203 0.89954
 N539 N 0.32073 0.16704 0.90788
 C540 C 0.31795 0.14522 0.89160
 H541 H 0.31145 0.09922 0.84781
 H542 H 0.36862 0.12148 0.79285
 H543 H 0.40190 0.16897 0.80500
 H544 H 0.38754 0.21499 0.87470
 H545 H 0.34721 0.20111 0.90819
 H546 H 0.30277 0.13025 0.89276
 C547 C 0.82541 0.65498 0.85978
 C548 C 0.82775 0.67664 0.87805
 C549 C 0.85055 0.69069 0.87972
 C550 C 0.87080 0.68412 0.86338
 C551 C 0.86858 0.66365 0.84465
 C552 C 0.84561 0.64839 0.84316
 C553 C 0.80562 0.63749 0.85373
 N554 N 0.81312 0.62017 0.83432
 C555 C 0.83747 0.62675 0.82750
 C556 C 0.89083 0.66475 0.82978
 N557 N 0.90593 0.68516 0.83974
 C558 C 0.89377 0.69676 0.86030
 C559 C 0.84748 0.71218 0.89650
 N560 N 0.82319 0.71201 0.90533
 C561 C 0.81078 0.69014 0.89448
 H562 H 0.78709 0.63716 0.86309
 H563 H 0.84847 0.61648 0.81247
 H564 H 0.89528 0.65237 0.81268
 H565 H 0.90062 0.71428 0.87143
 H566 H 0.86157 0.72787 0.90079
 H567 H 0.79066 0.68557 0.89682
 C568 C 0.83914 0.14464 0.34577
 C569 C 0.83922 0.16990 0.35880
 C570 C 0.85825 0.18882 0.35357
 C571 C 0.87755 0.18278 0.33547
 C572 C 0.87781 0.15764 0.32331
 C573 C 0.85860 0.13859 0.32842
 C574 C 0.82318 0.12217 0.34651
 N575 N 0.83283 0.10288 0.33016
 C576 C 0.85453 0.11272 0.31924
 C577 C 0.89930 0.15653 0.30805
 N578 N 0.91198 0.18049 0.31037
 C579 C 0.89888 0.19684 0.32706
 C580 C 0.85457 0.21061 0.37011
 N581 N 0.83404 0.20535 0.38543
 C582 C 0.82437 0.18062 0.37859
 H583 H 0.80597 0.11999 0.35804
 H584 H 0.86630 0.10192 0.30522
 H585 H 0.90543 0.13943 0.29622
 H586 H 0.90480 0.21702 0.33316
 H587 H 0.86659 0.22853 0.37167
 H588 H 0.80831 0.17076 0.38792
 C589 C 0.68491 0.36309 0.34584
 C590 C 0.67990 0.34195 0.36353
 C591 C 0.65746 0.32696 0.36092
 C592 C 0.63968 0.33298 0.34098
 C593 C 0.64454 0.35393 0.32388
 C594 C 0.66732 0.36886 0.32614
 C595 C 0.70534 0.38059 0.34267
 N596 N 0.70050 0.39647 0.32149
 C597 C 0.67729 0.38945 0.31130
 C598 C 0.62427 0.35516 0.30649
 N599 N 0.60730 0.33532 0.31250
 C600 C 0.61653 0.32155 0.33353
 C601 C 0.65796 0.30726 0.37981
 N602 N 0.68003 0.30984 0.39395
 C603 C 0.69362 0.33102 0.38422
 H604 H 0.72261 0.38144 0.35462
 H605 H 0.66833 0.39855 0.29426
 H606 H 0.62217 0.36920 0.29038
 H607 H 0.60713 0.30452 0.34269
 H608 H 0.64344 0.29187 0.38283
 H609 H 0.71231 0.33758 0.39123
 C610 C 0.66905 0.85223 0.82139
 C611 C 0.66808 0.84242 0.84743
 C612 C 0.64859 0.82481 0.85419
 C613 C 0.63044 0.81624 0.83546
 C614 C 0.63153 0.82521 0.80980
 C615 C 0.65094 0.84350 0.80276
 C616 C 0.68437 0.87114 0.80917
 N617 N 0.67597 0.87393 0.78384
 C618 C 0.65572 0.85700 0.77974
 C619 C 0.61105 0.81345 0.79626
 N620 N 0.59784 0.79778 0.81343
 C621 C 0.60958 0.79951 0.83738
 C622 C 0.65110 0.81926 0.88047
 N623 N 0.67191 0.83263 0.89014
 C624 C 0.68264 0.84692 0.87019
 H625 H 0.70002 0.88247 0.81823
 H626 H 0.64470 0.85532 0.76156
 H627 H 0.60604 0.81624 0.77567
 H628 H 0.60337 0.78920 0.85500
 H629 H 0.63868 0.80628 0.89185
 H630 H 0.69933 0.85991 0.87222
 C631 C 0.17755 0.36290 0.84562
 C632 C 0.17282 0.34100 0.86227
 C633 C 0.14958 0.32742 0.86089
 C634 C 0.13070 0.33567 0.84296
 C635 C 0.13532 0.35739 0.82666
 C636 C 0.15895 0.37093 0.82784
 C637 C 0.19859 0.37931 0.84204
 N638 N 0.19320 0.39685 0.82239
 C639 C 0.16901 0.39190 0.81358
 C640 C 0.11407 0.36040 0.81081
 N641 N 0.09682 0.34088 0.81695
 C642 C 0.10677 0.32565 0.83660
 C643 C 0.15049 0.30683 0.87889
 N644 N 0.17367 0.30767 0.89115
 C645 C 0.18750 0.32846 0.88111
 H646 H 0.21663 0.37833 0.85263
 H647 H 0.15946 0.40270 0.79792
 H648 H 0.11167 0.37511 0.79533
 H649 H 0.09752 0.30825 0.84525
 H650 H 0.13540 0.29234 0.88284
 H651 H 0.20677 0.33407 0.88704
 C652 C 0.16065 0.87553 0.35283
 C653 C 0.15422 0.85406 0.36924
 C654 C 0.13394 0.83703 0.36274
 C655 C 0.11978 0.84139 0.33950
 C656 C 0.12628 0.86259 0.32311
 C657 C 0.14695 0.87976 0.32979
 C658 C 0.18036 0.89405 0.35384
 N659 N 0.17911 0.90939 0.33189
 C660 C 0.15877 0.90086 0.31697
 C661 C 0.11036 0.86094 0.30133
 N662 N 0.09444 0.83934 0.30412
 C663 C 0.10005 0.82723 0.32738
 C664 C 0.13356 0.81680 0.38125
 N665 N 0.15328 0.82121 0.39846
 C666 C 0.16590 0.84400 0.39133
 H667 H 0.19499 0.89577 0.36907
 H668 H 0.15325 0.90904 0.29804
 H669 H 0.11072 0.87410 0.28440
 H670 H 0.09089 0.80911 0.33466
 H671 H 0.12070 0.79952 0.38147
 H672 H 0.18291 0.85217 0.40094
 O673 O 0.23636 1.04312 0.27665
 O674 O 0.28549 0.99360 0.25932
 O675 O 0.27266 1.04102 0.24179
 O676 O 0.24730 0.99466 0.29190
 O677 O 0.22118 0.97670 0.26180
 O678 O 0.24634 1.02287 0.21197
 O679 O 0.25966 0.97553 0.22901
 O680 O 0.21039 1.02530 0.24631
 Cu681 Cu 0.26312 1.01988 0.27041
 Cu682 Cu 0.23181 0.99811 0.23431
 C683 C 0.21512 1.04282 0.26434
 C684 C 0.28103 0.97617 0.24123
 C685 C 0.26351 1.04003 0.21840
 C686 C 0.22973 0.97791 0.28534
 O687 O 0.23228 0.52333 0.70051
 O688 O 0.21881 0.47028 0.74932
 O689 O 0.20068 0.51811 0.73966
 O690 O 0.24841 0.47453 0.70808
 O691 O 0.27823 0.49337 0.73370
 O692 O 0.23015 0.53471 0.76706
 O693 O 0.24949 0.48701 0.77516
 O694 O 0.26136 0.54096 0.72781
 Cu695 Cu 0.22195 0.49476 0.72182
 Cu696 Cu 0.25770 0.51564 0.75380
 C697 C 0.24948 0.54097 0.70584
 C698 C 0.23206 0.46958 0.77050
 C699 C 0.20721 0.53379 0.75864
 C700 C 0.27166 0.47729 0.71502
 O701 O 0.77504 0.02017 0.27864
 O702 O 0.72317 -0.02082 0.25067
 O703 O 0.73082 0.03105 0.25516
 O704 O 0.76141 -0.03090 0.28192
 O705 O 0.74007 -0.02383 0.31879
 O706 O 0.71054 0.03593 0.29298
 O707 O 0.70149 -0.01604 0.28766
 O708 O 0.75428 0.02677 0.31593
 Cu709 Cu 0.74991 -0.00039 0.26305
 Cu710 Cu 0.72454 0.00633 0.30734
 C711 C 0.77402 0.03018 0.30173
 C712 C 0.70372 -0.02607 0.26441
 C713 C 0.71504 0.04370 0.26982
 C714 C 0.75512 -0.03798 0.30516
 O715 O 0.79604 0.52852 0.77328
 O716 O 0.78020 0.46667 0.73326
 O717 O 0.77932 0.51879 0.72505
 O718 O 0.80405 0.47610 0.77816
 O719 O 0.76561 0.47553 0.79581
 O720 O 0.74052 0.51683 0.74180
 O721 O 0.74189 0.46501 0.75112
 O722 O 0.75700 0.52647 0.78937
 Cu723 Cu 0.79371 0.49763 0.75070
 Cu724 Cu 0.74751 0.49572 0.77122
 C725 C 0.77863 0.53810 0.78810
 C726 C 0.75831 0.45535 0.73550
 C727 C 0.75592 0.52510 0.72427
 C728 C 0.78897 0.46865 0.79615
 O729 O 0.29482 0.52570 0.23697
 O730 O 0.24670 0.47370 0.21664
 O731 O 0.25771 0.52248 0.20216
 O732 O 0.29048 0.47394 0.24229
 O733 O 0.26758 0.48449 0.27732
 O734 O 0.23372 0.53547 0.23557
 O735 O 0.22342 0.48545 0.25100
 O736 O 0.27019 0.53625 0.27072
 Cu737 Cu 0.27464 0.49782 0.22127
 Cu738 Cu 0.24619 0.51120 0.26178
 C739 C 0.29047 0.53969 0.25778
 C740 C 0.22664 0.47104 0.23057
 C741 C 0.24078 0.53775 0.21153
 C742 C 0.28577 0.47141 0.26655
 O743 O 0.71801 0.95955 0.71643
 O744 O 0.75587 1.02008 0.69946
 O745 O 0.76480 0.96804 0.70075
 O746 O 0.71024 1.01187 0.71839
 O747 O 0.72450 1.01284 0.75962
 O748 O 0.77931 0.97149 0.74180
 O749 O 0.76908 1.02294 0.74100
 O750 O 0.73291 0.96119 0.75741
 Cu751 Cu 0.73579 0.98953 0.70461
 Cu752 Cu 0.75293 0.99230 0.75401
 C753 C 0.71905 0.94996 0.73958
 C754 C 0.76859 1.03212 0.71763
 C755 C 0.78137 0.96243 0.71839
 C756 C 0.70836 1.01996 0.74227
 O757 O 0.73948 0.53095 0.25629
 O758 O 0.78931 0.48425 0.23241
 O759 O 0.77484 0.53319 0.22016
 O760 O 0.75757 0.48474 0.27133
 O761 O 0.72882 0.46584 0.24453
 O762 O 0.74679 0.51466 0.19239
 O763 O 0.76097 0.46537 0.20516
 O764 O 0.71173 0.51226 0.22824
 Cu765 Cu 0.76811 0.51025 0.24763
 Cu766 Cu 0.73440 0.48757 0.21479
 C767 C 0.71709 0.52953 0.24621
 C768 C 0.78336 0.46646 0.21498
 C769 C 0.76377 0.53257 0.19776
 C770 C 0.74034 0.46705 0.26684
 O771 O 0.28040 0.02577 0.74848
 O772 O 0.22896 -0.02208 0.73090
 O773 O 0.23226 0.03023 0.73657
 O774 O 0.27542 -0.02632 0.74796
 O775 O 0.26371 -0.02866 0.78970
 O776 O 0.22031 0.02881 0.77828
 O777 O 0.21671 -0.02379 0.77252
 O778 O 0.26899 0.02450 0.79037
 Cu779 Cu 0.25538 0.00204 0.73687
 Cu780 Cu 0.24127 0.00014 0.78694
 C781 C 0.28358 0.03335 0.77230
 C782 C 0.21423 -0.03132 0.74846
 C783 C 0.21887 0.03923 0.75551
 C784 C 0.27689 -0.03731 0.77049
 O785 O 0.24320 0.27709 0.96359
 O786 O 0.28961 0.26334 1.01693
 O787 O 0.28003 0.24257 0.97037
 O788 O 0.25313 0.29790 1.00981
 O789 O 0.22538 0.26941 1.02719
 O790 O 0.25253 0.21380 0.98772
 O791 O 0.26214 0.23454 1.03427
 O792 O 0.21590 0.24817 0.98104
 Cu793 Cu 0.26928 0.27307 0.98838
 Cu794 Cu 0.23627 0.23859 1.00942
 C795 C 0.22158 0.26514 0.96337
 C796 C 0.28378 0.24642 1.03461
 C797 C 0.27093 0.21880 0.97228
 C798 C 0.23451 0.29318 1.02501
 O799 O 0.23613 0.72224 0.48053
 O800 O 0.21517 0.77226 0.53008
 O801 O 0.19961 0.75714 0.48313
 O802 O 0.25196 0.73727 0.52736
 O803 O 0.27767 0.76801 0.51030
 O804 O 0.22514 0.78796 0.46594
 O805 O 0.24100 0.80291 0.51305
 O806 O 0.26213 0.75274 0.46354
 Cu807 Cu 0.22319 0.74416 0.50709
 Cu808 Cu 0.25395 0.78105 0.48635
 C809 C 0.25282 0.72891 0.46369
 C810 C 0.22455 0.79605 0.53009
 C811 C 0.20355 0.77602 0.46690
 C812 C 0.27364 0.74902 0.52641
 O813 O 0.29388 0.75627 -0.01972
 O814 O 0.24536 0.73548 0.02869
 O815 O 0.25799 0.71972 -0.01885
 O816 O 0.28287 0.77044 0.02879
 O817 O 0.25668 0.80071 0.01223
 O818 O 0.23113 0.74952 -0.03509
 O819 O 0.21904 0.76585 0.01254
 O820 O 0.26737 0.78604 -0.03660
 Cu821 Cu 0.27269 0.74253 0.00634
 Cu822 Cu 0.24093 0.77858 -0.01334
 C823 C 0.28885 0.77431 -0.03664
 C824 C 0.22392 0.74733 0.02896
 C825 C 0.24046 0.72589 -0.03512
 C826 C 0.27389 0.79417 0.02880
 O827 O 0.27504 0.25181 0.47503
 O828 O 0.25534 0.20541 0.52838
 O829 O 0.24525 0.20927 0.47843
 O830 O 0.28981 0.24309 0.52358
 O831 O 0.25996 0.27100 0.53738
 O832 O 0.21474 0.23794 0.48880
 O833 O 0.22463 0.23362 0.53931
 O834 O 0.24535 0.28022 0.48820
 Cu835 Cu 0.26935 0.22471 0.50012
 Cu836 Cu 0.23326 0.25864 0.51446
 C837 C 0.26329 0.27410 0.47269
 C838 C 0.23643 0.21171 0.54283
 C839 C 0.22254 0.21736 0.47586
 C840 C 0.28273 0.26205 0.53874
 O841 O 0.73915 0.82252 0.97724
 O842 O 0.78179 0.79385 1.02822
 O843 O 0.78046 0.79381 0.97671
 O844 O 0.74128 0.82434 1.02870
 O845 O 0.71736 0.78725 1.02863
 O846 O 0.75754 0.75609 0.97707
 O847 O 0.75829 0.75656 1.02898
 O848 O 0.71593 0.78496 0.97824
 Cu849 Cu 0.76319 0.81225 1.00269
 Cu850 Cu 0.73507 0.76734 1.00341
 C851 C 0.71989 0.80857 0.96953
 C852 C 0.77738 0.77039 1.03722
 C853 C 0.77588 0.77009 0.96796
 C854 C 0.72206 0.81120 1.03686
 O855 O 0.74203 0.28198 0.47602
 O856 O 0.79013 0.26013 0.52496
 O857 O 0.78879 0.26556 0.47383
 O858 O 0.74390 0.27773 0.52788
 O859 O 0.72932 0.23578 0.52390
 O860 O 0.77473 0.22342 0.47010
 O861 O 0.77560 0.21812 0.52193
 O862 O 0.72777 0.23988 0.47277
 Cu863 Cu 0.76759 0.27559 0.50105
 Cu864 Cu 0.75049 0.22504 0.49672
 C865 C 0.72681 0.26445 0.46589
 C866 C 0.79080 0.23560 0.53212
 C867 C 0.78925 0.24253 0.46258
 C868 C 0.72924 0.25876 0.53535
 O869 O 0.72655 0.24972 0.02275
 O870 O 0.70880 0.19910 -0.02795
 O871 O 0.70644 0.20177 0.02344
 O872 O 0.72975 0.24702 -0.02801
 O873 O 0.76829 0.22940 -0.02523
 O874 O 0.74459 0.18318 0.02571
 O875 O 0.74722 0.18118 -0.02563
 O876 O 0.76485 0.23163 0.02607
 Cu877 Cu 0.71399 0.22608 -0.00286
 Cu878 Cu 0.76011 0.20447 0.00052
 C879 C 0.74873 0.24937 0.03305
 C880 C 0.72484 0.18161 -0.03553
 C881 C 0.72163 0.18481 0.03344
 C882 C 0.75295 0.24634 -0.03506
 O883 O 0.78965 0.72488 0.47811
 O884 O 0.74294 0.70762 0.52949
 O885 O 0.75236 0.69011 0.48171
 O886 O 0.77917 0.74413 0.52504
 O887 O 0.75168 0.77296 0.50821
 O888 O 0.72480 0.71936 0.46573
 O889 O 0.71562 0.73694 0.51321
 O890 O 0.76219 0.75391 0.46158
 Cu891 Cu 0.76876 0.71377 0.50539
 Cu892 Cu 0.73585 0.74869 0.48551
 C893 C 0.78376 0.74231 0.46096
 C894 C 0.72138 0.71919 0.53012
 C895 C 0.73398 0.69574 0.46623
 C896 C 0.76996 0.76778 0.52387
 O897 O 0.97959 0.24790 0.25967
 O898 O 1.02030 0.28759 0.21327
 O899 O 0.97111 0.27687 0.21719
 O900 O 1.02565 0.26958 0.26171
 O901 O 1.03711 0.23241 0.24055
 O902 O 0.98019 0.23843 0.19699
 O903 O 1.02923 0.24919 0.19272
 O904 O 0.99264 0.21074 0.23944
 Cu905 Cu 0.99813 0.27416 0.23994
 Cu906 Cu 1.01042 0.22951 0.21532
 C907 C 0.97979 0.22211 0.25734
 C908 C 1.03139 0.27458 0.19470
 C909 C 0.96603 0.25906 0.19971
 C910 C 1.04065 0.24988 0.25903
 O911 O 0.52697 0.22886 0.77251
 O912 O 0.47895 0.26963 0.73657
 O913 O 0.52801 0.26458 0.73382
 O914 O 0.47738 0.23633 0.77600
 O915 O 0.48325 0.27117 0.80317
 O916 O 0.53686 0.29672 0.76331
 O917 O 0.48800 0.30388 0.76363
 O918 O 0.53185 0.26233 0.80145
 Cu919 Cu 0.50241 0.24628 0.75191
 Cu920 Cu 0.51063 0.28680 0.78579
 C921 C 0.53707 0.23864 0.79354
 C922 C 0.47585 0.29405 0.74386
 C923 C 0.54079 0.28544 0.74108
 C924 C 0.47137 0.24950 0.79671
 O925 O -0.03708 0.28016 0.76326
 O926 O 0.01669 0.26303 0.71859
 O927 O -0.02940 0.24410 0.72553
 O928 O 0.00932 0.29942 0.75534
 O929 O 0.02457 0.27108 0.78479
 O930 O -0.01368 0.21597 0.75494
 O931 O 0.03187 0.23489 0.74827
 O932 O -0.02151 0.25124 0.79197
 Cu933 Cu -0.01171 0.27461 0.73779
 Cu934 Cu 0.00678 0.24064 0.77310
 C935 C -0.03853 0.26797 0.78520
 C936 C 0.03334 0.24599 0.72585
 C937 C -0.02794 0.22054 0.73510
 C938 C 0.02394 0.29448 0.77481
 O939 O 0.46899 0.28239 0.26811
 O940 O 0.51576 0.25898 0.21846
 O941 O 0.46906 0.24598 0.23066
 O942 O 0.51568 0.29657 0.25507
 O943 O 0.53090 0.26725 0.28359
 O944 O 0.48391 0.21651 0.25927
 O945 O 0.53060 0.22964 0.24717
 O946 O 0.48432 0.25297 0.29647
 Cu947 Cu 0.49091 0.27403 0.24028
 Cu948 Cu 0.50898 0.23873 0.27453
 C949 C 0.46847 0.27124 0.29063
 C950 C 0.53108 0.24018 0.22442
 C951 C 0.46842 0.22269 0.24087
 C952 C 0.53144 0.29050 0.27320
 O953 O 1.02139 0.77594 0.73232
 O954 O 0.97725 0.74985 0.78218
 O955 O 1.02494 0.75968 0.78016
 O956 O 0.97112 0.77151 0.73493
 O957 O 0.97460 0.73039 0.71798
 O958 O 1.02811 0.71809 0.76411
 O959 O 0.97907 0.70876 0.76469
 O960 O 1.02427 0.73467 0.71549
 Cu961 Cu 0.99787 0.76849 0.75872
 Cu962 Cu 1.00180 0.71890 0.73878
 C963 C 1.03088 0.75942 0.71574
 C964 C 0.97129 0.72487 0.78247
 C965 C 1.03553 0.73676 0.78008
 C966 C 0.96375 0.75324 0.71869
 O967 O 0.52141 0.78215 0.24529
 O968 O 0.47486 0.76493 0.29569
 O969 O 0.52415 0.75999 0.29131
 O970 O 0.47147 0.78153 0.24684
 O971 O 0.46937 0.73995 0.23051
 O972 O 0.52166 0.71887 0.27387
 O973 O 0.47237 0.72338 0.27930
 O974 O 0.51894 0.74098 0.22794
 Cu975 Cu 0.49817 0.77628 0.27142
 Cu976 Cu 0.49515 0.72666 0.25126
 C977 C 0.52844 0.76473 0.22836
 C978 C 0.46579 0.74116 0.29628
 C979 C 0.53205 0.73574 0.28977
 C980 C 0.46162 0.76412 0.23088
 O981 O 0.02047 0.76928 0.27141
 O982 O -0.02614 0.71723 0.24873
 O983 O 0.02341 0.72080 0.25119
 O984 O -0.02943 0.76489 0.27003
 O985 O -0.02921 0.78315 0.23041
 O986 O 0.02397 0.73847 0.21133
 O987 O -0.02637 0.73534 0.20904
 O988 O 0.02033 0.78691 0.23151
 Cu989 Cu -0.00286 0.74131 0.26434
 Cu990 Cu -0.00277 0.76264 0.21651
 C991 C 0.02837 0.78692 0.25525
 C992 C -0.03451 0.71777 0.22509
 C993 C 0.03284 0.72214 0.22824
 C994 C -0.03851 0.78135 0.25345
 O995 O 0.47989 0.74950 0.73400
 O996 O 0.53197 0.70415 0.71729
 O997 O 0.48300 0.70566 0.70585
 O998 O 0.52785 0.74670 0.74798
 O999 O 0.51655 0.72203 0.78211
 O1000 O 0.47501 0.67995 0.74025
 O1001 O 0.52332 0.67948 0.75224
 O1002 O 0.46894 0.72439 0.76796
 Cu1003 Cu 0.50670 0.72898 0.72282
 Cu1004 Cu 0.49501 0.69891 0.76404
 C1005 C 0.46543 0.74485 0.75342
 C1006 C 0.53678 0.68421 0.73194
 C1007 C 0.47150 0.68565 0.71616
 C1008 C 0.52939 0.74133 0.77250
 N1009 N 0.44626 0.26616 0.33232
 N1010 N 0.42597 0.27559 0.34476
 C1011 C 0.41599 0.29473 0.32914
 C1012 C 0.43068 0.29683 0.30668
 N1013 N 0.44941 0.27859 0.30951
 H1014 H 0.42764 0.30955 0.28971
 N1015 N 0.43922 0.78251 0.74146
 N1016 N 0.42025 0.79722 0.75053
 C1017 C 0.41377 0.78682 0.77407
 C1018 C 0.42934 0.76498 0.77927
 N1019 N 0.44499 0.76316 0.75824
 H1020 H 0.42966 0.75218 0.79646
 N1021 N -0.06636 0.25355 0.82013
 N1022 N -0.08651 0.26151 0.83360
 C1023 C -0.09312 0.28584 0.82413
 C1024 C -0.07634 0.29263 0.80406
 N1025 N -0.05990 0.27175 0.80237
 H1026 H -0.07577 0.31079 0.79236
 N1027 N -0.06839 0.81830 0.24689
 N1028 N -0.08885 0.82872 0.25829
 C1029 C -0.09325 0.81390 0.28003
 C1030 C -0.07487 0.79421 0.28179
 N1031 N -0.05977 0.79770 0.26073
 H1032 H -0.07284 0.77863 0.29647
 N1033 N 0.56276 0.74159 0.32606
 N1034 N 0.58210 0.72855 0.33700
 C1035 C 0.58467 0.70531 0.32308
 C1036 C 0.56634 0.70432 0.30336
 N1037 N 0.55305 0.72736 0.30595
 H1038 H 0.56300 0.68860 0.28860
 N1039 N 0.56125 0.23101 0.83340
 N1040 N 0.57737 0.21364 0.84375
 C1041 C 0.58066 0.19399 0.82543
 C1042 C 0.56589 0.19969 0.80334
 N1043 N 0.55416 0.22313 0.80931
 H1044 H 0.56420 0.18849 0.78488
 N1045 N 1.06382 0.74936 0.81686
 N1046 N 1.08281 0.73904 0.83090
 C1047 C 1.08681 0.71411 0.82077
 C1048 C 1.06980 0.70936 0.80018
 N1049 N 1.05587 0.73190 0.79840
 H1050 H 1.06774 0.69158 0.78762
 N1051 N 1.06522 0.26327 0.29823
 N1052 N 1.08419 0.25425 0.31315
 C1053 C 1.09235 0.23141 0.30128
 C1054 C 1.07797 0.22668 0.27862
 N1055 N 1.06125 0.24703 0.27753
 H1056 H 1.07881 0.20979 0.26485
 N1057 N 0.55432 0.29715 0.69725
 N1058 N 0.57448 0.30681 0.68484
 C1059 C 0.59213 0.31345 0.70347
 C1060 C 0.58220 0.30724 0.72800
 N1061 N 0.55855 0.29707 0.72304
 H1062 H 0.59193 0.30753 0.74697
 N1063 N 0.55438 0.75743 0.18906
 N1064 N 0.57387 0.76916 0.17696
 C1065 C 0.57971 0.79168 0.19121
 C1066 C 0.56330 0.79364 0.21216
 N1067 N 0.54783 0.77192 0.21007
 H1068 H 0.56283 0.80888 0.22769
 N1069 N 1.04988 0.27745 0.15140
 N1070 N 1.06748 0.29122 0.13853
 C1071 C 1.07548 0.31125 0.15498
 C1072 C 1.06194 0.30967 0.17839
 N1073 N 1.04624 0.28809 0.17520
 H1074 H 1.06455 0.32144 0.19642
 N1075 N 1.05739 0.75433 0.67675
 N1076 N 1.07585 0.76743 0.66433
 C1077 C 1.07978 0.79080 0.67783
 C1078 C 1.06320 0.79183 0.69883
 N1079 N 1.04955 0.76865 0.69738
 H1080 H 1.06164 0.80733 0.71400
 N1081 N 0.44894 0.64371 0.70713
 N1082 N 0.42884 0.63460 0.69360
 C1083 C 0.42098 0.65510 0.67836
 C1084 C 0.43696 0.67718 0.68279
 N1085 N 0.45416 0.66909 0.70096
 H1086 H 0.43481 0.69758 0.67569
 N1087 N 0.44599 0.17933 0.24257
 N1088 N 0.42643 0.16665 0.23089
 C1089 C 0.41768 0.18340 0.21211
 C1090 C 0.43229 0.20670 0.21253
 N1091 N 0.44975 0.20332 0.23185
 H1092 H 0.43014 0.22454 0.20057
 N1093 N -0.06104 0.67735 0.23028
 N1094 N -0.08081 0.66506 0.21853
 C1095 C -0.08630 0.67952 0.19682
 C1096 C -0.06934 0.70095 0.19545
 N1097 N -0.05389 0.69883 0.21670
 H1098 H -0.06884 0.71705 0.18116
 N1099 N -0.04483 0.17475 0.73496
 N1100 N -0.06128 0.15926 0.72157
 C1101 C -0.06979 0.17413 0.70120
 C1102 C -0.05811 0.19929 0.70239
 N1103 N -0.04279 0.19878 0.72391
 H1104 H -0.06120 0.21652 0.68983
 N1105 N 0.32769 0.45496 0.27631
 N1106 N 0.33916 0.43530 0.28905
 C1107 C 0.32095 0.42257 0.30292
 C1108 C 0.29771 0.43512 0.29848
 N1109 N 0.30296 0.45532 0.28165
 H1110 H 0.27890 0.42888 0.30487
 N1111 N 0.31015 -0.06631 0.75479
 N1112 N 0.32300 -0.08800 0.76151
 C1113 C 0.31451 -0.09545 0.78547
 C1114 C 0.29590 -0.07739 0.79350
 N1115 N 0.29388 -0.05954 0.77353
 H1116 H 0.28477 -0.07743 0.81143
 N1117 N 0.78642 0.45177 0.84045
 N1118 N 0.79622 0.43265 0.85528
 C1119 C 0.81469 0.42067 0.84097
 C1120 C 0.81626 0.43334 0.81678
 N1121 N 0.79800 0.45248 0.81737
 H1122 H 0.82764 0.42780 0.79984
 N1123 N 0.75328 -0.07263 0.33788
 N1124 N 0.76425 -0.09548 0.34448
 C1125 C 0.78258 -0.10003 0.32649
 C1126 C 0.78257 -0.07924 0.30835
 N1127 N 0.76387 -0.06257 0.31641
 H1128 H 0.79475 -0.07637 0.29142
 N1129 N 0.24287 0.56609 0.66505
 N1130 N 0.25504 0.58439 0.65075
 C1131 C 0.27701 0.59027 0.66387
 C1132 C 0.27797 0.57540 0.68660
 N1133 N 0.25630 0.56062 0.68662
 H1134 H 0.29299 0.57499 0.70144
 N1135 N 0.25979 1.06358 0.17669
 N1136 N 0.27103 1.08353 0.16381
 C1137 C 0.29119 1.09157 0.17884
 C1138 C 0.29206 1.07608 0.20133
 N1139 N 0.27206 1.05891 0.19917
 H1140 H 0.30528 1.07753 0.21789
 N1141 N 0.75732 0.55751 0.15666
 N1142 N 0.76720 0.57875 0.14440
 C1143 C 0.78712 0.58752 0.15943
 C1144 C 0.78919 0.57118 0.18117
 N1145 N 0.77028 0.55270 0.17872
 H1146 H 0.80267 0.57287 0.19749
 N1147 N 0.79225 1.07229 0.73106
 N1148 N 0.80598 1.09200 0.72071
 C1149 C 0.80450 1.08876 0.69423
 C1150 C 0.78967 1.06611 0.68852
 N1151 N 0.78244 1.05648 0.71220
 H1152 H 0.78626 1.05644 0.66948
 N1153 N 0.67547 0.55100 0.24271
 N1154 N 0.66146 0.56903 0.25549
 C1155 C 0.67543 0.57714 0.27670
 C1156 C 0.69843 0.56374 0.27659
 N1157 N 0.69766 0.54762 0.25502
 H1158 H 0.71408 0.56539 0.29068
 N1159 N 0.67018 1.04743 0.73443
 N1160 N 0.65611 1.06527 0.74757
 C1161 C 0.66617 1.06702 0.77222
 C1162 C 0.68654 1.04975 0.77390
 N1163 N 0.68845 1.03796 0.74999
 H1164 H 0.69928 1.04651 0.79050
 N1165 N 0.16539 0.55452 0.76011
 N1166 N 0.15317 0.57344 0.77357
 C1167 C 0.16930 0.58202 0.79294
 C1168 C 0.19179 0.56786 0.79109
 N1169 N 0.18853 0.55100 0.77022
 H1170 H 0.20911 0.57031 0.80278
 N1171 N 0.17714 1.06885 0.25444
 N1172 N 0.16457 1.08992 0.26389
 C1173 C 0.17650 1.09735 0.28664
 C1174 C 0.19678 1.08032 0.29094
 N1175 N 0.19651 1.06289 0.27029
 H1176 H 0.21086 1.08104 0.30675
 N1177 N 0.76777 0.42071 0.70256
 N1178 N 0.75679 0.39944 0.69084
 C1179 C 0.73334 0.39672 0.70140
 C1180 C 0.73014 0.41705 0.72004
 N1181 N 0.75216 0.43159 0.72008
 H1182 H 0.71355 0.42113 0.73200
 N1183 N 0.66357 -0.05157 0.26621
 N1184 N 0.65126 -0.07077 0.25252
 C1185 C 0.66518 -0.07568 0.23068
 C1186 C 0.68640 -0.05898 0.23129
 N1187 N 0.68466 -0.04425 0.25380
 H1188 H 0.70215 -0.05852 0.21757
 N1189 N 0.18667 0.44699 0.23768
 N1190 N 0.17090 0.43001 0.22509
 C1191 C 0.18188 0.42443 0.20170
 C1192 C 0.20484 0.43824 0.20023
 N1193 N 0.20706 0.45206 0.22313
 H1194 H 0.21824 0.43881 0.18407
 N1195 N 0.17650 -0.05964 0.75648
 N1196 N 0.16244 -0.07836 0.74396
 C1197 C 0.17264 -0.08138 0.71969
 C1198 C 0.19321 -0.06394 0.71760
 N1199 N 0.19497 -0.05078 0.74097
 H1200 H 0.20601 -0.06137 0.70110
 N1201 N 0.25692 0.31506 0.44784
 N1202 N 0.26673 0.32827 0.42768
 C1203 C 0.28661 0.31357 0.41913
 C1204 C 0.28881 0.29085 0.43459
 N1205 N 0.26982 0.29265 0.45230
 H1206 H 0.30258 0.27474 0.43316
 N1207 N 0.33014 0.76893 -0.05731
 N1208 N 0.34265 0.77656 -0.07863
 C1209 C 0.32743 0.79395 -0.09149
 C1210 C 0.30502 0.79680 -0.07744
 N1211 N 0.30757 0.78073 -0.05620
 H1212 H 0.28822 0.80819 -0.08272
 N1213 N 0.74750 0.28585 -0.06202
 N1214 N 0.76105 0.30233 -0.07688
 C1215 C 0.78477 0.29206 -0.07794
 C1216 C 0.78557 0.26875 -0.06331
 N1217 N 0.76179 0.26571 -0.05366
 H1218 H 0.80182 0.25607 -0.05916
 N1219 N 0.82370 0.73695 0.43660
 N1220 N 0.83564 0.74786 0.41620
 C1221 C 0.82029 0.76753 0.40725
 C1222 C 0.79869 0.76841 0.42259
 N1223 N 0.80155 0.74904 0.44066
 H1224 H 0.78250 0.78173 0.42091
 N1225 N 0.69381 0.24658 0.56375
 N1226 N 0.68305 0.25496 0.58595
 C1227 C 0.69611 0.27733 0.59383
 C1228 C 0.71502 0.28269 0.57585
 N1229 N 0.71286 0.26301 0.55737
 H1230 H 0.72917 0.29881 0.57633
 N1231 N 0.67985 0.82674 1.04757
 N1232 N 0.66709 0.83663 1.06787
 C1233 C 0.68416 0.84083 1.08769
 C1234 C 0.70790 0.83265 1.07906
 N1235 N 0.70425 0.82413 1.05389
 H1236 H 0.72527 0.83044 1.09058
 N1237 N 0.23411 0.33956 1.04131
 N1238 N 0.22065 0.35521 1.05728
 C1239 C 0.20102 0.33989 1.06580
 C1240 C 0.20284 0.31432 1.05494
 N1241 N 0.22382 0.31501 1.03980
 H1242 H 0.19080 0.29681 1.05838
 N1243 N 0.22741 0.83941 0.55354
 N1244 N 0.21652 0.85215 0.57367
 C1245 C 0.19819 0.83534 0.58261
 C1246 C 0.19812 0.81192 0.56757
 N1247 N 0.21665 0.81530 0.54965
 H1248 H 0.18617 0.79409 0.56963
 N1249 N 0.31704 0.75114 0.54497
 N1250 N 0.33118 0.73811 0.56252
 C1251 C 0.31598 0.71858 0.57240
 C1252 C 0.29229 0.71992 0.56057
 N1253 N 0.29371 0.74046 0.54362
 H1254 H 0.27568 0.70718 0.56368
 N1255 N 0.32402 0.25324 1.05877
 N1256 N 0.33685 0.24246 1.07870
 C1257 C 0.32219 0.22199 1.08761
 C1258 C 0.30002 0.22052 1.07275
 N1259 N 0.30192 0.24039 1.05499
 H1260 H 0.28423 0.20635 1.07439
 N1261 N 0.81505 0.77238 1.06564
 N1262 N 0.82747 0.75730 1.08286
 C1263 C 0.81410 0.73397 1.08476
 C1264 C 0.79300 0.73509 1.06819
 N1265 N 0.79438 0.75950 1.05663
 H1266 H 0.77834 0.71983 1.06470
 N1267 N 0.82788 0.24373 0.56041
 N1268 N 0.84083 0.23202 0.57965
 C1269 C 0.82928 0.20799 0.58387
 C1270 C 0.80887 0.20510 0.56647
 N1271 N 0.80876 0.22794 0.55215
 H1272 H 0.79542 0.18840 0.56453
 N1273 N 0.73363 0.65134 0.44451
 N1274 N 0.72095 0.63838 0.42528
 C1275 C 0.70232 0.65516 0.41733
 C1276 C 0.70388 0.67869 0.43197
 N1277 N 0.72366 0.67551 0.44868
 H1278 H 0.69260 0.69678 0.42993
 N1279 N 0.73212 0.14278 -0.06488
 N1280 N 0.72020 0.12944 -0.08440
 C1281 C 0.69723 0.14123 -0.08735
 C1282 C 0.69538 0.16210 -0.06926
 N1283 N 0.71752 0.16242 -0.05566
 H1284 H 0.67994 0.17626 -0.06674
 N1285 N 0.24193 0.68189 -0.05705
 N1286 N 0.23013 0.66811 -0.07628
 C1287 C 0.21157 0.68425 -0.08553
 C1288 C 0.21224 0.70835 -0.07148
 N1289 N 0.23150 0.70599 -0.05388
 H1290 H 0.20017 0.72581 -0.07383
 N1291 N 0.20569 0.17523 0.45880
 N1292 N 0.19434 0.16543 0.43722
 C1293 C 0.18709 0.18687 0.42298
 C1294 C 0.19425 0.21031 0.43650
 N1295 N 0.20574 0.20200 0.45891
 H1296 H 0.19377 0.23089 0.42949
 N1297 N 0.31528 0.47064 0.70159
 N1298 N 0.32959 0.45203 0.69029
 C1299 C 0.31371 0.43178 0.68244
 C1300 C 0.28910 0.43835 0.68946
 N1301 N 0.29105 0.46277 0.70146
 H1302 H 0.27213 0.42565 0.68852
 N1303 N 0.32171 0.95377 0.24843
 N1304 N 0.33562 0.93429 0.23777
 C1305 C 0.32242 0.92512 0.21642
 C1306 C 0.29999 0.93933 0.21427
 N1307 N 0.30031 0.95701 0.23466
 H1308 H 0.28491 0.93700 0.19961
 N1309 N 0.82532 0.44534 0.21679
 N1310 N 0.83722 0.42406 0.20673
 C1311 C 0.82056 0.41188 0.18980
 C1312 C 0.79810 0.42624 0.18970
 N1313 N 0.80189 0.44699 0.20681
 H1314 H 0.78056 0.42170 0.17897
 N1315 N 0.82131 0.93999 0.72885
 N1316 N 0.83660 0.92144 0.71870
 C1317 C 0.82681 0.91483 0.69472
 C1318 C 0.80509 0.92980 0.69037
 N1319 N 0.80235 0.94523 0.71219
 H1320 H 0.79189 0.92866 0.67378
 N1321 N 0.76089 0.55002 0.68341
 N1322 N 0.74785 0.56696 0.66849
 C1323 C 0.72480 0.56964 0.67988
 C1324 C 0.72397 0.55394 0.70215
 N1325 N 0.74689 0.54205 0.70361
 H1326 H 0.70873 0.55203 0.71635
 N1327 N 0.68677 0.08141 0.27620
 N1328 N 0.67392 0.09935 0.26240
 C1329 C 0.68075 0.09565 0.23705
 C1330 C 0.69831 0.07499 0.23554
 N1331 N 0.70147 0.06668 0.26056
 H1332 H 0.70687 0.06607 0.21814
 N1333 N 0.23917 0.56090 0.17001
 N1334 N 0.22860 0.58195 0.15862
 C1335 C 0.21269 0.59275 0.17650
 C1336 C 0.21370 0.57766 0.19944
 N1337 N 0.23062 0.55791 0.19439
 H1338 H 0.20389 0.58109 0.21790
 N1339 N 0.18551 0.07116 0.76818
 N1340 N 0.17300 0.09184 0.75791
 C1341 C 0.18224 0.09510 0.73333
 C1342 C 0.20065 0.07596 0.72877
 N1343 N 0.20212 0.06144 0.75096
 H1344 H 0.21199 0.07290 0.71121
 N1345 N 0.33120 0.56451 0.25683
 N1346 N 0.34360 0.58308 0.27130
 C1347 C 0.32811 0.58944 0.29160
 C1348 C 0.30598 0.57455 0.28925
 N1349 N 0.30862 0.55928 0.26733
 H1350 H 0.28961 0.57459 0.30218
 N1351 N 0.32109 0.06053 0.76147
 N1352 N 0.33630 0.07926 0.77237
 C1353 C 0.32812 0.08287 0.79734
 C1354 C 0.30747 0.06585 0.80149
 N1355 N 0.30372 0.05228 0.77859
 H1356 H 0.29580 0.06410 0.81895
 N1357 N 0.76461 0.57257 0.81876
 N1358 N 0.77293 0.59459 0.83132
 C1359 C 0.79731 0.59851 0.82389
 C1360 C 0.80387 0.57803 0.80625
 N1361 N 0.78273 0.56225 0.80368
 H1362 H 0.82198 0.57474 0.79663
 N1363 N 0.81943 0.03804 0.30465
 N1364 N 0.83595 0.05712 0.31204
 C1365 C 0.82237 0.07660 0.32412
 C1366 C 0.79684 0.06889 0.32404
 N1367 N 0.79596 0.04461 0.31163
 H1368 H 0.78050 0.08075 0.32986
 N1369 N 0.74798 0.44566 0.30919
 N1370 N 0.73801 0.42673 0.32440
 C1371 C 0.71715 0.41710 0.31148
 C1372 C 0.71457 0.43056 0.28782
 N1373 N 0.73426 0.44823 0.28722
 H1374 H 0.69998 0.42790 0.27268
 N1375 N 0.68907 0.91370 0.72815
 N1376 N 0.67724 0.89304 0.73930
 C1377 C 0.68547 0.89254 0.76462
 C1378 C 0.70265 0.91357 0.76881
 N1379 N 0.70431 0.92627 0.74548
 H1380 H 0.71246 0.91944 0.78696
 N1381 N 0.24229 0.44414 0.81004
 N1382 N 0.23247 0.42452 0.82451
 C1383 C 0.21030 0.41708 0.81260
 C1384 C 0.20677 0.43248 0.79038
 N1385 N 0.22720 0.44910 0.78953
 H1386 H 0.19094 0.43198 0.77646
 N1387 N 0.22853 0.95815 0.32916
 N1388 N 0.21527 0.93985 0.34234
 C1389 C 0.19712 0.93025 0.32550
 C1390 C 0.19959 0.94297 0.30160
 N1391 N 0.21945 0.96021 0.30475
 H1392 H 0.18839 0.93987 0.28370
 N1393 N 0.45884 0.33779 0.73364
 N1394 N 0.43993 0.34884 0.72028
 C1395 C 0.42757 0.32851 0.70743
 C1396 C 0.43941 0.30441 0.71328
 N1397 N 0.45884 0.31128 0.72985
 H1398 H 0.43360 0.28407 0.70761
 N1399 N 0.43362 0.75541 0.19319
 N1400 N 0.41541 0.76720 0.17929
 C1401 C 0.41195 0.79171 0.19051
 C1402 C 0.42863 0.79474 0.21177
 N1403 N 0.44180 0.77151 0.21268
 H1404 H 0.43093 0.81185 0.22516
 N1405 N 0.93644 0.24500 0.16434
 N1406 N 0.91543 0.25384 0.15253
 C1407 C 0.90987 0.27769 0.16425
 C1408 C 0.92791 0.28328 0.18356
 N1409 N 0.94413 0.26238 0.18297
 H1410 H 0.92911 0.30059 0.19683
 N1411 N 0.93508 0.74135 0.68206
 N1412 N 0.91648 0.75225 0.66792
 C1413 C 0.91281 0.77718 0.67819
 C1414 C 0.92963 0.78138 0.69900
 N1415 N 0.94318 0.75849 0.70072
 H1416 H 0.93212 0.79927 0.71132
 N1417 N 0.55342 0.33386 0.27029
 N1418 N 0.57382 0.34653 0.28028
 C1419 C 0.58393 0.32986 0.29837
 C1420 C 0.56927 0.30658 0.29927
 N1421 N 0.55041 0.30994 0.28139
 H1422 H 0.57248 0.28867 0.31086
 N1423 N 0.54450 0.75428 0.81603
 N1424 N 0.56247 0.76917 0.82778
 C1425 C 0.57535 0.78168 0.80844
 C1426 C 0.56474 0.77410 0.78424
 N1427 N 0.54550 0.75686 0.79005
 H1428 H 0.57098 0.77945 0.76464
 N1429 N 0.04304 0.33960 0.77465
 N1430 N 0.06275 0.35278 0.78554
 C1431 C 0.07311 0.33590 0.80331
 C1432 C 0.05934 0.31205 0.80306
 N1433 N 0.04075 0.31519 0.78489
 H1434 H 0.06344 0.29365 0.81358
 N1435 N 0.05446 0.82724 0.24870
 N1436 N 0.07223 0.84189 0.26123
 C1437 C 0.07580 0.83029 0.28493
 C1438 C 0.05971 0.80811 0.28670
 N1439 N 0.04673 0.80697 0.26363
 H1440 H 0.05795 0.79395 0.30273
 N1441 N 0.56486 0.64579 0.73922
 N1442 N 0.58527 0.63459 0.72845
 C1443 C 0.59108 0.64949 0.70712
 C1444 C 0.57377 0.67012 0.70505
 N1445 N 0.55773 0.66708 0.72547
 H1446 H 0.57302 0.68594 0.69049
 N1447 N 0.55138 0.23982 0.18098
 N1448 N 0.56976 0.22681 0.16830
 C1449 C 0.57938 0.20886 0.18550
 C1450 C 0.56645 0.21116 0.20902
 N1451 N 0.54915 0.23069 0.20539
 H1452 H 0.56920 0.19980 0.22696
 N1453 N 0.06146 0.68503 0.23694
 N1454 N 0.08220 0.67372 0.22715
 C1455 C 0.08790 0.68731 0.20502
 C1456 C 0.07001 0.70730 0.20134
 N1457 N 0.05385 0.70509 0.22179
 H1458 H 0.06920 0.72232 0.18599
 N1459 N 0.05832 0.25035 0.68546
 N1460 N 0.07871 0.23955 0.67424
 C1461 C 0.08749 0.22077 0.69108
 C1462 C 0.07195 0.22033 0.71295
 N1463 N 0.05399 0.23911 0.70865
 H1464 H 0.07339 0.20764 0.73016
 N1465 N 0.44008 0.75113 0.33510
 N1466 N 0.42172 0.73968 0.34913
 C1467 C 0.41789 0.71485 0.33844
 C1468 C 0.43423 0.71134 0.31756
 N1469 N 0.44768 0.73444 0.31611
 H1470 H 0.43550 0.69434 0.30398
 N1471 N 0.44392 0.25294 0.83495
 N1472 N 0.42505 0.23969 0.84647
 C1473 C 0.42009 0.21755 0.83140
 C1474 C 0.43654 0.21752 0.81013
 N1475 N 0.45110 0.24005 0.81320
 H1476 H 0.43795 0.20271 0.79429
 N1477 N 0.96068 0.72439 0.82861
 N1478 N 0.94412 0.71324 0.84481
 C1479 C 0.92964 0.69584 0.83022
 C1480 C 0.93782 0.69661 0.80430
 N1481 N 0.95717 0.71487 0.80431
 H1482 H 0.92932 0.68686 0.78702
 N1483 N 0.96950 0.17870 0.27557
 N1484 N 0.95165 0.16662 0.28959
 C1485 C 0.93584 0.18617 0.29791
 C1486 C 0.94446 0.21083 0.28862
 N1487 N 0.96559 0.20508 0.27464
 H1488 H 0.93528 0.23030 0.28995
 N1489 N 0.32412 0.26221 0.56005
 N1490 N 0.33659 0.27328 0.58034
 C1491 C 0.32060 0.29114 0.59149
 C1492 C 0.29774 0.29085 0.57736
 N1493 N 0.30088 0.27235 0.55784
 H1494 H 0.28054 0.30212 0.58127
 N1495 N 0.27329 0.83817 0.05092
 N1496 N 0.28392 0.85075 0.07161
 C1497 C 0.30075 0.83336 0.08214
 C1498 C 0.30021 0.80972 0.06740
 N1499 N 0.28278 0.81360 0.04809
 H1500 H 0.31069 0.79132 0.07079
 N1501 N 0.74061 0.28964 0.05969
 N1502 N 0.75217 0.30519 0.07777
 C1503 C 0.77526 0.29420 0.08214
 C1504 C 0.77765 0.27150 0.06627
 N1505 N 0.75556 0.26941 0.05258
 H1506 H 0.79370 0.25798 0.06467
 N1507 N 0.77088 0.81385 0.54100
 N1508 N 0.78322 0.82882 0.55897
 C1509 C 0.80082 0.81265 0.56997
 C1510 C 0.79899 0.78731 0.55843
 N1511 N 0.78002 0.78898 0.54045
 H1512 H 0.80976 0.76938 0.56300
 N1513 N 0.24982 0.68561 0.44028
 N1514 N 0.26239 0.67152 0.42221
 C1515 C 0.28257 0.68693 0.41527
 C1516 C 0.28206 0.71092 0.42945
 N1517 N 0.26128 0.70924 0.44481
 H1518 H 0.29550 0.72768 0.42900
 N1519 N 0.27199 0.17252 0.95515
 N1520 N 0.28509 0.15786 0.93795
 C1521 C 0.30354 0.17428 0.92859
 C1522 C 0.30139 0.19940 0.94028
 N1523 N 0.28145 0.19744 0.95669
 H1524 H 0.31253 0.21751 0.93661
 N1525 N 0.81136 0.77354 0.93815
 N1526 N 0.82446 0.75871 0.92128
 C1527 C 0.81294 0.73423 0.92014
 C1528 C 0.79222 0.73432 0.93694
 N1529 N 0.79209 0.75940 0.94785
 H1530 H 0.77939 0.71779 0.94160
 N1531 N 0.82283 0.25660 0.43269
 N1532 N 0.83512 0.24741 0.41170
 C1533 C 0.82546 0.22253 0.40646
 C1534 C 0.80706 0.21652 0.42484
 N1535 N 0.80607 0.23836 0.44086
 H1536 H 0.79554 0.19833 0.42645
 N1537 N 0.68862 0.25684 0.43903
 N1538 N 0.67553 0.26842 0.41979
 C1539 C 0.68768 0.29190 0.41462
 C1540 C 0.70861 0.29456 0.43137
 N1541 N 0.70842 0.27217 0.44630
 H1542 H 0.72279 0.31064 0.43225
 N1543 N 0.67660 0.81948 0.95774
 N1544 N 0.66298 0.82639 0.93682
 C1545 C 0.67967 0.83149 0.91733
 C1546 C 0.70418 0.82733 0.92689
 N1547 N 0.70127 0.81994 0.95227
 H1548 H 0.72182 0.82675 0.91588
 N1549 N 0.18060 0.25889 0.94080
 N1550 N 0.16709 0.26985 0.92149
 C1551 C 0.18177 0.28979 0.91160
 C1552 C 0.20468 0.29081 0.92527
 N1553 N 0.20314 0.27116 0.94332
 H1554 H 0.22053 0.30476 0.92292
 N1555 N 0.16129 0.77089 0.44646
 N1556 N 0.14711 0.78254 0.42803
 C1557 C 0.16100 0.80366 0.41929
 C1558 C 0.18404 0.80464 0.43262
 N1559 N 0.18345 0.78385 0.44937
 H1560 H 0.19985 0.81862 0.43010
 N1561 N 0.68091 0.72373 0.55346
 N1562 N 0.66846 0.71237 0.57325
 C1563 C 0.68372 0.69275 0.58250
 C1564 C 0.70585 0.69238 0.56794
 N1565 N 0.70333 0.71202 0.55003
 H1566 H 0.72208 0.67916 0.56995
 N1567 N 0.72604 0.14694 0.06319
 N1568 N 0.71433 0.13644 0.08382
 C1569 C 0.69309 0.15116 0.08764
 C1570 C 0.69201 0.17100 0.06883
 N1571 N 0.71297 0.16762 0.05401
 H1572 H 0.67834 0.18715 0.06700
 N1573 N 0.18292 0.75231 0.05103
 N1574 N 0.16999 0.74177 0.07093
 C1575 C 0.18467 0.72206 0.08093
 C1576 C 0.20701 0.72078 0.06665
 N1577 N 0.20513 0.74002 0.04817
 H1578 H 0.22312 0.70756 0.06955
 N1579 N 0.23992 0.17137 0.56986
 N1580 N 0.22872 0.16034 0.59058
 C1581 C 0.20945 0.17687 0.59739
 C1582 C 0.20911 0.19837 0.58039
 N1583 N 0.22845 0.19415 0.56351
 H1584 H 0.19657 0.21564 0.58058
   
