data_POSCAR
  _audit_creation_date              2014-09-24
  _audit_creation_method            'ToBaCCo'
  _symmetry_space_group_name_H-M    'P1'
  _symmetry_Int_Tables_number       1
  _symmetry_cell_setting            triclinic
  loop_
  _symmetry_equiv_pos_as_xyz
 x,y,z
_cell_length_a 41.2307
_cell_length_b 39.7170
_cell_length_c 38.8908
_cell_angle_alpha 90.906500
_cell_angle_beta 89.259100
_cell_angle_gamma 88.746800
loop_
  _atom_site_label
  _atom_site_type_symbol
  _atom_site_fract_x
  _atom_site_fract_y
  _atom_site_fract_z
C1 C 0.38505 -0.00662 0.25726
 C2 C 0.12298 0.01024 0.74060
 C3 C 0.60919 0.50924 0.23786
 C4 C 0.88862 0.50445 0.75902
 C5 C 0.24763 0.37400 0.99714
 C6 C 0.74757 0.11324 1.00178
 C7 C 0.24852 0.61314 0.49975
 C8 C 0.75249 0.87210 0.50444
 C9 C -0.00518 0.24638 0.36397
 C10 C -0.00164 0.76515 0.14094
 C11 C 0.51713 0.25554 0.62728
 C12 C 0.49013 0.74223 0.86059
 C13 C -0.25730 0.61564 0.99446
 C14 C -0.24356 0.37283 0.50062
 C15 C 0.25190 -0.13127 -0.00034
 C16 C 0.24839 1.11141 0.48994
 C17 C 0.11684 0.50102 0.25239
 C18 C -0.12445 1.00553 0.24528
 C19 C 0.37760 0.50446 -0.25056
 C20 C 0.61730 0.01262 -0.24324
 C21 C 0.01388 0.25395 0.86382
 C22 C 0.49665 0.24713 0.13647
 C23 C -0.01165 0.75143 0.63334
 C24 C 0.49659 0.75560 0.37491
 B25 B -0.01117 0.02306 1.02725
 B26 B -0.03121 0.01745 0.99043
 B27 B 0.00043 0.04368 0.99177
 B28 B 0.02881 0.02683 1.01776
 B29 B 0.01442 -0.01002 1.03248
 B30 B -0.02290 -0.01594 1.01553
 B31 B 0.02093 -0.01545 0.96206
 B32 B 0.04128 -0.01017 0.99912
 B33 B 0.00971 -0.03608 0.99813
 B34 B -0.01855 -0.01937 0.97230
 B35 B -0.00447 0.01804 0.95779
 B36 B 0.03318 0.02334 0.97419
 B37 B 0.50245 0.52589 0.54165
 B38 B 0.47429 0.52499 0.51045
 B39 B 0.50771 0.54917 0.50620
 B40 B 0.53993 0.52783 0.52320
 B41 B 0.52553 0.49077 0.53768
 B42 B 0.48503 0.48933 0.52986
 B43 B 0.51656 0.49200 0.46804
 B44 B 0.54452 0.49148 0.49936
 B45 B 0.51085 0.46873 0.50399
 B46 B 0.47947 0.48997 0.48663
 B47 B 0.49371 0.52740 0.47230
 B48 B 0.53454 0.52814 0.47979
 B49 B 0.51131 0.99177 0.53902
 B50 B 0.54241 0.99201 0.51032
 B51 B 0.51095 0.96602 0.50396
 B52 B 0.47645 0.98643 0.51721
 B53 B 0.48683 1.02529 0.53123
 B54 B 0.52782 1.02859 0.52747
 B55 B 0.50305 1.02067 0.46333
 B56 B 0.47186 1.01996 0.49175
 B57 B 0.50317 1.04612 0.49824
 B58 B 0.53758 1.02585 0.48489
 B59 B 0.52746 0.98684 0.47083
 B60 B 0.48662 0.98356 0.47458
 B61 B 0.01410 0.48516 1.03298
 B62 B 0.03909 0.49695 1.00132
 B63 B 0.00948 0.46977 0.99282
 B64 B -0.02359 0.48099 1.01617
 B65 B -0.01437 0.51513 1.03979
 B66 B 0.02483 0.52569 1.03088
 B67 B -0.00961 0.53223 0.97196
 B68 B -0.03545 0.51941 1.00271
 B69 B -0.00612 0.54699 1.01303
 B70 B 0.02744 0.53611 0.98906
 B71 B 0.01837 0.50071 0.96523
 B72 B -0.02057 0.49120 0.97361
 B73 B 0.01467 0.51650 0.47225
 B74 B 0.03817 0.50449 0.50483
 B75 B 0.00873 0.53417 0.51195
 B76 B -0.02345 0.52411 0.48744
 B77 B -0.01364 0.48726 0.46599
 B78 B 0.02466 0.47531 0.47700
 B79 B -0.01315 0.47518 0.53528
 B80 B -0.03657 0.48680 0.50207
 B81 B -0.00707 0.45744 0.49601
 B82 B 0.02506 0.46786 0.51992
 B83 B 0.01525 0.50434 0.54108
 B84 B -0.02344 0.51600 0.53036
 B85 B 0.51557 0.01009 -0.02005
 B86 B 0.53880 -0.00349 0.01219
 B87 B 0.50847 0.02470 0.02070
 B88 B 0.47700 0.01543 -0.00518
 B89 B 0.48833 -0.01956 -0.02907
 B90 B 0.52687 -0.03109 -0.01824
 B91 B 0.48778 -0.03659 0.03880
 B92 B 0.46465 -0.02338 0.00606
 B93 B 0.49515 -0.05125 -0.00141
 B94 B 0.52654 -0.04183 0.02394
 B95 B 0.51509 -0.00722 0.04757
 B96 B 0.47639 0.00435 0.03682
 B97 B 0.48523 0.46368 -0.04040
 B98 B 0.46072 0.47742 -0.00791
 B99 B 0.49111 0.45006 -0.00015
 B100 B 0.52361 0.45930 -0.02446
 B101 B 0.51291 0.49281 -0.04812
 B102 B 0.47350 0.50436 -0.03832
 B103 B 0.50938 0.51281 0.01943
 B104 B 0.53479 0.49830 -0.01181
 B105 B 0.50435 0.52564 -0.02169
 B106 B 0.47185 0.51669 0.00335
 B107 B 0.48253 0.48234 0.02737
 B108 B 0.52151 0.47149 0.01797
 B109 B -0.01539 0.97224 0.45944
 B110 B -0.03628 0.98148 0.49584
 B111 B -0.00543 0.95365 0.49684
 B112 B 0.02413 0.96615 0.46965
 B113 B 0.01101 1.00304 0.45205
 B114 B -0.02694 1.01241 0.46832
 B115 B 0.01563 1.01331 0.52147
 B116 B 0.03678 1.00363 0.48536
 B117 B 0.00544 1.03160 0.48428
 B118 B -0.02394 1.01872 0.51122
 B119 B -0.01044 0.98237 0.52894
 B120 B 0.02724 0.97282 0.51304
 B121 B 0.76488 0.23976 0.21580
 B122 B 0.75939 0.22012 0.25372
 B123 B 0.78379 0.25386 0.25134
 B124 B 0.76764 0.28170 0.22385
 B125 B 0.73253 0.26542 0.20940
 B126 B 0.72766 0.22687 0.22734
 B127 B 0.72626 0.27440 0.27920
 B128 B 0.73138 0.29431 0.24158
 B129 B 0.70726 0.26088 0.24337
 B130 B 0.72341 0.23279 0.27048
 B131 B 0.75870 0.24916 0.28519
 B132 B 0.76330 0.28781 0.26720
 B133 B 0.72327 0.76017 0.71842
 B134 B 0.72116 0.78710 0.75245
 B135 B 0.70267 0.74957 0.75446
 B136 B 0.72555 0.72056 0.73318
 B137 B 0.75965 0.73982 0.71872
 B138 B 0.75633 0.78155 0.73036
 B139 B 0.75901 0.74393 0.78872
 B140 B 0.76052 0.71688 0.75455
 B141 B 0.77971 0.75440 0.75310
 B142 B 0.75663 0.78411 0.77404
 B143 B 0.72299 0.76472 0.78845
 B144 B 0.72568 0.72322 0.77694
 B145 B 0.28250 0.26678 0.77510
 B146 B 0.28029 0.28283 0.73519
 B147 B 0.30443 0.24910 0.74238
 B148 B 0.28559 0.22442 0.77124
 B149 B 0.24946 0.24394 0.78182
 B150 B 0.24638 0.28025 0.75929
 B151 B 0.24953 0.22677 0.71319
 B152 B 0.25108 0.21196 0.75339
 B153 B 0.22718 0.24567 0.74584
 B154 B 0.24586 0.26950 0.71627
 B155 B 0.28229 0.25050 0.70614
 B156 B 0.28560 0.21442 0.72909
 B157 B 0.23115 0.73289 0.28636
 B158 B 0.23706 0.70920 0.25022
 B159 B 0.21177 0.74359 0.24999
 B160 B 0.22782 0.77377 0.27538
 B161 B 0.26330 0.75817 0.29099
 B162 B 0.26882 0.71824 0.27573
 B163 B 0.26891 0.76016 0.22051
 B164 B 0.26360 0.78380 0.25678
 B165 B 0.28842 0.74983 0.25704
 B166 B 0.27245 0.71938 0.23212
 B167 B 0.23682 0.73500 0.21646
 B168 B 0.23162 0.77544 0.23166
 B169 B 0.26024 0.73047 0.71672
 B170 B 0.25159 0.70939 0.75344
 B171 B 0.27668 0.74273 0.75396
 B172 B 0.26272 0.77266 0.72722
 B173 B 0.22936 0.75701 0.70915
 B174 B 0.22208 0.71788 0.72460
 B175 B 0.21783 0.76244 0.77898
 B176 B 0.22529 0.78465 0.74341
 B177 B 0.20098 0.75130 0.73989
 B178 B 0.21461 0.72175 0.76755
 B179 B 0.24954 0.73676 0.78581
 B180 B 0.25557 0.77616 0.77052
 B181 B 0.22301 0.25550 0.20966
 B182 B 0.22248 0.27700 0.24783
 B183 B 0.20293 0.24050 0.24385
 B184 B 0.22467 0.21401 0.21833
 B185 B 0.25888 0.23432 0.20624
 B186 B 0.25694 0.27409 0.22400
 B187 B 0.25963 0.22800 0.27570
 B188 B 0.26023 0.20661 0.23827
 B189 B 0.27999 0.24338 0.24164
 B190 B 0.25804 0.26991 0.26765
 B191 B 0.22424 0.24892 0.27977
 B192 B 0.22554 0.20992 0.26131
 B193 B 0.75774 0.77285 0.27434
 B194 B 0.75382 0.79602 0.23877
 B195 B 0.77856 0.76191 0.23815
 B196 B 0.76155 0.73189 0.26199
 B197 B 0.72544 0.74798 0.27758
 B198 B 0.72089 0.78813 0.26324
 B199 B 0.72264 0.74493 0.20731
 B200 B 0.72645 0.72188 0.24303
 B201 B 0.70164 0.75616 0.24377
 B202 B 0.71881 0.78596 0.21949
 B203 B 0.75497 0.76998 0.20428
 B204 B 0.75963 0.72988 0.21853
 B205 B 0.74317 0.23798 0.78777
 B206 B 0.74634 0.21642 0.75052
 B207 B 0.72236 0.25120 0.75304
 B208 B 0.74036 0.27949 0.77920
 B209 B 0.77612 0.26172 0.79220
 B210 B 0.77984 0.22250 0.77422
 B211 B 0.77883 0.26762 0.72203
 B212 B 0.77579 0.28934 0.75961
 B213 B 0.79955 0.25458 0.75668
 B214 B 0.78146 0.22614 0.73102
 B215 B 0.74578 0.24386 0.71796
 B216 B 0.74241 0.28349 0.73560
 C217 C 0.42989 1.02555 0.33869
 C218 C 0.45645 1.00426 0.33559
 C219 C 0.45678 0.97532 0.31543
 C220 C 0.43022 0.97029 0.29443
 C221 C 0.40634 0.99642 0.28984
 C222 C 0.40410 1.02250 0.31555
 O223 O 0.43192 1.04674 0.36552
 C224 C 0.46086 1.03895 0.37866
 C225 C 0.47715 1.01421 0.35994
 C226 C 0.50750 1.00169 0.36837
 C227 C 0.52002 1.01200 0.39976
 C228 C 0.50030 1.03105 0.42364
 C229 C 0.47258 1.04867 0.41106
 H230 H 0.47648 0.95690 0.31634
 H231 H 0.43049 0.94781 0.27829
 H232 H 0.38346 1.03965 0.31769
 H233 H 0.52035 0.98326 0.35220
 H234 H 0.54303 1.00082 0.40706
 H235 H 0.45806 1.06530 0.42763
 C236 C -0.07811 0.54257 0.84393
 C237 C -0.04612 0.53306 0.83980
 C238 C -0.03617 0.50810 0.81647
 C239 C -0.05958 0.49557 0.79431
 C240 C -0.08983 0.51312 0.79035
 C241 C -0.10027 0.53509 0.81798
 O242 O -0.08470 0.55555 0.87513
 C243 C -0.05576 0.55544 0.89006
 C244 C -0.03128 0.54440 0.86822
 C245 C 0.00098 0.54343 0.87738
 C246 C 0.00799 0.55084 0.91158
 C247 C -0.01741 0.55209 0.93691
 C248 C -0.04965 0.55833 0.92542
 H249 H -0.01211 0.49671 0.81729
 H250 H -0.05296 0.47422 0.77783
 H251 H -0.12484 0.54513 0.81987
 H252 H 0.02000 0.53633 0.85905
 H253 H 0.03323 0.54904 0.91882
 H254 H -0.06993 0.56099 0.94287
 C255 C 0.09658 -0.00482 0.83453
 C256 C 0.06478 0.00510 0.83148
 C257 C 0.05445 0.02717 0.80639
 C258 C 0.07715 0.03549 0.78095
 C259 C 0.10607 0.01559 0.77662
 C260 C 0.11779 -0.00132 0.80644
 O261 O 0.10274 -0.01935 0.86451
 C262 C 0.07356 -0.02009 0.87961
 C263 C 0.04948 -0.00773 0.85903
 C264 C 0.01695 -0.01188 0.86628
 C265 C 0.00902 -0.02599 0.89788
 C266 C 0.03285 -0.02861 0.92423
 C267 C 0.06613 -0.02866 0.91371
 H268 H 0.03028 0.03838 0.80704
 H269 H 0.07020 0.05410 0.76226
 H270 H 0.14119 -0.01407 0.80662
 H271 H -0.00161 -0.00491 0.84813
 H272 H -0.01655 -0.02854 0.90361
 H273 H 0.08562 -0.03112 0.93171
 C274 C 0.57965 0.49095 0.33051
 C275 C 0.54710 0.49816 0.32751
 C276 C 0.53485 0.51593 0.30009
 C277 C 0.55656 0.52345 0.27349
 C278 C 0.58827 0.50804 0.27150
 C279 C 0.60082 0.49473 0.30251
 O280 O 0.58763 0.48183 0.36200
 C281 C 0.55924 0.48211 0.37859
 C282 C 0.53353 0.49027 0.35817
 C283 C 0.50166 0.49125 0.37019
 C284 C 0.49624 0.48505 0.40520
 C285 C 0.52273 0.48170 0.42821
 C286 C 0.55473 0.47988 0.41394
 H287 H 0.51004 0.52541 0.30012
 H288 H 0.54786 0.53998 0.25364
 H289 H 0.62592 0.48675 0.30464
 H290 H 0.48170 0.49713 0.35334
 H291 H 0.47150 0.48684 0.41481
 H292 H 0.57612 0.48098 0.42938
 C293 C 0.57684 0.53347 0.14814
 C294 C 0.54456 0.52733 0.15327
 C295 C 0.53357 0.50838 0.18043
 C296 C 0.55636 0.49854 0.20476
 C297 C 0.58762 0.51332 0.20562
 C298 C 0.59880 0.52859 0.17481
 O299 O 0.58385 0.54116 0.11576
 C300 C 0.55500 0.54100 0.10077
 C301 C 0.53013 0.53499 0.12341
 C302 C 0.49798 0.53442 0.11387
 C303 C 0.49145 0.53700 0.07891
 C304 C 0.51716 0.53422 0.05394
 C305 C 0.54935 0.53944 0.06540
 H306 H 0.50903 0.49926 0.18138
 H307 H 0.54876 0.48124 0.22436
 H308 H 0.62347 0.53662 0.17154
 H309 H 0.47868 0.53106 0.13255
 H310 H 0.46630 0.53538 0.07156
 H311 H 0.57007 0.53790 0.04860
 C312 C 0.09197 1.02839 0.64841
 C313 C 0.05941 1.03278 0.65515
 C314 C 0.04541 1.02443 0.68620
 C315 C 0.06606 1.01363 0.71205
 C316 C 0.10042 1.01710 0.70932
 C317 C 0.11348 1.02193 0.67553
 O318 O 0.09877 1.02798 0.61475
 C319 C 0.06981 1.03314 0.60046
 C320 C 0.04541 1.03782 0.62445
 C321 C 0.01317 1.04280 0.61605
 C322 C 0.00514 1.04086 0.58140
 C323 C 0.02875 1.03101 0.55593
 C324 C 0.06201 1.02875 0.56562
 H325 H 0.01934 1.02324 0.68940
 H326 H 0.05461 1.00259 0.73410
 H327 H 0.13934 1.01990 0.67054
 H328 H -0.00542 1.04684 0.63569
 H329 H -0.02032 1.04338 0.57534
 H330 H 0.08081 1.02027 0.54776
 C331 C -0.08441 0.48069 0.66591
 C332 C -0.05147 0.47932 0.67055
 C333 C -0.03700 0.49550 0.69786
 C334 C -0.05751 0.50975 0.72321
 C335 C -0.09109 0.50161 0.72479
 C336 C -0.10523 0.49061 0.69334
 O337 O -0.09250 0.47326 0.63370
 C338 C -0.06398 0.46589 0.61847
 C339 C -0.03851 0.46726 0.64066
 C340 C -0.00671 0.45985 0.63079
 C341 C -0.00042 0.45342 0.59587
 C342 C -0.02497 0.45936 0.57109
 C343 C -0.05774 0.46347 0.58308
 H344 H -0.01107 0.49916 0.69837
 H345 H -0.04652 0.52587 0.74214
 H346 H -0.13122 0.48834 0.69100
 H347 H 0.01276 0.46006 0.64920
 H348 H 0.02466 0.44920 0.58808
 H349 H -0.07734 0.46990 0.56633
 C350 C 0.41526 -0.03466 0.16639
 C351 C 0.44787 -0.03825 0.17229
 C352 C 0.46219 -0.02413 0.20090
 C353 C 0.44165 -0.00887 0.22575
 C354 C 0.40721 -0.01278 0.22468
 C355 C 0.39409 -0.02323 0.19259
 O356 O 0.40767 -0.04101 0.13392
 C357 C 0.43608 -0.04974 0.11948
 C358 C 0.46107 -0.05027 0.14238
 C359 C 0.49288 -0.05823 0.13280
 C360 C 0.49967 -0.06295 0.09768
 C361 C 0.47563 -0.05515 0.07284
 C362 C 0.44284 -0.05102 0.08430
 H363 H 0.48830 -0.02302 0.20302
 H364 H 0.45308 0.00464 0.24647
 H365 H 0.36835 -0.02380 0.18824
 H366 H 0.51205 -0.05925 0.15154
 H367 H 0.52481 -0.06708 0.09006
 H368 H 0.42374 -0.04296 0.06756
 C369 C 0.33595 0.40404 -0.00294
 C370 C 0.33229 0.43285 0.01686
 C371 C 0.30340 0.44224 0.03323
 C372 C 0.27679 0.42168 0.02797
 C373 C 0.27862 0.39369 0.00447
 C374 C 0.30941 0.38390 -0.00973
 O375 O 0.36584 0.39944 -0.01546
 C376 C 0.38105 0.42638 -0.00387
 C377 C 0.36140 0.44785 0.01548
 C378 C 0.37137 0.47895 0.02752
 C379 C 0.40288 0.48853 0.01892
 C380 C 0.42414 0.46667 -0.00063
 C381 C 0.41309 0.43448 -0.01091
 H382 H 0.30141 0.46456 0.04952
 H383 H 0.25417 0.42850 0.04099
 H384 H 0.31273 0.36166 -0.02591
 H385 H 0.35517 0.49565 0.04221
 H386 H 0.41058 0.51294 0.02797
 H387 H 0.42848 0.41671 -0.02524
 C388 C -0.16000 0.90547 0.49820
 C389 C -0.16187 0.93020 0.52331
 C390 C -0.18872 0.93518 0.54460
 C391 C -0.21529 0.91470 0.53897
 C392 C -0.21563 0.89078 0.51111
 C393 C -0.18657 0.88512 0.49154
 O394 O -0.13173 0.90472 0.48139
 C395 C -0.11585 0.92990 0.49591
 C396 C -0.13342 0.94649 0.52139
 C397 C -0.12219 0.97459 0.53885
 C398 C -0.09147 0.98618 0.52963
 C399 C -0.07233 0.96930 0.50371
 C400 C -0.08477 0.94021 0.48722
 H401 H -0.18933 0.95436 0.56470
 H402 H -0.23651 0.91878 0.55527
 H403 H -0.18453 0.86597 0.47154
 H404 H -0.13671 0.98738 0.55865
 H405 H -0.08256 1.00801 0.54322
 H406 H -0.07079 0.92570 0.46831
 C407 C -0.16156 0.08748 0.99126
 C408 C -0.16375 0.05779 0.97312
 C409 C -0.19287 0.04577 0.96090
 C410 C -0.22125 0.06444 0.96900
 C411 C -0.22043 0.09434 0.98986
 C412 C -0.18936 0.10694 0.99879
 O413 O -0.13166 0.09349 1.00194
 C414 C -0.11463 0.06677 0.99036
 C415 C -0.13325 0.04440 0.97241
 C416 C -0.12111 0.01407 0.95926
 C417 C -0.08846 0.00622 0.96491
 C418 C -0.06825 0.02850 0.98371
 C419 C -0.08177 0.05951 0.99636
 H420 H -0.19382 0.02244 0.94622
 H421 H -0.24399 0.05535 0.95933
 H422 H -0.18684 0.13044 1.01285
 H423 H -0.13640 -0.00327 0.94555
 H424 H -0.07945 -0.01773 0.95474
 H425 H -0.06747 0.07703 1.01103
 C426 C 0.33937 0.58316 0.49422
 C427 C 0.34212 0.56885 0.52596
 C428 C 0.31680 0.56750 0.54932
 C429 C 0.28710 0.58147 0.53982
 C430 C 0.28253 0.59738 0.50740
 C431 C 0.30976 0.59821 0.48427
 O432 O 0.36683 0.58029 0.47575
 C433 C 0.38699 0.56387 0.49659
 C434 C 0.37281 0.55664 0.52762
 C435 C 0.38875 0.53967 0.55347
 C436 C 0.42099 0.52983 0.54742
 C437 C 0.43710 0.53714 0.51593
 C438 C 0.41930 0.55379 0.48969
 H439 H 0.31958 0.55540 0.57389
 H440 H 0.26731 0.57852 0.55776
 H441 H 0.30818 0.60978 0.45937
 H442 H 0.37672 0.53405 0.57755
 H443 H 0.43303 0.51604 0.56742
 H444 H 0.43041 0.55935 0.46512
 C445 C 0.16528 0.57246 0.49236
 C446 C 0.17199 0.53946 0.50015
 C447 C 0.20342 0.52727 0.50493
 C448 C 0.22878 0.55026 0.50268
 C449 C 0.22226 0.58538 0.49781
 C450 C 0.18974 0.59590 0.49135
 O451 O 0.13400 0.57906 0.48816
 C452 C 0.12058 0.54969 0.49400
 C453 C 0.14255 0.52466 0.50199
 C454 C 0.13308 0.49265 0.51144
 C455 C 0.09961 0.48644 0.51299
 C456 C 0.07638 0.51190 0.50448
 C457 C 0.08762 0.54361 0.49374
 H458 H 0.20828 0.50095 0.51005
 H459 H 0.25314 0.54025 0.50522
 H460 H 0.18360 0.62211 0.48687
 H461 H 0.15076 0.47338 0.51810
 H462 H 0.09202 0.46172 0.52064
 H463 H 0.07114 0.56353 0.48591
 C464 C 0.66243 0.07222 0.00575
 C465 C 0.66982 0.04110 0.01859
 C466 C 0.70125 0.03142 0.02660
 C467 C 0.72590 0.05472 0.02118
 C468 C 0.71948 0.08759 0.00752
 C469 C 0.68645 0.09566 -0.00007
 O470 O 0.63116 0.07665 -0.00069
 C471 C 0.61857 0.04758 0.00820
 C472 C 0.64108 0.02479 0.02007
 C473 C 0.63282 -0.00751 0.02999
 C474 C 0.60007 -0.01655 0.02744
 C475 C 0.57628 0.00663 0.01520
 C476 C 0.58613 0.03930 0.00577
 H477 H 0.70675 0.00660 0.03637
 H478 H 0.75022 0.04595 0.02647
 H479 H 0.67850 0.11906 -0.01074
 H480 H 0.65096 -0.02518 0.03916
 H481 H 0.59343 -0.04162 0.03497
 H482 H 0.56912 0.05793 -0.00376
 C483 C 0.66634 0.91157 0.50822
 C484 C 0.67318 0.94498 0.50440
 C485 C 0.70382 0.95611 0.49602
 C486 C 0.72896 0.93200 0.49347
 C487 C 0.72372 0.89754 0.50152
 C488 C 0.69120 0.88707 0.50632
 O489 O 0.63505 0.90643 0.51432
 C490 C 0.62209 0.93740 0.51459
 C491 C 0.64456 0.96179 0.50916
 C492 C 0.63668 0.99588 0.50925
 C493 C 0.60395 1.00521 0.51335
 C494 C 0.57950 0.98053 0.51611
 C495 C 0.58922 0.94612 0.51829
 H496 H 0.70822 0.98244 0.49146
 H497 H 0.75270 0.94068 0.48611
 H498 H 0.68571 0.86086 0.51022
 H499 H 0.65502 1.01464 0.50568
 H500 H 0.59773 1.03180 0.51254
 H501 H 0.57199 0.92652 0.52216
 C502 C 0.16157 0.41398 0.99621
 C503 C 0.16818 0.44533 0.98381
 C504 C 0.19880 0.45438 0.97297
 C505 C 0.22397 0.43062 0.97634
 C506 C 0.21870 0.39862 0.99162
 C507 C 0.18630 0.38966 0.99944
 O508 O 0.13070 0.41084 1.00543
 C509 C 0.11780 0.44097 0.99885
 C510 C 0.13973 0.46294 0.98561
 C511 C 0.13170 0.49608 0.97785
 C512 C 0.09953 0.50701 0.98369
 C513 C 0.07611 0.48480 0.99708
 C514 C 0.08573 0.45122 1.00480
 H515 H 0.20326 0.47902 0.96263
 H516 H 0.24787 0.43777 0.96775
 H517 H 0.18061 0.36496 1.00887
 H518 H 0.14959 0.51296 0.96772
 H519 H 0.09304 0.53272 0.97748
 H520 H 0.06901 0.43356 1.01564
 C521 C -0.01825 0.33235 0.41215
 C522 C 0.00033 0.32594 0.44050
 C523 C 0.02010 0.29762 0.44322
 C524 C 0.01941 0.27391 0.41649
 C525 C -0.00279 0.27715 0.38874
 C526 C -0.02057 0.30809 0.38566
 O527 O -0.03191 0.36304 0.41324
 C528 C -0.02198 0.37575 0.44313
 C529 C -0.00287 0.35359 0.46102
 C530 C 0.01053 0.36132 0.49263
 C531 C 0.00548 0.39400 0.50574
 C532 C -0.01152 0.41865 0.48646
 C533 C -0.02666 0.40884 0.45529
 H534 H 0.03597 0.29414 0.46489
 H535 H 0.03505 0.25176 0.41835
 H536 H -0.03547 0.31329 0.36363
 H537 H 0.02518 0.34310 0.50628
 H538 H 0.01680 0.40050 0.52984
 H539 H -0.03976 0.42685 0.43981
 C540 C 0.47791 -0.17464 -0.08756
 C541 C 0.48836 -0.18411 -0.05568
 C542 C 0.49986 -0.21620 -0.04892
 C543 C 0.50025 -0.23977 -0.07590
 C544 C 0.48745 -0.23199 -0.10901
 C545 C 0.47710 -0.19813 -0.11477
 O546 O 0.47170 -0.14173 -0.08932
 C547 C 0.47843 -0.13049 -0.05785
 C548 C 0.48849 -0.15554 -0.03629
 C549 C 0.49879 -0.14938 -0.00294
 C550 C 0.49933 -0.11583 0.00858
 C551 C 0.49000 -0.08921 -0.01337
 C552 C 0.47876 -0.09689 -0.04693
 H553 H 0.50985 -0.22245 -0.02416
 H554 H 0.51222 -0.26353 -0.07069
 H555 H 0.46970 -0.19015 -0.14003
 H556 H 0.50699 -0.16964 0.01333
 H557 H 0.50810 -0.11067 0.03420
 H558 H 0.47177 -0.07737 -0.06464
 C559 C 0.01575 -0.15911 1.08164
 C560 C -0.00380 -0.16592 1.05419
 C561 C -0.02363 -0.19376 1.05333
 C562 C -0.02292 -0.21554 1.08155
 C563 C -0.00253 -0.20966 1.11045
 C564 C 0.01691 -0.18038 1.10990
 O565 O 0.03119 -0.13031 1.07872
 C566 C 0.02116 -0.11860 1.04880
 C567 C -0.00018 -0.13939 1.03254
 C568 C -0.01519 -0.13055 1.00194
 C569 C -0.00908 -0.09846 0.98854
 C570 C 0.01161 -0.07578 1.00585
 C571 C 0.02790 -0.08699 1.03574
 H572 H -0.03945 -0.19838 1.03185
 H573 H -0.03860 -0.23703 1.08090
 H574 H 0.03252 -0.17354 1.13079
 H575 H -0.03222 -0.14710 0.98969
 H576 H -0.02215 -0.09060 0.96597
 H577 H 0.04335 -0.07056 1.05036
 C578 C 0.52495 0.33828 0.57568
 C579 C 0.49982 0.33509 0.55305
 C580 C 0.47941 0.30780 0.55351
 C581 C 0.48519 0.28291 0.57811
 C582 C 0.51078 0.28547 0.60252
 C583 C 0.53127 0.31378 0.60034
 O584 O 0.54085 0.36667 0.57186
 C585 C 0.52534 0.38173 0.54643
 C586 C 0.50013 0.36355 0.53375
 C587 C 0.47991 0.37581 0.50807
 C588 C 0.48517 0.40862 0.49602
 C589 C 0.51027 0.42853 0.50978
 C590 C 0.53112 0.41395 0.53471
 H591 H 0.45966 0.30570 0.53560
 H592 H 0.46953 0.26138 0.57830
 H593 H 0.55190 0.31695 0.61679
 H594 H 0.45997 0.36118 0.49860
 H595 H 0.46864 0.41905 0.47737
 H596 H 0.55035 0.42796 0.54655
 C597 C 0.50158 1.17461 0.57384
 C598 C 0.52490 1.17673 0.54846
 C599 C 0.54819 1.20153 0.54907
 C600 C 0.54660 1.22551 0.57618
 C601 C 0.52205 1.22462 0.60247
 C602 C 0.49942 1.19809 0.60082
 O603 O 0.48264 1.14839 0.56986
 C604 C 0.49413 1.13358 0.54133
 C605 C 0.51977 1.14988 0.52681
 C606 C 0.53621 1.13709 0.49769
 C607 C 0.52713 1.10531 0.48461
 C608 C 0.50243 1.08665 0.50110
 C609 C 0.48479 1.10239 0.52880
 H610 H 0.56670 1.20267 0.52917
 H611 H 0.56384 1.24569 0.57613
 H612 H 0.47953 1.19599 0.61891
 H613 H 0.55647 1.15016 0.48659
 H614 H 0.54137 1.09405 0.46368
 H615 H 0.46717 1.08930 0.54383
 C616 C 0.00439 0.68426 1.08165
 C617 C -0.01837 0.66524 1.09757
 C618 C -0.03385 0.67442 1.12794
 C619 C -0.02672 0.70539 1.14255
 C620 C -0.00480 0.72807 1.12657
 C621 C 0.01164 0.71630 1.09557
 O622 O 0.01687 0.66886 1.05332
 C623 C 0.00106 0.63971 1.05172
 C624 C -0.02091 0.63719 1.07826
 C625 C -0.04044 0.61003 1.08294
 C626 C -0.03675 0.58328 1.06000
 C627 C -0.01375 0.58321 1.03204
 C628 C 0.00550 0.61249 1.02786
 H629 H -0.05117 0.65818 1.14016
 H630 H -0.03982 0.71102 1.16602
 H631 H 0.02865 0.73203 1.08223
 H632 H -0.05764 0.60907 1.10414
 H633 H -0.05202 0.56210 1.06505
 H634 H 0.02402 0.61337 1.00795
 C635 C 0.48888 0.66056 -0.08727
 C636 C 0.51468 0.64328 -0.10201
 C637 C 0.53241 0.65473 -0.12972
 C638 C 0.52420 0.68639 -0.14213
 C639 C 0.49881 0.70650 -0.12644
 C640 C 0.47949 0.69188 -0.10002
 O641 O 0.47543 0.64433 -0.06110
 C642 C 0.49338 0.61612 -0.05958
 C643 C 0.51736 0.61462 -0.08447
 C644 C 0.53803 0.58742 -0.08973
 C645 C 0.53382 0.56008 -0.06872
 C646 C 0.51027 0.56044 -0.04120
 C647 C 0.48940 0.58919 -0.03695
 H648 H 0.55200 0.63980 -0.14140
 H649 H 0.53749 0.69446 -0.16451
 H650 H 0.45879 0.70539 -0.08870
 H651 H 0.55619 0.58678 -0.11010
 H652 H 0.54963 0.53853 -0.07420
 H653 H 0.47011 0.58998 -0.01779
 C654 C 0.00468 1.15752 0.40371
 C655 C -0.01045 1.16378 0.43493
 C656 C -0.02796 1.19308 0.44229
 C657 C -0.02799 1.21800 0.41745
 C658 C -0.00863 1.21473 0.38666
 C659 C 0.00542 1.18249 0.37852
 O660 O 0.01778 1.12666 0.40137
 C661 C 0.01105 1.11367 0.43196
 C662 C -0.00577 1.13563 0.45352
 C663 C -0.01531 1.12752 0.48672
 C664 C -0.00847 1.09476 0.49779
 C665 C 0.00691 1.07061 0.47536
 C666 C 0.01773 1.08078 0.44225
 H667 H -0.04119 1.19668 0.46634
 H668 H -0.04180 1.24090 0.42332
 H669 H 0.01702 1.17706 0.35392
 H670 H -0.02829 1.14554 0.50324
 H671 H -0.01689 1.08784 0.52313
 H672 H 0.02953 1.06325 0.42427
 C673 C 0.75824 0.65878 0.90765
 C674 C 0.74364 0.68939 0.91514
 C675 C 0.72169 0.69421 0.94208
 C676 C 0.71712 0.66728 0.96425
 C677 C 0.73708 0.63732 0.96162
 C678 C 0.75573 0.63225 0.93064
 O679 O 0.77498 0.65851 0.87817
 C680 C 0.77141 0.69000 0.86748
 C681 C 0.75363 0.71012 0.89005
 C682 C 0.74843 0.74428 0.88510
 C683 C 0.75899 0.75744 0.85383
 C684 C 0.77096 0.73561 0.82686
 C685 C 0.78051 0.70218 0.83533
 H686 H 0.70888 0.71804 0.94622
 H687 H 0.70136 0.67185 0.98640
 H688 H 0.76973 0.60949 0.92520
 H689 H 0.73564 0.75998 0.90405
 H690 H 0.75305 0.78362 0.84897
 H691 H 0.79119 0.68489 0.81659
 C692 C 0.24937 0.15515 0.40403
 C693 C 0.26801 0.18259 0.41111
 C694 C 0.27800 0.19050 0.44411
 C695 C 0.26958 0.16836 0.47039
 C696 C 0.24905 0.14038 0.46415
 C697 C 0.23830 0.13468 0.43008
 O698 O 0.24480 0.15004 0.37080
 C699 C 0.26041 0.17515 0.35661
 C700 C 0.27451 0.19631 0.38000
 C701 C 0.28940 0.22591 0.37037
 C702 C 0.28761 0.23499 0.33558
 C703 C 0.27279 0.21350 0.31104
 C704 C 0.26106 0.18205 0.32189
 H705 H 0.29374 0.21145 0.44902
 H706 H 0.28070 0.17193 0.49519
 H707 H 0.22446 0.11286 0.42307
 H708 H 0.29980 0.24263 0.38929
 H709 H 0.29607 0.25950 0.32825
 H710 H 0.24931 0.16474 0.30453
 C711 C 0.74566 0.34833 0.40633
 C712 C 0.74744 0.31412 0.41022
 C713 C 0.76418 0.29920 0.43690
 C714 C 0.77538 0.32057 0.46296
 C715 C 0.76341 0.35438 0.46541
 C716 C 0.75279 0.36949 0.43422
 O717 O 0.73423 0.35728 0.37585
 C718 C 0.72729 0.32787 0.36108
 C719 C 0.73298 0.30111 0.38221
 C720 C 0.72290 0.26891 0.37451
 C721 C 0.70978 0.26339 0.34200
 C722 C 0.71286 0.28820 0.31600
 C723 C 0.71856 0.32200 0.32680
 H724 H 0.76902 0.27231 0.43724
 H725 H 0.79008 0.30969 0.48290
 H726 H 0.74631 0.39598 0.43316
 H727 H 0.72516 0.24875 0.39279
 H728 H 0.70304 0.23788 0.33566
 H729 H 0.72083 0.34213 0.30864
 C730 C 0.22769 0.83864 0.90840
 C731 C 0.22951 0.80454 0.91332
 C732 C 0.24731 0.79062 0.93971
 C733 C 0.26007 0.81289 0.96403
 C734 C 0.24910 0.84723 0.96584
 C735 C 0.23616 0.86093 0.93503
 O736 O 0.21797 0.84643 0.87695
 C737 C 0.21224 0.81647 0.86259
 C738 C 0.21693 0.79038 0.88470
 C739 C 0.21020 0.75730 0.87607
 C740 C 0.20091 0.75042 0.84221
 C741 C 0.20393 0.77538 0.81638
 C742 C 0.20747 0.80957 0.82765
 H743 H 0.25274 0.76385 0.94045
 H744 H 0.27622 0.80259 0.98306
 H745 H 0.23131 0.88762 0.93253
 H746 H 0.21257 0.73737 0.89459
 H747 H 0.19695 0.72433 0.83532
 H748 H 0.21127 0.82979 0.80999
 C749 C 0.27266 0.83553 0.09058
 C750 C 0.26679 0.80206 0.08511
 C751 C 0.24854 0.79081 0.05780
 C752 C 0.23931 0.81458 0.03347
 C753 C 0.25425 0.84665 0.03244
 C754 C 0.26825 0.85843 0.06375
 O755 O 0.28103 0.84232 0.12290
 C756 C 0.28185 0.81203 0.13729
 C757 C 0.27541 0.78659 0.11437
 C758 C 0.27692 0.75290 0.12280
 C759 C 0.28312 0.74510 0.15700
 C760 C 0.28256 0.77081 0.18313
 C761 C 0.28340 0.80504 0.17250
 H762 H 0.23970 0.76536 0.05664
 H763 H 0.22224 0.80697 0.01412
 H764 H 0.27591 0.88411 0.06698
 H765 H 0.27312 0.73328 0.10373
 H766 H 0.28354 0.71869 0.16341
 H767 H 0.28106 0.82586 0.19041
 C768 C 0.77480 0.34230 0.59260
 C769 C 0.77548 0.30820 0.58656
 C770 C 0.76240 0.29381 0.55738
 C771 C 0.75145 0.31562 0.53199
 C772 C 0.75937 0.35040 0.53300
 C773 C 0.76779 0.36434 0.56571
 O774 O 0.78047 0.35033 0.62533
 C775 C 0.78605 0.32048 0.63961
 C776 C 0.78499 0.29427 0.61631
 C777 C 0.79145 0.26113 0.62477
 C778 C 0.79697 0.25422 0.65930
 C779 C 0.79197 0.27967 0.68524
 C780 C 0.78806 0.31376 0.67481
 H781 H 0.75899 0.26692 0.55514
 H782 H 0.73854 0.30471 0.51074
 H783 H 0.76954 0.39126 0.56977
 H784 H 0.79159 0.24114 0.60551
 H785 H 0.80091 0.22808 0.66578
 H786 H 0.78282 0.33394 0.69311
 C787 C 0.22948 0.16405 0.57347
 C788 C 0.23485 0.13936 0.59699
 C789 C 0.24349 0.10639 0.58822
 C790 C 0.24743 0.09833 0.55346
 C791 C 0.24334 0.12310 0.52776
 C792 C 0.23240 0.15627 0.53823
 O793 O 0.22484 0.19454 0.58811
 C794 C 0.22785 0.18870 0.62166
 C795 C 0.23381 0.15516 0.62781
 C796 C 0.24305 0.14314 0.65912
 C797 C 0.24717 0.16647 0.68531
 C798 C 0.23930 0.20157 0.68188
 C799 C 0.22962 0.21281 0.64881
 H800 H 0.24798 0.08763 0.60758
 H801 H 0.25455 0.07271 0.54645
 H802 H 0.22690 0.17570 0.51995
 H803 H 0.24988 0.11693 0.66251
 H804 H 0.25897 0.15641 0.70752
 H805 H 0.22611 0.23936 0.64383
 C806 C 0.72732 0.65790 0.08368
 C807 C 0.73259 0.69073 0.07512
 C808 C 0.74908 0.69924 0.04539
 C809 C 0.75745 0.67311 0.02216
 C810 C 0.74511 0.63995 0.02633
 C811 C 0.73246 0.63188 0.05939
 O812 O 0.71728 0.65479 0.11603
 C813 C 0.71512 0.68651 0.12747
 C814 C 0.72266 0.70946 0.10288
 C815 C 0.72072 0.74397 0.10893
 C816 C 0.71296 0.75519 0.14247
 C817 C 0.71106 0.73199 0.17004
 C818 C 0.71062 0.69699 0.16159
 H819 H 0.75590 0.72492 0.04058
 H820 H 0.77073 0.67959 -0.00092
 H821 H 0.72563 0.60664 0.06585
 H822 H 0.72579 0.76165 0.08875
 H823 H 0.71291 0.78209 0.14748
 H824 H 0.71156 0.67778 0.18056
 C825 C 0.16456 0.58066 0.23190
 C826 C 0.19372 0.57321 0.24703
 C827 C 0.20029 0.54268 0.26240
 C828 C 0.17581 0.51886 0.26251
 C829 C 0.14547 0.52482 0.24596
 C830 C 0.14004 0.55677 0.23068
 O831 O 0.16197 0.61267 0.22258
 C832 C 0.19010 0.62548 0.23208
 C833 C 0.21036 0.60232 0.24701
 C834 C 0.23986 0.61080 0.26115
 C835 C 0.24866 0.64468 0.26037
 C836 C 0.22777 0.66986 0.24621
 C837 C 0.19845 0.65935 0.23098
 H838 H 0.22281 0.53808 0.27572
 H839 H 0.18025 0.49650 0.27735
 H840 H 0.11666 0.56357 0.22017
 H841 H 0.25526 0.59212 0.27321
 H842 H 0.27144 0.65110 0.27196
 H843 H 0.18129 0.67672 0.22064
 C844 C 0.66710 0.09305 0.76395
 C845 C 0.69264 0.08518 0.74208
 C846 C 0.69615 0.05400 0.72561
 C847 C 0.67222 0.03011 0.73176
 C848 C 0.64581 0.03702 0.75507
 C849 C 0.64342 0.06956 0.77094
 O850 O 0.66703 0.12471 0.77537
 C851 C 0.69322 0.13707 0.76049
 C852 C 0.70982 0.11395 0.73992
 C853 C 0.73761 0.12191 0.72143
 C854 C 0.74899 0.15487 0.72472
 C855 C 0.73239 0.17931 0.74601
 C856 C 0.70377 0.17001 0.76374
 H857 H 0.71597 0.04865 0.70769
 H858 H 0.67375 0.00649 0.71753
 H859 H 0.62287 0.07740 0.78688
 H860 H 0.75019 0.10337 0.70516
 H861 H 0.77078 0.16110 0.71063
 H862 H 0.68992 0.18778 0.77971
 C863 C 0.83791 0.09357 0.26934
 C864 C 0.80597 0.08549 0.27380
 C865 C 0.79593 0.05253 0.27541
 C866 C 0.81949 0.02696 0.27019
 C867 C 0.85194 0.03424 0.25930
 C868 C 0.86141 0.06851 0.26187
 O869 O 0.84239 0.12656 0.26897
 C870 C 0.81246 0.13941 0.27217
 C871 C 0.78922 0.11533 0.27425
 C872 C 0.75631 0.12294 0.27149
 C873 C 0.74721 0.15655 0.26516
 C874 C 0.77075 0.18224 0.26322
 C875 C 0.80366 0.17330 0.26950
 H876 H 0.77084 0.04666 0.28058
 H877 H 0.81168 0.00136 0.27324
 H878 H 0.88578 0.07629 0.25679
 H879 H 0.73845 0.10338 0.27186
 H880 H 0.72177 0.16224 0.26111
 H881 H 0.82269 0.19124 0.26880
 C882 C 0.32976 0.58436 0.78039
 C883 C 0.29861 0.57507 0.77337
 C884 C 0.29066 0.54223 0.76547
 C885 C 0.31605 0.51845 0.76187
 C886 C 0.34931 0.52804 0.76350
 C887 C 0.35562 0.56084 0.77696
 O888 O 0.33225 0.61746 0.78497
 C889 C 0.30219 0.62913 0.77990
 C890 C 0.28078 0.60421 0.77240
 C891 C 0.24941 0.61095 0.76131
 C892 C 0.24003 0.64477 0.75673
 C893 C 0.26176 0.67133 0.76370
 C894 C 0.29264 0.66297 0.77759
 H895 H 0.26580 0.53529 0.76105
 H896 H 0.30906 0.49296 0.75632
 H897 H 0.38029 0.56902 0.78025
 H898 H 0.23331 0.59082 0.75449
 H899 H 0.21621 0.65003 0.74647
 H900 H 0.30963 0.68171 0.78505
 C901 C 0.35204 0.41130 0.74096
 C902 C 0.33135 0.41328 0.71366
 C903 C 0.32692 0.44254 0.69508
 C904 C 0.34359 0.47120 0.70592
 C905 C 0.36349 0.47076 0.73580
 C906 C 0.36873 0.43936 0.75226
 O907 O 0.35204 0.38162 0.75605
 C908 C 0.33051 0.36460 0.73819
 C909 C 0.31700 0.38277 0.71202
 C910 C 0.29233 0.37035 0.69170
 C911 C 0.28092 0.33810 0.69897
 C912 C 0.29429 0.31892 0.72616
 C913 C 0.32007 0.33239 0.74536
 H914 H 0.31055 0.44357 0.67357
 H915 H 0.33951 0.49445 0.69231
 H916 H 0.38431 0.43631 0.77408
 H917 H 0.28172 0.38524 0.67148
 H918 H 0.26145 0.32841 0.68356
 H919 H 0.33157 0.31853 0.76573
 C920 C 0.83680 0.91732 0.23992
 C921 C 0.81059 0.92415 0.21964
 C922 C 0.80540 0.95514 0.20454
 C923 C 0.82769 0.98042 0.21145
 C924 C 0.85490 0.97488 0.23340
 C925 C 0.85935 0.94192 0.24702
 O926 O 0.83659 0.88669 0.25304
 C927 C 0.80950 0.87400 0.24088
 C928 C 0.79263 0.89593 0.22041
 C929 C 0.76288 0.88832 0.20631
 C930 C 0.75024 0.85661 0.21318
 C931 C 0.76737 0.83309 0.23390
 C932 C 0.79751 0.84233 0.24794
 H933 H 0.78435 0.96008 0.18892
 H934 H 0.82285 1.00518 0.20113
 H935 H 0.87864 0.93526 0.26426
 H936 H 0.74982 0.90619 0.19061
 H937 H 0.72721 0.85054 0.20192
 H938 H 0.81130 0.82560 0.26415
 C939 C 0.66569 0.92857 0.76969
 C940 C 0.64168 0.90676 0.76113
 C941 C 0.60993 0.91675 0.75518
 C942 C 0.60262 0.95109 0.75654
 C943 C 0.62729 0.97522 0.76136
 C944 C 0.65908 0.96345 0.77031
 O945 O 0.69440 0.91292 0.77386
 C946 C 0.68816 0.88068 0.76687
 C947 C 0.65630 0.87623 0.75840
 C948 C 0.64490 0.84660 0.74491
 C949 C 0.66696 0.81994 0.74086
 C950 C 0.69926 0.82144 0.75290
 C951 C 0.71032 0.85305 0.76551
 H952 H 0.59145 0.89871 0.74914
 H953 H 0.57789 0.95917 0.75155
 H954 H 0.67826 0.98056 0.77647
 H955 H 0.62039 0.84473 0.73551
 H956 H 0.65912 0.79912 0.72579
 H957 H 0.73519 0.85614 0.77331
 C958 C 0.16449 0.41653 0.24681
 C959 C 0.14886 0.39853 0.27154
 C960 C 0.12239 0.41119 0.29036
 C961 C 0.11206 0.44430 0.28414
 C962 C 0.12879 0.46470 0.26011
 C963 C 0.15432 0.44939 0.23983
 O964 O 0.18874 0.39931 0.23134
 C965 C 0.18826 0.36969 0.24675
 C966 C 0.16419 0.36810 0.27141
 C967 C 0.15865 0.33963 0.29040
 C968 C 0.17818 0.31123 0.28315
 C969 C 0.20252 0.31124 0.25668
 C970 C 0.20855 0.34169 0.23945
 H971 H 0.10988 0.39598 0.30895
 H972 H 0.09074 0.45371 0.29795
 H973 H 0.16630 0.46296 0.21955
 H974 H 0.13967 0.33912 0.30987
 H975 H 0.17350 0.28902 0.29797
 H976 H 0.22767 0.34327 0.22024
 C977 C 0.09863 0.24260 0.81863
 C978 C 0.09509 0.26357 0.79112
 C979 C 0.06705 0.28292 0.78649
 C980 C 0.04173 0.28025 0.81088
 C981 C 0.04405 0.25801 0.83942
 C982 C 0.07347 0.23880 0.84266
 O983 O 0.12768 0.22761 0.81953
 C984 C 0.14275 0.23919 0.79189
 C985 C 0.12390 0.26092 0.77322
 C986 C 0.13547 0.27597 0.74341
 C987 C 0.16791 0.26891 0.73302
 C988 C 0.18837 0.24752 0.75265
 C989 C 0.17500 0.23248 0.78253
 H990 H 0.06479 0.29973 0.76498
 H991 H 0.01989 0.29537 0.80735
 H992 H 0.07729 0.22096 0.86286
 H993 H 0.12027 0.29309 0.72902
 H994 H 0.17737 0.28131 0.71055
 H995 H 0.18959 0.21689 0.79916
 C996 C 0.57662 0.74281 0.32037
 C997 C 0.57428 0.77054 0.29982
 C998 C 0.54934 0.79427 0.30340
 C999 C 0.52587 0.78919 0.32906
 C1000 C 0.52662 0.76018 0.35055
 C1001 C 0.55231 0.73604 0.34472
 O1002 O 0.60382 0.72489 0.31468
 C1003 C 0.61868 0.74160 0.28985
 C1004 C 0.60121 0.76919 0.27916
 C1005 C 0.61234 0.79022 0.25347
 C1006 C 0.64331 0.78329 0.23914
 C1007 C 0.66315 0.75646 0.25149
 C1008 C 0.65005 0.73519 0.27712
 H1009 H 0.54822 0.81629 0.28738
 H1010 H 0.50634 0.80775 0.33191
 H1011 H 0.55330 0.71199 0.35696
 H1012 H 0.59804 0.81177 0.24537
 H1013 H 0.65254 0.80035 0.22011
 H1014 H 0.66453 0.71562 0.28890
 C1015 C 0.58210 0.26507 0.16881
 C1016 C 0.57554 0.27565 0.20208
 C1017 C 0.54437 0.28390 0.21360
 C1018 C 0.51883 0.27840 0.19082
 C1019 C 0.52450 0.26228 0.15805
 C1020 C 0.55706 0.25932 0.14583
 O1021 O 0.61321 0.25782 0.16308
 C1022 C 0.62643 0.26349 0.19347
 C1023 C 0.60454 0.27408 0.21842
 C1024 C 0.61314 0.27837 0.25274
 C1025 C 0.64585 0.27245 0.26135
 C1026 C 0.66930 0.26367 0.23552
 C1027 C 0.65885 0.25829 0.20124
 H1028 H 0.53976 0.29347 0.23945
 H1029 H 0.49457 0.28511 0.19975
 H1030 H 0.56268 0.24909 0.12042
 H1031 H 0.59525 0.28554 0.27227
 H1032 H 0.65290 0.27557 0.28787
 H1033 H 0.67536 0.25019 0.18073
 C1034 C 0.05934 0.76136 0.69789
 C1035 C 0.07755 0.78366 0.68022
 C1036 C 0.06718 0.79993 0.65112
 C1037 C 0.03727 0.79142 0.63793
 C1038 C 0.01687 0.76749 0.65424
 C1039 C 0.02822 0.75388 0.68629
 O1040 O 0.07635 0.74482 0.72173
 C1041 C 0.10622 0.75680 0.71824
 C1042 C 0.10752 0.78042 0.69286
 C1043 C 0.13582 0.79259 0.67986
 C1044 C 0.16429 0.78099 0.69395
 C1045 C 0.16521 0.75851 0.72272
 C1046 C 0.13508 0.74570 0.73461
 H1047 H 0.08289 0.81648 0.63706
 H1048 H 0.03228 0.80185 0.61311
 H1049 H 0.01605 0.73476 0.70011
 H1050 H 0.13616 0.80990 0.65863
 H1051 H 0.18557 0.79187 0.68260
 H1052 H 0.13425 0.72764 0.75513
 C1053 C 0.90514 0.76378 0.68042
 C1054 C 0.90997 0.74402 0.70864
 C1055 C 0.93630 0.72191 0.71071
 C1056 C 0.95955 0.72229 0.68402
 C1057 C 0.95831 0.74685 0.65752
 C1058 C 0.92870 0.76563 0.65448
 O1059 O 0.87616 0.77880 0.68039
 C1060 C 0.86267 0.76872 0.70949
 C1061 C 0.88254 0.74812 0.72832
 C1062 C 0.87266 0.73458 0.75952
 C1063 C 0.84027 0.74067 0.77040
 C1064 C 0.81816 0.75783 0.74874
 C1065 C 0.83045 0.77404 0.71912
 H1066 H 0.93824 0.70404 0.73135
 H1067 H 0.97862 0.70318 0.68416
 H1068 H 0.92314 0.78096 0.63267
 H1069 H 0.88886 0.71879 0.77426
 H1070 H 0.83178 0.72874 0.79350
 H1071 H 0.81497 0.78799 0.70191
 C1072 C 0.40877 0.25218 0.17240
 C1073 C 0.41358 0.23919 0.20455
 C1074 C 0.44299 0.22529 0.21449
 C1075 C 0.46883 0.22627 0.19094
 C1076 C 0.46586 0.24331 0.15896
 C1077 C 0.43454 0.25469 0.14896
 O1078 O 0.37811 0.26114 0.16705
 C1079 C 0.36355 0.25406 0.19665
 C1080 C 0.38426 0.24129 0.22069
 C1081 C 0.37411 0.23303 0.25367
 C1082 C 0.34089 0.23670 0.26164
 C1083 C 0.31839 0.24627 0.23610
 C1084 C 0.33048 0.25669 0.20360
 H1085 H 0.44584 0.21371 0.23931
 H1086 H 0.49190 0.21532 0.19844
 H1087 H 0.43011 0.26513 0.12392
 H1088 H 0.39108 0.22378 0.27249
 H1089 H 0.33286 0.22996 0.28699
 H1090 H 0.31460 0.26528 0.18345
 C1091 C 0.41596 0.76911 0.32487
 C1092 C 0.41960 0.74391 0.30039
 C1093 C 0.44650 0.72245 0.29872
 C1094 C 0.47056 0.72696 0.32331
 C1095 C 0.46848 0.75353 0.34855
 C1096 C 0.44062 0.77544 0.34853
 O1097 O 0.38678 0.78403 0.32434
 C1098 C 0.37197 0.76799 0.29886
 C1099 C 0.39126 0.74371 0.28293
 C1100 C 0.38038 0.72325 0.25629
 C1101 C 0.34799 0.72741 0.24615
 C1102 C 0.32679 0.75101 0.26334
 C1103 C 0.33940 0.77179 0.28995
 H1104 H 0.44836 0.70204 0.27997
 H1105 H 0.49104 0.70942 0.32292
 H1106 H 0.43741 0.79611 0.36665
 H1107 H 0.39608 0.70420 0.24423
 H1108 H 0.33919 0.71101 0.22600
 H1109 H 0.32403 0.78933 0.30461
 C1110 C 0.92930 0.26494 0.82129
 C1111 C 0.93241 0.24247 0.79419
 C1112 C 0.96023 0.22263 0.78873
 C1113 C 0.98585 0.22631 0.81192
 C1114 C 0.98386 0.24983 0.84014
 C1115 C 0.95467 0.26953 0.84429
 O1116 O 0.90024 0.28002 0.82320
 C1117 C 0.88469 0.26684 0.79667
 C1118 C 0.90332 0.24397 0.77782
 C1119 C 0.89128 0.22654 0.74954
 C1120 C 0.85850 0.23212 0.74107
 C1121 C 0.83825 0.25450 0.76109
 C1122 C 0.85211 0.27258 0.78889
 H1123 H 0.96204 0.20463 0.76757
 H1124 H 1.00751 0.21074 0.80794
 H1125 H 0.95114 0.28804 0.86466
 H1126 H 0.90632 0.20854 0.73507
 H1127 H 0.84867 0.21779 0.71988
 H1128 H 0.83762 0.28933 0.80540
 C1129 C 0.58269 0.99402 0.66700
 C1130 C 0.55692 1.01640 0.66814
 C1131 C 0.55502 1.04349 0.69113
 C1132 C 0.57881 1.04518 0.71648
 C1133 C 0.60023 1.01717 0.72168
 C1134 C 0.60494 0.99369 0.69374
 O1135 O 0.58220 0.97304 0.63998
 C1136 C 0.55476 0.98177 0.62452
 C1137 C 0.53781 1.00702 0.64187
 C1138 C 0.50692 1.01741 0.63282
 C1139 C 0.49451 1.00385 0.60249
 C1140 C 0.51484 0.98423 0.57943
 C1141 C 0.54397 0.97006 0.59256
 H1142 H 0.53601 1.06262 0.68958
 H1143 H 0.57768 1.06601 0.73478
 H1144 H 0.62379 0.97432 0.69386
 H1145 H 0.49299 1.03555 0.64833
 H1146 H 0.47064 1.01269 0.59505
 H1147 H 0.55922 0.95307 0.57744
 C1148 C 0.08588 0.48553 1.16082
 C1149 C 0.05641 0.47128 1.16772
 C1150 C 0.04427 0.46845 1.20089
 C1151 C 0.06354 0.47998 1.22787
 C1152 C 0.09428 0.49502 1.22170
 C1153 C 0.10547 0.49736 1.18723
 O1154 O 0.09213 0.48773 1.12751
 C1155 C 0.06609 0.47474 1.11319
 C1156 C 0.04349 0.46401 1.13646
 C1157 C 0.01321 0.45251 1.12653
 C1158 C 0.00525 0.45432 1.09142
 C1159 C 0.02738 0.46778 1.06722
 C1160 C 0.05892 0.47622 1.07861
 H1161 H 0.02094 0.45742 1.20589
 H1162 H 0.05475 0.47641 1.25385
 H1163 H 0.12906 0.50718 1.18101
 H1164 H -0.00449 0.44467 1.14539
 H1165 H -0.01919 0.44843 1.08387
 H1166 H 0.07619 0.48873 1.06252
 C1167 C -0.09087 0.02366 1.15333
 C1168 C -0.06452 0.04290 1.16055
 C1169 C -0.05604 0.05090 1.19410
 C1170 C -0.07576 0.03902 1.22097
 C1171 C -0.10364 0.01904 1.21452
 C1172 C -0.11029 0.01112 1.17945
 O1173 O -0.09370 0.01636 1.12018
 C1174 C -0.06847 0.03113 1.10602
 C1175 C -0.04961 0.04770 1.12942
 C1176 C -0.02010 0.06169 1.12012
 C1177 C -0.00907 0.05698 1.08584
 C1178 C -0.02764 0.03865 1.06164
 C1179 C -0.05853 0.02710 1.07192
 H1180 H -0.03464 0.06527 1.19952
 H1181 H -0.06867 0.04480 1.24706
 H1182 H -0.12902 -0.00545 1.17140
 H1183 H -0.00517 0.07400 1.13901
 H1184 H 0.01483 0.06560 1.07897
 H1185 H -0.07324 0.01217 1.05491
 C1186 C 0.43654 0.51271 0.67301
 C1187 C 0.43345 0.54608 0.66479
 C1188 C 0.41029 0.56729 0.68045
 C1189 C 0.39096 0.55401 0.70686
 C1190 C 0.39552 0.52002 0.71801
 C1191 C 0.41731 0.49893 0.69836
 O1192 O 0.45837 0.49592 0.65400
 C1193 C 0.46929 0.51914 0.63310
 C1194 C 0.45499 0.55035 0.63840
 C1195 C 0.46172 0.57747 0.61735
 C1196 C 0.48181 0.57121 0.58823
 C1197 C 0.49358 0.53812 0.58023
 C1198 C 0.48965 0.51276 0.60518
 H1199 H 0.40697 0.59309 0.67243
 H1200 H 0.37251 0.57072 0.71756
 H1201 H 0.42072 0.47250 0.70412
 H1202 H 0.45074 0.60210 0.62221
 H1203 H 0.48675 0.59175 0.57144
 H1204 H 0.49837 0.48711 0.60098
 C1205 C 0.41105 0.47472 -0.16391
 C1206 C 0.44272 0.46689 -0.17272
 C1207 C 0.45643 0.47689 -0.20342
 C1208 C 0.43623 0.49323 -0.22690
 C1209 C 0.40193 0.49721 -0.22095
 C1210 C 0.38992 0.48927 -0.18760
 O1211 O 0.40428 0.46858 -0.13126
 C1212 C 0.43216 0.45625 -0.11952
 C1213 C 0.45623 0.45362 -0.14405
 C1214 C 0.48781 0.44327 -0.13648
 C1215 C 0.49545 0.43821 -0.10172
 C1216 C 0.47230 0.44629 -0.07524
 C1217 C 0.43957 0.45288 -0.08506
 H1218 H 0.48212 0.47325 -0.20872
 H1219 H 0.44825 0.50222 -0.24949
 H1220 H 0.36454 0.49283 -0.18076
 H1221 H 0.50643 0.44126 -0.15632
 H1222 H 0.52057 0.43309 -0.09543
 H1223 H 0.42125 0.46216 -0.06728
 C1224 C -0.09121 0.98287 0.33449
 C1225 C -0.06323 0.96517 0.32568
 C1226 C -0.05282 0.96101 0.29173
 C1227 C -0.07230 0.97511 0.26600
 C1228 C -0.10151 0.99380 0.27430
 C1229 C -0.11080 0.99725 0.30952
 O1230 O -0.09601 0.98579 0.36812
 C1231 C -0.07049 0.96972 0.38090
 C1232 C -0.04966 0.95638 0.35620
 C1233 C -0.02005 0.94111 0.36441
 C1234 C -0.01077 0.94161 0.39919
 C1235 C -0.03097 0.95745 0.42488
 C1236 C -0.06210 0.96989 0.41531
 H1237 H -0.03062 0.94718 0.28522
 H1238 H -0.06506 0.97065 0.23944
 H1239 H -0.13287 1.01035 0.31774
 H1240 H -0.00373 0.93116 0.34454
 H1241 H 0.01332 0.93244 0.40543
 H1242 H -0.07797 0.98346 0.43332
 C1243 C 0.09128 0.52578 0.34438
 C1244 C 0.06339 0.54468 0.33949
 C1245 C 0.05277 0.55292 0.30683
 C1246 C 0.07082 0.53994 0.27842
 C1247 C 0.09846 0.51820 0.28304
 C1248 C 0.11006 0.51385 0.31680
 O1249 O 0.09515 0.51650 0.37649
 C1250 C 0.06921 0.52965 0.39235
 C1251 C 0.04907 0.54772 0.37133
 C1252 C 0.01895 0.56054 0.38275
 C1253 C 0.00909 0.55358 0.41678
 C1254 C 0.02892 0.53326 0.43817
 C1255 C 0.05951 0.52163 0.42523
 H1256 H 0.03067 0.56758 0.30326
 H1257 H 0.06255 0.54595 0.25292
 H1258 H 0.13170 0.49886 0.32168
 H1259 H 0.00299 0.57404 0.36563
 H1260 H -0.01480 0.56205 0.42549
 H1261 H 0.07457 0.50377 0.43871
 C1262 C 0.58766 0.02736 -0.14977
 C1263 C 0.55597 0.03758 -0.15419
 C1264 C 0.54116 0.03610 -0.18589
 C1265 C 0.56021 0.02543 -0.21423
 C1266 C 0.59458 0.02048 -0.21167
 C1267 C 0.60786 0.01993 -0.17810
 O1268 O 0.59481 0.02240 -0.11708
 C1269 C 0.56719 0.03037 -0.10063
 C1270 C 0.54305 0.04110 -0.12203
 C1271 C 0.51177 0.04908 -0.11038
 C1272 C 0.50467 0.04435 -0.07544
 C1273 C 0.52804 0.02938 -0.05345
 C1274 C 0.56002 0.02313 -0.06656
 H1275 H 0.51527 0.04037 -0.18829
 H1276 H 0.54735 0.02015 -0.23755
 H1277 H 0.63308 0.01299 -0.17422
 H1278 H 0.49313 0.05742 -0.12784
 H1279 H 0.47995 0.04906 -0.06667
 H1280 H 0.57800 0.00906 -0.05252
 C1281 C 0.65790 0.57538 -0.00794
 C1282 C 0.66506 0.54336 0.00290
 C1283 C 0.69500 0.53476 0.01640
 C1284 C 0.71880 0.55957 0.01673
 C1285 C 0.71385 0.59131 0.00023
 C1286 C 0.68179 0.59951 -0.01030
 O1287 O 0.62707 0.57985 -0.01604
 C1288 C 0.61481 0.54970 -0.01133
 C1289 C 0.63705 0.52608 -0.00075
 C1290 C 0.62897 0.49260 0.00420
 C1291 C 0.59666 0.48343 -0.00202
 C1292 C 0.57265 0.50800 -0.01105
 C1293 C 0.58246 0.54183 -0.01444
 H1294 H 0.69969 0.51013 0.02703
 H1295 H 0.74173 0.55332 0.02853
 H1296 H 0.67504 0.62348 -0.02082
 H1297 H 0.64690 0.47415 0.01223
 H1298 H 0.59016 0.45748 0.00173
 H1299 H 0.56564 0.56268 -0.01576
 C1300 C 0.16242 1.07652 0.48017
 C1301 C 0.16895 1.04250 0.47786
 C1302 C 0.20000 1.02881 0.47972
 C1303 C 0.22552 1.05105 0.48373
 C1304 C 0.22024 1.08679 0.48378
 C1305 C 0.18769 1.09937 0.48270
 O1306 O 0.13082 1.08387 0.48140
 C1307 C 0.11733 1.05379 0.47949
 C1308 C 0.13966 1.02774 0.47690
 C1309 C 0.13105 0.99417 0.47554
 C1310 C 0.09794 0.98706 0.47695
 C1311 C 0.07404 1.01333 0.48041
 C1312 C 0.08427 1.04727 0.48185
 H1313 H 0.20432 1.00183 0.47964
 H1314 H 0.24921 1.03983 0.48790
 H1315 H 0.18227 1.12612 0.48479
 H1316 H 0.14920 0.97409 0.47379
 H1317 H 0.09115 0.96089 0.47631
 H1318 H 0.06761 1.06813 0.48640
 C1319 C 0.16455 -0.09306 1.00010
 C1320 C 0.16907 -0.06412 1.01906
 C1321 C 0.19832 -0.05660 1.03417
 C1322 C 0.22439 -0.07925 1.02860
 C1323 C 0.22153 -0.10845 1.00701
 C1324 C 0.19026 -0.11612 0.99420
 O1325 O 0.13467 -0.09510 0.98785
 C1326 C 0.12028 -0.06664 0.99913
 C1327 C 0.14038 -0.04683 1.01823
 C1328 C 0.13090 -0.01541 1.03140
 C1329 C 0.09931 -0.00383 1.02466
 C1330 C 0.07764 -0.02371 1.00517
 C1331 C 0.08852 -0.05583 0.99252
 H1332 H 0.20113 -0.03384 1.04943
 H1333 H 0.24730 -0.07316 1.04011
 H1334 H 0.18603 -0.13893 0.97955
 H1335 H 0.14737 -0.00015 1.04608
 H1336 H 0.09198 0.02071 1.03483
 H1337 H 0.07302 -0.07174 0.97737
 C1338 C 0.67678 0.42580 0.51269
 C1339 C 0.65650 0.40523 0.49484
 C1340 C 0.66535 0.37359 0.48236
 C1341 C 0.69732 0.36312 0.48659
 C1342 C 0.72061 0.38488 0.50141
 C1343 C 0.70927 0.41571 0.51733
 O1344 O 0.66242 0.45505 0.52222
 C1345 C 0.63265 0.45267 0.50937
 C1346 C 0.62849 0.42263 0.49224
 C1347 C 0.60084 0.41458 0.47490
 C1348 C 0.57561 0.43807 0.47581
 C1349 C 0.57749 0.46919 0.49458
 C1350 C 0.60699 0.47672 0.51145
 H1351 H 0.64832 0.35764 0.46928
 H1352 H 0.70418 0.33838 0.47662
 H1353 H 0.72533 0.43187 0.53147
 H1354 H 0.59872 0.39096 0.46092
 H1355 H 0.55416 0.43114 0.46201
 H1356 H 0.60960 0.49993 0.52601
 C1357 C -0.16144 0.41454 0.50604
 C1358 C -0.16817 0.44636 0.49443
 C1359 C -0.19909 0.45665 0.48473
 C1360 C -0.22401 0.43320 0.48729
 C1361 C -0.21811 0.40055 0.50106
 C1362 C -0.18576 0.39123 0.50943
 O1363 O -0.13034 0.40893 0.51230
 C1364 C -0.11708 0.43794 0.50461
 C1365 C -0.13907 0.46183 0.49371
 C1366 C -0.13007 0.49411 0.48481
 C1367 C -0.09715 0.50207 0.48766
 C1368 C -0.07394 0.47771 0.49890
 C1369 C -0.08441 0.44502 0.50696
 H1370 H -0.20365 0.48142 0.47439
 H1371 H -0.24742 0.44037 0.47727
 H1372 H -0.17943 0.36598 0.51747
 H1373 H -0.14777 0.51259 0.47633
 H1374 H -0.08997 0.52725 0.48118
 H1375 H -0.06805 0.42584 0.51649
 C1376 C 0.33975 -0.09836 -0.00054
 C1377 C 0.33493 -0.06740 -0.01515
 C1378 C 0.30519 -0.05677 -0.02768
 C1379 C 0.27903 -0.07838 -0.02400
 C1380 C 0.28222 -0.10957 -0.00640
 C1381 C 0.31383 -0.12025 0.00379
 O1382 O 0.37016 -0.10346 0.00952
 C1383 C 0.38456 -0.07493 0.00140
 C1384 C 0.36398 -0.05199 -0.01348
 C1385 C 0.37346 -0.01984 -0.02227
 C1386 C 0.40549 -0.01086 -0.01532
 C1387 C 0.42765 -0.03402 -0.00015
 C1388 C 0.41681 -0.06688 0.00761
 H1389 H 0.30214 -0.03255 -0.03974
 H1390 H 0.25587 -0.07004 -0.03391
 H1391 H 0.31806 -0.14447 0.01548
 H1392 H 0.35662 -0.00207 -0.03362
 H1393 H 0.41282 0.01422 -0.02198
 H1394 H 0.43254 -0.08538 0.01938
 C1395 C 0.33784 1.08056 0.49748
 C1396 C 0.34124 1.06199 0.46752
 C1397 C 0.31676 1.05919 0.44375
 C1398 C 0.28726 1.07570 0.45143
 C1399 C 0.28187 1.09374 0.48322
 C1400 C 0.30849 1.09712 0.50588
 O1401 O 0.36451 1.08016 0.51626
 C1402 C 0.38498 1.06080 0.49767
 C1403 C 0.37179 1.04892 0.46776
 C1404 C 0.38829 1.02694 0.44528
 C1405 C 0.42003 1.01735 0.45368
 C1406 C 0.43532 1.03099 0.48327
 C1407 C 0.41669 1.05192 0.50624
 H1408 H 0.32024 1.04482 0.42006
 H1409 H 0.26810 1.07346 0.43289
 H1410 H 0.30678 1.11221 0.52923
 H1411 H 0.37700 1.01715 0.42234
 H1412 H 0.43276 0.99966 0.43659
 H1413 H 0.42585 1.06026 0.53062
 C1414 C -0.16742 0.58582 0.99863
 C1415 C -0.16960 0.55364 0.98564
 C1416 C -0.19762 0.54166 0.97105
 C1417 C -0.22495 0.56319 0.97156
 C1418 C -0.22509 0.59487 0.98967
 C1419 C -0.19488 0.60684 1.00160
 O1420 O -0.13761 0.59336 1.00809
 C1421 C -0.12097 0.56489 1.00185
 C1422 C -0.13959 0.53959 0.98899
 C1423 C -0.12741 0.50730 0.98238
 C1424 C -0.09457 0.50092 0.98923
 C1425 C -0.07392 0.52713 1.00064
 C1426 C -0.08780 0.55982 1.00616
 H1427 H -0.19826 0.51691 0.95904
 H1428 H -0.24655 0.55453 0.95895
 H1429 H -0.19244 0.63144 1.01328
 H1430 H -0.14273 0.48756 0.97277
 H1431 H -0.08518 0.47562 0.98436
 H1432 H -0.07355 0.58162 1.01085
 C1433 C -0.01128 0.66739 0.58269
 C1434 C 0.02007 0.65652 0.58727
 C1435 C 0.04195 0.67319 0.60760
 C1436 C 0.03166 0.70348 0.62299
 C1437 C -0.00094 0.71595 0.61970
 C1438 C -0.02304 0.69635 0.60012
 O1439 O -0.02722 0.64805 0.56053
 C1440 C -0.00522 0.62434 0.55146
 C1441 C 0.02374 0.62844 0.56780
 C1442 C 0.04889 0.60509 0.56620
 C1443 C 0.04381 0.57564 0.54759
 C1444 C 0.01551 0.57109 0.52740
 C1445 C -0.00964 0.59624 0.52974
 H1446 H 0.06674 0.66409 0.61007
 H1447 H 0.05015 0.71720 0.63615
 H1448 H -0.04779 0.70506 0.59636
 H1449 H 0.07049 0.60799 0.58140
 H1450 H 0.06124 0.55558 0.55163
 H1451 H -0.03274 0.59278 0.51740
 C1452 C 0.49474 0.16309 0.08489
 C1453 C 0.52059 0.14628 0.09887
 C1454 C 0.53773 0.15848 0.12665
 C1455 C 0.52907 0.19042 0.13965
 C1456 C 0.50445 0.21048 0.12393
 C1457 C 0.48543 0.19507 0.09772
 O1458 O 0.48114 0.14582 0.05929
 C1459 C 0.49915 0.11753 0.05717
 C1460 C 0.52350 0.11704 0.08095
 C1461 C 0.54467 0.09014 0.08487
 C1462 C 0.54032 0.06195 0.06403
 C1463 C 0.51556 0.06076 0.03860
 C1464 C 0.49461 0.08946 0.03519
 H1465 H 0.55708 0.14381 0.13810
 H1466 H 0.54177 0.19914 0.16209
 H1467 H 0.46500 0.20836 0.08663
 H1468 H 0.56324 0.09030 0.10430
 H1469 H 0.55580 0.04045 0.06937
 H1470 H 0.47467 0.08932 0.01736
 C1471 C -0.00094 0.17017 0.91245
 C1472 C 0.01979 0.17400 0.93948
 C1473 C 0.04103 0.20057 0.94174
 C1474 C 0.04018 0.22471 0.91570
 C1475 C 0.01801 0.22270 0.88777
 C1476 C -0.00263 0.19420 0.88647
 O1477 O -0.01803 0.14218 0.91429
 C1478 C -0.00793 0.12816 0.94323
 C1479 C 0.01489 0.14686 0.95986
 C1480 C 0.02919 0.13650 0.99023
 C1481 C 0.02106 0.10478 1.00294
 C1482 C -0.00067 0.08362 0.98501
 C1483 C -0.01640 0.09647 0.95542
 H1484 H 0.05757 0.20285 0.96299
 H1485 H 0.05606 0.24597 0.91796
 H1486 H -0.02044 0.19079 0.86674
 H1487 H 0.04704 0.15171 1.00297
 H1488 H 0.03362 0.09590 1.02542
 H1489 H -0.03272 0.08120 0.94056
 C1490 C 0.51626 0.68084 0.43690
 C1491 C 0.48525 0.67435 0.44736
 C1492 C 0.45825 0.68870 0.43254
 C1493 C 0.46326 0.71149 0.40632
 C1494 C 0.49494 0.72306 0.39719
 C1495 C 0.52198 0.70756 0.41418
 O1496 O 0.53789 0.65902 0.44988
 C1497 C 0.51969 0.63915 0.46941
 C1498 C 0.48768 0.64912 0.46996
 C1499 C 0.46436 0.63406 0.48993
 C1500 C 0.47373 0.60554 0.50796
 C1501 C 0.50465 0.58978 0.50247
 C1502 C 0.52890 0.60847 0.48481
 H1503 H 0.43399 0.68143 0.43984
 H1504 H 0.44152 0.72162 0.39479
 H1505 H 0.54641 0.71632 0.41112
 H1506 H 0.43967 0.64388 0.49152
 H1507 H 0.45573 0.59500 0.52449
 H1508 H 0.55313 0.59812 0.48046
 C1509 C 0.51578 0.83420 0.43217
 C1510 C 0.49001 0.83465 0.45482
 C1511 C 0.46481 0.81229 0.45192
 C1512 C 0.46647 0.78823 0.42503
 C1513 C 0.49356 0.78563 0.40162
 C1514 C 0.51883 0.80938 0.40632
 O1515 O 0.53536 0.85996 0.43688
 C1516 C 0.52170 0.87687 0.46326
 C1517 C 0.49432 0.86204 0.47577
 C1518 C 0.47578 0.87617 0.50270
 C1519 C 0.48471 0.90781 0.51586
 C1520 C 0.51098 0.92548 0.50106
 C1521 C 0.53049 0.90868 0.47528
 H1522 H 0.44405 0.81384 0.46924
 H1523 H 0.44616 0.77181 0.42273
 H1524 H 0.54068 0.80901 0.39073
 H1525 H 0.45434 0.86396 0.51227
 H1526 H 0.46928 0.91970 0.53545
 H1527 H 0.55023 0.92115 0.46248
 C1528 C 0.02196 0.34154 0.91016
 C1529 C 0.00358 0.33614 0.93911
 C1530 C -0.01393 0.30715 0.94375
 C1531 C -0.01174 0.28218 0.91798
 C1532 C 0.00909 0.28525 0.88852
 C1533 C 0.02582 0.31621 0.88472
 O1534 O 0.03438 0.37227 0.90974
 C1535 C 0.02381 0.38625 0.93932
 C1536 C 0.00549 0.36476 0.95845
 C1537 C -0.00775 0.37364 0.99036
 C1538 C -0.00320 0.40652 1.00255
 C1539 C 0.01326 0.43052 0.98230
 C1540 C 0.02788 0.41969 0.95053
 H1541 H -0.02920 0.30402 0.96628
 H1542 H -0.02576 0.25972 0.92146
 H1543 H 0.04166 0.32088 0.86314
 H1544 H -0.02167 0.35601 1.00515
 H1545 H -0.01422 0.41361 1.02708
 H1546 H 0.04057 0.43708 0.93427
 C1547 C 0.47988 0.32774 0.08513
 C1548 C 0.49041 0.31792 0.05279
 C1549 C 0.50354 0.28617 0.04556
 C1550 C 0.50545 0.26335 0.07255
 C1551 C 0.49267 0.27158 0.10608
 C1552 C 0.48062 0.30504 0.11226
 O1553 O 0.47188 0.36031 0.08735
 C1554 C 0.47746 0.37111 0.05567
 C1555 C 0.48854 0.34604 0.03350
 C1556 C 0.49778 0.35200 -0.00032
 C1557 C 0.49637 0.38535 -0.01156
 C1558 C 0.48633 0.41206 0.01114
 C1559 C 0.47592 0.40452 0.04505
 H1560 H 0.51346 0.27968 0.02035
 H1561 H 0.51819 0.23981 0.06709
 H1562 H 0.47297 0.31340 0.13779
 H1563 H 0.50674 0.33182 -0.01715
 H1564 H 0.50453 0.39040 -0.03750
 H1565 H 0.46853 0.42413 0.06333
 C1566 C -0.02858 0.83114 0.57951
 C1567 C -0.01927 0.82036 0.54706
 C1568 C -0.01022 0.78726 0.53980
 C1569 C -0.00994 0.76450 0.56702
 C1570 C -0.01928 0.77442 0.60157
 C1571 C -0.02899 0.80885 0.60704
 O1572 O -0.03282 0.86429 0.58188
 C1573 C -0.02584 0.87453 0.55033
 C1574 C -0.01732 0.84876 0.52792
 C1575 C -0.00616 0.85449 0.49450
 C1576 C -0.00338 0.88816 0.48400
 C1577 C -0.01160 0.91523 0.50690
 C1578 C -0.02369 0.90784 0.54036
 H1579 H -0.00174 0.77954 0.51436
 H1580 H 0.00011 0.73990 0.56063
 H1581 H -0.03369 0.81876 0.63276
 H1582 H 0.00111 0.83380 0.47747
 H1583 H 0.00598 0.89305 0.45848
 H1584 H -0.03015 0.92731 0.55911
 C1585 C 0.22077 0.33587 0.08450
 C1586 C 0.23366 0.30410 0.07914
 C1587 C 0.25717 0.29676 0.05433
 C1588 C 0.26485 0.32232 0.03170
 C1589 C 0.24455 0.35176 0.02957
 C1590 C 0.22490 0.36039 0.05917
 O1591 O 0.20584 0.33936 0.11509
 C1592 C 0.20856 0.30858 0.12828
 C1593 C 0.22361 0.28600 0.10599
 C1594 C 0.22701 0.25209 0.11249
 C1595 C 0.21753 0.24139 0.14490
 C1596 C 0.20996 0.26529 0.17187
 C1597 C 0.20202 0.29896 0.16233
 H1598 H 0.27027 0.27283 0.05352
 H1599 H 0.28438 0.31751 0.01330
 H1600 H 0.21310 0.38485 0.06222
 H1601 H 0.23720 0.23454 0.09348
 H1602 H 0.22134 0.21491 0.14997
 H1603 H 0.19361 0.31757 0.18087
 C1604 C 0.72454 0.83370 0.59037
 C1605 C 0.73675 0.80153 0.58553
 C1606 C 0.76023 0.79357 0.56072
 C1607 C 0.76859 0.81897 0.53789
 C1608 C 0.74944 0.84930 0.53633
 C1609 C 0.72960 0.85804 0.56550
 O1610 O 0.70949 0.83821 0.62051
 C1611 C 0.71121 0.80778 0.63418
 C1612 C 0.72599 0.78413 0.61285
 C1613 C 0.72948 0.75056 0.62145
 C1614 C 0.71980 0.74159 0.65461
 C1615 C 0.71141 0.76689 0.67985
 C1616 C 0.70489 0.80018 0.66843
 H1617 H 0.77259 0.76924 0.55986
 H1618 H 0.78753 0.81355 0.51893
 H1619 H 0.71822 0.88270 0.56875
 H1620 H 0.74015 0.73212 0.60365
 H1621 H 0.72393 0.71564 0.66180
 H1622 H 0.69992 0.82100 0.68575
 C1623 C 0.25755 0.67813 0.57484
 C1624 C 0.24769 0.65690 0.59993
 C1625 C 0.22884 0.62944 0.59382
 C1626 C 0.22225 0.62151 0.55977
 C1627 C 0.23999 0.63641 0.53194
 C1628 C 0.25716 0.66664 0.54025
 O1629 O 0.26990 0.70649 0.58795
 C1630 C 0.26895 0.70140 0.62193
 C1631 C 0.25820 0.67001 0.62952
 C1632 C 0.26419 0.65486 0.66050
 C1633 C 0.27769 0.67489 0.68592
 C1634 C 0.27612 0.71051 0.68350
 C1635 C 0.27564 0.72389 0.64947
 H1636 H 0.21904 0.61488 0.61468
 H1637 H 0.20755 0.59958 0.55662
 H1638 H 0.27293 0.67861 0.52207
 H1639 H 0.26090 0.62815 0.66403
 H1640 H 0.28659 0.66256 0.70820
 H1641 H 0.27725 0.75065 0.64513
 C1642 C 0.76296 0.17652 0.07795
 C1643 C 0.77731 0.15496 0.10055
 C1644 C 0.78026 0.12073 0.09450
 C1645 C 0.76830 0.10813 0.06358
 C1646 C 0.75504 0.12958 0.03771
 C1647 C 0.75343 0.16495 0.04553
 O1648 O 0.75886 0.20760 0.09086
 C1649 C 0.77129 0.20532 0.12217
 C1650 C 0.78396 0.17389 0.12863
 C1651 C 0.79865 0.16577 0.15926
 C1652 C 0.79778 0.19023 0.18544
 C1653 C 0.78002 0.22094 0.18200
 C1654 C 0.76883 0.22956 0.14865
 H1655 H 0.79095 0.10409 0.11322
 H1656 H 0.77206 0.08160 0.05915
 H1657 H 0.74652 0.18385 0.02748
 H1658 H 0.80988 0.14125 0.16314
 H1659 H 0.80991 0.18429 0.20863
 H1660 H 0.75578 0.25296 0.14409
 C1661 C 0.74109 0.15610 0.91295
 C1662 C 0.71962 0.18235 0.91938
 C1663 C 0.70575 0.18791 0.95179
 C1664 C 0.71450 0.16559 0.97820
 C1665 C 0.73812 0.13890 0.97288
 C1666 C 0.75087 0.13461 0.93876
 O1667 O 0.75182 0.15445 0.88080
 C1668 C 0.73711 0.18047 0.86650
 C1669 C 0.71722 0.19879 0.88873
 C1670 C 0.70159 0.22859 0.87882
 C1671 C 0.70790 0.24035 0.84528
 C1672 C 0.72910 0.22198 0.82237
 C1673 C 0.74265 0.19087 0.83321
 H1674 H 0.68830 0.20826 0.95650
 H1675 H 0.70201 0.16876 1.00272
 H1676 H 0.76813 0.11506 0.93127
 H1677 H 0.68634 0.24307 0.89672
 H1678 H 0.69747 0.26435 0.83782
 H1679 H 0.75904 0.17575 0.81707
 C1680 C 0.23587 0.67538 0.42386
 C1681 C 0.22630 0.65234 0.39967
 C1682 C 0.23097 0.61805 0.40347
 C1683 C 0.24385 0.60708 0.43453
 C1684 C 0.24710 0.62957 0.46345
 C1685 C 0.24417 0.66486 0.45701
 O1686 O 0.23604 0.70668 0.41193
 C1687 C 0.22526 0.70304 0.37993
 C1688 C 0.21706 0.67053 0.37222
 C1689 C 0.20218 0.66147 0.34178
 C1690 C 0.19868 0.68634 0.31693
 C1691 C 0.21506 0.71719 0.32035
 C1692 C 0.22560 0.72702 0.35376
 H1693 H 0.22609 0.60042 0.38276
 H1694 H 0.24819 0.58026 0.43719
 H1695 H 0.24684 0.68398 0.47644
 H1696 H 0.19344 0.63628 0.33740
 H1697 H 0.18587 0.68020 0.29383
 H1698 H 0.23692 0.75099 0.35832
 C1699 C 0.76419 0.84448 0.40887
 C1700 C 0.76385 0.81025 0.41272
 C1701 C 0.75229 0.79532 0.44210
 C1702 C 0.74380 0.81649 0.46977
 C1703 C 0.75254 0.85110 0.47026
 C1704 C 0.75985 0.86586 0.43784
 O1705 O 0.76781 0.85320 0.37606
 C1706 C 0.77087 0.82356 0.35947
 C1707 C 0.77032 0.79685 0.38134
 C1708 C 0.77407 0.76368 0.37056
 C1709 C 0.77643 0.75731 0.33533
 C1710 C 0.77149 0.78363 0.31129
 C1711 C 0.77005 0.81761 0.32379
 H1712 H 0.74786 0.76857 0.44289
 H1713 H 0.73123 0.80518 0.49104
 H1714 H 0.76279 0.89274 0.43557
 H1715 H 0.77449 0.74327 0.38869
 H1716 H 0.77838 0.73116 0.32727
 H1717 H 0.76505 0.83844 0.30703
 C1718 C 0.26887 0.34556 0.90357
 C1719 C 0.27214 0.31169 0.90896
 C1720 C 0.25857 0.29632 0.93720
 C1721 C 0.24448 0.31730 0.96261
 C1722 C 0.25038 0.35258 0.96313
 C1723 C 0.25966 0.36717 0.93112
 O1724 O 0.27503 0.35365 0.87098
 C1725 C 0.28371 0.32414 0.85630
 C1726 C 0.28435 0.29841 0.87938
 C1727 C 0.29546 0.26621 0.87116
 C1728 C 0.30355 0.25929 0.83687
 C1729 C 0.29521 0.28269 0.81074
 C1730 C 0.28739 0.31662 0.82098
 H1731 H 0.25701 0.26920 0.93853
 H1732 H 0.23087 0.30545 0.98283
 H1733 H 0.26109 0.39408 0.92816
 H1734 H 0.29761 0.24699 0.89049
 H1735 H 0.31190 0.23388 0.83075
 H1736 H 0.28069 0.33545 0.80242
 C1737 C 0.85734 0.41267 0.75875
 C1738 C 0.83545 0.41543 0.78559
 C1739 C 0.83265 0.44365 0.80679
 C1740 C 0.85201 0.47099 0.79898
 C1741 C 0.87289 0.47072 0.76929
 C1742 C 0.87694 0.43982 0.75031
 O1743 O 0.85551 0.38351 0.74160
 C1744 C 0.83151 0.36803 0.75770
 C1745 C 0.81832 0.38675 0.78456
 C1746 C 0.79159 0.37672 0.80348
 C1747 C 0.77776 0.34602 0.79444
 C1748 C 0.79095 0.32554 0.76710
 C1749 C 0.81879 0.33671 0.74896
 H1750 H 0.81542 0.44502 0.82802
 H1751 H 0.84866 0.49351 0.81466
 H1752 H 0.89378 0.43687 0.72896
 H1753 H 0.78139 0.39226 0.82421
 H1754 H 0.75695 0.33824 0.80930
 H1755 H 0.83032 0.32160 0.72872
 C1756 C 0.34612 0.90565 0.25689
 C1757 C 0.32002 0.91214 0.27849
 C1758 C 0.31540 0.94252 0.29612
 C1759 C 0.33793 0.96771 0.29020
 C1760 C 0.36379 0.96292 0.26572
 C1761 C 0.36864 0.93049 0.25023
 O1762 O 0.34608 0.87497 0.24288
 C1763 C 0.31912 0.86207 0.25560
 C1764 C 0.30217 0.88389 0.27726
 C1765 C 0.27253 0.87610 0.29211
 C1766 C 0.25989 0.84440 0.28444
 C1767 C 0.27710 0.82094 0.26254
 C1768 C 0.30742 0.83017 0.24831
 H1769 H 0.29497 0.94682 0.31351
 H1770 H 0.33444 0.99172 0.30347
 H1771 H 0.38888 0.92457 0.23311
 H1772 H 0.25946 0.89389 0.30880
 H1773 H 0.23686 0.83824 0.29609
 H1774 H 0.32164 0.81312 0.23187
 C1775 C 0.17029 0.92604 0.72286
 C1776 C 0.14738 0.90496 0.73545
 C1777 C 0.11648 0.91504 0.74590
 C1778 C 0.10897 0.94909 0.74528
 C1779 C 0.13261 0.97286 0.73576
 C1780 C 0.16314 0.96076 0.72180
 O1781 O 0.19880 0.91015 0.71626
 C1782 C 0.19350 0.87855 0.72599
 C1783 C 0.16240 0.87514 0.73830
 C1784 C 0.15182 0.84752 0.75516
 C1785 C 0.17363 0.82131 0.75865
 C1786 C 0.20537 0.82074 0.74288
 C1787 C 0.21580 0.85080 0.72685
 H1788 H 0.09901 0.89737 0.75538
 H1789 H 0.08507 0.95707 0.75432
 H1790 H 0.18121 0.97768 0.71219
 H1791 H 0.12776 0.84653 0.76654
 H1792 H 0.16416 0.80058 0.77288
 H1793 H 0.23998 0.85253 0.71596
 C1794 C 0.64727 0.41904 0.23910
 C1795 C 0.67271 0.42282 0.21642
 C1796 C 0.67760 0.45216 0.19862
 C1797 C 0.65605 0.47917 0.20525
 C1798 C 0.62989 0.47697 0.22959
 C1799 C 0.62476 0.44541 0.24539
 O1800 O 0.64816 0.38943 0.25454
 C1801 C 0.67478 0.37450 0.24129
 C1802 C 0.69055 0.39383 0.21774
 C1803 C 0.71937 0.38356 0.20148
 C1804 C 0.73240 0.35181 0.20960
 C1805 C 0.71678 0.33110 0.23398
 C1806 C 0.68754 0.34306 0.25006
 H1807 H 0.69799 0.45461 0.18109
 H1808 H 0.66104 0.50252 0.19262
 H1809 H 0.60456 0.44147 0.26273
 H1810 H 0.73143 0.39944 0.18316
 H1811 H 0.75463 0.34355 0.19668
 H1812 H 0.67525 0.32888 0.26944
 C1813 C 0.64662 0.59761 0.24065
 C1814 C 0.67540 0.59032 0.25663
 C1815 C 0.68356 0.55858 0.26830
 C1816 C 0.66154 0.53296 0.26255
 C1817 C 0.63205 0.53888 0.24442
 C1818 C 0.62403 0.57244 0.23485
 O1819 O 0.64411 0.62954 0.23112
 C1820 C 0.67201 0.64239 0.24122
 C1821 C 0.69191 0.61937 0.25694
 C1822 C 0.72266 0.62691 0.26842
 C1823 C 0.73346 0.65968 0.26357
 C1824 C 0.71352 0.68437 0.24748
 C1825 C 0.68217 0.67522 0.23628
 H1826 H 0.70626 0.55360 0.28114
 H1827 H 0.66804 0.50815 0.27162
 H1828 H 0.60127 0.57875 0.22276
 H1829 H 0.73797 0.60811 0.28041
 H1830 H 0.75751 0.66546 0.27238
 H1831 H 0.66651 0.69275 0.22298
 C1832 C 0.17010 0.09143 0.74194
 C1833 C 0.19687 0.08229 0.76063
 C1834 C 0.20286 0.04944 0.77060
 C1835 C 0.17986 0.02537 0.76179
 C1836 C 0.15171 0.03407 0.74240
 C1837 C 0.14716 0.06803 0.73264
 O1838 O 0.16856 0.12390 0.73520
 C1839 C 0.19487 0.13548 0.74999
 C1840 C 0.21311 0.11129 0.76607
 C1841 C 0.24214 0.11841 0.78233
 C1842 C 0.25332 0.15161 0.78063
 C1843 C 0.23542 0.17668 0.76277
 C1844 C 0.20525 0.16818 0.74823
 H1845 H 0.22388 0.04275 0.78564
 H1846 H 0.18354 0.00028 0.77151
 H1847 H 0.12544 0.07666 0.71985
 H1848 H 0.25620 0.09892 0.79482
 H1849 H 0.27658 0.15721 0.79169
 H1850 H 0.19142 0.18540 0.73266
 C1851 C 0.34657 0.08313 0.24728
 C1852 C 0.31900 0.07513 0.22981
 C1853 C 0.31159 0.04260 0.22040
 C1854 C 0.33307 0.01697 0.23000
 C1855 C 0.36221 0.02365 0.24841
 C1856 C 0.36965 0.05799 0.25524
 O1857 O 0.34727 0.11564 0.25610
 C1858 C 0.31962 0.12808 0.24360
 C1859 C 0.30192 0.10433 0.22673
 C1860 C 0.27221 0.11142 0.21191
 C1861 C 0.25999 0.14449 0.21470
 C1862 C 0.27695 0.16982 0.23305
 C1863 C 0.30721 0.16095 0.24792
 H1864 H 0.28947 0.03695 0.20698
 H1865 H 0.32644 -0.00841 0.22311
 H1866 H 0.39231 0.06515 0.26657
 H1867 H 0.25875 0.09209 0.19879
 H1868 H 0.23675 0.14971 0.20314
 H1869 H 0.32014 0.17816 0.26381
 C1870 C 0.84595 0.59125 0.74764
 C1871 C 0.81407 0.58228 0.75008
 C1872 C 0.80443 0.54917 0.75076
 C1873 C 0.82866 0.52407 0.75062
 C1874 C 0.86219 0.53214 0.75309
 C1875 C 0.87077 0.56656 0.74952
 O1876 O 0.84932 0.62446 0.74522
 C1877 C 0.81885 0.63642 0.74713
 C1878 C 0.79667 0.61153 0.75095
 C1879 C 0.76390 0.61802 0.75638
 C1880 C 0.75345 0.65169 0.75835
 C1881 C 0.77531 0.67867 0.75327
 C1882 C 0.80848 0.67029 0.74613
 H1883 H 0.77903 0.54281 0.75085
 H1884 H 0.82070 0.49837 0.74924
 H1885 H 0.89592 0.57384 0.74947
 H1886 H 0.74702 0.59785 0.76005
 H1887 H 0.72787 0.65635 0.76340
 H1888 H 0.82571 0.68884 0.73920
 C1889 C 0.91100 0.78168 0.17777
 C1890 C 0.91459 0.77065 0.21083
 C1891 C 0.94428 0.76068 0.22375
 C1892 C 0.97123 0.76110 0.20154
 C1893 C 0.96905 0.77242 0.16664
 C1894 C 0.93781 0.78337 0.15529
 O1895 O 0.88008 0.78674 0.16959
 C1896 C 0.86403 0.77851 0.19804
 C1897 C 0.88400 0.76854 0.22407
 C1898 C 0.87221 0.75657 0.25521
 C1899 C 0.83840 0.75485 0.25972
 C1900 C 0.81706 0.76488 0.23325
 C1901 C 0.83040 0.77710 0.20199
 H1902 H 0.94633 0.75073 0.24940
 H1903 H 0.99331 0.74955 0.21094
 H1904 H 0.93356 0.79090 0.12922
 H1905 H 0.88850 0.74825 0.27511
 H1906 H 0.82896 0.74525 0.28364
 H1907 H 0.81525 0.78478 0.18089
 C1908 C 0.43416 0.26463 0.67600
 C1909 C 0.43752 0.24012 0.70031
 C1910 C 0.46540 0.21998 0.70232
 C1911 C 0.49055 0.22524 0.67828
 C1912 C 0.48799 0.25061 0.65267
 C1913 C 0.45921 0.27114 0.65272
 O1914 O 0.40504 0.27947 0.67654
 C1915 C 0.38968 0.26415 0.70184
 C1916 C 0.40845 0.24020 0.71771
 C1917 C 0.39638 0.22069 0.74429
 C1918 C 0.36353 0.22558 0.75421
 C1919 C 0.34321 0.24917 0.73709
 C1920 C 0.35704 0.26874 0.71060
 H1921 H 0.46750 0.20041 0.72126
 H1922 H 0.51213 0.20929 0.67932
 H1923 H 0.45565 0.29173 0.63535
 H1924 H 0.41146 0.20177 0.75639
 H1925 H 0.35366 0.20979 0.77403
 H1926 H 0.34256 0.28568 0.69533
 C1927 C 0.40252 0.74744 0.82641
 C1928 C 0.40643 0.72737 0.79747
 C1929 C 0.43459 0.70931 0.78975
 C1930 C 0.46044 0.71327 0.81195
 C1931 C 0.45871 0.73656 0.84047
 C1932 C 0.42835 0.75247 0.84870
 O1933 O 0.37286 0.76091 0.82946
 C1934 C 0.35822 0.74934 0.80155
 C1935 C 0.37796 0.72918 0.78098
 C1936 C 0.36815 0.71520 0.75004
 C1937 C 0.33614 0.72146 0.74023
 C1938 C 0.31433 0.74033 0.76202
 C1939 C 0.32604 0.75515 0.79282
 H1940 H 0.43667 0.69288 0.76732
 H1941 H 0.48276 0.69963 0.80559
 H1942 H 0.42469 0.76842 0.87122
 H1943 H 0.38451 0.69981 0.73410
 H1944 H 0.32845 0.71009 0.71655
 H1945 H 0.31048 0.76991 0.81019
 C1946 C 0.90896 0.25488 0.32557
 C1947 C 0.91498 0.24251 0.29281
 C1948 C 0.94456 0.22841 0.28271
 C1949 C 0.96934 0.22838 0.30683
 C1950 C 0.96537 0.24483 0.33975
 C1951 C 0.93376 0.25634 0.34975
 O1952 O 0.87822 0.26436 0.33062
 C1953 C 0.86492 0.25818 0.30029
 C1954 C 0.88647 0.24538 0.27608
 C1955 C 0.87776 0.23812 0.24234
 C1956 C 0.84511 0.24325 0.23351
 C1957 C 0.82175 0.25352 0.25886
 C1958 C 0.83237 0.26226 0.29246
 H1959 H 0.94825 0.21710 0.25741
 H1960 H 0.99207 0.21609 0.29929
 H1961 H 0.92855 0.26625 0.37533
 H1962 H 0.89548 0.22894 0.22347
 H1963 H 0.83819 0.23835 0.20730
 H1964 H 0.81575 0.27115 0.31254
 C1965 C 0.07825 0.23297 0.31796
 C1966 C 0.07458 0.25567 0.29186
 C1967 C 0.04864 0.27820 0.29048
 C1968 C 0.02450 0.27582 0.31577
 C1969 C 0.02556 0.25009 0.34116
 C1970 C 0.05433 0.23004 0.34353
 O1971 O 0.10621 0.21589 0.31591
 C1972 C 0.12013 0.22791 0.28779
 C1973 C 0.10166 0.25207 0.27193
 C1974 C 0.11226 0.26905 0.24299
 C1975 C 0.14400 0.26213 0.23102
 C1976 C 0.16453 0.23917 0.24858
 C1977 C 0.15153 0.22052 0.27625
 H1978 H 0.04696 0.29692 0.27062
 H1979 H 0.00381 0.29300 0.31451
 H1980 H 0.05842 0.21289 0.36436
 H1981 H 0.09723 0.28814 0.23109
 H1982 H 0.15327 0.27688 0.21013
 H1983 H 0.16622 0.20306 0.29080
 C1984 C 0.57467 0.75695 0.82487
 C1985 C 0.56890 0.75728 0.79010
 C1986 C 0.53797 0.76173 0.77715
 C1987 C 0.51196 0.76251 0.80082
 C1988 C 0.51709 0.75549 0.83637
 C1989 C 0.54925 0.75681 0.84868
 O1990 O 0.60570 0.75316 0.83217
 C1991 C 0.61970 0.75056 0.80141
 C1992 C 0.59846 0.75210 0.77464
 C1993 C 0.60847 0.74676 0.74050
 C1994 C 0.64202 0.74197 0.73382
 C1995 C 0.66455 0.74512 0.76096
 C1996 C 0.65260 0.74699 0.79537
 H1997 H 0.53392 0.76385 0.74982
 H1998 H 0.48791 0.76627 0.79068
 H1999 H 0.55447 0.75316 0.87559
 H2000 H 0.59118 0.74655 0.71980
 H2001 H 0.65051 0.73902 0.70747
 H2002 H 0.66831 0.74707 0.81743
 C2003 C 0.59813 0.24358 0.67697
 C2004 C 0.59480 0.26901 0.70120
 C2005 C 0.56865 0.29170 0.70152
 C2006 C 0.54479 0.28768 0.67635
 C2007 C 0.54687 0.26121 0.65104
 C2008 C 0.57439 0.23875 0.65192
 O2009 O 0.62550 0.22561 0.68021
 C2010 C 0.63967 0.23995 0.70711
 C2011 C 0.62177 0.26639 0.72118
 C2012 C 0.63266 0.28544 0.74895
 C2013 C 0.66380 0.27793 0.76170
 C2014 C 0.68374 0.25194 0.74648
 C2015 C 0.67066 0.23207 0.71935
 H2016 H 0.56659 0.31179 0.72060
 H2017 H 0.52404 0.30489 0.67692
 H2018 H 0.57729 0.21749 0.63445
 H2019 H 0.61820 0.30624 0.75962
 H2020 H 0.67303 0.29386 0.78201
 H2021 H 0.68505 0.21264 0.70616
 C2022 C 0.08512 0.75080 0.17727
 C2023 C 0.08292 0.77079 0.20638
 C2024 C 0.05744 0.79351 0.21223
 C2025 C 0.03232 0.79399 0.18830
 C2026 C 0.03073 0.76922 0.16114
 C2027 C 0.05903 0.74875 0.15461
 O2028 O 0.11347 0.73441 0.17426
 C2029 C 0.12888 0.74353 0.20266
 C2030 C 0.11078 0.76471 0.22382
 C2031 C 0.12161 0.77562 0.25577
 C2032 C 0.15276 0.76489 0.26590
 C2033 C 0.17334 0.74544 0.24322
 C2034 C 0.16084 0.73520 0.21080
 H2035 H 0.05720 0.81079 0.23404
 H2036 H 0.01279 0.81234 0.19239
 H2037 H 0.06092 0.73124 0.13320
 H2038 H 0.10661 0.79181 0.27235
 H2039 H 0.16149 0.77368 0.29052
 H2040 H 0.17587 0.72260 0.19135
   
