data_POSCAR
  _audit_creation_date              2014-09-24
  _audit_creation_method            'ToBaCCo'
  _symmetry_space_group_name_H-M    'P1'
  _symmetry_Int_Tables_number       1
  _symmetry_cell_setting            triclinic
  loop_
  _symmetry_equiv_pos_as_xyz
 x,y,z
_cell_length_a 72.0311
_cell_length_b 71.8055
_cell_length_c 77.2606
_cell_angle_alpha 89.987900
_cell_angle_beta 90.460900
_cell_angle_gamma 90.320600
loop_
  _atom_site_label
  _atom_site_type_symbol
  _atom_site_fract_x
  _atom_site_fract_y
  _atom_site_fract_z
C1 C 0.39788 -0.02432 0.24936
 C2 C 0.40680 -0.00766 0.24461
 C3 C 0.41610 -0.00651 0.22878
 C4 C 0.41686 -0.02195 0.21767
 C5 C 0.40772 -0.03852 0.22252
 C6 C 0.39802 -0.03993 0.23830
 C7 C 0.40707 0.00844 0.25651
 C8 C 0.41640 0.00709 0.27245
 C9 C 0.41759 0.02247 0.28371
 C10 C 0.40875 0.03917 0.27876
 C11 C 0.39912 0.04071 0.26287
 C12 C 0.39856 0.02524 0.25172
 H13 H 0.39079 -0.02494 0.26167
 H14 H 0.42307 0.00637 0.22536
 H15 H 0.42302 -0.00596 0.27582
 H16 H 0.39140 0.02612 0.23936
 H17 H 0.40819 -0.05037 0.21388
 H18 H 0.40933 0.05110 0.28732
 C19 C 0.10314 -0.02302 0.74736
 C20 C 0.09458 -0.00623 0.75199
 C21 C 0.08543 -0.00483 0.76788
 C22 C 0.08447 -0.02013 0.77916
 C23 C 0.09331 -0.03680 0.77445
 C24 C 0.10280 -0.03841 0.75864
 C25 C 0.09445 0.00979 0.74000
 C26 C 0.08541 0.00821 0.72392
 C27 C 0.08386 0.02368 0.71280
 C28 C 0.09210 0.04069 0.71800
 C29 C 0.10141 0.04246 0.73403
 C30 C 0.10235 0.02689 0.74502
 H31 H 0.11016 -0.02396 0.73505
 H32 H 0.07869 0.00812 0.77120
 H33 H 0.07917 -0.00504 0.72041
 H34 H 0.10918 0.02798 0.75753
 H35 H 0.09279 -0.04859 0.78317
 H36 H 0.09122 0.05270 0.70956
 C37 C 0.60163 0.47253 0.25187
 C38 C 0.59285 0.48914 0.25668
 C39 C 0.58297 0.48998 0.27222
 C40 C 0.58153 0.47424 0.28295
 C41 C 0.59057 0.45775 0.27804
 C42 C 0.60075 0.45672 0.26257
 C43 C 0.59326 0.50540 0.24500
 C44 C 0.58402 0.50444 0.22899
 C45 C 0.58424 0.51964 0.21755
 C46 C 0.59436 0.53571 0.22225
 C47 C 0.60385 0.53688 0.23824
 C48 C 0.60291 0.52171 0.24973
 H49 H 0.60916 0.47203 0.23980
 H50 H 0.57608 0.50282 0.27568
 H51 H 0.57653 0.49182 0.22558
 H52 H 0.61017 0.52227 0.26205
 H53 H 0.58966 0.44562 0.28631
 H54 H 0.59483 0.54743 0.21344
 C55 C 0.90050 0.47798 0.75209
 C56 C 0.90908 0.49470 0.74696
 C57 C 0.91814 0.49567 0.73097
 C58 C 0.91894 0.48002 0.72009
 C59 C 0.91011 0.46344 0.72535
 C60 C 0.90075 0.46224 0.74126
 C61 C 0.90924 0.51105 0.75859
 C62 C 0.91839 0.51003 0.77466
 C63 C 0.91948 0.52565 0.78565
 C64 C 0.91076 0.54227 0.78028
 C65 C 0.90133 0.54349 0.76426
 C66 C 0.90083 0.52777 0.75341
 H67 H 0.89357 0.47734 0.76448
 H68 H 0.92486 0.50858 0.72722
 H69 H 0.92493 0.49705 0.77833
 H70 H 0.89383 0.52843 0.74096
 H71 H 0.91052 0.45137 0.71697
 H72 H 0.91126 0.55437 0.78862
 C73 C 0.25202 0.34817 1.02450
 C74 C 0.25483 0.35902 1.00963
 C75 C 0.27189 0.36831 1.00731
 C76 C 0.28610 0.36698 1.01986
 C77 C 0.28322 0.35558 1.03439
 C78 C 0.26633 0.34595 1.03688
 C79 C 0.24029 0.35976 0.99599
 C80 C 0.22385 0.36997 0.99846
 C81 C 0.21043 0.37115 0.98511
 C82 C 0.21366 0.36177 0.96947
 C83 C 0.22960 0.35102 0.96711
 C84 C 0.24293 0.35007 0.98040
 H85 H 0.23889 0.34091 1.02597
 H86 H 0.27394 0.37670 0.99581
 H87 H 0.22174 0.37723 1.01057
 H88 H 0.25543 0.34201 0.97856
 H89 H 0.29429 0.35426 1.04387
 H90 H 0.20342 0.36233 0.95914
 C91 C 0.74764 0.14938 1.02394
 C92 C 0.74473 0.13874 1.00888
 C93 C 0.72779 0.12913 1.00649
 C94 C 0.71388 0.12989 1.01919
 C95 C 0.71691 0.14104 1.03391
 C96 C 0.73360 0.15105 1.03644
 C97 C 0.75885 0.13917 0.99503
 C98 C 0.77576 0.12955 0.99685
 C99 C 0.78953 0.13095 0.98401
 C100 C 0.78631 0.14267 0.96972
 C101 C 0.76968 0.15262 0.96788
 C102 C 0.75584 0.15047 0.98044
 H103 H 0.76059 0.15701 1.02541
 H104 H 0.72557 0.12104 0.99481
 H105 H 0.77807 0.12093 1.00817
 H106 H 0.74300 0.15818 0.97928
 H107 H 0.70604 0.14197 1.04347
 H108 H 0.79689 0.14416 0.95992
 C109 C 0.24676 0.65061 0.52045
 C110 C 0.24398 0.63916 0.50590
 C111 C 0.22725 0.62904 0.50409
 C112 C 0.21346 0.63007 0.51691
 C113 C 0.21645 0.64188 0.53118
 C114 C 0.23287 0.65235 0.53301
 C115 C 0.25803 0.63908 0.49200
 C116 C 0.27479 0.62925 0.49397
 C117 C 0.28850 0.63005 0.48104
 C118 C 0.28537 0.64137 0.46643
 C119 C 0.26885 0.65150 0.46442
 C120 C 0.25510 0.64997 0.47715
 H121 H 0.25945 0.65872 0.52159
 H122 H 0.22509 0.62035 0.49278
 H123 H 0.27702 0.62093 0.50549
 H124 H 0.24234 0.65781 0.47588
 H125 H 0.20582 0.64306 0.54095
 H126 H 0.29590 0.64237 0.45654
 C127 C 0.75472 0.84678 0.52071
 C128 C 0.75788 0.85747 0.50583
 C129 C 0.77522 0.86624 0.50350
 C130 C 0.78940 0.86467 0.51616
 C131 C 0.78597 0.85350 0.53083
 C132 C 0.76885 0.84438 0.53312
 C133 C 0.74327 0.85878 0.49231
 C134 C 0.72729 0.86964 0.49501
 C135 C 0.71358 0.87109 0.48198
 C136 C 0.71601 0.86129 0.46644
 C137 C 0.73156 0.85002 0.46375
 C138 C 0.74522 0.84886 0.47675
 H139 H 0.74146 0.83980 0.52228
 H140 H 0.77743 0.87443 0.49192
 H141 H 0.72576 0.87711 0.50709
 H142 H 0.75740 0.84035 0.47477
 H143 H 0.79667 0.85182 0.54062
 H144 H 0.70543 0.86203 0.45642
 C145 C -0.02616 0.25327 0.35693
 C146 C -0.00871 0.24565 0.36080
 C147 C -0.00769 0.22766 0.36783
 C148 C -0.02386 0.21749 0.37160
 C149 C -0.04117 0.22579 0.36851
 C150 C -0.04254 0.24360 0.36106
 C151 C 0.00837 0.25710 0.35930
 C152 C 0.00811 0.27586 0.36440
 C153 C 0.02458 0.28624 0.36562
 C154 C 0.04144 0.27772 0.36171
 C155 C 0.04195 0.25907 0.35640
 C156 C 0.02536 0.24894 0.35482
 H157 H -0.02690 0.26700 0.35116
 H158 H 0.00576 0.22193 0.37110
 H159 H -0.00479 0.28209 0.36848
 H160 H 0.02577 0.23450 0.35076
 H161 H -0.05371 0.21811 0.37155
 H162 H 0.05425 0.28564 0.36283
 C163 C -0.02295 0.74377 0.13825
 C164 C -0.00539 0.74819 0.13162
 C165 C -0.00358 0.76289 0.11981
 C166 C -0.01912 0.77297 0.11438
 C167 C -0.03665 0.76812 0.12070
 C168 C -0.03876 0.75373 0.13290
 C169 C 0.01100 0.73688 0.13619
 C170 C 0.00970 0.71739 0.13599
 C171 C 0.02570 0.70634 0.13746
 C172 C 0.04299 0.71521 0.13968
 C173 C 0.04436 0.73467 0.14040
 C174 C 0.02833 0.74544 0.13890
 H175 H -0.02418 0.73261 0.14762
 H176 H 0.00991 0.76623 0.11450
 H177 H -0.00368 0.71094 0.13347
 H178 H 0.02942 0.76049 0.13921
 H179 H -0.04857 0.77615 0.11656
 H180 H 0.05552 0.70701 0.14083
 C181 C 0.47145 0.25391 0.65193
 C182 C 0.48912 0.26084 0.64782
 C183 C 0.49133 0.27977 0.64378
 C184 C 0.47591 0.29162 0.64323
 C185 C 0.45831 0.28437 0.64703
 C186 C 0.45598 0.26554 0.65122
 C187 C 0.50484 0.24792 0.64603
 C188 C 0.50219 0.23095 0.63735
 C189 C 0.51698 0.21872 0.63518
 C190 C 0.53461 0.22357 0.64135
 C191 C 0.53769 0.24084 0.64940
 C192 C 0.52265 0.25284 0.65201
 H193 H 0.46967 0.23929 0.65503
 H194 H 0.50486 0.28499 0.64006
 H195 H 0.48866 0.22729 0.63208
 H196 H 0.52481 0.26610 0.65842
 H197 H 0.44628 0.29335 0.64648
 H198 H 0.54604 0.21411 0.63929
 C199 C 0.48436 0.74963 0.84929
 C200 C 0.50096 0.74400 0.85727
 C201 C 0.50184 0.72658 0.86542
 C202 C 0.48656 0.71439 0.86516
 C203 C 0.47022 0.72003 0.85672
 C204 C 0.46881 0.73783 0.84935
 C205 C 0.51721 0.75658 0.85822
 C206 C 0.51507 0.77525 0.86309
 C207 C 0.53068 0.78659 0.86611
 C208 C 0.54845 0.77911 0.86398
 C209 C 0.55077 0.76054 0.85895
 C210 C 0.53509 0.74942 0.85585
 H211 H 0.48343 0.76333 0.84348
 H212 H 0.51448 0.72265 0.87215
 H213 H 0.50128 0.78063 0.86539
 H214 H 0.53675 0.73502 0.85200
 H215 H 0.45818 0.71092 0.85660
 H216 H 0.56057 0.78777 0.86631
 C217 C -0.27564 0.64436 0.99498
 C218 C -0.25878 0.65280 0.99997
 C219 C -0.25742 0.66223 1.01580
 C220 C -0.27277 0.66350 1.02675
 C221 C -0.28954 0.65487 1.02172
 C222 C -0.29123 0.64508 1.00591
 C223 C -0.24247 0.65240 0.98855
 C224 C -0.24275 0.66237 0.97295
 C225 C -0.22667 0.66391 0.96277
 C226 C -0.21044 0.65469 0.96837
 C227 C -0.20998 0.64450 0.98395
 C228 C -0.22611 0.64355 0.99401
 H229 H -0.27643 0.63714 0.98268
 H230 H -0.24436 0.66876 1.01942
 H231 H -0.25541 0.66941 0.96916
 H232 H -0.22599 0.63615 1.00623
 H233 H -0.30133 0.65578 1.03028
 H234 H -0.19797 0.65558 0.96068
 C235 C -0.27527 0.35130 0.50034
 C236 C -0.25855 0.34263 0.49582
 C237 C -0.25723 0.33317 0.48001
 C238 C -0.27254 0.33200 0.46869
 C239 C -0.28915 0.34090 0.47330
 C240 C -0.29075 0.35079 0.48904
 C241 C -0.24242 0.34300 0.50777
 C242 C -0.24352 0.33400 0.52388
 C243 C -0.22799 0.33329 0.53499
 C244 C -0.21144 0.34215 0.52985
 C245 C -0.21011 0.35142 0.51384
 C246 C -0.22572 0.35160 0.50278
 H247 H -0.27602 0.35858 0.51260
 H248 H -0.24430 0.32643 0.47674
 H249 H -0.25639 0.32723 0.52751
 H250 H -0.22498 0.35844 0.49030
 H251 H -0.30089 0.34015 0.46448
 H252 H -0.19946 0.34179 0.53840
 C253 C 0.22567 -0.14920 -0.00131
 C254 C 0.24249 -0.15765 -0.00582
 C255 C 0.24406 -0.16674 -0.02180
 C256 C 0.22890 -0.16774 -0.03338
 C257 C 0.21219 -0.15895 -0.02870
 C258 C 0.21042 -0.14953 -0.01280
 C259 C 0.25850 -0.15738 0.00626
 C260 C 0.25733 -0.16664 0.02221
 C261 C 0.27280 -0.16754 0.03345
 C262 C 0.28936 -0.15844 0.02849
 C263 C 0.29070 -0.14889 0.01261
 C264 C 0.27517 -0.14862 0.00149
 H265 H 0.22463 -0.14216 0.01105
 H266 H 0.25712 -0.17329 -0.02497
 H267 H 0.24440 -0.17350 0.02555
 H268 H 0.27593 -0.14158 -0.01089
 H269 H 0.20043 -0.15938 -0.03752
 H270 H 0.30135 -0.15880 0.03702
 C271 C 0.22459 1.14408 0.49948
 C272 C 0.24118 1.15273 0.50489
 C273 C 0.24190 1.16224 0.52073
 C274 C 0.22609 1.16345 0.53117
 C275 C 0.20962 1.15453 0.52568
 C276 C 0.20868 1.14475 0.50989
 C277 C 0.25752 1.15302 0.49351
 C278 C 0.25663 1.16274 0.47780
 C279 C 0.27232 1.16434 0.46716
 C280 C 0.28884 1.15546 0.47243
 C281 C 0.28993 1.14543 0.48810
 C282 C 0.27416 1.14450 0.49868
 H283 H 0.22413 1.13692 0.48714
 H284 H 0.25470 1.16910 0.52462
 H285 H 0.24371 1.16942 0.47420
 H286 H 0.27471 1.13710 0.51089
 H287 H 0.19742 1.15530 0.53373
 H288 H 0.30100 1.15636 0.46432
 C289 C 0.09960 0.50262 0.23085
 C290 C 0.11062 0.50580 0.24564
 C291 C 0.12017 0.52287 0.24750
 C292 C 0.11900 0.53662 0.23449
 C293 C 0.10755 0.53324 0.21997
 C294 C 0.09766 0.51643 0.21811
 C295 C 0.11088 0.49167 0.25961
 C296 C 0.12030 0.47470 0.25745
 C297 C 0.11941 0.46075 0.27027
 C298 C 0.10840 0.46384 0.28494
 C299 C 0.09862 0.48054 0.28711
 C300 C 0.10027 0.49457 0.27453
 H301 H 0.09193 0.48964 0.22967
 H302 H 0.12858 0.52531 0.25897
 H303 H 0.12832 0.47247 0.24584
 H304 H 0.09264 0.50744 0.27590
 H305 H 0.10622 0.54381 0.21005
 H306 H 0.10729 0.45310 0.29472
 C307 C -0.09952 0.99627 0.22265
 C308 C -0.11077 0.99399 0.23727
 C309 C -0.12154 0.97771 0.23910
 C310 C -0.12131 0.96366 0.22632
 C311 C -0.10954 0.96609 0.21199
 C312 C -0.09844 0.98218 0.21000
 C313 C -0.10994 1.00800 0.25133
 C314 C -0.11909 1.02521 0.24970
 C315 C -0.11771 1.03876 0.26296
 C316 C -0.10642 1.03483 0.27749
 C317 C -0.09695 1.01788 0.27911
 C318 C -0.09910 1.00436 0.26612
 H319 H -0.09106 1.00874 0.22160
 H320 H -0.13004 0.97611 0.25052
 H321 H -0.12736 1.02785 0.23819
 H322 H -0.09181 0.99124 0.26716
 H323 H -0.10900 0.95531 0.20221
 H324 H -0.10489 1.04502 0.28774
 C325 C 0.40087 0.49855 -0.27626
 C326 C 0.38972 0.49597 -0.26161
 C327 C 0.37943 0.47939 -0.25975
 C328 C 0.38006 0.46544 -0.27254
 C329 C 0.39174 0.46806 -0.28685
 C330 C 0.40238 0.48445 -0.28887
 C331 C 0.39005 0.51010 -0.24764
 C332 C 0.38105 0.52733 -0.24976
 C333 C 0.38206 0.54107 -0.23667
 C334 C 0.39288 0.53734 -0.22178
 C335 C 0.40219 0.52036 -0.21966
 C336 C 0.40038 0.50664 -0.23250
 H337 H 0.40895 0.51127 -0.27735
 H338 H 0.37089 0.47749 -0.24840
 H339 H 0.37318 0.52983 -0.26154
 H340 H 0.40757 0.49350 -0.23108
 H341 H 0.39253 0.45716 -0.29650
 H342 H 0.39414 0.54769 -0.21164
 C343 C 0.60105 0.00543 -0.27006
 C344 C 0.61188 0.00807 -0.25504
 C345 C 0.62156 0.02497 -0.25258
 C346 C 0.62066 0.03913 -0.26517
 C347 C 0.60931 0.03641 -0.27985
 C348 C 0.59927 0.01973 -0.28246
 C349 C 0.61183 -0.00642 -0.24138
 C350 C 0.62154 -0.02322 -0.24356
 C351 C 0.62071 -0.03729 -0.23085
 C352 C 0.60946 -0.03450 -0.21627
 C353 C 0.59943 -0.01796 -0.21407
 C354 C 0.60100 -0.00382 -0.22656
 H355 H 0.59343 -0.00753 -0.27162
 H356 H 0.62986 0.02694 -0.24096
 H357 H 0.62982 -0.02518 -0.25506
 H358 H 0.59325 0.00898 -0.22513
 H359 H 0.60831 0.04747 -0.28933
 H360 H 0.60844 -0.04533 -0.20656
 C361 C -0.00477 0.22970 0.89850
 C362 C -0.01452 0.24590 0.89392
 C363 C -0.03396 0.24518 0.89261
 C364 C -0.04357 0.22837 0.89494
 C365 C -0.03362 0.21221 0.89877
 C366 C -0.01425 0.21280 0.90051
 C367 C -0.00451 0.26292 0.88835
 C368 C 0.01147 0.26145 0.87818
 C369 C 0.02004 0.27737 0.87139
 C370 C 0.01239 0.29488 0.87466
 C371 C -0.00343 0.29667 0.88496
 C372 C -0.01172 0.28064 0.89190
 H373 H 0.01024 0.23001 0.89962
 H374 H -0.04152 0.25739 0.88842
 H375 H 0.01690 0.24784 0.87503
 H376 H -0.02384 0.28189 0.90001
 H377 H -0.04092 0.19907 0.90018
 H378 H 0.01907 0.30721 0.86949
 C379 C 0.49556 0.22265 0.11035
 C380 C 0.50389 0.23988 0.11433
 C381 C 0.52233 0.24032 0.12031
 C382 C 0.53227 0.22381 0.12273
 C383 C 0.52357 0.20673 0.11930
 C384 C 0.50524 0.20604 0.11309
 C385 C 0.49296 0.25726 0.11378
 C386 C 0.47455 0.25720 0.11959
 C387 C 0.46465 0.27384 0.12106
 C388 C 0.47334 0.29068 0.11683
 C389 C 0.49162 0.29096 0.11075
 C390 C 0.50126 0.27421 0.10895
 H391 H 0.48142 0.22214 0.10547
 H392 H 0.52871 0.25348 0.12385
 H393 H 0.46819 0.24428 0.12379
 H394 H 0.51537 0.27442 0.10421
 H395 H 0.53120 0.19392 0.12116
 H396 H 0.46574 0.30359 0.11801
 C397 C -0.00691 0.72326 0.60840
 C398 C 0.00039 0.74092 0.61247
 C399 C 0.01775 0.74220 0.62078
 C400 C 0.02763 0.72615 0.62524
 C401 C 0.01988 0.70865 0.62163
 C402 C 0.00263 0.70708 0.61320
 C403 C -0.01066 0.75797 0.60946
 C404 C -0.02982 0.75780 0.61261
 C405 C -0.04010 0.77439 0.61253
 C406 C -0.03084 0.79123 0.60910
 C407 C -0.01182 0.79153 0.60549
 C408 C -0.00188 0.77487 0.60531
 H409 H -0.02014 0.72211 0.60172
 H410 H 0.02330 0.75570 0.62440
 H411 H -0.03648 0.74484 0.61626
 H412 H 0.01285 0.77517 0.60256
 H413 H 0.02751 0.69621 0.62505
 H414 H -0.03844 0.80421 0.60911
 C415 C 0.49612 0.71900 0.39118
 C416 C 0.48884 0.73687 0.38859
 C417 C 0.46959 0.73915 0.38686
 C418 C 0.45768 0.72362 0.38711
 C419 C 0.46523 0.70583 0.38941
 C420 C 0.48441 0.70342 0.39131
 C421 C 0.50152 0.75286 0.38630
 C422 C 0.51722 0.75093 0.37585
 C423 C 0.52963 0.76574 0.37382
 C424 C 0.52614 0.78275 0.38188
 C425 C 0.51010 0.78518 0.39181
 C426 C 0.49792 0.77007 0.39417
 H427 H 0.51098 0.71719 0.39260
 H428 H 0.46405 0.75289 0.38437
 H429 H 0.51989 0.73783 0.36939
 H430 H 0.48568 0.77165 0.40208
 H431 H 0.45616 0.69374 0.38953
 H432 H 0.53582 0.79418 0.38010
 Zr433 Zr 0.01735 -0.02091 1.02314
 O434 O 0.03920 -0.01414 1.04055
 O435 O 0.00881 -0.04691 1.03246
 O436 O 0.00710 -0.01726 1.04857
 O437 O 0.04407 -0.03888 0.99022
 O438 O -0.01481 0.00540 1.04551
 O439 O 0.04081 -0.03834 1.01959
 O440 O -0.01721 -0.05346 1.01646
 O441 O -0.01155 -0.01842 1.02097
 O442 O 0.00943 -0.03512 1.00060
 O443 O 0.01203 0.00789 1.02232
 O444 O 0.03236 -0.00825 1.00289
 Zr445 Zr -0.01098 0.00923 0.97600
 Zr446 Zr -0.01672 0.01016 1.01875
 Zr447 Zr 0.02295 -0.02183 0.98039
 Zr448 Zr -0.01910 -0.03185 0.99804
 O449 O 0.04871 -0.01379 0.96963
 O450 O -0.04490 -0.03321 1.01103
 O451 O -0.00583 -0.01972 0.97664
 O452 O -0.02567 -0.00358 0.99626
 O453 O -0.00319 0.02383 0.99844
 O454 O 0.01783 0.00656 0.97845
 C455 C -0.00521 -0.05719 1.02838
 C456 C 0.04897 -0.04367 1.00561
 C457 C -0.00529 -0.00614 1.05463
 O458 O -0.04330 0.00288 1.02816
 O459 O -0.03676 0.02870 1.00908
 O460 O -0.03315 0.02820 0.97975
 C461 C -0.04141 0.03364 0.99364
 O462 O 0.04778 0.02067 1.01935
 Zr463 Zr 0.02543 0.02011 1.00121
 O464 O -0.00139 0.03463 0.96605
 O465 O -0.01292 0.03600 1.03149
 O466 O 0.02231 0.04465 1.01615
 O467 O 0.05110 0.02288 0.98816
 O468 O 0.02299 0.04249 0.98371
 C469 C 0.01202 0.04542 0.97080
 O470 O -0.03400 0.00347 0.95961
 O471 O 0.02028 -0.04842 0.96875
 O472 O -0.00283 0.00346 0.95021
 O473 O 0.01883 -0.01936 0.95361
 O474 O -0.01652 -0.05711 0.98407
 O475 O -0.04020 -0.03376 0.97872
 C476 C 0.00875 -0.00855 0.94425
 H477 H 0.01278 -0.04847 1.00076
 H478 H -0.03925 -0.00246 0.99453
 H479 H 0.02472 0.01179 0.96852
 H480 H 0.01618 0.01404 1.03316
 H481 H -0.04934 -0.04628 1.01045
 H482 H -0.04710 0.01294 1.03616
 H483 H -0.02430 0.03823 1.03829
 H484 H 0.03167 0.05380 1.01210
 H485 H -0.02604 -0.06588 0.98850
 H486 H 0.03170 -0.05052 0.96197
 H487 H 0.05240 -0.02387 0.96163
 H488 H 0.05528 0.03599 0.98943
 H489 H -0.04835 -0.04456 0.98120
 H490 H -0.03495 0.01388 0.95120
 H491 H 0.04033 -0.02469 1.04877
 H492 H 0.05407 0.03295 1.01888
 Zr493 Zr 0.51698 0.47889 0.52521
 O494 O 0.54006 0.48815 0.54005
 O495 O 0.50952 0.45462 0.53829
 O496 O 0.50850 0.48528 0.55071
 O497 O 0.54092 0.45663 0.49270
 O498 O 0.48586 0.50711 0.54695
 O499 O 0.54027 0.46113 0.52195
 O500 O 0.48160 0.44683 0.52599
 O501 O 0.48799 0.48105 0.52481
 O502 O 0.50736 0.46170 0.50516
 O503 O 0.51115 0.50737 0.52180
 O504 O 0.53007 0.48880 0.50267
 Zr505 Zr 0.48449 0.50261 0.47740
 Zr506 Zr 0.48216 0.50909 0.52000
 Zr507 Zr 0.51894 0.47233 0.48261
 Zr508 Zr 0.47868 0.46462 0.50432
 O509 O 0.54378 0.47862 0.46932
 O510 O 0.45341 0.46498 0.51821
 O511 O 0.48994 0.47391 0.48075
 O512 O 0.47161 0.49247 0.49990
 O513 O 0.49387 0.52005 0.49745
 O514 O 0.51341 0.50030 0.47813
 C515 C 0.49459 0.44481 0.53739
 C516 C 0.54726 0.45398 0.50810
 C517 C 0.49611 0.49658 0.55647
 O518 O 0.45636 0.50313 0.53177
 O519 O 0.46124 0.52631 0.50969
 O520 O 0.46260 0.52198 0.48046
 C521 C 0.45542 0.52926 0.49414
 O522 O 0.54633 0.51960 0.51500
 Zr523 Zr 0.52267 0.51675 0.49858
 O524 O 0.49272 0.52666 0.46412
 O525 O 0.48683 0.53622 0.52981
 O526 O 0.52032 0.54308 0.51075
 O527 O 0.54727 0.51808 0.48371
 O528 O 0.51866 0.53647 0.47873
 C529 C 0.50651 0.53782 0.46651
 O530 O 0.46037 0.49437 0.46348
 O531 O 0.51510 0.44453 0.47415
 O532 O 0.49101 0.49431 0.45186
 O533 O 0.51305 0.47196 0.45594
 O534 O 0.48084 0.43725 0.49426
 O535 O 0.45675 0.45971 0.48630
 C536 C 0.50245 0.48197 0.44627
 H537 H 0.51082 0.44849 0.50678
 H538 H 0.45793 0.49335 0.49895
 H539 H 0.51951 0.50431 0.46731
 H540 H 0.51604 0.51482 0.53162
 H541 H 0.44915 0.45190 0.51947
 H542 H 0.45312 0.51411 0.53889
 H543 H 0.47597 0.53927 0.53706
 H544 H 0.52919 0.55165 0.50503
 H545 H 0.47180 0.42936 0.50055
 H546 H 0.52591 0.44144 0.46686
 H547 H 0.54684 0.46753 0.46228
 H548 H 0.55139 0.53127 0.48342
 H549 H 0.44912 0.44904 0.49026
 H550 H 0.45850 0.50358 0.45407
 H551 H 0.54204 0.47881 0.54933
 H552 H 0.55220 0.53191 0.51306
 Zr553 Zr 0.48503 1.02041 0.52816
 O554 O 0.46345 1.01148 0.54469
 O555 O 0.49257 1.04596 0.53918
 O556 O 0.49536 1.01634 0.55365
 O557 O 0.45703 1.03772 0.49551
 O558 O 0.51931 0.99601 0.55014
 O559 O 0.46079 1.03692 0.52488
 O560 O 0.51684 1.05590 0.52264
 O561 O 0.51403 1.02022 0.52619
 O562 O 0.49171 1.03597 0.50615
 O563 O 0.49249 0.99216 0.52659
 O564 O 0.47081 1.00742 0.50739
 Zr565 Zr 0.51516 0.99421 0.48051
 Zr566 Zr 0.52132 0.99223 0.52327
 Zr567 Zr 0.47905 1.02239 0.48538
 Zr568 Zr 0.52037 1.03499 0.50375
 O569 O 0.45377 1.01281 0.47433
 O570 O 0.54604 1.03798 0.51713
 O571 O 0.50787 1.02263 0.48188
 O572 O 0.52906 1.00737 0.50127
 O573 O 0.50864 0.97838 0.50246
 O574 O 0.48625 0.99452 0.48268
 C575 C 0.50545 1.05762 0.53528
 C576 C 0.45219 1.04208 0.51095
 C577 C 0.50876 1.00622 0.55950
 O578 O 0.54744 1.00115 0.53301
 O579 O 0.54241 0.97532 0.51324
 O580 O 0.53854 0.97671 0.48391
 C581 C 0.54713 0.97116 0.49769
 O582 O 0.45747 0.97718 0.52263
 Zr583 Zr 0.47984 0.97974 0.50499
 O584 O 0.50798 0.96823 0.47009
 O585 O 0.51954 0.96585 0.53535
 O586 O 0.48454 0.95516 0.51957
 O587 O 0.45461 0.97520 0.49125
 O588 O 0.48441 0.95795 0.48728
 C589 C 0.49579 0.95610 0.47467
 O590 O 0.53753 1.00245 0.46457
 O591 O 0.47967 1.04939 0.47437
 O592 O 0.50626 0.99991 0.45479
 O593 O 0.48302 1.02097 0.45856
 O594 O 0.51575 1.06034 0.49034
 O595 O 0.54120 1.03910 0.48477
 C596 C 0.49375 1.01118 0.44901
 H597 H 0.48749 1.04905 0.50676
 H598 H 0.54268 1.00728 0.49964
 H599 H 0.47977 0.98899 0.47256
 H600 H 0.48887 0.98535 0.53720
 H601 H 0.54943 1.05138 0.51695
 H602 H 0.55205 0.99115 0.54076
 H603 H 0.53113 0.96426 0.54219
 H604 H 0.47585 0.94549 0.51517
 H605 H 0.52458 1.06970 0.49509
 H606 H 0.46806 1.05082 0.46754
 H607 H 0.44926 1.02282 0.46657
 H608 H 0.45154 0.96177 0.49214
 H609 H 0.54850 1.05043 0.48764
 H610 H 0.53930 0.99244 0.45590
 H611 H 0.46164 1.02149 0.55335
 H612 H 0.45196 0.96455 0.52169
 Zr613 Zr -0.01823 0.51803 1.03063
 O614 O -0.04129 0.50955 1.04556
 O615 O -0.00947 0.54178 1.04392
 O616 O -0.00947 0.51120 1.05607
 O617 O -0.04183 0.54168 0.99840
 O618 O 0.01257 0.48889 1.05211
 O619 O -0.04096 0.53656 1.02757
 O620 O 0.01861 0.54839 1.03178
 O621 O 0.01064 0.51486 1.03005
 O622 O -0.00846 0.53505 1.01065
 O623 O -0.01349 0.48939 1.02713
 O624 O -0.03219 0.50880 1.00813
 Zr625 Zr 0.01222 0.49349 0.98253
 Zr626 Zr 0.01536 0.48668 1.02512
 Zr627 Zr -0.02092 0.52499 0.98809
 Zr628 Zr 0.02005 0.53111 1.00962
 O629 O -0.04641 0.51979 0.97509
 O630 O 0.04585 0.52974 1.02299
 O631 O 0.00794 0.52236 0.98606
 O632 O 0.02598 0.50305 1.00501
 O633 O 0.00273 0.47629 1.00258
 O634 O -0.01657 0.49683 0.98348
 C635 C 0.00598 0.55073 1.04330
 C636 C -0.04780 0.54427 1.01383
 C637 C 0.00283 0.49965 1.06172
 O638 O 0.04169 0.49157 1.03668
 O639 O 0.03538 0.46881 1.01463
 O640 O 0.03371 0.47362 0.98544
 C641 C 0.04092 0.46602 0.99906
 O642 O -0.04932 0.47879 1.02043
 Zr643 Zr -0.02589 0.48062 1.00395
 O644 O 0.00284 0.46970 0.96928
 O645 O 0.00992 0.45972 1.03491
 O646 O -0.02431 0.45421 1.01613
 O647 O -0.05080 0.48005 0.98912
 O648 O -0.02296 0.46074 0.98418
 C649 C -0.01122 0.45898 0.97185
 O650 O 0.03617 0.50095 0.96835
 O651 O -0.01606 0.55259 0.97959
 O652 O 0.00532 0.50213 0.95705
 O653 O -0.01590 0.52514 0.96133
 O654 O 0.01848 0.55877 1.00011
 O655 O 0.04149 0.53550 0.99130
 C656 C -0.00588 0.51483 0.95155
 H657 H -0.01137 0.54837 1.01244
 H658 H 0.03959 0.50173 1.00397
 H659 H -0.02308 0.49306 0.97270
 H660 H -0.01840 0.48208 1.03697
 H661 H 0.05059 0.54266 1.02428
 H662 H 0.04469 0.48047 1.04377
 H663 H 0.02082 0.45627 1.04211
 H664 H -0.03367 0.44601 1.01049
 H665 H 0.02795 0.56620 1.00645
 H666 H -0.02693 0.55620 0.97242
 H667 H -0.04924 0.53103 0.96813
 H668 H -0.05541 0.46701 0.98896
 H669 H 0.04947 0.54602 0.99511
 H670 H 0.03747 0.49168 0.95891
 H671 H -0.04271 0.51890 1.05489
 H672 H -0.05565 0.46666 1.01862
 Zr673 Zr -0.01578 0.47894 0.47506
 O674 O -0.03820 0.48673 0.45878
 O675 O -0.00730 0.45416 0.46357
 O676 O -0.00624 0.48420 0.44962
 O677 O -0.04128 0.45815 0.50754
 O678 O 0.01623 0.50645 0.45336
 O679 O -0.03910 0.46095 0.47818
 O680 O 0.01969 0.44730 0.47784
 O681 O 0.01315 0.48158 0.47668
 O682 O -0.00720 0.46317 0.49642
 O683 O -0.01028 0.50766 0.47724
 O684 O -0.03012 0.48996 0.49639
 Zr685 Zr 0.01402 0.50610 0.52301
 Zr686 Zr 0.01856 0.50996 0.48029
 Zr687 Zr -0.02003 0.47495 0.51780
 Zr688 Zr 0.02139 0.46661 0.49846
 O689 O -0.04562 0.48165 0.52946
 O690 O 0.04734 0.46654 0.48568
 O691 O 0.00884 0.47715 0.52092
 O692 O 0.02809 0.49479 0.50170
 O693 O 0.00564 0.52209 0.50164
 O694 O -0.01484 0.50325 0.52107
 C695 C 0.00746 0.44451 0.46585
 C696 C -0.04674 0.45446 0.49203
 C697 C 0.00637 0.49541 0.44389
 O698 O 0.04495 0.50369 0.47002
 O699 O 0.03883 0.52810 0.49053
 O700 O 0.03618 0.52542 0.51985
 C701 C 0.04399 0.53195 0.50611
 O702 O -0.04591 0.51958 0.48183
 Zr703 Zr -0.02305 0.51823 0.49935
 O704 O 0.00496 0.53081 0.53453
 O705 O 0.01438 0.53642 0.46891
 O706 O -0.02027 0.54376 0.48579
 O707 O -0.04835 0.52008 0.51310
 O708 O -0.02006 0.53935 0.51808
 C709 C -0.00865 0.54164 0.53079
 O710 O 0.03735 0.49923 0.53853
 O711 O -0.01656 0.44780 0.52796
 O712 O 0.00623 0.49907 0.54863
 O713 O -0.01561 0.47626 0.54467
 O714 O 0.01877 0.43994 0.51002
 O715 O 0.04242 0.46326 0.51765
 C716 C -0.00546 0.48687 0.55431
 H717 H -0.01050 0.44982 0.49534
 H718 H 0.04171 0.49593 0.50321
 H719 H -0.02151 0.50781 0.53137
 H720 H -0.01469 0.51445 0.46685
 H721 H 0.05174 0.45349 0.48539
 H722 H 0.04856 0.51427 0.46249
 H723 H 0.02558 0.53918 0.46198
 H724 H -0.02950 0.55250 0.49057
 H725 H 0.02818 0.43179 0.50466
 H726 H -0.02776 0.44498 0.53487
 H727 H -0.04905 0.47096 0.53693
 H728 H -0.05253 0.53319 0.51250
 H729 H 0.05027 0.45247 0.51465
 H730 H 0.03866 0.50908 0.54747
 H731 H -0.03962 0.47681 0.44992
 H732 H -0.05200 0.53185 0.48289
 Zr733 Zr 0.48401 -0.01967 -0.02643
 O734 O 0.46170 -0.01176 -0.04279
 O735 O 0.49235 -0.04454 -0.03783
 O736 O 0.49377 -0.01447 -0.05180
 O737 O 0.45842 -0.04050 0.00596
 O738 O 0.51620 0.00780 -0.04797
 O739 O 0.46067 -0.03767 -0.02339
 O740 O 0.51933 -0.05137 -0.02352
 O741 O 0.51295 -0.01704 -0.02470
 O742 O 0.49252 -0.03545 -0.00505
 O743 O 0.48955 0.00906 -0.02418
 O744 O 0.46960 -0.00865 -0.00513
 Zr745 Zr 0.51364 0.00740 0.02168
 Zr746 Zr 0.51838 0.01133 -0.02103
 Zr747 Zr 0.47961 -0.02370 0.01628
 Zr748 Zr 0.52109 -0.03204 -0.00292
 O749 O 0.45398 -0.01696 0.02787
 O750 O 0.54703 -0.03210 -0.01571
 O751 O 0.50846 -0.02154 0.01951
 O752 O 0.52780 -0.00388 0.00041
 O753 O 0.50538 0.02344 0.00031
 O754 O 0.48480 0.00458 0.01963
 C755 C 0.50707 -0.05423 -0.03547
 C756 C 0.45303 -0.04421 -0.00955
 C757 C 0.50642 -0.00328 -0.05748
 O758 O 0.54483 0.00508 -0.03121
 O759 O 0.53868 0.02942 -0.01067
 O760 O 0.53581 0.02673 0.01863
 C761 C 0.54374 0.03324 0.00494
 O762 O 0.45395 0.02107 -0.01975
 Zr763 Zr 0.47669 0.01962 -0.00210
 O764 O 0.50448 0.03205 0.03326
 O765 O 0.51426 0.03781 -0.03239
 O766 O 0.47961 0.04518 -0.01557
 O767 O 0.45131 0.02142 0.01151
 O768 O 0.47956 0.04067 0.01671
 C769 C 0.49087 0.04288 0.02951
 O770 O 0.53694 0.00054 0.03727
 O771 O 0.48296 -0.05088 0.02642
 O772 O 0.50581 0.00024 0.04727
 O773 O 0.48400 -0.02255 0.04315
 O774 O 0.51847 -0.05870 0.00866
 O775 O 0.54211 -0.03545 0.01627
 C776 C 0.49414 -0.01202 0.05286
 H777 H 0.48921 -0.04880 -0.00612
 H778 H 0.54141 -0.00275 0.00197
 H779 H 0.47809 0.00910 0.02993
 H780 H 0.48520 0.01586 -0.03458
 H781 H 0.55141 -0.04516 -0.01606
 H782 H 0.54845 0.01566 -0.03873
 H783 H 0.52549 0.04057 -0.03927
 H784 H 0.47037 0.05393 -0.01081
 H785 H 0.52785 -0.06687 0.00328
 H786 H 0.47173 -0.05370 0.03328
 H787 H 0.45052 -0.02763 0.03534
 H788 H 0.44713 0.03453 0.01093
 H789 H 0.55001 -0.04618 0.01321
 H790 H 0.53819 0.01038 0.04623
 H791 H 0.46029 -0.02168 -0.05165
 H792 H 0.44787 0.03334 -0.01867
 Zr793 Zr 0.51367 0.51795 -0.02840
 O794 O 0.53501 0.50984 -0.04545
 O795 O 0.50474 0.54291 -0.03951
 O796 O 0.50279 0.51312 -0.05354
 O797 O 0.54204 0.53698 0.00330
 O798 O 0.47940 0.49206 -0.04922
 O799 O 0.53748 0.53548 -0.02596
 O800 O 0.48077 0.55199 -0.02230
 O801 O 0.48479 0.51643 -0.02561
 O802 O 0.50712 0.53348 -0.00638
 O803 O 0.50726 0.48940 -0.02639
 O804 O 0.52895 0.50588 -0.00789
 Zr805 Zr 0.48599 0.49087 0.02030
 Zr806 Zr 0.47859 0.48816 -0.02227
 Zr807 Zr 0.52089 0.52076 0.01417
 Zr808 Zr 0.47862 0.53114 -0.00314
 O809 O 0.54686 0.51262 0.02460
 O810 O 0.45246 0.53278 -0.01582
 O811 O 0.49221 0.51961 0.01849
 O812 O 0.47102 0.50316 -0.00020
 O813 O 0.49237 0.47507 -0.00167
 O814 O 0.51478 0.49263 0.01727
 C815 C 0.49161 0.55402 -0.03533
 C816 C 0.54634 0.54122 -0.01234
 C817 C 0.48938 0.50258 -0.05895
 O818 O 0.45183 0.49567 -0.03128
 O819 O 0.45844 0.47042 -0.01152
 O820 O 0.46320 0.47214 0.01769
 C821 C 0.45432 0.46618 0.00417
 O822 O 0.54258 0.47579 -0.02352
 Zr823 Zr 0.52100 0.47782 -0.00502
 O824 O 0.49498 0.46575 0.03118
 O825 O 0.48098 0.46184 -0.03431
 O826 O 0.51628 0.45268 -0.01881
 O827 O 0.54708 0.47487 0.00760
 O828 O 0.51844 0.45644 0.01351
 C829 C 0.50786 0.45444 0.02672
 O830 O 0.46373 0.49807 0.03668
 O831 O 0.51948 0.54782 0.02493
 O832 O 0.49532 0.49749 0.04569
 O833 O 0.51793 0.51931 0.04113
 O834 O 0.48275 0.55682 0.00992
 O835 O 0.45827 0.53446 0.01638
 C836 C 0.50775 0.50922 0.05104
 H837 H 0.51087 0.54673 -0.00727
 H838 H 0.45748 0.50244 0.00182
 H839 H 0.52187 0.48767 0.02726
 H840 H 0.51076 0.48264 -0.03704
 H841 H 0.44858 0.54600 -0.01564
 H842 H 0.44735 0.48541 -0.03885
 H843 H 0.46923 0.45964 -0.04078
 H844 H 0.52544 0.44347 -0.01454
 H845 H 0.47345 0.56572 0.00534
 H846 H 0.53123 0.54994 0.03141
 H847 H 0.55122 0.52294 0.03214
 H848 H 0.55070 0.46161 0.00675
 H849 H 0.45050 0.54543 0.01363
 H850 H 0.46269 0.48813 0.04555
 H851 H 0.53621 0.51984 -0.05424
 H852 H 0.54831 0.46331 -0.02277
 Zr853 Zr 0.01538 1.01617 0.46897
 O854 O 0.03757 1.00841 0.45274
 O855 O 0.00656 1.04088 0.45735
 O856 O 0.00550 1.01044 0.44364
 O857 O 0.04112 1.03782 0.50115
 O858 O -0.01674 0.98807 0.44758
 O859 O 0.03855 1.03442 0.47184
 O860 O -0.02012 1.04774 0.47173
 O861 O -0.01350 1.01319 0.47059
 O862 O 0.00694 1.03210 0.49015
 O863 O 0.01030 0.98741 0.47154
 O864 O 0.03025 1.00564 0.49043
 Zr865 Zr -0.01318 0.98935 0.51726
 Zr866 Zr -0.01847 0.98479 0.47457
 Zr867 Zr 0.02033 1.02084 0.51163
 Zr868 Zr -0.02156 1.02832 0.49222
 O869 O 0.04621 1.01458 0.52337
 O870 O -0.04751 1.02787 0.47906
 O871 O -0.00845 1.01831 0.51479
 O872 O -0.02782 1.00011 0.49582
 O873 O -0.00500 0.97315 0.49610
 O874 O 0.01559 0.99254 0.51531
 C875 C -0.00804 1.05068 0.45982
 C876 C 0.04627 1.04130 0.48559
 C877 C -0.00711 0.99908 0.43800
 O878 O -0.04516 0.99046 0.46426
 O879 O -0.03834 0.96656 0.48512
 O880 O -0.03492 0.96947 0.51440
 C881 C -0.04299 0.96273 0.50077
 O882 O 0.04611 0.97592 0.47621
 Zr883 Zr 0.02361 0.97731 0.49378
 O884 O -0.00346 0.96510 0.52925
 O885 O -0.01410 0.95825 0.46349
 O886 O 0.02084 0.95152 0.48063
 O887 O 0.04921 0.97606 0.50747
 O888 O 0.02131 0.95648 0.51288
 C889 C 0.01020 0.95436 0.52569
 O890 O -0.03646 0.99604 0.53258
 O891 O 0.01681 1.04810 0.52145
 O892 O -0.00521 0.99703 0.54278
 O893 O 0.01626 1.02004 0.53848
 O894 O -0.01929 1.05502 0.50379
 O895 O -0.04255 1.03152 0.51115
 C896 C 0.00633 1.00955 0.54827
 H897 H 0.01006 1.04548 0.48899
 H898 H -0.04139 0.99879 0.49735
 H899 H 0.02249 0.98827 0.52569
 H900 H 0.01461 0.98054 0.46122
 H901 H -0.05210 1.04084 0.47856
 H902 H -0.04871 0.97973 0.45685
 H903 H -0.02541 0.95522 0.45664
 H904 H 0.03027 0.94297 0.48553
 H905 H -0.02889 1.06303 0.49837
 H906 H 0.02811 1.05114 0.52832
 H907 H 0.04963 1.02539 0.53073
 H908 H 0.05356 0.96300 0.50707
 H909 H -0.05072 1.04201 0.50785
 H910 H -0.03744 0.98635 0.54169
 H911 H 0.03874 1.01824 0.44379
 H912 H 0.05238 0.96375 0.47745
 Zr913 Zr 0.73129 0.26553 0.22416
 O914 O 0.73861 0.28828 0.20814
 O915 O 0.70667 0.25633 0.21245
 O916 O 0.73665 0.25618 0.19868
 O917 O 0.71017 0.29038 0.25676
 O918 O 0.75938 0.23444 0.20227
 O919 O 0.71294 0.28834 0.22740
 O920 O 0.70025 0.22916 0.22660
 O921 O 0.73447 0.23659 0.22548
 O922 O 0.71578 0.25636 0.24533
 O923 O 0.76003 0.26092 0.22651
 O924 O 0.74205 0.28015 0.24572
 Zr925 Zr 0.75897 0.23627 0.27200
 Zr926 Zr 0.76287 0.23206 0.22922
 Zr927 Zr 0.72729 0.26951 0.26691
 Zr928 Zr 0.71977 0.22780 0.24710
 O929 O 0.73356 0.29530 0.27893
 O930 O 0.72013 0.20193 0.23385
 O931 O 0.73003 0.24062 0.26975
 O932 O 0.74797 0.22193 0.25044
 O933 O 0.77474 0.24525 0.25083
 O934 O 0.75559 0.26513 0.27036
 C935 C 0.69717 0.24136 0.21472
 C936 C 0.70636 0.29577 0.24128
 C937 C 0.74810 0.24397 0.19286
 O938 O 0.75711 0.20548 0.21854
 O939 O 0.78125 0.21217 0.23936
 O940 O 0.77867 0.21463 0.26870
 C941 C 0.78522 0.20703 0.25489
 O942 O 0.77137 0.29693 0.23156
 Zr943 Zr 0.77038 0.27392 0.24885
 O944 O 0.78338 0.24610 0.28381
 O945 O 0.78918 0.23710 0.21814
 O946 O 0.79589 0.27190 0.23550
 O947 O 0.77163 0.29931 0.26285
 O948 O 0.79147 0.27155 0.26777
 C949 C 0.79392 0.26010 0.28037
 O950 O 0.75265 0.21257 0.28721
 O951 O 0.70028 0.26528 0.27681
 O952 O 0.75174 0.24371 0.29766
 O953 O 0.72856 0.26490 0.29371
 O954 O 0.69325 0.22949 0.25872
 O955 O 0.71696 0.20640 0.26593
 C956 C 0.73928 0.25499 0.30335
 H957 H 0.70241 0.25928 0.24424
 H958 H 0.74936 0.20830 0.25178
 H959 H 0.75999 0.27190 0.28079
 H960 H 0.76670 0.26559 0.21621
 H961 H 0.70721 0.19712 0.23344
 H962 H 0.76773 0.20223 0.21106
 H963 H 0.79217 0.22599 0.21111
 H964 H 0.80444 0.28139 0.24045
 H965 H 0.68526 0.21983 0.25326
 H966 H 0.69728 0.27641 0.28382
 H967 H 0.72286 0.29840 0.28636
 H968 H 0.78462 0.30392 0.26246
 H969 H 0.70641 0.19816 0.26272
 H970 H 0.76250 0.21156 0.29621
 H971 H 0.72869 0.28943 0.19923
 H972 H 0.78348 0.30341 0.23284
 Zr973 Zr 0.77283 0.73603 0.72356
 O974 O 0.76428 0.71265 0.70879
 O975 O 0.79637 0.74471 0.71020
 O976 O 0.76563 0.74430 0.69810
 O977 O 0.79652 0.71257 0.75588
 O978 O 0.74357 0.76663 0.70196
 O979 O 0.79135 0.71325 0.72669
 O980 O 0.80341 0.77282 0.72250
 O981 O 0.76974 0.76501 0.72402
 O982 O 0.78999 0.74605 0.74350
 O983 O 0.74433 0.74091 0.72707
 O984 O 0.76377 0.72234 0.74611
 Zr985 Zr 0.74885 0.76726 0.77150
 Zr986 Zr 0.74170 0.76989 0.72894
 Zr987 Zr 0.78014 0.73385 0.76609
 Zr988 Zr 0.78612 0.77469 0.74443
 O989 O 0.77501 0.70850 0.77926
 O990 O 0.78471 0.80029 0.73080
 O991 O 0.77759 0.76284 0.76803
 O992 O 0.75820 0.78078 0.74899
 O993 O 0.73149 0.75752 0.75151
 O994 O 0.75212 0.73836 0.77067
 C995 C 0.80555 0.76006 0.71096
 C996 C 0.79902 0.70642 0.74046
 C997 C 0.75407 0.75656 0.69239
 O998 O 0.74659 0.79610 0.71722
 O999 O 0.72404 0.79020 0.73938
 O1000 O 0.72886 0.78866 0.76858
 C1001 C 0.72121 0.79580 0.75496
 O1002 O 0.73356 0.70514 0.73382
 Zr1003 Zr 0.73573 0.72878 0.75029
 O1004 O 0.72533 0.75807 0.78487
 O1005 O 0.71470 0.76442 0.71919
 O1006 O 0.70924 0.73039 0.73824
 O1007 O 0.73531 0.70390 0.76510
 O1008 O 0.71622 0.73191 0.77022
 C1009 C 0.71465 0.74389 0.78248
 O1010 O 0.75651 0.79150 0.78550
 O1011 O 0.80776 0.73873 0.77451
 O1012 O 0.75755 0.76060 0.79699
 O1013 O 0.78050 0.73928 0.79283
 O1014 O 0.81370 0.77324 0.75415
 O1015 O 0.79060 0.79650 0.76261
 C1016 C 0.77020 0.74937 0.80254
 H1017 H 0.80324 0.74307 0.74173
 H1018 H 0.75690 0.79445 0.74999
 H1019 H 0.74846 0.73195 0.78147
 H1020 H 0.73692 0.73586 0.71727
 H1021 H 0.79758 0.80503 0.72954
 H1022 H 0.73545 0.79906 0.71014
 H1023 H 0.71122 0.77528 0.71197
 H1024 H 0.70109 0.72111 0.74394
 H1025 H 0.82111 0.78268 0.74785
 H1026 H 0.81136 0.72793 0.78177
 H1027 H 0.78627 0.70575 0.78625
 H1028 H 0.72230 0.69933 0.76534
 H1029 H 0.80099 0.80450 0.75871
 H1030 H 0.74739 0.79297 0.79495
 H1031 H 0.77351 0.71108 0.69945
 H1032 H 0.72146 0.69887 0.73568
 Zr1033 Zr 0.22156 0.24209 0.77353
 O1034 O 0.22944 0.22101 0.79123
 O1035 O 0.19609 0.25056 0.78353
 O1036 O 0.22637 0.25327 0.79868
 O1037 O 0.20248 0.21358 0.74188
 O1038 O 0.24635 0.27742 0.79360
 O1039 O 0.20440 0.21796 0.77113
 O1040 O 0.18822 0.27557 0.76678
 O1041 O 0.22321 0.27104 0.77019
 O1042 O 0.20630 0.24856 0.75115
 O1043 O 0.25005 0.24844 0.77175
 O1044 O 0.23361 0.22651 0.75340
 Zr1045 Zr 0.24906 0.26921 0.72464
 Zr1046 Zr 0.25141 0.27713 0.76699
 Zr1047 Zr 0.21900 0.23450 0.73097
 Zr1048 Zr 0.20877 0.27712 0.74747
 O1049 O 0.22695 0.20824 0.72114
 O1050 O 0.20750 0.30363 0.75948
 O1051 O 0.22034 0.26320 0.72619
 O1052 O 0.23671 0.28457 0.74462
 O1053 O 0.26457 0.26294 0.74692
 O1054 O 0.24710 0.24038 0.72818
 C1055 C 0.18544 0.26416 0.77937
 C1056 C 0.19845 0.20920 0.75753
 C1057 C 0.23622 0.26743 0.80362
 O1058 O 0.24448 0.30444 0.77490
 O1059 O 0.26968 0.29675 0.75624
 O1060 O 0.26796 0.29192 0.72708
 C1061 C 0.27405 0.30074 0.74057
 O1062 O 0.26338 0.21290 0.76976
 Zr1063 Zr 0.26163 0.23429 0.75080
 O1064 O 0.27419 0.25999 0.71437
 O1065 O 0.27720 0.27450 0.78002
 O1066 O 0.28663 0.23905 0.76483
 O1067 O 0.26450 0.20796 0.73871
 O1068 O 0.28308 0.23651 0.73253
 C1069 C 0.28534 0.24706 0.71925
 O1070 O 0.24208 0.29135 0.70774
 O1071 O 0.19214 0.23612 0.71976
 O1072 O 0.24276 0.25952 0.69936
 O1073 O 0.22073 0.23711 0.70397
 O1074 O 0.18301 0.27295 0.73451
 O1075 O 0.20543 0.29716 0.72745
 C1076 C 0.23105 0.24707 0.69406
 H1077 H 0.19307 0.24487 0.75185
 H1078 H 0.23757 0.29812 0.74234
 H1079 H 0.25209 0.23310 0.71840
 H1080 H 0.25668 0.24512 0.78259
 H1081 H 0.19435 0.30763 0.75922
 H1082 H 0.25457 0.30886 0.78271
 H1083 H 0.27941 0.28637 0.78625
 H1084 H 0.29577 0.22974 0.76088
 H1085 H 0.17425 0.28238 0.73895
 H1086 H 0.18996 0.22431 0.71341
 H1087 H 0.21670 0.20389 0.71349
 H1088 H 0.27769 0.20426 0.73982
 H1089 H 0.19458 0.30509 0.73000
 H1090 H 0.25209 0.29228 0.69903
 H1091 H 0.21929 0.21984 0.79978
 H1092 H 0.27578 0.20705 0.76927
 Zr1093 Zr 0.26766 0.76810 0.27690
 O1094 O 0.25891 0.79091 0.29206
 O1095 O 0.29198 0.76033 0.28970
 O1096 O 0.26182 0.75895 0.30238
 O1097 O 0.28959 0.79273 0.24449
 O1098 O 0.23993 0.73614 0.29854
 O1099 O 0.28564 0.79149 0.27376
 O1100 O 0.29904 0.73248 0.27717
 O1101 O 0.26522 0.73903 0.27615
 O1102 O 0.28432 0.75891 0.25659
 O1103 O 0.23916 0.76228 0.27371
 O1104 O 0.25748 0.78172 0.25461
 Zr1105 Zr 0.24279 0.73655 0.22891
 Zr1106 Zr 0.23715 0.73325 0.27156
 Zr1107 Zr 0.27341 0.77101 0.23428
 Zr1108 Zr 0.28112 0.73017 0.25542
 O1109 O 0.26714 0.79628 0.22143
 O1110 O 0.28077 0.70439 0.26883
 O1111 O 0.27152 0.74197 0.23208
 O1112 O 0.25322 0.72315 0.25117
 O1113 O 0.22589 0.74547 0.24924
 O1114 O 0.24538 0.76554 0.22998
 C1115 C 0.30141 0.74527 0.28870
 C1116 C 0.29265 0.79871 0.25993
 C1117 C 0.25072 0.74621 0.30808
 O1118 O 0.24295 0.70704 0.28286
 O1119 O 0.21954 0.71254 0.26118
 O1120 O 0.22343 0.71438 0.23193
 C1121 C 0.21637 0.70692 0.24562
 O1122 O 0.22716 0.79769 0.26743
 Zr1123 Zr 0.22946 0.77433 0.25070
 O1124 O 0.21866 0.74512 0.21595
 O1125 O 0.21040 0.73775 0.28180
 O1126 O 0.20344 0.77162 0.26310
 O1127 O 0.22809 0.79934 0.23614
 O1128 O 0.20935 0.77074 0.23101
 C1129 C 0.20770 0.75887 0.21862
 O1130 O 0.25045 0.71271 0.21456
 O1131 O 0.30088 0.76734 0.22545
 O1132 O 0.25070 0.74369 0.20335
 O1133 O 0.27321 0.76579 0.20753
 O1134 O 0.30832 0.73268 0.24535
 O1135 O 0.28554 0.70870 0.23700
 C1136 C 0.26301 0.75533 0.19780
 H1137 H 0.29756 0.76233 0.25815
 H1138 H 0.25219 0.70945 0.25006
 H1139 H 0.24125 0.77191 0.21927
 H1140 H 0.23198 0.76694 0.28367
 H1141 H 0.29378 0.70013 0.26992
 H1142 H 0.23214 0.70364 0.29009
 H1143 H 0.20741 0.72669 0.28894
 H1144 H 0.19487 0.78065 0.25760
 H1145 H 0.31617 0.72349 0.25151
 H1146 H 0.30396 0.77838 0.21829
 H1147 H 0.27809 0.79953 0.21432
 H1148 H 0.21497 0.80346 0.23602
 H1149 H 0.29624 0.70103 0.24070
 H1150 H 0.24105 0.71107 0.20522
 H1151 H 0.26840 0.79271 0.30129
 H1152 H 0.21490 0.80360 0.26567
 Zr1153 Zr 0.23117 0.76821 0.72156
 O1154 O 0.23835 0.79028 0.70468
 O1155 O 0.20565 0.75952 0.71122
 O1156 O 0.23531 0.75810 0.69608
 O1157 O 0.21271 0.79493 0.75433
 O1158 O 0.25741 0.73568 0.69951
 O1159 O 0.21364 0.79168 0.72495
 O1160 O 0.19887 0.73326 0.72666
 O1161 O 0.23342 0.73921 0.72356
 O1162 O 0.21651 0.76029 0.74367
 O1163 O 0.25982 0.76266 0.72296
 O1164 O 0.24350 0.78315 0.74224
 Zr1165 Zr 0.26014 0.73950 0.76910
 Zr1166 Zr 0.26180 0.73380 0.72634
 Zr1167 Zr 0.22951 0.77373 0.76434
 Zr1168 Zr 0.21956 0.73166 0.74608
 O1169 O 0.23747 0.79955 0.77542
 O1170 O 0.21836 0.70551 0.73334
 O1171 O 0.23133 0.74486 0.76788
 O1172 O 0.24765 0.72486 0.74843
 O1173 O 0.27509 0.74726 0.74704
 O1174 O 0.25778 0.76842 0.76687
 C1175 C 0.19558 0.74517 0.71458
 C1176 C 0.20812 0.79984 0.73889
 C1177 C 0.24625 0.74545 0.69019
 O1178 O 0.25454 0.70717 0.71658
 O1179 O 0.28000 0.71360 0.73627
 O1180 O 0.27897 0.71717 0.76561
 C1181 C 0.28464 0.70892 0.75178
 O1182 O 0.27236 0.79868 0.72678
 Zr1183 Zr 0.27169 0.77600 0.74446
 O1184 O 0.28559 0.74858 0.77939
 O1185 O 0.28777 0.73747 0.71418
 O1186 O 0.29620 0.77311 0.72969
 O1187 O 0.27470 0.80144 0.75817
 O1188 O 0.29403 0.77284 0.76198
 C1189 C 0.29678 0.76160 0.77469
 O1190 O 0.25383 0.71648 0.78520
 O1191 O 0.20283 0.77112 0.77541
 O1192 O 0.25418 0.74779 0.79484
 O1193 O 0.23160 0.76965 0.79115
 O1194 O 0.19386 0.73459 0.75897
 O1195 O 0.21702 0.71085 0.76550
 C1196 C 0.24221 0.75951 0.80066
 H1197 H 0.20321 0.76366 0.74311
 H1198 H 0.24865 0.71123 0.75010
 H1199 H 0.26299 0.77522 0.77696
 H1200 H 0.26615 0.76680 0.71229
 H1201 H 0.20529 0.70114 0.73360
 H1202 H 0.26468 0.70328 0.70880
 H1203 H 0.29003 0.72606 0.70732
 H1204 H 0.30529 0.78247 0.73399
 H1205 H 0.18525 0.72504 0.75420
 H1206 H 0.20068 0.78257 0.78226
 H1207 H 0.22730 0.80332 0.78321
 H1208 H 0.28783 0.80548 0.75715
 H1209 H 0.20614 0.70281 0.76286
 H1210 H 0.26408 0.71539 0.79379
 H1211 H 0.22803 0.79149 0.69617
 H1212 H 0.28454 0.80509 0.72765
 Zr1213 Zr 0.26922 0.23304 0.22494
 O1214 O 0.26164 0.21029 0.20891
 O1215 O 0.29360 0.24227 0.21320
 O1216 O 0.26339 0.24233 0.19948
 O1217 O 0.29082 0.20806 0.25752
 O1218 O 0.24087 0.26425 0.20304
 O1219 O 0.28761 0.21018 0.22816
 O1220 O 0.30029 0.26945 0.22734
 O1221 O 0.26608 0.26199 0.22628
 O1222 O 0.28511 0.24216 0.24611
 O1223 O 0.24053 0.23774 0.22723
 O1224 O 0.25882 0.21837 0.24645
 Zr1225 Zr 0.24236 0.26221 0.27273
 Zr1226 Zr 0.23775 0.26661 0.22998
 Zr1227 Zr 0.27393 0.22898 0.26766
 Zr1228 Zr 0.28118 0.27073 0.24790
 O1229 O 0.26782 0.20321 0.27971
 O1230 O 0.28061 0.29665 0.23475
 O1231 O 0.27126 0.25786 0.27052
 O1232 O 0.25303 0.27663 0.25123
 O1233 O 0.22624 0.25332 0.25154
 O1234 O 0.24568 0.23335 0.27107
 C1235 C 0.30311 0.25727 0.21542
 C1236 C 0.29437 0.20268 0.24204
 C1237 C 0.25192 0.25462 0.19365
 O1238 O 0.24337 0.29321 0.21936
 O1239 O 0.21955 0.28656 0.24020
 O1240 O 0.22264 0.28381 0.26953
 C1241 C 0.21585 0.29155 0.25579
 O1242 O 0.22943 0.20163 0.23223
 Zr1243 Zr 0.23056 0.22465 0.24951
 O1244 O 0.21808 0.25242 0.28449
 O1245 O 0.21125 0.26164 0.21888
 O1246 O 0.20490 0.22657 0.23601
 O1247 O 0.22936 0.19931 0.26359
 O1248 O 0.20965 0.22715 0.26824
 C1249 C 0.20737 0.23855 0.28086
 O1250 O 0.24898 0.28588 0.28797
 O1251 O 0.30113 0.23311 0.27755
 O1252 O 0.24998 0.25477 0.29835
 O1253 O 0.27312 0.23362 0.29446
 O1254 O 0.30792 0.26897 0.25945
 O1255 O 0.28435 0.29202 0.26682
 C1256 C 0.26254 0.24353 0.30405
 H1257 H 0.29846 0.23922 0.24500
 H1258 H 0.25168 0.29026 0.25263
 H1259 H 0.24140 0.22659 0.28148
 H1260 H 0.23370 0.23308 0.21692
 H1261 H 0.29352 0.30146 0.23436
 H1262 H 0.23264 0.29648 0.21187
 H1263 H 0.20818 0.27277 0.21187
 H1264 H 0.19644 0.21705 0.24092
 H1265 H 0.31581 0.27864 0.25399
 H1266 H 0.30420 0.22200 0.28460
 H1267 H 0.27864 0.20010 0.28715
 H1268 H 0.21636 0.19473 0.26309
 H1269 H 0.29486 0.30026 0.26363
 H1270 H 0.23929 0.28690 0.29698
 H1271 H 0.27142 0.20914 0.20001
 H1272 H 0.21739 0.19508 0.23349
 Zr1273 Zr 0.72973 0.73425 0.27240
 O1274 O 0.73998 0.71522 0.29105
 O1275 O 0.70292 0.73940 0.28129
 O1276 O 0.73153 0.74681 0.29727
 O1277 O 0.71990 0.70062 0.24179
 O1278 O 0.74573 0.77466 0.29168
 O1279 O 0.71620 0.70784 0.27032
 O1280 O 0.69112 0.76022 0.26177
 O1281 O 0.72623 0.76276 0.26755
 O1282 O 0.71515 0.73659 0.24896
 O1283 O 0.75668 0.74576 0.27168
 O1284 O 0.74597 0.72027 0.25389
 Zr1285 Zr 0.75519 0.76366 0.22361
 Zr1286 Zr 0.75299 0.77391 0.26552
 Zr1287 Zr 0.73176 0.72420 0.23038
 Zr1288 Zr 0.71256 0.76486 0.24379
 O1289 O 0.74546 0.69999 0.22164
 O1290 O 0.70541 0.79111 0.25431
 O1291 O 0.72805 0.75233 0.22409
 O1292 O 0.73882 0.77739 0.24202
 O1293 O 0.76994 0.76150 0.24699
 O1294 O 0.75842 0.73520 0.22850
 C1295 C 0.69005 0.75008 0.27547
 C1296 C 0.71426 0.69687 0.25713
 C1297 C 0.73770 0.76301 0.30183
 O1298 O 0.74066 0.79987 0.27123
 O1299 O 0.76850 0.79583 0.25482
 O1300 O 0.77021 0.78910 0.22601
 C1301 C 0.77377 0.79945 0.23932
 O1302 O 0.77686 0.71346 0.27233
 Zr1303 Zr 0.77220 0.73309 0.25218
 O1304 O 0.78219 0.75872 0.21497
 O1305 O 0.77767 0.77680 0.28033
 O1306 O 0.79490 0.74316 0.26718
 O1307 O 0.78052 0.70723 0.24158
 O1308 O 0.79414 0.73858 0.23499
 C1309 C 0.79528 0.74858 0.22122
 O1310 O 0.74575 0.78378 0.20558
 O1311 O 0.70564 0.71928 0.21842
 O1312 O 0.75149 0.75225 0.19847
 O1313 O 0.73374 0.72639 0.20342
 O1314 O 0.68916 0.75520 0.22950
 O1315 O 0.70706 0.78294 0.22260
 C1316 C 0.74208 0.73789 0.19335
 H1317 H 0.70279 0.73051 0.24923
 H1318 H 0.73743 0.79072 0.23906
 H1319 H 0.76524 0.72865 0.21926
 H1320 H 0.76309 0.74427 0.28298
 H1321 H 0.69178 0.79251 0.25306
 H1322 H 0.74910 0.80646 0.27940
 H1323 H 0.77716 0.78917 0.28598
 H1324 H 0.80590 0.73562 0.26420
 H1325 H 0.67842 0.76293 0.23285
 H1326 H 0.70635 0.70702 0.21257
 H1327 H 0.73665 0.69333 0.21387
 H1328 H 0.79413 0.70619 0.24328
 H1329 H 0.69475 0.78876 0.22411
 H1330 H 0.75600 0.78602 0.19731
 H1331 H 0.72973 0.71273 0.29926
 H1332 H 0.79009 0.70978 0.27243
 Zr1333 Zr 0.77159 0.26860 0.78042
 O1334 O 0.76342 0.29141 0.79587
 O1335 O 0.79575 0.26007 0.79308
 O1336 O 0.76566 0.25947 0.80588
 O1337 O 0.79335 0.29352 0.74804
 O1338 O 0.74366 0.23678 0.80199
 O1339 O 0.78978 0.29182 0.77734
 O1340 O 0.80244 0.23241 0.78004
 O1341 O 0.76891 0.23956 0.77933
 O1342 O 0.78792 0.25959 0.75980
 O1343 O 0.74302 0.26305 0.77750
 O1344 O 0.76125 0.28264 0.75843
 Zr1345 Zr 0.74583 0.23795 0.73236
 Zr1346 Zr 0.74075 0.23407 0.77502
 Zr1347 Zr 0.77677 0.27212 0.73774
 Zr1348 Zr 0.78447 0.23090 0.75828
 O1349 O 0.77053 0.29765 0.72536
 O1350 O 0.78413 0.20474 0.77105
 O1351 O 0.77463 0.24312 0.73521
 O1352 O 0.75646 0.22414 0.75431
 O1353 O 0.72934 0.24672 0.75303
 O1354 O 0.74861 0.26692 0.73373
 C1355 C 0.80486 0.24482 0.79190
 C1356 C 0.79665 0.29922 0.76353
 C1357 C 0.75444 0.24683 0.81155
 O1358 O 0.74667 0.20775 0.78605
 O1359 O 0.72292 0.21358 0.76461
 O1360 O 0.72650 0.21579 0.73535
 C1361 C 0.71954 0.20819 0.74901
 O1362 O 0.73166 0.29891 0.77159
 Zr1363 Zr 0.73314 0.27554 0.75480
 O1364 O 0.72124 0.24651 0.72018
 O1365 O 0.71410 0.23851 0.78547
 O1366 O 0.70745 0.27332 0.76788
 O1367 O 0.73149 0.30048 0.74016
 O1368 O 0.71231 0.27187 0.73582
 C1369 C 0.71015 0.25999 0.72351
 O1370 O 0.75322 0.21439 0.71751
 O1371 O 0.80404 0.26830 0.72846
 O1372 O 0.75324 0.24552 0.70679
 O1373 O 0.77599 0.26738 0.71090
 O1374 O 0.81165 0.23349 0.74817
 O1375 O 0.78851 0.20990 0.73932
 C1376 C 0.76551 0.25717 0.70119
 H1377 H 0.80120 0.26287 0.76132
 H1378 H 0.75534 0.21047 0.75304
 H1379 H 0.74422 0.27341 0.72317
 H1380 H 0.73600 0.26766 0.78759
 H1381 H 0.79713 0.20033 0.77183
 H1382 H 0.73591 0.20427 0.79331
 H1383 H 0.71114 0.22740 0.79258
 H1384 H 0.69890 0.28253 0.76263
 H1385 H 0.81945 0.22407 0.75408
 H1386 H 0.80710 0.27940 0.72139
 H1387 H 0.78139 0.30093 0.71815
 H1388 H 0.71840 0.30464 0.74033
 H1389 H 0.79930 0.20216 0.74264
 H1390 H 0.74363 0.21288 0.70832
 H1391 H 0.77304 0.29296 0.80503
 H1392 H 0.71956 0.30516 0.76998
 C1393 C 0.44650 1.01927 0.33012
 N1394 N 0.43783 1.03520 0.32532
 N1395 N 0.42856 1.03620 0.31037
 C1396 C 0.42747 1.02130 0.29955
 N1397 N 0.43622 1.00534 0.30440
 N1398 N 0.44553 1.00433 0.31938
 C1399 C 0.45622 1.01827 0.34693
 N1400 N 0.46501 1.00251 0.35219
 N1401 N 0.47307 1.00162 0.36780
 C1402 C 0.47263 1.01648 0.37868
 N1403 N 0.46398 1.03223 0.37332
 N1404 N 0.45598 1.03312 0.35776
 C1405 C 0.48000 1.01542 0.39649
 N1406 N 0.47632 1.02940 0.40771
 N1407 N 0.48140 1.02818 0.42424
 C1408 C 0.49057 1.01302 0.43025
 N1409 N 0.49464 0.99910 0.41899
 N1410 N 0.48940 1.00027 0.40239
 C1411 C -0.05215 0.52337 0.83240
 N1412 N -0.05293 0.50825 0.82186
 N1413 N -0.06207 0.50897 0.80679
 C1414 C -0.07083 0.52481 0.80161
 N1415 N -0.06994 0.53989 0.81224
 N1416 N -0.06084 0.53919 0.82729
 C1417 C -0.04257 0.52263 0.84931
 N1418 N -0.04311 0.53751 0.86011
 N1419 N -0.03519 0.53677 0.87573
 C1420 C -0.02632 0.52117 0.88115
 N1421 N -0.02560 0.50631 0.87029
 N1422 N -0.03357 0.50703 0.85465
 C1423 C -0.01899 0.52012 0.89898
 N1424 N -0.00967 0.50489 0.90479
 N1425 N -0.00456 0.50351 0.92140
 C1426 C -0.00864 0.51730 0.93279
 N1427 N -0.01771 0.53258 0.92688
 N1428 N -0.02268 0.53401 0.91031
 C1429 C 0.05511 -0.01663 0.82591
 N1430 N 0.06348 -0.03271 0.82117
 N1431 N 0.07277 -0.03379 0.80637
 C1432 C 0.07412 -0.01882 0.79569
 N1433 N 0.06568 -0.00273 0.80045
 N1434 N 0.05638 -0.00163 0.81528
 C1435 C 0.04537 -0.01554 0.84255
 N1436 N 0.03727 0.00051 0.84790
 N1437 N 0.02924 0.00148 0.86339
 C1438 C 0.02900 -0.01358 0.87405
 N1439 N 0.03694 -0.02961 0.86858
 N1440 N 0.04493 -0.03059 0.85314
 C1441 C 0.02172 -0.01248 0.89176
 N1442 N 0.02450 -0.02697 0.90271
 N1443 N 0.01962 -0.02579 0.91922
 C1444 C 0.01157 -0.01017 0.92548
 N1445 N 0.00839 0.00427 0.91448
 N1446 N 0.01342 0.00314 0.89790
 C1447 C 0.55028 0.47550 0.32872
 N1448 N 0.55140 0.49081 0.31845
 N1449 N 0.56129 0.49045 0.30392
 C1450 C 0.57048 0.47480 0.29912
 N1451 N 0.56926 0.45953 0.30944
 N1452 N 0.55941 0.45988 0.32393
 C1453 C 0.53998 0.47584 0.34510
 N1454 N 0.54003 0.46066 0.35555
 N1455 N 0.53161 0.46103 0.37082
 C1456 C 0.52271 0.47657 0.37622
 N1457 N 0.52244 0.49173 0.36568
 N1458 N 0.53091 0.49136 0.35038
 C1459 C 0.51511 0.47728 0.39383
 N1460 N 0.50594 0.49250 0.39971
 N1461 N 0.50086 0.49365 0.41626
 C1462 C 0.50483 0.47963 0.42751
 N1463 N 0.51369 0.46434 0.42151
 N1464 N 0.51863 0.46314 0.40500
 C1465 C 0.55551 0.51725 0.16995
 N1466 N 0.55484 0.50267 0.18113
 N1467 N 0.56392 0.50343 0.19623
 C1468 C 0.57405 0.51875 0.20075
 N1469 N 0.57463 0.53330 0.18952
 N1470 N 0.56557 0.53256 0.17444
 C1471 C 0.54600 0.51643 0.15302
 N1472 N 0.54767 0.53084 0.14177
 N1473 N 0.53979 0.53003 0.12615
 C1474 C 0.52985 0.51481 0.12115
 N1475 N 0.52800 0.50042 0.13244
 N1476 N 0.53593 0.50122 0.14810
 C1477 C 0.52244 0.51374 0.10336
 N1478 N 0.51208 0.49897 0.09779
 N1479 N 0.50665 0.49773 0.08124
 C1480 C 0.51147 0.51118 0.06971
 N1481 N 0.52163 0.52597 0.07538
 N1482 N 0.52692 0.52726 0.09186
 C1483 C 0.05484 1.01985 0.66649
 N1484 N 0.05628 1.00485 0.67710
 N1485 N 0.06567 1.00606 0.69201
 C1486 C 0.07404 1.02229 0.69695
 N1487 N 0.07250 1.03725 0.68624
 N1488 N 0.06315 1.03605 0.67135
 C1489 C 0.04492 1.01862 0.64979
 N1490 N 0.04465 1.03350 0.63899
 N1491 N 0.03641 1.03237 0.62354
 C1492 C 0.02801 1.01635 0.61830
 N1493 N 0.02808 1.00147 0.62917
 N1494 N 0.03638 1.00259 0.64465
 C1495 C 0.02036 1.01498 0.60061
 N1496 N 0.01145 0.99937 0.59490
 N1497 N 0.00606 0.99785 0.57837
 C1498 C 0.00947 1.01187 0.56698
 N1499 N 0.01813 1.02752 0.57281
 N1500 N 0.02337 1.02908 0.58929
 C1501 C -0.05235 0.48181 0.67285
 N1502 N -0.05261 0.49696 0.68337
 N1503 N -0.06170 0.49644 0.69835
 C1504 C -0.07092 0.48078 0.70339
 N1505 N -0.07058 0.46567 0.69281
 N1506 N -0.06152 0.46618 0.67786
 C1507 C -0.04279 0.48225 0.65606
 N1508 N -0.04361 0.46719 0.64548
 N1509 N -0.03569 0.46757 0.62998
 C1510 C -0.02654 0.48300 0.62444
 N1511 N -0.02553 0.49807 0.63506
 N1512 N -0.03351 0.49769 0.65060
 C1513 C -0.01914 0.48356 0.60671
 N1514 N -0.00957 0.49857 0.60067
 N1515 N -0.00433 0.49937 0.58413
 C1516 C -0.00853 0.48521 0.57307
 N1517 N -0.01786 0.47017 0.57922
 N1518 N -0.02297 0.46932 0.59571
 C1519 C 0.44637 -0.01936 0.17089
 N1520 N 0.44582 -0.00437 0.18158
 N1521 N 0.43649 -0.00516 0.19641
 C1522 C 0.42729 -0.02095 0.20114
 N1523 N 0.42793 -0.03591 0.19040
 N1524 N 0.43724 -0.03513 0.17560
 C1525 C 0.45618 -0.01859 0.15425
 N1526 N 0.45576 -0.03354 0.14352
 N1527 N 0.46388 -0.03283 0.12812
 C1528 C 0.47283 -0.01717 0.12282
 N1529 N 0.47343 -0.00222 0.13361
 N1530 N 0.46526 -0.00292 0.14905
 C1531 C 0.48037 -0.01625 0.10517
 N1532 N 0.48962 -0.00095 0.09932
 N1533 N 0.49492 0.00016 0.08281
 C1534 C 0.49110 -0.01396 0.07159
 N1535 N 0.48209 -0.02928 0.07757
 N1536 N 0.47693 -0.03045 0.09402
 C1537 C 0.33690 0.39596 0.01527
 N1538 N 0.33192 0.38796 0.03045
 N1539 N 0.31585 0.37882 0.03181
 C1540 C 0.30399 0.37733 0.01809
 N1541 N 0.30894 0.38545 0.00289
 N1542 N 0.32509 0.39453 0.00150
 C1543 C 0.35481 0.40594 0.01383
 N1544 N 0.36073 0.41241 -0.00169
 N1545 N 0.37694 0.42136 -0.00296
 C1546 C 0.38785 0.42424 0.01124
 N1547 N 0.38192 0.41779 0.02678
 N1548 N 0.36574 0.40877 0.02804
 C1549 C 0.40563 0.43443 0.00968
 N1550 N 0.41585 0.43930 0.02388
 N1551 N 0.43158 0.44909 0.02227
 C1552 C 0.43772 0.45425 0.00638
 N1553 N 0.42756 0.44921 -0.00777
 N1554 N 0.41186 0.43952 -0.00616
 C1555 C -0.16012 0.89211 0.51150
 N1556 N -0.16419 0.88220 0.52594
 N1557 N -0.18039 0.87331 0.52732
 C1558 C -0.19335 0.87399 0.51441
 N1559 N -0.18923 0.88399 0.49995
 N1560 N -0.17294 0.89280 0.49851
 C1561 C -0.14215 0.90195 0.51006
 N1562 N -0.13678 0.90952 0.49478
 N1563 N -0.12055 0.91840 0.49351
 C1564 C -0.10907 0.92017 0.50747
 N1565 N -0.11445 0.91264 0.52277
 N1566 N -0.13064 0.90364 0.52401
 C1567 C -0.09131 0.93038 0.50596
 N1568 N -0.08109 0.93513 0.52020
 N1569 N -0.06545 0.94507 0.51867
 C1570 C -0.05936 0.95047 0.50282
 N1571 N -0.06950 0.94552 0.48863
 N1572 N -0.08514 0.93571 0.49016
 C1573 C -0.15962 0.10223 0.98701
 N1574 N -0.17078 0.10338 1.00109
 N1575 N -0.18698 0.11231 1.00021
 C1576 C -0.19265 0.12053 0.98522
 N1577 N -0.18145 0.11928 0.97118
 N1578 N -0.16533 0.11031 0.97203
 C1579 C -0.14158 0.09254 0.98785
 N1580 N -0.13132 0.09016 0.97333
 N1581 N -0.11499 0.08148 0.97401
 C1582 C -0.10823 0.07492 0.98928
 N1583 N -0.11847 0.07735 1.00381
 N1584 N -0.13482 0.08596 1.00311
 C1585 C -0.09028 0.06506 0.99017
 N1586 N -0.08325 0.05971 1.00572
 N1587 N -0.06745 0.05021 1.00669
 C1588 C -0.05797 0.04564 0.99217
 N1589 N -0.06491 0.05109 0.97657
 N1590 N -0.08074 0.06068 0.97560
 C1591 C 0.33867 0.60024 0.48494
 N1592 N 0.32763 0.60234 0.49900
 N1593 N 0.31166 0.61165 0.49782
 C1594 C 0.30613 0.61934 0.48254
 N1595 N 0.31722 0.61717 0.46853
 N1596 N 0.33311 0.60780 0.46968
 C1597 C 0.35642 0.59004 0.48615
 N1598 N 0.36641 0.58636 0.47169
 N1599 N 0.38245 0.57719 0.47273
 C1600 C 0.38920 0.57143 0.48828
 N1601 N 0.37924 0.57515 0.50274
 N1602 N 0.36316 0.58424 0.50170
 C1603 C 0.40688 0.56111 0.48955
 N1604 N 0.41424 0.55693 0.50529
 N1605 N 0.42988 0.54720 0.50661
 C1606 C 0.43885 0.54120 0.49226
 N1607 N 0.43155 0.54543 0.47647
 N1608 N 0.41591 0.55527 0.47515
 C1609 C 0.16282 0.60053 0.51374
 N1610 N 0.17369 0.60245 0.49953
 N1611 N 0.18988 0.61158 0.50047
 C1612 C 0.19579 0.61925 0.51566
 N1613 N 0.18489 0.61720 0.52983
 N1614 N 0.16879 0.60802 0.52891
 C1615 C 0.14474 0.59076 0.51280
 N1616 N 0.13479 0.58752 0.52740
 N1617 N 0.11839 0.57882 0.52662
 C1618 C 0.11122 0.57313 0.51119
 N1619 N 0.12114 0.57640 0.49659
 N1620 N 0.13758 0.58502 0.49738
 C1621 C 0.09317 0.56329 0.51018
 N1622 N 0.08566 0.55898 0.49452
 N1623 N 0.06975 0.54950 0.49340
 C1624 C 0.06065 0.54393 0.50786
 N1625 N 0.06808 0.54834 0.52357
 N1626 N 0.08401 0.55791 0.52470
 C1627 C 0.66284 0.10118 0.01459
 N1628 N 0.67397 0.10334 0.00057
 N1629 N 0.69026 0.11225 0.00195
 C1630 C 0.69602 0.11943 0.01739
 N1631 N 0.68486 0.11714 0.03135
 N1632 N 0.66866 0.10820 0.03000
 C1633 C 0.64468 0.09157 0.01324
 N1634 N 0.63448 0.08820 0.02765
 N1635 N 0.61804 0.07962 0.02654
 C1636 C 0.61108 0.07416 0.01095
 N1637 N 0.62126 0.07758 -0.00346
 N1638 N 0.63774 0.08609 -0.00235
 C1639 C 0.59300 0.06440 0.00964
 N1640 N 0.58571 0.06013 -0.00612
 N1641 N 0.56978 0.05072 -0.00747
 C1642 C 0.56043 0.04517 0.00686
 N1643 N 0.56763 0.04954 0.02267
 N1644 N 0.58359 0.05904 0.02402
 C1645 C 0.66454 0.90215 0.48754
 N1646 N 0.66999 0.89595 0.47183
 N1647 N 0.68562 0.88635 0.47019
 C1648 C 0.69656 0.88253 0.48415
 N1649 N 0.69120 0.88891 0.49991
 N1650 N 0.67547 0.89851 0.50157
 C1651 C 0.64689 0.91232 0.48913
 N1652 N 0.64042 0.91765 0.50481
 N1653 N 0.62429 0.92658 0.50607
 C1654 C 0.61402 0.93054 0.49170
 N1655 N 0.62052 0.92524 0.47602
 N1656 N 0.63661 0.91628 0.47477
 C1657 C 0.59627 0.94055 0.49310
 N1658 N 0.58643 0.94550 0.47873
 N1659 N 0.57061 0.95497 0.48008
 C1660 C 0.56399 0.95977 0.49588
 N1661 N 0.57378 0.95469 0.51021
 N1662 N 0.58959 0.94527 0.50886
 C1663 C 0.15990 0.39984 0.98996
 N1664 N 0.16649 0.39500 0.97422
 N1665 N 0.18260 0.38617 0.97281
 C1666 C 0.19292 0.38186 0.98705
 N1667 N 0.18644 0.38690 1.00284
 N1668 N 0.17022 0.39570 1.00427
 C1669 C 0.14174 0.40913 0.99128
 N1670 N 0.13402 0.41264 1.00692
 N1671 N 0.11747 0.42081 1.00793
 C1672 C 0.10801 0.42579 0.99336
 N1673 N 0.11574 0.42230 0.97774
 N1674 N 0.13225 0.41408 0.97673
 C1675 C 0.08991 0.43523 0.99454
 N1676 N 0.08118 0.44189 0.98016
 N1677 N 0.06526 0.45121 0.98142
 C1678 C 0.05740 0.45409 0.99712
 N1679 N 0.06604 0.44722 1.01144
 N1680 N 0.08195 0.43796 1.01018
 C1681 C 0.02326 0.33944 0.38739
 N1682 N 0.00775 0.33192 0.38010
 N1683 N 0.00827 0.31519 0.37275
 C1684 C 0.02433 0.30540 0.37237
 N1685 N 0.03992 0.31314 0.37937
 N1686 N 0.03938 0.32983 0.38680
 C1687 C 0.02213 0.35675 0.39718
 N1688 N 0.03651 0.36236 0.40742
 N1689 N 0.03477 0.37708 0.41774
 C1690 C 0.01861 0.38666 0.41812
 N1691 N 0.00436 0.38124 0.40767
 N1692 N 0.00607 0.36649 0.39742
 C1693 C 0.01610 0.40196 0.43028
 N1694 N 0.00010 0.41180 0.43007
 N1695 N -0.00262 0.42530 0.44152
 C1696 C 0.01049 0.42933 0.45367
 N1697 N 0.02652 0.41950 0.45390
 N1698 N 0.02927 0.40600 0.44239
 C1699 C 0.52489 -0.16036 -0.11241
 N1700 N 0.50984 -0.16953 -0.11887
 N1701 N 0.51169 -0.18621 -0.12614
 C1702 C 0.52865 -0.19429 -0.12723
 N1703 N 0.54369 -0.18488 -0.12103
 N1704 N 0.54184 -0.16826 -0.11371
 C1705 C 0.52274 -0.14308 -0.10274
 N1706 N 0.53729 -0.13598 -0.09357
 N1707 N 0.53506 -0.12120 -0.08345
 C1708 C 0.51822 -0.11301 -0.08218
 N1709 N 0.50373 -0.11992 -0.09155
 N1710 N 0.50594 -0.13477 -0.10162
 C1711 C 0.51551 -0.09753 -0.07028
 N1712 N 0.49916 -0.08829 -0.07009
 N1713 N 0.49649 -0.07451 -0.05891
 C1714 C 0.51001 -0.06962 -0.04743
 N1715 N 0.52637 -0.07888 -0.04759
 N1716 N 0.52908 -0.09261 -0.05884
 C1717 C -0.01373 -0.17925 1.08394
 N1718 N 0.00128 -0.18656 1.09212
 N1719 N -0.00032 -0.20210 1.10138
 C1720 C -0.01701 -0.21083 1.10286
 N1721 N -0.03195 -0.20361 1.09445
 N1722 N -0.03033 -0.18812 1.08513
 C1723 C -0.01232 -0.16143 1.07500
 N1724 N -0.02708 -0.15453 1.06611
 N1725 N -0.02613 -0.13779 1.05876
 C1726 C -0.01044 -0.12735 1.06020
 N1727 N 0.00433 -0.13427 1.06903
 N1728 N 0.00341 -0.15104 1.07631
 C1729 C -0.00945 -0.10888 1.05240
 N1730 N 0.00546 -0.09771 1.05544
 N1731 N 0.00658 -0.08100 1.04808
 C1732 C -0.00716 -0.07491 1.03743
 N1733 N -0.02213 -0.08605 1.03447
 N1734 N -0.02330 -0.10273 1.04190
 C1735 C 0.48086 0.34488 0.62192
 N1736 N 0.46391 0.33737 0.62500
 N1737 N 0.46240 0.32074 0.63243
 C1738 C 0.47775 0.31094 0.63697
 N1739 N 0.49472 0.31868 0.63421
 N1740 N 0.49625 0.33537 0.62683
 C1741 C 0.48246 0.36180 0.61158
 N1742 N 0.49932 0.36961 0.60859
 N1743 N 0.50098 0.38374 0.59755
 C1744 C 0.48587 0.39040 0.58903
 N1745 N 0.46898 0.38277 0.59220
 N1746 N 0.46731 0.36872 0.60331
 C1747 C 0.48794 0.40480 0.57586
 N1748 N 0.47363 0.40896 0.56502
 N1749 N 0.47576 0.42158 0.55256
 C1750 C 0.49229 0.43043 0.55055
 N1751 N 0.50656 0.42631 0.56144
 N1752 N 0.50445 0.41362 0.57382
 C1753 C 0.51131 1.16986 0.60660
 N1754 N 0.50366 1.18593 0.60082
 N1755 N 0.50505 1.20143 0.61018
 C1756 C 0.51435 1.20140 0.62551
 N1757 N 0.52203 1.18532 0.63129
 N1758 N 0.52039 1.16976 0.62204
 C1759 C 0.51037 1.15307 0.59606
 N1760 N 0.51162 1.13602 0.60353
 N1761 N 0.51102 1.12071 0.59384
 C1762 C 0.50951 1.12198 0.57637
 N1763 N 0.50839 1.13903 0.56890
 N1764 N 0.50869 1.15433 0.57861
 C1765 C 0.50886 1.10522 0.56578
 N1766 N 0.51434 1.10572 0.54902
 N1767 N 0.51357 1.09042 0.53932
 C1768 C 0.50703 1.07422 0.54600
 N1769 N 0.50149 1.07375 0.56274
 N1770 N 0.50254 1.08897 0.57251
 C1771 C 0.02273 0.65045 1.12638
 N1772 N 0.00702 0.66039 1.12884
 N1773 N 0.00797 0.67830 1.13316
 C1774 C 0.02465 0.68698 1.13519
 N1775 N 0.04034 0.67672 1.13345
 N1776 N 0.03941 0.65885 1.12898
 C1777 C 0.02163 0.63225 1.11804
 N1778 N 0.03666 0.62527 1.10984
 N1779 N 0.03492 0.61064 1.09937
 C1780 C 0.01809 0.60249 1.09680
 N1781 N 0.00320 0.60909 1.10545
 N1782 N 0.00491 0.62378 1.11582
 C1783 C 0.01550 0.58826 1.08352
 N1784 N -0.00129 0.57991 1.08147
 N1785 N -0.00427 0.56803 1.06854
 C1786 C 0.00935 0.56428 1.05705
 N1787 N 0.02620 0.57257 1.05911
 N1788 N 0.02921 0.58442 1.07211
 C1789 C 0.48746 0.66535 -0.10742
 N1790 N 0.50116 0.67816 -0.10526
 N1791 N 0.50114 0.69379 -0.11451
 C1792 C 0.48722 0.69736 -0.12600
 N1793 N 0.47356 0.68439 -0.12813
 N1794 N 0.47376 0.66860 -0.11912
 C1795 C 0.48711 0.64865 -0.09678
 N1796 N 0.48038 0.63237 -0.10321
 N1797 N 0.48015 0.61713 -0.09341
 C1798 C 0.48625 0.61783 -0.07676
 N1799 N 0.49278 0.63416 -0.07028
 N1800 N 0.49333 0.64931 -0.08018
 C1801 C 0.48651 0.60112 -0.06613
 N1802 N 0.48399 0.60226 -0.04879
 N1803 N 0.48510 0.58708 -0.03896
 C1804 C 0.48910 0.57037 -0.04615
 N1805 N 0.49166 0.56925 -0.06349
 N1806 N 0.49021 0.58436 -0.07335
 C1807 C -0.02079 1.16486 0.39250
 N1808 N -0.00516 1.17392 0.38752
 N1809 N -0.00614 1.19092 0.38073
 C1810 C -0.02279 1.19950 0.37862
 N1811 N -0.03841 1.19024 0.38351
 N1812 N -0.03743 1.17330 0.39039
 C1813 C -0.01965 1.14665 0.40076
 N1814 N -0.03470 1.13920 0.40870
 N1815 N -0.03340 1.12310 0.41713
 C1816 C -0.01703 1.11387 0.41780
 N1817 N -0.00205 1.12120 0.40967
 N1818 N -0.00333 1.13735 0.40133
 C1819 C -0.01522 1.09687 0.42798
 N1820 N 0.00067 1.08686 0.42741
 N1821 N 0.00281 1.07194 0.43741
 C1822 C -0.01081 1.06661 0.44841
 N1823 N -0.02676 1.07656 0.44892
 N1824 N -0.02894 1.09143 0.43883
 C1825 C 0.77381 0.69624 0.91846
 N1826 N 0.78919 0.68686 0.92362
 N1827 N 0.78899 0.67642 0.93786
 C1828 C 0.77338 0.67481 0.94755
 N1829 N 0.75798 0.68423 0.94231
 N1830 N 0.75818 0.69472 0.92806
 C1831 C 0.77408 0.70735 0.90246
 N1832 N 0.75884 0.71685 0.89704
 N1833 N 0.75897 0.72613 0.88207
 C1834 C 0.77436 0.72627 0.87202
 N1835 N 0.78962 0.71692 0.87755
 N1836 N 0.78950 0.70769 0.89250
 C1837 C 0.77411 0.73476 0.85468
 N1838 N 0.78844 0.73173 0.84377
 N1839 N 0.78754 0.73737 0.82739
 C1840 C 0.77237 0.74647 0.82128
 N1841 N 0.75820 0.74996 0.83230
 N1842 N 0.75905 0.74419 0.84871
 C1843 C 0.27035 0.19490 0.42181
 N1844 N 0.28616 0.18616 0.42681
 N1845 N 0.28678 0.17634 0.44141
 C1846 C 0.27159 0.17475 0.45166
 N1847 N 0.25576 0.18356 0.44660
 N1848 N 0.25514 0.19341 0.43198
 C1849 C 0.26969 0.20519 0.40536
 N1850 N 0.28476 0.20555 0.39495
 N1851 N 0.28407 0.21398 0.37963
 C1852 C 0.26831 0.22248 0.37411
 N1853 N 0.25325 0.22234 0.38460
 N1854 N 0.25394 0.21385 0.39996
 C1855 C 0.26732 0.23015 0.35648
 N1856 N 0.25186 0.23890 0.35046
 N1857 N 0.25058 0.24413 0.33391
 C1858 C 0.26470 0.24072 0.32280
 N1859 N 0.28021 0.23224 0.32893
 N1860 N 0.28153 0.22716 0.34544
 C1861 C 0.73077 0.30235 0.42178
 N1862 N 0.71484 0.31096 0.42641
 N1863 N 0.71383 0.32030 0.44126
 C1864 C 0.72871 0.32149 0.45212
 N1865 N 0.74466 0.31281 0.44748
 N1866 N 0.74569 0.30344 0.43260
 C1867 C 0.73181 0.29254 0.40506
 N1868 N 0.74766 0.28405 0.39990
 N1869 N 0.74859 0.27590 0.38439
 C1870 C 0.73367 0.27593 0.37351
 N1871 N 0.71782 0.28428 0.37877
 N1872 N 0.71689 0.29238 0.39423
 C1873 C 0.73478 0.26844 0.35579
 N1874 N 0.72050 0.27133 0.34458
 N1875 N 0.72178 0.26624 0.32809
 C1876 C 0.73730 0.25785 0.32211
 N1877 N 0.75151 0.25456 0.33338
 N1878 N 0.75027 0.25979 0.34993
 C1879 C 0.23292 0.80435 0.91995
 N1880 N 0.21690 0.81279 0.92456
 N1881 N 0.21563 0.82173 0.93959
 C1882 C 0.23033 0.82269 0.95071
 N1883 N 0.24638 0.81416 0.94605
 N1884 N 0.24767 0.80519 0.93098
 C1885 C 0.23422 0.79500 0.90304
 N1886 N 0.25016 0.78668 0.89786
 N1887 N 0.25130 0.77898 0.88217
 C1888 C 0.23652 0.77932 0.87113
 N1889 N 0.22060 0.78750 0.87641
 N1890 N 0.21945 0.79515 0.89204
 C1891 C 0.23780 0.77231 0.85326
 N1892 N 0.22366 0.77565 0.84202
 N1893 N 0.22498 0.77088 0.82546
 C1894 C 0.24042 0.76239 0.81943
 N1895 N 0.25451 0.75868 0.83071
 N1896 N 0.25323 0.76360 0.84734
 C1897 C 0.27046 0.80322 0.07957
 N1898 N 0.25540 0.80399 0.06891
 N1899 N 0.25612 0.81343 0.05405
 C1900 C 0.27190 0.82252 0.04922
 N1901 N 0.28692 0.82165 0.05996
 N1902 N 0.28621 0.81225 0.07480
 C1903 C 0.26978 0.79328 0.09624
 N1904 N 0.28475 0.79360 0.10700
 N1905 N 0.28411 0.78536 0.12243
 C1906 C 0.26852 0.77638 0.12770
 N1907 N 0.25356 0.77587 0.11687
 N1908 N 0.25418 0.78416 0.10141
 C1909 C 0.26763 0.76876 0.14538
 N1910 N 0.25240 0.75944 0.15115
 N1911 N 0.25121 0.75417 0.16769
 C1912 C 0.26522 0.75809 0.17905
 N1913 N 0.28050 0.76714 0.17316
 N1914 N 0.28173 0.77228 0.15667
 C1915 C 0.77028 0.30450 0.58245
 N1916 N 0.75521 0.30463 0.57177
 N1917 N 0.75568 0.31377 0.55673
 C1918 C 0.77123 0.32316 0.55179
 N1919 N 0.78625 0.32295 0.56253
 N1920 N 0.78579 0.31385 0.57753
 C1921 C 0.76993 0.29486 0.59929
 N1922 N 0.78495 0.29581 0.60997
 N1923 N 0.78466 0.28779 0.62550
 C1924 C 0.76938 0.27842 0.63098
 N1925 N 0.75437 0.27730 0.62024
 N1926 N 0.75464 0.28537 0.60467
 C1927 C 0.76890 0.27094 0.64873
 N1928 N 0.75402 0.26118 0.65469
 N1929 N 0.75323 0.25589 0.67125
 C1930 C 0.76728 0.26021 0.68243
 N1931 N 0.78221 0.26971 0.67636
 N1932 N 0.78305 0.27488 0.65984
 C1933 C 0.22706 0.19443 0.57737
 N1934 N 0.21165 0.18479 0.57246
 N1935 N 0.21139 0.17496 0.55785
 C1936 C 0.22657 0.17430 0.54755
 N1937 N 0.24201 0.18398 0.55249
 N1938 N 0.24227 0.19384 0.56712
 C1939 C 0.22725 0.20485 0.59375
 N1940 N 0.24246 0.21468 0.59901
 N1941 N 0.24265 0.22344 0.61424
 C1942 C 0.22762 0.22268 0.62474
 N1943 N 0.21240 0.21299 0.61938
 N1944 N 0.21220 0.20429 0.60418
 C1945 C 0.22804 0.23087 0.64219
 N1946 N 0.21397 0.22713 0.65323
 N1947 N 0.21475 0.23298 0.66955
 C1948 C 0.22953 0.24296 0.67547
 N1949 N 0.24350 0.24706 0.66435
 N1950 N 0.24278 0.24108 0.64799
 C1951 C 0.73128 0.69206 0.07417
 N1952 N 0.71568 0.68238 0.06985
 N1953 N 0.71439 0.67344 0.05480
 C1954 C 0.72867 0.67373 0.04343
 N1955 N 0.74428 0.68349 0.04776
 N1956 N 0.74557 0.69248 0.06283
 C1957 C 0.73270 0.70123 0.09115
 N1958 N 0.74790 0.71145 0.09578
 N1959 N 0.74925 0.71898 0.11155
 C1960 C 0.73545 0.71649 0.12322
 N1961 N 0.72025 0.70640 0.11850
 N1962 N 0.71888 0.69896 0.10278
 C1963 C 0.73708 0.72333 0.14111
 N1964 N 0.72472 0.71724 0.15299
 N1965 N 0.72633 0.72228 0.16947
 C1966 C 0.74025 0.73378 0.17478
 N1967 N 0.75255 0.74017 0.16289
 N1968 N 0.75103 0.73496 0.14632
 C1969 C 0.14778 0.58781 0.23776
 N1970 N 0.14595 0.57681 0.25198
 N1971 N 0.13699 0.56050 0.25101
 C1972 C 0.12941 0.55458 0.23579
 N1973 N 0.13132 0.56563 0.22160
 N1974 N 0.14034 0.58185 0.22254
 C1975 C 0.15753 0.60596 0.23872
 N1976 N 0.16093 0.61593 0.22411
 N1977 N 0.16967 0.63235 0.22491
 C1978 C 0.17525 0.63950 0.24039
 N1979 N 0.17180 0.62954 0.25499
 N1980 N 0.16314 0.61309 0.25418
 C1981 C 0.18513 0.65757 0.24143
 N1982 N 0.18914 0.66520 0.25709
 N1983 N 0.19861 0.68114 0.25825
 C1984 C 0.20449 0.69016 0.24382
 N1985 N 0.20039 0.68262 0.22810
 N1986 N 0.19082 0.66666 0.22693
 C1987 C 0.65010 0.08981 0.73944
 N1988 N 0.64788 0.07857 0.75346
 N1989 N 0.63872 0.06240 0.75208
 C1990 C 0.63133 0.05688 0.73664
 N1991 N 0.63366 0.06816 0.72268
 N1992 N 0.64286 0.08424 0.72403
 C1993 C 0.66002 0.10782 0.74078
 N1994 N 0.66357 0.11802 0.72635
 N1995 N 0.67242 0.13435 0.72744
 C1996 C 0.67797 0.14118 0.74304
 N1997 N 0.67438 0.13099 0.75749
 N1998 N 0.66560 0.11462 0.75638
 C1999 C 0.68798 0.15914 0.74434
 N2000 N 0.69216 0.16645 0.76010
 N2001 N 0.70174 0.18231 0.76143
 C2002 C 0.70756 0.19154 0.74709
 N2003 N 0.70329 0.18431 0.73129
 N2004 N 0.69361 0.16844 0.72995
 C2005 C 0.85446 0.08907 0.26061
 N2006 N 0.85378 0.07705 0.24702
 N2007 N 0.86267 0.06078 0.24771
 C2008 C 0.87274 0.05592 0.26197
 N2009 N 0.87337 0.06807 0.27549
 N2010 N 0.86440 0.08423 0.27486
 C2011 C 0.84466 0.10707 0.26001
 N2012 N 0.84310 0.11767 0.27451
 N2013 N 0.83428 0.13396 0.27403
 C2014 C 0.82682 0.14036 0.25899
 N2015 N 0.82844 0.12978 0.24449
 N2016 N 0.83715 0.11345 0.24499
 C2017 C 0.81690 0.15829 0.25826
 N2018 N 0.81176 0.16548 0.24273
 N2019 N 0.80220 0.18126 0.24184
 C2020 C 0.79733 0.19055 0.25641
 N2021 N 0.80255 0.18346 0.27201
 N2022 N 0.81225 0.16766 0.27291
 C2023 C 0.35434 0.59135 0.75956
 N2024 N 0.35388 0.57902 0.74621
 N2025 N 0.36277 0.56278 0.74734
 C2026 C 0.37260 0.55824 0.76185
 N2027 N 0.37302 0.57070 0.77512
 N2028 N 0.36407 0.58684 0.77404
 C2029 C 0.34448 0.60928 0.75852
 N2030 N 0.34308 0.62037 0.77271
 N2031 N 0.33414 0.63658 0.77187
 C2032 C 0.32637 0.64239 0.75675
 N2033 N 0.32783 0.63133 0.74255
 N2034 N 0.33667 0.61508 0.74342
 C2035 C 0.31629 0.66021 0.75569
 N2036 N 0.31037 0.66666 0.74011
 N2037 N 0.30075 0.68239 0.73899
 C2038 C 0.29659 0.69236 0.75339
 N2039 N 0.30259 0.68598 0.76902
 N2040 N 0.31233 0.67023 0.77013
 C2041 C 0.34857 0.41592 0.73089
 N2042 N 0.35691 0.42088 0.71588
 N2043 N 0.36681 0.43656 0.71488
 C2044 C 0.36878 0.44803 0.72879
 N2045 N 0.36032 0.44311 0.74380
 N2046 N 0.35046 0.42735 0.74484
 C2047 C 0.33781 0.39841 0.73198
 N2048 N 0.33097 0.39248 0.74736
 N2049 N 0.32136 0.37660 0.74836
 C2050 C 0.31814 0.36603 0.73405
 N2051 N 0.32495 0.37196 0.71864
 N2052 N 0.33463 0.38782 0.71765
 C2053 C 0.30730 0.34858 0.73539
 N2054 N 0.30217 0.33863 0.72111
 N2055 N 0.29185 0.32318 0.72259
 C2056 C 0.28640 0.31706 0.73842
 N2057 N 0.29169 0.32696 0.75262
 N2058 N 0.30190 0.34238 0.75115
 C2059 C 0.84647 0.91582 0.22973
 N2060 N 0.85734 0.91900 0.21580
 N2061 N 0.86768 0.93439 0.21480
 C2062 C 0.86763 0.94737 0.22764
 N2063 N 0.85664 0.94416 0.24160
 N2064 N 0.84632 0.92869 0.24264
 C2065 C 0.83522 0.89862 0.23077
 N2066 N 0.82557 0.89442 0.24529
 N2067 N 0.81567 0.87872 0.24625
 C2068 C 0.81496 0.86661 0.23273
 N2069 N 0.82455 0.87084 0.21818
 N2070 N 0.83451 0.88652 0.21724
 C2071 C 0.80417 0.84914 0.23407
 N2072 N 0.80212 0.83741 0.22034
 N2073 N 0.79241 0.82158 0.22181
 C2074 C 0.78447 0.81689 0.23712
 N2075 N 0.78656 0.82863 0.25078
 N2076 N 0.79617 0.84443 0.24929
 C2077 C 0.65023 0.91241 0.76482
 N2078 N 0.64291 0.91777 0.78015
 N2079 N 0.63364 0.93370 0.78143
 C2080 C 0.63133 0.94505 0.76749
 N2081 N 0.63877 0.93973 0.75215
 N2082 N 0.64799 0.92371 0.75084
 C2083 C 0.66031 0.89460 0.76349
 N2084 N 0.66580 0.88801 0.74789
 N2085 N 0.67480 0.87188 0.74675
 C2086 C 0.67872 0.86171 0.76115
 N2087 N 0.67326 0.86832 0.77677
 N2088 N 0.66418 0.88441 0.77790
 C2089 C 0.68899 0.84402 0.75980
 N2090 N 0.69516 0.83490 0.77415
 N2091 N 0.70506 0.81930 0.77275
 C2092 C 0.70903 0.81215 0.75692
 N2093 N 0.70269 0.82119 0.74262
 N2094 N 0.69289 0.83679 0.74402
 C2095 C 0.14748 0.40964 0.26576
 N2096 N 0.14031 0.41514 0.28110
 N2097 N 0.13152 0.43135 0.28244
 C2098 C 0.12957 0.44282 0.26855
 N2099 N 0.13687 0.43736 0.25320
 N2100 N 0.14561 0.42107 0.25183
 C2101 C 0.15700 0.39153 0.26437
 N2102 N 0.16255 0.38496 0.24878
 N2103 N 0.17107 0.36856 0.24760
 C2104 C 0.17443 0.35811 0.26195
 N2105 N 0.16891 0.36470 0.27755
 N2106 N 0.16031 0.38106 0.27872
 C2107 C 0.18427 0.34018 0.26056
 N2108 N 0.18976 0.33064 0.27492
 N2109 N 0.19938 0.31487 0.27352
 C2110 C 0.20376 0.30797 0.25770
 N2111 N 0.19807 0.31743 0.24339
 N2112 N 0.18853 0.33319 0.24478
 C2113 C 0.06903 0.27346 0.84299
 N2114 N 0.05879 0.28923 0.84248
 N2115 N 0.04312 0.29039 0.85138
 C2116 C 0.03707 0.27581 0.86106
 N2117 N 0.04729 0.25998 0.86143
 N2118 N 0.06301 0.25884 0.85258
 C2119 C 0.08649 0.27237 0.83362
 N2120 N 0.09769 0.25740 0.83562
 N2121 N 0.11374 0.25650 0.82727
 C2122 C 0.11910 0.27053 0.81663
 N2123 N 0.10788 0.28550 0.81460
 N2124 N 0.09186 0.28643 0.82301
 C2125 C 0.13658 0.26934 0.80732
 N2126 N 0.14117 0.28229 0.79527
 N2127 N 0.15690 0.28081 0.78645
 C2128 C 0.16858 0.26638 0.78948
 N2129 N 0.16403 0.25354 0.80163
 N2130 N 0.14830 0.25498 0.81038
 C2131 C 0.57707 0.75945 0.34395
 N2132 N 0.56059 0.75225 0.33847
 N2133 N 0.54546 0.75412 0.34807
 C2134 C 0.54627 0.76348 0.36332
 N2135 N 0.56273 0.77076 0.36872
 N2136 N 0.57791 0.76867 0.35925
 C2137 C 0.59370 0.75737 0.33355
 N2138 N 0.61072 0.75845 0.34113
 N2139 N 0.62596 0.75671 0.33169
 C2140 C 0.62469 0.75410 0.31434
 N2141 N 0.60767 0.75311 0.30673
 N2142 N 0.59241 0.75459 0.31622
 C2143 C 0.64147 0.75262 0.30405
 N2144 N 0.64123 0.75682 0.28693
 N2145 N 0.65675 0.75604 0.27774
 C2146 C 0.67294 0.75077 0.28534
 N2147 N 0.67312 0.74640 0.30242
 N2148 N 0.65766 0.74744 0.31165
 C2149 C 0.58620 0.22568 0.14307
 N2150 N 0.57635 0.20954 0.14314
 N2151 N 0.55931 0.20887 0.13639
 C2152 C 0.55146 0.22435 0.12945
 N2153 N 0.56143 0.24045 0.12926
 N2154 N 0.57850 0.24110 0.13594
 C2155 C 0.60425 0.22681 0.15169
 N2156 N 0.61430 0.24282 0.15116
 N2157 N 0.63002 0.24443 0.16018
 C2158 C 0.63617 0.23012 0.17010
 N2159 N 0.62624 0.21402 0.17048
 N2160 N 0.61054 0.21238 0.16139
 C2161 C 0.65255 0.23252 0.18110
 N2162 N 0.65727 0.21934 0.19291
 N2163 N 0.67157 0.22209 0.20364
 C2164 C 0.68159 0.23813 0.20291
 N2165 N 0.67696 0.25121 0.19100
 N2166 N 0.66264 0.24849 0.18032
 C2167 C 0.07963 0.73039 0.64940
 N2168 N 0.07207 0.74533 0.64131
 N2169 N 0.05552 0.74398 0.63365
 C2170 C 0.04594 0.72764 0.63377
 N2171 N 0.05358 0.71269 0.64183
 N2172 N 0.07011 0.71405 0.64955
 C2173 C 0.09757 0.73200 0.65814
 N2174 N 0.10414 0.71777 0.66795
 N2175 N 0.12024 0.71948 0.67638
 C2176 C 0.13032 0.73543 0.67521
 N2177 N 0.12382 0.74959 0.66530
 N2178 N 0.10770 0.74792 0.65692
 C2179 C 0.14760 0.73760 0.68498
 N2180 N 0.15821 0.75311 0.68300
 N2181 N 0.17364 0.75543 0.69234
 C2182 C 0.17892 0.74235 0.70403
 N2183 N 0.16835 0.72681 0.70597
 N2184 N 0.15295 0.72446 0.69658
 C2185 C 0.90562 0.77385 0.62854
 N2186 N 0.91450 0.75770 0.62508
 N2187 N 0.93187 0.75789 0.61942
 C2188 C 0.94106 0.77424 0.61695
 N2189 N 0.93186 0.79042 0.61989
 N2190 N 0.91453 0.79023 0.62572
 C2191 C 0.88787 0.77337 0.63747
 N2192 N 0.88181 0.78857 0.64616
 N2193 N 0.86726 0.78730 0.65662
 C2194 C 0.85828 0.77080 0.65866
 N2195 N 0.86402 0.75576 0.64959
 N2196 N 0.87862 0.75700 0.63924
 C2197 C 0.84385 0.76863 0.67166
 N2198 N 0.83478 0.75214 0.67317
 N2199 N 0.82261 0.74948 0.68578
 C2200 C 0.81925 0.76314 0.69744
 N2201 N 0.82825 0.77970 0.69591
 N2202 N 0.84041 0.78238 0.68324
 C2203 C 0.41119 0.27292 0.14164
 N2204 N 0.41850 0.25735 0.13454
 N2205 N 0.43539 0.25772 0.12774
 C2206 C 0.44557 0.27368 0.12775
 N2207 N 0.43810 0.28933 0.13462
 N2208 N 0.42124 0.28894 0.14152
 C2209 C 0.39344 0.27198 0.15054
 N2210 N 0.38771 0.28637 0.16051
 N2211 N 0.37240 0.28479 0.16994
 C2212 C 0.36231 0.26878 0.16967
 N2213 N 0.36787 0.25452 0.15947
 N2214 N 0.38321 0.25607 0.15010
 C2215 C 0.34642 0.26634 0.18103
 N2216 N 0.33628 0.25039 0.18036
 N2217 N 0.32242 0.24758 0.19133
 C2218 C 0.31831 0.26057 0.20343
 N2219 N 0.32838 0.27658 0.20407
 N2220 N 0.34224 0.27941 0.19305
 C2221 C 0.40229 0.72905 0.37162
 N2222 N 0.40982 0.71198 0.37399
 N2223 N 0.42717 0.71031 0.37972
 C2224 C 0.43771 0.72561 0.38318
 N2225 N 0.42997 0.74270 0.38126
 N2226 N 0.41256 0.74439 0.37557
 C2227 C 0.38464 0.73085 0.36241
 N2228 N 0.37714 0.74789 0.35964
 N2229 N 0.36263 0.74982 0.34904
 C2230 C 0.35529 0.73482 0.34072
 N2231 N 0.36255 0.71774 0.34376
 N2232 N 0.37697 0.71580 0.35445
 C2233 C 0.34084 0.73726 0.32760
 N2234 N 0.33631 0.72314 0.31665
 N2235 N 0.32389 0.72571 0.30403
 C2236 C 0.31565 0.74251 0.30195
 N2237 N 0.32012 0.75658 0.31297
 N2238 N 0.33261 0.75404 0.32550
 C2239 C 0.90106 0.22655 0.87892
 N2240 N 0.91138 0.21082 0.87913
 N2241 N 0.92872 0.21117 0.88520
 C2242 C 0.93641 0.22730 0.89109
 N2243 N 0.92586 0.24289 0.89136
 N2244 N 0.90849 0.24251 0.88540
 C2245 C 0.88368 0.22719 0.86912
 N2246 N 0.87386 0.24323 0.86839
 N2247 N 0.85996 0.24511 0.85711
 C2248 C 0.85551 0.23107 0.84607
 N2249 N 0.86499 0.21484 0.84709
 N2250 N 0.87886 0.21293 0.85843
 C2251 C 0.84193 0.23418 0.83226
 N2252 N 0.83908 0.22127 0.81967
 N2253 N 0.82748 0.22471 0.80656
 C2254 C 0.81851 0.24125 0.80554
 N2255 N 0.82137 0.25411 0.81816
 N2256 N 0.83295 0.25068 0.83123
 C2257 C 0.56488 1.01437 0.67466
 N2258 N 0.56817 0.99952 0.68512
 N2259 N 0.57914 1.00121 0.69904
 C2260 C 0.58751 1.01775 0.70292
 N2261 N 0.58417 1.03253 0.69234
 N2262 N 0.57305 1.03091 0.67857
 C2263 C 0.55332 1.01258 0.65895
 N2264 N 0.54689 1.02801 0.65073
 N2265 N 0.53741 1.02656 0.63590
 C2266 C 0.53415 1.00962 0.62865
 N2267 N 0.54047 0.99419 0.63693
 N2268 N 0.54978 0.99562 0.65186
 C2269 C 0.52553 1.00813 0.61136
 N2270 N 0.52810 0.99259 0.60173
 N2271 N 0.52209 0.99181 0.58540
 C2272 C 0.51303 1.00643 0.57814
 N2273 N 0.51007 1.02186 0.58788
 N2274 N 0.51630 1.02273 0.60418
 C2275 C 0.06181 0.50905 1.17543
 N2276 N 0.06868 0.49408 1.18407
 N2277 N 0.07995 0.49636 1.19770
 C2278 C 0.08496 0.51371 1.20309
 N2279 N 0.07804 0.52864 1.19443
 N2280 N 0.06667 0.52637 1.18090
 C2281 C 0.04993 0.50666 1.15998
 N2282 N 0.04116 0.52150 1.15279
 N2283 N 0.03128 0.51960 1.13823
 C2284 C 0.02986 0.50279 1.13026
 N2285 N 0.03852 0.48792 1.13754
 N2286 N 0.04829 0.48979 1.15217
 C2287 C 0.02065 0.50107 1.11326
 N2288 N 0.02357 0.48581 1.10332
 N2289 N 0.01707 0.48502 1.08715
 C2290 C 0.00717 0.49935 1.08035
 N2291 N 0.00385 0.51445 1.09043
 N2292 N 0.01051 0.51531 1.10658
 C2293 C -0.06306 -0.01370 1.16823
 N2294 N -0.06554 0.00109 1.17892
 N2295 N -0.07683 -0.00021 1.19249
 C2296 C -0.08633 -0.01625 1.19577
 N2297 N -0.08378 -0.03096 1.18496
 N2298 N -0.07236 -0.02974 1.17154
 C2299 C -0.05115 -0.01230 1.15288
 N2300 N -0.04582 -0.02792 1.14437
 N2301 N -0.03607 -0.02675 1.12982
 C2302 C -0.03139 -0.00989 1.12315
 N2303 N -0.03660 0.00573 1.13172
 N2304 N -0.04619 0.00455 1.14637
 C2305 C -0.02248 -0.00853 1.10611
 N2306 N -0.02352 0.00757 1.09697
 N2307 N -0.01733 0.00842 1.08080
 C2308 C -0.00961 -0.00669 1.07319
 N2309 N -0.00816 -0.02271 1.08245
 N2310 N -0.01457 -0.02363 1.09859
 C2311 C 0.43795 0.48960 0.66960
 N2312 N 0.43486 0.50433 0.68020
 N2313 N 0.42349 0.50270 0.69368
 C2314 C 0.41449 0.48636 0.69694
 N2315 N 0.41762 0.47171 0.68621
 N2316 N 0.42914 0.47326 0.67289
 C2317 C 0.45005 0.49132 0.65441
 N2318 N 0.45636 0.47584 0.64630
 N2319 N 0.46636 0.47725 0.63191
 C2320 C 0.47029 0.49418 0.62500
 N2321 N 0.46409 0.50968 0.63318
 N2322 N 0.45426 0.50828 0.64768
 C2323 C 0.47942 0.49561 0.60807
 N2324 N 0.47750 0.51126 0.59839
 N2325 N 0.48370 0.51184 0.58220
 C2326 C 0.49233 0.49693 0.57514
 N2327 N 0.49469 0.48142 0.58496
 N2328 N 0.48828 0.48075 0.60111
 C2329 C 0.43520 0.51244 -0.17520
 N2330 N 0.42787 0.49757 -0.18379
 N2331 N 0.41758 0.49999 -0.19805
 C2332 C 0.41406 0.51739 -0.20414
 N2333 N 0.42148 0.53220 -0.19554
 N2334 N 0.43187 0.52978 -0.18140
 C2335 C 0.44586 0.50998 -0.15903
 N2336 N 0.45524 0.52456 -0.15185
 N2337 N 0.46402 0.52270 -0.13670
 C2338 C 0.46364 0.50622 -0.12809
 N2339 N 0.45436 0.49161 -0.13533
 N2340 N 0.44571 0.49343 -0.15055
 C2341 C 0.47187 0.50459 -0.11066
 N2342 N 0.46739 0.48991 -0.10044
 N2343 N 0.47347 0.48907 -0.08414
 C2344 C 0.48446 0.50276 -0.07747
 N2345 N 0.48925 0.51732 -0.08778
 N2346 N 0.48301 0.51824 -0.10407
 C2347 C -0.06255 1.00940 0.32255
 N2348 N -0.07001 0.99463 0.31391
 N2349 N -0.08074 0.99723 0.29996
 C2350 C -0.08459 1.01471 0.29426
 N2351 N -0.07704 1.02942 0.30291
 N2352 N -0.06621 1.02682 0.31673
 C2353 C -0.05142 1.00675 0.33842
 N2354 N -0.04209 1.02132 0.34565
 N2355 N -0.03295 1.01931 0.36060
 C2356 C -0.03289 1.00267 0.36894
 N2357 N -0.04210 0.98805 0.36164
 N2358 N -0.05112 0.99003 0.34662
 C2359 C -0.02437 1.00091 0.38624
 N2360 N -0.02834 0.98594 0.39630
 N2361 N -0.02221 0.98510 0.41259
 C2362 C -0.01169 0.99908 0.41941
 N2363 N -0.00739 1.01390 0.40925
 N2364 N -0.01367 1.01482 0.39298
 C2365 C 0.06375 0.48674 0.33010
 N2366 N 0.06873 0.46959 0.32450
 N2367 N 0.07979 0.46770 0.31088
 C2368 C 0.08627 0.48286 0.30224
 N2369 N 0.08114 0.50004 0.30777
 N2370 N 0.07018 0.50194 0.32149
 C2371 C 0.05222 0.48873 0.34563
 N2372 N 0.05036 0.50556 0.35342
 N2373 N 0.04089 0.50713 0.36810
 C2374 C 0.03278 0.49199 0.37547
 N2375 N 0.03441 0.47521 0.36754
 N2376 N 0.04398 0.47361 0.35293
 C2377 C 0.02387 0.49352 0.39249
 N2378 N 0.01413 0.47905 0.39933
 N2379 N 0.00763 0.47994 0.41544
 C2380 C 0.01075 0.49530 0.42533
 N2381 N 0.02029 0.50982 0.41838
 N2382 N 0.02661 0.50901 0.40226
 C2383 C 0.56453 -0.01213 -0.17104
 N2384 N 0.57072 0.00312 -0.17971
 N2385 N 0.58168 0.00132 -0.19344
 C2386 C 0.58704 -0.01580 -0.19893
 N2387 N 0.58080 -0.03102 -0.19023
 N2388 N 0.56974 -0.02923 -0.17659
 C2389 C 0.55299 -0.01020 -0.15549
 N2390 N 0.54491 -0.02537 -0.14813
 N2391 N 0.53528 -0.02378 -0.13353
 C2392 C 0.53344 -0.00697 -0.12571
 N2393 N 0.54142 0.00821 -0.13314
 N2394 N 0.55092 0.00665 -0.14780
 C2395 C 0.52442 -0.00540 -0.10873
 N2396 N 0.52700 0.01015 -0.09902
 N2397 N 0.52052 0.01104 -0.08296
 C2398 C 0.51098 -0.00347 -0.07601
 N2399 N 0.50802 -0.01891 -0.08584
 N2400 N 0.51468 -0.01988 -0.10189
 C2401 C 0.65935 0.61811 -0.00609
 N2402 N 0.67399 0.61706 -0.01703
 N2403 N 0.68992 0.62591 -0.01333
 C2404 C 0.69186 0.63610 0.00147
 N2405 N 0.67708 0.63714 0.01224
 N2406 N 0.66123 0.62837 0.00856
 C2407 C 0.64184 0.60788 -0.00928
 N2408 N 0.62815 0.60888 0.00261
 N2409 N 0.61254 0.59913 0.00065
 C2410 C 0.60986 0.58798 -0.01332
 N2411 N 0.62345 0.58705 -0.02542
 N2412 N 0.63919 0.59684 -0.02342
 C2413 C 0.59291 0.57637 -0.01421
 N2414 N 0.58820 0.56601 -0.02837
 N2415 N 0.57307 0.55508 -0.02824
 C2416 C 0.56228 0.55406 -0.01388
 N2417 N 0.56703 0.56451 0.00010
 N2418 N 0.58193 0.57547 -0.00009
 C2419 C 0.15876 1.11793 0.49553
 N2420 N 0.17432 1.11552 0.48597
 N2421 N 0.19015 1.12415 0.49035
 C2422 C 0.19105 1.13545 0.50449
 N2423 N 0.17542 1.13787 0.51391
 N2424 N 0.15964 1.12930 0.50953
 C2425 C 0.14130 1.10797 0.49155
 N2426 N 0.12647 1.11039 0.50198
 N2427 N 0.11085 1.10082 0.49935
 C2428 C 0.10933 1.08846 0.48613
 N2429 N 0.12409 1.08614 0.47548
 N2430 N 0.13981 1.09573 0.47815
 C2431 C 0.09236 1.07699 0.48464
 N2432 N 0.08921 1.06513 0.47116
 N2433 N 0.07416 1.05410 0.47090
 C2434 C 0.06189 1.05450 0.48419
 N2435 N 0.06506 1.06647 0.49748
 N2436 N 0.07989 1.07753 0.49765
 C2437 C 0.16068 -0.12138 0.99818
 N2438 N 0.17498 -0.12113 1.00977
 N2439 N 0.19071 -0.13020 1.00645
 C2440 C 0.19276 -0.13986 0.99142
 N2441 N 0.17836 -0.14013 0.97997
 N2442 N 0.16270 -0.13110 0.98326
 C2443 C 0.14344 -0.11086 1.00108
 N2444 N 0.13028 -0.11047 0.98844
 N2445 N 0.11491 -0.10051 0.99035
 C2446 C 0.11197 -0.09058 1.00499
 N2447 N 0.12504 -0.09105 1.01779
 N2448 N 0.14052 -0.10101 1.01585
 C2449 C 0.09524 -0.07886 1.00609
 N2450 N 0.09032 -0.06985 1.02086
 N2451 N 0.07534 -0.05888 1.02109
 C2452 C 0.06490 -0.05648 1.00651
 N2453 N 0.06988 -0.06557 0.99189
 N2454 N 0.08464 -0.07656 0.99170
 C2455 C 0.66045 0.37848 0.50016
 N2456 N 0.67505 0.37918 0.51141
 N2457 N 0.69075 0.37013 0.50795
 C2458 C 0.69254 0.36005 0.49311
 N2459 N 0.67782 0.35937 0.48201
 N2460 N 0.66217 0.36836 0.48544
 C2461 C 0.64313 0.38881 0.50326
 N2462 N 0.62931 0.38807 0.49126
 N2463 N 0.61381 0.39776 0.49332
 C2464 C 0.61138 0.40860 0.50750
 N2465 N 0.62512 0.40929 0.51967
 N2466 N 0.64074 0.39956 0.51758
 C2467 C 0.59438 0.41992 0.50874
 N2468 N 0.59036 0.43042 0.52289
 N2469 N 0.57514 0.44104 0.52314
 C2470 C 0.56350 0.44156 0.50918
 N2471 N 0.56756 0.43096 0.49519
 N2472 N 0.58259 0.42035 0.49499
 C2473 C -0.16008 0.37859 0.50097
 N2474 N -0.17520 0.38007 0.49042
 N2475 N -0.19105 0.37134 0.49433
 C2476 C -0.19242 0.36082 0.50895
 N2477 N -0.17722 0.35933 0.51935
 N2478 N -0.16143 0.36801 0.51546
 C2479 C -0.14260 0.38865 0.49746
 N2480 N -0.12830 0.38723 0.50889
 N2481 N -0.11266 0.39679 0.50656
 C2482 C -0.11057 0.40815 0.49267
 N2483 N -0.12479 0.40949 0.48105
 N2484 N -0.14054 0.39990 0.48341
 C2485 C -0.09351 0.41951 0.49131
 N2486 N -0.08972 0.43033 0.47728
 N2487 N -0.07452 0.44115 0.47702
 C2488 C -0.06270 0.44156 0.49084
 N2489 N -0.06650 0.43063 0.50469
 N2490 N -0.08150 0.41979 0.50490
 C2491 C 0.34049 -0.12118 -0.00010
 N2492 N 0.32540 -0.11991 -0.01070
 N2493 N 0.30964 -0.12881 -0.00681
 C2494 C 0.30832 -0.13927 0.00784
 N2495 N 0.32348 -0.14053 0.01832
 N2496 N 0.33920 -0.13169 0.01445
 C2497 C 0.35787 -0.11096 -0.00367
 N2498 N 0.37221 -0.11218 0.00773
 N2499 N 0.38775 -0.10248 0.00531
 C2500 C 0.38969 -0.09118 -0.00865
 N2501 N 0.37542 -0.09004 -0.02023
 N2502 N 0.35977 -0.09977 -0.01778
 C2503 C 0.40663 -0.07966 -0.01011
 N2504 N 0.41020 -0.06876 -0.02415
 N2505 N 0.42528 -0.05777 -0.02448
 C2506 C 0.43720 -0.05727 -0.01073
 N2507 N 0.43361 -0.06829 0.00312
 N2508 N 0.41873 -0.07929 0.00339
 C2509 C 0.33963 1.11806 0.50134
 N2510 N 0.32460 1.11667 0.51179
 N2511 N 0.30885 1.12547 0.50775
 C2512 C 0.30752 1.13598 0.49312
 N2513 N 0.32264 1.13738 0.48281
 N2514 N 0.33832 1.12862 0.48682
 C2515 C 0.35694 1.10785 0.50492
 N2516 N 0.37090 1.10873 0.49329
 N2517 N 0.38635 1.09900 0.49566
 C2518 C 0.38860 1.08803 0.50981
 N2519 N 0.37474 1.08725 0.52165
 N2520 N 0.35915 1.09699 0.51923
 C2521 C 0.40541 1.07648 0.51118
 N2522 N 0.40996 1.06671 0.52571
 N2523 N 0.42509 1.05594 0.52608
 C2524 C 0.43601 1.05451 0.51185
 N2525 N 0.43139 1.06434 0.49749
 N2526 N 0.41650 1.07514 0.49718
 C2527 C -0.16052 0.61827 0.99974
 N2528 N -0.17648 0.61537 1.00861
 N2529 N -0.19218 0.62374 1.00371
 C2530 C -0.19254 0.63526 0.98972
 N2531 N -0.17652 0.63813 0.98095
 N2532 N -0.16087 0.62983 0.98585
 C2533 C -0.14313 0.60875 1.00446
 N2534 N -0.12764 0.61203 0.99506
 N2535 N -0.11200 0.60292 0.99843
 C2536 C -0.11113 0.59017 1.01138
 N2537 N -0.12657 0.58698 1.02098
 N2538 N -0.14229 0.59613 1.01759
 C2539 C -0.09405 0.57920 1.01363
 N2540 N -0.09193 0.56645 1.02654
 N2541 N -0.07681 0.55572 1.02729
 C2542 C -0.06339 0.55735 1.01508
 N2543 N -0.06551 0.57024 1.00240
 N2544 N -0.08044 0.58099 1.00174
 C2545 C -0.01625 0.65402 0.59927
 N2546 N -0.02395 0.66937 0.59197
 N2547 N -0.01847 0.68632 0.59685
 C2548 C -0.00496 0.68851 0.60906
 N2549 N 0.00234 0.67312 0.61664
 N2550 N -0.00317 0.65620 0.61181
 C2551 C -0.01956 0.63561 0.59186
 N2552 N -0.00954 0.62090 0.59765
 N2553 N -0.00983 0.60485 0.58908
 C2554 C -0.02015 0.60296 0.57444
 N2555 N -0.03065 0.61747 0.56894
 N2556 N -0.03033 0.63356 0.57749
 C2557 C -0.01814 0.58642 0.56369
 N2558 N -0.02808 0.58452 0.54881
 N2559 N -0.02505 0.57021 0.53828
 C2560 C -0.01180 0.55748 0.54218
 N2561 N -0.00192 0.55934 0.55710
 N2562 N -0.00501 0.57360 0.56765
 C2563 C 0.48370 0.15395 0.09950
 N2564 N 0.47650 0.16965 0.09238
 N2565 N 0.48277 0.18635 0.09723
 C2566 C 0.49660 0.18790 0.10921
 N2567 N 0.50337 0.17220 0.11664
 N2568 N 0.49705 0.15555 0.11187
 C2569 C 0.47978 0.13573 0.09193
 N2570 N 0.48920 0.12064 0.09773
 N2571 N 0.48871 0.10475 0.08893
 C2572 C 0.47880 0.10340 0.07399
 N2573 N 0.46884 0.11828 0.06847
 N2574 N 0.46936 0.13421 0.07728
 C2575 C 0.48088 0.08706 0.06298
 N2576 N 0.47132 0.08557 0.04784
 N2577 N 0.47452 0.07147 0.03712
 C2578 C 0.48758 0.05856 0.04106
 N2579 N 0.49707 0.06001 0.05623
 N2580 N 0.49381 0.07405 0.06698
 C2581 C 0.01206 0.16229 0.91021
 N2582 N 0.01852 0.17816 0.91776
 N2583 N 0.01064 0.19449 0.91421
 C2584 C -0.00415 0.19538 0.90324
 N2585 N -0.01030 0.17958 0.89545
 N2586 N -0.00232 0.16335 0.89885
 C2587 C 0.01805 0.14400 0.91621
 N2588 N 0.01058 0.12855 0.90879
 N2589 N 0.01262 0.11197 0.91616
 C2590 C 0.02217 0.11023 0.93124
 N2591 N 0.03027 0.12557 0.93837
 N2592 N 0.02823 0.14220 0.93098
 C2593 C 0.02114 0.09275 0.94083
 N2594 N 0.03007 0.09070 0.95624
 N2595 N 0.02732 0.07550 0.96579
 C2596 C 0.01532 0.06203 0.96036
 N2597 N 0.00653 0.06404 0.94490
 N2598 N 0.00938 0.07914 0.93533
 C2599 C 0.50471 0.64960 0.39846
 N2600 N 0.51488 0.66454 0.40376
 N2601 N 0.50872 0.68175 0.40101
 C2602 C 0.49206 0.68457 0.39311
 N2603 N 0.48214 0.66961 0.38750
 N2604 N 0.48834 0.65244 0.39014
 C2605 C 0.50952 0.63088 0.40419
 N2606 N 0.49823 0.61637 0.40000
 N2607 N 0.50012 0.60002 0.40787
 C2608 C 0.51334 0.59764 0.42024
 N2609 N 0.52510 0.61194 0.42399
 N2610 N 0.52322 0.62830 0.41609
 C2611 C 0.51292 0.58109 0.43117
 N2612 N 0.52468 0.57952 0.44488
 N2613 N 0.52274 0.56561 0.45612
 C2614 C 0.50883 0.55295 0.45411
 N2615 N 0.49722 0.55439 0.44028
 N2616 N 0.49919 0.56827 0.42904
 C2617 C 0.49957 0.83751 0.41325
 N2618 N 0.48939 0.82248 0.41817
 N2619 N 0.49260 0.80580 0.41131
 C2620 C 0.50618 0.80357 0.39939
 N2621 N 0.51623 0.81868 0.39446
 N2622 N 0.51300 0.83532 0.40126
 C2623 C 0.49692 0.85570 0.42121
 N2624 N 0.50746 0.87036 0.41608
 N2625 N 0.50608 0.88675 0.42392
 C2626 C 0.49411 0.88906 0.43718
 N2627 N 0.48338 0.87446 0.44222
 N2628 N 0.48476 0.85803 0.43436
 C2629 C 0.49373 0.90674 0.44646
 N2630 N 0.48238 0.90917 0.46020
 N2631 N 0.48288 0.92502 0.46914
 C2632 C 0.49479 0.93889 0.46466
 N2633 N 0.50603 0.93648 0.45086
 N2634 N 0.50551 0.92067 0.44192
 C2635 C -0.02101 0.34990 0.89903
 N2636 N -0.00799 0.34767 0.88665
 N2637 N -0.00295 0.33072 0.88172
 C2638 C -0.01063 0.31535 0.88904
 N2639 N -0.02408 0.31761 0.90108
 N2640 N -0.02913 0.33459 0.90602
 C2641 C -0.02379 0.36821 0.90671
 N2642 N -0.03508 0.37021 0.92054
 N2643 N -0.03502 0.38600 0.92956
 C2644 C -0.02358 0.40026 0.92509
 N2645 N -0.01271 0.39846 0.91096
 N2646 N -0.01281 0.38270 0.90192
 C2647 C -0.02128 0.41627 0.93652
 N2648 N -0.00741 0.42876 0.93379
 N2649 N -0.00413 0.44239 0.94509
 C2650 C -0.01456 0.44390 0.95956
 N2651 N -0.02854 0.43151 0.96220
 N2652 N -0.03177 0.41785 0.95093
 C2653 C 0.51359 0.34227 0.09565
 N2654 N 0.52017 0.32628 0.08869
 N2655 N 0.51374 0.30982 0.09397
 C2656 C 0.50034 0.30884 0.10621
 N2657 N 0.49415 0.32483 0.11343
 N2658 N 0.50065 0.34124 0.10825
 C2659 C 0.51783 0.36030 0.08787
 N2660 N 0.50950 0.37580 0.09403
 N2661 N 0.51028 0.39170 0.08527
 C2662 C 0.51941 0.39267 0.07003
 N2663 N 0.52829 0.37734 0.06411
 N2664 N 0.52748 0.36139 0.07288
 C2665 C 0.51757 0.40923 0.05923
 N2666 N 0.52629 0.41045 0.04376
 N2667 N 0.52322 0.42490 0.03334
 C2668 C 0.51112 0.43842 0.03793
 N2669 N 0.50248 0.43721 0.05341
 N2670 N 0.50563 0.42285 0.06386
 C2671 C 0.01264 0.84289 0.59428
 N2672 N -0.00185 0.84170 0.60531
 N2673 N -0.00925 0.82527 0.60924
 C2674 C -0.00244 0.80940 0.60228
 N2675 N 0.01245 0.81051 0.59165
 N2676 N 0.01978 0.82700 0.58760
 C2677 C 0.01803 0.86106 0.58747
 N2678 N 0.02890 0.86238 0.57325
 N2679 N 0.03055 0.87850 0.56487
 C2680 C 0.02134 0.89379 0.57043
 N2681 N 0.01107 0.89261 0.58501
 N2682 N 0.00943 0.87653 0.59337
 C2683 C 0.02000 0.91034 0.55956
 N2684 N 0.00750 0.92372 0.56347
 N2685 N 0.00442 0.93777 0.55264
 C2686 C 0.01369 0.93888 0.53747
 N2687 N 0.02641 0.92566 0.53364
 N2688 N 0.02941 0.91153 0.54445
 C2689 C 0.26025 0.31142 0.07933
 N2690 N 0.24550 0.31515 0.06885
 N2691 N 0.24742 0.32619 0.05507
 C2692 C 0.26411 0.33416 0.05136
 N2693 N 0.27878 0.33038 0.06196
 N2694 N 0.27692 0.31921 0.07559
 C2695 C 0.25824 0.29975 0.09485
 N2696 N 0.27350 0.29292 0.10305
 N2697 N 0.27190 0.28332 0.11772
 C2698 C 0.25498 0.28030 0.12483
 N2699 N 0.23969 0.28701 0.11657
 N2700 N 0.24128 0.29646 0.10179
 C2701 C 0.25343 0.27150 0.14195
 N2702 N 0.23792 0.27394 0.15152
 N2703 N 0.23721 0.26784 0.16778
 C2704 C 0.25186 0.25883 0.17503
 N2705 N 0.26723 0.25600 0.16534
 N2706 N 0.26803 0.26229 0.14912
 C2707 C 0.76142 0.81012 0.57664
 N2708 N 0.74652 0.81755 0.56831
 N2709 N 0.74880 0.82827 0.55437
 C2710 C 0.76608 0.83213 0.54835
 N2711 N 0.78094 0.82462 0.55670
 N2712 N 0.77866 0.81380 0.57053
 C2713 C 0.75911 0.79900 0.59248
 N2714 N 0.77377 0.78981 0.59954
 N2715 N 0.77206 0.78071 0.61448
 C2716 C 0.75564 0.78053 0.62298
 N2717 N 0.74094 0.78958 0.61585
 N2718 N 0.74261 0.79857 0.60084
 C2719 C 0.75427 0.77222 0.64033
 N2720 N 0.73958 0.77620 0.65054
 N2721 N 0.73918 0.77045 0.66692
 C2722 C 0.75335 0.76032 0.67369
 N2723 N 0.76788 0.75596 0.66338
 N2724 N 0.76835 0.76185 0.64700
 C2725 C 0.23851 0.68851 0.57555
 N2726 N 0.22149 0.68306 0.56978
 N2727 N 0.21980 0.67169 0.55624
 C2728 C 0.23502 0.66534 0.54784
 N2729 N 0.25206 0.67098 0.55350
 N2730 N 0.25377 0.68227 0.56715
 C2731 C 0.24027 0.70017 0.59116
 N2732 N 0.25698 0.70246 0.59915
 N2733 N 0.25832 0.71188 0.61398
 C2734 C 0.24306 0.71951 0.62131
 N2735 N 0.22640 0.71747 0.61318
 N2736 N 0.22503 0.70794 0.59840
 C2737 C 0.24439 0.72826 0.63852
 N2738 N 0.22978 0.73751 0.64544
 N2739 N 0.23058 0.74386 0.66168
 C2740 C 0.24598 0.74106 0.67159
 N2741 N 0.26061 0.73202 0.66456
 N2742 N 0.25988 0.72584 0.64833
 C2743 C 0.73949 0.18564 0.07899
 N2744 N 0.72301 0.17729 0.07530
 N2745 N 0.72123 0.16607 0.06167
 C2746 C 0.73580 0.16279 0.05100
 N2747 N 0.75230 0.17131 0.05468
 N2748 N 0.75415 0.18239 0.06847
 C2749 C 0.74139 0.19748 0.09447
 N2750 N 0.75836 0.20146 0.10135
 N2751 N 0.75988 0.21112 0.11604
 C2752 C 0.74452 0.21737 0.12428
 N2753 N 0.72758 0.21364 0.11724
 N2754 N 0.72605 0.20383 0.10265
 C2755 C 0.74610 0.22645 0.14131
 N2756 N 0.73134 0.23524 0.14843
 N2757 N 0.73226 0.24179 0.16458
 C2758 C 0.74793 0.23964 0.17425
 N2759 N 0.76273 0.23105 0.16704
 N2760 N 0.76189 0.22471 0.15085
 C2761 C 0.76302 0.18878 0.92550
 N2762 N 0.78018 0.18386 0.93115
 N2763 N 0.78222 0.17244 0.94461
 C2764 C 0.76719 0.16552 0.95304
 N2765 N 0.75000 0.17062 0.94748
 N2766 N 0.74795 0.18195 0.93391
 C2767 C 0.76089 0.20060 0.91003
 N2768 N 0.74412 0.20234 0.90207
 N2769 N 0.74247 0.21197 0.88740
 C2770 C 0.75749 0.22039 0.88020
 N2771 N 0.77421 0.21890 0.88831
 N2772 N 0.77588 0.20915 0.90292
 C2773 C 0.75595 0.22941 0.86314
 N2774 N 0.77034 0.23934 0.85645
 N2775 N 0.76952 0.24585 0.84027
 C2776 C 0.75432 0.24257 0.83018
 N2777 N 0.73987 0.23287 0.83698
 N2778 N 0.74062 0.22653 0.85316
 C2779 C 0.26183 0.68676 0.42139
 N2780 N 0.24688 0.68039 0.43027
 N2781 N 0.24906 0.66930 0.44398
 C2782 C 0.26629 0.66397 0.44924
 N2783 N 0.28121 0.67036 0.44032
 N2784 N 0.27904 0.68156 0.42671
 C2785 C 0.25946 0.69852 0.40590
 N2786 N 0.27432 0.70696 0.39846
 N2787 N 0.27233 0.71684 0.38395
 C2788 C 0.25539 0.71860 0.37628
 N2789 N 0.24052 0.71026 0.38379
 N2790 N 0.24249 0.70050 0.39837
 C2791 C 0.25342 0.72791 0.35937
 N2792 N 0.23785 0.72519 0.34968
 N2793 N 0.23669 0.73185 0.33362
 C2794 C 0.25094 0.74175 0.32668
 N2795 N 0.26637 0.74486 0.33652
 N2796 N 0.26760 0.73803 0.35255
 C2797 C 0.73350 0.82026 0.41705
 N2798 N 0.72494 0.83699 0.41801
 N2799 N 0.72465 0.84644 0.43280
 C2800 C 0.73307 0.83969 0.44724
 N2801 N 0.74188 0.82300 0.44627
 N2802 N 0.74206 0.81343 0.43144
 C2803 C 0.73340 0.81020 0.40046
 N2804 N 0.73875 0.79211 0.39917
 N2805 N 0.73839 0.78342 0.38387
 C2806 C 0.73272 0.79258 0.36936
 N2807 N 0.72739 0.81059 0.37075
 N2808 N 0.72762 0.81918 0.38598
 C2809 C 0.73328 0.78403 0.35207
 N2810 N 0.73272 0.79532 0.33804
 N2811 N 0.73380 0.78833 0.32218
 C2812 C 0.73521 0.76972 0.31962
 N2813 N 0.73550 0.75824 0.33363
 N2814 N 0.73463 0.76531 0.34963
 C2815 C 0.23356 0.32252 0.92000
 N2816 N 0.22801 0.34053 0.92055
 N2817 N 0.22708 0.34958 0.93552
 C2818 C 0.23200 0.34111 0.95055
 N2819 N 0.23781 0.32313 0.95004
 N2820 N 0.23852 0.31396 0.93502
 C2821 C 0.23420 0.31289 0.90322
 N2822 N 0.23386 0.29398 0.90197
 N2823 N 0.23389 0.28569 0.88648
 C2824 C 0.23441 0.29606 0.87176
 N2825 N 0.23484 0.31488 0.87311
 N2826 N 0.23459 0.32313 0.88850
 C2827 C 0.23514 0.28761 0.85444
 N2828 N 0.24156 0.29809 0.84118
 N2829 N 0.24197 0.29131 0.82521
 C2830 C 0.23579 0.27383 0.82171
 N2831 N 0.22926 0.26321 0.83495
 N2832 N 0.22903 0.26998 0.85109
 C2833 C 0.87326 0.41230 0.75440
 N2834 N 0.88409 0.41342 0.74014
 N2835 N 0.89288 0.42918 0.73617
 C2836 C 0.89127 0.44456 0.74626
 N2837 N 0.88051 0.44341 0.76064
 N2838 N 0.87165 0.42759 0.76463
 C2839 C 0.86306 0.39486 0.75798
 N2840 N 0.85152 0.39306 0.77176
 N2841 N 0.84180 0.37736 0.77418
 C2842 C 0.84329 0.36293 0.76288
 N2843 N 0.85493 0.36475 0.74926
 N2844 N 0.86462 0.38035 0.74688
 C2845 C 0.83182 0.34591 0.76427
 N2846 N 0.83177 0.33366 0.75094
 N2847 N 0.82085 0.31870 0.75115
 C2848 C 0.80960 0.31516 0.76476
 N2849 N 0.80977 0.32724 0.77834
 N2850 N 0.82067 0.34240 0.77807
 C2851 C 0.37001 0.91134 0.25049
 N2852 N 0.37997 0.91281 0.23572
 N2853 N 0.38905 0.92846 0.23193
 C2854 C 0.38862 0.94340 0.24271
 N2855 N 0.37870 0.94185 0.25760
 N2856 N 0.36955 0.92616 0.26141
 C2857 C 0.35956 0.89403 0.25399
 N2858 N 0.34871 0.89199 0.26822
 N2859 N 0.33881 0.87640 0.27063
 C2860 C 0.33944 0.86232 0.25887
 N2861 N 0.35040 0.86439 0.24479
 N2862 N 0.36025 0.87988 0.24241
 C2863 C 0.32785 0.84539 0.26034
 N2864 N 0.32737 0.83333 0.24687
 N2865 N 0.31641 0.81841 0.24718
 C2866 C 0.30552 0.81473 0.26101
 N2867 N 0.30610 0.82663 0.27473
 N2868 N 0.31706 0.84175 0.27437
 C2869 C 0.13070 0.91176 0.74703
 N2870 N 0.13124 0.92632 0.73581
 N2871 N 0.12226 0.94209 0.73934
 C2872 C 0.11242 0.94392 0.75422
 N2873 N 0.11187 0.92926 0.76531
 N2874 N 0.12081 0.91355 0.76180
 C2875 C 0.14110 0.89445 0.74390
 N2876 N 0.14106 0.88091 0.75613
 N2877 N 0.15093 0.86549 0.75405
 C2878 C 0.16120 0.86286 0.73962
 N2879 N 0.16115 0.87631 0.72722
 N2880 N 0.15127 0.89185 0.72933
 C2881 C 0.17287 0.84609 0.73841
 N2882 N 0.18232 0.84152 0.72382
 N2883 N 0.19330 0.82654 0.72356
 C2884 C 0.19526 0.81573 0.73793
 N2885 N 0.18572 0.82034 0.75235
 N2886 N 0.17472 0.83511 0.75257
 C2887 C 0.62861 0.40714 0.25009
 N2888 N 0.61781 0.40826 0.26435
 N2889 N 0.60891 0.42391 0.26814
 C2890 C 0.61040 0.43917 0.25786
 N2891 N 0.62115 0.43802 0.24348
 N2892 N 0.63010 0.42232 0.23967
 C2893 C 0.63893 0.38987 0.24665
 N2894 N 0.65021 0.38808 0.23272
 N2895 N 0.66005 0.37255 0.23039
 C2896 C 0.65894 0.35830 0.24194
 N2897 N 0.64754 0.36012 0.25573
 N2898 N 0.63773 0.37554 0.25802
 C2899 C 0.67059 0.34155 0.24061
 N2900 N 0.67119 0.32960 0.25417
 N2901 N 0.68230 0.31491 0.25397
 C2902 C 0.69321 0.31138 0.24013
 N2903 N 0.69248 0.32314 0.22634
 N2904 N 0.68139 0.33804 0.22661
 C2905 C 0.63690 0.58402 0.24915
 N2906 N 0.63105 0.57283 0.26224
 N2907 N 0.62050 0.55786 0.25888
 C2908 C 0.61527 0.55364 0.24236
 N2909 N 0.62106 0.56496 0.22939
 N2910 N 0.63169 0.57976 0.23271
 C2911 C 0.64912 0.60026 0.25222
 N2912 N 0.65773 0.60825 0.23856
 N2913 N 0.66876 0.62297 0.24075
 C2914 C 0.67159 0.63047 0.25667
 N2915 N 0.66295 0.62256 0.27046
 N2916 N 0.65196 0.60763 0.26827
 C2917 C 0.68373 0.64702 0.25822
 N2918 N 0.68436 0.65800 0.27261
 N2919 N 0.69451 0.67370 0.27280
 C2920 C 0.70442 0.67884 0.25862
 N2921 N 0.70393 0.66763 0.24450
 N2922 N 0.69384 0.65212 0.24430
 C2923 C 0.12616 0.09372 0.74778
 N2924 N 0.12869 0.07845 0.75790
 N2925 N 0.12073 0.06220 0.75367
 C2926 C 0.11000 0.06058 0.73915
 N2927 N 0.10748 0.07593 0.72915
 N2928 N 0.11537 0.09212 0.73337
 C2929 C 0.13536 0.11165 0.75170
 N2930 N 0.13271 0.12630 0.74091
 N2931 N 0.14158 0.14234 0.74357
 C2932 C 0.15345 0.14449 0.75716
 N2933 N 0.15600 0.12992 0.76815
 N2934 N 0.14709 0.11377 0.76547
 C2935 C 0.16421 0.16196 0.75870
 N2936 N 0.17578 0.16561 0.77234
 N2937 N 0.18628 0.18105 0.77257
 C2938 C 0.18562 0.19326 0.75911
 N2939 N 0.17391 0.18961 0.74569
 N2940 N 0.16338 0.17438 0.74553
 C2941 C 0.37151 0.09065 0.25062
 N2942 N 0.37013 0.07572 0.23987
 N2943 N 0.37902 0.05992 0.24360
 C2944 C 0.38960 0.05841 0.25822
 N2945 N 0.39098 0.07343 0.26884
 N2946 N 0.38214 0.08918 0.26513
 C2947 C 0.36124 0.10803 0.24727
 N2948 N 0.36242 0.12213 0.25890
 N2949 N 0.35267 0.13763 0.25666
 C2950 C 0.34136 0.13976 0.24268
 N2951 N 0.34026 0.12573 0.23088
 N2952 N 0.35004 0.11013 0.23315
 C2953 C 0.32981 0.15662 0.24137
 N2954 N 0.31900 0.16038 0.22726
 N2955 N 0.30802 0.17536 0.22700
 C2956 C 0.30741 0.18698 0.24089
 N2957 N 0.31833 0.18320 0.25483
 N2958 N 0.32934 0.16842 0.25503
 C2959 C 0.87436 0.59341 0.75072
 N2960 N 0.87232 0.57801 0.74065
 N2961 N 0.88100 0.56220 0.74477
 C2962 C 0.89202 0.56116 0.75915
 N2963 N 0.89406 0.57664 0.76909
 N2964 N 0.88544 0.59240 0.76497
 C2965 C 0.86438 0.61085 0.74693
 N2966 N 0.86655 0.62560 0.75772
 N2967 N 0.85707 0.64121 0.75514
 C2968 C 0.84503 0.64280 0.74163
 N2969 N 0.84292 0.62812 0.73066
 N2970 N 0.85244 0.61241 0.73326
 C2971 C 0.83379 0.65985 0.74003
 N2972 N 0.82198 0.66288 0.72647
 N2973 N 0.81123 0.67803 0.72606
 C2974 C 0.81188 0.69057 0.73926
 N2975 N 0.82381 0.68753 0.75262
 N2976 N 0.83458 0.67257 0.75296
 C2977 C 0.91027 0.74482 0.15512
 N2978 N 0.92523 0.73493 0.16050
 N2979 N 0.94166 0.73742 0.15303
 C2980 C 0.94376 0.75000 0.14001
 N2981 N 0.92861 0.75958 0.13452
 N2982 N 0.91221 0.75705 0.14191
 C2983 C 0.89264 0.74360 0.16420
 N2984 N 0.87808 0.75406 0.15881
 N2985 N 0.86242 0.75430 0.16777
 C2986 C 0.86079 0.74414 0.18247
 N2987 N 0.87526 0.73349 0.18779
 N2988 N 0.89096 0.73324 0.17880
 C2989 C 0.84386 0.74523 0.19264
 N2990 N 0.84214 0.73554 0.20761
 N2991 N 0.82671 0.73680 0.21690
 C2992 C 0.81256 0.74786 0.21155
 N2993 N 0.81433 0.75758 0.19660
 N2994 N 0.82974 0.75632 0.18732
 C2995 C 0.40244 0.24545 0.66023
 N2996 N 0.41733 0.23660 0.66719
 N2997 N 0.43447 0.24270 0.66402
 C2998 C 0.43724 0.25802 0.65404
 N2999 N 0.42232 0.26663 0.64689
 N3000 N 0.40524 0.26047 0.64994
 C3001 C 0.38364 0.24077 0.66562
 N3002 N 0.36911 0.25042 0.65900
 N3003 N 0.35234 0.24880 0.66589
 C3004 C 0.34953 0.23749 0.67968
 N3005 N 0.36392 0.22734 0.68597
 N3006 N 0.38072 0.22895 0.67905
 C3007 C 0.33208 0.23843 0.68904
 N3008 N 0.32965 0.22861 0.70386
 N3009 N 0.31462 0.23121 0.71345
 C3010 C 0.30165 0.24387 0.70863
 N3011 N 0.30398 0.25352 0.69371
 N3012 N 0.31897 0.25088 0.68411
 C3013 C 0.41674 0.75573 0.83214
 N3014 N 0.41834 0.74186 0.84392
 N3015 N 0.43494 0.73626 0.84928
 C3016 C 0.45061 0.74430 0.84308
 N3017 N 0.44905 0.75840 0.83143
 N3018 N 0.43237 0.76394 0.82594
 C3019 C 0.39836 0.76051 0.82551
 N3020 N 0.39618 0.77181 0.81155
 N3021 N 0.37940 0.77427 0.80453
 C3022 C 0.36433 0.76554 0.81128
 N3023 N 0.36651 0.75462 0.82544
 N3024 N 0.38322 0.75215 0.83242
 C3025 C 0.34633 0.76605 0.80251
 N3026 N 0.33240 0.75485 0.80811
 N3027 N 0.31650 0.75369 0.79934
 C3028 C 0.31396 0.76369 0.78465
 N3029 N 0.32778 0.77514 0.77915
 N3030 N 0.34376 0.77623 0.78790
 C3031 C 0.90582 0.26441 0.34923
 N3032 N 0.90766 0.24904 0.35922
 N3033 N 0.92436 0.24263 0.36334
 C3034 C 0.93996 0.25131 0.35766
 N3035 N 0.93808 0.26712 0.34810
 N3036 N 0.92131 0.27345 0.34381
 C3037 C 0.88754 0.26905 0.34227
 N3038 N 0.88578 0.28055 0.32841
 N3039 N 0.86965 0.28173 0.31993
 C3040 C 0.85481 0.27143 0.32504
 N3041 N 0.85642 0.26048 0.33925
 N3042 N 0.87250 0.25929 0.34769
 C3043 C 0.83826 0.26987 0.31412
 N3044 N 0.82524 0.25676 0.31778
 N3045 N 0.81111 0.25368 0.30697
 C3046 C 0.80955 0.26355 0.29208
 N3047 N 0.82242 0.27685 0.28849
 N3048 N 0.83664 0.27987 0.29928
 C3049 C 0.09368 0.23623 0.34536
 N3050 N 0.07806 0.22895 0.33801
 N3051 N 0.06145 0.23578 0.34191
 C3052 C 0.05996 0.25029 0.35308
 N3053 N 0.07556 0.25722 0.36068
 N3054 N 0.09211 0.25034 0.35688
 C3055 C 0.11202 0.23128 0.33902
 N3056 N 0.12720 0.24025 0.34543
 N3057 N 0.14352 0.23874 0.33768
 C3058 C 0.14524 0.22821 0.32323
 N3059 N 0.13022 0.21869 0.31715
 N3060 N 0.11386 0.22022 0.32490
 C3061 C 0.16218 0.22943 0.31308
 N3062 N 0.16395 0.21953 0.29824
 N3063 N 0.17849 0.22230 0.28801
 C3064 C 0.19159 0.23524 0.29217
 N3065 N 0.18990 0.24501 0.30709
 N3066 N 0.17542 0.24217 0.31734
 C3067 C 0.60445 0.74060 0.85131
 N3068 N 0.58958 0.73108 0.84494
 N3069 N 0.57243 0.73706 0.84784
 C3070 C 0.56956 0.75290 0.85702
 N3071 N 0.58446 0.76211 0.86373
 N3072 N 0.60158 0.75611 0.86090
 C3073 C 0.62313 0.73635 0.84540
 N3074 N 0.63748 0.74768 0.84996
 N3075 N 0.65368 0.74648 0.84193
 C3076 C 0.65607 0.73392 0.82905
 N3077 N 0.64196 0.72210 0.82494
 N3078 N 0.62574 0.72330 0.83297
 C3079 C 0.67236 0.73519 0.81803
 N3080 N 0.67401 0.72387 0.80408
 N3081 N 0.68761 0.72657 0.79279
 C3082 C 0.69985 0.74083 0.79494
 N3083 N 0.69833 0.75201 0.80900
 N3084 N 0.68477 0.74928 0.82031
 C3085 C 0.59181 0.25622 0.66345
 N3086 N 0.58863 0.24143 0.65294
 N3087 N 0.57142 0.23665 0.64846
 C3088 C 0.55670 0.24643 0.65437
 N3089 N 0.55990 0.26140 0.66475
 N3090 N 0.57716 0.26616 0.66928
 C3091 C 0.61062 0.26018 0.66954
 N3092 N 0.61386 0.27330 0.68185
 N3093 N 0.63072 0.27527 0.68882
 C3094 C 0.64486 0.26419 0.68369
 N3095 N 0.64169 0.25139 0.67111
 N3096 N 0.62487 0.24942 0.66415
 C3097 C 0.66258 0.26444 0.69293
 N3098 N 0.67566 0.25155 0.68925
 N3099 N 0.69102 0.25034 0.69884
 C3100 C 0.69377 0.26195 0.71247
 N3101 N 0.68082 0.27504 0.71599
 N3102 N 0.66544 0.27622 0.70642
 C3103 C 0.09690 0.75784 0.14871
 N3104 N 0.08154 0.76689 0.15421
 N3105 N 0.06468 0.75993 0.15098
 C3106 C 0.06267 0.74353 0.14239
 N3107 N 0.07802 0.73477 0.13655
 N3108 N 0.09482 0.74180 0.13965
 C3109 C 0.11531 0.76316 0.15505
 N3110 N 0.13022 0.75292 0.15040
 N3111 N 0.14632 0.75483 0.15874
 C3112 C 0.14806 0.76701 0.17206
 N3113 N 0.13336 0.77779 0.17630
 N3114 N 0.11723 0.77588 0.16794
 C3115 C 0.16445 0.76630 0.18326
 N3116 N 0.16575 0.77723 0.19755
 N3117 N 0.17963 0.77495 0.20882
 C3118 C 0.19249 0.76150 0.20629
 N3119 N 0.19128 0.75072 0.19192
 N3120 N 0.17746 0.75304 0.18063
   
