data_POSCAR
  _audit_creation_date              2014-09-24
  _audit_creation_method            'ToBaCCo'
  _symmetry_space_group_name_H-M    'P1'
  _symmetry_Int_Tables_number       1
  _symmetry_cell_setting            triclinic
  loop_
  _symmetry_equiv_pos_as_xyz
 x,y,z
_cell_length_a 40.4823
_cell_length_b 40.4837
_cell_length_c 40.4592
_cell_angle_alpha 89.993600
_cell_angle_beta 89.948400
_cell_angle_gamma 89.920600
loop_
  _atom_site_label
  _atom_site_type_symbol
  _atom_site_fract_x
  _atom_site_fract_y
  _atom_site_fract_z
O1 O 0.87949 0.16804 0.78944
 O2 O 0.91526 0.12206 0.78062
 O3 O 0.79144 0.12266 0.82556
 O4 O 0.77647 0.09068 0.86779
 O5 O 0.83199 0.20854 0.87578
 O6 O 0.87745 0.21650 0.91195
 O7 O 0.87378 0.03531 0.91822
 O8 O 0.83578 0.02791 0.87467
 O9 O 0.95912 0.07343 0.87885
 O10 O 0.97240 0.12055 0.84174
 O11 O 0.91768 0.11826 0.96144
 O12 O 0.87072 0.15606 0.97059
 O13 O 0.87415 0.07414 0.95877
 O14 O 0.83502 0.12142 0.96816
 O15 O 0.95892 0.11883 0.92331
 O16 O 0.97177 0.15550 0.87668
 O17 O 0.91860 0.03483 0.87515
 O18 O 0.87383 0.02712 0.83564
 O19 O 0.87838 0.20766 0.82930
 O20 O 0.91509 0.21511 0.87612
 O21 O 0.79114 0.17015 0.87259
 O22 O 0.78113 0.12365 0.91026
 O23 O 0.83273 0.12290 0.78735
 O24 O 0.87840 0.08563 0.77934
 Zr25 Zr 0.87633 0.12334 0.81545
 O26 O 0.90560 0.09157 0.84425
 Zr27 Zr 0.81619 0.12440 0.87137
 O28 O 0.84266 0.09192 0.90247
 Zr29 Zr 0.87587 0.18075 0.87392
 O30 O 0.90464 0.15121 0.90572
 Zr31 Zr 0.87481 0.06259 0.87425
 O32 O 0.84516 0.09184 0.84269
 Zr33 Zr 0.93423 0.11916 0.87753
 O34 O 0.90810 0.15138 0.84555
 Zr35 Zr 0.87402 0.11955 0.93328
 O36 O 0.84489 0.15231 0.90456
 O37 O 0.84539 0.15461 0.84204
 O38 O 0.90527 0.08835 0.90682
 C39 C 0.87963 0.19831 0.79892
 C40 C 0.80208 0.12232 0.79555
 C41 C 0.80141 0.20012 0.87507
 C42 C 0.87408 0.04402 0.94871
 C43 C 0.94908 0.04332 0.87709
 C44 C 0.94835 0.11821 0.95327
 H45 H 0.91954 0.07796 0.82952
 H46 H 0.91798 0.16572 0.92009
 H47 H 0.83187 0.16911 0.82770
 H48 H 0.82718 0.07800 0.91523
 H49 H 0.81927 0.03569 0.85837
 H50 H 0.78271 0.07072 0.88042
 H51 H 0.96605 0.17243 0.89335
 H52 H 0.93192 0.20761 0.86000
 H53 H 0.89221 0.03186 0.82027
 H54 H 0.86179 0.06889 0.78580
 H55 H 0.88876 0.17209 0.96688
 H56 H 0.86241 0.20858 0.92955
 H57 H 0.93312 0.13607 0.78968
 H58 H 0.96795 0.10308 0.82526
 H59 H 0.78813 0.14047 0.92656
 H60 H 0.82003 0.10266 0.96374
 O61 O 0.83126 0.71255 0.37452
 O62 O 0.87760 0.72135 0.41034
 O63 O 0.87718 0.66639 0.29062
 O64 O 0.90859 0.62196 0.28112
 O65 O 0.78768 0.62598 0.33106
 O66 O 0.77598 0.59284 0.37859
 O67 O 0.95559 0.57497 0.38303
 O68 O 0.96722 0.61645 0.34206
 O69 O 0.91700 0.62541 0.46408
 O70 O 0.87140 0.66630 0.47142
 O71 O 0.87149 0.54215 0.42794
 O72 O 0.83165 0.53156 0.38171
 O73 O 0.91397 0.53735 0.38251
 O74 O 0.86635 0.52814 0.34627
 O75 O 0.87105 0.58373 0.46567
 O76 O 0.83511 0.63251 0.47303
 O77 O 0.95745 0.62202 0.42521
 O78 O 0.97095 0.65577 0.37936
 O79 O 0.78951 0.67497 0.37556
 O80 O 0.77727 0.63113 0.41355
 O81 O 0.82823 0.62203 0.29230
 O82 O 0.87271 0.58198 0.28682
 O83 O 0.87702 0.70811 0.32830
 O84 O 0.91414 0.71782 0.37351
 Zr85 Zr 0.87455 0.68381 0.37415
 O86 O 0.90351 0.65566 0.40685
 Zr87 Zr 0.87263 0.62318 0.31909
 O88 O 0.90173 0.59234 0.34925
 Zr89 Zr 0.81366 0.62884 0.37612
 O90 O 0.84004 0.59812 0.40888
 Zr91 Zr 0.93172 0.62112 0.38018
 O92 O 0.90572 0.65214 0.34694
 Zr93 Zr 0.87271 0.62689 0.43703
 O94 O 0.84345 0.65816 0.40703
 Zr95 Zr 0.87083 0.56618 0.38185
 O96 O 0.84140 0.59423 0.34893
 O97 O 0.84290 0.65654 0.34437
 O98 O 0.90259 0.59313 0.41202
 C99 C 0.80050 0.70477 0.37525
 C100 C 0.87812 0.69714 0.29852
 C101 C 0.79773 0.62289 0.30104
 C102 C 0.94467 0.54515 0.38296
 C103 C 0.94744 0.62345 0.45531
 C104 C 0.87146 0.55304 0.45777
 H105 H 0.91750 0.67062 0.42008
 H106 H 0.82439 0.58584 0.42302
 H107 H 0.82955 0.67057 0.32942
 H108 H 0.91511 0.57750 0.33517
 H109 H 0.96157 0.63308 0.32500
 H110 H 0.92726 0.60837 0.28914
 H111 H 0.81828 0.61528 0.46905
 H112 H 0.78569 0.64658 0.43053
 H113 H 0.96396 0.67538 0.39212
 H114 H 0.93087 0.70881 0.35806
 H115 H 0.81691 0.53666 0.40054
 H116 H 0.78380 0.57377 0.36540
 H117 H 0.86197 0.71518 0.42812
 H118 H 0.89075 0.68059 0.46720
 H119 H 0.85454 0.56727 0.29397
 H120 H 0.88411 0.53123 0.32975
 O121 O 0.37757 0.17310 0.28969
 O122 O 0.41325 0.12695 0.28045
 O123 O 0.29016 0.12766 0.32761
 O124 O 0.27540 0.09711 0.37061
 O125 O 0.33219 0.21440 0.37601
 O126 O 0.37812 0.22201 0.41196
 O127 O 0.37313 0.04107 0.41923
 O128 O 0.33454 0.03370 0.37617
 O129 O 0.45836 0.07824 0.37768
 O130 O 0.47117 0.12547 0.34045
 O131 O 0.41850 0.12391 0.46114
 O132 O 0.37228 0.16185 0.47112
 O133 O 0.37442 0.08006 0.45955
 O134 O 0.33589 0.12798 0.46907
 O135 O 0.45916 0.12369 0.42240
 O136 O 0.47175 0.16002 0.37576
 O137 O 0.41739 0.03995 0.37538
 O138 O 0.37203 0.03226 0.33680
 O139 O 0.37762 0.21299 0.32927
 O140 O 0.41535 0.22024 0.37536
 O141 O 0.29113 0.17616 0.37360
 O142 O 0.28150 0.13016 0.41250
 O143 O 0.33079 0.12770 0.28872
 O144 O 0.37639 0.09072 0.27983
 Zr145 Zr 0.37492 0.12847 0.31593
 O146 O 0.40436 0.09661 0.34440
 Zr147 Zr 0.31572 0.13022 0.37286
 O148 O 0.34240 0.09772 0.40366
 Zr149 Zr 0.37578 0.18622 0.37400
 O150 O 0.40483 0.15660 0.40548
 Zr151 Zr 0.37386 0.06804 0.37508
 O152 O 0.34397 0.09733 0.34386
 Zr153 Zr 0.43375 0.12417 0.37703
 O154 O 0.40738 0.15646 0.34531
 Zr155 Zr 0.37444 0.12532 0.43375
 O156 O 0.34512 0.15819 0.40535
 O157 O 0.34461 0.16003 0.34282
 O158 O 0.40506 0.09371 0.40700
 C159 C 0.37805 0.20345 0.29893
 C160 C 0.30029 0.12697 0.29746
 C161 C 0.30158 0.20610 0.37548
 C162 C 0.37375 0.04984 0.44973
 C163 C 0.44794 0.04827 0.37634
 C164 C 0.44902 0.12348 0.45249
 H165 H 0.41793 0.08284 0.32947
 H166 H 0.41852 0.17107 0.41956
 H167 H 0.33091 0.17438 0.32851
 H168 H 0.32701 0.08401 0.41676
 H169 H 0.31783 0.04162 0.36014
 H170 H 0.28189 0.07693 0.38277
 H171 H 0.46612 0.17733 0.39207
 H172 H 0.43180 0.21253 0.35895
 H173 H 0.39009 0.03686 0.32100
 H174 H 0.36006 0.07389 0.28671
 H175 H 0.38989 0.17814 0.46657
 H176 H 0.36293 0.21445 0.42959
 H177 H 0.43117 0.14121 0.28899
 H178 H 0.46632 0.10801 0.32407
 H179 H 0.28853 0.14761 0.42811
 H180 H 0.32074 0.10925 0.46513
 O181 O 0.12100 0.32728 0.29170
 O182 O 0.08142 0.37058 0.28314
 O183 O 0.20557 0.37936 0.32656
 O184 O 0.21763 0.41444 0.36747
 O185 O 0.17265 0.29206 0.37669
 O186 O 0.12918 0.28109 0.41515
 O187 O 0.11835 0.46153 0.41987
 O188 O 0.15427 0.47160 0.37459
 O189 O 0.03463 0.41601 0.37997
 O190 O 0.02515 0.36751 0.34499
 O191 O 0.08084 0.37701 0.46368
 O192 O 0.13020 0.34153 0.47255
 O193 O 0.12255 0.42306 0.46058
 O194 O 0.16345 0.37841 0.46981
 O195 O 0.03938 0.37348 0.42600
 O196 O 0.02963 0.33306 0.38040
 O197 O 0.07208 0.45779 0.37895
 O198 O 0.11461 0.46956 0.33749
 O199 O 0.12447 0.28868 0.33244
 O200 O 0.09069 0.27854 0.38048
 O201 O 0.21012 0.33384 0.37429
 O202 O 0.21706 0.38139 0.41055
 O203 O 0.16406 0.37658 0.28875
 O204 O 0.11556 0.40956 0.28073
 Zr205 Zr 0.12087 0.37262 0.31728
 O206 O 0.08955 0.40236 0.34627
 Zr207 Zr 0.18139 0.37716 0.37253
 O208 O 0.15287 0.40757 0.40379
 Zr209 Zr 0.12662 0.31618 0.37654
 O210 O 0.09581 0.34359 0.40835
 Zr211 Zr 0.11807 0.43400 0.37589
 O212 O 0.14950 0.40691 0.34397
 Zr213 Zr 0.06358 0.37281 0.38005
 O214 O 0.09185 0.34244 0.34815
 Zr215 Zr 0.12425 0.37770 0.43521
 O216 O 0.15564 0.34727 0.40639
 O217 O 0.15443 0.34430 0.34388
 O218 O 0.09027 0.40602 0.40891
 C219 C 0.12230 0.29722 0.30189
 C220 C 0.19468 0.37901 0.29671
 C221 C 0.20240 0.30311 0.37615
 C222 C 0.12017 0.45304 0.45042
 C223 C 0.04237 0.44677 0.37985
 C224 C 0.05017 0.37552 0.45576
 H225 H 0.07437 0.41466 0.33165
 H226 H 0.08370 0.32834 0.42306
 H227 H 0.16873 0.33067 0.32943
 H228 H 0.16746 0.42269 0.41621
 H229 H 0.17065 0.46507 0.35760
 H230 H 0.21015 0.43371 0.38052
 H231 H 0.03522 0.31851 0.39922
 H232 H 0.07228 0.28493 0.36570
 H233 H 0.09630 0.46321 0.32266
 H234 H 0.12969 0.42825 0.28767
 H235 H 0.11278 0.32469 0.46953
 H236 H 0.14417 0.29044 0.43204
 H237 H 0.06538 0.35441 0.29203
 H238 H 0.02877 0.38405 0.32737
 H239 H 0.21178 0.36434 0.42728
 H240 H 0.17797 0.39724 0.46425
 O241 O 0.62375 0.82867 0.28748
 O242 O 0.58588 0.87309 0.27742
 O243 O 0.70934 0.87928 0.32324
 O244 O 0.72086 0.91517 0.36385
 O245 O 0.67362 0.79356 0.37403
 O246 O 0.62919 0.78379 0.41152
 O247 O 0.62153 0.96457 0.41402
 O248 O 0.65853 0.97339 0.36941
 O249 O 0.53794 0.91983 0.37312
 O250 O 0.52829 0.87123 0.33824
 O251 O 0.58160 0.88040 0.45791
 O252 O 0.63072 0.84479 0.46806
 O253 O 0.62403 0.92635 0.45510
 O254 O 0.66393 0.88151 0.46596
 O255 O 0.54080 0.87764 0.41949
 O256 O 0.53140 0.83706 0.37404
 O257 O 0.57598 0.96107 0.37220
 O258 O 0.61959 0.97156 0.33143
 O259 O 0.62621 0.79053 0.32873
 O260 O 0.59138 0.78156 0.37619
 O261 O 0.71192 0.83455 0.37119
 O262 O 0.71904 0.88226 0.40743
 O263 O 0.66857 0.87614 0.28466
 O264 O 0.62128 0.91110 0.27545
 Zr265 Zr 0.62460 0.87434 0.31242
 O266 O 0.59322 0.90492 0.34048
 Zr267 Zr 0.68406 0.87842 0.36873
 O268 O 0.65543 0.90966 0.39914
 Zr269 Zr 0.62806 0.81850 0.37250
 O270 O 0.59714 0.84677 0.40336
 Zr271 Zr 0.62165 0.93644 0.37032
 O272 O 0.65328 0.90845 0.33928
 Zr273 Zr 0.56605 0.87621 0.37406
 O274 O 0.59441 0.84505 0.34306
 Zr275 Zr 0.62566 0.88069 0.43034
 O276 O 0.65711 0.84942 0.40249
 O277 O 0.65699 0.84569 0.34004
 O278 O 0.59270 0.90930 0.40311
 C279 C 0.62447 0.79872 0.29806
 C280 C 0.69912 0.87798 0.29316
 C281 C 0.70358 0.80400 0.37337
 C282 C 0.62245 0.95628 0.44467
 C283 C 0.54611 0.95045 0.37280
 C284 C 0.55104 0.87919 0.44947
 H285 H 0.57853 0.91732 0.32544
 H286 H 0.58451 0.83185 0.41797
 H287 H 0.67120 0.83150 0.32605
 H288 H 0.67002 0.92466 0.41169
 H289 H 0.67516 0.96637 0.35286
 H290 H 0.71367 0.93449 0.37698
 H291 H 0.53639 0.82255 0.39307
 H292 H 0.57343 0.78804 0.36089
 H293 H 0.60164 0.96520 0.31617
 H294 H 0.63607 0.92927 0.28239
 H295 H 0.61310 0.82818 0.46500
 H296 H 0.64410 0.79298 0.42857
 H297 H 0.56911 0.85763 0.28620
 H298 H 0.53229 0.88783 0.32075
 H299 H 0.71306 0.86547 0.42419
 H300 H 0.67921 0.89963 0.46007
 O301 O 0.62512 0.66890 0.21051
 O302 O 0.58808 0.62467 0.22042
 O303 O 0.71018 0.61852 0.17169
 O304 O 0.72215 0.58541 0.12976
 O305 O 0.67406 0.70656 0.12438
 O306 O 0.62917 0.71760 0.08802
 O307 O 0.62229 0.53630 0.08151
 O308 O 0.65862 0.52622 0.12561
 O309 O 0.53839 0.58035 0.12335
 O310 O 0.52882 0.62823 0.15944
 O311 O 0.58155 0.62199 0.03916
 O312 O 0.62926 0.65601 0.02826
 O313 O 0.62333 0.57514 0.04101
 O314 O 0.66445 0.62111 0.03152
 O315 O 0.54092 0.62322 0.07789
 O316 O 0.53187 0.66326 0.12441
 O317 O 0.57626 0.53887 0.12404
 O318 O 0.62031 0.52781 0.16389
 O319 O 0.62674 0.70854 0.17069
 O320 O 0.59138 0.71845 0.12355
 O321 O 0.71216 0.66521 0.12460
 O322 O 0.71832 0.61772 0.08721
 O323 O 0.67042 0.62191 0.21133
 O324 O 0.62311 0.58615 0.22015
 Zr325 Zr 0.62591 0.62414 0.18439
 O326 O 0.59387 0.59455 0.15614
 Zr327 Zr 0.68435 0.62143 0.12690
 O328 O 0.65541 0.59069 0.09664
 Zr329 Zr 0.62844 0.68167 0.12593
 O330 O 0.59739 0.65406 0.09457
 Zr331 Zr 0.62197 0.56351 0.12551
 O332 O 0.65423 0.59071 0.15631
 Zr333 Zr 0.56644 0.62397 0.12331
 O334 O 0.59518 0.65417 0.15493
 Zr335 Zr 0.62549 0.62051 0.06648
 O336 O 0.65696 0.65144 0.09452
 O337 O 0.65791 0.65352 0.15705
 O338 O 0.59279 0.59132 0.09342
 C339 C 0.62540 0.69919 0.20109
 C340 C 0.70071 0.61943 0.20199
 C341 C 0.70397 0.69586 0.12342
 C342 C 0.62292 0.54497 0.05098
 C343 C 0.54640 0.54965 0.12344
 C344 C 0.55106 0.62269 0.04778
 H345 H 0.57928 0.58196 0.17110
 H346 H 0.58464 0.66930 0.08037
 H347 H 0.67235 0.66731 0.17114
 H348 H 0.66996 0.57593 0.08367
 H349 H 0.67562 0.53303 0.14182
 H350 H 0.71390 0.56535 0.11856
 H351 H 0.53641 0.67784 0.10532
 H352 H 0.57369 0.71154 0.13896
 H353 H 0.60261 0.53403 0.17955
 H354 H 0.63874 0.56871 0.21306
 H355 H 0.61434 0.67454 0.03389
 H356 H 0.64375 0.70881 0.07043
 H357 H 0.57050 0.63933 0.21176
 H358 H 0.53293 0.61126 0.17654
 H359 H 0.71297 0.63566 0.07147
 H360 H 0.67804 0.60109 0.03502
 O361 O 0.37507 0.83001 0.70768
 O362 O 0.41115 0.87594 0.71793
 O363 O 0.28964 0.88086 0.66707
 O364 O 0.27888 0.91343 0.62411
 O365 O 0.32768 0.79218 0.62139
 O366 O 0.37330 0.78225 0.58456
 O367 O 0.37925 0.96229 0.57675
 O368 O 0.34016 0.97164 0.62071
 O369 O 0.46204 0.92002 0.62234
 O370 O 0.47044 0.87257 0.66013
 O371 O 0.42261 0.87812 0.53765
 O372 O 0.37518 0.84065 0.52673
 O373 O 0.37768 0.92245 0.53722
 O374 O 0.34052 0.87607 0.52644
 O375 O 0.46151 0.87672 0.57807
 O376 O 0.46994 0.83767 0.62486
 O377 O 0.42364 0.96101 0.62200
 O378 O 0.37933 0.97329 0.65828
 O379 O 0.37478 0.79086 0.66735
 O380 O 0.40982 0.78055 0.62129
 O381 O 0.28917 0.83314 0.62168
 O382 O 0.28313 0.87913 0.58265
 O383 O 0.32849 0.87742 0.70752
 O384 O 0.37469 0.91264 0.71804
 Zr385 Zr 0.37365 0.87522 0.68161
 O386 O 0.40561 0.90550 0.65382
 Zr387 Zr 0.31660 0.87720 0.62283
 O388 O 0.34604 0.90757 0.59249
 Zr389 Zr 0.37304 0.81762 0.62300
 O390 O 0.40512 0.84522 0.59277
 Zr391 Zr 0.37823 0.93581 0.62168
 O392 O 0.34590 0.90839 0.65250
 Zr393 Zr 0.43448 0.87609 0.62231
 O394 O 0.40525 0.84541 0.65289
 Zr395 Zr 0.37737 0.87782 0.56348
 O396 O 0.34495 0.84734 0.59100
 O397 O 0.34267 0.84549 0.65368
 O398 O 0.40876 0.90791 0.59098
 C399 C 0.37586 0.79979 0.69778
 C400 C 0.29843 0.88013 0.69758
 C401 C 0.29763 0.80254 0.62101
 C402 C 0.37822 0.95277 0.54642
 C403 C 0.45364 0.95061 0.62200
 C404 C 0.45276 0.87779 0.54761
 H405 H 0.41951 0.91857 0.66901
 H406 H 0.41867 0.83008 0.57921
 H407 H 0.32823 0.83170 0.66782
 H408 H 0.33160 0.92183 0.57889
 H409 H 0.32380 0.96512 0.63773
 H410 H 0.28687 0.93277 0.61152
 H411 H 0.46613 0.82259 0.60601
 H412 H 0.42798 0.78815 0.63577
 H413 H 0.39243 0.96502 0.67714
 H414 H 0.35982 0.93043 0.71019
 H415 H 0.39298 0.82450 0.53122
 H416 H 0.35829 0.79072 0.56720
 H417 H 0.42862 0.86065 0.71018
 H418 H 0.46649 0.89075 0.67598
 H419 H 0.28928 0.86107 0.56732
 H420 H 0.32402 0.89337 0.53154
 O421 O 0.87435 0.32797 0.71309
 O422 O 0.90996 0.37307 0.72504
 O423 O 0.78913 0.37911 0.67292
 O424 O 0.77812 0.41243 0.63081
 O425 O 0.82792 0.29194 0.62554
 O426 O 0.87351 0.28298 0.58887
 O427 O 0.87726 0.46418 0.58713
 O428 O 0.84030 0.47231 0.63093
 O429 O 0.96161 0.42035 0.62975
 O430 O 0.97019 0.37212 0.66692
 O431 O 0.92265 0.37939 0.54450
 O432 O 0.87579 0.34527 0.53110
 O433 O 0.87887 0.42601 0.54593
 O434 O 0.83997 0.37932 0.53368
 O435 O 0.96147 0.37725 0.58496
 O436 O 0.96977 0.33790 0.63111
 O437 O 0.92305 0.46119 0.62978
 O438 O 0.87791 0.47064 0.66971
 O439 O 0.87482 0.28981 0.67180
 O440 O 0.91033 0.28106 0.62516
 O441 O 0.78922 0.33269 0.62627
 O442 O 0.78353 0.38006 0.58832
 O443 O 0.82765 0.37508 0.71365
 O444 O 0.87402 0.41045 0.72514
 Zr445 Zr 0.87307 0.37363 0.68811
 O446 O 0.90531 0.40465 0.66153
 Zr447 Zr 0.81640 0.37683 0.62891
 O448 O 0.84584 0.40852 0.60007
 Zr449 Zr 0.87309 0.31762 0.62797
 O450 O 0.90496 0.34634 0.59860
 Zr451 Zr 0.87773 0.43580 0.63050
 O452 O 0.84515 0.40728 0.65983
 Zr453 Zr 0.93426 0.37629 0.62913
 O454 O 0.90499 0.34474 0.65877
 Zr455 Zr 0.87740 0.37997 0.57018
 O456 O 0.84519 0.34812 0.59647
 O457 O 0.84240 0.34449 0.65915
 O458 O 0.90853 0.40913 0.59887
 C459 C 0.87551 0.29804 0.70247
 C460 C 0.79766 0.37770 0.70346
 C461 C 0.79783 0.30216 0.62504
 C462 C 0.87778 0.45595 0.55650
 C463 C 0.95309 0.45091 0.62946
 C464 C 0.95276 0.37839 0.55450
 H465 H 0.91922 0.41724 0.67709
 H466 H 0.91847 0.33152 0.58464
 H467 H 0.82794 0.33026 0.67280
 H468 H 0.83136 0.42318 0.58697
 H469 H 0.82305 0.46462 0.64650
 H470 H 0.78642 0.43263 0.61989
 H471 H 0.96561 0.32284 0.61232
 H472 H 0.92788 0.28779 0.64079
 H473 H 0.89630 0.46529 0.68486
 H474 H 0.85965 0.42862 0.71726
 H475 H 0.89018 0.32651 0.53730
 H476 H 0.85843 0.29170 0.57169
 H477 H 0.92813 0.35912 0.71642
 H478 H 0.96650 0.39023 0.68291
 H479 H 0.78967 0.36227 0.57268
 H480 H 0.82491 0.39808 0.53804
 O481 O 0.79044 0.87073 0.16530
 O482 O 0.78226 0.90523 0.11828
 O483 O 0.83347 0.78381 0.12034
 O484 O 0.87701 0.77231 0.08876
 O485 O 0.87565 0.82410 0.20871
 O486 O 0.91067 0.87072 0.21952
 O487 O 0.92684 0.87237 0.03935
 O488 O 0.88478 0.83201 0.02907
 O489 O 0.87958 0.95505 0.07664
 O490 O 0.84060 0.96529 0.12274
 O491 O 0.96265 0.91595 0.12487
 O492 O 0.97191 0.86944 0.16282
 O493 O 0.96468 0.87231 0.08074
 O494 O 0.97302 0.83393 0.12817
 O495 O 0.92297 0.95564 0.12334
 O496 O 0.87421 0.96568 0.15889
 O497 O 0.88048 0.91507 0.03722
 O498 O 0.84563 0.86976 0.02539
 O499 O 0.82833 0.87090 0.20678
 O500 O 0.87368 0.90689 0.21809
 O501 O 0.87793 0.78460 0.16878
 O502 O 0.91780 0.77742 0.12436
 O503 O 0.79300 0.82288 0.12057
 O504 O 0.78457 0.86799 0.08233
 Zr505 Zr 0.81879 0.86804 0.12178
 O506 O 0.84792 0.89922 0.09209
 Zr507 Zr 0.87749 0.81085 0.12409
 O508 O 0.90909 0.83930 0.09411
 Zr509 Zr 0.87424 0.86899 0.18216
 O510 O 0.90596 0.90004 0.15491
 Zr511 Zr 0.88106 0.87076 0.06396
 O512 O 0.84916 0.83916 0.09080
 Zr513 Zr 0.87828 0.92897 0.12183
 O514 O 0.84604 0.90058 0.15187
 Zr515 Zr 0.93655 0.87128 0.12433
 O516 O 0.90764 0.84007 0.15468
 O517 O 0.84524 0.83781 0.15371
 O518 O 0.91065 0.90206 0.09214
 C519 C 0.79844 0.87186 0.19601
 C520 C 0.80300 0.79271 0.11974
 C521 C 0.87750 0.79383 0.19913
 C522 C 0.95676 0.87282 0.05001
 C523 C 0.87966 0.94541 0.04634
 C524 C 0.95331 0.94623 0.12420
 H525 H 0.83318 0.91268 0.07803
 H526 H 0.91891 0.91379 0.17035
 H527 H 0.83075 0.82372 0.16749
 H528 H 0.92336 0.82469 0.08069
 H529 H 0.86793 0.81537 0.03518
 H530 H 0.89121 0.77922 0.07010
 H531 H 0.89127 0.96117 0.17579
 H532 H 0.85918 0.92454 0.20933
 H533 H 0.82671 0.88366 0.03217
 H534 H 0.79247 0.85137 0.06619
 H535 H 0.96619 0.88679 0.17906
 H536 H 0.92866 0.85574 0.21239
 H537 H 0.78946 0.92342 0.13294
 H538 H 0.82509 0.96044 0.10451
 H539 H 0.93289 0.78452 0.14223
 H540 H 0.97021 0.81865 0.10930
 O541 O 0.36954 0.33190 0.21032
 O542 O 0.40408 0.37883 0.22066
 O543 O 0.28354 0.37983 0.16714
 O544 O 0.27318 0.41211 0.12363
 O545 O 0.32445 0.29184 0.12374
 O546 O 0.37119 0.28259 0.08764
 O547 O 0.37246 0.46261 0.07806
 O548 O 0.33251 0.47130 0.12088
 O549 O 0.45579 0.42331 0.12528
 O550 O 0.46429 0.37642 0.16468
 O551 O 0.41952 0.37753 0.04081
 O552 O 0.37231 0.34014 0.02938
 O553 O 0.37565 0.42239 0.03900
 O554 O 0.33798 0.37601 0.02739
 O555 O 0.45750 0.37828 0.08210
 O556 O 0.46618 0.34135 0.12968
 O557 O 0.41601 0.46290 0.12296
 O558 O 0.37063 0.47421 0.15942
 O559 O 0.37095 0.29229 0.17047
 O560 O 0.40676 0.28190 0.12517
 O561 O 0.28508 0.33194 0.12238
 O562 O 0.27886 0.37688 0.08262
 O563 O 0.32175 0.37800 0.20835
 O564 O 0.36671 0.41458 0.21943
 Zr565 Zr 0.36744 0.37665 0.18353
 O566 O 0.39913 0.40748 0.15610
 Zr567 Zr 0.31152 0.37651 0.12350
 O568 O 0.34085 0.40717 0.09334
 Zr569 Zr 0.36931 0.31833 0.12570
 O570 O 0.40148 0.34637 0.09597
 Zr571 Zr 0.37147 0.43649 0.12303
 O572 O 0.33932 0.40866 0.15350
 Zr573 Zr 0.42947 0.37843 0.12568
 O574 O 0.40031 0.34726 0.15586
 Zr575 Zr 0.37369 0.37790 0.06555
 O576 O 0.34131 0.34698 0.09268
 O577 O 0.33772 0.34586 0.15535
 O578 O 0.40355 0.40909 0.09343
 C579 C 0.37131 0.30160 0.20081
 C580 C 0.29183 0.37968 0.19780
 C581 C 0.29417 0.30154 0.12254
 C582 C 0.37470 0.45281 0.04793
 C583 C 0.44632 0.45360 0.12391
 C584 C 0.44942 0.37783 0.05145
 H585 H 0.41235 0.42114 0.17136
 H586 H 0.41563 0.33126 0.08299
 H587 H 0.32338 0.33186 0.16938
 H588 H 0.32653 0.42096 0.07916
 H589 H 0.31590 0.46446 0.13752
 H590 H 0.28066 0.43105 0.11013
 H591 H 0.46232 0.32502 0.11192
 H592 H 0.42455 0.29007 0.13980
 H593 H 0.38523 0.46744 0.17777
 H594 H 0.35201 0.43211 0.21073
 H595 H 0.38977 0.32392 0.03482
 H596 H 0.35564 0.29003 0.07028
 H597 H 0.42221 0.36409 0.21338
 H598 H 0.46021 0.39546 0.17945
 H599 H 0.28650 0.35947 0.06720
 H600 H 0.32146 0.39351 0.03172
 O601 O 0.38034 0.67068 0.78655
 O602 O 0.41542 0.62334 0.77780
 O603 O 0.29287 0.62714 0.82618
 O604 O 0.27864 0.59676 0.86997
 O605 O 0.33666 0.71381 0.87317
 O606 O 0.38347 0.72113 0.90826
 O607 O 0.37587 0.54087 0.91878
 O608 O 0.33626 0.53342 0.87609
 O609 O 0.46100 0.57583 0.87448
 O610 O 0.47302 0.62271 0.83542
 O611 O 0.42378 0.62289 0.95784
 O612 O 0.37814 0.66313 0.96756
 O613 O 0.37700 0.58071 0.95832
 O614 O 0.34171 0.62945 0.96806
 O615 O 0.46336 0.62182 0.91799
 O616 O 0.47600 0.65674 0.87126
 O617 O 0.41942 0.53818 0.87545
 O618 O 0.37382 0.53016 0.83660
 O619 O 0.38142 0.71106 0.82566
 O620 O 0.41974 0.71867 0.87087
 O621 O 0.29506 0.67611 0.87158
 O622 O 0.28499 0.63119 0.91097
 O623 O 0.33300 0.62612 0.78679
 O624 O 0.37728 0.58822 0.77781
 Zr625 Zr 0.37736 0.62636 0.81349
 O626 O 0.40662 0.59428 0.84200
 Zr627 Zr 0.31904 0.62984 0.87122
 O628 O 0.34580 0.59769 0.90240
 Zr629 Zr 0.37987 0.68499 0.87073
 O630 O 0.40922 0.65544 0.90195
 Zr631 Zr 0.37629 0.56687 0.87395
 O632 O 0.34647 0.59608 0.84247
 Zr633 Zr 0.43699 0.62206 0.87340
 O634 O 0.41057 0.65442 0.84188
 Zr635 Zr 0.37889 0.62527 0.93146
 O636 O 0.34932 0.65785 0.90293
 O637 O 0.34791 0.65878 0.84036
 O638 O 0.40847 0.59274 0.90468
 C639 C 0.38136 0.70115 0.79545
 C640 C 0.30261 0.62613 0.79588
 C641 C 0.30593 0.70593 0.87311
 C642 C 0.37651 0.55035 0.94906
 C643 C 0.45011 0.54603 0.87552
 C644 C 0.45410 0.62222 0.94833
 H645 H 0.41973 0.57996 0.82720
 H646 H 0.42350 0.66990 0.91545
 H647 H 0.33423 0.67316 0.82607
 H648 H 0.33037 0.58455 0.91603
 H649 H 0.31979 0.54108 0.85969
 H650 H 0.28486 0.57712 0.88312
 H651 H 0.47038 0.67508 0.88641
 H652 H 0.43598 0.71039 0.85453
 H653 H 0.39209 0.53386 0.82081
 H654 H 0.36171 0.57121 0.78594
 H655 H 0.39716 0.67785 0.96334
 H656 H 0.36846 0.71402 0.92622
 H657 H 0.43326 0.63824 0.78535
 H658 H 0.46867 0.60385 0.82052
 H659 H 0.29276 0.64841 0.92650
 H660 H 0.32451 0.61285 0.96313
 O661 O 0.12714 0.67271 0.71059
 O662 O 0.09190 0.62574 0.72125
 O663 O 0.21229 0.62721 0.66735
 O664 O 0.22355 0.59498 0.62380
 O665 O 0.16847 0.71357 0.62339
 O666 O 0.12108 0.72159 0.58816
 O667 O 0.12392 0.54158 0.57871
 O668 O 0.16504 0.53358 0.62018
 O669 O 0.04102 0.57888 0.62725
 O670 O 0.03108 0.62548 0.66542
 O671 O 0.07606 0.62572 0.54172
 O672 O 0.12264 0.66421 0.53021
 O673 O 0.12074 0.58177 0.53961
 O674 O 0.15715 0.62862 0.52761
 O675 O 0.03812 0.62303 0.58306
 O676 O 0.02889 0.66085 0.63065
 O677 O 0.08175 0.54027 0.62464
 O678 O 0.12879 0.53082 0.66071
 O679 O 0.12320 0.71218 0.67073
 O680 O 0.08596 0.72108 0.62621
 O681 O 0.20934 0.67496 0.62208
 O682 O 0.21663 0.62990 0.58254
 O683 O 0.17418 0.62652 0.70872
 O684 O 0.12955 0.59003 0.72007
 Zr685 Zr 0.12852 0.62781 0.68402
 O686 O 0.09747 0.59617 0.65688
 Zr687 Zr 0.18421 0.62947 0.62367
 O688 O 0.15552 0.59787 0.59384
 Zr689 Zr 0.12459 0.68589 0.62615
 O690 O 0.09318 0.65700 0.59660
 Zr691 Zr 0.12566 0.56779 0.62366
 O692 O 0.15733 0.59654 0.65379
 Zr693 Zr 0.06619 0.62434 0.62661
 O694 O 0.09463 0.65624 0.65666
 Zr695 Zr 0.12186 0.62624 0.56619
 O696 O 0.15340 0.65810 0.59305
 O697 O 0.15724 0.65933 0.65556
 O698 O 0.09281 0.59436 0.59425
 C699 C 0.12443 0.70295 0.70105
 C700 C 0.20409 0.62628 0.69806
 C701 C 0.19904 0.70502 0.62198
 C702 C 0.12177 0.55136 0.54854
 C703 C 0.05124 0.54883 0.62614
 C704 C 0.04623 0.62399 0.55241
 H705 H 0.08475 0.58223 0.67234
 H706 H 0.07862 0.67171 0.58364
 H707 H 0.17148 0.67361 0.66936
 H708 H 0.17004 0.58435 0.57957
 H709 H 0.18221 0.54096 0.63596
 H710 H 0.21670 0.57593 0.61015
 H711 H 0.03167 0.67653 0.61211
 H712 H 0.06874 0.71246 0.64130
 H713 H 0.11227 0.53584 0.67801
 H714 H 0.14412 0.57245 0.71125
 H715 H 0.10433 0.67963 0.53520
 H716 H 0.13671 0.71473 0.57062
 H717 H 0.07408 0.64102 0.71437
 H718 H 0.03708 0.60806 0.68148
 H719 H 0.20839 0.64702 0.56712
 H720 H 0.17437 0.61189 0.53216
 O721 O 0.12439 0.16851 0.21243
 O722 O 0.09025 0.12175 0.22284
 O723 O 0.21047 0.12504 0.16899
 O724 O 0.22273 0.09371 0.12543
 O725 O 0.16591 0.21113 0.12527
 O726 O 0.11856 0.21946 0.09096
 O727 O 0.12539 0.03842 0.08076
 O728 O 0.16394 0.03032 0.12293
 O729 O 0.03985 0.07519 0.12771
 O730 O 0.02872 0.12156 0.16519
 O731 O 0.07556 0.12205 0.04224
 O732 O 0.12029 0.15950 0.02999
 O733 O 0.12112 0.07793 0.04114
 O734 O 0.15793 0.12718 0.03061
 O735 O 0.03709 0.11917 0.08306
 O736 O 0.02728 0.15729 0.13076
 O737 O 0.08097 0.03703 0.12456
 O738 O 0.12766 0.02853 0.16297
 O739 O 0.12137 0.20888 0.17341
 O740 O 0.08265 0.21698 0.12851
 O741 O 0.20719 0.17297 0.12407
 O742 O 0.21488 0.12773 0.08412
 O743 O 0.17217 0.12380 0.21020
 O744 O 0.12759 0.08571 0.22053
 Zr745 Zr 0.12655 0.12430 0.18534
 O746 O 0.09572 0.09283 0.15788
 Zr747 Zr 0.18257 0.12721 0.12533
 O748 O 0.15458 0.09510 0.09554
 Zr749 Zr 0.12232 0.18296 0.12813
 O750 O 0.09187 0.15372 0.09768
 Zr751 Zr 0.12473 0.06483 0.12522
 O752 O 0.15611 0.09376 0.15527
 Zr753 Zr 0.06465 0.12080 0.12714
 O754 O 0.09247 0.15259 0.15799
 Zr755 Zr 0.12096 0.12300 0.06743
 O756 O 0.15149 0.15560 0.09478
 O757 O 0.15508 0.15644 0.15734
 O758 O 0.09194 0.09089 0.09522
 C759 C 0.12237 0.19895 0.20362
 C760 C 0.20213 0.12406 0.19964
 C761 C 0.19658 0.20290 0.12392
 C762 C 0.12374 0.04761 0.05044
 C763 C 0.05036 0.04529 0.12596
 C764 C 0.04559 0.12005 0.05247
 H765 H 0.08288 0.07880 0.17315
 H766 H 0.07737 0.16827 0.08448
 H767 H 0.16916 0.17080 0.17123
 H768 H 0.16955 0.08178 0.08156
 H769 H 0.18131 0.03835 0.13816
 H770 H 0.21571 0.07384 0.11310
 H771 H 0.03013 0.17286 0.11213
 H772 H 0.06639 0.20856 0.14473
 H773 H 0.10909 0.03188 0.17850
 H774 H 0.14336 0.06900 0.21207
 H775 H 0.10449 0.17683 0.03687
 H776 H 0.13328 0.21234 0.07274
 H777 H 0.07171 0.13595 0.21553
 H778 H 0.03506 0.10478 0.18179
 H779 H 0.20725 0.14561 0.06926
 H780 H 0.17350 0.10854 0.03341
 O781 O 0.70913 0.37473 0.83116
 O782 O 0.71815 0.41141 0.87683
 O783 O 0.67271 0.28762 0.87874
 O784 O 0.63112 0.27513 0.91356
 O785 O 0.62429 0.32562 0.79285
 O786 O 0.58578 0.37035 0.78420
 O787 O 0.57996 0.37370 0.96433
 O788 O 0.62351 0.33453 0.97265
 O789 O 0.62081 0.45718 0.92432
 O790 O 0.65846 0.46821 0.87637
 O791 O 0.53793 0.41561 0.88009
 O792 O 0.52903 0.36710 0.84296
 O793 O 0.53967 0.37238 0.92526
 O794 O 0.52943 0.33359 0.87973
 O795 O 0.57652 0.45630 0.87913
 O796 O 0.62286 0.46781 0.84204
 O797 O 0.62395 0.41741 0.96385
 O798 O 0.66206 0.37306 0.97364
 O799 O 0.66865 0.37419 0.79218
 O800 O 0.62130 0.40796 0.78284
 O801 O 0.62613 0.28627 0.83295
 O802 O 0.58855 0.27761 0.87887
 O803 O 0.71116 0.32858 0.87779
 O804 O 0.71994 0.37489 0.91355
 Zr805 Zr 0.68339 0.37249 0.87633
 O806 O 0.65477 0.40266 0.90754
 Zr807 Zr 0.62717 0.31285 0.87753
 O808 O 0.59592 0.34048 0.90885
 Zr809 Zr 0.62451 0.37061 0.81922
 O810 O 0.59337 0.40093 0.84787
 Zr811 Zr 0.62429 0.37305 0.93733
 O812 O 0.65602 0.34257 0.90902
 Zr813 Zr 0.62186 0.43099 0.87919
 O814 O 0.65321 0.40354 0.84746
 Zr815 Zr 0.56548 0.37143 0.88020
 O816 O 0.59396 0.34071 0.84870
 O817 O 0.65651 0.34095 0.84618
 O818 O 0.59212 0.40319 0.91065
 C819 C 0.69909 0.37558 0.80103
 C820 C 0.70276 0.29799 0.87877
 C821 C 0.62488 0.29534 0.80256
 C822 C 0.54951 0.37356 0.95540
 C823 C 0.62241 0.44768 0.95463
 C824 C 0.54650 0.44616 0.87956
 H825 H 0.66961 0.41674 0.92081
 H826 H 0.57922 0.41410 0.83295
 H827 H 0.67095 0.32728 0.83191
 H828 H 0.58292 0.32555 0.92316
 H829 H 0.64035 0.31818 0.96566
 H830 H 0.61639 0.28107 0.93216
 H831 H 0.60588 0.46212 0.82544
 H832 H 0.63565 0.42624 0.79039
 H833 H 0.67888 0.38951 0.96713
 H834 H 0.71316 0.35919 0.93105
 H835 H 0.53241 0.38530 0.82701
 H836 H 0.56941 0.35397 0.79204
 H837 H 0.70941 0.42872 0.86191
 H838 H 0.67413 0.46478 0.89479
 H839 H 0.57189 0.28467 0.86241
 H840 H 0.53530 0.31742 0.89710
 O841 O 0.12561 0.83179 0.78986
 O842 O 0.08838 0.87684 0.78162
 O843 O 0.21189 0.88141 0.82695
 O844 O 0.22313 0.91584 0.86891
 O845 O 0.17781 0.79319 0.87370
 O846 O 0.13374 0.78125 0.91133
 O847 O 0.12297 0.96137 0.92257
 O848 O 0.15995 0.97300 0.87854
 O849 O 0.04009 0.91756 0.87849
 O850 O 0.03160 0.86941 0.84222
 O851 O 0.08497 0.87551 0.96233
 O852 O 0.13404 0.83927 0.97054
 O853 O 0.12799 0.92117 0.96144
 O854 O 0.16741 0.87573 0.96982
 O855 O 0.04398 0.87416 0.92402
 O856 O 0.03432 0.83520 0.87779
 O857 O 0.07746 0.95940 0.87953
 O858 O 0.12118 0.97257 0.84043
 O859 O 0.12982 0.79148 0.82883
 O860 O 0.09574 0.77989 0.87590
 O861 O 0.21552 0.83482 0.87336
 O862 O 0.22217 0.88115 0.91113
 O863 O 0.17076 0.87986 0.78870
 O864 O 0.12335 0.91456 0.78129
 Zr865 Zr 0.12711 0.87628 0.81664
 O866 O 0.09552 0.90505 0.84622
 Zr867 Zr 0.18694 0.87835 0.87255
 O868 O 0.15804 0.90771 0.90457
 Zr869 Zr 0.13182 0.81752 0.87379
 O870 O 0.10063 0.84392 0.90608
 Zr871 Zr 0.12363 0.93551 0.87744
 O872 O 0.15549 0.90945 0.84492
 Zr873 Zr 0.06894 0.87437 0.87848
 O874 O 0.09757 0.84508 0.84597
 Zr875 Zr 0.12887 0.87685 0.93449
 O876 O 0.16061 0.84741 0.90503
 O877 O 0.16013 0.84664 0.84246
 O878 O 0.09527 0.90642 0.90901
 C879 C 0.12668 0.80133 0.79879
 C880 C 0.20135 0.88165 0.79696
 C881 C 0.20764 0.80407 0.87406
 C882 C 0.12550 0.95155 0.95267
 C883 C 0.04773 0.94832 0.87892
 C884 C 0.05437 0.87475 0.95398
 H885 H 0.08066 0.91785 0.83169
 H886 H 0.08824 0.82825 0.92010
 H887 H 0.17433 0.83324 0.82769
 H888 H 0.17257 0.92223 0.91775
 H889 H 0.17669 0.96711 0.86167
 H890 H 0.21586 0.93440 0.88305
 H891 H 0.04003 0.81970 0.89580
 H892 H 0.07722 0.78725 0.86173
 H893 H 0.10436 0.96596 0.82402
 H894 H 0.13813 0.93249 0.78885
 H895 H 0.11638 0.82282 0.96686
 H896 H 0.14870 0.78992 0.92861
 H897 H 0.07164 0.86088 0.78953
 H898 H 0.03461 0.88733 0.82586
 H899 H 0.21669 0.86350 0.92715
 H900 H 0.18269 0.89408 0.96472
 O901 O 0.71318 0.12546 0.66588
 O902 O 0.72199 0.09213 0.61766
 O903 O 0.66909 0.21266 0.62454
 O904 O 0.62487 0.22500 0.59376
 O905 O 0.62750 0.16757 0.71112
 O906 O 0.59289 0.12012 0.71968
 O907 O 0.57724 0.12740 0.53970
 O908 O 0.61892 0.16771 0.53106
 O909 O 0.62523 0.04285 0.57359
 O910 O 0.66516 0.03148 0.61868
 O911 O 0.54206 0.07794 0.62408
 O912 O 0.53196 0.12335 0.66340
 O913 O 0.53926 0.12316 0.58091
 O914 O 0.52973 0.15961 0.62951
 O915 O 0.58281 0.03952 0.61966
 O916 O 0.63161 0.02889 0.65512
 O917 O 0.62202 0.08433 0.53585
 O918 O 0.65881 0.13096 0.52639
 O919 O 0.67501 0.12253 0.70710
 O920 O 0.63063 0.08457 0.71651
 O921 O 0.62518 0.20916 0.67337
 O922 O 0.58448 0.21761 0.62956
 O923 O 0.71012 0.17423 0.62217
 O924 O 0.71930 0.13067 0.58289
 Zr925 Zr 0.68499 0.12874 0.62226
 O926 O 0.65650 0.09846 0.59107
 Zr927 Zr 0.62532 0.18492 0.62735
 O928 O 0.59427 0.15722 0.59608
 Zr929 Zr 0.62935 0.12417 0.68246
 O930 O 0.59831 0.09381 0.65392
 Zr931 Zr 0.62284 0.12767 0.56442
 O932 O 0.65409 0.15855 0.59276
 Zr933 Zr 0.62677 0.06705 0.61965
 O934 O 0.65834 0.09452 0.65098
 Zr935 Zr 0.56718 0.12335 0.62469
 O936 O 0.59549 0.15378 0.65642
 O937 O 0.65796 0.15705 0.65547
 O938 O 0.59387 0.09465 0.59128
 C939 C 0.70493 0.12318 0.69650
 C940 C 0.69970 0.20424 0.62294
 C941 C 0.62586 0.19830 0.70322
 C942 C 0.54740 0.12496 0.55028
 C943 C 0.62321 0.05363 0.54377
 C944 C 0.55230 0.04800 0.62167
 H945 H 0.67130 0.08579 0.57635
 H946 H 0.58567 0.07914 0.66877
 H947 H 0.67226 0.17086 0.66968
 H948 H 0.57978 0.17219 0.58333
 H949 H 0.63511 0.18454 0.53829
 H950 H 0.61083 0.21859 0.57484
 H951 H 0.61421 0.03209 0.67200
 H952 H 0.64592 0.06789 0.70719
 H953 H 0.67595 0.11404 0.53047
 H954 H 0.71028 0.14653 0.56658
 H955 H 0.53797 0.10545 0.67893
 H956 H 0.57488 0.13550 0.71352
 H957 H 0.71512 0.07350 0.63194
 H958 H 0.68028 0.03720 0.60035
 H959 H 0.56957 0.20928 0.64707
 H960 H 0.53283 0.17605 0.61170
 C961 C 0.37766 0.77295 0.72360
 C962 C 0.40802 0.77551 0.74627
 C963 C 0.40950 0.75155 0.76993
 C964 C 0.38048 0.72714 0.76883
 C965 C 0.34936 0.74887 0.77077
 C966 C 0.34792 0.77276 0.74715
 C967 C 0.37912 0.73753 0.70966
 C968 C 0.38059 0.71367 0.73323
 H969 H 0.42682 0.79445 0.74382
 H970 H 0.42954 0.75001 0.78767
 H971 H 0.32996 0.74555 0.78903
 H972 H 0.32736 0.78976 0.74524
 H973 H 0.37909 0.73150 0.68352
 H974 H 0.38183 0.68765 0.72688
 C975 C 0.37692 0.22955 0.27241
 C976 C 0.34518 0.25037 0.27379
 C977 C 0.34342 0.27412 0.25003
 C978 C 0.37349 0.27507 0.22693
 C979 C 0.40342 0.27860 0.25007
 C980 C 0.40521 0.25477 0.27387
 C981 C 0.37799 0.21598 0.23685
 C982 C 0.37620 0.23966 0.21318
 H983 H 0.32564 0.24662 0.29182
 H984 H 0.32244 0.29055 0.24778
 H985 H 0.42168 0.29808 0.24783
 H986 H 0.42499 0.25389 0.29196
 H987 H 0.38017 0.19000 0.23056
 H988 H 0.37681 0.23350 0.18708
 C989 C 0.62443 0.77157 0.27260
 C990 C 0.59395 0.77191 0.24995
 C991 C 0.59422 0.74784 0.22637
 C992 C 0.62492 0.72551 0.22752
 C993 C 0.65433 0.74936 0.22545
 C994 C 0.65411 0.77339 0.24898
 C995 C 0.62559 0.73627 0.28673
 C996 C 0.62585 0.71227 0.26325
 H997 H 0.57382 0.78951 0.25235
 H998 H 0.57435 0.74488 0.20862
 H999 H 0.67353 0.74763 0.20692
 H1000 H 0.67331 0.79203 0.25060
 H1001 H 0.62626 0.73043 0.31290
 H1002 H 0.62679 0.68627 0.26976
 C1003 C 0.12221 0.27036 0.27607
 C1004 C 0.09140 0.27083 0.25388
 C1005 C 0.09141 0.24705 0.23003
 C1006 C 0.12222 0.22484 0.23044
 C1007 C 0.15157 0.24879 0.22819
 C1008 C 0.15156 0.27257 0.25203
 C1009 C 0.12373 0.23488 0.28974
 C1010 C 0.12373 0.21115 0.26597
 H1011 H 0.07123 0.28829 0.25679
 H1012 H 0.07126 0.24421 0.21258
 H1013 H 0.17085 0.24703 0.20959
 H1014 H 0.17085 0.29111 0.25378
 H1015 H 0.12477 0.22874 0.31583
 H1016 H 0.12478 0.18508 0.27213
 C1017 C 0.12422 0.72958 0.72701
 C1018 C 0.10122 0.72262 0.75643
 C1019 C 0.10178 0.74656 0.78010
 C1020 C 0.12532 0.77533 0.77226
 C1021 C 0.15900 0.75905 0.76596
 C1022 C 0.15843 0.73518 0.74230
 C1023 C 0.11351 0.76394 0.71449
 C1024 C 0.11411 0.78781 0.73811
 H1025 H 0.08558 0.70094 0.75832
 H1026 H 0.08659 0.74529 0.80219
 H1027 H 0.18164 0.76668 0.77801
 H1028 H 0.18062 0.72257 0.73412
 H1029 H 0.10554 0.76909 0.68940
 H1030 H 0.10667 0.81306 0.73294
 C1031 C 0.87924 0.22461 0.77263
 C1032 C 0.84744 0.24534 0.77340
 C1033 C 0.84635 0.26943 0.74999
 C1034 C 0.87710 0.27082 0.72783
 C1035 C 0.90633 0.27399 0.75189
 C1036 C 0.90744 0.24982 0.77535
 C1037 C 0.88140 0.21160 0.73687
 C1038 C 0.88027 0.23570 0.71352
 H1039 H 0.82729 0.24114 0.79064
 H1040 H 0.82528 0.28564 0.74716
 H1041 H 0.92468 0.29347 0.75048
 H1042 H 0.92671 0.24863 0.79395
 H1043 H 0.88382 0.18572 0.73028
 H1044 H 0.88172 0.23008 0.68733
 C1045 C 0.77067 0.37784 0.72907
 C1046 C 0.73541 0.38230 0.71542
 C1047 C 0.71153 0.38178 0.73907
 C1048 C 0.72493 0.37686 0.77437
 C1049 C 0.74541 0.34499 0.77254
 C1050 C 0.76922 0.34550 0.74882
 C1051 C 0.77432 0.40515 0.75519
 C1052 C 0.75037 0.40467 0.77888
 H1053 H 0.72955 0.38583 0.68949
 H1054 H 0.68560 0.38492 0.73304
 H1055 H 0.74105 0.32354 0.78806
 H1056 H 0.78494 0.32444 0.74388
 H1057 H 0.79389 0.42345 0.75490
 H1058 H 0.74948 0.42256 0.79884
 C1059 C 0.27667 0.62586 0.76915
 C1060 C 0.29025 0.62822 0.73358
 C1061 C 0.26649 0.62824 0.70986
 C1062 C 0.23112 0.62591 0.72363
 C1063 C 0.23123 0.59472 0.74531
 C1064 C 0.25504 0.59470 0.76914
 C1065 C 0.25215 0.65468 0.77193
 C1066 C 0.22841 0.65473 0.74818
 H1067 H 0.31628 0.62997 0.72738
 H1068 H 0.27252 0.62998 0.68378
 H1069 H 0.21412 0.57434 0.74211
 H1070 H 0.25828 0.57433 0.78629
 H1071 H 0.25297 0.67308 0.79133
 H1072 H 0.20908 0.67326 0.74733
 C1073 C 0.27457 0.12590 0.27063
 C1074 C 0.28827 0.12645 0.23506
 C1075 C 0.26452 0.12570 0.21133
 C1076 C 0.22908 0.12447 0.22516
 C1077 C 0.22876 0.09428 0.24820
 C1078 C 0.25256 0.09504 0.27199
 C1079 C 0.25043 0.15515 0.27204
 C1080 C 0.22670 0.15446 0.24829
 H1081 H 0.31434 0.12743 0.22887
 H1082 H 0.27062 0.12603 0.18521
 H1083 H 0.21141 0.07399 0.24588
 H1084 H 0.25555 0.07539 0.29001
 H1085 H 0.25180 0.17465 0.29025
 H1086 H 0.20793 0.17353 0.24618
 C1087 C 0.77676 0.12217 0.76824
 C1088 C 0.79090 0.12306 0.73283
 C1089 C 0.76741 0.12326 0.70878
 C1090 C 0.73180 0.12254 0.72217
 C1091 C 0.73060 0.09195 0.74466
 C1092 C 0.75409 0.09177 0.76876
 C1093 C 0.75324 0.15190 0.76986
 C1094 C 0.72979 0.15214 0.74583
 H1095 H 0.81707 0.12354 0.72700
 H1096 H 0.77377 0.12387 0.68272
 H1097 H 0.71291 0.07203 0.74173
 H1098 H 0.75647 0.07173 0.78643
 H1099 H 0.75495 0.17115 0.78830
 H1100 H 0.71154 0.17172 0.74376
 C1101 C 0.72500 0.87685 0.26636
 C1102 C 0.71169 0.87603 0.23070
 C1103 C 0.73574 0.87445 0.20720
 C1104 C 0.77108 0.87381 0.22133
 C1105 C 0.77306 0.90464 0.24342
 C1106 C 0.74897 0.90624 0.26694
 C1107 C 0.74715 0.84611 0.26897
 C1108 C 0.77115 0.84456 0.24547
 H1109 H 0.68567 0.87669 0.22430
 H1110 H 0.72994 0.87374 0.18102
 H1111 H 0.79169 0.92371 0.24064
 H1112 H 0.74704 0.92666 0.28423
 H1113 H 0.74400 0.82700 0.28756
 H1114 H 0.78841 0.82418 0.24400
 C1115 C 0.77536 0.73221 0.37495
 C1116 C 0.75278 0.73222 0.40548
 C1117 C 0.72929 0.75633 0.40505
 C1118 C 0.73042 0.77832 0.37411
 C1119 C 0.76605 0.79160 0.37300
 C1120 C 0.78954 0.76750 0.37344
 C1121 C 0.75177 0.73019 0.34533
 C1122 C 0.72831 0.75425 0.34485
 H1123 H 0.75521 0.71489 0.42581
 H1124 H 0.71165 0.75959 0.42502
 H1125 H 0.77242 0.81761 0.37189
 H1126 H 0.81572 0.77322 0.37269
 H1127 H 0.75344 0.71148 0.32632
 H1128 H 0.71002 0.75609 0.32531
 C1129 C 0.77095 0.27649 0.62420
 C1130 C 0.77206 0.25294 0.65398
 C1131 C 0.74825 0.22923 0.65345
 C1132 C 0.72537 0.23111 0.62320
 C1133 C 0.71166 0.26662 0.62370
 C1134 C 0.73544 0.29030 0.62422
 C1135 C 0.77251 0.25389 0.59374
 C1136 C 0.74867 0.23017 0.59320
 H1137 H 0.78990 0.25491 0.67391
 H1138 H 0.74575 0.21095 0.67295
 H1139 H 0.68557 0.27280 0.62365
 H1140 H 0.72932 0.31641 0.62462
 H1141 H 0.79070 0.25645 0.57417
 H1142 H 0.74648 0.21247 0.57317
 C1143 C 0.73117 0.72114 0.12182
 C1144 C 0.73378 0.74173 0.15354
 C1145 C 0.75767 0.76530 0.15256
 C1146 C 0.77709 0.76612 0.11995
 C1147 C 0.79018 0.73061 0.11560
 C1148 C 0.76619 0.70712 0.11657
 C1149 C 0.72676 0.74651 0.09387
 C1150 C 0.75078 0.77003 0.09289
 H1151 H 0.71910 0.73719 0.17544
 H1152 H 0.76297 0.78121 0.17350
 H1153 H 0.81597 0.72434 0.11173
 H1154 H 0.77177 0.68106 0.11354
 H1155 H 0.70663 0.74584 0.07617
 H1156 H 0.75116 0.78944 0.07437
 C1157 C 0.26753 0.27554 0.12264
 C1158 C 0.26872 0.25310 0.15326
 C1159 C 0.24502 0.22926 0.15359
 C1160 C 0.22214 0.22991 0.12328
 C1161 C 0.20825 0.26531 0.12246
 C1162 C 0.23191 0.28912 0.12212
 C1163 C 0.26925 0.25185 0.09303
 C1164 C 0.24550 0.22801 0.09335
 H1165 H 0.28655 0.25588 0.17310
 H1166 H 0.24260 0.21169 0.17374
 H1167 H 0.18212 0.27134 0.12217
 H1168 H 0.22560 0.31518 0.12156
 H1169 H 0.28746 0.25377 0.07342
 H1170 H 0.24344 0.20957 0.07398
 C1171 C 0.28059 0.73323 0.87384
 C1172 C 0.25478 0.72892 0.90138
 C1173 C 0.23097 0.75268 0.90163
 C1174 C 0.23494 0.77874 0.87430
 C1175 C 0.27020 0.79227 0.87909
 C1176 C 0.29408 0.76847 0.87886
 C1177 C 0.26057 0.73531 0.84172
 C1178 C 0.23670 0.75897 0.84198
 H1179 H 0.25541 0.70906 0.91941
 H1180 H 0.21129 0.75309 0.91988
 H1181 H 0.27600 0.81820 0.88257
 H1182 H 0.32003 0.77431 0.88213
 H1183 H 0.26588 0.72060 0.81998
 H1184 H 0.22144 0.76413 0.82060
 C1185 C 0.27593 0.23306 0.37611
 C1186 C 0.25055 0.22887 0.40405
 C1187 C 0.22649 0.25238 0.40427
 C1188 C 0.22983 0.27802 0.37646
 C1189 C 0.26500 0.29202 0.38055
 C1190 C 0.28911 0.26849 0.38038
 C1191 C 0.25545 0.23440 0.34422
 C1192 C 0.23129 0.25776 0.34443
 H1193 H 0.25164 0.20928 0.42235
 H1194 H 0.20704 0.25286 0.42275
 H1195 H 0.27057 0.31806 0.38356
 H1196 H 0.31503 0.27469 0.38319
 H1197 H 0.26058 0.21935 0.32272
 H1198 H 0.21544 0.26224 0.32324
 C1199 C 0.52545 0.62267 1.02076
 C1200 C 0.53941 0.62715 0.98557
 C1201 C 0.51600 0.62698 0.96150
 C1202 C 0.48056 0.62231 0.97457
 C1203 C 0.48212 0.59025 0.99482
 C1204 C 0.50546 0.59047 1.01907
 C1205 C 0.49954 0.65019 1.02433
 C1206 C 0.47609 0.65000 1.00022
 H1207 H 0.56540 0.63045 0.97988
 H1208 H 0.52233 0.63010 0.93562
 H1209 H 0.46747 0.56856 0.98932
 H1210 H 0.51019 0.56919 1.03472
 H1211 H 0.49975 0.66843 1.04399
 H1212 H 0.45631 0.66811 0.99933
 C1213 C 0.47482 0.12345 0.47932
 C1214 C 0.46160 0.11729 0.51452
 C1215 C 0.48538 0.11771 0.53826
 C1216 C 0.52038 0.12422 0.52478
 C1217 C 0.52559 0.09749 0.49830
 C1218 C 0.50185 0.09720 0.47451
 C1219 C 0.49359 0.15631 0.48164
 C1220 C 0.51739 0.15671 0.50539
 H1221 H 0.43589 0.11241 0.52035
 H1222 H 0.47970 0.11324 0.56410
 H1223 H 0.54646 0.08060 0.49800
 H1224 H 0.50281 0.08050 0.45366
 H1225 H 0.48850 0.17750 0.46599
 H1226 H 0.53263 0.17826 0.51006
 C1227 C 0.52527 0.87921 0.47635
 C1228 C 0.50097 0.90837 0.47416
 C1229 C 0.47709 0.90803 0.49794
 C1230 C 0.47960 0.87854 0.52179
 C1231 C 0.47955 0.84788 0.49947
 C1232 C 0.50342 0.84821 0.47576
 C1233 C 0.53887 0.88074 0.51185
 C1234 C 0.51506 0.88039 0.53556
 H1235 H 0.50261 0.92777 0.45569
 H1236 H 0.45832 0.92714 0.49979
 H1237 H 0.46230 0.82755 0.50219
 H1238 H 0.50656 0.82813 0.45824
 H1239 H 0.56491 0.88235 0.51800
 H1240 H 0.52110 0.88174 0.56165
 C1241 C 1.02484 0.37645 0.48293
 C1242 C 0.99974 0.40465 0.47879
 C1243 C 0.97602 0.40534 0.50263
 C1244 C 0.97951 0.37791 0.52863
 C1245 C 0.98020 0.34566 0.50866
 C1246 C 1.00390 0.34488 0.48478
 C1247 C 1.03864 0.38100 0.51810
 C1248 C 1.01496 0.38178 0.54197
 H1249 H 1.00037 0.42238 0.45864
 H1250 H 0.95624 0.42331 0.50258
 H1251 H 0.96353 0.32513 0.51303
 H1252 H 1.00751 0.32367 0.46875
 H1253 H 1.06466 0.38386 0.52386
 H1254 H 1.02106 0.38535 0.56784
 C1255 C -0.01734 0.87363 1.02600
 C1256 C -0.01727 0.84310 1.00340
 C1257 C 0.00671 0.84358 0.97984
 C1258 C 0.02863 0.87450 0.98083
 C1259 C 0.00446 0.90376 0.97877
 C1260 C -0.01956 0.90334 1.00237
 C1261 C 0.01813 0.87523 1.04000
 C1262 C 0.04207 0.87568 1.01640
 H1263 H -0.03449 0.82270 1.00586
 H1264 H 0.00996 0.82361 0.96221
 H1265 H 0.00631 0.92335 0.96051
 H1266 H -0.03820 0.92259 1.00424
 H1267 H 0.02414 0.87629 1.06613
 H1268 H 0.06810 0.87706 1.02266
 C1269 C -0.02618 0.11818 -0.01953
 C1270 C -0.03948 0.11006 0.01524
 C1271 C -0.01599 0.11056 0.03930
 C1272 C 0.01884 0.11908 0.02656
 C1273 C 0.02547 0.09373 -0.00094
 C1274 C 0.00202 0.09331 -0.02502
 C1275 C -0.00884 0.15168 -0.01566
 C1276 C 0.01467 0.15215 0.00840
 H1277 H -0.06502 0.10383 0.02052
 H1278 H -0.02172 0.10482 0.06487
 H1279 H 0.04732 0.07823 -0.00202
 H1280 H 0.00411 0.07768 -0.04664
 H1281 H -0.01464 0.17323 -0.03054
 H1282 H 0.02895 0.17411 0.01407
 C1283 C 0.12467 1.02256 1.02551
 C1284 C 0.09056 1.01516 1.01067
 C1285 C 0.09100 0.99157 0.98666
 C1286 C 0.12546 0.97738 0.97952
 C1287 C 0.14715 1.00755 0.97174
 C1288 C 0.14677 1.03114 0.99573
 C1289 C 0.13762 0.98864 1.03728
 C1290 C 0.13798 0.96513 1.01330
 H1291 H 0.06776 1.02627 1.01943
 H1292 H 0.06864 0.98260 0.97507
 H1293 H 0.16194 1.00996 0.94947
 H1294 H 0.16129 1.05360 0.99383
 H1295 H 0.14640 0.98349 1.06210
 H1296 H 0.14701 0.94031 1.01797
 C1297 C 0.12005 0.47988 0.47624
 C1298 C 0.09209 0.47658 0.50182
 C1299 C 0.09250 0.50040 0.52567
 C1300 C 0.12081 0.52540 0.52183
 C1301 C 0.15236 0.50434 0.52054
 C1302 C 0.15197 0.48058 0.49674
 C1303 C 0.11642 0.51524 0.46268
 C1304 C 0.11682 0.53898 0.48644
 H1305 H 0.07343 0.45735 0.50104
 H1306 H 0.07418 0.50151 0.54527
 H1307 H 0.17330 0.50790 0.53689
 H1308 H 0.17259 0.46387 0.49277
 H1309 H 0.11334 0.52127 0.43673
 H1310 H 0.11406 0.56496 0.48040
 C1311 C 0.37572 0.47873 1.02124
 C1312 C 0.34228 0.49596 1.01605
 C1313 C 0.34267 0.51964 0.99211
 C1314 C 0.37646 0.52406 0.97547
 C1315 C 0.40049 0.53067 1.00416
 C1316 C 0.40022 0.50691 1.02802
 C1317 C 0.38549 0.46573 0.98682
 C1318 C 0.38591 0.48935 0.96298
 H1319 H 0.32015 0.49000 1.03000
 H1320 H 0.32090 0.53393 0.98563
 H1321 H 0.41557 0.55265 1.00612
 H1322 H 0.41558 0.50838 1.04997
 H1323 H 0.39235 0.44032 0.98162
 H1324 H 0.39313 0.48381 0.93774
 C1325 C 0.87288 0.52791 0.48506
 C1326 C 0.90559 0.50862 0.48541
 C1327 C 0.90732 0.48523 0.50950
 C1328 C 0.87614 0.48292 0.53095
 C1329 C 0.87118 0.51819 0.54442
 C1330 C 0.86948 0.54173 0.52042
 C1331 C 0.84586 0.50149 0.48248
 C1332 C 0.84756 0.47800 0.50643
 H1333 H 0.92618 0.51389 0.46901
 H1334 H 0.92955 0.47109 0.51410
 H1335 H 0.86918 0.52429 0.57047
 H1336 H 0.86600 0.56767 0.52623
 H1337 H 0.82679 0.50146 0.46363
 H1338 H 0.82989 0.45791 0.50802
 C1339 C 0.87524 1.01719 -0.02555
 C1340 C 0.90834 1.01587 -0.00702
 C1341 C 0.90986 0.99185 0.01651
 C1342 C 0.87810 0.97143 0.01970
 C1343 C 0.85040 0.99691 0.02521
 C1344 C 0.84891 1.02080 0.00157
 C1345 C 0.87042 0.98190 -0.03900
 C1346 C 0.87189 0.95805 -0.01540
 H1347 H 0.92927 1.03159 -0.01288
 H1348 H 0.93226 0.98660 0.03014
 H1349 H 0.83322 0.99604 0.04580
 H1350 H 0.83049 1.04031 0.00199
 H1351 H 0.86593 0.97601 -0.06478
 H1352 H 0.86867 0.93211 -0.02136
 C1353 C 0.62214 -0.01682 0.47044
 C1354 C 0.59361 -0.01994 0.49537
 C1355 C 0.59381 0.00364 0.51943
 C1356 C 0.62252 0.02830 0.51645
 C1357 C 0.65381 0.00684 0.51561
 C1358 C 0.65362 -0.01670 0.49161
 C1359 C 0.61928 0.01872 0.45711
 C1360 C 0.61947 0.04229 0.48113
 H1361 H 0.57467 -0.03887 0.49401
 H1362 H 0.57506 0.00484 0.53860
 H1363 H 0.67450 0.01002 0.53237
 H1364 H 0.67414 -0.03360 0.48790
 H1365 H 0.61691 0.02496 0.43113
 H1366 H 0.61727 0.06838 0.47537
 C1367 C 0.47345 1.02123 0.37539
 C1368 C 0.45995 0.98611 0.36968
 C1369 C 0.48380 0.96239 0.36875
 C1370 C 0.51905 0.97587 0.37356
 C1371 C 0.52284 1.00250 0.34679
 C1372 C 0.49905 1.02620 0.34778
 C1373 C 0.49363 1.01847 0.40737
 C1374 C 0.51761 0.99489 0.40638
 H1375 H 0.43399 0.98024 0.36653
 H1376 H 0.47795 0.93654 0.36476
 H1377 H 0.54239 1.00252 0.32840
 H1378 H 0.49828 1.04645 0.33020
 H1379 H 0.48811 1.03231 0.42959
 H1380 H 0.53308 0.98922 0.42757
 C1381 C -0.02028 -0.02755 0.12455
 C1382 C -0.01929 -0.00764 0.15684
 C1383 C 0.00433 0.01631 0.15728
 C1384 C 0.02488 0.01826 0.12537
 C1385 C 0.03875 -0.01684 0.12055
 C1386 C 0.01521 -0.04073 0.12010
 C1387 C -0.02427 -0.00150 0.09723
 C1388 C -0.00063 0.02239 0.09756
 H1389 H -0.03570 -0.01207 0.17760
 H1390 H 0.00811 0.03234 0.17844
 H1391 H 0.06474 -0.02257 0.11727
 H1392 H 0.02145 -0.06655 0.11638
 H1393 H -0.04441 -0.00138 0.07968
 H1394 H -0.00036 0.04258 0.07990
 C1395 C 0.51907 0.52443 0.12317
 C1396 C 0.51884 0.50261 0.15424
 C1397 C 0.49460 0.47935 0.15439
 C1398 C 0.47265 0.47986 0.12345
 C1399 C 0.45968 0.51561 0.12136
 C1400 C 0.48388 0.53885 0.12121
 C1401 C 0.52106 0.50006 0.09407
 C1402 C 0.49679 0.47673 0.09423
 H1403 H 0.53620 0.50535 0.17449
 H1404 H 0.49126 0.46221 0.17476
 H1405 H 0.43375 0.52227 0.11977
 H1406 H 0.47829 0.56502 0.11948
 H1407 H 0.53978 0.50122 0.07486
 H1408 H 0.49478 0.45797 0.07515
 C1409 C -0.02003 0.47658 0.62841
 C1410 C -0.01987 0.49919 0.65888
 C1411 C 0.00393 0.52290 0.65805
 C1412 C 0.02551 0.52199 0.62680
 C1413 C 0.03917 0.48647 0.62550
 C1414 C 0.01541 0.46277 0.62634
 C1415 C -0.02282 0.50013 0.59870
 C1416 C 0.00098 0.52389 0.59788
 H1417 H -0.03693 0.49665 0.67944
 H1418 H 0.00720 0.54062 0.67792
 H1419 H 0.06521 0.48029 0.62375
 H1420 H 0.02148 0.43667 0.62528
 H1421 H -0.04174 0.49812 0.57980
 H1422 H 0.00241 0.54216 0.57827
 C1423 C 0.47520 0.51858 0.87688
 C1424 C 0.46093 0.48360 0.88175
 C1425 C 0.48427 0.45939 0.88277
 C1426 C 0.51986 0.47219 0.87880
 C1427 C 0.51952 0.49188 0.84634
 C1428 C 0.49620 0.51613 0.84535
 C1429 C 0.50026 0.52260 0.90508
 C1430 C 0.52363 0.49842 0.90599
 H1431 H 0.43483 0.47823 0.88459
 H1432 H 0.47785 0.43363 0.88650
 H1433 H 0.53613 0.48706 0.82582
 H1434 H 0.49290 0.53202 0.82399
 H1435 H 0.49991 0.54295 0.92257
 H1436 H 0.54345 0.49843 0.92390
 C1437 C 0.62305 0.51953 1.02652
 C1438 C 0.58960 0.51552 1.00905
 C1439 C 0.58941 0.49146 0.98551
 C1440 C 0.62270 0.47374 0.98120
 C1441 C 0.64793 0.50135 0.97486
 C1442 C 0.64819 0.52524 0.99852
 C1443 C 0.63137 0.48467 1.03964
 C1444 C 0.63117 0.46085 1.01600
 H1445 H 0.56755 0.52935 1.01565
 H1446 H 0.56708 0.48426 0.97270
 H1447 H 0.66453 0.50185 0.95377
 H1448 H 0.66506 0.54605 0.99755
 H1449 H 0.63746 0.47905 1.06516
 H1450 H 0.63700 0.43531 1.02170
 C1451 C 0.37451 1.02446 0.47429
 C1452 C 0.40821 1.02163 0.49160
 C1453 C 0.40946 0.99770 0.51525
 C1454 C 0.37690 0.97884 0.51980
 C1455 C 0.35067 1.00562 0.52617
 C1456 C 0.34938 1.02943 0.50241
 C1457 C 0.36745 0.98928 0.46136
 C1458 C 0.36871 0.96557 0.48508
 H1459 H 0.42967 1.03627 0.48490
 H1460 H 0.43208 0.99147 0.52808
 H1461 H 0.33424 1.00566 0.54739
 H1462 H 0.33183 1.04971 0.50341
 H1463 H 0.36146 0.98333 0.43590
 H1464 H 0.36384 0.93982 0.47947
 C1465 C -0.02665 0.62320 0.48193
 C1466 C -0.03974 0.61698 0.51715
 C1467 C -0.01583 0.61711 0.54075
 C1468 C 0.01913 0.62342 0.52708
 C1469 C 0.02403 0.59677 0.50051
 C1470 C 0.00017 0.59676 0.47685
 C1471 C -0.00764 0.65590 0.48423
 C1472 C 0.01630 0.65602 0.50784
 H1473 H -0.06545 0.61219 0.52309
 H1474 H -0.02138 0.61247 0.56659
 H1475 H 0.04482 0.57979 0.49997
 H1476 H 0.00100 0.58027 0.45583
 H1477 H -0.01266 0.67718 0.46868
 H1478 H 0.03175 0.67743 0.51248
 C1479 C 0.47679 0.37707 1.02625
 C1480 C 0.47625 0.34576 1.00483
 C1481 C 0.50055 0.34465 0.98160
 C1482 C 0.52332 0.37497 0.98177
 C1483 C 0.49997 0.40479 0.97826
 C1484 C 0.47562 0.40588 1.00153
 C1485 C 0.51201 0.37824 1.04069
 C1486 C 0.53628 0.37714 1.01747
 H1487 H 0.45834 0.32603 1.00780
 H1488 H 0.50342 0.32399 0.96473
 H1489 H 0.50257 0.42360 0.95929
 H1490 H 0.45744 0.42561 1.00246
 H1491 H 0.51758 0.38014 1.06685
 H1492 H 0.56224 0.37808 1.02409
 C1493 C 0.48068 -0.02385 0.62168
 C1494 C 0.48300 -0.00427 0.65408
 C1495 C 0.50697 0.01930 0.65398
 C1496 C 0.52655 0.02124 0.62147
 C1497 C 0.53972 -0.01404 0.61591
 C1498 C 0.51577 -0.03758 0.61600
 C1499 C 0.47628 0.00251 0.59471
 C1500 C 0.50027 0.02603 0.59451
 H1501 H 0.46720 -0.00865 0.67533
 H1502 H 0.51168 0.03505 0.67518
 H1503 H 0.56551 -0.02010 0.61172
 H1504 H 0.52141 -0.06347 0.61186
 H1505 H 0.45560 0.00312 0.57778
 H1506 H 0.50030 0.04639 0.57703
 C1507 C -0.03018 0.51772 0.38242
 C1508 C -0.04401 0.48248 0.37835
 C1509 C -0.02028 0.45857 0.37753
 C1510 C 0.01516 0.47204 0.38079
 C1511 C 0.01822 0.49772 0.35303
 C1512 C -0.00540 0.52156 0.35390
 C1513 C -0.00907 0.51593 0.41386
 C1514 C 0.01477 0.49218 0.41297
 H1515 H -0.07010 0.47668 0.37635
 H1516 H -0.02631 0.43260 0.37480
 H1517 H 0.03716 0.49700 0.33402
 H1518 H -0.00661 0.54116 0.33562
 H1519 H -0.01395 0.53043 0.43580
 H1520 H 0.03074 0.48707 0.43391
 C1521 C -0.02637 1.01793 0.87735
 C1522 C -0.03877 0.98255 0.87034
 C1523 C -0.01445 0.95927 0.87086
 C1524 C 0.02014 0.97330 0.87829
 C1525 C 0.02525 1.00029 0.85208
 C1526 C 0.00102 1.02357 0.85158
 C1527 C -0.00837 1.01511 0.91065
 C1528 C 0.01601 0.99192 0.91106
 H1529 H -0.06429 0.97617 0.86519
 H1530 H -0.01950 0.93338 0.86615
 H1531 H 0.04595 1.00080 0.83501
 H1532 H 0.00112 1.04387 0.83403
 H1533 H -0.01569 1.02850 0.93267
 H1534 H 0.02969 0.98598 0.93327
 C1535 C 0.77205 0.62125 0.27417
 C1536 C 0.78562 0.61280 0.23960
 C1537 C 0.76213 0.61188 0.21565
 C1538 C 0.72699 0.61947 0.22826
 C1539 C 0.72130 0.59449 0.25629
 C1540 C 0.74488 0.59543 0.28033
 C1541 C 0.75358 0.65403 0.26943
 C1542 C 0.72997 0.65310 0.24555
 H1543 H 0.81138 0.60749 0.23429
 H1544 H 0.76814 0.60578 0.19022
 H1545 H 0.70069 0.57740 0.25705
 H1546 H 0.74439 0.57911 0.30161
 H1547 H 0.75949 0.67642 0.28277
 H1548 H 0.71539 0.67464 0.23890
 C1549 C 0.27176 0.88128 0.72360
 C1550 C 0.23631 0.88560 0.71044
 C1551 C 0.21283 0.88602 0.73453
 C1552 C 0.22678 0.88210 0.76976
 C1553 C 0.24702 0.85002 0.76853
 C1554 C 0.27041 0.84959 0.74439
 C1555 C 0.27605 0.90935 0.74882
 C1556 C 0.25251 0.90980 0.77295
 H1557 H 0.23004 0.88835 0.68451
 H1558 H 0.18682 0.88921 0.72888
 H1559 H 0.24283 0.82912 0.78483
 H1560 H 0.28595 0.82826 0.73989
 H1561 H 0.29575 0.92748 0.74763
 H1562 H 0.25211 0.92831 0.79236
 C1563 C 0.21985 0.37991 0.26940
 C1564 C 0.20581 0.38300 0.23412
 C1565 C 0.22937 0.38316 0.21007
 C1566 C 0.26488 0.38018 0.22341
 C1567 C 0.26816 0.40863 0.24833
 C1568 C 0.24459 0.40851 0.27237
 C1569 C 0.24112 0.34851 0.26854
 C1570 C 0.26454 0.34864 0.24447
 H1571 H 0.17970 0.38515 0.22841
 H1572 H 0.22314 0.38537 0.18408
 H1573 H 0.28719 0.42745 0.24698
 H1574 H 0.24348 0.42723 0.29156
 H1575 H 0.23748 0.32757 0.28493
 H1576 H 0.28066 0.32774 0.24008
 C1577 C 0.87870 0.72234 0.27126
 C1578 C 0.84669 0.74272 0.26995
 C1579 C 0.84646 0.76613 0.24586
 C1580 C 0.87824 0.76731 0.22522
 C1581 C 0.90624 0.77149 0.25050
 C1582 C 0.90650 0.74795 0.27458
 C1583 C 0.88270 0.70832 0.23611
 C1584 C 0.88248 0.73179 0.21206
 H1585 H 0.82567 0.73856 0.28612
 H1586 H 0.82520 0.78169 0.24125
 H1587 H 0.92445 0.79112 0.24939
 H1588 H 0.92494 0.74746 0.29404
 H1589 H 0.88575 0.68228 0.23047
 H1590 H 0.88531 0.72547 0.18614
 C1591 C 0.62509 0.26877 0.77646
 C1592 C 0.59466 0.26965 0.75383
 C1593 C 0.59490 0.24607 0.72981
 C1594 C 0.62556 0.22365 0.73048
 C1595 C 0.65510 0.24745 0.72893
 C1596 C 0.65485 0.27102 0.75295
 C1597 C 0.62619 0.23309 0.78981
 C1598 C 0.62643 0.20956 0.76582
 H1599 H 0.57456 0.28722 0.75658
 H1600 H 0.57498 0.24350 0.71206
 H1601 H 0.67470 0.24570 0.71066
 H1602 H 0.67423 0.28941 0.75520
 H1603 H 0.62681 0.22668 0.81585
 H1604 H 0.62727 0.18341 0.77166
 C1605 C 0.77565 0.22707 0.87650
 C1606 C 0.75031 0.22226 0.90442
 C1607 C 0.72638 0.24595 0.90543
 C1608 C 0.72982 0.27238 0.87839
 C1609 C 0.76513 0.28594 0.88273
 C1610 C 0.78905 0.26228 0.88175
 C1611 C 0.75501 0.22947 0.84477
 C1612 C 0.73101 0.25302 0.84577
 H1613 H 0.75129 0.20211 0.92209
 H1614 H 0.70696 0.24600 0.92394
 H1615 H 0.77096 0.31182 0.88655
 H1616 H 0.81501 0.26825 0.88468
 H1617 H 0.75976 0.21485 0.82290
 H1618 H 0.71500 0.25810 0.82485
 C1619 C 0.27062 0.77698 0.62099
 C1620 C 0.27182 0.75417 0.65133
 C1621 C 0.24790 0.73056 0.65156
 C1622 C 0.22482 0.73179 0.62143
 C1623 C 0.21128 0.76736 0.62112
 C1624 C 0.23517 0.79094 0.62089
 C1625 C 0.27188 0.75362 0.59109
 C1626 C 0.24793 0.73000 0.59131
 H1627 H 0.28981 0.75654 0.67108
 H1628 H 0.24546 0.71278 0.67151
 H1629 H 0.18521 0.77365 0.62105
 H1630 H 0.22917 0.81708 0.62064
 H1631 H 0.28994 0.75561 0.57134
 H1632 H 0.24553 0.71181 0.57174
   
