data_POSCAR
  _audit_creation_date              2014-09-24
  _audit_creation_method            'ToBaCCo'
  _symmetry_space_group_name_H-M    'P1'
  _symmetry_Int_Tables_number       1
  _symmetry_cell_setting            triclinic
  loop_
  _symmetry_equiv_pos_as_xyz
 x,y,z
_cell_length_a 59.7892
_cell_length_b 58.9340
_cell_length_c 59.6251
_cell_angle_alpha 89.448800
_cell_angle_beta 89.253700
_cell_angle_gamma 88.832700
loop_
  _atom_site_label
  _atom_site_type_symbol
  _atom_site_fract_x
  _atom_site_fract_y
  _atom_site_fract_z
C1 C 0.74745 0.61146 1.03203
 C2 C 0.75844 0.62091 1.01332
 C3 C 0.77990 0.62979 1.01573
 C4 C 0.79014 0.62945 1.03676
 C5 C 0.77915 0.61976 1.05531
 C6 C 0.75787 0.61066 1.05293
 C7 C 0.74745 0.62137 0.99130
 C8 C 0.72621 0.63170 0.98891
 C9 C 0.71571 0.63199 0.96805
 C10 C 0.72620 0.62154 0.94961
 C11 C 0.74726 0.61101 0.95192
 C12 C 0.75797 0.61114 0.97267
 H13 H 0.73096 0.60441 1.03017
 H14 H 0.78836 0.63728 1.00135
 H15 H 0.71806 0.63978 1.00318
 H16 H 0.77426 0.60295 0.97445
 H17 H 0.78713 0.61934 1.07157
 H18 H 0.71802 0.62164 0.93348
 C19 C 0.74041 0.38816 0.47051
 C20 C 0.75120 0.37868 0.48927
 C21 C 0.77271 0.36892 0.48671
 C22 C 0.78320 0.36844 0.46556
 C23 C 0.77241 0.37814 0.44698
 C24 C 0.75107 0.38811 0.44947
 C25 C 0.74006 0.37921 0.51151
 C26 C 0.71858 0.37029 0.51449
 C27 C 0.70812 0.37074 0.53565
 C28 C 0.71888 0.38052 0.55378
 C29 C 0.74017 0.38963 0.55087
 C30 C 0.75083 0.38878 0.52984
 H31 H 0.72389 0.39592 0.47240
 H32 H 0.78108 0.36140 0.50108
 H33 H 0.71026 0.36264 0.50049
 H34 H 0.76732 0.39585 0.52763
 H35 H 0.78057 0.37792 0.43063
 H36 H 0.71077 0.38092 0.57016
 C37 C 0.24068 -0.11240 -0.02927
 C38 C 0.25130 -0.12237 -0.01065
 C39 C 0.27293 -0.13186 -0.01319
 C40 C 0.28373 -0.13158 -0.03420
 C41 C 0.27308 -0.12139 -0.05265
 C42 C 0.25162 -0.11171 -0.05016
 C43 C 0.23987 -0.12263 0.01147
 C44 C 0.21827 -0.13140 0.01381
 C45 C 0.20752 -0.13168 0.03486
 C46 C 0.21817 -0.12276 0.05353
 C47 C 0.23960 -0.11380 0.05124
 C48 C 0.25049 -0.11394 0.03031
 H49 H 0.22408 -0.10485 -0.02739
 H50 H 0.28113 -0.13975 0.00110
 H51 H 0.21007 -0.13835 -0.00064
 H52 H 0.26707 -0.10695 0.02860
 H53 H 0.28142 -0.12101 -0.06892
 H54 H 0.20988 -0.12285 0.06983
 C55 C 0.24838 0.10995 0.52873
 C56 C 0.25901 0.11980 0.51002
 C57 C 0.28014 0.12945 0.51241
 C58 C 0.29037 0.12948 0.53343
 C59 C 0.27975 0.11939 0.55197
 C60 C 0.25882 0.10954 0.54961
 C61 C 0.24793 0.12005 0.48806
 C62 C 0.22659 0.13014 0.48573
 C63 C 0.21604 0.13031 0.46489
 C64 C 0.22660 0.11995 0.44643
 C65 C 0.24777 0.10966 0.44871
 C66 C 0.25853 0.10993 0.46942
 H67 H 0.23212 0.10238 0.52696
 H68 H 0.28832 0.13734 0.49809
 H69 H 0.21839 0.13815 0.50001
 H70 H 0.27492 0.10194 0.47117
 H71 H 0.28767 0.11938 0.56823
 H72 H 0.21839 0.11996 0.43031
 C73 C 0.11813 0.52963 0.24838
 C74 C 0.12756 0.51064 0.25939
 C75 C 0.13675 0.51315 0.28077
 C76 C 0.13672 0.53450 0.29090
 C77 C 0.12708 0.55333 0.27991
 C78 C 0.11767 0.55088 0.25870
 C79 C 0.12746 0.48821 0.24861
 C80 C 0.13649 0.48540 0.22691
 C81 C 0.13606 0.46419 0.21656
 C82 C 0.12623 0.44580 0.22768
 C83 C 0.11701 0.44854 0.24921
 C84 C 0.11785 0.46963 0.25975
 H85 H 0.11077 0.52770 0.23199
 H86 H 0.14418 0.49859 0.28933
 H87 H 0.14406 0.49962 0.21824
 H88 H 0.11059 0.47175 0.27638
 H89 H 0.12689 0.56981 0.28788
 H90 H 0.12572 0.42942 0.21960
 C91 C -0.10635 -0.02748 0.24484
 C92 C -0.11599 -0.00853 0.25564
 C93 C -0.12539 -0.01111 0.27723
 C94 C -0.12534 -0.03248 0.28778
 C95 C -0.11551 -0.05125 0.27694
 C96 C -0.10594 -0.04873 0.25553
 C97 C -0.11635 0.01388 0.24429
 C98 C -0.12479 0.01626 0.22249
 C99 C -0.12525 0.03756 0.21180
 C100 C -0.11688 0.05648 0.22273
 C101 C -0.10827 0.05417 0.24438
 C102 C -0.10820 0.03298 0.25520
 H103 H -0.09895 -0.02562 0.22824
 H104 H -0.13313 0.00340 0.28553
 H105 H -0.13135 0.00163 0.21408
 H106 H -0.10147 0.03125 0.27195
 H107 H -0.11542 -0.06782 0.28504
 H108 H -0.11712 0.07298 0.21449
 C109 C 0.39376 0.47512 0.74650
 C110 C 0.38395 0.49413 0.75705
 C111 C 0.37434 0.49171 0.77857
 C112 C 0.37435 0.47044 0.78930
 C113 C 0.38437 0.45161 0.77873
 C114 C 0.39415 0.45396 0.75739
 C115 C 0.38372 0.51647 0.74557
 C116 C 0.37541 0.51877 0.72371
 C117 C 0.37505 0.54001 0.71295
 C118 C 0.38340 0.55896 0.72383
 C119 C 0.39190 0.55673 0.74553
 C120 C 0.39186 0.53559 0.75644
 H121 H 0.40133 0.47687 0.72997
 H122 H 0.36649 0.50628 0.78668
 H123 H 0.36883 0.50415 0.71530
 H124 H 0.39849 0.53392 0.77323
 H125 H 0.38444 0.43511 0.78698
 H126 H 0.38320 0.57539 0.71548
 C127 C 0.61958 1.02843 0.74765
 C128 C 0.62953 1.00950 0.75827
 C129 C 0.63900 1.01189 0.77954
 C130 C 0.63868 1.03312 0.78998
 C131 C 0.62848 1.05189 0.77936
 C132 C 0.61882 1.04951 0.75828
 C133 C 0.62943 0.98714 0.74734
 C134 C 0.63833 0.98444 0.72558
 C135 C 0.63787 0.96326 0.71516
 C136 C 0.62810 0.94483 0.72627
 C137 C 0.61901 0.94748 0.74785
 C138 C 0.61989 0.96852 0.75846
 H139 H 0.61195 1.02661 0.73138
 H140 H 0.64677 0.99731 0.78777
 H141 H 0.64583 0.99872 0.71693
 H142 H 0.61273 0.97056 0.77514
 H143 H 0.62795 1.06829 0.78749
 H144 H 0.62756 0.92847 0.71813
 C145 C -0.02989 0.24545 -0.10873
 C146 C -0.01187 0.25672 -0.11885
 C147 C -0.01534 0.27849 -0.12817
 C148 C -0.03670 0.28876 -0.12758
 C149 C -0.05454 0.27747 -0.11724
 C150 C -0.05112 0.25588 -0.10774
 C151 C 0.01057 0.24578 -0.11960
 C152 C 0.01359 0.22396 -0.12861
 C153 C 0.03495 0.21371 -0.12943
 C154 C 0.05328 0.22509 -0.12082
 C155 C 0.05033 0.24673 -0.11164
 C156 C 0.02907 0.25713 -0.11123
 H157 H -0.02731 0.22872 -0.10137
 H158 H -0.00153 0.28716 -0.13625
 H159 H -0.00061 0.21522 -0.13533
 H160 H 0.02685 0.27389 -0.10408
 H161 H -0.07110 0.28536 -0.11670
 H162 H 0.06984 0.21720 -0.12134
 C163 C 0.52742 0.24497 0.10691
 C164 C 0.50827 0.25618 0.11551
 C165 C 0.51023 0.27764 0.12528
 C166 C 0.53123 0.28764 0.12664
 C167 C 0.55021 0.27645 0.11781
 C168 C 0.54830 0.25519 0.10785
 C169 C 0.48629 0.24534 0.11435
 C170 C 0.48318 0.22371 0.12385
 C171 C 0.46230 0.21345 0.12278
 C172 C 0.44460 0.22458 0.11180
 C173 C 0.44766 0.24603 0.10210
 C174 C 0.46839 0.25651 0.10358
 H175 H 0.52599 0.22846 0.09924
 H176 H 0.49556 0.28628 0.13221
 H177 H 0.49686 0.21509 0.13239
 H178 H 0.47072 0.27315 0.09609
 H179 H 0.56646 0.28420 0.11881
 H180 H 0.42845 0.21661 0.11091
 C181 C 1.02841 0.74750 0.61083
 C182 C 1.00915 0.75831 0.61965
 C183 C 1.01079 0.77981 0.62944
 C184 C 1.03161 0.79023 0.63061
 C185 C 1.05072 0.77941 0.62153
 C186 C 1.04910 0.75812 0.61156
 C187 C 0.98739 0.74706 0.61864
 C188 C 0.98464 0.72553 0.62850
 C189 C 0.96398 0.71483 0.62748
 C190 C 0.94616 0.72539 0.61617
 C191 C 0.94888 0.74674 0.60611
 C192 C 0.96938 0.75767 0.60755
 H193 H 1.02721 0.73097 0.60315
 H194 H 0.99598 0.78810 0.63650
 H195 H 0.99843 0.71734 0.63726
 H196 H 0.97145 0.77421 0.59977
 H197 H 1.06686 0.78744 0.62233
 H198 H 0.93018 0.71708 0.61530
 C199 C 0.47095 0.74547 0.39098
 C200 C 0.48939 0.75611 0.38093
 C201 C 0.48665 0.77793 0.37152
 C202 C 0.46563 0.78887 0.37195
 C203 C 0.44737 0.77824 0.38221
 C204 C 0.45004 0.75660 0.39181
 C205 C 0.51148 0.74442 0.38025
 C206 C 0.51378 0.72252 0.37130
 C207 C 0.53480 0.71159 0.37047
 C208 C 0.55352 0.72232 0.37901
 C209 C 0.55129 0.74405 0.38815
 C210 C 0.53037 0.75516 0.38857
 H211 H 0.47296 0.72870 0.39841
 H212 H 0.50074 0.78614 0.36347
 H213 H 0.49933 0.71421 0.36459
 H214 H 0.52869 0.77199 0.39567
 H215 H 0.43110 0.78672 0.38258
 H216 H 0.56979 0.71384 0.37845
 C217 C 0.40522 -0.01823 0.27429
 H218 H 0.40548 -0.00073 0.27956
 C219 C 0.41767 -0.03480 0.28589
 H220 H 0.42779 -0.02987 0.29990
 C221 C 0.39098 -0.04608 0.25022
 H222 H 0.37998 -0.05064 0.23686
 C223 C 0.40322 -0.06311 0.26122
 H224 H 0.40146 -0.08054 0.25607
 N225 N 0.39207 -0.02414 0.25692
 C226 C 0.37545 0.03628 0.21731
 H227 H 0.35756 0.03398 0.21667
 C228 C 0.38499 0.05480 0.20646
 H229 H 0.37432 0.06657 0.19725
 C230 C 0.41096 0.02346 0.23001
 H231 H 0.42094 0.01119 0.23928
 C232 C 0.42127 0.04182 0.21930
 H233 H 0.43918 0.04368 0.22059
 Zn234 Zn 0.37262 -0.00196 0.24408
 N235 N 0.38837 0.02133 0.22914
 C236 C 0.35571 0.03345 0.27159
 N237 N 0.35510 0.01076 0.26771
 C238 C 0.34310 -0.00326 0.28130
 C239 C 0.33077 0.00552 0.29944
 C240 C 0.34362 0.04292 0.28945
 C241 C 0.36483 -0.02325 0.20358
 C242 C 0.35269 -0.03358 0.18683
 C243 C 0.31899 -0.02723 0.20887
 C244 C 0.33181 -0.01703 0.22526
 N245 N 0.35435 -0.01552 0.22247
 H246 H 0.36586 0.04427 0.26110
 H247 H 0.34322 -0.02129 0.27809
 H248 H 0.32115 -0.00586 0.30996
 H249 H 0.34463 0.06096 0.29243
 H250 H 0.38273 -0.02146 0.20163
 H251 H 0.36137 -0.03953 0.17189
 H252 H 0.30113 -0.02868 0.21154
 H253 H 0.32373 -0.01039 0.24019
 C254 C 0.40814 0.05798 0.20764
 C255 C 0.41655 -0.05764 0.27952
 C256 C 0.32947 -0.03583 0.18941
 C257 C 0.33092 0.02893 0.30367
 C258 C 0.09257 1.01967 0.77798
 H259 H 0.09070 1.00247 0.78413
 C260 C 0.08198 1.03772 0.78928
 H261 H 0.07193 1.03426 0.80411
 C262 C 0.10930 1.04522 0.75218
 H263 H 0.12048 1.04829 0.73818
 C264 C 0.09903 1.06366 0.76287
 H265 H 0.10202 1.08062 0.75651
 N266 N 0.10617 1.02374 0.75997
 C267 C 0.11848 0.96073 0.72369
 H268 H 0.13653 0.96165 0.72284
 C269 C 0.10780 0.94260 0.71396
 H270 H 0.11776 0.92970 0.70541
 C271 C 0.08370 0.97672 0.73573
 H272 H 0.07447 0.99009 0.74428
 C273 C 0.07225 0.95884 0.72603
 H274 H 0.05419 0.95843 0.72735
 Zn275 Zn 0.12384 0.99970 0.74777
 N276 N 0.10645 0.97707 0.73467
 C277 C 0.13835 0.96443 0.77698
 N278 N 0.14077 0.98671 0.77149
 C279 C 0.15420 1.00024 0.78356
 C280 C 0.16620 0.99132 0.80171
 C281 C 0.14998 0.95485 0.79496
 C282 C 0.13230 1.01874 0.70585
 C283 C 0.14463 1.02820 0.68824
 C284 C 0.17833 1.02106 0.70933
 C285 C 0.16531 1.01173 0.72660
 N286 N 0.14267 1.01115 0.72472
 H287 H 0.12719 0.95403 0.76764
 H288 H 0.15543 1.01803 0.77918
 H289 H 0.17662 1.00239 0.81127
 H290 H 0.14799 0.93701 0.79885
 H291 H 0.11430 1.01771 0.70467
 H292 H 0.13601 1.03421 0.67341
 H293 H 0.19627 1.02195 0.71132
 H294 H 0.17329 1.00520 0.74153
 C295 C 0.08442 0.94131 0.71530
 C296 C 0.08561 1.06011 0.78202
 C297 C 0.16795 1.02972 0.68995
 C298 C 0.16408 0.96833 0.80765
 C299 C 0.58985 0.51588 0.27746
 H300 H 0.58882 0.49846 0.28322
 C301 C 0.57788 0.53303 0.28874
 H302 H 0.56736 0.52865 0.30299
 C303 C 0.60552 0.54288 0.25244
 H304 H 0.61688 0.54685 0.23882
 C305 C 0.59379 0.56047 0.26310
 H306 H 0.59630 0.57776 0.25744
 N307 N 0.60347 0.52109 0.25978
 C308 C 0.61815 0.45939 0.22219
 H309 H 0.63616 0.46074 0.22154
 C310 C 0.60796 0.44128 0.21188
 H311 H 0.61827 0.42883 0.20311
 C312 C 0.58293 0.47431 0.23424
 H313 H 0.57332 0.48727 0.24299
 C314 C 0.57198 0.45643 0.22401
 H315 H 0.55393 0.45560 0.22516
 Zn316 Zn 0.62219 0.49803 0.24732
 N317 N 0.60565 0.47520 0.23343
 C318 C 0.63747 0.46252 0.27589
 N319 N 0.63912 0.48503 0.27101
 C320 C 0.65185 0.49874 0.28363
 C321 C 0.66390 0.48982 0.30173
 C322 C 0.64918 0.45292 0.29381
 C323 C 0.63086 0.51834 0.20596
 C324 C 0.64340 0.52788 0.18853
 C325 C 0.67684 0.52074 0.21003
 C326 C 0.66362 0.51128 0.22708
 N327 N 0.64103 0.51055 0.22486
 H328 H 0.62686 0.45195 0.26610
 H329 H 0.65250 0.51668 0.27970
 H330 H 0.67376 0.50103 0.31173
 H331 H 0.64782 0.43492 0.29721
 H332 H 0.61289 0.51731 0.20456
 H333 H 0.63489 0.53444 0.17385
 H334 H 0.69480 0.52113 0.21201
 H335 H 0.67146 0.50450 0.24199
 C336 C 0.58461 0.43944 0.21294
 C337 C 0.57998 0.55572 0.28171
 C338 C 0.66671 0.52926 0.19047
 C339 C 0.66258 0.46660 0.30705
 C340 C 0.90206 0.48121 0.77659
 H341 H 0.90325 0.49844 0.78248
 C342 C 0.91290 0.46344 0.78816
 H343 H 0.92245 0.46716 0.80293
 C344 C 0.88678 0.45522 0.75119
 H345 H 0.87606 0.45186 0.73724
 C346 C 0.89732 0.43706 0.76215
 H347 H 0.89501 0.42003 0.75605
 N348 N 0.88905 0.47677 0.75866
 C349 C 0.87555 0.53921 0.72092
 H350 H 0.85760 0.53754 0.71997
 C351 C 0.88582 0.55773 0.71083
 H352 H 0.87566 0.57015 0.70187
 C353 C 0.91048 0.52476 0.73366
 H354 H 0.91993 0.51185 0.74266
 C355 C 0.92152 0.54308 0.72365
 H356 H 0.93949 0.54428 0.72518
 Zn357 Zn 0.87090 0.50029 0.74616
 N358 N 0.88783 0.52344 0.73242
 C359 C 0.85481 0.53531 0.77456
 N360 N 0.85329 0.51287 0.76980
 C361 C 0.84035 0.49895 0.78259
 C362 C 0.82801 0.50760 0.80079
 C363 C 0.84274 0.54465 0.79250
 C364 C 0.86358 0.48112 0.70462
 C365 C 0.85175 0.47145 0.68727
 C366 C 0.81761 0.47737 0.70875
 C367 C 0.83014 0.48694 0.72576
 N368 N 0.85276 0.48826 0.72355
 H369 H 0.86571 0.54601 0.76475
 H370 H 0.83976 0.48107 0.77873
 H371 H 0.81766 0.49633 0.81068
 H372 H 0.84451 0.56247 0.79618
 H373 H 0.88153 0.48272 0.70318
 H374 H 0.86072 0.46585 0.67237
 H375 H 0.79969 0.47594 0.71099
 H376 H 0.82180 0.49309 0.74075
 C377 C 0.90905 0.56004 0.71238
 C378 C 0.91013 0.44095 0.78124
 C379 C 0.82847 0.46924 0.68930
 C380 C 0.82912 0.53077 0.80591
 C381 C 0.27718 0.41160 -0.02135
 H382 H 0.28276 0.41135 -0.00416
 C383 C 0.28884 0.42406 -0.03763
 H384 H 0.30319 0.43369 -0.03278
 C385 C 0.25227 0.39853 -0.04874
 H386 H 0.23855 0.38794 -0.05325
 C387 C 0.26333 0.41079 -0.06548
 H388 H 0.25786 0.40947 -0.08265
 N389 N 0.25939 0.39900 -0.02718
 C390 C 0.22051 0.38179 0.03268
 H391 H 0.21915 0.36384 0.02944
 C392 C 0.21056 0.39104 0.05182
 H393 H 0.20128 0.38012 0.06313
 C394 C 0.23433 0.41769 0.02169
 H395 H 0.24375 0.42791 0.00992
 C396 C 0.22454 0.42772 0.04073
 H397 H 0.22666 0.44565 0.04361
 Zn398 Zn 0.24660 0.37921 -0.00557
 N399 N 0.23251 0.39500 0.01834
 C400 C 0.27419 0.36065 0.02835
 N401 N 0.27001 0.36054 0.00598
 C402 C 0.28311 0.34819 -0.00842
 C403 C 0.30102 0.33497 -0.00036
 C404 C 0.29182 0.34767 0.03710
 C405 C 0.20551 0.37280 -0.02569
 C406 C 0.18805 0.36103 -0.03519
 C407 C 0.20948 0.32617 -0.03028
 C408 C 0.22657 0.33864 -0.02083
 N409 N 0.22436 0.36156 -0.01892
 H410 H 0.26413 0.37108 0.03949
 H411 H 0.27968 0.34871 -0.02619
 H412 H 0.31116 0.32508 -0.01201
 H413 H 0.29502 0.34829 0.05491
 H414 H 0.20411 0.39101 -0.02372
 H415 H 0.17335 0.37038 -0.04079
 H416 H 0.21140 0.30792 -0.03147
 H417 H 0.24144 0.32995 -0.01487
 C418 C 0.21285 0.41419 0.05630
 C419 C 0.28210 0.42349 -0.06010
 C420 C 0.18989 0.33739 -0.03758
 C421 C 0.30550 0.33458 0.02272
 C422 C 0.78343 0.08992 1.01879
 H423 H 0.78940 0.08940 1.00159
 C424 C 0.79518 0.07817 1.03556
 H425 H 0.81003 0.06831 1.03111
 C426 C 0.75737 0.10422 1.04566
 H427 H 0.74314 0.11501 1.04978
 C428 C 0.76846 0.09265 1.06285
 H429 H 0.76250 0.09470 1.07996
 N430 N 0.76500 0.10279 1.02412
 C431 C 0.72528 0.11700 0.96473
 H432 H 0.72365 0.13518 0.96677
 C433 C 0.71425 0.10650 0.94736
 H434 H 0.70435 0.11679 0.93591
 C435 C 0.74060 0.08170 0.97709
 H436 H 0.75076 0.07216 0.98887
 C437 C 0.72993 0.07046 0.95975
 H438 H 0.73193 0.05223 0.95828
 Zn439 Zn 0.75168 0.12156 1.00181
 N440 N 0.73822 0.10461 0.97908
 C441 C 0.77859 0.13914 0.96661
 N442 N 0.77438 0.13974 0.98907
 C443 C 0.78694 0.15239 1.00289
 C444 C 0.80435 0.16540 0.99416
 C445 C 0.79578 0.15189 0.95718
 C446 C 0.71016 0.12881 1.02227
 C447 C 0.69232 0.14087 1.03203
 C448 C 0.71252 0.17551 1.02577
 C449 C 0.73003 0.16274 1.01613
 N450 N 0.72865 0.13978 1.01484
 H451 H 0.76886 0.12854 0.95595
 H452 H 0.78344 0.15229 1.02074
 H453 H 0.81401 0.17556 1.00538
 H454 H 0.79906 0.15090 0.93931
 H455 H 0.70935 0.11057 1.02064
 H456 H 0.67771 0.13180 1.03772
 H457 H 0.71404 0.19373 1.02703
 H458 H 0.74468 0.17120 1.00974
 C459 C 0.71649 0.08294 0.94467
 C460 C 0.78781 0.07967 1.05798
 C461 C 0.69341 0.16454 1.03400
 C462 C 0.80893 0.16526 0.97099
 C463 C 0.28311 0.59374 0.51916
 H464 H 0.28897 0.59318 0.50193
 C465 C 0.29488 0.58189 0.53586
 H466 H 0.30963 0.57192 0.53131
 C467 C 0.25729 0.60818 0.54620
 H468 H 0.24315 0.61905 0.55040
 C469 C 0.26840 0.59652 0.56331
 H470 H 0.26254 0.59857 0.58045
 N471 N 0.26478 0.60670 0.52461
 C472 C 0.22474 0.62071 0.46537
 H473 H 0.22320 0.63892 0.46724
 C474 C 0.21358 0.61008 0.44817
 H475 H 0.20368 0.62029 0.43666
 C476 C 0.23994 0.58547 0.47803
 H477 H 0.25010 0.57600 0.48987
 C478 C 0.22914 0.57410 0.46087
 H479 H 0.23103 0.55584 0.45962
 Zn480 Zn 0.25133 0.62545 0.50234
 N481 N 0.23769 0.60841 0.47979
 C482 C 0.27809 0.64287 0.46692
 N483 N 0.27399 0.64355 0.48940
 C484 C 0.28667 0.65619 0.50311
 C485 C 0.30410 0.66909 0.49425
 C486 C 0.29530 0.65550 0.45737
 C487 C 0.20998 0.63279 0.52310
 C488 C 0.19230 0.64487 0.53312
 C489 C 0.21252 0.67947 0.52673
 C490 C 0.22988 0.66669 0.51684
 N491 N 0.22843 0.64373 0.51551
 H492 H 0.26825 0.63227 0.45635
 H493 H 0.28327 0.65616 0.52098
 H494 H 0.31388 0.67922 0.50540
 H495 H 0.29849 0.65443 0.43949
 H496 H 0.20912 0.61456 0.52145
 H497 H 0.17774 0.63581 0.53897
 H498 H 0.21411 0.69768 0.52805
 H499 H 0.24449 0.67513 0.51032
 C500 C 0.21569 0.58647 0.44572
 C501 C 0.28763 0.58339 0.55832
 C502 C 0.19348 0.66852 0.53518
 C503 C 0.30859 0.66884 0.47107
 C504 C 0.77861 0.90821 0.47771
 H505 H 0.78417 0.90821 0.49491
 C506 C 0.79021 0.92055 0.46130
 H507 H 0.80449 0.93035 0.46605
 C508 C 0.75381 0.89467 0.45045
 H509 H 0.74014 0.88396 0.44606
 C510 C 0.76480 0.90681 0.43359
 H511 H 0.75934 0.90528 0.41644
 N512 N 0.76088 0.89545 0.47201
 C513 C 0.72160 0.87917 0.53187
 H514 H 0.72018 0.86119 0.52885
 C515 C 0.71161 0.88869 0.55087
 H516 H 0.70222 0.87795 0.56225
 C517 C 0.73567 0.91487 0.52055
 H518 H 0.74522 0.92490 0.50872
 C519 C 0.72585 0.92517 0.53944
 H520 H 0.72807 0.94312 0.54213
 Zn521 Zn 0.74801 0.87597 0.49388
 N522 N 0.73375 0.89215 0.51745
 C523 C 0.77534 0.85807 0.52830
 N524 N 0.77138 0.85755 0.50590
 C525 C 0.78463 0.84497 0.49185
 C526 C 0.80249 0.83194 0.50030
 C527 C 0.79290 0.84529 0.53744
 C528 C 0.70704 0.86918 0.47371
 C529 C 0.68964 0.85725 0.46430
 C530 C 0.71113 0.82250 0.46969
 C531 C 0.72815 0.83513 0.47904
 N532 N 0.72589 0.85807 0.48068
 H533 H 0.76516 0.86868 0.53917
 H534 H 0.78137 0.84516 0.47404
 H535 H 0.81276 0.82186 0.48892
 H536 H 0.79593 0.84624 0.55527
 H537 H 0.70560 0.88741 0.47546
 H538 H 0.67494 0.86649 0.45853
 H539 H 0.71309 0.80423 0.46872
 H540 H 0.74303 0.82654 0.48515
 C541 C 0.71402 0.91189 0.55511
 C542 C 0.78347 0.91972 0.43883
 C543 C 0.69154 0.83358 0.46220
 C544 C 0.80675 0.83197 0.52342
 C545 C -0.01962 0.28113 0.40985
 H546 H -0.00351 0.28902 0.40943
 C547 C -0.03734 0.29158 0.42158
 H548 H -0.03455 0.30733 0.43021
 C549 C -0.04297 0.25128 0.39907
 H550 H -0.04520 0.23561 0.39022
 C551 C -0.06112 0.26112 0.41059
 H552 H -0.07721 0.25306 0.41002
 N553 N -0.02287 0.26171 0.39827
 C554 C 0.04270 0.23216 0.38248
 H555 H 0.04285 0.23556 0.36462
 C556 C 0.06159 0.22270 0.39262
 H557 H 0.07618 0.21864 0.38237
 C558 C 0.02316 0.23301 0.41734
 H559 H 0.00810 0.23716 0.42679
 C560 C 0.04174 0.22334 0.42820
 H561 H 0.04094 0.22020 0.44611
 Zn562 Zn -0.00004 0.25010 0.37868
 N563 N 0.02402 0.23709 0.39485
 C564 C 0.02597 0.28830 0.37191
 N565 N 0.01206 0.27415 0.36118
 C566 C 0.00841 0.27642 0.33877
 C567 C 0.01859 0.29377 0.32643
 C568 C 0.03650 0.30579 0.36025
 C569 C -0.00406 0.20598 0.36108
 C570 C -0.01362 0.18889 0.34858
 C571 C -0.04016 0.21653 0.33398
 C572 C -0.03007 0.23312 0.34679
 N573 N -0.01236 0.22762 0.36003
 H574 H 0.02938 0.28567 0.38951
 H575 H -0.00209 0.26466 0.33029
 H576 H 0.01571 0.29515 0.30858
 H577 H 0.04734 0.31694 0.36923
 H578 H 0.00978 0.20177 0.37191
 H579 H -0.00668 0.17180 0.34962
 H580 H -0.05455 0.22114 0.32395
 H581 H -0.03672 0.25033 0.34660
 C582 C 0.06131 0.21819 0.41577
 C583 C -0.05861 0.28188 0.42155
 C584 C -0.03204 0.19401 0.33493
 C585 C 0.03292 0.30868 0.33718
 C586 C 1.01668 0.77700 0.09169
 H587 H 0.99948 0.78303 0.09122
 C588 C 1.03319 0.78841 0.07944
 H589 H 1.02853 0.80304 0.06928
 C590 C 1.04383 0.75118 0.10622
 H591 H 1.04814 0.73719 0.11725
 C592 C 1.06077 0.76194 0.09419
 H593 H 1.07789 0.75598 0.09613
 N594 N 1.02228 0.75885 0.10488
 C595 C 0.96311 0.71939 0.12049
 H596 H 0.96500 0.71852 0.13851
 C597 C 0.94585 0.70789 0.11041
 H598 H 0.93432 0.69842 0.12085
 C599 C 0.97578 0.73322 0.08519
 H600 H 0.98764 0.74296 0.07547
 C601 C 0.95858 0.72203 0.07437
 H602 H 0.95733 0.72322 0.05629
 Zn603 Zn 1.00024 0.74610 0.12406
 N604 N 0.97755 0.73184 0.10789
 C605 C 0.96518 0.77420 0.14130
 N606 N 0.98761 0.76989 0.14153
 C607 C 1.00154 0.78306 0.15340
 C608 C 0.99297 0.80118 0.16601
 C609 C 0.95590 0.79211 0.15369
 C610 C 1.02104 0.70424 0.13234
 C611 C 1.03115 0.68677 0.14474
 C612 C 1.02518 0.70891 0.17826
 C613 C 1.01513 0.72599 0.16519
 N614 N 1.01355 0.72349 0.14262
 H615 H 0.95441 0.76396 0.13132
 H616 H 1.01936 0.77946 0.15302
 H617 H 1.00430 0.81129 0.17558
 H618 H 0.93804 0.79543 0.15303
 H619 H 1.01934 0.70261 0.11438
 H620 H 1.03746 0.67182 0.13613
 H621 H 1.02625 0.71113 0.19621
 H622 H 1.00861 0.74117 0.17313
 C623 C 0.94338 0.70912 0.08706
 C624 C 1.05562 0.78101 0.08081
 C625 C 1.03342 0.68901 0.16801
 C626 C 0.96984 0.80587 0.16628
 C627 C 0.51746 0.27769 0.59594
 H628 H 0.50049 0.28423 0.59467
 C629 C 0.53495 0.28896 0.58503
 H630 H 0.53128 0.30418 0.57534
 C631 C 0.54308 0.25089 0.61152
 H632 H 0.54641 0.23651 0.62238
 C633 C 0.56096 0.26154 0.60090
 H634 H 0.57774 0.25477 0.60330
 N635 N 0.52185 0.25921 0.60915
 C636 C 0.46009 0.22308 0.62273
 H637 H 0.46148 0.22212 0.64079
 C638 C 0.44205 0.21328 0.61226
 H639 H 0.42968 0.20458 0.62240
 C640 C 0.47489 0.23535 0.58768
 H641 H 0.48779 0.24398 0.57826
 C642 C 0.45707 0.22562 0.57645
 H643 H 0.45623 0.22702 0.55836
 Zn644 Zn 0.49872 0.24712 0.62741
 N645 N 0.47584 0.23417 0.61046
 C646 C 0.46443 0.27676 0.64368
 N647 N 0.48659 0.27122 0.64486
 C648 C 0.50062 0.28341 0.65762
 C649 C 0.49237 0.30165 0.67028
 C650 C 0.45549 0.29481 0.65607
 C651 C 0.51764 0.20439 0.63552
 C652 C 0.52735 0.18657 0.64777
 C653 C 0.52173 0.20846 0.68151
 C654 C 0.51207 0.22588 0.66859
 N655 N 0.51061 0.22371 0.64596
 H656 H 0.45363 0.26741 0.63292
 H657 H 0.51825 0.27892 0.65794
 H658 H 0.50374 0.31096 0.68059
 H659 H 0.43786 0.29908 0.65467
 H660 H 0.51607 0.20305 0.61753
 H661 H 0.53345 0.17163 0.63900
 H662 H 0.52287 0.21049 0.69948
 H663 H 0.50591 0.24113 0.67666
 C664 C 0.44021 0.21469 0.58885
 C665 C 0.55711 0.28118 0.58791
 C666 C 0.52971 0.18856 0.67106
 C667 C 0.46949 0.30750 0.66966
 C668 C 0.48071 0.78385 0.91056
 H669 H 0.49663 0.79208 0.90962
 C670 C 0.46292 0.79433 0.92215
 H671 H 0.46548 0.81046 0.93017
 C672 C 0.45785 0.75311 0.90113
 H673 H 0.45585 0.73708 0.89284
 C674 C 0.43964 0.76298 0.91253
 H675 H 0.42372 0.75456 0.91245
 N676 N 0.47772 0.76393 0.89973
 C677 C 0.54314 0.73383 0.88436
 H678 H 0.54336 0.73701 0.86646
 C679 C 0.56195 0.72441 0.89467
 H680 H 0.57655 0.72014 0.88451
 C681 C 0.52352 0.73524 0.91916
 H682 H 0.50845 0.73961 0.92852
 C683 C 0.54202 0.72563 0.93019
 H684 H 0.54116 0.72273 0.94814
 Zn685 Zn 0.50051 0.75202 0.88030
 N686 N 0.52445 0.73902 0.89662
 C687 C 0.52678 0.78998 0.87300
 N688 N 0.51276 0.77575 0.86250
 C689 C 0.50916 0.77765 0.84006
 C690 C 0.51950 0.79467 0.82743
 C691 C 0.53748 0.80716 0.86104
 C692 C 0.49630 0.70783 0.86282
 C693 C 0.48664 0.69080 0.85031
 C694 C 0.46005 0.71852 0.83596
 C695 C 0.47022 0.73505 0.84876
 N696 N 0.48803 0.72949 0.86185
 H697 H 0.53013 0.78764 0.89065
 H698 H 0.49858 0.76582 0.83178
 H699 H 0.51667 0.79574 0.80955
 H700 H 0.54842 0.81838 0.86982
 H701 H 0.51021 0.70358 0.87354
 H702 H 0.49358 0.67370 0.85124
 H703 H 0.44562 0.72319 0.82601
 H704 H 0.46362 0.75227 0.84864
 C705 C 0.56159 0.72021 0.91787
 C706 C 0.44187 0.78417 0.92274
 C707 C 0.46817 0.69600 0.83676
 C708 C 0.53396 0.80965 0.83792
 C709 C 0.43533 -0.09436 0.32864
 C710 C 0.44447 -0.11331 0.31760
 C711 C 0.44602 -0.11330 0.29416
 C712 C 0.43778 -0.09477 0.28177
 C713 C 0.46251 -0.18937 0.36113
 C714 C 0.42710 -0.07577 0.31628
 C715 C 0.45064 -0.13345 0.33011
 C716 C 0.45503 -0.15074 0.34024
 C717 C 0.45938 -0.17141 0.35170
 C718 C 0.42782 -0.07598 0.29268
 H719 H 0.43391 -0.09425 0.34678
 H720 H 0.45304 -0.12789 0.28543
 H721 H 0.43880 -0.09531 0.26364
 H722 H 0.41928 -0.06170 0.32515
 C723 C 0.94898 0.40326 0.81617
 C724 C 0.93583 0.38406 0.81936
 C725 C 0.91439 0.38363 0.81034
 C726 C 0.90612 0.40215 0.79805
 C727 C 0.95956 0.30928 0.86225
 C728 C 0.94069 0.42192 0.80385
 C729 C 0.94404 0.36454 0.83168
 C730 C 0.94986 0.34757 0.84165
 C731 C 0.95555 0.32713 0.85294
 C732 C 0.91920 0.42147 0.79452
 H733 H 0.96563 0.40377 0.82308
 H734 H 0.90402 0.36892 0.81279
 H735 H 0.88934 0.40144 0.79152
 H736 H 0.95118 0.43651 0.80133
 C737 C 0.04695 1.09889 0.81629
 C738 C 0.06061 1.11765 0.81920
 C739 C 0.08232 1.11743 0.81021
 C740 C 0.09036 1.09869 0.79824
 C741 C 0.03820 1.19309 0.86077
 C742 C 0.05501 1.08002 0.80428
 C743 C 0.05266 1.13739 0.83118
 C744 C 0.04712 1.15451 0.84086
 C745 C 0.04182 1.17512 0.85178
 C746 C 0.07678 1.07982 0.79498
 H747 H 0.03010 1.09889 0.82318
 H748 H 0.09308 1.13179 0.81245
 H749 H 0.10735 1.09889 0.79172
 H750 H 0.04415 1.06578 0.80197
 C751 C 0.56184 0.59358 0.32999
 C752 C 0.55356 0.61274 0.31851
 C753 C 0.55238 0.61257 0.29509
 C754 C 0.56012 0.59364 0.28313
 C755 C 0.53741 0.68968 0.36017
 C756 C 0.56957 0.57459 0.31806
 C757 C 0.54790 0.63318 0.33052
 C758 C 0.54394 0.65069 0.34023
 C759 C 0.54010 0.67157 0.35118
 C760 C 0.56922 0.57461 0.29446
 H761 H 0.56297 0.59358 0.34811
 H762 H 0.54603 0.62731 0.28602
 H763 H 0.55941 0.59404 0.26499
 H764 H 0.57673 0.56033 0.32724
 C765 C 0.57442 0.37930 0.19451
 C766 C 0.55547 0.38219 0.18120
 C767 C 0.54531 0.40372 0.17904
 C768 C 0.55439 0.42238 0.18983
 C769 C 0.53372 0.30894 0.13786
 C770 C 0.58352 0.39786 0.20521
 C771 C 0.54738 0.36306 0.16911
 C772 C 0.54189 0.34646 0.15908
 C773 C 0.53687 0.32644 0.14752
 C774 C 0.57382 0.41966 0.20273
 H775 H 0.58240 0.36272 0.19634
 H776 H 0.53067 0.40616 0.16871
 H777 H 0.54666 0.43900 0.18753
 H778 H 0.59827 0.39518 0.21533
 C779 C 0.04474 0.90562 0.68185
 C780 C 0.05447 0.88396 0.68461
 C781 C 0.07308 0.88098 0.69837
 C782 C 0.08236 0.89958 0.70882
 C783 C 0.03366 0.81043 0.64126
 C784 C 0.05398 0.92433 0.69242
 C785 C 0.04647 0.86478 0.67253
 C786 C 0.04117 0.84810 0.66249
 C787 C 0.03648 0.82800 0.65092
 C788 C 0.07317 0.92152 0.70566
 H789 H 0.03037 0.90812 0.67117
 H790 H 0.08074 0.86431 0.70066
 H791 H 0.09692 0.89686 0.71920
 H792 H 0.04666 0.94105 0.68961
 C793 C 0.91858 0.62088 0.69442
 C794 C 0.93810 0.61876 0.68138
 C795 C 0.94887 0.59753 0.67930
 C796 C 0.93983 0.57839 0.68988
 C797 C 0.96068 0.69336 0.63864
 C798 C 0.90952 0.60185 0.70491
 C799 C 0.94622 0.63838 0.66949
 C800 C 0.95181 0.65533 0.65961
 C801 C 0.95710 0.67566 0.64820
 C802 C 0.91983 0.58033 0.70249
 H803 H 0.91014 0.63722 0.69620
 H804 H 0.96397 0.59569 0.66918
 H805 H 0.94804 0.56201 0.68764
 H806 H 0.89432 0.60393 0.71481
 C807 C 0.41580 0.11869 0.18810
 C808 C 0.43568 0.11695 0.17557
 C809 C 0.44710 0.09601 0.17410
 C810 C 0.43844 0.07680 0.18487
 C811 C 0.45865 0.19188 0.13362
 C812 C 0.40712 0.09957 0.19880
 C813 C 0.44371 0.13668 0.16382
 C814 C 0.44935 0.15370 0.15410
 C815 C 0.45483 0.17411 0.14294
 C816 C 0.41819 0.07835 0.19710
 H817 H 0.40686 0.13481 0.18942
 H818 H 0.46249 0.09447 0.16439
 H819 H 0.44724 0.06066 0.18317
 H820 H 0.39171 0.10139 0.20842
 C821 C 0.33127 0.44094 -0.09675
 C822 C 0.32034 0.45082 -0.11514
 C823 C 0.29701 0.45332 -0.11476
 C824 C 0.28459 0.44529 -0.09643
 C825 C 0.36396 0.46781 -0.19038
 C826 C 0.31887 0.43292 -0.07836
 C827 C 0.33282 0.45675 -0.13509
 C828 C 0.34296 0.46092 -0.15220
 C829 C 0.35446 0.46497 -0.17264
 C830 C 0.29536 0.43458 -0.07821
 H831 H 0.34931 0.43879 -0.09692
 H832 H 0.28837 0.46091 -0.12892
 H833 H 0.26653 0.44704 -0.09668
 H834 H 0.32763 0.42451 -0.06474
 C835 C 0.83238 0.93750 0.40199
 C836 C 0.82132 0.94719 0.38358
 C837 C 0.79797 0.94942 0.38399
 C838 C 0.78568 0.94132 0.40238
 C839 C 0.86443 0.96473 0.30816
 C840 C 0.82011 0.92941 0.42043
 C841 C 0.83369 0.95325 0.36359
 C842 C 0.84372 0.95754 0.34645
 C843 C 0.85507 0.96175 0.32596
 C844 C 0.79659 0.93081 0.42062
 H845 H 0.85044 0.93556 0.40179
 H846 H 0.78922 0.95686 0.36983
 H847 H 0.76760 0.94287 0.40216
 H848 H 0.82899 0.92116 0.43407
 C849 C 0.80195 0.05190 1.11375
 C850 C 0.82513 0.05459 1.11434
 C851 C 0.83635 0.06380 1.09573
 C852 C 0.82433 0.07103 1.07690
 C853 C 0.86553 0.04002 1.19110
 C854 C 0.78991 0.05914 1.09498
 C855 C 0.83702 0.04951 1.13469
 C856 C 0.84647 0.04597 1.15216
 C857 C 0.85699 0.04252 1.17301
 C858 C 0.80090 0.06923 1.07654
 H859 H 0.79309 0.04480 1.12806
 H860 H 0.85428 0.06609 1.09606
 H861 H 0.83322 0.07897 1.06308
 H862 H 0.77192 0.05730 1.09508
 C863 C 0.30174 0.55521 0.61390
 C864 C 0.32495 0.55767 0.61441
 C865 C 0.33618 0.56688 0.59581
 C866 C 0.32415 0.57432 0.57706
 C867 C 0.36538 0.54258 0.69105
 C868 C 0.28969 0.56267 0.59521
 C869 C 0.33686 0.55239 0.63470
 C870 C 0.34633 0.54871 0.65213
 C871 C 0.35685 0.54513 0.67297
 C872 C 0.30070 0.57276 0.57678
 H873 H 0.29287 0.54812 0.62820
 H874 H 0.35414 0.56899 0.59608
 H875 H 0.33307 0.58225 0.56324
 H876 H 0.27168 0.56101 0.59537
 C877 C 0.20511 0.54988 0.39506
 C878 C 0.18353 0.55726 0.38921
 C879 C 0.17199 0.57301 0.40268
 C880 C 0.18219 0.58189 0.42151
 C881 C 0.14684 0.53735 0.31245
 C882 C 0.21535 0.55872 0.41398
 C883 C 0.17370 0.55008 0.36861
 C884 C 0.16530 0.54514 0.35109
 C885 C 0.15535 0.54048 0.33034
 C886 C 0.20414 0.57518 0.42713
 H887 H 0.21424 0.53778 0.38468
 H888 H 0.15529 0.57885 0.39832
 H889 H 0.17304 0.59430 0.43151
 H890 H 0.23232 0.55338 0.41780
 C891 C 0.67307 0.06984 0.90124
 C892 C 0.68479 0.05443 0.88755
 C893 C 0.70639 0.04709 0.89338
 C894 C 0.71648 0.05567 0.91251
 C895 C 0.64834 0.03567 0.81035
 C896 C 0.68312 0.07846 0.92028
 C897 C 0.67511 0.04757 0.86676
 C898 C 0.66679 0.04291 0.84913
 C899 C 0.65688 0.03857 0.82828
 C900 C 0.70509 0.07182 0.92588
 H901 H 0.65635 0.07564 0.89690
 H902 H 0.71566 0.03525 0.88282
 H903 H 0.73347 0.05040 0.91633
 H904 H 0.67384 0.09064 0.93044
 C905 C 0.69731 0.91793 0.61624
 C906 C 0.68566 0.93874 0.61614
 C907 C 0.68388 0.95131 0.59616
 C908 C 0.69347 0.94288 0.57626
 C909 C 0.64777 0.96016 0.69323
 C910 C 0.70681 0.90948 0.59646
 C911 C 0.67507 0.94650 0.63656
 C912 C 0.66631 0.95181 0.65412
 C913 C 0.65623 0.95680 0.67508
 C914 C 0.70477 0.92170 0.57618
 H915 H 0.69886 0.90809 0.63161
 H916 H 0.67485 0.96743 0.59589
 H917 H 0.69155 0.95259 0.56087
 H918 H 0.71577 0.89333 0.59701
 C919 C 0.18243 0.45300 0.09771
 C920 C 0.18428 0.44024 0.11757
 C921 C 0.19608 0.41952 0.11749
 C922 C 0.20566 0.41133 0.09763
 C923 C 0.14605 0.46104 0.19469
 C924 C 0.19209 0.44483 0.07774
 C925 C 0.17360 0.44773 0.13805
 C926 C 0.16477 0.45287 0.15561
 C927 C 0.15459 0.45772 0.17656
 C928 C 0.20355 0.42374 0.07747
 H929 H 0.17328 0.46905 0.09759
 H930 H 0.19769 0.40954 0.13277
 H931 H 0.21473 0.39524 0.09803
 H932 H 0.19011 0.45468 0.06244
 C933 C -0.10062 0.32885 0.43573
 C934 C -0.11774 0.31667 0.44619
 C935 C -0.11499 0.29328 0.44983
 C936 C -0.09543 0.28202 0.44252
 C937 C -0.19515 0.35759 0.46273
 C938 C -0.08106 0.31764 0.42842
 C939 C -0.13863 0.32794 0.45187
 C940 C -0.15630 0.33737 0.45590
 C941 C -0.17718 0.34833 0.45988
 C942 C -0.07837 0.29402 0.43142
 H943 H -0.10262 0.34693 0.43269
 H944 H -0.12815 0.28367 0.45789
 H945 H -0.09378 0.26388 0.44531
 H946 H -0.06844 0.32733 0.41963
 C947 C 0.39907 0.83073 0.93585
 C948 C 0.38234 0.81855 0.94695
 C949 C 0.38562 0.79536 0.95137
 C950 C 0.40532 0.78426 0.94419
 C951 C 0.30434 0.85843 0.96312
 C952 C 0.41876 0.81969 0.92867
 C953 C 0.36130 0.82957 0.95252
 C954 C 0.34349 0.83876 0.95646
 C955 C 0.32246 0.84944 0.96034
 C956 C 0.42198 0.79624 0.93245
 H957 H 0.39665 0.84866 0.93221
 H958 H 0.37277 0.78575 0.95994
 H959 H 0.40739 0.76626 0.94758
 H960 H 0.43106 0.82934 0.91938
 C961 C 1.09259 0.82960 0.06272
 C962 C 1.11117 0.81784 0.05374
 C963 C 1.11080 0.79420 0.05199
 C964 C 1.09230 0.78226 0.05990
 C965 C 1.18705 0.85878 0.03738
 C966 C 1.07403 0.81769 0.07063
 C967 C 1.13127 0.82974 0.04799
 C968 C 1.14854 0.83929 0.04398
 C969 C 1.16915 0.85001 0.04009
 C970 C 1.07390 0.79384 0.06975
 H971 H 1.09275 0.84789 0.06430
 H972 H 1.12509 0.78491 0.04509
 H973 H 1.09257 0.76393 0.05877
 H974 H 1.06025 0.82705 0.07836
 C975 C 0.59417 0.31607 0.54895
 C976 C 0.61313 0.31849 0.56222
 C977 C 0.61362 0.30893 0.58376
 C978 C 0.59539 0.29690 0.59201
 C979 C 0.68674 0.36038 0.53914
 C980 C 0.57580 0.30401 0.55723
 C981 C 0.63232 0.33058 0.55407
 C982 C 0.64902 0.34034 0.54837
 C983 C 0.66915 0.35134 0.54290
 C984 C 0.57631 0.29415 0.57882
 H985 H 0.59362 0.32341 0.53224
 H986 H 0.62815 0.31079 0.59422
 H987 H 0.59614 0.28995 0.60887
 H988 H 0.56138 0.30209 0.54666
 C989 C 0.40469 0.18126 0.54895
 C990 C 0.38351 0.18371 0.55907
 C991 C 0.38077 0.19716 0.57814
 C992 C 0.39914 0.20767 0.58742
 C993 C 0.31130 0.14065 0.53641
 C994 C 0.42315 0.19186 0.55820
 C995 C 0.36459 0.17173 0.55083
 C996 C 0.34821 0.16176 0.54516
 C997 C 0.32851 0.15026 0.53988
 C998 C 0.42060 0.20486 0.57778
 H999 H 0.40700 0.17082 0.53421
 H1000 H 0.36446 0.19922 0.58609
 H1001 H 0.39659 0.21787 0.60228
 H1002 H 0.43951 0.18930 0.55052
 C1003 C 0.89303 0.69749 0.05108
 C1004 C 0.88698 0.67600 0.05903
 C1005 C 0.90016 0.66483 0.07508
 C1006 C 0.91891 0.67533 0.08365
 C1007 C 0.81053 0.63893 0.03944
 C1008 C 0.91186 0.70802 0.05960
 C1009 C 0.86650 0.66594 0.05201
 C1010 C 0.84908 0.65743 0.04714
 C1011 C 0.82840 0.64742 0.04253
 C1012 C 0.92475 0.69720 0.07631
 H1013 H 0.88287 0.70634 0.03874
 H1014 H 0.89564 0.64821 0.08137
 H1015 H 0.92870 0.66645 0.09626
 H1016 H 0.91584 0.72494 0.05377
 C1017 C 0.59858 0.68099 0.95291
 C1018 C 0.61991 0.68785 0.94603
 C1019 C 0.62209 0.70617 0.93113
 C1020 C 0.60309 0.71716 0.92259
 C1021 C 0.69444 0.64351 0.96527
 C1022 C 0.57948 0.69204 0.94441
 C1023 C 0.63964 0.67543 0.95299
 C1024 C 0.65660 0.66517 0.95776
 C1025 C 0.67686 0.65337 0.96224
 C1026 C 0.58158 0.70995 0.92880
 H1027 H 0.59670 0.66676 0.96437
 H1028 H 0.63850 0.71165 0.92571
 H1029 H 0.60521 0.73111 0.91084
 H1030 H 0.56313 0.68603 0.94935
 C1031 C 0.12190 0.20423 0.42869
 C1032 C 0.11984 0.18571 0.44337
 C1033 C 0.09856 0.17866 0.45021
 C1034 C 0.07940 0.18974 0.44190
 C1035 C 0.19468 0.14165 0.46215
 C1036 C 0.10283 0.21524 0.42033
 C1037 C 0.13966 0.17331 0.45016
 C1038 C 0.15668 0.16310 0.45481
 C1039 C 0.17702 0.15140 0.45919
 C1040 C 0.08137 0.20787 0.42651
 H1041 H 0.13827 0.20985 0.42330
 H1042 H 0.09678 0.16429 0.46150
 H1043 H 0.06309 0.18360 0.44680
 H1044 H 0.10486 0.22935 0.40877
 C1045 C 0.54836 0.12995 0.69102
 C1046 C 0.56367 0.13527 0.70762
 C1047 C 0.56741 0.15799 0.71277
 C1048 C 0.55607 0.17535 0.70115
 C1049 C 0.60751 0.06850 0.74777
 C1050 C 0.53703 0.14726 0.67938
 C1051 C 0.57583 0.11738 0.71902
 C1052 C 0.58598 0.10219 0.72828
 C1053 C 0.59771 0.08415 0.73887
 C1054 C 0.54089 0.17017 0.68419
 H1055 H 0.54530 0.11241 0.68696
 H1056 H 0.57927 0.16229 0.72556
 H1057 H 0.55960 0.19281 0.70504
 H1058 H 0.52523 0.14273 0.66663
 C1059 C 1.07029 0.65874 0.21070
 C1060 C 1.06644 0.63598 0.20581
 C1061 C 1.05149 0.63055 0.18892
 C1062 C 1.04057 0.64779 0.17679
 C1063 C 1.10766 0.56899 0.24826
 C1064 C 1.05936 0.67603 0.19860
 C1065 C 1.07798 0.61812 0.21787
 C1066 C 1.08754 0.60290 0.22768
 C1067 C 1.09852 0.58476 0.23888
 C1068 C 1.04447 0.67073 0.18141
 H1069 H 1.08187 0.66312 0.22371
 H1070 H 1.04833 0.61299 0.18505
 H1071 H 1.02897 0.64317 0.16389
 H1072 H 1.06290 0.69352 0.20236
 C1073 C 0.93046 0.84140 0.20276
 C1074 C 0.94137 0.86217 0.20291
 C1075 C 0.96179 0.86446 0.19146
 C1076 C 0.97120 0.84609 0.17974
 C1077 C 0.90427 0.93201 0.24446
 C1078 C 0.93983 0.82302 0.19105
 C1079 C 0.93139 0.88123 0.21449
 C1080 C 0.92290 0.89721 0.22405
 C1081 C 0.91286 0.91596 0.23511
 C1082 C 0.96025 0.82519 0.17930
 H1083 H 0.91467 0.83942 0.21161
 H1084 H 0.97034 0.88050 0.19141
 H1085 H 0.98679 0.84839 0.17064
 H1086 H 0.93114 0.80707 0.19128
 C1087 C 0.43004 0.34396 0.70510
 C1088 C 0.44174 0.36423 0.70613
 C1089 C 0.46278 0.36581 0.69574
 C1090 C 0.47200 0.34727 0.68414
 C1091 C 0.40455 0.43465 0.74661
 C1092 C 0.43920 0.32542 0.69349
 C1093 C 0.43188 0.38351 0.71745
 C1094 C 0.42339 0.39963 0.72676
 C1095 C 0.41327 0.41851 0.73752
 C1096 C 0.46022 0.32691 0.68274
 H1097 H 0.41376 0.34252 0.71313
 H1098 H 0.47195 0.38146 0.69639
 H1099 H 0.48808 0.34904 0.67582
 H1100 H 0.42986 0.30988 0.69299
 C1101 C 0.44400 0.63921 0.82168
 C1102 C 0.43666 0.64340 0.79982
 C1103 C 0.43945 0.66486 0.79002
 C1104 C 0.44963 0.68204 0.80202
 C1105 C 0.40092 0.57604 0.75660
 C1106 C 0.45419 0.65632 0.83368
 C1107 C 0.42650 0.62554 0.78749
 C1108 C 0.41820 0.61023 0.77748
 C1109 C 0.40875 0.59195 0.76608
 C1110 C 0.45719 0.67792 0.82397
 H1111 H 0.44187 0.62268 0.82945
 H1112 H 0.43388 0.66826 0.77308
 H1113 H 0.45191 0.69841 0.79401
 H1114 H 0.45949 0.65273 0.85066
 C1115 C -0.05618 0.13708 0.32023
 C1116 C -0.06351 0.14111 0.29834
 C1117 C -0.06072 0.16249 0.28839
 C1118 C -0.05056 0.17977 0.30027
 C1119 C -0.09922 0.07347 0.25547
 C1120 C -0.04601 0.15430 0.33212
 C1121 C -0.07365 0.12313 0.28614
 C1122 C -0.08194 0.10775 0.27623
 C1123 C -0.09139 0.08940 0.26492
 C1124 C -0.04300 0.17583 0.32225
 H1125 H -0.05831 0.12062 0.32813
 H1126 H -0.06628 0.16577 0.27142
 H1127 H -0.04829 0.19609 0.29215
 H1128 H -0.04073 0.15083 0.34913
 C1129 C 0.07752 0.34943 0.31739
 C1130 C 0.06600 0.36221 0.30119
 C1131 C 0.04377 0.35727 0.29643
 C1132 C 0.03302 0.33971 0.30795
 C1133 C 0.10627 0.42982 0.26030
 C1134 C 0.06681 0.33191 0.32894
 C1135 C 0.07696 0.38058 0.28974
 C1136 C 0.08623 0.39604 0.28036
 C1137 C 0.09709 0.41422 0.26953
 C1138 C 0.04440 0.32693 0.32445
 H1139 H 0.09475 0.35306 0.32116
 H1140 H 0.03468 0.36709 0.28394
 H1141 H 0.01570 0.33643 0.30429
 H1142 H 0.07614 0.32215 0.34128
 C1143 C 0.54534 0.85723 0.79618
 C1144 C 0.56764 0.86202 0.80084
 C1145 C 0.57901 0.84948 0.81731
 C1146 C 0.56811 0.83234 0.82923
 C1147 C 0.60829 0.92876 0.75897
 C1148 C 0.53440 0.84006 0.80809
 C1149 C 0.57878 0.88005 0.78903
 C1150 C 0.58815 0.89527 0.77939
 C1151 C 0.59909 0.91325 0.76832
 C1152 C 0.54563 0.82752 0.82485
 H1153 H 0.53637 0.86689 0.78350
 H1154 H 0.59629 0.85300 0.82100
 H1155 H 0.57732 0.82275 0.84178
 H1156 H 0.51704 0.83689 0.80449
 C1157 C 0.68751 0.54606 0.13239
 C1158 C 0.70485 0.56066 0.13748
 C1159 C 0.71011 0.56461 0.15990
 C1160 C 0.69792 0.55417 0.17717
 C1161 C 0.74738 0.60076 0.07081
 C1162 C 0.67530 0.53563 0.14960
 C1163 C 0.71695 0.57180 0.11965
 C1164 C 0.72677 0.58106 0.10448
 C1165 C 0.73799 0.59178 0.08644
 C1166 C 0.68026 0.53969 0.17220
 H1167 H 0.68335 0.54282 0.11509
 H1168 H 0.72347 0.57593 0.16402
 H1169 H 0.70197 0.55783 0.19439
 H1170 H 0.66202 0.52432 0.14524
 C1171 C 0.21420 1.04145 0.64736
 C1172 C 0.20570 1.06093 0.63658
 C1173 C 0.18510 1.07034 0.64342
 C1174 C 0.17292 1.06026 0.66086
 C1175 C 0.24798 1.09905 0.56861
 C1176 C 0.20204 1.03133 0.66486
 C1177 C 0.21786 1.07116 0.61825
 C1178 C 0.22765 1.07989 0.60274
 C1179 C 0.23874 1.09021 0.58440
 C1180 C 0.18119 1.04057 0.67171
 H1181 H 0.23012 1.03399 0.64214
 H1182 H 0.17840 1.08545 0.63523
 H1183 H 0.15710 1.06799 0.66598
 H1184 H 0.20873 1.01606 0.67274
 C1185 C 0.17708 0.93306 0.85959
 C1186 C 0.19934 0.93860 0.86340
 C1187 C 0.21002 0.95419 0.84924
 C1188 C 0.19853 0.96407 0.83121
 C1189 C 0.24084 0.89913 0.93102
 C1190 C 0.16558 0.94289 0.84159
 C1191 C 0.21115 0.92809 0.88177
 C1192 C 0.22074 0.91905 0.89722
 C1193 C 0.23168 0.90831 0.91539
 C1194 C 0.17621 0.95841 0.82711
 H1195 H 0.16862 0.92110 0.87051
 H1196 H 0.22727 0.95858 0.85203
 H1197 H 0.20722 0.97579 0.82023
 H1198 H 0.14831 0.93846 0.83911
 C1199 C 0.67625 0.43061 0.35834
 C1200 C 0.69817 0.43699 0.36265
 C1201 C 0.70842 0.45332 0.34899
 C1202 C 0.69682 0.46313 0.33100
 C1203 C 0.74015 0.39853 0.43051
 C1204 C 0.66465 0.44036 0.34037
 C1205 C 0.71008 0.42667 0.38105
 C1206 C 0.71978 0.41784 0.39654
 C1207 C 0.73086 0.40740 0.41479
 C1208 C 0.67483 0.45666 0.32642
 H1209 H 0.66813 0.41806 0.36887
 H1210 H 0.72540 0.45837 0.35217
 H1211 H 0.70517 0.47546 0.32043
 H1212 H 0.64762 0.43528 0.33751
 C1213 C 0.78312 0.45694 0.64731
 C1214 C 0.79225 0.43787 0.63646
 C1215 C 0.81300 0.42889 0.64307
 C1216 C 0.82468 0.43901 0.66034
 C1217 C 0.75107 0.39995 0.56947
 C1218 C 0.79478 0.46710 0.66464
 C1219 C 0.78057 0.42761 0.61834
 C1220 C 0.77108 0.41891 0.60302
 C1221 C 0.76022 0.40868 0.58497
 C1222 C 0.81576 0.45831 0.67126
 H1223 H 0.76709 0.46406 0.64228
 H1224 H 0.82019 0.41410 0.63484
 H1225 H 0.84062 0.43163 0.66529
 H1226 H 0.78759 0.48206 0.67256
 C1227 C 0.31299 -0.07668 0.14399
 C1228 C 0.29219 -0.06764 0.13762
 C1229 C 0.28331 -0.04844 0.14846
 C1230 C 0.29529 -0.03820 0.16549
 C1231 C 0.25039 -0.10423 0.07029
 C1232 C 0.32500 -0.06646 0.16098
 C1233 C 0.28027 -0.07778 0.11958
 C1234 C 0.27060 -0.08623 0.10425
 C1235 C 0.25959 -0.09602 0.08604
 C1236 C 0.31635 -0.04702 0.17183
 H1237 H 0.32000 -0.09155 0.13574
 H1238 H 0.26725 -0.04126 0.14359
 H1239 H 0.28831 -0.02311 0.17335
 H1240 H 0.34100 -0.07385 0.16571
 C1241 C 0.29624 0.06970 0.33940
 C1242 C 0.29649 0.05863 0.36026
 C1243 C 0.30739 0.03750 0.36251
 C1244 C 0.31826 0.02760 0.34402
 C1245 C 0.25833 0.09860 0.42982
 C1246 C 0.30711 0.05985 0.32092
 C1247 C 0.28595 0.06925 0.37942
 C1248 C 0.27723 0.07839 0.39537
 C1249 C 0.26707 0.08927 0.41397
 C1250 C 0.31841 0.03877 0.32305
 H1251 H 0.28780 0.08603 0.33746
 H1252 H 0.30773 0.02882 0.37860
 H1253 H 0.32703 0.01150 0.34625
 H1254 H 0.30667 0.06872 0.30494
 C1255 C 0.79569 0.57183 0.84247
 C1256 C 0.79509 0.56007 0.86295
 C1257 C 0.80493 0.53837 0.86463
 C1258 C 0.81563 0.52860 0.84597
 C1259 C 0.75772 0.59986 0.93303
 C1260 C 0.80638 0.56212 0.82382
 C1261 C 0.78479 0.57055 0.88231
 C1262 C 0.77627 0.57964 0.89840
 C1263 C 0.76631 0.59050 0.91712
 C1264 C 0.81666 0.54047 0.82540
 H1265 H 0.78806 0.58860 0.84096
 H1266 H 0.80461 0.52914 0.88043
 H1267 H 0.82361 0.51204 0.84779
 H1268 H 0.80663 0.57155 0.80815
 C1269 C 0.14960 0.71447 0.54705
 C1270 C 0.13879 0.70554 0.56604
 C1271 C 0.14612 0.68479 0.57518
 C1272 C 0.16405 0.67288 0.56528
 C1273 C 0.06866 0.74718 0.60198
 C1274 C 0.16756 0.70258 0.53712
 C1275 C 0.11988 0.71736 0.57592
 C1276 C 0.10386 0.72696 0.58419
 C1277 C 0.08494 0.73794 0.59383
 C1278 C 0.17489 0.68157 0.54604
 H1279 H 0.14399 0.73049 0.53980
 H1280 H 0.13791 0.67775 0.58991
 H1281 H 0.16951 0.65691 0.57273
 H1282 H 0.17541 0.70958 0.52219
 C1283 C 0.64923 0.21044 1.04492
 C1284 C 0.63815 0.20160 1.06379
 C1285 C 0.64538 0.18092 1.07316
 C1286 C 0.66348 0.16899 1.06360
 C1287 C 0.56779 0.24387 1.09855
 C1288 C 0.66737 0.19853 1.03533
 C1289 C 0.61911 0.21348 1.07333
 C1290 C 0.60302 0.22320 1.08133
 C1291 C 0.58406 0.23439 1.09065
 C1292 C 0.67461 0.17759 1.04450
 H1293 H 0.64372 0.22641 1.03749
 H1294 H 0.63695 0.17395 1.08780
 H1295 H 0.66886 0.15308 1.07123
 H1296 H 0.67544 0.20547 1.02049
 C1297 C 0.86597 0.19144 0.96251
 C1298 C 0.86333 0.20244 0.94178
 C1299 C 0.84278 0.20177 0.93087
 C1300 C 0.82501 0.18993 0.94051
 C1301 C 0.93056 0.24443 0.90304
 C1302 C 0.84819 0.17960 0.97221
 C1303 C 0.88179 0.21407 0.93146
 C1304 C 0.89720 0.22369 0.92261
 C1305 C 0.91521 0.23488 0.91209
 C1306 C 0.82755 0.17858 0.96122
 H1307 H 0.88183 0.19180 0.97107
 H1308 H 0.84054 0.21028 0.91484
 H1309 H 0.80924 0.18972 0.93179
 H1310 H 0.85076 0.17081 0.98802
 C1311 C 0.34269 0.70481 0.43067
 C1312 C 0.36328 0.70533 0.44152
 C1313 C 0.36585 0.69443 0.46231
 C1314 C 0.34798 0.68283 0.47211
 C1315 C 0.43132 0.74578 0.40255
 C1316 C 0.32481 0.69322 0.44042
 C1317 C 0.38186 0.71664 0.43107
 C1318 C 0.39744 0.72594 0.42215
 C1319 C 0.41569 0.73669 0.41159
 C1320 C 0.32730 0.68196 0.46119
 H1321 H 0.34050 0.71324 0.41459
 H1322 H 0.38175 0.69466 0.47082
 H1323 H 0.35051 0.67410 0.48796
 H1324 H 0.30902 0.69311 0.43174
 C1325 C 0.66022 0.79074 0.42800
 C1326 C 0.63797 0.79673 0.43310
 C1327 C 0.63324 0.81449 0.44794
 C1328 C 0.65065 0.82635 0.45751
 C1329 C 0.57041 0.75493 0.39734
 C1330 C 0.67769 0.80258 0.43759
 C1331 C 0.61991 0.78486 0.42305
 C1332 C 0.60452 0.77520 0.41476
 C1333 C 0.58624 0.76417 0.40526
 C1334 C 0.67309 0.82060 0.45237
 H1335 H 0.66406 0.77704 0.41650
 H1336 H 0.61608 0.81921 0.45207
 H1337 H 0.64657 0.83990 0.46909
 H1338 H 0.69477 0.79792 0.43312
 C1339 C 0.15843 0.29491 -0.07206
 C1340 C 0.13620 0.30083 -0.06680
 C1341 C 0.13152 0.31847 -0.05182
 C1342 C 0.14897 0.33027 -0.04223
 C1343 C 0.06908 0.25819 -0.10241
 C1344 C 0.17593 0.30668 -0.06246
 C1345 C 0.11813 0.28891 -0.07678
 C1346 C 0.10281 0.27912 -0.08502
 C1347 C 0.08469 0.26780 -0.09449
 C1348 C 0.17139 0.32456 -0.04750
 H1349 H 0.16223 0.28129 -0.08367
 H1350 H 0.11437 0.32313 -0.04756
 H1351 H 0.14493 0.34371 -0.03052
 H1352 H 0.19300 0.30206 -0.06704
 C1353 C 0.36373 0.30892 0.03014
 C1354 C 0.36132 0.29762 0.05076
 C1355 C 0.34051 0.29767 0.06175
 C1356 C 0.32225 0.30929 0.05238
 C1357 C 0.42946 0.25725 0.09062
 C1358 C 0.34545 0.32055 0.02071
 C1359 C 0.38026 0.28648 0.06106
 C1360 C 0.39594 0.27726 0.07011
 C1361 C 0.41410 0.26650 0.08107
 C1362 C 0.32457 0.32107 0.03187
 H1363 H 0.37979 0.30903 0.02152
 H1364 H 0.33844 0.28891 0.07768
 H1365 H 0.30632 0.30911 0.06121
 H1366 H 0.34781 0.32966 0.00503
 C1367 C 0.84152 0.79601 0.56349
 C1368 C 0.86246 0.79591 0.55275
 C1369 C 0.86502 0.80680 0.53192
 C1370 C 0.84678 0.81810 0.52207
 C1371 C 0.93060 0.75736 0.59424
 C1372 C 0.82330 0.80730 0.55370
 C1373 C 0.88137 0.78519 0.56350
 C1374 C 0.89703 0.77638 0.57294
 C1375 C 0.91520 0.76614 0.58434
 C1376 C 0.82577 0.81871 0.53300
 H1377 H 0.83933 0.78757 0.57957
 H1378 H 0.88118 0.80687 0.52349
 H1379 H 0.84925 0.82692 0.50624
 H1380 H 0.80727 0.80720 0.56236
   
