data_POSCAR
  _audit_creation_date              2014-09-24
  _audit_creation_method            'ToBaCCo'
  _symmetry_space_group_name_H-M    'P1'
  _symmetry_Int_Tables_number       1
  _symmetry_cell_setting            triclinic
  loop_
  _symmetry_equiv_pos_as_xyz
 x,y,z
_cell_length_a 59.4538
_cell_length_b 59.4744
_cell_length_c 59.4151
_cell_angle_alpha 90.505700
_cell_angle_beta 90.401300
_cell_angle_gamma 90.763100
loop_
  _atom_site_label
  _atom_site_type_symbol
  _atom_site_fract_x
  _atom_site_fract_y
  _atom_site_fract_z
C1 C 0.72982 0.65982 0.97061
 H2 H 0.74721 0.65971 0.96537
 C3 C 0.71393 0.67173 0.95816
 H4 H 0.71908 0.68094 0.94338
 C5 C 0.70147 0.64684 0.99540
 H6 H 0.69647 0.63656 1.00943
 C7 C 0.68512 0.65853 0.98351
 H8 H 0.66768 0.65736 0.98860
 N9 N 0.72334 0.64757 0.98875
 C10 C 0.78254 0.63312 1.02965
 H11 H 0.77987 0.61517 1.03124
 C12 C 0.80085 0.64354 1.04038
 H13 H 0.81236 0.63361 1.05028
 C14 C 0.77085 0.66796 1.01466
 H15 H 0.75906 0.67735 1.00466
 C16 C 0.78906 0.67908 1.02513
 H17 H 0.79136 0.69705 1.02310
 Zn18 Zn 0.74459 0.62869 1.00277
 N19 N 0.76817 0.64531 1.01686
 C20 C 0.77906 0.60991 0.97612
 N21 N 0.75653 0.60985 0.98006
 C22 C 0.74201 0.59746 0.96700
 C23 C 0.75007 0.58425 0.94931
 C24 C 0.78780 0.59695 0.95864
 C25 C 0.72306 0.62297 1.04381
 C26 C 0.71240 0.61159 1.06128
 C27 C 0.71756 0.57667 1.04089
 C28 C 0.72814 0.58874 1.02378
 N29 N 0.73042 0.61151 1.02543
 H30 H 0.79030 0.62028 0.98624
 H31 H 0.72414 0.59805 0.97022
 H32 H 0.73842 0.57453 0.93890
 H33 H 0.80574 0.59721 0.95554
 H34 H 0.72537 0.64102 1.04479
 H35 H 0.70646 0.62098 1.07575
 H36 H 0.71570 0.55856 1.03936
 H37 H 0.73452 0.57991 1.00926
 C38 C 0.80425 0.66667 1.03797
 C39 C 0.69133 0.67084 0.96457
 C40 C 0.70952 0.58823 1.05977
 C41 C 0.77318 0.58405 0.94510
 C42 C 0.73828 0.34531 0.52168
 H43 H 0.75563 0.34464 0.52722
 C44 C 0.72170 0.33303 0.53302
 H45 H 0.72628 0.32277 0.54727
 C46 C 0.71080 0.36055 0.49726
 H47 H 0.70642 0.37183 0.48384
 C48 C 0.69378 0.34854 0.50805
 H49 H 0.67645 0.35045 0.50272
 N50 N 0.73256 0.35886 0.50425
 C51 C 0.79297 0.37422 0.46574
 H52 H 0.79162 0.39234 0.46562
 C53 C 0.81039 0.36385 0.45422
 H54 H 0.82257 0.37399 0.44521
 C55 C 0.77861 0.33884 0.47751
 H56 H 0.76606 0.32921 0.48646
 C57 C 0.79587 0.32775 0.46617
 H58 H 0.79668 0.30957 0.46650
 Zn59 Zn 0.75484 0.37805 0.49185
 N60 N 0.77766 0.36170 0.47725
 C61 C 0.78981 0.39478 0.52042
 N62 N 0.76734 0.39535 0.51587
 C63 C 0.75311 0.40722 0.52914
 C64 C 0.76140 0.41942 0.54769
 C65 C 0.79878 0.40674 0.53879
 C66 C 0.73391 0.38649 0.45081
 C67 C 0.72358 0.39897 0.43397
 C68 C 0.72996 0.43257 0.45644
 C69 C 0.74020 0.41944 0.47289
 N70 N 0.74165 0.39677 0.46994
 H71 H 0.80078 0.38481 0.51007
 H72 H 0.73527 0.40703 0.52540
 H73 H 0.74996 0.42877 0.55823
 H74 H 0.81665 0.40612 0.54237
 H75 H 0.73555 0.36849 0.44880
 H76 H 0.71720 0.39060 0.41892
 H77 H 0.72861 0.45056 0.45896
 H78 H 0.74687 0.42736 0.48799
 C79 C 0.81191 0.34043 0.45449
 C80 C 0.69922 0.33490 0.52626
 C81 C 0.72145 0.42219 0.43689
 C82 C 0.78444 0.41914 0.55255
 C83 C 0.23712 -0.15528 0.02213
 H84 H 0.25449 -0.15597 0.02759
 C85 C 0.22057 -0.16748 0.03360
 H86 H 0.22519 -0.17771 0.04786
 C87 C 0.20954 -0.14006 -0.00220
 H88 H 0.20512 -0.12882 -0.01563
 C89 C 0.19255 -0.15200 0.00872
 H90 H 0.17520 -0.15006 0.00347
 N91 N 0.23133 -0.14178 0.00469
 C92 C 0.29160 -0.12662 -0.03413
 H93 H 0.29026 -0.10850 -0.03431
 C94 C 0.30898 -0.13704 -0.04567
 H95 H 0.32113 -0.12693 -0.05475
 C96 C 0.27727 -0.16195 -0.02219
 H97 H 0.26474 -0.17154 -0.01316
 C98 C 0.29448 -0.17309 -0.03355
 H99 H 0.29529 -0.19126 -0.03315
 Zn100 Zn 0.25358 -0.12267 -0.00789
 N101 N 0.27632 -0.13909 -0.02252
 C102 C 0.28868 -0.10589 0.02048
 N103 N 0.26621 -0.10529 0.01600
 C104 C 0.25205 -0.09331 0.02926
 C105 C 0.26044 -0.08102 0.04771
 C106 C 0.29775 -0.09385 0.03875
 C107 C 0.23247 -0.11438 -0.04886
 C108 C 0.22208 -0.10197 -0.06571
 C109 C 0.22863 -0.06825 -0.04342
 C110 C 0.23893 -0.08134 -0.02696
 N111 N 0.24032 -0.10402 -0.02982
 H112 H 0.29960 -0.11594 0.01015
 H113 H 0.23420 -0.09348 0.02558
 H114 H 0.24906 -0.07159 0.05824
 H115 H 0.31563 -0.09450 0.04227
 H116 H 0.23408 -0.13239 -0.05079
 H117 H 0.21565 -0.11050 -0.08068
 H118 H 0.22738 -0.05023 -0.04087
 H119 H 0.24569 -0.07337 -0.01193
 C120 C 0.31049 -0.16046 -0.04533
 C121 C 0.19806 -0.16559 0.02695
 C122 C 0.21999 -0.07870 -0.06291
 C123 C 0.28350 -0.08133 0.05249
 C124 C 0.23047 0.16015 0.47023
 H125 H 0.24785 0.15999 0.46496
 C126 C 0.21457 0.17201 0.45775
 H127 H 0.21971 0.18113 0.44291
 C128 C 0.20216 0.14732 0.49514
 H129 H 0.19717 0.13711 0.50922
 C130 C 0.18579 0.15896 0.48321
 H131 H 0.16836 0.15784 0.48834
 N132 N 0.22401 0.14798 0.48844
 C133 C 0.28322 0.13348 0.52927
 H134 H 0.28046 0.11555 0.53094
 C135 C 0.30159 0.14385 0.53994
 H136 H 0.31306 0.13390 0.54987
 C137 C 0.27170 0.16831 0.51413
 H138 H 0.25995 0.17772 0.50409
 C139 C 0.28998 0.17938 0.52453
 H140 H 0.29238 0.19733 0.52241
 Zn141 Zn 0.24524 0.12910 0.50246
 N142 N 0.26890 0.14568 0.51644
 C143 C 0.27961 0.11018 0.47579
 N144 N 0.25709 0.11016 0.47978
 C145 C 0.24252 0.09776 0.46679
 C146 C 0.25053 0.08451 0.44910
 C147 C 0.28829 0.09718 0.45832
 C148 C 0.22383 0.12356 0.54361
 C149 C 0.21322 0.11225 0.56114
 C150 C 0.21821 0.07728 0.54085
 C151 C 0.22876 0.08926 0.52365
 N152 N 0.23109 0.11203 0.52522
 H153 H 0.29088 0.12056 0.48586
 H154 H 0.22466 0.09838 0.47004
 H155 H 0.23884 0.07479 0.43873
 H156 H 0.30622 0.09742 0.45517
 H157 H 0.22620 0.14161 0.54454
 H158 H 0.20734 0.12158 0.57565
 H159 H 0.21626 0.05919 0.53947
 H160 H 0.23506 0.08036 0.50914
 C161 C 0.30511 0.16695 0.53742
 C162 C 0.19199 0.17117 0.46420
 C163 C 0.21030 0.08893 0.55969
 C164 C 0.27363 0.08428 0.44483
 C165 C 0.16354 0.47313 0.22967
 H166 H 0.16363 0.46769 0.24700
 C167 C 0.17585 0.46137 0.21351
 H168 H 0.18558 0.44691 0.21840
 C169 C 0.14968 0.49772 0.20174
 H170 H 0.13893 0.51138 0.19700
 C171 C 0.16177 0.48652 0.18514
 H172 H 0.16043 0.49179 0.16778
 N173 N 0.15067 0.49084 0.22352
 C174 C 0.13491 0.53065 0.28319
 H175 H 0.11692 0.53160 0.28060
 C176 C 0.14496 0.54164 0.30154
 H177 H 0.13469 0.55110 0.31316
 C178 C 0.17025 0.51701 0.27126
 H179 H 0.17999 0.50743 0.25935
 C180 C 0.18101 0.52777 0.28951
 H181 H 0.19904 0.52639 0.29172
 Zn182 Zn 0.13137 0.50394 0.24506
 N183 N 0.14754 0.51841 0.26868
 C184 C 0.11351 0.47641 0.27943
 N185 N 0.11325 0.48052 0.25692
 C186 C 0.10113 0.46723 0.24239
 C187 C 0.08837 0.44913 0.25043
 C188 C 0.10100 0.45853 0.28814
 C189 C 0.12441 0.54492 0.22406
 C190 C 0.11252 0.56203 0.21359
 C191 C 0.07823 0.54041 0.21859
 C192 C 0.09077 0.52366 0.22899
 N193 N 0.11349 0.52608 0.23124
 H194 H 0.12366 0.48674 0.29066
 H195 H 0.10157 0.47060 0.22453
 H196 H 0.07883 0.43856 0.23877
 H197 H 0.10138 0.45533 0.30606
 H198 H 0.14243 0.54651 0.22634
 H199 H 0.12139 0.57688 0.20774
 H200 H 0.06018 0.53835 0.21668
 H201 H 0.08235 0.50879 0.23522
 C202 C 0.16816 0.54006 0.30483
 C203 C 0.17473 0.46802 0.19101
 C204 C 0.08926 0.55969 0.21074
 C205 C 0.08835 0.44477 0.27352
 C206 C -0.15618 0.02080 0.23523
 H207 H -0.15693 0.02664 0.25250
 C208 C -0.16858 0.03163 0.21851
 H209 H -0.17903 0.04576 0.22294
 C210 C -0.14064 -0.00388 0.20807
 H211 H -0.12921 -0.01719 0.20386
 C212 C -0.15276 0.00637 0.19091
 H213 H -0.15077 0.00066 0.17367
 N214 N -0.14244 0.00348 0.22973
 C215 C -0.12669 -0.03403 0.29046
 H216 H -0.10858 -0.03402 0.28882
 C217 C -0.13684 -0.04537 0.30820
 H218 H -0.12652 -0.05411 0.32032
 C219 C -0.16226 -0.02271 0.27655
 H220 H -0.17205 -0.01398 0.26406
 C221 C -0.17314 -0.03388 0.29415
 H222 H -0.19131 -0.03365 0.29528
 Zn223 Zn -0.12319 -0.00838 0.25210
 N224 N -0.13941 -0.02282 0.27522
 C225 C -0.10674 0.02071 0.28671
 N226 N -0.10602 0.01591 0.26428
 C227 C -0.09402 0.02905 0.24992
 C228 C -0.08179 0.04767 0.25808
 C229 C -0.09477 0.03915 0.29554
 C230 C -0.11461 -0.04963 0.23176
 C231 C -0.10212 -0.06654 0.22157
 C232 C -0.06856 -0.04373 0.22721
 C233 C -0.08171 -0.02720 0.23733
 N234 N -0.10436 -0.03029 0.23907
 H235 H -0.11681 0.01047 0.29778
 H236 H -0.09409 0.02511 0.23211
 H237 H -0.07230 0.05807 0.24655
 H238 H -0.09548 0.04288 0.31340
 H239 H -0.13260 -0.05174 0.23363
 H240 H -0.11047 -0.08175 0.21554
 H241 H -0.05058 -0.04109 0.22561
 H242 H -0.07381 -0.01194 0.24366
 C243 C -0.16024 -0.04523 0.31013
 C244 C -0.16665 0.02445 0.19610
 C245 C -0.07892 -0.06349 0.21914
 C246 C -0.08220 0.05274 0.28110
 C247 C 0.34445 0.52172 0.73537
 H248 H 0.34376 0.52684 0.75287
 C249 C 0.33233 0.53351 0.71913
 H250 H 0.32215 0.54766 0.72411
 C251 C 0.35962 0.49796 0.70720
 H252 H 0.37082 0.48464 0.70243
 C253 C 0.34776 0.50922 0.69049
 H254 H 0.34972 0.50432 0.67301
 N255 N 0.35789 0.50442 0.72915
 C256 C 0.37303 0.46474 0.78865
 H257 H 0.39115 0.46460 0.78712
 C258 C 0.36264 0.45299 0.80599
 H259 H 0.37277 0.44378 0.81791
 C260 C 0.33769 0.47686 0.77489
 H261 H 0.32808 0.48605 0.76260
 C262 C 0.32657 0.46530 0.79207
 H263 H 0.30840 0.46571 0.79311
 Zn264 Zn 0.37698 0.49152 0.75105
 N265 N 0.36054 0.47654 0.77368
 C266 C 0.39370 0.51944 0.78652
 N267 N 0.39440 0.51525 0.76397
 C268 C 0.40644 0.52873 0.74997
 C269 C 0.41865 0.54714 0.75859
 C270 C 0.40567 0.53766 0.79582
 C271 C 0.38516 0.45094 0.72915
 C272 C 0.39756 0.43422 0.71854
 C273 C 0.43135 0.45634 0.72542
 C274 C 0.41830 0.47269 0.73594
 N275 N 0.39558 0.46985 0.73730
 H276 H 0.38359 0.50894 0.79731
 H277 H 0.40634 0.52528 0.73206
 H278 H 0.42811 0.55787 0.74733
 H279 H 0.40492 0.54097 0.81376
 H280 H 0.36712 0.44900 0.73074
 H281 H 0.38908 0.41932 0.71188
 H282 H 0.44939 0.45875 0.72419
 H283 H 0.42632 0.48760 0.74294
 C284 C 0.33923 0.45333 0.80778
 C285 C 0.33424 0.52732 0.69646
 C286 C 0.42083 0.43700 0.71654
 C287 C 0.41821 0.55165 0.78172
 C288 C 0.66171 0.97272 0.73241
 H289 H 0.66156 0.96753 0.74981
 C290 C 0.67381 0.96041 0.71650
 H291 H 0.68313 0.94578 0.72166
 C292 C 0.64858 0.99719 0.70403
 H293 H 0.63816 1.01102 0.69902
 C294 C 0.66046 0.98543 0.68766
 H295 H 0.65929 0.99043 0.67020
 N296 N 0.64927 0.99062 0.72591
 C297 C 0.63358 1.03128 0.78506
 H298 H 0.61563 1.03248 0.78232
 C299 C 0.64363 1.04226 0.80342
 H300 H 0.63336 1.05196 0.81485
 C301 C 0.66879 1.01700 0.77353
 H302 H 0.67847 1.00717 0.76178
 C303 C 0.67958 1.02773 0.79179
 H304 H 0.69757 1.02604 0.79412
 Zn305 Zn 0.62997 1.00425 0.74712
 N306 N 0.64613 1.01873 0.77075
 C307 C 0.61149 0.97720 0.78156
 N308 N 0.61145 0.98116 0.75902
 C309 C 0.59941 0.96783 0.74447
 C310 C 0.58657 0.94978 0.75249
 C311 C 0.59889 0.95937 0.79026
 C312 C 0.62373 1.04508 0.72554
 C313 C 0.61214 1.06222 0.71478
 C314 C 0.57754 1.04110 0.71979
 C315 C 0.58979 1.02431 0.73048
 N316 N 0.61251 1.02647 0.73288
 H317 H 0.62159 0.98756 0.79281
 H318 H 0.60003 0.97108 0.72659
 H319 H 0.57715 0.93914 0.74081
 H320 H 0.59916 0.95623 0.80819
 H321 H 0.64175 1.04647 0.72793
 H322 H 0.62123 1.07688 0.70882
 H323 H 0.55948 1.03924 0.71778
 H324 H 0.58114 1.00963 0.73682
 C325 C 0.66680 1.04036 0.80693
 C326 C 0.67293 0.96671 0.69388
 C327 C 0.58887 1.06015 0.71180
 C328 C 0.58639 0.94551 0.77560
 C329 C 0.02225 0.23613 -0.15120
 H330 H 0.02770 0.25354 -0.15189
 C331 C 0.03400 0.21968 -0.16309
 H332 H 0.04845 0.22441 -0.17308
 C333 C -0.00236 0.20839 -0.13630
 H334 H -0.01602 0.20388 -0.12530
 C335 C 0.00885 0.19148 -0.14793
 H336 H 0.00358 0.17410 -0.14600
 N337 N 0.00453 0.23023 -0.13802
 C338 C -0.03465 0.29031 -0.12438
 H339 H -0.03539 0.28908 -0.10625
 C340 C -0.04564 0.30771 -0.13532
 H341 H -0.05483 0.31999 -0.12559
 C342 C -0.02173 0.27580 -0.15923
 H343 H -0.01250 0.26323 -0.16844
 C344 C -0.03250 0.29301 -0.17087
 H345 H -0.03144 0.29378 -0.18904
 Zn346 Zn -0.00850 0.25246 -0.11937
 N347 N -0.02278 0.27497 -0.13636
 C348 C 0.01949 0.28789 -0.10252
 N349 N 0.01504 0.26540 -0.10172
 C350 C 0.02821 0.25142 -0.08948
 C351 C 0.04658 0.26002 -0.07721
 C352 C 0.03766 0.29716 -0.09049
 C353 C -0.04956 0.23104 -0.11157
 C354 C -0.06660 0.22056 -0.09934
 C355 C -0.04496 0.22745 -0.06528
 C356 C -0.02829 0.23783 -0.07820
 N357 N -0.03074 0.23911 -0.10096
 H358 H 0.00923 0.29866 -0.11278
 H359 H 0.02457 0.23355 -0.08949
 H360 H 0.05708 0.24878 -0.06762
 H361 H 0.04118 0.31506 -0.09133
 H362 H -0.05115 0.23254 -0.12964
 H363 H -0.08139 0.21396 -0.10807
 H364 H -0.04274 0.22630 -0.04720
 H365 H -0.01342 0.24475 -0.07005
 C366 C -0.04447 0.30915 -0.15874
 C367 C 0.02733 0.19712 -0.16122
 C368 C -0.06423 0.21860 -0.07599
 C369 C 0.05135 0.28309 -0.07778
 C370 C 0.47000 0.23170 0.16269
 H371 H 0.46451 0.24897 0.16265
 C372 C 0.45780 0.21547 0.17459
 H373 H 0.44296 0.22024 0.18386
 C374 C 0.49523 0.20400 0.14962
 H375 H 0.50934 0.19938 0.13934
 C376 C 0.48359 0.18733 0.16130
 H377 H 0.48897 0.17002 0.16013
 N378 N 0.48826 0.22571 0.15043
 C379 C 0.52864 0.28573 0.13670
 H380 H 0.53054 0.28327 0.11876
 C381 C 0.53879 0.30426 0.14733
 H382 H 0.54853 0.31615 0.13755
 C383 C 0.51331 0.27340 0.17131
 H384 H 0.50335 0.26132 0.18053
 C385 C 0.52318 0.29181 0.18263
 H386 H 0.52073 0.29397 0.20057
 Zn387 Zn 0.50213 0.24742 0.13176
 N388 N 0.51590 0.27097 0.14867
 C389 C 0.47534 0.28179 0.11330
 N390 N 0.47940 0.25932 0.11299
 C391 C 0.46651 0.24484 0.10036
 C392 C 0.44889 0.25291 0.08712
 C393 C 0.45793 0.29053 0.10032
 C394 C 0.54339 0.22658 0.12583
 C395 C 0.56085 0.21619 0.11432
 C396 C 0.54041 0.22147 0.07949
 C397 C 0.52330 0.23179 0.09166
 N398 N 0.52495 0.23385 0.11446
 H399 H 0.48532 0.29298 0.12385
 H400 H 0.46983 0.22701 0.10076
 H401 H 0.43864 0.24131 0.07718
 H402 H 0.45475 0.30843 0.10076
 H403 H 0.54438 0.22871 0.14391
 H404 H 0.57536 0.21024 0.12353
 H405 H 0.53893 0.21969 0.06138
 H406 H 0.50875 0.23808 0.08289
 C407 C 0.53587 0.30746 0.17044
 C408 C 0.46458 0.19305 0.17367
 C409 C 0.55927 0.21350 0.09097
 C410 C 0.44458 0.27598 0.08716
 C411 C 0.97154 0.73055 0.66436
 H412 H 0.96614 0.74784 0.66474
 C413 C 0.95967 0.71419 0.67642
 H414 H 0.94516 0.71888 0.68624
 C415 C 0.99622 0.70293 0.65009
 H416 H 1.00997 0.69838 0.63928
 C417 C 0.98491 0.68613 0.66190
 H418 H 0.99019 0.66883 0.66031
 N419 N 0.98937 0.72465 0.65142
 C420 C 1.02979 0.78446 0.63703
 H421 H 1.03104 0.78212 0.61901
 C422 C 1.04071 0.80265 0.64747
 H423 H 1.05041 0.81439 0.63748
 C424 C 1.01547 0.77208 0.67205
 H425 H 1.00565 0.76006 0.68150
 C426 C 1.02613 0.79016 0.68320
 H427 H 1.02444 0.79215 0.70125
 Zn428 Zn 1.00285 0.74649 0.63259
 N429 N 1.01724 0.76981 0.64930
 C430 C 0.97589 0.78119 0.61509
 N431 N 0.97978 0.75869 0.61446
 C432 C 0.96656 0.74444 0.60192
 C433 C 0.94879 0.75280 0.58906
 C434 C 0.95835 0.79021 0.60249
 C435 C 1.04386 0.72564 0.62564
 C436 C 1.06109 0.71530 0.61375
 C437 C 1.03996 0.72067 0.57935
 C438 C 1.02308 0.73094 0.59190
 N439 N 1.02520 0.73293 0.61467
 H440 H 0.98615 0.79219 0.62557
 H441 H 0.96974 0.72658 0.60206
 H442 H 0.93829 0.74138 0.57916
 H443 H 0.95535 0.80814 0.60315
 H444 H 1.04522 0.72771 0.64371
 H445 H 1.07579 0.70935 0.62265
 H446 H 1.03813 0.71895 0.56126
 H447 H 1.00835 0.73725 0.58344
 C448 C 1.03874 0.80564 0.67072
 C449 C 0.96634 0.69175 0.67496
 C450 C 1.05906 0.71269 0.59042
 C451 C 0.94468 0.77590 0.58940
 C452 C 0.52411 0.73892 0.34563
 H453 H 0.52952 0.75634 0.34493
 C454 C 0.53586 0.72248 0.33373
 H455 H 0.55028 0.72722 0.32371
 C456 C 0.49959 0.71115 0.36062
 H457 H 0.48597 0.70662 0.37166
 C458 C 0.51080 0.69425 0.34898
 H459 H 0.50557 0.67686 0.35094
 N460 N 0.50643 0.73300 0.35887
 C461 C 0.46733 0.79304 0.37283
 H462 H 0.46670 0.79175 0.39096
 C463 C 0.45621 0.81044 0.36203
 H464 H 0.44702 0.82262 0.37192
 C465 C 0.48006 0.77867 0.33785
 H466 H 0.48926 0.76614 0.32855
 C467 C 0.46916 0.79588 0.32633
 H468 H 0.47012 0.79664 0.30815
 Zn469 Zn 0.49345 0.75518 0.37760
 N470 N 0.47915 0.77777 0.36072
 C471 C 0.52153 0.79051 0.39450
 N472 N 0.51701 0.76803 0.39527
 C473 C 0.53008 0.75400 0.40755
 C474 C 0.54841 0.76253 0.41993
 C475 C 0.53968 0.79972 0.40663
 C476 C 0.45238 0.73373 0.38535
 C477 C 0.43533 0.72325 0.39758
 C478 C 0.45692 0.73017 0.43163
 C479 C 0.47361 0.74055 0.41874
 N480 N 0.47120 0.74181 0.39598
 H481 H 0.51136 0.80132 0.38421
 H482 H 0.52638 0.73614 0.40751
 H483 H 0.55881 0.75125 0.42957
 H484 H 0.54326 0.81760 0.40582
 H485 H 0.45080 0.73522 0.36728
 H486 H 0.42054 0.71662 0.38894
 H487 H 0.45901 0.72898 0.44971
 H488 H 0.48845 0.74747 0.42693
 C489 C 0.45720 0.81195 0.33859
 C490 C 0.52925 0.69991 0.33565
 C491 C 0.43769 0.72133 0.42090
 C492 C 0.55326 0.78559 0.41940
 C493 C 0.35528 -0.00423 0.22192
 C494 C 0.36373 0.00692 0.24118
 C495 C 0.37274 0.02877 0.23927
 C496 C 0.37347 0.03926 0.21827
 C497 C 0.36478 0.02814 0.19917
 C498 C 0.35560 0.00645 0.20101
 C499 C 0.36310 -0.00425 0.26327
 C500 C 0.37263 -0.02556 0.26601
 C501 C 0.37220 -0.03600 0.28705
 C502 C 0.36184 -0.02540 0.30531
 C503 C 0.35213 -0.00427 0.30261
 C504 C 0.35295 0.00637 0.28171
 H505 H 0.34815 -0.02104 0.22328
 H506 H 0.37955 0.03739 0.25401
 H507 H 0.38072 -0.03377 0.25192
 H508 H 0.34543 0.02275 0.27969
 H509 H 0.36526 0.03630 0.18292
 H510 H 0.36143 -0.03351 0.32158
 C511 C 0.12988 1.01274 0.72293
 C512 C 0.12189 1.00120 0.74185
 C513 C 0.11370 0.97903 0.73931
 C514 C 0.11343 0.96860 0.71808
 C515 C 0.12164 0.98015 0.69935
 C516 C 0.12995 1.00216 0.70179
 C517 C 0.12271 1.01207 0.76431
 C518 C 0.11388 1.03365 0.76759
 C519 C 0.11486 1.04390 0.78891
 C520 C 0.12500 1.03280 0.80694
 C521 C 0.13398 1.01139 0.80373
 C522 C 0.13266 1.00098 0.78254
 H523 H 0.13657 1.02972 0.72476
 H524 H 0.10739 0.97000 0.75378
 H525 H 0.10599 1.04228 0.75368
 H526 H 0.13977 0.98444 0.78012
 H527 H 0.12169 0.97197 0.68296
 H528 H 0.12589 1.04079 0.82341
 C529 C 0.62992 0.51371 0.22106
 C530 C 0.62164 0.50268 0.24015
 C531 C 0.61246 0.48087 0.23789
 C532 C 0.61144 0.47031 0.21674
 C533 C 0.61995 0.48132 0.19782
 C534 C 0.62928 0.50297 0.20000
 C535 C 0.62297 0.51378 0.26247
 C536 C 0.61457 0.53555 0.26559
 C537 C 0.61593 0.54602 0.28678
 C538 C 0.62606 0.53495 0.30484
 C539 C 0.63463 0.51334 0.30177
 C540 C 0.63291 0.50271 0.28071
 H541 H 0.63731 0.53042 0.22269
 H542 H 0.60589 0.47228 0.25251
 H543 H 0.60667 0.54415 0.25166
 H544 H 0.63966 0.48600 0.27840
 H545 H 0.61936 0.47306 0.18147
 H546 H 0.62723 0.54310 0.32122
 C547 C 0.85573 0.49492 0.72274
 C548 C 0.86425 0.50585 0.74209
 C549 C 0.87374 0.52752 0.74030
 C550 C 0.87489 0.53803 0.71933
 C551 C 0.86614 0.52712 0.70014
 C552 C 0.85647 0.50562 0.70186
 C553 C 0.86319 0.49467 0.76415
 C554 C 0.87244 0.47326 0.76700
 C555 C 0.87169 0.46284 0.78804
 C556 C 0.86126 0.47357 0.80619
 C557 C 0.85182 0.49480 0.80338
 C558 C 0.85298 0.50543 0.78248
 H559 H 0.84823 0.47826 0.72402
 H560 H 0.88059 0.53597 0.75512
 H561 H 0.88060 0.46495 0.75300
 H562 H 0.84568 0.52190 0.78038
 H563 H 0.86694 0.53529 0.68391
 H564 H 0.86061 0.46549 0.82247
 C565 C 0.22206 0.35550 -0.00427
 C566 C 0.24153 0.36409 0.00641
 C567 C 0.23990 0.37399 0.02789
 C568 C 0.21899 0.37546 0.03847
 C569 C 0.19968 0.36667 0.02781
 C570 C 0.20122 0.35660 0.00650
 C571 C 0.26357 0.36259 -0.00480
 C572 C 0.26642 0.37082 -0.02671
 C573 C 0.28744 0.36965 -0.03713
 C574 C 0.30556 0.35985 -0.02588
 C575 C 0.30278 0.35145 -0.00414
 C576 C 0.28189 0.35299 0.00645
 H577 H 0.22320 0.34764 -0.02075
 H578 H 0.25481 0.38089 0.03616
 H579 H 0.25245 0.37851 -0.03543
 H580 H 0.27981 0.34649 0.02331
 H581 H 0.18350 0.36770 0.03604
 H582 H 0.32183 0.35890 -0.03397
 C583 C 0.71970 0.13061 1.01292
 C584 C 0.73830 0.12212 1.00134
 C585 C 0.73553 0.11421 0.97911
 C586 C 0.71433 0.11465 0.96869
 C587 C 0.69592 0.12337 0.98028
 C588 C 0.69862 0.13144 1.00234
 C589 C 0.76067 0.12198 1.01230
 C590 C 0.76350 0.11222 1.03357
 C591 C 0.78473 0.11220 1.04393
 C592 C 0.80317 0.12231 1.03327
 C593 C 0.80040 0.13225 1.01217
 C594 C 0.77927 0.13189 1.00164
 H595 H 0.72175 0.13704 1.02996
 H596 H 0.74976 0.10750 0.97007
 H597 H 0.74927 0.10434 1.04184
 H598 H 0.77719 0.13970 0.98534
 H599 H 0.67956 0.12394 0.97213
 H600 H 0.81960 0.12240 1.04132
 C601 C 0.21998 0.63159 0.51195
 C602 C 0.23874 0.62334 0.50043
 C603 C 0.23608 0.61522 0.47826
 C604 C 0.21488 0.61525 0.46783
 C605 C 0.19631 0.62372 0.47936
 C606 C 0.19888 0.63197 0.50136
 C607 C 0.26115 0.62379 0.51135
 C608 C 0.26412 0.61492 0.53301
 C609 C 0.28536 0.61561 0.54336
 C610 C 0.30365 0.62551 0.53229
 C611 C 0.30076 0.63453 0.51081
 C612 C 0.27963 0.63349 0.50029
 H613 H 0.22191 0.63822 0.52892
 H614 H 0.25042 0.60871 0.46924
 H615 H 0.25001 0.60722 0.54163
 H616 H 0.27746 0.64064 0.48370
 H617 H 0.17994 0.62398 0.47119
 H618 H 0.32007 0.62620 0.54037
 C619 C 0.72255 0.85724 0.49747
 C620 C 0.74172 0.86552 0.50894
 C621 C 0.73950 0.87451 0.53075
 C622 C 0.71833 0.87536 0.54089
 C623 C 0.69934 0.86687 0.52944
 C624 C 0.70146 0.85773 0.50778
 C625 C 0.76404 0.86456 0.49820
 C626 C 0.76724 0.87318 0.47648
 C627 C 0.78845 0.87231 0.46643
 C628 C 0.80644 0.86248 0.47785
 C629 C 0.80332 0.85370 0.49939
 C630 C 0.78224 0.85491 0.50962
 H631 H 0.72413 0.85006 0.48073
 H632 H 0.75416 0.88116 0.53965
 H633 H 0.75336 0.88087 0.46761
 H634 H 0.77988 0.84803 0.52630
 H635 H 0.68296 0.86740 0.53734
 H636 H 0.82285 0.86173 0.47002
 C637 C -0.00364 0.22142 0.35402
 C638 C 0.00790 0.24042 0.36262
 C639 C 0.02962 0.23802 0.37169
 C640 C 0.03959 0.21683 0.37231
 C641 C 0.02807 0.19802 0.36348
 C642 C 0.00651 0.20032 0.35425
 C643 C -0.00262 0.26276 0.36185
 C644 C -0.02422 0.26597 0.37073
 C645 C -0.03408 0.28721 0.36999
 C646 C -0.02262 0.30520 0.36000
 C647 C -0.00121 0.30207 0.35096
 C648 C 0.00886 0.28096 0.35207
 H649 H -0.02032 0.22315 0.34678
 H650 H 0.03858 0.25255 0.37857
 H651 H -0.03313 0.25207 0.37850
 H652 H 0.02543 0.27860 0.34499
 H653 H 0.03585 0.18162 0.36381
 H654 H -0.03032 0.32162 0.35931
 C655 C 1.01117 0.71991 0.12875
 C656 C 0.99983 0.73870 0.12044
 C657 C 0.97769 0.73609 0.11226
 C658 C 0.96711 0.71491 0.11230
 C659 C 0.97846 0.69631 0.12084
 C660 C 1.00043 0.69884 0.12916
 C661 C 1.01092 0.76109 0.12095
 C662 C 1.03260 0.76409 0.11210
 C663 C 1.04318 0.78527 0.11300
 C664 C 1.03230 0.80346 0.12308
 C665 C 1.01077 0.80054 0.13206
 C666 C 1.00003 0.77948 0.13082
 H667 H 1.02811 0.72182 0.13543
 H668 H 0.96882 0.75047 0.10571
 H669 H 1.04110 0.75003 0.10431
 H670 H 0.98343 0.77727 0.13798
 H671 H 0.97017 0.67996 0.12113
 H672 H 1.04055 0.81983 0.12395
 C673 C 0.51221 0.22035 0.62794
 C674 C 0.50084 0.23904 0.61943
 C675 C 0.47873 0.23631 0.61122
 C676 C 0.46820 0.21510 0.61142
 C677 C 0.47957 0.19661 0.62014
 C678 C 0.50152 0.19925 0.62848
 C679 C 0.51185 0.26148 0.61977
 C680 C 0.53359 0.26446 0.61104
 C681 C 0.54405 0.28571 0.61171
 C682 C 0.53299 0.30399 0.62143
 C683 C 0.51141 0.30108 0.63029
 C684 C 0.50080 0.27995 0.62929
 H685 H 0.52914 0.22235 0.63465
 H686 H 0.46983 0.25060 0.60453
 H687 H 0.54221 0.25035 0.60350
 H688 H 0.48415 0.27776 0.63634
 H689 H 0.47131 0.18025 0.62056
 H690 H 0.54115 0.32040 0.62211
 C691 C 0.49550 0.72087 0.85487
 C692 C 0.50700 0.73995 0.86336
 C693 C 0.52876 0.73767 0.87238
 C694 C 0.53881 0.71652 0.87305
 C695 C 0.52733 0.69763 0.86435
 C696 C 0.50574 0.69981 0.85518
 C697 C 0.49636 0.76224 0.86258
 C698 C 0.47471 0.76532 0.87136
 C699 C 0.46474 0.78651 0.87064
 C700 C 0.47618 0.80460 0.86079
 C701 C 0.49766 0.80161 0.85186
 C702 C 0.50781 0.78054 0.85293
 H703 H 0.47880 0.72250 0.84767
 H704 H 0.53767 0.75225 0.87919
 H705 H 0.46582 0.75135 0.87905
 H706 H 0.52444 0.77829 0.84594
 H707 H 0.53517 0.68127 0.86474
 H708 H 0.46841 0.82098 0.86013
 C709 C 0.40371 -0.09584 0.29772
 C710 C 0.39107 -0.11552 0.30263
 C711 C 0.40229 -0.13545 0.30907
 C712 C 0.42607 -0.13558 0.31056
 C713 C 0.43873 -0.11621 0.30466
 C714 C 0.42751 -0.09628 0.29822
 C715 C 0.44053 -0.07705 0.29264
 C716 C 0.46395 -0.07750 0.29338
 C717 C 0.47491 -0.09698 0.29969
 C718 C 0.46253 -0.11616 0.30529
 C719 C 0.38930 -0.15484 0.31414
 C720 C 0.36589 -0.15457 0.31285
 C721 C 0.35493 -0.13508 0.30656
 C722 C 0.36729 -0.11572 0.30151
 C723 C 0.43740 -0.15504 0.31962
 C724 C 0.44676 -0.17078 0.32806
 C725 C 0.39227 -0.07489 0.29327
 C726 C 0.38298 -0.05728 0.29016
 H727 H 0.43277 -0.06152 0.28758
 H728 H 0.47365 -0.06265 0.28903
 H729 H 0.49311 -0.09725 0.30023
 H730 H 0.47181 -0.13094 0.31002
 H731 H 0.39708 -0.17042 0.31904
 H732 H 0.35621 -0.16956 0.31674
 H733 H 0.33674 -0.13495 0.30557
 H734 H 0.35802 -0.10098 0.29665
 C735 C 0.90279 0.40288 0.79925
 C736 C 0.89007 0.38293 0.80271
 C737 C 0.90106 0.36292 0.80930
 C738 C 0.92470 0.36298 0.81240
 C739 C 0.93751 0.38267 0.80796
 C740 C 0.92653 0.40267 0.80137
 C741 C 0.93968 0.42221 0.79728
 C742 C 0.96301 0.42198 0.79960
 C743 C 0.97375 0.40242 0.80604
 C744 C 0.96123 0.38294 0.81021
 C745 C 0.88798 0.34324 0.81289
 C746 C 0.86469 0.34332 0.81002
 C747 C 0.85395 0.36288 0.80358
 C748 C 0.86641 0.38252 0.79997
 C749 C 0.93566 0.34335 0.82155
 C750 C 0.94475 0.32749 0.83004
 C751 C 0.89145 0.42384 0.79459
 C752 C 0.88228 0.44149 0.79132
 H753 H 0.93210 0.43782 0.79218
 H754 H 0.97281 0.43706 0.79638
 H755 H 0.99188 0.40232 0.80781
 H756 H 0.97035 0.36812 0.81511
 H757 H 0.89559 0.32760 0.81785
 H758 H 0.85494 0.32811 0.81279
 H759 H 0.83586 0.36285 0.80137
 H760 H 0.85731 0.39731 0.79493
 C761 C 0.08629 1.10507 0.80094
 C762 C 0.06701 1.11177 0.78872
 C763 C 0.05573 1.13180 0.79490
 C764 C 0.06381 1.14503 0.81324
 C765 C 0.08362 1.13882 0.82486
 C766 C 0.09489 1.11877 0.81870
 C767 C 0.11450 1.11276 0.83075
 C768 C 0.12278 1.12619 0.84835
 C769 C 0.11177 1.14580 0.85437
 C770 C 0.09241 1.15211 0.84283
 C771 C 0.03634 1.13801 0.78262
 C772 C 0.02835 1.12483 0.76470
 C773 C 0.03939 1.10525 0.75865
 C774 C 0.05850 1.09870 0.77048
 C775 C 0.05103 1.16415 0.82114
 C776 C 0.04027 1.17952 0.82862
 C777 C 0.09665 1.08363 0.79601
 C778 C 0.10506 1.06561 0.79249
 H779 H 0.12368 1.09769 0.82667
 H780 H 0.13781 1.12136 0.85737
 H781 H 0.11827 1.15618 0.86805
 H782 H 0.08448 1.16754 0.84809
 H783 H 0.02722 1.15313 0.78667
 H784 H 0.01351 1.12985 0.75545
 H785 H 0.03312 1.09508 0.74471
 H786 H 0.06654 1.08335 0.76512
 C787 C 0.58794 0.60758 0.29820
 C788 C 0.56831 0.61391 0.28635
 C789 C 0.55712 0.63406 0.29236
 C790 C 0.56564 0.64774 0.31015
 C791 C 0.58582 0.64190 0.32134
 C792 C 0.59699 0.62175 0.31537
 C793 C 0.61696 0.61611 0.32700
 C794 C 0.62568 0.63000 0.34403
 C795 C 0.61478 0.64972 0.34986
 C796 C 0.59506 0.65568 0.33872
 C797 C 0.53737 0.63990 0.28046
 C798 C 0.52893 0.62626 0.26309
 C799 C 0.53988 0.60657 0.25722
 C800 C 0.55934 0.60038 0.26866
 C801 C 0.55293 0.66692 0.31802
 C802 C 0.54220 0.68231 0.32550
 C803 C 0.59818 0.58602 0.29355
 C804 C 0.60642 0.56788 0.29022
 H805 H 0.62608 0.60097 0.32303
 H806 H 0.64098 0.62544 0.35274
 H807 H 0.62162 0.66046 0.36309
 H808 H 0.58723 0.67121 0.34381
 H809 H 0.52832 0.65509 0.28440
 H810 H 0.51383 0.63100 0.25414
 H811 H 0.53325 0.59604 0.24371
 H812 H 0.56729 0.58494 0.26346
 C813 C 0.58231 0.40799 0.20823
 C814 C 0.55917 0.40643 0.20255
 C815 C 0.54928 0.38518 0.19702
 C816 C 0.56260 0.36562 0.19719
 C817 C 0.58548 0.36705 0.20386
 C818 C 0.59537 0.38830 0.20941
 C819 C 0.61833 0.38934 0.21581
 C820 C 0.63116 0.36992 0.21675
 C821 C 0.62150 0.34914 0.21132
 C822 C 0.59893 0.34762 0.20492
 C823 C 0.52617 0.38408 0.19116
 C824 C 0.51319 0.40341 0.19081
 C825 C 0.52285 0.42418 0.19620
 C826 C 0.54557 0.42578 0.20201
 C827 C 0.55315 0.34443 0.18898
 C828 C 0.54528 0.32727 0.18112
 C829 C 0.59282 0.42992 0.21187
 C830 C 0.60141 0.44826 0.21432
 H831 H 0.62658 0.40512 0.22022
 H832 H 0.64870 0.37101 0.22172
 H833 H 0.63153 0.33411 0.21209
 H834 H 0.59212 0.33109 0.20092
 H835 H 0.51788 0.36829 0.18691
 H836 H 0.49553 0.40225 0.18632
 H837 H 0.51270 0.43915 0.19590
 H838 H 0.55231 0.44231 0.20612
 C839 C 0.08862 0.90470 0.70814
 C840 C 0.09948 0.89057 0.69242
 C841 C 0.08984 0.86928 0.68665
 C842 C 0.06938 0.86225 0.69662
 C843 C 0.05902 0.87597 0.71303
 C844 C 0.06867 0.89727 0.71881
 C845 C 0.05790 0.91080 0.73509
 C846 C 0.03816 0.90349 0.74539
 C847 C 0.02872 0.88267 0.73972
 C848 C 0.03895 0.86900 0.72372
 C849 C 0.10088 0.85555 0.67070
 C850 C 0.12088 0.86265 0.66076
 C851 C 0.13030 0.88347 0.66640
 C852 C 0.11979 0.89735 0.68202
 C853 C 0.05837 0.84164 0.68885
 C854 C 0.04932 0.82494 0.68126
 C855 C 0.09743 0.92723 0.71246
 C856 C 0.10473 0.94605 0.71536
 H857 H 0.06464 0.92711 0.74006
 H858 H 0.03015 0.91403 0.75784
 H859 H 0.01338 0.87707 0.74777
 H860 H 0.03103 0.85291 0.71990
 H861 H 0.09425 0.83918 0.66581
 H862 H 0.12911 0.85193 0.64862
 H863 H 0.14585 0.88891 0.65864
 H864 H 0.12780 0.91338 0.68589
 C865 C 0.90699 0.59886 0.71193
 C866 C 0.93069 0.59999 0.71439
 C867 C 0.94254 0.62014 0.70904
 C868 C 0.93062 0.63904 0.70129
 C869 C 0.90684 0.63827 0.69989
 C870 C 0.89499 0.61810 0.70522
 C871 C 0.87124 0.61764 0.70342
 C872 C 0.85953 0.63657 0.69660
 C873 C 0.87112 0.65628 0.69140
 C874 C 0.89451 0.65721 0.69297
 C875 C 0.96625 0.62077 0.71133
 C876 C 0.97793 0.60204 0.71874
 C877 C 0.96635 0.58234 0.72399
 C878 C 0.94300 0.58122 0.72185
 C879 C 0.94292 0.65856 0.69314
 C880 C 0.95344 0.67412 0.68540
 C881 C 0.89518 0.57761 0.71516
 C882 C 0.88572 0.55970 0.71730
 H883 H 0.86150 0.60270 0.70734
 H884 H 0.84136 0.63594 0.69536
 H885 H 0.86193 0.67094 0.68612
 H886 H 0.90279 0.67293 0.68882
 H887 H 0.97600 0.63573 0.70753
 H888 H 0.99607 0.60282 0.72043
 H889 H 0.97550 0.56784 0.72974
 H890 H 0.93474 0.56554 0.72618
 C891 C 0.40425 0.10069 0.21044
 C892 C 0.42712 0.10347 0.21681
 C893 C 0.43892 0.12362 0.21137
 C894 C 0.42778 0.14088 0.19962
 C895 C 0.40462 0.13856 0.19427
 C896 C 0.39282 0.11840 0.19968
 C897 C 0.36975 0.11634 0.19388
 C898 C 0.35864 0.13374 0.18308
 C899 C 0.37018 0.15346 0.17781
 C900 C 0.39291 0.15593 0.18328
 C901 C 0.46186 0.12588 0.21763
 C902 C 0.47282 0.10874 0.22898
 C903 C 0.46127 0.08904 0.23430
 C904 C 0.43869 0.08633 0.22832
 C905 C 0.44051 0.16016 0.19155
 C906 C 0.45136 0.17554 0.18393
 C907 C 0.39289 0.07922 0.21383
 C908 C 0.38383 0.06113 0.21609
 H909 H 0.36006 0.10134 0.19769
 H910 H 0.34098 0.13191 0.17880
 H911 H 0.36146 0.16694 0.16944
 H912 H 0.40116 0.17161 0.17890
 H913 H 0.47152 0.14093 0.21392
 H914 H 0.49036 0.11077 0.23367
 H915 H 0.46986 0.07578 0.24313
 H916 H 0.43040 0.07073 0.23288
 C917 C 0.29971 0.39713 -0.09886
 C918 C 0.31818 0.38905 -0.11132
 C919 C 0.32471 0.39998 -0.13147
 C920 C 0.31273 0.41894 -0.13904
 C921 C 0.29372 0.42646 -0.12707
 C922 C 0.28718 0.41552 -0.10690
 C923 C 0.26825 0.42347 -0.09509
 C924 C 0.25609 0.44169 -0.10299
 C925 C 0.26249 0.45238 -0.12270
 C926 C 0.28109 0.44493 -0.13466
 C927 C 0.34339 0.39173 -0.14351
 C928 C 0.35526 0.37322 -0.13587
 C929 C 0.34888 0.36254 -0.11617
 C930 C 0.33058 0.37030 -0.10396
 C931 C 0.32082 0.43131 -0.15841
 C932 C 0.32859 0.44147 -0.17408
 C933 C 0.29440 0.38721 -0.07725
 C934 C 0.29080 0.37911 -0.05907
 H935 H 0.26262 0.41565 -0.07971
 H936 H 0.24163 0.44753 -0.09377
 H937 H 0.25298 0.46652 -0.12877
 H938 H 0.28539 0.45374 -0.14994
 H939 H 0.34898 0.39943 -0.15897
 H940 H 0.36948 0.36712 -0.14531
 H941 H 0.35815 0.34816 -0.11031
 H942 H 0.32625 0.36140 -0.08875
 C943 C 0.80180 0.89994 0.40500
 C944 C 0.82281 0.89509 0.39512
 C945 C 0.82925 0.90582 0.37484
 C946 C 0.81464 0.92136 0.36454
 C947 C 0.79336 0.92572 0.37406
 C948 C 0.78692 0.91498 0.39436
 C949 C 0.76564 0.91972 0.40366
 C950 C 0.75112 0.93464 0.39318
 C951 C 0.75742 0.94514 0.37334
 C952 C 0.77830 0.94081 0.36382
 C953 C 0.85043 0.90082 0.36539
 C954 C 0.86482 0.88566 0.37568
 C955 C 0.85852 0.87517 0.39551
 C956 C 0.83779 0.87977 0.40520
 C957 C 0.82207 0.93342 0.34472
 C958 C 0.82943 0.94329 0.32868
 C959 C 0.79602 0.89008 0.42651
 C960 C 0.79211 0.88194 0.44460
 H961 H 0.76000 0.91192 0.41905
 H962 H 0.73488 0.93806 0.40050
 H963 H 0.74608 0.95671 0.36528
 H964 H 0.78246 0.94933 0.34835
 H965 H 0.85610 0.90850 0.34996
 H966 H 0.88094 0.88204 0.36822
 H967 H 0.86976 0.86341 0.40344
 H968 H 0.83366 0.87115 0.42062
 C969 C 0.79483 0.07969 1.10357
 C970 C 0.79639 0.09162 1.12425
 C971 C 0.80227 0.08013 1.14430
 C972 C 0.80655 0.05678 1.14351
 C973 C 0.80404 0.04467 1.12300
 C974 C 0.79817 0.05616 1.10297
 C975 C 0.79600 0.04373 1.08262
 C976 C 0.79951 0.02061 1.08208
 C977 C 0.80526 0.00938 1.10166
 C978 C 0.80754 0.02118 1.12193
 C979 C 0.80395 0.09243 1.16474
 C980 C 0.79989 0.11546 1.16538
 C981 C 0.79414 0.12670 1.14579
 C982 C 0.79242 0.11500 1.12540
 C983 C 0.81506 0.04545 1.16332
 C984 C 0.82313 0.03573 1.17910
 C985 C 0.79072 0.09164 1.08275
 C986 C 0.78780 0.10121 1.06519
 H987 H 0.79151 0.05170 1.06694
 H988 H 0.79775 0.01137 1.06638
 H989 H 0.80796 -0.00858 1.10116
 H990 H 0.81196 0.01168 1.13673
 H991 H 0.80830 0.08439 1.18042
 H992 H 0.80120 0.12462 1.18117
 H993 H 0.79100 0.14458 1.14638
 H994 H 0.78786 0.12446 1.11061
 C995 C 0.29638 0.58688 0.60478
 C996 C 0.31331 0.59604 0.61916
 C997 C 0.31930 0.58467 0.63923
 C998 C 0.30836 0.56418 0.64478
 C999 C 0.29075 0.55555 0.63091
 C1000 C 0.28473 0.56695 0.61086
 C1001 C 0.26723 0.55788 0.59714
 C1002 C 0.25597 0.53813 0.60309
 C1003 C 0.26187 0.52698 0.62268
 C1004 C 0.27907 0.53551 0.63650
 C1005 C 0.33645 0.59402 0.65321
 C1006 C 0.34735 0.61405 0.64753
 C1007 C 0.34150 0.62516 0.62791
 C1008 C 0.32470 0.61633 0.61381
 C1009 C 0.31633 0.55127 0.66381
 C1010 C 0.32392 0.54040 0.67905
 C1011 C 0.29181 0.59733 0.58326
 C1012 C 0.28860 0.60578 0.56516
 H1013 H 0.26202 0.56599 0.58177
 H1014 H 0.24260 0.53144 0.59242
 H1015 H 0.25308 0.51164 0.62722
 H1016 H 0.28302 0.52629 0.65161
 H1017 H 0.34155 0.58603 0.66868
 H1018 H 0.36041 0.62098 0.65843
 H1019 H 0.35002 0.64071 0.62357
 H1020 H 0.32070 0.62562 0.59875
 C1021 C 0.20444 0.59039 0.40407
 C1022 C 0.18739 0.60006 0.39068
 C1023 C 0.18167 0.59036 0.36942
 C1024 C 0.19303 0.57102 0.36169
 C1025 C 0.21065 0.56185 0.37470
 C1026 C 0.21638 0.57157 0.39596
 C1027 C 0.23392 0.56201 0.40876
 C1028 C 0.24549 0.54337 0.40078
 C1029 C 0.23987 0.53385 0.38000
 C1030 C 0.22265 0.54291 0.36704
 C1031 C 0.16440 0.60020 0.35644
 C1032 C 0.15312 0.61909 0.36422
 C1033 C 0.15871 0.62858 0.38501
 C1034 C 0.17561 0.61924 0.39816
 C1035 C 0.18560 0.55990 0.34103
 C1036 C 0.17831 0.55076 0.32426
 C1037 C 0.20895 0.59924 0.42653
 C1038 C 0.21200 0.60655 0.44531
 H1039 H 0.23891 0.56885 0.42501
 H1040 H 0.25888 0.53627 0.41078
 H1041 H 0.24891 0.51938 0.37388
 H1042 H 0.21891 0.53498 0.35095
 H1043 H 0.15948 0.59347 0.34013
 H1044 H 0.13998 0.62641 0.35406
 H1045 H 0.14990 0.64325 0.39098
 H1046 H 0.17937 0.62725 0.41420
 C1047 C 0.70341 0.08989 0.90496
 C1048 C 0.68657 0.09987 0.89153
 C1049 C 0.68065 0.09020 0.87031
 C1050 C 0.69158 0.07058 0.86266
 C1051 C 0.70899 0.06108 0.87571
 C1052 C 0.71493 0.07078 0.89693
 C1053 C 0.73224 0.06087 0.90978
 C1054 C 0.74339 0.04194 0.90188
 C1055 C 0.73758 0.03247 0.88114
 C1056 C 0.72057 0.04185 0.86813
 C1057 C 0.66359 0.10035 0.85729
 C1058 C 0.65272 0.11952 0.86500
 C1059 C 0.65851 0.12898 0.88575
 C1060 C 0.67522 0.11934 0.89894
 C1061 C 0.68392 0.05953 0.84205
 C1062 C 0.67646 0.05044 0.82532
 C1063 C 0.70809 0.09873 0.92740
 C1064 C 0.71128 0.10602 0.94617
 H1065 H 0.73737 0.06768 0.92600
 H1066 H 0.75662 0.03460 0.91191
 H1067 H 0.74629 0.01776 0.87508
 H1068 H 0.71666 0.03393 0.85208
 H1069 H 0.65852 0.09365 0.84101
 H1070 H 0.63973 0.12707 0.85481
 H1071 H 0.65002 0.14387 0.89166
 H1072 H 0.67915 0.12734 0.91494
 C1073 C 0.70934 0.90493 0.60263
 C1074 C 0.69308 0.89584 0.61741
 C1075 C 0.68753 0.90764 0.63748
 C1076 C 0.69826 0.92847 0.64264
 C1077 C 0.71530 0.93700 0.62843
 C1078 C 0.72087 0.92519 0.60836
 C1079 C 0.73778 0.93418 0.59427
 C1080 C 0.74890 0.95426 0.59987
 C1081 C 0.74344 0.96581 0.61948
 C1082 C 0.72683 0.95737 0.63366
 C1083 C 0.67103 0.89835 0.65186
 C1084 C 0.66031 0.87798 0.64656
 C1085 C 0.66572 0.86646 0.62692
 C1086 C 0.68189 0.87522 0.61244
 C1087 C 0.69053 0.94184 0.66158
 C1088 C 0.68310 0.95312 0.67669
 C1089 C 0.71326 0.89412 0.58102
 C1090 C 0.71587 0.88542 0.56283
 H1091 H 0.74264 0.92576 0.57887
 H1092 H 0.76182 0.96088 0.58892
 H1093 H 0.75214 0.98140 0.62375
 H1094 H 0.72322 0.96690 0.64877
 H1095 H 0.66631 0.90665 0.66737
 H1096 H 0.64775 0.87111 0.65777
 H1097 H 0.65735 0.85065 0.62288
 H1098 H 0.68557 0.86561 0.59739
 C1099 C 0.21199 0.40808 0.09896
 C1100 C 0.21494 0.43174 0.09991
 C1101 C 0.20960 0.44374 0.11993
 C1102 C 0.20136 0.43202 0.13886
 C1103 C 0.19951 0.40826 0.13828
 C1104 C 0.20483 0.39626 0.11826
 C1105 C 0.20257 0.37254 0.11798
 C1106 C 0.19529 0.36100 0.13696
 C1107 C 0.19009 0.37275 0.15654
 C1108 C 0.19212 0.39611 0.15728
 C1109 C 0.21238 0.46742 0.12039
 C1110 C 0.22025 0.47890 0.10162
 C1111 C 0.22549 0.46717 0.08205
 C1112 C 0.22288 0.44386 0.08111
 C1113 C 0.19314 0.44450 0.15817
 C1114 C 0.18531 0.45511 0.17356
 C1115 C 0.21513 0.39614 0.07780
 C1116 C 0.21715 0.38654 0.05999
 H1117 H 0.20647 0.36268 0.10315
 H1118 H 0.19369 0.34285 0.13648
 H1119 H 0.18446 0.36370 0.17124
 H1120 H 0.18795 0.40452 0.17290
 H1121 H 0.20860 0.47727 0.13525
 H1122 H 0.22232 0.49701 0.10227
 H1123 H 0.23161 0.47617 0.06752
 H1124 H 0.22722 0.43547 0.06553
 C1125 C -0.09510 0.30043 0.39839
 C1126 C -0.10711 0.31921 0.39046
 C1127 C -0.12711 0.32594 0.40145
 C1128 C -0.13498 0.31386 0.42034
 C1129 C -0.12339 0.29463 0.42779
 C1130 C -0.10339 0.28789 0.41677
 C1131 C -0.09198 0.26873 0.42463
 C1132 C -0.10012 0.25655 0.44285
 C1133 C -0.11968 0.26314 0.45362
 C1134 C -0.13124 0.28197 0.44626
 C1135 C -0.13871 0.34489 0.39333
 C1136 C -0.13079 0.35685 0.37488
 C1137 C -0.11122 0.35028 0.36414
 C1138 C -0.09945 0.33170 0.37176
 C1139 C -0.15430 0.32200 0.43267
 C1140 C -0.16995 0.32980 0.44276
 C1141 C -0.07373 0.29476 0.38824
 C1142 C -0.05576 0.29087 0.37988
 H1143 H -0.07673 0.26294 0.41676
 H1144 H -0.09120 0.24192 0.44864
 H1145 H -0.12593 0.25362 0.46776
 H1146 H -0.14640 0.28643 0.45513
 H1147 H -0.15403 0.35065 0.40109
 H1148 H -0.13988 0.37129 0.36889
 H1149 H -0.10513 0.35962 0.34981
 H1150 H -0.08435 0.32722 0.36281
 C1151 C 0.40353 0.79947 0.89874
 C1152 C 0.39154 0.81824 0.89077
 C1153 C 0.37151 0.82497 0.90172
 C1154 C 0.36359 0.81289 0.92058
 C1155 C 0.37514 0.79364 0.92804
 C1156 C 0.39518 0.78690 0.91708
 C1157 C 0.40655 0.76773 0.92495
 C1158 C 0.39834 0.75554 0.94313
 C1159 C 0.37875 0.76212 0.95384
 C1160 C 0.36722 0.78096 0.94646
 C1161 C 0.35994 0.84394 0.89358
 C1162 C 0.36793 0.85590 0.87515
 C1163 C 0.38751 0.84933 0.86446
 C1164 C 0.39926 0.83074 0.87211
 C1165 C 0.34426 0.82105 0.93288
 C1166 C 0.32861 0.82887 0.94295
 C1167 C 0.42497 0.79385 0.88870
 C1168 C 0.44300 0.79005 0.88043
 H1169 H 0.42182 0.76194 0.91712
 H1170 H 0.40723 0.74089 0.94893
 H1171 H 0.37245 0.75258 0.96795
 H1172 H 0.35203 0.78542 0.95529
 H1173 H 0.34460 0.84970 0.90129
 H1174 H 0.35886 0.87035 0.86914
 H1175 H 0.39365 0.85867 0.85015
 H1176 H 0.41438 0.82626 0.86319
 C1177 C 1.10497 0.79625 0.08478
 C1178 C 1.11074 0.78545 0.06433
 C1179 C 1.13105 0.79146 0.05326
 C1180 C 1.14546 0.80822 0.06273
 C1181 C 1.14018 0.81828 0.08369
 C1182 C 1.11986 0.81229 0.09474
 C1183 C 1.11480 0.82280 0.11553
 C1184 C 1.12941 0.83873 0.12516
 C1185 C 1.14929 0.84457 0.11437
 C1186 C 1.15469 0.83453 0.09386
 C1187 C 1.13634 0.78065 0.03270
 C1188 C 1.12199 0.76430 0.02335
 C1189 C 1.10214 0.75842 0.03418
 C1190 C 1.09648 0.76883 0.05443
 C1191 C 1.16481 0.81630 0.05022
 C1192 C 1.18032 0.82398 0.03967
 C1193 C 1.08328 0.79171 0.09501
 C1194 C 1.06508 0.78851 0.10331
 H1195 H 1.09956 0.81878 0.12459
 H1196 H 1.12529 0.84658 0.14109
 H1197 H 1.16059 0.85695 0.12193
 H1198 H 1.17038 0.83958 0.08615
 H1199 H 1.15163 0.78463 0.02371
 H1200 H 1.12631 0.75616 0.00763
 H1201 H 1.09106 0.74571 0.02685
 H1202 H 1.08088 0.76366 0.06225
 C1203 C 0.60594 0.29663 0.58370
 C1204 C 0.61170 0.28595 0.56318
 C1205 C 0.63204 0.29197 0.55218
 C1206 C 0.64650 0.30860 0.56178
 C1207 C 0.64123 0.31854 0.58280
 C1208 C 0.62088 0.31255 0.59379
 C1209 C 0.61582 0.32295 0.61464
 C1210 C 0.63048 0.33877 0.62439
 C1211 C 0.65039 0.34461 0.61366
 C1212 C 0.65579 0.33468 0.59310
 C1213 C 0.63731 0.28128 0.53155
 C1214 C 0.62291 0.26506 0.52207
 C1215 C 0.60302 0.25917 0.53283
 C1216 C 0.59738 0.26946 0.55315
 C1217 C 0.66589 0.31670 0.54935
 C1218 C 0.68144 0.32441 0.53888
 C1219 C 0.58422 0.29211 0.59386
 C1220 C 0.56599 0.28893 0.60210
 H1221 H 0.60056 0.31892 0.62365
 H1222 H 0.62636 0.34654 0.64035
 H1223 H 0.66173 0.35690 0.62131
 H1224 H 0.67150 0.33971 0.58544
 H1225 H 0.65262 0.28526 0.52260
 H1226 H 0.62721 0.25701 0.50629
 H1227 H 0.59190 0.24656 0.52540
 H1228 H 0.58176 0.26429 0.56091
 C1229 C 0.40447 0.20452 0.58660
 C1230 C 0.39033 0.18874 0.59750
 C1231 C 0.36906 0.18285 0.58794
 C1232 C 0.36205 0.19275 0.56751
 C1233 C 0.37581 0.20917 0.55707
 C1234 C 0.39709 0.21508 0.56664
 C1235 C 0.41065 0.23137 0.55579
 C1236 C 0.40338 0.24155 0.53604
 C1237 C 0.38258 0.23577 0.52668
 C1238 C 0.36888 0.21975 0.53699
 C1239 C 0.35532 0.16685 0.59904
 C1240 C 0.36239 0.15698 0.61902
 C1241 C 0.38319 0.16274 0.62836
 C1242 C 0.39708 0.17841 0.61780
 C1243 C 0.34137 0.18498 0.55666
 C1244 C 0.32458 0.17741 0.54777
 C1245 C 0.42694 0.20907 0.59540
 C1246 C 0.44571 0.21216 0.60270
 H1247 H 0.42693 0.23644 0.56247
 H1248 H 0.41395 0.25401 0.52797
 H1249 H 0.37701 0.24373 0.51134
 H1250 H 0.35281 0.21583 0.52913
 H1251 H 0.33896 0.16186 0.59247
 H1252 H 0.35165 0.14481 0.62729
 H1253 H 0.38861 0.15502 0.64388
 H1254 H 0.41310 0.18237 0.62574
 C1255 C 0.90338 0.70461 0.08734
 C1256 C 0.89644 0.71446 0.06687
 C1257 C 0.87519 0.70852 0.05724
 C1258 C 0.86102 0.69278 0.06816
 C1259 C 0.86757 0.68364 0.08910
 C1260 C 0.88882 0.68956 0.09871
 C1261 C 0.89511 0.68000 0.11952
 C1262 C 0.88080 0.66504 0.13054
 C1263 C 0.86003 0.65925 0.12115
 C1264 C 0.85340 0.66838 0.10067
 C1265 C 0.86871 0.71839 0.03665
 C1266 C 0.88281 0.73373 0.02588
 C1267 C 0.90358 0.73955 0.03529
 C1268 C 0.91042 0.73006 0.05554
 C1269 C 0.84039 0.68486 0.05729
 C1270 C 0.82366 0.67720 0.04838
 C1271 C 0.92584 0.70907 0.09621
 C1272 C 0.94461 0.71207 0.10355
 H1273 H 0.91108 0.68401 0.12753
 H1274 H 0.88587 0.65790 0.14646
 H1275 H 0.84897 0.64763 0.12978
 H1276 H 0.83705 0.66340 0.09407
 H1277 H 0.85268 0.71442 0.02873
 H1278 H 0.87758 0.74116 0.01015
 H1279 H 0.91447 0.75148 0.02686
 H1280 H 0.92670 0.73513 0.06224
 C1281 C 0.60032 0.70729 0.90277
 C1282 C 0.60599 0.71859 0.92314
 C1283 C 0.62599 0.71296 0.93496
 C1284 C 0.64019 0.69608 0.92633
 C1285 C 0.63507 0.68556 0.90540
 C1286 C 0.61507 0.69117 0.89360
 C1287 C 0.61014 0.68019 0.87287
 C1288 C 0.62460 0.66417 0.86403
 C1289 C 0.64417 0.65871 0.87556
 C1290 C 0.64942 0.66921 0.89602
 C1291 C 0.63117 0.72427 0.95544
 C1292 C 0.61702 0.74073 0.96397
 C1293 C 0.59747 0.74625 0.95241
 C1294 C 0.59192 0.73534 0.93223
 C1295 C 0.65908 0.68832 0.93967
 C1296 C 0.67417 0.68092 0.95094
 C1297 C 0.57880 0.71128 0.89191
 C1298 C 0.56068 0.71397 0.88317
 H1299 H 0.59514 0.68392 0.86326
 H1300 H 0.62059 0.65597 0.84814
 H1301 H 0.65536 0.64627 0.86861
 H1302 H 0.66488 0.66445 0.90433
 H1303 H 0.64622 0.72060 0.96498
 H1304 H 0.62125 0.74926 0.97963
 H1305 H 0.58654 0.75905 0.95911
 H1306 H 0.57657 0.74024 0.92381
 C1307 C 0.10099 0.20731 0.40216
 C1308 C 0.10689 0.21899 0.42225
 C1309 C 0.12687 0.21338 0.43411
 C1310 C 0.14082 0.19613 0.42579
 C1311 C 0.13546 0.18520 0.40514
 C1312 C 0.11547 0.19078 0.39330
 C1313 C 0.11030 0.17939 0.37286
 C1314 C 0.12450 0.16298 0.36432
 C1315 C 0.14406 0.15753 0.37588
 C1316 C 0.14956 0.16844 0.39607
 C1317 C 0.13229 0.22509 0.45431
 C1318 C 0.11838 0.24190 0.46254
 C1319 C 0.09885 0.24740 0.45095
 C1320 C 0.09308 0.23611 0.43103
 C1321 C 0.15971 0.18848 0.43920
 C1322 C 0.17480 0.18115 0.45052
 C1323 C 0.07950 0.21139 0.39126
 C1324 C 0.06142 0.21416 0.38248
 H1325 H 0.09530 0.18308 0.36323
 H1326 H 0.12031 0.15445 0.34865
 H1327 H 0.15505 0.14479 0.36917
 H1328 H 0.16499 0.16368 0.40442
 H1329 H 0.14734 0.22144 0.46387
 H1330 H 0.12279 0.25073 0.47799
 H1331 H 0.08811 0.26048 0.45741
 H1332 H 0.07774 0.24101 0.42257
 C1333 C 0.53370 0.14635 0.65760
 C1334 C 0.55685 0.14840 0.66313
 C1335 C 0.56792 0.13049 0.67413
 C1336 C 0.55577 0.11063 0.67954
 C1337 C 0.53267 0.10851 0.67385
 C1338 C 0.52160 0.12643 0.66284
 C1339 C 0.49849 0.12395 0.65736
 C1340 C 0.48665 0.10433 0.66261
 C1341 C 0.49748 0.08681 0.67337
 C1342 C 0.52023 0.08879 0.67897
 C1343 C 0.59106 0.13295 0.67953
 C1344 C 0.60291 0.15254 0.67423
 C1345 C 0.59208 0.17006 0.66348
 C1346 C 0.56932 0.16811 0.65795
 C1347 C 0.56707 0.09248 0.69101
 C1348 C 0.57678 0.07761 0.70053
 C1349 C 0.52228 0.16490 0.64692
 C1350 C 0.51283 0.18047 0.63833
 H1351 H 0.48934 0.13710 0.64896
 H1352 H 0.46898 0.10271 0.65830
 H1353 H 0.48821 0.07160 0.67741
 H1354 H 0.52792 0.07471 0.68733
 H1355 H 0.60023 0.11979 0.68789
 H1356 H 0.62059 0.15414 0.67848
 H1357 H 0.60136 0.18525 0.65939
 H1358 H 0.56164 0.18219 0.64958
 C1359 C 1.03294 0.64583 0.15769
 C1360 C 1.02107 0.62570 0.16266
 C1361 C 1.03235 0.60778 0.17345
 C1362 C 1.05542 0.61012 0.17920
 C1363 C 1.06733 0.63019 0.17406
 C1364 C 1.05605 0.64810 0.16328
 C1365 C 1.06829 0.66802 0.15836
 C1366 C 1.09103 0.67017 0.16392
 C1367 C 1.10206 0.65266 0.17446
 C1368 C 1.09044 0.63286 0.17952
 C1369 C 1.02014 0.58784 0.17830
 C1370 C 0.99743 0.58565 0.17263
 C1371 C 0.98640 0.60316 0.16207
 C1372 C 0.99800 0.62300 0.15710
 C1373 C 1.06695 0.59196 0.19043
 C1374 C 1.07688 0.57711 0.19974
 C1375 C 1.02132 0.66437 0.14721
 C1376 C 1.01176 0.67997 0.13879
 H1377 H 1.06046 0.68211 0.15015
 H1378 H 1.10013 0.68552 0.16002
 H1379 H 1.11973 0.65441 0.17874
 H1380 H 1.09977 0.61972 0.18772
 H1381 H 1.02800 0.57375 0.18649
 H1382 H 0.98834 0.57027 0.17644
 H1383 H 0.96876 0.60137 0.15770
 H1384 H 0.98870 0.63614 0.14886
 C1385 C 0.97877 0.85212 0.16411
 C1386 C 0.99001 0.87281 0.16871
 C1387 C 0.97862 0.89029 0.18025
 C1388 C 0.95607 0.88697 0.18709
 C1389 C 0.94483 0.86627 0.18248
 C1390 C 0.95621 0.84880 0.17096
 C1391 C 0.94463 0.82826 0.16654
 C1392 C 0.92243 0.82508 0.17330
 C1393 C 0.91129 0.84217 0.18456
 C1394 C 0.92227 0.86256 0.18915
 C1395 C 0.99019 0.91082 0.18467
 C1396 C 1.01239 0.91400 0.17788
 C1397 C 1.02352 0.89691 0.16660
 C1398 C 1.01255 0.87651 0.16203
 C1399 C 0.94428 0.90484 0.19866
 C1400 C 0.93400 0.91943 0.20812
 C1401 C 0.99039 0.83417 0.15250
 C1402 C 0.99980 0.81899 0.14304
 H1403 H 0.95256 0.81446 0.15782
 H1404 H 0.91382 0.80927 0.16978
 H1405 H 0.89404 0.83962 0.18979
 H1406 H 0.91289 0.87533 0.19796
 H1407 H 0.98223 0.92460 0.19340
 H1408 H 1.02100 0.92981 0.18139
 H1409 H 1.04076 0.89946 0.16136
 H1410 H 1.02190 0.86372 0.15321
 C1411 C 0.47884 0.35294 0.66130
 C1412 C 0.49037 0.37317 0.66713
 C1413 C 0.47884 0.39063 0.67854
 C1414 C 0.45585 0.38776 0.68403
 C1415 C 0.44430 0.36757 0.67809
 C1416 C 0.45582 0.35011 0.66669
 C1417 C 0.44392 0.33007 0.66095
 C1418 C 0.42127 0.32736 0.66630
 C1419 C 0.41000 0.34444 0.67745
 C1420 C 0.42128 0.36434 0.68332
 C1421 C 0.49072 0.41069 0.68423
 C1422 C 0.51335 0.41342 0.67879
 C1423 C 0.52462 0.39635 0.66763
 C1424 C 0.51335 0.37641 0.66183
 C1425 C 0.44400 0.40554 0.69569
 C1426 C 0.43371 0.42004 0.70529
 C1427 C 0.49066 0.33490 0.65003
 C1428 C 0.50024 0.31964 0.64088
 H1429 H 0.45194 0.31630 0.65226
 H1430 H 0.41243 0.31193 0.66178
 H1431 H 0.39240 0.34225 0.68157
 H1432 H 0.41177 0.37712 0.69197
 H1433 H 0.48267 0.42444 0.69292
 H1434 H 0.52218 0.42887 0.68326
 H1435 H 0.54220 0.39856 0.66344
 H1436 H 0.52283 0.36362 0.65314
 C1437 C 0.47331 0.64472 0.82791
 C1438 C 0.48525 0.62455 0.82447
 C1439 C 0.47414 0.60546 0.81477
 C1440 C 0.45115 0.60664 0.80859
 C1441 C 0.43921 0.62682 0.81201
 C1442 C 0.45032 0.64591 0.82170
 C1443 C 0.43804 0.66589 0.82496
 C1444 C 0.41541 0.66698 0.81883
 C1445 C 0.40455 0.64831 0.80936
 C1446 C 0.41622 0.62842 0.80595
 C1447 C 0.48643 0.58549 0.81150
 C1448 C 0.50906 0.58441 0.81762
 C1449 C 0.51992 0.60308 0.82711
 C1450 C 0.50824 0.62296 0.83053
 C1451 C 0.43972 0.58708 0.79888
 C1452 C 0.43005 0.57089 0.79096
 C1453 C 0.48468 0.66425 0.83772
 C1454 C 0.49421 0.68046 0.84577
 H1455 H 0.44575 0.68086 0.83227
 H1456 H 0.40627 0.68239 0.82144
 H1457 H 0.38697 0.64924 0.80463
 H1458 H 0.40703 0.61435 0.79852
 H1459 H 0.47872 0.57053 0.80417
 H1460 H 0.51821 0.56900 0.81500
 H1461 H 0.53750 0.60215 0.83184
 H1462 H 0.51743 0.63703 0.83797
 C1463 C -0.02617 0.14561 0.32654
 C1464 C -0.04930 0.14683 0.32092
 C1465 C -0.06059 0.12786 0.31118
 C1466 C -0.04867 0.10778 0.30712
 C1467 C -0.02552 0.10660 0.31264
 C1468 C -0.01423 0.12557 0.32238
 C1469 C 0.00892 0.12398 0.32779
 C1470 C 0.02059 0.10422 0.32366
 C1471 C 0.00956 0.08568 0.31412
 C1472 C -0.01323 0.08675 0.30864
 C1473 C -0.08372 0.12947 0.30571
 C1474 C -0.09537 0.14927 0.30975
 C1475 C -0.08434 0.16781 0.31928
 C1476 C -0.06157 0.16670 0.32483
 C1477 C -0.06033 0.08826 0.29760
 C1478 C -0.07018 0.07206 0.28992
 C1479 C -0.01466 0.16498 0.33651
 C1480 C -0.00505 0.18108 0.34469
 H1481 H 0.01823 0.13795 0.33524
 H1482 H 0.03829 0.10329 0.32789
 H1483 H 0.01870 0.07037 0.31094
 H1484 H -0.02107 0.07189 0.30124
 H1485 H -0.09304 0.11551 0.29826
 H1486 H -0.11306 0.15022 0.30546
 H1487 H -0.09346 0.18315 0.32238
 H1488 H -0.05373 0.18158 0.33221
 C1489 C 0.03130 0.35461 0.32052
 C1490 C 0.05318 0.35175 0.31179
 C1491 C 0.06450 0.37011 0.30144
 C1492 C 0.05388 0.39121 0.29991
 C1493 C 0.03191 0.39401 0.30844
 C1494 C 0.02058 0.37565 0.31878
 C1495 C -0.00135 0.37887 0.32725
 C1496 C -0.01180 0.39962 0.32555
 C1497 C -0.00072 0.41757 0.31544
 C1498 C 0.02088 0.41490 0.30696
 C1499 C 0.08640 0.36686 0.29288
 C1500 C 0.09680 0.34607 0.29450
 C1501 C 0.08573 0.32813 0.30461
 C1502 C 0.06417 0.33084 0.31319
 C1503 C 0.06577 0.41017 0.29008
 C1504 C 0.07590 0.42594 0.28229
 C1505 C 0.01986 0.33596 0.33135
 C1506 C 0.01031 0.32049 0.34034
 H1507 H -0.01065 0.36541 0.33526
 H1508 H -0.02858 0.40179 0.33211
 H1509 H -0.00891 0.43366 0.31416
 H1510 H 0.02879 0.42935 0.29922
 H1511 H 0.09568 0.38030 0.28484
 H1512 H 0.11355 0.34388 0.28786
 H1513 H 0.09389 0.31201 0.30583
 H1514 H 0.05624 0.31638 0.32091
 C1515 C 0.52996 0.85462 0.82199
 C1516 C 0.55172 0.85192 0.81290
 C1517 C 0.56290 0.87047 0.80274
 C1518 C 0.55226 0.89160 0.80174
 C1519 C 0.53041 0.89424 0.81064
 C1520 C 0.51923 0.87570 0.82080
 C1521 C 0.49743 0.87876 0.82965
 C1522 C 0.48697 0.89955 0.82849
 C1523 C 0.49790 0.91768 0.81855
 C1524 C 0.51937 0.91516 0.80971
 C1525 C 0.58467 0.86737 0.79382
 C1526 C 0.59509 0.84656 0.79492
 C1527 C 0.58416 0.82843 0.80486
 C1528 C 0.56272 0.83098 0.81378
 C1529 C 0.56400 0.91072 0.79204
 C1530 C 0.57402 0.92660 0.78432
 C1531 C 0.51864 0.83576 0.83260
 C1532 C 0.50916 0.82015 0.84142
 H1533 H 0.48824 0.86516 0.83754
 H1534 H 0.47029 0.90160 0.83534
 H1535 H 0.48970 0.93380 0.81769
 H1536 H 0.52719 0.92975 0.80212
 H1537 H 0.59384 0.88096 0.78590
 H1538 H 0.61174 0.84448 0.78801
 H1539 H 0.59233 0.81230 0.80568
 H1540 H 0.55490 0.81638 0.82135
 C1541 C 0.65748 0.53465 0.14596
 C1542 C 0.66168 0.52263 0.12578
 C1543 C 0.67243 0.53361 0.10753
 C1544 C 0.67888 0.55654 0.10957
 C1545 C 0.67447 0.56862 0.12968
 C1546 C 0.66374 0.55764 0.14793
 C1547 C 0.65956 0.57004 0.16788
 C1548 C 0.66580 0.59265 0.16974
 C1549 C 0.67630 0.60339 0.15190
 C1550 C 0.68063 0.59160 0.13206
 C1551 C 0.67652 0.52124 0.08755
 C1552 C 0.67016 0.49866 0.08564
 C1553 C 0.65964 0.48793 0.10348
 C1554 C 0.65542 0.49969 0.12336
 C1555 C 0.69010 0.56774 0.09108
 C1556 C 0.69945 0.57740 0.07595
 C1557 C 0.64711 0.52330 0.16486
 C1558 C 0.63879 0.51399 0.18076
 H1559 H 0.65143 0.56244 0.18221
 H1560 H 0.66247 0.60189 0.18511
 H1561 H 0.68111 0.62096 0.15343
 H1562 H 0.68883 0.60070 0.11866
 H1563 H 0.68465 0.52887 0.07322
 H1564 H 0.67341 0.48945 0.07023
 H1565 H 0.65473 0.47039 0.10191
 H1566 H 0.64718 0.49062 0.13676
 C1567 C 0.15761 1.03448 0.64786
 C1568 C 0.16234 1.02227 0.62791
 C1569 C 0.17295 1.03325 0.60959
 C1570 C 0.17875 1.05637 0.61132
 C1571 C 0.17377 1.06864 0.63116
 C1572 C 0.16317 1.05766 0.64949
 C1573 C 0.15842 1.07026 0.66917
 C1574 C 0.16396 1.09306 0.67070
 C1575 C 0.17431 1.10380 0.65278
 C1576 C 0.17921 1.09182 0.63320
 C1577 C 0.17756 1.02069 0.58984
 C1578 C 0.17183 0.99793 0.58824
 C1579 C 0.16145 0.98720 0.60616
 C1580 C 0.15672 0.99914 0.62581
 C1581 C 0.18993 1.06754 0.59278
 C1582 C 0.19924 1.07709 0.57758
 C1583 C 0.14743 1.02311 0.66684
 C1584 C 0.13928 1.01362 0.68272
 H1585 H 0.15035 1.06265 0.68355
 H1586 H 0.16018 1.10245 0.68588
 H1587 H 0.17857 1.12152 0.65405
 H1588 H 0.18727 1.10093 0.61972
 H1589 H 0.18560 1.02831 0.57546
 H1590 H 0.17545 0.98858 0.57301
 H1591 H 0.15703 0.96952 0.60482
 H1592 H 0.14861 0.99005 0.63928
 C1593 C 0.16576 0.97861 0.85497
 C1594 C 0.17160 0.98994 0.87528
 C1595 C 0.18309 0.97830 0.89262
 C1596 C 0.18866 0.95542 0.88952
 C1597 C 0.18277 0.94408 0.86922
 C1598 C 0.17129 0.95571 0.85189
 C1599 C 0.16560 0.94403 0.83174
 C1600 C 0.17108 0.92149 0.82879
 C1601 C 0.18229 0.91011 0.84574
 C1602 C 0.18812 0.92118 0.86575
 C1603 C 0.18877 0.98996 0.91277
 C1604 C 0.18324 1.01249 0.91573
 C1605 C 0.17201 1.02387 0.89879
 C1606 C 0.16621 1.01281 0.87876
 C1607 C 0.20031 0.94343 0.90719
 C1608 C 0.20985 0.93303 0.92165
 C1609 C 0.15427 0.99051 0.83712
 C1610 C 0.14489 1.00015 0.82205
 H1611 H 0.15686 0.95214 0.81806
 H1612 H 0.16659 0.91281 0.81328
 H1613 H 0.18651 0.89260 0.84338
 H1614 H 0.19684 0.91160 0.87842
 H1615 H 0.19751 0.98182 0.92643
 H1616 H 0.18770 1.02116 0.93126
 H1617 H 0.16775 1.04137 0.90117
 H1618 H 0.15747 1.02236 0.86607
 C1619 C 0.66633 0.48061 0.35309
 C1620 C 0.67156 0.45761 0.35019
 C1621 C 0.68303 0.44600 0.36753
 C1622 C 0.68921 0.45746 0.38769
 C1623 C 0.68395 0.48044 0.39061
 C1624 C 0.67247 0.49206 0.37325
 C1625 C 0.66739 0.51503 0.37654
 C1626 C 0.67349 0.52621 0.39642
 C1627 C 0.68472 0.51486 0.41338
 C1628 C 0.68994 0.49223 0.41060
 C1629 C 0.68808 0.42301 0.36424
 C1630 C 0.68197 0.41182 0.34437
 C1631 C 0.67075 0.42317 0.32741
 C1632 C 0.66556 0.44580 0.33019
 C1633 C 0.70083 0.44549 0.40540
 C1634 C 0.71035 0.43513 0.41989
 C1635 C 0.65487 0.49248 0.33521
 C1636 C 0.64552 0.50211 0.32011
 H1637 H 0.65866 0.52457 0.36383
 H1638 H 0.66948 0.54379 0.39866
 H1639 H 0.68942 0.52363 0.42879
 H1640 H 0.69870 0.48412 0.42427
 H1641 H 0.69679 0.41344 0.37693
 H1642 H 0.68596 0.39424 0.34213
 H1643 H 0.66604 0.41440 0.31201
 H1644 H 0.65681 0.45389 0.31650
 C1645 C 0.82939 0.47411 0.64621
 C1646 C 0.81906 0.45265 0.64837
 C1647 C 0.80954 0.44164 0.62915
 C1648 C 0.81042 0.45215 0.60787
 C1649 C 0.82069 0.47363 0.60572
 C1650 C 0.83021 0.48464 0.62494
 C1651 C 0.84041 0.50610 0.62237
 C1652 C 0.84119 0.51639 0.60140
 C1653 C 0.83188 0.50562 0.58261
 C1654 C 0.82173 0.48449 0.58464
 C1655 C 0.79932 0.42020 0.63174
 C1656 C 0.79852 0.40992 0.65271
 C1657 C 0.80784 0.42068 0.67150
 C1658 C 0.81801 0.44180 0.66946
 C1659 C 0.80101 0.44072 0.58819
 C1660 C 0.79335 0.43102 0.57190
 C1661 C 0.83913 0.48532 0.66585
 C1662 C 0.84712 0.49459 0.68223
 H1663 H 0.84787 0.51514 0.63650
 H1664 H 0.84906 0.53280 0.59973
 H1665 H 0.83253 0.51369 0.56636
 H1666 H 0.81472 0.47679 0.56954
 H1667 H 0.79182 0.41116 0.61763
 H1668 H 0.79064 0.39352 0.65439
 H1669 H 0.80719 0.41262 0.68775
 H1670 H 0.82501 0.44949 0.68457
 C1671 C 0.32871 -0.02571 0.14563
 C1672 C 0.32356 -0.04899 0.14656
 C1673 C 0.31404 -0.06019 0.12746
 C1674 C 0.30973 -0.04804 0.10752
 C1675 C 0.31484 -0.02475 0.10661
 C1676 C 0.32437 -0.01355 0.12572
 C1677 C 0.32935 0.00974 0.12440
 C1678 C 0.32503 0.02163 0.10477
 C1679 C 0.31571 0.01068 0.08609
 C1680 C 0.31064 -0.01224 0.08690
 C1681 C 0.30905 -0.08348 0.12879
 C1682 C 0.31333 -0.09536 0.14844
 C1683 C 0.32264 -0.08440 0.16712
 C1684 C 0.32773 -0.06149 0.16629
 C1685 C 0.30024 -0.05957 0.08794
 C1686 C 0.29250 -0.06935 0.07173
 C1687 C 0.33838 -0.01427 0.16518
 C1688 C 0.34631 -0.00482 0.18148
 H1689 H 0.33662 0.01900 0.13849
 H1690 H 0.32895 0.03944 0.10405
 H1691 H 0.31239 0.02000 0.07088
 H1692 H 0.30340 -0.02001 0.07194
 H1693 H 0.30179 -0.09275 0.11471
 H1694 H 0.30940 -0.11316 0.14917
 H1695 H 0.32593 -0.09370 0.18235
 H1696 H 0.33495 -0.05372 0.18126
 C1697 C 0.32081 0.02675 0.35538
 C1698 C 0.32175 0.01747 0.37722
 C1699 C 0.31128 0.02869 0.39551
 C1700 C 0.29992 0.04912 0.39184
 C1701 C 0.29867 0.05822 0.36993
 C1702 C 0.30916 0.04701 0.35165
 C1703 C 0.30778 0.05649 0.32991
 C1704 C 0.29635 0.07646 0.32634
 C1705 C 0.28608 0.08741 0.34421
 C1706 C 0.28718 0.07848 0.36579
 C1707 C 0.31252 0.01913 0.41720
 C1708 C 0.32378 -0.00095 0.42074
 C1709 C 0.33402 -0.01192 0.40286
 C1710 C 0.33308 -0.00289 0.38131
 C1711 C 0.29012 0.06114 0.41067
 C1712 C 0.28236 0.07147 0.42627
 C1713 C 0.33196 0.01561 0.33679
 C1714 C 0.34120 0.00649 0.32127
 H1715 H 0.31547 0.04858 0.31547
 H1716 H 0.29545 0.08347 0.30961
 H1717 H 0.27721 0.10292 0.34134
 H1718 H 0.27890 0.08761 0.37914
 H1719 H 0.30478 0.02702 0.43163
 H1720 H 0.32455 -0.00804 0.43744
 H1721 H 0.34274 -0.02752 0.40569
 H1722 H 0.34129 -0.01205 0.36794
 C1723 C 0.82047 0.52623 0.85589
 C1724 C 0.80943 0.54684 0.85217
 C1725 C 0.79895 0.55815 0.87038
 C1726 C 0.79958 0.54881 0.89222
 C1727 C 0.81033 0.52804 0.89587
 C1728 C 0.82081 0.51672 0.87765
 C1729 C 0.83151 0.49601 0.88172
 C1730 C 0.83185 0.48675 0.90318
 C1731 C 0.82160 0.49782 0.92099
 C1732 C 0.81095 0.51824 0.91748
 C1733 C 0.78807 0.57876 0.86626
 C1734 C 0.78756 0.58791 0.84476
 C1735 C 0.79782 0.57686 0.82695
 C1736 C 0.80866 0.55655 0.83051
 C1737 C 0.78976 0.56089 0.91100
 C1738 C 0.78196 0.57125 0.92657
 C1739 C 0.83161 0.51496 0.83737
 C1740 C 0.84087 0.50572 0.82193
 H1741 H 0.83970 0.48677 0.86839
 H1742 H 0.84010 0.47090 0.90599
 H1743 H 0.82190 0.49055 0.93763
 H1744 H 0.80319 0.52620 0.93186
 H1745 H 0.77982 0.58797 0.87957
 H1746 H 0.77915 0.60368 0.84191
 H1747 H 0.79738 0.58404 0.81028
 H1748 H 0.81638 0.54858 0.81612
 C1749 C 0.14571 0.66015 0.53413
 C1750 C 0.12554 0.66471 0.52232
 C1751 C 0.10752 0.67540 0.53359
 C1752 C 0.10979 0.68143 0.55661
 C1753 C 0.12989 0.67668 0.56847
 C1754 C 0.14791 0.66600 0.55720
 C1755 C 0.16786 0.66147 0.56939
 C1756 C 0.16994 0.66729 0.59208
 C1757 C 0.15232 0.67772 0.60311
 C1758 C 0.13249 0.68240 0.59153
 C1759 C 0.08753 0.67984 0.52144
 C1760 C 0.08540 0.67388 0.49878
 C1761 C 0.10302 0.66344 0.48775
 C1762 C 0.12290 0.65887 0.49930
 C1763 C 0.09152 0.69257 0.56812
 C1764 C 0.07658 0.70180 0.57804
 C1765 C 0.16436 0.64980 0.52249
 C1766 C 0.18001 0.64149 0.51286
 H1767 H 0.18203 0.65337 0.56156
 H1768 H 0.18531 0.66369 0.60116
 H1769 H 0.15401 0.68220 0.62075
 H1770 H 0.11926 0.69053 0.60086
 H1771 H 0.07337 0.68793 0.52929
 H1772 H 0.07000 0.67739 0.48973
 H1773 H 0.10128 0.65884 0.47014
 H1774 H 0.13613 0.65070 0.49000
 C1775 C 0.64586 0.16023 1.03522
 C1776 C 0.62567 0.16482 1.02345
 C1777 C 0.60776 0.17570 1.03472
 C1778 C 0.61014 0.18189 1.05768
 C1779 C 0.63027 0.17713 1.06950
 C1780 C 0.64818 0.16627 1.05824
 C1781 C 0.66815 0.16172 1.07039
 C1782 C 0.67036 0.16773 1.09302
 C1783 C 0.65285 0.17835 1.10404
 C1784 C 0.63299 0.18305 1.09250
 C1785 C 0.58775 0.18016 1.02259
 C1786 C 0.58551 0.17404 0.99998
 C1787 C 0.60302 0.16340 0.98897
 C1788 C 0.62291 0.15881 1.00049
 C1789 C 0.59194 0.19316 1.06917
 C1790 C 0.57697 0.20249 1.07894
 C1791 C 0.66439 0.14968 1.02359
 C1792 C 0.67992 0.14119 1.01392
 H1793 H 0.68224 0.15347 1.06256
 H1794 H 0.68574 0.16411 1.10206
 H1795 H 0.65464 0.18299 1.12163
 H1796 H 0.61985 0.19134 1.10181
 H1797 H 0.57367 0.18840 1.03043
 H1798 H 0.57009 0.17758 0.99096
 H1799 H 0.60118 0.15868 0.97141
 H1800 H 0.63605 0.15049 0.99120
 C1801 C 0.85250 0.16415 0.98034
 C1802 C 0.87342 0.16811 0.99129
 C1803 C 0.89099 0.17968 0.97989
 C1804 C 0.88752 0.18720 0.95761
 C1805 C 0.86660 0.18322 0.94665
 C1806 C 0.84904 0.17166 0.95804
 C1807 C 0.82827 0.16789 0.94673
 C1808 C 0.82494 0.17532 0.92480
 C1809 C 0.84211 0.18662 0.91366
 C1810 C 0.86273 0.19057 0.92437
 C1811 C 0.91175 0.18346 0.99119
 C1812 C 0.91507 0.17601 1.01312
 C1813 C 0.89790 0.16470 1.02426
 C1814 C 0.87727 0.16074 1.01355
 C1815 C 0.90546 0.19885 0.94583
 C1816 C 0.92012 0.20842 0.93558
 C1817 C 0.83443 0.15256 0.99199
 C1818 C 0.81910 0.14315 1.00136
 H1819 H 0.81439 0.15917 0.95468
 H1820 H 0.80896 0.17229 0.91641
 H1821 H 0.83945 0.19237 0.89662
 H1822 H 0.87556 0.19944 0.91499
 H1823 H 0.92560 0.19220 0.98321
 H1824 H 0.93106 0.17905 1.02151
 H1825 H 0.90057 0.15895 1.04129
 H1826 H 0.86443 0.15186 1.02290
 C1827 C 0.35281 0.66587 0.47834
 C1828 C 0.37291 0.67183 0.48999
 C1829 C 0.39049 0.68333 0.47855
 C1830 C 0.38787 0.68877 0.45554
 C1831 C 0.36781 0.68270 0.44386
 C1832 C 0.35023 0.67122 0.45530
 C1833 C 0.33033 0.66534 0.44328
 C1834 C 0.32788 0.67064 0.42061
 C1835 C 0.34506 0.68187 0.40942
 C1836 C 0.36483 0.68788 0.42083
 C1837 C 0.41042 0.68914 0.49053
 C1838 C 0.41291 0.68374 0.51318
 C1839 C 0.39572 0.67249 0.52437
 C1840 C 0.37591 0.66657 0.51299
 C1841 C 0.40579 0.70049 0.44377
 C1842 C 0.42046 0.71010 0.43360
 C1843 C 0.33466 0.65449 0.49008
 C1844 C 0.31934 0.64525 0.49963
 H1845 H 0.31648 0.65658 0.45124
 H1846 H 0.31255 0.66601 0.41167
 H1847 H 0.34308 0.68596 0.39181
 H1848 H 0.37771 0.69660 0.41139
 H1849 H 0.42425 0.69790 0.48255
 H1850 H 0.42826 0.68830 0.52210
 H1851 H 0.39774 0.66832 0.54196
 H1852 H 0.36302 0.65782 0.52240
 C1853 C 0.64624 0.83107 0.47515
 C1854 C 0.62498 0.83117 0.48576
 C1855 C 0.60588 0.82164 0.47454
 C1856 C 0.60815 0.81207 0.45278
 C1857 C 0.62941 0.81195 0.44219
 C1858 C 0.64851 0.82148 0.45340
 C1859 C 0.66959 0.82118 0.44247
 C1860 C 0.67174 0.81172 0.42107
 C1861 C 0.65307 0.80239 0.41010
 C1862 C 0.63211 0.80246 0.42045
 C1863 C 0.58481 0.82194 0.48547
 C1864 C 0.58267 0.83139 0.50689
 C1865 C 0.60135 0.84070 0.51786
 C1866 C 0.62230 0.84065 0.50750
 C1867 C 0.58860 0.80252 0.44120
 C1868 C 0.57244 0.79472 0.43140
 C1869 C 0.66577 0.84069 0.48666
 C1870 C 0.68203 0.84855 0.49626
 H1871 H 0.68460 0.82824 0.45032
 H1872 H 0.68798 0.81163 0.41295
 H1873 H 0.65483 0.79506 0.39348
 H1874 H 0.61809 0.79499 0.41124
 H1875 H 0.56980 0.81489 0.47762
 H1876 H 0.56643 0.83147 0.51501
 H1877 H 0.59960 0.84802 0.53449
 H1878 H 0.63633 0.84810 0.51671
 C1879 C 0.14509 0.32911 -0.02383
 C1880 C 0.12506 0.34163 -0.02543
 C1881 C 0.10569 0.33198 -0.03608
 C1882 C 0.10646 0.30986 -0.04504
 C1883 C 0.12645 0.29729 -0.04331
 C1884 C 0.14582 0.30695 -0.03268
 C1885 C 0.16563 0.29408 -0.03121
 C1886 C 0.16627 0.27228 -0.03997
 C1887 C 0.14733 0.26284 -0.05034
 C1888 C 0.12760 0.27512 -0.05205
 C1889 C 0.08588 0.34485 -0.03754
 C1890 C 0.08522 0.36661 -0.02871
 C1891 C 0.10415 0.37603 -0.01828
 C1892 C 0.12388 0.36376 -0.01661
 C1893 C 0.08683 0.30018 -0.05634
 C1894 C 0.07060 0.29229 -0.06596
 C1895 C 0.16493 0.33901 -0.01311
 C1896 C 0.18146 0.34712 -0.00420
 H1897 H 0.18080 0.30069 -0.02329
 H1898 H 0.18156 0.26268 -0.03869
 H1899 H 0.14791 0.24590 -0.05712
 H1900 H 0.11330 0.26704 -0.06026
 H1901 H 0.07072 0.33824 -0.04549
 H1902 H 0.06993 0.37621 -0.02997
 H1903 H 0.10354 0.39294 -0.01144
 H1904 H 0.13817 0.37182 -0.00835
 C1905 C 0.35581 0.32262 0.02855
 C1906 C 0.37142 0.33639 0.04061
 C1907 C 0.38973 0.32647 0.05218
 C1908 C 0.39234 0.30283 0.05161
 C1909 C 0.37682 0.28908 0.03945
 C1910 C 0.35850 0.29900 0.02788
 C1911 C 0.34317 0.28490 0.01586
 C1912 C 0.34588 0.26166 0.01527
 C1913 C 0.36379 0.25197 0.02658
 C1914 C 0.37914 0.26543 0.03856
 C1915 C 0.40509 0.34059 0.06415
 C1916 C 0.40243 0.36383 0.06468
 C1917 C 0.38452 0.37352 0.05337
 C1918 C 0.36914 0.36004 0.04145
 C1919 C 0.41083 0.29274 0.06381
 C1920 C 0.42621 0.28480 0.07425
 C1921 C 0.33699 0.33277 0.01692
 C1922 C 0.32138 0.34127 0.00732
 H1923 H 0.32897 0.29166 0.00680
 H1924 H 0.33400 0.25113 0.00599
 H1925 H 0.36582 0.23391 0.02608
 H1926 H 0.39282 0.25712 0.04709
 H1927 H 0.41931 0.33385 0.07321
 H1928 H 0.41434 0.37437 0.07391
 H1929 H 0.38252 0.39158 0.05383
 H1930 H 0.35548 0.36838 0.03292
 C1931 C 0.85597 0.82404 0.53195
 C1932 C 0.87393 0.83748 0.54058
 C1933 C 0.89220 0.82722 0.55192
 C1934 C 0.89240 0.80358 0.55456
 C1935 C 0.87451 0.79013 0.54582
 C1936 C 0.85623 0.80039 0.53449
 C1937 C 0.83850 0.78660 0.52594
 C1938 C 0.83883 0.76333 0.52851
 C1939 C 0.85671 0.75331 0.53958
 C1940 C 0.87439 0.76647 0.54818
 C1941 C 0.90995 0.84102 0.56044
 C1942 C 0.90965 0.86427 0.55783
 C1943 C 0.89179 0.87430 0.54673
 C1944 C 0.87409 0.86114 0.53818
 C1945 C 0.91087 0.79321 0.56655
 C1946 C 0.92626 0.78503 0.57679
 C1947 C 0.83726 0.83455 0.52047
 C1948 C 0.82177 0.84330 0.51091
 H1949 H 0.82423 0.79362 0.51721
 H1950 H 0.82513 0.75304 0.52187
 H1951 H 0.85688 0.73523 0.54152
 H1952 H 0.88793 0.75790 0.55665
 H1953 H 0.92422 0.83401 0.56919
 H1954 H 0.92336 0.87457 0.56444
 H1955 H 0.89164 0.89237 0.54474
 H1956 H 0.86058 0.86972 0.52968
   
